drugbank_target|P10478 Endo-1,4-beta-xylanase Z (DB07767)
 OpenBabel12092120463D

  0  0  0     0  0            999 V3000
M  V30 BEGIN CTAB
M  V30 COUNTS 12837 12995 0 0 0
M  V30 BEGIN ATOM
M  V30 1 H -0.908 1.98254 -0.117106 0
M  V30 2 N 0 1.576 0 0
M  V30 3 C 0.933 2.03868 1.02534 0
M  V30 4 C 1.911 0.928543 1.3348 0
M  V30 5 O 3.095 1.19667 1.45644 0
M  V30 6 C 0.222 2.43627 2.35294 0
M  V30 7 C -0.732 3.65373 2.2001 0
M  V30 8 S 0.101 5.13292 1.52614 0
M  V30 9 C 1.257 5.56322 2.86805 0
M  V30 10 H 1.49 2.90518 0.631377 0
M  V30 11 H -0.977 1.52953 0.210867 0
M  V30 12 H 0.981 2.67203 3.11629 0
M  V30 13 H -0.358 1.57376 2.7183 0
M  V30 14 H -1.165 3.90944 3.18086 0
M  V30 15 H -1.563 3.418 1.51819 0
M  V30 16 H 0.729 5.58782 3.83104 0
M  V30 17 H 1.672 6.56266 2.65933 0
M  V30 18 H 2.08 4.83886 2.90714 0
M  V30 19 N 1.4781 -0.272755 1.55222 0
M  V30 20 C 2.7031 -1.02683 1.80197 0
M  V30 21 C 3.1281 -1.79142 0.573551 0
M  V30 22 O 2.4861 -1.74917 -0.476849 0
M  V30 23 C 2.5341 -1.9609 3.02624 0
M  V30 24 O 1.6381 -3.04863 2.77727 0
M  V30 25 H 0.9791 -0.293557 0.595584 0
M  V30 26 H 3.5091 -0.30159 2.02365 0
M  V30 27 H 3.5191 -2.38039 3.31363 0
M  V30 28 H 2.1941 -1.39851 3.91682 0
M  V30 29 H 0.7711 -2.67228 2.60084 0
M  V30 30 N 2.9562 -1.48159 -0.537278 0
M  V30 31 C 4.3722 -1.34118 -0.865129 0
M  V30 32 C 4.5722 -0.346678 -1.98495 0
M  V30 33 O 3.6282 0.234715 -2.51407 0
M  V30 34 C 4.9412 -2.73963 -1.23954 0
M  V30 35 C 6.4892 -2.82397 -1.34984 0
M  V30 36 C 6.9642 -4.22928 -1.75772 0
M  V30 37 N 8.4552 -4.25566 -1.82887 0
M  V30 38 C 9.1902 -5.31235 -2.15817 0
M  V30 39 N 8.6862 -6.47189 -2.47222 0
M  V30 40 N 10.4792 -5.18624 -2.16761 0
M  V30 41 H 2.6302 -2.1144 0.201715 0
M  V30 42 H 4.8932 -0.947598 0.0275949 0
M  V30 43 H 4.5992 -3.48264 -0.490381 0
M  V30 44 H 4.4732 -3.0702 -2.19132 0
M  V30 45 H 6.8602 -2.08356 -2.08978 0
M  V30 46 H 6.9412 -2.5297 -0.379448 0
M  V30 47 H 6.5852 -4.97482 -1.02341 0
M  V30 48 H 6.5152 -4.49794 -2.73848 0
M  V30 49 H 9.0062 -3.41924 -1.60924 0
M  V30 50 H 9.3192 -7.23564 -2.71433 0
M  V30 51 H 7.6642 -6.50476 -2.44757 0
M  V30 52 H 10.8552 -4.27056 -1.91679 0
M  V30 53 H 11.0282 -6.01078 -2.42093 0
M  V30 54 N 4.4343 0.785586 -1.36625 0
M  V30 55 C 5.3813 1.89838 -1.31264 0
M  V30 56 C 6.3513 1.65115 -0.180633 0
M  V30 57 O 7.5363 1.87222 -0.36777 0
M  V30 58 C 4.6763 3.26706 -1.11163 0
M  V30 59 C 3.7893 3.63476 -2.33472 0
M  V30 60 C 2.9243 4.89481 -2.06353 0
M  V30 61 C 1.9633 5.18941 -3.24602 0
M  V30 62 N 1.1003 6.36131 -2.97123 0
M  V30 63 H 5.9403 1.93756 -2.26413 0
M  V30 64 H 3.4773 0.947454 -1.12524 0
M  V30 65 H 5.4353 4.05639 -0.975337 0
M  V30 66 H 4.0653 3.222 -0.196674 0
M  V30 67 H 3.1173 2.79636 -2.57891 0
M  V30 68 H 4.4293 3.81193 -3.21704 0
M  V30 69 H 3.5833 5.76288 -1.89675 0
M  V30 70 H 2.3223 4.73841 -1.15437 0
M  V30 71 H 1.3273 4.30615 -3.41834 0
M  V30 72 H 2.5523 5.36498 -4.16349 0
M  V30 73 H 0.4983 6.21875 -2.08823 0
M  V30 74 H 0.4153 6.54198 -3.78894 0
M  V30 75 H 1.6833 7.2591 -2.84033 0
M  V30 76 N 5.9124 1.20967 1.01018 0
M  V30 77 C 6.8424 0.988272 2.11555 0
M  V30 78 C 7.8234 -0.0849778 1.69888 0
M  V30 79 O 9.0084 0.0738202 1.9406 0
M  V30 80 C 6.1384 0.546528 3.42973 0
M  V30 81 C 5.0924 1.56375 3.9841 0
M  V30 82 C 4.4184 0.97842 5.25672 0
M  V30 83 C 5.7184 2.94922 4.31066 0
M  V30 84 H 7.4124 1.91276 2.30334 0
M  V30 85 H 4.9584 0.921073 1.1069 0
M  V30 86 H 6.9114 0.378839 4.19694 0
M  V30 87 H 5.6354 -0.413598 3.23971 0
M  V30 88 H 4.2944 1.71891 3.23804 0
M  V30 89 H 3.9424 0.0101688 5.02999 0
M  V30 90 H 3.6424 1.65784 5.63728 0
M  V30 91 H 5.1664 0.821939 6.05043 0
M  V30 92 H 6.5804 2.8288 4.9865 0
M  V30 93 H 4.9774 3.5983 4.80253 0
M  V30 94 H 6.0474 3.4616 3.39561 0
M  V30 95 N 7.3905 -1.2043 1.01659 0
M  V30 96 C 8.6375 -1.89797 0.705917 0
M  V30 97 C 8.9655 -1.78848 -0.764439 0
M  V30 98 O 8.2205 -1.16694 -1.57102 0
M  V30 99 C 8.5195 -3.40464 1.08714 0
M  V30 100 C 8.1855 -3.71614 2.5537 0
M  V30 101 C 6.8475 -3.79826 2.95441 0
M  V30 102 C 9.1995 -3.85915 3.50313 0
M  V30 103 C 6.5275 -3.99797 4.29394 0
M  V30 104 C 8.8795 -4.07396 4.83954 0
M  V30 105 C 7.5435 -4.13837 5.23732 0
M  V30 106 H 6.8135 -0.694518 0.258313 0
M  V30 107 H 9.4605 -1.42691 1.27717 0
M  V30 108 H 7.7655 -3.89385 0.434309 0
M  V30 109 H 9.4625 -3.92433 0.824461 0
M  V30 110 H 6.0525 -3.65822 2.23321 0
M  V30 111 H 10.2365 -3.78926 3.20513 0
M  V30 112 H 5.4925 -4.03018 4.59768 0
M  V30 113 H 9.6665 -4.17404 5.57447 0
M  V30 114 H 7.2935 -4.29064 6.27541 0
M  V30 115 N 8.8686 -0.792821 -1.36206 0
M  V30 116 C 10.0936 -0.377701 -2.03932 0
M  V30 117 C 10.5186 0.998947 -1.59382 0
M  V30 118 O 9.8766 1.64421 -0.763903 0
M  V30 119 C 9.9246 -0.453635 -3.57735 0
M  V30 120 O 9.0286 0.538151 -4.08874 0
M  V30 121 H 8.3696 -0.159855 -0.644471 0
M  V30 122 H 10.8996 -1.07488 -1.7409 0
M  V30 123 H 10.9096 -0.318464 -4.06755 0
M  V30 124 H 9.5846 -1.45784 -3.89512 0
M  V30 125 H 8.1616 0.364359 -3.71116 0
M  V30 126 N 10.3467 1.47872 -0.545128 0
M  V30 127 C 11.5927 2.02793 -0.0166104 0
M  V30 128 C 11.9257 1.41987 1.32489 0
M  V30 129 O 11.2007 0.571045 1.85928 0
M  V30 130 C 11.4837 3.59989 0.0893294 0
M  V30 131 C 11.3367 4.3125 -1.27841 0
M  V30 132 C 12.6557 4.32606 0.808724 0
M  V30 133 H 9.7747 0.736962 -0.00751035 0
M  V30 134 H 12.4167 1.76433 -0.705085 0
M  V30 135 H 10.5667 3.82579 0.675681 0
M  V30 136 H 12.2387 4.20035 -1.90704 0
M  V30 137 H 10.4817 3.92076 -1.85632 0
M  V30 138 H 11.1527 5.39736 -1.15713 0
M  V30 139 H 13.6287 4.14936 0.310992 0
M  V30 140 H 12.5047 5.42251 0.851782 0
M  V30 141 H 12.7657 4.00963 1.86229 0
M  V30 142 N 11.8248 0.280983 1.55075 0
M  V30 143 C 12.7548 -0.597469 2.25727 0
M  V30 144 C 13.7358 -1.15417 1.24952 0
M  V30 145 O 14.9208 -1.18722 1.53684 0
M  V30 146 C 12.0508 -1.7789 2.98283 0
M  V30 147 C 11.0048 -1.35347 4.06036 0
M  V30 148 C 10.3308 -2.61846 4.66198 0
M  V30 149 C 11.6308 -0.499354 5.19907 0
M  V30 150 H 13.3248 -0.00824265 2.99399 0
M  V30 151 H 10.8708 -0.0025244 1.44 0
M  V30 152 H 12.8238 -2.39937 3.46422 0
M  V30 153 H 11.5478 -2.39405 2.22155 0
M  V30 154 H 10.2068 -0.756156 3.58717 0
M  V30 155 H 9.8548 -3.21632 3.86732 0
M  V30 156 H 9.5548 -2.3409 5.38958 0
M  V30 157 H 11.0788 -3.24732 5.1709 0
M  V30 158 H 12.4928 -1.02498 5.64063 0
M  V30 159 H 10.8898 -0.316424 5.99265 0
M  V30 160 H 11.9598 0.480459 4.82514 0
M  V30 161 N 13.3029 -1.57598 0.00835791 0
M  V30 162 C 14.2329 -2.1198 -0.979113 0
M  V30 163 C 15.2139 -1.03091 -1.35301 0
M  V30 164 O 16.3989 -1.30818 -1.43528 0
M  V30 165 C 13.5289 -2.62995 -2.26828 0
M  V30 166 C 12.4829 -3.76485 -2.03576 0
M  V30 167 C 11.8089 -4.13846 -3.38579 0
M  V30 168 C 13.1089 -5.0342 -1.39161 0
M  V30 169 H 14.8029 -2.94738 -0.526281 0
M  V30 170 H 12.3489 -1.41783 -0.251704 0
M  V30 171 H 14.3019 -2.99669 -2.96271 0
M  V30 172 H 13.0259 -1.7737 -2.7424 0
M  V30 173 H 11.6849 -3.40217 -1.36557 0
M  V30 174 H 11.3329 -3.25232 -3.83709 0
M  V30 175 H 11.0329 -4.90312 -3.23834 0
M  V30 176 H 12.5569 -4.53086 -4.09323 0
M  V30 177 H 13.9709 -5.37812 -1.98573 0
M  V30 178 H 12.3679 -5.84746 -1.34878 0
M  V30 179 H 13.4379 -4.83548 -0.361868 0
M  V30 180 N 14.781 0.264519 -1.55364 0
M  V30 181 C 16.027 0.99646 -1.76631 0
M  V30 182 C 16.36 1.85632 -0.570478 0
M  V30 183 O 15.635 1.89647 0.43175 0
M  V30 184 C 15.918 1.87187 -3.07625 0
M  V30 185 C 15.771 1.04138 -4.37579 0
M  V30 186 C 17.09 2.85749 -3.34717 0
M  V30 187 H 14.209 0.360841 -0.642622 0
M  V30 188 H 16.851 0.268218 -1.88097 0
M  V30 189 H 15.001 2.49279 -2.9798 0
M  V30 190 H 16.673 0.440517 -4.59192 0
M  V30 191 H 14.916 0.345115 -4.32425 0
M  V30 192 H 15.587 1.68729 -5.2558 0
M  V30 193 H 18.063 2.33793 -3.4421 0
M  V30 194 H 16.939 3.44136 -4.27623 0
M  V30 195 H 17.2 3.61311 -2.54768 0
M  V30 196 N 16.2591 1.48442 0.529413 0
M  V30 197 C 17.5071 1.56179 1.28267 0
M  V30 198 C 17.8281 0.237721 1.93546 0
M  V30 199 O 17.0981 -0.740779 1.81354 0
M  V30 200 H 15.6781 0.575367 0.476405 0
M  V30 201 H 18.3401 1.84909 0.61602 0
M  V30 202 H 17.4361 2.34312 2.06165 0
M  V30 203 N 17.7372 -0.778329 1.37039 0
M  V30 204 C 18.6672 -1.90546 1.34962 0
M  V30 205 C 19.6482 -1.68681 0.219274 0
M  V30 206 O 20.8332 -1.89634 0.418624 0
M  V30 207 C 17.9632 -3.27734 1.14925 0
M  V30 208 C 16.9172 -3.64147 2.24902 0
M  V30 209 C 16.2432 -4.99806 1.89996 0
M  V30 210 C 17.5432 -3.71579 3.67051 0
M  V30 211 H 19.2372 -1.92541 2.29277 0
M  V30 212 H 16.7832 -0.924948 1.10366 0
M  V30 213 H 18.7362 -4.06215 1.12104 0
M  V30 214 H 17.4602 -3.26154 0.170631 0
M  V30 215 H 16.1192 -2.8797 2.26868 0
M  V30 216 H 15.7672 -4.94759 0.906796 0
M  V30 217 H 15.4672 -5.25139 2.63634 0
M  V30 218 H 16.9912 -5.80694 1.88749 0
M  V30 219 H 18.4052 -4.40227 3.67251 0
M  V30 220 H 16.8022 -4.08405 4.39688 0
M  V30 221 H 17.8722 -2.72404 4.01154 0
M  V30 222 N 19.2153 -1.21501 -1.00376 0
M  V30 223 C 20.1483 -0.918669 -2.08892 0
M  V30 224 C 21.1263 0.134277 -1.62045 0
M  V30 225 O 22.3103 0.00504255 -1.88499 0
M  V30 226 C 19.4373 -0.379645 -3.36566 0
M  V30 227 C 18.4833 -1.41559 -4.02323 0
M  V30 228 S 19.3163 -2.98521 -4.44574 0
M  V30 229 C 20.4723 -2.46228 -5.75433 0
M  V30 230 H 20.7053 -1.83761 -2.33707 0
M  V30 231 H 18.2383 -1.04489 -1.13673 0
M  V30 232 H 20.1963 -0.0752195 -4.10431 0
M  V30 233 H 18.8573 0.518008 -3.09799 0
M  V30 234 H 18.0503 -0.988076 -4.9422 0
M  V30 235 H 17.6523 -1.66815 -3.34737 0
M  V30 236 H 19.9443 -1.86791 -6.51241 0
M  V30 237 H 20.8873 -3.36572 -6.22997 0
M  V30 238 H 21.2953 -1.87894 -5.32312 0
M  V30 239 N 20.6934 1.19889 -1.02296 0
M  V30 240 C 21.6234 2.25141 -0.619174 0
M  V30 241 C 22.6044 1.66051 0.368915 0
M  V30 242 O 23.7894 1.92546 0.252941 0
M  V30 243 C 20.9194 3.4728 0.0368783 0
M  V30 244 C 19.8734 4.19005 -0.872865 0
M  V30 245 C 19.1994 5.34637 -0.0822402 0
M  V30 246 C 20.4994 4.74452 -2.18387 0
M  V30 247 H 22.1934 2.59171 -1.49903 0
M  V30 248 H 19.7394 1.24579 -0.722222 0
M  V30 249 H 21.6924 4.20098 0.330958 0
M  V30 250 H 20.4164 3.12433 0.95149 0
M  V30 251 H 19.0754 3.48061 -1.15105 0
M  V30 252 H 18.7234 4.96034 0.83422 0
M  V30 253 H 18.4234 5.83557 -0.688149 0
M  V30 254 H 19.9474 6.10255 0.205238 0
M  V30 255 H 21.3614 5.39055 -1.95172 0
M  V30 256 H 19.7584 5.33834 -2.74119 0
M  V30 257 H 20.8284 3.92844 -2.84257 0
M  V30 258 N 22.1715 0.800033 1.35784 0
M  V30 259 C 23.1045 0.151499 2.27697 0
M  V30 260 C 24.0825 -0.678663 1.4776 0
M  V30 261 O 25.2665 -0.647358 1.77035 0
M  V30 262 C 22.3935 -0.790492 3.29346 0
M  V30 263 C 21.4395 -0.0407832 4.26481 0
M  V30 264 S 22.2725 1.29077 5.19711 0
M  V30 265 C 23.4285 0.353055 6.24903 0
M  V30 266 H 23.6615 0.930796 2.82353 0
M  V30 267 H 21.1945 0.594767 1.42485 0
M  V30 268 H 23.1525 -1.3285 3.88409 0
M  V30 269 H 21.8135 -1.54312 2.73581 0
M  V30 270 H 21.0065 -0.755971 4.98298 0
M  V30 271 H 20.6085 0.427063 3.71554 0
M  V30 272 H 22.9005 -0.464147 6.75908 0
M  V30 273 H 23.8435 1.04023 7.00418 0
M  V30 274 H 24.2515 -0.0483344 5.64479 0
M  V30 275 N 23.6496 -1.47581 0.552962 0
M  V30 276 C 24.8776 -2.06875 0.0320556 0
M  V30 277 C 25.2926 -1.40625 -1.25976 0
M  V30 278 O 24.6496 -0.501349 -1.75479 0
M  V30 279 C 24.7006 -3.61092 -0.17167 0
M  V30 280 O 24.4216 -4.24858 1.06899 0
M  V30 281 C 25.9226 -4.37242 -0.730344 0
M  V30 282 H 23.1426 -0.669561 0.043915 0
M  V30 283 H 25.6866 -1.89646 0.765163 0
M  V30 284 H 23.8416 -3.7785 -0.854894 0
M  V30 285 H 24.2556 -5.17334 0.864059 0
M  V30 286 H 25.7296 -5.45842 -0.822203 0
M  V30 287 H 26.2066 -4.03235 -1.74064 0
M  V30 288 H 26.8126 -4.25219 -0.0829543 0
M  V30 289 N 25.1277 -0.289203 -1.54924 0
M  V30 290 C 26.3527 0.329299 -2.04769 0
M  V30 291 C 26.7777 1.4763 -1.16564 0
M  V30 292 O 26.1357 1.80527 -0.167186 0
M  V30 293 C 26.1837 0.774438 -3.52186 0
M  V30 294 O 25.2877 1.88038 -3.67036 0
M  V30 295 H 24.6287 0.0659259 -0.660719 0
M  V30 296 H 27.1587 -0.42761 -2.00082 0
M  V30 297 H 27.1687 1.06642 -3.93816 0
M  V30 298 H 25.8437 -0.0646707 -4.1585 0
M  V30 299 H 24.4207 1.58985 -3.3731 0
M  V30 300 N 26.6058 1.57591 -0.0167156 0
M  V30 301 C 27.5358 2.12496 0.967858 0
M  V30 302 C 28.5168 1.03807 1.34752 0
M  V30 303 O 29.7018 1.31577 1.42833 0
M  V30 304 C 26.8318 2.64194 2.25431 0
M  V30 305 C 25.7858 3.77559 2.01576 0
M  V30 306 C 25.1118 4.15636 3.36379 0
M  V30 307 C 26.4118 5.04151 1.36489 0
M  V30 308 H 28.1058 2.95013 0.510643 0
M  V30 309 H 25.6518 1.41915 0.244181 0
M  V30 310 H 27.6048 3.01236 2.94678 0
M  V30 311 H 26.3288 1.78821 2.73296 0
M  V30 312 H 24.9878 3.40937 1.34751 0
M  V30 313 H 24.6358 3.27263 3.81979 0
M  V30 314 H 24.3358 4.92022 3.21229 0
M  V30 315 H 25.8598 4.5525 4.06915 0
M  V30 316 H 27.2738 5.38857 1.95718 0
M  V30 317 H 25.6708 5.85453 1.31776 0
M  V30 318 H 26.7408 4.83733 0.336219 0
M  V30 319 N 28.0839 -0.256276 1.55502 0
M  V30 320 C 29.0139 -1.32102 1.92539 0
M  V30 321 C 29.9949 -1.50684 0.789194 0
M  V30 322 O 31.1799 -1.63449 1.04872 0
M  V30 323 C 28.3099 -2.67752 2.21192 0
M  V30 324 C 27.2639 -2.63878 3.36975 0
M  V30 325 C 26.5899 -4.03236 3.51147 0
M  V30 326 C 27.8899 -2.21682 4.72921 0
M  V30 327 H 29.5839 -1.01351 2.81724 0
M  V30 328 H 27.1299 -0.486105 1.35547 0
M  V30 329 H 29.0829 -3.42365 2.45691 0
M  V30 330 H 27.8069 -3.0012 1.28824 0
M  V30 331 H 26.4659 -1.91722 3.12471 0
M  V30 332 H 26.1139 -4.32854 2.56216 0
M  V30 333 H 25.8139 -4.01535 4.29003 0
M  V30 334 H 27.3379 -4.79563 3.77957 0
M  V30 335 H 28.7519 -2.86023 4.96854 0
M  V30 336 H 27.1489 -2.3111 5.53812 0
M  V30 337 H 28.2189 -1.16833 4.70615 0
M  V30 338 N 29.562 -1.4872 -0.521534 0
M  V30 339 C 30.808 -1.574 -1.27879 0
M  V30 340 C 31.141 -0.250817 -1.92573 0
M  V30 341 O 30.416 0.743934 -1.79711 0
M  V30 342 C 30.699 -2.71843 -2.36164 0
M  V30 343 C 30.552 -4.13893 -1.76105 0
M  V30 344 C 31.871 -2.82008 -3.37875 0
M  V30 345 H 28.99 -0.572941 -0.463581 0
M  V30 346 H 31.632 -1.80927 -0.580119 0
M  V30 347 H 29.782 -2.51914 -2.95756 0
M  V30 348 H 31.454 -4.45284 -1.20499 0
M  V30 349 H 29.697 -4.20498 -1.06601 0
M  V30 350 H 30.368 -4.89804 -2.5455 0
M  V30 351 H 32.844 -3.00086 -2.88249 0
M  V30 352 H 31.72 -3.63796 -4.11028 0
M  V30 353 H 31.981 -1.90511 -3.98946 0
M  V30 354 N 31.0401 0.771051 -1.3745 0
M  V30 355 C 32.2681 1.56015 -1.35893 0
M  V30 356 C 32.6831 1.88718 0.0555523 0
M  V30 357 O 32.0401 1.51502 1.01752 0
M  V30 358 C 32.0911 2.87001 -2.19801 0
M  V30 359 O 31.8121 2.557 -3.55738 0
M  V30 360 C 33.3131 3.81228 -2.26231 0
M  V30 361 H 30.5331 0.483317 -0.465453 0
M  V30 362 H 33.0771 0.955611 -1.80799 0
M  V30 363 H 31.2321 3.43877 -1.78402 0
M  V30 364 H 31.6461 3.39584 -3.99729 0
M  V30 365 H 33.1201 4.70139 -2.89263 0
M  V30 366 H 33.5971 4.20409 -1.27093 0
M  V30 367 H 34.2031 3.30281 -2.67945 0
M  V30 368 N 32.5182 1.22032 0.997298 0
M  V30 369 C 33.7672 1.03637 1.73038 0
M  V30 370 C 34.0802 -0.429475 1.90827 0
M  V30 371 O 35.2862 -0.732995 2.61418 0
M  V30 372 C 33.7422 1.80582 3.11317 0
M  V30 373 C 33.3502 3.31387 3.01474 0
M  V30 374 C 35.0942 1.70621 3.88701 0
M  V30 375 C 33.0012 4.00791 4.3488 0
M  V30 376 H 31.9312 0.384179 0.648785 0
M  V30 377 H 34.5822 1.4584 1.11368 0
M  V30 378 H 32.9642 1.31175 3.73643 0
M  V30 379 H 34.1382 3.88155 2.4834 0
M  V30 380 H 32.4532 3.41976 2.37575 0
M  V30 381 H 35.0502 2.19799 4.87434 0
M  V30 382 H 35.3932 0.665823 4.10941 0
M  V30 383 H 35.9262 2.17547 3.33044 0
M  V30 384 H 32.6652 5.05064 4.1784 0
M  V30 385 H 32.1852 3.48811 4.87945 0
M  V30 386 H 33.8642 4.06139 5.03647 0
M  V30 387 N 33.9963 -1.19345 1.0293 0
M  V30 388 C 35.2213 -1.93538 0.745511 0
M  V30 389 C 35.6463 -1.75007 -0.689511 0
M  V30 390 O 35.0043 -1.05265 -1.47611 0
M  V30 391 C 35.0523 -3.43336 1.10239 0
M  V30 392 O 34.1563 -4.11806 0.221289 0
M  V30 393 H 33.4973 -0.604193 0.275404 0
M  V30 394 H 36.0273 -1.5141 1.37609 0
M  V30 395 H 36.0373 -3.94004 1.05947 0
M  V30 396 H 34.7123 -3.56146 2.14786 0
M  V30 397 H 33.2893 -3.715 0.322842 0
M  V30 398 N 35.4744 -0.807222 -1.35358 0
M  V30 399 C 36.6994 -0.399309 -2.0352 0
M  V30 400 C 37.1244 0.981986 -1.60433 0
M  V30 401 O 36.4824 1.63601 -0.781299 0
M  V30 402 C 36.5304 -0.491552 -3.57234 0
M  V30 403 O 35.6344 0.494754 -4.09421 0
M  V30 404 H 34.9754 -0.166682 -0.642739 0
M  V30 405 H 37.5054 -1.09328 -1.72941 0
M  V30 406 H 37.5154 -0.361588 -4.06395 0
M  V30 407 H 36.1904 -1.49907 -3.87944 0
M  V30 408 H 34.7674 0.324977 -3.71481 0
M  V30 409 N 36.9525 1.47285 -0.560781 0
M  V30 410 C 38.1805 2.06855 -0.0430262 0
M  V30 411 C 38.5955 1.41291 1.25229 0
M  V30 412 O 37.9525 0.510648 1.7521 0
M  V30 413 C 38.0035 3.61178 0.152518 0
M  V30 414 O 37.7245 4.24285 -1.0915 0
M  V30 415 C 39.2255 4.37624 0.707145 0
M  V30 416 H 36.4455 0.669319 -0.0474652 0
M  V30 417 H 38.9895 1.89237 -0.77521 0
M  V30 418 H 37.1445 3.78298 0.834843 0
M  V30 419 H 37.5585 5.16868 -0.891482 0
M  V30 420 H 39.0325 5.46271 0.793244 0
M  V30 421 H 39.5095 4.04152 1.71923 0
M  V30 422 H 40.1155 4.25257 0.0604027 0
M  V30 423 N 38.4306 0.297415 1.54768 0
M  V30 424 C 39.6556 -0.318435 2.04941 0
M  V30 425 C 40.0806 -1.4701 1.17345 0
M  V30 426 O 39.4386 -1.80436 0.176758 0
M  V30 427 C 39.4866 -0.755749 3.52592 0
M  V30 428 O 38.5906 -1.86088 3.68028 0
M  V30 429 H 37.9316 -0.062421 0.661059 0
M  V30 430 H 40.4616 0.438215 1.99852 0
M  V30 431 H 40.4716 -1.04552 3.94376 0
M  V30 432 H 39.1466 0.0867233 4.1581 0
M  V30 433 H 37.7236 -1.57193 3.38149 0
M  V30 434 N 39.9087 -1.5758 0.0250728 0
M  V30 435 C 40.8717 -2.08896 -0.943139 0
M  V30 436 C 41.8717 -1.00321 -1.25668 0
M  V30 437 O 43.0617 -1.26495 -1.19769 0
M  V30 438 C 40.1937 -2.55143 -2.26086 0
M  V30 439 H 41.3867 -2.95723 -0.498775 0
M  V30 440 H 38.9397 -1.54703 -0.222888 0
M  V30 441 H 39.6747 -1.71633 -2.75159 0
M  V30 442 H 39.4597 -3.34461 -2.04641 0
M  V30 443 H 40.9497 -2.95083 -2.95492 0
M  V30 444 N 41.3868 0.248026 -1.55636 0
M  V30 445 C 42.3498 1.29044 -1.89421 0
M  V30 446 C 43.3498 1.41134 -0.770581 0
M  V30 447 O 44.5398 1.39854 -1.03858 0
M  V30 448 C 41.6718 2.66831 -2.12165 0
M  V30 449 H 42.8648 1.00305 -2.82629 0
M  V30 450 H 40.4178 0.487265 -1.48511 0
M  V30 451 H 41.1528 3.00711 -1.21422 0
M  V30 452 H 40.9378 2.59438 -2.93997 0
M  V30 453 H 42.4278 3.42103 -2.3949 0
M  V30 454 N 42.8649 1.48995 0.513639 0
M  V30 455 C 44.0899 1.61792 1.29762 0
M  V30 456 C 44.5149 0.284475 1.85936 0
M  V30 457 O 43.8729 -0.746185 1.65232 0
M  V30 458 C 43.9209 2.67993 2.41272 0
M  V30 459 O 43.0249 2.26287 3.44772 0
M  V30 460 H 42.3659 0.541963 0.38363 0
M  V30 461 H 44.8959 1.95097 0.616307 0
M  V30 462 H 44.9059 2.89772 2.87221 0
M  V30 463 H 43.5809 3.64791 1.9975 0
M  V30 464 H 42.1579 2.14788 3.04829 0
M  V30 465 N 44.343 -0.763751 1.37857 0
M  V30 466 C 45.273 -1.89103 1.36975 0
M  V30 467 C 46.254 -1.68439 0.237152 0
M  V30 468 O 47.439 -1.8918 0.438713 0
M  V30 469 C 44.569 -3.26496 1.18395 0
M  V30 470 C 43.523 -3.61741 2.28751 0
M  V30 471 C 42.849 -4.97762 1.95286 0
M  V30 472 C 44.149 -3.67665 3.70972 0
M  V30 473 H 45.843 -1.90099 2.31307 0
M  V30 474 H 43.389 -0.91319 1.11341 0
M  V30 475 H 45.342 -4.05003 1.16406 0
M  V30 476 H 44.066 -3.25955 0.205215 0
M  V30 477 H 42.725 -2.85547 2.29909 0
M  V30 478 H 42.373 -4.93769 0.959221 0
M  V30 479 H 42.073 -5.22313 2.69189 0
M  V30 480 H 43.597 -5.7866 1.94898 0
M  V30 481 H 45.011 -4.36307 3.719 0
M  V30 482 H 43.408 -4.03718 4.43995 0
M  V30 483 H 44.478 -2.68134 4.0402 0
M  V30 484 N 45.8211 -1.22559 -0.990812 0
M  V30 485 C 47.2321 -1.04791 -1.54518 0
M  V30 486 C 47.5831 0.387998 -1.92325 0
M  V30 487 O 46.7081 1.27328 -1.74976 0
M  V30 488 C 47.3031 -1.896 -2.80779 0
M  V30 489 C 45.8621 -1.76124 -3.32652 0
M  V30 490 C 45.0091 -1.8594 -2.05722 0
M  V30 491 H 47.9601 -1.36374 -0.811662 0
M  V30 492 H 47.9811 -1.41464 -3.53225 0
M  V30 493 H 47.4931 -2.94101 -2.53231 0
M  V30 494 H 45.5941 -0.743643 -3.65104 0
M  V30 495 H 45.7071 -2.58913 -4.03114 0
M  V30 496 H 44.0711 -1.29403 -2.19379 0
M  V30 497 H 44.8541 -2.91976 -1.80568 0
M  V30 498 N 47.2992 1.18797 -1.03562 0
M  V30 499 C 48.5272 1.92599 -0.755869 0
M  V30 500 C 48.9422 1.75886 0.686271 0
M  V30 501 O 48.2992 1.08517 1.46732 0
M  V30 502 C 48.3502 3.44159 -1.10619 0
M  V30 503 O 48.0712 3.60341 -2.4917 0
M  V30 504 C 49.5722 4.3507 -0.850214 0
M  V30 505 H 46.7922 0.611587 -0.276048 0
M  V30 506 H 49.3362 1.50742 -1.38192 0
M  V30 507 H 47.4912 3.83823 -0.525194 0
M  V30 508 H 47.9052 4.54128 -2.62427 0
M  V30 509 H 49.3792 5.39989 -1.14523 0
M  V30 510 H 49.8562 4.38673 0.215176 0
M  V30 511 H 50.4622 4.01097 -1.41426 0
M  V30 512 N 48.7773 0.814389 1.34928 0
M  V30 513 C 49.7103 0.175641 2.27523 0
M  V30 514 C 50.6883 -0.662953 1.48471 0
M  V30 515 O 51.8723 -0.628545 1.77712 0
M  V30 516 C 48.9993 -0.755516 3.30166 0
M  V30 517 C 48.0453 0.00445305 4.265 0
M  V30 518 S 48.8783 1.34582 5.18313 0
M  V30 519 C 50.0343 0.419315 6.24494 0
M  V30 520 H 50.2673 0.960691 2.8135 0
M  V30 521 H 47.8003 0.609846 1.41846 0
M  V30 522 H 49.7583 -1.28723 3.89796 0
M  V30 523 H 48.4193 -1.51402 2.75202 0
M  V30 524 H 47.6123 -0.703077 4.99072 0
M  V30 525 H 47.2143 0.466447 3.7108 0
M  V30 526 H 49.5063 -0.392432 6.76362 0
M  V30 527 H 50.4493 1.11446 6.99275 0
M  V30 528 H 50.8573 0.0115389 5.64499 0
M  V30 529 N 50.2554 -1.46986 0.568584 0
M  V30 530 C 51.6664 -1.86188 0.138219 0
M  V30 531 C 52.0174 -1.47388 -1.29504 0
M  V30 532 O 51.1424 -0.88219 -1.97602 0
M  V30 533 C 51.7374 -3.3792 0.244065 0
M  V30 534 C 50.2964 -3.76171 -0.131335 0
M  V30 535 C 49.4434 -2.71027 0.586465 0
M  V30 536 H 52.3944 -1.38342 0.777645 0
M  V30 537 H 52.4154 -3.76729 -0.534351 0
M  V30 538 H 51.9274 -3.66128 1.28731 0
M  V30 539 H 50.0284 -3.5358 -1.17526 0
M  V30 540 H 50.1414 -4.78523 0.235146 0
M  V30 541 H 48.5054 -2.54684 0.0282722 0
M  V30 542 H 49.2884 -3.02077 1.63109 0
M  V30 543 N 51.7335 -0.305618 -1.54608 0
M  V30 544 C 53.1445 0.186098 -1.8577 0
M  V30 545 C 53.4955 1.53058 -1.22751 0
M  V30 546 O 52.6205 2.09888 -0.526893 0
M  V30 547 C 53.2155 0.344449 -3.37044 0
M  V30 548 C 51.7745 0.780384 -3.68221 0
M  V30 549 C 50.9215 -0.108554 -2.77087 0
M  V30 550 H 53.8725 -0.526485 -1.49712 0
M  V30 551 H 53.8935 1.17828 -3.61796 0
M  V30 552 H 53.4055 -0.634235 -3.82883 0
M  V30 553 H 51.5065 1.76945 -3.27904 0
M  V30 554 H 51.6195 0.596572 -4.75371 0
M  V30 555 H 49.9835 0.412931 -2.5133 0
M  V30 556 H 50.7665 -1.08368 -3.25747 0
M  V30 557 N 53.2116 1.57565 -0.0334293 0
M  V30 558 C 54.4366 1.96689 0.657895 0
M  V30 559 C 54.8616 0.910057 1.64619 0
M  V30 560 O 54.2196 -0.128598 1.80843 0
M  V30 561 C 54.2676 3.34905 1.33683 0
M  V30 562 O 53.3716 3.31574 2.45219 0
M  V30 563 H 52.7126 0.641205 0.172489 0
M  V30 564 H 55.2426 2.04372 -0.0965621 0
M  V30 565 H 55.2526 3.71234 1.69262 0
M  V30 566 H 53.9276 4.11366 0.612411 0
M  V30 567 H 52.5046 3.06968 2.11719 0
M  V30 568 N 54.6897 -0.239769 1.55765 0
M  V30 569 C 55.9377 -0.964892 1.77579 0
M  V30 570 C 56.2587 -1.85582 0.598699 0
M  V30 571 O 55.5287 -1.92075 -0.385226 0
M  V30 572 H 54.1087 -0.359265 0.654933 0
M  V30 573 H 56.7707 -0.256001 1.93211 0
M  V30 574 H 55.8667 -1.58243 2.69009 0
M  V30 575 N 56.1678 -1.49265 -0.50573 0
M  V30 576 C 57.3978 -1.61979 -1.28243 0
M  V30 577 C 57.8058 -0.288576 -1.86986 0
M  V30 578 O 57.1488 0.735408 -1.68337 0
M  V30 579 C 57.2108 -2.62632 -2.45489 0
M  V30 580 C 56.8748 -4.071 -2.07651 0
M  V30 581 C 57.8718 -4.94049 -1.61901 0
M  V30 582 C 55.5568 -4.52801 -2.17431 0
M  V30 583 C 57.5508 -6.24736 -1.26428 0
M  V30 584 C 55.2378 -5.83503 -1.8157 0
M  V30 585 C 56.2358 -6.69294 -1.36142 0
M  V30 586 O 55.9238 -7.9756 -1.00764 0
M  V30 587 H 55.6558 -0.54834 -0.395347 0
M  V30 588 H 58.2098 -1.96002 -0.614204 0
M  V30 589 H 56.4398 -2.2378 -3.15372 0
M  V30 590 H 58.1288 -2.64925 -3.07522 0
M  V30 591 H 58.8948 -4.5997 -1.53795 0
M  V30 592 H 54.7738 -3.86196 -2.51742 0
M  V30 593 H 58.3178 -6.91652 -0.908992 0
M  V30 594 H 54.2148 -6.17112 -1.89324 0
M  V30 595 H 54.9828 -8.10529 -1.13952 0
M  V30 596 N 57.6459 0.756429 -1.3826 0
M  V30 597 C 58.9229 1.50584 -1.24835 0
M  V30 598 C 59.3029 2.10556 0.151485 0
M  V30 599 O 58.6509 1.96825 1.1607 0
M  V30 600 C 58.8609 2.57448 -2.3563 0
M  V30 601 C 60.2089 3.24429 -2.73917 0
M  V30 602 O 61.2329 2.67751 -2.34921 0
M  V30 603 O 60.0919 4.26937 -3.41156 0
M  V30 604 H 57.1859 0.667664 -0.48801 0
M  V30 605 H 59.7319 0.792083 -1.5008 0
M  V30 606 H 58.5039 2.11362 -3.29305 0
M  V30 607 H 58.1269 3.36408 -2.11933 0
M  V30 608 N 59.124 1.23083 0.984299 0
M  V30 609 C 60.056 0.96636 2.07832 0
M  V30 610 C 61.069 -0.0582135 1.62696 0
M  V30 611 O 62.258 0.176843 1.77622 0
M  V30 612 C 59.358 0.433397 3.36117 0
M  V30 613 C 58.531 1.51722 4.10243 0
M  V30 614 C 57.59 0.989821 5.16807 0
M  V30 615 O 56.616 1.67794 5.43906 0
M  V30 616 N 57.818 -0.184367 5.80207 0
M  V30 617 H 60.583 1.90824 2.31098 0
M  V30 618 H 58.144 1.13888 1.1507 0
M  V30 619 H 60.136 0.065699 4.04647 0
M  V30 620 H 58.706 -0.413806 3.09849 0
M  V30 621 H 57.926 2.05786 3.36223 0
M  V30 622 H 59.214 2.24619 4.56534 0
M  V30 623 H 58.612 -0.760062 5.60571 0
M  V30 624 H 57.169 -0.493366 6.4993 0
M  V30 625 N 60.6021 -1.18246 1.0419 0
M  V30 626 C 61.8481 -1.88536 0.747122 0
M  V30 627 C 62.1811 -1.80223 -0.723409 0
M  V30 628 O 61.4561 -1.20337 -1.52804 0
M  V30 629 C 61.7391 -3.38968 1.21544 0
M  V30 630 C 61.5921 -3.56084 2.74816 0
M  V30 631 C 62.9111 -4.32648 0.806482 0
M  V30 632 H 60.0301 -0.684619 0.272883 0
M  V30 633 H 62.6721 -1.39113 1.29413 0
M  V30 634 H 60.8221 -3.8119 0.750081 0
M  V30 635 H 62.4941 -3.22946 3.29399 0
M  V30 636 H 60.7371 -2.98699 3.14582 0
M  V30 637 H 61.4081 -4.61639 3.02644 0
M  V30 638 H 63.8841 -3.98211 1.20695 0
M  V30 639 H 62.7601 -5.36462 1.1619 0
M  V30 640 H 63.0211 -4.41146 -0.29029 0
M  V30 641 N 62.0802 -0.821533 -1.34494 0
M  V30 642 C 63.4962 -0.507117 -1.51329 0
M  V30 643 C 63.6962 0.968964 -1.76673 0
M  V30 644 O 62.7522 1.75348 -1.81685 0
M  V30 645 C 64.0652 -1.36544 -2.67911 0
M  V30 646 C 65.6132 -1.36242 -2.81793 0
M  V30 647 C 66.0882 -2.2052 -4.01416 0
M  V30 648 N 67.5792 -2.18136 -4.08621 0
M  V30 649 C 68.3142 -2.80095 -5.00334 0
M  V30 650 N 67.8102 -3.51039 -5.9728 0
M  V30 651 N 69.6032 -2.69656 -4.93196 0
M  V30 652 H 61.7542 -1.77729 -1.16302 0
M  V30 653 H 64.0172 -0.757291 -0.570276 0
M  V30 654 H 63.7232 -2.41361 -2.55808 0
M  V30 655 H 63.5972 -1.02917 -3.62888 0
M  V30 656 H 65.9842 -0.322041 -2.93338 0
M  V30 657 H 66.0652 -1.73866 -1.87628 0
M  V30 658 H 65.7092 -3.24607 -3.90631 0
M  V30 659 H 65.6392 -1.80247 -4.94791 0
M  V30 660 H 68.1302 -1.6653 -3.39229 0
M  V30 661 H 68.4432 -3.95565 -6.63889 0
M  V30 662 H 66.7882 -3.55145 -5.97409 0
M  V30 663 H 69.9792 -2.13808 -4.16418 0
M  V30 664 H 70.1522 -3.1823 -5.64476 0
M  V30 665 N 63.5583 1.46682 -0.576371 0
M  V30 666 C 64.5063 2.31953 0.17335 0
M  V30 667 C 65.5003 1.44098 0.89062 0
M  V30 668 O 66.7063 1.60759 0.809728 0
M  V30 669 H 63.0813 0.748273 0.0747727 0
M  V30 670 H 65.0523 2.93007 -0.564738 0
M  V30 671 C 63.8013 3.27142 1.17786 0
M  V30 672 H 63.1243 3.94719 0.635361 0
M  V30 673 H 64.5643 3.896 1.67296 0
M  V30 674 C 63.0233 2.52036 2.23561 0
M  V30 675 O 63.5533 2.27877 3.3081 0
M  V30 676 N 61.7593 2.12709 1.97998 0
M  V30 677 H 61.3063 2.32557 1.10792 0
M  V30 678 H 61.2643 1.62776 2.68982 0
M  V30 679 N 65.0364 0.313813 1.54444 0
M  V30 680 C 66.2844 -0.291099 1.99993 0
M  V30 681 C 66.6054 -1.53418 1.20366 0
M  V30 682 O 65.8754 -1.93544 0.302927 0
M  V30 683 H 64.4554 -0.110552 0.738774 0
M  V30 684 H 67.1174 0.428106 1.9014 0
M  V30 685 H 66.2134 -0.554268 3.07139 0
M  V30 686 N 66.5145 -1.57545 0.0417849 0
M  V30 687 C 67.7605 -1.92601 -0.635021 0
M  V30 688 C 68.0935 -0.919627 -1.71045 0
M  V30 689 O 67.3685 0.0557892 -1.9442 0
M  V30 690 C 67.6515 -3.38085 -1.23979 0
M  V30 691 C 67.5045 -4.49467 -0.173057 0
M  V30 692 C 68.8235 -3.83776 -2.15416 0
M  V30 693 H 65.9425 -0.700397 -0.229374 0
M  V30 694 H 68.5845 -1.89728 0.101633 0
M  V30 695 H 66.7345 -3.40664 -1.86762 0
M  V30 696 H 68.4065 -4.59018 0.458312 0
M  V30 697 H 66.6495 -4.30909 0.499996 0
M  V30 698 H 67.3205 -5.48323 -0.636054 0
M  V30 699 H 69.7965 -3.83013 -1.62605 0
M  V30 700 H 68.6725 -4.8624 -2.54679 0
M  V30 701 H 68.9335 -3.19998 -3.05047 0
M  V30 702 N 67.9926 0.231505 -1.5589 0
M  V30 703 C 69.4036 0.799327 -1.68724 0
M  V30 704 C 69.7546 1.85398 -0.642022 0
M  V30 705 O 68.8796 2.1539 0.208784 0
M  V30 706 C 69.4746 1.45664 -3.05888 0
M  V30 707 C 68.0336 1.97197 -3.20609 0
M  V30 708 C 67.1806 0.828552 -2.64632 0
M  V30 709 H 70.1316 0.00702616 -1.58698 0
M  V30 710 H 70.1526 2.32517 -3.01191 0
M  V30 711 H 69.6646 0.688808 -3.81939 0
M  V30 712 H 67.7656 2.76813 -2.4941 0
M  V30 713 H 67.8786 2.15878 -4.27707 0
M  V30 714 H 66.2426 1.23321 -2.22854 0
M  V30 715 H 67.0256 0.0735544 -3.43221 0
M  V30 716 N 69.4707 1.49531 0.497807 0
M  V30 717 C 70.8867 1.36365 0.829266 0
M  V30 718 C 71.0867 0.399184 1.97506 0
M  V30 719 O 70.1427 -0.167977 2.51941 0
M  V30 720 C 71.4557 2.77153 1.16647 0
M  V30 721 C 73.0037 2.85877 1.27449 0
M  V30 722 C 73.4787 4.2744 1.64497 0
M  V30 723 N 74.9697 4.30265 1.7154 0
M  V30 724 C 75.7047 5.3677 2.01656 0
M  V30 725 N 75.2007 6.53516 2.29976 0
M  V30 726 N 76.9937 5.24189 2.02934 0
M  V30 727 H 69.1447 2.10831 -0.257703 0
M  V30 728 H 71.4077 0.946534 -0.0527091 0
M  V30 729 H 71.1137 3.49442 0.397872 0
M  V30 730 H 70.9877 3.12722 2.10915 0
M  V30 731 H 73.3747 2.13824 2.0338 0
M  V30 732 H 73.4557 2.53887 0.312244 0
M  V30 733 H 73.0997 5.00021 0.891151 0
M  V30 734 H 73.0297 4.56896 2.61827 0
M  V30 735 H 75.5207 3.4607 1.51802 0
M  V30 736 H 75.8337 7.30506 2.52153 0
M  V30 737 H 74.1787 6.56737 2.27425 0
M  V30 738 H 77.3697 4.31988 1.80289 0
M  V30 739 H 77.5427 6.07286 2.26071 0
M  V30 740 N 70.9488 -0.749086 1.3866 0
M  V30 741 C 72.1968 -1.50535 1.34847 0
M  V30 742 C 72.5178 -1.94909 -0.0595016 0
M  V30 743 O 71.7878 -1.67973 -1.00806 0
M  V30 744 H 70.3678 -0.558395 0.49619 0
M  V30 745 H 73.0298 -0.890165 1.73384 0
M  V30 746 H 72.1258 -2.39413 2.00219 0
M  V30 747 N 72.4269 -1.23603 -0.977757 0
M  V30 748 C 73.3589 -0.977369 -2.07317 0
M  V30 749 C 74.3719 0.0495845 -1.62724 0
M  V30 750 O 75.5609 -0.186261 -1.77526 0
M  V30 751 C 72.6609 -0.451216 -3.35883 0
M  V30 752 C 71.8339 -1.53896 -4.09432 0
M  V30 753 C 70.8929 -1.01721 -5.16274 0
M  V30 754 O 69.9189 -1.70676 -5.43009 0
M  V30 755 N 71.1209 0.153594 -5.80297 0
M  V30 756 H 73.8859 -1.92047 -2.30082 0
M  V30 757 H 71.4469 -1.14497 -1.14465 0
M  V30 758 H 73.4389 -0.0871574 -4.04606 0
M  V30 759 H 72.0089 0.397368 -3.10064 0
M  V30 760 H 71.2289 -2.07566 -3.35127 0
M  V30 761 H 72.5169 -2.27037 -4.55337 0
M  V30 762 H 71.9149 0.730323 -5.60966 0
M  V30 763 H 70.4719 0.458892 -6.50183 0
M  V30 764 N 73.905 1.17692 -1.04816 0
M  V30 765 C 75.151 1.88137 -0.75711 0
M  V30 766 C 75.484 1.80604 0.713841 0
M  V30 767 O 74.759 1.21146 1.52164 0
M  V30 768 C 75.042 3.38318 -1.2334 0
M  V30 769 C 74.895 3.54622 -2.76701 0
M  V30 770 C 76.214 4.32214 -0.829415 0
M  V30 771 H 73.333 0.683163 -0.27651 0
M  V30 772 H 75.975 1.38424 -1.30149 0
M  V30 773 H 74.125 3.80787 -0.770286 0
M  V30 774 H 75.797 3.21194 -3.31107 0
M  V30 775 H 74.04 2.97026 -3.16161 0
M  V30 776 H 74.711 4.60028 -3.05088 0
M  V30 777 H 77.187 3.97565 -1.22805 0
M  V30 778 H 76.063 5.35838 -1.19033 0
M  V30 779 H 76.324 4.41294 0.266891 0
M  V30 780 N 75.3831 0.828654 1.34056 0
M  V30 781 C 76.6291 0.42008 1.98402 0
M  V30 782 C 76.9621 -1.01564 1.65525 0
M  V30 783 O 76.2371 -1.70834 0.929831 0
M  V30 784 C 76.5201 0.62927 3.54559 0
M  V30 785 C 76.3731 2.11152 3.97159 0
M  V30 786 C 77.6921 0.0688756 4.40046 0
M  V30 787 H 74.8111 0.154104 0.720709 0
M  V30 788 H 77.4531 1.04228 1.5886 0
M  V30 789 H 75.6031 0.0996418 3.88372 0
M  V30 790 H 77.2751 2.70522 3.73651 0
M  V30 791 H 75.5181 2.59985 3.47261 0
M  V30 792 H 76.1891 2.20868 5.05887 0
M  V30 793 H 78.6651 0.521458 4.1282 0
M  V30 794 H 77.5411 0.245006 5.48353 0
M  V30 795 H 77.8021 -1.0266 4.30015 0
M  V30 796 N 76.8612 -1.46375 0.584142 0
M  V30 797 C 77.8092 -2.32042 -0.161047 0
M  V30 798 C 78.8032 -1.44569 -0.882966 0
M  V30 799 O 80.0092 -1.61186 -0.801191 0
M  V30 800 H 76.3842 -0.748659 -0.0708033 0
M  V30 801 H 78.3552 -2.92704 0.580269 0
M  V30 802 C 77.1042 -3.27762 -1.1605 0
M  V30 803 H 76.4272 -3.95051 -0.614419 0
M  V30 804 H 77.8672 -3.90481 -1.65228 0
M  V30 805 C 76.3262 -2.53218 -2.22221 0
M  V30 806 O 76.8562 -2.29628 -3.29597 0
M  V30 807 N 75.0622 -2.13756 -1.96868 0
M  V30 808 H 74.6092 -2.33142 -1.09557 0
M  V30 809 H 74.5672 -1.642 -2.68115 0
M  V30 810 N 78.3393 -0.321999 -1.54275 0
M  V30 811 C 79.5883 0.281931 -1.9972 0
M  V30 812 C 79.9013 1.53369 -1.21397 0
M  V30 813 O 81.1073 2.21352 -1.57211 0
M  V30 814 C 79.5633 0.5529 -3.55628 0
M  V30 815 C 79.1713 -0.681721 -4.42783 0
M  V30 816 C 80.9153 1.11687 -4.09544 0
M  V30 817 C 78.8223 -0.382742 -5.9016 0
M  V30 818 H 77.7523 0.109124 -0.746062 0
M  V30 819 H 80.4033 -0.43398 -1.78294 0
M  V30 820 H 78.7853 1.32896 -3.73035 0
M  V30 821 H 79.9593 -1.45723 -4.37151 0
M  V30 822 H 78.2743 -1.1658 -3.99748 0
M  V30 823 H 80.8713 1.35515 -5.17242 0
M  V30 824 H 81.2143 2.06575 -3.61431 0
M  V30 825 H 81.7473 0.402032 -3.95763 0
M  V30 826 H 78.4863 -1.30076 -6.42464 0
M  V30 827 H 78.0063 0.355094 -5.98748 0
M  V30 828 H 79.6853 0.00800157 -6.47 0
M  V30 829 N 79.8174 1.5752 -0.0501392 0
M  V30 830 C 81.0424 1.97376 0.636997 0
M  V30 831 C 81.4674 0.927466 1.63645 0
M  V30 832 O 80.8254 -0.10941 1.8097 0
M  V30 833 C 80.8734 3.36304 1.30123 0
M  V30 834 O 79.9774 3.34156 2.41689 0
M  V30 835 H 79.3184 0.642998 0.165679 0
M  V30 836 H 81.8484 2.04258 -0.118233 0
M  V30 837 H 81.8584 3.73008 1.65315 0
M  V30 838 H 80.5334 4.11993 0.568746 0
M  V30 839 H 79.1104 3.09196 2.08451 0
M  V30 840 N 81.2955 -0.223234 1.56011 0
M  V30 841 C 82.5255 -0.963413 1.82762 0
M  V30 842 C 82.9335 -1.78516 0.626804 0
M  V30 843 O 82.2765 -1.78974 -0.414014 0
M  V30 844 C 82.3385 -1.93126 3.0322 0
M  V30 845 C 82.0025 -1.2942 4.38291 0
M  V30 846 C 82.9995 -0.684916 5.15369 0
M  V30 847 C 80.6845 -1.30647 4.85012 0
M  V30 848 C 82.6785 -0.0963971 6.37327 0
M  V30 849 C 80.3655 -0.71411 6.06913 0
M  V30 850 C 81.3635 -0.110123 6.82911 0
M  V30 851 O 81.0515 0.47303 8.02507 0
M  V30 852 H 80.7835 -0.288011 0.611576 0
M  V30 853 H 83.3375 -0.244103 2.03944 0
M  V30 854 H 81.5675 -2.68952 2.77852 0
M  V30 855 H 83.2565 -2.53685 3.16857 0
M  V30 856 H 84.0225 -0.667774 4.80381 0
M  V30 857 H 79.9015 -1.76598 4.25833 0
M  V30 858 H 83.4455 0.375657 6.96588 0
M  V30 859 H 79.3425 -0.728659 6.41374 0
M  V30 860 H 80.1105 0.367186 8.17676 0
M  V30 861 N 82.7736 -1.49793 -0.48987 0
M  V30 862 C 84.0206 -1.59841 -1.24327 0
M  V30 863 C 84.3486 -0.290135 -1.92324 0
M  V30 864 O 83.6036 0.722749 -1.81865 0
M  V30 865 C 83.9026 -2.71488 -2.32441 0
M  V30 866 C 83.5686 -4.12614 -1.81826 0
M  V30 867 C 82.2306 -4.51017 -1.67742 0
M  V30 868 C 84.5826 -5.00892 -1.4407 0
M  V30 869 C 81.9106 -5.75459 -1.14297 0
M  V30 870 C 84.2626 -6.25863 -0.920742 0
M  V30 871 C 82.9266 -6.63086 -0.766383 0
M  V30 872 H 82.1966 -0.584899 -0.454944 0
M  V30 873 H 84.8436 -1.83663 -0.542215 0
M  V30 874 H 83.1486 -2.4168 -3.0838 0
M  V30 875 H 84.8456 -2.76469 -2.90458 0
M  V30 876 H 81.4356 -3.82307 -1.93751 0
M  V30 877 H 85.6196 -4.7187 -1.53794 0
M  V30 878 H 80.8756 -6.02989 -1.01068 0
M  V30 879 H 85.0496 -6.9364 -0.619448 0
M  V30 880 H 82.6766 -7.59393 -0.350083 0
M  V30 881 N 84.2517 0.741722 -1.39055 0
M  V30 882 C 85.4767 1.53607 -1.39354 0
M  V30 883 C 85.9017 1.88096 0.0116905 0
M  V30 884 O 85.2597 1.5143 0.996924 0
M  V30 885 C 85.3077 2.80441 -2.26682 0
M  V30 886 O 84.4117 3.76088 -1.69208 0
M  V30 887 H 83.7527 0.464142 -0.474835 0
M  V30 888 H 86.2827 0.915665 -1.82967 0
M  V30 889 H 86.2927 3.29246 -2.40959 0
M  V30 890 H 84.9677 2.5467 -3.2881 0
M  V30 891 H 83.5447 3.34833 -1.64138 0
M  V30 892 N 85.7298 1.2412 0.971189 0
M  V30 893 C 86.9578 1.10575 1.74874 0
M  V30 894 C 87.3728 -0.342017 1.85676 0
M  V30 895 O 86.7298 -1.23617 1.34258 0
M  V30 896 C 86.7808 1.73579 3.171 0
M  V30 897 O 86.5018 3.12695 3.06844 0
M  V30 898 C 88.0028 1.65598 4.11208 0
M  V30 899 H 85.2228 0.386504 0.548503 0
M  V30 900 H 87.7668 1.64156 1.21955 0
M  V30 901 H 85.9218 1.24009 3.67016 0
M  V30 902 H 86.3358 3.43412 3.96445 0
M  V30 903 H 87.8098 2.1437 5.08674 0
M  V30 904 H 88.2868 0.616532 4.34851 0
M  V30 905 H 88.8928 2.14578 3.67201 0
M  V30 906 N 87.2079 -1.17134 1.05439 0
M  V30 907 C 88.1709 -2.19439 0.661764 0
M  V30 908 C 89.1709 -1.58199 -0.288042 0
M  V30 909 O 90.3609 -1.74053 -0.0715803 0
M  V30 910 C 87.4929 -3.40889 -0.0276209 0
M  V30 911 H 88.6859 -2.55688 1.56728 0
M  V30 912 H 86.2389 -1.31259 0.848567 0
M  V30 913 H 86.9739 -3.10187 -0.94629 0
M  V30 914 H 86.7589 -3.86586 0.655238 0
M  V30 915 H 88.2489 -4.16603 -0.288342 0
M  V30 916 N 88.686 -0.835752 -1.33615 0
M  V30 917 C 89.914 -0.443344 -2.02094 0
M  V30 918 C 90.329 0.954522 -1.62894 0
M  V30 919 O 89.686 1.61982 -0.840723 0
M  V30 920 C 89.737 -0.550775 -3.5728 0
M  V30 921 O 89.458 -1.89356 -3.95065 0
M  V30 922 C 90.959 -0.154919 -4.43029 0
M  V30 923 H 88.179 -0.176359 -0.647409 0
M  V30 924 H 90.723 -1.12746 -1.70612 0
M  V30 925 H 88.878 0.0853997 -3.87306 0
M  V30 926 H 89.292 -1.87687 -4.89769 0
M  V30 927 H 90.766 -0.281144 -5.51284 0
M  V30 928 H 91.243 0.902863 -4.2982 0
M  V30 929 H 91.849 -0.765404 -4.18356 0
M  V30 930 N 90.1641 1.46063 -0.591896 0
M  V30 931 C 91.1121 2.32124 0.148739 0
M  V30 932 C 92.1061 1.45035 0.875286 0
M  V30 933 O 93.3121 1.61609 0.792632 0
M  V30 934 H 89.6871 0.749024 0.066832 0
M  V30 935 H 91.6581 2.92392 -0.595783 0
M  V30 936 C 90.4071 3.28373 1.1431 0
M  V30 937 H 89.7301 3.95371 0.59346 0
M  V30 938 H 91.1701 3.91352 1.63155 0
M  V30 939 C 89.6291 2.54393 2.20875 0
M  V30 940 O 90.1591 2.31373 3.28374 0
M  V30 941 N 88.3651 2.14797 1.95731 0
M  V30 942 H 87.9121 2.33719 1.08319 0
M  V30 943 H 87.8701 1.65619 2.67241 0
M  V30 944 N 91.6422 0.330177 1.54103 0
M  V30 945 C 92.8672 -0.274893 2.0557 0
M  V30 946 C 93.2922 -1.44487 1.20437 0
M  V30 947 O 92.6502 -1.80021 0.214991 0
M  V30 948 C 92.6982 -0.68079 3.54115 0
M  V30 949 O 91.8022 -1.7824 3.71893 0
M  V30 950 H 91.1432 -0.0483849 0.662235 0
M  V30 951 H 93.6732 0.480508 1.98878 0
M  V30 952 H 93.6832 -0.961635 3.96505 0
M  V30 953 H 92.3582 0.174903 4.15532 0
M  V30 954 H 90.9352 -1.49985 3.41407 0
M  V30 955 N 93.1203 -1.57491 0.0584922 0
M  V30 956 C 94.3483 -1.97296 -0.623037 0
M  V30 957 C 94.7633 -0.936338 -1.63946 0
M  V30 958 O 94.1203 0.0785981 -1.82331 0
M  V30 959 C 94.1713 -3.37183 -1.30345 0
M  V30 960 O 93.8923 -4.36872 -0.32773 0
M  V30 961 C 95.3933 -3.91788 -2.07406 0
M  V30 962 H 92.6133 -0.649153 -0.169826 0
M  V30 963 H 95.1573 -2.04106 0.12696 0
M  V30 964 H 93.3123 -3.31502 -2.00463 0
M  V30 965 H 93.7263 -5.18141 -0.814269 0
M  V30 966 H 95.2003 -4.91926 -2.50425 0
M  V30 967 H 95.6773 -3.27609 -2.92521 0
M  V30 968 H 96.2833 -4.00829 -1.42184 0
M  V30 969 N 94.5984 0.214957 -1.56127 0
M  V30 970 C 96.0144 0.564948 -1.49267 0
M  V30 971 C 96.2144 1.86827 -0.754838 0
M  V30 972 O 95.2704 2.50745 -0.297198 0
M  V30 973 C 96.5834 0.638071 -2.93852 0
M  V30 974 C 98.1314 0.728253 -3.0441 0
M  V30 975 C 98.6064 0.832663 -4.50367 0
M  V30 976 N 100.097 0.896712 -4.54437 0
M  V30 977 C 100.832 0.997324 -5.6466 0
M  V30 978 N 100.328 1.06147 -6.8462 0
M  V30 979 N 102.121 1.03297 -5.52527 0
M  V30 980 H 94.2724 -0.640211 -2.02522 0
M  V30 981 H 96.5354 -0.225507 -0.920788 0
M  V30 982 H 96.2414 -0.250126 -3.50809 0
M  V30 983 H 96.1154 1.49947 -3.46115 0
M  V30 984 H 98.5024 1.60689 -2.47514 0
M  V30 985 H 98.5834 -0.158952 -2.55306 0
M  V30 986 H 98.2274 -0.0415417 -5.07883 0
M  V30 987 H 98.1574 1.73538 -4.97184 0
M  V30 988 H 100.648 0.857188 -3.6805 0
M  V30 989 H 100.961 1.1382 -7.64372 0
M  V30 990 H 99.3064 1.03049 -6.87318 0
M  V30 991 H 102.497 0.979558 -4.57736 0
M  V30 992 H 102.67 1.10793 -6.38458 0
M  V30 993 N 96.0765 1.50051 0.48192 0
M  V30 994 C 97.4875 1.5348 1.06305 0
M  V30 995 C 97.8385 0.331997 1.93371 0
M  V30 996 O 96.9635 -0.556256 2.09129 0
M  V30 997 C 97.5585 2.7813 1.93466 0
M  V30 998 C 96.1175 2.84275 2.46707 0
M  V30 999 C 95.2645 2.47637 1.24785 0
M  V30 1000 H 98.2155 1.56472 0.264995 0
M  V30 1001 H 98.2365 2.59372 2.78399 0
M  V30 1002 H 97.7485 3.65654 1.30072 0
M  V30 1003 H 95.8495 2.01077 3.13686 0
M  V30 1004 H 95.9625 3.8691 2.82555 0
M  V30 1005 H 94.3265 1.99835 1.57918 0
M  V30 1006 H 95.1095 3.37457 0.630694 0
M  V30 1007 N 97.5546 -0.734337 1.39446 0
M  V30 1008 C 98.5176 -1.83004 1.37994 0
M  V30 1009 C 99.5176 -1.58397 0.276938 0
M  V30 1010 O 100.708 -1.65785 0.534875 0
M  V30 1011 C 97.8396 -3.20802 1.1532 0
M  V30 1012 H 99.0326 -1.85694 2.35494 0
M  V30 1013 H 96.5856 -0.938059 1.25021 0
M  V30 1014 H 97.3206 -3.23772 0.185036 0
M  V30 1015 H 97.1056 -3.4006 1.95197 0
M  V30 1016 H 98.5956 -4.00862 1.17046 0
M  V30 1017 N 99.0327 -1.24633 -0.964593 0
M  V30 1018 C 100.449 -1.01239 -1.2338 0
M  V30 1019 C 100.649 0.2769 -1.99588 0
M  V30 1020 O 99.7047 0.992241 -2.32187 0
M  V30 1021 C 101.018 -2.22937 -2.01791 0
M  V30 1022 C 102.566 -2.27594 -2.14872 0
M  V30 1023 C 103.041 -3.48921 -2.96678 0
M  V30 1024 N 104.532 -3.49257 -3.04259 0
M  V30 1025 C 105.267 -4.39795 -3.67924 0
M  V30 1026 N 104.763 -5.40591 -4.33281 0
M  V30 1027 N 106.556 -4.275 -3.64966 0
M  V30 1028 H 98.7067 -2.0748 -0.454502 0
M  V30 1029 H 100.97 -0.910647 -0.26349 0
M  V30 1030 H 100.676 -3.16587 -1.53184 0
M  V30 1031 H 100.55 -2.25306 -3.02518 0
M  V30 1032 H 102.937 -1.34473 -2.6268 0
M  V30 1033 H 103.018 -2.2925 -1.13482 0
M  V30 1034 H 102.662 -4.42359 -2.49562 0
M  V30 1035 H 102.592 -3.4451 -3.98272 0
M  V30 1036 H 105.083 -2.76337 -2.57771 0
M  V30 1037 H 105.396 -6.05904 -4.79687 0
M  V30 1038 H 103.741 -5.44475 -4.3194 0
M  V30 1039 H 106.932 -3.47987 -3.13086 0
M  V30 1040 H 107.105 -4.98258 -4.14298 0
M  V30 1041 N 100.511 1.16574 -1.06058 0
M  V30 1042 C 101.757 1.87324 -0.777022 0
M  V30 1043 C 102.09 1.81351 0.694645 0
M  V30 1044 O 101.365 1.22753 1.50871 0
M  V30 1045 C 101.648 3.36991 -1.26922 0
M  V30 1046 C 101.501 3.51667 -2.80447 0
M  V30 1047 C 102.82 4.3131 -0.87521 0
M  V30 1048 H 99.9388 0.680191 -0.28374 0
M  V30 1049 H 102.581 1.37036 -1.3161 0
M  V30 1050 H 100.731 3.79949 -0.81063 0
M  V30 1051 H 102.403 3.17664 -3.34495 0
M  V30 1052 H 100.646 2.93656 -3.19294 0
M  V30 1053 H 101.317 4.56766 -3.0995 0
M  V30 1054 H 103.793 3.9624 -1.27014 0
M  V30 1055 H 102.669 5.34545 -1.2471 0
M  V30 1056 H 102.93 4.41552 0.220071 0
M  V30 1057 N 101.989 0.842826 1.3317 0
M  V30 1058 C 103.219 0.453397 2.01564 0
M  V30 1059 C 103.627 -0.951147 1.63554 0
M  V30 1060 O 102.97 -1.63021 0.846746 0
M  V30 1061 C 103.032 0.499013 3.5602 0
M  V30 1062 C 102.696 1.86037 4.1742 0
M  V30 1063 C 103.693 2.82416 4.36506 0
M  V30 1064 C 101.378 2.15428 4.53757 0
M  V30 1065 C 103.372 4.06346 4.91082 0
M  V30 1066 C 101.059 3.39615 5.0804 0
M  V30 1067 C 102.057 4.3489 5.26649 0
M  V30 1068 O 101.745 5.5688 5.79776 0
M  V30 1069 H 101.477 0.177871 0.652179 0
M  V30 1070 H 104.031 1.13808 1.70988 0
M  V30 1071 H 102.261 -0.242467 3.85939 0
M  V30 1072 H 103.95 0.126852 4.05702 0
M  V30 1073 H 104.716 2.6101 4.08777 0
M  V30 1074 H 100.595 1.42061 4.38565 0
M  V30 1075 H 104.139 4.80722 5.05522 0
M  V30 1076 H 100.036 3.60876 5.352 0
M  V30 1077 H 100.804 5.58674 5.98185 0
M  V30 1078 N 103.467 -1.45747 0.599634 0
M  V30 1079 C 104.397 -2.33235 -0.111306 0
M  V30 1080 C 105.378 -1.46359 -0.866781 0
M  V30 1081 O 106.563 -1.75146 -0.838904 0
M  V30 1082 C 103.693 -3.28932 -1.11451 0
M  V30 1083 C 102.647 -4.25381 -0.472772 0
M  V30 1084 C 101.973 -5.1071 -1.58365 0
M  V30 1085 C 103.273 -5.18831 0.600948 0
M  V30 1086 H 104.967 -2.92927 0.61919 0
M  V30 1087 H 102.513 -1.40857 0.299215 0
M  V30 1088 H 104.466 -3.89002 -1.62036 0
M  V30 1089 H 103.19 -2.67381 -1.8755 0
M  V30 1090 H 101.849 -3.66598 0.0121472 0
M  V30 1091 H 101.497 -4.45533 -2.33473 0
M  V30 1092 H 101.197 -5.7604 -1.15982 0
M  V30 1093 H 102.721 -5.73647 -2.09194 0
M  V30 1094 H 104.135 -5.73019 0.179491 0
M  V30 1095 H 102.532 -5.92595 0.946076 0
M  V30 1096 H 103.602 -4.6174 1.48068 0
M  V30 1097 N 104.945 -0.338344 -1.53925 0
M  V30 1098 C 106.356 0.146651 -1.86123 0
M  V30 1099 C 106.707 1.5042 -1.2597 0
M  V30 1100 O 105.832 2.08723 -0.571294 0
M  V30 1101 C 106.427 0.272879 -3.37699 0
M  V30 1102 C 104.986 0.702103 -3.69794 0
M  V30 1103 C 104.133 -0.167304 -2.76795 0
M  V30 1104 H 107.084 -0.558123 -1.48562 0
M  V30 1105 H 107.105 1.10128 -3.64214 0
M  V30 1106 H 106.617 -0.715307 -3.81451 0
M  V30 1107 H 104.718 1.6995 -3.31584 0
M  V30 1108 H 104.831 0.495604 -4.7653 0
M  V30 1109 H 103.195 0.359527 -2.5215 0
M  V30 1110 H 103.978 -1.15253 -3.23375 0
M  V30 1111 N 106.423 1.57458 -0.0668435 0
M  V30 1112 C 107.834 1.80776 0.466558 0
M  V30 1113 C 108.185 0.980361 1.69951 0
M  V30 1114 O 107.31 0.201441 2.1546 0
M  V30 1115 C 107.905 3.27881 0.85321 0
M  V30 1116 C 106.464 3.52062 1.3315 0
M  V30 1117 C 105.611 2.75513 0.314264 0
M  V30 1118 H 108.562 1.5598 -0.292588 0
M  V30 1119 H 108.583 3.39659 1.715 0
M  V30 1120 H 108.095 3.88075 -0.0443439 0
M  V30 1121 H 106.196 2.97167 2.24772 0
M  V30 1122 H 106.309 4.60762 1.31285 0
M  V30 1123 H 104.673 2.42123 0.790492 0
M  V30 1124 H 105.456 3.38442 -0.575477 0
M  V30 1125 N 107.901 -0.206675 1.56239 0
M  V30 1126 C 109.149 -0.927007 1.79586 0
M  V30 1127 C 109.47 -1.8427 0.637929 0
M  V30 1128 O 108.74 -1.92849 -0.344398 0
M  V30 1129 H 107.32 -0.345292 0.662407 0
M  V30 1130 H 109.982 -0.21496 1.93711 0
M  V30 1131 H 109.078 -1.52501 2.72305 0
M  V30 1132 N 109.379 -1.50304 -0.473955 0
M  V30 1133 C 110.609 -1.64663 -1.24778 0
M  V30 1134 C 111.017 -0.328174 -1.86332 0
M  V30 1135 O 110.36 0.699536 -1.69859 0
M  V30 1136 C 110.422 -2.6778 -2.39863 0
M  V30 1137 C 110.086 -4.11413 -1.98969 0
M  V30 1138 C 111.083 -4.97372 -1.51385 0
M  V30 1139 C 108.768 -4.57312 -2.07777 0
M  V30 1140 C 110.762 -6.27277 -1.13148 0
M  V30 1141 C 108.449 -5.87223 -1.69152 0
M  V30 1142 C 109.447 -6.72031 -1.21915 0
M  V30 1143 O 109.135 -7.99518 -0.838237 0
M  V30 1144 H 108.867 -0.556602 -0.383627 0
M  V30 1145 H 111.421 -1.9726 -0.572491 0
M  V30 1146 H 109.651 -2.30419 -3.10554 0
M  V30 1147 H 111.34 -2.71388 -3.01833 0
M  V30 1148 H 112.106 -4.63128 -1.44004 0
M  V30 1149 H 107.985 -3.91449 -2.43493 0
M  V30 1150 H 111.529 -6.93425 -0.762077 0
M  V30 1151 H 107.426 -6.20989 -1.76191 0
M  V30 1152 H 108.194 -8.12764 -0.967339 0
M  V30 1153 N 110.857 0.726932 -1.39834 0
M  V30 1154 C 112.082 1.52121 -1.40976 0
M  V30 1155 C 112.507 1.88098 -0.00826029 0
M  V30 1156 O 111.865 1.52479 0.980807 0
M  V30 1157 C 111.913 2.78021 -2.29644 0
M  V30 1158 O 111.017 3.74272 -1.73188 0
M  V30 1159 H 110.358 0.45908 -0.479731 0
M  V30 1160 H 112.888 0.896207 -1.83927 0
M  V30 1161 H 112.898 3.26671 -2.44438 0
M  V30 1162 H 111.573 2.51169 -3.31492 0
M  V30 1163 H 110.15 3.33073 -1.6768 0
M  V30 1164 N 112.336 1.25143 0.95797 0
M  V30 1165 C 113.283 1.05235 2.05412 0
M  V30 1166 C 114.253 -0.0374561 1.66058 0
M  V30 1167 O 115.438 0.119073 1.90428 0
M  V30 1168 C 112.578 0.673589 3.38462 0
M  V30 1169 C 111.691 1.8379 3.90954 0
M  V30 1170 C 110.826 1.40381 5.12315 0
M  V30 1171 C 109.865 2.53746 5.57027 0
M  V30 1172 N 109.002 2.11136 6.69601 0
M  V30 1173 H 113.842 1.99048 2.21774 0
M  V30 1174 H 111.379 0.991277 1.08683 0
M  V30 1175 H 113.337 0.434964 4.14926 0
M  V30 1176 H 111.967 -0.227554 3.21997 0
M  V30 1177 H 111.019 2.18992 3.11041 0
M  V30 1178 H 112.331 2.68937 4.20089 0
M  V30 1179 H 111.485 1.12464 5.96185 0
M  V30 1180 H 110.224 0.523015 4.84887 0
M  V30 1181 H 109.229 2.82412 4.71724 0
M  V30 1182 H 110.454 3.42398 5.86464 0
M  V30 1183 H 108.4 1.25468 6.4389 0
M  V30 1184 H 108.317 2.89832 6.98236 0
M  V30 1185 H 109.585 1.86385 7.56889 0
M  V30 1186 N 113.814 -1.1601 1.06675 0
M  V30 1187 C 115.091 -1.82679 0.699114 0
M  V30 1188 C 115.471 -1.94559 -0.819137 0
M  V30 1189 O 114.819 -1.49169 -1.73092 0
M  V30 1190 C 115.029 -3.19445 1.40555 0
M  V30 1191 C 116.377 -3.95171 1.55323 0
M  V30 1192 O 117.401 -3.28976 1.36577 0
M  V30 1193 O 116.26 -5.13833 1.86112 0
M  V30 1194 H 113.354 -0.788954 0.247951 0
M  V30 1195 H 115.9 -1.23179 1.16726 0
M  V30 1196 H 114.672 -3.05856 2.44065 0
M  V30 1197 H 114.295 -3.86625 0.927733 0
M  V30 1198 N 115.292 -0.849877 -1.32721 0
M  V30 1199 C 116.239 -0.289033 -2.28983 0
M  V30 1200 C 117.209 0.601324 -1.54833 0
M  V30 1201 O 118.394 0.537253 -1.8308 0
M  V30 1202 C 115.534 0.520623 -3.4115 0
M  V30 1203 C 114.647 -0.394989 -4.3019 0
M  V30 1204 C 113.782 0.426834 -5.29482 0
M  V30 1205 C 112.821 -0.486476 -6.10164 0
M  V30 1206 N 111.958 0.297879 -7.01468 0
M  V30 1207 H 116.798 -1.11519 -2.76347 0
M  V30 1208 H 114.335 -0.56138 -1.35967 0
M  V30 1209 H 116.293 1.00563 -4.04899 0
M  V30 1210 H 114.923 1.31165 -2.9495 0
M  V30 1211 H 113.975 -0.99836 -3.67065 0
M  V30 1212 H 115.287 -1.09612 -4.86607 0
M  V30 1213 H 114.441 0.975205 -5.98811 0
M  V30 1214 H 113.18 1.16136 -4.73671 0
M  V30 1215 H 112.185 -1.04677 -5.39743 0
M  V30 1216 H 113.41 -1.21953 -6.6806 0
M  V30 1217 H 111.356 1.01558 -6.48091 0
M  V30 1218 H 111.273 -0.344318 -7.55216 0
M  V30 1219 H 112.541 0.828131 -7.75089 0
M  V30 1220 N 116.77 1.45427 -0.607355 0
M  V30 1221 C 117.717 2.3053 0.111625 0
M  V30 1222 C 118.687 1.4209 0.860216 0
M  V30 1223 O 119.872 1.71019 0.845998 0
M  V30 1224 C 117.012 3.26992 1.10319 0
M  V30 1225 C 116.125 4.30535 0.355493 0
M  V30 1226 C 115.26 5.14105 1.33676 0
M  V30 1227 C 114.299 6.09376 0.576862 0
M  V30 1228 N 113.436 6.85727 1.5074 0
M  V30 1229 H 118.276 2.91477 -0.620093 0
M  V30 1230 H 115.813 1.43631 -0.317594 0
M  V30 1231 H 117.771 3.81385 1.6912 0
M  V30 1232 H 116.401 2.67799 1.80232 0
M  V30 1233 H 115.453 3.78805 -0.348023 0
M  V30 1234 H 116.765 4.98235 -0.237423 0
M  V30 1235 H 115.919 5.72897 1.99684 0
M  V30 1236 H 114.658 4.46423 1.9636 0
M  V30 1237 H 113.663 5.49715 -0.0968519 0
M  V30 1238 H 114.888 6.79085 -0.0449341 0
M  V30 1239 H 112.834 6.20735 2.12189 0
M  V30 1240 H 112.751 7.49778 0.967913 0
M  V30 1241 H 114.019 7.4906 2.15706 0
M  V30 1242 N 118.248 0.346503 1.53744 0
M  V30 1243 C 119.478 -0.250047 2.05081 0
M  V30 1244 C 119.886 -1.44529 1.22098 0
M  V30 1245 O 119.229 -1.81992 0.249917 0
M  V30 1246 C 119.291 -0.725934 3.52094 0
M  V30 1247 C 118.955 0.350053 4.55657 0
M  V30 1248 C 119.952 1.19372 5.0601 0
M  V30 1249 C 117.637 0.504827 4.99757 0
M  V30 1250 C 119.631 2.17768 5.99046 0
M  V30 1251 C 117.318 1.49218 5.92602 0
M  V30 1252 C 118.316 2.32706 6.42135 0
M  V30 1253 O 118.004 3.2976 7.33153 0
M  V30 1254 H 117.736 -0.0515469 0.674032 0
M  V30 1255 H 120.29 0.497559 1.99282 0
M  V30 1256 H 118.52 -1.52483 3.55367 0
M  V30 1257 H 120.209 -1.24336 3.86388 0
M  V30 1258 H 120.975 1.08525 4.72702 0
M  V30 1259 H 116.854 -0.135178 4.60802 0
M  V30 1260 H 120.398 2.82971 6.37631 0
M  V30 1261 H 116.295 1.6012 6.25325 0
M  V30 1262 H 117.063 3.25265 7.51096 0
M  V30 1263 N 119.726 -1.57421 0.075193 0
M  V30 1264 C 120.951 -1.98364 -0.605515 0
M  V30 1265 C 121.376 -0.953383 -1.62149 0
M  V30 1266 O 120.734 0.0806053 -1.81121 0
M  V30 1267 C 120.782 -3.38332 -1.24756 0
M  V30 1268 O 119.886 -3.37959 -2.36342 0
M  V30 1269 H 119.227 -0.645553 -0.155428 0
M  V30 1270 H 121.757 -2.04044 0.150714 0
M  V30 1271 H 121.767 -3.75591 -1.5936 0
M  V30 1272 H 120.442 -4.12846 -0.503129 0
M  V30 1273 H 119.019 -3.12474 -2.03506 0
M  V30 1274 N 121.204 0.198386 -1.56346 0
M  V30 1275 C 122.45 0.920648 -1.80698 0
M  V30 1276 C 122.783 1.83045 -0.648697 0
M  V30 1277 O 122.058 1.91308 0.350925 0
M  V30 1278 C 122.341 1.73971 -3.15287 0
M  V30 1279 C 122.194 0.85485 -4.41602 0
M  V30 1280 C 123.513 2.71296 -3.46535 0
M  V30 1281 H 120.632 0.333261 -0.657348 0
M  V30 1282 H 123.274 0.188198 -1.89066 0
M  V30 1283 H 121.424 2.36416 -3.08285 0
M  V30 1284 H 123.096 0.245362 -4.60647 0
M  V30 1285 H 121.339 0.161398 -4.335 0
M  V30 1286 H 122.01 1.46286 -5.32264 0
M  V30 1287 H 124.486 2.18983 -3.53816 0
M  V30 1288 H 123.362 3.2569 -4.41834 0
M  V30 1289 H 123.623 3.5018 -2.69864 0
M  V30 1290 N 122.682 1.50554 0.465978 0
M  V30 1291 C 123.612 1.72722 1.57128 0
M  V30 1292 C 124.593 0.576294 1.6004 0
M  V30 1293 O 125.778 0.81598 1.76225 0
M  V30 1294 C 122.908 1.82605 2.95419 0
M  V30 1295 C 121.862 2.97835 3.07373 0
M  V30 1296 C 121.188 2.92867 4.47363 0
M  V30 1297 C 122.488 4.38265 2.84114 0
M  V30 1298 H 124.182 2.65267 1.38829 0
M  V30 1299 H 121.728 1.2765 0.666441 0
M  V30 1300 H 123.681 1.96698 3.72677 0
M  V30 1301 H 122.405 0.866858 3.14886 0
M  V30 1302 H 121.064 2.83401 2.3255 0
M  V30 1303 H 120.712 1.94783 4.63755 0
M  V30 1304 H 120.412 3.70227 4.56296 0
M  V30 1305 H 121.936 3.09015 5.26633 0
M  V30 1306 H 123.35 4.53198 3.51118 0
M  V30 1307 H 121.747 5.17115 3.04487 0
M  V30 1308 H 122.817 4.50281 1.7993 0
M  V30 1309 N 124.16 -0.719506 1.40217 0
M  V30 1310 C 125.39 -1.50646 1.41384 0
M  V30 1311 C 125.798 -1.89197 0.0107743 0
M  V30 1312 O 125.141 -1.55709 -0.974708 0
M  V30 1313 C 125.203 -2.81405 2.23722 0
M  V30 1314 C 124.867 -2.65199 3.72181 0
M  V30 1315 C 125.864 -2.32717 4.64907 0
M  V30 1316 C 123.549 -2.81586 4.1595 0
M  V30 1317 C 125.543 -2.16827 5.99387 0
M  V30 1318 C 123.23 -2.65313 5.50502 0
M  V30 1319 C 124.228 -2.32981 6.42035 0
M  V30 1320 O 123.916 -2.16827 7.74107 0
M  V30 1321 H 123.648 -0.471606 0.484318 0
M  V30 1322 H 126.202 -0.895456 1.84853 0
M  V30 1323 H 124.432 -3.44823 1.75026 0
M  V30 1324 H 126.121 -3.43102 2.16878 0
M  V30 1325 H 126.887 -2.19694 4.32388 0
M  V30 1326 H 122.766 -3.0574 3.45027 0
M  V30 1327 H 126.31 -1.91513 6.70797 0
M  V30 1328 H 122.207 -2.7792 5.82607 0
M  V30 1329 H 122.975 -2.31778 7.84998 0
M  V30 1330 N 125.638 -1.25649 -0.95132 0
M  V30 1331 C 126.568 -1.08808 -2.06599 0
M  V30 1332 C 127.549 0.00382547 -1.701 0
M  V30 1333 O 128.734 -0.166325 -1.93486 0
M  V30 1334 C 125.864 -0.709542 -3.39975 0
M  V30 1335 C 124.818 -1.75206 -3.90496 0
M  V30 1336 C 124.144 -1.22811 -5.20405 0
M  V30 1337 C 125.444 -3.15153 -4.16504 0
M  V30 1338 H 127.138 -2.02048 -2.20946 0
M  V30 1339 H 124.684 -0.972835 -1.06169 0
M  V30 1340 H 126.637 -0.578649 -4.17408 0
M  V30 1341 H 125.361 0.258556 -3.25575 0
M  V30 1342 H 124.02 -1.87145 -3.15234 0
M  V30 1343 H 123.668 -0.250145 -5.02378 0
M  V30 1344 H 123.368 -1.92492 -5.55176 0
M  V30 1345 H 124.892 -1.10968 -6.00432 0
M  V30 1346 H 126.306 -3.06349 -4.84586 0
M  V30 1347 H 124.703 -3.82333 -4.62538 0
M  V30 1348 H 125.773 -3.61966 -3.22658 0
M  V30 1349 N 127.117 1.15442 -1.07289 0
M  V30 1350 C 128.047 2.22312 -0.714107 0
M  V30 1351 C 129.028 1.67467 0.298155 0
M  V30 1352 O 130.213 1.93445 0.171048 0
M  V30 1353 C 127.343 3.47124 -0.110448 0
M  V30 1354 C 126.297 4.14926 -1.04979 0
M  V30 1355 C 125.623 5.33807 -0.308924 0
M  V30 1356 C 126.923 4.64762 -2.38314 0
M  V30 1357 H 128.617 2.5258 -1.6076 0
M  V30 1358 H 126.163 1.21404 -0.77441 0
M  V30 1359 H 128.116 4.21124 0.152482 0
M  V30 1360 H 126.84 3.16187 0.81812 0
M  V30 1361 H 125.499 3.42866 -1.29764 0
M  V30 1362 H 125.147 4.99126 0.623084 0
M  V30 1363 H 124.847 5.80113 -0.935036 0
M  V30 1364 H 126.371 6.10576 -0.0537771 0
M  V30 1365 H 127.785 5.30292 -2.1786 0
M  V30 1366 H 126.182 5.21728 -2.96514 0
M  V30 1367 H 127.252 3.80434 -3.00663 0
M  V30 1368 N 128.595 0.856903 1.32268 0
M  V30 1369 C 129.545 0.274899 2.26337 0
M  V30 1370 C 130.529 -0.580543 1.50062 0
M  V30 1371 O 131.721 -0.429559 1.71708 0
M  V30 1372 C 128.85 -0.533841 3.39124 0
M  V30 1373 C 127.936 0.334114 4.22782 0
M  V30 1374 N 128.327 1.42143 4.85416 0
M  V30 1375 C 126.625 0.124256 4.45827 0
M  V30 1376 C 127.326 1.95559 5.47843 0
M  V30 1377 N 126.302 1.25444 5.28928 0
M  V30 1378 H 130.104 1.10612 2.72291 0
M  V30 1379 H 127.618 0.703258 1.46383 0
M  V30 1380 H 129.615 -0.96722 4.05525 0
M  V30 1381 H 128.275 -1.36283 2.94715 0
M  V30 1382 H 129.286 1.80436 4.85451 0
M  V30 1383 H 125.963 -0.669837 4.12092 0
M  V30 1384 H 127.353 2.86714 6.07655 0
M  V30 1385 N 130.073 -1.45103 0.615059 0
M  V30 1386 C 131.321 -2.01784 0.112955 0
M  V30 1387 C 131.642 -1.48504 -1.26378 0
M  V30 1388 O 130.912 -0.682245 -1.83636 0
M  V30 1389 H 129.492 -0.745993 0.0387668 0
M  V30 1390 H 132.154 -1.77808 0.798141 0
M  V30 1391 H 131.25 -3.12025 0.0684069 0
M  V30 1392 N 131.551 -0.354651 -1.53558 0
M  V30 1393 C 132.8 0.239504 -2.00273 0
M  V30 1394 C 133.113 1.50759 -1.24623 0
M  V30 1395 O 134.319 2.17968 -1.61871 0
M  V30 1396 C 132.775 0.477341 -3.5672 0
M  V30 1397 C 132.383 -0.775488 -4.41237 0
M  V30 1398 C 134.127 1.02975 -4.11821 0
M  V30 1399 C 132.034 -0.507838 -5.89216 0
M  V30 1400 H 130.964 0.0932743 -0.748208 0
M  V30 1401 H 133.615 -0.471701 -1.77334 0
M  V30 1402 H 131.997 1.24953 -3.7577 0
M  V30 1403 H 133.171 -1.54963 -4.33962 0
M  V30 1404 H 131.486 -1.25033 -3.97185 0
M  V30 1405 H 134.083 1.24513 -5.2 0
M  V30 1406 H 134.426 1.98862 -3.65731 0
M  V30 1407 H 134.959 0.317994 -3.96527 0
M  V30 1408 H 131.698 -1.43674 -6.39561 0
M  V30 1409 H 131.218 0.228011 -5.99366 0
M  V30 1410 H 132.897 -0.129238 -6.46871 0
M  V30 1411 N 133.029 1.57378 -0.0835403 0
M  V30 1412 C 134.277 1.93547 0.581718 0
M  V30 1413 C 134.598 0.96524 1.69435 0
M  V30 1414 O 133.868 0.0153369 1.95894 0
M  V30 1415 H 132.448 0.714521 0.217874 0
M  V30 1416 H 135.11 1.94366 -0.144158 0
M  V30 1417 H 134.206 2.95665 0.999423 0
M  V30 1418 N 134.507 -0.190092 1.56449 0
M  V30 1419 C 135.755 -0.907908 1.80559 0
M  V30 1420 C 136.076 -1.83583 0.657438 0
M  V30 1421 O 135.346 -1.93203 -0.323924 0
M  V30 1422 H 133.926 -0.338247 0.666032 0
M  V30 1423 H 136.588 -0.194403 1.93928 0
M  V30 1424 H 135.684 -1.49604 2.73907 0
M  V30 1425 N 135.985 -1.50799 -0.457987 0
M  V30 1426 C 137.21 -1.66496 -1.23668 0
M  V30 1427 C 137.635 -0.353288 -1.84752 0
M  V30 1428 O 136.993 0.684346 -1.67888 0
M  V30 1429 C 137.041 -2.76763 -2.3116 0
M  V30 1430 O 136.145 -2.38928 -3.36136 0
M  V30 1431 H 135.486 -0.555828 -0.363252 0
M  V30 1432 H 138.016 -1.9725 -0.543474 0
M  V30 1433 H 138.026 -3.00232 -2.76269 0
M  V30 1434 H 136.701 -3.71954 -1.86073 0
M  V30 1435 H 135.278 -2.25953 -2.96647 0
M  V30 1436 N 137.463 0.71206 -1.40597 0
M  V30 1437 C 138.373 1.8562 -1.43466 0
M  V30 1438 C 139.389 1.70902 -0.326902 0
M  V30 1439 O 140.565 1.93105 -0.572043 0
M  V30 1440 C 137.63 3.21451 -1.29884 0
M  V30 1441 C 136.691 3.48398 -2.50833 0
M  V30 1442 C 135.924 4.77749 -2.3789 0
M  V30 1443 O 136.147 5.53089 -1.39459 0
M  V30 1444 O 135.081 5.05111 -3.27333 0
M  V30 1445 H 138.907 1.86155 -2.39958 0
M  V30 1446 H 136.492 0.86295 -1.21957 0
M  V30 1447 H 138.374 4.02579 -1.24531 0
M  V30 1448 H 137.049 3.21636 -0.364997 0
M  V30 1449 H 135.956 2.67265 -2.61763 0
M  V30 1450 H 137.289 3.53014 -3.4299 0
M  V30 1451 N 138.941 1.26152 0.944643 0
M  V30 1452 C 139.889 1.07215 2.06417 0
M  V30 1453 C 140.883 9.2007e-05 1.694 0
M  V30 1454 O 142.089 0.1565 1.79318 0
M  V30 1455 H 138.464 0.329837 0.675805 0
M  V30 1456 H 140.435 2.02099 2.19541 0
M  V30 1457 C 139.184 0.718197 3.40202 0
M  V30 1458 H 138.507 1.53497 3.69159 0
M  V30 1459 H 139.947 0.625459 4.19361 0
M  V30 1460 C 138.406 -0.576435 3.31932 0
M  V30 1461 O 138.936 -1.61574 3.67773 0
M  V30 1462 N 137.142 -0.565781 2.85039 0
M  V30 1463 H 136.689 0.280367 2.5607 0
M  V30 1464 H 136.647 -1.43213 2.79888 0
M  V30 1465 N 140.419 -1.14872 1.07899 0
M  V30 1466 C 141.696 -1.81928 0.71845 0
M  V30 1467 C 142.076 -1.95417 -0.798455 0
M  V30 1468 O 141.424 -1.50997 -1.715 0
M  V30 1469 C 141.634 -3.17937 1.43935 0
M  V30 1470 C 142.982 -3.93501 1.59506 0
M  V30 1471 O 144.006 -3.27509 1.40058 0
M  V30 1472 O 142.865 -5.1183 1.91551 0
M  V30 1473 H 139.959 -0.78628 0.256305 0
M  V30 1474 H 142.505 -1.21934 1.18026 0
M  V30 1475 H 141.277 -3.0325 2.47295 0
M  V30 1476 H 140.9 -3.85619 0.968687 0
M  V30 1477 N 141.898 -0.863906 -1.31812 0
M  V30 1478 C 143.144 -0.481841 -1.9761 0
M  V30 1479 C 143.499 0.954048 -1.6708 0
M  V30 1480 O 142.792 1.66182 -0.953624 0
M  V30 1481 C 142.986 -0.668547 -3.51091 0
M  V30 1482 C 142.815 -2.12103 -3.96538 0
M  V30 1483 C 141.585 -2.76141 -4.23171 0
M  V30 1484 C 143.783 -3.09265 -4.10925 0
M  V30 1485 N 141.765 -4.12205 -4.54929 0
M  V30 1486 C 143.136 -4.30341 -4.46326 0
M  V30 1487 C 145.191 -3.05337 -3.93286 0
M  V30 1488 C 143.894 -5.48 -4.65928 0
M  V30 1489 C 145.92 -4.22248 -4.14078 0
M  V30 1490 C 145.282 -5.42085 -4.49804 0
M  V30 1491 H 141.381 -0.225238 -0.74886 0
M  V30 1492 H 143.965 -1.11723 -1.59455 0
M  V30 1493 H 142.136 -0.0627898 -3.88349 0
M  V30 1494 H 143.868 -0.255467 -4.03893 0
M  V30 1495 H 140.623 -2.27125 -4.15585 0
M  V30 1496 H 141.047 -4.82416 -4.74978 0
M  V30 1497 H 145.689 -2.138 -3.64759 0
M  V30 1498 H 143.407 -6.40059 -4.93305 0
M  V30 1499 H 146.993 -4.20654 -4.01922 0
M  V30 1500 H 145.873 -6.31044 -4.65567 0
M  V30 1501 N 143.376 1.44774 -0.622745 0
M  V30 1502 C 144.623 2.02121 -0.1239 0
M  V30 1503 C 144.951 1.48915 1.25118 0
M  V30 1504 O 144.206 0.660045 1.84233 0
M  V30 1505 C 144.505 3.57364 -0.0508323 0
M  V30 1506 C 144.171 4.29787 -1.36358 0
M  V30 1507 C 142.833 4.4929 -1.72314 0
M  V30 1508 C 145.185 4.71062 -2.23048 0
M  V30 1509 C 142.513 5.07325 -2.94682 0
M  V30 1510 C 144.865 5.30452 -3.44679 0
M  V30 1511 C 143.529 5.48175 -3.80868 0
M  V30 1512 H 142.799 0.739612 -0.0453381 0
M  V30 1513 H 145.446 1.73648 -0.807389 0
M  V30 1514 H 143.751 3.85202 0.715991 0
M  V30 1515 H 145.448 3.99456 0.351533 0
M  V30 1516 H 142.038 4.14932 -1.07375 0
M  V30 1517 H 146.222 4.55715 -1.96565 0
M  V30 1518 H 141.478 5.19235 -3.22809 0
M  V30 1519 H 145.652 5.61385 -4.12092 0
M  V30 1520 H 143.279 5.92912 -4.75773 0
M  V30 1521 N 144.854 0.36279 1.53368 0
M  V30 1522 C 145.764 -0.492994 2.29362 0
M  V30 1523 C 146.78 -1.09507 1.35219 0
M  V30 1524 O 147.956 -1.10662 1.68273 0
M  V30 1525 C 145.021 -1.61855 3.066 0
M  V30 1526 C 144.082 -1.04429 4.16405 0
M  V30 1527 C 143.315 -2.11621 4.89951 0
M  V30 1528 O 143.538 -3.32684 4.63333 0
M  V30 1529 O 142.472 -1.74835 5.75948 0
M  V30 1530 H 146.298 0.125331 3.03441 0
M  V30 1531 H 143.883 0.127253 1.48857 0
M  V30 1532 H 145.765 -2.27302 3.54841 0
M  V30 1533 H 144.44 -2.22233 2.3536 0
M  V30 1534 H 143.347 -0.353819 3.72423 0
M  V30 1535 H 144.68 -0.485113 4.89804 0
M  V30 1536 N 146.332 -1.57332 0.0918853 0
M  V30 1537 C 147.58 -1.93853 -0.571446 0
M  V30 1538 C 147.901 -0.974212 -1.6892 0
M  V30 1539 O 147.171 -0.0257254 -1.95883 0
M  V30 1540 H 145.751 -0.715666 -0.214082 0
M  V30 1541 H 148.413 -1.94287 0.154464 0
M  V30 1542 H 147.509 -2.96191 -0.983729 0
M  V30 1543 N 147.81 0.181792 -1.56548 0
M  V30 1544 C 149.058 0.89832 -1.81038 0
M  V30 1545 C 149.379 1.83232 -0.667164 0
M  V30 1546 O 148.649 1.93372 0.313673 0
M  V30 1547 H 147.229 0.33471 -0.667816 0
M  V30 1548 H 149.891 0.184116 -1.94028 0
M  V30 1549 H 148.987 1.4815 -2.74696 0
M  V30 1550 N 149.288 1.51039 0.449983 0
M  V30 1551 C 150.536 1.62759 1.19808 0
M  V30 1552 C 150.857 0.339981 1.92013 0
M  V30 1553 O 150.127 -0.643606 1.85026 0
M  V30 1554 H 148.707 0.599811 0.445237 0
M  V30 1555 H 151.369 1.87914 0.517138 0
M  V30 1556 H 150.465 2.44911 1.93455 0
M  V30 1557 N 150.766 -0.704594 1.40972 0
M  V30 1558 C 152.182 -1.01406 1.23244 0
M  V30 1559 C 152.382 -2.01169 0.115399 0
M  V30 1560 O 151.438 -2.47021 -0.523147 0
M  V30 1561 C 152.751 -1.54728 2.57836 0
M  V30 1562 C 154.299 -1.66658 2.64942 0
M  V30 1563 C 154.774 -2.23383 3.9983 0
M  V30 1564 N 156.265 -2.30756 4.01629 0
M  V30 1565 C 157 -2.75655 5.02794 0
M  V30 1566 N 156.496 -3.20225 6.14352 0
M  V30 1567 N 158.289 -2.75138 4.90159 0
M  V30 1568 H 150.44 -0.0435285 2.12355 0
M  V30 1569 H 152.703 -0.0818951 0.944456 0
M  V30 1570 H 152.409 -0.888832 3.40283 0
M  V30 1571 H 152.283 -2.53084 2.79693 0
M  V30 1572 H 154.67 -2.31617 1.8286 0
M  V30 1573 H 154.751 -0.668717 2.46904 0
M  V30 1574 H 154.395 -1.59043 4.82357 0
M  V30 1575 H 154.325 -3.23904 4.15203 0
M  V30 1576 H 156.816 -1.99291 3.21079 0
M  V30 1577 H 157.129 -3.53084 6.87424 0
M  V30 1578 H 155.474 -3.18156 6.17901 0
M  V30 1579 H 158.665 -2.39661 4.02095 0
M  V30 1580 H 158.838 -3.09812 5.6914 0
M  V30 1581 N 152.244 -1.26651 -0.937939 0
M  V30 1582 C 153.207 -1.08546 -2.01867 0
M  V30 1583 C 154.207 -0.0327327 -1.60767 0
M  V30 1584 O 155.397 -0.276427 -1.71993 0
M  V30 1585 C 152.529 -0.651711 -3.34613 0
M  V30 1586 H 153.722 -2.04502 -2.1936 0
M  V30 1587 H 151.275 -1.09294 -1.11734 0
M  V30 1588 H 152.01 0.309696 -3.22818 0
M  V30 1589 H 151.795 -1.41189 -3.65798 0
M  V30 1590 H 153.285 -0.546973 -4.14002 0
M  V30 1591 N 153.722 1.14298 -1.08507 0
M  V30 1592 C 154.67 2.21483 -0.710483 0
M  V30 1593 C 155.664 1.66998 0.284234 0
M  V30 1594 O 156.87 1.79401 0.146692 0
M  V30 1595 H 153.245 0.721578 -0.211729 0
M  V30 1596 H 155.216 2.50348 -1.62384 0
M  V30 1597 C 153.965 3.4743 -0.137007 0
M  V30 1598 H 153.288 3.89686 -0.893592 0
M  V30 1599 H 154.728 4.2391 0.0872789 0
M  V30 1600 C 153.187 3.17548 1.12538 0
M  V30 1601 O 153.717 3.35437 2.21009 0
M  V30 1602 N 151.923 2.71499 1.03617 0
M  V30 1603 H 151.47 2.57143 0.153403 0
M  V30 1604 H 151.428 2.51881 1.88158 0
M  V30 1605 N 155.201 0.870884 1.31352 0
M  V30 1606 C 156.447 0.482987 1.96965 0
M  V30 1607 C 156.78 -0.962462 1.68672 0
M  V30 1608 O 156.055 -1.6779 0.98371 0
M  V30 1609 C 156.338 0.741752 3.52378 0
M  V30 1610 C 156.191 2.2368 3.9024 0
M  V30 1611 C 157.51 0.208838 4.39604 0
M  V30 1612 H 154.629 0.176955 0.715441 0
M  V30 1613 H 157.271 1.09229 1.55464 0
M  V30 1614 H 155.421 0.223149 3.87859 0
M  V30 1615 H 157.093 2.82273 3.64856 0
M  V30 1616 H 155.336 2.70901 3.38814 0
M  V30 1617 H 156.007 2.3685 4.98604 0
M  V30 1618 H 158.483 0.652529 4.10952 0
M  V30 1619 H 157.359 0.419336 5.47296 0
M  V30 1620 H 157.62 -0.889275 4.33064 0
M  V30 1621 N 156.679 -1.44442 0.630414 0
M  V30 1622 C 157.928 -2.01267 0.132073 0
M  V30 1623 C 158.241 -1.50172 -1.25331 0
M  V30 1624 O 159.447 -1.9912 -1.84562 0
M  V30 1625 C 157.903 -3.59422 0.185362 0
M  V30 1626 C 157.511 -4.19514 1.57201 0
M  V30 1627 C 159.255 -4.23724 -0.256553 0
M  V30 1628 C 157.162 -5.69891 1.58045 0
M  V30 1629 H 156.092 -0.752619 0.0456092 0
M  V30 1630 H 158.743 -1.65666 0.789106 0
M  V30 1631 H 157.125 -3.92318 -0.538759 0
M  V30 1632 H 158.299 -3.98156 2.31966 0
M  V30 1633 H 156.614 -3.67496 1.95795 0
M  V30 1634 H 159.211 -5.34019 -0.269767 0
M  V30 1635 H 159.554 -3.96013 -1.28372 0
M  V30 1636 H 160.087 -3.95629 0.41505 0
M  V30 1637 H 156.826 -6.02336 2.58597 0
M  V30 1638 H 156.346 -5.93373 0.875725 0
M  V30 1639 H 158.025 -6.33515 1.31408 0
M  V30 1640 N 158.157 -0.370918 -1.53173 0
M  V30 1641 C 159.12 0.460778 -2.24521 0
M  V30 1642 C 160.12 1.00536 -1.25496 0
M  V30 1643 O 161.31 0.890266 -1.49733 0
M  V30 1644 C 158.442 1.64457 -2.98608 0
M  V30 1645 H 159.635 -0.163613 -2.99453 0
M  V30 1646 H 157.188 -0.122699 -1.55818 0
M  V30 1647 H 157.923 2.30691 -2.2793 0
M  V30 1648 H 157.708 1.26099 -3.7127 0
M  V30 1649 H 159.198 2.23384 -3.5283 0
M  V30 1650 N 159.635 1.57281 -0.100228 0
M  V30 1651 C 160.912 1.86014 0.604812 0
M  V30 1652 C 161.292 0.998025 1.86018 0
M  V30 1653 O 160.64 0.0718184 2.28387 0
M  V30 1654 C 160.85 3.36784 0.915278 0
M  V30 1655 C 162.198 4.04957 1.27651 0
M  V30 1656 O 163.222 3.41695 1.00613 0
M  V30 1657 O 162.081 5.16593 1.7831 0
M  V30 1658 H 159.175 0.76942 0.303185 0
M  V30 1659 H 161.721 1.69176 -0.133313 0
M  V30 1660 H 160.493 3.91292 0.0248896 0
M  V30 1661 H 160.116 3.58987 1.70921 0
M  V30 1662 N 161.113 -0.173488 1.56642 0
M  V30 1663 C 162.061 -1.23417 1.97157 0
M  V30 1664 C 163.055 -1.45946 0.860013 0
M  V30 1665 O 164.261 -1.46551 1.04512 0
M  V30 1666 H 160.636 -0.414818 0.62724 0
M  V30 1667 H 162.607 -0.865582 2.8557 0
M  V30 1668 C 161.356 -2.5665 2.34576 0
M  V30 1669 H 160.679 -2.40137 3.19647 0
M  V30 1670 H 162.119 -3.2956 2.6677 0
M  V30 1671 C 160.578 -3.15245 1.18836 0
M  V30 1672 O 161.108 -3.98883 0.474869 0
M  V30 1673 N 159.314 -2.74303 0.959497 0
M  V30 1674 H 158.861 -2.0639 1.54146 0
M  V30 1675 H 158.819 -3.13844 0.186932 0
M  V30 1676 N 162.591 -1.51276 -0.441967 0
M  V30 1677 C 163.521 -1.752 -1.54361 0
M  V30 1678 C 164.502 -0.601682 -1.59103 0
M  V30 1679 O 165.687 -0.843913 -1.74905 0
M  V30 1680 C 162.817 -1.87282 -2.92477 0
M  V30 1681 C 161.771 -3.02687 -3.02596 0
M  V30 1682 C 161.097 -2.99947 -4.42647 0
M  V30 1683 C 162.397 -4.4273 -2.77106 0
M  V30 1684 H 164.091 -2.67442 -1.34592 0
M  V30 1685 H 161.637 -1.28694 -0.646048 0
M  V30 1686 H 163.59 -2.02602 -3.695 0
M  V30 1687 H 162.314 -0.916844 -3.13467 0
M  V30 1688 H 160.973 -2.87065 -2.28012 0
M  V30 1689 H 160.621 -2.02136 -4.60597 0
M  V30 1690 H 160.321 -3.77439 -4.50348 0
M  V30 1691 H 161.845 -3.17354 -5.2165 0
M  V30 1692 H 163.259 -4.58727 -3.43864 0
M  V30 1693 H 161.656 -5.21893 -2.96222 0
M  V30 1694 H 162.726 -4.53087 -1.72744 0
M  V30 1695 N 164.069 0.697108 -1.41344 0
M  V30 1696 C 165.318 1.45279 -1.39918 0
M  V30 1697 C 165.631 1.95597 -0.0109624 0
M  V30 1698 O 166.837 2.71208 0.125919 0
M  V30 1699 C 165.293 2.62695 -2.46007 0
M  V30 1700 C 164.901 2.19169 -3.90729 0
M  V30 1701 C 166.645 3.40336 -2.53715 0
M  V30 1702 C 164.552 3.33535 -4.88373 0
M  V30 1703 H 163.482 0.545692 -0.520323 0
M  V30 1704 H 166.133 0.756929 -1.67161 0
M  V30 1705 H 164.515 3.34541 -2.11892 0
M  V30 1706 H 165.689 1.54623 -4.34083 0
M  V30 1707 H 164.004 1.54525 -3.86666 0
M  V30 1708 H 166.601 4.2547 -3.2385 0
M  V30 1709 H 166.944 3.85418 -1.5735 0
M  V30 1710 H 167.477 2.75546 -2.86913 0
M  V30 1711 H 164.216 2.93468 -5.86137 0
M  V30 1712 H 163.736 3.96936 -4.49668 0
M  V30 1713 H 165.415 3.99335 -5.09059 0
M  V30 1714 N 165.547 1.27147 0.931209 0
M  V30 1715 C 166.51 1.09615 2.01289 0
M  V30 1716 C 167.51 0.0412581 1.60747 0
M  V30 1717 O 168.7 0.285545 1.71844 0
M  V30 1718 C 165.832 0.669447 3.34262 0
M  V30 1719 H 167.025 2.05662 2.18273 0
M  V30 1720 H 164.578 1.09885 1.11153 0
M  V30 1721 H 165.313 -0.292572 3.22978 0
M  V30 1722 H 165.098 1.43127 3.65044 0
M  V30 1723 H 166.588 0.568921 4.13706 0
M  V30 1724 N 167.025 -1.13721 1.09112 0
M  V30 1725 C 167.935 -2.22638 0.73957 0
M  V30 1726 C 168.951 -1.72091 -0.257068 0
M  V30 1727 O 170.127 -2.01155 -0.0992154 0
M  V30 1728 C 167.192 -3.46322 0.16191 0
M  V30 1729 C 166.253 -4.11775 1.21408 0
M  V30 1730 C 165.486 -5.29555 0.663891 0
M  V30 1731 O 165.709 -5.68077 -0.514274 0
M  V30 1732 O 164.643 -5.84973 1.41738 0
M  V30 1733 H 168.469 -2.55074 1.64836 0
M  V30 1734 H 166.054 -1.21791 0.865289 0
M  V30 1735 H 167.936 -4.21107 -0.157073 0
M  V30 1736 H 166.611 -3.15593 -0.719932 0
M  V30 1737 H 165.518 -3.3883 1.58571 0
M  V30 1738 H 166.851 -4.46627 2.06845 0
M  V30 1739 N 168.503 -0.877838 -1.30888 0
M  V30 1740 C 169.751 -0.491723 -1.96027 0
M  V30 1741 C 170.072 0.960827 -1.69685 0
M  V30 1742 O 169.342 1.67462 -1.01654 0
M  V30 1743 H 167.922 -0.17885 -0.725273 0
M  V30 1744 H 170.584 -1.11935 -1.59551 0
M  V30 1745 H 169.68 -0.656016 -3.05128 0
M  V30 1746 N 169.982 1.44106 -0.638065 0
M  V30 1747 C 170.929 2.30715 0.062701 0
M  V30 1748 C 171.899 1.43882 0.829883 0
M  V30 1749 O 173.084 1.72775 0.809532 0
M  V30 1750 C 170.224 3.29258 1.03358 0
M  V30 1751 C 169.337 4.31192 0.26409 0
M  V30 1752 C 168.472 5.16825 1.22741 0
M  V30 1753 C 167.511 6.10462 0.447475 0
M  V30 1754 N 166.648 6.8877 1.36161 0
M  V30 1755 H 171.488 2.90096 -0.681781 0
M  V30 1756 H 169.025 1.42925 -0.347988 0
M  V30 1757 H 170.983 3.84886 1.60992 0
M  V30 1758 H 169.613 2.71562 1.74511 0
M  V30 1759 H 168.665 3.77981 -0.428295 0
M  V30 1760 H 169.977 4.97619 -0.343052 0
M  V30 1761 H 169.131 5.77004 1.87487 0
M  V30 1762 H 167.87 4.50488 1.86847 0
M  V30 1763 H 166.875 5.49386 -0.213433 0
M  V30 1764 H 168.1 6.78837 -0.188968 0
M  V30 1765 H 166.046 6.25096 1.98975 0
M  V30 1766 H 165.963 7.51663 0.808656 0
M  V30 1767 H 167.231 7.53467 1.99769 0
M  V30 1768 N 171.46 0.379036 1.52974 0
M  V30 1769 C 172.709 -0.207612 2.00629 0
M  V30 1770 C 173.022 -1.48758 1.27006 0
M  V30 1771 O 174.228 -2.15365 1.65318 0
M  V30 1772 C 172.684 -0.42053 3.57435 0
M  V30 1773 C 172.292 0.845587 4.39948 0
M  V30 1774 C 174.036 -0.964102 4.13407 0
M  V30 1775 C 171.943 0.601513 5.88333 0
M  V30 1776 H 170.873 -0.0813591 0.749598 0
M  V30 1777 H 173.524 0.499853 1.76561 0
M  V30 1778 H 171.906 -1.18959 3.7771 0
M  V30 1779 H 173.08 1.61848 4.31442 0
M  V30 1780 H 171.395 1.31336 3.95145 0
M  V30 1781 H 173.992 -1.16225 5.21916 0
M  V30 1782 H 174.335 -1.93019 3.68849 0
M  V30 1783 H 174.868 -0.25487 3.96983 0
M  V30 1784 H 171.607 1.53831 6.37194 0
M  V30 1785 H 171.127 -0.132628 5.99653 0
M  V30 1786 H 172.806 0.232134 6.46583 0
M  V30 1787 N 172.938 -1.57226 0.108567 0
M  V30 1788 C 173.885 -2.14756 -0.845481 0
M  V30 1789 C 174.855 -1.06971 -1.27068 0
M  V30 1790 O 176.04 -1.34827 -1.35005 0
M  V30 1791 C 173.18 -2.74298 -2.09415 0
M  V30 1792 C 172.293 -3.96358 -1.71826 0
M  V30 1793 C 171.428 -4.44021 -2.9158 0
M  V30 1794 C 170.467 -5.58637 -2.50181 0
M  V30 1795 N 169.604 -6.01091 -3.62814 0
M  V30 1796 H 174.444 -2.95961 -0.348035 0
M  V30 1797 H 171.981 -1.46226 -0.160106 0
M  V30 1798 H 173.939 -3.06945 -2.82561 0
M  V30 1799 H 172.569 -1.95801 -2.56636 0
M  V30 1800 H 171.621 -3.69939 -0.885947 0
M  V30 1801 H 172.933 -4.79504 -1.37394 0
M  V30 1802 H 172.087 -4.78522 -3.72963 0
M  V30 1803 H 170.826 -3.59803 -3.29231 0
M  V30 1804 H 169.831 -5.23751 -1.67228 0
M  V30 1805 H 171.056 -6.44613 -2.13659 0
M  V30 1806 H 169.002 -5.19817 -4.00158 0
M  V30 1807 H 168.919 -6.79066 -3.32273 0
M  V30 1808 H 170.187 -6.40227 -4.44668 0
M  V30 1809 N 174.416 0.165178 -1.56732 0
M  V30 1810 C 175.827 0.727046 -1.71962 0
M  V30 1811 C 176.178 1.82508 -0.720078 0
M  V30 1812 O 175.303 2.16082 0.117242 0
M  V30 1813 C 175.898 1.32559 -3.11791 0
M  V30 1814 C 174.457 1.83422 -3.28684 0
M  V30 1815 C 173.604 0.715567 -2.67908 0
M  V30 1816 H 176.555 -0.0602896 -1.58585 0
M  V30 1817 H 176.576 2.19533 -3.10782 0
M  V30 1818 H 176.088 0.526195 -3.84516 0
M  V30 1819 H 174.189 2.65986 -2.60926 0
M  V30 1820 H 174.302 1.97543 -4.36478 0
M  V30 1821 H 172.666 1.13758 -2.27884 0
M  V30 1822 H 173.449 -0.0720836 -3.43224 0
M  V30 1823 N 175.894 1.51508 0.433938 0
M  V30 1824 C 176.824 1.76016 1.53429 0
M  V30 1825 C 177.805 0.610112 1.58782 0
M  V30 1826 O 178.99 0.853177 1.74455 0
M  V30 1827 C 176.12 1.88831 2.9148 0
M  V30 1828 C 175.074 3.04288 3.00987 0
M  V30 1829 C 174.4 3.0229 4.4105 0
M  V30 1830 C 175.7 4.44193 2.74754 0
M  V30 1831 H 177.394 2.68152 1.33171 0
M  V30 1832 H 174.94 1.29035 0.639214 0
M  V30 1833 H 176.893 2.04559 3.6842 0
M  V30 1834 H 175.617 0.933455 3.12976 0
M  V30 1835 H 174.276 2.8827 2.26486 0
M  V30 1836 H 173.924 2.04576 4.59519 0
M  V30 1837 H 173.624 3.79822 4.4834 0
M  V30 1838 H 175.148 3.20116 5.1996 0
M  V30 1839 H 176.562 4.60544 3.41426 0
M  V30 1840 H 174.959 5.23457 2.9345 0
M  V30 1841 H 176.029 4.53996 1.70339 0
M  V30 1842 N 177.372 -0.689602 1.41712 0
M  V30 1843 C 178.621 -1.44534 1.40686 0
M  V30 1844 C 178.934 -1.95588 0.0213352 0
M  V30 1845 O 180.14 -2.71271 -0.111534 0
M  V30 1846 C 178.596 -2.61387 2.47396 0
M  V30 1847 C 178.204 -2.17094 3.91885 0
M  V30 1848 C 179.948 -3.38986 2.55517 0
M  V30 1849 C 177.855 -3.3094 4.90135 0
M  V30 1850 H 176.785 -0.542925 0.52321 0
M  V30 1851 H 179.436 -0.748054 1.6756 0
M  V30 1852 H 177.818 -3.33412 2.13664 0
M  V30 1853 H 178.992 -1.52318 4.34897 0
M  V30 1854 H 177.307 -1.52473 3.8748 0
M  V30 1855 H 179.904 -4.23747 3.26102 0
M  V30 1856 H 180.247 -3.84578 1.59391 0
M  V30 1857 H 180.78 -2.74021 2.8837 0
M  V30 1858 H 177.519 -2.90355 5.87685 0
M  V30 1859 H 177.039 -3.94546 4.51767 0
M  V30 1860 H 178.718 -3.9663 5.11169 0
M  V30 1861 N 178.85 -1.27639 -0.924453 0
M  V30 1862 C 180.099 -1.13549 -1.66702 0
M  V30 1863 C 180.412 0.317487 -1.93006 0
M  V30 1864 O 181.618 0.579333 -2.65247 0
M  V30 1865 C 180.074 -1.98426 -3.00259 0
M  V30 1866 C 179.682 -3.484 -2.81641 0
M  V30 1867 C 181.426 -1.92993 -3.78092 0
M  V30 1868 C 179.333 -4.25464 -4.10773 0
M  V30 1869 H 178.263 -0.421351 -0.625283 0
M  V30 1870 H 180.914 -1.52085 -1.02676 0
M  V30 1871 H 179.296 -1.52736 -3.6536 0
M  V30 1872 H 180.47 -4.01973 -2.25287 0
M  V30 1873 H 178.785 -3.55245 -2.17232 0
M  V30 1874 H 181.382 -2.47844 -4.7379 0
M  V30 1875 H 181.725 -0.904281 -4.0636 0
M  V30 1876 H 182.258 -2.36595 -3.19793 0
M  V30 1877 H 178.997 -5.28566 -3.87683 0
M  V30 1878 H 178.517 -3.76667 -4.66779 0
M  V30 1879 H 180.196 -4.34812 -4.79111 0
M  V30 1880 N 180.328 1.1314 -1.09713 0
M  V30 1881 C 181.574 1.84757 -0.836224 0
M  V30 1882 C 181.907 1.8347 0.636598 0
M  V30 1883 O 181.182 1.27491 1.46889 0
M  V30 1884 C 181.465 3.32782 -1.37578 0
M  V30 1885 C 181.318 3.42567 -2.91493 0
M  V30 1886 C 182.637 4.28307 -1.01198 0
M  V30 1887 H 179.756 0.67082 -0.305236 0
M  V30 1888 H 182.398 1.3278 -1.35903 0
M  V30 1889 H 180.548 3.77177 -0.931097 0
M  V30 1890 H 182.22 3.06862 -3.44432 0
M  V30 1891 H 180.463 2.83349 -3.28475 0
M  V30 1892 H 181.134 4.46674 -3.24324 0
M  V30 1893 H 183.61 3.91999 -1.39556 0
M  V30 1894 H 182.486 5.30307 -1.41653 0
M  V30 1895 H 182.747 4.42029 0.0794833 0
M  V30 1896 N 181.806 0.884767 1.30421 0
M  V30 1897 C 183.034 0.518044 2.0031 0
M  V30 1898 C 183.449 -0.893408 1.66324 0
M  V30 1899 O 182.806 -1.5875 0.900262 0
M  V30 1900 C 182.857 0.682997 3.54989 0
M  V30 1901 O 182.578 2.03888 3.87764 0
M  V30 1902 C 184.079 0.31924 4.42149 0
M  V30 1903 H 181.299 0.200265 0.640418 0
M  V30 1904 H 183.843 1.19001 1.6631 0
M  V30 1905 H 181.998 0.0584052 3.87356 0
M  V30 1906 H 182.412 2.05735 4.82466 0
M  V30 1907 H 183.886 0.485555 5.4986 0
M  V30 1908 H 184.363 -0.742717 4.32875 0
M  V30 1909 H 184.969 0.920147 4.15227 0
M  V30 1910 N 183.284 -1.43765 0.645699 0
M  V30 1911 C 184.695 -1.85193 0.236719 0
M  V30 1912 C 185.046 -1.54045 -1.21509 0
M  V30 1913 O 184.171 -0.985694 -1.92647 0
M  V30 1914 C 184.766 -3.36151 0.422845 0
M  V30 1915 C 183.325 -3.76338 0.0682492 0
M  V30 1916 C 182.472 -2.67538 0.729306 0
M  V30 1917 H 185.423 -1.34025 0.849883 0
M  V30 1918 H 185.444 -3.79032 -0.333904 0
M  V30 1919 H 184.956 -3.5879 1.47958 0
M  V30 1920 H 183.057 -3.59312 -0.986179 0
M  V30 1921 H 183.17 -4.76603 0.488469 0
M  V30 1922 H 181.534 -2.54176 0.163235 0
M  V30 1923 H 182.317 -2.93006 1.78892 0
M  V30 1924 N 184.763 -0.387143 -1.52771 0
M  V30 1925 C 185.711 0.463953 -2.27926 0
M  V30 1926 C 186.705 1.06493 -1.31741 0
M  V30 1927 O 187.911 1.00565 -1.49287 0
M  V30 1928 H 184.286 0.16837 -0.732909 0
M  V30 1929 H 186.257 -0.19141 -2.97785 0
M  V30 1930 C 185.006 1.5803 -3.09713 0
M  V30 1931 H 184.329 1.12718 -3.83581 0
M  V30 1932 H 185.769 2.15008 -3.65442 0
M  V30 1933 C 184.228 2.53509 -2.2189 0
M  V30 1934 O 184.758 3.56863 -1.84422 0
M  V30 1935 N 182.964 2.23199 -1.86093 0
M  V30 1936 H 182.511 1.39185 -2.16761 0
M  V30 1937 H 182.469 2.87333 -1.27621 0
M  V30 1938 N 186.241 1.57166 -0.116904 0
M  V30 1939 C 187.469 1.99473 0.549383 0
M  V30 1940 C 187.884 0.996541 1.60357 0
M  V30 1941 O 187.241 -0.0108731 1.82497 0
M  V30 1942 C 187.292 3.41788 1.17741 0
M  V30 1943 O 187.013 4.37788 0.165362 0
M  V30 1944 C 188.514 3.99216 1.92722 0
M  V30 1945 H 185.734 0.655009 0.145616 0
M  V30 1946 H 188.278 2.03494 -0.202625 0
M  V30 1947 H 186.433 3.38713 1.88021 0
M  V30 1948 H 186.847 5.20806 0.621403 0
M  V30 1949 H 188.321 5.00882 2.31995 0
M  V30 1950 H 188.798 3.3824 2.80161 0
M  V30 1951 H 189.404 4.0583 1.27209 0
M  V30 1952 N 187.719 -0.156864 1.56817 0
M  V30 1953 C 188.667 -1.21319 1.98455 0
M  V30 1954 C 189.661 -1.45025 0.875444 0
M  V30 1955 O 190.867 -1.45435 1.0606 0
M  V30 1956 H 187.242 -0.408142 0.631605 0
M  V30 1957 H 189.213 -0.835244 2.86472 0
M  V30 1958 C 187.962 -2.54148 2.37285 0
M  V30 1959 H 187.285 -2.36733 3.22176 0
M  V30 1960 H 188.725 -3.26712 2.70251 0
M  V30 1961 C 187.184 -3.13967 1.22173 0
M  V30 1962 O 187.714 -3.98357 0.517149 0
M  V30 1963 N 185.92 -2.7327 0.988536 0
M  V30 1964 H 185.467 -2.04744 1.56326 0
M  V30 1965 H 185.425 -3.13628 0.220209 0
M  V30 1966 N 189.197 -1.51736 -0.425897 0
M  V30 1967 C 190.16 -1.73271 -1.50032 0
M  V30 1968 C 191.16 -0.602639 -1.4908 0
M  V30 1969 O 192.35 -0.87033 -1.509 0
M  V30 1970 C 189.482 -1.79969 -2.89523 0
M  V30 1971 H 190.675 -2.69172 -1.32237 0
M  V30 1972 H 188.228 -1.41899 -0.65532 0
M  V30 1973 H 188.963 -0.859241 -3.1271 0
M  V30 1974 H 188.748 -2.62109 -2.91619 0
M  V30 1975 H 190.238 -1.9843 -3.67444 0
M  V30 1976 N 190.675 0.682077 -1.42076 0
M  V30 1977 C 191.638 1.77756 -1.44691 0
M  V30 1978 C 192.638 1.5726 -0.335535 0
M  V30 1979 O 193.828 1.63686 -0.596037 0
M  V30 1980 C 190.96 3.16301 -1.27146 0
M  V30 1981 H 192.153 1.76826 -2.42224 0
M  V30 1982 H 189.706 0.891012 -1.28416 0
M  V30 1983 H 190.441 3.22862 -0.305075 0
M  V30 1984 H 190.226 3.32581 -2.07683 0
M  V30 1985 H 191.716 3.96241 -1.31843 0
M  V30 1986 N 192.153 1.28127 0.917671 0
M  V30 1987 C 193.401 1.14825 1.66312 0
M  V30 1988 C 193.722 -0.304379 1.9261 0
M  V30 1989 O 192.992 -1.21149 1.53947 0
M  V30 1990 H 191.572 0.421953 0.616413 0
M  V30 1991 H 194.234 1.608 1.10134 0
M  V30 1992 H 193.33 1.68489 2.62712 0
M  V30 1993 N 193.631 -1.12557 1.10312 0
M  V30 1994 C 195.042 -1.65574 0.862678 0
M  V30 1995 C 195.393 -1.86566 -0.607256 0
M  V30 1996 O 194.518 -1.59121 -1.46662 0
M  V30 1997 C 195.113 -3.00776 1.55947 0
M  V30 1998 C 193.672 -3.50748 1.36576 0
M  V30 1999 C 192.819 -2.25797 1.60968 0
M  V30 2000 H 195.77 -0.963552 1.26101 0
M  V30 2001 H 195.791 -3.67185 0.997753 0
M  V30 2002 H 195.303 -2.85465 2.62928 0
M  V30 2003 H 193.404 -3.71245 0.317531 0
M  V30 2004 H 193.517 -4.30289 2.10686 0
M  V30 2005 H 191.881 -2.32841 1.03234 0
M  V30 2006 H 192.664 -2.13043 2.69198 0
M  V30 2007 N 195.109 -0.891671 -1.2995 0
M  V30 2008 C 196.357 -0.512486 -1.95494 0
M  V30 2009 C 196.678 0.942776 -1.70695 0
M  V30 2010 O 195.948 1.66374 -1.03424 0
M  V30 2011 H 194.528 -0.186533 -0.723336 0
M  V30 2012 H 197.19 -1.13621 -1.58355 0
M  V30 2013 H 196.286 -0.688342 -3.04415 0
M  V30 2014 N 196.587 1.43421 -0.653314 0
M  V30 2015 C 197.836 2.01032 -0.164076 0
M  V30 2016 C 198.149 1.52147 1.22926 0
M  V30 2017 O 199.355 2.02031 1.81371 0
M  V30 2018 C 197.811 3.59082 -0.24252 0
M  V30 2019 C 197.419 4.1696 -1.63855 0
M  V30 2020 C 199.163 4.24079 0.18911 0
M  V30 2021 C 197.07 5.67304 -1.67092 0
M  V30 2022 H 196 0.751798 -0.0575769 0
M  V30 2023 H 198.651 1.6439 -0.815362 0
M  V30 2024 H 197.033 3.93125 0.476276 0
M  V30 2025 H 198.207 3.94416 -2.38271 0
M  V30 2026 H 196.522 3.64335 -2.01616 0
M  V30 2027 H 199.119 5.34381 0.184775 0
M  V30 2028 H 199.462 3.98005 1.22056 0
M  V30 2029 H 199.995 3.94918 -0.477938 0
M  V30 2030 H 196.734 5.98145 -2.68146 0
M  V30 2031 H 196.254 5.91904 -0.970014 0
M  V30 2032 H 197.933 6.31344 -1.4147 0
M  V30 2033 N 198.065 0.39524 1.52563 0
M  V30 2034 C 199.028 -0.425001 2.25225 0
M  V30 2035 C 200.028 -0.985266 1.27079 0
M  V30 2036 O 201.218 -0.866332 1.5113 0
M  V30 2037 C 198.35 -1.59686 3.01186 0
M  V30 2038 H 199.543 0.211233 2.99155 0
M  V30 2039 H 197.096 0.147472 1.55603 0
M  V30 2040 H 197.831 -2.27035 2.31572 0
M  V30 2041 H 197.616 -1.20176 3.73229 0
M  V30 2042 H 199.106 -2.17743 3.5634 0
M  V30 2043 N 199.544 -1.57102 0.125237 0
M  V30 2044 C 200.821 -1.86953 -0.575142 0
M  V30 2045 C 201.201 -1.02749 -1.84407 0
M  V30 2046 O 200.549 -0.108144 -2.28244 0
M  V30 2047 C 200.759 -3.38198 -0.861583 0
M  V30 2048 C 202.107 -4.06937 -1.21192 0
M  V30 2049 O 203.131 -3.43252 -0.951645 0
M  V30 2050 O 201.99 -5.19364 -1.70068 0
M  V30 2051 H 199.084 -0.774147 -0.290906 0
M  V30 2052 H 201.63 -1.68942 0.160211 0
M  V30 2053 H 200.402 -3.91282 0.0373647 0
M  V30 2054 H 200.025 -3.61661 -1.65188 0
M  V30 2055 N 201.022 0.148545 -1.56898 0
M  V30 2056 C 202.27 0.859717 -1.82902 0
M  V30 2057 C 202.591 1.81775 -0.70588 0
M  V30 2058 O 201.861 1.93994 0.272586 0
M  V30 2059 H 200.441 0.320469 -0.674766 0
M  V30 2060 H 203.103 0.142918 -1.94375 0
M  V30 2061 H 202.199 1.4229 -2.77777 0
M  V30 2062 N 202.5 1.5196 0.417844 0
M  V30 2063 C 203.73 1.69181 1.18581 0
M  V30 2064 C 204.138 0.397104 1.84986 0
M  V30 2065 O 203.481 -0.636011 1.72339 0
M  V30 2066 C 203.543 2.76497 2.29759 0
M  V30 2067 C 203.207 4.18514 1.83563 0
M  V30 2068 C 204.204 5.02648 1.32821 0
M  V30 2069 C 201.889 4.64708 1.90661 0
M  V30 2070 C 203.883 6.31044 0.897894 0
M  V30 2071 C 201.57 5.93096 1.47241 0
M  V30 2072 C 202.568 6.76093 0.968891 0
M  V30 2073 O 202.256 8.02078 0.540924 0
M  V30 2074 H 201.988 0.570457 0.362705 0
M  V30 2075 H 204.542 1.99249 0.498885 0
M  V30 2076 H 202.772 2.41786 3.01789 0
M  V30 2077 H 204.461 2.82403 2.91553 0
M  V30 2078 H 205.227 4.68154 1.26716 0
M  V30 2079 H 201.106 4.00216 2.28797 0
M  V30 2080 H 204.65 6.95776 0.504192 0
M  V30 2081 H 200.547 6.271 1.53022 0
M  V30 2082 H 201.315 8.15794 0.66502 0
M  V30 2083 N 203.978 -0.674533 1.42435 0
M  V30 2084 C 204.888 -1.81751 1.48337 0
M  V30 2085 C 205.904 -1.69975 0.372099 0
M  V30 2086 O 207.08 -1.91521 0.62304 0
M  V30 2087 C 204.145 -3.17895 1.38361 0
M  V30 2088 C 203.206 -3.41625 2.59982 0
M  V30 2089 C 202.439 -4.71274 2.50473 0
M  V30 2090 O 202.662 -5.49197 1.54075 0
M  V30 2091 O 201.596 -4.96254 3.4061 0
M  V30 2092 H 205.422 -1.79728 2.44809 0
M  V30 2093 H 203.007 -0.830312 1.24202 0
M  V30 2094 H 204.889 -3.99136 1.35161 0
M  V30 2095 H 203.564 -3.20555 0.450144 0
M  V30 2096 H 202.471 -2.60231 2.68757 0
M  V30 2097 H 203.804 -3.43796 3.52229 0
M  V30 2098 N 205.456 -1.28612 -0.910864 0
M  V30 2099 C 206.404 -1.1265 -2.03501 0
M  V30 2100 C 207.398 -0.0450054 -1.6934 0
M  V30 2101 O 208.604 -0.203988 -1.7884 0
M  V30 2102 H 204.979 -0.347639 -0.666822 0
M  V30 2103 H 206.95 -2.07849 -2.14106 0
M  V30 2104 C 205.699 -0.808143 -3.38178 0
M  V30 2105 H 205.022 -1.63231 -3.6496 0
M  V30 2106 H 206.462 -0.736426 -4.17556 0
M  V30 2107 C 204.921 0.488226 -3.33344 0
M  V30 2108 O 205.451 1.51766 -3.71927 0
M  V30 2109 N 203.657 0.490009 -2.86439 0
M  V30 2110 H 203.204 -0.348161 -2.55236 0
M  V30 2111 H 203.162 1.35741 -2.83587 0
M  V30 2112 N 206.934 1.1197 -1.10907 0
M  V30 2113 C 208.181 1.83588 -0.854507 0
M  V30 2114 C 208.509 1.84357 0.6199 0
M  V30 2115 O 207.764 1.28809 1.47332 0
M  V30 2116 C 208.063 3.30749 -1.35425 0
M  V30 2117 C 207.729 3.50146 -2.84093 0
M  V30 2118 C 206.391 3.55148 -3.2469 0
M  V30 2119 C 208.743 3.56857 -3.79872 0
M  V30 2120 C 206.071 3.6441 -4.59806 0
M  V30 2121 C 208.423 3.6765 -5.14797 0
M  V30 2122 C 207.087 3.7091 -5.54961 0
M  V30 2123 H 206.357 0.671795 -0.312686 0
M  V30 2124 H 209.004 1.32091 -1.38652 0
M  V30 2125 H 207.309 3.84703 -0.742361 0
M  V30 2126 H 209.006 3.8464 -1.1337 0
M  V30 2127 H 205.596 3.46919 -2.51685 0
M  V30 2128 H 209.78 3.52258 -3.49611 0
M  V30 2129 H 205.036 3.65208 -4.9034 0
M  V30 2130 H 209.21 3.71786 -5.88853 0
M  V30 2131 H 206.837 3.7784 -6.59652 0
M  V30 2132 N 208.412 0.89855 1.29475 0
M  V30 2133 C 209.64 0.539261 1.99749 0
M  V30 2134 C 210.055 -0.875716 1.67262 0
M  V30 2135 O 209.412 -1.57786 0.917049 0
M  V30 2136 C 209.463 0.72061 3.54245 0
M  V30 2137 O 209.184 2.07989 3.8558 0
M  V30 2138 C 210.685 0.366118 4.41786 0
M  V30 2139 H 207.905 0.207047 0.638258 0
M  V30 2140 H 210.449 1.20758 1.65039 0
M  V30 2141 H 208.604 0.0994862 3.87272 0
M  V30 2142 H 209.018 2.10841 4.80257 0
M  V30 2143 H 210.492 0.543848 5.49314 0
M  V30 2144 H 210.969 -0.696763 4.33638 0
M  V30 2145 H 211.575 0.964135 4.14228 0
M  V30 2146 N 209.89 -1.43072 0.660911 0
M  V30 2147 C 210.837 -2.30785 -0.0259884 0
M  V30 2148 C 211.807 -1.45184 -0.806888 0
M  V30 2149 O 212.992 -1.74041 -0.781943 0
M  V30 2150 C 210.132 -3.30861 -0.981067 0
M  V30 2151 C 209.245 -4.31558 -0.195458 0
M  V30 2152 C 208.38 -5.18712 -1.14503 0
M  V30 2153 C 207.419 -6.11097 -0.350299 0
M  V30 2154 N 206.556 -6.90849 -1.25186 0
M  V30 2155 H 211.396 -2.88975 0.727846 0
M  V30 2156 H 208.933 -1.42353 0.370682 0
M  V30 2157 H 210.891 -3.87399 -1.54849 0
M  V30 2158 H 209.521 -2.74304 -1.70169 0
M  V30 2159 H 208.573 -3.77252 0.488374 0
M  V30 2160 H 209.885 -4.9701 0.422176 0
M  V30 2161 H 209.039 -5.79914 -1.78284 0
M  V30 2162 H 207.778 -4.53404 -1.79656 0
M  V30 2163 H 206.783 -5.48976 0.300808 0
M  V30 2164 H 208.008 -6.7845 0.296941 0
M  V30 2165 H 205.954 -6.28182 -1.89005 0
M  V30 2166 H 205.871 -7.52854 -0.688971 0
M  V30 2167 H 207.139 -7.5655 -1.87757 0
M  V30 2168 N 211.368 -0.403325 -1.52352 0
M  V30 2169 C 212.645 0.232611 -1.94212 0
M  V30 2170 C 213.025 1.63133 -1.33981 0
M  V30 2171 O 212.373 2.22659 -0.513344 0
M  V30 2172 C 212.583 0.244811 -3.4814 0
M  V30 2173 C 213.931 0.46698 -4.22024 0
M  V30 2174 O 214.955 0.324419 -3.5472 0
M  V30 2175 O 213.814 0.74747 -5.41364 0
M  V30 2176 H 210.908 0.148223 -0.813609 0
M  V30 2177 H 213.454 -0.458848 -1.63379 0
M  V30 2178 H 212.226 -0.734378 -3.84347 0
M  V30 2179 H 211.849 0.980611 -3.85318 0
M  V30 2180 N 212.846 1.57033 -0.133567 0
M  V30 2181 C 213.776 2.1909 0.807567 0
M  V30 2182 C 214.757 1.13517 1.26681 0
M  V30 2183 O 215.942 1.41809 1.32679 0
M  V30 2184 C 213.072 2.80188 2.05212 0
M  V30 2185 C 212.026 3.91471 1.73015 0
M  V30 2186 C 211.352 4.39443 3.04622 0
M  V30 2187 C 212.652 5.12886 0.987168 0
M  V30 2188 H 214.346 2.97988 0.290403 0
M  V30 2189 H 211.892 1.43335 0.138239 0
M  V30 2190 H 213.845 3.22264 2.71521 0
M  V30 2191 H 212.569 1.98601 2.59278 0
M  V30 2192 H 211.228 3.49993 1.0909 0
M  V30 2193 H 210.876 3.54695 3.56651 0
M  V30 2194 H 210.576 5.14495 2.83847 0
M  V30 2195 H 212.1 4.8418 3.72024 0
M  V30 2196 H 213.514 5.51891 1.55208 0
M  V30 2197 H 211.911 5.93615 0.87985 0
M  V30 2198 H 212.981 4.84894 -0.0235286 0
M  V30 2199 N 214.325 -0.140222 1.56975 0
M  V30 2200 C 215.255 -1.17456 2.01808 0
M  V30 2201 C 216.236 -1.44415 0.898794 0
M  V30 2202 O 217.421 -1.5522 1.16707 0
M  V30 2203 C 214.551 -2.50607 2.40444 0
M  V30 2204 C 213.505 -2.38155 3.55621 0
M  V30 2205 C 212.831 -3.76078 3.80091 0
M  V30 2206 C 214.131 -1.85991 4.88062 0
M  V30 2207 H 215.825 -0.801743 2.88466 0
M  V30 2208 H 213.371 -0.38422 1.38779 0
M  V30 2209 H 215.324 -3.23197 2.7041 0
M  V30 2210 H 214.048 -2.89737 1.50732 0
M  V30 2211 H 212.707 -1.68016 3.25832 0
M  V30 2212 H 212.355 -4.12656 2.87618 0
M  V30 2213 H 212.055 -3.68606 4.57606 0
M  V30 2214 H 213.579 -4.50206 4.12488 0
M  V30 2215 H 214.993 -2.4838 5.16701 0
M  V30 2216 H 213.39 -1.89393 5.6943 0
M  V30 2217 H 214.46 -0.816023 4.77984 0
M  V30 2218 N 215.803 -1.52179 -0.40978 0
M  V30 2219 C 216.751 -1.76086 -1.51975 0
M  V30 2220 C 217.745 -0.627964 -1.57331 0
M  V30 2221 O 218.951 -0.809993 -1.60745 0
M  V30 2222 H 215.326 -0.556829 -0.505416 0
M  V30 2223 H 217.297 -2.69077 -1.28996 0
M  V30 2224 C 216.046 -1.92799 -2.8935 0
M  V30 2225 H 215.369 -2.79392 -2.85972 0
M  V30 2226 H 216.809 -2.13527 -3.66309 0
M  V30 2227 C 215.268 -0.694923 -3.29655 0
M  V30 2228 O 215.798 0.13751 -4.01465 0
M  V30 2229 N 214.004 -0.53101 -2.85707 0
M  V30 2230 H 213.551 -1.20952 -2.27439 0
M  V30 2231 H 213.509 0.292718 -3.13034 0
M  V30 2232 N 217.281 0.66697 -1.42791 0
M  V30 2233 C 218.506 1.46004 -1.47301 0
M  V30 2234 C 218.931 1.87894 -0.0880317 0
M  V30 2235 O 218.289 1.56502 0.915253 0
M  V30 2236 C 218.337 2.68031 -2.41229 0
M  V30 2237 O 217.441 3.6659 -1.88906 0
M  V30 2238 H 216.782 0.43832 -0.49877 0
M  V30 2239 H 219.312 0.817391 -1.87563 0
M  V30 2240 H 219.322 3.1601 -2.58073 0
M  V30 2241 H 217.997 2.36883 -3.41847 0
M  V30 2242 H 216.574 3.25661 -1.81656 0
M  V30 2243 N 218.759 1.29093 0.90403 0
M  V30 2244 C 219.689 1.16401 2.02418 0
M  V30 2245 C 220.67 0.0593085 1.69997 0
M  V30 2246 O 221.855 0.238021 1.92736 0
M  V30 2247 C 218.985 0.835233 3.37107 0
M  V30 2248 C 217.939 1.89578 3.83724 0
M  V30 2249 C 217.265 1.42041 5.15489 0
M  V30 2250 C 218.565 3.30394 4.04521 0
M  V30 2251 H 220.259 2.10109 2.13295 0
M  V30 2252 H 217.805 1.01157 1.02486 0
M  V30 2253 H 219.758 0.733169 4.14973 0
M  V30 2254 H 218.482 -0.137543 3.2631 0
M  V30 2255 H 217.141 1.98715 3.08071 0
M  V30 2256 H 216.789 0.436426 5.01103 0
M  V30 2257 H 216.489 2.12964 5.4765 0
M  V30 2258 H 218.013 1.33176 5.959 0
M  V30 2259 H 219.427 3.24123 4.72882 0
M  V30 2260 H 217.824 3.99237 4.48029 0
M  V30 2261 H 218.894 3.73692 3.09002 0
M  V30 2262 N 220.237 -1.11381 1.11499 0
M  V30 2263 C 221.486 -1.82494 0.858993 0
M  V30 2264 C 221.799 -1.85605 -0.617278 0
M  V30 2265 O 223.005 -2.52824 -0.989552 0
M  V30 2266 C 221.461 -3.27745 1.48699 0
M  V30 2267 C 221.069 -3.32961 2.99735 0
M  V30 2268 C 222.813 -4.03754 1.31085 0
M  V30 2269 C 220.72 -4.72612 3.55516 0
M  V30 2270 H 219.65 -0.683802 0.317696 0
M  V30 2271 H 222.301 -1.25331 1.34031 0
M  V30 2272 H 220.683 -3.84844 0.933339 0
M  V30 2273 H 221.857 -2.85741 3.61509 0
M  V30 2274 H 220.172 -2.70433 3.16631 0
M  V30 2275 H 222.769 -5.06891 1.70192 0
M  V30 2276 H 223.112 -4.15527 0.253496 0
M  V30 2277 H 223.645 -3.53043 1.83318 0
M  V30 2278 H 220.384 -4.66036 4.60967 0
M  V30 2279 H 219.904 -5.2024 2.98513 0
M  V30 2280 H 221.583 -5.4157 3.53992 0
M  V30 2281 N 221.715 -0.905404 -1.28997 0
M  V30 2282 C 223.126 -0.581953 -1.77398 0
M  V30 2283 C 223.477 0.902552 -1.74208 0
M  V30 2284 O 222.602 1.70584 -1.33154 0
M  V30 2285 C 223.197 -1.04961 -3.22131 0
M  V30 2286 C 221.756 -0.777229 -3.68288 0
M  V30 2287 C 220.903 -1.22109 -2.48967 0
M  V30 2288 H 223.854 -1.08754 -1.15578 0
M  V30 2289 H 223.875 -0.387387 -3.78523 0
M  V30 2290 H 223.387 -2.13008 -3.24421 0
M  V30 2291 H 221.488 0.290383 -3.71467 0
M  V30 2292 H 221.601 -1.37911 -4.58822 0
M  V30 2293 H 219.965 -0.639971 -2.46529 0
M  V30 2294 H 220.748 -2.30972 -2.53982 0
M  V30 2295 N 223.193 1.4272 -0.668489 0
M  V30 2296 C 224.423 2.05668 -0.196063 0
M  V30 2297 C 224.831 1.5028 1.14946 0
M  V30 2298 O 224.174 0.6348 1.72383 0
M  V30 2299 C 224.236 3.59469 -0.0468879 0
M  V30 2300 C 223.9 4.37518 -1.32012 0
M  V30 2301 C 224.897 4.68584 -2.25222 0
M  V30 2302 C 222.582 4.77266 -1.56596 0
M  V30 2303 C 224.576 5.38326 -3.41297 0
M  V30 2304 C 222.263 5.4675 -2.72962 0
M  V30 2305 C 223.261 5.77204 -3.65137 0
M  V30 2306 O 222.949 6.45264 -4.79468 0
M  V30 2307 H 222.681 0.669382 -0.0943599 0
M  V30 2308 H 225.235 1.83954 -0.913788 0
M  V30 2309 H 223.465 3.79817 0.726357 0
M  V30 2310 H 225.154 4.04071 0.384852 0
M  V30 2311 H 225.92 4.38382 -2.07477 0
M  V30 2312 H 221.799 4.52959 -0.857249 0
M  V30 2313 H 225.343 5.62014 -4.13263 0
M  V30 2314 H 221.24 5.76369 -2.90635 0
M  V30 2315 H 222.008 6.63753 -4.78931 0
M  V30 2316 N 224.671 0.411399 1.52136 0
M  V30 2317 C 225.92 -0.165009 2.01024 0
M  V30 2318 C 226.233 -1.4603 1.30133 0
M  V30 2319 O 227.439 -2.1181 1.69849 0
M  V30 2320 C 225.895 -0.344618 3.58246 0
M  V30 2321 C 225.503 0.938716 4.38055 0
M  V30 2322 C 227.247 -0.876195 4.15359 0
M  V30 2323 C 225.154 0.726172 5.86925 0
M  V30 2324 H 224.084 -0.0654407 0.751155 0
M  V30 2325 H 226.735 0.537192 1.75461 0
M  V30 2326 H 225.117 -1.10921 3.80148 0
M  V30 2327 H 226.291 1.70963 4.27912 0
M  V30 2328 H 224.606 1.39688 3.92271 0
M  V30 2329 H 227.203 -1.05128 5.24263 0
M  V30 2330 H 227.546 -1.85152 3.7286 0
M  V30 2331 H 228.079 -0.170607 3.97434 0
M  V30 2332 H 224.818 1.67312 6.33788 0
M  V30 2333 H 224.338 -0.00540283 5.998 0
M  V30 2334 H 226.017 0.369231 6.45946 0
M  V30 2335 N 226.149 -1.5696 0.141893 0
M  V30 2336 C 227.059 -2.20066 -0.812905 0
M  V30 2337 C 228.075 -1.18344 -1.27557 0
M  V30 2338 O 229.251 -1.50902 -1.33381 0
M  V30 2339 C 226.316 -2.80583 -2.03652 0
M  V30 2340 C 225.377 -3.97414 -1.62359 0
M  V30 2341 C 224.61 -4.55036 -2.78887 0
M  V30 2342 O 224.833 -4.11538 -3.94959 0
M  V30 2343 O 223.767 -5.45376 -2.54653 0
M  V30 2344 H 227.593 -3.02157 -0.305746 0
M  V30 2345 H 225.178 -1.49159 -0.0848799 0
M  V30 2346 H 227.06 -3.19067 -2.75272 0
M  V30 2347 H 225.735 -2.01508 -2.5333 0
M  V30 2348 H 224.642 -3.63656 -0.877775 0
M  V30 2349 H 225.975 -4.77994 -1.17401 0
M  V30 2350 N 227.627 0.131896 -1.57047 0
M  V30 2351 C 228.852 0.860418 -1.8871 0
M  V30 2352 C 229.277 1.73251 -0.73251 0
M  V30 2353 O 228.635 1.785 0.317429 0
M  V30 2354 C 228.683 1.68047 -3.19049 0
M  V30 2355 O 227.787 2.7862 -3.04047 0
M  V30 2356 H 227.128 0.238743 -0.619595 0
M  V30 2357 H 229.658 0.118169 -2.04258 0
M  V30 2358 H 229.668 2.07238 -3.51449 0
M  V30 2359 H 228.343 1.04018 -4.02682 0
M  V30 2360 H 226.92 2.42726 -2.83088 0
M  V30 2361 N 229.106 1.52395 0.401703 0
M  V30 2362 C 230.054 1.7689 1.51039 0
M  V30 2363 C 231.048 0.636298 1.56996 0
M  V30 2364 O 232.254 0.818507 1.60314 0
M  V30 2365 H 228.629 0.559502 0.502456 0
M  V30 2366 H 230.6 2.69757 1.27568 0
M  V30 2367 C 229.349 1.94331 2.88324 0
M  V30 2368 H 228.672 2.80905 2.84486 0
M  V30 2369 H 230.112 2.15466 3.65172 0
M  V30 2370 C 228.571 0.712396 3.29282 0
M  V30 2371 O 229.101 -0.116218 4.01532 0
M  V30 2372 N 227.307 0.546154 2.85422 0
M  V30 2373 H 226.854 1.22156 2.26794 0
M  V30 2374 H 226.812 -0.276113 3.13185 0
M  V30 2375 N 230.584 -0.659388 1.43143 0
M  V30 2376 C 231.814 -1.44513 1.47646 0
M  V30 2377 C 232.222 -1.88981 0.0910095 0
M  V30 2378 O 231.565 -1.59702 -0.907789 0
M  V30 2379 C 231.627 -2.71663 2.35456 0
M  V30 2380 C 231.291 -2.49175 3.83094 0
M  V30 2381 C 232.288 -2.1279 4.74359 0
M  V30 2382 C 229.973 -2.63691 4.27519 0
M  V30 2383 C 231.967 -1.9121 6.08044 0
M  V30 2384 C 229.654 -2.41726 5.61259 0
M  V30 2385 C 230.652 -2.0554 6.51339 0
M  V30 2386 O 230.34 -1.838 7.82606 0
M  V30 2387 H 230.072 -0.45064 0.503884 0
M  V30 2388 H 232.626 -0.816248 1.88485 0
M  V30 2389 H 230.856 -3.37089 1.89493 0
M  V30 2390 H 232.545 -3.33595 2.31235 0
M  V30 2391 H 233.311 -2.01157 4.41317 0
M  V30 2392 H 229.19 -2.90832 3.57684 0
M  V30 2393 H 232.734 -1.62889 6.78316 0
M  V30 2394 H 228.631 -2.52959 5.9387 0
M  V30 2395 H 229.399 -1.98275 7.94122 0
M  V30 2396 N 232.062 -1.29571 -0.897171 0
M  V30 2397 C 233.287 -1.20705 -1.68656 0
M  V30 2398 C 233.712 0.228582 -1.86706 0
M  V30 2399 O 233.07 1.16494 -1.3892 0
M  V30 2400 C 233.118 -1.9282 -3.04717 0
M  V30 2401 O 232.222 -1.24697 -3.93096 0
M  V30 2402 H 231.563 -0.418126 -0.515816 0
M  V30 2403 H 234.093 -1.71183 -1.12061 0
M  V30 2404 H 234.103 -2.01372 -3.54843 0
M  V30 2405 H 232.778 -2.97239 -2.90899 0
M  V30 2406 H 231.355 -1.2442 -3.51531 0
M  V30 2407 N 233.54 1.10788 -1.12088 0
M  V30 2408 C 234.786 1.82942 -0.875226 0
M  V30 2409 C 235.119 1.84779 0.597538 0
M  V30 2410 O 234.394 1.30578 1.44152 0
M  V30 2411 C 234.677 3.29789 -1.44606 0
M  V30 2412 C 234.53 3.36307 -2.98693 0
M  V30 2413 C 235.849 4.26064 -1.10261 0
M  V30 2414 H 232.968 0.664195 -0.319397 0
M  V30 2415 H 235.61 1.29867 -1.38689 0
M  V30 2416 H 233.76 3.75118 -1.01089 0
M  V30 2417 H 235.432 2.99487 -3.50864 0
M  V30 2418 H 233.675 2.76318 -3.34411 0
M  V30 2419 H 234.346 4.39694 -3.33726 0
M  V30 2420 H 236.822 3.88951 -1.4784 0
M  V30 2421 H 235.698 5.27183 -1.52869 0
M  V30 2422 H 235.959 4.42098 -0.0142953 0
M  V30 2423 N 235.018 0.912232 1.28515 0
M  V30 2424 C 236.248 0.559604 1.98877 0
M  V30 2425 C 236.656 -0.863113 1.68366 0
M  V30 2426 O 235.999 -1.58304 0.931969 0
M  V30 2427 C 236.061 0.68703 3.52874 0
M  V30 2428 C 235.725 2.07901 4.06972 0
M  V30 2429 C 236.722 3.05157 4.20922 0
M  V30 2430 C 234.407 2.39178 4.417 0
M  V30 2431 C 236.401 4.31806 4.68852 0
M  V30 2432 C 234.088 3.66068 4.89324 0
M  V30 2433 C 235.086 4.62195 5.02856 0
M  V30 2434 O 234.774 5.86829 5.49442 0
M  V30 2435 H 234.506 0.212191 0.641834 0
M  V30 2436 H 237.06 1.22712 1.64715 0
M  V30 2437 H 235.29 -0.0375486 3.86682 0
M  V30 2438 H 236.979 0.341727 4.04459 0
M  V30 2439 H 237.745 2.82311 3.94367 0
M  V30 2440 H 233.624 1.65109 4.30418 0
M  V30 2441 H 237.168 5.06842 4.79329 0
M  V30 2442 H 233.065 3.88739 5.15318 0
M  V30 2443 H 233.833 5.89597 5.6773 0
M  V30 2444 N 236.496 -1.42363 0.676048 0
M  V30 2445 C 237.724 -2.05859 0.207268 0
M  V30 2446 C 238.139 -1.50796 -1.13605 0
M  V30 2447 O 237.496 -0.648265 -1.70598 0
M  V30 2448 C 237.547 -3.61248 0.134975 0
M  V30 2449 O 237.268 -4.1427 1.42521 0
M  V30 2450 C 238.769 -4.41859 -0.357151 0
M  V30 2451 H 235.989 -0.663431 0.100503 0
M  V30 2452 H 238.533 -1.82479 0.923136 0
M  V30 2453 H 236.688 -3.83735 -0.531588 0
M  V30 2454 H 237.102 -5.0815 1.29939 0
M  V30 2455 H 238.576 -5.50847 -0.356641 0
M  V30 2456 H 239.053 -4.16536 -1.39264 0
M  V30 2457 H 239.659 -4.24392 0.27772 0
M  V30 2458 N 237.974 -0.419461 -1.51915 0
M  V30 2459 C 239.251 0.211999 -1.94448 0
M  V30 2460 C 239.631 1.61703 -1.35703 0
M  V30 2461 O 238.979 2.22102 -0.536931 0
M  V30 2462 C 239.189 0.207872 -3.4838 0
M  V30 2463 C 240.537 0.422192 -4.22496 0
M  V30 2464 O 241.561 0.286778 -3.55044 0
M  V30 2465 O 240.42 0.690009 -5.42126 0
M  V30 2466 H 237.514 0.139586 -0.815135 0
M  V30 2467 H 240.06 -0.476151 -1.62883 0
M  V30 2468 H 238.832 -0.775102 -3.83546 0
M  V30 2469 H 238.455 0.939688 -3.86336 0
M  V30 2470 N 239.452 1.56882 -0.150215 0
M  V30 2471 C 240.868 1.58263 0.20617 0
M  V30 2472 C 241.068 1.16464 1.64434 0
M  V30 2473 O 240.124 0.866422 2.3717 0
M  V30 2474 C 241.437 3.00649 -0.0555025 0
M  V30 2475 C 242.985 3.12999 0.00795388 0
M  V30 2476 C 243.46 4.5744 -0.226429 0
M  V30 2477 N 244.951 4.62875 -0.173469 0
M  V30 2478 C 245.686 5.72454 -0.329288 0
M  V30 2479 N 245.182 6.90669 -0.543005 0
M  V30 2480 N 246.975 5.61467 -0.266666 0
M  V30 2481 H 239.126 1.82345 -1.08922 0
M  V30 2482 H 241.389 0.844149 -0.431413 0
M  V30 2483 H 241.095 3.3563 -1.05096 0
M  V30 2484 H 240.969 3.71337 0.66246 0
M  V30 2485 H 243.356 2.77857 0.993966 0
M  V30 2486 H 243.437 2.4479 -0.742388 0
M  V30 2487 H 243.081 4.93287 -1.20956 0
M  V30 2488 H 243.011 5.2378 0.544274 0
M  V30 2489 H 245.502 3.77898 -0.0130709 0
M  V30 2490 H 245.815 7.70045 -0.651922 0
M  V30 2491 H 244.16 6.92581 -0.579366 0
M  V30 2492 H 247.351 4.67992 -0.100441 0
M  V30 2493 H 247.524 6.46816 -0.391535 0
M  V30 2494 N 240.93 -0.123565 1.57115 0
M  V30 2495 C 241.84 -1.17074 2.033 0
M  V30 2496 C 242.856 -1.4561 0.952559 0
M  V30 2497 O 244.032 -1.56817 1.26374 0
M  V30 2498 C 241.097 -2.47857 2.42421 0
M  V30 2499 C 240.158 -2.26758 3.64526 0
M  V30 2500 C 239.391 -3.51305 4.01771 0
M  V30 2501 O 239.614 -4.5843 3.39409 0
M  V30 2502 O 238.548 -3.42578 4.94898 0
M  V30 2503 H 242.374 -0.808555 2.92739 0
M  V30 2504 H 239.959 -0.334027 1.45618 0
M  V30 2505 H 241.841 -3.2492 2.68338 0
M  V30 2506 H 240.516 -2.83558 1.5613 0
M  V30 2507 H 239.423 -1.47569 3.43765 0
M  V30 2508 H 240.756 -1.95963 4.51508 0
M  V30 2509 N 242.408 -1.52605 -0.393616 0
M  V30 2510 C 243.358 -1.73436 -1.48 0
M  V30 2511 C 244.342 -0.588386 -1.49756 0
M  V30 2512 O 245.534 -0.846047 -1.5547 0
M  V30 2513 C 242.663 -1.90247 -2.85764 0
M  V30 2514 C 241.749 -3.10763 -2.88595 0
M  V30 2515 N 242.14 -4.33196 -2.61103 0
M  V30 2516 C 240.438 -3.10914 -3.19763 0
M  V30 2517 C 241.139 -5.1477 -2.70899 0
M  V30 2518 N 240.115 -4.50356 -3.04435 0
M  V30 2519 H 243.917 -2.65727 -1.25563 0
M  V30 2520 H 241.431 -1.5085 -0.601513 0
M  V30 2521 H 243.428 -2.03291 -3.63976 0
M  V30 2522 H 242.088 -0.991663 -3.09186 0
M  V30 2523 H 243.099 -4.61408 -2.35209 0
M  V30 2524 H 239.776 -2.29626 -3.4868 0
M  V30 2525 H 241.166 -6.22355 -2.53227 0
M  V30 2526 N 243.887 0.651787 -1.4349 0
M  V30 2527 C 245.303 0.96762 -1.26922 0
M  V30 2528 C 245.503 2.00602 -0.189982 0
M  V30 2529 O 244.559 2.48793 0.431107 0
M  V30 2530 C 245.872 1.45052 -2.63401 0
M  V30 2531 C 247.42 1.5671 -2.70945 0
M  V30 2532 C 247.895 2.0839 -4.07845 0
M  V30 2533 N 249.386 2.1569 -4.09917 0
M  V30 2534 C 250.121 2.56804 -5.12679 0
M  V30 2535 N 249.617 2.97203 -6.25813 0
M  V30 2536 N 251.41 2.56756 -5.00033 0
M  V30 2537 H 243.561 -0.0353158 -2.12371 0
M  V30 2538 H 245.824 0.0467858 -0.946845 0
M  V30 2539 H 245.53 0.761926 -3.43348 0
M  V30 2540 H 245.404 2.42529 -2.88894 0
M  V30 2541 H 247.791 2.2467 -1.9133 0
M  V30 2542 H 247.872 0.57662 -2.49216 0
M  V30 2543 H 247.516 1.41031 -4.87927 0
M  V30 2544 H 247.446 3.08271 -4.26938 0
M  V30 2545 H 249.937 1.87237 -3.28254 0
M  V30 2546 H 250.25 3.27328 -7.00055 0
M  V30 2547 H 248.595 2.95004 -6.29283 0
M  V30 2548 H 251.786 2.24572 -4.10713 0
M  V30 2549 H 251.959 2.88475 -5.80247 0
M  V30 2550 N 245.365 1.30045 0.890287 0
M  V30 2551 C 246.328 1.15963 1.977 0
M  V30 2552 C 247.328 0.0923777 1.60534 0
M  V30 2553 O 248.518 0.340071 1.70848 0
M  V30 2554 C 245.65 0.775451 3.31963 0
M  V30 2555 H 246.843 2.12502 2.11619 0
M  V30 2556 H 244.396 1.13366 1.07601 0
M  V30 2557 H 245.131 -0.189671 3.23745 0
M  V30 2558 H 244.916 1.54668 3.60306 0
M  V30 2559 H 246.406 0.700251 4.11687 0
M  V30 2560 N 246.843 -1.10192 1.12674 0
M  V30 2561 C 248.092 -1.81573 0.8783 0
M  V30 2562 C 248.405 -1.86249 -0.597557 0
M  V30 2563 O 249.611 -2.5386 -0.962681 0
M  V30 2564 C 248.067 -3.26149 1.52167 0
M  V30 2565 C 247.675 -3.29763 3.03249 0
M  V30 2566 C 249.419 -4.0234 1.3536 0
M  V30 2567 C 247.326 -4.68815 3.60508 0
M  V30 2568 H 246.256 -0.680394 0.324931 0
M  V30 2569 H 248.907 -1.23902 1.35353 0
M  V30 2570 H 247.289 -3.83832 0.974104 0
M  V30 2571 H 248.463 -2.8189 3.6452 0
M  V30 2572 H 246.778 -2.67059 3.19481 0
M  V30 2573 H 249.375 -5.05058 1.75559 0
M  V30 2574 H 249.718 -4.15235 0.297554 0
M  V30 2575 H 250.251 -3.51079 1.87052 0
M  V30 2576 H 246.99 -4.61121 4.65884 0
M  V30 2577 H 246.51 -5.17045 3.04014 0
M  V30 2578 H 248.189 -5.37785 3.59717 0
M  V30 2579 N 248.321 -0.919034 -1.28029 0
M  V30 2580 C 249.284 -0.416182 -2.2539 0
M  V30 2581 C 250.284 0.460438 -1.54067 0
M  V30 2582 O 251.474 0.262744 -1.72207 0
M  V30 2583 C 248.606 0.402707 -3.38513 0
M  V30 2584 H 249.799 -1.27629 -2.71387 0
M  V30 2585 H 247.352 -0.698919 -1.39803 0
M  V30 2586 H 248.087 1.282 -2.97885 0
M  V30 2587 H 247.872 -0.225698 -3.9145 0
M  V30 2588 H 249.362 0.745191 -4.10897 0
M  V30 2589 N 249.799 1.42003 -0.683588 0
M  V30 2590 C 251.047 2.01015 -0.209101 0
M  V30 2591 C 251.368 1.54365 1.19149 0
M  V30 2592 O 250.638 0.769083 1.80172 0
M  V30 2593 H 249.218 0.743294 -0.074315 0
M  V30 2594 H 251.88 1.73798 -0.882066 0
M  V30 2595 H 250.976 3.11343 -0.2172 0
M  V30 2596 N 251.277 0.427512 1.51691 0
M  V30 2597 C 252.207 -0.3796 2.30394 0
M  V30 2598 C 253.188 -1.02982 1.35384 0
M  V30 2599 O 254.373 -1.03534 1.643 0
M  V30 2600 C 251.503 -1.48649 3.1388 0
M  V30 2601 C 250.457 -0.960294 4.17088 0
M  V30 2602 C 249.783 -2.16219 4.89033 0
M  V30 2603 C 251.083 -0.00153679 5.223 0
M  V30 2604 H 252.777 0.277164 2.98114 0
M  V30 2605 H 250.323 0.134739 1.43368 0
M  V30 2606 H 252.276 -2.05826 3.67714 0
M  V30 2607 H 251 -2.1714 2.43962 0
M  V30 2608 H 249.659 -0.410806 3.64291 0
M  V30 2609 H 249.307 -2.83307 4.15628 0
M  V30 2610 H 249.007 -1.81654 5.58816 0
M  V30 2611 H 250.531 -2.73968 5.45687 0
M  V30 2612 H 251.945 -0.482687 5.71264 0
M  V30 2613 H 250.342 0.256199 5.99553 0
M  V30 2614 H 251.412 0.938174 4.75738 0
M  V30 2615 N 252.755 -1.56801 0.158532 0
M  V30 2616 C 253.98 -2.01295 -0.499516 0
M  V30 2617 C 254.405 -1.03799 -1.56867 0
M  V30 2618 O 253.763 -0.0155162 -1.81293 0
M  V30 2619 C 253.811 -3.44469 -1.06647 0
M  V30 2620 O 252.915 -3.50012 -2.18095 0
M  V30 2621 H 252.256 -0.652884 -0.12099 0
M  V30 2622 H 254.786 -2.02958 0.258661 0
M  V30 2623 H 254.796 -3.8351 -1.39227 0
M  V30 2624 H 253.471 -4.14932 -0.283581 0
M  V30 2625 H 252.048 -3.22822 -1.86656 0
M  V30 2626 N 254.233 0.115231 -1.57178 0
M  V30 2627 C 255.166 1.17166 -1.95825 0
M  V30 2628 C 256.144 1.39912 -0.828463 0
M  V30 2629 O 257.328 1.54004 -1.08697 0
M  V30 2630 C 254.455 2.52478 -2.25771 0
M  V30 2631 C 253.501 2.46136 -3.48309 0
M  V30 2632 S 254.334 1.89736 -5.0076 0
M  V30 2633 C 255.49 3.26713 -5.33863 0
M  V30 2634 H 255.723 0.842103 -2.85124 0
M  V30 2635 H 253.256 0.322136 -1.51002 0
M  V30 2636 H 255.214 3.30332 -2.43702 0
M  V30 2637 H 253.875 2.82609 -1.37079 0
M  V30 2638 H 253.068 3.45819 -3.66641 0
M  V30 2639 H 252.67 1.76404 -3.29784 0
M  V30 2640 H 254.962 4.22935 -5.29275 0
M  V30 2641 H 255.905 3.13205 -6.35065 0
M  V30 2642 H 256.313 3.25316 -4.61335 0
M  V30 2643 N 255.711 1.52812 0.385517 0
M  V30 2644 C 256.959 1.67694 1.12797 0
M  V30 2645 C 257.28 0.421115 1.90399 0
M  V30 2646 O 256.55 -0.564551 1.87589 0
M  V30 2647 H 255.13 0.618155 0.419396 0
M  V30 2648 H 257.792 1.89938 0.436972 0
M  V30 2649 H 256.888 2.52896 1.82894 0
M  V30 2650 N 257.189 -0.644168 1.43834 0
M  V30 2651 C 258.437 -1.40117 1.45642 0
M  V30 2652 C 258.758 -1.94814 0.0852413 0
M  V30 2653 O 258.028 -1.74988 -0.880688 0
M  V30 2654 H 256.608 -0.52005 0.536243 0
M  V30 2655 H 259.27 -0.7591 1.7951 0
M  V30 2656 H 258.366 -2.23902 2.17427 0
M  V30 2657 N 258.668 -1.30515 -0.883378 0
M  V30 2658 C 259.916 -1.19194 -1.63209 0
M  V30 2659 C 260.237 0.253205 -1.93349 0
M  V30 2660 O 259.507 1.17025 -1.57105 0
M  V30 2661 H 258.087 -0.438148 -0.605009 0
M  V30 2662 H 260.749 -1.63663 -1.05832 0
M  V30 2663 H 259.845 -1.75396 -2.58153 0
M  V30 2664 N 260.146 1.09593 -1.13257 0
M  V30 2665 C 261.078 2.16015 -0.766167 0
M  V30 2666 C 262.091 1.61423 0.211303 0
M  V30 2667 O 263.28 1.78498 -0.00863946 0
M  V30 2668 C 260.38 3.38706 -0.114662 0
M  V30 2669 C 259.553 4.22717 -1.12379 0
M  V30 2670 C 258.612 5.23835 -0.498301 0
M  V30 2671 O 257.638 5.573 -1.15781 0
M  V30 2672 N 258.84 5.75886 0.730417 0
M  V30 2673 H 261.605 2.48055 -1.68193 0
M  V30 2674 H 259.166 1.25292 -1.02535 0
M  V30 2675 H 261.158 4.03464 0.315991 0
M  V30 2676 H 259.728 3.04569 0.704011 0
M  V30 2677 H 258.948 3.54122 -1.73179 0
M  V30 2678 H 260.236 4.75673 -1.80589 0
M  V30 2679 H 259.634 5.50911 1.28504 0
M  V30 2680 H 258.191 6.42387 1.10376 0
M  V30 2681 N 261.624 0.925811 1.2754 0
M  V30 2682 C 262.849 0.580924 1.99098 0
M  V30 2683 C 263.274 -0.833555 1.68622 0
M  V30 2684 O 262.632 -1.55903 0.925422 0
M  V30 2685 C 262.68 0.811186 3.51358 0
M  V30 2686 O 261.784 -0.124129 4.12213 0
M  V30 2687 H 261.125 0.223873 0.625122 0
M  V30 2688 H 263.655 1.24455 1.62395 0
M  V30 2689 H 263.665 0.72601 4.01489 0
M  V30 2690 H 262.34 1.84227 3.72872 0
M  V30 2691 H 260.917 0.0108006 3.72898 0
M  V30 2692 N 263.102 -1.41638 0.69111 0
M  V30 2693 C 264.349 -2.01299 0.220193 0
M  V30 2694 C 264.677 -1.54715 -1.17871 0
M  V30 2695 O 263.932 -0.747193 -1.80874 0
M  V30 2696 C 264.231 -3.56714 0.221277 0
M  V30 2697 C 263.897 -4.22792 1.56709 0
M  V30 2698 C 262.559 -4.40557 1.93554 0
M  V30 2699 C 264.911 -4.59883 2.45268 0
M  V30 2700 C 262.239 -4.92688 3.18552 0
M  V30 2701 C 264.591 -5.13403 3.69595 0
M  V30 2702 C 263.255 -5.29379 4.06589 0
M  V30 2703 H 262.525 -0.736606 0.0805743 0
M  V30 2704 H 265.172 -1.69598 0.889319 0
M  V30 2705 H 263.477 -3.8818 -0.531391 0
M  V30 2706 H 265.174 -4.00678 -0.160547 0
M  V30 2707 H 261.764 -4.09336 1.2705 0
M  V30 2708 H 265.948 -4.45817 2.18084 0
M  V30 2709 H 261.204 -5.03242 3.47214 0
M  V30 2710 H 265.378 -5.41084 4.38407 0
M  V30 2711 H 263.005 -5.69537 5.03519 0
M  V30 2712 N 264.58 -0.43555 -1.51462 0
M  V30 2713 C 265.528 0.391205 -2.29287 0
M  V30 2714 C 266.522 1.02247 -1.35062 0
M  V30 2715 O 267.728 0.957646 -1.52411 0
M  V30 2716 H 264.103 0.144968 -0.737895 0
M  V30 2717 H 266.074 -0.286051 -2.97026 0
M  V30 2718 C 264.823 1.48096 -3.14583 0
M  V30 2719 H 264.146 1.00457 -3.86973 0
M  V30 2720 H 265.586 2.03273 -3.72097 0
M  V30 2721 C 264.045 2.46321 -2.29843 0
M  V30 2722 O 264.575 3.50815 -1.95682 0
M  V30 2723 N 262.781 2.17166 -1.931 0
M  V30 2724 H 262.328 1.32218 -2.21079 0
M  V30 2725 H 262.286 2.83127 -1.36698 0
M  V30 2726 N 266.058 1.56714 -0.166846 0
M  V30 2727 C 267.307 1.95922 0.479318 0
M  V30 2728 C 267.62 1.05529 1.6469 0
M  V30 2729 O 268.826 1.34399 2.35901 0
M  V30 2730 C 267.282 3.48359 0.90412 0
M  V30 2731 C 266.89 4.47369 -0.237621 0
M  V30 2732 C 268.634 3.96394 1.51896 0
M  V30 2733 C 266.541 5.91039 0.206561 0
M  V30 2734 H 265.471 0.731495 0.18284 0
M  V30 2735 H 268.122 1.81728 -0.254363 0
M  V30 2736 H 266.504 3.57955 1.69365 0
M  V30 2737 H 267.678 4.49485 -1.01489 0
M  V30 2738 H 265.993 4.09366 -0.762128 0
M  V30 2739 H 268.59 5.01186 1.86325 0
M  V30 2740 H 268.933 3.39075 2.41524 0
M  V30 2741 H 269.466 3.89796 0.79395 0
M  V30 2742 H 266.205 6.52221 -0.654834 0
M  V30 2743 H 265.725 5.9224 0.949282 0
M  V30 2744 H 267.404 6.43707 0.651939 0
M  V30 2745 N 267.536 -0.106894 1.57237 0
M  V30 2746 C 268.784 -0.810921 1.85117 0
M  V30 2747 C 269.105 -1.7984 0.753827 0
M  V30 2748 O 268.375 -1.94649 -0.221056 0
M  V30 2749 H 266.955 -0.302466 0.683025 0
M  V30 2750 H 269.617 -0.0913324 1.94686 0
M  V30 2751 H 268.713 -1.34875 2.81452 0
M  V30 2752 N 269.014 -1.53014 -0.377408 0
M  V30 2753 C 269.944 -1.81589 -1.46791 0
M  V30 2754 C 270.925 -0.668622 -1.56408 0
M  V30 2755 O 272.11 -0.917337 -1.71168 0
M  V30 2756 C 269.24 -1.99519 -2.8427 0
M  V30 2757 C 268.194 -3.15249 -2.89486 0
M  V30 2758 C 267.52 -3.18451 -4.29527 0
M  V30 2759 C 268.82 -4.54084 -2.58079 0
M  V30 2760 H 270.514 -2.7291 -1.23127 0
M  V30 2761 H 268.06 -1.31319 -0.590883 0
M  V30 2762 H 270.013 -2.18092 -3.60575 0
M  V30 2763 H 268.737 -1.04897 -3.09296 0
M  V30 2764 H 267.396 -2.96477 -2.15631 0
M  V30 2765 H 267.044 -2.2149 -4.5161 0
M  V30 2766 H 266.744 -3.962 -4.33934 0
M  V30 2767 H 268.268 -3.39193 -5.07721 0
M  V30 2768 H 269.682 -4.72899 -3.24098 0
M  V30 2769 H 268.079 -5.33987 -2.7382 0
M  V30 2770 H 269.149 -4.60006 -1.53372 0
M  V30 2771 N 270.492 0.636531 -1.44174 0
M  V30 2772 C 271.72 1.42353 -1.50144 0
M  V30 2773 C 272.135 1.88389 -0.124575 0
M  V30 2774 O 271.492 1.6051 0.868489 0
M  V30 2775 C 271.543 2.64744 -2.46156 0
M  V30 2776 O 271.264 2.20629 -3.7849 0
M  V30 2777 C 272.765 3.57929 -2.61537 0
M  V30 2778 H 269.985 0.436752 -0.5094 0
M  V30 2779 H 272.529 0.778933 -1.89084 0
M  V30 2780 H 270.684 3.25307 -2.10366 0
M  V30 2781 H 271.098 2.99938 -4.30276 0
M  V30 2782 H 272.572 4.40428 -3.32757 0
M  V30 2783 H 273.049 4.06382 -1.66585 0
M  V30 2784 H 273.655 3.03238 -2.98206 0
M  V30 2785 N 271.97 1.30982 0.876444 0
M  V30 2786 C 272.918 1.18006 2.00443 0
M  V30 2787 C 273.912 0.0898871 1.69161 0
M  V30 2788 O 275.118 0.251333 1.78237 0
M  V30 2789 H 271.493 0.365196 0.65737 0
M  V30 2790 H 273.464 2.13453 2.0852 0
M  V30 2791 C 272.213 0.897521 3.35916 0
M  V30 2792 H 271.536 1.7285 3.60504 0
M  V30 2793 H 272.976 0.846874 4.15456 0
M  V30 2794 C 271.435 -0.399674 3.34521 0
M  V30 2795 O 271.965 -1.41852 3.7582 0
M  V30 2796 N 270.171 -0.413893 2.87637 0
M  V30 2797 H 269.718 0.41571 2.54224 0
M  V30 2798 H 269.676 -1.28175 2.87086 0
M  V30 2799 N 273.449 -1.08991 1.13837 0
M  V30 2800 C 274.379 -2.17771 0.842507 0
M  V30 2801 C 275.36 -1.6892 -0.20001 0
M  V30 2802 O 276.545 -1.94113 -0.0579731 0
M  V30 2803 C 273.675 -3.4589 0.312644 0
M  V30 2804 C 272.629 -4.08099 1.28992 0
M  V30 2805 C 271.955 -5.31098 0.619623 0
M  V30 2806 C 273.255 -4.50077 2.65005 0
M  V30 2807 H 274.949 -2.42777 1.75213 0
M  V30 2808 H 272.495 -1.16682 0.843875 0
M  V30 2809 H 274.448 -4.21297 0.0933043 0
M  V30 2810 H 273.172 -3.20419 -0.632382 0
M  V30 2811 H 271.831 -3.34717 1.49533 0
M  V30 2812 H 271.479 -5.0191 -0.33102 0
M  V30 2813 H 271.179 -5.73674 1.27167 0
M  V30 2814 H 272.703 -6.09224 0.409669 0
M  V30 2815 H 274.117 -5.16688 2.48407 0
M  V30 2816 H 272.514 -5.03553 3.26427 0
M  V30 2817 H 273.584 -3.62257 3.22332 0
M  V30 2818 N 274.927 -0.932562 -1.27047 0
M  V30 2819 C 276.204 -0.49377 -1.89265 0
M  V30 2820 C 276.584 1.02833 -1.8436 0
M  V30 2821 O 275.932 1.88461 -1.29209 0
M  V30 2822 C 276.142 -1.04536 -3.32976 0
M  V30 2823 C 277.49 -1.10879 -4.09867 0
M  V30 2824 O 278.514 -0.995327 -3.42011 0
M  V30 2825 O 277.373 -1.28417 -5.31198 0
M  V30 2826 H 274.467 -0.159596 -0.811454 0
M  V30 2827 H 277.013 -1.02457 -1.3528 0
M  V30 2828 H 275.785 -2.08913 -3.30864 0
M  V30 2829 H 275.408 -0.496494 -3.94488 0
M  V30 2830 N 276.405 1.4127 -0.698611 0
M  V30 2831 C 277.352 2.30773 -0.0352094 0
M  V30 2832 C 278.322 1.47273 0.768111 0
M  V30 2833 O 279.507 1.76053 0.735524 0
M  V30 2834 C 276.647 3.33346 0.893 0
M  V30 2835 C 275.76 4.31924 0.0809695 0
M  V30 2836 C 274.895 5.21566 1.0071 0
M  V30 2837 C 273.934 6.11811 0.188155 0
M  V30 2838 N 273.071 6.93926 1.06825 0
M  V30 2839 H 277.911 2.86943 -0.804207 0
M  V30 2840 H 275.448 1.4132 -0.408294 0
M  V30 2841 H 277.406 3.91368 1.44523 0
M  V30 2842 H 276.036 2.78719 1.62836 0
M  V30 2843 H 275.088 3.75825 -0.588224 0
M  V30 2844 H 276.4 4.95716 -0.553801 0
M  V30 2845 H 275.554 5.84437 1.62845 0
M  V30 2846 H 274.293 4.58008 1.67572 0
M  V30 2847 H 273.298 5.47986 -0.446254 0
M  V30 2848 H 274.523 6.77425 -0.476716 0
M  V30 2849 H 272.469 6.32973 1.72283 0
M  V30 2850 H 272.386 7.54416 0.489123 0
M  V30 2851 H 273.654 7.61262 1.67632 0
M  V30 2852 N 277.883 0.443576 1.51229 0
M  V30 2853 C 279.13 -0.120796 2.02139 0
M  V30 2854 C 279.458 -1.42166 1.32736 0
M  V30 2855 O 278.713 -1.90849 0.43301 0
M  V30 2856 C 279.012 -0.380579 3.55368 0
M  V30 2857 C 278.678 0.83523 4.43097 0
M  V30 2858 C 277.34 1.16864 4.66794 0
M  V30 2859 C 279.692 1.64601 4.94526 0
M  V30 2860 C 277.02 2.31339 5.39165 0
M  V30 2861 C 279.372 2.78181 5.68153 0
M  V30 2862 C 278.036 3.11969 5.90112 0
M  V30 2863 H 277.306 -0.0442023 0.73968 0
M  V30 2864 H 279.953 0.592046 1.82118 0
M  V30 2865 H 278.258 -1.17538 3.73754 0
M  V30 2866 H 279.955 -0.830777 3.923 0
M  V30 2867 H 276.545 0.565437 4.24854 0
M  V30 2868 H 280.729 1.40163 4.76097 0
M  V30 2869 H 275.985 2.57823 5.5438 0
M  V30 2870 H 280.159 3.41371 6.06992 0
M  V30 2871 H 277.786 4.00784 6.45969 0
M  V30 2872 N 279.361 -1.56624 0.175154 0
M  V30 2873 C 280.324 -2.16934 -0.739738 0
M  V30 2874 C 281.324 -1.11842 -1.15533 0
M  V30 2875 O 282.514 -1.37335 -1.07167 0
M  V30 2876 C 279.646 -2.75531 -2.00738 0
M  V30 2877 H 280.839 -2.99131 -0.214639 0
M  V30 2878 H 278.392 -1.56123 -0.0744197 0
M  V30 2879 H 279.127 -1.97078 -2.57548 0
M  V30 2880 H 278.912 -3.52444 -1.71831 0
M  V30 2881 H 280.402 -3.21904 -2.66021 0
M  V30 2882 N 280.839 0.0985539 -1.57292 0
M  V30 2883 C 282.069 0.815135 -1.8984 0
M  V30 2884 C 282.477 1.7297 -0.766679 0
M  V30 2885 O 281.82 1.81698 0.270483 0
M  V30 2886 C 281.882 1.6842 -3.17608 0
M  V30 2887 C 281.546 0.94182 -4.4719 0
M  V30 2888 C 282.543 0.273212 -5.19182 0
M  V30 2889 C 280.228 0.916927 -4.9386 0
M  V30 2890 C 282.222 -0.410361 -6.36078 0
M  V30 2891 C 279.909 0.229567 -6.10669 0
M  V30 2892 C 280.907 -0.432902 -6.81627 0
M  V30 2893 O 280.595 -1.10925 -7.9621 0
M  V30 2894 H 280.327 0.238501 -0.632529 0
M  V30 2895 H 282.881 0.0812659 -2.05239 0
M  V30 2896 H 281.111 2.46022 -2.98345 0
M  V30 2897 H 282.8 2.27704 -3.36015 0
M  V30 2898 H 283.566 0.283927 -4.84168 0
M  V30 2899 H 279.445 1.42201 -4.3852 0
M  V30 2900 H 282.989 -0.928013 -6.914 0
M  V30 2901 H 278.886 0.216686 -6.45136 0
M  V30 2902 H 279.654 -1.01579 -8.12172 0
M  V30 2903 N 282.317 1.53212 0.369288 0
M  V30 2904 C 283.566 1.68436 1.10961 0
M  V30 2905 C 283.879 0.440738 1.9057 0
M  V30 2906 O 285.085 0.473446 2.6734 0
M  V30 2907 C 283.541 2.97744 2.0218 0
M  V30 2908 C 283.149 4.29355 1.279 0
M  V30 2909 C 284.893 3.22334 2.76226 0
M  V30 2910 C 282.8 5.49755 2.17999 0
M  V30 2911 H 281.73 0.627568 0.41794 0
M  V30 2912 H 284.381 1.79713 0.370884 0
M  V30 2913 H 282.763 2.8026 2.79768 0
M  V30 2914 H 283.937 4.57458 0.554007 0
M  V30 2915 H 282.252 4.11179 0.657311 0
M  V30 2916 H 284.849 4.09471 3.43857 0
M  V30 2917 H 285.192 2.38238 3.41392 0
M  V30 2918 H 285.725 3.40475 2.05723 0
M  V30 2919 H 282.464 6.36318 1.57417 0
M  V30 2920 H 281.984 5.25937 2.88359 0
M  V30 2921 H 283.663 5.84401 2.77641 0
M  V30 2922 N 283.795 -0.628877 1.44509 0
M  V30 2923 C 285.043 -1.38565 1.4712 0
M  V30 2924 C 285.364 -1.94712 0.105899 0
M  V30 2925 O 284.634 -1.75912 -0.862079 0
M  V30 2926 H 283.214 -0.514333 0.541729 0
M  V30 2927 H 285.876 -0.740018 1.80305 0
M  V30 2928 H 284.972 -2.21583 2.19789 0
M  V30 2929 N 285.273 -1.31445 -0.869486 0
M  V30 2930 C 286.684 -1.19042 -1.43826 0
M  V30 2931 C 287.035 0.202919 -1.95148 0
M  V30 2932 O 286.16 1.10071 -1.86315 0
M  V30 2933 C 286.755 -2.15499 -2.6143 0
M  V30 2934 C 285.314 -2.07028 -3.14351 0
M  V30 2935 C 284.461 -2.04701 -1.87063 0
M  V30 2936 H 287.412 -1.43489 -0.677984 0
M  V30 2937 H 287.433 -1.74488 -3.38134 0
M  V30 2938 H 286.945 -3.16899 -2.24046 0
M  V30 2939 H 285.046 -1.08825 -3.56354 0
M  V30 2940 H 285.159 -2.96157 -3.766 0
M  V30 2941 H 283.523 -1.49724 -2.06046 0
M  V30 2942 H 284.306 -3.07857 -1.51917 0
M  V30 2943 N 286.751 1.08385 -1.14413 0
M  V30 2944 C 288 1.80153 -0.907076 0
M  V30 2945 C 288.313 1.87176 0.567851 0
M  V30 2946 O 289.519 2.55359 0.922172 0
M  V30 2947 C 287.975 3.23687 -1.57336 0
M  V30 2948 C 287.583 3.24897 -3.08457 0
M  V30 2949 C 289.327 4.00136 -1.41744 0
M  V30 2950 C 287.234 4.6302 -3.67921 0
M  V30 2951 H 286.164 0.675139 -0.335714 0
M  V30 2952 H 288.815 1.21733 -1.37307 0
M  V30 2953 H 287.197 3.82234 -1.03505 0
M  V30 2954 H 288.371 2.76055 -3.68958 0
M  V30 2955 H 286.686 2.61943 -3.2369 0
M  V30 2956 H 289.283 5.02201 -1.83572 0
M  V30 2957 H 289.626 4.14709 -0.363576 0
M  V30 2958 H 290.159 3.48058 -1.92614 0
M  V30 2959 H 286.898 4.5365 -4.73161 0
M  V30 2960 H 286.418 5.12143 -3.12201 0
M  V30 2961 H 288.097 5.31994 -3.68227 0
M  V30 2962 N 288.23 0.939286 1.26551 0
M  V30 2963 C 289.455 0.602008 1.98471 0
M  V30 2964 C 289.88 -0.815624 1.69497 0
M  V30 2965 O 289.238 -1.54912 0.941905 0
M  V30 2966 C 289.286 0.848407 3.50477 0
M  V30 2967 O 288.39 -0.0804009 4.12322 0
M  V30 2968 H 287.731 0.23049 0.622712 0
M  V30 2969 H 290.261 1.2617 1.61066 0
M  V30 2970 H 290.271 0.768553 4.00696 0
M  V30 2971 H 288.946 1.88171 3.70897 0
M  V30 2972 H 287.523 0.0503508 3.72866 0
M  V30 2973 N 289.708 -1.40897 0.706093 0
M  V30 2974 C 290.671 -2.29131 0.0562841 0
M  V30 2975 C 291.671 -1.44901 -0.697166 0
M  V30 2976 O 292.861 -1.65926 -0.530484 0
M  V30 2977 C 289.993 -3.27957 -0.93043 0
M  V30 2978 H 291.186 -2.88091 0.833284 0
M  V30 2979 H 288.739 -1.4906 0.470192 0
M  V30 2980 H 289.474 -2.73997 -1.73482 0
M  V30 2981 H 289.259 -3.90124 -0.393166 0
M  V30 2982 H 290.749 -3.94049 -1.38256 0
M  V30 2983 N 291.186 -0.45159 -1.50991 0
M  V30 2984 C 292.149 0.341117 -2.26647 0
M  V30 2985 C 293.149 0.937422 -1.30649 0
M  V30 2986 O 294.339 0.809644 -1.54241 0
M  V30 2987 C 291.471 1.48398 -3.06905 0
M  V30 2988 H 292.664 -0.322117 -2.98165 0
M  V30 2989 H 290.217 -0.205122 -1.54948 0
M  V30 2990 H 290.952 2.18284 -2.39838 0
M  V30 2991 H 290.737 1.06241 -3.77432 0
M  V30 2992 H 292.227 2.04367 -3.64176 0
M  V30 2993 N 292.664 1.56529 -0.183458 0
M  V30 2994 C 294.075 1.83739 0.331177 0
M  V30 2995 C 294.426 1.10373 1.62211 0
M  V30 2996 O 293.551 0.36071 2.13373 0
M  V30 2997 C 294.146 3.33306 0.607646 0
M  V30 2998 C 292.705 3.60969 1.06668 0
M  V30 2999 C 291.852 2.77086 0.109029 0
M  V30 3000 H 294.803 1.53379 -0.407484 0
M  V30 3001 H 294.824 3.51444 1.45832 0
M  V30 3002 H 294.336 3.86677 -0.332086 0
M  V30 3003 H 292.437 3.13021 2.0211 0
M  V30 3004 H 292.55 4.69231 0.967447 0
M  V30 3005 H 290.914 2.47319 0.608714 0
M  V30 3006 H 291.697 3.33241 -0.82494 0
M  V30 3007 N 294.142 -0.090211 1.57342 0
M  V30 3008 C 295.09 -1.12792 2.03422 0
M  V30 3009 C 296.084 -1.41182 0.936166 0
M  V30 3010 O 297.29 -1.40805 1.12133 0
M  V30 3011 H 293.665 -0.380986 0.648347 0
M  V30 3012 H 295.636 -0.71299 2.89757 0
M  V30 3013 C 294.385 -2.43855 2.47851 0
M  V30 3014 H 293.708 -2.22855 3.31927 0
M  V30 3015 H 295.148 -3.14955 2.83865 0
M  V30 3016 C 293.607 -3.08503 1.3538 0
M  V30 3017 O 294.137 -3.95805 0.685641 0
M  V30 3018 N 292.343 -2.68831 1.10355 0
M  V30 3019 H 291.89 -1.97929 1.64869 0
M  V30 3020 H 291.848 -3.12412 0.353031 0
M  V30 3021 N 295.62 -1.53406 -0.361157 0
M  V30 3022 C 296.848 -1.73717 -1.12383 0
M  V30 3023 C 297.263 -0.468161 -1.82904 0
M  V30 3024 O 296.62 0.559198 -1.73722 0
M  V30 3025 C 296.671 -2.90558 -2.15078 0
M  V30 3026 O 296.392 -4.12549 -1.47428 0
M  V30 3027 C 297.893 -3.22777 -3.03858 0
M  V30 3028 H 295.113 -0.580896 -0.335858 0
M  V30 3029 H 297.657 -2.00167 -0.418728 0
M  V30 3030 H 295.812 -2.66489 -2.8118 0
M  V30 3031 H 296.226 -4.78009 -2.15887 0
M  V30 3032 H 297.7 -4.07927 -3.71887 0
M  V30 3033 H 298.177 -2.38329 -3.68912 0
M  V30 3034 H 298.783 -3.48787 -2.43367 0
M  V30 3035 N 297.098 0.621204 -1.44841 0
M  V30 3036 C 298.328 1.40548 -1.51426 0
M  V30 3037 C 298.736 1.88673 -0.141083 0
M  V30 3038 O 298.079 1.62053 0.865128 0
M  V30 3039 C 298.141 2.65325 -2.42576 0
M  V30 3040 C 297.805 2.3893 -3.89566 0
M  V30 3041 C 298.802 2.00138 -4.79834 0
M  V30 3042 C 296.487 2.52263 -4.3436 0
M  V30 3043 C 298.481 1.75021 -6.129 0
M  V30 3044 C 296.168 2.2676 -5.67471 0
M  V30 3045 C 297.166 1.88199 -6.56559 0
M  V30 3046 O 296.854 1.62986 -7.87204 0
M  V30 3047 H 296.586 0.437122 -0.515655 0
M  V30 3048 H 299.14 0.765987 -1.90583 0
M  V30 3049 H 297.37 3.31947 -1.98364 0
M  V30 3050 H 299.059 3.27347 -2.39998 0
M  V30 3051 H 299.825 1.89386 -4.46495 0
M  V30 3052 H 295.704 2.81246 -3.65269 0
M  V30 3053 H 299.248 1.44848 -6.82396 0
M  V30 3054 H 295.145 2.37125 -6.00368 0
M  V30 3055 H 295.913 1.7715 -7.991 0
M  V30 3056 N 298.576 1.31904 0.862503 0
M  V30 3057 C 299.987 1.19803 1.43193 0
M  V30 3058 C 300.338 -0.192567 1.95253 0
M  V30 3059 O 299.463 -1.09081 1.86896 0
M  V30 3060 C 300.058 2.16883 2.60283 0
M  V30 3061 C 298.617 2.08692 3.13248 0
M  V30 3062 C 297.764 2.05691 1.85975 0
M  V30 3063 H 300.715 1.43846 0.670365 0
M  V30 3064 H 300.736 1.76278 3.37204 0
M  V30 3065 H 300.248 3.18083 2.22363 0
M  V30 3066 H 298.349 1.10713 3.55771 0
M  V30 3067 H 298.462 2.9815 3.75025 0
M  V30 3068 H 296.826 1.50814 2.05249 0
M  V30 3069 H 297.609 3.08659 1.50282 0
M  V30 3070 N 300.054 -1.07777 1.14986 0
M  V30 3071 C 301.002 -2.16964 0.838406 0
M  V30 3072 C 301.996 -1.68372 -0.186386 0
M  V30 3073 O 303.202 -1.79951 -0.0418465 0
M  V30 3074 H 299.577 -0.708006 0.253439 0
M  V30 3075 H 301.548 -2.40454 1.76704 0
M  V30 3076 C 300.297 -3.4604 0.339335 0
M  V30 3077 H 299.62 -3.83813 1.11927 0
M  V30 3078 H 301.06 -4.23698 0.160021 0
M  V30 3079 C 299.519 -3.23569 -0.938325 0
M  V30 3080 O 300.049 -3.47752 -2.01077 0
M  V30 3081 N 298.255 -2.77079 -0.876117 0
M  V30 3082 H 297.802 -2.576 -0.00322037 0
M  V30 3083 H 297.76 -2.62422 -1.73153 0
M  V30 3084 N 301.532 -0.945985 -1.26051 0
M  V30 3085 C 302.442 -0.465633 -2.29933 0
M  V30 3086 C 303.458 0.462761 -1.67733 0
M  V30 3087 O 304.634 0.341118 -1.9849 0
M  V30 3088 C 301.699 0.256994 -3.45746 0
M  V30 3089 C 300.76 -0.708549 -4.23412 0
M  V30 3090 C 299.993 -0.0203135 -5.33696 0
M  V30 3091 O 300.216 1.19571 -5.57726 0
M  V30 3092 O 299.15 -0.701459 -5.97799 0
M  V30 3093 H 302.976 -1.32866 -2.73094 0
M  V30 3094 H 300.561 -0.712071 -1.31339 0
M  V30 3095 H 302.443 0.663852 -4.16138 0
M  V30 3096 H 301.118 1.09533 -3.04605 0
M  V30 3097 H 300.025 -1.16545 -3.55483 0
M  V30 3098 H 301.358 -1.51465 -4.68315 0
M  V30 3099 N 303.011 1.40521 -0.713556 0
M  V30 3100 C 304.427 1.54839 -0.386907 0
M  V30 3101 C 304.627 1.68532 1.1045 0
M  V30 3102 O 303.683 1.67377 1.89053 0
M  V30 3103 C 304.996 2.77792 -1.15118 0
M  V30 3104 C 306.544 2.91607 -1.13729 0
M  V30 3105 C 307.019 4.1747 -1.88368 0
M  V30 3106 N 308.51 4.24466 -1.85427 0
M  V30 3107 C 309.245 5.20755 -2.40004 0
M  V30 3108 N 308.741 6.22965 -3.03129 0
M  V30 3109 N 310.534 5.1282 -2.30158 0
M  V30 3110 H 302.685 1.29879 -1.68063 0
M  V30 3111 H 304.948 0.627896 -0.710247 0
M  V30 3112 H 304.654 2.73944 -2.20561 0
M  V30 3113 H 304.528 3.6984 -0.741477 0
M  V30 3114 H 306.915 2.94959 -0.0910608 0
M  V30 3115 H 306.996 2.00682 -1.5862 0
M  V30 3116 H 306.64 4.1488 -2.9298 0
M  V30 3117 H 306.57 5.074 -1.40898 0
M  V30 3118 H 309.061 3.51241 -1.3942 0
M  V30 3119 H 309.374 6.92859 -3.42295 0
M  V30 3120 H 307.719 6.23415 -3.07212 0
M  V30 3121 H 310.91 4.31899 -1.80501 0
M  V30 3122 H 311.083 5.87689 -2.72993 0
M  V30 3123 N 304.489 0.459591 1.5075 0
M  V30 3124 C 305.419 -0.330644 2.31147 0
M  V30 3125 C 306.4 -1.00087 1.37538 0
M  V30 3126 O 307.585 -1.00025 1.66459 0
M  V30 3127 C 304.715 -1.41958 3.16962 0
M  V30 3128 C 303.669 -0.871608 4.19031 0
M  V30 3129 C 302.995 -2.05797 4.9351 0
M  V30 3130 C 304.295 0.109251 5.22186 0
M  V30 3131 H 305.989 0.340336 2.97459 0
M  V30 3132 H 303.535 0.165119 1.4305 0
M  V30 3133 H 305.488 -1.9798 3.71997 0
M  V30 3134 H 304.212 -2.11917 2.48513 0
M  V30 3135 H 302.871 -0.333442 3.6508 0
M  V30 3136 H 302.519 -2.74427 4.21544 0
M  V30 3137 H 302.219 -1.6976 5.62544 0
M  V30 3138 H 303.743 -2.62331 5.51375 0
M  V30 3139 H 305.157 -0.361405 5.7216 0
M  V30 3140 H 303.554 0.383316 5.98875 0
M  V30 3141 H 304.624 1.03887 4.73641 0
M  V30 3142 N 305.967 -1.56429 0.191757 0
M  V30 3143 C 307.214 -1.97485 -0.447891 0
M  V30 3144 C 307.542 -1.07852 -1.61859 0
M  V30 3145 O 306.797 -0.116903 -1.95351 0
M  V30 3146 C 307.096 -3.44449 -0.953384 0
M  V30 3147 C 306.762 -4.50781 0.103586 0
M  V30 3148 C 305.424 -4.79584 0.394023 0
M  V30 3149 C 307.776 -5.1471 0.819946 0
M  V30 3150 C 305.104 -5.69607 1.40585 0
M  V30 3151 C 307.456 -6.05827 1.8209 0
M  V30 3152 C 306.12 -6.32987 2.11857 0
M  V30 3153 H 305.39 -0.722648 -0.163895 0
M  V30 3154 H 308.037 -1.89322 0.28802 0
M  V30 3155 H 306.342 -3.49666 -1.76751 0
M  V30 3156 H 308.039 -3.73569 -1.45765 0
M  V30 3157 H 304.629 -4.28394 -0.132951 0
M  V30 3158 H 308.813 -4.92552 0.608789 0
M  V30 3159 H 304.069 -5.88926 1.64243 0
M  V30 3160 H 308.243 -6.54424 2.38123 0
M  V30 3161 H 305.87 -7.02544 2.90407 0
M  V30 3162 N 307.445 0.0818655 -1.57387 0
M  V30 3163 C 308.856 0.634871 -1.75574 0
M  V30 3164 C 309.207 1.78435 -0.815809 0
M  V30 3165 O 308.332 2.164 0.0025366 0
M  V30 3166 C 308.927 1.15845 -3.18379 0
M  V30 3167 C 307.486 1.65741 -3.37945 0
M  V30 3168 C 306.633 0.572549 -2.71325 0
M  V30 3169 H 309.584 -0.144268 -1.58043 0
M  V30 3170 H 309.605 2.02751 -3.21982 0
M  V30 3171 H 309.117 0.321631 -3.86765 0
M  V30 3172 H 307.218 2.51781 -2.74658 0
M  V30 3173 H 307.331 1.74129 -4.46336 0
M  V30 3174 H 305.695 1.01518 -2.33594 0
M  V30 3175 H 306.478 -0.253918 -3.4236 0
M  V30 3176 N 308.923 1.53595 0.353017 0
M  V30 3177 C 310.2 1.61002 1.11075 0
M  V30 3178 C 310.58 0.425356 2.0677 0
M  V30 3179 O 309.928 -0.583267 2.2093 0
M  V30 3180 C 310.138 2.96631 1.83877 0
M  V30 3181 C 311.486 3.51653 2.37961 0
M  V30 3182 O 312.51 2.98743 1.93987 0
M  V30 3183 O 311.369 4.44177 3.18386 0
M  V30 3184 H 308.463 0.650825 0.510251 0
M  V30 3185 H 311.009 1.6594 0.35527 0
M  V30 3186 H 309.781 3.74293 1.14108 0
M  V30 3187 H 309.404 2.95242 2.66304 0
M  V30 3188 N 310.401 -0.613514 1.45168 0
M  V30 3189 C 311.649 -1.36997 1.48581 0
M  V30 3190 C 311.97 -1.94589 0.126545 0
M  V30 3191 O 311.24 -1.76816 -0.843372 0
M  V30 3192 H 309.82 -0.508558 0.547154 0
M  V30 3193 H 312.482 -0.720853 1.81079 0
M  V30 3194 H 311.578 -2.1924 2.22127 0
M  V30 3195 N 311.879 -1.3236 -0.855495 0
M  V30 3196 C 313.127 -1.22629 -1.60644 0
M  V30 3197 C 313.448 0.212136 -1.93843 0
M  V30 3198 O 312.718 1.13666 -1.59552 0
M  V30 3199 H 311.298 -0.450882 -0.595579 0
M  V30 3200 H 313.96 -1.65871 -1.02337 0
M  V30 3201 H 313.056 -1.80832 -2.54374 0
M  V30 3202 N 313.357 1.07166 -1.15556 0
M  V30 3203 C 314.304 2.14417 -0.854055 0
M  V30 3204 C 315.274 1.64965 0.193806 0
M  V30 3205 O 316.459 1.90703 0.0609443 0
M  V30 3206 C 313.599 3.43304 -0.351574 0
M  V30 3207 C 312.712 4.06537 -1.46123 0
M  V30 3208 C 311.847 5.23266 -0.914677 0
M  V30 3209 C 310.886 5.78464 -2.00114 0
M  V30 3210 N 310.023 6.86521 -1.47083 0
M  V30 3211 H 314.863 2.39548 -1.77259 0
M  V30 3212 H 312.4 1.17543 -0.884425 0
M  V30 3213 H 314.358 4.17179 -0.0419409 0
M  V30 3214 H 312.988 3.18419 0.530037 0
M  V30 3215 H 312.04 3.30297 -1.88701 0
M  V30 3216 H 313.352 4.43567 -2.28144 0
M  V30 3217 H 312.506 6.04131 -0.557698 0
M  V30 3218 H 311.245 4.87658 -0.0636583 0
M  V30 3219 H 310.25 4.96243 -2.36692 0
M  V30 3220 H 311.475 6.16126 -2.85597 0
M  V30 3221 H 309.421 6.52849 -0.642198 0
M  V30 3222 H 309.338 7.22446 -2.22729 0
M  V30 3223 H 310.606 7.71087 -1.14215 0
M  V30 3224 N 314.835 0.952656 1.25548 0
M  V30 3225 C 315.798 0.475794 2.24207 0
M  V30 3226 C 316.798 -0.419428 1.55234 0
M  V30 3227 O 317.988 -0.216994 1.72843 0
M  V30 3228 C 315.12 -0.312814 3.39462 0
M  V30 3229 H 316.313 1.34779 2.67908 0
M  V30 3230 H 313.866 0.735739 1.37901 0
M  V30 3231 H 314.601 -1.20257 3.01179 0
M  V30 3232 H 314.386 0.329404 3.90714 0
M  V30 3233 H 315.876 -0.635986 4.12729 0
M  V30 3234 N 316.313 -1.40141 0.720998 0
M  V30 3235 C 317.276 -2.29058 0.0805834 0
M  V30 3236 C 318.276 -1.45632 -0.681758 0
M  V30 3237 O 319.466 -1.6648 -0.512856 0
M  V30 3238 C 316.598 -3.28925 -0.895593 0
M  V30 3239 H 317.791 -2.87191 0.863793 0
M  V30 3240 H 315.344 -1.48553 0.485975 0
M  V30 3241 H 316.079 -2.75822 -1.70566 0
M  V30 3242 H 315.864 -3.90519 -0.351766 0
M  V30 3243 H 317.354 -3.95494 -1.34069 0
M  V30 3244 N 317.792 -0.46758 -1.50504 0
M  V30 3245 C 319.208 -0.121533 -1.59137 0
M  V30 3246 C 319.408 1.3717 -1.47603 0
M  V30 3247 O 318.464 2.14464 -1.33272 0
M  V30 3248 C 319.777 -0.6686 -2.93173 0
M  V30 3249 C 321.325 -0.631716 -3.06559 0
M  V30 3250 C 321.8 -1.15627 -4.43164 0
M  V30 3251 N 323.291 -1.11553 -4.49567 0
M  V30 3252 C 324.026 -1.49195 -5.5365 0
M  V30 3253 N 323.522 -1.94269 -6.65005 0
M  V30 3254 N 325.315 -1.4082 -5.44175 0
M  V30 3255 H 317.466 -1.4388 -1.56245 0
M  V30 3256 H 319.729 -0.594784 -0.738198 0
M  V30 3257 H 319.435 -1.71453 -3.07078 0
M  V30 3258 H 319.309 -0.11021 -3.77039 0
M  V30 3259 H 321.696 0.405297 -2.92304 0
M  V30 3260 H 321.777 -1.22687 -2.24458 0
M  V30 3261 H 321.421 -2.1919 -4.58168 0
M  V30 3262 H 321.351 -0.537365 -5.23851 0
M  V30 3263 H 323.842 -0.784895 -3.69659 0
M  V30 3264 H 324.155 -2.21148 -7.40482 0
M  V30 3265 H 322.5 -1.98219 -6.66134 0
M  V30 3266 H 325.691 -1.0545 -4.56068 0
M  V30 3267 H 325.864 -1.70481 -6.25172 0
M  V30 3268 N 319.27 1.56325 -0.20005 0
M  V30 3269 C 320.18 2.22931 0.730668 0
M  V30 3270 C 321.196 1.22997 1.23076 0
M  V30 3271 O 322.372 1.55748 1.27689 0
M  V30 3272 C 319.437 2.87948 1.93098 0
M  V30 3273 C 318.498 4.03166 1.47497 0
M  V30 3274 C 317.731 4.65073 2.61807 0
M  V30 3275 O 317.954 4.25913 3.79413 0
M  V30 3276 O 316.888 5.54452 2.34237 0
M  V30 3277 H 320.714 3.03084 0.193391 0
M  V30 3278 H 318.299 1.49371 0.0294621 0
M  V30 3279 H 320.181 3.29063 2.6324 0
M  V30 3280 H 318.856 2.10771 2.45677 0
M  V30 3281 H 317.763 3.66664 0.742201 0
M  V30 3282 H 319.096 4.82022 0.995796 0
M  V30 3283 N 320.748 -0.0735177 1.57428 0
M  V30 3284 C 321.695 -1.08756 2.0357 0
M  V30 3285 C 322.665 -1.38559 0.916 0
M  V30 3286 O 323.85 -1.49656 1.18354 0
M  V30 3287 C 320.99 -2.39657 2.48311 0
M  V30 3288 C 320.103 -2.16399 3.73892 0
M  V30 3289 C 319.238 -3.40852 4.07423 0
M  V30 3290 C 318.277 -3.1295 5.2605 0
M  V30 3291 N 317.414 -4.29729 5.55228 0
M  V30 3292 H 322.254 -0.687104 2.8997 0
M  V30 3293 H 319.791 -0.327709 1.43403 0
M  V30 3294 H 321.749 -3.16081 2.72303 0
M  V30 3295 H 320.379 -2.77508 1.64891 0
M  V30 3296 H 319.431 -1.30676 3.57251 0
M  V30 3297 H 320.743 -1.91788 4.60455 0
M  V30 3298 H 319.897 -4.25671 4.32306 0
M  V30 3299 H 318.636 -3.68537 3.19425 0
M  V30 3300 H 317.641 -2.26526 5.00965 0
M  V30 3301 H 318.866 -2.86589 6.15665 0
M  V30 3302 H 316.812 -4.57448 4.70188 0
M  V30 3303 H 316.729 -4.08385 6.36206 0
M  V30 3304 H 317.997 -5.1555 5.84661 0
M  V30 3305 N 322.226 -1.5378 -0.344866 0
M  V30 3306 C 323.156 -1.84662 -1.42906 0
M  V30 3307 C 324.137 -0.701648 -1.54955 0
M  V30 3308 O 325.322 -0.953438 -1.69184 0
M  V30 3309 C 322.452 -2.05503 -2.79974 0
M  V30 3310 C 321.406 -3.21318 -2.82734 0
M  V30 3311 C 320.732 -3.2749 -4.22675 0
M  V30 3312 C 322.032 -4.59456 -2.48389 0
M  V30 3313 H 323.726 -2.75461 -1.17311 0
M  V30 3314 H 321.272 -1.32542 -0.562896 0
M  V30 3315 H 323.225 -2.25691 -3.55867 0
M  V30 3316 H 321.949 -1.11434 -3.07002 0
M  V30 3317 H 320.608 -3.00984 -2.09294 0
M  V30 3318 H 320.256 -2.31019 -4.4681 0
M  V30 3319 H 319.956 -4.05316 -4.25433 0
M  V30 3320 H 321.48 -3.49887 -5.00412 0
M  V30 3321 H 322.894 -4.79667 -3.13995 0
M  V30 3322 H 321.291 -5.39675 -2.62432 0
M  V30 3323 H 322.361 -4.63155 -1.4358 0
M  V30 3324 N 323.704 0.605807 -1.45491 0
M  V30 3325 C 324.651 1.7164 -1.54299 0
M  V30 3326 C 325.621 1.61486 -0.388761 0
M  V30 3327 O 326.806 1.81039 -0.602445 0
M  V30 3328 C 323.946 3.09953 -1.51734 0
M  V30 3329 C 323.059 3.309 -2.77721 0
M  V30 3330 C 322.194 4.59329 -2.66816 0
M  V30 3331 C 321.233 4.7354 -3.87848 0
M  V30 3332 N 320.37 5.9327 -3.75467 0
M  V30 3333 H 325.21 1.63449 -2.49176 0
M  V30 3334 H 322.747 0.796957 -1.23641 0
M  V30 3335 H 324.705 3.89977 -1.48235 0
M  V30 3336 H 323.335 3.17098 -0.604068 0
M  V30 3337 H 322.387 2.44639 -2.913 0
M  V30 3338 H 323.699 3.37274 -3.67488 0
M  V30 3339 H 322.853 5.4755 -2.61292 0
M  V30 3340 H 321.592 4.55355 -1.74651 0
M  V30 3341 H 320.597 3.83741 -3.93729 0
M  V30 3342 H 321.822 4.79309 -4.81082 0
M  V30 3343 H 319.768 5.90338 -2.86072 0
M  V30 3344 H 319.685 6.00811 -4.5887 0
M  V30 3345 H 320.953 6.83984 -3.73879 0
M  V30 3346 N 325.182 1.32811 0.848464 0
M  V30 3347 C 326.112 1.24882 1.97299 0
M  V30 3348 C 327.093 0.131357 1.69592 0
M  V30 3349 O 328.278 0.319553 1.91553 0
M  V30 3350 C 325.408 0.97746 3.33261 0
M  V30 3351 C 324.362 2.05682 3.75338 0
M  V30 3352 C 323.688 1.63777 5.09 0
M  V30 3353 C 324.988 3.47254 3.90144 0
M  V30 3354 H 326.682 2.18966 2.04191 0
M  V30 3355 H 324.228 1.05413 0.981029 0
M  V30 3356 H 326.181 0.908513 4.1149 0
M  V30 3357 H 324.905 0.000980011 3.266 0
M  V30 3358 H 323.564 2.11603 2.99366 0
M  V30 3359 H 323.212 0.648569 4.98801 0
M  V30 3360 H 322.912 2.36 5.38124 0
M  V30 3361 H 324.436 1.5833 5.89715 0
M  V30 3362 H 325.85 3.43888 4.58709 0
M  V30 3363 H 324.247 4.1788 4.30693 0
M  V30 3364 H 325.317 3.86462 2.92874 0
M  V30 3365 N 326.66 -1.06551 1.16123 0
M  V30 3366 C 327.59 -2.15935 0.88851 0
M  V30 3367 C 328.571 -1.69306 -0.164135 0
M  V30 3368 O 329.756 -1.94193 -0.0167857 0
M  V30 3369 C 326.886 -3.45149 0.385942 0
M  V30 3370 C 325.84 -4.05271 1.3762 0
M  V30 3371 C 325.166 -5.29664 0.732137 0
M  V30 3372 C 326.466 -4.44355 2.74493 0
M  V30 3373 H 328.16 -2.39006 1.80323 0
M  V30 3374 H 325.706 -1.14866 0.868435 0
M  V30 3375 H 327.659 -4.21004 0.182647 0
M  V30 3376 H 326.383 -3.21689 -0.564274 0
M  V30 3377 H 325.042 -3.3147 1.56599 0
M  V30 3378 H 324.69 -5.02499 -0.224483 0
M  V30 3379 H 324.39 -5.70848 1.39307 0
M  V30 3380 H 325.914 -6.08218 0.538802 0
M  V30 3381 H 327.328 -5.11303 2.59311 0
M  V30 3382 H 325.725 -4.96515 3.37035 0
M  V30 3383 H 326.795 -3.55339 3.29943 0
M  V30 3384 N 328.138 -0.959301 -1.25041 0
M  V30 3385 C 329.385 -0.616611 -1.92884 0
M  V30 3386 C 329.713 0.847036 -1.75087 0
M  V30 3387 O 328.968 1.62374 -1.09239 0
M  V30 3388 C 329.267 -0.927136 -3.45165 0
M  V30 3389 C 328.933 -2.37757 -3.83122 0
M  V30 3390 C 327.595 -2.77402 -3.93194 0
M  V30 3391 C 329.947 -3.31929 -4.01836 0
M  V30 3392 C 327.275 -4.10277 -4.19392 0
M  V30 3393 C 329.627 -4.64423 -4.29528 0
M  V30 3394 C 328.291 -5.03857 -4.37818 0
M  V30 3395 H 327.561 -0.225634 -0.705812 0
M  V30 3396 H 330.208 -1.20921 -1.48493 0
M  V30 3397 H 328.513 -0.252195 -3.90987 0
M  V30 3398 H 330.21 -0.6405 -3.95852 0
M  V30 3399 H 326.8 -2.06013 -3.75841 0
M  V30 3400 H 330.984 -3.02488 -3.93465 0
M  V30 3401 H 326.24 -4.40467 -4.24027 0
M  V30 3402 H 330.414 -5.37369 -4.42953 0
M  V30 3403 H 328.041 -6.06843 -4.57871 0
M  V30 3404 N 329.616 1.39756 -0.72842 0
M  V30 3405 C 330.865 1.99879 -0.270407 0
M  V30 3406 C 331.178 1.58449 1.14688 0
M  V30 3407 O 332.384 2.11362 1.70407 0
M  V30 3408 C 330.84 3.57292 -0.43252 0
M  V30 3409 C 330.448 4.07688 -1.85727 0
M  V30 3410 C 332.192 4.24485 -0.0359507 0
M  V30 3411 C 330.099 5.5765 -1.96928 0
M  V30 3412 H 329.029 0.747689 -0.0973472 0
M  V30 3413 H 331.68 1.59837 -0.901355 0
M  V30 3414 H 330.062 3.95097 0.267219 0
M  V30 3415 H 331.236 3.81231 -2.58843 0
M  V30 3416 H 329.551 3.53135 -2.20646 0
M  V30 3417 H 332.148 5.34609 -0.0987484 0
M  V30 3418 H 332.491 4.03915 1.00787 0
M  V30 3419 H 333.024 3.9183 -0.686604 0
M  V30 3420 H 329.763 5.8309 -2.99476 0
M  V30 3421 H 329.283 5.8593 -1.28241 0
M  V30 3422 H 330.962 6.22957 -1.74737 0
M  V30 3423 N 331.094 0.475555 1.50254 0
M  V30 3424 C 332.057 -0.305016 2.27161 0
M  V30 3425 C 333.057 -0.916519 1.32123 0
M  V30 3426 O 334.247 -0.785003 1.5551 0
M  V30 3427 C 331.379 -1.43496 3.09227 0
M  V30 3428 H 332.572 0.369511 2.97615 0
M  V30 3429 H 330.125 0.229747 1.54602 0
M  V30 3430 H 330.86 -2.14441 2.43281 0
M  V30 3431 H 330.645 -1.00223 3.79075 0
M  V30 3432 H 332.135 -1.98548 3.67381 0
M  V30 3433 N 332.573 -1.56217 0.208337 0
M  V30 3434 C 333.813 -1.99849 -0.428927 0
M  V30 3435 C 334.177 -1.09262 -1.57879 0
M  V30 3436 O 335.378 -1.42185 -2.28116 0
M  V30 3437 C 333.649 -3.46777 -0.864879 0
M  V30 3438 S 335.208 -4.12434 -1.49811 0
M  V30 3439 H 332.026 -0.697742 -0.136665 0
M  V30 3440 H 334.628 -1.92953 0.314519 0
M  V30 3441 H 333.332 -4.10396 -0.0181326 0
M  V30 3442 H 332.863 -3.57518 -1.64147 0
M  V30 3443 H 334.878 -4.10532 -2.78707 0
M  V30 3444 N 334.051 0.0651679 -1.57465 0
M  V30 3445 C 335.299 0.761555 -1.87202 0
M  V30 3446 C 335.62 1.77778 -0.801243 0
M  V30 3447 O 334.89 1.95166 0.16937 0
M  V30 3448 H 333.47 0.284251 -0.690804 0
M  V30 3449 H 336.132 0.0396827 -1.9486 0
M  V30 3450 H 335.228 1.27365 -2.84929 0
M  V30 3451 N 335.529 1.53961 0.336706 0
M  V30 3452 C 336.757 1.75483 1.09605 0
M  V30 3453 C 337.172 0.4972 1.82136 0
M  V30 3454 O 336.529 -0.53149 1.74589 0
M  V30 3455 C 336.58 2.93943 2.10428 0
M  V30 3456 O 336.301 4.14842 1.40846 0
M  V30 3457 C 337.802 3.27571 2.98684 0
M  V30 3458 H 335.022 0.586166 0.326574 0
M  V30 3459 H 337.566 2.00808 0.38683 0
M  V30 3460 H 335.721 2.70929 2.76905 0
M  V30 3461 H 336.135 4.81383 2.08255 0
M  V30 3462 H 337.609 4.13791 3.6535 0
M  V30 3463 H 338.086 2.44168 3.65074 0
M  V30 3464 H 338.692 3.52615 2.37787 0
M  V30 3465 N 337.007 -0.598083 1.45811 0
M  V30 3466 C 337.955 -1.72932 1.55555 0
M  V30 3467 C 338.949 -1.63984 0.424921 0
M  V30 3468 O 340.155 -1.69663 0.601205 0
M  V30 3469 H 336.53 -0.571489 0.488779 0
M  V30 3470 H 338.501 -1.61842 2.50699 0
M  V30 3471 C 337.25 -3.11318 1.54843 0
M  V30 3472 H 336.573 -3.18867 2.41172 0
M  V30 3473 H 338.013 -3.90274 1.65717 0
M  V30 3474 C 336.472 -3.3578 0.274427 0
M  V30 3475 O 337.002 -3.9654 -0.641778 0
M  V30 3476 N 335.208 -2.90119 0.167139 0
M  V30 3477 H 334.755 -2.40855 0.913596 0
M  V30 3478 H 334.713 -3.0686 -0.684435 0
M  V30 3479 N 338.485 -1.33259 -0.841409 0
M  V30 3480 C 339.762 -1.15174 -1.58096 0
M  V30 3481 C 340.142 0.282858 -2.09196 0
M  V30 3482 O 339.49 1.28151 -1.89181 0
M  V30 3483 C 339.7 -2.1907 -2.71679 0
M  V30 3484 C 341.048 -2.53093 -3.40924 0
M  V30 3485 O 342.072 -2.17717 -2.81918 0
M  V30 3486 O 340.931 -3.1379 -4.47435 0
M  V30 3487 H 338.025 -0.445303 -0.696875 0
M  V30 3488 H 340.571 -1.44833 -0.884385 0
M  V30 3489 H 339.343 -3.15443 -2.31541 0
M  V30 3490 H 338.966 -1.90481 -3.49002 0
M  V30 3491 N 339.963 1.05934 -1.16686 0
M  V30 3492 C 341.188 1.83029 -0.975455 0
M  V30 3493 C 341.613 1.82096 0.471452 0
M  V30 3494 O 340.971 1.22443 1.33706 0
M  V30 3495 C 341.019 3.27372 -1.51195 0
M  V30 3496 O 340.123 4.06054 -0.720701 0
M  V30 3497 H 339.464 0.566194 -0.346872 0
M  V30 3498 H 341.994 1.33541 -1.55009 0
M  V30 3499 H 342.004 3.78186 -1.53099 0
M  V30 3500 H 340.679 3.27366 -2.56523 0
M  V30 3501 H 339.256 3.64812 -0.772458 0
M  V30 3502 N 341.441 0.965919 1.2453 0
M  V30 3503 C 342.371 0.513476 2.27784 0
M  V30 3504 C 343.352 -0.445974 1.6415 0
M  V30 3505 O 344.537 -0.342485 1.91156 0
M  V30 3506 C 341.667 -0.198839 3.4673 0
M  V30 3507 C 340.621 0.676456 4.2262 0
M  V30 3508 C 339.947 -0.167248 5.34438 0
M  V30 3509 C 341.247 1.96017 4.84123 0
M  V30 3510 H 342.941 1.3765 2.65881 0
M  V30 3511 H 340.487 0.663321 1.27813 0
M  V30 3512 H 342.44 -0.526567 4.18097 0
M  V30 3513 H 341.164 -1.0962 3.07654 0
M  V30 3514 H 339.823 0.98743 3.53052 0
M  V30 3515 H 339.471 -1.0647 4.91603 0
M  V30 3516 H 339.171 0.415181 5.86131 0
M  V30 3517 H 340.695 -0.489688 6.08633 0
M  V30 3518 H 342.109 1.69814 5.47573 0
M  V30 3519 H 340.506 2.48918 5.4604 0
M  V30 3520 H 341.576 2.65622 4.05676 0
M  V30 3521 N 342.919 -1.39368 0.735821 0
M  V30 3522 C 344.168 -1.99733 0.281004 0
M  V30 3523 C 344.481 -1.59055 -1.13846 0
M  V30 3524 O 345.687 -2.12262 -1.69284 0
M  V30 3525 C 344.143 -3.57057 0.451462 0
M  V30 3526 C 343.751 -4.06697 1.87886 0
M  V30 3527 C 345.495 -4.2446 0.0584616 0
M  V30 3528 C 343.402 -5.56598 1.99883 0
M  V30 3529 H 342.332 -0.747163 0.101311 0
M  V30 3530 H 344.983 -1.59357 0.909819 0
M  V30 3531 H 343.365 -3.95234 -0.246263 0
M  V30 3532 H 344.539 -3.79853 2.60861 0
M  V30 3533 H 342.854 -3.5196 2.22515 0
M  V30 3534 H 345.451 -5.34549 0.127099 0
M  V30 3535 H 345.794 -4.04444 -0.986433 0
M  V30 3536 H 346.327 -3.9146 0.707374 0
M  V30 3537 H 343.066 -5.81494 3.02564 0
M  V30 3538 H 342.586 -5.85242 1.31346 0
M  V30 3539 H 344.265 -6.22022 1.78039 0
M  V30 3540 N 344.397 -0.483516 -1.5 0
M  V30 3541 C 345.645 0.067027 -2.01989 0
M  V30 3542 C 345.966 1.3909 -1.36671 0
M  V30 3543 O 345.236 1.88978 -0.516152 0
M  V30 3544 H 343.816 0.0277606 -0.746484 0
M  V30 3545 H 346.478 -0.636773 -1.84204 0
M  V30 3546 H 345.574 0.209484 -3.11396 0
M  V30 3547 N 345.875 1.56104 -0.216619 0
M  V30 3548 C 347.122 1.98172 0.416416 0
M  V30 3549 C 347.45 1.10413 1.60122 0
M  V30 3550 O 346.705 0.147967 1.9514 0
M  V30 3551 C 347.004 3.45923 0.898464 0
M  V30 3552 C 346.67 4.50559 -0.175288 0
M  V30 3553 C 345.332 4.78897 -0.470271 0
M  V30 3554 C 347.684 5.1334 -0.901728 0
M  V30 3555 C 345.012 5.67299 -1.4963 0
M  V30 3556 C 347.364 6.02853 -1.91705 0
M  V30 3557 C 346.028 6.29537 -2.21901 0
M  V30 3558 H 345.298 0.725164 0.152377 0
M  V30 3559 H 347.945 1.88839 -0.318103 0
M  V30 3560 H 346.25 3.52434 1.71165 0
M  V30 3561 H 347.947 3.75841 1.39803 0
M  V30 3562 H 344.537 4.28551 0.0647806 0
M  V30 3563 H 348.721 4.91521 -0.687072 0
M  V30 3564 H 343.977 5.86239 -1.73592 0
M  V30 3565 H 348.151 6.50552 -2.48505 0
M  V30 3566 H 345.778 6.97835 -3.01548 0
M  V30 3567 N 347.353 -0.0568162 1.57498 0
M  V30 3568 C 348.601 -0.751617 1.87604 0
M  V30 3569 C 348.922 -1.77351 0.81066 0
M  V30 3570 O 348.192 -1.95254 -0.159018 0
M  V30 3571 H 346.772 -0.280583 0.692302 0
M  V30 3572 H 349.434 -0.0293483 1.94878 0
M  V30 3573 H 348.53 -1.25852 2.856 0
M  V30 3574 N 348.832 -1.54138 -0.328536 0
M  V30 3575 C 349.764 -1.79509 -1.4251 0
M  V30 3576 C 350.777 -0.67688 -1.48061 0
M  V30 3577 O 351.966 -0.953898 -1.50874 0
M  V30 3578 C 349.066 -1.89337 -2.81078 0
M  V30 3579 C 348.239 -3.19443 -2.98789 0
M  V30 3580 C 347.298 -3.20036 -4.17688 0
M  V30 3581 O 346.324 -3.93697 -4.11086 0
M  V30 3582 N 347.526 -2.43467 -5.26976 0
M  V30 3583 H 350.291 -2.74139 -1.21111 0
M  V30 3584 H 347.852 -1.53373 -0.518499 0
M  V30 3585 H 349.844 -1.87167 -3.58818 0
M  V30 3586 H 348.414 -1.01826 -2.95551 0
M  V30 3587 H 347.634 -3.34614 -2.08391 0
M  V30 3588 H 348.922 -4.05354 -3.07515 0
M  V30 3589 H 348.32 -1.83201 -5.35214 0
M  V30 3590 H 346.877 -2.4708 -6.03154 0
M  V30 3591 N 350.31 0.590341 -1.46126 0
M  V30 3592 C 351.726 0.912917 -1.30912 0
M  V30 3593 C 351.926 1.99616 -0.274893 0
M  V30 3594 O 350.982 2.50397 0.325197 0
M  V30 3595 C 352.295 1.3375 -2.69317 0
M  V30 3596 C 353.843 1.45077 -2.77348 0
M  V30 3597 C 354.318 1.90904 -4.16317 0
M  V30 3598 N 355.809 1.9811 -4.18696 0
M  V30 3599 C 356.544 2.34828 -5.23109 0
M  V30 3600 N 356.04 2.70393 -6.37856 0
M  V30 3601 N 357.833 2.35317 -5.10473 0
M  V30 3602 H 349.984 -0.125358 -2.1203 0
M  V30 3603 H 352.247 0.00658481 -0.947977 0
M  V30 3604 H 351.953 0.615614 -3.4627 0
M  V30 3605 H 351.827 2.30058 -2.9892 0
M  V30 3606 H 354.214 2.16353 -2.00687 0
M  V30 3607 H 354.295 0.4704 -2.51438 0
M  V30 3608 H 353.939 1.20209 -4.9347 0
M  V30 3609 H 353.869 2.89886 -4.39629 0
M  V30 3610 H 356.36 1.73146 -3.359 0
M  V30 3611 H 356.673 2.97341 -7.13308 0
M  V30 3612 H 355.018 2.68048 -6.41229 0
M  V30 3613 H 358.209 2.0695 -4.19868 0
M  V30 3614 H 358.382 2.63605 -5.9196 0
M  V30 3615 N 351.788 1.33704 0.83433 0
M  V30 3616 C 353.034 1.25603 1.59222 0
M  V30 3617 C 353.367 -0.176659 1.93395 0
M  V30 3618 O 352.642 -1.11915 1.59076 0
M  V30 3619 C 352.925 2.13576 2.89926 0
M  V30 3620 C 352.778 3.65326 2.62406 0
M  V30 3621 C 354.097 2.01238 3.91397 0
M  V30 3622 H 351.216 0.457613 0.577719 0
M  V30 3623 H 353.858 1.63848 0.961972 0
M  V30 3624 H 352.008 1.8109 3.43713 0
M  V30 3625 H 353.68 4.08124 2.15017 0
M  V30 3626 H 351.923 3.8698 1.96033 0
M  V30 3627 H 352.594 4.22232 3.55562 0
M  V30 3628 H 355.07 2.29738 3.46929 0
M  V30 3629 H 353.946 2.65036 4.80673 0
M  V30 3630 H 354.207 0.985951 4.30966 0
M  V30 3631 N 353.266 -1.05314 1.17247 0
M  V30 3632 C 354.216 -2.11313 0.856196 0
M  V30 3633 C 355.2 -1.60013 -0.168694 0
M  V30 3634 O 356.392 -1.76968 0.0335624 0
M  V30 3635 C 353.521 -3.41301 0.369917 0
M  V30 3636 C 352.607 -3.99401 1.42616 0
M  V30 3637 N 352.998 -4.31481 2.63928 0
M  V30 3638 C 351.296 -4.27126 1.28373 0
M  V30 3639 C 351.997 -4.77799 3.31787 0
M  V30 3640 N 350.973 -4.77843 2.59166 0
M  V30 3641 H 354.775 -2.33976 1.77856 0
M  V30 3642 H 352.289 -1.2295 1.06099 0
M  V30 3643 H 354.286 -4.16713 0.124897 0
M  V30 3644 H 352.946 -3.20072 -0.546253 0
M  V30 3645 H 353.957 -4.21519 3.00902 0
M  V30 3646 H 350.634 -4.15289 0.429111 0
M  V30 3647 H 352.024 -5.11743 4.35395 0
M  V30 3648 N 354.744 -0.972509 -1.24016 0
M  V30 3649 C 355.654 -0.5143 -2.28893 0
M  V30 3650 C 356.67 0.427078 -1.68677 0
M  V30 3651 O 357.846 0.298939 -1.99169 0
M  V30 3652 C 354.911 0.183598 -3.46214 0
M  V30 3653 C 353.972 -0.798202 -4.21814 0
M  V30 3654 C 353.205 -0.133514 -5.33533 0
M  V30 3655 O 353.428 1.07714 -5.60137 0
M  V30 3656 O 352.362 -0.828103 -5.96176 0
M  V30 3657 H 356.188 -1.38629 -2.70214 0
M  V30 3658 H 353.773 -0.739769 -1.29799 0
M  V30 3659 H 355.655 0.575433 -4.17453 0
M  V30 3660 H 354.33 1.03048 -3.0686 0
M  V30 3661 H 353.237 -1.24059 -3.52931 0
M  V30 3662 H 354.57 -1.61364 -4.64997 0
M  V30 3663 N 356.222 1.38976 -0.743202 0
M  V30 3664 C 357.452 2.04339 -0.304807 0
M  V30 3665 C 357.86 1.56162 1.06819 0
M  V30 3666 O 357.203 0.725284 1.68776 0
M  V30 3667 C 357.265 3.58716 -0.237369 0
M  V30 3668 C 356.929 4.29905 -1.55018 0
M  V30 3669 C 357.926 4.55987 -2.49744 0
M  V30 3670 C 355.611 4.68294 -1.81675 0
M  V30 3671 C 357.605 5.19478 -3.69353 0
M  V30 3672 C 355.292 5.31512 -3.0156 0
M  V30 3673 C 356.29 5.57037 -3.9522 0
M  V30 3674 O 355.978 6.18941 -5.12998 0
M  V30 3675 H 355.71 0.663439 -0.12971 0
M  V30 3676 H 358.264 1.78852 -1.01001 0
M  V30 3677 H 356.494 3.83133 0.524003 0
M  V30 3678 H 358.183 4.05543 0.170121 0
M  V30 3679 H 358.949 4.26767 -2.30423 0
M  V30 3680 H 354.828 4.47779 -1.09615 0
M  V30 3681 H 358.372 5.39318 -4.42473 0
M  V30 3682 H 354.269 5.60153 -3.20778 0
M  V30 3683 H 355.037 6.37433 -5.13441 0
M  V30 3684 N 357.7 0.491464 1.49741 0
M  V30 3685 C 358.94 -0.0549118 2.04326 0
M  V30 3686 C 359.304 -1.35148 1.36378 0
M  V30 3687 O 360.505 -1.9815 1.81631 0
M  V30 3688 C 358.776 -0.213841 3.5676 0
M  V30 3689 S 360.335 -0.715839 4.32922 0
M  V30 3690 H 357.153 -0.00630513 0.710972 0
M  V30 3691 H 359.755 0.663257 1.83905 0
M  V30 3692 H 358.459 0.73527 4.0376 0
M  V30 3693 H 357.99 -0.957529 3.81569 0
M  V30 3694 H 360.005 -1.9864 4.54705 0
M  V30 3695 N 359.178 -1.55987 0.224894 0
M  V30 3696 C 360.424 -1.98684 -0.406502 0
M  V30 3697 C 360.757 -1.11248 -1.59177 0
M  V30 3698 O 360.032 -0.170909 -1.93748 0
M  V30 3699 C 360.315 -3.50218 -0.837808 0
M  V30 3700 C 360.168 -4.48426 0.351332 0
M  V30 3701 C 361.487 -4.06243 -1.69278 0
M  V30 3702 H 358.606 -0.722337 -0.146283 0
M  V30 3703 H 361.248 -1.87255 0.321799 0
M  V30 3704 H 359.398 -3.60089 -1.45837 0
M  V30 3705 H 361.07 -4.50562 0.989526 0
M  V30 3706 H 359.313 -4.22159 0.998207 0
M  V30 3707 H 359.984 -5.52 0.00655905 0
M  V30 3708 H 362.46 -3.99337 -1.16914 0
M  V30 3709 H 361.336 -5.12581 -1.96346 0
M  V30 3710 H 361.597 -3.53332 -2.65723 0
M  V30 3711 N 360.656 0.0484629 -1.57525 0
M  V30 3712 C 361.619 1.03956 -2.04269 0
M  V30 3713 C 362.619 1.30211 -0.943496 0
M  V30 3714 O 363.809 1.25539 -1.20771 0
M  V30 3715 C 360.941 2.37742 -2.44319 0
M  V30 3716 H 362.134 0.636182 -2.93075 0
M  V30 3717 H 359.687 0.294811 -1.53494 0
M  V30 3718 H 360.422 2.82866 -1.5861 0
M  V30 3719 H 360.207 2.20021 -3.24551 0
M  V30 3720 H 361.697 3.08936 -2.80978 0
M  V30 3721 N 362.134 1.5431 0.320358 0
M  V30 3722 C 363.082 1.84647 1.4145 0
M  V30 3723 C 364.076 0.718624 1.53402 0
M  V30 3724 O 365.282 0.902335 1.5575 0
M  V30 3725 H 361.657 0.585349 0.472091 0
M  V30 3726 H 363.628 2.7614 1.13089 0
M  V30 3727 C 362.377 2.09341 2.77617 0
M  V30 3728 H 361.7 2.9559 2.69196 0
M  V30 3729 H 363.14 2.3452 3.53237 0
M  V30 3730 C 361.599 0.885939 3.25043 0
M  V30 3731 O 362.129 0.0967891 4.01583 0
M  V30 3732 N 360.335 0.696682 2.82125 0
M  V30 3733 H 359.882 1.34006 2.2 0
M  V30 3734 H 359.84 -0.109712 3.14209 0
M  V30 3735 N 363.613 -0.582584 1.46437 0
M  V30 3736 C 364.561 -1.71272 1.5738 0
M  V30 3737 C 365.555 -1.63524 0.44229 0
M  V30 3738 O 366.761 -1.69016 0.619166 0
M  V30 3739 H 363.136 -0.566273 0.494813 0
M  V30 3740 H 365.107 -1.59174 2.52401 0
M  V30 3741 C 363.856 -3.09658 1.58136 0
M  V30 3742 H 363.179 -3.16291 2.44541 0
M  V30 3743 H 364.619 -3.88494 1.69847 0
M  V30 3744 C 363.078 -3.3547 0.310026 0
M  V30 3745 O 363.608 -3.97199 -0.599683 0
M  V30 3746 N 361.814 -2.89925 0.197901 0
M  V30 3747 H 361.361 -2.39873 0.93909 0
M  V30 3748 H 361.319 -3.07568 -0.65185 0
M  V30 3749 N 365.091 -1.34144 -0.827227 0
M  V30 3750 C 366.34 -1.25602 -1.5782 0
M  V30 3751 C 366.653 0.173445 -1.94829 0
M  V30 3752 O 367.859 0.380984 -2.68814 0
M  V30 3753 C 366.315 -2.20151 -2.84713 0
M  V30 3754 C 365.923 -3.68331 -2.55021 0
M  V30 3755 C 367.667 -2.20508 -3.62735 0
M  V30 3756 C 365.574 -4.54762 -3.78082 0
M  V30 3757 H 364.504 -0.466573 -0.592306 0
M  V30 3758 H 367.155 -1.59283 -0.911116 0
M  V30 3759 H 365.537 -1.79417 -3.53023 0
M  V30 3760 H 366.711 -4.17577 -1.94849 0
M  V30 3761 H 365.026 -3.7038 -1.90283 0
M  V30 3762 H 367.623 -2.82306 -4.54101 0
M  V30 3763 H 367.966 -1.20322 -3.98533 0
M  V30 3764 H 368.499 -2.59664 -3.01362 0
M  V30 3765 H 365.238 -5.55867 -3.47407 0
M  V30 3766 H 364.758 -4.10254 -4.37552 0
M  V30 3767 H 366.437 -4.69153 -4.45538 0
M  V30 3768 N 366.569 1.04691 -1.17803 0
M  V30 3769 C 367.517 2.14665 -0.895635 0
M  V30 3770 C 368.511 1.68806 0.141679 0
M  V30 3771 O 369.717 1.79999 -0.00587914 0
M  V30 3772 H 366.092 0.701038 -0.272121 0
M  V30 3773 H 368.063 2.35685 -1.83017 0
M  V30 3774 C 366.812 3.45019 -0.430962 0
M  V30 3775 H 366.135 3.8071 -1.22064 0
M  V30 3776 H 367.575 4.23125 -0.272301 0
M  V30 3777 C 366.034 3.25943 0.852207 0
M  V30 3778 O 366.564 3.5296 1.91786 0
M  V30 3779 N 364.77 2.79304 0.802346 0
M  V30 3780 H 364.317 2.57518 -0.0650788 0
M  V30 3781 H 364.275 2.66921 1.66134 0
M  V30 3782 N 368.047 0.979072 1.23499 0
M  V30 3783 C 368.997 0.489378 2.22686 0
M  V30 3784 C 369.981 -0.434871 1.54912 0
M  V30 3785 O 371.173 -0.263941 1.75021 0
M  V30 3786 C 368.302 -0.208178 3.42668 0
M  V30 3787 C 367.388 0.735563 4.17672 0
M  V30 3788 N 367.779 1.87763 4.69658 0
M  V30 3789 C 366.077 0.548625 4.42613 0
M  V30 3790 C 366.778 2.46886 5.26709 0
M  V30 3791 N 365.754 1.75287 5.14563 0
M  V30 3792 H 369.556 1.36062 2.60508 0
M  V30 3793 H 367.07 0.83958 1.39014 0
M  V30 3794 H 369.067 -0.576295 4.12898 0
M  V30 3795 H 367.727 -1.07572 3.06363 0
M  V30 3796 H 368.738 2.25885 4.66043 0
M  V30 3797 H 365.415 -0.274006 4.166 0
M  V30 3798 H 366.805 3.43326 5.77561 0
M  V30 3799 N 369.525 -1.3858 0.750561 0
M  V30 3800 C 370.771 -2.00481 0.305825 0
M  V30 3801 C 371.104 -1.5944 -1.10872 0
M  V30 3802 O 370.379 -0.83052 -1.75877 0
M  V30 3803 C 370.662 -3.5758 0.425287 0
M  V30 3804 C 370.515 -4.08594 1.88072 0
M  V30 3805 C 371.834 -4.39719 -0.183122 0
M  V30 3806 H 368.953 -0.728348 0.112598 0
M  V30 3807 H 371.595 -1.64566 0.949638 0
M  V30 3808 H 369.745 -3.88306 -0.122828 0
M  V30 3809 H 371.417 -3.88523 2.48691 0
M  V30 3810 H 369.66 -3.61574 2.39681 0
M  V30 3811 H 370.331 -5.177 1.91548 0
M  V30 3812 H 372.807 -4.15128 0.284303 0
M  V30 3813 H 371.683 -5.48856 -0.0692757 0
M  V30 3814 H 371.944 -4.23434 -1.27106 0
M  V30 3815 N 371.003 -0.499398 -1.49478 0
M  V30 3816 C 372.233 0.0424839 -2.06556 0
M  V30 3817 C 372.641 1.31514 -1.36018 0
M  V30 3818 O 371.984 1.78555 -0.431718 0
M  V30 3819 C 372.046 0.368074 -3.57611 0
M  V30 3820 C 371.71 -0.806631 -4.49825 0
M  V30 3821 C 372.707 -1.69667 -4.91436 0
M  V30 3822 C 370.392 -1.00498 -4.92144 0
M  V30 3823 C 372.386 -2.76923 -5.74101 0
M  V30 3824 C 370.073 -2.08072 -5.74586 0
M  V30 3825 C 371.071 -2.96119 -6.15469 0
M  V30 3826 O 370.759 -4.01836 -6.96264 0
M  V30 3827 H 370.491 -0.0165165 -0.675798 0
M  V30 3828 H 373.045 -0.695497 -1.93267 0
M  V30 3829 H 371.275 1.15963 -3.68903 0
M  V30 3830 H 372.964 0.848381 -3.96935 0
M  V30 3831 H 373.73 -1.55524 -4.59388 0
M  V30 3832 H 369.609 -0.329036 -4.59824 0
M  V30 3833 H 373.153 -3.45676 -6.05932 0
M  V30 3834 H 369.05 -2.22211 -6.06047 0
M  V30 3835 H 369.818 -3.9917 -7.14567 0
M  V30 3836 N 372.481 1.55866 -0.233164 0
M  V30 3837 C 373.727 1.99643 0.389148 0
M  V30 3838 C 374.082 1.11836 1.56558 0
M  V30 3839 O 373.375 0.170848 1.90837 0
M  V30 3840 C 373.569 3.46856 0.861724 0
M  V30 3841 C 373.398 4.48904 -0.267376 0
M  V30 3842 C 372.168 4.99888 -0.737577 0
M  V30 3843 C 374.366 5.02624 -1.08966 0
M  V30 3844 N 372.348 5.8566 -1.84052 0
M  V30 3845 C 373.719 5.85434 -2.04125 0
M  V30 3846 C 375.774 4.84959 -1.12779 0
M  V30 3847 C 374.477 6.52466 -3.02789 0
M  V30 3848 C 376.503 5.52759 -2.10266 0
M  V30 3849 C 375.865 6.35346 -3.04162 0
M  V30 3850 H 371.964 0.774402 0.108742 0
M  V30 3851 H 374.548 1.91572 -0.347596 0
M  V30 3852 H 372.719 3.55352 1.5678 0
M  V30 3853 H 374.451 3.77531 1.45783 0
M  V30 3854 H 371.206 4.7249 -0.324122 0
M  V30 3855 H 371.63 6.33246 -2.39434 0
M  V30 3856 H 376.272 4.20751 -0.415749 0
M  V30 3857 H 373.99 7.15849 -3.74948 0
M  V30 3858 H 377.576 5.41051 -2.13905 0
M  V30 3859 H 376.456 6.86883 -3.78366 0
M  V30 3860 N 373.959 -0.0401083 1.57549 0
M  V30 3861 C 374.889 -1.04384 2.08869 0
M  V30 3862 C 375.87 -1.38407 0.988817 0
M  V30 3863 O 377.055 -1.47483 1.26342 0
M  V30 3864 C 374.185 -2.34808 2.55895 0
M  V30 3865 C 373.139 -2.15057 3.70047 0
M  V30 3866 C 372.465 -3.51145 4.03239 0
M  V30 3867 C 373.765 -1.54576 4.98902 0
M  V30 3868 H 375.459 -0.616666 2.92981 0
M  V30 3869 H 373.005 -0.295184 1.40942 0
M  V30 3870 H 374.958 -3.05346 2.90417 0
M  V30 3871 H 373.682 -2.79565 1.68853 0
M  V30 3872 H 372.341 -1.46954 3.35857 0
M  V30 3873 H 371.989 -3.93529 3.13279 0
M  V30 3874 H 371.689 -3.38758 4.80122 0
M  V30 3875 H 373.213 -4.23062 4.40285 0
M  V30 3876 H 374.627 -2.15017 5.31451 0
M  V30 3877 H 373.024 -1.52796 5.80322 0
M  V30 3878 H 374.094 -0.51039 4.82206 0
M  V30 3879 N 375.437 -1.54477 -0.31217 0
M  V30 3880 C 376.686 -1.72438 -1.04633 0
M  V30 3881 C 376.999 -0.511163 -1.88803 0
M  V30 3882 O 378.205 -0.572341 -2.65399 0
M  V30 3883 C 376.661 -3.05043 -1.9099 0
M  V30 3884 C 376.269 -4.33806 -1.11877 0
M  V30 3885 C 378.013 -3.32364 -2.64073 0
M  V30 3886 C 375.92 -5.57467 -1.97445 0
M  V30 3887 H 374.85 -0.642647 -0.394361 0
M  V30 3888 H 377.501 -1.80966 -0.303929 0
M  V30 3889 H 375.883 -2.90451 -2.69173 0
M  V30 3890 H 377.057 -4.59199 -0.383843 0
M  V30 3891 H 375.372 -4.13336 -0.504252 0
M  V30 3892 H 377.969 -4.21951 -3.28423 0
M  V30 3893 H 378.312 -2.50745 -3.32314 0
M  V30 3894 H 378.845 -3.47875 -1.92944 0
M  V30 3895 H 375.584 -6.41722 -1.33692 0
M  V30 3896 H 375.104 -5.36277 -2.6864 0
M  V30 3897 H 376.783 -5.94303 -2.5576 0
M  V30 3898 N 376.915 0.57481 -1.46744 0
M  V30 3899 C 377.847 1.69804 -1.53946 0
M  V30 3900 C 378.86 1.57098 -0.427106 0
M  V30 3901 O 380.049 1.64378 -0.695863 0
M  V30 3902 C 377.149 3.08125 -1.4111 0
M  V30 3903 C 376.322 3.46757 -2.66605 0
M  V30 3904 C 375.381 4.6417 -2.47855 0
M  V30 3905 O 374.407 4.69634 -3.21609 0
M  V30 3906 N 375.609 5.59553 -1.54534 0
M  V30 3907 H 378.374 1.64077 -2.50796 0
M  V30 3908 H 375.935 0.761 -1.429 0
M  V30 3909 H 377.927 3.84478 -1.26328 0
M  V30 3910 H 376.497 3.08175 -0.524109 0
M  V30 3911 H 375.717 2.6003 -2.96274 0
M  V30 3912 H 377.005 3.69337 -3.49954 0
M  V30 3913 H 376.403 5.57881 -0.937304 0
M  V30 3914 H 374.96 6.35304 -1.45711 0
M  V30 3915 N 378.394 1.34581 0.820102 0
M  V30 3916 C 379.642 1.26845 1.57336 0
M  V30 3917 C 379.963 -0.160667 1.94337 0
M  V30 3918 O 379.233 -1.09396 1.6251 0
M  V30 3919 H 377.813 0.466514 0.583415 0
M  V30 3920 H 380.475 1.68526 0.979027 0
M  V30 3921 H 379.571 1.87513 2.4949 0
M  V30 3922 N 379.872 -1.04064 1.18357 0
M  V30 3923 C 381.12 -1.76915 0.977013 0
M  V30 3924 C 381.441 -1.88624 -0.494577 0
M  V30 3925 O 380.711 -1.41125 -1.3587 0
M  V30 3926 H 379.291 -0.65535 0.358504 0
M  V30 3927 H 381.953 -1.25592 1.49039 0
M  V30 3928 H 381.049 -2.78178 1.41504 0
M  V30 3929 N 381.35 -0.985608 -1.22978 0
M  V30 3930 C 382.598 -0.656087 -1.91154 0
M  V30 3931 C 382.919 0.813561 -1.77218 0
M  V30 3932 O 382.189 1.58244 -1.1548 0
M  V30 3933 H 380.769 -0.239674 -0.707506 0
M  V30 3934 H 383.431 -1.25054 -1.49491 0
M  V30 3935 H 382.527 -0.912253 -2.9847 0
M  V30 3936 N 382.828 1.3818 -0.7579 0
M  V30 3937 C 383.778 2.27741 -0.108674 0
M  V30 3938 C 384.762 1.45415 0.688709 0
M  V30 3939 O 385.954 1.68108 0.553956 0
M  V30 3940 C 383.083 3.34313 0.780367 0
M  V30 3941 C 382.169 4.24093 -0.0240977 0
M  V30 3942 N 382.56 4.9451 -1.06271 0
M  V30 3943 C 380.858 4.45542 0.202049 0
M  V30 3944 C 381.559 5.60675 -1.54979 0
M  V30 3945 N 380.535 5.36684 -0.864348 0
M  V30 3946 H 384.337 2.79649 -0.904071 0
M  V30 3947 H 381.851 1.51133 -0.594346 0
M  V30 3948 H 383.848 3.97368 1.26114 0
M  V30 3949 H 382.508 2.83962 1.57467 0
M  V30 3950 H 383.519 4.97345 -1.44459 0
M  V30 3951 H 380.196 4.06091 0.96935 0
M  V30 3952 H 381.586 6.26992 -2.41517 0
M  V30 3953 N 384.306 0.507319 1.49211 0
M  V30 3954 C 385.583 -0.0982702 1.95353 0
M  V30 3955 C 385.963 -1.53516 1.449 0
M  V30 3956 O 385.311 -2.18594 0.66551 0
M  V30 3957 C 385.521 -0.00440283 3.49 0
M  V30 3958 C 386.869 -0.175147 4.24239 0
M  V30 3959 O 387.893 -0.0792891 3.56112 0
M  V30 3960 O 386.752 -0.37276 5.45227 0
M  V30 3961 H 383.846 -0.0918236 0.821887 0
M  V30 3962 H 386.392 0.570307 1.5983 0
M  V30 3963 H 385.164 0.997402 3.78375 0
M  V30 3964 H 384.787 -0.712845 3.91158 0
M  V30 3965 N 385.784 -1.5574 0.241426 0
M  V30 3966 C 387.031 -1.9881 -0.384836 0
M  V30 3967 C 387.359 -1.12947 -1.58346 0
M  V30 3968 O 386.614 -0.178993 -1.9488 0
M  V30 3969 C 386.913 -3.47308 -0.843317 0
M  V30 3970 C 386.579 -4.50223 0.246946 0
M  V30 3971 C 385.241 -4.78088 0.546399 0
M  V30 3972 C 387.593 -5.11841 0.983282 0
M  V30 3973 C 384.921 -5.64846 1.58636 0
M  V30 3974 C 387.273 -5.99727 2.01272 0
M  V30 3975 C 385.937 -6.25927 2.31888 0
M  V30 3976 H 385.207 -0.727496 -0.140821 0
M  V30 3977 H 387.854 -1.8831 0.348106 0
M  V30 3978 H 386.159 -3.55112 -1.65537 0
M  V30 3979 H 387.856 -3.78017 -1.33806 0
M  V30 3980 H 384.446 -4.286 0.00340639 0
M  V30 3981 H 388.63 -4.90366 0.765182 0
M  V30 3982 H 383.886 -5.83403 1.82896 0
M  V30 3983 H 388.06 -6.46517 2.58823 0
M  V30 3984 H 385.687 -6.92949 3.12611 0
M  V30 3985 N 387.262 0.0317525 -1.57568 0
M  V30 3986 C 388.21 1.05165 -2.07468 0
M  V30 3987 C 389.204 1.3761 -0.98792 0
M  V30 3988 O 390.41 1.36546 -1.17282 0
M  V30 3989 H 386.785 0.35666 -0.66204 0
M  V30 3990 H 388.756 0.604958 -2.92203 0
M  V30 3991 C 387.505 2.34488 -2.56731 0
M  V30 3992 H 386.828 2.10383 -3.39969 0
M  V30 3993 H 388.268 3.04203 -2.95358 0
M  V30 3994 C 386.727 3.03266 -1.46736 0
M  V30 3995 O 387.257 3.92988 -0.832069 0
M  V30 3996 N 385.463 2.6455 -1.20256 0
M  V30 3997 H 385.01 1.91674 -1.72102 0
M  V30 3998 H 384.968 3.10886 -0.468737 0
M  V30 3999 N 388.74 1.54641 0.303973 0
M  V30 4000 C 389.986 1.74038 1.04109 0
M  V30 4001 C 390.319 0.523051 1.87024 0
M  V30 4002 O 389.594 -0.479874 1.88487 0
M  V30 4003 C 389.877 3.02761 1.94955 0
M  V30 4004 C 389.73 4.34787 1.1524 0
M  V30 4005 C 391.049 3.27336 2.94175 0
M  V30 4006 H 388.168 0.63323 0.377079 0
M  V30 4007 H 390.81 1.87354 0.316001 0
M  V30 4008 H 388.96 2.9154 2.56782 0
M  V30 4009 H 390.632 4.57922 0.557236 0
M  V30 4010 H 388.875 4.31407 0.455053 0
M  V30 4011 H 389.546 5.21116 1.8205 0
M  V30 4012 H 392.022 3.38148 2.42477 0
M  V30 4013 H 390.898 4.18726 3.54908 0
M  V30 4014 H 391.159 2.45491 3.67677 0
M  V30 4015 N 390.218 -0.567019 1.47046 0
M  V30 4016 C 391.464 -1.32434 1.54379 0
M  V30 4017 C 391.819 -1.91365 0.199276 0
M  V30 4018 O 391.112 -1.74378 -0.793915 0
M  V30 4019 C 391.306 -2.4623 2.59047 0
M  V30 4020 C 391.135 -1.98448 4.03545 0
M  V30 4021 C 389.905 -1.82741 4.71098 0
M  V30 4022 C 392.103 -1.53477 4.90866 0
M  V30 4023 N 390.085 -1.29196 6.00151 0
M  V30 4024 C 391.456 -1.1163 6.09868 0
M  V30 4025 C 393.511 -1.41438 4.77388 0
M  V30 4026 C 392.214 -0.589425 7.16881 0
M  V30 4027 C 394.24 -0.901528 5.84488 0
M  V30 4028 C 393.602 -0.492932 7.02673 0
M  V30 4029 H 389.701 -0.477005 0.61967 0
M  V30 4030 H 392.285 -0.643856 1.83746 0
M  V30 4031 H 390.456 -3.11821 2.31564 0
M  V30 4032 H 392.188 -3.13213 2.56281 0
M  V30 4033 H 388.943 -2.05162 4.26855 0
M  V30 4034 H 389.367 -1.0454 6.6888 0
M  V30 4035 H 394.009 -1.71643 3.86392 0
M  V30 4036 H 391.727 -0.274994 8.07632 0
M  V30 4037 H 395.313 -0.812071 5.76105 0
M  V30 4038 H 394.193 -0.102227 7.84133 0
M  V30 4039 N 391.696 -1.35014 -0.812953 0
M  V30 4040 C 392.643 -1.27412 -1.92444 0
M  V30 4041 C 393.613 -0.14733 -1.65445 0
M  V30 4042 O 394.798 -0.329974 -1.87925 0
M  V30 4043 C 391.938 -1.04558 -3.28879 0
M  V30 4044 C 391.051 -2.26101 -3.68106 0
M  V30 4045 C 390.186 -1.96449 -4.9354 0
M  V30 4046 C 389.225 -3.14081 -5.25376 0
M  V30 4047 N 388.362 -2.84246 -6.41988 0
M  V30 4048 H 393.202 -2.22463 -1.98278 0
M  V30 4049 H 390.739 -1.10593 -0.969933 0
M  V30 4050 H 392.697 -0.893413 -4.07522 0
M  V30 4051 H 391.327 -0.131719 -3.22531 0
M  V30 4052 H 390.379 -2.52204 -2.84775 0
M  V30 4053 H 391.691 -3.13959 -3.87597 0
M  V30 4054 H 390.845 -1.78026 -5.79993 0
M  V30 4055 H 389.584 -1.05867 -4.76071 0
M  V30 4056 H 388.589 -3.33089 -4.37415 0
M  V30 4057 H 389.814 -4.05455 -5.44778 0
M  V30 4058 H 387.76 -1.96252 -6.25956 0
M  V30 4059 H 387.677 -3.65637 -6.61699 0
M  V30 4060 H 388.945 -2.6935 -7.31485 0
M  V30 4061 N 393.175 1.03435 -1.18907 0
M  V30 4062 C 394.586 1.58195 -0.991523 0
M  V30 4063 C 394.937 1.90801 0.457081 0
M  V30 4064 O 394.062 1.70272 1.33553 0
M  V30 4065 C 394.657 2.87432 -1.79355 0
M  V30 4066 C 393.216 3.38785 -1.64017 0
M  V30 4067 C 392.363 2.12292 -1.78402 0
M  V30 4068 H 395.314 0.860299 -1.33359 0
M  V30 4069 H 395.335 3.58096 -1.28638 0
M  V30 4070 H 394.847 2.63669 -2.84781 0
M  V30 4071 H 392.948 3.67547 -0.611536 0
M  V30 4072 H 393.061 4.12186 -2.44212 0
M  V30 4073 H 391.425 2.23901 -1.2141 0
M  V30 4074 H 392.208 1.90977 -2.85277 0
M  V30 4075 N 394.653 0.992116 1.22453 0
M  V30 4076 C 395.901 0.666215 1.90804 0
M  V30 4077 C 396.222 -0.804152 1.77647 0
M  V30 4078 O 395.492 -1.57629 1.16318 0
M  V30 4079 H 394.072 0.243423 0.706225 0
M  V30 4080 H 396.734 1.25845 1.48825 0
M  V30 4081 H 395.83 0.928069 2.97982 0
M  V30 4082 N 396.131 -1.37776 0.765217 0
M  V30 4083 C 397.061 -2.32945 0.160953 0
M  V30 4084 C 398.042 -1.55454 -0.690516 0
M  V30 4085 O 399.227 -1.83721 -0.629318 0
M  V30 4086 C 396.357 -3.39669 -0.724031 0
M  V30 4087 C 395.311 -4.27992 0.0256173 0
M  V30 4088 C 394.637 -5.25673 -0.978383 0
M  V30 4089 C 395.937 -5.08309 1.20082 0
M  V30 4090 H 397.631 -2.83728 0.955969 0
M  V30 4091 H 395.177 -1.36416 0.461149 0
M  V30 4092 H 397.13 -4.05219 -1.15652 0
M  V30 4093 H 395.854 -2.87396 -1.5515 0
M  V30 4094 H 394.513 -3.63964 0.438812 0
M  V30 4095 H 394.161 -4.69682 -1.80022 0
M  V30 4096 H 393.861 -5.85625 -0.481378 0
M  V30 4097 H 395.385 -5.94098 -1.40995 0
M  V30 4098 H 396.799 -5.67034 0.845307 0
M  V30 4099 H 395.196 -5.77554 1.62947 0
M  V30 4100 H 396.266 -4.41365 2.00811 0
M  V30 4101 N 397.609 -0.515225 -1.4894 0
M  V30 4102 C 398.855 0.016187 -2.03394 0
M  V30 4103 C 399.21 1.33377 -1.38666 0
M  V30 4104 O 398.503 1.84461 -0.518141 0
M  V30 4105 C 398.697 0.210595 -3.56779 0
M  V30 4106 C 398.526 -1.08659 -4.36375 0
M  V30 4107 C 397.296 -1.64237 -4.77864 0
M  V30 4108 C 399.494 -1.9935 -4.74093 0
M  V30 4109 N 397.476 -2.88398 -5.41941 0
M  V30 4110 C 398.847 -3.08088 -5.38035 0
M  V30 4111 C 400.902 -1.99856 -4.56029 0
M  V30 4112 C 399.605 -4.17377 -5.85823 0
M  V30 4113 C 401.631 -3.08129 -5.04787 0
M  V30 4114 C 400.993 -4.15586 -5.68742 0
M  V30 4115 H 397.092 -0.0352107 -0.781207 0
M  V30 4116 H 399.676 -0.693237 -1.8194 0
M  V30 4117 H 397.847 0.889088 -3.78087 0
M  V30 4118 H 399.579 0.740287 -3.97872 0
M  V30 4119 H 396.334 -1.18566 -4.58518 0
M  V30 4120 H 396.758 -3.51572 -5.78555 0
M  V30 4121 H 401.4 -1.18079 -4.05977 0
M  V30 4122 H 399.118 -4.99943 -6.34888 0
M  V30 4123 H 402.704 -3.09557 -4.92611 0
M  V30 4124 H 401.584 -4.97987 -6.05787 0
M  V30 4125 N 399.087 1.5561 -0.249682 0
M  V30 4126 C 400.035 2.22894 0.664906 0
M  V30 4127 C 401.029 1.21743 1.17792 0
M  V30 4128 O 402.235 1.39748 1.13449 0
M  V30 4129 H 398.61 0.715022 0.232912 0
M  V30 4130 H 400.581 2.98307 0.0742998 0
M  V30 4131 C 399.33 2.94424 1.84959 0
M  V30 4132 H 398.653 3.72031 1.46399 0
M  V30 4133 H 400.093 3.44862 2.4667 0
M  V30 4134 C 398.552 1.98454 2.72245 0
M  V30 4135 O 399.082 1.51939 3.71857 0
M  V30 4136 N 397.288 1.65496 2.38871 0
M  V30 4137 H 396.835 2.03517 1.57919 0
M  V30 4138 H 396.793 1.0155 2.97548 0
M  V30 4139 N 400.565 -0.0233959 1.57583 0
M  V30 4140 C 401.812 -0.713063 1.8953 0
M  V30 4141 C 402.14 -1.75056 0.847673 0
M  V30 4142 O 401.395 -1.95119 -0.150636 0
M  V30 4143 C 401.694 -1.41428 3.28227 0
M  V30 4144 C 401.36 -0.512222 4.47981 0
M  V30 4145 C 400.022 -0.263785 4.80476 0
M  V30 4146 C 402.374 0.110248 5.21083 0
M  V30 4147 C 399.702 0.615804 5.83459 0
M  V30 4148 C 402.054 0.977573 6.25001 0
M  V30 4149 C 400.718 1.23542 6.55968 0
M  V30 4150 H 399.988 -0.260928 0.69354 0
M  V30 4151 H 402.635 0.0271047 1.91481 0
M  V30 4152 H 400.94 -2.22791 3.22291 0
M  V30 4153 H 402.637 -1.95355 3.50196 0
M  V30 4154 H 399.227 -0.716013 4.22577 0
M  V30 4155 H 403.411 -0.0687137 4.96252 0
M  V30 4156 H 398.667 0.82382 6.05824 0
M  V30 4157 H 402.841 1.46638 6.80786 0
M  V30 4158 H 400.468 1.91871 7.35588 0
M  V30 4159 N 402.043 -1.548 -0.295768 0
M  V30 4160 C 402.973 -1.89115 -1.36959 0
M  V30 4161 C 403.954 -0.75059 -1.52644 0
M  V30 4162 O 405.139 -1.00678 -1.66065 0
M  V30 4163 C 402.269 -2.14307 -2.73295 0
M  V30 4164 C 401.223 -3.30151 -2.72368 0
M  V30 4165 C 400.549 -3.40772 -4.12042 0
M  V30 4166 C 401.849 -4.67126 -2.33646 0
M  V30 4167 H 403.543 -2.79053 -1.08488 0
M  V30 4168 H 401.089 -1.34266 -0.520443 0
M  V30 4169 H 403.042 -2.36898 -3.48507 0
M  V30 4170 H 401.766 -1.21145 -3.03301 0
M  V30 4171 H 400.425 -3.0749 -1.99613 0
M  V30 4172 H 400.073 -2.45117 -4.39234 0
M  V30 4173 H 399.773 -4.18645 -4.12322 0
M  V30 4174 H 401.297 -3.6563 -4.89027 0
M  V30 4175 H 402.711 -4.89414 -2.98575 0
M  V30 4176 H 401.108 -5.47751 -2.45129 0
M  V30 4177 H 402.178 -4.67489 -1.28772 0
M  V30 4178 N 403.521 0.559213 -1.47345 0
M  V30 4179 C 404.453 1.68161 -1.55738 0
M  V30 4180 C 405.466 1.56636 -0.443744 0
M  V30 4181 O 406.655 1.6363 -0.713258 0
M  V30 4182 C 403.755 3.06611 -1.4437 0
M  V30 4183 C 402.928 3.4391 -2.70268 0
M  V30 4184 C 401.987 4.61515 -2.52765 0
M  V30 4185 O 401.013 4.66197 -3.26572 0
M  V30 4186 N 402.215 5.57883 -1.6046 0
M  V30 4187 H 404.98 1.61408 -2.52522 0
M  V30 4188 H 402.541 0.7458 -1.43699 0
M  V30 4189 H 404.533 3.83117 -1.30398 0
M  V30 4190 H 403.103 3.07602 -0.556766 0
M  V30 4191 H 402.323 2.56873 -2.99015 0
M  V30 4192 H 403.611 3.65605 -3.53851 0
M  V30 4193 H 403.009 5.56855 -0.996422 0
M  V30 4194 H 401.566 6.33723 -1.52441 0
M  V30 4195 N 404.999 1.35443 0.805782 0
M  V30 4196 C 405.932 1.22783 1.92353 0
M  V30 4197 C 406.91 0.115543 1.62189 0
M  V30 4198 O 408.094 0.283778 1.86352 0
M  V30 4199 C 405.221 0.890746 3.26777 0
M  V30 4200 C 404.267 2.01519 3.75889 0
M  V30 4201 S 405.1 3.63101 3.93596 0
M  V30 4202 C 406.256 3.31472 5.30921 0
M  V30 4203 H 406.489 2.17394 2.02798 0
M  V30 4204 H 404.022 1.20669 0.963245 0
M  V30 4205 H 405.98 0.703068 4.04434 0
M  V30 4206 H 404.641 -0.0373152 3.14078 0
M  V30 4207 H 403.834 1.7335 4.7325 0
M  V30 4208 H 403.436 2.16124 3.05231 0
M  V30 4209 H 405.728 2.8435 6.1494 0
M  V30 4210 H 406.671 4.28036 5.64084 0
M  V30 4211 H 407.079 2.67221 4.97246 0
M  V30 4212 N 406.477 -1.02803 1.19454 0
M  V30 4213 C 407.44 -2.09264 0.934955 0
M  V30 4214 C 408.44 -1.60576 -0.0849015 0
M  V30 4215 O 409.63 -1.73554 0.149933 0
M  V30 4216 C 406.762 -3.38482 0.40531 0
M  V30 4217 H 407.955 -2.33726 1.87916 0
M  V30 4218 H 405.508 -1.19426 1.00832 0
M  V30 4219 H 406.243 -3.19689 -0.544899 0
M  V30 4220 H 406.028 -3.75142 1.14065 0
M  V30 4221 H 407.518 -4.16894 0.242806 0
M  V30 4222 N 407.956 -0.998596 -1.21925 0
M  V30 4223 C 409.233 -0.593401 -1.86382 0
M  V30 4224 C 409.613 0.92916 -1.89552 0
M  V30 4225 O 408.961 1.81347 -1.39017 0
M  V30 4226 C 409.171 -1.22039 -3.26967 0
M  V30 4227 C 410.519 -1.32449 -4.03413 0
M  V30 4228 O 411.543 -1.17522 -3.36254 0
M  V30 4229 O 410.402 -1.56395 -5.23644 0
M  V30 4230 H 407.496 -0.202385 -0.801854 0
M  V30 4231 H 410.042 -1.09484 -1.29659 0
M  V30 4232 H 408.814 -2.26158 -3.19325 0
M  V30 4233 H 408.437 -0.704906 -3.91301 0
M  V30 4234 N 409.434 1.37368 -0.772513 0
M  V30 4235 C 410.344 2.34053 -0.160081 0
M  V30 4236 C 411.36 1.60216 0.678728 0
M  V30 4237 O 412.536 1.92303 0.59847 0
M  V30 4238 C 409.601 3.3939 0.708182 0
M  V30 4239 C 408.662 4.29048 -0.147172 0
M  V30 4240 C 407.895 5.29354 0.679744 0
M  V30 4241 O 408.118 5.3723 1.91678 0
M  V30 4242 O 407.052 6.01835 0.0885444 0
M  V30 4243 H 410.878 2.88159 -0.959053 0
M  V30 4244 H 408.463 1.39543 -0.533685 0
M  V30 4245 H 410.345 4.03839 1.20384 0
M  V30 4246 H 409.02 2.8761 1.48533 0
M  V30 4247 H 407.927 3.67697 -0.689205 0
M  V30 4248 H 409.26 4.84134 -0.887423 0
M  V30 4249 N 410.912 0.523116 1.48665 0
M  V30 4250 C 411.875 -0.232592 2.28017 0
M  V30 4251 C 412.875 -0.874021 1.34972 0
M  V30 4252 O 414.065 -0.735132 1.57929 0
M  V30 4253 C 411.197 -1.33586 3.13636 0
M  V30 4254 H 412.39 0.464008 2.96289 0
M  V30 4255 H 409.943 0.278816 1.53793 0
M  V30 4256 H 410.678 -2.06593 2.4998 0
M  V30 4257 H 410.463 -0.881125 3.82071 0
M  V30 4258 H 411.953 -1.86759 3.73511 0
M  V30 4259 N 412.39 -1.55475 0.257931 0
M  V30 4260 C 413.638 -1.98813 -0.363009 0
M  V30 4261 C 413.959 -1.14757 -1.57657 0
M  V30 4262 O 413.229 -0.232956 -1.9451 0
M  V30 4263 H 411.809 -0.734308 -0.137113 0
M  V30 4264 H 414.471 -1.9156 0.359281 0
M  V30 4265 H 413.567 -3.04941 -0.664634 0
M  V30 4266 N 413.868 0.0150385 -1.57593 0
M  V30 4267 C 414.798 1.01047 -2.10503 0
M  V30 4268 C 415.779 1.36816 -1.01071 0
M  V30 4269 O 416.964 1.45455 -1.28672 0
M  V30 4270 C 414.094 2.30708 -2.59598 0
M  V30 4271 C 413.048 2.09142 -3.73421 0
M  V30 4272 C 412.374 3.44685 -4.08774 0
M  V30 4273 C 413.674 1.46619 -5.01298 0
M  V30 4274 H 415.368 0.569978 -2.93925 0
M  V30 4275 H 412.914 0.272724 -1.41394 0
M  V30 4276 H 414.867 3.00687 -2.95238 0
M  V30 4277 H 413.591 2.76843 -1.73279 0
M  V30 4278 H 412.25 1.41592 -3.38153 0
M  V30 4279 H 411.898 3.88495 -3.195 0
M  V30 4280 H 411.598 3.31077 -4.8545 0
M  V30 4281 H 413.122 4.16004 -4.4696 0
M  V30 4282 H 414.536 2.06535 -5.34805 0
M  V30 4283 H 412.933 1.43544 -5.82679 0
M  V30 4284 H 414.003 0.433611 -4.82957 0
M  V30 4285 N 415.346 1.54954 0.287554 0
M  V30 4286 C 416.574 1.78881 1.03967 0
M  V30 4287 C 416.989 0.554894 1.80462 0
M  V30 4288 O 416.346 -0.475676 1.76192 0
M  V30 4289 C 416.397 3.00488 2.0097 0
M  V30 4290 O 416.118 4.19113 1.27577 0
M  V30 4291 C 417.619 3.36907 2.88112 0
M  V30 4292 H 414.839 0.596259 0.307761 0
M  V30 4293 H 417.383 2.01937 0.322749 0
M  V30 4294 H 415.538 2.79601 2.68145 0
M  V30 4295 H 415.952 4.87765 1.92835 0
M  V30 4296 H 417.426 4.25205 3.52001 0
M  V30 4297 H 417.903 2.55659 3.57121 0
M  V30 4298 H 418.509 3.60001 2.26449 0
M  V30 4299 N 416.824 -0.551391 1.4764 0
M  V30 4300 C 418.24 -0.877887 1.33287 0
M  V30 4301 C 418.44 -1.98817 0.327721 0
M  V30 4302 O 417.496 -2.51171 -0.258695 0
M  V30 4303 C 418.809 -1.26563 2.72768 0
M  V30 4304 C 420.357 -1.37673 2.81097 0
M  V30 4305 C 420.832 -1.79799 4.21232 0
M  V30 4306 N 422.323 -1.8694 4.23802 0
M  V30 4307 C 423.058 -2.20876 5.29151 0
M  V30 4308 N 422.554 -2.53386 6.448 0
M  V30 4309 N 424.347 -2.217 5.16532 0
M  V30 4310 H 416.498 0.18153 2.11623 0
M  V30 4311 H 418.761 0.0185514 0.947818 0
M  V30 4312 H 418.467 -0.523591 3.47781 0
M  V30 4313 H 418.341 -2.22052 3.04915 0
M  V30 4314 H 420.728 -2.10956 2.06353 0
M  V30 4315 H 420.809 -0.40357 2.52596 0
M  V30 4316 H 420.453 -1.07083 4.96483 0
M  V30 4317 H 420.383 -2.78128 4.4716 0
M  V30 4318 H 422.874 -1.64179 3.40373 0
M  V30 4319 H 423.187 -2.78325 7.20941 0
M  V30 4320 H 421.532 -2.50953 6.48111 0
M  V30 4321 H 424.723 -1.95745 4.25207 0
M  V30 4322 H 424.896 -2.47818 5.98741 0
M  V30 4323 N 418.302 -1.35869 -0.798587 0
M  V30 4324 C 419.579 -1.20145 -1.54352 0
M  V30 4325 C 419.959 0.216161 -2.0999 0
M  V30 4326 O 419.307 1.22068 -1.93162 0
M  V30 4327 C 419.517 -2.27602 -2.64572 0
M  V30 4328 C 420.865 -2.63811 -3.32699 0
M  V30 4329 O 421.889 -2.26576 -2.74849 0
M  V30 4330 O 420.748 -3.27866 -4.37226 0
M  V30 4331 H 417.842 -0.467248 -0.682355 0
M  V30 4332 H 420.388 -1.47574 -0.837859 0
M  V30 4333 H 419.16 -3.2265 -2.21388 0
M  V30 4334 H 418.783 -2.01488 -3.42766 0
M  V30 4335 N 419.78 1.02168 -1.19998 0
M  V30 4336 C 421.028 1.75338 -1.00504 0
M  V30 4337 C 421.349 1.89387 0.464506 0
M  V30 4338 O 420.619 1.43268 1.33608 0
M  V30 4339 H 419.199 0.649564 -0.368885 0
M  V30 4340 H 421.861 1.23205 -1.51018 0
M  V30 4341 H 420.957 2.75892 -1.45912 0
M  V30 4342 N 421.258 1.00505 1.21394 0
M  V30 4343 C 422.206 0.558623 2.25792 0
M  V30 4344 C 423.2 -0.396848 1.64686 0
M  V30 4345 O 424.406 -0.268035 1.77993 0
M  V30 4346 H 420.781 0.1623 0.734277 0
M  V30 4347 H 422.752 1.4503 2.60785 0
M  V30 4348 C 421.501 -0.0989574 3.47559 0
M  V30 4349 H 420.824 0.627225 3.94849 0
M  V30 4350 H 422.264 -0.3746 4.22342 0
M  V30 4351 C 420.723 -1.33817 3.09184 0
M  V30 4352 O 421.253 -2.43252 3.19674 0
M  V30 4353 N 419.459 -1.21793 2.63846 0
M  V30 4354 H 419.006 -0.32746 2.5551 0
M  V30 4355 H 418.964 -2.04809 2.38539 0
M  V30 4356 N 422.737 -1.36956 0.779787 0
M  V30 4357 C 423.965 -2.03755 0.359398 0
M  V30 4358 C 424.38 -1.58807 -1.02106 0
M  V30 4359 O 423.737 -0.773024 -1.6532 0
M  V30 4360 C 423.788 -3.59251 0.402568 0
M  V30 4361 O 423.509 -4.02557 1.72858 0
M  V30 4362 C 425.01 -4.43291 -0.0284068 0
M  V30 4363 H 422.23 -0.654148 0.149437 0
M  V30 4364 H 424.774 -1.75128 1.05595 0
M  V30 4365 H 422.929 -3.86621 -0.245478 0
M  V30 4366 H 423.343 -4.97111 1.67275 0
M  V30 4367 H 424.817 -5.51975 0.0529466 0
M  V30 4368 H 425.294 -4.25719 -1.07982 0
M  V30 4369 H 425.9 -4.21163 0.591758 0
M  V30 4370 N 424.215 -0.530993 -1.48385 0
M  V30 4371 C 425.626 -0.0907905 -1.86479 0
M  V30 4372 C 425.977 1.33213 -1.44044 0
M  V30 4373 O 425.102 1.99783 -0.831615 0
M  V30 4374 C 425.697 -0.157987 -3.38431 0
M  V30 4375 C 424.256 0.227026 -3.75715 0
M  V30 4376 C 423.403 -0.5173 -2.72432 0
M  V30 4377 H 426.354 -0.742186 -1.40276 0
M  V30 4378 H 426.375 0.630053 -3.75247 0
M  V30 4379 H 425.887 -1.19372 -3.69286 0
M  V30 4380 H 423.988 1.26486 -3.50474 0
M  V30 4381 H 424.101 -0.113288 -4.78966 0
M  V30 4382 H 422.465 0.0365527 -2.54674 0
M  V30 4383 H 423.248 -1.55368 -3.0613 0
M  V30 4384 N 425.693 1.55336 -0.266172 0
M  V30 4385 C 426.939 1.99692 0.353681 0
M  V30 4386 C 427.272 1.1543 1.56172 0
M  V30 4387 O 426.547 0.222218 1.93226 0
M  V30 4388 C 426.83 3.52316 0.74466 0
M  V30 4389 C 426.683 4.47337 -0.470101 0
M  V30 4390 C 428.002 4.10588 1.58447 0
M  V30 4391 H 425.121 0.725961 0.12708 0
M  V30 4392 H 427.763 1.86336 -0.371333 0
M  V30 4393 H 425.913 3.63829 1.36239 0
M  V30 4394 H 427.585 4.4778 -1.10864 0
M  V30 4395 H 425.828 4.19364 -1.10978 0
M  V30 4396 H 426.499 5.51788 -0.15291 0
M  V30 4397 H 428.975 4.02297 1.06286 0
M  V30 4398 H 427.851 5.17607 1.82686 0
M  V30 4399 H 428.112 3.60253 2.56262 0
M  V30 4400 N 427.171 -0.0066808 1.57599 0
M  V30 4401 C 428.582 -0.550379 1.78403 0
M  V30 4402 C 428.933 -1.74339 0.900014 0
M  V30 4403 O 428.058 -2.16166 0.100713 0
M  V30 4404 C 428.653 -1.00523 3.23544 0
M  V30 4405 C 427.212 -1.49428 3.45468 0
M  V30 4406 C 426.359 -0.442444 2.73748 0
M  V30 4407 H 429.31 0.219508 1.57175 0
M  V30 4408 H 429.331 -1.87157 3.31289 0
M  V30 4409 H 428.843 -0.136735 3.87859 0
M  V30 4410 H 426.944 -2.3839 2.86358 0
M  V30 4411 H 427.057 -1.52635 4.54136 0
M  V30 4412 H 425.421 -0.902578 2.38171 0
M  V30 4413 H 426.204 0.416973 3.40758 0
M  V30 4414 N 428.649 -1.55105 -0.279332 0
M  V30 4415 C 429.877 -1.7943 -1.03017 0
M  V30 4416 C 430.292 -0.564456 -1.80165 0
M  V30 4417 O 429.649 0.466326 -1.76442 0
M  V30 4418 C 429.7 -3.0155 -1.99374 0
M  V30 4419 O 429.421 -4.19784 -1.25352 0
M  V30 4420 C 430.922 -3.3843 -2.86321 0
M  V30 4421 H 428.142 -0.597882 -0.304594 0
M  V30 4422 H 430.686 -2.02105 -0.312035 0
M  V30 4423 H 428.841 -2.81019 -2.66659 0
M  V30 4424 H 429.255 -4.88781 -1.90246 0
M  V30 4425 H 430.729 -4.27066 -3.49741 0
M  V30 4426 H 431.206 -2.57549 -3.5576 0
M  V30 4427 H 431.812 -3.61197 -2.24536 0
M  V30 4428 N 430.127 0.543554 -1.4793 0
M  V30 4429 C 431.538 1.12561 -1.48953 0
M  V30 4430 C 431.889 1.94578 -0.251754 0
M  V30 4431 O 431.014 2.0665 0.642255 0
M  V30 4432 C 431.609 2.04801 -2.69892 0
M  V30 4433 C 430.168 2.58251 -2.73831 0
M  V30 4434 C 429.315 1.34918 -2.42265 0
M  V30 4435 H 432.266 0.32947 -1.55242 0
M  V30 4436 H 432.287 2.88886 -2.47639 0
M  V30 4437 H 431.799 1.4508 -3.59963 0
M  V30 4438 H 429.9 3.21732 -1.87934 0
M  V30 4439 H 430.013 2.98312 -3.74895 0
M  V30 4440 H 428.377 1.66046 -1.93134 0
M  V30 4441 H 429.16 0.769693 -3.3456 0
M  V30 4442 N 431.605 1.3629 0.791371 0
M  V30 4443 C 432.83 1.33726 1.58531 0
M  V30 4444 C 433.255 -0.0794933 1.87932 0
M  V30 4445 O 432.613 -1.05087 1.47738 0
M  V30 4446 C 432.661 2.16425 2.88431 0
M  V30 4447 O 431.765 1.5554 3.81944 0
M  V30 4448 H 431.106 0.457793 0.480959 0
M  V30 4449 H 433.636 1.79547 0.981031 0
M  V30 4450 H 433.646 2.28933 3.37718 0
M  V30 4451 H 432.321 3.19415 2.66359 0
M  V30 4452 H 430.898 1.51961 3.40532 0
M  V30 4453 N 433.083 -1.0153 1.20538 0
M  V30 4454 C 434.494 -1.56598 1.01657 0
M  V30 4455 C 434.845 -1.91505 -0.426668 0
M  V30 4456 O 433.97 -1.72375 -1.30827 0
M  V30 4457 C 434.565 -2.84542 1.83905 0
M  V30 4458 C 433.124 -3.36133 1.69386 0
M  V30 4459 C 432.271 -2.09427 1.81757 0
M  V30 4460 H 435.222 -0.838974 1.34711 0
M  V30 4461 H 435.243 -3.56004 1.34319 0
M  V30 4462 H 434.755 -2.59105 2.8894 0
M  V30 4463 H 432.856 -3.66528 0.669933 0
M  V30 4464 H 432.969 -4.08248 2.50739 0
M  V30 4465 H 431.333 -2.21941 1.24957 0
M  V30 4466 H 432.116 -1.86414 2.88279 0
M  V30 4467 N 434.561 -1.01147 -1.20859 0
M  V30 4468 C 435.508 -0.577354 -2.23462 0
M  V30 4469 C 436.478 0.399922 -1.61214 0
M  V30 4470 O 437.663 0.300515 -1.88419 0
M  V30 4471 C 434.803 0.083372 -3.44999 0
M  V30 4472 C 433.916 -0.937856 -4.21697 0
M  V30 4473 C 433.051 -0.248717 -5.30617 0
M  V30 4474 C 432.09 -1.25705 -5.99053 0
M  V30 4475 N 431.227 -0.594939 -6.99575 0
M  V30 4476 H 436.067 -1.45695 -2.59956 0
M  V30 4477 H 433.604 -0.729428 -1.27741 0
M  V30 4478 H 435.562 0.483535 -4.14388 0
M  V30 4479 H 434.192 0.926645 -3.09214 0
M  V30 4480 H 433.244 -1.45622 -3.51423 0
M  V30 4481 H 434.556 -1.70493 -4.68757 0
M  V30 4482 H 433.71 0.207215 -6.06346 0
M  V30 4483 H 432.449 0.55071 -4.84581 0
M  V30 4484 H 431.454 -1.72343 -5.2209 0
M  V30 4485 H 432.679 -2.05767 -6.47176 0
M  V30 4486 H 430.625 0.184713 -6.5574 0
M  V30 4487 H 430.542 -1.30017 -7.44736 0
M  V30 4488 H 431.81 -0.162427 -7.79331 0
M  V30 4489 N 436.039 1.36541 -0.78704 0
M  V30 4490 C 437.45 1.81873 -0.421807 0
M  V30 4491 C 437.801 1.65487 1.05397 0
M  V30 4492 O 436.926 1.17448 1.81755 0
M  V30 4493 C 437.521 3.30192 -0.758841 0
M  V30 4494 C 436.08 3.73743 -0.446468 0
M  V30 4495 C 435.227 2.58844 -0.994728 0
M  V30 4496 H 438.178 1.24796 -0.98039 0
M  V30 4497 H 438.199 3.80468 -0.0490648 0
M  V30 4498 H 437.711 3.42087 -1.83299 0
M  V30 4499 H 435.812 3.6741 0.619739 0
M  V30 4500 H 435.925 4.69272 -0.965415 0
M  V30 4501 H 434.289 2.51245 -0.418087 0
M  V30 4502 H 435.072 2.73525 -2.07458 0
M  V30 4503 N 437.518 0.538854 1.48102 0
M  V30 4504 C 438.481 -0.208395 2.28251 0
M  V30 4505 C 439.481 -0.859656 1.35892 0
M  V30 4506 O 440.671 -0.71834 1.58699 0
M  V30 4507 C 437.803 -1.30252 3.15035 0
M  V30 4508 H 438.996 0.495407 2.9578 0
M  V30 4509 H 436.549 0.295112 1.53489 0
M  V30 4510 H 437.284 -2.0393 2.52157 0
M  V30 4511 H 437.069 -0.840551 3.82985 0
M  V30 4512 H 438.559 -1.82787 3.75471 0
M  V30 4513 N 438.996 -1.55193 0.274407 0
M  V30 4514 C 439.944 -2.23924 -0.629362 0
M  V30 4515 C 440.938 -1.23602 -1.1584 0
M  V30 4516 O 442.144 -1.41535 -1.11211 0
M  V30 4517 H 438.519 -0.718637 -0.221507 0
M  V30 4518 H 440.49 -2.98388 -0.0268322 0
M  V30 4519 C 439.239 -2.97329 -1.80252 0
M  V30 4520 H 438.562 -3.74313 -1.40462 0
M  V30 4521 H 440.002 -3.48743 -2.41152 0
M  V30 4522 C 438.461 -2.0276 -2.69054 0
M  V30 4523 O 438.991 -1.57836 -3.69392 0
M  V30 4524 N 437.197 -1.69275 -2.36208 0
M  V30 4525 H 436.744 -2.06004 -1.54661 0
M  V30 4526 H 436.702 -1.06271 -2.95895 0
M  V30 4527 N 440.474 -0.00167713 -1.576 0
M  V30 4528 C 441.702 0.693759 -1.94922 0
M  V30 4529 C 442.117 1.67215 -0.876626 0
M  V30 4530 O 441.474 1.81929 0.144279 0
M  V30 4531 C 441.525 1.42416 -3.32265 0
M  V30 4532 O 441.246 0.485014 -4.35407 0
M  V30 4533 C 442.747 2.21395 -3.84056 0
M  V30 4534 H 439.967 0.193118 -0.642609 0
M  V30 4535 H 442.511 -0.0532952 -2.04431 0
M  V30 4536 H 440.666 2.12284 -3.24059 0
M  V30 4537 H 441.08 1.00053 -5.14868 0
M  V30 4538 H 442.554 2.67996 -4.82578 0
M  V30 4539 H 443.031 3.04142 -3.16851 0
M  V30 4540 H 443.637 1.56542 -3.95443 0
M  V30 4541 N 441.952 1.55251 0.271103 0
M  V30 4542 C 443.368 1.47133 0.618393 0
M  V30 4543 C 443.568 0.686994 1.89427 0
M  V30 4544 O 442.624 0.206609 2.51653 0
M  V30 4545 C 443.937 2.91361 0.743593 0
M  V30 4546 C 445.485 3.01587 0.837522 0
M  V30 4547 C 445.96 4.47073 0.994483 0
M  V30 4548 N 447.451 4.50909 1.05996 0
M  V30 4549 C 448.186 5.60698 1.20024 0
M  V30 4550 N 447.682 6.80348 1.30759 0
M  V30 4551 N 449.475 5.48444 1.23149 0
M  V30 4552 H 441.626 2.04698 -0.566784 0
M  V30 4553 H 443.889 0.928319 -0.192165 0
M  V30 4554 H 443.595 3.51483 -0.123493 0
M  V30 4555 H 443.469 3.40484 1.62328 0
M  V30 4556 H 445.856 2.4156 1.69507 0
M  V30 4557 H 445.937 2.55713 -0.0668086 0
M  V30 4558 H 445.581 5.07703 0.141582 0
M  V30 4559 H 445.511 4.90605 1.91349 0
M  V30 4560 H 448.002 3.6472 0.989316 0
M  V30 4561 H 448.315 7.59772 1.41303 0
M  V30 4562 H 446.66 6.83156 1.27761 0
M  V30 4563 H 449.851 4.53907 1.14394 0
M  V30 4564 H 450.024 6.34049 1.33738 0
M  V30 4565 N 443.43 -0.535701 1.48216 0
M  V30 4566 C 444.679 -1.28828 1.55197 0
M  V30 4567 C 444.992 -1.94263 0.228278 0
M  V30 4568 O 446.198 -2.70927 0.176278 0
M  V30 4569 C 444.654 -2.33727 2.73678 0
M  V30 4570 C 444.262 -1.74386 4.12666 0
M  V30 4571 C 446.006 -3.1003 2.89968 0
M  V30 4572 C 443.913 -2.77192 5.22416 0
M  V30 4573 H 442.843 -0.484484 0.577747 0
M  V30 4574 H 445.494 -0.56646 1.74538 0
M  V30 4575 H 443.876 -3.08919 2.4776 0
M  V30 4576 H 445.05 -1.05421 4.48579 0
M  V30 4577 H 443.365 -1.10595 4.01445 0
M  V30 4578 H 445.962 -3.86842 3.6913 0
M  V30 4579 H 446.305 -3.65542 1.9921 0
M  V30 4580 H 446.838 -2.41952 3.15759 0
M  V30 4581 H 443.577 -2.26507 6.15122 0
M  V30 4582 H 443.097 -3.44502 4.90998 0
M  V30 4583 H 444.776 -3.40285 5.50286 0
M  V30 4584 N 444.908 -1.36708 -0.784132 0
M  V30 4585 C 445.818 -1.3363 -1.92822 0
M  V30 4586 C 446.834 -0.237686 -1.72369 0
M  V30 4587 O 448.01 -0.470962 -1.95816 0
M  V30 4588 C 445.075 -1.13011 -3.27764 0
M  V30 4589 C 444.136 -2.32397 -3.60957 0
M  V30 4590 C 443.369 -2.12752 -4.89461 0
M  V30 4591 O 443.592 -1.10541 -5.59586 0
M  V30 4592 O 442.526 -3.00653 -5.21432 0
M  V30 4593 H 446.352 -2.29964 -1.98369 0
M  V30 4594 H 443.937 -1.1731 -0.925136 0
M  V30 4595 H 445.819 -1.03451 -4.08504 0
M  V30 4596 H 444.494 -0.19743 -3.23097 0
M  V30 4597 H 443.401 -2.47527 -2.80502 0
M  V30 4598 H 444.734 -3.2419 -3.70354 0
M  V30 4599 N 446.386 1.0089 -1.21074 0
M  V30 4600 C 447.349 2.0775 -0.968129 0
M  V30 4601 C 448.349 1.6069 0.0593445 0
M  V30 4602 O 449.539 1.73293 -0.177525 0
M  V30 4603 C 446.671 3.37794 -0.459108 0
M  V30 4604 H 447.864 2.30707 -1.9161 0
M  V30 4605 H 445.417 1.17807 -1.02719 0
M  V30 4606 H 446.152 3.20516 0.49397 0
M  V30 4607 H 445.937 3.7328 -1.20019 0
M  V30 4608 H 447.427 4.16454 -0.309099 0
M  V30 4609 N 447.864 1.01787 1.20321 0
M  V30 4610 C 448.774 0.598898 2.26827 0
M  V30 4611 C 449.79 -0.36418 1.70146 0
M  V30 4612 O 450.966 -0.224812 2.00141 0
M  V30 4613 C 448.031 -0.0549769 3.46656 0
M  V30 4614 C 447.092 0.954205 4.18561 0
M  V30 4615 C 446.325 0.331439 5.3267 0
M  V30 4616 O 446.548 -0.86851 5.63749 0
M  V30 4617 O 445.482 1.0488 5.92692 0
M  V30 4618 H 449.308 1.48562 2.64883 0
M  V30 4619 H 446.893 0.787434 1.26964 0
M  V30 4620 H 448.775 -0.420102 4.19301 0
M  V30 4621 H 447.45 -0.915876 3.10473 0
M  V30 4622 H 446.357 1.37072 3.48083 0
M  V30 4623 H 447.69 1.78511 4.58688 0
M  V30 4624 N 449.342 -1.36122 0.79427 0
M  V30 4625 C 450.619 -1.93398 0.292685 0
M  V30 4626 C 450.999 -1.72567 -1.21589 0
M  V30 4627 O 450.347 -1.08745 -2.00965 0
M  V30 4628 C 450.557 -3.42099 0.690614 0
M  V30 4629 C 451.905 -4.19231 0.673105 0
M  V30 4630 O 452.929 -3.50559 0.631389 0
M  V30 4631 O 451.788 -5.41732 0.720362 0
M  V30 4632 H 448.882 -0.823712 0.0736693 0
M  V30 4633 H 451.428 -1.45273 0.87714 0
M  V30 4634 H 450.2 -3.50938 1.73085 0
M  V30 4635 H 449.823 -3.97519 0.0803036 0
M  V30 4636 N 450.82 -0.546701 -1.47814 0
M  V30 4637 C 452.05 -0.0232519 -2.06587 0
M  V30 4638 C 452.458 1.2712 -1.40133 0
M  V30 4639 O 451.801 1.77091 -0.488305 0
M  V30 4640 C 451.863 0.254117 -3.58601 0
M  V30 4641 C 451.527 -0.949331 -4.47031 0
M  V30 4642 C 452.524 -1.85216 -4.85789 0
M  V30 4643 C 450.209 -1.16104 -4.88697 0
M  V30 4644 C 452.203 -2.95047 -5.65001 0
M  V30 4645 C 449.89 -2.26247 -5.67676 0
M  V30 4646 C 450.888 -3.1555 -6.05737 0
M  V30 4647 O 450.576 -4.23784 -6.83127 0
M  V30 4648 H 450.308 -0.0380082 -0.674931 0
M  V30 4649 H 452.862 -0.756631 -1.90956 0
M  V30 4650 H 451.092 1.04168 -3.72406 0
M  V30 4651 H 452.781 0.72167 -3.99433 0
M  V30 4652 H 453.547 -1.70061 -4.54207 0
M  V30 4653 H 449.426 -0.475159 -4.58545 0
M  V30 4654 H 452.97 -3.64778 -5.94628 0
M  V30 4655 H 448.867 -2.41379 -5.98671 0
M  V30 4656 H 449.635 -4.21701 -7.01506 0
M  V30 4657 N 452.299 1.55045 -0.282633 0
M  V30 4658 C 453.576 1.9179 0.384166 0
M  V30 4659 C 453.956 1.20778 1.73136 0
M  V30 4660 O 453.304 0.33719 2.25998 0
M  V30 4661 C 453.514 3.45149 0.517014 0
M  V30 4662 C 454.862 4.17064 0.796427 0
M  V30 4663 O 455.886 3.51084 0.601535 0
M  V30 4664 O 454.745 5.33837 1.16962 0
M  V30 4665 H 451.839 0.799483 0.211558 0
M  V30 4666 H 454.385 1.66474 -0.32934 0
M  V30 4667 H 453.157 3.88922 -0.430772 0
M  V30 4668 H 452.78 3.76443 1.2797 0
M  V30 4669 N 453.777 0.010035 1.57597 0
M  V30 4670 C 455.025 -0.671371 1.90623 0
M  V30 4671 C 455.346 -1.73753 0.885151 0
M  V30 4672 O 454.616 -1.95752 -0.0760611 0
M  V30 4673 H 453.196 -0.250968 0.703579 0
M  V30 4674 H 455.858 0.0533325 1.94827 0
M  V30 4675 H 454.954 -1.13626 2.90681 0
M  V30 4676 N 455.255 -1.55392 -0.262866 0
M  V30 4677 C 456.504 -1.75679 -0.990943 0
M  V30 4678 C 456.817 -0.57097 -1.87081 0
M  V30 4679 O 458.023 -0.656486 -2.63444 0
M  V30 4680 C 456.479 -3.10964 -1.81188 0
M  V30 4681 C 456.087 -4.37146 -0.980188 0
M  V30 4682 C 457.831 -3.40597 -2.53365 0
M  V30 4683 C 455.738 -5.63466 -1.7961 0
M  V30 4684 H 454.668 -0.654868 -0.373716 0
M  V30 4685 H 457.319 -1.81841 -0.246203 0
M  V30 4686 H 455.701 -2.98867 -2.59797 0
M  V30 4687 H 456.875 -4.60187 -0.237558 0
M  V30 4688 H 455.19 -4.14731 -0.372497 0
M  V30 4689 H 457.787 -4.32186 -3.14833 0
M  V30 4690 H 458.13 -2.6119 -3.24169 0
M  V30 4691 H 458.663 -3.53838 -1.81779 0
M  V30 4692 H 455.402 -6.4565 -1.13209 0
M  V30 4693 H 454.922 -5.44552 -2.51443 0
M  V30 4694 H 456.601 -6.02139 -2.36723 0
M  V30 4695 N 456.733 0.527833 -1.48498 0
M  V30 4696 C 457.681 1.65313 -1.63628 0
M  V30 4697 C 458.675 1.6177 -0.502676 0
M  V30 4698 O 459.881 1.66601 -0.681469 0
M  V30 4699 H 456.256 0.547518 -0.515488 0
M  V30 4700 H 458.227 1.49696 -2.58135 0
M  V30 4701 C 456.976 3.03576 -1.6952 0
M  V30 4702 H 456.299 3.06997 -2.56111 0
M  V30 4703 H 457.739 3.81923 -1.84149 0
M  V30 4704 C 456.198 3.34089 -0.43432 0
M  V30 4705 O 456.728 3.99151 0.451852 0
M  V30 4706 N 454.934 2.88991 -0.305368 0
M  V30 4707 H 454.481 2.36222 -1.02747 0
M  V30 4708 H 454.439 3.09776 0.537249 0
M  V30 4709 N 458.211 1.37122 0.776871 0
M  V30 4710 C 459.436 1.354 1.57104 0
M  V30 4711 C 459.861 -0.0595562 1.88006 0
M  V30 4712 O 459.219 -1.03514 1.48844 0
M  V30 4713 C 459.267 2.19472 2.8612 0
M  V30 4714 O 458.371 1.59582 3.80273 0
M  V30 4715 H 457.712 0.462869 0.476076 0
M  V30 4716 H 460.242 1.80577 0.961932 0
M  V30 4717 H 460.252 2.32502 3.35271 0
M  V30 4718 H 458.927 3.22222 2.62956 0
M  V30 4719 H 457.504 1.55564 3.38902 0
M  V30 4720 N 459.689 -1.00246 1.21608 0
M  V30 4721 C 460.914 -1.78167 1.06167 0
M  V30 4722 C 461.339 -1.84138 -0.384035 0
M  V30 4723 O 460.697 -1.28683 -1.27712 0
M  V30 4724 C 460.745 -3.19786 1.66642 0
M  V30 4725 O 459.849 -4.02153 0.913613 0
M  V30 4726 H 459.19 -0.549 0.37349 0
M  V30 4727 H 461.72 -1.25994 1.61204 0
M  V30 4728 H 461.73 -3.70451 1.70969 0
M  V30 4729 H 460.405 -3.14754 2.7185 0
M  V30 4730 H 458.982 -3.60711 0.945635 0
M  V30 4731 N 461.167 -1.02423 -1.1978 0
M  V30 4732 C 462.392 -0.7373 -1.93852 0
M  V30 4733 C 462.817 0.696923 -1.74713 0
M  V30 4734 O 462.175 1.48056 -1.04638 0
M  V30 4735 C 462.223 -1.08783 -3.438 0
M  V30 4736 O 461.327 -0.20383 -4.11896 0
M  V30 4737 H 460.668 -0.27284 -0.605355 0
M  V30 4738 H 463.198 -1.36966 -1.51992 0
M  V30 4739 H 463.208 -1.04276 -3.9445 0
M  V30 4740 H 461.883 -2.13274 -3.57053 0
M  V30 4741 H 460.46 -0.307091 -3.71633 0
M  V30 4742 N 462.645 1.35699 -0.801477 0
M  V30 4743 C 463.894 1.98165 -0.375979 0
M  V30 4744 C 464.207 1.64306 1.06127 0
M  V30 4745 O 465.413 2.20097 1.58964 0
M  V30 4746 C 463.869 3.54497 -0.621305 0
M  V30 4747 C 463.477 3.9727 -2.07076 0
M  V30 4748 C 465.221 4.23697 -0.26091 0
M  V30 4749 C 463.128 5.46427 -2.26211 0
M  V30 4750 H 462.058 0.741478 -0.136844 0
M  V30 4751 H 464.709 1.54834 -0.984814 0
M  V30 4752 H 463.091 3.95958 0.0574112 0
M  V30 4753 H 464.265 3.66974 -2.78687 0
M  V30 4754 H 462.58 3.40943 -2.39054 0
M  V30 4755 H 465.177 5.33334 -0.381994 0
M  V30 4756 H 465.52 4.0869 0.792344 0
M  V30 4757 H 466.053 3.87639 -0.893339 0
M  V30 4758 H 462.792 5.66396 -3.29963 0
M  V30 4759 H 462.312 5.78309 -1.59119 0
M  V30 4760 H 463.991 6.12819 -2.07513 0
M  V30 4761 N 464.123 0.554532 1.47522 0
M  V30 4762 C 465.033 -0.197865 2.33764 0
M  V30 4763 C 466.049 -0.914576 1.48025 0
M  V30 4764 O 467.225 -0.884067 1.80959 0
M  V30 4765 C 464.29 -1.21628 3.24665 0
M  V30 4766 C 463.351 -0.507283 4.26292 0
M  V30 4767 C 462.584 -1.47718 5.1285 0
M  V30 4768 O 462.807 -2.7118 5.01814 0
M  V30 4769 O 461.741 -1.00313 5.93482 0
M  V30 4770 H 465.567 0.50949 2.99396 0
M  V30 4771 H 463.152 0.315176 1.46038 0
M  V30 4772 H 465.034 -1.80421 3.80823 0
M  V30 4773 H 463.709 -1.9056 2.61665 0
M  V30 4774 H 462.616 0.121778 3.73902 0
M  V30 4775 H 463.949 0.140544 4.91999 0
M  V30 4776 N 465.601 -1.54893 0.290851 0
M  V30 4777 C 466.85 -1.99111 -0.322113 0
M  V30 4778 C 467.163 -1.18283 -1.55784 0
M  V30 4779 O 468.369 -1.5272 -2.24475 0
M  V30 4780 C 466.825 -3.54442 -0.624438 0
M  V30 4781 C 466.433 -4.44066 0.592373 0
M  V30 4782 C 468.177 -4.07211 -1.19916 0
M  V30 4783 C 466.084 -5.90812 0.263762 0
M  V30 4784 H 465.014 -0.743712 -0.124133 0
M  V30 4785 H 467.665 -1.79132 0.39797 0
M  V30 4786 H 466.047 -3.70281 -1.40384 0
M  V30 4787 H 467.221 -4.39999 1.36886 0
M  V30 4788 H 465.536 -4.02015 1.08502 0
M  V30 4789 H 468.133 -5.14407 -1.45909 0
M  V30 4790 H 468.476 -3.57196 -2.13815 0
M  V30 4791 H 469.009 -3.94873 -0.481687 0
M  V30 4792 H 465.748 -6.44955 1.17105 0
M  V30 4793 H 465.268 -5.97911 -0.475655 0
M  V30 4794 H 466.947 -6.46852 -0.138354 0
M  V30 4795 N 467.08 -0.0183926 -1.57589 0
M  V30 4796 C 468.329 0.66185 -1.90532 0
M  V30 4797 C 468.642 1.73904 -0.895366 0
M  V30 4798 O 469.848 2.47518 -1.11566 0
M  V30 4799 C 468.304 1.22844 -3.38286 0
M  V30 4800 C 467.912 0.185103 -4.47617 0
M  V30 4801 C 469.656 1.88581 -3.80312 0
M  V30 4802 C 467.563 0.762723 -5.86461 0
M  V30 4803 H 466.493 0.250972 -0.711006 0
M  V30 4804 H 469.144 -0.0819435 -1.83317 0
M  V30 4805 H 467.526 2.0235 -3.40398 0
M  V30 4806 H 468.7 -0.58671 -4.5705 0
M  V30 4807 H 467.015 -0.372889 -4.14727 0
M  V30 4808 H 469.612 2.32735 -4.81392 0
M  V30 4809 H 469.955 2.72408 -3.14801 0
M  V30 4810 H 470.488 1.15782 -3.80578 0
M  V30 4811 H 467.227 -0.0371713 -6.55489 0
M  V30 4812 H 466.747 1.50327 -5.80656 0
M  V30 4813 H 468.426 1.25576 -6.34697 0
M  V30 4814 N 468.558 1.5553 0.254621 0
M  V30 4815 C 469.806 1.7665 0.981793 0
M  V30 4816 C 470.127 0.580963 1.86145 0
M  V30 4817 O 469.397 -0.403537 1.91699 0
M  V30 4818 H 467.977 0.651475 0.365498 0
M  V30 4819 H 470.639 1.92958 0.274426 0
M  V30 4820 H 469.735 2.67486 1.60802 0
M  V30 4821 N 470.036 -0.519951 1.48776 0
M  V30 4822 C 471.282 -1.27711 1.57536 0
M  V30 4823 C 471.615 -1.92547 0.252866 0
M  V30 4824 O 470.89 -1.7979 -0.742021 0
M  V30 4825 C 471.173 -2.35875 2.72094 0
M  V30 4826 C 471.026 -1.75664 4.1408 0
M  V30 4827 C 472.345 -3.37575 2.82367 0
M  V30 4828 H 469.464 -0.462971 0.573434 0
M  V30 4829 H 472.106 -0.578194 1.80989 0
M  V30 4830 H 470.256 -2.95488 2.52228 0
M  V30 4831 H 471.928 -1.20025 4.45412 0
M  V30 4832 H 470.171 -1.06154 4.20611 0
M  V30 4833 H 470.842 -2.54029 4.90075 0
M  V30 4834 H 473.318 -2.87929 3.00393 0
M  V30 4835 H 472.194 -4.1064 3.64233 0
M  V30 4836 H 472.455 -3.98743 1.90936 0
M  V30 4837 N 471.514 -1.37532 -0.769588 0
M  V30 4838 C 472.925 -1.29382 -1.346 0
M  V30 4839 C 473.276 0.0576039 -1.96115 0
M  V30 4840 O 472.401 0.95947 -1.93967 0
M  V30 4841 C 472.996 -2.34298 -2.44724 0
M  V30 4842 C 471.555 -2.29776 -2.98128 0
M  V30 4843 C 470.702 -2.18013 -1.71364 0
M  V30 4844 H 473.653 -1.48123 -0.56968 0
M  V30 4845 H 473.674 -1.99089 -3.24259 0
M  V30 4846 H 473.186 -3.32645 -1.99922 0
M  V30 4847 H 471.287 -1.34959 -3.47299 0
M  V30 4848 H 471.4 -3.23276 -3.53595 0
M  V30 4849 H 469.764 -1.64595 -1.94372 0
M  V30 4850 H 470.547 -3.18278 -1.28662 0
M  V30 4851 N 472.992 0.995999 -1.22138 0
M  V30 4852 C 474.403 1.54961 -1.04135 0
M  V30 4853 C 474.754 1.92159 0.396147 0
M  V30 4854 O 473.879 1.74435 1.28069 0
M  V30 4855 C 474.474 2.81581 -1.88408 0
M  V30 4856 C 473.033 3.33396 -1.74712 0
M  V30 4857 C 472.18 2.06509 -1.85066 0
M  V30 4858 H 475.131 0.817436 -1.36028 0
M  V30 4859 H 475.152 3.53822 -1.39966 0
M  V30 4860 H 474.664 2.54476 -2.93025 0
M  V30 4861 H 472.765 3.65416 -0.728159 0
M  V30 4862 H 472.878 4.04208 -2.57202 0
M  V30 4863 H 471.242 2.19925 -1.28472 0
M  V30 4864 H 472.025 1.81804 -2.91208 0
M  V30 4865 N 474.47 1.03057 1.19235 0
M  V30 4866 C 475.38 0.622922 2.26179 0
M  V30 4867 C 476.396 -0.346113 1.70523 0
M  V30 4868 O 477.572 -0.203572 2.00369 0
M  V30 4869 C 474.637 -0.0182063 3.46695 0
M  V30 4870 C 473.698 0.998546 4.17526 0
M  V30 4871 C 472.931 0.387917 5.32288 0
M  V30 4872 O 473.154 -0.808668 5.64639 0
M  V30 4873 O 472.088 1.1116 5.91546 0
M  V30 4874 H 475.914 1.51363 2.63292 0
M  V30 4875 H 473.499 0.800856 1.26122 0
M  V30 4876 H 475.381 -0.375606 4.19723 0
M  V30 4877 H 474.056 -0.882895 3.11427 0
M  V30 4878 H 472.963 1.40756 3.4661 0
M  V30 4879 H 474.296 1.83366 4.56769 0
M  V30 4880 N 475.948 -1.35272 0.808662 0
M  V30 4881 C 477.196 -1.98316 0.389233 0
M  V30 4882 C 477.517 -1.64465 -1.04767 0
M  V30 4883 O 476.787 -0.928175 -1.72516 0
M  V30 4884 H 475.367 -0.733585 0.140935 0
M  V30 4885 H 478.029 -1.6515 1.03496 0
M  V30 4886 H 477.125 -3.08123 0.496631 0
M  V30 4887 N 477.426 -0.562348 -1.47226 0
M  V30 4888 C 478.674 -0.0401371 -2.0206 0
M  V30 4889 C 478.995 1.3165 -1.43852 0
M  V30 4890 O 478.265 1.85976 -0.615599 0
M  V30 4891 H 476.845 -0.0118479 -0.746906 0
M  V30 4892 H 479.507 -0.73352 -1.8057 0
M  V30 4893 H 478.603 0.0441254 -3.12069 0
M  V30 4894 N 478.904 1.54736 -0.299062 0
M  V30 4895 C 480.32 1.59507 0.0543849 0
M  V30 4896 C 480.52 1.31606 1.52585 0
M  V30 4897 O 479.576 1.08853 2.27832 0
M  V30 4898 C 480.889 2.98751 -0.34181 0
M  V30 4899 C 482.437 3.1165 -0.290414 0
M  V30 4900 C 482.912 4.53199 -0.661402 0
M  V30 4901 N 484.403 4.59114 -0.613863 0
M  V30 4902 C 485.138 5.66709 -0.873417 0
M  V30 4903 N 484.634 6.82349 -1.19884 0
M  V30 4904 N 486.427 5.56369 -0.800608 0
M  V30 4905 H 478.578 1.71133 -1.25806 0
M  V30 4906 H 480.841 0.799186 -0.509908 0
M  V30 4907 H 480.547 3.24085 -1.36608 0
M  V30 4908 H 480.421 3.75961 0.305508 0
M  V30 4909 H 482.808 2.86066 0.724605 0
M  V30 4910 H 482.889 2.366 -0.972327 0
M  V30 4911 H 482.533 4.79513 -1.67422 0
M  V30 4912 H 482.463 5.26583 0.0425612 0
M  V30 4913 H 484.954 3.76053 -0.3732 0
M  V30 4914 H 485.267 7.60326 -1.38291 0
M  V30 4915 H 483.612 6.83906 -1.23685 0
M  V30 4916 H 486.803 4.64904 -0.546045 0
M  V30 4917 H 486.976 6.40139 -1.00626 0
M  V30 4918 N 480.382 0.0267497 1.57577 0
M  V30 4919 C 481.63 -0.651116 1.91324 0
M  V30 4920 C 481.951 -1.72804 0.90353 0
M  V30 4921 O 481.221 -1.95822 -0.0552946 0
M  V30 4922 H 479.801 -0.243491 0.706202 0
M  V30 4923 H 482.463 0.0739935 1.94759 0
M  V30 4924 H 481.559 -1.10536 2.9187 0
M  V30 4925 N 481.861 -1.55662 -0.24637 0
M  V30 4926 C 483.11 -1.7672 -0.972254 0
M  V30 4927 C 483.423 -0.59078 -1.86465 0
M  V30 4928 O 484.629 -0.684391 -2.62732 0
M  V30 4929 C 483.085 -3.12869 -1.7788 0
M  V30 4930 C 482.693 -4.38161 -0.933768 0
M  V30 4931 C 484.437 -3.43265 -2.49738 0
M  V30 4932 C 482.344 -5.6534 -1.73623 0
M  V30 4933 H 481.274 -0.658795 -0.366749 0
M  V30 4934 H 483.925 -1.82092 -0.226902 0
M  V30 4935 H 482.307 -3.01606 -2.56612 0
M  V30 4936 H 483.481 -4.60413 -0.188736 0
M  V30 4937 H 481.796 -4.15102 -0.328488 0
M  V30 4938 H 484.393 -4.35501 -3.10231 0
M  V30 4939 H 484.736 -2.64614 -3.2138 0
M  V30 4940 H 485.269 -3.55746 -1.78016 0
M  V30 4941 H 482.008 -6.46814 -1.06354 0
M  V30 4942 H 481.528 -5.47188 -2.45653 0
M  V30 4943 H 483.207 -6.04616 -2.30323 0
M  V30 4944 N 483.339 0.512053 -1.4905 0
M  V30 4945 C 484.587 1.26436 -1.57665 0
M  V30 4946 C 484.908 1.93255 -0.260293 0
M  V30 4947 O 484.178 1.82206 0.719564 0
M  V30 4948 H 482.758 0.469658 -0.580888 0
M  V30 4949 H 485.42 0.594398 -1.85615 0
M  V30 4950 H 484.516 2.03417 -2.36702 0
M  V30 4951 N 484.817 1.37938 0.762283 0
M  V30 4952 C 486.047 1.36685 1.54922 0
M  V30 4953 C 486.455 -0.0474099 1.89141 0
M  V30 4954 O 485.798 -1.02213 1.52638 0
M  V30 4955 C 485.86 2.14963 2.88152 0
M  V30 4956 C 485.524 3.6385 2.76518 0
M  V30 4957 C 486.521 4.57531 2.46904 0
M  V30 4958 C 484.206 4.07095 2.94243 0
M  V30 4959 C 486.2 5.92436 2.35156 0
M  V30 4960 C 483.887 5.42083 2.82116 0
M  V30 4961 C 484.885 6.34567 2.52614 0
M  V30 4962 O 484.573 7.67073 2.40529 0
M  V30 4963 H 484.305 0.469586 0.486276 0
M  V30 4964 H 486.859 1.82012 0.951876 0
M  V30 4965 H 485.089 1.6434 3.50042 0
M  V30 4966 H 486.778 2.06224 3.49609 0
M  V30 4967 H 487.544 4.25428 2.32886 0
M  V30 4968 H 483.423 3.35462 3.16206 0
M  V30 4969 H 486.967 6.64591 2.12049 0
M  V30 4970 H 482.864 5.73785 2.95704 0
M  V30 4971 H 483.632 7.77499 2.55807 0
M  V30 4972 N 486.295 -0.989507 1.22664 0
M  V30 4973 C 487.544 -1.72375 1.04737 0
M  V30 4974 C 487.857 -1.91096 -0.417316 0
M  V30 4975 O 489.063 -2.6188 -0.716334 0
M  V30 4976 C 487.519 -3.10161 1.82561 0
M  V30 4977 C 487.127 -2.99358 3.333 0
M  V30 4978 C 488.871 -3.87607 1.73093 0
M  V30 4979 C 486.778 -4.32319 4.03552 0
M  V30 4980 H 485.708 -0.646326 0.388302 0
M  V30 4981 H 488.359 -1.10437 1.46546 0
M  V30 4982 H 486.741 -3.728 1.33552 0
M  V30 4983 H 487.915 -2.45863 3.89728 0
M  V30 4984 H 486.23 -2.35392 3.43481 0
M  V30 4985 H 488.827 -4.86025 2.22899 0
M  V30 4986 H 489.17 -4.10509 0.691976 0
M  V30 4987 H 489.703 -3.31652 2.19663 0
M  V30 4988 H 486.442 -4.14616 5.07714 0
M  V30 4989 H 485.962 -4.85714 3.51911 0
M  V30 4990 H 487.641 -5.01051 4.09337 0
M  V30 4991 N 487.773 -1.03688 -1.18687 0
M  V30 4992 C 489.001 -0.757918 -1.92518 0
M  V30 4993 C 489.416 0.684398 -1.75959 0
M  V30 4994 O 488.773 1.46617 -1.08673 0
M  V30 4995 C 488.824 -1.10985 -3.44042 0
M  V30 4996 O 488.545 -2.49554 -3.60076 0
M  V30 4997 C 490.046 -0.854844 -4.3498 0
M  V30 4998 H 487.266 -0.276699 -0.611293 0
M  V30 4999 H 489.81 -1.38352 -1.50595 0
M  V30 5000 H 487.965 -0.529279 -3.83767 0
M  V30 5001 H 488.379 -2.6291 -4.53849 0
M  V30 5002 H 489.853 -1.15098 -5.39867 0
M  V30 5003 H 490.33 0.210507 -4.38695 0
M  V30 5004 H 490.936 -1.41853 -4.00946 0
M  V30 5005 N 489.251 1.34841 -0.815825 0
M  V30 5006 C 490.476 2.03261 -0.41226 0
M  V30 5007 C 490.901 1.61055 0.971751 0
M  V30 5008 O 490.259 0.7917 1.63101 0
M  V30 5009 C 490.307 3.56914 -0.514289 0
M  V30 5010 O 489.411 4.09728 0.468675 0
M  V30 5011 H 488.752 0.641664 -0.170771 0
M  V30 5012 H 491.282 1.72241 -1.10427 0
M  V30 5013 H 491.292 4.06156 -0.387457 0
M  V30 5014 H 489.967 3.86982 -1.52375 0
M  V30 5015 H 488.544 3.71681 0.301316 0
M  V30 5016 N 490.729 0.570148 1.46925 0
M  V30 5017 C 491.977 0.0508523 2.02036 0
M  V30 5018 C 492.298 -1.30885 1.44548 0
M  V30 5019 O 491.568 -1.85647 0.625453 0
M  V30 5020 H 490.148 0.0158088 0.746833 0
M  V30 5021 H 492.81 0.743086 1.80178 0
M  V30 5022 H 491.906 -0.027575 3.12088 0
M  V30 5023 N 492.207 -1.54576 0.307264 0
M  V30 5024 C 493.484 -1.92377 -0.353605 0
M  V30 5025 C 493.864 -1.23517 -1.71192 0
M  V30 5026 O 493.212 -0.373101 -2.25433 0
M  V30 5027 C 493.422 -3.45928 -0.462039 0
M  V30 5028 C 494.77 -4.18278 -0.729975 0
M  V30 5029 O 495.794 -3.51997 -0.545605 0
M  V30 5030 O 494.653 -5.3563 -1.08454 0
M  V30 5031 H 491.747 -0.802747 -0.198812 0
M  V30 5032 H 494.293 -1.65929 0.355783 0
M  V30 5033 H 493.065 -3.88187 0.492592 0
M  V30 5034 H 492.688 -3.78431 -1.21965 0
M  V30 5035 N 493.685 -0.035106 -1.57561 0
M  V30 5036 C 494.915 0.651312 -1.96065 0
M  V30 5037 C 495.323 1.6585 -0.910514 0
M  V30 5038 O 494.666 1.83336 0.11552 0
M  V30 5039 C 494.728 1.40897 -3.30739 0
M  V30 5040 C 494.392 0.559436 -4.53563 0
M  V30 5041 C 495.389 -0.16778 -5.19629 0
M  V30 5042 C 493.074 0.495079 -4.99854 0
M  V30 5043 C 495.068 -0.947963 -6.30311 0
M  V30 5044 C 492.755 -0.288804 -6.10417 0
M  V30 5045 C 493.753 -1.00903 -6.75505 0
M  V30 5046 O 493.441 -1.78005 -7.83945 0
M  V30 5047 H 493.173 0.184036 -0.650467 0
M  V30 5048 H 495.727 -0.0929677 -2.05189 0
M  V30 5049 H 493.957 2.19852 -3.18123 0
M  V30 5050 H 495.646 1.98407 -3.54104 0
M  V30 5051 H 496.412 -0.12743 -4.84833 0
M  V30 5052 H 492.291 1.04524 -4.48994 0
M  V30 5053 H 495.835 -1.51064 -6.81047 0
M  V30 5054 H 491.732 -0.33085 -6.44652 0
M  V30 5055 H 492.5 -1.70046 -8.00641 0
M  V30 5056 N 495.163 1.55791 0.238111 0
M  V30 5057 C 496.093 1.94068 1.29846 0
M  V30 5058 C 497.074 0.806726 1.49753 0
M  V30 5059 O 498.259 1.06772 1.62214 0
M  V30 5060 C 495.389 2.24302 2.65153 0
M  V30 5061 C 494.343 3.40032 2.59927 0
M  V30 5062 C 493.669 3.55829 3.99111 0
M  V30 5063 C 494.969 4.75476 2.16148 0
M  V30 5064 H 496.663 2.82887 0.980563 0
M  V30 5065 H 494.209 1.36105 0.470253 0
M  V30 5066 H 496.162 2.4967 3.39475 0
M  V30 5067 H 494.886 1.32318 2.98596 0
M  V30 5068 H 493.545 3.14687 1.88063 0
M  V30 5069 H 493.193 2.6125 4.29834 0
M  V30 5070 H 492.893 4.3366 3.96501 0
M  V30 5071 H 494.417 3.83528 4.7512 0
M  V30 5072 H 495.831 5.00158 2.80205 0
M  V30 5073 H 494.228 5.56472 2.24631 0
M  V30 5074 H 495.298 4.71946 1.11333 0
M  V30 5075 N 496.642 -0.504142 1.49319 0
M  V30 5076 C 497.888 -1.26033 1.58882 0
M  V30 5077 C 498.221 -1.92268 0.273274 0
M  V30 5078 O 497.496 -1.80567 -0.72291 0
M  V30 5079 C 497.779 -2.32976 2.7458 0
M  V30 5080 C 497.632 -1.71263 4.1592 0
M  V30 5081 C 498.951 -3.34561 2.85932 0
M  V30 5082 H 496.07 -0.456863 0.578312 0
M  V30 5083 H 498.712 -0.558965 1.81592 0
M  V30 5084 H 496.862 -2.92796 2.55348 0
M  V30 5085 H 498.534 -1.15294 4.4666 0
M  V30 5086 H 496.777 -1.01686 4.21714 0
M  V30 5087 H 497.448 -2.48816 4.92742 0
M  V30 5088 H 499.924 -2.84727 3.0343 0
M  V30 5089 H 498.8 -4.06754 3.68568 0
M  V30 5090 H 499.061 -3.96695 1.95154 0
M  V30 5091 N 498.12 -1.38341 -0.754957 0
M  V30 5092 C 499.35 -1.37504 -1.54195 0
M  V30 5093 C 499.758 0.0373787 -1.89163 0
M  V30 5094 O 499.101 1.01402 -1.53178 0
M  V30 5095 C 499.163 -2.16488 -2.87008 0
M  V30 5096 C 498.827 -3.65311 -2.74585 0
M  V30 5097 C 499.824 -4.58834 -2.44474 0
M  V30 5098 C 497.509 -4.08649 -2.9208 0
M  V30 5099 C 499.503 -5.93675 -2.32011 0
M  V30 5100 C 497.19 -5.43571 -2.79237 0
M  V30 5101 C 498.188 -6.35898 -2.49245 0
M  V30 5102 O 497.876 -7.68338 -2.36458 0
M  V30 5103 H 497.608 -0.472159 -0.483779 0
M  V30 5104 H 500.162 -1.82515 -0.94221 0
M  V30 5105 H 498.392 -1.66194 -3.49166 0
M  V30 5106 H 500.081 -2.08076 -3.4851 0
M  V30 5107 H 500.847 -4.26657 -2.30627 0
M  V30 5108 H 496.726 -3.37134 -3.14422 0
M  V30 5109 H 500.27 -6.65706 -2.08522 0
M  V30 5110 H 496.167 -5.75345 -2.92657 0
M  V30 5111 H 496.935 -7.78845 -2.5168 0
M  V30 5112 N 499.598 0.982988 -1.23187 0
M  V30 5113 C 500.545 2.07491 -1.01075 0
M  V30 5114 C 501.515 1.65949 0.070905 0
M  V30 5115 O 502.7 1.90629 -0.0806822 0
M  V30 5116 C 499.84 3.39751 -0.605261 0
M  V30 5117 C 498.953 3.94578 -1.75876 0
M  V30 5118 C 498.088 5.15039 -1.3003 0
M  V30 5119 C 497.127 5.62027 -2.42472 0
M  V30 5120 N 496.264 6.73719 -1.97602 0
M  V30 5121 H 501.104 2.25739 -1.9454 0
M  V30 5122 H 498.641 1.10659 -0.969179 0
M  V30 5123 H 500.599 4.15719 -0.351279 0
M  V30 5124 H 499.229 3.21473 0.292382 0
M  V30 5125 H 498.281 3.1539 -2.12681 0
M  V30 5126 H 499.593 4.25422 -2.60418 0
M  V30 5127 H 498.747 5.9833 -1.00429 0
M  V30 5128 H 497.486 4.85843 -0.425216 0
M  V30 5129 H 496.491 4.77318 -2.7285 0
M  V30 5130 H 497.716 5.93244 -3.30512 0
M  V30 5131 H 495.662 6.46287 -1.1247 0
M  V30 5132 H 495.579 7.03934 -2.75705 0
M  V30 5133 H 496.847 7.6049 -1.71098 0
M  V30 5134 N 501.076 1.04316 1.18135 0
M  V30 5135 C 502.301 0.768047 1.92655 0
M  V30 5136 C 502.726 -0.66904 1.758 0
M  V30 5137 O 502.084 -1.46372 1.06981 0
M  V30 5138 C 502.132 1.14239 3.42026 0
M  V30 5139 O 501.236 0.269333 4.1152 0
M  V30 5140 H 500.577 0.282436 0.600937 0
M  V30 5141 H 503.107 1.39367 1.49793 0
M  V30 5142 H 503.117 1.10538 3.92741 0
M  V30 5143 H 501.792 2.18928 3.53615 0
M  V30 5144 H 500.369 0.366175 3.71098 0
M  V30 5145 N 502.554 -1.34406 0.822964 0
M  V30 5146 C 503.803 -1.97542 0.407458 0
M  V30 5147 C 504.116 -1.65973 -1.035 0
M  V30 5148 O 505.322 -2.22598 -1.55442 0
M  V30 5149 C 503.778 -3.53463 0.677623 0
M  V30 5150 C 503.386 -3.93925 2.1337 0
M  V30 5151 C 505.13 -4.23229 0.328284 0
M  V30 5152 C 503.037 -5.42759 2.34876 0
M  V30 5153 H 501.967 -0.739207 0.148623 0
M  V30 5154 H 504.618 -1.53248 1.00932 0
M  V30 5155 H 503 -3.96 0.00558965 0
M  V30 5156 H 504.174 -3.62494 2.8449 0
M  V30 5157 H 502.489 -3.37097 2.44448 0
M  V30 5158 H 505.086 -5.32659 0.466794 0
M  V30 5159 H 505.429 -4.09899 -0.727224 0
M  V30 5160 H 505.962 -3.86169 0.954896 0
M  V30 5161 H 502.701 -5.61075 3.38932 0
M  V30 5162 H 502.221 -5.75704 1.68299 0
M  V30 5163 H 503.9 -6.0944 2.17236 0
M  V30 5164 N 504.032 -0.577932 -1.46621 0
M  V30 5165 C 505.309 0.00495287 -1.95599 0
M  V30 5166 C 505.689 1.46428 -1.5206 0
M  V30 5167 O 505.037 2.1517 -0.769046 0
M  V30 5168 C 505.247 -0.162114 -3.48623 0
M  V30 5169 C 506.595 -0.0274623 -4.24591 0
M  V30 5170 O 507.619 -0.0907067 -3.56084 0
M  V30 5171 O 506.478 0.1122 -5.46385 0
M  V30 5172 H 503.572 0.0525057 -0.825332 0
M  V30 5173 H 506.118 -0.645914 -1.56927 0
M  V30 5174 H 504.89 -1.17679 -3.73185 0
M  V30 5175 H 504.513 0.525407 -3.94113 0
M  V30 5176 N 505.51 1.54411 -0.315457 0
M  V30 5177 C 506.757 2.00419 0.289543 0
M  V30 5178 C 507.085 1.20373 1.52776 0
M  V30 5179 O 506.34 0.271769 1.93804 0
M  V30 5180 C 506.639 3.50936 0.676652 0
M  V30 5181 C 506.305 4.48532 -0.461472 0
M  V30 5182 C 504.967 4.74936 -0.773879 0
M  V30 5183 C 507.319 5.06567 -1.22637 0
M  V30 5184 C 504.647 5.56634 -1.85405 0
M  V30 5185 C 506.999 5.89441 -2.29657 0
M  V30 5186 C 505.663 6.1415 -2.61488 0
M  V30 5187 H 504.933 0.733386 0.105951 0
M  V30 5188 H 507.58 1.86434 -0.437554 0
M  V30 5189 H 505.885 3.62606 1.48405 0
M  V30 5190 H 507.582 3.83971 1.15618 0
M  V30 5191 H 504.172 4.28096 -0.207893 0
M  V30 5192 H 508.356 4.86157 -0.998271 0
M  V30 5193 H 503.612 5.74012 -2.10523 0
M  V30 5194 H 507.786 6.33432 -2.89374 0
M  V30 5195 H 505.413 6.77245 -3.45317 0
M  V30 5196 N 506.988 0.0434614 1.5754 0
M  V30 5197 C 508.236 -0.630786 1.92004 0
M  V30 5198 C 508.557 -1.71836 0.921807 0
M  V30 5199 O 507.827 -1.9587 -0.034522 0
M  V30 5200 H 506.407 -0.235988 0.708745 0
M  V30 5201 H 509.069 0.0946462 1.9467 0
M  V30 5202 H 508.165 -1.07434 2.93026 0
M  V30 5203 N 508.466 -1.55915 -0.229846 0
M  V30 5204 C 509.414 -1.9258 -1.30444 0
M  V30 5205 C 510.408 -0.806839 -1.48951 0
M  V30 5206 O 511.614 -0.991606 -1.50224 0
M  V30 5207 H 507.989 -0.611878 -0.437161 0
M  V30 5208 H 509.96 -2.82264 -0.96797 0
M  V30 5209 C 508.709 -2.25171 -2.6494 0
M  V30 5210 H 508.032 -3.10782 -2.51504 0
M  V30 5211 H 509.472 -2.54716 -3.38963 0
M  V30 5212 C 507.931 -1.07394 -3.19324 0
M  V30 5213 O 508.461 -0.330759 -4.00336 0
M  V30 5214 N 506.667 -0.859984 -2.77584 0
M  V30 5215 H 506.214 -1.46605 -2.11813 0
M  V30 5216 H 506.172 -0.0736671 -3.14314 0
M  V30 5217 N 509.944 0.496216 -1.49584 0
M  V30 5218 C 511.192 1.24756 -1.58998 0
M  V30 5219 C 511.513 1.92968 -0.280775 0
M  V30 5220 O 510.783 1.82959 0.700198 0
M  V30 5221 H 509.363 0.463471 -0.585836 0
M  V30 5222 H 512.025 0.574678 -1.86235 0
M  V30 5223 H 511.121 2.00895 -2.38847 0
M  V30 5224 N 511.423 1.38739 0.74761 0
M  V30 5225 C 512.386 1.36241 1.84312 0
M  V30 5226 C 513.386 0.261811 1.58654 0
M  V30 5227 O 514.576 0.519031 1.66288 0
M  V30 5228 C 511.708 1.12253 3.21888 0
M  V30 5229 H 512.901 2.33712 1.87933 0
M  V30 5230 H 510.454 1.2412 0.949946 0
M  V30 5231 H 511.189 0.154133 3.23934 0
M  V30 5232 H 510.974 1.91943 3.41907 0
M  V30 5233 H 512.464 1.13215 4.0196 0
M  V30 5234 N 512.901 -0.976442 1.23707 0
M  V30 5235 C 514.129 -1.75341 1.09833 0
M  V30 5236 C 514.544 -1.8553 -0.349885 0
M  V30 5237 O 513.901 -1.33732 -1.24185 0
M  V30 5238 C 513.952 -3.17833 1.72233 0
M  V30 5239 O 513.673 -3.08167 3.11391 0
M  V30 5240 C 515.174 -4.11906 1.63853 0
M  V30 5241 H 512.394 -0.550137 0.384175 0
M  V30 5242 H 514.938 -1.2265 1.63638 0
M  V30 5243 H 513.093 -3.67538 1.22452 0
M  V30 5244 H 513.507 -3.97897 3.41729 0
M  V30 5245 H 514.981 -5.09579 2.12211 0
M  V30 5246 H 515.458 -4.35109 0.598092 0
M  V30 5247 H 516.064 -3.68107 2.13019 0
M  V30 5248 N 514.379 -1.04941 -1.1758 0
M  V30 5249 C 515.604 -0.778253 -1.92245 0
M  V30 5250 C 516.029 0.659707 -1.76152 0
M  V30 5251 O 515.387 1.45803 -1.07755 0
M  V30 5252 C 515.435 -1.16051 -3.41416 0
M  V30 5253 O 514.539 -0.291153 -4.11371 0
M  V30 5254 H 513.88 -0.285619 -0.599431 0
M  V30 5255 H 516.41 -1.40159 -1.49052 0
M  V30 5256 H 516.42 -1.12619 -3.92149 0
M  V30 5257 H 515.095 -2.208 -3.52449 0
M  V30 5258 H 513.672 -0.385851 -3.70898 0
M  V30 5259 N 515.857 1.33968 -0.830081 0
M  V30 5260 C 517.104 1.98063 -0.421566 0
M  V30 5261 C 517.432 1.65787 1.0171 0
M  V30 5262 O 516.687 0.925348 1.72441 0
M  V30 5263 C 516.986 3.52679 -0.57898 0
M  V30 5264 C 516.652 4.04884 -1.98443 0
M  V30 5265 C 515.314 4.18852 -2.36888 0
M  V30 5266 C 517.666 4.32879 -2.90285 0
M  V30 5267 C 514.994 4.58145 -3.66497 0
M  V30 5268 C 517.346 4.7362 -4.19364 0
M  V30 5269 C 516.01 4.85794 -4.57778 0
M  V30 5270 H 515.28 0.724765 -0.154262 0
M  V30 5271 H 517.927 1.59792 -1.05541 0
M  V30 5272 H 516.232 3.91556 0.138219 0
M  V30 5273 H 517.929 4.00261 -0.243317 0
M  V30 5274 H 514.519 3.9448 -1.67581 0
M  V30 5275 H 518.703 4.21619 -2.61823 0
M  V30 5276 H 513.959 4.65762 -3.96075 0
M  V30 5277 H 518.133 4.9424 -4.90612 0
M  V30 5278 H 515.76 5.15998 -5.58256 0
M  V30 5279 N 517.335 0.585699 1.46312 0
M  V30 5280 C 518.282 -0.145835 2.30339 0
M  V30 5281 C 519.252 -0.881215 1.40797 0
M  V30 5282 O 520.437 -0.871293 1.69744 0
M  V30 5283 C 517.577 -1.15161 3.25318 0
M  V30 5284 C 516.69 -0.419367 4.2996 0
M  V30 5285 C 515.825 -1.41293 5.12064 0
M  V30 5286 C 514.864 -0.667261 6.08452 0
M  V30 5287 N 514.001 -1.60903 6.83414 0
M  V30 5288 H 518.841 0.576755 2.92365 0
M  V30 5289 H 516.378 0.296237 1.44086 0
M  V30 5290 H 518.336 -1.74763 3.78832 0
M  V30 5291 H 516.966 -1.84188 2.65094 0
M  V30 5292 H 516.018 0.291751 3.7928 0
M  V30 5293 H 517.33 0.163433 4.98532 0
M  V30 5294 H 516.484 -2.08167 5.6987 0
M  V30 5295 H 515.223 -2.02966 4.43459 0
M  V30 5296 H 514.228 0.0152356 5.49798 0
M  V30 5297 H 515.453 -0.0558817 6.79077 0
M  V30 5298 H 513.399 -2.21381 6.17516 0
M  V30 5299 H 513.316 -1.07911 7.48259 0
M  V30 5300 H 514.584 -2.26802 7.45775 0
M  V30 5301 N 518.813 -1.54241 0.323641 0
M  V30 5302 C 519.776 -2.22997 -0.529602 0
M  V30 5303 C 520.776 -1.22345 -1.04347 0
M  V30 5304 O 521.966 -1.46924 -0.935889 0
M  V30 5305 C 519.098 -2.93409 -1.73562 0
M  V30 5306 H 520.291 -2.99815 0.0714518 0
M  V30 5307 H 517.844 -1.56121 0.0747258 0
M  V30 5308 H 518.579 -2.20729 -2.37591 0
M  V30 5309 H 518.364 -3.67217 -1.37456 0
M  V30 5310 H 519.854 -3.45794 -2.34128 0
M  V30 5311 N 520.291 -0.0518155 -1.57515 0
M  V30 5312 C 521.238 0.922352 -2.11569 0
M  V30 5313 C 522.208 1.30842 -1.02321 0
M  V30 5314 O 523.393 1.39778 -1.29872 0
M  V30 5315 C 520.533 2.19167 -2.6657 0
M  V30 5316 C 519.646 1.86003 -3.89906 0
M  V30 5317 C 518.781 3.07398 -4.33221 0
M  V30 5318 C 517.82 2.70158 -5.49255 0
M  V30 5319 N 516.957 3.84248 -5.8762 0
M  V30 5320 H 521.797 0.454506 -2.94514 0
M  V30 5321 H 519.334 0.212718 -1.45554 0
M  V30 5322 H 521.292 2.93443 -2.96559 0
M  V30 5323 H 519.922 2.63528 -1.86421 0
M  V30 5324 H 518.974 1.01874 -3.66505 0
M  V30 5325 H 520.286 1.54592 -4.74239 0
M  V30 5326 H 519.44 3.89972 -4.64765 0
M  V30 5327 H 518.179 3.41988 -3.477 0
M  V30 5328 H 517.184 1.86001 -5.17382 0
M  V30 5329 H 518.409 2.36759 -6.36492 0
M  V30 5330 H 516.355 4.18638 -5.05053 0
M  V30 5331 H 516.272 3.56538 -6.66646 0
M  V30 5332 H 517.54 4.6746 -6.2378 0
M  V30 5333 N 521.769 1.56035 0.221574 0
M  V30 5334 C 523.015 1.79312 0.947372 0
M  V30 5335 C 523.348 0.621453 1.83988 0
M  V30 5336 O 522.623 -0.379287 1.90766 0
M  V30 5337 C 522.906 3.1267 1.78633 0
M  V30 5338 C 522.759 4.40284 0.920312 0
M  V30 5339 C 524.078 3.4247 2.7641 0
M  V30 5340 H 521.197 0.652328 0.342982 0
M  V30 5341 H 523.839 1.88765 0.216244 0
M  V30 5342 H 521.989 3.04741 2.40967 0
M  V30 5343 H 523.661 4.60232 0.313718 0
M  V30 5344 H 521.904 4.33212 0.225734 0
M  V30 5345 H 522.575 5.30033 1.54171 0
M  V30 5346 H 525.051 3.50526 2.24211 0
M  V30 5347 H 523.927 4.3695 3.32213 0
M  V30 5348 H 524.188 2.64635 3.54148 0
M  V30 5349 N 523.247 -0.488276 1.49845 0
M  V30 5350 C 524.21 -1.57069 1.66919 0
M  V30 5351 C 525.21 -1.51445 0.540479 0
M  V30 5352 O 526.4 -1.5437 0.807188 0
M  V30 5353 C 523.532 -2.96718 1.67844 0
M  V30 5354 H 524.725 -1.43254 2.63474 0
M  V30 5355 H 522.278 -0.713435 1.39068 0
M  V30 5356 H 523.013 -3.15996 0.7292 0
M  V30 5357 H 522.798 -3.02208 2.49826 0
M  V30 5358 H 524.288 -3.75335 1.83066 0
M  V30 5359 N 524.725 -1.39134 -0.740242 0
M  V30 5360 C 525.673 -1.3757 -1.87556 0
M  V30 5361 C 526.667 -0.259593 -1.67399 0
M  V30 5362 O 527.873 -0.429349 -1.74804 0
M  V30 5363 H 524.248 -0.42947 -0.6173 0
M  V30 5364 H 526.219 -2.33345 -1.85991 0
M  V30 5365 C 524.968 -1.23087 -3.25184 0
M  V30 5366 H 524.291 -2.08237 -3.41288 0
M  V30 5367 H 525.731 -1.26049 -4.0483 0
M  V30 5368 C 524.19 0.0611471 -3.36845 0
M  V30 5369 O 524.72 1.03328 -3.88183 0
M  V30 5370 N 522.926 0.122454 -2.90342 0
M  V30 5371 H 522.473 -0.669329 -2.48752 0
M  V30 5372 H 522.431 0.986463 -2.98523 0
M  V30 5373 N 526.204 0.969867 -1.24223 0
M  V30 5374 C 527.167 2.04564 -1.03373 0
M  V30 5375 C 528.167 1.60798 0.00819206 0
M  V30 5376 O 529.357 1.72641 -0.232567 0
M  V30 5377 C 526.489 3.36163 -0.566343 0
M  V30 5378 H 527.682 2.24494 -1.98853 0
M  V30 5379 H 525.235 1.1448 -1.06415 0
M  V30 5380 H 525.97 3.21925 0.391751 0
M  V30 5381 H 525.755 3.69273 -1.31834 0
M  V30 5382 H 527.245 4.1526 -0.441435 0
M  V30 5383 N 527.682 1.05563 1.17022 0
M  V30 5384 C 528.63 0.653887 2.2322 0
M  V30 5385 C 529.624 -0.326642 1.66221 0
M  V30 5386 O 530.83 -0.192301 1.7897 0
M  V30 5387 H 527.205 0.193297 0.726733 0
M  V30 5388 H 529.176 1.5596 2.54399 0
M  V30 5389 C 527.925 0.0485434 3.47666 0
M  V30 5390 H 527.248 0.79413 3.91834 0
M  V30 5391 H 528.688 -0.195133 4.23551 0
M  V30 5392 C 527.147 -1.20583 3.14581 0
M  V30 5393 O 527.677 -2.29475 3.29703 0
M  V30 5394 N 525.883 -1.10493 2.68774 0
M  V30 5395 H 525.43 -0.218795 2.56669 0
M  V30 5396 H 525.388 -1.94507 2.47011 0
M  V30 5397 N 529.16 -1.33526 0.837174 0
M  V30 5398 C 530.388 -2.02047 0.445494 0
M  V30 5399 C 530.803 -1.62995 -0.952788 0
M  V30 5400 O 530.16 -0.842447 -1.61892 0
M  V30 5401 C 530.211 -3.57221 0.554577 0
M  V30 5402 O 529.932 -3.94863 1.89776 0
M  V30 5403 C 531.433 -4.43012 0.159634 0
M  V30 5404 H 528.653 -0.647221 0.177048 0
M  V30 5405 H 531.197 -1.70492 1.12928 0
M  V30 5406 H 529.352 -3.87315 -0.0812781 0
M  V30 5407 H 529.766 -4.89569 1.88208 0
M  V30 5408 H 531.24 -5.51253 0.28701 0
M  V30 5409 H 531.717 -4.29916 -0.898289 0
M  V30 5410 H 532.323 -4.18274 0.769855 0
M  V30 5411 N 530.638 -0.59345 -1.46 0
M  V30 5412 C 531.863 -0.0872365 -2.07216 0
M  V30 5413 C 532.288 1.2131 -1.43755 0
M  V30 5414 O 531.646 1.73528 -0.525152 0
M  V30 5415 C 531.694 0.0538197 -3.6056 0
M  V30 5416 O 530.798 1.10765 -3.97247 0
M  V30 5417 H 530.139 -0.0676598 -0.660544 0
M  V30 5418 H 532.669 -0.819445 -1.87473 0
M  V30 5419 H 532.679 0.256567 -4.07193 0
M  V30 5420 H 531.354 -0.895739 -4.0614 0
M  V30 5421 H 529.931 0.882501 -3.62307 0
M  V30 5422 N 532.116 1.54067 -0.331816 0
M  V30 5423 C 533.064 2.26105 0.54582 0
M  V30 5424 C 534.058 1.27816 1.11173 0
M  V30 5425 O 535.264 1.45565 1.05882 0
M  V30 5426 H 531.639 0.726363 0.194683 0
M  V30 5427 H 533.61 2.98282 -0.083931 0
M  V30 5428 C 532.359 3.03814 1.69092 0
M  V30 5429 H 531.682 3.79269 1.26473 0
M  V30 5430 H 533.122 3.57453 2.28043 0
M  V30 5431 C 531.581 2.12606 2.61343 0
M  V30 5432 O 532.111 1.71437 3.6328 0
M  V30 5433 N 530.317 1.77925 2.29763 0
M  V30 5434 H 529.864 2.11602 1.46909 0
M  V30 5435 H 529.822 1.1718 2.91747 0
M  V30 5436 N 533.594 0.0601682 1.57485 0
M  V30 5437 C 534.843 -0.611101 1.9222 0
M  V30 5438 C 535.156 -1.71469 0.941159 0
M  V30 5439 O 536.362 -2.44473 1.18089 0
M  V30 5440 C 534.818 -1.13832 3.41424 0
M  V30 5441 C 534.426 -0.0663596 4.47951 0
M  V30 5442 C 536.17 -1.78432 3.85178 0
M  V30 5443 C 534.077 -0.606965 5.88277 0
M  V30 5444 H 533.007 -0.232033 0.71741 0
M  V30 5445 H 535.658 0.130518 1.83035 0
M  V30 5446 H 534.04 -1.93254 3.45643 0
M  V30 5447 H 535.214 0.707682 4.55333 0
M  V30 5448 H 533.529 0.482715 4.13593 0
M  V30 5449 H 536.126 -2.1989 4.87394 0
M  V30 5450 H 536.469 -2.63966 3.21913 0
M  V30 5451 H 537.002 -1.05651 3.83514 0
M  V30 5452 H 533.741 0.21095 6.5516 0
M  V30 5453 H 533.261 -1.34879 5.84438 0
M  V30 5454 H 534.94 -1.08704 6.37803 0
M  V30 5455 N 535.072 -1.5615 -0.213296 0
M  V30 5456 C 535.982 -1.96265 -1.28519 0
M  V30 5457 C 536.998 -0.86765 -1.50824 0
M  V30 5458 O 538.174 -1.17191 -1.63793 0
M  V30 5459 C 535.239 -2.27836 -2.61327 0
M  V30 5460 C 534.3 -3.50949 -2.47252 0
M  V30 5461 C 533.533 -3.81004 -3.73727 0
M  V30 5462 O 533.756 -3.12612 -4.77106 0
M  V30 5463 O 532.69 -4.74477 -3.70344 0
M  V30 5464 H 536.516 -2.87631 -0.974795 0
M  V30 5465 H 534.101 -1.43467 -0.416832 0
M  V30 5466 H 535.983 -2.49299 -3.39747 0
M  V30 5467 H 534.658 -1.39643 -2.9203 0
M  V30 5468 H 533.565 -3.34754 -1.67004 0
M  V30 5469 H 534.898 -4.39551 -2.21486 0
M  V30 5470 N 536.55 0.480323 -1.50102 0
M  V30 5471 C 537.48 1.58769 -1.71215 0
M  V30 5472 C 538.461 1.60583 -0.560997 0
M  V30 5473 O 539.646 1.76996 -0.799127 0
M  V30 5474 C 536.776 2.97148 -1.79778 0
M  V30 5475 C 535.73 3.10201 -2.94888 0
M  V30 5476 C 535.056 4.50137 -2.88584 0
M  V30 5477 C 536.356 2.88283 -4.35534 0
M  V30 5478 H 538.05 1.41354 -2.6393 0
M  V30 5479 H 535.596 0.678591 -1.27008 0
M  V30 5480 H 537.549 3.74536 -1.93133 0
M  V30 5481 H 536.273 3.15699 -0.836772 0
M  V30 5482 H 534.932 2.35244 -2.81169 0
M  V30 5483 H 534.58 4.65593 -1.90349 0
M  V30 5484 H 534.28 4.59808 -3.65856 0
M  V30 5485 H 535.804 5.29558 -3.03976 0
M  V30 5486 H 537.218 3.55427 -4.49827 0
M  V30 5487 H 535.615 3.09408 -5.14186 0
M  V30 5488 H 536.685 1.84219 -4.48544 0
M  V30 5489 N 538.028 1.39524 0.732853 0
M  V30 5490 C 539.444 1.21176 1.03868 0
M  V30 5491 C 539.644 0.0748448 2.01361 0
M  V30 5492 O 538.7 -0.57281 2.45917 0
M  V30 5493 C 540.013 2.54667 1.59892 0
M  V30 5494 C 541.561 2.6153 1.71962 0
M  V30 5495 C 542.036 3.95248 2.31394 0
M  V30 5496 N 543.527 3.96899 2.38801 0
M  V30 5497 C 544.262 4.97138 2.85729 0
M  V30 5498 N 543.758 6.07775 3.32537 0
M  V30 5499 N 545.551 4.84516 2.84957 0
M  V30 5500 H 537.702 2.12225 0.086304 0
M  V30 5501 H 539.965 0.942614 0.100907 0
M  V30 5502 H 539.671 3.38423 0.95721 0
M  V30 5503 H 539.545 2.74538 2.58668 0
M  V30 5504 H 541.932 1.78156 2.35254 0
M  V30 5505 H 542.013 2.45507 0.718327 0
M  V30 5506 H 541.657 4.79054 1.68729 0
M  V30 5507 H 541.587 4.08593 3.32204 0
M  V30 5508 H 544.078 3.16998 2.05719 0
M  V30 5509 H 544.391 6.8017 3.66862 0
M  V30 5510 H 542.736 6.11366 3.30541 0
M  V30 5511 H 545.927 3.97185 2.47713 0
M  V30 5512 H 546.1 5.62783 3.21215 0
M  V30 5513 N 539.506 -0.963266 1.24736 0
M  V30 5514 C 540.436 -2.07628 1.06832 0
M  V30 5515 C 541.417 -1.70088 -0.0200566 0
M  V30 5516 O 542.602 -1.93636 0.147854 0
M  V30 5517 C 539.732 -3.40636 0.677069 0
M  V30 5518 C 538.686 -3.9215 1.71471 0
M  V30 5519 C 538.012 -5.21553 1.1784 0
M  V30 5520 C 539.312 -4.19493 3.11164 0
M  V30 5521 H 541.006 -2.22864 1.9993 0
M  V30 5522 H 538.552 -1.07093 0.96266 0
M  V30 5523 H 540.505 -4.17941 0.538792 0
M  V30 5524 H 539.229 -3.25313 -0.289612 0
M  V30 5525 H 537.888 -3.17005 1.84128 0
M  V30 5526 H 537.536 -5.02593 0.202195 0
M  V30 5527 H 537.236 -5.56988 1.87185 0
M  V30 5528 H 538.76 -6.01463 1.05233 0
M  V30 5529 H 540.174 -4.87487 3.01711 0
M  V30 5530 H 538.571 -4.66165 3.77902 0
M  V30 5531 H 539.641 -3.26097 3.58871 0
M  V30 5532 N 540.985 -1.06182 -1.16461 0
M  V30 5533 C 541.933 -0.665716 -2.2287 0
M  V30 5534 C 542.927 0.317822 -1.66392 0
M  V30 5535 O 544.133 0.182807 -1.79069 0
M  V30 5536 H 540.508 -0.197148 -0.725697 0
M  V30 5537 H 542.479 -1.57307 -2.53569 0
M  V30 5538 C 541.228 -0.0669803 -3.47635 0
M  V30 5539 H 540.551 -0.814899 -3.91407 0
M  V30 5540 H 541.991 0.172669 -4.23648 0
M  V30 5541 C 540.45 1.18913 -3.15216 0
M  V30 5542 O 540.98 2.27723 -3.30916 0
M  V30 5543 N 539.186 1.09066 -2.69357 0
M  V30 5544 H 538.733 0.20518 -2.56782 0
M  V30 5545 H 538.691 1.93195 -2.48039 0
M  V30 5546 N 542.463 1.3308 -0.844243 0
M  V30 5547 C 543.711 1.97215 -0.441676 0
M  V30 5548 C 544.032 1.67185 1.0037 0
M  V30 5549 O 543.302 0.973588 1.69994 0
M  V30 5550 H 541.882 0.72959 -0.160335 0
M  V30 5551 H 544.544 1.62348 -1.07838 0
M  V30 5552 H 543.64 3.06698 -0.57815 0
M  V30 5553 N 543.941 0.601185 1.45683 0
M  V30 5554 C 545.352 0.179659 1.85834 0
M  V30 5555 C 545.703 -1.26189 1.50236 0
M  V30 5556 O 544.828 -1.95587 0.925987 0
M  V30 5557 C 545.423 0.319277 3.37292 0
M  V30 5558 C 543.982 -0.0475092 3.7637 0
M  V30 5559 C 543.129 0.646692 2.69654 0
M  V30 5560 H 546.08 0.808268 1.36575 0
M  V30 5561 H 546.101 -0.4503 3.77826 0
M  V30 5562 H 545.613 1.36855 3.6317 0
M  V30 5563 H 543.714 -1.0962 3.5611 0
M  V30 5564 H 543.827 0.34168 4.7788 0
M  V30 5565 H 542.191 0.0849971 2.54558 0
M  V30 5566 H 542.974 1.69797 2.98369 0
M  V30 5567 N 545.419 -1.53889 0.339982 0
M  V30 5568 C 546.367 -2.26391 -0.533822 0
M  V30 5569 C 547.361 -1.28404 -1.10493 0
M  V30 5570 O 548.567 -1.46124 -1.05108 0
M  V30 5571 H 544.942 -0.727385 -0.190828 0
M  V30 5572 H 546.913 -2.98233 0.0997484 0
M  V30 5573 C 545.662 -3.04707 -1.67479 0
M  V30 5574 H 544.985 -3.79934 -1.2446 0
M  V30 5575 H 546.425 -3.58657 -2.26144 0
M  V30 5576 C 544.884 -2.13989 -2.60212 0
M  V30 5577 O 545.414 -1.73361 -3.62366 0
M  V30 5578 N 543.62 -1.79141 -2.28816 0
M  V30 5579 H 543.167 -2.12378 -1.45785 0
M  V30 5580 H 543.125 -1.18725 -2.91121 0
M  V30 5581 N 546.897 -0.0685191 -1.57451 0
M  V30 5582 C 548.145 0.60016 -1.92983 0
M  V30 5583 C 548.466 1.70348 -0.949028 0
M  V30 5584 O 547.736 1.959 0.00335647 0
M  V30 5585 H 546.316 0.224682 -0.712409 0
M  V30 5586 H 548.978 -0.125605 -1.94495 0
M  V30 5587 H 548.074 1.02759 -2.94698 0
M  V30 5588 N 548.375 1.56261 0.205012 0
M  V30 5589 C 549.603 1.84141 0.943386 0
M  V30 5590 C 550.018 0.649772 1.77266 0
M  V30 5591 O 549.375 -0.381612 1.78466 0
M  V30 5592 C 549.426 3.10719 1.84759 0
M  V30 5593 O 549.147 4.25286 1.05181 0
M  V30 5594 C 550.648 3.51706 2.69848 0
M  V30 5595 H 547.868 0.611734 0.275721 0
M  V30 5596 H 550.412 2.03364 0.215253 0
M  V30 5597 H 548.567 2.93422 2.52947 0
M  V30 5598 H 548.981 4.97301 1.66709 0
M  V30 5599 H 550.455 4.43266 3.28967 0
M  V30 5600 H 550.932 2.7423 3.43067 0
M  V30 5601 H 551.538 3.71499 2.07047 0
M  V30 5602 N 549.853 -0.472356 1.50355 0
M  V30 5603 C 550.783 -1.57859 1.72055 0
M  V30 5604 C 551.764 -1.60283 0.569505 0
M  V30 5605 O 552.949 -1.7657 0.808503 0
M  V30 5606 C 550.079 -2.96191 1.81351 0
M  V30 5607 C 549.033 -3.08633 2.96529 0
M  V30 5608 C 548.359 -4.486 2.90968 0
M  V30 5609 C 549.659 -2.85969 4.37057 0
M  V30 5610 H 551.353 -1.39953 2.64676 0
M  V30 5611 H 548.899 -0.671846 1.27367 0
M  V30 5612 H 550.852 -3.73507 1.95117 0
M  V30 5613 H 549.576 -3.15251 0.853502 0
M  V30 5614 H 548.235 -2.33749 2.82413 0
M  V30 5615 H 547.883 -4.64577 1.92815 0
M  V30 5616 H 547.583 -4.57861 3.68289 0
M  V30 5617 H 549.107 -5.27938 3.0678 0
M  V30 5618 H 550.521 -3.53036 4.51706 0
M  V30 5619 H 548.918 -3.06677 5.15819 0
M  V30 5620 H 549.988 -1.81838 4.49514 0
M  V30 5621 N 551.331 -1.39911 -0.725443 0
M  V30 5622 C 552.58 -1.36963 -1.48068 0
M  V30 5623 C 552.893 0.0284478 -1.95579 0
M  V30 5624 O 554.099 0.180535 -2.70899 0
M  V30 5625 C 552.555 -2.40664 -2.67598 0
M  V30 5626 C 552.163 -3.86234 -2.26997 0
M  V30 5627 C 553.907 -2.46807 -3.45379 0
M  V30 5628 C 551.814 -4.81554 -3.43307 0
M  V30 5629 H 550.744 -0.509223 -0.556065 0
M  V30 5630 H 553.395 -1.65602 -0.790454 0
M  V30 5631 H 551.777 -2.05109 -3.38742 0
M  V30 5632 H 552.951 -4.3088 -1.63337 0
M  V30 5633 H 551.266 -3.83475 -1.62284 0
M  V30 5634 H 553.863 -3.15213 -4.31909 0
M  V30 5635 H 554.206 -1.49552 -3.8851 0
M  V30 5636 H 554.739 -2.81303 -2.81271 0
M  V30 5637 H 551.478 -5.80106 -3.05217 0
M  V30 5638 H 550.998 -4.4158 -4.05915 0
M  V30 5639 H 552.677 -5.0091 -4.0951 0
M  V30 5640 N 552.809 0.956637 -1.25245 0
M  V30 5641 C 554.057 1.69764 -1.09657 0
M  V30 5642 C 554.378 1.91583 0.363464 0
M  V30 5643 O 553.648 1.50149 1.25825 0
M  V30 5644 H 552.228 0.629097 -0.402798 0
M  V30 5645 H 554.89 1.15026 -1.57337 0
M  V30 5646 H 553.986 2.67769 -1.60331 0
M  V30 5647 N 554.287 1.06798 1.15896 0
M  V30 5648 C 555.515 0.808694 1.90441 0
M  V30 5649 C 555.93 -0.637506 1.77711 0
M  V30 5650 O 555.287 -1.43684 1.12522 0
M  V30 5651 C 555.338 1.20068 3.40978 0
M  V30 5652 O 555.059 2.59013 3.53333 0
M  V30 5653 C 556.56 0.96987 4.3256 0
M  V30 5654 H 553.78 0.292809 0.603742 0
M  V30 5655 H 556.324 1.42296 1.46874 0
M  V30 5656 H 554.479 0.630842 3.82229 0
M  V30 5657 H 554.893 2.7485 4.46719 0
M  V30 5658 H 556.367 1.29371 5.36626 0
M  V30 5659 H 556.844 -0.0941209 4.39099 0
M  V30 5660 H 557.45 1.52433 3.97044 0
M  V30 5661 N 555.766 -1.3263 0.851289 0
M  V30 5662 C 556.696 -2.31449 0.308771 0
M  V30 5663 C 557.677 -1.59531 -0.590255 0
M  V30 5664 O 558.862 -1.87351 -0.511205 0
M  V30 5665 C 555.992 -3.43586 -0.506548 0
M  V30 5666 C 554.946 -4.26963 0.297753 0
M  V30 5667 C 554.272 -5.30831 -0.642094 0
M  V30 5668 C 555.572 -4.99643 1.52166 0
M  V30 5669 H 557.266 -2.77074 1.13447 0
M  V30 5670 H 554.812 -1.33207 0.546971 0
M  V30 5671 H 556.765 -4.11754 -0.896474 0
M  V30 5672 H 555.489 -2.96681 -1.36558 0
M  V30 5673 H 554.148 -3.60437 0.669391 0
M  V30 5674 H 553.796 -4.8018 -1.49788 0
M  V30 5675 H 553.496 -5.87501 -0.107968 0
M  V30 5676 H 555.02 -6.01862 -1.02927 0
M  V30 5677 H 556.434 -5.6051 1.20421 0
M  V30 5678 H 554.831 -5.66022 1.99347 0
M  V30 5679 H 555.901 -4.27701 2.28474 0
M  V30 5680 N 557.244 -0.608902 -1.45362 0
M  V30 5681 C 558.469 -0.10921 -2.07112 0
M  V30 5682 C 558.894 1.19779 -1.45033 0
M  V30 5683 O 558.252 1.72961 -0.543527 0
M  V30 5684 C 558.3 0.0155745 -3.60597 0
M  V30 5685 O 557.404 1.06546 -3.98399 0
M  V30 5686 H 556.745 -0.0746619 -0.659789 0
M  V30 5687 H 559.275 -0.839283 -1.86594 0
M  V30 5688 H 559.285 0.213364 -4.07442 0
M  V30 5689 H 557.96 -0.938765 -4.05167 0
M  V30 5690 H 556.537 0.844024 -3.63223 0
M  V30 5691 N 558.722 1.53707 -0.348139 0
M  V30 5692 C 559.968 2.01286 0.247332 0
M  V30 5693 C 560.301 1.23546 1.49834 0
M  V30 5694 O 559.576 0.324331 1.91777 0
M  V30 5695 C 559.859 3.55768 0.556858 0
M  V30 5696 C 559.712 4.44216 -0.706564 0
M  V30 5697 C 561.031 4.1841 1.3646 0
M  V30 5698 H 558.15 0.731677 0.0884201 0
M  V30 5699 H 560.792 1.84106 -0.469584 0
M  V30 5700 H 558.942 3.70539 1.16761 0
M  V30 5701 H 560.614 4.41274 -1.34444 0
M  V30 5702 H 558.857 4.12892 -1.33052 0
M  V30 5703 H 559.528 5.50202 -0.445186 0
M  V30 5704 H 562.004 4.07365 0.848113 0
M  V30 5705 H 560.88 5.26563 1.54992 0
M  V30 5706 H 561.141 3.7333 2.36805 0
M  V30 5707 N 560.2 0.0768682 1.57412 0
M  V30 5708 C 561.147 -0.888577 2.13009 0
M  V30 5709 C 562.117 -1.29198 1.0439 0
M  V30 5710 O 563.302 -1.37694 1.3208 0
M  V30 5711 C 560.442 -2.14899 2.70023 0
M  V30 5712 C 559.555 -1.79777 3.92816 0
M  V30 5713 C 558.69 -3.00467 4.38056 0
M  V30 5714 C 557.729 -2.61385 5.53484 0
M  V30 5715 N 556.866 -3.74851 5.93659 0
M  V30 5716 H 561.706 -0.407593 2.95199 0
M  V30 5717 H 559.243 -0.189534 1.45874 0
M  V30 5718 H 561.201 -2.88688 3.0119 0
M  V30 5719 H 559.831 -2.60529 1.9059 0
M  V30 5720 H 558.883 -0.960301 3.68079 0
M  V30 5721 H 560.195 -1.47027 4.76639 0
M  V30 5722 H 559.349 -3.82529 4.7091 0
M  V30 5723 H 558.088 -3.36413 3.53097 0
M  V30 5724 H 557.093 -1.77746 5.20275 0
M  V30 5725 H 558.318 -2.26603 6.40178 0
M  V30 5726 H 556.264 -4.1055 5.11649 0
M  V30 5727 H 556.181 -3.45887 6.72234 0
M  V30 5728 H 557.449 -4.57477 6.31138 0
M  V30 5729 N 561.678 -1.56367 -0.196722 0
M  V30 5730 C 562.903 -1.84991 -0.937714 0
M  V30 5731 C 563.328 -0.660244 -1.76132 0
M  V30 5732 O 562.686 0.390967 -1.77034 0
M  V30 5733 C 562.734 -3.11828 -1.81096 0
M  V30 5734 O 561.838 -2.92266 -2.90955 0
M  V30 5735 H 561.179 -0.609193 -0.264159 0
M  V30 5736 H 563.709 -2.03595 -0.202529 0
M  V30 5737 H 563.719 -3.42579 -2.21594 0
M  V30 5738 H 562.394 -3.98037 -1.2058 0
M  V30 5739 H 560.971 -2.72809 -2.54224 0
M  V30 5740 N 563.156 0.464375 -1.50603 0
M  V30 5741 C 564.384 1.23907 -1.65695 0
M  V30 5742 C 564.799 1.85658 -0.343027 0
M  V30 5743 O 564.156 1.69529 0.675739 0
M  V30 5744 C 564.207 2.3429 -2.75301 0
M  V30 5745 O 563.928 1.7507 -4.01599 0
M  V30 5746 C 565.429 3.25051 -3.01424 0
M  V30 5747 H 562.649 0.374485 -0.556778 0
M  V30 5748 H 565.193 0.55353 -1.96866 0
M  V30 5749 H 563.348 2.98607 -2.46804 0
M  V30 5750 H 563.762 2.47812 -4.62266 0
M  V30 5751 H 565.236 3.98699 -3.81763 0
M  V30 5752 H 565.713 3.84227 -2.12758 0
M  V30 5753 H 566.319 2.66463 -3.31477 0
M  V30 5754 N 564.634 1.40294 0.718013 0
M  V30 5755 C 565.882 1.38167 1.47494 0
M  V30 5756 C 566.203 -0.01607 1.94993 0
M  V30 5757 O 565.473 -0.970396 1.70177 0
M  V30 5758 H 564.053 0.508505 0.547203 0
M  V30 5759 H 566.715 1.75324 0.851322 0
M  V30 5760 H 565.811 2.05503 2.34894 0
M  V30 5761 N 566.112 -0.949982 1.2575 0
M  V30 5762 C 567.389 -1.6718 1.01539 0
M  V30 5763 C 567.769 -2.06095 -0.456942 0
M  V30 5764 O 567.117 -1.77792 -1.43534 0
M  V30 5765 C 567.327 -2.8906 1.95564 0
M  V30 5766 C 568.675 -3.60909 2.23673 0
M  V30 5767 O 569.699 -2.9915 1.9336 0
M  V30 5768 O 568.558 -4.72127 2.75243 0
M  V30 5769 H 565.652 -0.731697 0.385419 0
M  V30 5770 H 568.198 -1.00249 1.36924 0
M  V30 5771 H 566.97 -2.57128 2.94959 0
M  V30 5772 H 566.593 -3.63719 1.60605 0
M  V30 5773 N 567.59 -1.07411 -1.15328 0
M  V30 5774 C 568.836 -0.808666 -1.86634 0
M  V30 5775 C 569.191 0.65816 -1.80793 0
M  V30 5776 O 568.484 1.47689 -1.22059 0
M  V30 5777 C 568.678 -1.25191 -3.34757 0
M  V30 5778 C 568.507 -2.76028 -3.55019 0
M  V30 5779 C 567.277 -3.43644 -3.70455 0
M  V30 5780 C 569.475 -3.74224 -3.5279 0
M  V30 5781 N 567.457 -4.83117 -3.78776 0
M  V30 5782 C 568.828 -4.9954 -3.67233 0
M  V30 5783 C 570.883 -3.67373 -3.36068 0
M  V30 5784 C 569.586 -6.18819 -3.66682 0
M  V30 5785 C 571.612 -4.86116 -3.36816 0
M  V30 5786 C 570.974 -6.10266 -3.51789 0
M  V30 5787 H 567.073 -0.348478 -0.700062 0
M  V30 5788 H 569.657 -1.37049 -1.38295 0
M  V30 5789 H 567.828 -0.717775 -3.8171 0
M  V30 5790 H 569.56 -0.933936 -3.93776 0
M  V30 5791 H 566.315 -2.94051 -3.71256 0
M  V30 5792 H 566.739 -5.55705 -3.86679 0
M  V30 5793 H 571.381 -2.72334 -3.2341 0
M  V30 5794 H 569.099 -7.14179 -3.78118 0
M  V30 5795 H 572.685 -4.82492 -3.25103 0
M  V30 5796 H 571.565 -7.00609 -3.52301 0
M  V30 5797 N 569.068 1.32177 -0.85831 0
M  V30 5798 C 570.016 2.30729 -0.294442 0
M  V30 5799 C 571.01 1.59009 0.584165 0
M  V30 5800 O 572.216 1.73713 0.471562 0
M  V30 5801 H 568.591 0.748097 -0.0765171 0
M  V30 5802 H 570.562 2.75774 -1.1398 0
M  V30 5803 C 569.311 3.44098 0.499208 0
M  V30 5804 H 568.634 3.99449 -0.167579 0
M  V30 5805 H 570.074 4.15202 0.859273 0
M  V30 5806 C 568.533 2.91684 1.68588 0
M  V30 5807 O 569.063 2.89481 2.78503 0
M  V30 5808 N 567.269 2.48036 1.51415 0
M  V30 5809 H 566.816 2.50027 0.620006 0
M  V30 5810 H 566.774 2.13322 2.30957 0
M  V30 5811 N 570.547 0.616602 1.45037 0
M  V30 5812 C 571.775 0.121968 2.0654 0
M  V30 5813 C 572.19 -1.19743 1.45969 0
M  V30 5814 O 571.547 -1.73133 0.577168 0
M  V30 5815 C 571.598 -0.0145171 3.61497 0
M  V30 5816 O 571.319 1.25269 4.19809 0
M  V30 5817 C 572.82 -0.539555 4.40004 0
M  V30 5818 H 570.04 0.0729837 0.667019 0
M  V30 5819 H 572.584 0.846891 1.8614 0
M  V30 5820 H 570.739 -0.689809 3.81209 0
M  V30 5821 H 571.153 1.08816 5.13088 0
M  V30 5822 H 572.627 -0.584112 5.48901 0
M  V30 5823 H 573.104 -1.56368 4.10421 0
M  V30 5824 H 573.71 0.101995 4.25178 0
M  V30 5825 N 572.025 -1.5352 0.356285 0
M  V30 5826 C 573.255 -2.05236 -0.236983 0
M  V30 5827 C 573.663 -1.23016 -1.43749 0
M  V30 5828 O 573.006 -0.2615 -1.81829 0
M  V30 5829 C 573.068 -3.52549 -0.7035 0
M  V30 5830 C 572.732 -4.55425 0.379059 0
M  V30 5831 C 573.729 -5.0524 1.22592 0
M  V30 5832 C 571.414 -4.99425 0.536638 0
M  V30 5833 C 573.408 -5.97647 2.21578 0
M  V30 5834 C 571.095 -5.9164 1.52988 0
M  V30 5835 C 572.093 -6.4064 2.3679 0
M  V30 5836 O 571.781 -7.31039 3.34421 0
M  V30 5837 H 571.513 -0.674346 -0.047254 0
M  V30 5838 H 574.067 -1.98962 0.510238 0
M  V30 5839 H 572.297 -3.56331 -1.50217 0
M  V30 5840 H 573.986 -3.87171 -1.21873 0
M  V30 5841 H 574.752 -4.72002 1.11532 0
M  V30 5842 H 570.631 -4.60879 -0.105834 0
M  V30 5843 H 574.175 -6.35816 2.87025 0
M  V30 5844 H 570.072 -6.24293 1.64099 0
M  V30 5845 H 570.84 -7.49009 3.30041 0
M  V30 5846 N 573.503 -0.0852151 -1.57369 0
M  V30 5847 C 574.413 0.891712 -2.16992 0
M  V30 5848 C 575.429 1.3174 -1.13669 0
M  V30 5849 O 576.605 1.38735 -1.45995 0
M  V30 5850 C 573.67 2.13635 -2.73059 0
M  V30 5851 C 572.731 1.7658 -3.91303 0
M  V30 5852 C 571.964 2.95111 -4.44686 0
M  V30 5853 O 572.187 4.09539 -3.97032 0
M  V30 5854 O 571.121 2.74149 -5.35841 0
M  V30 5855 H 574.947 0.414477 -3.00858 0
M  V30 5856 H 572.532 0.138598 -1.48756 0
M  V30 5857 H 574.414 2.86595 -3.08935 0
M  V30 5858 H 573.089 2.6043 -1.92244 0
M  V30 5859 H 571.996 1.00831 -3.60255 0
M  V30 5860 H 573.329 1.34557 -4.7345 0
M  V30 5861 N 574.981 1.5647 0.188427 0
M  V30 5862 C 575.891 1.98285 1.2538 0
M  V30 5863 C 576.907 0.891535 1.49424 0
M  V30 5864 O 578.083 1.19782 1.61908 0
M  V30 5865 C 575.148 2.31965 2.57669 0
M  V30 5866 C 574.209 3.54838 2.41638 0
M  V30 5867 C 573.442 3.86901 3.67618 0
M  V30 5868 O 573.665 3.20163 4.72072 0
M  V30 5869 O 572.599 4.80309 3.62749 0
M  V30 5870 H 576.425 2.89145 0.928912 0
M  V30 5871 H 574.01 1.44112 0.393955 0
M  V30 5872 H 575.892 2.54673 3.35737 0
M  V30 5873 H 574.567 1.44271 2.89771 0
M  V30 5874 H 573.474 3.37369 1.61658 0
M  V30 5875 H 574.807 4.43019 2.14465 0
M  V30 5876 N 576.459 -0.456382 1.50847 0
M  V30 5877 C 577.391 -1.57033 1.66953 0
M  V30 5878 C 578.404 -1.53207 0.550593 0
M  V30 5879 O 579.593 -1.58328 0.824285 0
M  V30 5880 C 576.693 -2.95937 1.65149 0
M  V30 5881 C 575.866 -3.24475 2.93317 0
M  V30 5882 C 574.925 -4.43007 2.83957 0
M  V30 5883 O 573.951 -4.42592 3.57912 0
M  V30 5884 N 575.153 -5.45503 1.9851 0
M  V30 5885 H 577.918 -1.43629 2.63042 0
M  V30 5886 H 575.479 -0.645037 1.48495 0
M  V30 5887 H 577.471 -3.73224 1.56481 0
M  V30 5888 H 576.041 -3.03036 0.767343 0
M  V30 5889 H 575.261 -2.35664 3.16 0
M  V30 5890 H 576.549 -3.4036 3.78196 0
M  V30 5891 H 575.947 -5.48668 1.37766 0
M  V30 5892 H 574.504 -6.21716 1.95735 0
M  V30 5893 N 577.937 -1.40673 -0.710563 0
M  V30 5894 C 579.165 -1.42547 -1.4996 0
M  V30 5895 C 579.58 -0.0265485 -1.88781 0
M  V30 5896 O 578.937 0.950694 -1.55782 0
M  V30 5897 C 578.988 -2.32071 -2.77173 0
M  V30 5898 O 578.709 -3.66518 -2.39992 0
M  V30 5899 C 580.21 -2.42591 -3.71032 0
M  V30 5900 H 577.43 -0.486025 -0.462623 0
M  V30 5901 H 579.974 -1.84783 -0.876102 0
M  V30 5902 H 578.129 -1.93184 -3.35795 0
M  V30 5903 H 578.543 -4.14115 -3.21884 0
M  V30 5904 H 580.017 -3.09429 -4.57119 0
M  V30 5905 H 580.494 -1.4525 -4.14486 0
M  V30 5906 H 581.1 -2.82051 -3.18319 0
M  V30 5907 N 579.415 0.9433 -1.26252 0
M  V30 5908 C 580.655 1.70397 -1.1289 0
M  V30 5909 C 581.019 1.89268 0.322713 0
M  V30 5910 O 582.22 2.62503 0.578418 0
M  V30 5911 C 580.491 3.04296 -1.87453 0
M  V30 5912 S 582.05 3.95475 -1.90119 0
M  V30 5913 H 578.868 0.585559 -0.403289 0
M  V30 5914 H 581.47 1.12424 -1.59941 0
M  V30 5915 H 580.174 2.8824 -2.9214 0
M  V30 5916 H 579.705 3.67327 -1.40835 0
M  V30 5917 H 581.72 4.86297 -0.986373 0
M  V30 5918 N 580.893 1.08022 1.14757 0
M  V30 5919 C 582.118 0.82895 1.90114 0
M  V30 5920 C 582.543 -0.612772 1.77839 0
M  V30 5921 O 581.901 -1.42895 1.11583 0
M  V30 5922 C 581.949 1.25062 3.38219 0
M  V30 5923 O 581.053 0.400119 4.10454 0
M  V30 5924 H 580.394 0.301412 0.591648 0
M  V30 5925 H 582.924 1.44062 1.45284 0
M  V30 5926 H 582.934 1.22977 3.89025 0
M  V30 5927 H 581.609 2.30067 3.46471 0
M  V30 5928 H 580.186 0.484052 3.69745 0
M  V30 5929 N 582.371 -1.3172 0.865308 0
M  V30 5930 C 583.62 -1.96145 0.470098 0
M  V30 5931 C 583.933 -1.69182 -0.981674 0
M  V30 5932 O 585.139 -2.27431 -1.48281 0
M  V30 5933 C 583.595 -3.51129 0.789732 0
M  V30 5934 C 583.203 -3.86938 2.25795 0
M  V30 5935 C 584.947 -4.2197 0.462765 0
M  V30 5936 C 582.854 -5.35012 2.52024 0
M  V30 5937 H 581.784 -0.734105 0.172065 0
M  V30 5938 H 584.435 -1.49959 1.05757 0
M  V30 5939 H 582.817 -3.95781 0.131571 0
M  V30 5940 H 583.991 -3.5326 2.95879 0
M  V30 5941 H 582.306 -3.29149 2.55049 0
M  V30 5942 H 584.903 -5.30904 0.636019 0
M  V30 5943 H 585.246 -4.12005 -0.59645 0
M  V30 5944 H 585.779 -3.82936 1.07727 0
M  V30 5945 H 582.518 -5.50008 3.56611 0
M  V30 5946 H 582.038 -5.70058 1.8653 0
M  V30 5947 H 583.717 -6.0222 2.36515 0
M  V30 5948 N 583.85 -0.624285 -1.44708 0
M  V30 5949 C 585.075 -0.131171 -2.06985 0
M  V30 5950 C 585.5 1.18234 -1.46295 0
M  V30 5951 O 584.858 1.72375 -0.561842 0
M  V30 5952 C 584.906 -0.0226724 -3.60593 0
M  V30 5953 O 584.01 1.02314 -3.99507 0
M  V30 5954 H 583.351 -0.0816556 -0.65896 0
M  V30 5955 H 585.88 -0.859027 -1.85693 0
M  V30 5956 H 585.891 0.170138 -4.07645 0
M  V30 5957 H 584.566 -0.981685 -4.04148 0
M  V30 5958 H 583.143 0.805452 -3.64097 0
M  V30 5959 N 585.328 1.53329 -0.364422 0
M  V30 5960 C 586.275 2.25698 0.482607 0
M  V30 5961 C 587.245 1.26325 1.07848 0
M  V30 5962 O 588.43 1.55104 1.11119 0
M  V30 5963 C 585.57 3.04873 1.61699 0
M  V30 5964 C 584.683 4.19135 1.0464 0
M  V30 5965 C 583.818 4.85754 2.14979 0
M  V30 5966 C 582.857 5.9205 1.5538 0
M  V30 5967 N 581.994 6.52365 2.59547 0
M  V30 5968 H 586.834 2.97666 -0.141032 0
M  V30 5969 H 584.371 1.46875 -0.0813692 0
M  V30 5970 H 586.329 3.49051 2.28516 0
M  V30 5971 H 584.959 2.35162 2.2113 0
M  V30 5972 H 584.011 3.79451 0.268553 0
M  V30 5973 H 585.323 4.95525 0.570653 0
M  V30 5974 H 584.477 5.3311 2.89619 0
M  V30 5975 H 583.216 4.08834 2.65906 0
M  V30 5976 H 582.221 5.44058 0.792549 0
M  V30 5977 H 583.446 6.7089 1.0528 0
M  V30 5978 H 581.392 5.78298 3.09689 0
M  V30 5979 H 581.309 7.2429 2.16655 0
M  V30 5980 H 582.577 7.0437 3.33892 0
M  V30 5981 N 586.806 0.0935595 1.57322 0
M  V30 5982 C 588.052 -0.571355 1.94585 0
M  V30 5983 C 588.385 -1.67929 0.975366 0
M  V30 5984 O 587.66 -1.94498 0.00816206 0
M  V30 5985 C 587.943 -1.12797 3.41978 0
M  V30 5986 C 587.796 -0.0251881 4.49793 0
M  V30 5987 C 589.115 -2.02682 3.90651 0
M  V30 5988 H 586.234 -0.206223 0.70756 0
M  V30 5989 H 588.876 0.163956 1.89291 0
M  V30 5990 H 587.026 -1.75461 3.4662 0
M  V30 5991 H 588.698 0.608979 4.57263 0
M  V30 5992 H 586.941 0.641399 4.29032 0
M  V30 5993 H 587.612 -0.455433 5.50118 0
M  V30 5994 H 590.088 -1.49925 3.88152 0
M  V30 5995 H 588.964 -2.38555 4.94351 0
M  V30 5996 H 589.225 -2.94362 3.29854 0
M  V30 5997 N 588.284 -1.56567 -0.180126 0
M  V30 5998 C 589.512 -1.85618 -0.913972 0
M  V30 5999 C 589.927 -0.677892 -1.7621 0
M  V30 6000 O 589.284 0.353171 -1.7905 0
M  V30 6001 C 589.335 -3.13619 -1.79793 0
M  V30 6002 O 589.056 -4.26906 -0.98402 0
M  V30 6003 C 590.557 -3.55954 -2.64219 0
M  V30 6004 H 587.777 -0.616043 -0.265954 0
M  V30 6005 H 590.321 -2.03681 -0.182872 0
M  V30 6006 H 588.476 -2.97409 -2.48247 0
M  V30 6007 H 588.89 -4.9989 -1.58776 0
M  V30 6008 H 590.364 -4.48444 -3.21873 0
M  V30 6009 H 590.841 -2.79653 -3.38661 0
M  V30 6010 H 591.447 -3.74746 -2.01111 0
M  V30 6011 N 589.762 0.448376 -1.51087 0
M  V30 6012 C 591.01 1.19635 -1.62886 0
M  V30 6013 C 591.331 1.91977 -0.342024 0
M  V30 6014 O 590.601 1.85094 0.641636 0
M  V30 6015 H 589.181 0.444598 -0.600285 0
M  V30 6016 H 591.843 0.515138 -1.87969 0
M  V30 6017 H 590.939 1.93194 -2.45117 0
M  V30 6018 N 591.24 1.41047 0.703093 0
M  V30 6019 C 592.489 1.39301 1.4587 0
M  V30 6020 C 592.802 0.00267077 1.956 0
M  V30 6021 O 594.008 -0.137414 2.71152 0
M  V30 6022 C 592.464 2.44891 2.63735 0
M  V30 6023 C 592.072 3.89796 2.20824 0
M  V30 6024 C 593.816 2.5227 3.41409 0
M  V30 6025 C 591.723 4.86955 3.35602 0
M  V30 6026 H 590.653 0.518005 0.547893 0
M  V30 6027 H 593.304 1.66839 0.764009 0
M  V30 6028 H 591.686 2.10472 3.35436 0
M  V30 6029 H 592.86 4.33424 1.56461 0
M  V30 6030 H 591.175 3.86008 1.56163 0
M  V30 6031 H 593.772 3.22044 4.26839 0
M  V30 6032 H 594.115 1.55714 3.86081 0
M  V30 6033 H 594.648 2.85742 2.7676 0
M  V30 6034 H 591.387 5.84888 2.9595 0
M  V30 6035 H 590.907 4.47982 3.98839 0
M  V30 6036 H 592.586 5.07361 4.01489 0
M  V30 6037 N 592.718 -0.936591 1.26751 0
M  V30 6038 C 593.666 -2.0573 1.08527 0
M  V30 6039 C 594.66 -1.69397 0.0108784 0
M  V30 6040 O 595.866 -1.79215 0.167915 0
M  V30 6041 H 592.241 -0.673691 0.334133 0
M  V30 6042 H 594.212 -2.1825 2.03493 0
M  V30 6043 C 592.961 -3.39738 0.739845 0
M  V30 6044 H 592.284 -3.68174 1.55845 0
M  V30 6045 H 593.724 -4.18955 0.652149 0
M  V30 6046 C 592.183 -3.32292 -0.555288 0
M  V30 6047 O 592.713 -3.68794 -1.59229 0
M  V30 6048 N 590.919 -2.85394 -0.54762 0
M  V30 6049 H 590.466 -2.55886 0.296667 0
M  V30 6050 H 590.424 -2.80795 -1.41427 0
M  V30 6051 N 594.196 -1.08629 -1.14182 0
M  V30 6052 C 595.473 -0.73002 -1.81466 0
M  V30 6053 C 595.853 0.785996 -1.95922 0
M  V30 6054 O 595.201 1.70535 -1.52086 0
M  V30 6055 C 595.411 -1.45957 -3.17014 0
M  V30 6056 C 596.759 -1.62008 -3.92477 0
M  V30 6057 O 597.783 -1.42141 -3.26611 0
M  V30 6058 O 596.642 -1.94806 -5.106 0
M  V30 6059 H 593.736 -0.261307 -0.784632 0
M  V30 6060 H 596.282 -1.188 -1.2118 0
M  V30 6061 H 595.054 -2.49221 -3.01669 0
M  V30 6062 H 594.677 -0.993222 -3.84995 0
M  V30 6063 N 595.674 1.31259 -0.872281 0
M  V30 6064 C 596.604 2.30929 -0.345554 0
M  V30 6065 C 597.585 1.60449 0.5648 0
M  V30 6066 O 598.77 1.8814 0.481335 0
M  V30 6067 C 595.9 3.44348 0.451823 0
M  V30 6068 C 594.854 4.26435 -0.365641 0
M  V30 6069 C 594.18 5.31785 0.557562 0
M  V30 6070 C 595.48 4.97159 -1.60095 0
M  V30 6071 H 597.174 2.75234 -1.17841 0
M  V30 6072 H 594.72 1.3232 -0.568094 0
M  V30 6073 H 596.673 4.13128 0.830854 0
M  V30 6074 H 595.397 2.98816 1.31821 0
M  V30 6075 H 594.056 3.59326 -0.726649 0
M  V30 6076 H 593.704 4.82502 1.4213 0
M  V30 6077 H 593.404 5.87598 0.0144878 0
M  V30 6078 H 594.928 6.03424 0.933387 0
M  V30 6079 H 596.342 5.58523 -1.29323 0
M  V30 6080 H 594.739 5.62779 -2.08327 0
M  V30 6081 H 595.809 4.24012 -2.35249 0
M  V30 6082 N 597.152 0.631951 1.44375 0
M  V30 6083 C 598.382 0.143658 2.061 0
M  V30 6084 C 598.79 -1.18733 1.47306 0
M  V30 6085 O 598.133 -1.73943 0.590724 0
M  V30 6086 C 598.195 -0.0446102 3.59472 0
M  V30 6087 C 597.859 1.20835 4.40736 0
M  V30 6088 C 598.856 2.13224 4.74164 0
M  V30 6089 C 596.541 1.44399 4.81097 0
M  V30 6090 C 598.535 3.27487 5.46838 0
M  V30 6091 C 596.222 2.58959 5.53519 0
M  V30 6092 C 597.22 3.50329 5.86309 0
M  V30 6093 O 596.908 4.62891 6.57257 0
M  V30 6094 H 596.64 0.0772939 0.671567 0
M  V30 6095 H 599.194 0.866677 1.8622 0
M  V30 6096 H 597.424 -0.822783 3.77845 0
M  V30 6097 H 599.113 -0.487561 4.02961 0
M  V30 6098 H 599.879 1.96253 4.4352 0
M  V30 6099 H 595.758 0.741696 4.54994 0
M  V30 6100 H 599.302 3.98826 5.72349 0
M  V30 6101 H 595.199 2.75873 5.83579 0
M  V30 6102 H 595.967 4.61883 6.75726 0
M  V30 6103 N 598.631 -1.53133 0.372548 0
M  V30 6104 C 599.561 -2.28876 -0.462412 0
M  V30 6105 C 600.542 -1.31583 -1.07796 0
M  V30 6106 O 601.727 -1.60461 -1.09389 0
M  V30 6107 C 598.857 -3.08317 -1.59868 0
M  V30 6108 C 597.811 -4.13355 -1.11003 0
M  V30 6109 C 597.137 -4.8092 -2.33708 0
M  V30 6110 C 598.437 -5.21955 -0.18983 0
M  V30 6111 H 600.131 -2.9892 0.169511 0
M  V30 6112 H 597.677 -1.43761 0.0829658 0
M  V30 6113 H 599.63 -3.60055 -2.18949 0
M  V30 6114 H 598.354 -2.35976 -2.25794 0
M  V30 6115 H 597.013 -3.62573 -0.541869 0
M  V30 6116 H 596.661 -4.05144 -2.98106 0
M  V30 6117 H 596.361 -5.51904 -2.01682 0
M  V30 6118 H 597.885 -5.35455 -2.93462 0
M  V30 6119 H 599.299 -5.69153 -0.688319 0
M  V30 6120 H 597.696 -6.00087 0.0398887 0
M  V30 6121 H 598.766 -4.78811 0.766057 0
M  V30 6122 N 600.109 -0.101901 -1.5727 0
M  V30 6123 C 601.355 0.561027 -1.94885 0
M  V30 6124 C 601.688 1.6741 -0.984258 0
M  V30 6125 O 600.963 1.94491 -0.0184767 0
M  V30 6126 C 601.246 1.10982 -3.42571 0
M  V30 6127 C 601.099 0.00133418 -4.498 0
M  V30 6128 C 602.418 2.00608 -3.9172 0
M  V30 6129 H 599.537 0.202467 -0.708644 0
M  V30 6130 H 602.179 -0.173992 -1.89202 0
M  V30 6131 H 600.329 1.73621 -3.47546 0
M  V30 6132 H 602.001 -0.63322 -4.56933 0
M  V30 6133 H 600.244 -0.664143 -4.28686 0
M  V30 6134 H 600.915 0.426253 -5.50352 0
M  V30 6135 H 603.391 1.47864 -3.88941 0
M  V30 6136 H 602.267 2.3593 -4.95609 0
M  V30 6137 H 602.528 2.92608 -3.3141 0
M  V30 6138 N 601.587 1.56661 0.17182 0
M  V30 6139 C 602.834 1.81965 0.888529 0
M  V30 6140 C 603.162 0.6789 1.82267 0
M  V30 6141 O 602.417 -0.333875 1.92831 0
M  V30 6142 C 602.716 3.13435 1.71736 0
M  V30 6143 C 602.382 4.41159 0.932184 0
M  V30 6144 C 601.044 4.75851 0.715481 0
M  V30 6145 C 603.396 5.19803 0.381387 0
M  V30 6146 C 600.724 5.86666 -0.063126 0
M  V30 6147 C 603.076 6.31433 -0.384129 0
M  V30 6148 C 601.74 6.64692 -0.611637 0
M  V30 6149 H 601.01 0.665859 0.325136 0
M  V30 6150 H 603.657 1.90884 0.153495 0
M  V30 6151 H 601.962 2.99857 2.52177 0
M  V30 6152 H 603.659 3.30224 2.27493 0
M  V30 6153 H 600.249 4.13947 1.11112 0
M  V30 6154 H 604.433 4.93396 0.536148 0
M  V30 6155 H 599.689 6.10892 -0.249136 0
M  V30 6156 H 603.863 6.91577 -0.818185 0
M  V30 6157 H 601.49 7.50398 -1.21684 0
M  V30 6158 N 603.065 -0.440357 1.51323 0
M  V30 6159 C 604.012 -1.53429 1.72419 0
M  V30 6160 C 604.982 -1.56165 0.565826 0
M  V30 6161 O 606.167 -1.73222 0.799917 0
M  V30 6162 C 603.307 -2.91169 1.85242 0
M  V30 6163 C 602.42 -2.97985 3.12777 0
M  V30 6164 C 601.555 -4.26829 3.16212 0
M  V30 6165 C 600.594 -4.27501 4.38074 0
M  V30 6166 N 599.731 -5.47866 4.39076 0
M  V30 6167 H 604.571 -1.34743 2.65797 0
M  V30 6168 H 602.108 -0.654608 1.31732 0
M  V30 6169 H 604.066 -3.71087 1.90658 0
M  V30 6170 H 602.696 -3.0842 0.952744 0
M  V30 6171 H 601.748 -2.10749 3.16685 0
M  V30 6172 H 603.06 -2.94342 4.02696 0
M  V30 6173 H 602.214 -5.15118 3.20527 0
M  V30 6174 H 600.953 -4.33124 2.24176 0
M  V30 6175 H 599.958 -3.37606 4.33938 0
M  V30 6176 H 601.183 -4.22873 5.31371 0
M  V30 6177 H 599.129 -5.54887 3.49909 0
M  V30 6178 H 599.046 -5.46091 5.22801 0
M  V30 6179 H 600.314 -6.38195 4.4758 0
M  V30 6180 N 604.543 -1.41418 -0.695603 0
M  V30 6181 C 605.791 -1.40496 -1.45277 0
M  V30 6182 C 606.112 -0.0149538 -1.94994 0
M  V30 6183 O 605.382 0.9432 -1.71699 0
M  V30 6184 H 603.962 -0.517147 -0.539044 0
M  V30 6185 H 606.624 -1.76656 -0.823321 0
M  V30 6186 H 605.72 -2.09214 -2.31595 0
M  V30 6187 N 606.021 0.929856 -1.27246 0
M  V30 6188 C 607.432 1.49223 -1.12203 0
M  V30 6189 C 607.783 1.93989 0.293731 0
M  V30 6190 O 606.908 1.80978 1.18642 0
M  V30 6191 C 607.503 2.71198 -2.0307 0
M  V30 6192 C 606.062 3.23666 -1.92139 0
M  V30 6193 C 605.209 1.96409 -1.95752 0
M  V30 6194 H 608.16 0.744181 -1.4017 0
M  V30 6195 H 608.181 3.45905 -1.58524 0
M  V30 6196 H 607.693 2.38585 -3.06102 0
M  V30 6197 H 605.794 3.61042 -0.920834 0
M  V30 6198 H 605.907 3.90006 -2.78267 0
M  V30 6199 H 604.271 2.12806 -1.39949 0
M  V30 6200 H 605.054 1.66113 -3.00436 0
M  V30 6201 N 607.499 1.09233 1.13605 0
M  V30 6202 C 608.745 0.828385 1.8511 0
M  V30 6203 C 609.078 -0.64437 1.83198 0
M  V30 6204 O 608.353 -1.47428 1.26867 0
M  V30 6205 C 608.636 1.36167 3.33363 0
M  V30 6206 C 608.489 2.90038 3.438 0
M  V30 6207 C 609.808 0.993819 4.28732 0
M  V30 6208 H 606.927 0.30239 0.672108 0
M  V30 6209 H 609.569 1.35339 1.33355 0
M  V30 6210 H 607.719 0.9151 3.77569 0
M  V30 6211 H 609.391 3.43128 3.08319 0
M  V30 6212 H 607.634 3.27271 2.84739 0
M  V30 6213 H 608.305 3.22428 4.48045 0
M  V30 6214 H 610.781 1.37893 3.92587 0
M  V30 6215 H 609.657 1.39403 5.30903 0
M  V30 6216 H 609.918 -0.0982206 4.41991 0
M  V30 6217 N 608.977 -1.30795 0.87923 0
M  V30 6218 C 609.925 -2.30231 0.331112 0
M  V30 6219 C 610.919 -1.59918 -0.558794 0
M  V30 6220 O 612.125 -1.74441 -0.443866 0
M  V30 6221 H 608.5 -0.746785 0.088409 0
M  V30 6222 H 610.471 -2.73925 1.18353 0
M  V30 6223 C 609.22 -3.44848 -0.444401 0
M  V30 6224 H 608.543 -3.99131 0.231106 0
M  V30 6225 H 609.983 -4.16516 -0.793109 0
M  V30 6226 C 608.442 -2.94329 -1.63926 0
M  V30 6227 O 608.972 -2.93875 -2.73862 0
M  V30 6228 N 607.178 -2.50413 -1.4745 0
M  V30 6229 H 606.725 -2.50982 -0.58015 0
M  V30 6230 H 606.683 -2.16969 -2.27534 0
M  V30 6231 N 610.455 -0.639598 -1.44038 0
M  V30 6232 C 611.704 -0.144885 -2.01179 0
M  V30 6233 C 612.017 1.24372 -1.50967 0
M  V30 6234 O 613.223 1.83291 -2.00292 0
M  V30 6235 C 611.679 -0.208244 -3.59297 0
M  V30 6236 C 611.287 -1.59869 -4.18504 0
M  V30 6237 C 613.031 0.229568 -4.23879 0
M  V30 6238 C 610.938 -1.61671 -5.68873 0
M  V30 6239 H 609.868 -0.0504005 -0.752314 0
M  V30 6240 H 612.519 -0.799639 -1.65161 0
M  V30 6241 H 610.901 0.513767 -3.92653 0
M  V30 6242 H 612.075 -2.34496 -3.96671 0
M  V30 6243 H 610.39 -1.98131 -3.66242 0
M  V30 6244 H 612.987 0.235758 -5.3418 0
M  V30 6245 H 613.33 1.25848 -3.96822 0
M  V30 6246 H 613.863 -0.440233 -3.95357 0
M  V30 6247 H 610.602 -2.62427 -6.00677 0
M  V30 6248 H 610.122 -0.913489 -5.92803 0
M  V30 6249 H 611.801 -1.35439 -6.32665 0
M  V30 6250 N 611.933 1.52934 -0.380664 0
M  V30 6251 C 613.21 1.93845 0.261417 0
M  V30 6252 C 613.59 1.31544 1.65104 0
M  V30 6253 O 612.938 0.480234 2.23397 0
M  V30 6254 C 613.148 3.47739 0.296466 0
M  V30 6255 C 614.496 4.21284 0.529578 0
M  V30 6256 O 615.52 3.54199 0.377041 0
M  V30 6257 O 614.379 5.40195 0.827753 0
M  V30 6258 H 611.473 0.811318 0.160285 0
M  V30 6259 H 614.019 1.64042 -0.434544 0
M  V30 6260 H 612.791 3.85395 -0.67724 0
M  V30 6261 H 612.414 3.8382 1.0377 0
M  V30 6262 N 613.412 0.11024 1.57214 0
M  V30 6263 C 614.658 -0.544479 1.95977 0
M  V30 6264 C 615.013 -1.64845 0.992171 0
M  V30 6265 O 614.306 -1.91589 0.0206981 0
M  V30 6266 C 614.5 -1.13102 3.39032 0
M  V30 6267 C 614.329 -0.0854079 4.49619 0
M  V30 6268 C 613.099 0.343373 5.04132 0
M  V30 6269 C 615.297 0.692232 5.0962 0
M  V30 6270 N 613.279 1.37567 5.98288 0
M  V30 6271 C 614.65 1.57596 5.99636 0
M  V30 6272 C 616.705 0.744085 4.92309 0
M  V30 6273 C 615.408 2.50701 6.74197 0
M  V30 6274 C 617.434 1.6628 5.67543 0
M  V30 6275 C 616.796 2.53412 6.57238 0
M  V30 6276 H 612.895 -0.169124 0.763493 0
M  V30 6277 H 615.479 0.196326 1.93708 0
M  V30 6278 H 613.65 -1.84158 3.41965 0
M  V30 6279 H 615.382 -1.74934 3.64939 0
M  V30 6280 H 612.137 -0.0473277 4.73576 0
M  V30 6281 H 612.561 1.89048 6.50069 0
M  V30 6282 H 617.203 0.0845825 4.22715 0
M  V30 6283 H 614.921 3.17669 7.43043 0
M  V30 6284 H 618.507 1.70825 5.56156 0
M  V30 6285 H 617.387 3.23347 7.14434 0
M  V30 6286 N 614.89 -1.56749 -0.16351 0
M  V30 6287 C 616.137 -1.82434 -0.878866 0
M  V30 6288 C 616.465 -0.688557 -1.81904 0
M  V30 6289 O 615.72 0.323644 -1.93005 0
M  V30 6290 C 616.019 -3.14342 -1.70071 0
M  V30 6291 C 615.685 -4.41647 -0.908775 0
M  V30 6292 C 614.347 -4.76224 -0.690236 0
M  V30 6293 C 616.699 -5.19998 -0.353815 0
M  V30 6294 C 614.027 -5.86624 0.0942374 0
M  V30 6295 C 616.379 -6.3122 0.41761 0
M  V30 6296 C 615.043 -6.64358 0.646879 0
M  V30 6297 H 614.313 -0.667574 -0.3216 0
M  V30 6298 H 616.96 -1.90963 -0.14337 0
M  V30 6299 H 615.265 -3.0119 -2.50583 0
M  V30 6300 H 616.962 -3.31426 -2.25738 0
M  V30 6301 H 613.552 -4.1453 -1.08916 0
M  V30 6302 H 617.736 -4.93673 -0.509975 0
M  V30 6303 H 612.992 -6.10751 0.281529 0
M  V30 6304 H 617.166 -6.91133 0.854849 0
M  V30 6305 H 614.793 -7.49742 1.25662 0
M  V30 6306 N 616.368 0.432326 -1.51554 0
M  V30 6307 C 617.596 1.20364 -1.68286 0
M  V30 6308 C 618.011 1.84888 -0.38233 0
M  V30 6309 O 617.368 1.70924 0.639627 0
M  V30 6310 C 617.419 2.28398 -2.80208 0
M  V30 6311 O 617.14 1.66512 -4.05223 0
M  V30 6312 C 618.641 3.18584 -3.08251 0
M  V30 6313 H 615.861 0.36259 -0.564596 0
M  V30 6314 H 618.405 0.511647 -1.97996 0
M  V30 6315 H 616.56 2.93305 -2.53083 0
M  V30 6316 H 616.974 2.37951 -4.67418 0
M  V30 6317 H 618.448 3.90511 -3.90135 0
M  V30 6318 H 618.925 3.79628 -2.2086 0
M  V30 6319 H 619.531 2.59372 -3.37055 0
M  V30 6320 N 617.846 1.41785 0.688094 0
M  V30 6321 C 619.093 1.41544 1.44816 0
M  V30 6322 C 619.421 0.0271746 1.94481 0
M  V30 6323 O 618.676 -0.962235 1.7041 0
M  V30 6324 C 618.975 2.37532 2.67046 0
M  V30 6325 C 618.641 3.84209 2.35996 0
M  V30 6326 C 617.303 4.24165 2.27239 0
M  V30 6327 C 619.655 4.76785 2.10536 0
M  V30 6328 C 616.983 5.54695 1.91128 0
M  V30 6329 C 619.335 6.07644 1.75931 0
M  V30 6330 C 617.999 6.46613 1.65675 0
M  V30 6331 H 617.269 0.517945 0.529919 0
M  V30 6332 H 619.916 1.74635 0.785797 0
M  V30 6333 H 618.221 1.9772 3.38251 0
M  V30 6334 H 619.918 2.34615 3.25203 0
M  V30 6335 H 616.508 3.52567 2.4371 0
M  V30 6336 H 620.692 4.46714 2.16242 0
M  V30 6337 H 615.948 5.83762 1.81746 0
M  V30 6338 H 620.122 6.78874 1.55252 0
M  V30 6339 H 617.749 7.47668 1.37463 0
M  V30 6340 N 619.324 -0.923095 1.27737 0
M  V30 6341 C 620.572 -1.66797 1.14119 0
M  V30 6342 C 620.893 -1.92479 -0.312541 0
M  V30 6343 O 620.163 -1.53432 -1.218 0
M  V30 6344 H 618.743 -0.618196 0.419336 0
M  V30 6345 H 621.405 -1.10815 1.60331 0
M  V30 6346 H 620.501 -2.63424 1.67374 0
M  V30 6347 N 620.802 -1.09834 -1.13024 0
M  V30 6348 C 622.048 -0.83819 -1.84668 0
M  V30 6349 C 622.381 0.634645 -1.83537 0
M  V30 6350 O 621.656 1.46753 -1.27647 0
M  V30 6351 C 621.939 -1.37933 -3.32636 0
M  V30 6352 C 621.792 -2.91857 -3.42257 0
M  V30 6353 C 623.111 -1.01654 -4.28199 0
M  V30 6354 H 620.23 -0.30595 -0.670495 0
M  V30 6355 H 622.872 -1.36044 -1.32635 0
M  V30 6356 H 621.022 -0.935111 -3.77078 0
M  V30 6357 H 622.694 -3.44759 -3.06495 0
M  V30 6358 H 620.937 -3.28776 -2.83 0
M  V30 6359 H 621.608 -3.24799 -4.46329 0
M  V30 6360 H 624.084 -1.39973 -3.9185 0
M  V30 6361 H 622.96 -1.42217 -5.30156 0
M  V30 6362 H 623.221 0.0747794 -4.42037 0
M  V30 6363 N 622.28 1.30327 -0.886154 0
M  V30 6364 C 623.19 2.31854 -0.357866 0
M  V30 6365 C 624.206 1.65392 0.540502 0
M  V30 6366 O 625.382 1.96683 0.433339 0
M  V30 6367 C 622.447 3.44171 0.417999 0
M  V30 6368 C 621.508 4.26257 -0.510263 0
M  V30 6369 C 620.741 5.3321 0.228669 0
M  V30 6370 O 620.964 5.51542 1.45458 0
M  V30 6371 O 619.898 6.0042 -0.421832 0
M  V30 6372 H 623.724 2.78995 -1.19982 0
M  V30 6373 H 621.309 1.34518 -0.650028 0
M  V30 6374 H 623.191 4.12588 0.857251 0
M  V30 6375 H 621.866 2.99164 1.23623 0
M  V30 6376 H 620.773 3.60533 -0.99835 0
M  V30 6377 H 622.106 4.74871 -1.29454 0
M  V30 6378 N 623.758 0.647228 1.43697 0
M  V30 6379 C 624.983 0.164083 2.0675 0
M  V30 6380 C 625.408 -1.15892 1.48158 0
M  V30 6381 O 624.766 -1.71459 0.589194 0
M  V30 6382 C 624.814 0.0800368 3.60511 0
M  V30 6383 O 623.918 -0.959453 4.01084 0
M  V30 6384 H 623.259 0.0921288 0.657578 0
M  V30 6385 H 625.789 0.88846 1.84303 0
M  V30 6386 H 625.799 -0.105263 4.07864 0
M  V30 6387 H 624.474 1.04586 4.02535 0
M  V30 6388 H 623.051 -0.747425 3.65333 0
M  V30 6389 N 625.236 -1.5273 0.388769 0
M  V30 6390 C 626.461 -2.0647 -0.19621 0
M  V30 6391 C 626.886 -1.25865 -1.39784 0
M  V30 6392 O 626.244 -0.283562 -1.79069 0
M  V30 6393 C 626.292 -3.56456 -0.5451 0
M  V30 6394 O 625.396 -3.78426 -1.63912 0
M  V30 6395 H 624.737 -0.663599 -0.023067 0
M  V30 6396 H 627.267 -1.96898 0.556084 0
M  V30 6397 H 627.277 -3.99888 -0.809557 0
M  V30 6398 H 625.952 -4.14561 0.333417 0
M  V30 6399 H 624.529 -3.46884 -1.36842 0
M  V30 6400 N 626.714 -0.118576 -1.57153 0
M  V30 6401 C 627.939 0.550582 -1.99958 0
M  V30 6402 C 628.364 1.59458 -0.997736 0
M  V30 6403 O 627.722 1.81274 0.0306269 0
M  V30 6404 C 627.77 1.15379 -3.41643 0
M  V30 6405 O 626.874 2.26932 -3.44348 0
M  V30 6406 H 626.215 0.137567 -0.649593 0
M  V30 6407 H 628.745 -0.206926 -2.03551 0
M  V30 6408 H 628.755 1.48942 -3.79843 0
M  V30 6409 H 627.43 0.389087 -4.14076 0
M  V30 6410 H 626.007 1.94812 -3.17967 0
M  V30 6411 N 628.193 1.56834 0.155195 0
M  V30 6412 C 629.421 1.87049 0.884326 0
M  V30 6413 C 629.836 0.705839 1.7511 0
M  V30 6414 O 629.193 -0.324641 1.79589 0
M  V30 6415 C 629.244 3.1644 1.74781 0
M  V30 6416 O 628.965 4.28417 0.915978 0
M  V30 6417 C 630.466 3.60113 2.58522 0
M  V30 6418 H 627.686 0.620196 0.25612 0
M  V30 6419 H 630.23 2.03946 0.150445 0
M  V30 6420 H 628.385 3.01321 2.43484 0
M  V30 6421 H 628.799 5.02353 1.50803 0
M  V30 6422 H 630.273 4.53508 3.14698 0
M  V30 6423 H 630.75 2.85005 3.34169 0
M  V30 6424 H 631.356 3.77898 1.95124 0
M  V30 6425 N 629.671 -0.424282 1.51781 0
M  V30 6426 C 630.919 -1.17028 1.64769 0
M  V30 6427 C 631.24 -1.91409 0.372523 0
M  V30 6428 O 630.51 -1.86091 -0.612108 0
M  V30 6429 H 629.09 -0.434992 0.607282 0
M  V30 6430 H 631.752 -0.485169 1.88765 0
M  V30 6431 H 630.848 -1.8927 2.4816 0
M  V30 6432 N 631.149 -1.42148 -0.680565 0
M  V30 6433 C 632.079 -1.4796 -1.80638 0
M  V30 6434 C 633.06 -0.336728 -1.66734 0
M  V30 6435 O 634.245 -0.550247 -1.86242 0
M  V30 6436 C 631.375 -1.37569 -3.18892 0
M  V30 6437 C 630.329 -2.49823 -3.47524 0
M  V30 6438 C 629.655 -2.24491 -4.85291 0
M  V30 6439 C 630.955 -3.92144 -3.44994 0
M  V30 6440 H 632.649 -2.42184 -1.76032 0
M  V30 6441 H 630.195 -1.16566 -0.845481 0
M  V30 6442 H 632.148 -1.40243 -3.97379 0
M  V30 6443 H 630.872 -0.398357 -3.24162 0
M  V30 6444 H 629.531 -2.46455 -2.71395 0
M  V30 6445 H 629.179 -1.25066 -4.87204 0
M  V30 6446 H 628.879 -2.99722 -5.05411 0
M  V30 6447 H 630.403 -2.28906 -5.66069 0
M  V30 6448 H 631.817 -3.97145 -4.13459 0
M  V30 6449 H 630.214 -4.67179 -3.76648 0
M  V30 6450 H 631.284 -4.19225 -2.43676 0
M  V30 6451 N 632.627 0.916307 -1.28225 0
M  V30 6452 C 633.875 1.6619 -1.15002 0
M  V30 6453 C 634.196 1.92642 0.302329 0
M  V30 6454 O 633.466 1.54076 1.20985 0
M  V30 6455 H 632.046 0.615964 -0.422608 0
M  V30 6456 H 634.708 1.09963 -1.60917 0
M  V30 6457 H 633.804 2.62533 -1.68769 0
M  V30 6458 N 634.105 1.10431 1.1244 0
M  V30 6459 C 635.382 0.758797 1.80282 0
M  V30 6460 C 635.762 -0.754727 1.97147 0
M  V30 6461 O 635.11 -1.68094 1.54779 0
M  V30 6462 C 635.32 1.50982 3.14651 0
M  V30 6463 C 636.668 1.68232 3.8985 0
M  V30 6464 O 637.692 1.47319 3.24308 0
M  V30 6465 O 636.551 2.02905 5.07437 0
M  V30 6466 H 633.645 0.273756 0.780376 0
M  V30 6467 H 636.191 1.20713 1.19275 0
M  V30 6468 H 634.963 2.53989 2.97666 0
M  V30 6469 H 634.586 1.05435 3.83366 0
M  V30 6470 N 635.583 -1.29855 0.893053 0
M  V30 6471 C 636.513 -2.3035 0.382249 0
M  V30 6472 C 637.494 -1.61328 -0.539203 0
M  V30 6473 O 638.679 -1.88882 -0.451342 0
M  V30 6474 C 635.809 -3.45024 -0.396983 0
M  V30 6475 C 634.763 -4.258 0.433437 0
M  V30 6476 C 634.089 -5.32605 -0.472889 0
M  V30 6477 C 635.389 -4.94549 1.67984 0
M  V30 6478 H 637.083 -2.73325 1.22205 0
M  V30 6479 H 634.629 -1.314 0.589073 0
M  V30 6480 H 636.582 -4.14398 -0.765024 0
M  V30 6481 H 635.306 -3.00875 -1.2705 0
M  V30 6482 H 633.965 -3.58125 0.783723 0
M  V30 6483 H 633.613 -4.84702 -1.34435 0
M  V30 6484 H 633.313 -5.87547 0.0789958 0
M  V30 6485 H 634.837 -6.04832 -0.837269 0
M  V30 6486 H 636.251 -5.56395 1.38192 0
M  V30 6487 H 634.648 -5.59393 2.17254 0
M  V30 6488 H 635.718 -4.20215 2.41965 0
M  V30 6489 N 637.061 -0.65484 -1.43351 0
M  V30 6490 C 638.009 0.0476784 -2.32551 0
M  V30 6491 C 639.003 0.811403 -1.48703 0
M  V30 6492 O 640.209 0.721621 -1.64902 0
M  V30 6493 H 636.584 0.0342038 -0.751222 0
M  V30 6494 H 638.555 -0.722342 -2.89525 0
M  V30 6495 C 637.304 0.999251 -3.33032 0
M  V30 6496 H 636.627 0.421005 -3.97577 0
M  V30 6497 H 638.067 1.45986 -3.98076 0
M  V30 6498 C 636.526 2.09606 -2.63756 0
M  V30 6499 O 637.056 3.18004 -2.4543 0
M  V30 6500 N 635.262 1.86207 -2.23103 0
M  V30 6501 H 634.809 0.980555 -2.38208 0
M  V30 6502 H 634.767 2.59787 -1.77081 0
M  V30 6503 N 638.539 1.52521 -0.396863 0
M  V30 6504 C 639.787 2.01274 0.182536 0
M  V30 6505 C 640.108 1.28485 1.46685 0
M  V30 6506 O 639.378 0.407134 1.91623 0
M  V30 6507 H 637.958 0.743671 0.0704442 0
M  V30 6508 H 640.62 1.87547 -0.530289 0
M  V30 6509 H 639.716 3.09687 0.387385 0
M  V30 6510 N 640.017 0.126909 1.57088 0
M  V30 6511 C 641.294 -0.573152 1.87014 0
M  V30 6512 C 641.674 -1.84297 1.02945 0
M  V30 6513 O 641.022 -2.28232 0.110573 0
M  V30 6514 C 641.232 -0.857984 3.38289 0
M  V30 6515 C 642.58 -1.20759 4.07066 0
M  V30 6516 O 643.604 -0.947992 3.43353 0
M  V30 6517 O 642.463 -1.69516 5.19545 0
M  V30 6518 H 639.557 -0.290082 0.774456 0
M  V30 6519 H 642.103 0.162008 1.68925 0
M  V30 6520 H 640.875 0.0415286 3.91278 0
M  V30 6521 H 640.498 -1.64803 3.61837 0
M  V30 6522 N 641.495 -1.56914 -0.146875 0
M  V30 6523 C 642.743 -1.82994 -0.85777 0
M  V30 6524 C 643.064 -0.707814 -1.817 0
M  V30 6525 O 642.334 0.270521 -1.94023 0
M  V30 6526 H 640.914 -0.675106 -0.319751 0
M  V30 6527 H 643.576 -1.9439 -0.140849 0
M  V30 6528 H 642.672 -2.77928 -1.41994 0
M  V30 6529 N 642.974 0.416227 -1.52004 0
M  V30 6530 C 643.922 1.5272 -1.7544 0
M  V30 6531 C 644.916 1.57596 -0.621289 0
M  V30 6532 O 646.122 1.61087 -0.803172 0
M  V30 6533 H 642.497 0.507772 -0.554682 0
M  V30 6534 H 644.468 1.30136 -2.68528 0
M  V30 6535 C 643.217 2.90165 -1.91571 0
M  V30 6536 H 642.54 2.87154 -2.78178 0
M  V30 6537 H 643.98 3.67211 -2.11972 0
M  V30 6538 C 642.439 3.29947 -0.680942 0
M  V30 6539 O 642.969 4.01403 0.154527 0
M  V30 6540 N 641.175 2.8593 -0.518894 0
M  V30 6541 H 640.722 2.2795 -1.19986 0
M  V30 6542 H 640.68 3.12907 0.305985 0
M  V30 6543 N 644.452 1.42507 0.673017 0
M  V30 6544 C 645.701 1.42364 1.42883 0
M  V30 6545 C 646.014 0.0441598 1.9555 0
M  V30 6546 O 647.22 -0.0798679 2.71382 0
M  V30 6547 C 645.676 2.5043 2.58482 0
M  V30 6548 C 645.284 3.94392 2.12506 0
M  V30 6549 C 647.028 2.59455 3.35981 0
M  V30 6550 C 644.935 4.93964 3.25198 0
M  V30 6551 H 643.865 0.52951 0.536782 0
M  V30 6552 H 646.516 1.68422 0.728448 0
M  V30 6553 H 644.898 2.1754 3.30896 0
M  V30 6554 H 646.072 4.36645 1.47233 0
M  V30 6555 H 644.387 3.89233 1.4794 0
M  V30 6556 H 646.984 3.31025 4.19912 0
M  V30 6557 H 647.327 1.63869 3.82691 0
M  V30 6558 H 647.86 2.91549 2.70637 0
M  V30 6559 H 644.599 5.91034 2.83477 0
M  V30 6560 H 644.119 4.56341 3.89247 0
M  V30 6561 H 645.798 5.15763 3.90637 0
M  V30 6562 N 645.93 -0.909495 1.28709 0
M  V30 6563 C 646.878 -2.03381 1.12866 0
M  V30 6564 C 647.872 -1.69335 0.0468074 0
M  V30 6565 O 649.078 -1.78819 0.205891 0
M  V30 6566 H 645.453 -0.666452 0.348348 0
M  V30 6567 H 647.424 -2.13885 2.08077 0
M  V30 6568 C 646.173 -3.38092 0.811742 0
M  V30 6569 H 645.496 -3.64786 1.63619 0
M  V30 6570 H 646.936 -4.17477 0.740869 0
M  V30 6571 C 645.395 -3.33395 -0.484679 0
M  V30 6572 O 645.925 -3.72089 -1.5137 0
M  V30 6573 N 644.131 -2.86491 -0.486961 0
M  V30 6574 H 643.678 -2.55199 0.350877 0
M  V30 6575 H 643.636 -2.83731 -1.3544 0
M  V30 6576 N 647.408 -1.11026 -1.11852 0
M  V30 6577 C 648.633 -0.879064 -1.87849 0
M  V30 6578 C 649.058 0.565406 -1.79401 0
M  V30 6579 O 648.416 1.39886 -1.15333 0
M  V30 6580 C 648.464 -1.33985 -3.34784 0
M  V30 6581 O 647.568 -0.508803 -4.09249 0
M  V30 6582 H 646.909 -0.316992 -0.583448 0
M  V30 6583 H 649.439 -1.47863 -1.41413 0
M  V30 6584 H 649.449 -1.33248 -3.85628 0
M  V30 6585 H 648.124 -2.39172 -3.40249 0
M  V30 6586 H 646.701 -0.581913 -3.68332 0
M  V30 6587 N 648.886 1.2938 -0.899927 0
M  V30 6588 C 650.111 2.00228 -0.540692 0
M  V30 6589 C 650.536 1.66909 0.867359 0
M  V30 6590 O 649.894 0.893824 1.57735 0
M  V30 6591 C 649.942 3.52921 -0.740232 0
M  V30 6592 O 649.046 4.11879 0.207154 0
M  V30 6593 H 648.387 0.629505 -0.211233 0
M  V30 6594 H 650.917 1.6487 -1.21158 0
M  V30 6595 H 650.927 4.0287 -0.644973 0
M  V30 6596 H 649.602 3.76508 -1.76677 0
M  V30 6597 H 648.179 3.72845 0.0643315 0
M  V30 6598 N 650.364 0.662433 1.43002 0
M  V30 6599 C 651.641 0.109096 1.95296 0
M  V30 6600 C 652.021 -1.37313 1.60338 0
M  V30 6601 O 651.369 -2.1032 0.893187 0
M  V30 6602 C 651.579 0.365096 3.47085 0
M  V30 6603 C 652.927 0.274964 4.23709 0
M  V30 6604 O 653.951 0.29816 3.5495 0
M  V30 6605 O 652.81 0.206549 5.4611 0
M  V30 6606 H 649.904 -0.00429724 0.826989 0
M  V30 6607 H 652.45 0.736308 1.52894 0
M  V30 6608 H 651.222 1.39237 3.65689 0
M  V30 6609 H 650.845 -0.294733 3.96506 0
M  V30 6610 N 651.842 -1.52309 0.404946 0
M  V30 6611 C 652.772 -2.29805 -0.41376 0
M  V30 6612 C 653.753 -1.3384 -1.0498 0
M  V30 6613 O 654.938 -1.62745 -1.05961 0
M  V30 6614 C 652.068 -3.11639 -1.53292 0
M  V30 6615 C 651.022 -4.15616 -1.02211 0
M  V30 6616 C 650.348 -4.8577 -2.23455 0
M  V30 6617 C 651.648 -5.2224 -0.0790725 0
M  V30 6618 H 653.342 -2.98493 0.232878 0
M  V30 6619 H 650.888 -1.43552 0.113441 0
M  V30 6620 H 652.841 -3.64618 -2.11262 0
M  V30 6621 H 651.565 -2.40712 -2.20738 0
M  V30 6622 H 650.224 -3.63641 -0.46484 0
M  V30 6623 H 649.872 -4.11376 -2.89445 0
M  V30 6624 H 649.572 -5.56058 -1.89929 0
M  V30 6625 H 651.096 -5.4156 -2.82038 0
M  V30 6626 H 652.51 -5.70485 -0.567438 0
M  V30 6627 H 650.907 -5.99867 0.167167 0
M  V30 6628 H 651.977 -4.77078 0.867447 0
M  V30 6629 N 653.32 -0.135238 -1.57019 0
M  V30 6630 C 654.252 0.839675 -2.13265 0
M  V30 6631 C 655.265 1.21887 -1.07923 0
M  V30 6632 O 656.454 1.16499 -1.35241 0
M  V30 6633 C 653.554 2.13647 -2.63075 0
M  V30 6634 C 652.727 1.92646 -3.92691 0
M  V30 6635 C 651.786 3.06205 -4.27931 0
M  V30 6636 O 650.812 2.78409 -4.96465 0
M  V30 6637 N 652.014 4.33072 -3.86561 0
M  V30 6638 H 654.779 0.359026 -2.97542 0
M  V30 6639 H 652.34 0.0486979 -1.61827 0
M  V30 6640 H 654.332 2.88641 -2.8367 0
M  V30 6641 H 652.902 2.5301 -1.83588 0
M  V30 6642 H 652.122 1.01754 -3.80841 0
M  V30 6643 H 653.41 1.75939 -4.77413 0
M  V30 6644 H 652.808 4.58526 -3.31316 0
M  V30 6645 H 651.365 5.04885 -4.12231 0
M  V30 6646 N 654.798 1.5699 0.138552 0
M  V30 6647 C 655.761 1.97984 1.15478 0
M  V30 6648 C 656.761 0.867416 1.35398 0
M  V30 6649 O 657.951 1.13387 1.32246 0
M  V30 6650 C 655.083 2.3031 2.51337 0
M  V30 6651 H 656.276 2.88953 0.802896 0
M  V30 6652 H 653.829 1.51555 0.382189 0
M  V30 6653 H 654.564 1.42159 2.91481 0
M  V30 6654 H 654.349 3.11425 2.38237 0
M  V30 6655 H 655.839 2.62834 3.24512 0
M  V30 6656 N 656.276 -0.40816 1.52223 0
M  V30 6657 C 657.206 -1.5042 1.78595 0
M  V30 6658 C 658.187 -1.57723 0.636974 0
M  V30 6659 O 659.372 -1.72982 0.882664 0
M  V30 6660 C 656.502 -2.88232 1.93751 0
M  V30 6661 C 655.456 -2.95779 3.09352 0
M  V30 6662 C 654.782 -4.35855 3.09732 0
M  V30 6663 C 656.082 -2.67175 4.48793 0
M  V30 6664 H 657.776 -1.28601 2.70374 0
M  V30 6665 H 655.322 -0.617221 1.30101 0
M  V30 6666 H 657.275 -3.64895 2.10783 0
M  V30 6667 H 655.999 -3.11347 0.986443 0
M  V30 6668 H 654.658 -2.21561 2.92072 0
M  V30 6669 H 654.306 -4.55981 2.12346 0
M  V30 6670 H 654.006 -4.41829 3.87377 0
M  V30 6671 H 655.53 -5.14451 3.28895 0
M  V30 6672 H 656.944 -3.3356 4.66273 0
M  V30 6673 H 655.341 -2.84523 5.28362 0
M  V30 6674 H 656.411 -1.62609 4.56822 0
M  V30 6675 N 657.755 -1.42862 -0.66545 0
M  V30 6676 C 658.702 -1.4707 -1.77874 0
M  V30 6677 C 659.672 -0.321654 -1.62956 0
M  V30 6678 O 660.857 -0.52707 -1.83376 0
M  V30 6679 C 657.997 -1.38788 -3.15962 0
M  V30 6680 C 657.11 -2.63801 -3.42101 0
M  V30 6681 C 656.245 -2.47594 -4.69969 0
M  V30 6682 C 655.284 -3.67936 -4.89172 0
M  V30 6683 N 654.421 -3.50614 -6.08288 0
M  V30 6684 H 659.261 -2.42204 -1.73613 0
M  V30 6685 H 656.798 -1.20239 -0.847401 0
M  V30 6686 H 658.756 -1.31982 -3.95773 0
M  V30 6687 H 657.386 -0.472431 -3.19324 0
M  V30 6688 H 656.438 -2.80935 -2.56475 0
M  V30 6689 H 657.75 -3.53228 -3.52181 0
M  V30 6690 H 656.904 -2.38427 -5.57886 0
M  V30 6691 H 655.643 -1.55672 -4.62188 0
M  V30 6692 H 654.648 -3.77525 -3.99694 0
M  V30 6693 H 655.873 -4.60851 -4.98792 0
M  V30 6694 H 653.819 -2.61417 -6.01662 0
M  V30 6695 H 653.736 -4.33634 -6.19272 0
M  V30 6696 H 655.004 -3.45276 -6.98859 0
M  V30 6697 N 659.233 0.902656 -1.29189 0
M  V30 6698 C 660.649 1.18296 -1.07137 0
M  V30 6699 C 660.849 2.00701 0.179223 0
M  V30 6700 O 659.905 2.3675 0.877812 0
M  V30 6701 C 661.218 1.90677 -2.32514 0
M  V30 6702 C 662.766 2.03515 -2.37804 0
M  V30 6703 C 663.241 2.79307 -3.62976 0
M  V30 6704 N 664.732 2.86862 -3.63681 0
M  V30 6705 C 665.467 3.46035 -4.57217 0
M  V30 6706 N 664.963 4.06399 -5.61081 0
M  V30 6707 N 666.756 3.43681 -4.44792 0
M  V30 6708 H 658.907 0.352765 -2.0945 0
M  V30 6709 H 661.17 0.21876 -0.922414 0
M  V30 6710 H 660.876 1.3756 -3.23682 0
M  V30 6711 H 660.75 2.91169 -2.39793 0
M  V30 6712 H 663.137 2.55809 -1.47125 0
M  V30 6713 H 663.218 1.02166 -2.34512 0
M  V30 6714 H 662.862 2.2769 -4.54004 0
M  V30 6715 H 662.792 3.80995 -3.63525 0
M  V30 6716 H 665.283 2.43987 -2.88581 0
M  V30 6717 H 665.596 4.49564 -6.2858 0
M  V30 6718 H 663.941 4.0487 -5.64894 0
M  V30 6719 H 667.132 2.9574 -3.62843 0
M  V30 6720 H 667.305 3.89503 -5.17872 0
M  V30 6721 N 660.711 1.11618 1.11262 0
M  V30 6722 C 661.661 0.745274 2.15475 0
M  V30 6723 C 662.645 -0.251585 1.58921 0
M  V30 6724 O 663.837 -0.0584093 1.76904 0
M  V30 6725 C 660.966 0.192128 3.42762 0
M  V30 6726 C 660.052 1.21676 4.0627 0
M  V30 6727 N 660.443 2.41158 4.44608 0
M  V30 6728 C 658.741 1.06013 4.33217 0
M  V30 6729 C 659.442 3.0652 4.94389 0
M  V30 6730 N 658.418 2.33994 4.9066 0
M  V30 6731 H 662.22 1.65462 2.42898 0
M  V30 6732 H 659.734 0.995695 1.28295 0
M  V30 6733 H 661.731 -0.0917339 4.16799 0
M  V30 6734 H 660.391 -0.711778 3.16802 0
M  V30 6735 H 661.402 2.786 4.3658 0
M  V30 6736 H 658.079 0.212809 4.16957 0
M  V30 6737 H 659.469 4.08225 5.33669 0
M  V30 6738 N 662.189 -1.289 0.906776 0
M  V30 6739 C 663.119 -2.29932 0.406659 0
M  V30 6740 C 664.1 -1.6189 -0.522061 0
M  V30 6741 O 665.285 -1.8935 -0.431283 0
M  V30 6742 C 662.415 -3.45425 -0.360366 0
M  V30 6743 C 661.369 -4.25316 0.478574 0
M  V30 6744 C 660.695 -5.33076 -0.416373 0
M  V30 6745 C 661.995 -4.92739 1.7322 0
M  V30 6746 H 663.689 -2.72013 1.25097 0
M  V30 6747 H 661.235 -1.30768 0.602977 0
M  V30 6748 H 663.188 -4.15186 -0.721029 0
M  V30 6749 H 661.912 -3.02206 -1.23852 0
M  V30 6750 H 660.571 -3.57273 0.821662 0
M  V30 6751 H 660.219 -4.86101 -1.29287 0
M  V30 6752 H 659.919 -5.8743 0.141309 0
M  V30 6753 H 661.443 -6.05686 -0.773072 0
M  V30 6754 H 662.857 -5.54898 1.44086 0
M  V30 6755 H 661.254 -5.57057 2.23175 0
M  V30 6756 H 662.324 -4.17625 2.46408 0
M  V30 6757 N 663.667 -0.670007 -1.42649 0
M  V30 6758 C 664.597 -0.00258501 -2.335 0
M  V30 6759 C 665.578 0.794364 -1.50412 0
M  V30 6760 O 666.763 0.75248 -1.79029 0
M  V30 6761 C 663.893 0.952748 -3.33976 0
M  V30 6762 C 662.847 0.264733 -4.2718 0
M  V30 6763 C 662.173 1.33267 -5.17826 0
M  V30 6764 C 663.473 -0.853289 -5.15283 0
M  V30 6765 H 665.167 -0.761326 -2.89559 0
M  V30 6766 H 662.713 -0.367561 -1.3923 0
M  V30 6767 H 664.666 1.4287 -3.96442 0
M  V30 6768 H 663.39 1.74285 -2.7621 0
M  V30 6769 H 662.049 -0.190938 -3.66102 0
M  V30 6770 H 661.697 2.11464 -4.5639 0
M  V30 6771 H 661.397 0.877476 -5.81011 0
M  V30 6772 H 662.921 1.80965 -5.83167 0
M  V30 6773 H 664.335 -0.458763 -5.71462 0
M  V30 6774 H 662.732 -1.23398 -5.87276 0
M  V30 6775 H 663.802 -1.70412 -4.53969 0
M  V30 6776 N 665.145 1.52092 -0.413018 0
M  V30 6777 C 666.393 2.01456 0.161178 0
M  V30 6778 C 666.714 1.30034 1.45314 0
M  V30 6779 O 665.984 0.427435 1.9118 0
M  V30 6780 H 664.564 0.744376 0.0625526 0
M  V30 6781 H 667.226 1.86974 -0.550151 0
M  V30 6782 H 666.322 3.1008 0.354517 0
M  V30 6783 N 666.623 0.143563 1.56945 0
M  V30 6784 C 667.872 -0.50835 1.95189 0
M  V30 6785 C 668.185 -1.66239 1.03073 0
M  V30 6786 O 669.391 -2.3787 1.30882 0
M  V30 6787 C 667.847 -0.955735 3.46978 0
M  V30 6788 C 667.455 0.171183 4.47673 0
M  V30 6789 C 669.199 -1.57763 3.94095 0
M  V30 6790 C 667.106 -0.294279 5.90667 0
M  V30 6791 H 666.036 -0.193679 0.728701 0
M  V30 6792 H 668.687 0.227357 1.82086 0
M  V30 6793 H 667.069 -1.7466 3.55401 0
M  V30 6794 H 668.243 0.948049 4.50942 0
M  V30 6795 H 666.558 0.701273 4.10452 0
M  V30 6796 H 669.155 -1.93745 4.98364 0
M  V30 6797 H 669.498 -2.46531 3.35452 0
M  V30 6798 H 670.031 -0.851728 3.88575 0
M  V30 6799 H 666.77 0.557939 6.53121 0
M  V30 6800 H 666.29 -1.0371 5.90766 0
M  V30 6801 H 667.969 -0.747426 6.42668 0
M  V30 6802 N 668.101 -1.57061 -0.130224 0
M  V30 6803 C 669.326 -1.88802 -0.858409 0
M  V30 6804 C 669.751 -0.734353 -1.73173 0
M  V30 6805 O 669.109 0.315529 -1.78533 0
M  V30 6806 C 669.157 -3.19228 -1.67708 0
M  V30 6807 O 668.261 -3.04343 -2.78297 0
M  V30 6808 H 667.602 -0.619849 -0.238083 0
M  V30 6809 H 670.132 -2.04271 -0.115995 0
M  V30 6810 H 670.142 -3.51669 -2.06864 0
M  V30 6811 H 668.817 -4.02793 -1.0359 0
M  V30 6812 H 667.394 -2.83346 -2.42425 0
M  V30 6813 N 669.579 0.400081 -1.52437 0
M  V30 6814 C 670.99 0.97851 -1.59003 0
M  V30 6815 C 671.341 1.91293 -0.436068 0
M  V30 6816 O 670.466 2.1183 0.442365 0
M  V30 6817 C 671.061 1.78145 -2.88184 0
M  V30 6818 C 669.62 2.30976 -2.97199 0
M  V30 6819 C 668.767 1.11212 -2.54022 0
M  V30 6820 H 671.718 0.180002 -1.57676 0
M  V30 6821 H 671.739 2.63968 -2.74046 0
M  V30 6822 H 671.251 1.1011 -3.72152 0
M  V30 6823 H 669.352 3.02355 -2.17744 0
M  V30 6824 H 669.465 2.61221 -4.01622 0
M  V30 6825 H 667.829 1.46882 -2.08081 0
M  V30 6826 H 668.612 0.447307 -3.40373 0
M  V30 6827 N 671.057 1.43213 0.657864 0
M  V30 6828 C 671.987 1.50815 1.78262 0
M  V30 6829 C 672.968 0.363211 1.66177 0
M  V30 6830 O 674.153 0.579806 1.85343 0
M  V30 6831 C 671.283 1.42625 3.16663 0
M  V30 6832 C 670.237 2.5532 3.43505 0
M  V30 6833 C 669.563 2.32184 4.81658 0
M  V30 6834 C 670.863 3.97583 3.38711 0
M  V30 6835 H 672.557 2.44954 1.72157 0
M  V30 6836 H 670.103 1.17896 0.82683 0
M  V30 6837 H 672.056 1.46548 3.95097 0
M  V30 6838 H 670.78 0.449877 3.23487 0
M  V30 6839 H 669.439 2.50742 2.6744 0
M  V30 6840 H 669.087 1.32801 4.85153 0
M  V30 6841 H 668.787 3.07724 5.00579 0
M  V30 6842 H 670.311 2.37883 5.62356 0
M  V30 6843 H 671.725 4.03673 4.07089 0
M  V30 6844 H 670.122 4.73112 3.69168 0
M  V30 6845 H 671.192 4.23049 2.36976 0
M  V30 6846 N 672.536 -0.895792 1.29666 0
M  V30 6847 C 673.764 -1.68001 1.20761 0
M  V30 6848 C 674.179 -1.87379 -0.231187 0
M  V30 6849 O 673.536 -1.41359 -1.15429 0
M  V30 6850 C 673.587 -3.06236 1.92098 0
M  V30 6851 O 673.308 -2.8774 3.30359 0
M  V30 6852 C 674.809 -4.00652 1.89717 0
M  V30 6853 H 672.029 -0.524591 0.418384 0
M  V30 6854 H 674.573 -1.11995 1.71106 0
M  V30 6855 H 672.728 -3.59007 1.45578 0
M  V30 6856 H 673.142 -3.75359 3.66342 0
M  V30 6857 H 674.616 -4.95051 2.44189 0
M  V30 6858 H 675.093 -4.30424 0.873595 0
M  V30 6859 H 675.699 -3.53815 2.35998 0
M  V30 6860 N 674.014 -1.12206 -1.10668 0
M  V30 6861 C 675.262 -0.874144 -1.82217 0
M  V30 6862 C 675.583 0.601736 -1.85484 0
M  V30 6863 O 674.853 1.43725 -1.33116 0
M  V30 6864 H 673.433 -0.320404 -0.674797 0
M  V30 6865 H 676.095 -1.41606 -1.33917 0
M  V30 6866 H 675.191 -1.25349 -2.85822 0
M  V30 6867 N 675.492 1.28418 -0.913599 0
M  V30 6868 C 676.402 2.31043 -0.406965 0
M  V30 6869 C 677.418 1.66501 0.505298 0
M  V30 6870 O 678.594 1.97558 0.391522 0
M  V30 6871 C 675.659 3.4498 0.344901 0
M  V30 6872 C 674.72 4.25078 -0.600563 0
M  V30 6873 C 673.953 5.33575 0.115516 0
M  V30 6874 O 674.176 5.54503 1.33727 0
M  V30 6875 O 673.11 5.9939 -0.549095 0
M  V30 6876 H 676.936 2.76387 -1.25873 0
M  V30 6877 H 674.521 1.33109 -0.678415 0
M  V30 6878 H 676.403 4.14314 0.769542 0
M  V30 6879 H 675.078 3.01719 1.1725 0
M  V30 6880 H 673.985 3.58334 -1.0746 0
M  V30 6881 H 675.318 4.72018 -1.39497 0
M  V30 6882 N 676.97 0.677563 1.42291 0
M  V30 6883 C 677.933 0.0101085 2.29198 0
M  V30 6884 C 678.933 -0.726219 1.43467 0
M  V30 6885 O 680.123 -0.563807 1.64824 0
M  V30 6886 C 677.255 -0.996316 3.26016 0
M  V30 6887 H 678.448 0.775071 2.89711 0
M  V30 6888 H 676.001 0.440065 1.49977 0
M  V30 6889 H 676.736 -1.78967 2.70446 0
M  V30 6890 H 676.521 -0.471687 3.89253 0
M  V30 6891 H 678.011 -1.46167 3.91184 0
M  V30 6892 N 678.448 -1.51871 0.421078 0
M  V30 6893 C 679.378 -2.30231 -0.389363 0
M  V30 6894 C 680.359 -1.34946 -1.03555 0
M  V30 6895 O 681.544 -1.63859 -1.04229 0
M  V30 6896 C 678.674 -3.13247 -1.49979 0
M  V30 6897 C 677.628 -4.16677 -0.977966 0
M  V30 6898 C 676.954 -4.88112 -2.1829 0
M  V30 6899 C 678.254 -5.22295 -0.0236775 0
M  V30 6900 H 679.948 -2.98229 0.264524 0
M  V30 6901 H 677.494 -1.43424 0.12866 0
M  V30 6902 H 679.447 -3.66838 -2.07383 0
M  V30 6903 H 678.171 -2.4304 -2.18173 0
M  V30 6904 H 676.83 -3.64114 -0.426245 0
M  V30 6905 H 676.478 -4.14423 -2.85066 0
M  V30 6906 H 676.178 -5.58041 -1.84021 0
M  V30 6907 H 677.702 -5.44521 -2.76278 0
M  V30 6908 H 679.116 -5.71055 -0.506899 0
M  V30 6909 H 677.513 -5.99656 0.230782 0
M  V30 6910 H 678.583 -4.76131 0.917999 0
M  V30 6911 N 679.926 -0.151884 -1.56866 0
M  V30 6912 C 680.856 0.781943 -2.20018 0
M  V30 6913 C 681.837 1.25347 -1.14987 0
M  V30 6914 O 683.022 1.31015 -1.43348 0
M  V30 6915 C 680.152 2.01928 -2.82564 0
M  V30 6916 C 679.106 1.68434 -3.93464 0
M  V30 6917 C 678.432 2.99472 -4.42968 0
M  V30 6918 C 679.732 0.927244 -5.14003 0
M  V30 6919 H 681.426 0.255607 -2.98307 0
M  V30 6920 H 678.972 0.121502 -1.43486 0
M  V30 6921 H 680.925 2.67741 -3.25411 0
M  V30 6922 H 679.649 2.56943 -2.01614 0
M  V30 6923 H 678.308 1.04998 -3.51242 0
M  V30 6924 H 677.956 3.52488 -3.58834 0
M  V30 6925 H 677.656 2.77823 -5.17772 0
M  V30 6926 H 679.18 3.66348 -4.88489 0
M  V30 6927 H 680.594 1.48756 -5.53665 0
M  V30 6928 H 678.991 0.810513 -5.94601 0
M  V30 6929 H 680.061 -0.0801163 -4.84834 0
M  V30 6930 N 681.404 1.57128 0.121893 0
M  V30 6931 C 682.82 1.52357 0.47534 0
M  V30 6932 C 683.02 0.864417 1.82017 0
M  V30 6933 O 682.076 0.445529 2.48538 0
M  V30 6934 C 683.389 2.97122 0.4625 0
M  V30 6935 C 684.937 3.08196 0.546255 0
M  V30 6936 C 685.412 4.54516 0.563833 0
M  V30 6937 N 686.903 4.58959 0.625353 0
M  V30 6938 C 687.638 5.69585 0.660354 0
M  V30 6939 N 687.134 6.89714 0.653175 0
M  V30 6940 N 688.927 5.57685 0.703143 0
M  V30 6941 H 681.078 1.98364 -0.75931 0
M  V30 6942 H 683.341 0.905777 -0.279772 0
M  V30 6943 H 683.047 3.48706 -0.457943 0
M  V30 6944 H 682.921 3.54406 1.29136 0
M  V30 6945 H 685.308 2.56617 1.45712 0
M  V30 6946 H 685.389 2.53912 -0.310234 0
M  V30 6947 H 685.033 5.06741 -0.342974 0
M  V30 6948 H 684.963 5.06609 1.43716 0
M  V30 6949 H 687.454 3.72489 0.637182 0
M  V30 6950 H 687.767 7.69781 0.682425 0
M  V30 6951 H 686.112 6.92223 0.620646 0
M  V30 6952 H 689.303 4.62744 0.706095 0
M  V30 6953 H 689.476 6.43909 0.726952 0
M  V30 6954 N 682.882 -0.391992 1.52647 0
M  V30 6955 C 683.845 -1.46135 1.7657 0
M  V30 6956 C 684.845 -1.47701 0.635698 0
M  V30 6957 O 686.035 -1.48924 0.903728 0
M  V30 6958 C 683.167 -2.85443 1.86374 0
M  V30 6959 H 684.36 -1.26208 2.72051 0
M  V30 6960 H 681.913 -0.623549 1.43323 0
M  V30 6961 H 682.648 -3.10718 0.928685 0
M  V30 6962 H 682.433 -2.85708 2.68539 0
M  V30 6963 H 683.923 -3.62933 2.06566 0
M  V30 6964 N 684.36 -1.4356 -0.65026 0
M  V30 6965 C 685.637 -1.35811 -1.40765 0
M  V30 6966 C 686.017 -0.00736379 -2.11099 0
M  V30 6967 O 685.365 1.00932 -2.05 0
M  V30 6968 C 685.575 -2.54332 -2.3899 0
M  V30 6969 C 686.923 -2.97551 -3.02901 0
M  V30 6970 O 687.947 -2.544 -2.49317 0
M  V30 6971 O 686.806 -3.72311 -4.00059 0
M  V30 6972 H 683.9 -0.536861 -0.629054 0
M  V30 6973 H 686.446 -1.55615 -0.676919 0
M  V30 6974 H 685.218 -3.44274 -1.85986 0
M  V30 6975 H 684.841 -2.36643 -3.19509 0
M  V30 6976 N 685.838 0.888903 -1.30139 0
M  V30 6977 C 687.084 1.6428 -1.18912 0
M  V30 6978 C 687.417 1.92499 0.256477 0
M  V30 6979 O 686.692 1.54312 1.18397 0
M  V30 6980 C 686.975 2.9851 -2.01405 0
M  V30 6981 C 686.828 2.77288 -3.54163 0
M  V30 6982 C 688.147 3.99383 -1.84882 0
M  V30 6983 H 685.266 0.596148 -0.433333 0
M  V30 6984 H 687.908 1.0289 -1.5973 0
M  V30 6985 H 686.058 3.50907 -1.66722 0
M  V30 6986 H 687.73 2.31709 -3.98884 0
M  V30 6987 H 685.973 2.11867 -3.78543 0
M  V30 6988 H 686.644 3.72717 -4.07168 0
M  V30 6989 H 689.12 3.56132 -2.15196 0
M  V30 6990 H 687.996 4.91222 -2.44934 0
M  V30 6991 H 688.257 4.34674 -0.806902 0
M  V30 6992 N 687.317 1.12792 1.10072 0
M  V30 6993 C 688.265 0.794523 2.18609 0
M  V30 6994 C 689.259 -0.220271 1.67962 0
M  V30 6995 O 690.465 -0.0780938 1.79831 0
M  V30 6996 H 686.84 0.239123 0.712969 0
M  V30 6997 H 688.811 1.71823 2.43966 0
M  V30 6998 C 687.56 0.269548 3.46654 0
M  V30 6999 H 686.883 1.04171 3.8599 0
M  V30 7000 H 688.323 0.0746242 4.23934 0
M  V30 7001 C 686.782 -1.00333 3.21613 0
M  V30 7002 O 687.312 -2.08042 3.4363 0
M  V30 7003 N 685.518 -0.931763 2.75257 0
M  V30 7004 H 685.065 -0.0551197 2.57541 0
M  V30 7005 H 685.023 -1.78405 2.58881 0
M  V30 7006 N 688.795 -1.27931 0.920396 0
M  V30 7007 C 690.211 -1.47085 0.619537 0
M  V30 7008 C 690.411 -1.83463 -0.833291 0
M  V30 7009 O 689.467 -1.94363 -1.61181 0
M  V30 7010 C 690.78 -2.56878 1.56314 0
M  V30 7011 C 692.328 -2.70743 1.57058 0
M  V30 7012 C 692.803 -3.83687 2.50097 0
M  V30 7013 N 694.294 -3.9105 2.48262 0
M  V30 7014 C 695.029 -4.77842 3.16945 0
M  V30 7015 N 694.525 -5.69176 3.94982 0
M  V30 7016 N 696.318 -4.71509 3.06 0
M  V30 7017 H 688.469 -1.02601 1.85975 0
M  V30 7018 H 690.732 -0.511682 0.798051 0
M  V30 7019 H 690.438 -2.36923 2.59923 0
M  V30 7020 H 690.312 -3.54117 1.29928 0
M  V30 7021 H 692.699 -2.90083 0.541832 0
M  V30 7022 H 692.78 -1.74015 1.8749 0
M  V30 7023 H 692.424 -3.65101 3.53077 0
M  V30 7024 H 692.354 -4.79827 2.16964 0
M  V30 7025 H 694.845 -3.25738 1.91581 0
M  V30 7026 H 695.158 -6.32245 4.44394 0
M  V30 7027 H 693.503 -5.68995 3.99086 0
M  V30 7028 H 696.694 -3.99151 2.44533 0
M  V30 7029 H 696.867 -5.38933 3.59799 0
M  V30 7030 N 690.273 -0.685099 -1.4193 0
M  V30 7031 C 691.498 -0.218842 -2.06242 0
M  V30 7032 C 691.923 1.11923 -1.51178 0
M  V30 7033 O 691.281 1.69837 -0.634446 0
M  V30 7034 C 691.329 -0.175592 -3.60172 0
M  V30 7035 O 690.433 0.852776 -4.03487 0
M  V30 7036 H 689.774 -0.109531 -0.654904 0
M  V30 7037 H 692.304 -0.937013 -1.81882 0
M  V30 7038 H 692.314 -0.00291151 -4.08 0
M  V30 7039 H 690.989 -1.15222 -3.99621 0
M  V30 7040 H 689.566 0.650301 -3.67186 0
M  V30 7041 N 691.751 1.51645 -0.429126 0
M  V30 7042 C 692.999 2.01616 0.139802 0
M  V30 7043 C 693.32 1.31568 1.43927 0
M  V30 7044 O 692.59 0.447688 1.90716 0
M  V30 7045 H 691.17 0.744998 0.054654 0
M  V30 7046 H 693.832 1.8638 -0.569952 0
M  V30 7047 H 692.928 3.10439 0.321609 0
M  V30 7048 N 693.229 0.160201 1.56784 0
M  V30 7049 C 694.176 -0.774416 2.1742 0
M  V30 7050 C 695.146 -1.23483 1.11091 0
M  V30 7051 O 696.331 -1.30499 1.39193 0
M  V30 7052 C 693.471 -2.00283 2.81035 0
M  V30 7053 C 692.584 -1.58701 4.01793 0
M  V30 7054 C 691.719 -2.76824 4.53367 0
M  V30 7055 C 690.758 -2.31679 5.66561 0
M  V30 7056 N 689.895 -3.42856 6.12694 0
M  V30 7057 H 694.735 -0.250542 2.96945 0
M  V30 7058 H 692.272 -0.111943 1.46673 0
M  V30 7059 H 694.23 -2.72316 3.16069 0
M  V30 7060 H 692.86 -2.5006 2.04132 0
M  V30 7061 H 691.912 -0.76384 3.72652 0
M  V30 7062 H 693.224 -1.21555 4.83762 0
M  V30 7063 H 692.378 -3.57029 4.90525 0
M  V30 7064 H 691.117 -3.17223 3.70433 0
M  V30 7065 H 690.122 -1.49917 5.28966 0
M  V30 7066 H 691.347 -1.9235 6.5129 0
M  V30 7067 H 689.293 -3.82852 5.32692 0
M  V30 7068 H 689.21 -3.09767 6.89624 0
M  V30 7069 H 690.478 -4.23379 6.545 0
M  V30 7070 N 694.707 -1.5719 -0.113559 0
M  V30 7071 C 695.953 -1.85412 -0.821597 0
M  V30 7072 C 696.286 -0.746722 -1.7927 0
M  V30 7073 O 695.561 0.246971 -1.92926 0
M  V30 7074 C 695.844 -3.24233 -1.56669 0
M  V30 7075 C 695.697 -4.45578 -0.614823 0
M  V30 7076 C 697.016 -3.60697 -2.52161 0
M  V30 7077 H 694.135 -0.674406 -0.29723 0
M  V30 7078 H 696.777 -1.89807 -0.085694 0
M  V30 7079 H 694.927 -3.20617 -2.19401 0
M  V30 7080 H 696.599 -4.613 0.00407137 0
M  V30 7081 H 694.842 -4.33738 0.0732332 0
M  V30 7082 H 695.513 -5.39395 -1.17292 0
M  V30 7083 H 697.989 -3.65139 -1.99532 0
M  V30 7084 H 696.865 -4.58798 -3.01323 0
M  V30 7085 H 697.126 -2.88403 -3.35076 0
M  V30 7086 N 696.185 0.383891 -1.52853 0
M  V30 7087 C 697.462 1.14296 -1.58732 0
M  V30 7088 C 697.842 2.07585 -0.383611 0
M  V30 7089 O 697.19 2.1971 0.627661 0
M  V30 7090 C 697.4 1.89816 -2.92867 0
M  V30 7091 C 698.748 2.44998 -3.46787 0
M  V30 7092 O 699.772 1.99966 -2.94774 0
M  V30 7093 O 698.631 3.2727 -4.37672 0
M  V30 7094 H 695.725 0.52326 -0.640413 0
M  V30 7095 H 698.271 0.388631 -1.6519 0
M  V30 7096 H 697.043 1.21626 -3.71918 0
M  V30 7097 H 696.666 2.72199 -2.89816 0
M  V30 7098 N 697.663 1.43903 0.642637 0
M  V30 7099 C 698.888 1.49758 1.43483 0
M  V30 7100 C 699.313 0.119911 1.87717 0
M  V30 7101 O 698.671 -0.888558 1.58033 0
M  V30 7102 C 698.719 2.45744 2.63898 0
M  V30 7103 O 697.823 1.95101 3.63331 0
M  V30 7104 H 697.164 0.506138 0.429791 0
M  V30 7105 H 699.694 1.88923 0.785438 0
M  V30 7106 H 699.704 2.63399 3.11584 0
M  V30 7107 H 698.379 3.45818 2.31046 0
M  V30 7108 H 696.956 1.87158 3.22531 0
M  V30 7109 N 699.141 -0.881989 1.30609 0
M  V30 7110 C 700.369 -1.66711 1.22536 0
M  V30 7111 C 700.784 -1.87614 -0.2113 0
M  V30 7112 O 700.141 -1.42576 -1.13923 0
M  V30 7113 C 700.192 -3.04182 1.95335 0
M  V30 7114 O 699.913 -2.8422 3.33393 0
M  V30 7115 C 701.414 -3.98617 1.93956 0
M  V30 7116 H 698.634 -0.520124 0.423925 0
M  V30 7117 H 701.178 -1.10174 1.72285 0
M  V30 7118 H 699.333 -3.57442 1.49378 0
M  V30 7119 H 699.747 -3.71452 3.70302 0
M  V30 7120 H 701.221 -4.92433 2.49426 0
M  V30 7121 H 701.698 -4.29473 0.919198 0
M  V30 7122 H 702.304 -3.51292 2.39738 0
M  V30 7123 N 700.619 -1.13374 -1.09472 0
M  V30 7124 C 701.896 -0.806329 -1.78207 0
M  V30 7125 C 702.276 0.702191 -1.99079 0
M  V30 7126 O 701.624 1.63931 -1.59182 0
M  V30 7127 C 701.834 -1.59271 -3.10538 0
M  V30 7128 C 703.182 -1.78509 -3.85253 0
M  V30 7129 O 704.206 -1.55866 -3.20288 0
M  V30 7130 O 703.065 -2.16287 -5.01879 0
M  V30 7131 H 700.159 -0.29435 -0.772843 0
M  V30 7132 H 702.705 -1.23833 -1.16033 0
M  V30 7133 H 701.477 -2.61792 -2.90828 0
M  V30 7134 H 701.1 -1.15562 -3.80436 0
M  V30 7135 N 702.098 1.27442 -0.927168 0
M  V30 7136 C 703.328 1.9821 -0.582775 0
M  V30 7137 C 703.736 1.69361 0.843406 0
M  V30 7138 O 703.079 0.950381 1.57205 0
M  V30 7139 C 703.141 3.52048 -0.728165 0
M  V30 7140 C 702.805 4.04518 -2.12637 0
M  V30 7141 C 703.802 4.17332 -3.10048 0
M  V30 7142 C 701.487 4.38879 -2.44317 0
M  V30 7143 C 703.481 4.6378 -4.37249 0
M  V30 7144 C 701.168 4.85018 -3.71753 0
M  V30 7145 C 702.166 4.97428 -4.68033 0
M  V30 7146 O 701.854 5.42556 -5.93202 0
M  V30 7147 H 701.586 0.639314 -0.219667 0
M  V30 7148 H 704.14 1.63272 -1.24626 0
M  V30 7149 H 702.37 3.86699 -0.00758143 0
M  V30 7150 H 704.059 4.04033 -0.388906 0
M  V30 7151 H 704.825 3.91046 -2.86894 0
M  V30 7152 H 700.704 4.28462 -1.70121 0
M  V30 7153 H 704.248 4.73382 -5.12402 0
M  V30 7154 H 700.145 5.10746 -3.94726 0
M  V30 7155 H 700.913 5.60811 -5.96182 0
M  V30 7156 N 703.576 0.692616 1.41565 0
M  V30 7157 C 704.801 0.229776 2.06123 0
M  V30 7158 C 705.226 -1.11119 1.5177 0
M  V30 7159 O 704.584 -1.69498 0.643444 0
M  V30 7160 C 704.632 0.19469 3.60074 0
M  V30 7161 O 703.736 -0.831366 4.03933 0
M  V30 7162 H 703.077 0.113002 0.654314 0
M  V30 7163 H 705.607 0.946645 1.81383 0
M  V30 7164 H 705.617 0.0245487 4.07993 0
M  V30 7165 H 704.292 1.17339 3.99004 0
M  V30 7166 H 702.869 -0.630819 3.67526 0
M  V30 7167 N 705.054 -1.51416 0.437162 0
M  V30 7168 C 706.3 -2.02386 -0.129555 0
M  V30 7169 C 706.633 -1.32071 -1.42376 0
M  V30 7170 O 705.908 -0.43559 -1.8956 0
M  V30 7171 C 706.191 -3.5841 -0.348487 0
M  V30 7172 C 706.044 -4.39341 0.964352 0
M  V30 7173 C 707.363 -4.25654 -1.11834 0
M  V30 7174 H 704.482 -0.735587 -0.0456109 0
M  V30 7175 H 707.124 -1.81055 0.576124 0
M  V30 7176 H 705.274 -3.76716 -0.949592 0
M  V30 7177 H 706.946 -4.32685 1.59942 0
M  V30 7178 H 705.189 -4.04432 1.56898 0
M  V30 7179 H 705.86 -5.4667 0.765212 0
M  V30 7180 H 708.336 -4.11617 -0.609165 0
M  V30 7181 H 707.212 -5.34704 -1.24029 0
M  V30 7182 H 707.473 -3.86502 -2.14636 0
M  V30 7183 N 706.532 -0.168513 -1.56696 0
M  V30 7184 C 707.462 0.758563 -2.20835 0
M  V30 7185 C 708.443 1.24121 -1.1631 0
M  V30 7186 O 709.628 1.29487 -1.4473 0
M  V30 7187 C 706.758 1.9892 -2.8469 0
M  V30 7188 C 705.712 1.64252 -3.95228 0
M  V30 7189 C 705.038 2.94757 -4.46119 0
M  V30 7190 C 706.338 0.872675 -5.14958 0
M  V30 7191 H 708.032 0.223953 -2.98561 0
M  V30 7192 H 705.578 0.106277 -1.43607 0
M  V30 7193 H 707.531 2.64275 -3.28233 0
M  V30 7194 H 706.255 2.5479 -2.04327 0
M  V30 7195 H 704.914 1.01266 -3.52336 0
M  V30 7196 H 704.562 3.48662 -3.62552 0
M  V30 7197 H 704.262 2.72316 -5.2069 0
M  V30 7198 H 705.786 3.61147 -4.92347 0
M  V30 7199 H 707.2 1.42875 -5.55211 0
M  V30 7200 H 705.597 0.747402 -5.95428 0
M  V30 7201 H 706.667 -0.131535 -4.84722 0
M  V30 7202 N 708.01 1.57248 0.105221 0
M  V30 7203 C 708.957 2.01338 1.12835 0
M  V30 7204 C 709.927 0.887897 1.40377 0
M  V30 7205 O 711.112 1.15315 1.5201 0
M  V30 7206 C 708.252 2.43432 2.44611 0
M  V30 7207 C 707.365 3.69457 2.23888 0
M  V30 7208 C 706.5 4.00473 3.48991 0
M  V30 7209 C 705.539 5.19638 3.23485 0
M  V30 7210 N 704.676 5.46457 4.40828 0
M  V30 7211 H 709.516 2.88527 0.745386 0
M  V30 7212 H 707.053 1.42714 0.356535 0
M  V30 7213 H 709.011 2.65879 3.21503 0
M  V30 7214 H 707.641 1.59266 2.80774 0
M  V30 7215 H 706.693 3.54545 1.37847 0
M  V30 7216 H 708.005 4.56497 2.01026 0
M  V30 7217 H 707.159 4.23642 4.34295 0
M  V30 7218 H 705.898 3.11935 3.74897 0
M  V30 7219 H 704.903 4.96299 2.36574 0
M  V30 7220 H 706.128 6.09766 2.98935 0
M  V30 7221 H 704.074 4.60876 4.66829 0
M  V30 7222 H 703.991 6.27849 4.2112 0
M  V30 7223 H 705.259 5.74155 5.27225 0
M  V30 7224 N 709.488 -0.375779 1.53054 0
M  V30 7225 C 710.904 -0.716764 1.426 0
M  V30 7226 C 711.104 -1.93651 0.556931 0
M  V30 7227 O 710.16 -2.52475 0.0354461 0
M  V30 7228 C 711.473 -0.939499 2.85646 0
M  V30 7229 C 713.021 -1.04015 2.95212 0
M  V30 7230 C 713.496 -1.29543 4.39298 0
M  V30 7231 N 714.987 -1.36335 4.42682 0
M  V30 7232 C 715.722 -1.57778 5.51266 0
M  V30 7233 N 715.218 -1.76604 6.69913 0
M  V30 7234 N 717.011 -1.60065 5.38828 0
M  V30 7235 H 709.162 0.42664 2.08071 0
M  V30 7236 H 711.425 0.128758 0.939215 0
M  V30 7237 H 711.131 -0.115189 3.51511 0
M  V30 7238 H 711.005 -1.85048 3.2869 0
M  V30 7239 H 713.392 -1.85501 2.29507 0
M  V30 7240 H 713.473 -0.106785 2.55577 0
M  V30 7241 H 713.117 -0.485611 5.05573 0
M  V30 7242 H 713.047 -2.24184 4.76497 0
M  V30 7243 H 715.538 -1.23441 3.5717 0
M  V30 7244 H 715.851 -1.9251 7.48438 0
M  V30 7245 H 714.196 -1.73802 6.72917 0
M  V30 7246 H 717.387 -1.44917 4.45103 0
M  V30 7247 H 717.56 -1.76435 6.23518 0
M  V30 7248 N 710.966 -1.44241 -0.634997 0
M  V30 7249 C 712.196 -1.50078 -1.41987 0
M  V30 7250 C 712.604 -0.123072 -1.88799 0
M  V30 7251 O 711.947 0.880552 -1.6122 0
M  V30 7252 C 712.009 -2.40033 -2.67628 0
M  V30 7253 C 711.673 -3.87268 -2.42637 0
M  V30 7254 C 712.67 -4.77902 -2.04708 0
M  V30 7255 C 710.355 -4.31933 -2.56396 0
M  V30 7256 C 712.349 -6.11202 -1.80862 0
M  V30 7257 C 710.036 -5.65281 -2.32164 0
M  V30 7258 C 711.034 -6.54734 -1.94455 0
M  V30 7259 O 710.722 -7.85613 -1.7049 0
M  V30 7260 H 710.454 -0.51146 -0.442023 0
M  V30 7261 H 713.008 -1.89843 -0.784138 0
M  V30 7262 H 711.238 -1.95188 -3.33824 0
M  V30 7263 H 712.927 -2.36863 -3.29622 0
M  V30 7264 H 713.693 -4.44668 -1.93638 0
M  V30 7265 H 709.572 -3.62569 -2.84719 0
M  V30 7266 H 713.116 -6.80983 -1.51353 0
M  V30 7267 H 709.013 -5.98078 -2.42843 0
M  V30 7268 H 709.781 -7.97373 -1.84767 0
M  V30 7269 N 712.444 0.87505 -1.31075 0
M  V30 7270 C 713.693 1.62245 -1.19831 0
M  V30 7271 C 714.006 1.94078 0.24357 0
M  V30 7272 O 715.212 2.67265 0.477646 0
M  V30 7273 C 713.668 2.92464 -2.09744 0
M  V30 7274 C 713.276 2.68134 -3.58898 0
M  V30 7275 C 715.02 3.70449 -2.07287 0
M  V30 7276 C 712.927 3.9423 -4.40836 0
M  V30 7277 H 711.857 0.608741 -0.444916 0
M  V30 7278 H 714.508 0.967947 -1.55894 0
M  V30 7279 H 712.89 3.59262 -1.66574 0
M  V30 7280 H 714.064 2.09776 -4.10281 0
M  V30 7281 H 712.379 2.03511 -3.6328 0
M  V30 7282 H 714.976 4.63983 -2.65752 0
M  V30 7283 H 715.319 4.02611 -1.05876 0
M  V30 7284 H 715.852 3.10528 -2.48631 0
M  V30 7285 H 712.591 3.67221 -5.42982 0
M  V30 7286 H 712.111 4.52058 -3.94213 0
M  V30 7287 H 713.79 4.62162 -4.52786 0
M  V30 7288 N 713.922 1.13953 1.08869 0
M  V30 7289 C 714.852 0.844824 2.17681 0
M  V30 7290 C 715.833 -0.198213 1.68941 0
M  V30 7291 O 717.018 -0.0559073 1.9412 0
M  V30 7292 C 714.148 0.316325 3.45856 0
M  V30 7293 C 713.102 1.29426 4.07962 0
M  V30 7294 C 712.428 0.625275 5.31031 0
M  V30 7295 C 713.728 2.65484 4.49795 0
M  V30 7296 H 715.422 1.75471 2.42591 0
M  V30 7297 H 712.968 0.845116 1.16592 0
M  V30 7298 H 714.921 0.0977876 4.21287 0
M  V30 7299 H 713.645 -0.628972 3.20486 0
M  V30 7300 H 712.304 1.49889 3.34558 0
M  V30 7301 H 711.952 -0.325678 5.01945 0
M  V30 7302 H 711.652 1.27777 5.73539 0
M  V30 7303 H 713.176 0.416152 6.0918 0
M  V30 7304 H 714.59 2.48957 5.16424 0
M  V30 7305 H 712.987 3.26963 5.03205 0
M  V30 7306 H 714.057 3.22717 3.61914 0
M  V30 7307 N 715.4 -1.26948 0.933913 0
M  V30 7308 C 716.816 -1.46419 0.635103 0
M  V30 7309 C 717.016 -1.84336 -0.813785 0
M  V30 7310 O 716.072 -1.96061 -1.59111 0
M  V30 7311 C 717.385 -2.55206 1.5903 0
M  V30 7312 C 718.933 -2.69062 1.5992 0
M  V30 7313 C 719.408 -3.81013 2.54152 0
M  V30 7314 N 720.899 -3.88395 2.52395 0
M  V30 7315 C 721.634 -4.74454 3.21996 0
M  V30 7316 N 721.13 -5.64954 4.00997 0
M  V30 7317 N 722.923 -4.68237 3.10983 0
M  V30 7318 H 715.074 -1.00622 1.87053 0
M  V30 7319 H 717.337 -0.503189 0.803433 0
M  V30 7320 H 717.043 -2.34153 2.62422 0
M  V30 7321 H 716.917 -3.52719 1.33677 0
M  V30 7322 H 719.304 -2.89492 0.572569 0
M  V30 7323 H 719.385 -1.72016 1.89325 0
M  V30 7324 H 719.029 -3.61336 3.5693 0
M  V30 7325 H 718.959 -4.77499 2.22041 0
M  V30 7326 H 721.45 -3.23687 1.95025 0
M  V30 7327 H 721.763 -6.27496 4.51074 0
M  V30 7328 H 720.108 -5.6473 4.05099 0
M  V30 7329 H 723.299 -3.96535 2.48753 0
M  V30 7330 H 723.472 -5.35087 3.65494 0
M  V30 7331 N 716.879 -0.700114 -1.41195 0
M  V30 7332 C 718.128 -0.230082 -2.00383 0
M  V30 7333 C 718.441 1.17857 -1.56106 0
M  V30 7334 O 719.647 1.74631 -2.07885 0
M  V30 7335 C 718.103 -0.360447 -3.5809 0
M  V30 7336 C 717.711 -1.77475 -4.11347 0
M  V30 7337 C 719.455 0.0495799 -4.24471 0
M  V30 7338 C 717.362 -1.85653 -5.61504 0
M  V30 7339 H 716.292 -0.0822633 -0.749499 0
M  V30 7340 H 718.943 -0.868969 -1.6162 0
M  V30 7341 H 717.325 0.346768 -3.94479 0
M  V30 7342 H 718.499 -2.51109 -3.86369 0
M  V30 7343 H 716.814 -2.13486 -3.57509 0
M  V30 7344 H 719.411 0.00898219 -5.34699 0
M  V30 7345 H 719.754 1.08904 -4.01803 0
M  V30 7346 H 720.287 -0.607521 -3.93134 0
M  V30 7347 H 717.026 -2.87667 -5.89006 0
M  V30 7348 H 716.546 -1.1641 -5.88395 0
M  V30 7349 H 718.225 -1.62151 -6.26351 0
M  V30 7350 N 718.357 1.51182 -0.445186 0
M  V30 7351 C 719.606 2.01342 0.120189 0
M  V30 7352 C 719.919 1.33353 1.43095 0
M  V30 7353 O 721.125 1.74525 2.07974 0
M  V30 7354 C 719.581 3.58925 0.264732 0
M  V30 7355 C 719.189 4.35855 -1.03606 0
M  V30 7356 C 720.933 4.17208 0.783455 0
M  V30 7357 C 718.84 5.85162 -0.856731 0
M  V30 7358 H 717.77 0.752426 0.0486922 0
M  V30 7359 H 720.421 1.74221 -0.576143 0
M  V30 7360 H 718.803 3.82525 1.02425 0
M  V30 7361 H 719.977 4.23997 -1.80452 0
M  V30 7362 H 718.292 3.89062 -1.48391 0
M  V30 7363 H 720.889 5.26475 0.934239 0
M  V30 7364 H 721.232 3.76892 1.768 0
M  V30 7365 H 721.765 3.97715 0.0820346 0
M  V30 7366 H 718.504 6.29904 -1.81388 0
M  V30 7367 H 718.024 5.99663 -0.128206 0
M  V30 7368 H 719.703 6.44963 -0.513027 0
M  V30 7369 N 719.835 0.176821 1.56605 0
M  V30 7370 C 721.063 -0.472828 2.01425 0
M  V30 7371 C 721.478 -1.56436 1.05703 0
M  V30 7372 O 720.835 -1.82405 0.058808 0
M  V30 7373 C 720.886 -1.04607 3.46034 0
M  V30 7374 O 720.607 0.00189608 4.381 0
M  V30 7375 C 722.108 -1.7734 4.06282 0
M  V30 7376 H 719.328 -0.120503 0.660091 0
M  V30 7377 H 721.872 0.280166 2.02572 0
M  V30 7378 H 720.027 -1.74953 3.45645 0
M  V30 7379 H 720.441 -0.422118 5.22799 0
M  V30 7380 H 721.915 -2.12703 5.09374 0
M  V30 7381 H 722.392 -2.67043 3.4869 0
M  V30 7382 H 722.998 -1.11623 4.10391 0
M  V30 7383 N 721.313 -1.57302 -0.09688 0
M  V30 7384 C 722.223 -2.05258 -1.13606 0
M  V30 7385 C 723.239 -0.977137 -1.43972 0
M  V30 7386 O 724.415 -1.29018 -1.54649 0
M  V30 7387 C 721.48 -2.46593 -2.43706 0
M  V30 7388 C 720.541 -3.68322 -2.20538 0
M  V30 7389 C 719.774 -4.07676 -3.44435 0
M  V30 7390 O 719.997 -3.47141 -4.52603 0
M  V30 7391 O 718.931 -5.00641 -3.34129 0
M  V30 7392 H 722.757 -2.94069 -0.758752 0
M  V30 7393 H 720.342 -1.46164 -0.309263 0
M  V30 7394 H 722.224 -2.73814 -3.20318 0
M  V30 7395 H 720.899 -1.6092 -2.80867 0
M  V30 7396 H 719.806 -3.4622 -1.41713 0
M  V30 7397 H 721.139 -4.54769 -1.88271 0
M  V30 7398 N 722.791 0.367657 -1.53252 0
M  V30 7399 C 724.038 1.11052 -1.69333 0
M  V30 7400 C 724.366 1.89363 -0.444064 0
M  V30 7401 O 723.621 1.87094 0.573953 0
M  V30 7402 C 723.92 2.09825 -2.89324 0
M  V30 7403 C 723.586 1.4801 -4.25915 0
M  V30 7404 C 722.248 1.30879 -4.6306 0
M  V30 7405 C 724.6 1.03268 -5.10867 0
M  V30 7406 C 721.928 0.675868 -5.82794 0
M  V30 7407 C 724.28 0.41377 -6.31245 0
M  V30 7408 C 722.944 0.229939 -6.67104 0
M  V30 7409 H 722.214 0.406367 -0.619634 0
M  V30 7410 H 724.861 0.392558 -1.87433 0
M  V30 7411 H 723.166 2.87917 -2.65728 0
M  V30 7412 H 724.863 2.67252 -2.98961 0
M  V30 7413 H 721.453 1.62336 -3.96667 0
M  V30 7414 H 725.637 1.15297 -4.82722 0
M  V30 7415 H 720.893 0.521833 -6.09169 0
M  V30 7416 H 725.067 0.0588768 -6.96375 0
M  V30 7417 H 722.694 -0.262562 -7.59746 0
M  V30 7418 N 724.269 1.44576 0.627338 0
M  V30 7419 C 725.68 1.42266 1.20902 0
M  V30 7420 C 726.031 0.139964 1.957 0
M  V30 7421 O 725.156 -0.759489 2.02634 0
M  V30 7422 C 725.751 2.57727 2.19914 0
M  V30 7423 C 724.31 2.58599 2.73502 0
M  V30 7424 C 723.457 2.34145 1.48564 0
M  V30 7425 H 726.408 1.53102 0.417791 0
M  V30 7426 H 726.429 2.30697 3.02588 0
M  V30 7427 H 725.941 3.51068 1.65447 0
M  V30 7428 H 724.042 1.6921 3.31962 0
M  V30 7429 H 724.155 3.57205 3.19282 0
M  V30 7430 H 722.519 1.83313 1.76829 0
M  V30 7431 H 723.302 3.29606 0.959935 0
M  V30 7432 N 725.747 -0.868086 1.31537 0
M  V30 7433 C 726.995 -1.61807 1.21091 0
M  V30 7434 C 727.316 -1.93631 -0.230623 0
M  V30 7435 O 726.586 -1.5846 -1.15183 0
M  V30 7436 H 725.166 -0.599854 0.445178 0
M  V30 7437 H 727.828 -1.03915 1.64887 0
M  V30 7438 H 726.924 -2.56088 1.78396 0
M  V30 7439 N 727.225 -1.14528 -1.08264 0
M  V30 7440 C 728.157 -0.791325 -2.15106 0
M  V30 7441 C 729.17 0.192449 -1.61659 0
M  V30 7442 O 730.359 -0.0294704 -1.78476 0
M  V30 7443 C 727.459 -0.154183 -3.38549 0
M  V30 7444 C 726.632 -1.17305 -4.21377 0
M  V30 7445 C 725.691 -0.559401 -5.23218 0
M  V30 7446 O 724.717 -1.22277 -5.55911 0
M  V30 7447 N 725.919 0.663159 -5.767 0
M  V30 7448 H 728.684 -1.71076 -2.46075 0
M  V30 7449 H 726.245 -1.0399 -1.24087 0
M  V30 7450 H 728.237 0.268884 -4.03806 0
M  V30 7451 H 726.807 0.668418 -3.0537 0
M  V30 7452 H 726.027 -1.773 -3.52077 0
M  V30 7453 H 727.315 -1.86128 -4.73533 0
M  V30 7454 H 726.713 1.22066 -5.52373 0
M  V30 7455 H 725.27 1.02871 -6.43631 0
M  V30 7456 N 728.703 1.26451 -0.940633 0
M  V30 7457 C 729.951 1.93395 -0.586748 0
M  V30 7458 C 730.272 1.7417 0.876921 0
M  V30 7459 O 729.542 1.097 1.62304 0
M  V30 7460 H 728.122 0.715687 -0.214012 0
M  V30 7461 H 730.784 1.53902 -1.19584 0
M  V30 7462 H 729.88 3.01565 -0.804059 0
M  V30 7463 N 730.181 0.707592 1.40822 0
M  V30 7464 C 731.458 0.171172 1.9485 0
M  V30 7465 C 731.838 -1.32143 1.64625 0
M  V30 7466 O 731.186 -2.07372 0.959647 0
M  V30 7467 C 731.396 0.475334 3.45748 0
M  V30 7468 C 732.744 0.409625 4.22619 0
M  V30 7469 O 733.768 0.410934 3.53822 0
M  V30 7470 O 732.627 0.380185 5.45176 0
M  V30 7471 H 729.721 0.022015 0.826707 0
M  V30 7472 H 732.267 0.784577 1.50474 0
M  V30 7473 H 731.039 1.50801 3.61075 0
M  V30 7474 H 730.662 -0.168439 3.97243 0
M  V30 7475 N 731.66 -1.50943 0.453197 0
M  V30 7476 C 732.906 -2.02512 -0.108082 0
M  V30 7477 C 733.239 -1.33574 -1.40967 0
M  V30 7478 O 732.514 -0.455671 -1.89087 0
M  V30 7479 C 732.797 -3.58759 -0.310453 0
M  V30 7480 C 732.65 -4.38293 1.0109 0
M  V30 7481 C 733.969 -4.26816 -1.07313 0
M  V30 7482 H 731.088 -0.73603 -0.0378064 0
M  V30 7483 H 733.73 -1.80433 0.595295 0
M  V30 7484 H 731.88 -3.77702 -0.909582 0
M  V30 7485 H 733.552 -4.30964 1.64523 0
M  V30 7486 H 731.795 -4.02745 1.61179 0
M  V30 7487 H 732.466 -5.45828 0.82315 0
M  V30 7488 H 734.942 -4.1224 -0.565473 0
M  V30 7489 H 733.818 -5.35989 -1.1835 0
M  V30 7490 H 734.079 -3.88757 -2.10525 0
M  V30 7491 N 733.138 -0.185124 -1.56509 0
M  V30 7492 C 734.07 0.771401 -2.15829 0
M  V30 7493 C 735.083 1.18392 -1.11747 0
M  V30 7494 O 736.272 1.12137 -1.38879 0
M  V30 7495 C 733.372 2.05169 -2.69739 0
M  V30 7496 C 732.545 1.80056 -3.98621 0
M  V30 7497 C 731.604 2.92435 -4.37456 0
M  V30 7498 O 730.63 2.62473 -5.05071 0
M  V30 7499 N 731.832 4.20554 -4.00143 0
M  V30 7500 H 734.597 0.264184 -2.98533 0
M  V30 7501 H 732.158 -0.00281069 -1.619 0
M  V30 7502 H 734.15 2.7947 -2.92709 0
M  V30 7503 H 732.72 2.47041 -1.91545 0
M  V30 7504 H 731.94 0.895862 -3.83885 0
M  V30 7505 H 733.228 1.60662 -4.82768 0
M  V30 7506 H 732.626 4.47753 -3.45736 0
M  V30 7507 H 731.183 4.91514 -4.28085 0
M  V30 7508 N 734.616 1.57351 0.0885366 0
M  V30 7509 C 735.844 1.90631 0.804196 0
M  V30 7510 C 736.259 0.779474 1.71958 0
M  V30 7511 O 735.616 -0.248179 1.80805 0
M  V30 7512 C 735.667 3.23568 1.61202 0
M  V30 7513 O 735.388 4.31917 0.733447 0
M  V30 7514 C 736.889 3.70753 2.43016 0
M  V30 7515 H 734.109 0.630501 0.229585 0
M  V30 7516 H 736.653 2.044 0.0638092 0
M  V30 7517 H 734.808 3.11377 2.30485 0
M  V30 7518 H 735.222 5.08297 1.29361 0
M  V30 7519 H 736.696 4.66447 2.9518 0
M  V30 7520 H 737.173 2.98922 3.2178 0
M  V30 7521 H 737.779 3.85834 1.7892 0
M  V30 7522 N 736.094 -0.359525 1.53444 0
M  V30 7523 C 737.505 -0.936009 1.61542 0
M  V30 7524 C 737.856 -1.90069 0.486633 0
M  V30 7525 O 736.981 -2.12929 -0.386047 0
M  V30 7526 C 737.576 -1.70441 2.92806 0
M  V30 7527 C 736.135 -2.23015 3.03218 0
M  V30 7528 C 735.282 -1.04438 2.56881 0
M  V30 7529 H 738.233 -0.138134 1.58098 0
M  V30 7530 H 738.254 -2.56609 2.80948 0
M  V30 7531 H 737.766 -1.00205 3.74941 0
M  V30 7532 H 735.867 -2.96475 2.25684 0
M  V30 7533 H 735.98 -2.50481 4.08407 0
M  V30 7534 H 734.344 -1.41314 2.11902 0
M  V30 7535 H 735.127 -0.356905 3.4144 0
M  V30 7536 N 737.572 -1.44907 -0.619662 0
M  V30 7537 C 738.52 -1.52971 -1.75222 0
M  V30 7538 C 739.514 -0.400531 -1.64597 0
M  V30 7539 O 740.72 -0.575952 -1.70537 0
M  V30 7540 H 737.095 -0.480241 -0.578682 0
M  V30 7541 H 739.066 -2.48269 -1.65545 0
M  V30 7542 C 737.815 -1.50204 -3.13583 0
M  V30 7543 H 737.138 -2.36412 -3.22412 0
M  V30 7544 H 738.578 -1.59905 -3.92691 0
M  V30 7545 C 737.037 -0.22455 -3.36151 0
M  V30 7546 O 737.567 0.700574 -3.95544 0
M  V30 7547 N 735.773 -0.124052 -2.90335 0
M  V30 7548 H 735.32 -0.87774 -2.42185 0
M  V30 7549 H 735.278 0.729914 -3.0581 0
M  V30 7550 N 739.05 0.861098 -1.31996 0
M  V30 7551 C 740.461 1.43065 -1.19955 0
M  V30 7552 C 740.812 1.95273 0.190489 0
M  V30 7553 O 739.937 1.87012 1.08882 0
M  V30 7554 C 740.532 2.60052 -2.1716 0
M  V30 7555 C 739.091 3.13026 -2.09026 0
M  V30 7556 C 738.238 1.85756 -2.05888 0
M  V30 7557 H 741.189 0.668834 -1.43918 0
M  V30 7558 H 741.21 3.37016 -1.76637 0
M  V30 7559 H 740.722 2.22024 -3.18319 0
M  V30 7560 H 738.823 3.55653 -1.11092 0
M  V30 7561 H 738.936 3.74707 -2.98549 0
M  V30 7562 H 737.3 2.05088 -1.51033 0
M  V30 7563 H 738.083 1.49954 -3.08818 0
M  V30 7564 N 740.528 1.15101 1.07655 0
M  V30 7565 C 741.753 0.948177 1.84457 0
M  V30 7566 C 742.178 -0.498432 1.81376 0
M  V30 7567 O 741.536 -1.35509 1.20445 0
M  V30 7568 C 741.584 1.46318 3.29581 0
M  V30 7569 O 740.688 0.660342 4.07079 0
M  V30 7570 H 740.029 0.338428 0.571281 0
M  V30 7571 H 742.559 1.5301 1.35828 0
M  V30 7572 H 742.569 1.47468 3.80417 0
M  V30 7573 H 741.244 2.51635 3.31138 0
M  V30 7574 H 739.821 0.718216 3.65918 0
M  V30 7575 N 742.006 -1.2595 0.947325 0
M  V30 7576 C 743.252 -1.9375 0.599064 0
M  V30 7577 C 743.585 -1.74088 -0.860632 0
M  V30 7578 O 742.86 -1.08158 -1.61654 0
M  V30 7579 C 743.143 -3.47353 0.949634 0
M  V30 7580 C 742.996 -3.76273 2.46452 0
M  V30 7581 C 744.315 -4.37589 0.469442 0
M  V30 7582 H 741.434 -0.703674 0.219115 0
M  V30 7583 H 744.076 -1.48705 1.18266 0
M  V30 7584 H 742.226 -3.8585 0.453008 0
M  V30 7585 H 743.898 -3.47455 3.03435 0
M  V30 7586 H 742.141 -3.22135 2.90537 0
M  V30 7587 H 742.812 -4.83664 2.66032 0
M  V30 7588 H 745.288 -4.06353 0.89534 0
M  V30 7589 H 744.164 -5.43841 0.7435 0
M  V30 7590 H 744.425 -4.37579 -0.630618 0
M  V30 7591 N 743.484 -0.715051 -1.40445 0
M  V30 7592 C 744.712 -0.263959 -2.05209 0
M  V30 7593 C 745.127 1.09403 -1.53871 0
M  V30 7594 O 744.484 1.68746 -0.695064 0
M  V30 7595 C 744.535 -0.234545 -3.60738 0
M  V30 7596 O 744.256 -1.53891 -4.10182 0
M  V30 7597 C 745.757 0.235164 -4.42676 0
M  V30 7598 H 742.977 -0.11876 -0.660407 0
M  V30 7599 H 745.521 -0.973107 -1.79864 0
M  V30 7600 H 743.676 0.425563 -3.85055 0
M  V30 7601 H 744.09 -1.43903 -5.04373 0
M  V30 7602 H 745.564 0.204598 -5.51621 0
M  V30 7603 H 746.041 1.27724 -4.20218 0
M  V30 7604 H 746.647 -0.394649 -4.23465 0
M  V30 7605 N 744.962 1.50701 -0.461195 0
M  V30 7606 C 746.373 1.867 -0.00370227 0
M  V30 7607 C 746.724 1.37673 1.39787 0
M  V30 7608 O 745.849 0.737515 2.03445 0
M  V30 7609 C 746.444 3.388 5.75786e-05 0
M  V30 7610 C 745.003 3.74247 0.402044 0
M  V30 7611 C 744.15 2.74549 -0.389652 0
M  V30 7612 H 747.101 1.43585 -0.675942 0
M  V30 7613 H 747.122 3.719 0.804414 0
M  V30 7614 H 746.634 3.74452 -1.02015 0
M  V30 7615 H 744.735 3.44192 1.42697 0
M  V30 7616 H 744.848 4.78973 0.110265 0
M  V30 7617 H 743.212 2.54226 0.155314 0
M  V30 7618 H 743.995 3.13044 -1.40919 0
M  V30 7619 N 746.441 0.193421 1.56409 0
M  V30 7620 C 747.669 -0.451438 2.01915 0
M  V30 7621 C 748.084 -1.55306 1.07357 0
M  V30 7622 O 747.441 -1.82333 0.0781512 0
M  V30 7623 C 747.492 -1.00931 3.47124 0
M  V30 7624 O 747.213 0.0483623 4.38073 0
M  V30 7625 C 748.714 -1.73021 4.0814 0
M  V30 7626 H 745.934 -0.113495 0.661332 0
M  V30 7627 H 748.478 0.301636 2.02263 0
M  V30 7628 H 746.633 -1.71277 3.47481 0
M  V30 7629 H 747.047 -0.366644 5.23217 0
M  V30 7630 H 748.521 -2.07289 5.11601 0
M  V30 7631 H 748.998 -2.6333 3.51502 0
M  V30 7632 H 749.604 -1.07264 4.11551 0
M  V30 7633 N 747.919 -1.57396 -0.0801906 0
M  V30 7634 C 748.851 -1.9982 -1.12271 0
M  V30 7635 C 749.864 -0.902902 -1.35468 0
M  V30 7636 O 751.053 -1.18088 -1.33856 0
M  V30 7637 C 748.153 -2.31476 -2.47532 0
M  V30 7638 C 747.326 -3.62745 -2.44407 0
M  V30 7639 C 746.385 -3.82168 -3.6171 0
M  V30 7640 O 745.411 -4.53852 -3.43522 0
M  V30 7641 N 746.613 -3.2388 -4.81749 0
M  V30 7642 H 749.378 -2.89864 -0.761501 0
M  V30 7643 H 746.939 -1.5965 -0.268965 0
M  V30 7644 H 748.931 -2.4165 -3.24634 0
M  V30 7645 H 747.501 -1.47364 -2.75686 0
M  V30 7646 H 746.721 -3.63403 -1.52747 0
M  V30 7647 H 748.009 -4.48954 -2.39412 0
M  V30 7648 H 747.407 -2.6568 -4.9943 0
M  V30 7649 H 745.964 -3.39515 -5.56392 0
M  V30 7650 N 749.397 0.351382 -1.53633 0
M  V30 7651 C 750.625 1.11275 -1.74429 0
M  V30 7652 C 751.04 1.82602 -0.479798 0
M  V30 7653 O 750.397 1.74074 0.548125 0
M  V30 7654 C 750.448 2.13223 -2.91921 0
M  V30 7655 O 750.169 1.44798 -4.13479 0
M  V30 7656 C 751.67 3.01797 -3.24706 0
M  V30 7657 H 748.89 0.332153 -0.583023 0
M  V30 7658 H 751.434 0.405974 -2.0043 0
M  V30 7659 H 749.589 2.79477 -2.68274 0
M  V30 7660 H 750.003 2.12839 -4.79374 0
M  V30 7661 H 751.477 3.69282 -4.10286 0
M  V30 7662 H 751.954 3.67387 -2.40673 0
M  V30 7663 H 752.56 2.41141 -3.5033 0
M  V30 7664 N 750.875 1.45233 0.611969 0
M  V30 7665 C 752.286 1.4354 1.19387 0
M  V30 7666 C 752.637 0.160713 1.95541 0
M  V30 7667 O 751.762 -0.737954 2.03429 0
M  V30 7668 C 752.357 2.60045 2.17169 0
M  V30 7669 C 750.916 2.61486 2.70744 0
M  V30 7670 C 750.063 2.35708 1.46072 0
M  V30 7671 H 753.014 1.53536 0.401529 0
M  V30 7672 H 753.035 2.33893 3.00124 0
M  V30 7673 H 752.547 3.52803 1.61714 0
M  V30 7674 H 750.648 1.72721 3.30149 0
M  V30 7675 H 750.761 3.60572 3.15476 0
M  V30 7676 H 749.125 1.85178 1.74875 0
M  V30 7677 H 749.908 3.30606 0.924922 0
M  V30 7678 N 752.353 -0.854086 1.3245 0
M  V30 7679 C 753.602 -1.60318 1.22397 0
M  V30 7680 C 753.915 -1.9444 -0.212664 0
M  V30 7681 O 755.121 -2.67991 -0.435066 0
M  V30 7682 C 753.577 -2.8909 2.1437 0
M  V30 7683 C 753.185 -2.62391 3.63119 0
M  V30 7684 C 754.929 -3.67104 2.13155 0
M  V30 7685 C 752.836 -3.87167 4.47052 0
M  V30 7686 H 751.766 -0.601586 0.454544 0
M  V30 7687 H 754.417 -0.943023 1.57415 0
M  V30 7688 H 752.799 -3.56567 1.72268 0
M  V30 7689 H 753.973 -2.03222 4.13567 0
M  V30 7690 H 752.288 -1.97706 3.66471 0
M  V30 7691 H 754.885 -4.59696 2.731 0
M  V30 7692 H 755.228 -4.00876 1.12268 0
M  V30 7693 H 755.761 -3.06533 2.5354 0
M  V30 7694 H 752.5 -3.58536 5.48755 0
M  V30 7695 H 752.02 -4.45729 4.01355 0
M  V30 7696 H 753.699 -4.549 4.60081 0
M  V30 7697 N 753.831 -1.1567 -1.07043 0
M  V30 7698 C 755.242 -0.942408 -1.61169 0
M  V30 7699 C 755.593 0.515537 -1.89306 0
M  V30 7700 O 754.718 1.38726 -1.66084 0
M  V30 7701 C 755.313 -1.70431 -2.92812 0
M  V30 7702 C 753.872 -1.53521 -3.43669 0
M  V30 7703 C 753.019 -1.7179 -2.17678 0
M  V30 7704 H 755.97 -1.3065 -0.9009 0
M  V30 7705 H 755.991 -1.17566 -3.61882 0
M  V30 7706 H 755.503 -2.76538 -2.72302 0
M  V30 7707 H 753.604 -0.498224 -3.69254 0
M  V30 7708 H 753.717 -2.31422 -4.19501 0
M  V30 7709 H 752.081 -1.14468 -2.27529 0
M  V30 7710 H 752.864 -2.79269 -1.99659 0
M  V30 7711 N 755.309 1.25446 -0.953992 0
M  V30 7712 C 756.537 1.97215 -0.625595 0
M  V30 7713 C 756.952 1.70911 0.802168 0
M  V30 7714 O 756.309 0.984782 1.5365 0
M  V30 7715 C 756.36 3.50777 -0.873943 0
M  V30 7716 O 756.081 3.76173 -2.24556 0
M  V30 7717 C 757.582 4.39776 -0.557845 0
M  V30 7718 H 754.802 0.628652 -0.2346 0
M  V30 7719 H 757.346 1.59632 -1.27819 0
M  V30 7720 H 755.501 3.86474 -0.267765 0
M  V30 7721 H 755.915 4.70636 -2.31522 0
M  V30 7722 H 757.389 5.46431 -0.782157 0
M  V30 7723 H 757.866 4.36257 0.507573 0
M  V30 7724 H 758.472 4.09644 -1.14332 0
M  V30 7725 N 756.787 0.722489 1.40064 0
M  V30 7726 C 758.036 0.261932 1.99992 0
M  V30 7727 C 758.349 -1.15358 1.57961 0
M  V30 7728 O 759.555 -1.71301 2.10637 0
M  V30 7729 C 758.011 0.41737 3.57472 0
M  V30 7730 C 757.619 1.83997 4.08472 0
M  V30 7731 C 759.363 0.0179561 4.24496 0
M  V30 7732 C 757.27 1.94563 5.5848 0
M  V30 7733 H 756.2 0.0941768 0.748095 0
M  V30 7734 H 758.851 0.894572 1.60218 0
M  V30 7735 H 757.233 -0.283965 3.94981 0
M  V30 7736 H 758.407 2.57224 3.82325 0
M  V30 7737 H 756.722 2.19147 3.54067 0
M  V30 7738 H 759.319 0.076085 5.34646 0
M  V30 7739 H 759.662 -1.02498 4.03485 0
M  V30 7740 H 760.195 0.669988 3.92117 0
M  V30 7741 H 756.934 2.97001 5.84355 0
M  V30 7742 H 756.454 1.25756 5.86469 0
M  V30 7743 H 758.133 1.72095 6.23692 0
M  V30 7744 N 758.265 -1.50454 0.469181 0
M  V30 7745 C 759.49 -2.0722 -0.0864892 0
M  V30 7746 C 759.915 -1.33098 -1.32916 0
M  V30 7747 O 759.273 -0.378084 -1.77314 0
M  V30 7748 C 759.321 -3.58845 -0.355384 0
M  V30 7749 O 758.425 -3.86583 -1.43622 0
M  V30 7750 H 757.766 -0.663889 0.0121414 0
M  V30 7751 H 760.296 -1.93674 0.659674 0
M  V30 7752 H 760.306 -4.03617 -0.596447 0
M  V30 7753 H 758.981 -4.12211 0.552698 0
M  V30 7754 H 757.558 -3.5365 -1.18262 0
M  V30 7755 N 759.743 -0.201713 -1.56304 0
M  V30 7756 C 760.991 0.434447 -1.97375 0
M  V30 7757 C 761.312 1.61692 -1.08998 0
M  V30 7758 O 760.582 1.95223 -0.162682 0
M  V30 7759 H 759.162 0.163497 -0.728888 0
M  V30 7760 H 761.824 -0.289988 -1.92731 0
M  V30 7761 H 760.92 0.774136 -3.02347 0
M  V30 7762 N 761.222 1.57436 0.0718424 0
M  V30 7763 C 762.17 2.04725 1.10411 0
M  V30 7764 C 763.164 0.952579 1.4008 0
M  V30 7765 O 764.37 1.13769 1.39487 0
M  V30 7766 H 760.745 0.652749 0.373393 0
M  V30 7767 H 762.716 2.90569 0.679126 0
M  V30 7768 C 761.465 2.5068 2.40946 0
M  V30 7769 H 760.788 3.34505 2.18967 0
M  V30 7770 H 762.228 2.87521 3.11621 0
M  V30 7771 C 760.687 1.38971 3.06902 0
M  V30 7772 O 761.217 0.731786 3.94978 0
M  V30 7773 N 759.423 1.13485 2.67525 0
M  V30 7774 H 758.97 1.67168 1.95991 0
M  V30 7775 H 758.928 0.389467 3.11978 0
M  V30 7776 N 762.7 -0.34323 1.53817 0
M  V30 7777 C 763.663 -1.40444 1.8113 0
M  V30 7778 C 764.663 -1.45604 0.682366 0
M  V30 7779 O 765.853 -1.45974 0.950649 0
M  V30 7780 C 762.985 -2.79369 1.95361 0
M  V30 7781 H 764.178 -1.17489 2.75928 0
M  V30 7782 H 761.731 -0.577636 1.45234 0
M  V30 7783 H 762.466 -3.07607 1.02707 0
M  V30 7784 H 762.251 -2.7702 2.77493 0
M  V30 7785 H 763.741 -3.56178 2.18008 0
M  V30 7786 N 764.178 -1.45556 -0.604258 0
M  V30 7787 C 765.108 -1.57327 -1.72541 0
M  V30 7788 C 766.089 -0.424637 -1.64714 0
M  V30 7789 O 767.274 -0.648196 -1.83063 0
M  V30 7790 C 764.404 -1.54279 -3.11152 0
M  V30 7791 C 763.358 -2.67893 -3.33792 0
M  V30 7792 C 762.684 -2.499 -4.72709 0
M  V30 7793 C 763.984 -4.0988 -3.23722 0
M  V30 7794 H 765.678 -2.51175 -1.62947 0
M  V30 7795 H 763.224 -1.20884 -0.782504 0
M  V30 7796 H 765.177 -1.6111 -3.89386 0
M  V30 7797 H 763.901 -0.569627 -3.21594 0
M  V30 7798 H 762.56 -2.60495 -2.57949 0
M  V30 7799 H 762.208 -1.50715 -4.79889 0
M  V30 7800 H 761.908 -3.26091 -4.88813 0
M  V30 7801 H 763.432 -2.5859 -5.5314 0
M  V30 7802 H 764.846 -4.18503 -3.91826 0
M  V30 7803 H 763.243 -4.86487 -3.51355 0
M  V30 7804 H 764.313 -4.31553 -2.21111 0
M  V30 7805 N 765.656 0.84705 -1.32902 0
M  V30 7806 C 767.072 1.13645 -1.12058 0
M  V30 7807 C 767.272 2.01281 0.093937 0
M  V30 7808 O 766.328 2.4026 0.776608 0
M  V30 7809 C 767.641 1.80644 -2.40392 0
M  V30 7810 C 769.189 1.93246 -2.46221 0
M  V30 7811 C 769.664 2.6366 -3.74496 0
M  V30 7812 N 771.155 2.71179 -3.75521 0
M  V30 7813 C 771.89 3.26332 -4.71482 0
M  V30 7814 N 771.386 3.82236 -5.77813 0
M  V30 7815 N 773.179 3.24507 -4.58968 0
M  V30 7816 H 765.33 0.263612 -2.10758 0
M  V30 7817 H 767.593 0.17944 -0.930863 0
M  V30 7818 H 767.299 1.23708 -3.29225 0
M  V30 7819 H 767.173 2.80736 -2.51926 0
M  V30 7820 H 769.56 2.49338 -1.57843 0
M  V30 7821 H 769.641 0.921272 -2.38634 0
M  V30 7822 H 769.285 2.08229 -4.63253 0
M  V30 7823 H 769.215 3.65234 -3.79357 0
M  V30 7824 H 771.706 2.31527 -2.9867 0
M  V30 7825 H 772.019 4.22499 -6.47082 0
M  V30 7826 H 770.364 3.80546 -5.81558 0
M  V30 7827 H 773.555 2.80085 -3.7506 0
M  V30 7828 H 773.728 3.67188 -5.33926 0
M  V30 7829 N 767.134 1.16236 1.06428 0
M  V30 7830 C 768.411 0.853294 1.76006 0
M  V30 7831 C 768.791 -0.649162 2.00871 0
M  V30 7832 O 768.139 -1.59653 1.63472 0
M  V30 7833 C 768.349 1.67448 3.06206 0
M  V30 7834 C 769.697 1.8866 3.80385 0
M  V30 7835 O 770.721 1.64303 3.16043 0
M  V30 7836 O 769.58 2.29518 4.95968 0
M  V30 7837 H 766.674 0.314737 0.764767 0
M  V30 7838 H 769.22 1.26865 1.12709 0
M  V30 7839 H 767.992 2.69411 2.83784 0
M  V30 7840 H 767.615 1.25608 3.77238 0
M  V30 7841 N 768.612 -1.24939 0.960631 0
M  V30 7842 C 769.842 -1.96595 0.635123 0
M  V30 7843 C 770.25 -1.71538 -0.798206 0
M  V30 7844 O 769.593 -0.991727 -1.5463 0
M  V30 7845 C 769.655 -3.49994 0.821248 0
M  V30 7846 C 769.319 -3.98738 2.23287 0
M  V30 7847 C 770.316 -4.08965 3.21004 0
M  V30 7848 C 768.001 -4.32247 2.55867 0
M  V30 7849 C 769.995 -4.52025 4.49391 0
M  V30 7850 C 767.682 -4.74991 3.84482 0
M  V30 7851 C 768.68 -4.84844 4.81056 0
M  V30 7852 O 768.368 -5.26638 6.07378 0
M  V30 7853 H 768.1 -0.633265 0.23654 0
M  V30 7854 H 770.654 -1.5991 1.28911 0
M  V30 7855 H 768.884 -3.86543 0.110105 0
M  V30 7856 H 770.573 -4.02859 0.495892 0
M  V30 7857 H 771.339 -3.83302 2.97161 0
M  V30 7858 H 767.218 -4.23801 1.81421 0
M  V30 7859 H 770.762 -4.5963 5.24773 0
M  V30 7860 H 766.659 -5.00101 4.08129 0
M  V30 7861 H 767.427 -5.44807 6.10842 0
M  V30 7862 N 770.09 -0.729906 -1.39679 0
M  V30 7863 C 771.053 -0.0951668 -2.29002 0
M  V30 7864 C 772.053 0.672471 -1.46063 0
M  V30 7865 O 773.243 0.502245 -1.66803 0
M  V30 7866 C 770.375 0.874631 -3.29489 0
M  V30 7867 H 771.568 -0.882062 -2.86635 0
M  V30 7868 H 769.121 -0.495424 -1.4824 0
M  V30 7869 H 769.856 1.68807 -2.76902 0
M  V30 7870 H 769.641 0.326893 -3.90735 0
M  V30 7871 H 771.131 1.31548 -3.96339 0
M  V30 7872 N 771.568 1.50203 -0.477153 0
M  V30 7873 C 772.478 2.32421 0.319027 0
M  V30 7874 C 773.494 1.43075 0.990233 0
M  V30 7875 O 774.67 1.76123 0.976873 0
M  V30 7876 C 771.735 3.17909 1.38328 0
M  V30 7877 C 770.796 4.23082 0.728036 0
M  V30 7878 C 770.029 5.04484 1.74158 0
M  V30 7879 O 770.252 4.8705 2.96881 0
M  V30 7880 O 769.186 5.8747 1.31006 0
M  V30 7881 H 773.012 3.01638 -0.353281 0
M  V30 7882 H 770.597 1.47478 -0.238891 0
M  V30 7883 H 772.479 3.70937 1.9996 0
M  V30 7884 H 771.154 2.51413 2.03895 0
M  V30 7885 H 770.061 3.7403 0.07261 0
M  V30 7886 H 771.394 4.92065 0.115216 0
M  V30 7887 N 773.046 0.209999 1.56195 0
M  V30 7888 C 774.009 -0.691232 2.18528 0
M  V30 7889 C 775.009 -1.13013 1.14388 0
M  V30 7890 O 776.199 -1.04081 1.39688 0
M  V30 7891 C 773.331 -1.94551 2.79934 0
M  V30 7892 H 774.524 -0.147953 2.99535 0
M  V30 7893 H 772.077 -0.0396243 1.5625 0
M  V30 7894 H 772.812 -2.53094 2.02766 0
M  V30 7895 H 772.597 -1.63938 3.56184 0
M  V30 7896 H 774.087 -2.58785 3.2775 0
M  V30 7897 N 774.524 -1.57472 -0.0634922 0
M  V30 7898 C 775.94 -1.54016 -0.418466 0
M  V30 7899 C 776.14 -0.931376 -1.78683 0
M  V30 7900 O 775.196 -0.537465 -2.46714 0
M  V30 7901 C 776.509 -2.98634 -0.351906 0
M  V30 7902 C 778.057 -3.10012 -0.431494 0
M  V30 7903 C 778.532 -4.56296 -0.394754 0
M  V30 7904 N 780.023 -4.60964 -0.454583 0
M  V30 7905 C 780.758 -5.71643 -0.448501 0
M  V30 7906 N 780.254 -6.91663 -0.396742 0
M  V30 7907 N 782.047 -5.5991 -0.495677 0
M  V30 7908 H 774.198 -1.95409 0.832408 0
M  V30 7909 H 776.461 -0.894769 0.313197 0
M  V30 7910 H 776.167 -3.46766 0.587048 0
M  V30 7911 H 776.041 -3.58955 -1.15893 0
M  V30 7912 H 778.428 -2.61848 -1.36087 0
M  V30 7913 H 778.509 -2.52585 0.404258 0
M  V30 7914 H 778.153 -5.05119 0.530811 0
M  V30 7915 H 778.083 -5.11594 -1.24815 0
M  V30 7916 H 780.574 -3.74598 -0.498496 0
M  V30 7917 H 780.887 -7.71783 -0.396256 0
M  V30 7918 H 779.232 -6.9405 -0.363304 0
M  V30 7919 H 782.423 -4.65046 -0.533864 0
M  V30 7920 H 782.596 -6.46164 -0.487469 0
M  V30 7921 N 776.003 0.335068 -1.53997 0
M  V30 7922 C 777.251 1.07223 -1.71312 0
M  V30 7923 C 777.572 1.88911 -0.483486 0
M  V30 7924 O 776.842 1.89344 0.50257 0
M  V30 7925 H 775.422 0.398846 -0.63161 0
M  V30 7926 H 778.084 0.374288 -1.91272 0
M  V30 7927 H 777.18 1.7448 -2.58772 0
M  V30 7928 N 777.481 1.45874 0.596531 0
M  V30 7929 C 778.73 1.49737 1.35135 0
M  V30 7930 C 779.043 0.147755 1.95041 0
M  V30 7931 O 780.249 0.0640984 2.71424 0
M  V30 7932 C 778.705 2.6378 2.44843 0
M  V30 7933 C 778.313 4.05102 1.91301 0
M  V30 7934 C 780.057 2.769 3.21755 0
M  V30 7935 C 777.964 5.10508 2.98557 0
M  V30 7936 H 776.894 0.557219 0.507959 0
M  V30 7937 H 779.545 1.72046 0.638147 0
M  V30 7938 H 777.927 2.34774 3.189 0
M  V30 7939 H 779.101 4.43836 1.2388 0
M  V30 7940 H 777.416 3.96528 1.271 0
M  V30 7941 H 780.013 3.52819 4.01775 0
M  V30 7942 H 780.356 1.83924 3.73467 0
M  V30 7943 H 780.889 3.05485 2.54802 0
M  V30 7944 H 777.628 6.0523 2.51749 0
M  V30 7945 H 777.148 4.76332 3.6451 0
M  V30 7946 H 778.827 5.35745 3.62748 0
M  V30 7947 N 778.959 -0.83999 1.33349 0
M  V30 7948 C 779.906 -1.94972 1.23509 0
M  V30 7949 C 780.876 -1.65709 0.113967 0
M  V30 7950 O 782.061 -1.88552 0.292045 0
M  V30 7951 C 779.201 -3.30919 0.979105 0
M  V30 7952 C 778.314 -3.72587 2.18639 0
M  V30 7953 C 777.449 -4.97397 1.86465 0
M  V30 7954 C 776.488 -5.31597 3.03432 0
M  V30 7955 N 775.625 -6.47584 2.71254 0
M  V30 7956 H 780.465 -2.0272 2.18423 0
M  V30 7957 H 778.002 -0.992017 1.08616 0
M  V30 7958 H 779.96 -4.09239 0.811126 0
M  V30 7959 H 778.59 -3.22731 0.0667099 0
M  V30 7960 H 777.642 -2.89799 2.46416 0
M  V30 7961 H 778.954 -3.93844 3.06086 0
M  V30 7962 H 778.108 -5.83462 1.66305 0
M  V30 7963 H 776.847 -4.78107 0.96254 0
M  V30 7964 H 775.852 -4.44037 3.24208 0
M  V30 7965 H 777.077 -5.52836 3.94397 0
M  V30 7966 H 775.023 -6.29783 1.836 0
M  V30 7967 H 774.94 -6.68931 3.52231 0
M  V30 7968 H 776.208 -7.36764 2.54558 0
M  V30 7969 N 780.437 -1.16799 -1.0581 0
M  V30 7970 C 781.686 -0.94698 -1.78088 0
M  V30 7971 C 781.999 0.526016 -1.88394 0
M  V30 7972 O 783.205 0.865061 -2.5735 0
M  V30 7973 C 781.661 -1.64508 -3.20102 0
M  V30 7974 C 781.269 -3.15618 -3.17946 0
M  V30 7975 C 783.013 -1.50622 -3.96879 0
M  V30 7976 C 780.92 -3.78144 -4.5471 0
M  V30 7977 H 779.85 -0.35067 -0.667493 0
M  V30 7978 H 782.501 -1.39985 -1.18645 0
M  V30 7979 H 780.883 -1.11993 -3.79834 0
M  V30 7980 H 782.057 -3.75016 -2.67768 0
M  V30 7981 H 780.372 -3.29444 -2.54667 0
M  V30 7982 H 782.969 -1.94713 -4.97987 0
M  V30 7983 H 783.312 -0.455864 -4.13797 0
M  V30 7984 H 783.845 -2.00319 -3.43682 0
M  V30 7985 H 780.584 -4.83149 -4.42998 0
M  V30 7986 H 780.104 -3.23532 -5.05062 0
M  V30 7987 H 781.783 -3.79986 -5.2366 0
M  V30 7988 N 781.915 1.24427 -0.967243 0
M  V30 7989 C 783.163 1.92107 -0.627638 0
M  V30 7990 C 783.484 1.75991 0.83978 0
M  V30 7991 O 782.754 1.13118 1.59941 0
M  V30 7992 H 781.334 0.710986 -0.229145 0
M  V30 7993 H 783.996 1.51331 -1.22821 0
M  V30 7994 H 783.092 2.99791 -0.867844 0
M  V30 7995 N 783.393 0.737304 1.3929 0
M  V30 7996 C 784.621 0.296573 2.04763 0
M  V30 7997 C 785.036 -1.06941 1.55592 0
M  V30 7998 O 784.393 -1.67619 0.721822 0
M  V30 7999 C 784.444 0.291906 3.6032 0
M  V30 8000 O 784.165 1.60397 4.07682 0
M  V30 8001 C 785.666 -0.164708 4.42994 0
M  V30 8002 H 782.886 0.129251 0.658434 0
M  V30 8003 H 785.43 1.0016 1.78293 0
M  V30 8004 H 783.585 -0.364251 3.85684 0
M  V30 8005 H 783.999 1.51909 5.0202 0
M  V30 8006 H 785.473 -0.116814 5.51876 0
M  V30 8007 H 785.95 -1.21022 4.22197 0
M  V30 8008 H 786.556 0.461968 4.22784 0
M  V30 8009 N 784.871 -1.49948 0.485112 0
M  V30 8010 C 786.111 -2.04301 -0.0635728 0
M  V30 8011 C 786.475 -1.35804 -1.35725 0
M  V30 8012 O 787.676 -1.80789 -1.98919 0
M  V30 8013 C 785.947 -3.56666 -0.228962 0
M  V30 8014 S 787.506 -4.32614 -0.734185 0
M  V30 8015 H 784.324 -0.710939 -0.00931895 0
M  V30 8016 H 786.926 -1.84185 0.655455 0
M  V30 8017 H 785.63 -4.04068 0.718148 0
M  V30 8018 H 785.161 -3.8116 -0.973696 0
M  V30 8019 H 787.176 -4.53859 -2.00565 0
M  V30 8020 N 786.349 -0.21828 -1.56081 0
M  V30 8021 C 787.595 0.414921 -1.9851 0
M  V30 8022 C 787.928 1.59648 -1.10573 0
M  V30 8023 O 787.203 1.93818 -0.162695 0
M  V30 8024 C 787.486 0.852647 -3.4986 0
M  V30 8025 C 787.339 -0.33232 -4.48571 0
M  V30 8026 C 788.658 1.70998 -4.05521 0
M  V30 8027 H 785.777 0.149344 -0.72171 0
M  V30 8028 H 788.419 -0.313858 -1.8739 0
M  V30 8029 H 786.569 1.47362 -3.59467 0
M  V30 8030 H 788.241 -0.970418 -4.50977 0
M  V30 8031 H 786.484 -0.980302 -4.22578 0
M  V30 8032 H 787.155 0.0168407 -5.51997 0
M  V30 8033 H 789.631 1.18606 -3.98838 0
M  V30 8034 H 788.507 1.98517 -5.11744 0
M  V30 8035 H 788.768 2.67219 -3.52202 0
M  V30 8036 N 787.827 1.57504 0.0551401 0
M  V30 8037 C 788.775 2.05884 1.08233 0
M  V30 8038 C 789.769 0.967383 1.39061 0
M  V30 8039 O 790.975 1.15242 1.38273 0
M  V30 8040 H 787.35 0.656673 0.366449 0
M  V30 8041 H 789.321 2.91273 0.648269 0
M  V30 8042 C 788.07 2.53221 2.38273 0
M  V30 8043 H 787.393 3.36809 2.15406 0
M  V30 8044 H 788.833 2.9081 3.08554 0
M  V30 8045 C 787.292 1.42218 3.05411 0
M  V30 8046 O 787.822 0.773638 3.9418 0
M  V30 8047 N 786.028 1.16316 2.66306 0
M  V30 8048 H 785.575 1.69237 1.94207 0
M  V30 8049 H 785.533 0.422534 3.11548 0
M  V30 8050 N 789.305 -0.326896 1.54172 0
M  V30 8051 C 790.535 -1.08328 1.75922 0
M  V30 8052 C 790.943 -1.82302 0.50622 0
M  V30 8053 O 790.286 -1.7581 -0.532581 0
M  V30 8054 C 790.348 -2.1294 2.8965 0
M  V30 8055 C 790.012 -1.58394 4.28673 0
M  V30 8056 C 791.009 -1.02747 5.09646 0
M  V30 8057 C 788.694 -1.62737 4.75207 0
M  V30 8058 C 790.688 -0.52169 6.35261 0
M  V30 8059 C 788.375 -1.11772 6.00791 0
M  V30 8060 C 789.373 -0.565819 6.80652 0
M  V30 8061 O 789.061 -0.0638146 8.03875 0
M  V30 8062 H 788.793 -0.3282 0.590983 0
M  V30 8063 H 791.347 -0.37972 2.0186 0
M  V30 8064 H 789.577 -2.86903 2.59275 0
M  V30 8065 H 791.266 -2.74274 2.99213 0
M  V30 8066 H 792.032 -0.987007 4.74851 0
M  V30 8067 H 787.911 -2.04635 4.13093 0
M  V30 8068 H 791.455 -0.0902544 6.97542 0
M  V30 8069 H 787.352 -1.15524 6.35078 0
M  V30 8070 H 788.12 -0.17955 8.18303 0
M  V30 8071 N 790.784 -1.46188 -0.588786 0
M  V30 8072 C 792.195 -1.45421 -1.17088 0
M  V30 8073 C 792.546 -0.191801 -1.9526 0
M  V30 8074 O 791.671 0.705497 -2.04577 0
M  V30 8075 C 792.266 -2.63467 -2.13004 0
M  V30 8076 C 790.825 -2.6576 -2.6655 0
M  V30 8077 C 789.972 -2.38002 -1.42304 0
M  V30 8078 H 792.923 -1.54156 -0.377052 0
M  V30 8079 H 792.944 -2.38638 -2.96365 0
M  V30 8080 H 792.456 -3.55331 -1.56081 0
M  V30 8081 H 790.557 -1.77952 -3.27359 0
M  V30 8082 H 790.67 -3.65545 -3.09699 0
M  V30 8083 H 789.034 -1.87936 -1.71907 0
M  V30 8084 H 789.817 -3.32035 -0.872209 0
M  V30 8085 N 792.262 0.832906 -1.33792 0
M  V30 8086 C 793.509 1.58853 -1.25586 0
M  V30 8087 C 793.837 1.93695 0.176807 0
M  V30 8088 O 793.092 1.59386 1.13554 0
M  V30 8089 C 793.391 2.9047 -2.08235 0
M  V30 8090 C 793.057 2.74965 -3.57358 0
M  V30 8091 C 791.719 2.70444 -3.98012 0
M  V30 8092 C 794.071 2.59347 -4.52093 0
M  V30 8093 C 791.399 2.48212 -5.31608 0
M  V30 8094 C 793.751 2.38649 -5.85858 0
M  V30 8095 C 792.415 2.32533 -6.25687 0
M  V30 8096 H 791.685 0.581285 -0.459553 0
M  V30 8097 H 794.332 0.964501 -1.65438 0
M  V30 8098 H 792.637 3.57111 -1.6118 0
M  V30 8099 H 794.334 3.48001 -1.99239 0
M  V30 8100 H 790.924 2.79319 -3.25083 0
M  V30 8101 H 795.108 2.6187 -4.2159 0
M  V30 8102 H 790.364 2.41929 -5.61498 0
M  V30 8103 H 794.538 2.25549 -6.58863 0
M  V30 8104 H 792.165 2.15067 -7.29143 0
M  V30 8105 N 793.74 1.17359 1.05189 0
M  V30 8106 C 794.97 0.985099 1.81602 0
M  V30 8107 C 795.378 -0.469872 1.83273 0
M  V30 8108 O 794.721 -1.33806 1.25864 0
M  V30 8109 C 794.783 1.44956 3.2898 0
M  V30 8110 C 794.447 2.92666 3.50993 0
M  V30 8111 C 795.444 3.906 3.43115 0
M  V30 8112 C 793.129 3.30841 3.77954 0
M  V30 8113 C 795.123 5.24709 3.61883 0
M  V30 8114 C 792.81 4.65116 3.96371 0
M  V30 8115 C 793.808 5.61859 3.88335 0
M  V30 8116 O 793.496 6.93704 4.06238 0
M  V30 8117 H 793.228 0.348731 0.579105 0
M  V30 8118 H 795.782 1.56066 1.33539 0
M  V30 8119 H 794.012 0.817559 3.77959 0
M  V30 8120 H 795.701 1.22674 3.86919 0
M  V30 8121 H 796.467 3.62453 3.22262 0
M  V30 8122 H 792.346 2.5611 3.83313 0
M  V30 8123 H 795.89 6.00205 3.55527 0
M  V30 8124 H 791.787 4.92969 4.16715 0
M  V30 8125 H 792.555 7.00443 4.23463 0
M  V30 8126 N 795.218 -1.23913 0.973828 0
M  V30 8127 C 796.166 -2.27141 0.50098 0
M  V30 8128 C 797.16 -1.63623 -0.438631 0
M  V30 8129 O 798.366 -1.77253 -0.313247 0
M  V30 8130 H 794.741 -0.73817 0.14356 0
M  V30 8131 H 796.712 -2.64392 1.38346 0
M  V30 8132 C 795.461 -3.47195 -0.187377 0
M  V30 8133 H 794.784 -3.96318 0.526535 0
M  V30 8134 H 796.224 -4.21252 -0.481962 0
M  V30 8135 C 794.683 -3.05678 -1.41642 0
M  V30 8136 O 795.213 -3.1338 -2.51309 0
M  V30 8137 N 793.419 -2.60661 -1.28469 0
M  V30 8138 H 792.966 -2.54594 -0.39238 0
M  V30 8139 H 792.924 -2.33249 -2.10813 0
M  V30 8140 N 796.696 -0.74468 -1.38897 0
M  V30 8141 C 797.644 -0.100312 -2.32384 0
M  V30 8142 C 798.638 0.715191 -1.53562 0
M  V30 8143 O 799.844 0.615288 -1.69157 0
M  V30 8144 H 796.219 -0.0136403 -0.751876 0
M  V30 8145 H 798.19 -0.905007 -2.84345 0
M  V30 8146 C 796.939 0.785432 -3.38713 0
M  V30 8147 H 796.262 0.167308 -3.9945 0
M  V30 8148 H 797.702 1.20374 -4.06554 0
M  V30 8149 C 796.161 1.92408 -2.76552 0
M  V30 8150 O 796.691 3.01752 -2.65157 0
M  V30 8151 N 794.897 1.71642 -2.34494 0
M  V30 8152 H 794.444 0.827079 -2.43961 0
M  V30 8153 H 794.402 2.48 -1.93244 0
M  V30 8154 N 798.174 1.49689 -0.493057 0
M  V30 8155 C 799.399 2.07331 0.0535114 0
M  V30 8156 C 799.824 1.35196 1.30781 0
M  V30 8157 O 799.182 0.406246 1.7669 0
M  V30 8158 C 799.23 3.59364 0.29825 0
M  V30 8159 O 798.334 3.88819 1.37454 0
M  V30 8160 H 797.675 0.663612 -0.0227018 0
M  V30 8161 H 800.205 1.926 -0.690402 0
M  V30 8162 H 800.215 4.04515 0.532159 0
M  V30 8163 H 798.89 4.1128 -0.618207 0
M  V30 8164 H 797.467 3.55487 1.12621 0
M  V30 8165 N 799.652 0.226554 1.55963 0
M  V30 8166 C 800.929 -0.453058 1.90281 0
M  V30 8167 C 801.309 -1.77377 1.14458 0
M  V30 8168 O 800.657 -2.27067 0.255496 0
M  V30 8169 C 800.867 -0.641108 3.43061 0
M  V30 8170 C 802.215 -0.946265 4.13921 0
M  V30 8171 O 803.239 -0.727713 3.48687 0
M  V30 8172 O 802.098 -1.36131 5.29274 0
M  V30 8173 H 799.192 -0.240242 0.791336 0
M  V30 8174 H 801.738 0.26911 1.67553 0
M  V30 8175 H 800.51 0.290283 3.90222 0
M  V30 8176 H 800.133 -1.41458 3.71585 0
M  V30 8177 N 801.13 -1.57531 -0.0467866 0
M  V30 8178 C 802.541 -1.76945 -0.595603 0
M  V30 8179 C 802.892 -0.855354 -1.76573 0
M  V30 8180 O 802.017 -0.045668 -2.16352 0
M  V30 8181 C 802.612 -3.20881 -1.08725 0
M  V30 8182 C 801.171 -3.41553 -1.58172 0
M  V30 8183 C 800.318 -2.72533 -0.511968 0
M  V30 8184 H 803.269 -1.57682 0.179436 0
M  V30 8185 H 803.29 -3.26419 -1.95528 0
M  V30 8186 H 802.802 -3.87385 -0.235398 0
M  V30 8187 H 800.903 -2.80199 -2.456 0
M  V30 8188 H 801.016 -4.50104 -1.64143 0
M  V30 8189 H 799.38 -2.35797 -0.962899 0
M  V30 8190 H 800.163 -3.41709 0.330117 0
M  V30 8191 N 802.608 0.318715 -1.54344 0
M  V30 8192 C 803.836 1.0755 -1.7675 0
M  V30 8193 C 804.251 1.81543 -0.518422 0
M  V30 8194 O 803.608 1.75198 0.511078 0
M  V30 8195 C 803.659 2.06983 -2.96378 0
M  V30 8196 O 803.38 1.35995 -4.16458 0
M  V30 8197 C 804.881 2.94841 -3.31034 0
M  V30 8198 H 802.101 0.319711 -0.589937 0
M  V30 8199 H 804.645 0.363369 -2.01246 0
M  V30 8200 H 802.8 2.73724 -2.74142 0
M  V30 8201 H 803.214 2.02623 -4.83781 0
M  V30 8202 H 804.688 3.60496 -4.18027 0
M  V30 8203 H 805.165 3.62199 -2.48412 0
M  V30 8204 H 805.771 2.33656 -3.55366 0
M  V30 8205 N 804.086 1.46499 0.581025 0
M  V30 8206 C 805.316 1.55244 1.36319 0
M  V30 8207 C 805.724 0.193059 1.88212 0
M  V30 8208 O 805.067 -0.820109 1.64377 0
M  V30 8209 C 805.129 2.498 2.58535 0
M  V30 8210 C 804.793 3.96007 2.28096 0
M  V30 8211 C 805.79 4.85171 1.8683 0
M  V30 8212 C 803.475 4.41152 2.40189 0
M  V30 8213 C 805.469 6.17493 1.58053 0
M  V30 8214 C 803.156 5.73508 2.11024 0
M  V30 8215 C 804.154 6.615 1.70021 0
M  V30 8216 O 803.842 7.914 1.41215 0
M  V30 8217 H 803.574 0.527513 0.422736 0
M  V30 8218 H 806.128 1.92623 0.713139 0
M  V30 8219 H 804.358 2.07443 3.2635 0
M  V30 8220 H 806.047 2.48934 3.20604 0
M  V30 8221 H 806.813 4.51548 1.77001 0
M  V30 8222 H 802.692 3.72886 2.71066 0
M  V30 8223 H 806.236 6.86131 1.25974 0
M  V30 8224 H 802.133 6.06679 2.20478 0
M  V30 8225 H 802.901 8.03681 1.55046 0
M  V30 8226 N 805.565 -0.825799 1.34232 0
M  V30 8227 C 806.513 -1.95792 1.25572 0
M  V30 8228 C 807.507 -1.68695 0.154404 0
M  V30 8229 O 808.713 -1.77147 0.319196 0
M  V30 8230 H 805.088 -0.642949 0.390027 0
M  V30 8231 H 807.059 -2.00219 2.21258 0
M  V30 8232 C 805.808 -3.32245 1.02511 0
M  V30 8233 H 805.131 -3.53642 1.86487 0
M  V30 8234 H 806.571 -4.1192 1.00487 0
M  V30 8235 C 805.03 -3.35803 -0.27167 0
M  V30 8236 O 805.56 -3.80962 -1.274 0
M  V30 8237 N 803.766 -2.89008 -0.303778 0
M  V30 8238 H 803.313 -2.52451 0.512464 0
M  V30 8239 H 803.271 -2.9177 -1.17121 0
M  V30 8240 N 807.043 -1.17915 -1.04565 0
M  V30 8241 C 808.268 -0.996749 -1.81878 0
M  V30 8242 C 808.693 0.450169 -1.82634 0
M  V30 8243 O 808.051 1.32268 -1.23995 0
M  V30 8244 C 808.099 -1.55005 -3.25585 0
M  V30 8245 O 807.203 -0.76804 -4.05185 0
M  V30 8246 H 806.544 -0.353456 -0.562108 0
M  V30 8247 H 809.074 -1.56557 -1.31723 0
M  V30 8248 H 809.084 -1.57503 -3.76373 0
M  V30 8249 H 807.759 -2.60327 -3.2435 0
M  V30 8250 H 806.336 -0.81498 -3.63885 0
M  V30 8251 N 808.521 1.23394 -0.980386 0
M  V30 8252 C 809.77 1.91116 -0.644785 0
M  V30 8253 C 810.083 1.77333 0.825367 0
M  V30 8254 O 811.289 2.39858 1.27203 0
M  V30 8255 C 809.745 3.42592 -1.10266 0
M  V30 8256 C 809.353 3.65037 -2.59715 0
M  V30 8257 C 811.097 4.1609 -0.8408 0
M  V30 8258 C 809.004 5.10148 -2.9917 0
M  V30 8259 H 807.934 0.715632 -0.23746 0
M  V30 8260 H 810.585 1.39829 -1.18828 0
M  V30 8261 H 808.967 3.92989 -0.487372 0
M  V30 8262 H 810.141 3.25186 -3.26482 0
M  V30 8263 H 808.456 3.04849 -2.83647 0
M  V30 8264 H 811.053 5.23021 -1.11143 0
M  V30 8265 H 811.396 4.15702 0.223085 0
M  V30 8266 H 811.929 3.71681 -1.41767 0
M  V30 8267 H 808.668 5.15668 -4.04682 0
M  V30 8268 H 808.188 5.50949 -2.37097 0
M  V30 8269 H 809.867 5.7848 -2.89775 0
M  V30 8270 N 809.999 0.752036 1.385 0
M  V30 8271 C 810.929 0.138718 2.33088 0
M  V30 8272 C 811.91 -0.705318 1.54788 0
M  V30 8273 O 813.095 -0.646821 1.83112 0
M  V30 8274 C 810.225 -0.75641 3.38963 0
M  V30 8275 C 809.179 -0.0152239 4.27997 0
M  V30 8276 C 808.505 -1.0285 5.24715 0
M  V30 8277 C 809.805 1.15226 5.09431 0
M  V30 8278 H 811.499 0.928852 2.84627 0
M  V30 8279 H 809.045 0.448111 1.3685 0
M  V30 8280 H 810.998 -1.19513 4.04097 0
M  V30 8281 H 809.722 -1.57885 2.85902 0
M  V30 8282 H 808.381 0.404061 3.64366 0
M  V30 8283 H 808.029 -1.84496 4.67943 0
M  V30 8284 H 807.729 -0.537238 5.85139 0
M  V30 8285 H 809.253 -1.46657 5.92726 0
M  V30 8286 H 810.667 0.791161 5.67815 0
M  V30 8287 H 809.064 1.57428 5.79082 0
M  V30 8288 H 810.134 1.9659 4.43261 0
M  V30 8289 N 811.477 -1.49425 0.500989 0
M  V30 8290 C 812.409 -2.27037 -0.314159 0
M  V30 8291 C 813.422 -1.33578 -0.930626 0
M  V30 8292 O 814.611 -1.58861 -0.813968 0
M  V30 8293 C 811.711 -3.05968 -1.45729 0
M  V30 8294 C 810.884 -4.27 -0.948135 0
M  V30 8295 C 809.943 -4.87977 -1.96888 0
M  V30 8296 O 808.969 -5.48044 -1.53743 0
M  V30 8297 N 810.171 -4.77627 -3.29928 0
M  V30 8298 H 812.936 -2.97634 0.351336 0
M  V30 8299 H 810.497 -1.58427 0.333536 0
M  V30 8300 H 812.489 -3.43634 -2.1377 0
M  V30 8301 H 811.059 -2.37978 -2.02695 0
M  V30 8302 H 810.279 -3.94091 -0.0926311 0
M  V30 8303 H 811.567 -5.0541 -0.586362 0
M  V30 8304 H 810.965 -4.29926 -3.67669 0
M  V30 8305 H 809.522 -5.19478 -3.93682 0
M  V30 8306 N 812.955 -0.234822 -1.55841 0
M  V30 8307 C 814.371 0.120295 -1.59146 0
M  V30 8308 C 814.571 1.57896 -1.25184 0
M  V30 8309 O 813.627 2.32138 -0.993393 0
M  V30 8310 C 814.94 -0.217984 -2.99909 0
M  V30 8311 C 816.488 -0.161298 -3.12584 0
M  V30 8312 C 816.963 -0.473438 -4.55546 0
M  V30 8313 N 818.454 -0.423494 -4.6126 0
M  V30 8314 C 819.189 -0.638334 -5.69836 0
M  V30 8315 N 818.685 -0.915659 -6.86722 0
M  V30 8316 N 820.478 -0.569864 -5.59204 0
M  V30 8317 H 812.629 -1.18622 -1.76189 0
M  V30 8318 H 814.892 -0.476426 -0.819587 0
M  V30 8319 H 814.598 -1.2309 -3.29457 0
M  V30 8320 H 814.472 0.460707 -3.74376 0
M  V30 8321 H 816.859 0.842274 -2.82825 0
M  V30 8322 H 816.94 -0.873661 -2.40418 0
M  V30 8323 H 816.584 -1.47451 -4.86025 0
M  V30 8324 H 816.514 0.260268 -5.25956 0
M  V30 8325 H 819.005 -0.217383 -3.77274 0
M  V30 8326 H 819.318 -1.06734 -7.65394 0
M  V30 8327 H 817.663 -0.953 -6.88435 0
M  V30 8328 H 820.854 -0.35334 -4.66765 0
M  V30 8329 H 821.027 -0.740698 -6.43753 0
M  V30 8330 N 814.433 1.57553 0.0384317 0
M  V30 8331 C 815.343 2.09333 1.0591 0
M  V30 8332 C 816.359 1.0299 1.40247 0
M  V30 8333 O 817.535 1.34669 1.49754 0
M  V30 8334 C 814.6 2.55468 2.34386 0
M  V30 8335 C 813.661 3.76254 2.06716 0
M  V30 8336 C 812.894 4.20179 3.29067 0
M  V30 8337 O 813.117 3.637 4.39407 0
M  V30 8338 O 812.051 5.12697 3.15317 0
M  V30 8339 H 815.877 2.96683 0.649087 0
M  V30 8340 H 813.462 1.47211 0.254802 0
M  V30 8341 H 815.344 2.85514 3.09935 0
M  V30 8342 H 814.019 1.71234 2.74701 0
M  V30 8343 H 812.926 3.51241 1.28766 0
M  V30 8344 H 814.259 4.61443 1.71263 0
M  V30 8345 N 815.911 -0.310526 1.54511 0
M  V30 8346 C 817.158 -1.04691 1.73338 0
M  V30 8347 C 817.486 -1.87584 0.514038 0
M  V30 8348 O 816.741 -1.89096 -0.504119 0
M  V30 8349 C 817.04 -1.98942 2.96912 0
M  V30 8350 C 816.706 -1.321 4.31115 0
M  V30 8351 C 815.368 -1.13603 4.67598 0
M  V30 8352 C 817.72 -0.842362 5.14348 0
M  V30 8353 C 815.048 -0.459102 5.84901 0
M  V30 8354 C 817.4 -0.179202 6.32346 0
M  V30 8355 C 816.064 0.0178111 6.67498 0
M  V30 8356 H 815.334 -0.38309 0.634289 0
M  V30 8357 H 817.981 -0.322723 1.88761 0
M  V30 8358 H 816.286 -2.77856 2.76231 0
M  V30 8359 H 817.983 -2.55972 3.08674 0
M  V30 8360 H 814.573 -1.47502 4.02419 0
M  V30 8361 H 818.757 -0.973013 4.86668 0
M  V30 8362 H 814.013 -0.295385 6.10686 0
M  V30 8363 H 818.187 0.199619 6.96114 0
M  V30 8364 H 815.814 0.544356 7.58249 0
M  V30 8365 N 817.389 -1.46805 -0.573248 0
M  V30 8366 C 818.614 -1.56433 -1.36175 0
M  V30 8367 C 819.039 -0.209336 -1.86932 0
M  V30 8368 O 818.397 0.812146 -1.62092 0
M  V30 8369 C 818.445 -2.58055 -2.51873 0
M  V30 8370 O 817.549 -2.12214 -3.53609 0
M  V30 8371 H 816.89 -0.526068 -0.405153 0
M  V30 8372 H 819.42 -1.92456 -0.694405 0
M  V30 8373 H 819.43 -2.77966 -2.98662 0
M  V30 8374 H 818.105 -3.56448 -2.14284 0
M  V30 8375 H 816.682 -2.02333 -3.13234 0
M  V30 8376 N 818.867 0.818669 -1.34668 0
M  V30 8377 C 819.8 1.93516 -1.20941 0
M  V30 8378 C 820.778 1.62292 -0.100061 0
M  V30 8379 O 821.962 1.86614 -0.265983 0
M  V30 8380 C 819.089 3.27612 -0.859524 0
M  V30 8381 C 818.135 3.77794 -1.97923 0
M  V30 8382 S 818.968 3.97043 -3.59329 0
M  V30 8383 C 820.124 5.3406 -3.2639 0
M  V30 8384 H 820.357 2.04864 -2.15449 0
M  V30 8385 H 817.89 0.974716 -1.19744 0
M  V30 8386 H 819.848 4.05087 -0.664444 0
M  V30 8387 H 818.509 3.14028 0.0672835 0
M  V30 8388 H 817.702 4.74883 -1.68827 0
M  V30 8389 H 817.304 3.0728 -2.13202 0
M  V30 8390 H 819.596 6.17626 -2.78469 0
M  V30 8391 H 820.539 5.68143 -4.22634 0
M  V30 8392 H 820.947 4.99773 -2.62464 0
M  V30 8393 N 820.346 1.18468 1.03938 0
M  V30 8394 C 821.592 0.982286 1.77423 0
M  V30 8395 C 821.925 -0.48679 1.88 0
M  V30 8396 O 821.2 -1.36146 1.38905 0
M  V30 8397 C 821.483 1.63929 3.20623 0
M  V30 8398 C 821.336 3.18132 3.17982 0
M  V30 8399 C 822.655 1.3536 4.18767 0
M  V30 8400 H 819.774 0.358264 0.644062 0
M  V30 8401 H 822.416 1.46154 1.21405 0
M  V30 8402 H 820.566 1.2318 3.68455 0
M  V30 8403 H 822.238 3.68024 2.78129 0
M  V30 8404 H 820.481 3.50225 2.55978 0
M  V30 8405 H 821.152 3.5924 4.19107 0
M  V30 8406 H 823.628 1.70669 3.79488 0
M  V30 8407 H 822.504 1.83896 5.17178 0
M  V30 8408 H 822.765 0.276722 4.41233 0
M  V30 8409 N 821.824 -1.22873 0.986916 0
M  V30 8410 C 823.07 -1.91746 0.660401 0
M  V30 8411 C 823.403 -1.76738 -0.804812 0
M  V30 8412 O 822.678 -1.13246 -1.58131 0
M  V30 8413 C 822.961 -3.44156 1.05966 0
M  V30 8414 C 822.814 -3.68242 2.58298 0
M  V30 8415 C 824.133 -4.35874 0.60842 0
M  V30 8416 H 821.252 -0.696347 0.241391 0
M  V30 8417 H 823.894 -1.44867 1.22937 0
M  V30 8418 H 822.044 -3.84213 0.575534 0
M  V30 8419 H 823.716 -3.37626 3.14335 0
M  V30 8420 H 821.959 -3.12728 3.00638 0
M  V30 8421 H 822.63 -4.74956 2.81285 0
M  V30 8422 H 825.106 -4.03299 1.02417 0
M  V30 8423 H 823.982 -5.41201 0.916142 0
M  V30 8424 H 824.243 -4.39364 -0.491086 0
M  V30 8425 N 823.302 -0.75937 -1.38099 0
M  V30 8426 C 824.542 -0.323116 -2.0183 0
M  V30 8427 C 824.906 1.07658 -1.58977 0
M  V30 8428 O 826.107 1.61227 -2.1508 0
M  V30 8429 C 824.378 -0.448234 -3.54578 0
M  V30 8430 S 825.937 -0.0954152 -4.38696 0
M  V30 8431 H 822.755 -0.125013 -0.699923 0
M  V30 8432 H 825.357 -0.991262 -1.68506 0
M  V30 8433 H 824.061 -1.46778 -3.83255 0
M  V30 8434 H 823.592 0.236895 -3.92686 0
M  V30 8435 H 825.607 1.11312 -4.83554 0
M  V30 8436 N 824.78 1.49157 -0.508906 0
M  V30 8437 C 825.69 2.33045 0.269656 0
M  V30 8438 C 826.706 1.45143 0.959662 0
M  V30 8439 O 827.882 1.78155 0.939295 0
M  V30 8440 C 824.947 3.20772 1.31554 0
M  V30 8441 C 824.008 4.24531 0.638131 0
M  V30 8442 C 823.241 5.08065 1.63418 0
M  V30 8443 O 823.464 4.93238 2.86483 0
M  V30 8444 O 822.398 5.90117 1.18516 0
M  V30 8445 H 826.224 3.00821 -0.417183 0
M  V30 8446 H 823.809 1.46938 -0.270119 0
M  V30 8447 H 825.691 3.75095 1.92047 0
M  V30 8448 H 824.366 2.55681 1.98516 0
M  V30 8449 H 823.273 3.74099 -0.00674357 0
M  V30 8450 H 824.606 4.92199 0.0108155 0
M  V30 8451 N 826.258 0.243083 1.55714 0
M  V30 8452 C 827.206 -0.674349 2.2261 0
M  V30 8453 C 828.2 -1.18307 1.21243 0
M  V30 8454 O 829.406 -1.1404 1.39265 0
M  V30 8455 H 825.781 -0.235941 0.714028 0
M  V30 8456 H 827.752 -0.0869446 2.98273 0
M  V30 8457 C 826.501 -1.86206 2.93637 0
M  V30 8458 H 825.824 -1.47975 3.71407 0
M  V30 8459 H 827.264 -2.4813 3.43813 0
M  V30 8460 C 825.723 -2.73084 1.97298 0
M  V30 8461 O 826.253 -3.72497 1.50361 0
M  V30 8462 N 824.459 -2.39571 1.64482 0
M  V30 8463 H 824.006 -1.5878 2.02846 0
M  V30 8464 H 823.964 -2.97976 1.00288 0
M  V30 8465 N 827.736 -1.57571 -0.0300757 0
M  V30 8466 C 828.646 -2.09892 -1.04798 0
M  V30 8467 C 829.662 -1.03732 -1.39698 0
M  V30 8468 O 830.838 -1.35461 -1.49038 0
M  V30 8469 C 827.903 -2.56707 -2.33028 0
M  V30 8470 C 826.964 -3.77345 -2.04718 0
M  V30 8471 C 826.197 -4.21918 -3.26834 0
M  V30 8472 O 826.42 -3.66025 -4.37472 0
M  V30 8473 O 825.354 -5.14362 -3.12594 0
M  V30 8474 H 829.18 -2.97023 -0.633344 0
M  V30 8475 H 826.765 -1.47344 -0.246991 0
M  V30 8476 H 828.647 -2.87154 -3.08417 0
M  V30 8477 H 827.322 -1.72688 -2.73789 0
M  V30 8478 H 826.229 -3.51919 -1.26901 0
M  V30 8479 H 827.562 -4.62345 -1.68813 0
M  V30 8480 N 829.214 0.302327 -1.54673 0
M  V30 8481 C 830.147 1.39738 -1.80412 0
M  V30 8482 C 831.125 1.48813 -0.655241 0
M  V30 8483 O 832.309 1.65895 -0.89505 0
M  V30 8484 C 829.436 2.7766 -1.93966 0
M  V30 8485 C 828.482 2.86014 -3.16383 0
M  V30 8486 S 829.315 2.48246 -4.74483 0
M  V30 8487 C 830.471 3.88198 -4.90971 0
M  V30 8488 H 830.704 1.17696 -2.73011 0
M  V30 8489 H 828.237 0.500364 -1.46068 0
M  V30 8490 H 830.195 3.571 -2.0246 0
M  V30 8491 H 828.856 2.96971 -1.02307 0
M  V30 8492 H 828.049 3.87174 -3.22664 0
M  V30 8493 H 827.651 2.14568 -3.06328 0
M  V30 8494 H 829.943 4.83181 -4.74913 0
M  V30 8495 H 830.886 3.86887 -5.93063 0
M  V30 8496 H 831.294 3.78139 -4.19131 0
M  V30 8497 N 830.692 1.47107 0.565454 0
M  V30 8498 C 831.639 1.58974 1.6732 0
M  V30 8499 C 832.609 0.433146 1.60353 0
M  V30 8500 O 833.794 0.652141 1.79309 0
M  V30 8501 C 830.934 1.60224 3.05651 0
M  V30 8502 C 830.047 2.86741 3.23116 0
M  V30 8503 C 829.182 2.79381 4.51796 0
M  V30 8504 C 828.221 4.0076 4.62664 0
M  V30 8505 N 827.358 3.91685 5.8269 0
M  V30 8506 H 832.198 2.53588 1.56515 0
M  V30 8507 H 829.735 1.25791 0.762558 0
M  V30 8508 H 831.693 1.58933 3.85741 0
M  V30 8509 H 830.323 0.691285 3.15311 0
M  V30 8510 H 829.375 2.97936 2.36513 0
M  V30 8511 H 830.687 3.7665 3.27011 0
M  V30 8512 H 829.841 2.76293 5.40136 0
M  V30 8513 H 828.58 1.87142 4.50366 0
M  V30 8514 H 827.585 4.04162 3.72738 0
M  V30 8515 H 828.81 4.94117 4.6586 0
M  V30 8516 H 826.756 3.02243 5.82224 0
M  V30 8517 H 826.673 4.75264 5.87929 0
M  V30 8518 H 827.941 3.92599 6.73414 0
M  V30 8519 N 832.17 -0.811516 1.35101 0
M  V30 8520 C 833.417 -1.56835 1.28098 0
M  V30 8521 C 833.745 -1.93951 -0.14597 0
M  V30 8522 O 833 -1.61173 -1.11004 0
M  V30 8523 C 833.299 -2.87121 2.1283 0
M  V30 8524 C 832.965 -2.69245 3.61688 0
M  V30 8525 C 831.627 -2.64078 4.02264 0
M  V30 8526 C 833.979 -2.52122 4.56162 0
M  V30 8527 C 831.307 -2.39724 5.3549 0
M  V30 8528 C 833.659 -2.29298 5.89581 0
M  V30 8529 C 832.323 -2.2255 6.29307 0
M  V30 8530 H 831.593 -0.5739 0.468742 0
M  V30 8531 H 834.24 -0.93806 1.66951 0
M  V30 8532 H 832.545 -3.54502 1.66841 0
M  V30 8533 H 834.242 -3.44788 2.0475 0
M  V30 8534 H 830.832 -2.74112 3.29485 0
M  V30 8535 H 835.016 -2.5513 4.25702 0
M  V30 8536 H 830.272 -2.32965 5.65276 0
M  V30 8537 H 834.446 -2.15038 6.62368 0
M  V30 8538 H 832.073 -2.0344 7.32473 0
M  V30 8539 N 833.648 -1.19017 -1.03309 0
M  V30 8540 C 834.925 -0.899659 -1.73682 0
M  V30 8541 C 835.305 0.595677 -2.02521 0
M  V30 8542 O 834.653 1.55263 -1.67648 0
M  V30 8543 C 834.863 -1.75508 -3.01659 0
M  V30 8544 C 836.211 -1.98679 -3.75249 0
M  V30 8545 O 837.235 -1.72624 -3.11576 0
M  V30 8546 O 836.094 -2.42587 -4.89708 0
M  V30 8547 H 833.188 -0.334903 -0.756154 0
M  V30 8548 H 835.734 -1.29809 -1.09305 0
M  V30 8549 H 834.506 -2.7684 -2.76542 0
M  V30 8550 H 834.129 -1.35565 -3.73775 0
M  V30 8551 N 835.127 1.22348 -0.993418 0
M  V30 8552 C 836.09 2.22522 -0.549251 0
M  V30 8553 C 837.09 1.56529 0.368164 0
M  V30 8554 O 838.28 1.73463 0.16005 0
M  V30 8555 C 835.412 3.40307 0.201037 0
M  V30 8556 H 836.605 2.63332 -1.43515 0
M  V30 8557 H 834.158 1.35407 -0.78068 0
M  V30 8558 H 834.893 3.0497 1.10289 0
M  V30 8559 H 834.678 3.8942 -0.457685 0
M  V30 8560 H 836.168 4.14597 0.499946 0
M  V30 8561 N 836.605 0.766683 1.37694 0
M  V30 8562 C 837.535 0.163432 2.32927 0
M  V30 8563 C 838.516 -0.688861 1.55527 0
M  V30 8564 O 839.701 -0.627363 1.83787 0
M  V30 8565 C 836.831 -0.720416 3.39746 0
M  V30 8566 C 835.785 0.0301718 4.27989 0
M  V30 8567 C 835.111 -0.972788 5.25776 0
M  V30 8568 C 836.411 1.20623 5.0818 0
M  V30 8569 H 838.105 0.958988 2.83626 0
M  V30 8570 H 835.651 0.462601 1.36367 0
M  V30 8571 H 837.604 -1.15221 4.05342 0
M  V30 8572 H 836.328 -1.54844 2.8756 0
M  V30 8573 H 834.987 0.442685 3.63917 0
M  V30 8574 H 834.635 -1.79522 4.69873 0
M  V30 8575 H 834.335 -0.475145 5.85676 0
M  V30 8576 H 835.859 -1.40362 5.94248 0
M  V30 8577 H 837.273 0.851341 5.66944 0
M  V30 8578 H 835.67 1.63561 5.7738 0
M  V30 8579 H 836.74 2.01281 4.41151 0
M  V30 8580 N 838.083 -1.48885 0.516809 0
M  V30 8581 C 839.015 -2.27357 -0.290061 0
M  V30 8582 C 840.028 -1.34558 -0.916406 0
M  V30 8583 O 841.217 -1.59715 -0.797073 0
M  V30 8584 C 838.317 -3.07496 -1.42476 0
M  V30 8585 C 837.49 -4.27982 -0.902793 0
M  V30 8586 C 836.549 -4.90038 -1.91701 0
M  V30 8587 O 835.575 -5.49643 -1.47922 0
M  V30 8588 N 836.777 -4.811 -3.24843 0
M  V30 8589 H 839.542 -2.97244 0.382884 0
M  V30 8590 H 837.103 -1.58064 0.35032 0
M  V30 8591 H 839.095 -3.45882 -2.10113 0
M  V30 8592 H 837.665 -2.40115 -2.00159 0
M  V30 8593 H 836.885 -3.94167 -0.0508272 0
M  V30 8594 H 838.173 -5.06003 -0.532723 0
M  V30 8595 H 837.571 -4.33801 -3.63088 0
M  V30 8596 H 836.128 -5.23625 -3.8815 0
M  V30 8597 N 839.561 -0.251338 -1.55583 0
M  V30 8598 C 840.972 0.25098 -1.85005 0
M  V30 8599 C 841.323 1.57259 -1.17321 0
M  V30 8600 O 840.448 2.11603 -0.453136 0
M  V30 8601 C 841.043 0.462161 -3.35633 0
M  V30 8602 C 839.602 0.908737 -3.65266 0
M  V30 8603 C 838.749 -0.0115418 -2.77298 0
M  V30 8604 H 841.7 -0.473782 -1.51463 0
M  V30 8605 H 841.721 1.30415 -3.57452 0
M  V30 8606 H 841.233 -0.499886 -3.84867 0
M  V30 8607 H 839.334 1.8831 -3.21512 0
M  V30 8608 H 839.447 0.762526 -4.72993 0
M  V30 8609 H 837.811 0.500612 -2.49732 0
M  V30 8610 H 838.594 -0.969042 -3.29339 0
M  V30 8611 N 841.039 1.57585 0.0217189 0
M  V30 8612 C 842.455 1.55072 0.377484 0
M  V30 8613 C 842.655 0.978423 1.76151 0
M  V30 8614 O 841.711 0.602688 2.45202 0
M  V30 8615 C 843.024 2.99462 0.272605 0
M  V30 8616 C 844.572 3.11047 0.349148 0
M  V30 8617 C 845.047 4.57182 0.273636 0
M  V30 8618 N 846.538 4.62007 0.332206 0
M  V30 8619 C 847.273 5.72631 0.296782 0
M  V30 8620 N 846.769 6.92472 0.21322 0
M  V30 8621 N 848.562 5.61028 0.347053 0
M  V30 8622 H 840.713 1.93133 -0.883925 0
M  V30 8623 H 842.976 0.886151 -0.33681 0
M  V30 8624 H 842.682 3.45088 -0.67878 0
M  V30 8625 H 842.556 3.61901 1.06335 0
M  V30 8626 H 844.943 2.65364 1.29097 0
M  V30 8627 H 845.024 2.51425 -0.471085 0
M  V30 8628 H 844.668 5.03534 -0.664548 0
M  V30 8629 H 844.598 5.14724 1.11207 0
M  V30 8630 H 847.089 3.75788 0.399003 0
M  V30 8631 H 847.402 7.72563 0.191492 0
M  V30 8632 H 845.747 6.94769 0.179161 0
M  V30 8633 H 848.938 4.66298 0.410378 0
M  V30 8634 H 849.111 6.47229 0.315979 0
M  V30 8635 N 842.517 -0.29412 1.54831 0
M  V30 8636 C 843.449 -1.38476 1.82639 0
M  V30 8637 C 844.462 -1.46517 0.709694 0
M  V30 8638 O 845.651 -1.48712 0.987269 0
M  V30 8639 C 842.751 -2.76791 1.95551 0
M  V30 8640 C 841.924 -2.91599 3.26019 0
M  V30 8641 C 840.983 -4.10456 3.29261 0
M  V30 8642 O 840.009 -4.02214 4.02756 0
M  V30 8643 N 841.211 -5.21422 2.55145 0
M  V30 8644 H 843.976 -1.14974 2.76769 0
M  V30 8645 H 841.537 -0.484206 1.5449 0
M  V30 8646 H 843.529 -3.5456 1.95113 0
M  V30 8647 H 842.099 -2.93209 1.08384 0
M  V30 8648 H 841.319 -2.00886 3.39173 0
M  V30 8649 H 842.607 -2.98409 4.12104 0
M  V30 8650 H 842.005 -5.31 1.95078 0
M  V30 8651 H 840.562 -5.97501 2.60454 0
M  V30 8652 N 843.995 -1.47404 -0.557645 0
M  V30 8653 C 844.943 -1.60265 -1.68576 0
M  V30 8654 C 845.937 -0.469982 -1.6275 0
M  V30 8655 O 847.143 -0.647764 -1.67941 0
M  V30 8656 H 843.518 -0.504353 -0.557792 0
M  V30 8657 H 845.489 -2.55066 -1.54867 0
M  V30 8658 C 844.238 -1.63369 -3.0693 0
M  V30 8659 H 843.561 -2.49874 -3.12095 0
M  V30 8660 H 845.001 -1.76417 -3.85556 0
M  V30 8661 C 843.46 -0.366921 -3.34896 0
M  V30 8662 O 843.99 0.53218 -3.98159 0
M  V30 8663 N 842.196 -0.247082 -2.89548 0
M  V30 8664 H 841.743 -0.979669 -2.38244 0
M  V30 8665 H 841.701 0.599552 -3.0863 0
M  V30 8666 N 845.473 0.80434 -1.35529 0
M  V30 8667 C 846.719 1.56385 -1.29118 0
M  V30 8668 C 847.052 1.9374 0.133536 0
M  V30 8669 O 846.327 1.6153 1.08344 0
M  V30 8670 C 846.61 2.85097 -2.19981 0
M  V30 8671 C 846.463 2.54204 -3.7108 0
M  V30 8672 C 847.782 3.86817 -2.09907 0
M  V30 8673 H 844.901 0.567382 -0.470368 0
M  V30 8674 H 847.543 0.925235 -1.6595 0
M  V30 8675 H 845.693 3.39594 -1.88701 0
M  V30 8676 H 847.365 2.05872 -4.12813 0
M  V30 8677 H 845.608 1.87364 -3.91251 0
M  V30 8678 H 846.279 3.46068 -4.30048 0
M  V30 8679 H 848.755 3.41725 -2.37409 0
M  V30 8680 H 847.631 4.7465 -2.75678 0
M  V30 8681 H 847.892 4.28663 -1.08171 0
M  V30 8682 N 846.951 1.19563 1.02676 0
M  V30 8683 C 848.198 0.999568 1.7611 0
M  V30 8684 C 848.526 -0.469432 1.8875 0
M  V30 8685 O 847.781 -1.36481 1.40255 0
M  V30 8686 C 848.08 1.61619 3.18769 0
M  V30 8687 C 847.746 3.11366 3.26132 0
M  V30 8688 C 846.408 3.52234 3.27848 0
M  V30 8689 C 848.76 4.07374 3.25109 0
M  V30 8690 C 846.088 4.87658 3.26201 0
M  V30 8691 C 848.44 5.42731 3.25002 0
M  V30 8692 C 847.104 5.83027 3.25017 0
M  V30 8693 H 846.374 0.365768 0.644434 0
M  V30 8694 H 849.021 1.48838 1.20497 0
M  V30 8695 H 847.326 1.04974 3.77476 0
M  V30 8696 H 849.023 1.43975 3.74262 0
M  V30 8697 H 845.613 2.78804 3.25525 0
M  V30 8698 H 849.797 3.76842 3.22961 0
M  V30 8699 H 845.053 5.18156 3.24537 0
M  V30 8700 H 849.227 6.16879 3.23161 0
M  V30 8701 H 846.854 6.87936 3.23494 0
M  V30 8702 N 848.429 -1.21819 0.999893 0
M  V30 8703 C 849.706 -1.86318 0.595384 0
M  V30 8704 C 850.086 -1.8965 -0.927143 0
M  V30 8705 O 849.434 -1.3921 -1.81199 0
M  V30 8706 C 849.644 -3.26837 1.22387 0
M  V30 8707 C 850.992 -4.03272 1.32878 0
M  V30 8708 O 852.016 -3.36129 1.1788 0
M  V30 8709 O 850.875 -5.23477 1.56952 0
M  V30 8710 H 847.969 -0.801638 0.203238 0
M  V30 8711 H 850.515 -1.29542 1.09622 0
M  V30 8712 H 849.287 -3.19084 2.26497 0
M  V30 8713 H 848.91 -3.91226 0.709069 0
M  V30 8714 N 849.908 -0.773975 -1.37286 0
M  V30 8715 C 851.155 -0.339306 -1.99637 0
M  V30 8716 C 851.483 1.08478 -1.61439 0
M  V30 8717 O 850.738 1.7612 -0.853252 0
M  V30 8718 C 851.037 -0.432651 -3.54772 0
M  V30 8719 C 850.703 -1.81531 -4.12744 0
M  V30 8720 C 849.365 -2.19366 -4.2829 0
M  V30 8721 C 851.717 -2.72137 -4.44512 0
M  V30 8722 C 849.045 -3.47239 -4.72908 0
M  V30 8723 C 851.397 -3.99421 -4.90556 0
M  V30 8724 C 850.061 -4.37298 -5.04308 0
M  V30 8725 H 849.331 -0.124161 -0.730524 0
M  V30 8726 H 851.978 -0.988432 -1.64019 0
M  V30 8727 H 850.283 0.30001 -3.9065 0
M  V30 8728 H 851.98 -0.0776 -4.00925 0
M  V30 8729 H 848.57 -1.51126 -4.01072 0
M  V30 8730 H 852.754 -2.44165 -4.32084 0
M  V30 8731 H 848.01 -3.76477 -4.81742 0
M  V30 8732 H 852.184 -4.69756 -5.14104 0
M  V30 8733 H 849.811 -5.36442 -5.38641 0
M  V30 8734 N 851.386 1.48609 -0.524698 0
M  V30 8735 C 852.611 2.07398 0.00952139 0
M  V30 8736 C 853.036 1.37939 1.27884 0
M  V30 8737 O 852.394 0.443633 1.75788 0
M  V30 8738 C 852.442 3.59916 0.221956 0
M  V30 8739 O 851.546 3.91647 1.29175 0
M  V30 8740 H 850.887 0.662981 -0.0367729 0
M  V30 8741 H 853.417 1.91092 -0.7311 0
M  V30 8742 H 853.427 4.05552 0.446236 0
M  V30 8743 H 852.102 4.09876 -0.705306 0
M  V30 8744 H 850.679 3.57796 1.05055 0
M  V30 8745 N 852.864 0.259585 1.55447 0
M  V30 8746 C 853.811 -0.634578 2.21905 0
M  V30 8747 C 854.781 -1.16168 1.18719 0
M  V30 8748 O 855.966 -1.21383 1.4721 0
M  V30 8749 C 853.106 -1.82005 2.93203 0
M  V30 8750 C 852.219 -1.32828 4.11073 0
M  V30 8751 C 851.354 -2.47431 4.70055 0
M  V30 8752 C 850.393 -1.95179 5.80148 0
M  V30 8753 N 849.53 -3.03197 6.33258 0
M  V30 8754 H 854.37 -0.0611886 2.97937 0
M  V30 8755 H 851.907 -0.0184378 1.47088 0
M  V30 8756 H 853.865 -2.51664 3.32748 0
M  V30 8757 H 852.495 -2.36571 2.19622 0
M  V30 8758 H 851.547 -0.525301 3.76756 0
M  V30 8759 H 852.859 -0.905435 4.90513 0
M  V30 8760 H 852.013 -3.25111 5.12238 0
M  V30 8761 H 850.752 -2.93023 3.89857 0
M  V30 8762 H 849.757 -1.15974 5.37429 0
M  V30 8763 H 850.982 -1.50541 6.62204 0
M  V30 8764 H 848.928 -3.48199 5.55961 0
M  V30 8765 H 848.845 -2.65282 7.07928 0
M  V30 8766 H 850.113 -3.80898 6.80101 0
M  V30 8767 N 854.342 -1.57594 -0.0133615 0
M  V30 8768 C 855.59 -1.89605 -0.699596 0
M  V30 8769 C 855.911 -0.85926 -1.75048 0
M  V30 8770 O 855.181 0.105112 -1.95618 0
M  V30 8771 H 853.761 -0.699776 -0.261385 0
M  V30 8772 H 856.423 -1.94885 0.0244044 0
M  V30 8773 H 855.519 -2.88962 -1.17928 0
M  V30 8774 N 855.82 0.285905 -1.54985 0
M  V30 8775 C 857.097 1.0397 -1.65679 0
M  V30 8776 C 857.477 2.04725 -0.514851 0
M  V30 8777 O 856.825 2.23257 0.486663 0
M  V30 8778 C 857.035 1.70807 -3.04345 0
M  V30 8779 C 858.383 2.22447 -3.61666 0
M  V30 8780 O 859.407 1.80815 -3.06895 0
M  V30 8781 O 858.266 2.98773 -4.57599 0
M  V30 8782 H 855.36 0.481473 -0.672394 0
M  V30 8783 H 857.906 0.282789 -1.67327 0
M  V30 8784 H 856.678 0.977271 -3.789 0
M  V30 8785 H 856.301 2.53217 -3.06541 0
M  V30 8786 N 857.298 1.47698 0.54982 0
M  V30 8787 C 858.23 1.56806 1.67166 0
M  V30 8788 C 859.243 0.453709 1.5635 0
M  V30 8789 O 860.432 0.723663 1.63173 0
M  V30 8790 C 857.532 1.4632 3.05686 0
M  V30 8791 C 856.705 2.72452 3.42182 0
M  V30 8792 C 855.764 2.55698 4.59897 0
M  V30 8793 O 854.79 3.29534 4.64108 0
M  V30 8794 N 855.992 1.64009 5.56849 0
M  V30 8795 H 858.757 2.53545 1.59797 0
M  V30 8796 H 856.318 1.44171 0.736635 0
M  V30 8797 H 858.31 1.32835 3.82279 0
M  V30 8798 H 856.88 0.57634 3.07241 0
M  V30 8799 H 856.1 3.00644 2.54964 0
M  V30 8800 H 857.388 3.56172 3.63344 0
M  V30 8801 H 856.786 1.03186 5.5621 0
M  V30 8802 H 855.343 1.56473 6.3274 0
M  V30 8803 N 858.776 -0.797141 1.35954 0
M  V30 8804 C 859.706 -1.92387 1.32323 0
M  V30 8805 C 860.687 -1.68967 0.196007 0
M  V30 8806 O 861.872 -1.90193 0.39245 0
M  V30 8807 C 859.002 -3.29286 1.10398 0
M  V30 8808 C 857.956 -3.67212 2.19862 0
M  V30 8809 C 857.282 -5.02377 1.8309 0
M  V30 8810 C 858.582 -3.76602 3.61896 0
M  V30 8811 H 860.276 -1.95683 2.26602 0
M  V30 8812 H 857.822 -0.94007 1.09081 0
M  V30 8813 H 859.775 -4.07721 1.06495 0
M  V30 8814 H 858.499 -3.26358 0.125668 0
M  V30 8815 H 857.158 -2.91069 2.22878 0
M  V30 8816 H 856.806 -4.95961 0.838527 0
M  V30 8817 H 856.506 -5.28722 2.56372 0
M  V30 8818 H 858.03 -5.8324 1.80729 0
M  V30 8819 H 859.444 -4.45246 3.6115 0
M  V30 8820 H 857.841 -4.14425 4.34018 0
M  V30 8821 H 858.911 -2.77906 3.97361 0
M  V30 8822 N 860.254 -1.20106 -1.0204 0
M  V30 8823 C 861.184 -0.970301 -2.12385 0
M  V30 8824 C 862.165 0.099378 -1.69809 0
M  V30 8825 O 863.35 -0.057365 -1.94115 0
M  V30 8826 C 860.48 -0.517431 -3.43424 0
M  V30 8827 C 859.434 -1.52992 -3.99722 0
M  V30 8828 C 858.76 -0.933817 -5.26483 0
M  V30 8829 C 860.06 -2.91257 -4.33551 0
M  V30 8830 H 861.754 -1.89316 -2.31948 0
M  V30 8831 H 859.3 -0.911655 -1.11467 0
M  V30 8832 H 861.253 -0.343243 -4.2 0
M  V30 8833 H 859.977 0.441049 -3.23608 0
M  V30 8834 H 858.636 -1.6914 -3.2525 0
M  V30 8835 H 858.284 0.0324763 -5.0299 0
M  V30 8836 H 857.984 -1.60999 -5.65113 0
M  V30 8837 H 859.508 -0.770614 -6.05718 0
M  V30 8838 H 860.922 -2.78642 -5.0103 0
M  V30 8839 H 859.319 -3.55745 -4.83286 0
M  V30 8840 H 860.389 -3.43269 -3.42483 0
M  V30 8841 N 861.732 1.21287 -1.00634 0
M  V30 8842 C 862.695 2.21927 -0.572821 0
M  V30 8843 C 863.695 1.5691 0.351541 0
M  V30 8844 O 864.885 1.73623 0.141643 0
M  V30 8845 C 862.017 3.40501 0.164932 0
M  V30 8846 H 863.21 2.61795 -1.463 0
M  V30 8847 H 860.763 1.34571 -0.794998 0
M  V30 8848 H 861.498 3.06123 1.07049 0
M  V30 8849 H 861.283 3.88912 -0.498962 0
M  V30 8850 H 862.773 4.15103 0.455945 0
M  V30 8851 N 863.21 0.781244 1.36873 0
M  V30 8852 C 864.457 0.349889 1.99454 0
M  V30 8853 C 864.785 -1.07621 1.62013 0
M  V30 8854 O 864.04 -1.75665 0.86258 0
M  V30 8855 C 864.339 0.45146 3.54537 0
M  V30 8856 C 864.005 1.83718 4.11775 0
M  V30 8857 C 862.667 2.21634 4.2712 0
M  V30 8858 C 865.019 2.7449 4.43063 0
M  V30 8859 C 862.347 3.49742 4.7106 0
M  V30 8860 C 864.699 4.02017 4.88431 0
M  V30 8861 C 863.363 4.39967 5.01982 0
M  V30 8862 H 862.633 0.128033 0.729855 0
M  V30 8863 H 865.28 0.997117 1.63493 0
M  V30 8864 H 863.585 -0.279288 3.90803 0
M  V30 8865 H 865.282 0.0988609 4.00878 0
M  V30 8866 H 861.872 1.53251 4.00265 0
M  V30 8867 H 866.056 2.46453 4.30783 0
M  V30 8868 H 861.312 3.79026 4.79738 0
M  V30 8869 H 865.486 4.72475 5.11605 0
M  V30 8870 H 863.113 5.39291 5.35788 0
M  V30 8871 N 864.689 -1.48329 0.532571 0
M  V30 8872 C 865.652 -2.2816 -0.218069 0
M  V30 8873 C 866.652 -1.35526 -0.865409 0
M  V30 8874 O 867.842 -1.58394 -0.725061 0
M  V30 8875 C 864.974 -3.1448 -1.31586 0
M  V30 8876 H 866.167 -2.95987 0.482865 0
M  V30 8877 H 863.72 -1.53612 0.288603 0
M  V30 8878 H 864.455 -2.5129 -2.04997 0
M  V30 8879 H 864.24 -3.82625 -0.856779 0
M  V30 8880 H 865.73 -3.74693 -1.84377 0
M  V30 8881 N 866.167 -0.267825 -1.55308 0
M  V30 8882 C 867.077 0.633055 -2.25897 0
M  V30 8883 C 868.093 1.17613 -1.28231 0
M  V30 8884 O 869.269 1.20797 -1.61153 0
M  V30 8885 C 866.334 1.80397 -2.96071 0
M  V30 8886 C 865.395 1.29829 -4.09198 0
M  V30 8887 C 864.628 2.4134 -4.76016 0
M  V30 8888 O 864.851 3.60537 -4.42006 0
M  V30 8889 O 863.785 2.09909 -5.64111 0
M  V30 8890 H 867.611 0.0614381 -3.03638 0
M  V30 8891 H 865.196 -0.0355072 -1.49358 0
M  V30 8892 H 867.078 2.48685 -3.40197 0
M  V30 8893 H 865.753 2.36281 -2.21253 0
M  V30 8894 H 864.66 0.582086 -3.69544 0
M  V30 8895 H 865.993 0.785288 -4.85895 0
M  V30 8896 N 867.645 1.57599 0.00500368 0
M  V30 8897 C 869.061 1.55463 0.361015 0
M  V30 8898 C 869.261 0.997051 1.75103 0
M  V30 8899 O 868.317 0.628661 2.44549 0
M  V30 8900 C 869.63 2.99734 0.240828 0
M  V30 8901 C 871.178 3.11399 0.316138 0
M  V30 8902 C 871.653 4.57446 0.22513 0
M  V30 8903 N 873.144 4.62334 0.283186 0
M  V30 8904 C 873.879 5.72914 0.23603 0
M  V30 8905 N 873.375 6.92659 0.139762 0
M  V30 8906 N 875.168 5.61364 0.287529 0
M  V30 8907 H 867.319 1.92185 -0.904359 0
M  V30 8908 H 869.582 0.882529 -0.34619 0
M  V30 8909 H 869.288 3.44348 -0.715343 0
M  V30 8910 H 869.162 3.63009 1.02491 0
M  V30 8911 H 871.549 2.66718 1.26275 0
M  V30 8912 H 871.63 2.50911 -0.497725 0
M  V30 8913 H 871.274 5.02801 -0.717917 0
M  V30 8914 H 871.204 5.15874 1.05742 0
M  V30 8915 H 873.695 3.7619 0.359123 0
M  V30 8916 H 874.008 7.72722 0.10954 0
M  V30 8917 H 872.353 6.9492 0.105462 0
M  V30 8918 H 875.544 4.66707 0.360897 0
M  V30 8919 H 875.717 6.47528 0.247313 0
M  V30 8920 N 869.123 -0.277682 1.55134 0
M  V30 8921 C 870.071 -1.36305 1.88478 0
M  V30 8922 C 871.065 -1.51362 0.760654 0
M  V30 8923 O 872.271 -1.53202 0.944943 0
M  V30 8924 H 868.646 -0.45577 0.598146 0
M  V30 8925 H 870.617 -1.05431 2.79154 0
M  V30 8926 C 869.366 -2.71739 2.16918 0
M  V30 8927 H 868.689 -2.60942 3.02901 0
M  V30 8928 H 870.129 -3.46635 2.44172 0
M  V30 8929 C 868.588 -3.22476 0.975239 0
M  V30 8930 O 869.118 -4.01164 0.207497 0
M  V30 8931 N 867.324 -2.80097 0.774219 0
M  V30 8932 H 866.871 -2.16221 1.40022 0
M  V30 8933 H 866.829 -3.14392 -0.023021 0
M  V30 8934 N 870.601 -1.47988 -0.541979 0
M  V30 8935 C 871.849 -1.55086 -1.29587 0
M  V30 8936 C 872.17 -0.221304 -1.9374 0
M  V30 8937 O 871.44 0.756128 -1.80719 0
M  V30 8938 H 870.02 -0.571307 -0.481266 0
M  V30 8939 H 872.682 -1.8438 -0.631675 0
M  V30 8940 H 871.778 -2.32556 -2.08144 0
M  V30 8941 N 872.079 0.78992 -1.36375 0
M  V30 8942 C 873.012 1.90907 -1.25019 0
M  V30 8943 C 873.99 1.62043 -0.134463 0
M  V30 8944 O 875.174 1.86008 -0.305506 0
M  V30 8945 C 872.301 3.25716 -0.928822 0
M  V30 8946 C 871.347 3.73511 -2.05892 0
M  V30 8947 S 872.18 3.89332 -3.6767 0
M  V30 8948 C 873.336 5.27017 -3.37645 0
M  V30 8949 H 873.569 2.00247 -2.19746 0
M  V30 8950 H 871.102 0.949097 -1.21785 0
M  V30 8951 H 873.06 4.03586 -0.750219 0
M  V30 8952 H 871.721 3.141 0.000658424 0
M  V30 8953 H 870.914 4.71195 -1.78862 0
M  V30 8954 H 870.516 3.02688 -2.19672 0
M  V30 8955 H 872.808 6.1158 -2.91507 0
M  V30 8956 H 873.751 5.5905 -4.3459 0
M  V30 8957 H 874.159 4.94093 -2.73006 0
M  V30 8958 N 873.557 1.20646 1.01402 0
M  V30 8959 C 874.489 0.915392 2.10127 0
M  V30 8960 C 875.502 -0.0978705 1.62506 0
M  V30 8961 O 876.691 0.133477 1.78 0
M  V30 8962 C 873.791 0.351304 3.37074 0
M  V30 8963 C 872.964 1.41673 4.13821 0
M  V30 8964 C 872.023 0.8635 5.19067 0
M  V30 8965 O 871.049 1.54481 5.47836 0
M  V30 8966 N 872.251 -0.325799 5.79585 0
M  V30 8967 H 875.016 1.85132 2.35682 0
M  V30 8968 H 872.577 1.11048 1.17813 0
M  V30 8969 H 874.569 -0.032996 4.04687 0
M  V30 8970 H 873.139 -0.489242 3.08748 0
M  V30 8971 H 872.359 1.97526 3.41141 0
M  V30 8972 H 873.647 2.1342 4.61876 0
M  V30 8973 H 873.045 -0.896534 5.58551 0
M  V30 8974 H 871.602 -0.651708 6.48534 0
M  V30 8975 N 875.035 -1.20752 1.01276 0
M  V30 8976 C 875.968 -2.22091 0.524472 0
M  V30 8977 C 876.946 -1.5692 -0.426017 0
M  V30 8978 O 878.13 -1.8528 -0.346919 0
M  V30 8979 C 875.257 -3.37868 -0.237224 0
M  V30 8980 C 874.303 -4.21327 0.662236 0
M  V30 8981 S 875.136 -4.91352 2.12916 0
M  V30 8982 C 876.292 -6.10553 1.37752 0
M  V30 8983 H 876.525 -2.63166 1.38315 0
M  V30 8984 H 874.058 -1.30742 0.821332 0
M  V30 8985 H 876.016 -4.04985 -0.670599 0
M  V30 8986 H 874.677 -2.95261 -1.07143 0
M  V30 8987 H 873.87 -5.03944 0.0751085 0
M  V30 8988 H 873.472 -3.59445 1.03322 0
M  V30 8989 H 875.764 -6.74322 0.655491 0
M  V30 8990 H 876.707 -6.73717 2.17969 0
M  V30 8991 H 877.115 -5.57566 0.882088 0
M  V30 8992 N 876.513 -0.788492 -1.36457 0
M  V30 8993 C 877.929 -0.470063 -1.52521 0
M  V30 8994 C 878.129 1.01176 -1.74258 0
M  V30 8995 O 877.185 1.79726 -1.77355 0
M  V30 8996 C 878.498 -1.2997 -2.71161 0
M  V30 8997 C 880.046 -1.2933 -2.85031 0
M  V30 8998 C 880.521 -2.10665 -4.06674 0
M  V30 8999 N 882.012 -2.08107 -4.13819 0
M  V30 9000 C 882.747 -2.6781 -5.07016 0
M  V30 9001 N 882.243 -3.36369 -6.05663 0
M  V30 9002 N 884.036 -2.57549 -4.99625 0
M  V30 9003 H 876.187 -1.7484 -1.20602 0
M  V30 9004 H 878.45 -0.743159 -0.588574 0
M  V30 9005 H 878.156 -2.35051 -2.61618 0
M  V30 9006 H 878.03 -0.940367 -3.6529 0
M  V30 9007 H 880.417 -0.250414 -2.94036 0
M  V30 9008 H 880.498 -1.69239 -1.91812 0
M  V30 9009 H 880.142 -3.14984 -3.98431 0
M  V30 9010 H 880.072 -1.68128 -4.9904 0
M  V30 9011 H 882.563 -1.58208 -3.43189 0
M  V30 9012 H 882.876 -3.79258 -6.73338 0
M  V30 9013 H 881.221 -3.40471 -6.05891 0
M  V30 9014 H 884.412 -2.0359 -4.21508 0
M  V30 9015 H 884.585 -3.0437 -5.72069 0
M  V30 9016 N 877.991 1.48044 -0.54043 0
M  V30 9017 C 879.239 2.02097 -0.0101367 0
M  V30 9018 C 879.56 1.41881 1.33771 0
M  V30 9019 O 878.83 0.587923 1.8687 0
M  V30 9020 H 877.41 0.747 -0.000758716 0
M  V30 9021 H 880.072 1.81639 -0.706634 0
M  V30 9022 H 879.168 3.11969 0.0904474 0
M  V30 9023 N 879.47 0.276058 1.55163 0
M  V30 9024 C 880.42 -0.625549 2.19251 0
M  V30 9025 C 881.404 -1.11769 1.15744 0
M  V30 9026 O 882.596 -1.0626 1.41555 0
M  V30 9027 C 879.725 -1.80879 2.91784 0
M  V30 9028 C 878.811 -1.33379 4.0258 0
M  V30 9029 N 879.202 -0.575002 5.02521 0
M  V30 9030 C 877.5 -1.61666 4.15668 0
M  V30 9031 C 878.201 -0.325164 5.8079 0
M  V30 9032 N 877.177 -0.897851 5.36134 0
M  V30 9033 H 880.979 -0.0379943 2.93875 0
M  V30 9034 H 878.493 0.079661 1.62205 0
M  V30 9035 H 880.49 -2.466 3.36146 0
M  V30 9036 H 879.15 -2.40028 2.1867 0
M  V30 9037 H 880.161 -0.222256 5.17423 0
M  V30 9038 H 876.838 -2.21745 3.53745 0
M  V30 9039 H 878.228 0.282598 6.71305 0
M  V30 9040 N 880.948 -1.576 0.00335426 0
M  V30 9041 C 882.176 -1.94996 -0.691685 0
M  V30 9042 C 882.591 -0.878405 -1.67121 0
M  V30 9043 O 881.948 0.142343 -1.81944 0
M  V30 9044 C 881.999 -3.32416 -1.42063 0
M  V30 9045 O 881.72 -4.35458 -0.48038 0
M  V30 9046 C 883.221 -3.84291 -2.20987 0
M  V30 9047 H 880.441 -0.642814 -0.192434 0
M  V30 9048 H 882.985 -2.04425 0.0554706 0
M  V30 9049 H 881.14 -3.24285 -2.11939 0
M  V30 9050 H 881.554 -5.14975 -0.995054 0
M  V30 9051 H 883.028 -4.82863 -2.67483 0
M  V30 9052 H 883.505 -3.17174 -3.03805 0
M  V30 9053 H 884.111 -3.95609 -1.56121 0
M  V30 9054 N 882.426 0.269451 -1.5528 0
M  V30 9055 C 883.356 1.33729 -1.91413 0
M  V30 9056 C 884.337 1.51348 -0.776391 0
M  V30 9057 O 885.522 1.64332 -1.03482 0
M  V30 9058 C 882.652 2.69618 -2.18914 0
M  V30 9059 C 881.606 2.66725 -3.34726 0
M  V30 9060 C 880.932 4.06199 -3.47716 0
M  V30 9061 C 882.232 2.25684 -4.71025 0
M  V30 9062 H 883.926 1.03736 -2.80854 0
M  V30 9063 H 881.472 0.497579 -1.3513 0
M  V30 9064 H 883.425 3.44436 -2.42779 0
M  V30 9065 H 882.149 3.01201 -1.26275 0
M  V30 9066 H 880.808 1.94365 -3.10834 0
M  V30 9067 H 880.456 4.3501 -2.52537 0
M  V30 9068 H 880.156 4.05157 -4.25583 0
M  V30 9069 H 881.68 4.8275 -3.73877 0
M  V30 9070 H 883.094 2.90225 -4.94411 0
M  V30 9071 H 881.491 2.35797 -5.51833 0
M  V30 9072 H 882.561 1.20819 -4.69607 0
M  V30 9073 N 883.904 1.48273 0.534124 0
M  V30 9074 C 885.153 1.55334 1.28663 0
M  V30 9075 C 885.466 0.230345 1.94239 0
M  V30 9076 O 886.672 0.179161 2.70908 0
M  V30 9077 C 885.128 2.73927 2.33435 0
M  V30 9078 C 884.736 4.12852 1.73947 0
M  V30 9079 C 886.48 2.90298 3.09722 0
M  V30 9080 C 884.387 5.22711 2.76636 0
M  V30 9081 H 883.317 0.578262 0.483869 0
M  V30 9082 H 885.968 1.74598 0.564602 0
M  V30 9083 H 884.35 2.48089 3.08655 0
M  V30 9084 H 885.524 4.48691 1.04944 0
M  V30 9085 H 883.839 4.01562 1.10167 0
M  V30 9086 H 886.436 3.69542 3.86449 0
M  V30 9087 H 886.779 1.99598 3.6533 0
M  V30 9088 H 887.312 3.16017 2.41616 0
M  V30 9089 H 884.051 6.15362 2.25852 0
M  V30 9090 H 883.571 4.91364 3.43979 0
M  V30 9091 H 885.25 5.50648 3.39699 0
M  V30 9092 N 885.382 -0.782676 1.36792 0
M  V30 9093 C 886.628 -1.54238 1.32597 0
M  V30 9094 C 886.983 -1.92179 -0.0921366 0
M  V30 9095 O 886.276 -1.60381 -1.04826 0
M  V30 9096 C 886.47 -2.82542 2.18872 0
M  V30 9097 C 886.299 -2.5714 3.6893 0
M  V30 9098 C 885.069 -2.5182 4.38081 0
M  V30 9099 C 887.267 -2.25878 4.62043 0
M  V30 9100 N 885.249 -2.18387 5.73742 0
M  V30 9101 C 886.62 -2.02491 5.86001 0
M  V30 9102 C 888.675 -2.11941 4.50539 0
M  V30 9103 C 887.378 -1.66576 6.99746 0
M  V30 9104 C 889.404 -1.77426 5.64158 0
M  V30 9105 C 888.766 -1.54891 6.87159 0
M  V30 9106 H 884.865 -0.565152 0.540488 0
M  V30 9107 H 887.449 -0.914079 1.71909 0
M  V30 9108 H 885.62 -3.43228 1.81794 0
M  V30 9109 H 887.352 -3.48338 2.06017 0
M  V30 9110 H 884.107 -2.67298 3.90958 0
M  V30 9111 H 884.531 -2.04398 6.45407 0
M  V30 9112 H 889.173 -2.28051 3.56024 0
M  V30 9113 H 886.891 -1.49205 7.94206 0
M  V30 9114 H 890.477 -1.67316 5.57222 0
M  V30 9115 H 889.357 -1.28577 7.73588 0
M  V30 9116 N 886.86 -1.21182 -1.00761 0
M  V30 9117 C 887.81 -0.936247 -2.0789 0
M  V30 9118 C 888.794 0.107482 -1.60541 0
M  V30 9119 O 889.986 -0.1011 -1.76711 0
M  V30 9120 C 887.115 -0.499949 -3.3964 0
M  V30 9121 C 886.201 -1.5776 -3.93666 0
M  V30 9122 N 886.592 -2.80208 -4.2109 0
M  V30 9123 C 884.89 -1.44586 -4.21913 0
M  V30 9124 C 885.591 -3.49787 -4.64784 0
M  V30 9125 N 884.567 -2.7722 -4.676 0
M  V30 9126 H 888.369 -1.86659 -2.27015 0
M  V30 9127 H 885.883 -1.10716 -1.1881 0
M  V30 9128 H 887.88 -0.283897 -4.15932 0
M  V30 9129 H 886.54 0.423659 -3.21924 0
M  V30 9130 H 887.551 -3.16776 -4.09724 0
M  V30 9131 H 884.228 -0.587346 -4.13348 0
M  V30 9132 H 885.618 -4.54615 -4.94747 0
M  V30 9133 N 888.338 1.20213 -1.01915 0
M  V30 9134 C 889.286 2.25125 -0.584936 0
M  V30 9135 C 890.28 1.65138 0.377602 0
M  V30 9136 O 891.486 1.78294 0.247245 0
M  V30 9137 H 887.861 0.732333 -0.170858 0
M  V30 9138 H 889.832 2.59075 -1.48063 0
M  V30 9139 C 888.581 3.47651 0.058389 0
M  V30 9140 H 887.904 3.9409 -0.673263 0
M  V30 9141 H 889.344 4.2275 0.325285 0
M  V30 9142 C 887.803 3.10725 1.30199 0
M  V30 9143 O 888.333 3.22491 2.39505 0
M  V30 9144 N 886.539 2.6525 1.18706 0
M  V30 9145 H 886.086 2.55875 0.297618 0
M  V30 9146 H 886.044 2.40913 2.02011 0
M  V30 9147 N 889.816 0.795718 1.36037 0
M  V30 9148 C 890.748 0.156336 2.28666 0
M  V30 9149 C 891.761 -0.638075 1.49775 0
M  V30 9150 O 892.95 -0.472222 1.7214 0
M  V30 9151 C 890.05 -0.801417 3.29288 0
M  V30 9152 C 889.223 -0.0557118 4.37365 0
M  V30 9153 C 888.282 -0.930338 5.1791 0
M  V30 9154 O 887.308 -0.385266 5.67895 0
M  V30 9155 N 888.51 -2.25382 5.34961 0
M  V30 9156 H 891.275 0.952033 2.84177 0
M  V30 9157 H 888.836 0.650189 1.48271 0
M  V30 9158 H 890.828 -1.39051 3.80062 0
M  V30 9159 H 889.398 -1.49796 2.74372 0
M  V30 9160 H 888.618 0.714508 3.87671 0
M  V30 9161 H 889.906 0.458633 5.06729 0
M  V30 9162 H 889.304 -2.72073 4.95977 0
M  V30 9163 H 887.861 -2.79241 5.88955 0
M  V30 9164 N 891.294 -1.47756 0.548274 0
M  V30 9165 C 892.242 -2.3158 -0.217584 0
M  V30 9166 C 893.236 -1.42372 -0.917957 0
M  V30 9167 O 894.442 -1.59184 -0.840259 0
M  V30 9168 H 890.817 -0.74671 -0.0890388 0
M  V30 9169 H 892.788 -2.94032 0.508719 0
M  V30 9170 C 891.537 -3.24834 -1.24008 0
M  V30 9171 H 890.86 -3.93435 -0.710572 0
M  V30 9172 H 892.3 -3.86336 -1.74701 0
M  V30 9173 C 890.759 -2.47724 -2.2833 0
M  V30 9174 O 891.289 -2.21522 -3.35098 0
M  V30 9175 N 889.495 -2.08891 -2.02022 0
M  V30 9176 H 889.042 -2.30401 -1.1521 0
M  V30 9177 H 889 -1.57613 -2.7204 0
M  V30 9178 N 892.772 -0.284283 -1.55015 0
M  V30 9179 C 894.183 0.211681 -1.85496 0
M  V30 9180 C 894.534 1.54735 -1.2063 0
M  V30 9181 O 893.659 2.10594 -0.497918 0
M  V30 9182 C 894.254 0.390864 -3.36538 0
M  V30 9183 C 892.813 0.831055 -3.67111 0
M  V30 9184 C 891.96 -0.0703581 -2.77211 0
M  V30 9185 H 894.911 -0.505803 -1.50424 0
M  V30 9186 H 894.932 1.22803 -3.60138 0
M  V30 9187 H 894.444 -0.581409 -3.8372 0
M  V30 9188 H 892.545 1.81447 -3.25434 0
M  V30 9189 H 892.658 0.662026 -4.74504 0
M  V30 9190 H 891.022 0.447528 -2.50737 0
M  V30 9191 H 891.805 -1.03868 -3.2721 0
M  V30 9192 N 894.251 1.57596 -0.0117121 0
M  V30 9193 C 895.476 1.95764 0.684938 0
M  V30 9194 C 895.901 0.887285 1.65858 0
M  V30 9195 O 895.259 -0.153508 1.80649 0
M  V30 9196 C 895.307 3.33031 1.38285 0
M  V30 9197 O 894.411 3.28163 2.49765 0
M  V30 9198 H 893.752 0.638767 0.181309 0
M  V30 9199 H 896.282 2.04486 -0.0683883 0
M  V30 9200 H 896.292 3.68866 1.74362 0
M  V30 9201 H 894.967 4.10483 0.669043 0
M  V30 9202 H 893.544 3.04021 2.15929 0
M  V30 9203 N 895.729 -0.261212 1.5542 0
M  V30 9204 C 896.975 -0.988533 1.77763 0
M  V30 9205 C 897.33 -1.83504 0.578286 0
M  V30 9206 O 896.623 -1.8674 -0.428808 0
M  V30 9207 C 896.817 -1.89395 3.03091 0
M  V30 9208 C 896.646 -1.13658 4.351 0
M  V30 9209 C 895.416 -0.847467 4.98143 0
M  V30 9210 C 897.614 -0.52118 5.11652 0
M  V30 9211 N 895.596 -0.0645324 6.13866 0
M  V30 9212 C 896.967 0.127016 6.1987 0
M  V30 9213 C 899.022 -0.430206 4.96038 0
M  V30 9214 C 897.725 0.857433 7.14171 0
M  V30 9215 C 899.751 0.286645 5.90705 0
M  V30 9216 C 899.113 0.923534 6.9832 0
M  V30 9217 H 895.212 -0.343317 0.702608 0
M  V30 9218 H 897.796 -0.263035 1.92915 0
M  V30 9219 H 895.967 -2.5916 2.89293 0
M  V30 9220 H 897.699 -2.55576 3.13788 0
M  V30 9221 H 894.454 -1.15569 4.59283 0
M  V30 9222 H 894.878 0.31461 6.76269 0
M  V30 9223 H 899.52 -0.908278 4.12929 0
M  V30 9224 H 897.238 1.34715 7.96792 0
M  V30 9225 H 900.824 0.357511 5.80701 0
M  V30 9226 H 899.704 1.46939 7.70311 0
M  V30 9227 N 897.207 -1.48554 -0.526253 0
M  V30 9228 C 898.137 -1.66252 -1.63959 0
M  V30 9229 C 899.118 -0.511351 -1.62232 0
M  V30 9230 O 900.303 -0.744322 -1.7937 0
M  V30 9231 C 897.433 -1.70556 -3.02536 0
M  V30 9232 C 896.387 -2.8521 -3.19123 0
M  V30 9233 C 895.713 -2.74606 -4.58798 0
M  V30 9234 C 897.013 -4.26463 -3.0154 0
M  V30 9235 H 898.707 -2.59459 -1.49404 0
M  V30 9236 H 896.253 -1.24862 -0.717326 0
M  V30 9237 H 898.206 -1.81524 -3.80298 0
M  V30 9238 H 896.93 -0.739297 -3.18123 0
M  V30 9239 H 895.589 -2.73802 -2.43779 0
M  V30 9240 H 895.237 -1.75941 -4.71226 0
M  V30 9241 H 894.937 -3.51544 -4.70841 0
M  V30 9242 H 896.461 -2.87548 -5.38655 0
M  V30 9243 H 897.875 -4.38685 -3.69091 0
M  V30 9244 H 896.272 -5.04428 -3.25073 0
M  V30 9245 H 897.342 -4.42667 -1.97925 0
M  V30 9246 N 898.685 0.775411 -1.37205 0
M  V30 9247 C 899.913 1.56446 -1.35397 0
M  V30 9248 C 900.328 1.887 0.0615437 0
M  V30 9249 O 899.685 1.51178 1.02233 0
M  V30 9250 C 899.736 2.87697 -2.18889 0
M  V30 9251 O 899.457 2.56828 -3.54924 0
M  V30 9252 C 900.958 3.81944 -2.25019 0
M  V30 9253 H 898.178 0.484792 -0.463916 0
M  V30 9254 H 900.722 0.961346 -1.80495 0
M  V30 9255 H 898.877 3.44442 -1.7731 0
M  V30 9256 H 899.291 3.40851 -3.98649 0
M  V30 9257 H 900.765 4.71055 -2.87769 0
M  V30 9258 H 901.242 4.20811 -1.25757 0
M  V30 9259 H 901.848 3.3113 -2.66895 0
M  V30 9260 N 900.163 1.21714 1.00117 0
M  V30 9261 C 901.111 0.976937 2.11089 0
M  V30 9262 C 902.105 -0.0771295 1.69224 0
M  V30 9263 O 903.311 0.0745945 1.79845 0
M  V30 9264 H 899.686 0.298687 0.690138 0
M  V30 9265 H 901.657 1.91881 2.28526 0
M  V30 9266 C 900.406 0.562369 3.43122 0
M  V30 9267 H 899.729 1.36509 3.75773 0
M  V30 9268 H 901.169 0.433642 4.21777 0
M  V30 9269 C 899.628 -0.727148 3.28959 0
M  V30 9270 O 900.158 -1.78171 3.60025 0
M  V30 9271 N 898.364 -0.695129 2.82164 0
M  V30 9272 H 897.911 0.163346 2.57082 0
M  V30 9273 H 897.869 -1.55822 2.73069 0
M  V30 9274 N 901.641 -1.19671 1.02551 0
M  V30 9275 C 902.889 -1.88894 0.71858 0
M  V30 9276 C 903.21 -1.79797 -0.754856 0
M  V30 9277 O 902.48 -1.20621 -1.54362 0
M  V30 9278 H 901.06 -0.699244 0.262806 0
M  V30 9279 H 903.722 -1.45298 1.29902 0
M  V30 9280 H 902.818 -2.95309 1.00989 0
M  V30 9281 N 903.119 -0.802921 -1.35613 0
M  V30 9282 C 904.067 -0.198783 -2.31749 0
M  V30 9283 C 905.061 0.649416 -1.56458 0
M  V30 9284 O 906.267 0.542989 -1.71615 0
M  V30 9285 H 902.642 -0.0455177 -0.750621 0
M  V30 9286 H 904.613 -1.02479 -2.80251 0
M  V30 9287 C 903.362 0.641066 -3.41739 0
M  V30 9288 H 902.685 -0.00226244 -3.998 0
M  V30 9289 H 904.125 1.03022 -4.11294 0
M  V30 9290 C 902.584 1.80505 -2.84464 0
M  V30 9291 O 903.114 2.90235 -2.77717 0
M  V30 9292 N 901.32 1.61542 -2.41563 0
M  V30 9293 H 900.867 0.722863 -2.4725 0
M  V30 9294 H 900.825 2.39581 -2.03589 0
M  V30 9295 N 904.597 1.47463 -0.556102 0
M  V30 9296 C 905.843 2.03361 -0.039909 0
M  V30 9297 C 906.198 1.42292 1.29502 0
M  V30 9298 O 905.491 0.568813 1.82962 0
M  V30 9299 C 905.685 3.57224 0.112126 0
M  V30 9300 C 905.514 4.33213 -1.20652 0
M  V30 9301 C 904.284 4.73153 -1.77352 0
M  V30 9302 C 906.482 4.68415 -2.12348 0
M  V30 9303 N 904.464 5.33781 -3.03233 0
M  V30 9304 C 905.835 5.29334 -3.22808 0
M  V30 9305 C 907.89 4.50344 -2.12356 0
M  V30 9306 C 906.593 5.7409 -4.33374 0
M  V30 9307 C 908.619 4.96098 -3.21933 0
M  V30 9308 C 907.981 5.57065 -4.31112 0
M  V30 9309 H 904.08 0.779939 -0.0567407 0
M  V30 9310 H 906.664 1.79959 -0.743147 0
M  V30 9311 H 904.835 3.80395 0.784485 0
M  V30 9312 H 906.567 3.99762 0.630285 0
M  V30 9313 H 903.322 4.55074 -1.31165 0
M  V30 9314 H 903.746 5.6864 -3.67393 0
M  V30 9315 H 908.388 4.02566 -1.29229 0
M  V30 9316 H 906.106 6.2086 -5.17261 0
M  V30 9317 H 909.692 4.83887 -3.23024 0
M  V30 9318 H 908.572 5.91824 -5.14504 0
M  V30 9319 N 906.075 0.2925 1.54862 0
M  V30 9320 C 907.023 -0.603186 2.24643 0
M  V30 9321 C 908.017 -1.1439 1.24946 0
M  V30 9322 O 909.223 -1.09552 1.42823 0
M  V30 9323 H 905.598 -0.213105 0.721173 0
M  V30 9324 H 907.569 0.00799278 2.98399 0
M  V30 9325 C 906.318 -1.76769 2.99413 0
M  V30 9326 H 905.641 -1.36084 3.75927 0
M  V30 9327 H 907.081 -2.37066 3.51533 0
M  V30 9328 C 905.54 -2.66669 2.05886 0
M  V30 9329 O 906.07 -3.67525 1.62136 0
M  V30 9330 N 904.276 -2.34216 1.7202 0
M  V30 9331 H 903.823 -1.52246 2.07795 0
M  V30 9332 H 903.781 -2.94635 1.09717 0
M  V30 9333 N 907.553 -1.57587 0.0200696 0
M  V30 9334 C 908.969 -1.56018 -0.336237 0
M  V30 9335 C 909.169 -1.02478 -1.73495 0
M  V30 9336 O 908.225 -0.667487 -2.43518 0
M  V30 9337 C 909.538 -3.00079 -0.193112 0
M  V30 9338 C 911.086 -3.11863 -0.266557 0
M  V30 9339 C 911.561 -4.57747 -0.152326 0
M  V30 9340 N 913.052 -4.62726 -0.209596 0
M  V30 9341 C 913.787 -5.73217 -0.144855 0
M  V30 9342 N 913.283 -6.92794 -0.0295487 0
M  V30 9343 N 915.076 -5.61751 -0.198184 0
M  V30 9344 H 907.227 -1.90722 0.93482 0
M  V30 9345 H 909.49 -0.876909 0.360186 0
M  V30 9346 H 909.196 -3.43167 0.770036 0
M  V30 9347 H 909.07 -3.64593 -0.967029 0
M  V30 9348 H 911.457 -2.68693 -1.22016 0
M  V30 9349 H 911.538 -2.50087 0.53758 0
M  V30 9350 H 911.182 -5.01595 0.797817 0
M  V30 9351 H 911.112 -5.17491 -0.97521 0
M  V30 9352 H 913.603 -3.76713 -0.299229 0
M  V30 9353 H 913.916 -7.72799 0.0134071 0
M  V30 9354 H 912.261 -6.95 0.00510737 0
M  V30 9355 H 915.452 -4.67222 -0.286603 0
M  V30 9356 H 915.625 -6.47839 -0.144266 0
M  V30 9357 N 909.032 0.252966 -1.55557 0
M  V30 9358 C 910.309 1.00432 -1.67847 0
M  V30 9359 C 910.689 2.03587 -0.55816 0
M  V30 9360 O 910.037 2.24239 0.439197 0
M  V30 9361 C 910.247 1.64313 -3.079 0
M  V30 9362 C 911.595 2.14726 -3.66303 0
M  V30 9363 O 912.619 1.74264 -3.10661 0
M  V30 9364 O 911.478 2.89 -4.63833 0
M  V30 9365 H 908.572 0.467102 -0.682455 0
M  V30 9366 H 911.118 0.247233 -1.67889 0
M  V30 9367 H 909.89 0.896681 -3.80888 0
M  V30 9368 H 909.513 2.46657 -3.11843 0
M  V30 9369 N 910.51 1.48831 0.518367 0
M  V30 9370 C 911.735 1.61379 1.30275 0
M  V30 9371 C 912.16 0.278571 1.86026 0
M  V30 9372 O 911.518 -0.751427 1.64995 0
M  V30 9373 C 911.566 2.67225 2.42122 0
M  V30 9374 O 910.67 2.25192 3.45489 0
M  V30 9375 H 910.011 0.540742 0.385349 0
M  V30 9376 H 912.541 1.949 0.622498 0
M  V30 9377 H 912.551 2.88859 2.8814 0
M  V30 9378 H 911.226 3.64155 2.00907 0
M  V30 9379 H 909.803 2.13819 3.05509 0
M  V30 9380 N 911.988 -0.768124 1.37614 0
M  V30 9381 C 912.918 -1.89537 1.36374 0
M  V30 9382 C 913.899 -1.68513 0.231803 0
M  V30 9383 O 915.084 -1.89318 0.432705 0
M  V30 9384 C 912.214 -3.26871 1.17358 0
M  V30 9385 C 911.168 -3.62466 2.27602 0
M  V30 9386 C 910.494 -4.9838 1.93705 0
M  V30 9387 C 911.794 -3.68841 3.69802 0
M  V30 9388 H 913.488 -1.90832 2.30702 0
M  V30 9389 H 911.034 -0.91672 1.11051 0
M  V30 9390 H 912.987 -4.05371 1.15119 0
M  V30 9391 H 911.711 -3.26018 0.194865 0
M  V30 9392 H 910.37 -2.86276 2.29002 0
M  V30 9393 H 910.018 -4.94071 0.943539 0
M  V30 9394 H 909.718 -5.23165 2.6753 0
M  V30 9395 H 911.242 -5.79276 1.93059 0
M  V30 9396 H 912.656 -4.37485 3.70513 0
M  V30 9397 H 911.053 -4.05126 4.42711 0
M  V30 9398 H 912.123 -2.69415 4.03167 0
M  V30 9399 N 913.466 -1.22244 -0.994698 0
M  V30 9400 C 914.396 -1.01513 -2.10279 0
M  V30 9401 C 915.377 0.0633365 -1.69982 0
M  V30 9402 O 916.562 -0.0985268 -1.9395 0
M  V30 9403 C 913.692 -0.59016 -3.42249 0
M  V30 9404 C 912.646 -1.61436 -3.96387 0
M  V30 9405 C 911.972 -1.04528 -5.24383 0
M  V30 9406 C 913.272 -3.00388 -4.27276 0
M  V30 9407 H 914.966 -1.94194 -2.2788 0
M  V30 9408 H 912.512 -0.935094 -1.09508 0
M  V30 9409 H 914.465 -0.432254 -4.19177 0
M  V30 9410 H 913.189 0.372308 -3.24471 0
M  V30 9411 H 911.848 -1.76001 -3.21589 0
M  V30 9412 H 911.496 -0.0742225 -5.02945 0
M  V30 9413 H 911.196 -1.72949 -5.61571 0
M  V30 9414 H 912.72 -0.898922 -6.03947 0
M  V30 9415 H 914.134 -2.89207 -4.95007 0
M  V30 9416 H 912.531 -3.65916 -4.75631 0
M  V30 9417 H 913.601 -3.50456 -3.35125 0
M  V30 9418 N 914.944 1.19125 -1.03184 0
M  V30 9419 C 915.907 2.20662 -0.619766 0
M  V30 9420 C 916.907 1.57621 0.318179 0
M  V30 9421 O 918.097 1.73885 0.104783 0
M  V30 9422 C 915.229 3.40774 0.0926696 0
M  V30 9423 H 916.422 2.58633 -1.5182 0
M  V30 9424 H 913.975 1.32855 -0.823364 0
M  V30 9425 H 914.71 3.08324 1.00531 0
M  V30 9426 H 914.495 3.87766 -0.581344 0
M  V30 9427 H 915.985 4.15977 0.367792 0
M  V30 9428 N 916.422 0.810101 1.35185 0
M  V30 9429 C 917.668 0.392698 1.98962 0
M  V30 9430 C 918.001 -1.03835 1.64109 0
M  V30 9431 O 917.276 -1.721 0.9062 0
M  V30 9432 C 917.559 0.580349 3.55393 0
M  V30 9433 C 917.412 2.05658 4.00031 0
M  V30 9434 C 918.731 0.00822618 4.40099 0
M  V30 9435 H 915.85 0.144157 0.722764 0
M  V30 9436 H 918.492 1.02029 1.60281 0
M  V30 9437 H 916.642 0.0461106 3.88473 0
M  V30 9438 H 918.314 2.65348 3.77344 0
M  V30 9439 H 916.557 2.55174 3.50811 0
M  V30 9440 H 917.228 2.13875 5.08883 0
M  V30 9441 H 919.704 0.464517 4.13499 0
M  V30 9442 H 918.58 0.169414 5.48638 0
M  V30 9443 H 918.841 -1.08576 4.2856 0
M  V30 9444 N 917.9 -1.47166 0.563914 0
M  V30 9445 C 918.833 -2.27058 -0.227989 0
M  V30 9446 C 919.811 -1.34468 -0.914179 0
M  V30 9447 O 920.995 -1.63857 -0.931829 0
M  V30 9448 C 918.122 -3.11689 -1.32543 0
M  V30 9449 C 917.168 -4.19906 -0.747084 0
M  V30 9450 S 918.001 -5.33916 0.41153 0
M  V30 9451 C 919.157 -6.22112 -0.687566 0
M  V30 9452 H 919.39 -2.93876 0.449939 0
M  V30 9453 H 916.923 -1.50372 0.350382 0
M  V30 9454 H 918.881 -3.61017 -1.95389 0
M  V30 9455 H 917.542 -2.44221 -1.97522 0
M  V30 9456 H 916.735 -4.78876 -1.57141 0
M  V30 9457 H 916.337 -3.73493 -0.194671 0
M  V30 9458 H 918.629 -6.58867 -1.578 0
M  V30 9459 H 919.572 -7.07971 -0.135058 0
M  V30 9460 H 919.98 -5.55871 -0.983255 0
M  V30 9461 N 919.378 -0.300708 -1.54705 0
M  V30 9462 C 920.325 0.57552 -2.23509 0
M  V30 9463 C 921.295 1.12979 -1.21758 0
M  V30 9464 O 922.48 1.17437 -1.50377 0
M  V30 9465 C 919.62 1.74167 -2.97926 0
M  V30 9466 C 918.733 1.21882 -4.1445 0
M  V30 9467 C 917.868 2.34881 -4.7645 0
M  V30 9468 C 916.907 1.79729 -5.85119 0
M  V30 9469 N 916.044 2.863 -6.41075 0
M  V30 9470 H 920.884 -0.0178257 -2.97995 0
M  V30 9471 H 918.421 -0.0205666 -1.47086 0
M  V30 9472 H 920.379 2.42753 -3.39303 0
M  V30 9473 H 919.009 2.30665 -2.25817 0
M  V30 9474 H 918.061 0.425227 -3.78016 0
M  V30 9475 H 919.373 0.775065 -4.92741 0
M  V30 9476 H 918.527 3.11415 -5.20678 0
M  V30 9477 H 917.266 2.82584 -3.97489 0
M  V30 9478 H 916.271 1.01684 -5.40315 0
M  V30 9479 H 917.496 1.32931 -6.65963 0
M  V30 9480 H 915.442 3.33337 -5.64998 0
M  V30 9481 H 915.359 2.46419 -7.14712 0
M  V30 9482 H 916.627 3.62732 -6.89961 0
M  V30 9483 N 920.856 1.57574 -0.0284266 0
M  V30 9484 C 921.804 2.11332 0.971675 0
M  V30 9485 C 922.798 1.03974 1.33738 0
M  V30 9486 O 924.004 1.22409 1.31969 0
M  V30 9487 H 920.379 0.675174 0.331125 0
M  V30 9488 H 922.35 2.943 0.49296 0
M  V30 9489 C 921.099 2.65496 2.24516 0
M  V30 9490 H 920.422 3.47753 1.9725 0
M  V30 9491 H 921.862 3.06757 2.92705 0
M  V30 9492 C 920.321 1.58207 2.97443 0
M  V30 9493 O 920.851 0.981496 3.89525 0
M  V30 9494 N 919.057 1.30269 2.59766 0
M  V30 9495 H 918.604 1.79294 1.84963 0
M  V30 9496 H 918.562 0.587085 3.0887 0
M  V30 9497 N 922.334 -0.244713 1.55689 0
M  V30 9498 C 923.284 -1.30596 1.86892 0
M  V30 9499 C 924.268 -1.43388 0.729972 0
M  V30 9500 O 925.46 -1.46593 0.99194 0
M  V30 9501 C 922.589 -2.66099 2.16902 0
M  V30 9502 C 921.675 -2.57302 3.37129 0
M  V30 9503 N 922.066 -2.18139 4.56343 0
M  V30 9504 C 920.364 -2.88311 3.40283 0
M  V30 9505 C 921.065 -2.20028 5.38482 0
M  V30 9506 N 920.041 -2.59616 4.77599 0
M  V30 9507 H 923.843 -0.993699 2.76591 0
M  V30 9508 H 921.357 -0.453334 1.55944 0
M  V30 9509 H 923.354 -3.4269 2.37422 0
M  V30 9510 H 922.014 -2.9819 1.28502 0
M  V30 9511 H 923.025 -1.89647 4.81928 0
M  V30 9512 H 919.702 -3.24928 2.62161 0
M  V30 9513 H 921.092 -1.9207 6.43862 0
M  V30 9514 N 923.813 -1.49104 -0.510467 0
M  V30 9515 C 925.062 -1.57362 -1.26175 0
M  V30 9516 C 925.375 -0.261218 -1.93848 0
M  V30 9517 O 926.581 -0.222238 -2.70589 0
M  V30 9518 C 925.037 -2.77606 -2.29048 0
M  V30 9519 C 924.645 -4.15567 -1.67357 0
M  V30 9520 C 926.389 -2.95188 -3.05064 0
M  V30 9521 C 924.296 -5.27046 -2.68285 0
M  V30 9522 H 923.226 -0.585887 -0.474608 0
M  V30 9523 H 925.877 -1.75474 -0.536753 0
M  V30 9524 H 924.259 -2.52968 -3.04669 0
M  V30 9525 H 925.433 -4.50304 -0.977924 0
M  V30 9526 H 923.748 -4.03264 -1.03765 0
M  V30 9527 H 926.345 -3.75643 -3.80521 0
M  V30 9528 H 926.688 -2.05385 -3.62108 0
M  V30 9529 H 927.221 -3.19821 -2.36558 0
M  V30 9530 H 923.96 -6.18878 -2.16034 0
M  V30 9531 H 923.48 -4.96774 -3.36118 0
M  V30 9532 H 925.159 -5.55983 -3.30896 0
M  V30 9533 N 925.291 0.760815 -1.38019 0
M  V30 9534 C 926.519 1.55001 -1.37048 0
M  V30 9535 C 926.934 1.88754 0.0415261 0
M  V30 9536 O 926.291 1.52254 1.00624 0
M  V30 9537 C 926.342 2.8536 -2.21928 0
M  V30 9538 O 926.063 2.53049 -3.57628 0
M  V30 9539 C 927.564 3.79536 -2.29057 0
M  V30 9540 H 924.784 0.479844 -0.469032 0
M  V30 9541 H 927.328 0.942148 -1.81504 0
M  V30 9542 H 925.483 3.42542 -1.80953 0
M  V30 9543 H 925.897 3.36604 -4.02241 0
M  V30 9544 H 927.371 4.67977 -2.92749 0
M  V30 9545 H 927.848 4.19453 -1.30213 0
M  V30 9546 H 928.454 3.28281 -2.70392 0
M  V30 9547 N 926.769 1.22769 0.988202 0
M  V30 9548 C 927.997 1.08155 1.76381 0
M  V30 9549 C 928.412 -0.367573 1.85187 0
M  V30 9550 O 927.769 -1.25455 1.32541 0
M  V30 9551 C 927.82 1.69193 3.19462 0
M  V30 9552 O 927.541 3.08437 3.11125 0
M  V30 9553 C 929.042 1.59915 4.13451 0
M  V30 9554 H 926.262 0.378908 0.553778 0
M  V30 9555 H 928.806 1.6246 1.24206 0
M  V30 9556 H 926.961 1.18939 3.6869 0
M  V30 9557 H 927.375 3.37916 4.0114 0
M  V30 9558 H 928.849 2.07339 5.1158 0
M  V30 9559 H 929.326 0.556546 4.3566 0
M  V30 9560 H 929.932 2.09497 3.70123 0
M  V30 9561 N 928.247 -1.18576 1.03814 0
M  V30 9562 C 929.493 -1.88773 0.741132 0
M  V30 9563 C 929.826 -1.79993 -0.729127 0
M  V30 9564 O 929.101 -1.19851 -1.53186 0
M  V30 9565 C 929.384 -3.39352 1.20468 0
M  V30 9566 C 929.237 -3.56955 2.73684 0
M  V30 9567 C 930.556 -4.32901 0.792741 0
M  V30 9568 H 927.675 -0.685482 0.270708 0
M  V30 9569 H 930.317 -1.39523 1.2897 0
M  V30 9570 H 928.467 -3.81427 0.737974 0
M  V30 9571 H 930.139 -3.2399 3.28372 0
M  V30 9572 H 928.382 -2.99696 3.13632 0
M  V30 9573 H 929.053 -4.62598 3.01176 0
M  V30 9574 H 931.529 -3.98592 1.1943 0
M  V30 9575 H 930.405 -5.36828 1.14486 0
M  V30 9576 H 930.666 -4.41052 -0.304295 0
M  V30 9577 N 929.725 -0.817259 -1.34754 0
M  V30 9578 C 930.658 -0.180483 -2.27485 0
M  V30 9579 C 931.636 0.659792 -1.48612 0
M  V30 9580 O 932.82 0.624761 -1.77845 0
M  V30 9581 C 929.947 0.748487 -3.30326 0
M  V30 9582 C 928.993 -0.0135304 -4.26498 0
M  V30 9583 S 929.826 -1.35685 -5.18025 0
M  V30 9584 C 930.982 -0.432605 -6.24403 0
M  V30 9585 H 931.215 -0.966677 -2.81145 0
M  V30 9586 H 928.748 -0.612864 -1.41716 0
M  V30 9587 H 930.706 1.27893 -3.90069 0
M  V30 9588 H 929.367 1.50816 -2.75524 0
M  V30 9589 H 928.56 0.692454 -4.9922 0
M  V30 9590 H 928.162 -0.474344 -3.7098 0
M  V30 9591 H 930.454 0.378035 -6.76444 0
M  V30 9592 H 931.397 -1.12934 -6.99036 0
M  V30 9593 H 931.805 -0.0235533 -5.64495 0
M  V30 9594 N 931.203 1.46865 -0.571711 0
M  V30 9595 C 932.431 2.06818 -0.0583975 0
M  V30 9596 C 932.846 1.42218 1.24175 0
M  V30 9597 O 932.203 0.523655 1.74826 0
M  V30 9598 C 932.254 3.61281 0.125673 0
M  V30 9599 O 931.975 4.23462 -1.123 0
M  V30 9600 C 933.476 4.38137 0.674604 0
M  V30 9601 H 930.696 0.668948 -0.052438 0
M  V30 9602 H 933.24 1.88656 -0.789251 0
M  V30 9603 H 931.395 3.78908 0.806707 0
M  V30 9604 H 931.809 5.16192 -0.929869 0
M  V30 9605 H 933.283 5.46845 0.752626 0
M  V30 9606 H 933.76 4.05419 1.68915 0
M  V30 9607 H 934.366 4.2529 0.0287979 0
M  V30 9608 N 932.681 0.308908 1.54543 0
M  V30 9609 C 933.631 -0.578902 2.20528 0
M  V30 9610 C 934.615 -1.09288 1.18088 0
M  V30 9611 O 935.807 -1.03234 1.43777 0
M  V30 9612 C 932.936 -1.74649 2.95555 0
M  V30 9613 C 932.022 -1.24809 4.05319 0
M  V30 9614 N 932.413 -0.46828 5.03628 0
M  V30 9615 C 930.711 -1.52813 4.19004 0
M  V30 9616 C 931.412 -0.201896 5.8135 0
M  V30 9617 N 930.388 -0.783927 5.37918 0
M  V30 9618 H 934.19 0.0243496 2.9389 0
M  V30 9619 H 931.704 0.114049 1.61999 0
M  V30 9620 H 933.701 -2.39414 3.41301 0
M  V30 9621 H 932.361 -2.35336 2.23712 0
M  V30 9622 H 933.372 -0.112453 5.17778 0
M  V30 9623 H 930.049 -2.14191 3.58369 0
M  V30 9624 H 931.439 0.424929 6.70555 0
M  V30 9625 N 934.159 -1.57557 0.0367827 0
M  V30 9626 C 935.389 -1.96134 -0.649225 0
M  V30 9627 C 935.797 -0.912279 -1.65753 0
M  V30 9628 O 935.14 0.113569 -1.83349 0
M  V30 9629 C 935.202 -3.30889 -1.40545 0
M  V30 9630 C 934.866 -4.53622 -0.554609 0
M  V30 9631 C 935.863 -5.19611 0.17331 0
M  V30 9632 C 933.548 -4.99907 -0.48976 0
M  V30 9633 C 935.542 -6.3021 0.95467 0
M  V30 9634 C 933.229 -6.10386 0.295299 0
M  V30 9635 C 934.227 -6.75398 1.01621 0
M  V30 9636 O 933.915 -7.83755 1.78839 0
M  V30 9637 H 933.647 -0.650662 -0.183344 0
M  V30 9638 H 936.201 -2.05179 0.0951512 0
M  V30 9639 H 934.431 -3.18356 -2.19513 0
M  V30 9640 H 936.12 -3.54315 -1.9803 0
M  V30 9641 H 936.886 -4.84819 0.132589 0
M  V30 9642 H 932.765 -4.49105 -1.04046 0
M  V30 9643 H 936.309 -6.80886 1.51789 0
M  V30 9644 H 932.206 -6.44616 0.33771 0
M  V30 9645 H 932.974 -8.0046 1.70898 0
M  V30 9646 N 935.637 0.236453 -1.55816 0
M  V30 9647 C 936.584 1.29289 -1.91188 0
M  V30 9648 C 937.554 1.47315 -0.767301 0
M  V30 9649 O 938.739 1.61128 -1.02189 0
M  V30 9650 C 935.879 2.64126 -2.22107 0
M  V30 9651 C 934.992 2.54022 -3.49423 0
M  V30 9652 C 934.127 3.81282 -3.69861 0
M  V30 9653 C 933.166 3.65839 -4.90743 0
M  V30 9654 N 932.303 4.85014 -5.07647 0
M  V30 9655 H 937.143 0.98424 -2.81277 0
M  V30 9656 H 934.68 0.474722 -1.39229 0
M  V30 9657 H 936.638 3.42626 -2.3804 0
M  V30 9658 H 935.268 2.93118 -1.35209 0
M  V30 9659 H 934.32 1.67036 -3.41765 0
M  V30 9660 H 935.632 2.38525 -4.38072 0
M  V30 9661 H 934.786 4.68226 -3.8581 0
M  V30 9662 H 933.525 3.99688 -2.79465 0
M  V30 9663 H 932.53 2.77279 -4.74759 0
M  V30 9664 H 933.755 3.48918 -5.82609 0
M  V30 9665 H 931.701 5.03762 -4.20191 0
M  V30 9666 H 931.618 4.72188 -5.90402 0
M  V30 9667 H 932.886 5.73427 -5.28017 0
M  V30 9668 N 937.115 1.49373 0.502552 0
M  V30 9669 C 938.363 1.58467 1.25429 0
M  V30 9670 C 938.684 0.272593 1.93085 0
M  V30 9671 O 937.954 -0.707947 1.82661 0
M  V30 9672 H 936.534 0.583866 0.46595 0
M  V30 9673 H 939.196 1.8599 0.582568 0
M  V30 9674 H 938.292 2.37993 2.01906 0
M  V30 9675 N 938.594 -0.753485 1.38421 0
M  V30 9676 C 939.541 -1.86723 1.35659 0
M  V30 9677 C 940.511 -1.64648 0.219121 0
M  V30 9678 O 941.696 -1.86313 0.411366 0
M  V30 9679 C 938.836 -3.24023 1.18758 0
M  V30 9680 C 937.949 -3.57928 2.41892 0
M  V30 9681 C 937.084 -4.84532 2.17721 0
M  V30 9682 C 936.123 -5.11224 3.36626 0
M  V30 9683 N 935.26 -6.29023 3.11889 0
M  V30 9684 H 940.1 -1.88419 2.30873 0
M  V30 9685 H 937.637 -0.920934 1.14705 0
M  V30 9686 H 939.595 -4.03252 1.06974 0
M  V30 9687 H 938.225 -3.21654 0.27182 0
M  V30 9688 H 937.277 -2.73541 2.64347 0
M  V30 9689 H 938.589 -3.73581 3.30513 0
M  V30 9690 H 937.743 -5.71704 2.03074 0
M  V30 9691 H 936.482 -4.71018 1.26465 0
M  V30 9692 H 935.487 -4.2252 3.51791 0
M  V30 9693 H 936.712 -5.26635 4.28757 0
M  V30 9694 H 934.658 -6.16832 2.2328 0
M  V30 9695 H 934.575 -6.45177 3.9406 0
M  V30 9696 H 935.843 -7.19083 3.00898 0
M  V30 9697 N 940.072 -1.23292 -0.981677 0
M  V30 9698 C 941.321 -1.05832 -1.71705 0
M  V30 9699 C 941.634 0.40514 -1.91358 0
M  V30 9700 O 942.84 0.699645 -2.6233 0
M  V30 9701 C 941.296 -1.84532 -3.08992 0
M  V30 9702 C 940.904 -3.35199 -2.9723 0
M  V30 9703 C 942.648 -1.75557 -3.86497 0
M  V30 9704 C 940.555 -4.06296 -4.29741 0
M  V30 9705 H 939.485 -0.39241 -0.64384 0
M  V30 9706 H 942.136 -1.47247 -1.09502 0
M  V30 9707 H 940.518 -1.35923 -3.71942 0
M  V30 9708 H 941.692 -3.91286 -2.43377 0
M  V30 9709 H 940.007 -3.44973 -2.332 0
M  V30 9710 H 942.604 -2.25989 -4.84596 0
M  V30 9711 H 942.947 -0.718101 -4.1006 0
M  V30 9712 H 943.48 -2.21771 -3.30246 0
M  V30 9713 H 940.219 -5.10344 -4.11375 0
M  V30 9714 H 939.739 -3.54997 -4.83464 0
M  V30 9715 H 941.418 -4.12519 -4.98434 0
M  V30 9716 N 941.55 1.18024 -1.04442 0
M  V30 9717 C 942.796 1.88377 -0.751133 0
M  V30 9718 C 943.129 1.80377 0.719571 0
M  V30 9719 O 942.404 1.20662 1.52548 0
M  V30 9720 C 942.687 3.38708 -1.22265 0
M  V30 9721 C 942.54 3.55499 -2.75574 0
M  V30 9722 C 943.859 4.32475 -0.815688 0
M  V30 9723 H 940.978 0.684037 -0.27434 0
M  V30 9724 H 943.62 1.38837 -1.29709 0
M  V30 9725 H 941.77 3.8103 -0.758192 0
M  V30 9726 H 943.442 3.22244 -3.30086 0
M  V30 9727 H 941.685 2.98028 -3.15217 0
M  V30 9728 H 942.356 4.60994 -3.03625 0
M  V30 9729 H 944.832 3.97953 -1.21542 0
M  V30 9730 H 943.708 5.36213 -1.17331 0
M  V30 9731 H 943.969 4.41207 0.280901 0
M  V30 9732 N 943.028 0.824394 1.34319 0
M  V30 9733 C 943.938 0.24932 2.33271 0
M  V30 9734 C 944.954 -0.617066 1.62691 0
M  V30 9735 O 946.13 -0.524616 1.94447 0
M  V30 9736 C 943.195 -0.578094 3.41846 0
M  V30 9737 C 942.256 0.310866 4.28173 0
M  V30 9738 C 941.489 -0.477153 5.31563 0
M  V30 9739 O 941.712 -1.71028 5.44156 0
M  V30 9740 O 940.646 0.141287 6.01734 0
M  V30 9741 H 944.472 1.06837 2.84288 0
M  V30 9742 H 942.057 0.58657 1.37403 0
M  V30 9743 H 943.939 -1.04878 4.0814 0
M  V30 9744 H 942.614 -1.37444 2.93071 0
M  V30 9745 H 941.521 0.829081 3.64797 0
M  V30 9746 H 942.854 1.07161 4.80393 0
M  V30 9747 N 944.506 -1.46559 0.579492 0
M  V30 9748 C 945.752 -2.03272 0.0722569 0
M  V30 9749 C 946.107 -1.44334 -1.27222 0
M  V30 9750 O 945.4 -0.597848 -1.82034 0
M  V30 9751 C 945.594 -3.57357 -0.0552803 0
M  V30 9752 C 945.423 -4.31238 1.27529 0
M  V30 9753 C 944.193 -4.70272 1.84857 0
M  V30 9754 C 946.391 -4.64978 2.19773 0
M  V30 9755 N 944.373 -5.2889 3.11687 0
M  V30 9756 C 945.744 -5.24132 3.31189 0
M  V30 9757 C 947.799 -4.46908 2.19493 0
M  V30 9758 C 946.502 -5.67123 4.42452 0
M  V30 9759 C 948.528 -4.90914 3.29784 0
M  V30 9760 C 947.89 -5.50136 4.3992 0
M  V30 9761 H 943.989 -0.778937 0.0691416 0
M  V30 9762 H 946.573 -1.78754 0.771683 0
M  V30 9763 H 944.744 -3.81595 -0.723868 0
M  V30 9764 H 946.476 -4.00714 -0.566606 0
M  V30 9765 H 943.231 -4.5293 1.38388 0
M  V30 9766 H 943.655 -5.62723 3.76393 0
M  V30 9767 H 948.297 -4.00459 1.35617 0
M  V30 9768 H 946.015 -6.12552 5.27073 0
M  V30 9769 H 949.601 -4.78687 3.30682 0
M  V30 9770 H 948.481 -5.83564 5.23854 0
M  V30 9771 N 945.984 -0.3171 -1.54377 0
M  V30 9772 C 947.261 0.341348 -1.92598 0
M  V30 9773 C 947.641 1.70402 -1.24605 0
M  V30 9774 O 946.989 2.25191 -0.387448 0
M  V30 9775 C 947.199 0.440003 -3.46215 0
M  V30 9776 C 948.547 0.703327 -4.18734 0
M  V30 9777 O 949.571 0.523181 -3.52337 0
M  V30 9778 O 948.43 1.05042 -5.3631 0
M  V30 9779 H 945.524 0.193696 -0.803997 0
M  V30 9780 H 948.07 -0.366341 -1.65699 0
M  V30 9781 H 946.842 -0.517299 -3.87866 0
M  V30 9782 H 946.465 1.19553 -3.792 0
M  V30 9783 N 947.462 1.57535 -0.0451378 0
M  V30 9784 C 948.708 1.92736 0.630921 0
M  V30 9785 C 949.041 0.923265 1.70849 0
M  V30 9786 O 948.316 -0.0516512 1.94431 0
M  V30 9787 C 948.599 3.38348 1.23259 0
M  V30 9788 C 948.452 4.49503 0.16349 0
M  V30 9789 C 949.771 3.84233 2.14599 0
M  V30 9790 H 946.89 0.700884 0.227883 0
M  V30 9791 H 949.532 1.89706 -0.10567 0
M  V30 9792 H 947.682 3.41061 1.86037 0
M  V30 9793 H 949.354 4.58919 -0.46808 0
M  V30 9794 H 947.597 4.30802 -0.509166 0
M  V30 9795 H 948.268 5.48457 0.624382 0
M  V30 9796 H 950.744 3.83358 1.6179 0
M  V30 9797 H 949.62 4.86781 2.53644 0
M  V30 9798 H 949.881 3.20646 3.04366 0
M  V30 9799 N 948.94 -0.228186 1.55939 0
M  V30 9800 C 949.903 -1.26621 1.91049 0
M  V30 9801 C 950.903 -1.40141 0.788491 0
M  V30 9802 O 952.093 -1.3852 1.05631 0
M  V30 9803 C 949.225 -2.64108 2.15545 0
M  V30 9804 H 950.418 -0.966978 2.83883 0
M  V30 9805 H 947.971 -0.468313 1.49119 0
M  V30 9806 H 948.706 -2.99141 1.25241 0
M  V30 9807 H 948.491 -2.55673 2.97277 0
M  V30 9808 H 949.981 -3.39025 2.43827 0
M  V30 9809 N 950.418 -1.49637 -0.494624 0
M  V30 9810 C 951.366 -1.6727 -1.61627 0
M  V30 9811 C 952.36 -0.538587 -1.6061 0
M  V30 9812 O 953.566 -0.718411 -1.65042 0
M  V30 9813 H 949.941 -0.527557 -0.535899 0
M  V30 9814 H 951.912 -2.61405 -1.43909 0
M  V30 9815 C 950.661 -1.7624 -2.99725 0
M  V30 9816 H 949.984 -2.62886 -3.01216 0
M  V30 9817 H 951.424 -1.92611 -3.77726 0
M  V30 9818 C 949.883 -0.508632 -3.33038 0
M  V30 9819 O 950.413 0.362828 -4.00058 0
M  V30 9820 N 948.619 -0.369667 -2.88239 0
M  V30 9821 H 948.166 -1.07984 -2.33875 0
M  V30 9822 H 948.124 0.468112 -3.10896 0
M  V30 9823 N 951.896 0.746133 -1.38819 0
M  V30 9824 C 952.806 1.89063 -1.38897 0
M  V30 9825 C 953.822 1.71648 -0.28513 0
M  V30 9826 O 954.998 1.94443 -0.524783 0
M  V30 9827 C 952.063 3.24523 -1.22007 0
M  V30 9828 C 951.124 3.54411 -2.42263 0
M  V30 9829 C 950.357 4.83408 -2.26169 0
M  V30 9830 O 950.58 5.56325 -1.25931 0
M  V30 9831 O 949.514 5.12943 -3.14918 0
M  V30 9832 H 953.34 1.91951 -2.35347 0
M  V30 9833 H 950.925 0.892433 -1.19816 0
M  V30 9834 H 952.807 4.05496 -1.14677 0
M  V30 9835 H 951.482 3.2243 -0.286455 0
M  V30 9836 H 950.389 2.73569 -2.55168 0
M  V30 9837 H 951.722 3.61273 -3.3428 0
M  V30 9838 N 953.375 1.23811 0.975125 0
M  V30 9839 C 954.615 1.08517 1.73215 0
M  V30 9840 C 954.979 -0.370777 1.88386 0
M  V30 9841 O 956.18 -0.645036 2.60946 0
M  V30 9842 C 954.451 1.79649 3.08968 0
M  V30 9843 S 956.01 1.79993 4.00185 0
M  V30 9844 H 952.828 0.388256 0.595633 0
M  V30 9845 H 955.43 1.57028 1.16458 0
M  V30 9846 H 954.134 2.8471 2.95581 0
M  V30 9847 H 953.665 1.31441 3.70792 0
M  V30 9848 H 955.68 0.862294 4.8865 0
M  V30 9849 N 954.853 -1.17469 1.05066 0
M  V30 9850 C 955.786 -2.2031 0.594863 0
M  V30 9851 C 956.764 -1.58196 -0.375878 0
M  V30 9852 O 957.948 -1.8629 -0.287798 0
M  V30 9853 C 955.075 -3.38452 -0.129614 0
M  V30 9854 C 954.121 -4.19007 0.795943 0
M  V30 9855 S 954.954 -4.8433 2.28441 0
M  V30 9856 C 956.11 -6.05862 1.57107 0
M  V30 9857 H 956.343 -2.58632 1.46618 0
M  V30 9858 H 953.876 -1.28063 0.862511 0
M  V30 9859 H 955.834 -4.06914 -0.541416 0
M  V30 9860 H 954.495 -2.98521 -0.976948 0
M  V30 9861 H 953.688 -5.0345 0.235396 0
M  V30 9862 H 953.29 -3.55976 1.14705 0
M  V30 9863 H 955.582 -6.71895 0.86969 0
M  V30 9864 H 956.525 -6.66442 2.39292 0
M  V30 9865 H 956.933 -5.54477 1.05903 0
M  V30 9866 N 956.331 -0.831506 -1.3388 0
M  V30 9867 C 957.608 -0.345907 -1.92517 0
M  V30 9868 C 957.988 1.16784 -1.75854 0
M  V30 9869 O 957.336 1.97889 -1.14245 0
M  V30 9870 C 957.546 -0.784692 -3.40064 0
M  V30 9871 C 958.894 -0.78846 -4.17215 0
M  V30 9872 O 959.918 -0.727823 -3.48685 0
M  V30 9873 O 958.777 -0.869481 -5.39539 0
M  V30 9874 H 955.871 -0.0963568 -0.821367 0
M  V30 9875 H 958.417 -0.916868 -1.42799 0
M  V30 9876 H 957.189 -1.82697 -3.46031 0
M  V30 9877 H 956.812 -0.189897 -3.97146 0
M  V30 9878 N 957.809 1.4625 -0.587256 0
M  V30 9879 C 959.086 1.95599 -0.00750181 0
M  V30 9880 C 959.466 1.52989 1.45457 0
M  V30 9881 O 958.814 0.782731 2.14676 0
M  V30 9882 C 959.024 3.48513 -0.184309 0
M  V30 9883 C 960.372 4.24565 -0.0544972 0
M  V30 9884 O 961.396 3.5602 -0.113378 0
M  V30 9885 O 960.255 5.46445 0.0774075 0
M  V30 9886 H 957.349 0.825649 0.0472495 0
M  V30 9887 H 959.895 1.56512 -0.655893 0
M  V30 9888 H 958.667 3.72428 -1.20053 0
M  V30 9889 H 958.29 3.9444 0.500301 0
M  V30 9890 N 959.287 0.325282 1.54207 0
M  V30 9891 C 960.512 -0.281418 2.05482 0
M  V30 9892 C 960.937 -1.44869 1.19977 0
M  V30 9893 O 960.295 -1.80088 0.209275 0
M  V30 9894 C 960.343 -0.692029 3.53897 0
M  V30 9895 O 959.447 -1.7942 3.71325 0
M  V30 9896 H 958.788 -0.0504872 0.662078 0
M  V30 9897 H 961.318 0.474191 1.99029 0
M  V30 9898 H 961.328 -0.974219 3.96198 0
M  V30 9899 H 960.003 0.161709 4.15586 0
M  V30 9900 H 958.58 -1.51069 3.40929 0
M  V30 9901 N 960.765 -1.57509 0.0534917 0
M  V30 9902 C 962.013 -1.92402 -0.618548 0
M  V30 9903 C 962.334 -0.93273 -1.71246 0
M  V30 9904 O 961.604 0.0220495 -1.95888 0
M  V30 9905 H 960.184 -0.710233 -0.23147 0
M  V30 9906 H 962.846 -1.94606 0.10704 0
M  V30 9907 H 961.942 -2.93704 -1.05566 0
M  V30 9908 N 962.243 0.219913 -1.56058 0
M  V30 9909 C 963.191 1.29215 -1.93407 0
M  V30 9910 C 964.185 1.48434 -0.816307 0
M  V30 9911 O 965.391 1.49589 -1.00115 0
M  V30 9912 H 961.766 0.433256 -0.614649 0
M  V30 9913 H 963.737 0.949977 -2.82875 0
M  V30 9914 C 962.486 2.63501 -2.26854 0
M  V30 9915 H 961.809 2.4952 -3.12377 0
M  V30 9916 H 963.249 3.37334 -2.56869 0
M  V30 9917 C 961.708 3.18634 -1.09425 0
M  V30 9918 O 962.238 4.00117 -0.356243 0
M  V30 9919 N 960.444 2.7703 -0.877642 0
M  V30 9920 H 959.991 2.10875 -1.47951 0
M  V30 9921 H 959.949 3.1426 -0.0936792 0
M  V30 9922 N 963.721 1.49897 0.486681 0
M  V30 9923 C 964.969 1.59789 1.23742 0
M  V30 9924 C 965.29 0.293056 1.92785 0
M  V30 9925 O 964.56 -0.688534 1.83401 0
M  V30 9926 H 963.14 0.588775 0.459731 0
M  V30 9927 H 965.802 1.86597 0.562808 0
M  V30 9928 H 964.898 2.40121 1.9937 0
M  V30 9929 N 965.199 -0.738761 1.39212 0
M  V30 9930 C 966.129 -1.86602 1.40364 0
M  V30 9931 C 967.11 -1.67984 0.267495 0
M  V30 9932 O 968.295 -1.88358 0.472765 0
M  V30 9933 C 965.425 -3.24308 1.24265 0
M  V30 9934 C 964.379 -3.57557 2.35239 0
M  V30 9935 C 963.705 -4.94159 2.04233 0
M  V30 9936 C 965.005 -3.60914 3.77543 0
M  V30 9937 H 966.699 -1.85896 2.34698 0
M  V30 9938 H 964.245 -0.892959 1.1297 0
M  V30 9939 H 966.198 -4.02838 1.23692 0
M  V30 9940 H 964.922 -3.25531 0.263974 0
M  V30 9941 H 963.581 -2.81354 2.35022 0
M  V30 9942 H 963.229 -4.91959 1.04813 0
M  V30 9943 H 962.929 -5.17373 2.78567 0
M  V30 9944 H 964.453 -5.7505 2.05303 0
M  V30 9945 H 965.867 -4.29528 3.79709 0
M  V30 9946 H 964.264 -3.95644 4.51205 0
M  V30 9947 H 965.334 -2.60803 4.08791 0
M  V30 9948 N 966.677 -1.24326 -0.968545 0
M  V30 9949 C 968.093 -1.00847 -1.23701 0
M  V30 9950 C 968.293 0.283235 -1.99499 0
M  V30 9951 O 967.349 0.999607 -2.31871 0
M  V30 9952 C 968.662 -2.22295 -2.02498 0
M  V30 9953 C 970.21 -2.26911 -2.15593 0
M  V30 9954 C 970.685 -3.47978 -2.97784 0
M  V30 9955 N 972.176 -3.48289 -3.05367 0
M  V30 9956 C 972.911 -4.38625 -3.69318 0
M  V30 9957 N 972.407 -5.39213 -4.34995 0
M  V30 9958 N 974.2 -4.26339 -3.66322 0
M  V30 9959 H 966.351 -2.07335 -0.461087 0
M  V30 9960 H 968.614 -0.909805 -0.26638 0
M  V30 9961 H 968.32 -3.161 -1.54188 0
M  V30 9962 H 968.194 -2.24344 -3.03232 0
M  V30 9963 H 970.581 -1.33639 -2.63106 0
M  V30 9964 H 970.662 -2.28888 -1.14209 0
M  V30 9965 H 970.306 -4.41564 -2.50965 0
M  V30 9966 H 970.236 -3.43244 -3.99364 0
M  V30 9967 H 972.727 -2.75517 -2.58648 0
M  V30 9968 H 973.04 -6.04378 -4.81608 0
M  V30 9969 H 971.385 -5.43101 -4.33667 0
M  V30 9970 H 974.576 -3.46991 -3.14189 0
M  V30 9971 H 974.749 -4.9694 -4.15878 0
M  V30 9972 N 968.156 1.1691 -1.05688 0
M  V30 9973 C 969.381 1.91745 -0.790478 0
M  V30 9974 C 969.806 1.76568 0.648478 0
M  V30 9975 O 969.164 1.08682 1.45114 0
M  V30 9976 C 969.212 3.4067 -1.18222 0
M  V30 9977 O 968.316 4.11177 -0.317341 0
M  V30 9978 H 967.657 0.5976 -0.28943 0
M  V30 9979 H 970.187 1.48157 -1.41105 0
M  V30 9980 H 970.197 3.91424 -1.15114 0
M  V30 9981 H 968.872 3.51036 -2.2304 0
M  V30 9982 H 967.449 3.70645 -0.409459 0
M  V30 9983 N 969.634 0.838594 1.33437 0
M  V30 9984 C 970.859 0.446701 2.02532 0
M  V30 9985 C 971.284 -0.944275 1.62681 0
M  V30 9986 O 970.642 -1.61733 0.81927 0
M  V30 9987 C 970.69 0.574794 3.55989 0
M  V30 9988 O 969.794 -0.399063 4.10465 0
M  V30 9989 H 969.135 0.181637 0.638674 0
M  V30 9990 H 971.665 1.13335 1.70342 0
M  V30 9991 H 971.675 0.456339 4.0544 0
M  V30 9992 H 970.35 1.58921 3.8434 0
M  V30 9993 H 968.927 -0.238187 3.72139 0
M  V30 9994 N 971.112 -1.45937 0.595003 0
M  V30 9995 C 972.361 -2.01529 0.0829531 0
M  V30 9996 C 972.674 -1.47071 -1.28955 0
M  V30 9997 O 973.88 -1.94561 -1.89363 0
M  V30 9998 C 972.336 -3.59767 0.0976597 0
M  V30 9999 C 971.944 -4.23223 1.46924 0
M  V30 10000 C 973.688 -4.22972 -0.359805 0
M  V30 10001 C 971.595 -5.73576 1.44101 0
M  V30 10002 H 970.525 -0.753508 0.0272425 0
M  V30 10003 H 973.176 -1.67541 0.748473 0
M  V30 10004 H 971.558 -3.90888 -0.634268 0
M  V30 10005 H 972.732 -4.03695 2.22187 0
M  V30 10006 H 971.047 -3.72161 1.86775 0
M  V30 10007 H 973.644 -5.33202 -0.39991 0
M  V30 10008 H 973.987 -3.92765 -1.37991 0
M  V30 10009 H 974.52 -3.96523 0.31845 0
M  V30 10010 H 971.259 -6.08462 2.43831 0
M  V30 10011 H 970.779 -5.95332 0.730767 0
M  V30 10012 H 972.458 -6.36531 1.1592 0
M  V30 10013 N 972.59 -0.333456 -1.54032 0
M  V30 10014 C 973.836 0.259248 -2.01741 0
M  V30 10015 C 974.191 1.48999 -1.21725 0
M  V30 10016 O 973.484 1.89333 -0.293882 0
M  V30 10017 C 973.678 0.63565 -3.51702 0
M  V30 10018 C 973.507 -0.55707 -4.46236 0
M  V30 10019 C 972.277 -1.05925 -4.94073 0
M  V30 10020 C 974.475 -1.41237 -4.94527 0
M  V30 10021 N 972.457 -2.21535 -5.72534 0
M  V30 10022 C 973.828 -2.41551 -5.71011 0
M  V30 10023 C 975.883 -1.43899 -4.76652 0
M  V30 10024 C 974.586 -3.44342 -6.31523 0
M  V30 10025 C 976.612 -2.45567 -5.38006 0
M  V30 10026 C 975.974 -3.44606 -6.1435 0
M  V30 10027 H 972.073 0.0584431 -0.779813 0
M  V30 10028 H 974.657 -0.470736 -1.88924 0
M  V30 10029 H 972.828 1.33475 -3.64745 0
M  V30 10030 H 974.56 1.21067 -3.86167 0
M  V30 10031 H 971.315 -0.628947 -4.69405 0
M  V30 10032 H 971.739 -2.79878 -6.16439 0
M  V30 10033 H 976.381 -0.686929 -4.17182 0
M  V30 10034 H 974.099 -4.20449 -6.90107 0
M  V30 10035 H 977.685 -2.4844 -5.26088 0
M  V30 10036 H 976.565 -4.21987 -6.60982 0
M  V30 10037 N 974.068 1.57479 -0.061844 0
M  V30 10038 C 975.484 1.56855 0.294753 0
M  V30 10039 C 975.684 1.07042 1.70717 0
M  V30 10040 O 974.74 0.731817 2.41662 0
M  V30 10041 C 976.053 3.00486 0.113484 0
M  V30 10042 C 977.601 3.1246 0.183778 0
M  V30 10043 C 978.076 4.5799 0.0309092 0
M  V30 10044 N 979.567 4.63119 0.0868393 0
M  V30 10045 C 980.302 5.734 -0.00717446 0
M  V30 10046 N 979.798 6.92628 -0.154144 0
M  V30 10047 N 981.591 5.62078 0.0491763 0
M  V30 10048 H 973.742 1.88176 -0.985058 0
M  V30 10049 H 976.005 0.867051 -0.383309 0
M  V30 10050 H 975.711 3.41004 -0.86075 0
M  V30 10051 H 975.585 3.67029 0.870023 0
M  V30 10052 H 977.972 2.71834 1.14849 0
M  V30 10053 H 978.053 2.48574 -0.603697 0
M  V30 10054 H 977.697 4.99303 -0.930526 0
M  V30 10055 H 977.627 5.19895 0.837664 0
M  V30 10056 H 980.118 3.77374 0.199245 0
M  V30 10057 H 980.431 7.72492 -0.218296 0
M  V30 10058 H 978.776 6.94742 -0.189372 0
M  V30 10059 H 981.967 4.67817 0.162626 0
M  V30 10060 H 982.14 6.47994 -0.0275478 0
M  V30 10061 N 975.546 -0.211634 1.56173 0
M  V30 10062 C 976.494 -1.28188 1.94089 0
M  V30 10063 C 977.488 -1.47999 0.824167 0
M  V30 10064 O 978.694 -1.49056 1.00907 0
M  V30 10065 H 975.069 -0.42999 0.616938 0
M  V30 10066 H 977.04 -0.934962 2.83374 0
M  V30 10067 C 975.789 -2.62294 2.28248 0
M  V30 10068 H 975.112 -2.4786 3.13696 0
M  V30 10069 H 976.552 -3.35967 2.58655 0
M  V30 10070 C 975.011 -3.18049 1.11113 0
M  V30 10071 O 975.541 -3.99923 0.377458 0
M  V30 10072 N 973.747 -2.76561 0.892321 0
M  V30 10073 H 973.294 -2.10088 1.49067 0
M  V30 10074 H 973.252 -3.14206 0.110344 0
M  V30 10075 N 977.024 -1.50153 -0.478725 0
M  V30 10076 C 978.27 -1.60998 -1.23318 0
M  V30 10077 C 978.603 -0.305868 -1.91776 0
M  V30 10078 O 977.878 0.692158 -1.81767 0
M  V30 10079 C 978.161 -2.78495 -2.28282 0
M  V30 10080 C 978.014 -4.18767 -1.64178 0
M  V30 10081 C 979.333 -2.91569 -3.2966 0
M  V30 10082 H 976.452 -0.585983 -0.446982 0
M  V30 10083 H 979.094 -1.82514 -0.528063 0
M  V30 10084 H 977.244 -2.60281 -2.8842 0
M  V30 10085 H 978.916 -4.48552 -1.07696 0
M  V30 10086 H 977.159 -4.23379 -0.94514 0
M  V30 10087 H 977.83 -4.96894 -2.40417 0
M  V30 10088 H 980.306 -3.08219 -2.79536 0
M  V30 10089 H 979.182 -3.75419 -4.0044 0
M  V30 10090 H 979.443 -2.01859 -3.93326 0
M  V30 10091 N 978.502 0.731368 -1.39602 0
M  V30 10092 C 979.751 1.48647 -1.36334 0
M  V30 10093 C 980.064 1.95565 0.0367383 0
M  V30 10094 O 981.27 2.7082 0.192017 0
M  V30 10095 C 979.726 2.68616 -2.39528 0
M  V30 10096 C 979.334 2.28632 -3.85268 0
M  V30 10097 C 981.078 3.46422 -2.45341 0
M  V30 10098 C 978.985 3.45345 -4.80095 0
M  V30 10099 H 977.915 0.558218 -0.506861 0
M  V30 10100 H 980.566 0.797467 -1.65266 0
M  V30 10101 H 978.948 3.39609 -2.03671 0
M  V30 10102 H 980.122 1.65162 -4.30184 0
M  V30 10103 H 978.437 1.63909 -3.82783 0
M  V30 10104 H 981.034 4.33241 -3.13379 0
M  V30 10105 H 981.377 3.8914 -1.47904 0
M  V30 10106 H 981.91 2.82461 -2.80108 0
M  V30 10107 H 978.649 3.07674 -5.78807 0
M  V30 10108 H 978.169 4.07784 -4.39855 0
M  V30 10109 H 979.848 4.1163 -4.99169 0
M  V30 10110 N 979.98 1.24838 0.961938 0
M  V30 10111 C 981.228 1.08936 1.70227 0
M  V30 10112 C 981.549 -0.371582 1.91427 0
M  V30 10113 O 980.819 -1.26461 1.49614 0
M  V30 10114 H 979.399 0.400128 0.630799 0
M  V30 10115 H 982.061 1.56848 1.15692 0
M  V30 10116 H 981.157 1.59195 2.68446 0
M  V30 10117 N 981.458 -1.16348 1.06306 0
M  V30 10118 C 982.39 -2.20316 0.631929 0
M  V30 10119 C 983.403 -1.59819 -0.310133 0
M  V30 10120 O 984.592 -1.78213 -0.101103 0
M  V30 10121 C 981.692 -3.3877 -0.0937645 0
M  V30 10122 C 980.865 -4.28826 0.861816 0
M  V30 10123 C 979.924 -5.25908 0.175346 0
M  V30 10124 O 978.95 -5.63363 0.813039 0
M  V30 10125 N 980.152 -5.70307 -1.08305 0
M  V30 10126 H 982.917 -2.57925 1.52626 0
M  V30 10127 H 980.478 -1.31358 0.946392 0
M  V30 10128 H 982.47 -4.00759 -0.563412 0
M  V30 10129 H 981.04 -2.99666 -0.889904 0
M  V30 10130 H 980.26 -3.64098 1.51083 0
M  V30 10131 H 981.548 -4.85875 1.51007 0
M  V30 10132 H 980.946 -5.4197 -1.62127 0
M  V30 10133 H 979.503 -6.34387 -1.49656 0
M  V30 10134 N 982.937 -0.845659 -1.3299 0
M  V30 10135 C 984.214 -0.366306 -1.92139 0
M  V30 10136 C 984.594 1.14912 -1.77083 0
M  V30 10137 O 983.942 1.96667 -1.16338 0
M  V30 10138 C 984.152 -0.820716 -3.39213 0
M  V30 10139 C 985.5 -0.832667 -4.16355 0
M  V30 10140 O 986.524 -0.764764 -3.47893 0
M  V30 10141 O 985.383 -0.926658 -5.38586 0
M  V30 10142 H 982.477 -0.105063 -0.820299 0
M  V30 10143 H 985.023 -0.931962 -1.41819 0
M  V30 10144 H 983.795 -1.86357 -3.44074 0
M  V30 10145 H 983.418 -0.232009 -3.96923 0
M  V30 10146 N 984.415 1.45619 -0.602734 0
M  V30 10147 C 985.645 2.06348 -0.102105 0
M  V30 10148 C 986.053 1.44884 1.21677 0
M  V30 10149 O 985.396 0.555559 1.75098 0
M  V30 10150 C 985.458 3.59309 0.117026 0
M  V30 10151 C 985.122 4.43081 -1.11931 0
M  V30 10152 C 986.119 4.78364 -2.03627 0
M  V30 10153 C 983.804 4.83908 -1.34677 0
M  V30 10154 C 985.798 5.53325 -3.16403 0
M  V30 10155 C 983.485 5.58624 -2.47754 0
M  V30 10156 C 984.483 5.93249 -3.38445 0
M  V30 10157 O 984.171 6.6645 -4.49555 0
M  V30 10158 H 983.903 0.672988 -0.0637478 0
M  V30 10159 H 986.457 1.87928 -0.828983 0
M  V30 10160 H 984.687 3.76111 0.898742 0
M  V30 10161 H 986.376 4.01897 0.568649 0
M  V30 10162 H 987.142 4.47384 -1.87277 0
M  V30 10163 H 983.021 4.56396 -0.649875 0
M  V30 10164 H 986.565 5.80268 -3.87214 0
M  V30 10165 H 982.462 5.89019 -2.64059 0
M  V30 10166 H 983.23 6.84895 -4.48175 0
M  V30 10167 N 985.893 0.34162 1.53853 0
M  V30 10168 C 986.823 -0.508431 2.27897 0
M  V30 10169 C 987.804 -1.10425 1.29384 0
M  V30 10170 O 988.989 -1.126 1.58224 0
M  V30 10171 C 986.119 -1.66048 3.05034 0
M  V30 10172 C 985.073 -1.19309 4.11035 0
M  V30 10173 C 984.399 -2.4335 4.76114 0
M  V30 10174 C 985.699 -0.294952 5.21467 0
M  V30 10175 H 987.393 0.109251 2.99201 0
M  V30 10176 H 984.939 0.0539847 1.43899 0
M  V30 10177 H 986.892 -2.26158 3.5557 0
M  V30 10178 H 985.616 -2.30503 2.31379 0
M  V30 10179 H 984.275 -0.614809 3.61408 0
M  V30 10180 H 983.923 -3.06208 3.99056 0
M  V30 10181 H 983.623 -2.1276 5.47729 0
M  V30 10182 H 985.147 -3.0419 5.29434 0
M  V30 10183 H 986.561 -0.80285 5.67651 0
M  V30 10184 H 984.958 -0.0810221 6.00045 0
M  V30 10185 H 986.028 0.669433 4.80257 0
M  V30 10186 N 987.371 -1.57444 0.0701946 0
M  V30 10187 C 988.648 -1.84826 -0.6402 0
M  V30 10188 C 989.028 -0.962344 -1.87889 0
M  V30 10189 O 988.376 -0.0282209 -2.28483 0
M  V30 10190 C 988.586 -3.34976 -0.979382 0
M  V30 10191 C 989.934 -4.02448 -1.35355 0
M  V30 10192 O 990.958 -3.39713 -1.07116 0
M  V30 10193 O 989.817 -5.13096 -1.88136 0
M  V30 10194 H 986.911 -0.763494 -0.317813 0
M  V30 10195 H 989.457 -1.69399 0.101004 0
M  V30 10196 H 988.229 -3.91173 -0.0995576 0
M  V30 10197 H 987.852 -3.5566 -1.7774 0
M  V30 10198 N 988.849 0.203349 -1.56283 0
M  V30 10199 C 990.079 0.940061 -1.83974 0
M  V30 10200 C 990.487 1.77703 -0.649486 0
M  V30 10201 O 989.83 1.79487 0.391189 0
M  V30 10202 C 989.892 1.89249 -3.05655 0
M  V30 10203 C 989.556 1.23828 -4.39904 0
M  V30 10204 C 990.553 0.619231 -5.16199 0
M  V30 10205 C 988.238 1.2446 -4.86636 0
M  V30 10206 C 990.232 0.0152287 -6.37398 0
M  V30 10207 C 987.919 0.636764 -6.07773 0
M  V30 10208 C 988.917 0.0231481 -6.82996 0
M  V30 10209 O 988.605 -0.575187 -8.0184 0
M  V30 10210 H 988.337 0.280199 -0.615194 0
M  V30 10211 H 990.891 0.218111 -2.04239 0
M  V30 10212 H 989.121 2.65392 -2.81254 0
M  V30 10213 H 990.81 2.4963 -3.20062 0
M  V30 10214 H 991.576 0.606545 -4.81192 0
M  V30 10215 H 987.455 1.71161 -4.28048 0
M  V30 10216 H 990.999 -0.464333 -6.96053 0
M  V30 10217 H 986.896 0.646924 -6.4225 0
M  V30 10218 H 987.664 -0.471284 -8.17142 0
M  V30 10219 N 990.327 1.50405 0.470755 0
M  V30 10220 C 991.29 1.68741 1.5511 0
M  V30 10221 C 992.29 0.558116 1.50804 0
M  V30 10222 O 993.48 0.825149 1.53418 0
M  V30 10223 C 990.612 1.71295 2.94739 0
M  V30 10224 H 991.805 2.65127 1.40169 0
M  V30 10225 H 989.358 1.39891 0.697156 0
M  V30 10226 H 990.093 0.766029 3.15123 0
M  V30 10227 H 989.878 2.53336 2.99271 0
M  V30 10228 H 991.368 1.87434 3.73173 0
M  V30 10229 N 991.805 -0.723954 1.39988 0
M  V30 10230 C 993.052 -1.48371 1.37812 0
M  V30 10231 C 993.38 -1.94487 -0.0223285 0
M  V30 10232 O 992.635 -1.67906 -1.00529 0
M  V30 10233 C 992.934 -2.73004 2.30659 0
M  V30 10234 C 992.6 -2.45698 3.78078 0
M  V30 10235 C 991.262 -2.37961 4.18244 0
M  V30 10236 C 993.614 -2.22601 4.71273 0
M  V30 10237 C 990.942 -2.05183 5.49652 0
M  V30 10238 C 993.294 -1.91339 6.0297 0
M  V30 10239 C 991.958 -1.82078 6.42187 0
M  V30 10240 H 991.228 -0.542929 0.504291 0
M  V30 10241 H 993.875 -0.829986 1.72579 0
M  V30 10242 H 992.18 -3.43174 1.89048 0
M  V30 10243 H 993.877 -3.31068 2.26263 0
M  V30 10244 H 990.467 -2.52603 3.46251 0
M  V30 10245 H 994.651 -2.2754 4.41066 0
M  V30 10246 H 989.907 -1.96544 5.78948 0
M  V30 10247 H 994.081 -1.72479 6.74703 0
M  V30 10248 H 991.708 -1.56446 7.43928 0
M  V30 10249 N 993.283 -1.25346 -0.955304 0
M  V30 10250 C 994.699 -1.02154 -1.22625 0
M  V30 10251 C 994.899 0.26206 -1.99789 0
M  V30 10252 O 993.955 0.974958 -2.32918 0
M  V30 10253 C 995.268 -2.2443 -2.00129 0
M  V30 10254 C 996.816 -2.29185 -2.13174 0
M  V30 10255 C 997.291 -3.51117 -2.94077 0
M  V30 10256 N 998.782 -3.51509 -3.01655 0
M  V30 10257 C 999.517 -4.42517 -3.64645 0
M  V30 10258 N 999.013 -5.43796 -4.29252 0
M  V30 10259 N 1000.81 -4.302 -3.61779 0
M  V30 10260 H 992.957 -2.07812 -0.439071 0
M  V30 10261 H 995.22 -0.91258 -0.256715 0
M  V30 10262 H 994.926 -3.17717 -1.50827 0
M  V30 10263 H 994.8 -2.27548 -3.00835 0
M  V30 10264 H 997.187 -1.36422 -2.61674 0
M  V30 10265 H 997.268 -2.30087 -1.11775 0
M  V30 10266 H 996.912 -4.44201 -2.46268 0
M  V30 10267 H 996.842 -3.4746 -3.95701 0
M  V30 10268 H 999.333 -2.78245 -2.55711 0
M  V30 10269 H 999.646 -6.09453 -4.75171 0
M  V30 10270 H 997.991 -5.4767 -4.27882 0
M  V30 10271 H 1001.18 -3.50304 -3.10491 0
M  V30 10272 H 1001.36 -5.01323 -4.10584 0
M  V30 10273 N 994.761 1.15782 -1.06922 0
M  V30 10274 C 995.991 1.90079 -0.809545 0
M  V30 10275 C 996.399 1.78028 0.640523 0
M  V30 10276 O 995.742 1.12692 1.45073 0
M  V30 10277 C 995.804 3.41179 -1.13302 0
M  V30 10278 C 995.468 3.77015 -2.5828 0
M  V30 10279 C 996.465 3.78403 -3.56521 0
M  V30 10280 C 994.15 4.07455 -2.93745 0
M  V30 10281 C 996.144 4.09729 -4.88264 0
M  V30 10282 C 993.831 4.38446 -4.25686 0
M  V30 10283 C 994.829 4.39564 -5.22755 0
M  V30 10284 O 994.517 4.69814 -6.52326 0
M  V30 10285 H 994.249 0.609397 -0.292595 0
M  V30 10286 H 996.803 1.47654 -1.42784 0
M  V30 10287 H 995.033 3.83982 -0.457676 0
M  V30 10288 H 996.722 3.96759 -0.856586 0
M  V30 10289 H 997.488 3.54991 -3.30464 0
M  V30 10290 H 993.367 4.05746 -2.1884 0
M  V30 10291 H 996.911 4.10516 -5.64023 0
M  V30 10292 H 992.808 4.61325 -4.51497 0
M  V30 10293 H 993.576 4.87598 -6.57412 0
M  V30 10294 N 996.239 0.8527 1.3254 0
M  V30 10295 C 997.202 0.300959 2.27215 0
M  V30 10296 C 998.202 -0.538235 1.51525 0
M  V30 10297 O 999.392 -0.350027 1.70647 0
M  V30 10298 C 996.524 -0.574428 3.36025 0
M  V30 10299 H 997.717 1.13655 2.77529 0
M  V30 10300 H 995.27 0.626878 1.43178 0
M  V30 10301 H 996.005 -1.43191 2.90976 0
M  V30 10302 H 995.79 0.0262265 3.92091 0
M  V30 10303 H 997.28 -0.9533 4.06573 0
M  V30 10304 N 997.718 -1.45297 0.610449 0
M  V30 10305 C 999.134 -1.57225 0.274332 0
M  V30 10306 C 999.334 -1.60136 -1.22306 0
M  V30 10307 O 998.39 -1.5332 -2.00622 0
M  V30 10308 C 999.703 -2.85365 0.948028 0
M  V30 10309 C 1001.25 -2.99044 0.924216 0
M  V30 10310 C 1001.73 -4.29958 1.57798 0
M  V30 10311 N 1003.22 -4.36723 1.5436 0
M  V30 10312 C 1003.95 -5.36695 2.01857 0
M  V30 10313 N 1003.45 -6.43187 2.57453 0
M  V30 10314 N 1005.24 -5.28071 1.92608 0
M  V30 10315 H 997.392 -1.41651 1.58268 0
M  V30 10316 H 999.655 -0.67744 0.663158 0
M  V30 10317 H 999.361 -2.89125 2.00249 0
M  V30 10318 H 999.235 -3.74222 0.473062 0
M  V30 10319 H 1001.62 -2.94849 -0.121709 0
M  V30 10320 H 1001.7 -2.1159 1.43748 0
M  V30 10321 H 1001.35 -4.34912 2.62325 0
M  V30 10322 H 1001.28 -5.16234 1.03972 0
M  V30 10323 H 1003.77 -3.60374 1.13749 0
M  V30 10324 H 1004.08 -7.15722 2.91482 0
M  V30 10325 H 1002.43 -6.4393 2.61493 0
M  V30 10326 H 1005.62 -4.43783 1.48912 0
M  V30 10327 H 1005.79 -6.05832 2.29938 0
M  V30 10328 N 999.196 -0.349774 -1.5367 0
M  V30 10329 C 1000.11 0.512421 -2.28935 0
M  V30 10330 C 1001.12 1.1065 -1.34286 0
M  V30 10331 O 1002.3 1.12084 -1.67329 0
M  V30 10332 C 999.363 1.64449 -3.05217 0
M  V30 10333 C 998.424 1.07956 -4.15505 0
M  V30 10334 C 997.657 2.15768 -4.88139 0
M  V30 10335 O 997.88 3.366 -4.60496 0
M  V30 10336 O 996.814 1.79712 -5.74445 0
M  V30 10337 H 1000.64 -0.0996001 -3.03537 0
M  V30 10338 H 998.225 -0.114629 -1.4896 0
M  V30 10339 H 1000.11 2.30302 -3.52901 0
M  V30 10340 H 998.782 2.24221 -2.33467 0
M  V30 10341 H 997.689 0.385381 -3.7211 0
M  V30 10342 H 999.022 0.526621 -4.89375 0
M  V30 10343 N 1000.67 1.57404 -0.0785433 0
M  V30 10344 C 1001.64 2.11977 0.871693 0
M  V30 10345 C 1002.64 1.04529 1.2219 0
M  V30 10346 O 1003.83 1.30488 1.15406 0
M  V30 10347 C 1000.96 2.6267 2.17296 0
M  V30 10348 H 1002.15 2.97246 0.398115 0
M  V30 10349 H 999.705 1.5537 0.170251 0
M  V30 10350 H 1000.44 1.80873 2.69175 0
M  V30 10351 H 1000.22 3.41214 1.93171 0
M  V30 10352 H 1001.71 3.04943 2.85306 0
M  V30 10353 N 1002.15 -0.195058 1.56388 0
M  V30 10354 C 1003.43 -0.941335 1.71459 0
M  V30 10355 C 1003.81 -2.01375 0.633336 0
M  V30 10356 O 1003.16 -2.25715 -0.35567 0
M  V30 10357 C 1003.37 -1.52772 3.13786 0
M  V30 10358 C 1004.71 -2.00983 3.7402 0
M  V30 10359 O 1005.74 -1.62614 3.16915 0
M  V30 10360 O 1004.6 -2.71586 4.7424 0
M  V30 10361 H 1001.69 -0.441451 0.699321 0
M  V30 10362 H 1004.24 -0.184752 1.68691 0
M  V30 10363 H 1003.01 -0.754699 3.83953 0
M  V30 10364 H 1002.63 -2.34914 3.20782 0
M  V30 10365 N 1003.63 -1.50653 -0.462772 0
M  V30 10366 C 1005.04 -1.54821 -1.04342 0
M  V30 10367 C 1005.39 -0.356595 -1.92932 0
M  V30 10368 O 1004.52 0.529579 -2.0982 0
M  V30 10369 C 1005.11 -2.80571 -1.89909 0
M  V30 10370 C 1003.67 -2.87394 -2.43067 0
M  V30 10371 C 1002.82 -2.49206 -1.21621 0
M  V30 10372 H 1005.77 -1.56797 -0.245048 0
M  V30 10373 H 1005.79 -2.62897 -2.75074 0
M  V30 10374 H 1005.3 -3.67281 -1.25405 0
M  V30 10375 H 1003.4 -2.05055 -3.111 0
M  V30 10376 H 1003.52 -3.90477 -2.77605 0
M  V30 10377 H 1001.88 -2.01829 -1.55361 0
M  V30 10378 H 1002.66 -3.38233 -0.587669 0
M  V30 10379 N 1005.11 0.71652 -1.4037 0
M  V30 10380 C 1006.39 1.46947 -1.29097 0
M  V30 10381 C 1006.77 2.10903 0.0911182 0
M  V30 10382 O 1006.11 2.00068 1.10385 0
M  V30 10383 C 1006.32 2.50594 -2.42907 0
M  V30 10384 C 1007.67 3.16451 -2.83097 0
M  V30 10385 O 1008.7 2.60913 -2.42493 0
M  V30 10386 O 1007.55 4.16991 -3.53244 0
M  V30 10387 H 1004.65 0.653413 -0.506932 0
M  V30 10388 H 1007.19 0.748774 -1.52287 0
M  V30 10389 H 1005.97 2.01843 -3.35224 0
M  V30 10390 H 1005.59 3.302 -2.21481 0
M  V30 10391 N 1006.59 1.25851 0.948643 0
M  V30 10392 C 1007.55 1.0683 2.0278 0
M  V30 10393 C 1008.55 0.0191016 1.60789 0
M  V30 10394 O 1009.74 0.261836 1.72221 0
M  V30 10395 C 1006.87 0.623318 3.35153 0
M  V30 10396 H 1008.06 2.02635 2.21086 0
M  V30 10397 H 1005.62 1.08343 1.12657 0
M  V30 10398 H 1006.35 -0.337053 3.22544 0
M  V30 10399 H 1006.14 1.38082 3.66982 0
M  V30 10400 H 1007.63 0.511854 4.14451 0
M  V30 10401 N 1008.06 -1.15214 1.07534 0
M  V30 10402 C 1008.99 -2.2216 0.718837 0
M  V30 10403 C 1009.98 -1.6753 -0.29459 0
M  V30 10404 O 1011.16 -1.93481 -0.166931 0
M  V30 10405 C 1008.29 -3.471 0.117836 0
M  V30 10406 C 1007.24 -4.14701 1.05862 0
M  V30 10407 C 1006.57 -5.3374 0.320284 0
M  V30 10408 C 1007.87 -4.64254 2.39302 0
M  V30 10409 H 1009.56 -2.52237 1.61297 0
M  V30 10410 H 1007.11 -1.21239 0.776992 0
M  V30 10411 H 1009.06 -4.21156 -0.143519 0
M  V30 10412 H 1007.79 -3.16361 -0.811389 0
M  V30 10413 H 1006.45 -3.42589 1.30493 0
M  V30 10414 H 1006.09 -4.99257 -0.61246 0
M  V30 10415 H 1005.79 -5.79912 0.947381 0
M  V30 10416 H 1007.32 -6.10563 0.0667721 0
M  V30 10417 H 1008.73 -5.29827 2.18988 0
M  V30 10418 H 1007.13 -5.21095 2.97623 0
M  V30 10419 H 1008.2 -3.79793 3.01472 0
M  V30 10420 N 1009.54 -0.859717 -1.32086 0
M  V30 10421 C 1010.47 -0.323502 -2.31248 0
M  V30 10422 C 1011.45 0.580085 -1.59903 0
M  V30 10423 O 1012.64 0.499265 -1.87673 0
M  V30 10424 C 1009.77 0.484661 -3.43902 0
M  V30 10425 C 1008.72 -0.324933 -4.26765 0
M  V30 10426 C 1008.05 0.608281 -5.31229 0
M  V30 10427 C 1009.35 -1.55344 -4.98664 0
M  V30 10428 H 1011.04 -1.15209 -2.76346 0
M  V30 10429 H 1008.59 -0.555442 -1.32856 0
M  V30 10430 H 1010.54 0.870238 -4.12316 0
M  V30 10431 H 1009.27 1.34666 -2.97544 0
M  V30 10432 H 1007.92 -0.692328 -3.60003 0
M  V30 10433 H 1007.57 1.46727 -4.81124 0
M  V30 10434 H 1007.27 0.0705571 -5.87558 0
M  V30 10435 H 1008.8 0.990925 -6.02506 0
M  V30 10436 H 1010.21 -1.23987 -5.59732 0
M  V30 10437 H 1008.61 -2.02947 -5.64741 0
M  V30 10438 H 1009.68 -2.31192 -4.26237 0
M  V30 10439 N 1011.02 1.44971 -0.618145 0
M  V30 10440 C 1012.27 2.02159 -0.117482 0
M  V30 10441 C 1012.6 1.48517 1.2559 0
M  V30 10442 O 1011.85 0.654192 1.84442 0
M  V30 10443 C 1012.15 3.57378 -0.0394861 0
M  V30 10444 C 1011.82 4.30218 -1.34993 0
M  V30 10445 C 1010.48 4.49835 -1.70886 0
M  V30 10446 C 1012.83 4.71768 -2.21551 0
M  V30 10447 C 1010.16 5.08258 -2.9307 0
M  V30 10448 C 1012.51 5.31543 -3.42993 0
M  V30 10449 C 1011.17 5.49381 -3.79126 0
M  V30 10450 H 1010.44 0.739752 -0.0429897 0
M  V30 10451 H 1013.09 1.73903 -0.801871 0
M  V30 10452 H 1011.4 3.84973 0.728217 0
M  V30 10453 H 1013.09 3.99343 0.364213 0
M  V30 10454 H 1009.68 4.15271 -1.06057 0
M  V30 10455 H 1013.87 4.56336 -1.95117 0
M  V30 10456 H 1009.12 5.20257 -3.21158 0
M  V30 10457 H 1013.3 5.62691 -4.10308 0
M  V30 10458 H 1010.92 5.94419 -4.73888 0
M  V30 10459 N 1012.5 0.357919 1.53482 0
M  V30 10460 C 1013.73 -0.234799 2.05261 0
M  V30 10461 C 1014.14 -1.43618 1.23169 0
M  V30 10462 O 1013.48 -1.81801 0.263435 0
M  V30 10463 C 1013.54 -0.699748 3.52624 0
M  V30 10464 C 1013.21 0.383905 4.55385 0
M  V30 10465 C 1014.2 1.23129 5.05109 0
M  V30 10466 C 1011.89 0.541953 4.99368 0
M  V30 10467 C 1013.88 2.22214 5.97411 0
M  V30 10468 C 1011.57 1.53618 5.91477 0
M  V30 10469 C 1012.57 2.37471 6.40388 0
M  V30 10470 O 1012.25 3.35199 7.30682 0
M  V30 10471 H 1011.99 -0.0465364 0.674396 0
M  V30 10472 H 1014.54 0.512355 1.98907 0
M  V30 10473 H 1012.77 -1.49838 3.5649 0
M  V30 10474 H 1014.46 -1.21461 3.87301 0
M  V30 10475 H 1015.23 1.12035 4.71883 0
M  V30 10476 H 1011.1 -0.100929 4.6089 0
M  V30 10477 H 1014.65 2.87702 6.35511 0
M  V30 10478 H 1010.55 1.64763 6.24118 0
M  V30 10479 H 1011.31 3.30838 7.48658 0
M  V30 10480 N 1013.98 -1.5736 0.0868897 0
M  V30 10481 C 1014.92 -2.14793 -0.892571 0
M  V30 10482 C 1015.92 -1.08866 -1.29787 0
M  V30 10483 O 1017.12 -1.27223 -1.27335 0
M  V30 10484 H 1013.5 -0.686998 -0.305838 0
M  V30 10485 H 1015.47 -2.95927 -0.383393 0
M  V30 10486 C 1014.22 -2.73646 -2.14507 0
M  V30 10487 H 1013.54 -3.54835 -1.84207 0
M  V30 10488 H 1014.98 -3.17409 -2.81118 0
M  V30 10489 C 1013.44 -1.69138 -2.91366 0
M  V30 10490 O 1013.97 -1.12539 -3.85614 0
M  V30 10491 N 1012.18 -1.3982 -2.54752 0
M  V30 10492 H 1011.72 -1.86035 -1.78182 0
M  V30 10493 H 1011.68 -0.701316 -3.06478 0
M  V30 10494 N 1015.45 0.186762 -1.56489 0
M  V30 10495 C 1016.73 0.932229 -1.71956 0
M  V30 10496 C 1017.11 2.01037 -0.644006 0
M  V30 10497 O 1016.46 2.259 0.343694 0
M  V30 10498 C 1016.67 1.51106 -3.14592 0
M  V30 10499 C 1018.02 1.98997 -3.75081 0
M  V30 10500 O 1019.04 1.60931 -3.17773 0
M  V30 10501 O 1017.9 2.69067 -4.75673 0
M  V30 10502 H 1014.99 0.437736 -0.701652 0
M  V30 10503 H 1017.54 0.175803 -1.68787 0
M  V30 10504 H 1016.31 0.734327 -3.84348 0
M  V30 10505 H 1015.94 2.33209 -3.22024 0
M  V30 10506 N 1016.93 1.50896 0.454776 0
M  V30 10507 C 1018.16 1.66239 1.22671 0
M  V30 10508 C 1018.57 0.351876 1.85899 0
M  V30 10509 O 1017.91 -0.677848 1.70736 0
M  V30 10510 C 1017.98 2.70812 2.36434 0
M  V30 10511 C 1017.64 4.13913 1.93714 0
M  V30 10512 C 1018.64 4.99259 1.45039 0
M  V30 10513 C 1016.32 4.59921 2.01937 0
M  V30 10514 C 1018.32 6.28667 1.05151 0
M  V30 10515 C 1016 5.89329 1.6166 0
M  V30 10516 C 1017 6.73529 1.13347 0
M  V30 10517 O 1016.69 8.0052 0.736354 0
M  V30 10518 H 1016.42 0.561443 0.376508 0
M  V30 10519 H 1018.97 1.97974 0.547325 0
M  V30 10520 H 1017.2 2.34355 3.07595 0
M  V30 10521 H 1018.89 2.7521 2.98353 0
M  V30 10522 H 1019.66 4.64925 1.38095 0
M  V30 10523 H 1015.54 3.94518 2.38488 0
M  V30 10524 H 1019.08 6.94339 0.673711 0
M  V30 10525 H 1014.98 6.23182 1.68269 0
M  V30 10526 H 1015.75 8.1393 0.863759 0
M  V30 10527 N 1018.41 -0.709066 1.40748 0
M  V30 10528 C 1019.36 -1.84445 1.41714 0
M  V30 10529 C 1020.35 -1.66779 0.296818 0
M  V30 10530 O 1021.56 -1.73805 0.468181 0
M  V30 10531 H 1017.93 -0.607581 0.443114 0
M  V30 10532 H 1019.9 -1.80747 2.3743 0
M  V30 10533 C 1018.65 -3.22362 1.303 0
M  V30 10534 H 1017.98 -3.36565 2.15787 0
M  V30 10535 H 1019.42 -4.01922 1.35036 0
M  V30 10536 C 1017.88 -3.36897 0.0139015 0
M  V30 10537 O 1018.41 -3.90389 -0.946553 0
M  V30 10538 N 1016.61 -2.90543 -0.0577491 0
M  V30 10539 H 1016.16 -2.472 0.724574 0
M  V30 10540 H 1016.12 -3.00647 -0.919721 0
M  V30 10541 N 1019.89 -1.26353 -0.941956 0
M  V30 10542 C 1021.14 -1.11241 -1.68251 0
M  V30 10543 C 1021.45 0.344055 -1.9255 0
M  V30 10544 O 1022.66 0.615832 -2.64423 0
M  V30 10545 C 1021.11 -1.94269 -3.02965 0
M  V30 10546 C 1020.72 -3.44485 -2.86415 0
M  V30 10547 C 1022.47 -1.87764 -3.80716 0
M  V30 10548 C 1020.37 -4.19763 -4.16597 0
M  V30 10549 H 1019.3 -0.412694 -0.63103 0
M  V30 10550 H 1021.95 -1.50656 -1.04762 0
M  V30 10551 H 1020.34 -1.47687 -3.6743 0
M  V30 10552 H 1021.51 -3.9883 -2.30805 0
M  V30 10553 H 1019.82 -3.52218 -2.22107 0
M  V30 10554 H 1022.42 -2.41292 -4.77161 0
M  V30 10555 H 1022.76 -0.848195 -4.07568 0
M  V30 10556 H 1023.3 -2.32165 -3.23024 0
M  V30 10557 H 1020.04 -5.23173 -3.9493 0
M  V30 10558 H 1019.56 -3.70198 -4.71925 0
M  V30 10559 H 1021.24 -4.28168 -4.85058 0
M  V30 10560 N 1021.37 1.14642 -1.08144 0
M  V30 10561 C 1022.28 2.23257 -0.720668 0
M  V30 10562 C 1023.29 1.71866 0.271648 0
M  V30 10563 O 1024.47 2.01064 0.116266 0
M  V30 10564 C 1021.53 3.46447 -0.132542 0
M  V30 10565 C 1020.6 4.12789 -1.17913 0
M  V30 10566 C 1019.83 5.30099 -0.618971 0
M  V30 10567 O 1020.05 5.6762 0.562418 0
M  V30 10568 O 1018.99 5.86154 -1.36774 0
M  V30 10569 H 1022.81 2.56463 -1.62667 0
M  V30 10570 H 1020.4 1.22521 -0.854932 0
M  V30 10571 H 1022.28 4.20959 0.19277 0
M  V30 10572 H 1020.95 3.14971 0.746662 0
M  V30 10573 H 1019.86 3.40163 -1.55693 0
M  V30 10574 H 1021.19 4.48365 -2.03051 0
M  V30 10575 N 1022.85 0.866709 1.31628 0
M  V30 10576 C 1024.12 0.396828 1.91532 0
M  V30 10577 C 1024.5 -1.12081 1.78889 0
M  V30 10578 O 1023.85 -1.94791 1.19452 0
M  V30 10579 C 1024.06 0.874578 3.37864 0
M  V30 10580 C 1025.41 0.8988 4.14978 0
M  V30 10581 O 1026.43 0.820014 3.46633 0
M  V30 10582 O 1025.29 1.01223 5.37044 0
M  V30 10583 H 1022.39 0.1181 0.818524 0
M  V30 10584 H 1024.93 0.954407 1.40318 0
M  V30 10585 H 1023.7 1.91807 3.41066 0
M  V30 10586 H 1023.33 0.295126 3.96503 0
M  V30 10587 N 1024.32 -1.44642 0.625825 0
M  V30 10588 C 1025.25 -2.33397 -0.0692188 0
M  V30 10589 C 1026.23 -1.47898 -0.840241 0
M  V30 10590 O 1027.42 -1.7663 -0.807176 0
M  V30 10591 C 1024.55 -3.30888 -1.055 0
M  V30 10592 C 1023.5 -4.26164 -0.395968 0
M  V30 10593 C 1022.83 -5.13483 -1.49128 0
M  V30 10594 C 1024.13 -5.17663 0.694433 0
M  V30 10595 H 1025.82 -2.91763 0.671925 0
M  V30 10596 H 1023.37 -1.40294 0.324573 0
M  V30 10597 H 1025.32 -3.91861 -1.54993 0
M  V30 10598 H 1024.05 -2.7072 -1.82696 0
M  V30 10599 H 1022.71 -3.66516 0.0782691 0
M  V30 10600 H 1022.35 -4.49672 -2.25399 0
M  V30 10601 H 1022.05 -5.78038 -1.05573 0
M  V30 10602 H 1023.58 -5.77327 -1.98813 0
M  V30 10603 H 1024.99 -5.72602 0.282818 0
M  V30 10604 H 1023.39 -5.90793 1.05281 0
M  V30 10605 H 1024.46 -4.58994 1.56372 0
M  V30 10606 N 1025.8 -0.366053 -1.5329 0
M  V30 10607 C 1027.05 0.223051 -2.00865 0
M  V30 10608 C 1027.37 1.49244 -1.25504 0
M  V30 10609 O 1026.64 1.92404 -0.368444 0
M  V30 10610 H 1025.22 0.085413 -0.742101 0
M  V30 10611 H 1027.88 -0.492396 -1.88578 0
M  V30 10612 H 1026.98 0.449701 -3.08843 0
M  V30 10613 N 1027.28 1.57312 -0.0952337 0
M  V30 10614 C 1028.69 1.81589 0.433875 0
M  V30 10615 C 1029.04 1.01086 1.68155 0
M  V30 10616 O 1028.17 0.240272 2.15062 0
M  V30 10617 C 1028.76 3.29366 0.793931 0
M  V30 10618 C 1027.32 3.54407 1.26778 0
M  V30 10619 C 1026.47 2.76035 0.264518 0
M  V30 10620 H 1029.42 1.55426 -0.320675 0
M  V30 10621 H 1029.44 3.42697 1.65345 0
M  V30 10622 H 1028.95 3.87932 -0.114334 0
M  V30 10623 H 1027.05 3.01173 2.19376 0
M  V30 10624 H 1027.17 4.63055 1.22952 0
M  V30 10625 H 1025.53 2.43509 0.746691 0
M  V30 10626 H 1026.31 3.37349 -0.636429 0
M  V30 10627 N 1028.76 -0.17846 1.56586 0
M  V30 10628 C 1029.7 -1.22104 1.95855 0
M  V30 10629 C 1030.67 -1.44366 0.821447 0
M  V30 10630 O 1031.86 -1.57224 1.08098 0
M  V30 10631 C 1029 -2.55701 2.31757 0
M  V30 10632 C 1028.11 -2.40879 3.5861 0
M  V30 10633 C 1027.25 -3.67293 3.83757 0
M  V30 10634 C 1026.29 -3.47373 5.03982 0
M  V30 10635 N 1025.42 -4.65839 5.25298 0
M  V30 10636 H 1030.26 -0.879168 2.84736 0
M  V30 10637 H 1027.8 -0.422721 1.40895 0
M  V30 10638 H 1029.76 -3.33556 2.50592 0
M  V30 10639 H 1028.39 -2.87898 1.45995 0
M  V30 10640 H 1027.44 -1.54236 3.47729 0
M  V30 10641 H 1028.75 -2.22102 4.46623 0
M  V30 10642 H 1027.91 -4.53584 4.02922 0
M  V30 10643 H 1026.65 -3.89041 2.94107 0
M  V30 10644 H 1025.65 -2.59467 4.84723 0
M  V30 10645 H 1026.88 -3.27055 5.95157 0
M  V30 10646 H 1024.82 -4.8782 4.38598 0
M  V30 10647 H 1024.74 -4.4995 6.0752 0
M  V30 10648 H 1026.01 -5.53435 5.48936 0
M  V30 10649 N 1030.24 -1.51135 -0.446768 0
M  V30 10650 C 1031.46 -1.67411 -1.22427 0
M  V30 10651 C 1031.89 -0.367009 -1.84485 0
M  V30 10652 O 1031.24 0.67185 -1.68392 0
M  V30 10653 C 1031.29 -2.78473 -2.29096 0
M  V30 10654 O 1030.4 -2.41419 -3.34351 0
M  V30 10655 H 1029.74 -0.558512 -0.359111 0
M  V30 10656 H 1032.27 -1.97648 -0.5288 0
M  V30 10657 H 1032.28 -3.02277 -2.7403 0
M  V30 10658 H 1030.95 -3.73326 -1.83304 0
M  V30 10659 H 1029.53 -2.28152 -2.9496 0
M  V30 10660 N 1031.71 0.701592 -1.41122 0
M  V30 10661 C 1032.66 1.83691 -1.4269 0
M  V30 10662 C 1033.66 1.6662 -0.305658 0
M  V30 10663 O 1034.86 1.73554 -0.477392 0
M  V30 10664 H 1031.24 0.605222 -0.44633 0
M  V30 10665 H 1033.21 1.79485 -2.38386 0
M  V30 10666 C 1031.96 3.21666 -1.32008 0
M  V30 10667 H 1031.28 3.35416 -2.17569 0
M  V30 10668 H 1032.72 4.012 -1.37165 0
M  V30 10669 C 1031.18 3.36885 -0.0317678 0
M  V30 10670 O 1031.71 3.90885 0.925836 0
M  V30 10671 N 1029.91 2.90569 0.0423401 0
M  V30 10672 H 1029.46 2.46812 -0.737673 0
M  V30 10673 H 1029.42 3.0113 0.903764 0
M  V30 10674 N 1033.19 1.2685 0.935242 0
M  V30 10675 C 1034.15 1.08975 2.01636 0
M  V30 10676 C 1035.15 0.0361543 1.60759 0
M  V30 10677 O 1036.34 0.280087 1.71934 0
M  V30 10678 C 1033.48 0.658831 3.34473 0
M  V30 10679 H 1034.67 2.04968 2.18925 0
M  V30 10680 H 1032.22 1.09531 1.11501 0
M  V30 10681 H 1032.96 -0.302824 3.22883 0
M  V30 10682 H 1032.74 1.41967 3.65497 0
M  V30 10683 H 1034.23 0.555783 4.13885 0
M  V30 10684 N 1034.67 -1.14067 1.0875 0
M  V30 10685 C 1035.92 -1.85459 0.82053 0
M  V30 10686 C 1036.25 -1.82923 -0.65213 0
M  V30 10687 O 1035.52 -1.26241 -1.47965 0
M  V30 10688 C 1035.81 -3.33937 1.34752 0
M  V30 10689 C 1035.66 -3.45026 2.88578 0
M  V30 10690 C 1036.98 -4.2915 0.975636 0
M  V30 10691 H 1034.1 -0.673384 0.299538 0
M  V30 10692 H 1036.74 -1.33927 1.34772 0
M  V30 10693 H 1034.89 -3.77953 0.899086 0
M  V30 10694 H 1036.56 -3.09771 3.41818 0
M  V30 10695 H 1034.81 -2.86124 3.26061 0
M  V30 10696 H 1035.48 -4.49408 3.20526 0
M  V30 10697 H 1037.95 -3.93168 1.36228 0
M  V30 10698 H 1036.83 -5.31489 1.37152 0
M  V30 10699 H 1037.09 -4.41945 -0.116956 0
M  V30 10700 N 1036.15 -0.873678 -1.31166 0
M  V30 10701 C 1037.4 -0.486457 -1.9657 0
M  V30 10702 C 1037.72 0.962042 -1.69041 0
M  V30 10703 O 1036.98 1.69305 -0.981543 0
M  V30 10704 C 1037.28 -0.69462 -3.50585 0
M  V30 10705 C 1036.94 -2.11647 -3.98141 0
M  V30 10706 C 1035.61 -2.50531 -4.10838 0
M  V30 10707 C 1037.96 -3.0436 -4.23101 0
M  V30 10708 C 1035.29 -3.81361 -4.45848 0
M  V30 10709 C 1037.64 -4.34709 -4.59577 0
M  V30 10710 C 1036.3 -4.73502 -4.70481 0
M  V30 10711 H 1035.57 -0.178007 -0.719301 0
M  V30 10712 H 1038.22 -1.10737 -1.56235 0
M  V30 10713 H 1036.52 0.00940878 -3.91799 0
M  V30 10714 H 1038.22 -0.374782 -3.99245 0
M  V30 10715 H 1034.81 -1.8046 -3.88757 0
M  V30 10716 H 1038.99 -2.75544 -4.12782 0
M  V30 10717 H 1034.25 -4.11174 -4.52488 0
M  V30 10718 H 1038.42 -5.06596 -4.77842 0
M  V30 10719 H 1036.05 -5.74919 -4.97365 0
M  V30 10720 N 1037.63 1.44308 -0.633487 0
M  V30 10721 C 1038.57 2.32455 0.0821956 0
M  V30 10722 C 1039.57 1.47482 0.833388 0
M  V30 10723 O 1040.77 1.63812 0.746021 0
M  V30 10724 H 1037.15 0.750631 0.045352 0
M  V30 10725 H 1039.12 2.90566 -0.679282 0
M  V30 10726 C 1037.87 3.31512 1.04858 0
M  V30 10727 H 1037.19 3.96908 0.479979 0
M  V30 10728 H 1038.63 3.95865 1.51879 0
M  V30 10729 C 1037.09 2.60615 2.13498 0
M  V30 10730 O 1037.62 2.40682 3.21613 0
M  V30 10731 N 1035.83 2.20315 1.89499 0
M  V30 10732 H 1035.37 2.36726 1.01581 0
M  V30 10733 H 1035.33 1.73205 2.62388 0
M  V30 10734 N 1039.1 0.374177 1.53094 0
M  V30 10735 C 1040.04 -0.511995 2.22382 0
M  V30 10736 C 1041.02 -1.07617 1.2189 0
M  V30 10737 O 1042.2 -1.13068 1.50824 0
M  V30 10738 C 1039.33 -1.70724 2.92525 0
M  V30 10739 C 1038.37 -1.26972 4.07161 0
M  V30 10740 S 1039.21 -0.263835 5.3485 0
M  V30 10741 C 1040.36 -1.46521 6.08508 0
M  V30 10742 H 1040.59 0.0764311 2.97202 0
M  V30 10743 H 1038.13 0.158307 1.53586 0
M  V30 10744 H 1040.09 -2.39279 3.3355 0
M  V30 10745 H 1038.75 -2.26693 2.17414 0
M  V30 10746 H 1037.94 -2.16172 4.55286 0
M  V30 10747 H 1037.54 -0.663273 3.68072 0
M  V30 10748 H 1039.83 -2.39483 6.33762 0
M  V30 10749 H 1040.78 -1.02517 7.0064 0
M  V30 10750 H 1041.18 -1.67516 5.39072 0
M  V30 10751 N 1040.58 -1.57259 0.103575 0
M  V30 10752 C 1041.83 -1.93832 -0.55786 0
M  V30 10753 C 1042.14 -0.988087 -1.68808 0
M  V30 10754 O 1043.35 -1.24786 -2.41124 0
M  V30 10755 C 1041.81 -3.44433 -1.04373 0
M  V30 10756 C 1041.41 -4.47963 0.0571971 0
M  V30 10757 C 1043.16 -3.89953 -1.67742 0
M  V30 10758 C 1041.07 -5.89727 -0.444505 0
M  V30 10759 H 1040 -0.723536 -0.212161 0
M  V30 10760 H 1042.65 -1.82606 0.180944 0
M  V30 10761 H 1041.03 -3.50841 -1.83648 0
M  V30 10762 H 1042.2 -4.53209 0.83298 0
M  V30 10763 H 1040.52 -4.12104 0.596588 0
M  V30 10764 H 1043.11 -4.93272 -2.06365 0
M  V30 10765 H 1043.46 -3.2907 -2.54988 0
M  V30 10766 H 1043.99 -3.86281 -0.950342 0
M  V30 10767 H 1040.73 -6.5433 0.391543 0
M  V30 10768 H 1040.25 -5.87935 -1.18711 0
M  V30 10769 H 1041.93 -6.40558 -0.910739 0
M  V30 10770 N 1042.06 0.170153 -1.56679 0
M  V30 10771 C 1043.01 1.21064 -1.965 0
M  V30 10772 C 1043.98 1.43928 -0.829092 0
M  V30 10773 O 1045.16 1.56649 -1.08931 0
M  V30 10774 C 1042.3 2.54468 -2.33109 0
M  V30 10775 C 1041.42 2.38974 -3.59883 0
M  V30 10776 C 1040.55 3.65252 -3.857 0
M  V30 10777 C 1039.59 3.44696 -5.05817 0
M  V30 10778 N 1038.73 4.63047 -5.27761 0
M  V30 10779 H 1043.57 0.864055 -2.85198 0
M  V30 10780 H 1041.1 0.415243 -1.41117 0
M  V30 10781 H 1043.06 3.32222 -2.52358 0
M  V30 10782 H 1041.69 2.8712 -1.4752 0
M  V30 10783 H 1040.74 1.5239 -3.48542 0
M  V30 10784 H 1042.06 2.19731 -4.47794 0
M  V30 10785 H 1041.21 4.51441 -4.05322 0
M  V30 10786 H 1039.95 3.87475 -2.96166 0
M  V30 10787 H 1038.95 2.56893 -4.86092 0
M  V30 10788 H 1040.18 3.23894 -5.96883 0
M  V30 10789 H 1038.12 4.85487 -4.41179 0
M  V30 10790 H 1038.04 4.46722 -6.09898 0
M  V30 10791 H 1039.31 5.50516 -5.51863 0
M  V30 10792 N 1043.54 1.5137 0.438746 0
M  V30 10793 C 1044.76 1.68058 1.21537 0
M  V30 10794 C 1045.19 0.376787 1.84288 0
M  V30 10795 O 1044.55 -0.662911 1.68746 0
M  V30 10796 C 1044.59 2.79684 2.27616 0
M  V30 10797 O 1043.7 2.43189 3.33066 0
M  V30 10798 H 1043.04 0.560408 0.356144 0
M  V30 10799 H 1045.57 1.97926 0.518311 0
M  V30 10800 H 1045.58 3.03726 2.72423 0
M  V30 10801 H 1044.25 3.74293 1.81321 0
M  V30 10802 H 1042.83 2.29713 2.93746 0
M  V30 10803 N 1045.02 -0.694098 1.41492 0
M  V30 10804 C 1045.95 -1.81841 1.37873 0
M  V30 10805 C 1046.93 -1.60732 0.245772 0
M  V30 10806 O 1048.11 -1.83461 0.432917 0
M  V30 10807 C 1045.24 -3.18543 1.15099 0
M  V30 10808 C 1044.28 -3.5844 2.31133 0
M  V30 10809 S 1045.12 -3.63079 3.93617 0
M  V30 10810 C 1046.27 -5.02505 3.73148 0
M  V30 10811 H 1046.51 -1.84634 2.33018 0
M  V30 10812 H 1044.04 -0.862948 1.28033 0
M  V30 10813 H 1046 -3.9746 1.02646 0
M  V30 10814 H 1044.66 -3.13358 0.21572 0
M  V30 10815 H 1043.85 -4.57754 2.10896 0
M  V30 10816 H 1043.45 -2.86837 2.40002 0
M  V30 10817 H 1045.75 -5.90046 3.32945 0
M  V30 10818 H 1046.69 -5.27784 4.72069 0
M  V30 10819 H 1047.1 -4.74113 3.06394 0
M  V30 10820 N 1046.49 -1.27344 -0.928501 0
M  V30 10821 C 1047.44 -1.10001 -2.029 0
M  V30 10822 C 1048.41 -0.00131084 -1.661 0
M  V30 10823 O 1049.6 -0.163485 -1.90098 0
M  V30 10824 C 1046.74 -0.7524 -3.36798 0
M  V30 10825 C 1045.85 -1.92865 -3.86558 0
M  V30 10826 C 1044.98 -1.52299 -5.08899 0
M  V30 10827 C 1044.02 -2.66677 -5.50953 0
M  V30 10828 N 1043.16 -2.26706 -6.64491 0
M  V30 10829 H 1048 -2.0417 -2.17068 0
M  V30 10830 H 1045.54 -1.01637 -1.0634 0
M  V30 10831 H 1047.5 -0.531687 -4.13798 0
M  V30 10832 H 1046.13 0.15234 -3.2244 0
M  V30 10833 H 1045.18 -2.26192 -3.05845 0
M  V30 10834 H 1046.49 -2.78668 -4.13698 0
M  V30 10835 H 1045.64 -1.26348 -5.93398 0
M  V30 10836 H 1044.38 -0.636042 -4.83535 0
M  V30 10837 H 1043.39 -2.93344 -4.65004 0
M  V30 10838 H 1044.61 -3.55992 -5.78313 0
M  V30 10839 H 1042.56 -1.40462 -6.40786 0
M  V30 10840 H 1042.48 -3.06049 -6.91281 0
M  V30 10841 H 1043.74 -2.04 -7.52333 0
M  V30 10842 N 1047.97 1.13488 -1.09353 0
M  V30 10843 C 1048.88 2.2248 -0.744307 0
M  V30 10844 C 1049.9 1.72145 0.253404 0
M  V30 10845 O 1051.07 2.01176 0.0949339 0
M  V30 10846 C 1048.14 3.46286 -0.16928 0
M  V30 10847 C 1047.2 4.11516 -1.22284 0
M  V30 10848 C 1046.43 5.29412 -0.675161 0
M  V30 10849 O 1046.66 5.68185 0.502182 0
M  V30 10850 O 1045.59 5.8467 -1.42983 0
M  V30 10851 H 1049.42 2.54723 -1.65378 0
M  V30 10852 H 1047 1.21607 -0.867879 0
M  V30 10853 H 1048.88 4.2114 0.14811 0
M  V30 10854 H 1047.56 3.15745 0.713214 0
M  V30 10855 H 1046.47 3.38492 -1.59292 0
M  V30 10856 H 1047.8 4.46186 -2.07796 0
M  V30 10857 N 1049.45 0.880621 1.30701 0
M  V30 10858 C 1050.87 0.574015 1.4892 0
M  V30 10859 C 1051.07 -0.889312 1.80813 0
M  V30 10860 O 1050.12 -1.67082 1.89314 0
M  V30 10861 C 1051.44 1.48341 2.61563 0
M  V30 10862 C 1052.98 1.48658 2.75445 0
M  V30 10863 C 1053.46 2.3818 3.91196 0
M  V30 10864 N 1054.95 2.36119 3.985 0
M  V30 10865 C 1055.69 3.02101 4.87363 0
M  V30 10866 N 1055.18 3.77293 5.81052 0
M  V30 10867 N 1056.97 2.91356 4.80696 0
M  V30 10868 H 1049.13 1.82732 1.08271 0
M  V30 10869 H 1051.39 0.781939 0.535981 0
M  V30 10870 H 1051.09 2.52515 2.44804 0
M  V30 10871 H 1050.97 1.18977 3.57944 0
M  V30 10872 H 1053.36 0.452374 2.91612 0
M  V30 10873 H 1053.44 1.8205 1.79698 0
M  V30 10874 H 1053.08 3.41683 3.75786 0
M  V30 10875 H 1053.01 2.02106 4.86272 0
M  V30 10876 H 1055.5 1.81474 3.31475 0
M  V30 10877 H 1055.81 4.24742 6.45612 0
M  V30 10878 H 1054.16 3.81401 5.80998 0
M  V30 10879 H 1057.35 2.32143 4.06481 0
M  V30 10880 H 1057.52 3.43056 5.49742 0
M  V30 10881 N 1050.93 -1.4397 0.641131 0
M  V30 10882 C 1052.18 -2.01548 0.149333 0
M  V30 10883 C 1052.5 -1.50759 -1.23679 0
M  V30 10884 O 1051.77 -0.715257 -1.82376 0
M  V30 10885 H 1050.35 -0.745173 0.0522161 0
M  V30 10886 H 1053.01 -1.7634 0.830082 0
M  V30 10887 H 1052.11 -3.11851 0.124676 0
M  V30 10888 N 1052.41 -0.382291 -1.52893 0
M  V30 10889 C 1053.65 0.202433 -2.01787 0
M  V30 10890 C 1053.99 1.47044 -1.26853 0
M  V30 10891 O 1053.26 1.91007 -0.366969 0
M  V30 10892 C 1053.54 0.477471 -3.5692 0
M  V30 10893 C 1053.4 -0.805339 -4.42532 0
M  V30 10894 C 1054.72 1.27106 -4.21346 0
M  V30 10895 H 1051.84 0.0720998 -0.733465 0
M  V30 10896 H 1054.48 -0.510478 -1.83014 0
M  V30 10897 H 1052.63 1.08478 -3.73048 0
M  V30 10898 H 1054.3 -1.4424 -4.3817 0
M  V30 10899 H 1052.54 -1.42216 -4.09826 0
M  V30 10900 H 1053.21 -0.567635 -5.49074 0
M  V30 10901 H 1055.69 0.757161 -4.09153 0
M  V30 10902 H 1054.57 1.43225 -5.29885 0
M  V30 10903 H 1054.83 2.28431 -3.78513 0
M  V30 10904 N 1053.89 1.57202 -0.111913 0
M  V30 10905 C 1055.3 1.82039 0.414591 0
M  V30 10906 C 1055.65 1.02863 1.67074 0
M  V30 10907 O 1054.77 0.263068 2.14795 0
M  V30 10908 C 1055.37 3.3019 0.758953 0
M  V30 10909 C 1053.93 3.55732 1.23012 0
M  V30 10910 C 1053.07 2.76301 0.235226 0
M  V30 10911 H 1056.02 1.55078 -0.337142 0
M  V30 10912 H 1056.05 3.44431 1.61701 0
M  V30 10913 H 1055.56 3.87788 -0.155473 0
M  V30 10914 H 1053.66 3.03483 2.16169 0
M  V30 10915 H 1053.77 4.64333 1.18034 0
M  V30 10916 H 1052.14 2.44287 0.720822 0
M  V30 10917 H 1052.92 3.36655 -0.672173 0
M  V30 10918 N 1055.36 -0.161842 1.56767 0
M  V30 10919 C 1056.61 -0.875278 1.81719 0
M  V30 10920 C 1056.93 -1.82998 0.690739 0
M  V30 10921 O 1058.13 -2.58648 0.82545 0
M  V30 10922 C 1056.59 -1.60703 3.22029 0
M  V30 10923 C 1056.2 -0.695486 4.42569 0
M  V30 10924 C 1057.94 -2.30813 3.56266 0
M  V30 10925 C 1055.85 -1.42801 5.73901 0
M  V30 10926 H 1054.78 -0.330591 0.677662 0
M  V30 10927 H 1057.43 -0.128112 1.83052 0
M  V30 10928 H 1055.81 -2.39929 3.1504 0
M  V30 10929 H 1056.98 0.0604882 4.6076 0
M  V30 10930 H 1055.3 -0.10356 4.16271 0
M  V30 10931 H 1057.9 -2.86229 4.51638 0
M  V30 10932 H 1058.24 -3.06603 2.81604 0
M  V30 10933 H 1058.77 -1.5852 3.64851 0
M  V30 10934 H 1055.51 -0.712253 6.51619 0
M  V30 10935 H 1055.03 -2.15707 5.5967 0
M  V30 10936 H 1056.71 -1.97295 6.16185 0
M  V30 10937 N 1056.84 -1.516 -0.430713 0
M  V30 10938 C 1058.12 -1.55142 -1.19123 0
M  V30 10939 C 1058.5 -0.319596 -2.08667 0
M  V30 10940 O 1057.85 0.694927 -2.17676 0
M  V30 10941 C 1058.06 -2.86891 -1.98732 0
M  V30 10942 C 1059.4 -3.39089 -2.55546 0
M  V30 10943 O 1060.43 -2.88486 -2.08936 0
M  V30 10944 O 1059.29 -4.27401 -3.40574 0
M  V30 10945 H 1056.38 -0.624019 -0.542705 0
M  V30 10946 H 1058.93 -1.63917 -0.439244 0
M  V30 10947 H 1057.7 -3.68002 -1.33005 0
M  V30 10948 H 1057.32 -2.81309 -2.80982 0
M  V30 10949 N 1058.32 0.686584 -1.41858 0
M  V30 10950 C 1059.57 1.44379 -1.41418 0
M  V30 10951 C 1059.89 1.94981 -0.0273696 0
M  V30 10952 O 1059.16 1.72296 0.932248 0
M  V30 10953 H 1057.74 0.53574 -0.520568 0
M  V30 10954 H 1060.4 0.812056 -1.77177 0
M  V30 10955 H 1059.5 2.30258 -2.10684 0
M  V30 10956 N 1059.8 1.27835 0.921735 0
M  V30 10957 C 1061.04 1.14692 1.67253 0
M  V30 10958 C 1061.38 -0.305384 1.91784 0
M  V30 10959 O 1060.65 -1.22286 1.51249 0
M  V30 10960 C 1060.93 1.93743 3.03539 0
M  V30 10961 C 1060.79 3.46991 2.86212 0
M  V30 10962 C 1062.11 1.74658 4.03959 0
M  V30 10963 H 1059.23 0.418021 0.606983 0
M  V30 10964 H 1061.87 1.5706 1.06922 0
M  V30 10965 H 1060.02 1.57738 3.55037 0
M  V30 10966 H 1061.69 3.92858 2.41785 0
M  V30 10967 H 1059.93 3.73029 2.21432 0
M  V30 10968 H 1060.6 3.97551 3.82958 0
M  V30 10969 H 1063.08 2.06063 3.61493 0
M  V30 10970 H 1061.96 2.32353 4.97296 0
M  V30 10971 H 1062.22 0.696019 4.36587 0
M  V30 10972 N 1061.28 -1.12907 1.09954 0
M  V30 10973 C 1062.52 -1.83941 0.837255 0
M  V30 10974 C 1062.84 -1.84234 -0.638984 0
M  V30 10975 O 1062.11 -1.30193 -1.46378 0
M  V30 10976 H 1060.69 -0.681115 0.306743 0
M  V30 10977 H 1063.36 -1.36743 1.38879 0
M  V30 10978 H 1062.45 -2.88289 1.19565 0
M  V30 10979 N 1062.75 -0.88754 -1.30232 0
M  V30 10980 C 1064 -0.507279 -1.96043 0
M  V30 10981 C 1064.33 0.944059 -1.70052 0
M  V30 10982 O 1063.58 1.68255 -0.999444 0
M  V30 10983 C 1063.88 -0.731765 -3.49828 0
M  V30 10984 C 1063.55 -2.15858 -3.95874 0
M  V30 10985 C 1062.21 -2.54875 -4.08157 0
M  V30 10986 C 1064.56 -3.0883 -4.19849 0
M  V30 10987 C 1061.89 -3.86069 -4.41778 0
M  V30 10988 C 1064.24 -4.39559 -4.5494 0
M  V30 10989 C 1062.91 -4.78465 -4.65432 0
M  V30 10990 H 1062.18 -0.185627 -0.717373 0
M  V30 10991 H 1064.82 -1.12388 -1.55052 0
M  V30 10992 H 1063.13 -0.0321473 -3.91787 0
M  V30 10993 H 1064.83 -0.417107 -3.98825 0
M  V30 10994 H 1061.42 -1.84574 -3.86821 0
M  V30 10995 H 1065.6 -2.79906 -4.09837 0
M  V30 10996 H 1060.86 -4.1595 -4.48102 0
M  V30 10997 H 1065.03 -5.11636 -4.72442 0
M  V30 10998 H 1062.66 -5.80162 -4.91239 0
M  V30 10999 N 1064.23 1.43628 -0.648757 0
M  V30 11000 C 1065.16 2.29045 0.0841858 0
M  V30 11001 C 1066.18 1.42262 0.791537 0
M  V30 11002 O 1067.37 1.66243 0.650039 0
M  V30 11003 C 1064.47 3.19075 1.14212 0
M  V30 11004 C 1063.64 4.34372 0.513799 0
M  V30 11005 C 1062.7 5.05307 1.46803 0
M  V30 11006 O 1061.72 5.60729 0.978346 0
M  V30 11007 N 1062.93 5.08393 2.80209 0
M  V30 11008 H 1065.69 2.9259 -0.648948 0
M  V30 11009 H 1063.25 1.54268 -0.491209 0
M  V30 11010 H 1065.24 3.63395 1.78119 0
M  V30 11011 H 1063.81 2.57161 1.77728 0
M  V30 11012 H 1063.03 3.93024 -0.304262 0
M  V30 11013 H 1064.32 5.08745 0.0749871 0
M  V30 11014 H 1063.72 4.64729 3.22557 0
M  V30 11015 H 1062.28 5.56445 3.3943 0
M  V30 11016 N 1065.71 0.390394 1.52688 0
M  V30 11017 C 1066.95 -0.191207 2.03504 0
M  V30 11018 C 1067.31 -1.43952 1.27051 0
M  V30 11019 O 1068.52 -2.09835 1.67996 0
M  V30 11020 C 1066.79 -0.451552 3.54536 0
M  V30 11021 S 1068.35 -1.00328 4.27176 0
M  V30 11022 H 1065.16 -0.0537587 0.708965 0
M  V30 11023 H 1067.77 0.538993 1.87923 0
M  V30 11024 H 1066.47 0.464061 4.07768 0
M  V30 11025 H 1066 -1.21015 3.74325 0
M  V30 11026 H 1068.02 -2.28555 4.40428 0
M  V30 11027 N 1067.19 -1.57141 0.120249 0
M  V30 11028 C 1068.14 -2.11936 -0.84067 0
M  V30 11029 C 1069.12 -1.04044 -1.22734 0
M  V30 11030 O 1070.31 -1.30275 -1.19822 0
M  V30 11031 C 1067.44 -2.72332 -2.09023 0
M  V30 11032 C 1066.53 -3.87306 -1.72786 0
M  V30 11033 N 1066.92 -4.94302 -1.07232 0
M  V30 11034 C 1065.22 -3.97513 -2.02236 0
M  V30 11035 C 1065.92 -5.7467 -0.901626 0
M  V30 11036 N 1064.9 -5.24535 -1.42702 0
M  V30 11037 H 1068.7 -2.92038 -0.330308 0
M  V30 11038 H 1066.21 -1.62192 -0.0821814 0
M  V30 11039 H 1068.21 -3.09932 -2.78833 0
M  V30 11040 H 1066.87 -1.93693 -2.60601 0
M  V30 11041 H 1067.88 -5.12641 -0.736158 0
M  V30 11042 H 1064.56 -3.29917 -2.55853 0
M  V30 11043 H 1065.95 -6.70785 -0.386974 0
M  V30 11044 N 1068.67 0.153526 -1.5685 0
M  V30 11045 C 1069.91 0.867232 -1.8299 0
M  V30 11046 C 1070.24 1.81462 -0.700125 0
M  V30 11047 O 1069.5 1.93207 0.311348 0
M  V30 11048 C 1069.8 1.68066 -3.15418 0
M  V30 11049 C 1069.46 0.880635 -4.42217 0
M  V30 11050 C 1068.12 0.659899 -4.76654 0
M  V30 11051 C 1070.48 0.320698 -5.20212 0
M  V30 11052 C 1067.8 -0.131588 -5.86552 0
M  V30 11053 C 1070.16 -0.457794 -6.30941 0
M  V30 11054 C 1068.82 -0.689168 -6.63933 0
M  V30 11055 H 1068.09 0.317343 -0.669608 0
M  V30 11056 H 1070.74 0.131208 -1.9105 0
M  V30 11057 H 1069.04 2.4866 -3.02779 0
M  V30 11058 H 1070.74 2.23623 -3.32857 0
M  V30 11059 H 1067.33 1.06274 -4.15215 0
M  V30 11060 H 1071.51 0.47853 -4.93988 0
M  V30 11061 H 1066.77 -0.320413 -6.1056 0
M  V30 11062 H 1070.94 -0.898839 -6.90575 0
M  V30 11063 H 1068.57 -1.30433 -7.48927 0
M  V30 11064 N 1070.14 1.51827 0.422667 0
M  V30 11065 C 1071.39 1.6445 1.16786 0
M  V30 11066 C 1071.71 0.373792 1.91995 0
M  V30 11067 O 1072.91 0.379621 2.68833 0
M  V30 11068 C 1071.37 2.90488 2.12473 0
M  V30 11069 C 1070.98 4.24617 1.42844 0
M  V30 11070 C 1072.72 3.12472 2.87335 0
M  V30 11071 C 1070.63 5.41791 2.371 0
M  V30 11072 H 1069.56 0.612561 0.439641 0
M  V30 11073 H 1072.21 1.78305 0.433534 0
M  V30 11074 H 1070.59 2.703 2.89402 0
M  V30 11075 H 1071.76 4.55239 0.71372 0
M  V30 11076 H 1070.08 4.08628 0.800769 0
M  V30 11077 H 1072.68 3.9719 3.57973 0
M  V30 11078 H 1073.02 2.26148 3.49518 0
M  V30 11079 H 1073.55 3.33069 2.17509 0
M  V30 11080 H 1070.29 6.3042 1.79584 0
M  V30 11081 H 1069.81 5.15526 3.06583 0
M  V30 11082 H 1071.49 5.74329 2.97918 0
M  V30 11083 N 1071.62 -0.679052 1.4222 0
M  V30 11084 C 1072.57 -1.81398 1.45594 0
M  V30 11085 C 1073.56 -1.66112 0.332127 0
M  V30 11086 O 1074.77 -1.72772 0.504942 0
M  V30 11087 H 1071.15 -0.598045 0.455902 0
M  V30 11088 H 1073.12 -1.7567 2.41211 0
M  V30 11089 C 1071.87 -3.19525 1.37109 0
M  V30 11090 H 1071.19 -3.31912 2.22878 0
M  V30 11091 H 1072.63 -3.98967 1.43531 0
M  V30 11092 C 1071.09 -3.36792 0.0853593 0
M  V30 11093 O 1071.62 -3.92309 -0.863532 0
M  V30 11094 N 1069.82 -2.906 0.00389229 0
M  V30 11095 H 1069.37 -2.45607 0.776846 0
M  V30 11096 H 1069.33 -3.0253 -0.855742 0
M  V30 11097 N 1073.1 -1.28322 -0.914942 0
M  V30 11098 C 1074.35 -1.15179 -1.66067 0
M  V30 11099 C 1074.67 0.300279 -1.92674 0
M  V30 11100 O 1073.94 1.20821 -1.54205 0
M  V30 11101 H 1072.52 -0.423264 -0.615513 0
M  V30 11102 H 1075.18 -1.61034 -1.09791 0
M  V30 11103 H 1074.28 -1.69048 -2.62353 0
M  V30 11104 N 1074.58 1.12322 -1.10551 0
M  V30 11105 C 1075.51 2.17221 -0.699299 0
M  V30 11106 C 1076.49 1.59809 0.299973 0
M  V30 11107 O 1077.67 1.87451 0.198589 0
M  V30 11108 C 1074.8 3.38685 -0.0320136 0
M  V30 11109 C 1073.85 4.14732 -0.99495 0
M  V30 11110 S 1074.68 4.72879 -2.51288 0
M  V30 11111 C 1075.84 5.97676 -1.85834 0
M  V30 11112 H 1076.07 2.51342 -1.5879 0
M  V30 11113 H 1073.6 1.23802 -0.92263 0
M  V30 11114 H 1075.56 4.09034 0.346656 0
M  V30 11115 H 1074.22 3.02842 0.833407 0
M  V30 11116 H 1073.41 5.01754 -0.475331 0
M  V30 11117 H 1073.02 3.50098 -1.31559 0
M  V30 11118 H 1075.31 6.6698 -1.18927 0
M  V30 11119 H 1076.25 6.54266 -2.70817 0
M  V30 11120 H 1076.66 5.48793 -1.32237 0
M  V30 11121 N 1076.06 0.894434 1.2976 0
M  V30 11122 C 1077.28 0.5322 2.00455 0
M  V30 11123 C 1077.71 -0.874427 1.66539 0
M  V30 11124 O 1077.06 -1.58113 0.887129 0
M  V30 11125 C 1077.11 0.725264 3.53231 0
M  V30 11126 O 1076.22 -0.224612 4.11788 0
M  V30 11127 H 1075.56 0.208562 0.630395 0
M  V30 11128 H 1078.09 1.20458 1.65382 0
M  V30 11129 H 1078.1 0.627889 4.0314 0
M  V30 11130 H 1076.77 1.75079 3.77253 0
M  V30 11131 H 1075.35 -0.0801361 3.72814 0
M  V30 11132 N 1077.53 -1.43282 0.656365 0
M  V30 11133 C 1078.95 -1.85012 0.250475 0
M  V30 11134 C 1079.3 -1.54944 -1.20361 0
M  V30 11135 O 1078.42 -0.999983 -1.9191 0
M  V30 11136 C 1079.02 -3.35827 0.447815 0
M  V30 11137 C 1077.58 -3.76277 0.0962151 0
M  V30 11138 C 1076.72 -2.66988 0.749168 0
M  V30 11139 H 1079.67 -1.3339 0.85982 0
M  V30 11140 H 1079.69 -3.7927 -0.305726 0
M  V30 11141 H 1079.21 -3.5768 1.5062 0
M  V30 11142 H 1077.31 -3.60035 -0.959449 0
M  V30 11143 H 1077.42 -4.76227 0.523875 0
M  V30 11144 H 1075.78 -2.54048 0.18212 0
M  V30 11145 H 1076.57 -2.91669 1.81064 0
M  V30 11146 N 1079.01 -0.398486 -1.52479 0
M  V30 11147 C 1079.92 0.439328 -2.3045 0
M  V30 11148 C 1080.94 1.06322 -1.37738 0
M  V30 11149 O 1082.12 1.06704 -1.7081 0
M  V30 11150 C 1079.18 1.54655 -3.10294 0
M  V30 11151 C 1078.24 0.946824 -4.18729 0
M  V30 11152 C 1077.47 2.00129 -4.94757 0
M  V30 11153 O 1077.7 3.2178 -4.70971 0
M  V30 11154 O 1076.63 1.61345 -5.79872 0
M  V30 11155 H 1080.46 -0.196118 -3.03066 0
M  V30 11156 H 1078.04 -0.161961 -1.4852 0
M  V30 11157 H 1079.92 2.18958 -3.60049 0
M  V30 11158 H 1078.6 2.1668 -2.40482 0
M  V30 11159 H 1077.51 0.266802 -3.73147 0
M  V30 11160 H 1078.84 0.370664 -4.90802 0
M  V30 11161 N 1080.49 1.57075 -0.12858 0
M  V30 11162 C 1081.72 1.99586 0.533769 0
M  V30 11163 C 1082.13 1.00737 1.60152 0
M  V30 11164 O 1081.47 -0.00647783 1.83699 0
M  V30 11165 C 1081.53 3.3852 1.21014 0
M  V30 11166 C 1081.2 4.56084 0.289191 0
M  V30 11167 C 1082.2 5.17717 -0.475963 0
M  V30 11168 C 1079.88 5.01912 0.197467 0
M  V30 11169 C 1081.87 6.23572 -1.32048 0
M  V30 11170 C 1079.56 6.07626 -0.65067 0
M  V30 11171 C 1080.56 6.68324 -1.40826 0
M  V30 11172 O 1080.25 7.71995 -2.2423 0
M  V30 11173 H 1079.98 0.660245 0.145096 0
M  V30 11174 H 1082.53 2.04276 -0.214615 0
M  V30 11175 H 1080.76 3.30613 2.00579 0
M  V30 11176 H 1082.45 3.65258 1.77036 0
M  V30 11177 H 1083.22 4.83221 -0.415027 0
M  V30 11178 H 1079.1 4.54407 0.776853 0
M  V30 11179 H 1082.64 6.70878 -1.91228 0
M  V30 11180 H 1078.54 6.41551 -0.712965 0
M  V30 11181 H 1079.31 7.89135 -2.17276 0
M  V30 11182 N 1081.97 -0.145205 1.5693 0
M  V30 11183 C 1082.9 -1.18096 2.01434 0
M  V30 11184 C 1083.88 -1.447 0.894204 0
M  V30 11185 O 1085.07 -1.55589 1.16214 0
M  V30 11186 C 1082.2 -2.51369 2.39647 0
M  V30 11187 C 1081.15 -2.39283 3.54863 0
M  V30 11188 C 1080.48 -3.77283 3.78895 0
M  V30 11189 C 1081.78 -1.8754 4.87469 0
M  V30 11190 H 1083.47 -0.810897 2.8821 0
M  V30 11191 H 1081.02 -0.388624 1.38657 0
M  V30 11192 H 1082.97 -3.24054 2.69382 0
M  V30 11193 H 1081.69 -2.90214 1.49811 0
M  V30 11194 H 1080.35 -1.6905 3.25296 0
M  V30 11195 H 1080 -4.13567 2.86307 0
M  V30 11196 H 1079.7 -3.70057 4.56433 0
M  V30 11197 H 1081.22 -4.51514 4.11057 0
M  V30 11198 H 1082.64 -2.50019 5.1591 0
M  V30 11199 H 1081.03 -1.912 5.68826 0
M  V30 11200 H 1082.1 -0.831194 4.77723 0
M  V30 11201 N 1083.45 -1.52049 -0.414609 0
M  V30 11202 C 1084.41 -1.74382 -1.4874 0
M  V30 11203 C 1085.41 -0.613701 -1.48628 0
M  V30 11204 O 1086.6 -0.88152 -1.50249 0
M  V30 11205 C 1083.73 -1.82116 -2.88178 0
M  V30 11206 H 1084.93 -2.70147 -1.30233 0
M  V30 11207 H 1082.48 -1.42382 -0.644756 0
M  V30 11208 H 1083.21 -0.882457 -3.12063 0
M  V30 11209 H 1083 -2.64268 -2.89663 0
M  V30 11210 H 1084.49 -2.01155 -3.65959 0
M  V30 11211 N 1084.93 0.6715 -1.42579 0
M  V30 11212 C 1086.15 1.46471 -1.46836 0
M  V30 11213 C 1086.58 1.87921 -0.0820658 0
M  V30 11214 O 1085.93 1.5621 0.920217 0
M  V30 11215 C 1085.98 2.68796 -2.40377 0
M  V30 11216 O 1085.09 3.67188 -1.87741 0
M  V30 11217 H 1084.43 0.439901 -0.497376 0
M  V30 11218 H 1086.96 0.823342 -1.87303 0
M  V30 11219 H 1086.97 3.16828 -2.57068 0
M  V30 11220 H 1085.64 2.37967 -3.41093 0
M  V30 11221 H 1084.22 3.26237 -1.80621 0
M  V30 11222 N 1086.4 1.28806 0.908124 0
M  V30 11223 C 1087.65 1.15663 1.65242 0
M  V30 11224 C 1087.97 -0.292883 1.93395 0
M  V30 11225 O 1089.17 -0.545509 2.65963 0
M  V30 11226 C 1087.63 2.02233 2.97707 0
M  V30 11227 C 1087.24 3.51958 2.77181 0
M  V30 11228 C 1088.98 1.97792 3.75604 0
M  V30 11229 C 1086.89 4.3066 4.05322 0
M  V30 11230 H 1085.82 0.42928 0.619867 0
M  V30 11231 H 1088.47 1.5338 1.00731 0
M  V30 11232 H 1086.85 1.57377 3.63385 0
M  V30 11233 H 1088.02 4.0481 2.20149 0
M  V30 11234 H 1086.34 3.57983 2.12691 0
M  V30 11235 H 1088.94 2.53858 4.70596 0
M  V30 11236 H 1089.28 0.955956 4.05175 0
M  V30 11237 H 1089.81 2.40648 3.16755 0
M  V30 11238 H 1086.55 5.3346 3.8092 0
M  V30 11239 H 1086.07 3.8258 4.61944 0
M  V30 11240 H 1087.75 4.40878 4.73535 0
M  V30 11241 N 1087.88 -1.11734 1.11145 0
M  V30 11242 C 1089.16 -1.79795 0.770261 0
M  V30 11243 C 1089.54 -1.97624 -0.742158 0
M  V30 11244 O 1088.89 -1.55847 -1.67105 0
M  V30 11245 C 1089.1 -3.13684 1.52982 0
M  V30 11246 C 1090.44 -3.88771 1.70711 0
M  V30 11247 O 1091.47 -3.23363 1.49381 0
M  V30 11248 O 1090.33 -5.06134 2.06132 0
M  V30 11249 H 1087.42 -0.778617 0.27872 0
M  V30 11250 H 1089.97 -1.18504 1.2147 0
M  V30 11251 H 1088.74 -2.96043 2.55879 0
M  V30 11252 H 1088.36 -3.82687 1.07873 0
M  V30 11253 N 1089.36 -0.901303 -1.29284 0
M  V30 11254 C 1090.29 -0.337552 -2.26701 0
M  V30 11255 C 1091.3 0.517039 -1.54371 0
M  V30 11256 O 1092.49 0.333937 -1.75349 0
M  V30 11257 C 1089.59 0.537214 -3.34615 0
M  V30 11258 C 1088.77 -0.292017 -4.36424 0
M  V30 11259 C 1087.83 0.515837 -5.23666 0
M  V30 11260 O 1086.85 -0.0672303 -5.6916 0
M  V30 11261 N 1088.05 1.82159 -5.51179 0
M  V30 11262 H 1090.82 -1.17484 -2.75713 0
M  V30 11263 H 1088.38 -0.765957 -1.42635 0
M  V30 11264 H 1090.37 1.0841 -3.8991 0
M  V30 11265 H 1088.94 1.2752 -2.85408 0
M  V30 11266 H 1088.16 -1.02031 -3.80767 0
M  V30 11267 H 1089.45 -0.859855 -5.01482 0
M  V30 11268 H 1088.85 2.318 -5.16028 0
M  V30 11269 H 1087.4 2.31556 -6.09282 0
M  V30 11270 N 1090.84 1.42931 -0.663954 0
M  V30 11271 C 1091.79 2.32577 0.03287 0
M  V30 11272 C 1092.78 1.49217 0.801918 0
M  V30 11273 O 1093.99 1.65358 0.711106 0
M  V30 11274 H 1090.36 0.751424 0.0294198 0
M  V30 11275 H 1092.33 2.89059 -0.740763 0
M  V30 11276 C 1091.08 3.33661 0.978025 0
M  V30 11277 H 1090.4 3.97837 0.395681 0
M  V30 11278 H 1091.84 3.98997 1.43448 0
M  V30 11279 C 1090.3 2.65085 2.07922 0
M  V30 11280 O 1090.83 2.4745 3.16435 0
M  V30 11281 N 1089.04 2.24285 1.84783 0
M  V30 11282 H 1088.59 2.38827 0.965368 0
M  V30 11283 H 1088.54 1.78732 2.58655 0
M  V30 11284 N 1092.32 0.406567 1.52266 0
M  V30 11285 C 1093.56 -0.171391 2.00971 0
M  V30 11286 C 1093.88 -1.46443 1.29668 0
M  V30 11287 O 1095.08 -2.12348 1.69176 0
M  V30 11288 C 1093.54 -0.35599 3.58135 0
M  V30 11289 C 1093.15 0.924803 4.38351 0
M  V30 11290 C 1094.89 -0.889378 4.15079 0
M  V30 11291 C 1092.8 0.707534 5.87152 0
M  V30 11292 H 1091.73 -0.0678253 0.750943 0
M  V30 11293 H 1094.38 0.531619 1.7563 0
M  V30 11294 H 1092.76 -1.12127 3.79794 0
M  V30 11295 H 1093.94 1.69603 4.28452 0
M  V30 11296 H 1092.25 1.38442 3.92712 0
M  V30 11297 H 1094.85 -1.06792 5.23927 0
M  V30 11298 H 1095.19 -1.86334 3.7227 0
M  V30 11299 H 1095.72 -0.183224 3.97378 0
M  V30 11300 H 1092.46 1.65299 6.34316 0
M  V30 11301 H 1091.98 -0.024446 5.99795 0
M  V30 11302 H 1093.66 0.348721 6.4606 0
M  V30 11303 N 1093.79 -1.57004 0.136909 0
M  V30 11304 C 1094.74 -2.16246 -0.806607 0
M  V30 11305 C 1095.71 -1.09246 -1.25118 0
M  V30 11306 O 1096.9 -1.3724 -1.32551 0
M  V30 11307 C 1094.04 -2.78031 -2.04433 0
M  V30 11308 C 1093.15 -3.99393 -1.64649 0
M  V30 11309 C 1092.28 -4.49208 -2.83524 0
M  V30 11310 C 1091.32 -5.63059 -2.40064 0
M  V30 11311 N 1090.46 -6.07537 -3.51913 0
M  V30 11312 H 1095.3 -2.9654 -0.294596 0
M  V30 11313 H 1092.84 -1.46491 -0.133705 0
M  V30 11314 H 1094.8 -3.11992 -2.76978 0
M  V30 11315 H 1093.43 -2.00398 -2.53062 0
M  V30 11316 H 1092.48 -3.71477 -0.819077 0
M  V30 11317 H 1093.79 -4.81904 -1.28723 0
M  V30 11318 H 1092.94 -4.85171 -3.64271 0
M  V30 11319 H 1091.68 -3.65683 -3.22688 0
M  V30 11320 H 1090.69 -5.26682 -1.57754 0
M  V30 11321 H 1091.91 -6.48362 -2.01997 0
M  V30 11322 H 1089.86 -5.2695 -3.90717 0
M  V30 11323 H 1089.78 -6.84949 -3.1997 0
M  V30 11324 H 1091.04 -6.48143 -4.33048 0
M  V30 11325 N 1095.27 0.136881 -1.57004 0
M  V30 11326 C 1096.69 0.489856 -1.51897 0
M  V30 11327 C 1096.89 1.82833 -0.847009 0
M  V30 11328 O 1095.94 2.48952 -0.421792 0
M  V30 11329 C 1097.26 0.490831 -2.96667 0
M  V30 11330 C 1098.81 0.575639 -3.07661 0
M  V30 11331 C 1099.28 0.607178 -4.53957 0
M  V30 11332 N 1100.77 0.66912 -4.58342 0
M  V30 11333 C 1101.51 0.714675 -5.68929 0
M  V30 11334 N 1101 0.718959 -6.89059 0
M  V30 11335 N 1102.8 0.756326 -5.56988 0
M  V30 11336 H 1094.95 -0.740347 -1.99079 0
M  V30 11337 H 1097.21 -0.271116 -0.908405 0
M  V30 11338 H 1096.92 -0.424648 -3.49127 0
M  V30 11339 H 1096.79 1.32512 -3.53158 0
M  V30 11340 H 1099.18 1.48154 -2.55215 0
M  V30 11341 H 1099.26 -0.285991 -2.54196 0
M  V30 11342 H 1098.9 -0.294604 -5.07045 0
M  V30 11343 H 1098.83 1.48544 -5.05215 0
M  V30 11344 H 1101.32 0.672697 -3.71864 0
M  V30 11345 H 1101.64 0.755848 -7.69095 0
M  V30 11346 H 1099.98 0.686671 -6.91599 0
M  V30 11347 H 1103.17 0.750219 -4.62049 0
M  V30 11348 H 1103.34 0.788363 -6.43186 0
M  V30 11349 N 1096.75 1.52266 0.40654 0
M  V30 11350 C 1097.98 1.70057 1.1732 0
M  V30 11351 C 1098.39 0.41084 1.84686 0
M  V30 11352 O 1097.73 -0.623187 1.72806 0
M  V30 11353 C 1097.79 2.78197 2.27698 0
M  V30 11354 C 1097.46 4.19866 1.80447 0
M  V30 11355 C 1098.45 5.03621 1.29082 0
M  V30 11356 C 1096.14 4.66112 1.87202 0
M  V30 11357 C 1098.13 6.31694 0.850973 0
M  V30 11358 C 1095.82 5.94174 1.42829 0
M  V30 11359 C 1096.82 6.76794 0.918621 0
M  V30 11360 O 1096.51 8.02458 0.481302 0
M  V30 11361 H 1096.24 0.573137 0.358455 0
M  V30 11362 H 1098.79 1.99615 0.484064 0
M  V30 11363 H 1097.02 2.44022 2.99983 0
M  V30 11364 H 1098.71 2.84562 2.89446 0
M  V30 11365 H 1099.48 4.69083 1.23234 0
M  V30 11366 H 1095.36 4.01905 2.25816 0
M  V30 11367 H 1098.9 6.96131 0.452471 0
M  V30 11368 H 1094.8 6.2822 1.48358 0
M  V30 11369 H 1095.57 8.16266 0.604376 0
M  V30 11370 N 1098.23 -0.663929 1.42933 0
M  V30 11371 C 1099.19 -1.75899 1.46943 0
M  V30 11372 C 1100.19 -1.5682 0.355535 0
M  V30 11373 O 1101.38 -1.62914 0.616833 0
M  V30 11374 C 1098.51 -3.14657 1.31164 0
M  V30 11375 H 1099.71 -1.73727 2.44456 0
M  V30 11376 H 1097.26 -0.874587 1.2954 0
M  V30 11377 H 1097.99 -3.22447 0.346165 0
M  V30 11378 H 1097.78 -3.29909 2.11902 0
M  V30 11379 H 1099.27 -3.9453 1.36878 0
M  V30 11380 N 1099.71 -1.29285 -0.901281 0
M  V30 11381 C 1100.62 -1.16161 -2.03823 0
M  V30 11382 C 1101.63 -0.0852298 -1.73791 0
M  V30 11383 O 1102.81 -0.29699 -1.99198 0
M  V30 11384 C 1099.87 -0.837586 -3.3643 0
M  V30 11385 C 1098.93 -1.99764 -3.7999 0
M  V30 11386 C 1098.17 -1.68898 -5.0627 0
M  V30 11387 O 1098.39 -0.609177 -5.67138 0
M  V30 11388 O 1097.32 -2.53648 -5.45845 0
M  V30 11389 H 1101.15 -2.11635 -2.17817 0
M  V30 11390 H 1098.74 -1.08722 -1.02468 0
M  V30 11391 H 1100.62 -0.671376 -4.16017 0
M  V30 11392 H 1099.29 0.0873811 -3.23582 0
M  V30 11393 H 1098.2 -2.21908 -3.01177 0
M  V30 11394 H 1099.53 -2.90376 -3.9742 0
M  V30 11395 N 1101.18 1.11143 -1.11736 0
M  V30 11396 C 1102.43 1.82311 -0.862875 0
M  V30 11397 C 1102.75 1.85735 0.613326 0
M  V30 11398 O 1103.95 2.53034 0.984168 0
M  V30 11399 C 1102.41 3.27427 -1.49396 0
M  V30 11400 C 1102.02 3.32323 -3.00443 0
M  V30 11401 C 1103.76 4.03474 -1.31944 0
M  V30 11402 C 1101.67 4.71855 -3.56521 0
M  V30 11403 H 1100.6 0.683124 -0.31915 0
M  V30 11404 H 1103.25 1.25045 -1.34298 0
M  V30 11405 H 1101.63 3.84644 -0.941528 0
M  V30 11406 H 1102.8 2.84971 -3.62117 0
M  V30 11407 H 1101.12 2.69758 -3.17206 0
M  V30 11408 H 1103.72 5.06528 -1.71271 0
M  V30 11409 H 1104.06 4.15473 -0.262339 0
M  V30 11410 H 1104.59 3.52652 -1.84069 0
M  V30 11411 H 1101.33 4.65054 -4.61958 0
M  V30 11412 H 1100.85 5.19604 -2.99619 0
M  V30 11413 H 1102.53 5.40816 -3.55144 0
M  V30 11414 N 1102.66 0.908147 1.28804 0
M  V30 11415 C 1103.91 0.53734 1.94826 0
M  V30 11416 C 1104.23 -0.920962 1.71882 0
M  V30 11417 O 1103.5 -1.65043 1.05534 0
M  V30 11418 H 1102.08 0.195729 0.720902 0
M  V30 11419 H 1104.74 1.15628 1.56895 0
M  V30 11420 H 1103.84 0.727052 3.03513 0
M  V30 11421 N 1104.14 -1.42577 0.671525 0
M  V30 11422 C 1105.39 -2.01882 0.192716 0
M  V30 11423 C 1105.72 -1.52959 -1.19654 0
M  V30 11424 O 1104.99 -0.730404 -1.80265 0
M  V30 11425 C 1105.28 -3.59404 0.223734 0
M  V30 11426 C 1105.13 -4.18514 1.64821 0
M  V30 11427 C 1106.45 -4.37996 -0.429858 0
M  V30 11428 H 1103.57 -0.733523 0.0715026 0
M  V30 11429 H 1106.21 -1.69641 0.855689 0
M  V30 11430 H 1104.36 -3.87003 -0.340776 0
M  V30 11431 H 1106.03 -4.01881 2.26472 0
M  V30 11432 H 1104.28 -3.74467 2.1899 0
M  V30 11433 H 1104.95 -5.27643 1.62162 0
M  V30 11434 H 1107.42 -4.16069 0.0506433 0
M  V30 11435 H 1106.3 -5.476 -0.377503 0
M  V30 11436 H 1106.56 -4.15625 -1.50693 0
M  V30 11437 N 1105.62 -0.414636 -1.52048 0
M  V30 11438 C 1106.87 0.16073 -2.01059 0
M  V30 11439 C 1107.18 1.45753 -1.30443 0
M  V30 11440 O 1108.39 2.11448 -1.703 0
M  V30 11441 C 1106.84 0.336993 -3.58319 0
M  V30 11442 C 1106.45 -0.948037 -4.37854 0
M  V30 11443 C 1108.19 0.867353 -4.15545 0
M  V30 11444 C 1106.1 -0.738662 -5.86769 0
M  V30 11445 H 1105.03 0.0638419 -0.751292 0
M  V30 11446 H 1107.68 -0.540925 -1.75346 0
M  V30 11447 H 1106.06 1.10111 -3.80383 0
M  V30 11448 H 1107.24 -1.71873 -4.27547 0
M  V30 11449 H 1105.55 -1.40522 -3.91972 0
M  V30 11450 H 1108.15 1.04012 -5.24486 0
M  V30 11451 H 1108.49 1.84358 -3.73253 0
M  V30 11452 H 1109.03 0.162148 -3.97469 0
M  V30 11453 H 1105.77 -1.6866 -6.3343 0
M  V30 11454 H 1105.29 -0.00736294 -5.998 0
M  V30 11455 H 1106.96 -0.382978 -6.45866 0
M  V30 11456 N 1107.1 1.56929 -0.145233 0
M  V30 11457 C 1108.34 1.96358 0.50707 0
M  V30 11458 C 1108.68 1.03005 1.64632 0
M  V30 11459 O 1107.95 0.0721045 1.94366 0
M  V30 11460 C 1108.23 3.45502 1.01492 0
M  V30 11461 C 1108.09 4.49633 -0.122708 0
M  V30 11462 C 1109.41 3.97103 1.89729 0
M  V30 11463 H 1106.52 0.713958 0.182848 0
M  V30 11464 H 1109.17 1.8865 -0.226102 0
M  V30 11465 H 1107.32 3.52202 1.6397 0
M  V30 11466 H 1108.99 4.55013 -0.758988 0
M  V30 11467 H 1107.23 4.26691 -0.782109 0
M  V30 11468 H 1107.9 5.51318 0.27432 0
M  V30 11469 H 1110.38 3.92871 1.37082 0
M  V30 11470 H 1109.25 5.01927 2.22173 0
M  V30 11471 H 1109.52 3.39354 2.83357 0
M  V30 11472 N 1108.58 -0.128553 1.57075 0
M  V30 11473 C 1109.8 -0.8564 1.88893 0
M  V30 11474 C 1110.23 -1.73095 0.736196 0
M  V30 11475 O 1109.58 -1.78567 -0.313629 0
M  V30 11476 C 1109.63 -1.67368 3.19406 0
M  V30 11477 O 1108.74 -2.77973 3.04639 0
M  V30 11478 H 1108.08 -0.237424 0.620102 0
M  V30 11479 H 1110.61 -0.113821 2.04283 0
M  V30 11480 H 1110.62 -2.0649 3.51889 0
M  V30 11481 H 1109.29 -1.03161 4.02903 0
M  V30 11482 H 1107.87 -2.42123 2.83603 0
M  V30 11483 N 1110.05 -1.5248 -0.398459 0
M  V30 11484 C 1111.3 -1.67061 -1.14441 0
M  V30 11485 C 1111.63 -0.405821 -1.90219 0
M  V30 11486 O 1110.88 0.611532 -1.859 0
M  V30 11487 C 1111.18 -2.85038 -2.15611 0
M  V30 11488 C 1110.85 -4.22847 -1.56561 0
M  V30 11489 C 1109.51 -4.60329 -1.40182 0
M  V30 11490 C 1111.86 -5.08683 -1.1354 0
M  V30 11491 C 1109.19 -5.81314 -0.793149 0
M  V30 11492 C 1111.54 -6.30284 -0.540866 0
M  V30 11493 C 1110.21 -6.66505 -0.364297 0
M  V30 11494 H 1109.48 -0.611321 -0.418769 0
M  V30 11495 H 1112.12 -1.86604 -0.430241 0
M  V30 11496 H 1110.43 -2.59873 -2.93212 0
M  V30 11497 H 1112.13 -2.93516 -2.73221 0
M  V30 11498 H 1108.72 -3.93316 -1.70295 0
M  V30 11499 H 1112.9 -4.80301 -1.24999 0
M  V30 11500 H 1108.16 -6.07994 -0.64446 0
M  V30 11501 H 1112.33 -6.96115 -0.199167 0
M  V30 11502 H 1109.96 -7.60121 0.109439 0
M  V30 11503 N 1111.53 0.65634 -1.43283 0
M  V30 11504 C 1112.76 1.44408 -1.48168 0
M  V30 11505 C 1113.17 1.88542 -0.0986016 0
M  V30 11506 O 1112.53 1.59298 0.890527 0
M  V30 11507 C 1112.58 2.68111 -2.42484 0
M  V30 11508 O 1112.3 2.25824 -3.75413 0
M  V30 11509 C 1113.8 3.61499 -2.56579 0
M  V30 11510 H 1111.02 0.443731 -0.503333 0
M  V30 11511 H 1113.57 0.804917 -1.87993 0
M  V30 11512 H 1111.72 3.28175 -2.05863 0
M  V30 11513 H 1112.14 3.05839 -4.26102 0
M  V30 11514 H 1113.61 4.44972 -3.26655 0
M  V30 11515 H 1114.09 4.08639 -1.60969 0
M  V30 11516 H 1114.69 3.07319 -2.93998 0
M  V30 11517 N 1113.01 1.29761 0.894412 0
M  V30 11518 C 1113.92 1.1724 2.03204 0
M  V30 11519 C 1114.94 0.0944452 1.73743 0
M  V30 11520 O 1116.11 0.307549 1.99038 0
M  V30 11521 C 1113.18 0.855416 3.35981 0
M  V30 11522 C 1112.24 2.01777 3.78926 0
M  V30 11523 C 1111.47 1.71581 5.05367 0
M  V30 11524 O 1111.69 0.639245 5.66807 0
M  V30 11525 O 1110.63 2.56539 5.44492 0
M  V30 11526 H 1114.45 2.12787 2.16692 0
M  V30 11527 H 1112.04 1.09264 1.0189 0
M  V30 11528 H 1113.92 0.693429 4.15656 0
M  V30 11529 H 1112.6 -0.0702195 3.23624 0
M  V30 11530 H 1111.5 2.23502 2.99996 0
M  V30 11531 H 1112.84 2.92479 3.95875 0
M  V30 11532 N 1114.49 -1.10549 1.12324 0
M  V30 11533 C 1115.74 -1.81851 0.872531 0
M  V30 11534 C 1116.05 -1.86058 -0.603468 0
M  V30 11535 O 1117.26 -2.53553 -0.970736 0
M  V30 11536 C 1115.71 -3.26631 1.51131 0
M  V30 11537 C 1115.32 -3.30725 3.02201 0
M  V30 11538 C 1117.06 -4.02768 1.34082 0
M  V30 11539 C 1114.97 -4.69957 3.59018 0
M  V30 11540 H 1113.9 -0.681422 0.322769 0
M  V30 11541 H 1116.55 -1.24332 1.34959 0
M  V30 11542 H 1114.93 -3.8414 0.961913 0
M  V30 11543 H 1116.11 -2.83046 3.63623 0
M  V30 11544 H 1114.42 -2.68072 3.18632 0
M  V30 11545 H 1117.02 -5.05612 1.73955 0
M  V30 11546 H 1117.36 -4.15328 0.284369 0
M  V30 11547 H 1117.9 -3.51671 1.85937 0
M  V30 11548 H 1114.63 -4.62597 4.64418 0
M  V30 11549 H 1114.15 -5.18008 3.02371 0
M  V30 11550 H 1115.83 -5.38925 3.58007 0
M  V30 11551 N 1115.97 -0.914965 -1.28321 0
M  V30 11552 C 1117.24 -0.46764 -1.89928 0
M  V30 11553 C 1117.62 1.05364 -1.82925 0
M  V30 11554 O 1116.97 1.90223 -1.26599 0
M  V30 11555 C 1117.18 -0.999372 -3.34385 0
M  V30 11556 C 1118.53 -1.0522 -4.11356 0
M  V30 11557 O 1119.55 -0.9481 -3.4335 0
M  V30 11558 O 1118.41 -1.21085 -5.32917 0
M  V30 11559 H 1115.51 -0.148398 -0.813577 0
M  V30 11560 H 1118.05 -1.00583 -1.36679 0
M  V30 11561 H 1116.82 -2.04333 -3.33712 0
M  V30 11562 H 1116.45 -0.442083 -3.95135 0
M  V30 11563 N 1117.44 1.42219 -0.679077 0
M  V30 11564 C 1118.69 2.00703 -0.200309 0
M  V30 11565 C 1119.01 1.54339 1.20161 0
M  V30 11566 O 1120.21 2.0527 1.77698 0
M  V30 11567 C 1118.67 3.58586 -0.307248 0
M  V30 11568 C 1118.28 4.13937 -1.71349 0
M  V30 11569 C 1120.02 4.24351 0.112588 0
M  V30 11570 C 1117.93 5.64198 -1.77297 0
M  V30 11571 H 1116.86 0.750638 -0.0711279 0
M  V30 11572 H 1119.51 1.62893 -0.844881 0
M  V30 11573 H 1117.89 3.93921 0.40529 0
M  V30 11574 H 1119.06 3.90054 -2.45346 0
M  V30 11575 H 1117.38 3.60639 -2.08155 0
M  V30 11576 H 1119.98 5.34627 0.0883578 0
M  V30 11577 H 1120.32 4.00142 1.14857 0
M  V30 11578 H 1120.85 3.93992 -0.549093 0
M  V30 11579 H 1117.59 5.93211 -2.78892 0
M  V30 11580 H 1117.11 5.90058 -1.07662 0
M  V30 11581 H 1118.79 6.2869 -1.52835 0
M  V30 11582 N 1118.92 0.422693 1.51826 0
M  V30 11583 C 1120.34 0.0742364 1.59427 0
M  V30 11584 C 1120.54 -1.41491 1.43466 0
M  V30 11585 O 1119.59 -2.18326 1.26846 0
M  V30 11586 C 1120.91 0.581272 2.95028 0
M  V30 11587 C 1122.45 0.54043 3.08299 0
M  V30 11588 C 1122.93 1.0242 4.46401 0
M  V30 11589 N 1124.42 0.981576 4.5268 0
M  V30 11590 C 1125.16 1.32693 5.57835 0
M  V30 11591 N 1124.65 1.74441 6.70479 0
M  V30 11592 N 1126.44 1.24603 5.48115 0
M  V30 11593 H 1118.6 1.39178 1.60447 0
M  V30 11594 H 1120.86 0.572607 0.75553 0
M  V30 11595 H 1120.56 1.62261 3.12032 0
M  V30 11596 H 1120.44 -0.00176969 3.772 0
M  V30 11597 H 1122.83 -0.491895 2.90971 0
M  V30 11598 H 1122.91 1.15969 2.28002 0
M  V30 11599 H 1122.55 2.05491 4.64474 0
M  V30 11600 H 1122.48 0.381613 5.25215 0
M  V30 11601 H 1124.97 0.674808 3.71826 0
M  V30 11602 H 1125.28 1.99068 7.46721 0
M  V30 11603 H 1123.63 1.78356 6.71725 0
M  V30 11604 H 1126.82 0.918641 4.58997 0
M  V30 11605 H 1126.99 1.51847 6.29958 0
M  V30 11606 N 1120.4 -1.5685 0.153553 0
M  V30 11607 C 1121.65 -1.95509 -0.495911 0
M  V30 11608 C 1121.96 -1.04129 -1.65579 0
M  V30 11609 O 1123.17 -1.32394 -2.37032 0
M  V30 11610 C 1121.62 -3.47579 -0.933622 0
M  V30 11611 C 1121.23 -4.47555 0.199684 0
M  V30 11612 C 1122.98 -3.95092 -1.55251 0
M  V30 11613 C 1120.88 -5.90843 -0.256663 0
M  V30 11614 H 1119.81 -0.729919 -0.189035 0
M  V30 11615 H 1122.46 -1.81938 0.238947 0
M  V30 11616 H 1120.85 -3.56506 -1.72394 0
M  V30 11617 H 1122.02 -4.50329 0.976744 0
M  V30 11618 H 1120.33 -4.09997 0.727394 0
M  V30 11619 H 1122.93 -4.99588 -1.90567 0
M  V30 11620 H 1123.27 -3.37015 -2.4439 0
M  V30 11621 H 1123.81 -3.89109 -0.826969 0
M  V30 11622 H 1120.55 -6.52753 0.599515 0
M  V30 11623 H 1120.07 -5.91414 -0.999458 0
M  V30 11624 H 1121.75 -6.43131 -0.70649 0
M  V30 11625 N 1121.88 0.120221 -1.57141 0
M  V30 11626 C 1123.29 0.677497 -1.73974 0
M  V30 11627 C 1123.64 1.80371 -0.772055 0
M  V30 11628 O 1122.76 2.16329 0.0553062 0
M  V30 11629 C 1123.36 1.23575 -3.1546 0
M  V30 11630 C 1121.92 1.73933 -3.33803 0
M  V30 11631 C 1121.07 0.638542 -2.69848 0
M  V30 11632 H 1124.02 -0.105685 -1.58348 0
M  V30 11633 H 1124.04 2.10542 -3.16942 0
M  V30 11634 H 1123.55 0.415851 -3.85866 0
M  V30 11635 H 1121.65 2.58404 -2.68437 0
M  V30 11636 H 1121.76 1.84961 -4.41957 0
M  V30 11637 H 1120.13 1.07185 -2.31049 0
M  V30 11638 H 1120.91 -0.170356 -3.42877 0
M  V30 11639 N 1123.36 1.52689 0.390367 0
M  V30 11640 C 1124.29 1.73622 1.49626 0
M  V30 11641 C 1125.3 0.616682 1.50668 0
M  V30 11642 O 1126.49 0.892341 1.54595 0
M  V30 11643 C 1123.59 1.77859 2.88477 0
M  V30 11644 C 1122.76 3.07146 3.11416 0
M  V30 11645 C 1121.82 3.02949 4.30242 0
M  V30 11646 O 1120.85 3.76816 4.26613 0
M  V30 11647 N 1122.05 2.22039 5.36357 0
M  V30 11648 H 1124.82 2.69037 1.32057 0
M  V30 11649 H 1122.38 1.51159 0.579867 0
M  V30 11650 H 1124.37 1.72559 3.66067 0
M  V30 11651 H 1122.94 0.898367 2.99413 0
M  V30 11652 H 1122.16 3.25947 2.21703 0
M  V30 11653 H 1123.45 3.92637 3.23595 0
M  V30 11654 H 1122.84 1.6149 5.4216 0
M  V30 11655 H 1121.4 2.2258 6.12619 0
M  V30 11656 N 1124.83 -0.648732 1.43629 0
M  V30 11657 C 1126.06 -1.44117 1.49148 0
M  V30 11658 C 1126.48 -1.87767 0.111952 0
M  V30 11659 O 1125.84 -1.57655 -0.895249 0
M  V30 11660 C 1125.89 -2.64938 2.44623 0
M  V30 11661 O 1124.99 -3.64155 1.93559 0
M  V30 11662 H 1124.34 -0.431933 0.504312 0
M  V30 11663 H 1126.87 -0.793439 1.88589 0
M  V30 11664 H 1126.88 -3.12698 2.62076 0
M  V30 11665 H 1125.55 -2.3251 3.44836 0
M  V30 11666 H 1124.13 -3.23322 1.85789 0
M  V30 11667 N 1126.31 -1.30234 -0.887518 0
M  V30 11668 C 1127.22 -1.18316 -2.02579 0
M  V30 11669 C 1128.24 -0.103658 -1.73691 0
M  V30 11670 O 1129.41 -0.3181 -1.98872 0
M  V30 11671 C 1126.48 -0.873222 -3.35523 0
M  V30 11672 C 1125.54 -2.03783 -3.7785 0
M  V30 11673 C 1124.77 -1.74258 -5.0445 0
M  V30 11674 O 1125 -0.669295 -5.6646 0
M  V30 11675 O 1123.93 -2.59423 -5.43124 0
M  V30 11676 H 1127.76 -2.13933 -2.15561 0
M  V30 11677 H 1125.34 -1.09803 -1.0131 0
M  V30 11678 H 1127.22 -0.715463 -4.15282 0
M  V30 11679 H 1125.9 0.053056 -3.23657 0
M  V30 11680 H 1124.81 -2.2509 -2.98806 0
M  V30 11681 H 1126.14 -2.94574 -3.94318 0
M  V30 11682 N 1127.79 1.09952 -1.12909 0
M  V30 11683 C 1128.74 2.18525 -0.796849 0
M  V30 11684 C 1129.73 1.67985 0.218483 0
M  V30 11685 O 1130.94 1.79839 0.07618 0
M  V30 11686 H 1127.31 0.712714 -0.239882 0
M  V30 11687 H 1129.28 2.43783 -1.72083 0
M  V30 11688 C 1128.03 3.46625 -0.273237 0
M  V30 11689 H 1127.36 3.85879 -1.04582 0
M  V30 11690 H 1128.8 4.23926 -0.0791355 0
M  V30 11691 C 1127.26 3.2172 0.999903 0
M  V30 11692 O 1127.79 3.43851 2.07676 0
M  V30 11693 N 1125.99 2.75356 0.928833 0
M  V30 11694 H 1125.54 2.57547 0.052379 0
M  V30 11695 H 1125.5 2.5907 1.78129 0
M  V30 11696 N 1129.27 0.921757 1.27833 0
M  V30 11697 C 1130.68 0.604496 1.76643 0
M  V30 11698 C 1131.03 -0.880294 1.75343 0
M  V30 11699 O 1130.16 -1.68875 1.35315 0
M  V30 11700 C 1130.75 1.09055 3.20768 0
M  V30 11701 C 1129.31 0.824066 3.67268 0
M  V30 11702 C 1128.46 1.25269 2.47392 0
M  V30 11703 H 1131.41 1.10217 1.14184 0
M  V30 11704 H 1131.43 0.435558 3.77999 0
M  V30 11705 H 1130.94 2.17122 3.21682 0
M  V30 11706 H 1129.04 -0.243055 3.71806 0
M  V30 11707 H 1129.15 1.43743 4.57028 0
M  V30 11708 H 1127.52 0.671313 2.45694 0
M  V30 11709 H 1128.3 2.34188 2.5102 0
M  V30 11710 N 1130.75 -1.41857 0.686609 0
M  V30 11711 C 1131.71 -2.29187 0.0247022 0
M  V30 11712 C 1132.71 -1.43926 -0.717069 0
M  V30 11713 O 1133.9 -1.65179 -0.5533 0
M  V30 11714 C 1131.03 -3.26644 -0.975537 0
M  V30 11715 H 1132.22 -2.89212 0.793503 0
M  V30 11716 H 1129.78 -1.49694 0.449605 0
M  V30 11717 H 1130.51 -2.7158 -1.77242 0
M  V30 11718 H 1130.3 -3.89545 -0.446892 0
M  V30 11719 H 1131.79 -3.92107 -1.43673 0
M  V30 11720 N 1132.22 -0.430739 -1.51599 0
M  V30 11721 C 1133.45 0.136797 -2.06447 0
M  V30 11722 C 1133.87 1.37027 -1.29881 0
M  V30 11723 O 1133.22 1.78983 -0.356543 0
M  V30 11724 C 1133.28 0.465637 -3.58489 0
M  V30 11725 O 1133 -0.718873 -4.32162 0
M  V30 11726 C 1134.5 1.08456 -4.29828 0
M  V30 11727 H 1131.72 0.0108468 -0.670912 0
M  V30 11728 H 1134.26 -0.607921 -1.95255 0
M  V30 11729 H 1132.42 1.16025 -3.69617 0
M  V30 11730 H 1132.83 -0.439195 -5.22658 0
M  V30 11731 H 1134.3 1.2647 -5.37317 0
M  V30 11732 H 1134.78 2.06376 -3.87693 0
M  V30 11733 H 1135.39 0.429525 -4.23125 0
M  V30 11734 N 1133.7 1.56767 -0.161869 0
M  V30 11735 C 1134.67 2.16299 0.758104 0
M  V30 11736 C 1135.67 1.10859 1.16478 0
M  V30 11737 O 1136.86 1.36422 1.08327 0
M  V30 11738 C 1133.99 2.73819 2.03067 0
M  V30 11739 H 1135.18 2.98938 0.239992 0
M  V30 11740 H 1132.73 1.56054 0.0876532 0
M  V30 11741 H 1133.47 1.94887 2.59209 0
M  V30 11742 H 1133.25 3.50974 1.74813 0
M  V30 11743 H 1134.74 3.19638 2.68741 0
M  V30 11744 N 1135.18 -0.111886 1.57202 0
M  V30 11745 C 1136.43 -0.818411 1.85225 0
M  V30 11746 C 1136.76 -1.79542 0.747991 0
M  V30 11747 O 1136.01 -1.93965 -0.260013 0
M  V30 11748 C 1136.31 -1.59644 3.19763 0
M  V30 11749 C 1135.98 -0.76308 4.44396 0
M  V30 11750 C 1134.64 -0.53329 4.78236 0
M  V30 11751 C 1136.99 -0.18266 5.2088 0
M  V30 11752 C 1134.32 0.287056 5.85997 0
M  V30 11753 C 1136.67 0.624916 6.29506 0
M  V30 11754 C 1135.33 0.864955 6.61872 0
M  V30 11755 H 1134.6 -0.299478 0.677786 0
M  V30 11756 H 1137.25 -0.0805082 1.91331 0
M  V30 11757 H 1135.56 -2.40545 3.09266 0
M  V30 11758 H 1137.25 -2.1472 3.38669 0
M  V30 11759 H 1133.84 -0.952278 4.17887 0
M  V30 11760 H 1138.03 -0.34739 4.95083 0
M  V30 11761 H 1133.28 0.482179 6.09496 0
M  V30 11762 H 1137.46 1.08162 6.87949 0
M  V30 11763 H 1135.08 1.50244 7.45205 0
M  V30 11764 N 1136.66 -1.52894 -0.382264 0
M  V30 11765 C 1137.59 -1.74413 -1.48703 0
M  V30 11766 C 1138.6 -0.624663 -1.50339 0
M  V30 11767 O 1139.79 -0.900527 -1.54119 0
M  V30 11768 C 1136.89 -1.79387 -2.8753 0
M  V30 11769 C 1136.07 -3.08794 -3.09783 0
M  V30 11770 C 1135.12 -3.05226 -4.2863 0
M  V30 11771 O 1134.15 -3.79073 -4.24609 0
M  V30 11772 N 1135.35 -2.2488 -5.35172 0
M  V30 11773 H 1138.12 -2.69734 -1.30628 0
M  V30 11774 H 1135.68 -1.51465 -0.571842 0
M  V30 11775 H 1137.67 -1.74498 -3.65147 0
M  V30 11776 H 1136.24 -0.914233 -2.98932 0
M  V30 11777 H 1135.46 -3.27118 -2.19971 0
M  V30 11778 H 1136.75 -3.94347 -3.21509 0
M  V30 11779 H 1136.15 -1.64363 -5.41296 0
M  V30 11780 H 1134.7 -2.25825 -6.1143 0
M  V30 11781 N 1138.14 0.641106 -1.43971 0
M  V30 11782 C 1139.38 1.40291 -1.46445 0
M  V30 11783 C 1139.72 1.93978 -0.0929004 0
M  V30 11784 O 1138.99 1.73043 0.888043 0
M  V30 11785 C 1139.27 2.57551 -2.51673 0
M  V30 11786 C 1139.13 2.09279 -3.98149 0
M  V30 11787 C 1140.45 3.59752 -2.53508 0
M  V30 11788 H 1137.57 0.508771 -0.533218 0
M  V30 11789 H 1140.21 0.725767 -1.75592 0
M  V30 11790 H 1138.36 3.15319 -2.2695 0
M  V30 11791 H 1140.03 1.56418 -4.33971 0
M  V30 11792 H 1138.27 1.40545 -4.10402 0
M  V30 11793 H 1138.94 2.93655 -4.67409 0
M  V30 11794 H 1141.42 3.11766 -2.75574 0
M  V30 11795 H 1140.3 4.39332 -3.29057 0
M  V30 11796 H 1140.56 4.13156 -1.57335 0
M  V30 11797 N 1139.62 1.30703 0.880598 0
M  V30 11798 C 1140.55 1.1327 1.99255 0
M  V30 11799 C 1141.56 0.0747186 1.62628 0
M  V30 11800 O 1142.75 0.321169 1.75587 0
M  V30 11801 C 1139.85 0.706179 3.31461 0
M  V30 11802 C 1139.02 1.84687 3.96497 0
M  V30 11803 C 1138.08 1.40817 5.07008 0
M  V30 11804 O 1137.11 2.1161 5.28403 0
M  V30 11805 N 1138.31 0.289619 5.79777 0
M  V30 11806 H 1141.07 2.09043 2.14759 0
M  V30 11807 H 1138.64 1.22896 1.05395 0
M  V30 11808 H 1140.63 0.395617 4.02762 0
M  V30 11809 H 1139.2 -0.159631 3.12192 0
M  V30 11810 H 1138.42 2.32531 3.18312 0
M  V30 11811 H 1139.71 2.61117 4.36687 0
M  V30 11812 H 1139.1 -0.300177 5.64903 0
M  V30 11813 H 1137.66 0.0385346 6.51789 0
M  V30 11814 N 1141.09 -1.09351 1.1349 0
M  V30 11815 C 1142.06 -2.14185 0.815919 0
M  V30 11816 C 1143.06 -1.59845 -0.174976 0
M  V30 11817 O 1144.25 -1.74122 0.0521971 0
M  V30 11818 C 1141.38 -3.40224 0.214517 0
M  V30 11819 H 1142.57 -2.43913 1.74489 0
M  V30 11820 H 1140.12 -1.24902 0.939634 0
M  V30 11821 H 1140.86 -3.16123 -0.723634 0
M  V30 11822 H 1140.64 -3.80958 0.928102 0
M  V30 11823 H 1142.13 -4.17599 0.00821999 0
M  V30 11824 N 1142.57 -0.928524 -1.27343 0
M  V30 11825 C 1143.52 -0.418768 -2.28799 0
M  V30 11826 C 1144.51 0.497334 -1.61935 0
M  V30 11827 O 1145.72 0.376945 -1.76009 0
M  V30 11828 H 1142.09 -0.116855 -0.742865 0
M  V30 11829 H 1144.07 -1.28725 -2.69207 0
M  V30 11830 C 1142.81 0.312422 -3.46294 0
M  V30 11831 H 1142.14 -0.383317 -3.97958 0
M  V30 11832 H 1143.58 0.633514 -4.19241 0
M  V30 11833 C 1142.04 1.5257 -3.00373 0
M  V30 11834 O 1142.57 2.62443 -3.04116 0
M  V30 11835 N 1140.77 1.37782 -2.5586 0
M  V30 11836 H 1140.32 0.483908 -2.53014 0
M  V30 11837 H 1140.28 2.19085 -2.25498 0
M  V30 11838 N 1144.05 1.41491 -0.694123 0
M  V30 11839 C 1145 2.32594 -0.0164704 0
M  V30 11840 C 1145.99 1.50884 0.770086 0
M  V30 11841 O 1147.2 1.66829 0.675871 0
M  V30 11842 H 1143.57 0.751879 0.0134743 0
M  V30 11843 H 1145.54 2.87423 -0.80191 0
M  V30 11844 C 1144.29 3.35661 0.90703 0
M  V30 11845 H 1143.62 3.98587 0.311205 0
M  V30 11846 H 1145.06 4.0195 1.34952 0
M  V30 11847 C 1143.51 2.69436 2.02253 0
M  V30 11848 O 1144.04 2.54107 3.11115 0
M  V30 11849 N 1142.25 2.28154 1.79984 0
M  V30 11850 H 1141.8 2.40821 0.914492 0
M  V30 11851 H 1141.76 1.84178 2.54805 0
M  V30 11852 N 1145.53 0.438773 1.51369 0
M  V30 11853 C 1146.76 -0.125665 2.06217 0
M  V30 11854 C 1147.17 -1.36887 1.30609 0
M  V30 11855 O 1146.51 -1.80149 0.359433 0
M  V30 11856 C 1146.57 -0.511846 3.55838 0
M  V30 11857 C 1146.23 0.624755 4.52709 0
M  V30 11858 C 1147.23 1.49731 4.97872 0
M  V30 11859 C 1144.92 0.805895 4.95793 0
M  V30 11860 C 1146.91 2.53569 5.84792 0
M  V30 11861 C 1144.6 1.84755 5.82502 0
M  V30 11862 C 1145.6 2.71083 6.269 0
M  V30 11863 O 1145.28 3.7346 7.11887 0
M  V30 11864 H 1145.02 -0.0107227 0.675915 0
M  V30 11865 H 1147.57 0.617071 1.95912 0
M  V30 11866 H 1145.8 -1.30731 3.63932 0
M  V30 11867 H 1147.49 -1.0076 3.93195 0
M  V30 11868 H 1148.25 1.36891 4.65281 0
M  V30 11869 H 1144.13 0.14352 4.60777 0
M  V30 11870 H 1147.68 3.20984 6.19367 0
M  V30 11871 H 1143.57 1.97614 6.14507 0
M  V30 11872 H 1144.34 3.70058 7.30068 0
M  V30 11873 N 1147.01 -1.56678 0.170181 0
M  V30 11874 C 1147.95 -2.17909 -0.760556 0
M  V30 11875 C 1148.92 -1.11875 -1.22773 0
M  V30 11876 O 1150.11 -1.40021 -1.2961 0
M  V30 11877 C 1147.25 -2.82305 -1.9849 0
M  V30 11878 C 1146.36 -4.02796 -1.5614 0
M  V30 11879 C 1145.5 -4.55121 -2.73932 0
M  V30 11880 C 1144.53 -5.68025 -2.28067 0
M  V30 11881 N 1143.67 -6.14865 -3.38947 0
M  V30 11882 H 1148.51 -2.97098 -0.231629 0
M  V30 11883 H 1146.05 -1.46742 -0.102602 0
M  V30 11884 H 1148.01 -3.17797 -2.70298 0
M  V30 11885 H 1146.64 -2.05721 -2.48755 0
M  V30 11886 H 1145.69 -3.73131 -0.740097 0
M  V30 11887 H 1147 -4.84526 -1.18472 0
M  V30 11888 H 1146.15 -4.92789 -3.53898 0
M  V30 11889 H 1144.89 -3.72445 -3.14858 0
M  V30 11890 H 1143.9 -5.2991 -1.46546 0
M  V30 11891 H 1145.12 -6.52501 -1.88199 0
M  V30 11892 H 1143.07 -5.35119 -3.79452 0
M  V30 11893 H 1142.99 -6.91582 -3.05369 0
M  V30 11894 H 1144.25 -6.57183 -4.19203 0
M  V30 11895 N 1148.48 0.103547 -1.57259 0
M  V30 11896 C 1149.39 1.14475 -2.04774 0
M  V30 11897 C 1150.41 1.44385 -0.971025 0
M  V30 11898 O 1151.59 1.55195 -1.28361 0
M  V30 11899 C 1148.65 2.4475 -2.45558 0
M  V30 11900 C 1147.71 2.22098 -3.67384 0
M  V30 11901 C 1146.94 3.4616 -4.06213 0
M  V30 11902 O 1147.17 4.5407 -3.45219 0
M  V30 11903 O 1146.1 3.36248 -4.9922 0
M  V30 11904 H 1149.93 0.771211 -2.93745 0
M  V30 11905 H 1147.51 0.315456 -1.46032 0
M  V30 11906 H 1149.39 3.21476 -2.72454 0
M  V30 11907 H 1148.07 2.81547 -1.59728 0
M  V30 11908 H 1146.98 1.43179 -3.45616 0
M  V30 11909 H 1148.31 1.90197 -4.53967 0
M  V30 11910 N 1149.96 1.53094 0.37415 0
M  V30 11911 C 1150.89 1.81901 1.46404 0
M  V30 11912 C 1151.87 0.671949 1.56265 0
M  V30 11913 O 1153.06 0.920978 1.70973 0
M  V30 11914 C 1150.19 2.00123 2.83845 0
M  V30 11915 C 1149.14 3.15864 2.88814 0
M  V30 11916 C 1148.47 3.19364 4.28848 0
M  V30 11917 C 1149.77 4.54633 2.57112 0
M  V30 11918 H 1151.46 2.73172 1.22546 0
M  V30 11919 H 1149.01 1.31444 0.588087 0
M  V30 11920 H 1150.96 2.18859 3.6011 0
M  V30 11921 H 1149.68 1.05555 3.09072 0
M  V30 11922 H 1148.34 2.96935 2.15 0
M  V30 11923 H 1147.99 2.2245 4.51137 0
M  V30 11924 H 1147.69 3.97123 4.3309 0
M  V30 11925 H 1149.22 3.40273 5.06997 0
M  V30 11926 H 1150.63 4.73587 3.23091 0
M  V30 11927 H 1149.03 5.34569 2.72683 0
M  V30 11928 H 1150.1 4.60331 1.52392 0
M  V30 11929 N 1151.44 -0.633461 1.44309 0
M  V30 11930 C 1152.37 -1.7583 1.45462 0
M  V30 11931 C 1153.35 -1.59545 0.313723 0
M  V30 11932 O 1154.53 -1.8146 0.51034 0
M  V30 11933 C 1151.66 -3.13375 1.28506 0
M  V30 11934 C 1150.71 -3.48315 2.46128 0
M  V30 11935 S 1151.54 -3.46058 4.08662 0
M  V30 11936 C 1152.7 -4.86226 3.94125 0
M  V30 11937 H 1152.93 -1.74585 2.4064 0
M  V30 11938 H 1150.46 -0.807868 1.31578 0
M  V30 11939 H 1152.42 -3.92748 1.19411 0
M  V30 11940 H 1151.08 -3.12161 0.348432 0
M  V30 11941 H 1150.27 -4.48397 2.30122 0
M  V30 11942 H 1149.88 -2.76399 2.51951 0
M  V30 11943 H 1152.17 -5.75393 3.57671 0
M  V30 11944 H 1153.11 -5.07287 4.9403 0
M  V30 11945 H 1153.52 -4.60691 3.26227 0
M  V30 11946 N 1152.92 -1.31168 -0.873655 0
M  V30 11947 C 1153.87 -1.18507 -1.98052 0
M  V30 11948 C 1154.84 -0.0717583 -1.65945 0
M  V30 11949 O 1156.02 -0.243965 -1.89234 0
M  V30 11950 C 1153.16 -0.894571 -3.33304 0
M  V30 11951 C 1152.27 -2.09086 -3.7803 0
M  V30 11952 C 1151.41 -1.73747 -5.01982 0
M  V30 11953 C 1150.45 -2.89805 -5.39147 0
M  V30 11954 N 1149.58 -2.54686 -6.54278 0
M  V30 11955 H 1154.42 -2.13193 -2.08213 0
M  V30 11956 H 1151.96 -1.06056 -1.01934 0
M  V30 11957 H 1153.92 -0.706714 -4.11171 0
M  V30 11958 H 1152.55 0.0154449 -3.22796 0
M  V30 11959 H 1151.6 -2.38961 -2.95976 0
M  V30 11960 H 1152.91 -2.95963 -4.01506 0
M  V30 11961 H 1152.07 -1.51402 -5.87505 0
M  V30 11962 H 1150.81 -0.840553 -4.80402 0
M  V30 11963 H 1149.81 -3.12803 -4.52144 0
M  V30 11964 H 1151.04 -3.802 -5.62694 0
M  V30 11965 H 1148.98 -1.67513 -6.34252 0
M  V30 11966 H 1148.9 -3.35093 -6.77679 0
M  V30 11967 H 1150.17 -2.35725 -7.43003 0
M  V30 11968 N 1154.4 1.08748 -1.14068 0
M  V30 11969 C 1155.65 1.8044 -0.901352 0
M  V30 11970 C 1155.96 1.86995 0.573791 0
M  V30 11971 O 1157.16 2.55065 0.930275 0
M  V30 11972 C 1155.62 3.24185 -1.56308 0
M  V30 11973 C 1155.23 3.25875 -3.07424 0
M  V30 11974 C 1156.97 4.00584 -1.40473 0
M  V30 11975 C 1154.88 4.64186 -3.66449 0
M  V30 11976 H 1153.81 0.676201 -0.333569 0
M  V30 11977 H 1156.46 1.22169 -1.3692 0
M  V30 11978 H 1154.84 3.82561 -1.0229 0
M  V30 11979 H 1156.02 2.77225 -3.6808 0
M  V30 11980 H 1154.33 2.62969 -3.22856 0
M  V30 11981 H 1156.93 5.02781 -1.81976 0
M  V30 11982 H 1157.27 4.14823 -0.350408 0
M  V30 11983 H 1157.8 3.48668 -1.91508 0
M  V30 11984 H 1154.54 4.5515 -4.71719 0
M  V30 11985 H 1154.06 5.13132 -3.10574 0
M  V30 11986 H 1155.74 5.33161 -3.66536 0
M  V30 11987 N 1155.87 0.935264 1.26849 0
M  V30 11988 C 1157.11 0.587087 1.95787 0
M  V30 11989 C 1157.48 -0.856974 1.71814 0
M  V30 11990 O 1158.68 -1.3138 2.34505 0
M  V30 11991 C 1156.95 0.91303 3.45541 0
M  V30 11992 S 1158.51 0.674506 4.33585 0
M  V30 11993 H 1155.33 0.216442 0.677255 0
M  V30 11994 H 1157.93 1.20532 1.53923 0
M  V30 11995 H 1156.63 1.96154 3.60488 0
M  V30 11996 H 1156.16 0.28429 3.92371 0
M  V30 11997 H 1158.18 -0.464121 4.94025 0
M  V30 11998 N 1157.35 -1.41121 0.701616 0
M  V30 11999 C 1158.28 -2.33436 0.0545974 0
M  V30 12000 C 1159.26 -1.52144 -0.760662 0
M  V30 12001 O 1160.45 -1.80661 -0.712414 0
M  V30 12002 C 1157.58 -3.36015 -0.878117 0
M  V30 12003 C 1156.53 -4.27664 -0.169511 0
M  V30 12004 C 1155.86 -5.20666 -1.21699 0
M  V30 12005 C 1157.16 -5.13254 0.967859 0
M  V30 12006 H 1158.85 -2.87791 0.825637 0
M  V30 12007 H 1156.4 -1.38377 0.398484 0
M  V30 12008 H 1158.35 -3.99526 -1.34004 0
M  V30 12009 H 1157.08 -2.80024 -1.68089 0
M  V30 12010 H 1155.73 -3.65586 0.272441 0
M  V30 12011 H 1155.38 -4.60987 -2.01246 0
M  V30 12012 H 1155.08 -5.82822 -0.747836 0
M  V30 12013 H 1156.61 -5.87053 -1.6793 0
M  V30 12014 H 1158.02 -5.70298 0.585944 0
M  V30 12015 H 1156.42 -5.84381 1.3645 0
M  V30 12016 H 1157.49 -4.5006 1.80483 0
M  V30 12017 N 1158.83 -0.446794 -1.51134 0
M  V30 12018 C 1159.79 0.348311 -2.26538 0
M  V30 12019 C 1160.79 0.941566 -1.3035 0
M  V30 12020 O 1161.98 0.814537 -1.53984 0
M  V30 12021 C 1159.12 1.49371 -3.06433 0
M  V30 12022 H 1160.31 -0.312648 -2.98266 0
M  V30 12023 H 1157.86 -0.200201 -1.55013 0
M  V30 12024 H 1158.6 2.19045 -2.39144 0
M  V30 12025 H 1158.38 1.07439 -3.77093 0
M  V30 12026 H 1159.87 2.05522 -3.63525 0
M  V30 12027 N 1160.31 1.56586 -0.178487 0
M  V30 12028 C 1161.26 2.19631 0.765822 0
M  V30 12029 C 1162.25 1.16247 1.23219 0
M  V30 12030 O 1163.46 1.34431 1.19701 0
M  V30 12031 H 1159.83 0.703661 0.265264 0
M  V30 12032 H 1161.8 2.97659 0.210207 0
M  V30 12033 C 1160.55 2.85686 1.98188 0
M  V30 12034 H 1159.87 3.64971 1.63206 0
M  V30 12035 H 1161.31 3.33259 2.62134 0
M  V30 12036 C 1159.77 1.85837 2.81009 0
M  V30 12037 O 1160.3 1.3483 3.78396 0
M  V30 12038 N 1158.51 1.54435 2.46167 0
M  V30 12039 H 1158.06 1.96107 1.67032 0
M  V30 12040 H 1158.01 0.878808 3.01868 0
M  V30 12041 N 1161.79 -0.095206 1.57312 0
M  V30 12042 C 1163.2 -0.649733 1.7503 0
M  V30 12043 C 1163.55 -1.7912 0.800652 0
M  V30 12044 O 1162.67 -2.1639 -0.0208831 0
M  V30 12045 C 1163.27 -1.18541 3.17386 0
M  V30 12046 C 1161.83 -1.686 3.36528 0
M  V30 12047 C 1160.97 -0.595531 2.7083 0
M  V30 12048 H 1163.93 0.130863 1.5816 0
M  V30 12049 H 1163.95 -2.05473 3.20252 0
M  V30 12050 H 1163.46 -0.35441 3.86478 0
M  V30 12051 H 1161.56 -2.541 2.72514 0
M  V30 12052 H 1161.67 -1.77907 4.44844 0
M  V30 12053 H 1160.04 -1.03495 2.32725 0
M  V30 12054 H 1160.82 0.224883 3.42563 0
M  V30 12055 N 1163.26 -1.53291 -0.366026 0
M  V30 12056 C 1164.21 -1.80367 -1.4687 0
M  V30 12057 C 1165.21 -0.672767 -1.55468 0
M  V30 12058 O 1166.41 -0.8557 -1.5836 0
M  V30 12059 H 1162.79 -0.571076 -0.48926 0
M  V30 12060 H 1164.76 -2.72661 -1.21237 0
M  V30 12061 C 1163.51 -2.01008 -2.8371 0
M  V30 12062 H 1162.83 -2.87468 -2.77853 0
M  V30 12063 H 1164.27 -2.2393 -3.60043 0
M  V30 12064 C 1162.73 -0.789054 -3.27529 0
M  V30 12065 O 1163.26 0.0224712 -4.01694 0
M  V30 12066 N 1161.47 -0.612621 -2.84069 0
M  V30 12067 H 1161.01 -1.27416 -2.23881 0
M  V30 12068 H 1160.97 0.202943 -3.13744 0
M  V30 12069 N 1164.74 0.6258 -1.44643 0
M  V30 12070 C 1165.98 1.39676 -1.49232 0
M  V30 12071 C 1166.35 1.91601 -0.123682 0
M  V30 12072 O 1167.55 2.68764 -0.0442486 0
M  V30 12073 C 1165.82 2.52704 -2.52736 0
M  V30 12074 S 1167.38 3.40795 -2.76413 0
M  V30 12075 H 1164.2 0.476436 -0.527759 0
M  V30 12076 H 1166.8 0.72394 -1.81602 0
M  V30 12077 H 1165.5 2.12876 -3.50873 0
M  V30 12078 H 1165.03 3.24806 -2.21956 0
M  V30 12079 H 1167.05 4.5031 -2.08412 0
M  V30 12080 N 1166.22 1.31629 0.866686 0
M  V30 12081 C 1167.17 1.19492 1.99561 0
M  V30 12082 C 1168.16 0.102456 1.6909 0
M  V30 12083 O 1169.37 0.264571 1.78045 0
M  V30 12084 H 1165.74 0.370071 0.654638 0
M  V30 12085 H 1167.71 2.14996 2.06928 0
M  V30 12086 C 1166.46 0.92246 3.3524 0
M  V30 12087 H 1165.79 1.75524 3.59209 0
M  V30 12088 H 1167.23 0.877726 4.14816 0
M  V30 12089 C 1165.69 -0.374803 3.34809 0
M  V30 12090 O 1166.22 -1.39055 3.76864 0
M  V30 12091 N 1164.42 -0.392506 2.87937 0
M  V30 12092 H 1163.97 0.434591 2.53908 0
M  V30 12093 H 1163.93 -1.26038 2.88031 0
M  V30 12094 N 1167.7 -1.08142 1.14644 0
M  V30 12095 C 1168.93 -1.84318 0.939926 0
M  V30 12096 C 1169.34 -1.81735 -0.511636 0
M  V30 12097 O 1168.7 -1.22297 -1.35461 0
M  V30 12098 C 1168.75 -3.31744 1.43625 0
M  V30 12099 O 1168.47 -3.3435 2.83094 0
M  V30 12100 C 1169.97 -4.24717 1.27007 0
M  V30 12101 H 1167.19 -0.581781 0.334323 0
M  V30 12102 H 1169.74 -1.36561 1.52221 0
M  V30 12103 H 1167.89 -3.7688 0.896664 0
M  V30 12104 H 1168.31 -4.26399 3.05425 0
M  V30 12105 H 1169.78 -5.26262 1.66591 0
M  V30 12106 H 1170.26 -4.38682 0.213257 0
M  V30 12107 H 1170.86 -3.85409 1.79833 0
M  V30 12108 N 1169.18 -0.941978 -1.26351 0
M  V30 12109 C 1170.42 -0.589971 -1.93715 0
M  V30 12110 C 1170.75 0.871085 -1.73903 0
M  V30 12111 O 1170.01 1.63864 -1.06991 0
M  V30 12112 C 1170.31 -0.879481 -3.4641 0
M  V30 12113 C 1169.97 -2.32454 -3.86362 0
M  V30 12114 C 1168.63 -2.71957 -3.9698 0
M  V30 12115 C 1170.99 -3.2636 -4.06373 0
M  V30 12116 C 1168.31 -4.04459 -4.25006 0
M  V30 12117 C 1170.67 -4.58459 -4.35887 0
M  V30 12118 C 1169.33 -4.97775 -4.4472 0
M  V30 12119 H 1168.6 -0.215886 -0.708854 0
M  V30 12120 H 1171.25 -1.18863 -1.50146 0
M  V30 12121 H 1169.55 -0.198289 -3.91298 0
M  V30 12122 H 1171.25 -0.585887 -3.96697 0
M  V30 12123 H 1167.84 -2.00814 -3.78645 0
M  V30 12124 H 1172.02 -2.97037 -3.97596 0
M  V30 12125 H 1167.28 -4.34582 -4.30057 0
M  V30 12126 H 1171.45 -5.31213 -4.50317 0
M  V30 12127 H 1169.08 -6.00475 -4.66191 0
M  V30 12128 N 1170.66 1.40747 -0.709091 0
M  V30 12129 C 1171.9 2.013 -0.246174 0
M  V30 12130 C 1172.23 1.56078 1.15556 0
M  V30 12131 O 1171.51 0.777941 1.78265 0
M  V30 12132 C 1171.79 3.58685 -0.318945 0
M  V30 12133 C 1171.65 4.13997 -1.75859 0
M  V30 12134 C 1172.96 4.38981 0.31358 0
M  V30 12135 H 1170.08 0.73137 -0.0909255 0
M  V30 12136 H 1172.73 1.67312 -0.900365 0
M  V30 12137 H 1170.88 3.8777 0.23805 0
M  V30 12138 H 1172.55 3.95735 -2.37047 0
M  V30 12139 H 1170.79 3.6853 -2.28841 0
M  V30 12140 H 1171.46 5.23158 -1.76095 0
M  V30 12141 H 1173.94 4.15789 -0.160939 0
M  V30 12142 H 1172.81 5.48409 0.232184 0
M  V30 12143 H 1173.07 4.19474 1.39621 0
M  V30 12144 N 1172.13 0.454803 1.50895 0
M  V30 12145 C 1173.07 -0.393395 2.24784 0
M  V30 12146 C 1174.04 -1.01005 1.27424 0
M  V30 12147 O 1175.23 -1.04914 1.56605 0
M  V30 12148 C 1172.36 -1.54978 3.01164 0
M  V30 12149 C 1171.4 -1.0521 4.1332 0
M  V30 12150 S 1172.23 0.0200486 5.35496 0
M  V30 12151 C 1173.39 -1.14059 6.1542 0
M  V30 12152 H 1173.62 0.233864 2.96379 0
M  V30 12153 H 1171.16 0.239498 1.52531 0
M  V30 12154 H 1173.11 -2.21262 3.45765 0
M  V30 12155 H 1171.78 -2.1485 2.29125 0
M  V30 12156 H 1170.97 -1.91734 4.66105 0
M  V30 12157 H 1170.57 -0.467234 3.7107 0
M  V30 12158 H 1172.86 -2.05552 6.45565 0
M  V30 12159 H 1173.81 -0.652339 7.05089 0
M  V30 12160 H 1174.21 -1.38705 5.47194 0
M  V30 12161 N 1173.61 -1.56489 0.186789 0
M  V30 12162 C 1174.86 -1.98399 -0.448244 0
M  V30 12163 C 1175.21 -1.07139 -1.59809 0
M  V30 12164 O 1174.51 -0.114119 -1.9126 0
M  V30 12165 C 1174.7 -3.44145 -0.964315 0
M  V30 12166 C 1174.53 -4.495 0.133992 0
M  V30 12167 C 1173.3 -5.01857 0.588851 0
M  V30 12168 C 1175.5 -5.05637 0.939971 0
M  V30 12169 N 1173.48 -5.90866 1.66585 0
M  V30 12170 C 1174.85 -5.91236 1.86655 0
M  V30 12171 C 1176.9 -4.88093 0.983319 0
M  V30 12172 C 1175.61 -6.61167 2.83286 0
M  V30 12173 C 1177.63 -5.58757 1.93764 0
M  V30 12174 C 1177 -6.44096 2.85167 0
M  V30 12175 H 1173.09 -0.770833 -0.131684 0
M  V30 12176 H 1175.68 -1.9252 0.290571 0
M  V30 12177 H 1173.85 -3.50541 -1.6726 0
M  V30 12178 H 1175.58 -3.73036 -1.56926 0
M  V30 12179 H 1172.34 -4.73244 0.183712 0
M  V30 12180 H 1172.76 -6.40075 2.2053 0
M  V30 12181 H 1177.4 -4.218 0.290658 0
M  V30 12182 H 1175.12 -7.26664 3.53532 0
M  V30 12183 H 1178.71 -5.47163 1.97748 0
M  V30 12184 H 1177.59 -6.97813 3.57808 0
M  V30 12185 N 1175.09 0.086862 -1.5736 0
M  V30 12186 C 1176.34 0.787281 -1.86135 0
M  V30 12187 C 1176.66 1.78866 -0.776667 0
M  V30 12188 O 1175.93 1.94915 0.19625 0
M  V30 12189 H 1174.51 0.293744 -0.686821 0
M  V30 12190 H 1177.17 0.0665326 -1.94786 0
M  V30 12191 H 1176.27 1.3128 -2.83147 0
M  V30 12192 N 1176.57 1.53483 0.357892 0
M  V30 12193 C 1177.81 1.70037 1.09971 0
M  V30 12194 C 1178.14 0.456112 1.89076 0
M  V30 12195 O 1177.4 -0.562029 1.87456 0
M  V30 12196 C 1177.7 2.90654 2.07978 0
M  V30 12197 C 1177.36 4.26849 1.45295 0
M  V30 12198 C 1176.02 4.63884 1.27928 0
M  V30 12199 C 1178.38 5.11514 1.00013 0
M  V30 12200 C 1175.7 5.83213 0.638745 0
M  V30 12201 C 1178.06 6.31496 0.373568 0
M  V30 12202 C 1176.72 6.67237 0.187457 0
M  V30 12203 H 1175.99 0.622209 0.402414 0
M  V30 12204 H 1178.64 1.87679 0.380615 0
M  V30 12205 H 1176.94 2.67556 2.86219 0
M  V30 12206 H 1178.64 3.00656 2.65343 0
M  V30 12207 H 1175.23 3.97693 1.59807 0
M  V30 12208 H 1179.41 4.83446 1.12221 0
M  V30 12209 H 1174.67 6.09489 0.483035 0
M  V30 12210 H 1178.84 6.96398 0.0145346 0
M  V30 12211 H 1176.47 7.59564 -0.310933 0
M  V30 12212 N 1178.05 -0.61812 1.44973 0
M  V30 12213 C 1179.27 -1.40429 1.51945 0
M  V30 12214 C 1179.69 -1.88215 0.148556 0
M  V30 12215 O 1179.05 -1.61603 -0.847978 0
M  V30 12216 C 1179.1 -2.61588 2.49507 0
M  V30 12217 O 1178.82 -2.15791 3.81269 0
M  V30 12218 C 1180.32 -3.5457 2.66074 0
M  V30 12219 H 1177.54 -0.43023 0.514921 0
M  V30 12220 H 1180.08 -0.754791 1.90061 0
M  V30 12221 H 1178.24 -3.22602 2.14492 0
M  V30 12222 H 1178.65 -2.94434 4.34061 0
M  V30 12223 H 1180.13 -4.36155 3.38338 0
M  V30 12224 H 1180.6 -4.04227 1.71746 0
M  V30 12225 H 1181.21 -2.99416 3.02043 0
M  V30 12226 N 1179.52 -1.32087 -0.859693 0
M  V30 12227 C 1180.8 -1.12984 -1.59668 0
M  V30 12228 C 1181.18 0.311661 -2.08787 0
M  V30 12229 O 1180.53 1.30746 -1.87397 0
M  V30 12230 C 1180.74 -2.15305 -2.74672 0
M  V30 12231 C 1182.09 -2.48371 -3.44379 0
M  V30 12232 O 1183.11 -2.13811 -2.84891 0
M  V30 12233 O 1181.97 -3.07594 -4.51717 0
M  V30 12234 H 1179.06 -0.435657 -0.702945 0
M  V30 12235 H 1181.61 -1.43601 -0.90426 0
M  V30 12236 H 1180.38 -3.12223 -2.35866 0
M  V30 12237 H 1180 -1.85653 -3.51594 0
M  V30 12238 N 1181 1.07532 -1.15215 0
M  V30 12239 C 1181.95 2.14687 -0.847243 0
M  V30 12240 C 1182.92 1.64903 0.199043 0
M  V30 12241 O 1184.1 1.90682 0.0669986 0
M  V30 12242 C 1181.24 3.43414 -0.340673 0
M  V30 12243 C 1180.36 4.06999 -1.44831 0
M  V30 12244 C 1179.49 5.23554 -0.898059 0
M  V30 12245 C 1178.53 5.79097 -1.98276 0
M  V30 12246 N 1177.67 6.86985 -1.44902 0
M  V30 12247 H 1182.51 2.4011 -1.76498 0
M  V30 12248 H 1180.04 1.17823 -0.880689 0
M  V30 12249 H 1182 4.1719 -0.0286956 0
M  V30 12250 H 1180.63 3.18249 0.540144 0
M  V30 12251 H 1179.68 3.30895 -1.87651 0
M  V30 12252 H 1181 4.44289 -2.26735 0
M  V30 12253 H 1180.15 6.04305 -0.538514 0
M  V30 12254 H 1178.89 4.87676 -0.0481752 0
M  V30 12255 H 1177.89 4.96992 -2.35115 0
M  V30 12256 H 1179.12 6.1703 -2.83639 0
M  V30 12257 H 1177.07 6.5305 -0.621468 0
M  V30 12258 H 1176.98 7.23149 -2.20434 0
M  V30 12259 H 1178.25 7.71446 -1.11767 0
M  V30 12260 N 1182.48 0.948665 1.2585 0
M  V30 12261 C 1183.71 0.616334 1.97193 0
M  V30 12262 C 1184.12 -0.814538 1.70769 0
M  V30 12263 O 1183.46 -1.55569 0.976926 0
M  V30 12264 C 1183.52 0.787814 3.50762 0
M  V30 12265 C 1183.19 2.19472 4.0085 0
M  V30 12266 C 1184.18 3.17087 4.12009 0
M  V30 12267 C 1181.87 2.51731 4.34669 0
M  V30 12268 C 1183.86 4.45058 4.56292 0
M  V30 12269 C 1181.55 3.79932 4.78639 0
M  V30 12270 C 1182.55 4.76408 4.89412 0
M  V30 12271 O 1182.24 6.02325 5.32409 0
M  V30 12272 H 1181.97 0.230487 0.635493 0
M  V30 12273 H 1184.52 1.27379 1.61133 0
M  V30 12274 H 1182.75 0.0732154 3.86631 0
M  V30 12275 H 1184.44 0.457427 4.03314 0
M  V30 12276 H 1185.21 2.9349 3.8612 0
M  V30 12277 H 1181.09 1.77369 4.25513 0
M  V30 12278 H 1184.63 5.20363 4.64616 0
M  V30 12279 H 1180.53 4.03338 5.03973 0
M  V30 12280 H 1181.3 6.05615 5.50611 0
M  V30 12281 N 1183.96 -1.40369 0.716545 0
M  V30 12282 C 1185.19 -2.05181 0.266143 0
M  V30 12283 C 1185.6 -1.53988 -1.09239 0
M  V30 12284 O 1184.96 -0.696859 -1.68672 0
M  V30 12285 C 1185.01 -3.60713 0.238384 0
M  V30 12286 O 1184.73 -4.10018 1.54328 0
M  V30 12287 C 1186.23 -4.42701 -0.230453 0
M  V30 12288 H 1183.45 -0.66028 0.119463 0
M  V30 12289 H 1186 -1.7976 0.97502 0
M  V30 12290 H 1184.15 -3.85101 -0.421466 0
M  V30 12291 H 1184.56 -5.0422 1.4444 0
M  V30 12292 H 1186.04 -5.51642 -0.198728 0
M  V30 12293 H 1186.52 -4.20354 -1.27276 0
M  V30 12294 H 1187.12 -4.23423 0.399155 0
M  V30 12295 N 1185.44 -0.462799 -1.50652 0
M  V30 12296 C 1186.68 0.0873392 -2.03212 0
M  V30 12297 C 1187.04 1.38147 -1.33915 0
M  V30 12298 O 1186.33 1.86161 -0.453286 0
M  V30 12299 C 1186.52 0.335294 -3.55824 0
M  V30 12300 C 1186.35 -0.933253 -4.3991 0
M  V30 12301 C 1185.12 -1.47417 -4.83318 0
M  V30 12302 C 1187.32 -1.8264 -4.80777 0
M  V30 12303 N 1185.3 -2.6926 -5.51699 0
M  V30 12304 C 1186.67 -2.89075 -5.48485 0
M  V30 12305 C 1188.73 -1.83778 -4.62742 0
M  V30 12306 C 1187.43 -3.96625 -6.00067 0
M  V30 12307 C 1189.46 -2.90279 -5.15259 0
M  V30 12308 C 1188.82 -3.95433 -5.82934 0
M  V30 12309 H 1184.92 -0.00785676 -0.781961 0
M  V30 12310 H 1187.5 -0.629156 -1.84254 0
M  V30 12311 H 1185.67 1.02083 -3.74745 0
M  V30 12312 H 1187.41 0.879039 -3.95038 0
M  V30 12313 H 1184.16 -1.02451 -4.62386 0
M  V30 12314 H 1184.59 -3.31115 -5.90502 0
M  V30 12315 H 1189.23 -1.03802 -4.0986 0
M  V30 12316 H 1186.95 -4.77424 -6.51991 0
M  V30 12317 H 1190.53 -2.92133 -5.0314 0
M  V30 12318 H 1189.41 -4.76487 -6.2284 0
M  V30 12319 N 1186.91 1.56388 -0.195085 0
M  V30 12320 C 1188.16 1.96755 0.443901 0
M  V30 12321 C 1188.48 1.08483 1.6276 0
M  V30 12322 O 1189.68 1.38632 2.33438 0
M  V30 12323 C 1188.14 3.49933 0.841139 0
M  V30 12324 C 1187.75 4.46868 -0.318275 0
M  V30 12325 C 1189.49 3.99069 1.44721 0
M  V30 12326 C 1187.4 5.91316 0.0999211 0
M  V30 12327 H 1186.33 0.734674 0.169616 0
M  V30 12328 H 1188.98 1.8124 -0.287101 0
M  V30 12329 H 1187.36 3.60951 1.62881 0
M  V30 12330 H 1188.53 4.47581 -1.0958 0
M  V30 12331 H 1186.85 4.07925 -0.835842 0
M  V30 12332 H 1189.45 5.04465 1.77255 0
M  V30 12333 H 1189.79 3.43376 2.35369 0
M  V30 12334 H 1190.32 3.91165 0.723513 0
M  V30 12335 H 1187.06 6.50934 -0.77237 0
M  V30 12336 H 1186.58 5.93856 0.842304 0
M  V30 12337 H 1188.26 6.44778 0.535726 0
M  V30 12338 N 1188.39 -0.0785156 1.57404 0
M  V30 12339 C 1189.8 -0.631132 1.75709 0
M  V30 12340 C 1190.15 -1.78261 0.819605 0
M  V30 12341 O 1189.28 -2.164 0.00206912 0
M  V30 12342 C 1189.87 -1.15168 3.18625 0
M  V30 12343 C 1188.43 -1.65021 3.38297 0
M  V30 12344 C 1187.58 -0.566773 2.71446 0
M  V30 12345 H 1190.53 0.147631 1.58012 0
M  V30 12346 H 1190.55 -2.02065 3.22413 0
M  V30 12347 H 1190.06 -0.313399 3.86833 0
M  V30 12348 H 1188.17 -2.51196 2.75194 0
M  V30 12349 H 1188.28 -1.73179 4.46706 0
M  V30 12350 H 1186.64 -1.01021 2.33809 0
M  V30 12351 H 1187.43 0.261204 3.42305 0
M  V30 12352 N 1189.87 -1.5367 -0.349747 0
M  V30 12353 C 1191.12 -1.70281 -1.08853 0
M  V30 12354 C 1191.44 -0.465438 -1.89364 0
M  V30 12355 O 1190.71 0.520615 -1.88856 0
M  V30 12356 H 1189.29 -0.627775 -0.404854 0
M  V30 12357 H 1191.95 -1.90906 -0.392523 0
M  V30 12358 H 1191.05 -2.57096 -1.76941 0
M  V30 12359 N 1191.35 0.610423 -1.45298 0
M  V30 12360 C 1192.58 1.39621 -1.52688 0
M  V30 12361 C 1192.99 1.88133 -0.158535 0
M  V30 12362 O 1192.35 1.62051 0.839396 0
M  V30 12363 C 1192.4 2.60261 -2.50891 0
M  V30 12364 O 1192.12 2.13766 -3.82408 0
M  V30 12365 C 1193.62 3.53154 -2.6795 0
M  V30 12366 H 1190.84 0.427493 -0.517195 0
M  V30 12367 H 1193.39 0.744701 -1.90459 0
M  V30 12368 H 1191.54 3.2146 -2.162 0
M  V30 12369 H 1191.95 2.92128 -4.35616 0
M  V30 12370 H 1193.43 4.34355 -3.40647 0
M  V30 12371 H 1193.91 4.03311 -1.73888 0
M  V30 12372 H 1194.51 2.9781 -3.03627 0
M  V30 12373 N 1192.83 1.32541 0.852676 0
M  V30 12374 C 1194.07 1.23214 1.607 0
M  V30 12375 C 1194.4 -0.205542 1.93411 0
M  V30 12376 O 1193.66 -1.15907 1.57683 0
M  V30 12377 C 1193.96 2.039 2.9353 0
M  V30 12378 C 1193.62 3.53237 2.8024 0
M  V30 12379 C 1192.28 3.93953 2.76323 0
M  V30 12380 C 1194.64 4.48194 2.6603 0
M  V30 12381 C 1191.96 5.27865 2.56077 0
M  V30 12382 C 1194.32 5.82251 2.47319 0
M  V30 12383 C 1192.98 6.22166 2.41796 0
M  V30 12384 H 1192.25 0.450873 0.588043 0
M  V30 12385 H 1194.9 1.63988 0.988954 0
M  V30 12386 H 1193.2 1.55861 3.59464 0
M  V30 12387 H 1194.9 1.94051 3.50921 0
M  V30 12388 H 1191.49 3.209 2.84114 0
M  V30 12389 H 1195.67 4.17656 2.681 0
M  V30 12390 H 1190.93 5.57845 2.50237 0
M  V30 12391 H 1195.1 6.55442 2.35305 0
M  V30 12392 H 1192.73 7.2587 2.25868 0
M  V30 12393 N 1194.3 -1.0692 1.15784 0
M  V30 12394 C 1195.72 -1.61069 0.944123 0
M  V30 12395 C 1196.07 -1.8936 -0.513522 0
M  V30 12396 O 1195.19 -1.66232 -1.38549 0
M  V30 12397 C 1195.79 -2.9263 1.70743 0
M  V30 12398 C 1194.35 -3.43505 1.53887 0
M  V30 12399 C 1193.49 -2.17495 1.72021 0
M  V30 12400 H 1196.44 -0.89951 1.30746 0
M  V30 12401 H 1196.46 -3.61757 1.17951 0
M  V30 12402 H 1195.98 -2.72007 2.76828 0
M  V30 12403 H 1194.08 -3.69201 0.502153 0
M  V30 12404 H 1194.19 -4.19254 2.31868 0
M  V30 12405 H 1192.55 -2.27407 1.1471 0
M  V30 12406 H 1193.34 -1.99362 2.79481 0
M  V30 12407 N 1195.78 -0.955326 -1.25345 0
M  V30 12408 C 1197.03 -0.609278 -1.92697 0
M  V30 12409 C 1197.35 0.856535 -1.75181 0
M  V30 12410 O 1196.62 1.61013 -1.11587 0
M  V30 12411 H 1195.2 -0.22235 -0.713141 0
M  V30 12412 H 1197.86 -1.21372 -1.52496 0
M  V30 12413 H 1196.96 -0.839198 -3.00606 0
M  V30 12414 N 1197.26 1.39987 -0.723979 0
M  V30 12415 C 1198.49 2.0474 -0.276618 0
M  V30 12416 C 1198.9 1.54675 1.0896 0
M  V30 12417 O 1198.24 0.701956 1.69759 0
M  V30 12418 C 1198.3 3.59009 -0.187912 0
M  V30 12419 C 1197.97 4.32 -1.49079 0
M  V30 12420 C 1198.97 4.59385 -2.43436 0
M  V30 12421 C 1196.65 4.70753 -1.75204 0
M  V30 12422 C 1198.64 5.24519 -3.62159 0
M  V30 12423 C 1196.33 5.35617 -2.94206 0
M  V30 12424 C 1197.33 5.62431 -3.87506 0
M  V30 12425 O 1197.02 6.25952 -5.0442 0
M  V30 12426 H 1196.75 0.665164 -0.120554 0
M  V30 12427 H 1199.3 1.80226 -0.98527 0
M  V30 12428 H 1197.53 3.82375 0.576753 0
M  V30 12429 H 1199.22 4.0527 0.225993 0
M  V30 12430 H 1199.99 4.29902 -2.24519 0
M  V30 12431 H 1195.87 4.49247 -1.03433 0
M  V30 12432 H 1199.41 5.45364 -4.34999 0
M  V30 12433 H 1195.31 5.64521 -3.13029 0
M  V30 12434 H 1196.08 6.44448 -5.04608 0
M  V30 12435 N 1198.74 0.470782 1.50404 0
M  V30 12436 C 1199.99 -0.0841494 2.01925 0
M  V30 12437 C 1200.31 -1.40244 1.35487 0
M  V30 12438 O 1199.58 -1.89409 0.500111 0
M  V30 12439 H 1198.16 -0.0340884 0.746222 0
M  V30 12440 H 1200.82 0.621133 1.84738 0
M  V30 12441 H 1199.92 -0.235877 3.11207 0
M  V30 12442 N 1200.22 -1.56282 0.203376 0
M  V30 12443 C 1201.17 -2.20822 -0.730784 0
M  V30 12444 C 1202.16 -1.18193 -1.21354 0
M  V30 12445 O 1203.37 -1.36318 -1.17547 0
M  V30 12446 H 1199.74 -0.707792 -0.254036 0
M  V30 12447 H 1201.71 -2.97955 -0.162825 0
M  V30 12448 C 1200.46 -2.88803 -1.93618 0
M  V30 12449 H 1199.78 -3.67521 -1.57379 0
M  V30 12450 H 1201.22 -3.37387 -2.56799 0
M  V30 12451 C 1199.68 -1.90285 -2.78017 0
M  V30 12452 O 1200.21 -1.40833 -3.76203 0
M  V30 12453 N 1198.42 -1.58332 -2.43679 0
M  V30 12454 H 1197.97 -1.9874 -1.63891 0
M  V30 12455 H 1197.92 -0.926722 -3.00432 0
M  V30 12456 N 1201.7 0.070167 -1.57444 0
M  V30 12457 C 1203.11 0.621805 -1.76041 0
M  V30 12458 C 1203.46 1.77824 -0.829047 0
M  V30 12459 O 1202.58 2.16396 -0.0135453 0
M  V30 12460 C 1203.18 1.13476 -3.19231 0
M  V30 12461 C 1201.74 1.63225 -3.39167 0
M  V30 12462 C 1200.88 0.552369 -2.71743 0
M  V30 12463 H 1203.83 -0.156009 -1.57931 0
M  V30 12464 H 1203.86 2.00352 -3.2348 0
M  V30 12465 H 1203.37 0.29288 -3.86993 0
M  V30 12466 H 1201.47 2.49733 -2.76522 0
M  V30 12467 H 1201.58 1.70807 -4.47618 0
M  V30 12468 H 1199.95 0.997797 -2.34342 0
M  V30 12469 H 1200.73 -0.279354 -3.42162 0
M  V30 12470 N 1203.17 1.53854 0.341593 0
M  V30 12471 C 1204.1 1.84966 1.42513 0
M  V30 12472 C 1205.08 0.704944 1.54805 0
M  V30 12473 O 1206.27 0.957036 1.68981 0
M  V30 12474 C 1203.4 2.06099 2.79536 0
M  V30 12475 C 1202.35 3.21919 2.82049 0
M  V30 12476 C 1201.68 3.28389 4.21977 0
M  V30 12477 C 1202.98 4.59984 2.4741 0
M  V30 12478 H 1204.67 2.7571 1.16724 0
M  V30 12479 H 1202.22 1.32662 0.560073 0
M  V30 12480 H 1204.17 2.26448 3.55386 0
M  V30 12481 H 1202.9 1.12087 3.06764 0
M  V30 12482 H 1201.56 3.01429 2.08653 0
M  V30 12483 H 1201.2 2.3197 4.46317 0
M  V30 12484 H 1200.9 4.0622 4.24569 0
M  V30 12485 H 1202.43 3.50951 4.99666 0
M  V30 12486 H 1203.84 4.80334 3.12973 0
M  V30 12487 H 1202.24 5.40233 2.61282 0
M  V30 12488 H 1203.31 4.6346 1.42594 0
M  V30 12489 N 1204.65 -0.602709 1.4562 0
M  V30 12490 C 1205.9 -1.35769 1.49163 0
M  V30 12491 C 1206.21 -1.95102 0.139485 0
M  V30 12492 O 1207.42 -2.71449 0.0525919 0
M  V30 12493 C 1205.88 -2.45959 2.62739 0
M  V30 12494 C 1205.48 -1.93017 4.04288 0
M  V30 12495 C 1207.23 -3.22926 2.75534 0
M  V30 12496 C 1205.13 -3.00718 5.09237 0
M  V30 12497 H 1204.06 -0.510317 0.555061 0
M  V30 12498 H 1206.72 -0.645434 1.71774 0
M  V30 12499 H 1205.1 -3.19892 2.3342 0
M  V30 12500 H 1206.27 -1.2576 4.43307 0
M  V30 12501 H 1204.59 -1.2878 3.95986 0
M  V30 12502 H 1207.18 -4.03267 3.51112 0
M  V30 12503 H 1207.53 -3.74243 1.82339 0
M  V30 12504 H 1208.06 -2.56095 3.04402 0
M  V30 12505 H 1204.8 -2.54312 6.04157 0
M  V30 12506 H 1204.32 -3.66526 4.74783 0
M  V30 12507 H 1206 -3.65016 5.34202 0
M  V30 12508 N 1206.13 -1.32992 -0.845635 0
M  V30 12509 C 1207.36 -1.26903 -1.63031 0
M  V30 12510 C 1207.77 0.163589 -1.88491 0
M  V30 12511 O 1207.11 1.11402 -1.46066 0
M  V30 12512 C 1207.17 -1.96843 -3.00821 0
M  V30 12513 C 1206.84 -3.46164 -2.98362 0
M  V30 12514 C 1207.83 -4.41488 -2.74562 0
M  V30 12515 C 1205.52 -3.88237 -3.18712 0
M  V30 12516 C 1207.51 -5.7686 -2.71129 0
M  V30 12517 C 1205.2 -5.23715 -3.14905 0
M  V30 12518 C 1206.2 -6.17838 -2.91144 0
M  V30 12519 O 1205.89 -7.50836 -2.87228 0
M  V30 12520 H 1205.62 -0.438806 -0.514223 0
M  V30 12521 H 1208.17 -1.75817 -1.06196 0
M  V30 12522 H 1206.4 -1.42511 -3.59482 0
M  V30 12523 H 1208.09 -1.84343 -3.61625 0
M  V30 12524 H 1208.86 -4.10308 -2.58598 0
M  V30 12525 H 1204.74 -3.1539 -3.36229 0
M  V30 12526 H 1208.28 -6.50299 -2.52502 0
M  V30 12527 H 1204.18 -5.54523 -3.30416 0
M  V30 12528 H 1204.94 -7.60304 -3.03118 0
M  V30 12529 N 1207.61 1.06304 -1.1635 0
M  V30 12530 C 1208.88 1.75916 -0.855166 0
M  V30 12531 C 1209.26 2.0094 0.647024 0
M  V30 12532 O 1208.61 1.63642 1.59479 0
M  V30 12533 C 1208.82 3.06028 -1.67774 0
M  V30 12534 C 1210.17 3.80184 -1.89065 0
M  V30 12535 O 1211.19 3.15868 -1.64639 0
M  V30 12536 O 1210.05 4.95723 -2.30045 0
M  V30 12537 H 1207.15 0.764432 -0.315551 0
M  V30 12538 H 1209.69 1.12574 -1.26985 0
M  V30 12539 H 1208.47 2.83498 -2.69712 0
M  V30 12540 H 1208.09 3.77104 -1.26009 0
M  V30 12541 N 1209.09 0.96196 1.24836 0
M  V30 12542 C 1210.31 0.637709 1.97353 0
M  V30 12543 C 1210.74 -0.784919 1.7094 0
M  V30 12544 O 1210.09 -1.53188 0.969694 0
M  V30 12545 C 1210.14 0.911485 3.4889 0
M  V30 12546 O 1209.25 -0.00601668 4.124 0
M  V30 12547 H 1208.59 0.241685 0.618453 0
M  V30 12548 H 1211.12 1.29055 1.58764 0
M  V30 12549 H 1211.13 0.840702 3.99245 0
M  V30 12550 H 1209.8 1.9483 3.67442 0
M  V30 12551 H 1208.38 0.117597 3.72715 0
M  V30 12552 N 1210.56 -1.39601 0.731392 0
M  V30 12553 C 1211.51 -2.32469 0.0781328 0
M  V30 12554 C 1212.51 -1.52873 -0.729811 0
M  V30 12555 O 1213.71 -1.68563 -0.631402 0
M  V30 12556 H 1210.09 -0.751972 0.00646515 0
M  V30 12557 H 1212.06 -2.85196 0.877833 0
M  V30 12558 C 1210.81 -3.37948 -0.817717 0
M  V30 12559 H 1210.13 -3.99272 -0.205417 0
M  V30 12560 H 1211.57 -4.05387 -1.24248 0
M  V30 12561 C 1210.03 -2.74703 -1.95038 0
M  V30 12562 O 1210.56 -2.62266 -3.04269 0
M  V30 12563 N 1208.76 -2.32845 -1.73872 0
M  V30 12564 H 1208.31 -2.43161 -0.850321 0
M  V30 12565 H 1208.27 -1.90869 -2.49833 0
M  V30 12566 N 1212.04 -0.478751 -1.50152 0
M  V30 12567 C 1213.27 0.0709455 -2.06478 0
M  V30 12568 C 1213.68 1.33376 -1.34192 0
M  V30 12569 O 1213.02 1.79133 -0.40707 0
M  V30 12570 C 1213.09 0.417322 -3.5707 0
M  V30 12571 C 1212.75 -0.744563 -4.50894 0
M  V30 12572 C 1213.75 -1.62879 -4.93727 0
M  V30 12573 C 1211.43 -0.937062 -4.93482 0
M  V30 12574 C 1213.43 -2.68985 -5.77863 0
M  V30 12575 C 1211.11 -2.00134 -5.77399 0
M  V30 12576 C 1212.11 -2.87609 -6.19492 0
M  V30 12577 O 1211.8 -3.92203 -7.01735 0
M  V30 12578 H 1211.53 -0.00720177 -0.675962 0
M  V30 12579 H 1214.08 -0.668797 -1.94207 0
M  V30 12580 H 1212.31 1.21036 -3.6727 0
M  V30 12581 H 1214 0.903002 -3.95728 0
M  V30 12582 H 1214.77 -1.49179 -4.61488 0
M  V30 12583 H 1210.65 -0.265636 -4.60234 0
M  V30 12584 H 1214.19 -3.37293 -6.10639 0
M  V30 12585 H 1210.09 -2.13837 -6.09052 0
M  V30 12586 H 1210.86 -3.89284 -7.2 0
M  V30 12587 N 1213.52 1.56172 -0.211661 0
M  V30 12588 C 1214.47 2.21206 0.719063 0
M  V30 12589 C 1215.46 1.18835 1.20725 0
M  V30 12590 O 1216.67 1.36939 1.16823 0
M  V30 12591 H 1213.04 0.709129 0.250279 0
M  V30 12592 H 1215.01 2.98038 0.147022 0
M  V30 12593 C 1213.76 2.89826 1.92084 0
M  V30 12594 H 1213.09 3.68351 1.55428 0
M  V30 12595 H 1214.53 3.38744 2.55006 0
M  V30 12596 C 1212.99 1.91756 2.77004 0
M  V30 12597 O 1213.52 1.42826 3.75451 0
M  V30 12598 N 1211.72 1.59622 2.42836 0
M  V30 12599 H 1211.27 1.99606 1.62835 0
M  V30 12600 H 1211.23 0.942641 2.99936 0
M  V30 12601 N 1215 -0.0618163 1.57479 0
M  V30 12602 C 1216.41 -0.612461 1.76368 0
M  V30 12603 C 1216.76 -1.77381 0.838466 0
M  V30 12604 O 1215.89 -2.16386 0.0250211 0
M  V30 12605 C 1216.48 -1.11782 3.19829 0
M  V30 12606 C 1215.04 -1.61424 3.40028 0
M  V30 12607 C 1214.19 -0.53795 2.72032 0
M  V30 12608 H 1217.14 0.164382 1.57846 0
M  V30 12609 H 1217.16 -1.98634 3.24538 0
M  V30 12610 H 1216.67 -0.272353 3.87143 0
M  V30 12611 H 1214.77 -2.48263 2.77842 0
M  V30 12612 H 1214.88 -1.68431 4.48517 0
M  V30 12613 H 1213.25 -0.985355 2.34868 0
M  V30 12614 H 1214.03 0.297495 3.42009 0
M  V30 12615 N 1216.48 -1.54033 -0.333429 0
M  V30 12616 C 1217.42 -1.82729 -1.40992 0
M  V30 12617 C 1218.39 -0.673677 -1.51825 0
M  V30 12618 O 1219.58 -0.919126 -1.67203 0
M  V30 12619 C 1216.72 -2.05155 -2.77498 0
M  V30 12620 C 1215.83 -3.32854 -2.75376 0
M  V30 12621 C 1214.97 -3.45294 -4.03665 0
M  V30 12622 C 1214.01 -4.66905 -3.95811 0
M  V30 12623 N 1213.14 -4.76323 -5.1581 0
M  V30 12624 H 1217.98 -2.74572 -1.15821 0
M  V30 12625 H 1215.52 -1.35988 -0.560859 0
M  V30 12626 H 1217.48 -2.16148 -3.56841 0
M  V30 12627 H 1216.11 -1.16615 -3.01 0
M  V30 12628 H 1215.16 -3.30651 -1.88081 0
M  V30 12629 H 1216.47 -4.22299 -2.65453 0
M  V30 12630 H 1215.63 -3.55775 -4.91436 0
M  V30 12631 H 1214.36 -2.53924 -4.16382 0
M  V30 12632 H 1213.37 -4.56491 -3.06425 0
M  V30 12633 H 1214.59 -5.59649 -3.84668 0
M  V30 12634 H 1212.54 -3.87866 -5.29052 0
M  V30 12635 H 1212.46 -5.59719 -5.08184 0
M  V30 12636 H 1213.73 -4.91125 -6.05324 0
M  V30 12637 N 1217.95 0.594978 -1.45938 0
M  V30 12638 C 1219.37 1.17703 -1.44924 0
M  V30 12639 C 1219.72 1.9534 -0.183522 0
M  V30 12640 O 1218.84 2.04276 0.714163 0
M  V30 12641 C 1219.44 2.14119 -2.62561 0
M  V30 12642 C 1218 2.67674 -2.64627 0
M  V30 12643 C 1217.14 1.43312 -2.37397 0
M  V30 12644 H 1220.09 0.383583 -1.53995 0
M  V30 12645 H 1220.11 2.97374 -2.3738 0
M  V30 12646 H 1219.63 1.57586 -3.54667 0
M  V30 12647 H 1217.73 3.28111 -1.76562 0
M  V30 12648 H 1217.84 3.11246 -3.64229 0
M  V30 12649 H 1216.2 1.72702 -1.87206 0
M  V30 12650 H 1216.99 0.886276 -3.31663 0
M  V30 12651 N 1219.43 1.33438 0.838571 0
M  V30 12652 C 1220.4 1.23632 1.92997 0
M  V30 12653 C 1221.4 0.155302 1.60048 0
M  V30 12654 O 1222.59 0.406852 1.69382 0
M  V30 12655 C 1219.72 0.90512 3.28665 0
M  V30 12656 H 1220.91 2.20643 2.03117 0
M  V30 12657 H 1218.46 1.17501 1.03069 0
M  V30 12658 H 1219.2 -0.0624833 3.2424 0
M  V30 12659 H 1218.98 1.68688 3.53959 0
M  V30 12660 H 1220.47 0.861262 4.08622 0
M  V30 12661 N 1220.91 -1.05686 1.16912 0
M  V30 12662 C 1222.14 -1.82018 0.977392 0
M  V30 12663 C 1222.55 -1.83072 -0.477636 0
M  V30 12664 O 1221.89 -1.25296 -1.34338 0
M  V30 12665 C 1221.95 -3.29592 1.4356 0
M  V30 12666 C 1221.62 -3.5223 2.91175 0
M  V30 12667 C 1222.61 -3.44767 3.89142 0
M  V30 12668 C 1220.3 -3.79353 3.29236 0
M  V30 12669 C 1222.29 -3.64104 5.2317 0
M  V30 12670 C 1219.98 -3.98339 4.63432 0
M  V30 12671 C 1220.98 -3.90713 5.60207 0
M  V30 12672 O 1220.67 -4.09175 6.91976 0
M  V30 12673 H 1220.4 -0.580578 0.346273 0
M  V30 12674 H 1222.95 -1.34199 1.55498 0
M  V30 12675 H 1221.18 -3.78302 0.80153 0
M  V30 12676 H 1222.87 -3.87435 1.21032 0
M  V30 12677 H 1223.64 -3.23796 3.61083 0
M  V30 12678 H 1219.52 -3.84395 2.54482 0
M  V30 12679 H 1223.06 -3.58068 5.98693 0
M  V30 12680 H 1218.96 -4.18801 4.91198 0
M  V30 12681 H 1219.73 -4.26429 6.98642 0
M  V30 12682 N 1222.39 -0.968567 -1.24324 0
M  V30 12683 C 1223.34 -0.491346 -2.27351 0
M  V30 12684 C 1224.33 0.445563 -1.63435 0
M  V30 12685 O 1225.54 0.320758 -1.77119 0
M  V30 12686 H 1221.91 -0.14043 -0.738772 0
M  V30 12687 H 1223.88 -1.37224 -2.64976 0
M  V30 12688 C 1222.63 0.202093 -3.47112 0
M  V30 12689 H 1221.95 -0.50973 -3.96537 0
M  V30 12690 H 1223.39 0.499815 -4.21044 0
M  V30 12691 C 1221.85 1.42937 -3.05075 0
M  V30 12692 O 1222.38 2.52635 -3.12312 0
M  V30 12693 N 1220.59 1.29572 -2.60114 0
M  V30 12694 H 1220.14 0.403169 -2.54425 0
M  V30 12695 H 1220.09 2.118 -2.32353 0
M  V30 12696 N 1223.87 1.39211 -0.738786 0
M  V30 12697 C 1224.83 2.28937 -0.109746 0
M  V30 12698 C 1225.83 1.46488 0.663157 0
M  V30 12699 O 1227.02 1.67119 0.491614 0
M  V30 12700 C 1224.15 3.30039 0.853633 0
M  V30 12701 H 1225.34 2.86068 -0.900295 0
M  V30 12702 H 1222.9 1.47922 -0.504853 0
M  V30 12703 H 1223.63 2.77971 1.6704 0
M  V30 12704 H 1223.42 3.90935 0.302007 0
M  V30 12705 H 1224.91 3.97169 1.29022 0
M  V30 12706 N 1225.34 0.486708 1.49896 0
M  V30 12707 C 1226.59 -0.0646197 2.01596 0
M  V30 12708 C 1226.91 -1.39363 1.37249 0
M  V30 12709 O 1228.11 -2.03082 1.80194 0
M  V30 12710 C 1226.57 -0.16565 3.59519 0
M  V30 12711 C 1226.18 1.15586 4.32832 0
M  V30 12712 C 1227.92 -0.668103 4.1921 0
M  V30 12713 C 1225.83 1.01778 5.82576 0
M  V30 12714 H 1224.76 -0.0279241 0.753483 0
M  V30 12715 H 1227.41 0.623969 1.72566 0
M  V30 12716 H 1225.79 -0.918372 3.85204 0
M  V30 12717 H 1226.96 1.92076 4.1886 0
M  V30 12718 H 1225.28 1.59064 3.84822 0
M  V30 12719 H 1227.88 -0.788698 5.28851 0
M  V30 12720 H 1228.22 -1.66339 3.81624 0
M  V30 12721 H 1228.75 0.0276746 3.9779 0
M  V30 12722 H 1225.49 1.9869 6.24662 0
M  V30 12723 H 1225.01 0.293527 5.99081 0
M  V30 12724 H 1226.69 0.690693 6.43303 0
M  V30 12725 N 1226.82 -1.56058 0.219941 0
M  V30 12726 C 1227.77 -2.20218 -0.690846 0
M  V30 12727 C 1228.74 -1.15725 -1.19151 0
M  V30 12728 O 1229.93 -1.44073 -1.2509 0
M  V30 12729 C 1227.07 -2.88477 -1.89408 0
M  V30 12730 C 1226.18 -4.07559 -1.43246 0
M  V30 12731 C 1225.31 -4.63605 -2.59314 0
M  V30 12732 C 1224.35 -5.74993 -2.0988 0
M  V30 12733 N 1223.49 -6.25337 -3.19214 0
M  V30 12734 H 1228.33 -2.97685 -0.136992 0
M  V30 12735 H 1225.87 -1.46994 -0.055865 0
M  V30 12736 H 1227.82 -3.26235 -2.60051 0
M  V30 12737 H 1226.45 -2.1353 -2.42084 0
M  V30 12738 H 1225.51 -3.75297 -0.621013 0
M  V30 12739 H 1226.82 -4.8805 -1.02997 0
M  V30 12740 H 1225.97 -5.03798 -3.38041 0
M  V30 12741 H 1224.71 -3.82274 -3.0285 0
M  V30 12742 H 1223.72 -5.34304 -1.29613 0
M  V30 12743 H 1224.94 -6.58158 -1.67345 0
M  V30 12744 H 1222.89 -5.4692 -3.62236 0
M  V30 12745 H 1222.8 -7.00947 -2.83213 0
M  V30 12746 H 1224.07 -6.70187 -3.98083 0
M  V30 12747 N 1228.3 0.053464 -1.57509 0
M  V30 12748 C 1229.21 1.07902 -2.08313 0
M  V30 12749 C 1230.23 1.41223 -1.01647 0
M  V30 12750 O 1231.4 1.51032 -1.33233 0
M  V30 12751 C 1228.47 2.36813 -2.5322 0
M  V30 12752 C 1227.53 2.10297 -3.74264 0
M  V30 12753 C 1226.76 3.33062 -4.1702 0
M  V30 12754 O 1226.99 4.42857 -3.59491 0
M  V30 12755 O 1225.92 3.20195 -5.09665 0
M  V30 12756 H 1229.75 0.677368 -2.9605 0
M  V30 12757 H 1227.33 0.268838 -1.46961 0
M  V30 12758 H 1229.21 3.12645 -2.82544 0
M  V30 12759 H 1227.89 2.76323 -1.68605 0
M  V30 12760 H 1226.79 1.32111 -3.49996 0
M  V30 12761 H 1228.13 1.75658 -4.59788 0
M  V30 12762 N 1229.78 1.54207 0.325255 0
M  V30 12763 C 1230.74 1.82757 1.38321 0
M  V30 12764 C 1231.74 0.699312 1.44797 0
M  V30 12765 O 1232.93 0.96762 1.44854 0
M  V30 12766 C 1230.06 1.98608 2.7707 0
M  V30 12767 H 1231.26 2.7728 1.14261 0
M  V30 12768 H 1228.81 1.45899 0.560647 0
M  V30 12769 H 1229.55 1.0629 3.06387 0
M  V30 12770 H 1229.33 2.80707 2.73763 0
M  V30 12771 H 1230.82 2.2215 3.53609 0
M  V30 12772 N 1231.26 -0.58723 1.46251 0
M  V30 12773 C 1232.19 -1.70694 1.5933 0
M  V30 12774 C 1233.17 -1.64208 0.443831 0
M  V30 12775 O 1234.35 -1.82294 0.669516 0
M  V30 12776 C 1231.48 -3.0933 1.579 0
M  V30 12777 C 1230.44 -3.30643 2.7177 0
M  V30 12778 C 1229.76 -4.69761 2.554 0
M  V30 12779 C 1231.06 -3.18916 4.1363 0
M  V30 12780 H 1232.76 -1.60004 2.53059 0
M  V30 12781 H 1230.3 -0.768343 1.21789 0
M  V30 12782 H 1232.26 -3.87479 1.65644 0
M  V30 12783 H 1230.98 -3.20907 0.60712 0
M  V30 12784 H 1229.64 -2.54892 2.63488 0
M  V30 12785 H 1229.29 -4.78098 1.56306 0
M  V30 12786 H 1228.99 -4.84974 3.31774 0
M  V30 12787 H 1230.51 -5.50084 2.65028 0
M  V30 12788 H 1231.93 -3.86915 4.23048 0
M  V30 12789 H 1230.32 -3.45653 4.90555 0
M  V30 12790 H 1231.39 -2.1606 4.34104 0
M  V30 12791 N 1232.74 -1.33881 -0.831482 0
M  V30 12792 C 1233.67 -1.19089 -1.94661 0
M  V30 12793 C 1234.65 -0.0845706 -1.6238 0
M  V30 12794 O 1235.83 -0.248163 -1.86859 0
M  V30 12795 C 1232.96 -0.828223 -3.28418 0
M  V30 12796 C 1232 -1.94309 -3.79666 0
M  V30 12797 S 1232.84 -3.55524 -4.00454 0
M  V30 12798 C 1233.99 -3.21279 -5.3715 0
M  V30 12799 H 1234.23 -2.13484 -2.0691 0
M  V30 12800 H 1231.76 -1.18809 -0.986098 0
M  V30 12801 H 1233.72 -0.625759 -4.05702 0
M  V30 12802 H 1232.38 0.0972457 -3.13949 0
M  V30 12803 H 1231.57 -1.64288 -4.76472 0
M  V30 12804 H 1231.17 -2.1026 -3.093 0
M  V30 12805 H 1233.46 -2.72563 -6.20255 0
M  V30 12806 H 1234.41 -4.17193 -5.7215 0
M  V30 12807 H 1234.82 -2.57683 -5.02255 0
M  V30 12808 N 1234.21 1.05064 -1.1747 0
M  V30 12809 C 1235.46 1.77737 -0.961979 0
M  V30 12810 C 1235.78 1.88198 0.510551 0
M  V30 12811 O 1235.05 1.39968 1.37062 0
M  V30 12812 H 1233.63 0.658366 -0.352935 0
M  V30 12813 H 1236.29 1.26851 -1.47969 0
M  V30 12814 H 1235.39 2.79368 -1.39141 0
M  V30 12815 N 1235.69 0.975146 1.23809 0
M  V30 12816 C 1236.92 0.658023 1.95841 0
M  V30 12817 C 1237.33 -0.778132 1.72458 0
M  V30 12818 O 1236.67 -1.53462 1.00971 0
M  V30 12819 C 1236.73 0.862038 3.49012 0
M  V30 12820 C 1236.4 2.27925 3.96105 0
M  V30 12821 C 1237.4 3.25755 4.05191 0
M  V30 12822 C 1235.08 2.60894 4.29231 0
M  V30 12823 C 1237.07 4.54636 4.46749 0
M  V30 12824 C 1234.76 3.89999 4.70472 0
M  V30 12825 C 1235.76 4.86682 4.79197 0
M  V30 12826 O 1235.45 6.13483 5.19513 0
M  V30 12827 H 1235.18 0.243915 0.630461 0
M  V30 12828 H 1237.73 1.30768 1.58395 0
M  V30 12829 H 1235.96 0.155209 3.86388 0
M  V30 12830 H 1237.65 0.542873 4.02253 0
M  V30 12831 H 1238.42 3.01614 3.79808 0
M  V30 12832 H 1234.3 1.86355 4.21655 0
M  V30 12833 H 1237.84 5.30101 4.53474 0
M  V30 12834 H 1233.74 4.13937 4.95304 0
M  V30 12835 H 1234.51 6.17158 5.37641 0
M  V30 12836 O 1237.21 -1.35182 0.883632 0
M  V30 12837 H 1237.9 -1.87439 0.488494 0
M  V30 END ATOM
M  V30 BEGIN BOND
M  V30 END BOND
M  V30 END CTAB
M  END
$$$$
