drugbank_target|P0A7S3 30S ribosomal protein S12 (DB00452; DB00479; DB00560; DB00684; DB00798; DB00919; DB00955; DB00994; DB01082; DB01172; DB03615; DB04729; DB06696)
 OpenBabel12092119283D

  0  0  0     0  0            999 V3000
M  V30 BEGIN CTAB
M  V30 COUNTS 1991 2005 0 0 0
M  V30 BEGIN ATOM
M  V30 1 H -0.908 1.98254 -0.117106 0
M  V30 2 N 0 1.576 0 0
M  V30 3 C 0.933 2.03868 1.02534 0
M  V30 4 C 1.911 0.928543 1.3348 0
M  V30 5 O 3.095 1.19667 1.45644 0
M  V30 6 C 0.222 2.43627 2.35294 0
M  V30 7 C -0.732 3.65373 2.2001 0
M  V30 8 S 0.101 5.13292 1.52614 0
M  V30 9 C 1.257 5.56322 2.86805 0
M  V30 10 H 1.49 2.90518 0.631377 0
M  V30 11 H -0.977 1.52953 0.210867 0
M  V30 12 H 0.981 2.67203 3.11629 0
M  V30 13 H -0.358 1.57376 2.7183 0
M  V30 14 H -1.165 3.90944 3.18086 0
M  V30 15 H -1.563 3.418 1.51819 0
M  V30 16 H 0.729 5.58782 3.83104 0
M  V30 17 H 1.672 6.56266 2.65933 0
M  V30 18 H 2.08 4.83886 2.90714 0
M  V30 19 N 1.4781 -0.272755 1.55222 0
M  V30 20 C 2.4411 -1.32041 1.87344 0
M  V30 21 C 3.4411 -1.42342 0.74803 0
M  V30 22 O 4.6311 -1.41488 1.0162 0
M  V30 23 C 1.7631 -2.70173 2.07893 0
M  V30 24 H 2.9561 -1.04789 2.80997 0
M  V30 25 H 0.5091 -0.51083 1.47717 0
M  V30 26 H 1.2441 -3.02605 1.16622 0
M  V30 27 H 1.0291 -2.64082 2.89833 0
M  V30 28 H 2.5191 -3.45869 2.34017 0
M  V30 29 N 2.9562 -1.48159 -0.537278 0
M  V30 30 C 4.1842 -1.59454 -1.31841 0
M  V30 31 C 4.5992 -0.252065 -1.8711 0
M  V30 32 O 3.9562 0.757621 -1.66031 0
M  V30 33 C 4.0072 -2.63546 -2.47439 0
M  V30 34 O 3.7282 -3.92583 -1.94449 0
M  V30 35 C 5.2292 -2.85212 -3.39366 0
M  V30 36 H 2.4492 -0.53785 -0.401196 0
M  V30 37 H 4.9932 -1.93932 -0.648891 0
M  V30 38 H 3.1482 -2.31946 -3.1029 0
M  V30 39 H 3.5622 -4.49629 -2.70063 0
M  V30 40 H 5.0362 -3.61863 -4.16844 0
M  V30 41 H 5.5132 -1.93765 -3.94147 0
M  V30 42 H 6.1192 -3.18086 -2.82314 0
M  V30 43 N 4.4343 0.785586 -1.36625 0
M  V30 44 C 5.6803 1.54591 -1.31261 0
M  V30 45 C 6.0133 1.93906 0.106823 0
M  V30 46 O 5.2883 1.63007 1.06108 0
M  V30 47 C 5.5713 2.82038 -2.23889 0
M  V30 48 C 5.4243 2.49066 -3.74548 0
M  V30 49 C 6.7433 3.83887 -2.15217 0
M  V30 50 H 3.8623 0.560846 -0.478143 0
M  V30 51 H 6.5043 0.902278 -1.67209 0
M  V30 52 H 4.6543 3.36961 -1.93363 0
M  V30 53 H 6.3263 2.00164 -4.15611 0
M  V30 54 H 4.5693 1.81954 -3.93796 0
M  V30 55 H 5.2403 3.40109 -4.34776 0
M  V30 56 H 7.7163 3.38421 -2.42096 0
M  V30 57 H 6.5923 4.70806 -2.82193 0
M  V30 58 H 6.8533 4.27131 -1.14068 0
M  V30 59 N 5.9124 1.20967 1.01018 0
M  V30 60 C 6.8604 0.961223 2.1181 0
M  V30 61 C 7.8544 -0.0897034 1.69162 0
M  V30 62 O 9.0604 0.0612271 1.79896 0
M  V30 63 H 5.4354 0.29355 0.692338 0
M  V30 64 H 7.4064 1.90178 2.29946 0
M  V30 65 C 6.1554 0.536854 3.4353 0
M  V30 66 H 5.4784 1.33713 3.76777 0
M  V30 67 H 6.9184 0.402286 4.22087 0
M  V30 68 C 5.3774 -0.751574 3.2841 0
M  V30 69 O 5.9074 -1.80841 3.58691 0
M  V30 70 N 4.1134 -0.716079 2.81639 0
M  V30 71 H 3.6604 0.144236 2.57196 0
M  V30 72 H 3.6184 -1.57847 2.71904 0
M  V30 73 N 7.3905 -1.2043 1.01659 0
M  V30 74 C 8.3225 -2.22626 0.544988 0
M  V30 75 C 9.3355 -1.58479 -0.372609 0
M  V30 76 O 10.5245 -1.77679 -0.170958 0
M  V30 77 C 7.6245 -3.38141 -0.22663 0
M  V30 78 C 6.7975 -4.31877 0.692876 0
M  V30 79 C 5.8565 -5.26191 -0.0311616 0
M  V30 80 O 4.8825 -5.6612 0.591343 0
M  V30 81 N 6.0845 -5.65618 -1.30601 0
M  V30 82 H 8.8495 -2.63716 1.42388 0
M  V30 83 H 6.4105 -1.34971 0.894116 0
M  V30 84 H 8.4025 -3.98239 -0.72024 0
M  V30 85 H 6.9725 -2.95943 -1.00681 0
M  V30 86 H 6.1925 -3.69746 1.36679 0
M  V30 87 H 7.4805 -4.91426 1.31824 0
M  V30 88 H 6.8785 -5.3519 -1.83269 0
M  V30 89 H 5.4355 -6.28025 -1.74435 0
M  V30 90 N 8.8686 -0.792821 -1.36206 0
M  V30 91 C 9.7986 -0.207853 -2.32573 0
M  V30 92 C 10.7796 0.659055 -1.56813 0
M  V30 93 O 11.9646 0.592176 -1.84951 0
M  V30 94 C 9.0946 0.655449 -3.41059 0
M  V30 95 C 8.0486 -0.111842 -4.27854 0
M  V30 96 C 7.3746 0.872274 -5.27537 0
M  V30 97 C 8.6746 -1.30299 -5.05786 0
M  V30 98 H 10.3686 -1.01294 -2.81744 0
M  V30 99 H 7.9146 -0.48854 -1.3546 0
M  V30 100 H 9.8676 1.07464 -4.07467 0
M  V30 101 H 8.5916 1.49328 -2.90463 0
M  V30 102 H 7.2506 -0.512053 -3.63006 0
M  V30 103 H 6.8986 1.70523 -4.73214 0
M  V30 104 H 6.5986 0.363291 -5.86476 0
M  V30 105 H 8.1226 1.28996 -5.96818 0
M  V30 106 H 9.5366 -0.959379 -5.65216 0
M  V30 107 H 7.9336 -1.7455 -5.74154 0
M  V30 108 H 9.0036 -2.09663 -4.37229 0
M  V30 109 N 10.3467 1.47872 -0.545128 0
M  V30 110 C 11.5927 2.02793 -0.0166104 0
M  V30 111 C 11.9257 1.41987 1.32489 0
M  V30 112 O 11.2007 0.571045 1.85928 0
M  V30 113 C 11.4837 3.59989 0.0893294 0
M  V30 114 C 11.3367 4.3125 -1.27841 0
M  V30 115 C 12.6557 4.32606 0.808724 0
M  V30 116 H 9.7747 0.736962 -0.00751035 0
M  V30 117 H 12.4167 1.76433 -0.705085 0
M  V30 118 H 10.5667 3.82579 0.675681 0
M  V30 119 H 12.2387 4.20035 -1.90704 0
M  V30 120 H 10.4817 3.92076 -1.85632 0
M  V30 121 H 11.1527 5.39736 -1.15713 0
M  V30 122 H 13.6287 4.14936 0.310992 0
M  V30 123 H 12.5047 5.42251 0.851782 0
M  V30 124 H 12.7657 4.00963 1.86229 0
M  V30 125 N 11.8248 0.280983 1.55075 0
M  V30 126 C 13.2408 -0.0729964 1.59433 0
M  V30 127 C 13.4408 -1.5411 1.29817 0
M  V30 128 O 12.4968 -2.29086 1.06187 0
M  V30 129 C 13.8098 0.306921 2.9913 0
M  V30 130 C 15.3578 0.254023 3.11968 0
M  V30 131 C 15.8328 0.608467 4.5394 0
M  V30 132 N 17.3238 0.560241 4.59799 0
M  V30 133 C 18.0588 0.80722 5.6769 0
M  V30 134 N 17.5548 1.11912 6.83701 0
M  V30 135 N 19.3478 0.735623 5.57266 0
M  V30 136 H 11.4988 1.238 1.7259 0
M  V30 137 H 13.7618 0.500547 0.805082 0
M  V30 138 H 13.4678 1.32816 3.25657 0
M  V30 139 H 13.3418 -0.349363 3.75579 0
M  V30 140 H 15.7288 -0.75794 2.852 0
M  V30 141 H 15.8098 0.944649 2.37718 0
M  V30 142 H 15.4538 1.61814 4.81434 0
M  V30 143 H 15.3838 -0.104013 5.26497 0
M  V30 144 H 17.8748 0.329288 3.76463 0
M  V30 145 H 18.1878 1.29409 7.61888 0
M  V30 146 H 16.5328 1.15695 6.85303 0
M  V30 147 H 19.7238 0.491752 4.6551 0
M  V30 148 H 19.8968 0.931482 6.4127 0
M  V30 149 N 13.3029 -1.57598 0.00835791 0
M  V30 150 C 14.2499 -2.08945 -0.980346 0
M  V30 151 C 15.2199 -0.986738 -1.33614 0
M  V30 152 O 16.4049 -1.25968 -1.43306 0
M  V30 153 C 13.5449 -2.60425 -2.26435 0
M  V30 154 C 12.6579 -3.84628 -1.96685 0
M  V30 155 C 11.7929 -4.24579 -3.19228 0
M  V30 156 C 10.8319 -5.41596 -2.85202 0
M  V30 157 N 9.9689 -5.768 -4.00307 0
M  V30 158 H 14.8089 -2.93148 -0.535551 0
M  V30 159 H 12.3459 -1.44912 -0.252776 0
M  V30 160 H 14.3039 -2.88354 -3.01509 0
M  V30 161 H 12.9339 -1.79083 -2.68568 0
M  V30 162 H 11.9859 -3.63556 -1.11942 0
M  V30 163 H 13.2979 -4.69796 -1.67611 0
M  V30 164 H 12.4519 -4.53834 -4.02641 0
M  V30 165 H 11.1909 -3.38137 -3.51447 0
M  V30 166 H 10.1959 -5.12056 -2.00198 0
M  V30 167 H 11.4209 -6.29721 -2.54222 0
M  V30 168 H 9.3669 -4.93316 -4.32407 0
M  V30 169 H 9.2839 -6.5656 -3.74786 0
M  V30 170 H 10.5519 -6.10652 -4.84484 0
M  V30 171 N 14.781 0.264519 -1.55364 0
M  V30 172 C 16.192 0.834936 -1.6699 0
M  V30 173 C 16.543 1.86718 -0.602552 0
M  V30 174 O 15.668 2.14899 0.254425 0
M  V30 175 C 16.263 1.5212 -3.02729 0
M  V30 176 C 14.822 2.03954 -3.16354 0
M  V30 177 C 13.969 0.884498 -2.62815 0
M  V30 178 H 16.92 0.0406869 -1.58648 0
M  V30 179 H 16.941 2.38853 -2.96191 0
M  V30 180 H 16.453 0.769668 -3.80392 0
M  V30 181 H 14.554 2.82041 -2.43482 0
M  V30 182 H 14.667 2.24902 -4.23032 0
M  V30 183 H 13.031 1.2802 -2.20188 0
M  V30 184 H 13.814 0.14634 -3.42988 0
M  V30 185 N 16.2591 1.48442 0.529413 0
M  V30 186 C 17.6751 1.34575 0.858004 0
M  V30 187 C 17.8751 0.3572 1.98309 0
M  V30 188 O 16.9311 -0.221379 2.51528 0
M  V30 189 C 18.2441 2.74617 1.22499 0
M  V30 190 C 19.7921 2.83109 1.33484 0
M  V30 191 C 20.2671 4.23854 1.73526 0
M  V30 192 N 21.7581 4.2653 1.80628 0
M  V30 193 C 22.4931 5.32372 2.12997 0
M  V30 194 N 21.9891 6.48491 2.43786 0
M  V30 195 N 23.7821 5.19766 2.14008 0
M  V30 196 H 15.9331 2.1133 -0.212925 0
M  V30 197 H 18.1961 0.947439 -0.0326199 0
M  V30 198 H 17.9021 3.4852 0.471905 0
M  V30 199 H 17.7761 3.08177 2.17501 0
M  V30 200 H 20.1631 2.09462 2.0787 0
M  V30 201 H 20.2441 2.53168 0.366027 0
M  V30 202 H 19.8881 4.98018 0.997013 0
M  V30 203 H 19.8181 4.5124 2.71459 0
M  V30 204 H 22.3091 3.42772 1.59108 0
M  V30 205 H 22.6221 7.24993 2.67592 0
M  V30 206 H 20.9671 6.51765 2.41304 0
M  V30 207 H 24.1581 4.28066 1.89412 0
M  V30 208 H 24.3311 6.02354 2.38902 0
M  V30 209 N 17.7372 -0.778329 1.37039 0
M  V30 210 C 18.7002 -1.87301 1.32102 0
M  V30 211 C 19.7002 -1.59198 0.226405 0
M  V30 212 O 20.8902 -1.67403 0.481861 0
M  V30 213 C 18.0222 -3.24309 1.05055 0
M  V30 214 H 19.2152 -1.93093 2.29467 0
M  V30 215 H 16.7682 -0.977358 1.21973 0
M  V30 216 H 17.5032 -3.24196 0.0819373 0
M  V30 217 H 17.2882 -3.46098 1.84279 0
M  V30 218 H 18.7782 -4.04382 1.04234 0
M  V30 219 N 19.2153 -1.21501 -1.00376 0
M  V30 220 C 20.6313 -0.972629 -1.26539 0
M  V30 221 C 20.8313 0.340257 -1.98606 0
M  V30 222 O 19.8873 1.06561 -2.28913 0
M  V30 223 C 21.2003 -2.16404 -2.08781 0
M  V30 224 C 22.7483 -2.20643 -2.22004 0
M  V30 225 C 23.2233 -3.39306 -3.07629 0
M  V30 226 N 24.7143 -3.39401 -3.15217 0
M  V30 227 C 25.4493 -4.27867 -3.81729 0
M  V30 228 N 24.9453 -5.26533 -4.5026 0
M  V30 229 N 26.7383 -4.15672 -3.78382 0
M  V30 230 H 18.8893 -2.05929 -0.520281 0
M  V30 231 H 21.1523 -0.901803 -0.292328 0
M  V30 232 H 20.8583 -3.11554 -1.63178 0
M  V30 233 H 20.7323 -2.15567 -3.09533 0
M  V30 234 H 23.1193 -1.26048 -2.66825 0
M  V30 235 H 23.2003 -2.25523 -1.20718 0
M  V30 236 H 22.8443 -4.34195 -2.63509 0
M  V30 237 H 22.7743 -3.31665 -4.09031 0
M  V30 238 H 25.2653 -2.67997 -2.66432 0
M  V30 239 H 25.5783 -5.90337 -4.98721 0
M  V30 240 H 23.9233 -5.30457 -4.49044 0
M  V30 241 H 27.1143 -3.3785 -3.23998 0
M  V30 242 H 27.2873 -4.84825 -4.2994 0
M  V30 243 N 20.6934 1.19889 -1.02296 0
M  V30 244 C 21.6404 2.22901 -0.598651 0
M  V30 245 C 22.6104 1.61588 0.384521 0
M  V30 246 O 23.7954 1.88697 0.282522 0
M  V30 247 C 20.9354 3.45063 0.0504476 0
M  V30 248 C 20.0484 4.20783 -0.978053 0
M  V30 249 C 19.1834 5.30356 -0.299338 0
M  V30 250 C 18.2224 5.97826 -1.31416 0
M  V30 251 N 17.3594 6.98975 -0.661667 0
M  V30 252 H 22.1994 2.58554 -1.48169 0
M  V30 253 H 19.7364 1.27039 -0.741584 0
M  V30 254 H 21.6944 4.14831 0.443971 0
M  V30 255 H 20.3244 3.10084 0.897097 0
M  V30 256 H 19.3764 3.50018 -1.48969 0
M  V30 257 H 20.6884 4.67109 -1.74958 0
M  V30 258 H 19.8424 6.06516 0.149347 0
M  V30 259 H 18.5814 4.85084 0.504445 0
M  V30 260 H 17.5864 5.20422 -1.77317 0
M  V30 261 H 18.8114 6.45183 -2.11933 0
M  V30 262 H 16.7574 6.55886 0.122132 0
M  V30 263 H 16.6744 7.43461 -1.37117 0
M  V30 264 H 17.9424 7.7914 -0.236785 0
M  V30 265 N 22.1715 0.800033 1.35784 0
M  V30 266 C 23.4175 0.377901 1.99248 0
M  V30 267 C 23.7505 -1.05052 1.63333 0
M  V30 268 O 23.0255 -1.72768 0.893385 0
M  V30 269 C 23.3085 0.553922 3.55814 0
M  V30 270 C 23.1615 2.0268 4.01548 0
M  V30 271 C 24.4805 -0.0244802 4.40093 0
M  V30 272 H 21.5995 0.138782 0.723815 0
M  V30 273 H 24.2415 1.00835 1.61035 0
M  V30 274 H 22.3915 0.0172398 3.88496 0
M  V30 275 H 24.0635 2.62536 3.79305 0
M  V30 276 H 22.3065 2.5256 3.52698 0
M  V30 277 H 22.9775 2.10087 5.10458 0
M  V30 278 H 25.4535 0.433775 4.13833 0
M  V30 279 H 24.3295 0.128637 5.48749 0
M  V30 280 H 24.5905 -1.11758 4.27741 0
M  V30 281 N 23.6496 -1.47581 0.552962 0
M  V30 282 C 24.6126 -2.28439 -0.186605 0
M  V30 283 C 25.6126 -1.36706 -0.84665 0
M  V30 284 O 26.8026 -1.59378 -0.703164 0
M  V30 285 C 23.9346 -3.16264 -1.2724 0
M  V30 286 H 25.1276 -2.95294 0.523609 0
M  V30 287 H 22.6806 -1.532 0.309745 0
M  V30 288 H 23.4156 -2.54091 -2.01514 0
M  V30 289 H 23.2006 -3.83769 -0.803968 0
M  V30 290 H 24.6906 -3.77198 -1.79196 0
M  V30 291 N 25.1277 -0.289203 -1.54924 0
M  V30 292 C 26.0747 0.592115 -2.23075 0
M  V30 293 C 27.0447 1.13881 -1.20915 0
M  V30 294 O 28.2297 1.18551 -1.495 0
M  V30 295 C 25.3697 1.76376 -2.96623 0
M  V30 296 C 24.4827 1.24959 -4.13533 0
M  V30 297 C 23.6177 2.38416 -4.74691 0
M  V30 298 C 22.6567 1.84072 -5.83767 0
M  V30 299 N 21.7937 2.91057 -6.38929 0
M  V30 300 H 26.6337 0.00432038 -2.98 0
M  V30 301 H 24.1707 -0.00963529 -1.47097 0
M  V30 302 H 26.1287 2.45268 -3.3749 0
M  V30 303 H 24.7587 2.32337 -2.24097 0
M  V30 304 H 23.8107 0.453307 -3.77689 0
M  V30 305 H 25.1227 0.811662 -4.92152 0
M  V30 306 H 24.2767 3.15276 -5.18349 0
M  V30 307 H 23.0157 2.8553 -3.95378 0
M  V30 308 H 22.0207 1.05697 -5.39545 0
M  V30 309 H 23.2457 1.37877 -6.64956 0
M  V30 310 H 21.1917 3.37526 -5.62505 0
M  V30 311 H 21.1087 2.51724 -7.12861 0
M  V30 312 H 22.3767 3.6785 -6.87246 0
M  V30 313 N 26.6058 1.57591 -0.0167156 0
M  V30 314 C 27.8308 1.9598 0.67872 0
M  V30 315 C 28.2558 0.892546 1.65575 0
M  V30 316 O 27.6138 -0.147772 1.80697 0
M  V30 317 C 27.6618 3.33468 1.37227 0
M  V30 318 O 26.7658 3.28954 2.48722 0
M  V30 319 H 26.1068 0.639339 0.17928 0
M  V30 320 H 28.6368 2.04463 -0.0748802 0
M  V30 321 H 28.6468 3.69417 1.7319 0
M  V30 322 H 27.3218 4.10694 0.656007 0
M  V30 323 H 25.8988 3.04705 2.14963 0
M  V30 324 N 28.0839 -0.256276 1.55502 0
M  V30 325 C 29.0319 -1.33694 1.90338 0
M  V30 326 C 30.0259 -1.50299 0.781441 0
M  V30 327 O 31.2319 -1.51885 0.965966 0
M  V30 328 H 27.6069 -0.447483 0.60437 0
M  V30 329 H 29.5779 -1.01574 2.8058 0
M  V30 330 C 28.3269 -2.68724 2.20642 0
M  V30 331 H 27.6499 -2.56743 3.06469 0
M  V30 332 H 29.0899 -3.43237 2.48926 0
M  V30 333 C 27.5489 -3.21101 1.01959 0
M  V30 334 O 28.0789 -4.0084 0.262762 0
M  V30 335 N 26.2849 -2.79003 0.812746 0
M  V30 336 H 25.8319 -2.14271 1.42989 0
M  V30 337 H 25.7899 -3.14393 0.0203076 0
M  V30 338 N 29.562 -1.4872 -0.521534 0
M  V30 339 C 30.808 -1.574 -1.27879 0
M  V30 340 C 31.141 -0.250817 -1.92573 0
M  V30 341 O 30.416 0.743934 -1.79711 0
M  V30 342 C 30.699 -2.71843 -2.36164 0
M  V30 343 C 30.552 -4.13893 -1.76105 0
M  V30 344 C 31.871 -2.82008 -3.37875 0
M  V30 345 H 28.99 -0.572941 -0.463581 0
M  V30 346 H 31.632 -1.80927 -0.580119 0
M  V30 347 H 29.782 -2.51914 -2.95756 0
M  V30 348 H 31.454 -4.45284 -1.20499 0
M  V30 349 H 29.697 -4.20498 -1.06601 0
M  V30 350 H 30.368 -4.89804 -2.5455 0
M  V30 351 H 32.844 -3.00086 -2.88249 0
M  V30 352 H 31.72 -3.63796 -4.11028 0
M  V30 353 H 31.981 -1.90511 -3.98946 0
M  V30 354 N 31.0401 0.771051 -1.3745 0
M  V30 355 C 32.4511 1.34737 -1.29239 0
M  V30 356 C 32.8021 1.96109 0.0596908 0
M  V30 357 O 31.9271 1.93865 0.961534 0
M  V30 358 C 32.5221 2.44973 -2.34037 0
M  V30 359 C 31.0811 2.98372 -2.29458 0
M  V30 360 C 30.2281 1.71595 -2.17831 0
M  V30 361 H 33.1791 0.571256 -1.48062 0
M  V30 362 H 33.2001 3.24471 -1.98744 0
M  V30 363 H 32.7121 2.00276 -3.32432 0
M  V30 364 H 30.8131 3.47443 -1.34589 0
M  V30 365 H 30.9261 3.53939 -3.229 0
M  V30 366 H 29.2901 1.94547 -1.64388 0
M  V30 367 H 30.0731 1.29001 -3.18141 0
M  V30 368 N 32.5182 1.22032 0.997298 0
M  V30 369 C 33.4812 0.987909 2.06816 0
M  V30 370 C 34.4812 -0.0440084 1.6074 0
M  V30 371 O 35.6712 0.194053 1.73116 0
M  V30 372 C 32.8032 0.49132 3.37341 0
M  V30 373 H 33.9962 1.93803 2.28868 0
M  V30 374 H 31.5492 1.03838 1.16822 0
M  V30 375 H 32.2842 -0.463364 3.20973 0
M  V30 376 H 32.0692 1.23575 3.72118 0
M  V30 377 H 33.5592 0.348824 4.16141 0
M  V30 378 N 33.9963 -1.19345 1.0293 0
M  V30 379 C 34.9263 -2.2481 0.631105 0
M  V30 380 C 35.9073 -1.66245 -0.360104 0
M  V30 381 O 37.0923 -1.92677 -0.242726 0
M  V30 382 C 34.2223 -3.47295 -0.0184607 0
M  V30 383 C 33.1763 -4.18536 0.895073 0
M  V30 384 C 32.5023 -5.34586 0.110592 0
M  V30 385 C 33.8023 -4.73287 2.209 0
M  V30 386 H 35.4963 -2.58372 1.51275 0
M  V30 387 H 33.0423 -1.24194 0.728818 0
M  V30 388 H 34.9953 -4.20268 -0.308675 0
M  V30 389 H 33.7193 -3.12933 -0.934907 0
M  V30 390 H 32.3783 -3.47446 1.16949 0
M  V30 391 H 32.0263 -4.96469 -0.807902 0
M  V30 392 H 31.7263 -5.83183 0.719087 0
M  V30 393 H 33.2503 -6.10355 -0.172871 0
M  V30 394 H 34.6643 -5.38013 1.98028 0
M  V30 395 H 33.0613 -5.32373 2.76946 0
M  V30 396 H 34.1313 -3.91331 2.86336 0
M  V30 397 N 35.4744 -0.807222 -1.35358 0
M  V30 398 C 36.3844 -0.219594 -2.3357 0
M  V30 399 C 37.4004 0.637734 -1.61892 0
M  V30 400 O 38.5764 0.549336 -1.93763 0
M  V30 401 C 35.6414 0.62158 -3.41083 0
M  V30 402 C 34.7024 -0.256315 -4.28534 0
M  V30 403 C 33.9354 0.544807 -5.30912 0
M  V30 404 O 34.1584 1.77944 -5.41934 0
M  V30 405 O 33.0924 -0.0646478 -6.01865 0
M  V30 406 H 36.9184 -1.03208 -2.85625 0
M  V30 407 H 34.5034 -0.569025 -1.38139 0
M  V30 408 H 36.3854 1.10067 -4.06772 0
M  V30 409 H 35.0604 1.41165 -2.91297 0
M  V30 410 H 33.9674 -0.782559 -3.65823 0
M  V30 411 H 35.3004 -1.01034 -4.81719 0
M  V30 412 N 36.9525 1.47285 -0.560781 0
M  V30 413 C 37.9155 2.28535 0.174488 0
M  V30 414 C 38.9155 1.37153 0.839388 0
M  V30 415 O 40.1055 1.59748 0.694702 0
M  V30 416 C 37.2375 3.16934 1.25561 0
M  V30 417 H 38.4305 2.95012 -0.539262 0
M  V30 418 H 35.9835 1.53034 -0.317865 0
M  V30 419 H 36.7185 2.55157 2.00164 0
M  V30 420 H 36.5035 3.8419 0.783604 0
M  V30 421 H 37.9935 3.78143 1.77193 0
M  V30 422 N 38.4306 0.297415 1.54768 0
M  V30 423 C 39.6706 -0.313829 2.01976 0
M  V30 424 C 40.0346 -1.51366 1.1812 0
M  V30 425 O 41.2356 -2.19603 1.5501 0
M  V30 426 C 39.5066 -0.664964 3.51159 0
M  V30 427 S 41.0656 -1.25958 4.20333 0
M  V30 428 H 37.8836 -0.0965014 0.704421 0
M  V30 429 H 40.4856 0.424451 1.90837 0
M  V30 430 H 39.1896 0.21681 4.09827 0
M  V30 431 H 38.7206 -1.43413 3.66328 0
M  V30 432 H 40.7356 -2.54751 4.25813 0
M  V30 433 N 39.9087 -1.5758 0.0250728 0
M  V30 434 C 41.3197 -1.79476 -0.514323 0
M  V30 435 C 41.6707 -0.934956 -1.72491 0
M  V30 436 O 40.7957 -0.144245 -2.15919 0
M  V30 437 C 41.3907 -3.25503 -0.939842 0
M  V30 438 C 39.9497 -3.48408 -1.42438 0
M  V30 439 C 39.0967 -2.74583 -0.387201 0
M  V30 440 H 42.0477 -1.567 0.25113 0
M  V30 441 H 42.0687 -3.34992 -1.80445 0
M  V30 442 H 41.5807 -3.88056 -0.0585628 0
M  V30 443 H 39.6817 -2.91103 -2.32572 0
M  V30 444 H 39.7947 -4.57119 -1.43455 0
M  V30 445 H 38.1587 -2.39942 -0.854409 0
M  V30 446 H 38.9417 -3.39849 0.485543 0
M  V30 447 N 41.3868 0.248026 -1.55636 0
M  V30 448 C 42.3188 1.32993 -1.8667 0
M  V30 449 C 43.3318 1.44345 -0.752877 0
M  V30 450 O 44.5208 1.45715 -1.03098 0
M  V30 451 C 41.6208 2.70863 -2.03682 0
M  V30 452 C 40.7938 2.81792 -3.34532 0
M  V30 453 C 39.8528 4.005 -3.41301 0
M  V30 454 O 38.8788 3.9008 -4.14519 0
M  V30 455 N 40.0808 5.13618 -2.70512 0
M  V30 456 H 42.8458 1.06707 -2.8006 0
M  V30 457 H 40.4068 0.438129 -1.55859 0
M  V30 458 H 42.3988 3.48612 -2.05553 0
M  V30 459 H 40.9688 2.89862 -1.17041 0
M  V30 460 H 40.1888 1.90729 -3.44987 0
M  V30 461 H 41.4768 2.86043 -4.20781 0
M  V30 462 H 40.8748 5.24975 -2.10755 0
M  V30 463 H 39.4318 5.89505 -2.78077 0
M  V30 464 N 42.8649 1.48995 0.513639 0
M  V30 465 C 43.8119 1.6473 1.61656 0
M  V30 466 C 44.7819 0.488984 1.58739 0
M  V30 467 O 45.9669 0.714478 1.76918 0
M  V30 468 C 43.1069 1.7082 2.99858 0
M  V30 469 C 42.2199 2.9787 3.12885 0
M  V30 470 C 41.3549 2.95017 4.41744 0
M  V30 471 C 40.3939 4.16702 4.48359 0
M  V30 472 N 39.5309 4.11832 5.68629 0
M  V30 473 H 44.3709 2.58909 1.47547 0
M  V30 474 H 41.9079 1.28382 0.71808 0
M  V30 475 H 43.8659 1.72331 3.79944 0
M  V30 476 H 42.4959 0.801181 3.12699 0
M  V30 477 H 41.5479 3.06029 2.25944 0
M  V30 478 H 42.8599 3.8786 3.13633 0
M  V30 479 H 42.0139 2.95021 5.30139 0
M  V30 480 H 40.7529 2.02784 4.43542 0
M  V30 481 H 39.7579 4.16955 3.58369 0
M  V30 482 H 40.9829 5.10113 4.48287 0
M  V30 483 H 38.9289 3.22428 5.71293 0
M  V30 484 H 38.8459 4.95543 5.7094 0
M  V30 485 H 40.1139 4.1592 6.59266 0
M  V30 486 N 44.343 -0.763751 1.37857 0
M  V30 487 C 45.759 -1.06542 1.18832 0
M  V30 488 C 45.959 -2.01478 0.0299722 0
M  V30 489 O 45.015 -2.4458 -0.627447 0
M  V30 490 C 46.328 -1.65525 2.51042 0
M  V30 491 C 47.876 -1.77745 2.57635 0
M  V30 492 C 48.351 -2.4014 3.89996 0
M  V30 493 N 49.842 -2.47582 3.91481 0
M  V30 494 C 50.577 -2.96732 4.9065 0
M  V30 495 N 50.073 -3.45993 6.00217 0
M  V30 496 N 51.866 -2.95679 4.78048 0
M  V30 497 H 44.017 -0.133556 2.1198 0
M  V30 498 H 46.28 -0.121879 0.940133 0
M  V30 499 H 45.986 -1.03236 3.36207 0
M  V30 500 H 45.86 -2.64719 2.68707 0
M  V30 501 H 48.247 -2.39164 1.72872 0
M  V30 502 H 48.328 -0.772836 2.43846 0
M  V30 503 H 47.972 -1.79358 4.75177 0
M  V30 504 H 47.902 -3.41223 4.01092 0
M  V30 505 H 50.393 -2.1273 3.12337 0
M  V30 506 H 50.706 -3.81922 6.7183 0
M  V30 507 H 49.051 -3.44077 6.03851 0
M  V30 508 H 52.242 -2.56499 3.91568 0
M  V30 509 H 52.415 -3.33672 5.55488 0
M  V30 510 N 45.8211 -1.22559 -0.990812 0
M  V30 511 C 47.0691 -1.04933 -1.72724 0
M  V30 512 C 47.3901 0.416158 -1.90508 0
M  V30 513 O 46.6601 1.29918 -1.46622 0
M  V30 514 H 45.2401 -0.385296 -0.639965 0
M  V30 515 H 47.9021 -1.54105 -1.19322 0
M  V30 516 H 46.9981 -1.52886 -2.72089 0
M  V30 517 N 47.2992 1.18797 -1.03562 0
M  V30 518 C 48.5452 1.8893 -0.737113 0
M  V30 519 C 48.8782 1.79837 0.732956 0
M  V30 520 O 48.1532 1.19525 1.5344 0
M  V30 521 C 48.4362 3.39607 -1.19745 0
M  V30 522 C 48.2892 3.57537 -2.72924 0
M  V30 523 C 49.6082 4.33069 -0.783526 0
M  V30 524 H 46.7272 0.686057 -0.269249 0
M  V30 525 H 49.3692 1.39797 -1.28673 0
M  V30 526 H 47.5192 3.81583 -0.729855 0
M  V30 527 H 49.1912 3.24688 -3.27682 0
M  V30 528 H 47.4342 3.00363 -3.12993 0
M  V30 529 H 48.1052 4.63238 -3.00191 0
M  V30 530 H 50.5812 3.98846 -1.18581 0
M  V30 531 H 49.4572 5.3707 -1.13343 0
M  V30 532 H 49.7182 4.40986 0.313681 0
M  V30 533 N 48.7773 0.814389 1.34928 0
M  V30 534 C 50.0173 0.404165 2.00364 0
M  V30 535 C 50.3813 -1.01166 1.63185 0
M  V30 536 O 51.5823 -1.52431 2.21401 0
M  V30 537 C 49.8533 0.590718 3.52484 0
M  V30 538 S 51.4123 0.272075 4.37956 0
M  V30 539 H 48.2303 0.15311 0.694319 0
M  V30 540 H 50.8323 1.05834 1.64376 0
M  V30 541 H 49.5363 1.62099 3.77031 0
M  V30 542 H 49.0673 -0.0785013 3.93322 0
M  V30 543 H 51.0823 -0.917405 4.87645 0
M  V30 544 N 50.2554 -1.46986 0.568584 0
M  V30 545 C 51.4834 -2.0683 0.0539956 0
M  V30 546 C 51.8984 -1.41953 -1.24478 0
M  V30 547 O 51.2554 -0.519933 -1.74937 0
M  V30 548 C 51.3064 -3.61254 -0.133362 0
M  V30 549 O 51.0274 -4.237 1.11399 0
M  V30 550 C 52.5284 -4.37992 -0.683927 0
M  V30 551 H 49.7484 -0.669058 0.0510141 0
M  V30 552 H 52.2924 -1.88824 0.785234 0
M  V30 553 H 50.4474 -3.78735 -0.81477 0
M  V30 554 H 50.8614 -5.16388 0.91888 0
M  V30 555 H 52.3354 -5.46684 -0.764263 0
M  V30 556 H 52.8124 -4.05058 -1.69778 0
M  V30 557 H 53.4184 -4.25283 -0.0378494 0
M  V30 558 N 51.7335 -0.305618 -1.54608 0
M  V30 559 C 53.1495 0.0476228 -1.59529 0
M  V30 560 C 53.3495 1.52025 -1.32252 0
M  V30 561 O 52.4055 2.27368 -1.09818 0
M  V30 562 C 53.7185 -0.354471 -2.98603 0
M  V30 563 C 55.2665 -0.303622 -3.11524 0
M  V30 564 C 55.7415 -0.680608 -4.52915 0
M  V30 565 N 57.2325 -0.63332 -4.5885 0
M  V30 566 C 57.9675 -0.897432 -5.66334 0
M  V30 567 N 57.4635 -1.22775 -6.81834 0
M  V30 568 N 59.2565 -0.824186 -5.56025 0
M  V30 569 H 51.4075 -1.2653 -1.70599 0
M  V30 570 H 53.6705 -0.513291 -0.797017 0
M  V30 571 H 53.3765 -1.3798 -3.23503 0
M  V30 572 H 53.2505 0.289568 -3.76087 0
M  V30 573 H 55.6375 0.712472 -2.8637 0
M  V30 574 H 55.7185 -0.982348 -2.36185 0
M  V30 575 H 55.3625 -1.69453 -4.78799 0
M  V30 576 H 55.2925 0.0202385 -5.26596 0
M  V30 577 H 57.7835 -0.389138 -3.75891 0
M  V30 578 H 58.0965 -1.41513 -7.59733 0
M  V30 579 H 56.4415 -1.26583 -6.83375 0
M  V30 580 H 59.6325 -0.565748 -4.64669 0
M  V30 581 H 59.8055 -1.03338 -6.39707 0
M  V30 582 N 53.2116 1.57565 -0.0334293 0
M  V30 583 C 54.4576 1.92262 0.645226 0
M  V30 584 C 54.7906 0.910543 1.71531 0
M  V30 585 O 54.0656 -0.066099 1.94388 0
M  V30 586 C 54.3486 3.37422 1.2577 0
M  V30 587 C 54.2016 4.49369 0.196891 0
M  V30 588 C 55.5206 3.82628 2.17449 0
M  V30 589 H 52.6396 0.699171 0.233085 0
M  V30 590 H 55.2816 1.89779 -0.0915694 0
M  V30 591 H 53.4316 3.39669 1.88566 0
M  V30 592 H 55.1036 4.59254 -0.433962 0
M  V30 593 H 53.3466 4.31168 -0.477137 0
M  V30 594 H 54.0176 5.47978 0.665124 0
M  V30 595 H 56.4936 3.82145 1.64634 0
M  V30 596 H 55.3696 4.84883 2.57254 0
M  V30 597 H 55.6306 3.18376 3.0674 0
M  V30 598 N 54.6897 -0.239769 1.55765 0
M  V30 599 C 55.9197 -0.982743 1.8173 0
M  V30 600 C 56.3277 -1.7917 0.607835 0
M  V30 601 O 55.6707 -1.78525 -0.432973 0
M  V30 602 C 55.7327 -1.96332 3.01155 0
M  V30 603 C 55.3967 -1.34062 4.36894 0
M  V30 604 C 56.3937 -0.739539 5.14613 0
M  V30 605 C 54.0787 -1.35784 4.83599 0
M  V30 606 C 56.0727 -0.163989 6.37189 0
M  V30 607 C 53.7597 -0.778441 6.06122 0
M  V30 608 C 54.7577 -0.182548 6.82756 0
M  V30 609 O 54.4457 0.387887 8.02964 0
M  V30 610 H 54.1777 -0.294481 0.608487 0
M  V30 611 H 56.7317 -0.26572 2.03674 0
M  V30 612 H 54.9617 -2.71884 2.74984 0
M  V30 613 H 56.6507 -2.57032 3.14149 0
M  V30 614 H 57.4167 -0.718687 4.79646 0
M  V30 615 H 53.2957 -1.81105 4.23936 0
M  V30 616 H 56.8397 0.301753 6.96947 0
M  V30 617 H 52.7367 -0.796645 6.40565 0
M  V30 618 H 53.5047 0.28044 8.18019 0
M  V30 619 N 56.1678 -1.49265 -0.50573 0
M  V30 620 C 57.3958 -1.62215 -1.28429 0
M  V30 621 C 57.8108 -0.291697 -1.86533 0
M  V30 622 O 57.1678 0.722233 -1.67601 0
M  V30 623 C 57.2188 -2.68735 -2.41793 0
M  V30 624 O 56.9398 -3.96619 -1.86078 0
M  V30 625 C 58.4408 -2.92346 -3.3324 0
M  V30 626 H 55.6608 -0.546239 -0.389697 0
M  V30 627 H 58.2048 -1.95265 -0.607609 0
M  V30 628 H 56.3598 -2.38476 -3.053 0
M  V30 629 H 56.7738 -4.55256 -2.60465 0
M  V30 630 H 58.2478 -3.70623 -4.09075 0
M  V30 631 H 58.7248 -2.02081 -3.89948 0
M  V30 632 H 59.3308 -3.24003 -2.75503 0
M  V30 633 N 57.6459 0.756429 -1.3826 0
M  V30 634 C 58.8739 1.54565 -1.3754 0
M  V30 635 C 59.2889 1.88767 0.0355331 0
M  V30 636 O 58.6459 1.52572 1.0014 0
M  V30 637 C 58.6969 2.84654 -2.22833 0
M  V30 638 O 58.4179 2.51912 -3.5843 0
M  V30 639 C 59.9189 3.78807 -2.30261 0
M  V30 640 H 57.1389 0.478353 -0.470553 0
M  V30 641 H 59.6829 0.936381 -1.81803 0
M  V30 642 H 57.8379 3.41965 -1.8204 0
M  V30 643 H 58.2519 3.35325 -4.03308 0
M  V30 644 H 59.7259 4.67045 -2.94233 0
M  V30 645 H 60.2029 4.19038 -1.31545 0
M  V30 646 H 60.8089 3.2742 -2.71433 0
M  V30 647 N 59.124 1.23083 0.984299 0
M  V30 648 C 60.352 1.08714 1.76037 0
M  V30 649 C 60.767 -0.361691 1.85303 0
M  V30 650 O 60.124 -1.25034 1.32939 0
M  V30 651 C 60.175 1.70206 3.18923 0
M  V30 652 O 59.896 3.09423 3.10144 0
M  V30 653 C 61.397 1.61227 4.12941 0
M  V30 654 H 58.617 0.380664 0.552572 0
M  V30 655 H 61.161 1.62853 1.23689 0
M  V30 656 H 59.316 1.20109 3.6831 0
M  V30 657 H 59.73 3.39188 4.00065 0
M  V30 658 H 61.204 2.08962 5.10919 0
M  V30 659 H 61.681 0.570375 4.35481 0
M  V30 660 H 62.287 2.10671 3.69456 0
M  V30 661 N 60.6021 -1.18246 1.0419 0
M  V30 662 C 62.0131 -1.69914 0.773698 0
M  V30 663 C 62.3641 -1.83085 -0.705297 0
M  V30 664 O 61.4891 -1.51123 -1.5489 0
M  V30 665 C 62.0841 -3.08619 1.39784 0
M  V30 666 C 60.6431 -3.57494 1.17792 0
M  V30 667 C 59.7901 -2.34013 1.48773 0
M  V30 668 H 62.7411 -1.02904 1.20816 0
M  V30 669 H 62.7621 -3.71958 0.801714 0
M  V30 670 H 62.2741 -2.99001 2.47426 0
M  V30 671 H 60.3751 -3.72406 0.120295 0
M  V30 672 H 60.4881 -4.40852 1.87581 0
M  V30 673 H 58.8521 -2.37986 0.907463 0
M  V30 674 H 59.6351 -2.27013 2.57527 0
M  V30 675 N 62.0802 -0.821533 -1.34494 0
M  V30 676 C 63.0272 -0.240397 -2.29545 0
M  V30 677 C 63.9972 0.634031 -1.53523 0
M  V30 678 O 65.1822 0.575966 -1.81899 0
M  V30 679 C 62.3222 0.592869 -3.39969 0
M  V30 680 C 61.4352 -0.30365 -4.30932 0
M  V30 681 C 60.5702 0.539049 -5.28458 0
M  V30 682 C 59.6092 -0.356942 -6.11058 0
M  V30 683 N 58.7462 0.446603 -7.00678 0
M  V30 684 H 63.5862 -1.05632 -2.7865 0
M  V30 685 H 61.1232 -0.532413 -1.37127 0
M  V30 686 H 63.0812 1.09129 -4.02675 0
M  V30 687 H 61.7112 1.37392 -2.92102 0
M  V30 688 H 60.7632 -0.920276 -3.691 0
M  V30 689 H 62.0752 -0.992661 -4.88823 0
M  V30 690 H 61.2292 1.102 -5.96608 0
M  V30 691 H 59.9682 1.26157 -4.71101 0
M  V30 692 H 58.9732 -0.932047 -5.41842 0
M  V30 693 H 60.1982 -1.07755 -6.70497 0
M  V30 694 H 58.1442 1.15282 -6.45791 0
M  V30 695 H 58.0612 -0.184048 -7.55776 0
M  V30 696 H 59.3292 0.992352 -7.73158 0
M  V30 697 N 63.5583 1.46682 -0.576371 0
M  V30 698 C 64.5053 2.30241 0.160499 0
M  V30 699 C 65.4753 1.40233 0.890162 0
M  V30 700 O 66.6603 1.69186 0.882084 0
M  V30 701 C 63.8003 3.24578 1.1723 0
M  V30 702 C 62.9133 4.29684 0.446736 0
M  V30 703 C 62.0483 5.11154 1.44551 0
M  V30 704 C 61.0873 6.08015 0.70599 0
M  V30 705 N 60.2243 6.82376 1.65251 0
M  V30 706 H 65.0643 2.92727 -0.558127 0
M  V30 707 H 62.6013 1.44272 -0.287056 0
M  V30 708 H 64.5593 3.77711 1.77172 0
M  V30 709 H 63.1893 2.63916 1.85872 0
M  V30 710 H 62.2413 3.79458 -0.267594 0
M  V30 711 H 63.5533 4.98626 -0.131686 0
M  V30 712 H 62.7073 5.68533 2.11791 0
M  V30 713 H 61.4463 4.42158 2.05786 0
M  V30 714 H 60.4513 5.49796 0.0197725 0
M  V30 715 H 61.6763 6.79028 0.09912 0
M  V30 716 H 59.6223 6.16094 2.25308 0
M  V30 717 H 59.5393 7.47556 1.12673 0
M  V30 718 H 60.8073 7.44316 2.31546 0
M  V30 719 N 65.0364 0.313813 1.54444 0
M  V30 720 C 66.4474 -0.176243 1.85866 0
M  V30 721 C 66.7984 -1.52405 1.23561 0
M  V30 722 O 65.9234 -2.09605 0.538016 0
M  V30 723 C 66.5184 -0.32657 3.37222 0
M  V30 724 C 65.0774 -0.760846 3.6863 0
M  V30 725 C 64.2244 0.123247 2.77026 0
M  V30 726 H 67.1754 0.534418 1.49431 0
M  V30 727 H 67.1964 -1.15908 3.62416 0
M  V30 728 H 66.7084 0.654531 3.82541 0
M  V30 729 H 64.8094 -1.75204 3.28838 0
M  V30 730 H 64.9224 -0.571353 4.75681 0
M  V30 731 H 63.2864 -0.399597 2.51546 0
M  V30 732 H 64.0694 1.10094 3.25168 0
M  V30 733 N 66.5145 -1.57545 0.0417849 0
M  V30 734 C 67.4625 -2.12148 -0.953723 0
M  V30 735 C 68.4565 -1.05104 -1.32852 0
M  V30 736 O 69.6625 -1.23524 -1.30927 0
M  V30 737 H 66.0375 -0.677957 -0.325389 0
M  V30 738 H 68.0085 -2.94707 -0.467991 0
M  V30 739 C 66.7575 -2.6739 -2.22257 0
M  V30 740 H 66.0805 -3.49413 -1.94295 0
M  V30 741 H 67.5205 -3.09227 -2.90094 0
M  V30 742 C 65.9795 -1.60723 -2.96091 0
M  V30 743 O 66.5095 -1.01449 -3.88679 0
M  V30 744 N 64.7155 -1.32466 -2.58652 0
M  V30 745 H 64.2625 -1.80856 -1.83437 0
M  V30 746 H 64.2205 -0.61325 -3.08361 0
M  V30 747 N 67.9926 0.231505 -1.5589 0
M  V30 748 C 69.2176 0.978689 -1.82856 0
M  V30 749 C 69.6426 1.77559 -0.620846 0
M  V30 750 O 69.0006 1.76119 0.430305 0
M  V30 751 C 69.0486 1.87997 -3.07716 0
M  V30 752 O 68.1526 2.97393 -2.85712 0
M  V30 753 H 67.4936 0.277663 -0.603158 0
M  V30 754 H 70.0236 0.24783 -2.03093 0
M  V30 755 H 70.0336 2.2917 -3.37558 0
M  V30 756 H 68.7086 1.29417 -3.95252 0
M  V30 757 H 67.2856 2.60238 -2.67078 0
M  V30 758 N 69.4707 1.49531 0.497807 0
M  V30 759 C 70.4337 1.65916 1.58128 0
M  V30 760 C 71.4337 0.530825 1.51786 0
M  V30 761 O 72.6237 0.797342 1.54881 0
M  V30 762 C 69.7557 1.65951 2.9778 0
M  V30 763 H 70.9487 2.62556 1.44929 0
M  V30 764 H 68.5017 1.38611 0.722275 0
M  V30 765 H 69.2367 0.709065 3.16453 0
M  V30 766 H 69.0217 2.47897 3.03792 0
M  V30 767 H 70.5117 1.80673 3.76493 0
M  V30 768 N 70.9488 -0.749086 1.3866 0
M  V30 769 C 71.8788 -1.8764 1.38973 0
M  V30 770 C 72.8598 -1.68178 0.255004 0
M  V30 771 O 74.0448 -1.88704 0.458754 0
M  V30 772 C 71.1748 -3.25222 1.21851 0
M  V30 773 C 70.1288 -3.59295 2.32575 0
M  V30 774 C 69.4548 -4.95663 2.00555 0
M  V30 775 C 70.7548 -3.63709 3.7485 0
M  V30 776 H 72.4488 -1.87635 2.3331 0
M  V30 777 H 69.9948 -0.901329 1.12303 0
M  V30 778 H 71.9478 -4.03746 1.20695 0
M  V30 779 H 70.6718 -3.25719 0.239775 0
M  V30 780 H 69.3308 -2.83093 2.32925 0
M  V30 781 H 68.9788 -4.92724 1.01154 0
M  V30 782 H 68.6788 -5.19429 2.74714 0
M  V30 783 H 70.2028 -5.7656 2.01024 0
M  V30 784 H 71.6168 -4.32338 3.76506 0
M  V30 785 H 70.0138 -3.98986 4.48252 0
M  V30 786 H 71.0838 -2.63834 4.06841 0
M  V30 787 N 72.4269 -1.23603 -0.977757 0
M  V30 788 C 73.8429 -0.999251 -1.24447 0
M  V30 789 C 74.0429 0.298053 -1.99283 0
M  V30 790 O 73.0989 1.01681 -2.31122 0
M  V30 791 C 74.4119 -2.20784 -2.04144 0
M  V30 792 C 75.9599 -2.25303 -2.17273 0
M  V30 793 C 76.4349 -3.45755 -3.00362 0
M  V30 794 N 77.9259 -3.4601 -3.07947 0
M  V30 795 C 78.6609 -4.35868 -3.72568 0
M  V30 796 N 78.1569 -5.35966 -4.38991 0
M  V30 797 N 79.9499 -4.23605 -3.6948 0
M  V30 798 H 72.1009 -2.06986 -0.476483 0
M  V30 799 H 74.3639 -0.907801 -0.273134 0
M  V30 800 H 74.0699 -3.14945 -1.56533 0
M  V30 801 H 73.9439 -2.22085 -3.04891 0
M  V30 802 H 76.3309 -1.3168 -2.64092 0
M  V30 803 H 76.4119 -2.28033 -1.15907 0
M  V30 804 H 76.0559 -4.39687 -2.5424 0
M  V30 805 H 75.9859 -3.40266 -4.01904 0
M  V30 806 H 78.4769 -2.73588 -2.60688 0
M  V30 807 H 78.7899 -6.00783 -4.86086 0
M  V30 808 H 77.1349 -5.39863 -4.37691 0
M  V30 809 H 80.3259 -3.44647 -3.16759 0
M  V30 810 H 80.4989 -4.93836 -4.1956 0
M  V30 811 N 73.905 1.17692 -1.04816 0
M  V30 812 C 74.852 2.21581 -0.645797 0
M  V30 813 C 75.822 1.62367 0.350159 0
M  V30 814 O 77.007 1.89254 0.242433 0
M  V30 815 C 74.147 3.45092 -0.0227568 0
M  V30 816 C 73.26 4.18613 -1.06709 0
M  V30 817 C 72.395 5.29602 -0.411767 0
M  V30 818 C 71.434 5.94904 -1.44067 0
M  V30 819 N 70.571 6.97414 -0.809781 0
M  V30 820 H 75.411 2.55353 -1.5362 0
M  V30 821 H 72.948 1.25438 -0.768364 0
M  V30 822 H 74.906 4.15679 0.35588 0
M  V30 823 H 73.536 3.11917 0.831122 0
M  V30 824 H 72.588 3.46779 -1.5636 0
M  V30 825 H 73.9 4.63293 -1.84827 0
M  V30 826 H 73.054 6.06696 0.0206623 0
M  V30 827 H 71.793 4.86045 0.401438 0
M  V30 828 H 70.798 5.16544 -1.88316 0
M  V30 829 H 72.023 6.40542 -2.25571 0
M  V30 830 H 69.969 6.55998 -0.0170186 0
M  V30 831 H 69.886 7.40386 -1.52856 0
M  V30 832 H 71.154 7.78463 -0.401999 0
M  V30 833 N 75.3831 0.828654 1.34056 0
M  V30 834 C 76.6291 0.42008 1.98402 0
M  V30 835 C 76.9621 -1.01564 1.65525 0
M  V30 836 O 76.2371 -1.70834 0.929831 0
M  V30 837 C 76.5201 0.62927 3.54559 0
M  V30 838 C 76.3731 2.11152 3.97159 0
M  V30 839 C 77.6921 0.0688756 4.40046 0
M  V30 840 H 74.8111 0.154104 0.720709 0
M  V30 841 H 77.4531 1.04228 1.5886 0
M  V30 842 H 75.6031 0.0996418 3.88372 0
M  V30 843 H 77.2751 2.70522 3.73651 0
M  V30 844 H 75.5181 2.59985 3.47261 0
M  V30 845 H 76.1891 2.20868 5.05887 0
M  V30 846 H 78.6651 0.521458 4.1282 0
M  V30 847 H 77.5411 0.245006 5.48353 0
M  V30 848 H 77.8021 -1.0266 4.30015 0
M  V30 849 N 76.8612 -1.46375 0.584142 0
M  V30 850 C 78.1012 -2.0427 0.0729695 0
M  V30 851 C 78.4652 -1.44563 -1.26355 0
M  V30 852 O 79.6662 -1.93667 -1.86405 0
M  V30 853 C 77.9372 -3.57399 0.00967464 0
M  V30 854 S 79.4962 -4.36551 -0.443714 0
M  V30 855 H 76.3142 -0.709975 0.0381673 0
M  V30 856 H 78.9162 -1.79398 0.776962 0
M  V30 857 H 77.6202 -3.98372 0.986319 0
M  V30 858 H 77.1512 -3.8681 -0.717044 0
M  V30 859 H 79.1662 -4.66237 -1.69816 0
M  V30 860 N 78.3393 -0.321999 -1.54275 0
M  V30 861 C 79.7553 0.0306999 -1.5957 0
M  V30 862 C 79.9553 1.50614 -1.33857 0
M  V30 863 O 79.0113 2.2619 -1.12223 0
M  V30 864 C 80.3243 -0.386122 -2.98211 0
M  V30 865 C 81.8723 -0.336647 -3.11184 0
M  V30 866 C 82.3473 -0.728607 -4.52167 0
M  V30 867 N 83.8383 -0.681952 -4.58152 0
M  V30 868 C 84.5733 -0.957449 -5.6535 0
M  V30 869 N 84.0693 -1.3 -6.80494 0
M  V30 870 N 85.8623 -0.883113 -5.55119 0
M  V30 871 H 78.0133 -1.28332 -1.69247 0
M  V30 872 H 80.2763 -0.521716 -0.791528 0
M  V30 873 H 79.9823 -1.41404 -3.22022 0
M  V30 874 H 79.8563 0.249662 -3.76373 0
M  V30 875 H 82.2433 0.682058 -2.8711 0
M  V30 876 H 82.3243 -1.00734 -2.3513 0
M  V30 877 H 81.9683 -1.74522 -4.76974 0
M  V30 878 H 81.8983 -0.0356152 -5.26588 0
M  V30 879 H 84.3893 -0.428985 -3.75457 0
M  V30 880 H 84.7023 -1.49563 -7.58189 0
M  V30 881 H 83.0473 -1.33824 -6.81994 0
M  V30 882 H 86.2383 -0.615001 -4.64042 0
M  V30 883 H 86.4113 -1.10118 -6.38575 0
M  V30 884 N 79.8174 1.5752 -0.0501392 0
M  V30 885 C 81.0634 1.92936 0.624798 0
M  V30 886 C 81.3964 0.928685 1.70555 0
M  V30 887 O 80.6714 -0.0454779 1.94447 0
M  V30 888 C 80.9544 3.38737 1.22185 0
M  V30 889 C 80.8074 4.49552 0.149218 0
M  V30 890 C 82.1264 3.84913 2.13378 0
M  V30 891 H 79.2454 0.701604 0.225657 0
M  V30 892 H 81.8874 1.89671 -0.111693 0
M  V30 893 H 80.0374 3.4165 1.84953 0
M  V30 894 H 81.7094 4.58768 -0.482648 0
M  V30 895 H 79.9524 4.30638 -0.522841 0
M  V30 896 H 80.6234 5.48653 0.606966 0
M  V30 897 H 83.0994 3.8387 1.60572 0
M  V30 898 H 81.9754 4.87584 2.52097 0
M  V30 899 H 82.2364 3.21611 3.03346 0
M  V30 900 N 81.2955 -0.223234 1.56011 0
M  V30 901 C 82.7115 -0.572856 1.48965 0
M  V30 902 C 82.9115 -1.87225 0.74492 0
M  V30 903 O 81.9675 -2.50899 0.283896 0
M  V30 904 C 83.2805 -0.653646 2.9351 0
M  V30 905 C 84.8285 -0.744386 3.0402 0
M  V30 906 C 85.3035 -0.856535 4.49919 0
M  V30 907 N 86.7945 -0.9208 4.53955 0
M  V30 908 C 87.5295 -1.02726 5.64123 0
M  V30 909 N 87.0255 -1.09777 6.84047 0
M  V30 910 N 88.8185 -1.06226 5.51971 0
M  V30 911 H 80.9695 0.629462 2.02858 0
M  V30 912 H 83.2325 0.220621 0.921971 0
M  V30 913 H 82.9385 0.231518 3.50937 0
M  V30 914 H 82.8125 -1.51781 3.45315 0
M  V30 915 H 85.1995 -1.61999 2.46658 0
M  V30 916 H 85.2805 0.14541 2.55386 0
M  V30 917 H 84.9245 0.0146069 5.07898 0
M  V30 918 H 84.8545 -1.76172 4.96257 0
M  V30 919 H 87.3455 -0.876694 3.6759 0
M  V30 920 H 87.6585 -1.17872 7.63758 0
M  V30 921 H 86.0035 -1.06693 6.86762 0
M  V30 922 H 89.1945 -1.00382 4.5721 0
M  V30 923 H 89.3675 -1.14177 6.37862 0
M  V30 924 N 82.7736 -1.49793 -0.48987 0
M  V30 925 C 83.7036 -1.70201 -1.59856 0
M  V30 926 C 84.6846 -0.55076 -1.60937 0
M  V30 927 O 85.8696 -0.787841 -1.77501 0
M  V30 928 C 82.9996 -1.77882 -2.98287 0
M  V30 929 C 81.9536 -2.92907 -3.12073 0
M  V30 930 C 81.2796 -2.85712 -4.51965 0
M  V30 931 C 82.5796 -4.3369 -2.91051 0
M  V30 932 H 84.2736 -2.63025 -1.43032 0
M  V30 933 H 81.8196 -1.26574 -0.686664 0
M  V30 934 H 83.7726 -1.90744 -3.75759 0
M  V30 935 H 82.4966 -0.816653 -3.16225 0
M  V30 936 H 81.1556 -2.79665 -2.37029 0
M  V30 937 H 80.8036 -1.8738 -4.66795 0
M  V30 938 H 80.5036 -3.62921 -4.62128 0
M  V30 939 H 82.0276 -3.00598 -5.31482 0
M  V30 940 H 83.4416 -4.47555 -3.58284 0
M  V30 941 H 81.8386 -5.12205 -3.12675 0
M  V30 942 H 82.9086 -4.47362 -1.87071 0
M  V30 943 N 84.2517 0.741722 -1.39055 0
M  V30 944 C 85.4797 1.53098 -1.39171 0
M  V30 945 C 85.8947 1.88794 0.0155099 0
M  V30 946 O 85.2517 1.53626 0.985159 0
M  V30 947 C 85.3027 2.82274 -2.2584 0
M  V30 948 O 85.0237 2.48097 -3.61081 0
M  V30 949 C 86.5247 3.76343 -2.34266 0
M  V30 950 H 83.7447 0.473335 -0.4756 0
M  V30 951 H 86.2887 0.917045 -1.82785 0
M  V30 952 H 84.4437 3.40015 -1.85656 0
M  V30 953 H 84.8577 3.31029 -4.06842 0
M  V30 954 H 86.3317 4.63898 -2.9917 0
M  V30 955 H 86.8087 4.17619 -1.35982 0
M  V30 956 H 87.4147 3.24523 -2.74891 0
M  V30 957 N 85.7298 1.2412 0.971189 0
M  V30 958 C 86.6778 1.02812 2.08644 0
M  V30 959 C 87.6718 -0.0358403 1.69362 0
M  V30 960 O 88.8778 0.118429 1.7961 0
M  V30 961 H 85.2528 0.315428 0.682649 0
M  V30 962 H 87.2238 1.97397 2.23779 0
M  V30 963 C 85.9728 0.645874 3.41649 0
M  V30 964 H 85.2958 1.45632 3.72332 0
M  V30 965 H 86.7358 0.536366 4.20594 0
M  V30 966 C 85.1948 -0.646713 3.30635 0
M  V30 967 O 85.7248 -1.69338 3.64263 0
M  V30 968 N 83.9308 -0.626115 2.83775 0
M  V30 969 H 83.4778 0.225988 2.56607 0
M  V30 970 H 83.4358 -1.49117 2.76788 0
M  V30 971 N 87.2079 -1.17134 1.05439 0
M  V30 972 C 88.4559 -1.87085 0.764429 0
M  V30 973 C 88.7769 -1.81584 -0.710787 0
M  V30 974 O 88.0469 -1.24349 -1.51374 0
M  V30 975 H 86.6269 -0.692627 0.279779 0
M  V30 976 H 89.2889 -1.42087 1.33406 0
M  V30 977 H 88.3849 -2.92759 1.0816 0
M  V30 978 N 88.686 -0.835752 -1.33615 0
M  V30 979 C 89.933 -0.429959 -1.97883 0
M  V30 980 C 90.261 1.01006 -1.66217 0
M  V30 981 O 89.516 1.72047 -0.93265 0
M  V30 982 C 89.815 -0.593925 -3.52431 0
M  V30 983 C 89.481 -2.00158 -4.04039 0
M  V30 984 C 88.143 -2.38662 -4.17844 0
M  V30 985 C 90.495 -2.92117 -4.31644 0
M  V30 986 C 87.823 -3.68435 -4.56588 0
M  V30 987 C 90.175 -4.21368 -4.71838 0
M  V30 988 C 88.839 -4.59833 -4.83849 0
M  V30 989 H 88.109 -0.157333 -0.724104 0
M  V30 990 H 90.756 -1.06217 -1.59343 0
M  V30 991 H 89.061 0.121619 -3.91611 0
M  V30 992 H 90.758 -0.260282 -4.00154 0
M  V30 993 H 87.348 -1.69252 -3.93766 0
M  V30 994 H 91.532 -2.63608 -4.20505 0
M  V30 995 H 86.788 -3.98046 -4.64079 0
M  V30 996 H 90.962 -4.92703 -4.92155 0
M  V30 997 H 88.589 -5.60438 -5.13627 0
M  V30 998 N 90.1641 1.46063 -0.591896 0
M  V30 999 C 91.0741 2.34192 0.13831 0
M  V30 1000 C 92.0901 1.50305 0.876608 0
M  V30 1001 O 93.2661 1.8315 0.837728 0
M  V30 1002 C 90.3311 3.27656 1.13326 0
M  V30 1003 C 89.3921 4.27445 0.39863 0
M  V30 1004 C 88.6251 5.16443 1.34618 0
M  V30 1005 O 88.8481 5.08553 2.58321 0
M  V30 1006 O 87.7821 5.95843 0.851768 0
M  V30 1007 H 91.6081 2.98002 -0.58552 0
M  V30 1008 H 89.1931 1.45188 -0.352239 0
M  V30 1009 H 91.0751 3.85291 1.70671 0
M  V30 1010 H 89.7501 2.6643 1.83839 0
M  V30 1011 H 88.6571 3.73471 -0.216895 0
M  V30 1012 H 89.9901 4.91482 -0.265709 0
M  V30 1013 N 91.6422 0.330177 1.54103 0
M  V30 1014 C 92.8882 -0.270806 2.00984 0
M  V30 1015 C 93.2212 -1.51265 1.21789 0
M  V30 1016 O 92.4962 -1.92142 0.301927 0
M  V30 1017 C 92.7792 -0.598339 3.55094 0
M  V30 1018 C 92.6322 0.654674 4.4501 0
M  V30 1019 C 93.9512 -1.41334 4.16789 0
M  V30 1020 H 91.0702 -0.0969531 0.730595 0
M  V30 1021 H 93.7122 0.448066 1.84641 0
M  V30 1022 H 91.8622 -1.21078 3.69151 0
M  V30 1023 H 93.5342 1.29285 4.42813 0
M  V30 1024 H 91.7772 1.28224 4.14416 0
M  V30 1025 H 92.4482 0.380944 5.50684 0
M  V30 1026 H 94.9242 -0.895597 4.06347 0
M  V30 1027 H 93.8002 -1.61127 5.24718 0
M  V30 1028 H 94.0612 -2.41146 3.70541 0
M  V30 1029 N 93.1203 -1.57491 0.0584922 0
M  V30 1030 C 94.3483 -1.97296 -0.623037 0
M  V30 1031 C 94.7633 -0.936338 -1.63946 0
M  V30 1032 O 94.1203 0.0785981 -1.82331 0
M  V30 1033 C 94.1713 -3.37183 -1.30345 0
M  V30 1034 O 93.8923 -4.36872 -0.32773 0
M  V30 1035 C 95.3933 -3.91788 -2.07406 0
M  V30 1036 H 92.6133 -0.649153 -0.169826 0
M  V30 1037 H 95.1573 -2.04106 0.12696 0
M  V30 1038 H 93.3123 -3.31502 -2.00463 0
M  V30 1039 H 93.7263 -5.18141 -0.814269 0
M  V30 1040 H 95.2003 -4.91926 -2.50425 0
M  V30 1041 H 95.6773 -3.27609 -2.92521 0
M  V30 1042 H 96.2833 -4.00829 -1.42184 0
M  V30 1043 N 94.5984 0.214957 -1.56127 0
M  V30 1044 C 95.8234 0.95924 -1.83884 0
M  V30 1045 C 96.2484 1.7689 -0.639644 0
M  V30 1046 O 95.6064 1.76566 0.411601 0
M  V30 1047 C 95.6544 1.84723 -3.09693 0
M  V30 1048 O 94.7584 2.94346 -2.8885 0
M  V30 1049 H 94.0994 0.27125 -0.606069 0
M  V30 1050 H 96.6294 0.226276 -2.03345 0
M  V30 1051 H 96.6394 2.25576 -3.39969 0
M  V30 1052 H 95.3144 1.25218 -3.96602 0
M  V30 1053 H 93.8914 2.57391 -2.69823 0
M  V30 1054 N 96.0765 1.50051 0.48192 0
M  V30 1055 C 97.3065 1.63999 1.2565 0
M  V30 1056 C 97.7145 0.318288 1.86504 0
M  V30 1057 O 97.0575 -0.708534 1.69486 0
M  V30 1058 C 97.1195 2.66504 2.4128 0
M  V30 1059 C 96.7835 4.10352 2.01148 0
M  V30 1060 C 97.7805 4.96562 1.54021 0
M  V30 1061 C 95.4655 4.56203 2.10199 0
M  V30 1062 C 97.4595 6.26668 1.16473 0
M  V30 1063 C 95.1465 5.86318 1.72264 0
M  V30 1064 C 96.1445 6.71375 1.25477 0
M  V30 1065 O 95.8325 7.99062 0.880626 0
M  V30 1066 H 95.5645 0.55456 0.386574 0
M  V30 1067 H 98.1185 1.96954 0.582944 0
M  V30 1068 H 96.3485 2.28769 3.11772 0
M  V30 1069 H 98.0375 2.69783 3.03268 0
M  V30 1070 H 98.8035 4.62358 1.46458 0
M  V30 1071 H 94.6825 3.90152 2.45566 0
M  V30 1072 H 98.2265 6.93011 0.798841 0
M  V30 1073 H 94.1235 6.20046 1.79482 0
M  V30 1074 H 94.8915 8.12239 1.01043 0
M  V30 1075 N 97.5546 -0.734337 1.39446 0
M  V30 1076 C 98.8036 -1.48937 1.36017 0
M  V30 1077 C 99.1166 -1.95557 -0.0409005 0
M  V30 1078 O 100.323 -2.70779 -0.19778 0
M  V30 1079 C 98.7786 -2.69125 2.38955 0
M  V30 1080 C 98.3866 -2.29452 3.8478 0
M  V30 1081 C 100.131 -3.46944 2.44603 0
M  V30 1082 C 98.0376 -3.46366 4.79358 0
M  V30 1083 H 96.9676 -0.559296 0.505672 0
M  V30 1084 H 99.6186 -0.800983 1.65095 0
M  V30 1085 H 98.0006 -3.40041 2.02948 0
M  V30 1086 H 99.1746 -1.66077 4.29831 0
M  V30 1087 H 97.4896 -1.64723 3.82433 0
M  V30 1088 H 100.087 -4.33907 3.12456 0
M  V30 1089 H 100.43 -3.89454 1.47076 0
M  V30 1090 H 100.963 -2.83056 2.79507 0
M  V30 1091 H 97.7016 -3.08905 5.78151 0
M  V30 1092 H 97.2216 -4.08719 4.38986 0
M  V30 1093 H 98.9006 -4.12691 4.98292 0
M  V30 1094 N 99.0327 -1.24633 -0.964593 0
M  V30 1095 C 100.281 -1.08573 -1.70459 0
M  V30 1096 C 100.602 0.375655 -1.91347 0
M  V30 1097 O 99.8717 1.26779 -1.49345 0
M  V30 1098 H 98.4517 -0.398784 -0.631649 0
M  V30 1099 H 101.114 -1.56601 -1.16026 0
M  V30 1100 H 100.21 -1.58623 -2.68785 0
M  V30 1101 N 100.511 1.16574 -1.06058 0
M  V30 1102 C 101.759 1.86677 -0.77434 0
M  V30 1103 C 102.08 1.81959 0.701147 0
M  V30 1104 O 101.35 1.2515 1.50713 0
M  V30 1105 H 99.9298 0.691134 -0.283449 0
M  V30 1106 H 102.592 1.41378 -1.34158 0
M  V30 1107 H 101.688 2.92181 -1.09711 0
M  V30 1108 N 101.989 0.842826 1.3317 0
M  V30 1109 C 102.899 0.281444 2.32906 0
M  V30 1110 C 103.915 -0.594587 1.63526 0
M  V30 1111 O 105.091 -0.49777 1.95152 0
M  V30 1112 C 102.156 -0.530929 3.42611 0
M  V30 1113 C 101.217 0.369843 4.27704 0
M  V30 1114 C 100.45 -0.403853 5.3217 0
M  V30 1115 O 100.673 -1.63513 5.46461 0
M  V30 1116 O 99.6069 0.224199 6.01482 0
M  V30 1117 H 103.433 1.10744 2.82789 0
M  V30 1118 H 101.018 0.60545 1.36582 0
M  V30 1119 H 102.9 -0.992437 4.09547 0
M  V30 1120 H 101.575 -1.33392 2.94938 0
M  V30 1121 H 100.482 0.879275 3.6362 0
M  V30 1122 H 101.815 1.13771 4.78871 0
M  V30 1123 N 103.467 -1.45747 0.599634 0
M  V30 1124 C 104.715 -2.01893 0.0915472 0
M  V30 1125 C 105.036 -1.47155 -1.27946 0
M  V30 1126 O 104.306 -0.66273 -1.84349 0
M  V30 1127 H 102.886 -0.746363 0.0308524 0
M  V30 1128 H 105.548 -1.78645 0.779237 0
M  V30 1129 H 104.644 -3.1208 0.0353086 0
M  V30 1130 N 104.945 -0.338344 -1.53925 0
M  V30 1131 C 105.895 0.536712 -2.21593 0
M  V30 1132 C 106.879 1.07015 -1.20153 0
M  V30 1133 O 108.071 1.00471 -1.45721 0
M  V30 1134 C 105.2 1.68977 -2.98834 0
M  V30 1135 C 104.286 1.17052 -4.07627 0
M  V30 1136 N 104.677 0.372085 -5.0443 0
M  V30 1137 C 102.975 1.44789 -4.21844 0
M  V30 1138 C 103.676 0.0909171 -5.81629 0
M  V30 1139 N 102.652 0.681131 -5.39316 0
M  V30 1140 H 106.454 -0.0804298 -2.9379 0
M  V30 1141 H 103.968 -0.144943 -1.61752 0
M  V30 1142 H 105.965 2.32857 -3.45808 0
M  V30 1143 H 104.625 2.31024 -2.28162 0
M  V30 1144 H 105.636 0.0136217 -5.17898 0
M  V30 1145 H 102.313 2.07313 -3.62391 0
M  V30 1146 H 103.703 -0.552817 -6.69622 0
M  V30 1147 N 106.423 1.57458 -0.0668435 0
M  V30 1148 C 107.371 2.13639 0.919851 0
M  V30 1149 C 108.365 1.07204 1.31163 0
M  V30 1150 O 109.571 1.25591 1.28945 0
M  V30 1151 H 105.946 0.683048 0.314562 0
M  V30 1152 H 107.917 2.95415 0.421047 0
M  V30 1153 C 106.666 2.70892 2.17975 0
M  V30 1154 H 105.989 3.5246 1.88711 0
M  V30 1155 H 107.429 3.13803 2.85138 0
M  V30 1156 C 105.888 1.65414 2.93496 0
M  V30 1157 O 106.418 1.07619 3.87015 0
M  V30 1158 N 104.624 1.36564 2.56512 0
M  V30 1159 H 104.171 1.83751 1.80536 0
M  V30 1160 H 104.129 0.66223 3.07347 0
M  V30 1161 N 107.901 -0.206675 1.56239 0
M  V30 1162 C 108.831 -1.25909 1.96645 0
M  V30 1163 C 109.812 -1.48097 0.836734 0
M  V30 1164 O 110.997 -1.6003 1.10019 0
M  V30 1165 C 108.127 -2.6058 2.29599 0
M  V30 1166 C 107.081 -2.53024 3.452 0
M  V30 1167 C 106.407 -3.91861 3.63798 0
M  V30 1168 C 107.707 -2.06524 4.79734 0
M  V30 1169 H 109.401 -0.923369 2.84806 0
M  V30 1170 H 106.947 -0.442735 1.37025 0
M  V30 1171 H 108.9 -3.34375 2.56459 0
M  V30 1172 H 107.624 -2.95869 1.38307 0
M  V30 1173 H 106.283 -1.81684 3.18412 0
M  V30 1174 H 105.931 -4.24483 2.69857 0
M  V30 1175 H 105.631 -3.87683 4.4156 0
M  V30 1176 H 107.155 -4.67296 3.93022 0
M  V30 1177 H 108.569 -2.70072 5.05702 0
M  V30 1178 H 106.966 -2.13374 5.60885 0
M  V30 1179 H 108.036 -1.01802 4.74093 0
M  V30 1180 N 109.379 -1.50304 -0.473955 0
M  V30 1181 C 110.311 -1.65109 -1.58971 0
M  V30 1182 C 111.324 -0.532676 -1.53839 0
M  V30 1183 O 112.513 -0.805751 -1.59279 0
M  V30 1184 C 109.613 -1.61684 -2.97845 0
M  V30 1185 C 108.786 -2.8951 -3.27876 0
M  V30 1186 C 107.845 -2.78768 -4.4629 0
M  V30 1187 O 106.871 -3.52722 -4.46739 0
M  V30 1188 N 108.073 -1.9213 -5.47783 0
M  V30 1189 H 110.838 -2.61347 -1.46689 0
M  V30 1190 H 108.399 -1.47732 -0.662324 0
M  V30 1191 H 110.391 -1.52114 -3.75024 0
M  V30 1192 H 108.961 -0.731925 -3.03911 0
M  V30 1193 H 108.181 -3.13228 -2.39336 0
M  V30 1194 H 109.469 -3.74199 -3.4475 0
M  V30 1195 H 108.867 -1.31353 -5.50239 0
M  V30 1196 H 107.424 -1.88466 -6.23958 0
M  V30 1197 N 110.857 0.726932 -1.39834 0
M  V30 1198 C 111.767 1.87131 -1.41489 0
M  V30 1199 C 112.783 1.71239 -0.308757 0
M  V30 1200 O 113.959 1.93701 -0.551529 0
M  V30 1201 C 111.024 3.22811 -1.26468 0
M  V30 1202 C 110.085 3.51039 -2.47124 0
M  V30 1203 C 109.318 4.80245 -2.3281 0
M  V30 1204 O 109.541 5.54537 -1.33585 0
M  V30 1205 O 108.475 5.08554 -3.21957 0
M  V30 1206 H 112.301 1.8869 -2.3797 0
M  V30 1207 H 109.886 0.875837 -1.21035 0
M  V30 1208 H 111.768 4.03877 -1.20255 0
M  V30 1209 H 110.443 3.22005 -0.330862 0
M  V30 1210 H 109.35 2.70027 -2.58914 0
M  V30 1211 H 110.683 3.56632 -3.39227 0
M  V30 1212 N 112.336 1.25143 0.95797 0
M  V30 1213 C 113.286 1.01924 2.0395 0
M  V30 1214 C 114.27 -0.0427175 1.60843 0
M  V30 1215 O 115.462 0.17221 1.7616 0
M  V30 1216 C 112.591 0.636373 3.3735 0
M  V30 1217 C 111.677 1.73492 3.8699 0
M  V30 1218 N 112.068 2.96945 4.0946 0
M  V30 1219 C 110.366 1.61467 4.15746 0
M  V30 1220 C 111.067 3.68228 4.50315 0
M  V30 1221 N 110.043 2.95833 4.56053 0
M  V30 1222 H 113.845 1.95653 2.19311 0
M  V30 1223 H 111.359 1.15413 1.14253 0
M  V30 1224 H 113.356 0.451233 4.14451 0
M  V30 1225 H 112.016 -0.293621 3.2337 0
M  V30 1226 H 113.027 3.33025 3.96629 0
M  V30 1227 H 109.704 0.753394 4.10646 0
M  V30 1228 H 111.094 4.74178 4.76031 0
M  V30 1229 N 113.814 -1.1601 1.06675 0
M  V30 1230 C 115.039 -1.91068 0.806706 0
M  V30 1231 C 115.464 -1.77112 -0.633485 0
M  V30 1232 O 114.822 -1.09908 -1.44187 0
M  V30 1233 C 114.87 -3.39655 1.21106 0
M  V30 1234 O 113.974 -4.10893 0.352189 0
M  V30 1235 H 113.315 -0.595125 0.294486 0
M  V30 1236 H 115.845 -1.46955 1.42356 0
M  V30 1237 H 115.855 -3.90434 1.18428 0
M  V30 1238 H 114.53 -3.49132 2.26008 0
M  V30 1239 H 113.107 -3.70285 0.440868 0
M  V30 1240 N 115.292 -0.849877 -1.32721 0
M  V30 1241 C 116.538 -0.451591 -1.97708 0
M  V30 1242 C 116.871 0.989175 -1.6712 0
M  V30 1243 O 116.146 1.69334 -0.956891 0
M  V30 1244 C 116.429 -0.685598 -3.53513 0
M  V30 1245 C 116.282 -2.17444 -3.93749 0
M  V30 1246 C 117.601 -0.138874 -4.39881 0
M  V30 1247 H 114.72 -0.16555 -0.718166 0
M  V30 1248 H 117.362 -1.06742 -1.57182 0
M  V30 1249 H 115.512 -0.161416 -3.88165 0
M  V30 1250 H 117.184 -2.76433 -3.693 0
M  V30 1251 H 115.427 -2.65476 -3.43081 0
M  V30 1252 H 116.098 -2.28888 -5.02309 0
M  V30 1253 H 118.574 -0.587068 -4.11938 0
M  V30 1254 H 117.45 -0.332213 -5.47894 0
M  V30 1255 H 117.711 0.95806 -4.31594 0
M  V30 1256 N 116.77 1.45427 -0.607355 0
M  V30 1257 C 118.019 2.01452 -0.100036 0
M  V30 1258 C 118.332 1.48159 1.27704 0
M  V30 1259 O 119.538 1.96159 1.87707 0
M  V30 1260 C 117.994 3.59672 -0.128158 0
M  V30 1261 C 117.602 4.21962 -1.50507 0
M  V30 1262 C 119.346 4.23262 0.323932 0
M  V30 1263 C 117.253 5.72333 -1.48959 0
M  V30 1264 H 116.183 0.75325 -0.0336299 0
M  V30 1265 H 118.834 1.66901 -0.76265 0
M  V30 1266 H 117.216 3.91411 0.601105 0
M  V30 1267 H 118.39 4.01796 -2.25602 0
M  V30 1268 H 116.705 3.70565 -1.89923 0
M  V30 1269 H 119.302 5.33522 0.354691 0
M  V30 1270 H 119.645 3.93921 1.34656 0
M  V30 1271 H 120.178 3.96239 -0.352056 0
M  V30 1272 H 116.917 6.06373 -2.48981 0
M  V30 1273 H 116.437 5.94691 -0.781214 0
M  V30 1274 H 118.116 6.35525 -1.21313 0
M  V30 1275 N 118.248 0.346503 1.53744 0
M  V30 1276 C 119.178 -0.501193 2.28058 0
M  V30 1277 C 120.159 -1.10014 1.29734 0
M  V30 1278 O 121.344 -1.12097 1.58581 0
M  V30 1279 C 118.474 -1.65078 3.05559 0
M  V30 1280 C 117.428 -1.18003 4.11411 0
M  V30 1281 C 116.754 -2.41837 4.76884 0
M  V30 1282 C 118.054 -0.278394 5.21558 0
M  V30 1283 H 119.748 0.11875 2.99164 0
M  V30 1284 H 117.294 0.0585531 1.43881 0
M  V30 1285 H 119.247 -2.25028 3.56287 0
M  V30 1286 H 117.971 -2.29767 2.32109 0
M  V30 1287 H 116.63 -0.603331 3.61601 0
M  V30 1288 H 116.278 -3.0494 4.00026 0
M  V30 1289 H 115.978 -2.1102 5.48402 0
M  V30 1290 H 117.502 -3.02508 5.30397 0
M  V30 1291 H 118.916 -0.784823 5.67903 0
M  V30 1292 H 117.313 -0.0619707 6.00068 0
M  V30 1293 H 118.383 0.684677 4.80042 0
M  V30 1294 N 119.726 -1.57421 0.075193 0
M  V30 1295 C 120.975 -1.92794 -0.592731 0
M  V30 1296 C 121.288 -0.957478 -1.70563 0
M  V30 1297 O 122.494 -1.20417 -2.43335 0
M  V30 1298 C 120.95 -3.42495 -1.10569 0
M  V30 1299 C 120.558 -4.47994 -0.0236121 0
M  V30 1300 C 122.302 -3.86864 -1.74748 0
M  V30 1301 C 120.209 -5.88829 -0.550803 0
M  V30 1302 H 119.139 -0.719591 -0.225177 0
M  V30 1303 H 121.79 -1.82902 0.147978 0
M  V30 1304 H 120.172 -3.47471 -1.89947 0
M  V30 1305 H 121.346 -4.54637 0.751099 0
M  V30 1306 H 119.661 -4.13113 0.522159 0
M  V30 1307 H 122.258 -4.8947 -2.15229 0
M  V30 1308 H 122.601 -3.24417 -2.60882 0
M  V30 1309 H 123.134 -3.84504 -1.01986 0
M  V30 1310 H 119.873 -6.54929 0.273457 0
M  V30 1311 H 119.393 -5.85698 -1.29296 0
M  V30 1312 H 121.072 -6.38811 -1.02613 0
M  V30 1313 N 121.204 0.198386 -1.56346 0
M  V30 1314 C 122.62 0.549085 -1.49857 0
M  V30 1315 C 122.82 1.86016 -0.774611 0
M  V30 1316 O 121.876 2.50416 -0.323776 0
M  V30 1317 C 123.189 0.606868 -2.94512 0
M  V30 1318 C 124.737 0.695925 -3.05165 0
M  V30 1319 C 125.212 0.784848 -4.51225 0
M  V30 1320 N 126.703 0.848463 -4.55363 0
M  V30 1321 C 127.438 0.937378 -5.65686 0
M  V30 1322 N 126.934 0.9888 -6.85707 0
M  V30 1323 N 128.727 0.974312 -5.53592 0
M  V30 1324 H 120.878 -0.661655 -2.01831 0
M  V30 1325 H 123.141 -0.235261 -0.918344 0
M  V30 1326 H 122.847 -0.28732 -3.50524 0
M  V30 1327 H 122.721 1.46268 -3.47686 0
M  V30 1328 H 125.108 1.58055 -2.49204 0
M  V30 1329 H 125.189 -0.186022 -2.55123 0
M  V30 1330 H 124.833 -0.0954072 -5.0781 0
M  V30 1331 H 124.763 1.68255 -4.98997 0
M  V30 1332 H 127.254 0.818103 -3.68938 0
M  V30 1333 H 127.567 1.05707 -7.65536 0
M  V30 1334 H 125.912 0.957534 -6.88372 0
M  V30 1335 H 129.103 0.930954 -4.58749 0
M  V30 1336 H 129.276 1.04015 -6.39597 0
M  V30 1337 N 122.682 1.50554 0.465978 0
M  V30 1338 C 123.93 1.61479 1.21528 0
M  V30 1339 C 124.251 0.319596 1.92363 0
M  V30 1340 O 123.521 -0.663194 1.84333 0
M  V30 1341 H 122.101 0.595055 0.451573 0
M  V30 1342 H 124.763 1.87355 0.53704 0
M  V30 1343 H 123.859 2.42846 1.96042 0
M  V30 1344 N 124.16 -0.719506 1.40217 0
M  V30 1345 C 125.408 -1.47641 1.3801 0
M  V30 1346 C 125.729 -1.94992 -0.018145 0
M  V30 1347 O 124.999 -1.70073 -0.972207 0
M  V30 1348 H 123.579 -0.547744 0.507923 0
M  V30 1349 H 126.241 -0.853187 1.75233 0
M  V30 1350 H 125.337 -2.35112 2.05253 0
M  V30 1351 N 125.638 -1.25649 -0.95132 0
M  V30 1352 C 127.054 -1.02542 -1.223 0
M  V30 1353 C 127.254 0.255715 -1.99871 0
M  V30 1354 O 126.31 0.967558 -2.33226 0
M  V30 1355 C 127.623 -2.25065 -1.99415 0
M  V30 1356 C 129.171 -2.29861 -2.12446 0
M  V30 1357 C 129.646 -3.52048 -2.92961 0
M  V30 1358 N 131.137 -3.52465 -3.00538 0
M  V30 1359 C 131.872 -4.43672 -3.63239 0
M  V30 1360 N 131.368 -5.45157 -4.27523 0
M  V30 1361 N 133.161 -4.31346 -3.60412 0
M  V30 1362 H 125.312 -2.07951 -0.432471 0
M  V30 1363 H 127.575 -0.91339 -0.253816 0
M  V30 1364 H 127.281 -3.18194 -1.49817 0
M  V30 1365 H 127.155 -2.28502 -3.00111 0
M  V30 1366 H 129.542 -1.37252 -2.61239 0
M  V30 1367 H 129.623 -2.3044 -1.11044 0
M  V30 1368 H 129.267 -4.44981 -2.44856 0
M  V30 1369 H 129.197 -3.48715 -3.94596 0
M  V30 1370 H 131.688 -2.79056 -2.54826 0
M  V30 1371 H 132.001 -6.10958 -4.73234 0
M  V30 1372 H 130.346 -5.49025 -4.26141 0
M  V30 1373 H 133.537 -3.51288 -3.09377 0
M  V30 1374 H 133.71 -5.02624 -4.0899 0
M  V30 1375 N 127.117 1.15442 -1.07289 0
M  V30 1376 C 128.363 1.86489 -0.796846 0
M  V30 1377 C 128.696 1.82078 0.675371 0
M  V30 1378 O 127.971 1.24346 1.4956 0
M  V30 1379 C 128.254 3.35626 -1.30489 0
M  V30 1380 C 128.107 3.48673 -2.84161 0
M  V30 1381 C 129.426 4.30357 -0.920907 0
M  V30 1382 H 126.545 0.677144 -0.290939 0
M  V30 1383 H 129.187 1.35633 -1.33056 0
M  V30 1384 H 127.337 3.79068 -0.850883 0
M  V30 1385 H 129.009 3.14099 -3.37846 0
M  V30 1386 H 127.252 2.90253 -3.22391 0
M  V30 1387 H 127.923 4.53453 -3.14777 0
M  V30 1388 H 130.399 3.94871 -1.3121 0
M  V30 1389 H 129.275 5.33193 -1.30372 0
M  V30 1390 H 129.536 4.4176 0.173226 0
M  V30 1391 N 128.595 0.856903 1.32268 0
M  V30 1392 C 129.542 0.301172 2.28827 0
M  V30 1393 C 130.512 -0.593104 1.5515 0
M  V30 1394 O 131.697 -0.527537 1.83362 0
M  V30 1395 C 128.837 -0.502523 3.41422 0
M  V30 1396 C 127.95 0.417797 4.29975 0
M  V30 1397 C 127.085 -0.398749 5.29701 0
M  V30 1398 C 126.124 0.518827 6.09897 0
M  V30 1399 N 125.261 -0.260674 7.01616 0
M  V30 1400 H 130.101 1.12983 2.75751 0
M  V30 1401 H 127.638 0.568582 1.35667 0
M  V30 1402 H 129.596 -0.984141 4.05426 0
M  V30 1403 H 128.226 -1.29599 2.95642 0
M  V30 1404 H 127.278 1.01781 3.66531 0
M  V30 1405 H 128.59 1.12191 4.86019 0
M  V30 1406 H 127.744 -0.943435 5.9932 0
M  V30 1407 H 126.483 -1.13622 4.7428 0
M  V30 1408 H 125.488 1.07538 5.39181 0
M  V30 1409 H 126.713 1.25495 6.67404 0
M  V30 1410 H 124.659 -0.981198 6.4862 0
M  V30 1411 H 124.576 0.384364 7.55022 0
M  V30 1412 H 125.844 -0.787014 7.75517 0
M  V30 1413 N 130.073 -1.45103 0.615059 0
M  V30 1414 C 131.35 -1.95549 0.0448276 0
M  V30 1415 C 131.73 -1.55737 -1.4251 0
M  V30 1416 O 131.078 -0.823556 -2.13143 0
M  V30 1417 C 131.288 -3.48098 0.250785 0
M  V30 1418 C 132.636 -4.24384 0.135509 0
M  V30 1419 O 133.66 -3.55738 0.181299 0
M  V30 1420 O 132.519 -5.46493 0.0268878 0
M  V30 1421 H 129.613 -0.8264 -0.0314845 0
M  V30 1422 H 132.159 -1.55232 0.685642 0
M  V30 1423 H 130.931 -3.7007 1.27139 0
M  V30 1424 H 130.554 -3.95323 -0.424937 0
M  V30 1425 N 131.551 -0.354651 -1.53558 0
M  V30 1426 C 132.481 0.489091 -2.2832 0
M  V30 1427 C 133.462 1.09324 -1.30316 0
M  V30 1428 O 134.647 1.11255 -1.59173 0
M  V30 1429 C 131.777 1.63456 -3.0643 0
M  V30 1430 C 130.731 1.1582 -4.12031 0
M  V30 1431 C 130.057 2.39305 -4.7816 0
M  V30 1432 C 131.357 0.250731 -5.21698 0
M  V30 1433 H 133.051 -0.134614 -2.99097 0
M  V30 1434 H 130.597 -0.0661826 -1.43848 0
M  V30 1435 H 132.55 2.23136 -3.57475 0
M  V30 1436 H 131.274 2.28533 -2.33325 0
M  V30 1437 H 129.933 0.584146 -3.61916 0
M  V30 1438 H 129.581 3.02814 -4.01637 0
M  V30 1439 H 129.281 2.08109 -5.49513 0
M  V30 1440 H 130.805 2.99691 -5.31994 0
M  V30 1441 H 132.219 0.754695 -5.68311 0
M  V30 1442 H 130.616 0.0301468 -6.00092 0
M  V30 1443 H 131.686 -0.710125 -4.79672 0
M  V30 1444 N 133.029 1.57378 -0.0835403 0
M  V30 1445 C 134.44 1.81261 0.447358 0
M  V30 1446 C 134.791 0.998331 1.68902 0
M  V30 1447 O 133.916 0.224282 2.15235 0
M  V30 1448 C 134.511 3.28767 0.818386 0
M  V30 1449 C 133.07 3.53455 1.29409 0
M  V30 1450 C 132.217 2.75831 0.285024 0
M  V30 1451 H 135.168 1.5566 -0.309115 0
M  V30 1452 H 135.189 3.41459 1.67887 0
M  V30 1453 H 134.701 3.88006 -0.0855019 0
M  V30 1454 H 132.802 2.99534 2.21608 0
M  V30 1455 H 132.915 4.62128 1.2639 0
M  V30 1456 H 131.279 2.42947 0.764767 0
M  V30 1457 H 132.062 3.37813 -0.611341 0
M  V30 1458 N 134.507 -0.190092 1.56449 0
M  V30 1459 C 135.755 -0.907908 1.80559 0
M  V30 1460 C 136.076 -1.83583 0.657438 0
M  V30 1461 O 135.346 -1.93203 -0.323924 0
M  V30 1462 H 133.926 -0.338247 0.666032 0
M  V30 1463 H 136.588 -0.194403 1.93928 0
M  V30 1464 H 135.684 -1.49604 2.73907 0
M  V30 1465 N 135.985 -1.50799 -0.457987 0
M  V30 1466 C 137.231 -1.62683 -1.21088 0
M  V30 1467 C 137.564 -0.332268 -1.91336 0
M  V30 1468 O 136.839 0.667043 -1.82704 0
M  V30 1469 C 137.122 -2.81615 -2.24422 0
M  V30 1470 C 136.975 -4.20989 -1.58392 0
M  V30 1471 C 138.294 -2.96085 -3.2561 0
M  V30 1472 H 135.413 -0.592087 -0.438864 0
M  V30 1473 H 138.055 -1.83225 -0.50286 0
M  V30 1474 H 136.205 -2.64231 -2.84806 0
M  V30 1475 H 137.877 -4.49994 -1.01504 0
M  V30 1476 H 136.12 -4.24641 -0.886704 0
M  V30 1477 H 136.791 -5.0016 -2.33547 0
M  V30 1478 H 139.267 -3.12042 -2.75262 0
M  V30 1479 H 138.143 -3.80902 -3.95228 0
M  V30 1480 H 138.404 -2.0726 -3.90507 0
M  V30 1481 N 137.463 0.71206 -1.40597 0
M  V30 1482 C 138.879 1.02058 -1.22704 0
M  V30 1483 C 139.079 2.01228 -0.104729 0
M  V30 1484 O 138.135 2.4674 0.53624 0
M  V30 1485 C 139.448 1.56094 -2.57012 0
M  V30 1486 C 140.996 1.6806 -2.64054 0
M  V30 1487 C 141.471 2.25501 -3.9864 0
M  V30 1488 N 142.962 2.32882 -4.004 0
M  V30 1489 C 143.697 2.78317 -5.01325 0
M  V30 1490 N 143.193 3.23478 -6.12645 0
M  V30 1491 N 144.986 2.77733 -4.88693 0
M  V30 1492 H 137.137 0.0547896 -2.12329 0
M  V30 1493 H 139.4 0.0869027 -0.944008 0
M  V30 1494 H 139.106 0.906865 -3.39807 0
M  V30 1495 H 138.98 2.54564 -2.78347 0
M  V30 1496 H 141.367 2.32583 -1.81629 0
M  V30 1497 H 141.448 0.681802 -2.46546 0
M  V30 1498 H 141.092 1.61598 -4.81506 0
M  V30 1499 H 141.022 3.26102 -4.13479 0
M  V30 1500 H 143.513 2.00991 -3.20017 0
M  V30 1501 H 143.826 3.56725 -6.85542 0
M  V30 1502 H 142.171 3.21429 -6.16205 0
M  V30 1503 H 145.362 2.4179 -4.00818 0
M  V30 1504 H 145.535 3.12826 -5.67489 0
M  V30 1505 N 138.941 1.26152 0.944643 0
M  V30 1506 C 140.171 1.14094 1.72239 0
M  V30 1507 C 140.579 -0.306931 1.86694 0
M  V30 1508 O 139.922 -1.22222 1.3714 0
M  V30 1509 C 139.984 1.73316 3.14963 0
M  V30 1510 C 139.648 3.2239 3.23904 0
M  V30 1511 C 140.645 4.19252 3.07447 0
M  V30 1512 C 138.33 3.62788 3.47405 0
M  V30 1513 C 140.324 5.54491 3.14353 0
M  V30 1514 C 138.011 4.98162 3.53947 0
M  V30 1515 C 139.009 5.93823 3.37436 0
M  V30 1516 O 138.697 7.26732 3.43679 0
M  V30 1517 H 138.429 0.398292 0.546205 0
M  V30 1518 H 140.983 1.67201 1.19301 0
M  V30 1519 H 139.213 1.14667 3.69308 0
M  V30 1520 H 140.902 1.56214 3.74636 0
M  V30 1521 H 141.668 3.8938 2.8915 0
M  V30 1522 H 137.547 2.88816 3.59313 0
M  V30 1523 H 141.091 6.29137 3.01384 0
M  V30 1524 H 136.988 5.27695 3.71763 0
M  V30 1525 H 137.756 7.3496 3.60245 0
M  V30 1526 N 140.419 -1.14872 1.07899 0
M  V30 1527 C 141.369 -2.17809 0.674027 0
M  V30 1528 C 142.353 -1.58008 -0.303699 0
M  V30 1529 O 143.545 -1.76616 -0.11654 0
M  V30 1530 C 140.674 -3.43208 0.0793318 0
M  V30 1531 C 139.76 -4.10051 1.08253 0
M  V30 1532 N 140.151 -4.52296 2.2641 0
M  V30 1533 C 138.449 -4.36469 0.917124 0
M  V30 1534 C 139.15 -5.04199 2.901 0
M  V30 1535 N 138.126 -4.98088 2.17736 0
M  V30 1536 H 141.928 -2.48207 1.57386 0
M  V30 1537 H 139.442 -1.315 0.952976 0
M  V30 1538 H 141.439 -4.16272 -0.228719 0
M  V30 1539 H 140.099 -3.14291 -0.815551 0
M  V30 1540 H 141.11 -4.45504 2.64096 0
M  V30 1541 H 137.787 -4.17432 0.0756078 0
M  V30 1542 H 139.177 -5.46802 3.90458 0
M  V30 1543 N 141.898 -0.863906 -1.31812 0
M  V30 1544 C 143.126 -0.486111 -2.01108 0
M  V30 1545 C 143.541 0.919755 -1.64882 0
M  V30 1546 O 142.898 1.60162 -0.874893 0
M  V30 1547 C 142.949 -0.626435 -3.56031 0
M  V30 1548 O 142.67 -1.97693 -3.90959 0
M  V30 1549 C 144.171 -0.248857 -4.42601 0
M  V30 1550 H 141.391 -0.190052 -0.643523 0
M  V30 1551 H 143.935 -1.1634 -1.68182 0
M  V30 1552 H 142.09 0.00322717 -3.874 0
M  V30 1553 H 142.504 -1.98034 -4.85678 0
M  V30 1554 H 143.978 -0.398016 -5.50563 0
M  V30 1555 H 144.455 0.811489 -4.31638 0
M  V30 1556 H 145.061 -0.853971 -4.16638 0
M  V30 1557 N 143.376 1.44774 -0.622745 0
M  V30 1558 C 144.622 2.0242 -0.124083 0
M  V30 1559 C 144.955 1.4881 1.24777 0
M  V30 1560 O 144.23 0.668799 1.8264 0
M  V30 1561 C 144.513 3.59957 -0.101619 0
M  V30 1562 C 144.366 4.23867 -1.50521 0
M  V30 1563 C 145.685 4.36284 0.578272 0
M  V30 1564 H 142.804 0.735528 -0.0465645 0
M  V30 1565 H 145.446 1.72447 -0.797617 0
M  V30 1566 H 143.596 3.85623 0.471934 0
M  V30 1567 H 145.268 4.09336 -2.12701 0
M  V30 1568 H 143.511 3.81684 -2.06154 0
M  V30 1569 H 144.182 5.32843 -1.4416 0
M  V30 1570 H 146.658 4.16001 0.0906057 0
M  V30 1571 H 145.534 5.46004 0.563149 0
M  V30 1572 H 145.795 4.10271 1.64713 0
M  V30 1573 N 144.854 0.36279 1.53368 0
M  V30 1574 C 146.27 0.0116182 1.59596 0
M  V30 1575 C 146.47 -1.47012 1.37803 0
M  V30 1576 O 145.526 -2.23136 1.18181 0
M  V30 1577 C 146.839 0.465052 2.97082 0
M  V30 1578 C 148.387 0.419033 3.10182 0
M  V30 1579 C 148.862 0.848235 4.50077 0
M  V30 1580 N 150.353 0.803183 4.56183 0
M  V30 1581 C 151.088 1.107 5.62613 0
M  V30 1582 N 150.584 1.47996 6.76808 0
M  V30 1583 N 152.377 1.02998 5.52583 0
M  V30 1584 H 144.528 1.32775 1.65785 0
M  V30 1585 H 146.791 0.542518 0.777417 0
M  V30 1586 H 146.497 1.49892 3.18159 0
M  V30 1587 H 146.371 -0.149786 3.76902 0
M  V30 1588 H 148.758 -0.605696 2.88817 0
M  V30 1589 H 148.839 1.06933 2.32377 0
M  V30 1590 H 148.483 1.87107 4.7218 0
M  V30 1591 H 148.413 0.175218 5.26308 0
M  V30 1592 H 150.904 0.52838 3.74188 0
M  V30 1593 H 151.217 1.69613 7.53957 0
M  V30 1594 H 149.562 1.51859 6.78206 0
M  V30 1595 H 152.753 0.737817 4.62249 0
M  V30 1596 H 152.926 1.2701 6.35431 0
M  V30 1597 N 146.332 -1.57332 0.0918853 0
M  V30 1598 C 147.58 -1.93853 -0.571446 0
M  V30 1599 C 147.901 -0.974212 -1.6892 0
M  V30 1600 O 147.171 -0.0257254 -1.95883 0
M  V30 1601 H 145.751 -0.715666 -0.214082 0
M  V30 1602 H 148.413 -1.94287 0.154464 0
M  V30 1603 H 147.509 -2.96191 -0.983729 0
M  V30 1604 N 147.81 0.181792 -1.56548 0
M  V30 1605 C 148.773 1.20894 -1.94724 0
M  V30 1606 C 149.773 1.37738 -0.829747 0
M  V30 1607 O 150.963 1.35323 -1.09697 0
M  V30 1608 C 148.095 2.57593 -2.23291 0
M  V30 1609 H 149.288 0.882275 -2.86629 0
M  V30 1610 H 146.841 0.423838 -1.50444 0
M  V30 1611 H 147.576 2.95291 -1.34067 0
M  V30 1612 H 147.361 2.46735 -3.04736 0
M  V30 1613 H 148.851 3.31637 -2.53785 0
M  V30 1614 N 149.288 1.51039 0.449983 0
M  V30 1615 C 150.218 1.74379 1.55288 0
M  V30 1616 C 151.199 0.593236 1.5942 0
M  V30 1617 O 152.384 0.834625 1.7535 0
M  V30 1618 C 149.514 1.85728 2.93466 0
M  V30 1619 C 148.468 3.01078 3.04197 0
M  V30 1620 C 147.794 2.97595 4.44231 0
M  V30 1621 C 149.094 4.41254 2.7945 0
M  V30 1622 H 150.788 2.66725 1.36008 0
M  V30 1623 H 148.334 1.2835 0.652864 0
M  V30 1624 H 150.287 2.0064 3.70569 0
M  V30 1625 H 149.011 0.900207 3.13949 0
M  V30 1626 H 147.67 2.85851 2.29531 0
M  V30 1627 H 147.318 1.99691 4.61663 0
M  V30 1628 H 147.018 3.75046 4.52343 0
M  V30 1629 H 148.542 3.14583 5.23326 0
M  V30 1630 H 149.956 4.56897 3.46292 0
M  V30 1631 H 148.353 5.20315 2.98985 0
M  V30 1632 H 149.423 4.52164 1.75144 0
M  V30 1633 N 150.766 -0.704594 1.40972 0
M  V30 1634 C 152.043 -1.45847 1.30338 0
M  V30 1635 C 152.423 -2.10973 -0.0732344 0
M  V30 1636 O 151.771 -2.00997 -1.08685 0
M  V30 1637 C 151.981 -2.48525 2.45023 0
M  V30 1638 C 153.329 -3.1404 2.8577 0
M  V30 1639 O 154.353 -2.58848 2.44696 0
M  V30 1640 O 153.212 -4.13981 3.56766 0
M  V30 1641 H 150.306 -0.649092 0.512454 0
M  V30 1642 H 152.852 -0.735836 1.52917 0
M  V30 1643 H 151.624 -1.98994 3.36923 0
M  V30 1644 H 151.247 -3.2831 2.24272 0
M  V30 1645 N 152.244 -1.26651 -0.937939 0
M  V30 1646 C 153.484 -1.13611 -1.69917 0
M  V30 1647 C 153.848 0.314687 -1.89404 0
M  V30 1648 O 155.049 0.567285 -2.62746 0
M  V30 1649 C 153.32 -1.88742 -3.03498 0
M  V30 1650 S 154.879 -1.91794 -3.94665 0
M  V30 1651 H 151.697 -0.405767 -0.583844 0
M  V30 1652 H 154.299 -1.60416 -1.11745 0
M  V30 1653 H 153.003 -2.9336 -2.86999 0
M  V30 1654 H 152.534 -1.42391 -3.66727 0
M  V30 1655 H 154.549 -1.00698 -4.85875 0
M  V30 1656 N 153.722 1.14298 -1.08507 0
M  V30 1657 C 154.947 1.8976 -0.837001 0
M  V30 1658 C 155.372 1.78097 0.605228 0
M  V30 1659 O 154.73 1.12188 1.4242 0
M  V30 1660 C 154.778 3.37685 -1.26495 0
M  V30 1661 O 153.882 4.10281 -0.417514 0
M  V30 1662 H 153.223 0.590365 -0.303917 0
M  V30 1663 H 155.753 1.44672 -1.44676 0
M  V30 1664 H 155.763 3.88501 -1.24625 0
M  V30 1665 H 154.438 3.45492 -2.31534 0
M  V30 1666 H 153.015 3.69536 -0.499722 0
M  V30 1667 N 155.201 0.870884 1.31352 0
M  V30 1668 C 156.449 0.48132 1.96285 0
M  V30 1669 C 156.77 -0.969813 1.69173 0
M  V30 1670 O 156.04 -1.67998 1.00764 0
M  V30 1671 H 154.62 0.175002 0.726212 0
M  V30 1672 H 157.282 1.11087 1.60143 0
M  V30 1673 H 156.378 0.639825 3.05471 0
M  V30 1674 N 156.679 -1.44442 0.630414 0
M  V30 1675 C 157.925 -2.02351 0.134816 0
M  V30 1676 C 158.258 -1.4947 -1.23986 0
M  V30 1677 O 157.533 -0.678475 -1.82283 0
M  V30 1678 C 157.816 -3.59898 0.120707 0
M  V30 1679 C 157.669 -4.23063 1.52767 0
M  V30 1680 C 158.988 -4.36585 -0.555127 0
M  V30 1681 H 156.107 -0.73527 0.0504646 0
M  V30 1682 H 158.749 -1.72022 0.806751 0
M  V30 1683 H 156.899 -3.85868 -0.451477 0
M  V30 1684 H 158.571 -4.08202 2.14869 0
M  V30 1685 H 156.814 -3.80586 2.08175 0
M  V30 1686 H 157.485 -5.32071 1.46984 0
M  V30 1687 H 159.961 -4.16044 -0.0685429 0
M  V30 1688 H 158.837 -5.46294 -0.534185 0
M  V30 1689 H 159.098 -4.11138 -1.62535 0
M  V30 1690 N 158.157 -0.370918 -1.53173 0
M  V30 1691 C 159.104 0.473035 -2.259 0
M  V30 1692 C 160.074 1.07311 -1.26781 0
M  V30 1693 O 161.259 1.1046 -1.55574 0
M  V30 1694 C 158.399 1.60405 -3.05556 0
M  V30 1695 C 157.512 1.02863 -4.19575 0
M  V30 1696 C 156.647 2.12918 -4.86661 0
M  V30 1697 C 155.686 1.52869 -5.92704 0
M  V30 1698 N 154.823 2.56779 -6.53459 0
M  V30 1699 H 159.663 -0.153649 -2.97604 0
M  V30 1700 H 157.2 -0.0875946 -1.46839 0
M  V30 1701 H 159.158 2.27034 -3.50016 0
M  V30 1702 H 157.788 2.20131 -2.36097 0
M  V30 1703 H 156.84 0.252465 -3.79561 0
M  V30 1704 H 158.152 0.549642 -4.95762 0
M  V30 1705 H 157.306 2.87356 -5.34333 0
M  V30 1706 H 156.045 2.6417 -4.09958 0
M  V30 1707 H 155.05 0.769479 -5.44389 0
M  V30 1708 H 156.275 1.02435 -6.7133 0
M  V30 1709 H 154.221 3.07235 -5.79606 0
M  V30 1710 H 154.138 2.13583 -7.25202 0
M  V30 1711 H 155.406 3.30903 -7.05779 0
M  V30 1712 N 159.635 1.57281 -0.100228 0
M  V30 1713 C 160.912 1.86014 0.604812 0
M  V30 1714 C 161.292 0.998025 1.86018 0
M  V30 1715 O 160.64 0.0718184 2.28387 0
M  V30 1716 C 160.85 3.36784 0.915278 0
M  V30 1717 C 162.198 4.04957 1.27651 0
M  V30 1718 O 163.222 3.41695 1.00613 0
M  V30 1719 O 162.081 5.16593 1.7831 0
M  V30 1720 H 159.175 0.76942 0.303185 0
M  V30 1721 H 161.721 1.69176 -0.133313 0
M  V30 1722 H 160.493 3.91292 0.0248896 0
M  V30 1723 H 160.116 3.58987 1.70921 0
M  V30 1724 N 161.113 -0.173488 1.56642 0
M  V30 1725 C 162.529 -0.525174 1.50712 0
M  V30 1726 C 162.729 -1.8476 0.804107 0
M  V30 1727 O 161.785 -2.49869 0.363574 0
M  V30 1728 C 163.098 -0.559937 2.95441 0
M  V30 1729 C 164.646 -0.647288 3.06234 0
M  V30 1730 C 165.121 -0.712963 4.52417 0
M  V30 1731 N 166.612 -0.775911 4.56655 0
M  V30 1732 C 167.347 -0.847264 5.67106 0
M  V30 1733 N 166.843 -0.879585 6.87194 0
M  V30 1734 N 168.636 -0.886117 5.55071 0
M  V30 1735 H 160.787 0.693681 2.00753 0
M  V30 1736 H 163.05 0.249841 0.914485 0
M  V30 1737 H 162.756 0.343049 3.50023 0
M  V30 1738 H 162.63 -1.40718 3.49969 0
M  V30 1739 H 165.017 -1.5407 2.51687 0
M  V30 1740 H 165.098 0.226586 2.54794 0
M  V30 1741 H 164.742 0.176183 5.07594 0
M  V30 1742 H 164.672 -1.60295 5.0161 0
M  V30 1743 H 167.163 -0.759304 3.70193 0
M  V30 1744 H 167.476 -0.935144 7.67121 0
M  V30 1745 H 165.821 -0.847898 6.89808 0
M  V30 1746 H 169.012 -0.857853 4.60172 0
M  V30 1747 H 169.185 -0.938263 6.41171 0
M  V30 1748 N 162.591 -1.51276 -0.441967 0
M  V30 1749 C 163.538 -1.72256 -1.53612 0
M  V30 1750 C 164.508 -0.564164 -1.56225 0
M  V30 1751 O 165.693 -0.798074 -1.73307 0
M  V30 1752 C 162.833 -1.84932 -2.91366 0
M  V30 1753 C 161.946 -3.12459 -2.98317 0
M  V30 1754 C 161.081 -3.15758 -4.27166 0
M  V30 1755 C 160.12 -4.37619 -4.27967 0
M  V30 1756 N 159.257 -4.38493 -5.48333 0
M  V30 1757 H 164.097 -2.65654 -1.35026 0
M  V30 1758 H 161.634 -1.31662 -0.656009 0
M  V30 1759 H 163.592 -1.90263 -3.7129 0
M  V30 1760 H 162.222 -0.949461 -3.08521 0
M  V30 1761 H 161.274 -3.1646 -2.11086 0
M  V30 1762 H 162.586 -4.02382 -2.94771 0
M  V30 1763 H 161.74 -3.19979 -5.15459 0
M  V30 1764 H 160.479 -2.23715 -4.33362 0
M  V30 1765 H 159.484 -4.33579 -3.38067 0
M  V30 1766 H 160.709 -5.30921 -4.23438 0
M  V30 1767 H 158.655 -3.49318 -5.55259 0
M  V30 1768 H 158.572 -5.22219 -5.46647 0
M  V30 1769 H 159.84 -4.469 -6.38671 0
M  V30 1770 N 164.069 0.697108 -1.41344 0
M  V30 1771 C 165.001 1.8224 -1.39001 0
M  V30 1772 C 166.014 1.60152 -0.292428 0
M  V30 1773 O 167.203 1.69684 -0.554048 0
M  V30 1774 C 164.303 3.18976 -1.14489 0
M  V30 1775 C 163.476 3.68105 -2.36258 0
M  V30 1776 C 162.535 4.83506 -2.07625 0
M  V30 1777 O 161.561 4.95201 -2.8065 0
M  V30 1778 N 162.763 5.70637 -1.06555 0
M  V30 1779 H 165.528 1.84742 -2.35988 0
M  V30 1780 H 163.089 0.87937 -1.35936 0
M  V30 1781 H 165.081 3.93801 -0.932885 0
M  V30 1782 H 163.651 3.11508 -0.261043 0
M  V30 1783 H 162.871 2.84204 -2.7317 0
M  V30 1784 H 164.159 3.97667 -3.17393 0
M  V30 1785 H 163.557 5.63817 -0.461125 0
M  V30 1786 H 162.114 6.45368 -0.913444 0
M  V30 1787 N 165.547 1.27147 0.931209 0
M  V30 1788 C 166.51 1.09615 2.01289 0
M  V30 1789 C 167.51 0.0412581 1.60747 0
M  V30 1790 O 168.7 0.285545 1.71844 0
M  V30 1791 C 165.832 0.669447 3.34262 0
M  V30 1792 H 167.025 2.05662 2.18273 0
M  V30 1793 H 164.578 1.09885 1.11153 0
M  V30 1794 H 165.313 -0.292572 3.22978 0
M  V30 1795 H 165.098 1.43127 3.65044 0
M  V30 1796 H 166.588 0.568921 4.13706 0
M  V30 1797 N 167.025 -1.13721 1.09112 0
M  V30 1798 C 168.441 -1.36914 0.820174 0
M  V30 1799 C 168.641 -1.93356 -0.567079 0
M  V30 1800 O 167.697 -2.15093 -1.32255 0
M  V30 1801 C 169.01 -2.3235 1.90877 0
M  V30 1802 C 170.558 -2.45973 1.93562 0
M  V30 1803 C 171.033 -3.44714 3.01556 0
M  V30 1804 N 172.524 -3.52263 3.00775 0
M  V30 1805 C 173.259 -4.28536 3.80978 0
M  V30 1806 N 172.755 -5.07991 4.71081 0
M  V30 1807 N 174.548 -4.23804 3.69251 0
M  V30 1808 H 166.699 -0.754348 1.98553 0
M  V30 1809 H 168.962 -0.3944 0.862063 0
M  V30 1810 H 168.668 -1.98027 2.90651 0
M  V30 1811 H 168.542 -3.32332 1.78424 0
M  V30 1812 H 170.929 -2.79584 0.944286 0
M  V30 1813 H 171.01 -1.45926 2.10093 0
M  V30 1814 H 170.654 -3.11835 4.00901 0
M  V30 1815 H 170.584 -4.44558 2.82269 0
M  V30 1816 H 173.075 -2.95567 2.35475 0
M  V30 1817 H 173.388 -5.63487 5.28869 0
M  V30 1818 H 171.733 -5.07235 4.75119 0
M  V30 1819 H 174.924 -3.60806 2.98222 0
M  V30 1820 H 175.097 -4.82995 4.31995 0
M  V30 1821 N 168.503 -0.877838 -1.30888 0
M  V30 1822 C 169.728 -0.506629 -2.01117 0
M  V30 1823 C 170.153 0.895564 -1.65412 0
M  V30 1824 O 169.511 1.5923 -0.866922 0
M  V30 1825 C 169.559 -0.680223 -3.54126 0
M  V30 1826 O 168.663 0.277033 -4.11468 0
M  V30 1827 H 168.004 -0.200518 -0.633 0
M  V30 1828 H 170.534 -1.18342 -1.66902 0
M  V30 1829 H 170.544 -0.5765 -4.03907 0
M  V30 1830 H 169.219 -1.70261 -3.79452 0
M  V30 1831 H 167.796 0.127606 -3.72682 0
M  V30 1832 N 169.982 1.44106 -0.638065 0
M  V30 1833 C 170.929 2.30715 0.062701 0
M  V30 1834 C 171.899 1.43882 0.829883 0
M  V30 1835 O 173.084 1.72775 0.809532 0
M  V30 1836 C 170.224 3.29258 1.03358 0
M  V30 1837 C 169.337 4.31192 0.26409 0
M  V30 1838 C 168.472 5.16825 1.22741 0
M  V30 1839 C 167.511 6.10462 0.447475 0
M  V30 1840 N 166.648 6.8877 1.36161 0
M  V30 1841 H 171.488 2.90096 -0.681781 0
M  V30 1842 H 169.025 1.42925 -0.347988 0
M  V30 1843 H 170.983 3.84886 1.60992 0
M  V30 1844 H 169.613 2.71562 1.74511 0
M  V30 1845 H 168.665 3.77981 -0.428295 0
M  V30 1846 H 169.977 4.97619 -0.343052 0
M  V30 1847 H 169.131 5.77004 1.87487 0
M  V30 1848 H 167.87 4.50488 1.86847 0
M  V30 1849 H 166.875 5.49386 -0.213433 0
M  V30 1850 H 168.1 6.78837 -0.188968 0
M  V30 1851 H 166.046 6.25096 1.98975 0
M  V30 1852 H 165.963 7.51663 0.808656 0
M  V30 1853 H 167.231 7.53467 1.99769 0
M  V30 1854 N 171.46 0.379036 1.52974 0
M  V30 1855 C 172.69 -0.20649 2.05566 0
M  V30 1856 C 173.098 -1.41906 1.25137 0
M  V30 1857 O 172.441 -1.81421 0.288464 0
M  V30 1858 C 172.503 -0.651086 3.53555 0
M  V30 1859 C 172.167 0.446626 4.54812 0
M  V30 1860 C 173.164 1.30079 5.03364 0
M  V30 1861 C 170.849 0.610719 4.98573 0
M  V30 1862 C 172.843 2.30426 5.94292 0
M  V30 1863 C 170.53 1.61754 5.89304 0
M  V30 1864 C 171.528 2.46274 6.37054 0
M  V30 1865 O 171.216 3.45237 7.25994 0
M  V30 1866 H 170.948 -0.0372381 0.674974 0
M  V30 1867 H 173.502 0.539718 1.98182 0
M  V30 1868 H 171.732 -1.44911 3.58522 0
M  V30 1869 H 173.421 -1.16112 3.88938 0
M  V30 1870 H 174.187 1.18527 4.70294 0
M  V30 1871 H 170.066 -0.0374044 4.60985 0
M  V30 1872 H 173.61 2.96432 6.31485 0
M  V30 1873 H 169.507 1.73348 6.21788 0
M  V30 1874 H 170.275 3.41124 7.44027 0
M  V30 1875 N 172.938 -1.57226 0.108567 0
M  V30 1876 C 174.186 -1.94448 -0.550853 0
M  V30 1877 C 174.507 -0.992074 -1.67878 0
M  V30 1878 O 173.777 -0.0465 -1.95845 0
M  V30 1879 H 172.357 -0.717897 -0.206479 0
M  V30 1880 H 175.019 -1.94112 0.175062 0
M  V30 1881 H 174.115 -2.97218 -0.952259 0
M  V30 1882 N 174.416 0.165178 -1.56732 0
M  V30 1883 C 175.662 0.882112 -1.82611 0
M  V30 1884 C 175.995 1.81628 -0.687378 0
M  V30 1885 O 175.27 1.92009 0.310267 0
M  V30 1886 C 175.553 1.67245 -3.18906 0
M  V30 1887 C 175.406 0.760987 -4.43316 0
M  V30 1888 C 176.725 2.63884 -3.52212 0
M  V30 1889 H 173.844 0.319242 -0.664269 0
M  V30 1890 H 176.486 0.148052 -1.89422 0
M  V30 1891 H 174.636 2.29824 -3.1323 0
M  V30 1892 H 176.308 0.147596 -4.61064 0
M  V30 1893 H 174.551 0.0694102 -4.33744 0
M  V30 1894 H 175.222 1.34962 -5.35247 0
M  V30 1895 H 177.698 2.11429 -3.58381 0
M  V30 1896 H 176.574 3.16245 -4.48643 0
M  V30 1897 H 176.835 3.44377 -2.77231 0
M  V30 1898 N 175.894 1.51508 0.433938 0
M  V30 1899 C 176.841 1.73068 1.52696 0
M  V30 1900 C 177.811 0.572441 1.55924 0
M  V30 1901 O 178.996 0.807253 1.72882 0
M  V30 1902 C 176.136 1.86474 2.90381 0
M  V30 1903 C 175.249 3.14037 2.96656 0
M  V30 1904 C 174.384 3.18019 4.25485 0
M  V30 1905 C 173.423 4.39882 4.2564 0
M  V30 1906 N 172.56 4.41394 5.45999 0
M  V30 1907 H 177.4 2.66366 1.33615 0
M  V30 1908 H 174.937 1.32008 0.649018 0
M  V30 1909 H 176.895 1.92229 3.70275 0
M  V30 1910 H 175.525 0.965809 3.08013 0
M  V30 1911 H 174.577 3.17575 2.09404 0
M  V30 1912 H 175.889 4.0394 2.92633 0
M  V30 1913 H 175.043 3.22708 5.13755 0
M  V30 1914 H 173.782 2.2601 4.3217 0
M  V30 1915 H 172.787 4.35366 3.35763 0
M  V30 1916 H 174.012 5.33159 4.20617 0
M  V30 1917 H 171.958 3.52258 5.53399 0
M  V30 1918 H 171.875 5.25111 5.4387 0
M  V30 1919 H 173.143 4.50281 6.36292 0
M  V30 1920 N 177.372 -0.689602 1.41712 0
M  V30 1921 C 178.788 -1.00093 1.24312 0
M  V30 1922 C 178.988 -2.01036 0.136729 0
M  V30 1923 O 178.044 -2.47562 -0.496918 0
M  V30 1924 C 179.357 -1.51985 2.59463 0
M  V30 1925 C 180.905 -1.63838 2.66695 0
M  V30 1926 C 181.38 -2.1913 4.02177 0
M  V30 1927 N 182.871 -2.26483 4.04054 0
M  V30 1928 C 183.606 -2.70306 5.0569 0
M  V30 1929 N 183.102 -3.13691 6.17713 0
M  V30 1930 N 184.895 -2.69923 4.9305 0
M  V30 1931 H 177.046 -0.0210029 2.1239 0
M  V30 1932 H 179.309 -0.0718733 0.945272 0
M  V30 1933 H 179.015 -0.85269 3.41207 0
M  V30 1934 H 178.889 -2.50103 2.82362 0
M  V30 1935 H 181.276 -2.29664 1.85306 0
M  V30 1936 H 181.357 -0.642492 2.476 0
M  V30 1937 H 181.001 -1.53918 4.84016 0
M  V30 1938 H 180.931 -3.19482 4.18615 0
M  V30 1939 H 183.422 -1.95874 3.23174 0
M  V30 1940 H 183.735 -3.45773 6.9113 0
M  V30 1941 H 182.08 -3.11585 6.21241 0
M  V30 1942 H 185.271 -2.35382 4.04614 0
M  V30 1943 H 185.444 -3.03758 5.72394 0
M  V30 1944 N 178.85 -1.27639 -0.924453 0
M  V30 1945 C 180.261 -1.12834 -1.48746 0
M  V30 1946 C 180.612 0.285505 -1.94112 0
M  V30 1947 O 179.737 1.17874 -1.81479 0
M  V30 1948 C 180.332 -2.04217 -2.70334 0
M  V30 1949 C 178.891 -1.93509 -3.22848 0
M  V30 1950 C 178.038 -1.96583 -1.95577 0
M  V30 1951 H 180.989 -1.40484 -0.738233 0
M  V30 1952 H 181.01 -1.59989 -3.4523 0
M  V30 1953 H 180.522 -3.07111 -2.37285 0
M  V30 1954 H 178.623 -0.936131 -3.60649 0
M  V30 1955 H 178.736 -2.79917 -3.88823 0
M  V30 1956 H 177.1 -1.4085 -2.12211 0
M  V30 1957 H 177.883 -3.01137 -1.64837 0
M  V30 1958 N 180.328 1.1314 -1.09713 0
M  V30 1959 C 181.275 2.18642 -0.739196 0
M  V30 1960 C 182.245 1.63706 0.280978 0
M  V30 1961 O 183.43 1.90111 0.161946 0
M  V30 1962 C 180.57 3.44685 -0.169102 0
M  V30 1963 C 179.683 4.13711 -1.24367 0
M  V30 1964 C 178.818 5.27379 -0.636019 0
M  V30 1965 C 177.857 5.88259 -1.69169 0
M  V30 1966 N 176.994 6.93352 -1.10485 0
M  V30 1967 H 181.834 2.48607 -1.64312 0
M  V30 1968 H 179.371 1.22066 -0.820875 0
M  V30 1969 H 181.329 4.16815 0.179256 0
M  V30 1970 H 179.959 3.15161 0.698079 0
M  V30 1971 H 179.011 3.39835 -1.70927 0
M  V30 1972 H 180.323 4.55037 -2.04311 0
M  V30 1973 H 179.477 6.06238 -0.236677 0
M  V30 1974 H 178.216 4.8731 0.194928 0
M  V30 1975 H 177.221 5.08092 -2.10055 0
M  V30 1976 H 178.446 6.30399 -2.52536 0
M  V30 1977 H 176.392 6.55335 -0.295234 0
M  V30 1978 H 176.309 7.33236 -1.84121 0
M  V30 1979 H 177.577 7.76057 -0.73181 0
M  V30 1980 N 181.806 0.884767 1.30421 0
M  V30 1981 C 182.769 0.356277 2.26414 0
M  V30 1982 C 183.769 -0.501124 1.52792 0
M  V30 1983 O 184.959 -0.30831 1.7145 0
M  V30 1984 C 182.091 -0.492316 3.37326 0
M  V30 1985 H 183.284 1.20389 2.74675 0
M  V30 1986 H 180.837 0.661607 1.41607 0
M  V30 1987 H 181.572 -1.36052 2.94381 0
M  V30 1988 H 181.357 0.121832 3.91911 0
M  V30 1989 H 182.847 -0.853871 4.08777 0
M  V30 1990 O 183.323 -1.41116 0.785407 0
M  V30 1991 H 184.014 -1.90435 0.354159 0
M  V30 END ATOM
M  V30 BEGIN BOND
M  V30 END BOND
M  V30 END CTAB
M  END
$$$$
