drugbank_target|P22695 Cytochrome b-c1 complex subunit 2, mitochondrial (DB04141; DB04799; DB07401; DB07763; DB07778; DB08330; DB08453; DB08690)
 OpenBabel12092120423D

  0  0  0     0  0            999 V3000
M  V30 BEGIN CTAB
M  V30 COUNTS 6825 6890 0 0 0
M  V30 BEGIN ATOM
M  V30 1 H -0.908 1.98254 -0.117106 0
M  V30 2 N 0 1.576 0 0
M  V30 3 C 0.933 2.03868 1.02534 0
M  V30 4 C 1.911 0.928543 1.3348 0
M  V30 5 O 3.095 1.19667 1.45644 0
M  V30 6 C 0.222 2.43627 2.35294 0
M  V30 7 C -0.732 3.65373 2.2001 0
M  V30 8 S 0.101 5.13292 1.52614 0
M  V30 9 C 1.257 5.56322 2.86805 0
M  V30 10 H 1.49 2.90518 0.631377 0
M  V30 11 H -0.977 1.52953 0.210867 0
M  V30 12 H 0.981 2.67203 3.11629 0
M  V30 13 H -0.358 1.57376 2.7183 0
M  V30 14 H -1.165 3.90944 3.18086 0
M  V30 15 H -1.563 3.418 1.51819 0
M  V30 16 H 0.729 5.58782 3.83104 0
M  V30 17 H 1.672 6.56266 2.65933 0
M  V30 18 H 2.08 4.83886 2.90714 0
M  V30 19 N 1.4781 -0.272755 1.55222 0
M  V30 20 C 2.4251 -1.33716 1.88119 0
M  V30 21 C 3.3951 -1.49066 0.73271 0
M  V30 22 O 4.5801 -1.63469 0.984002 0
M  V30 23 C 1.7201 -2.69238 2.15882 0
M  V30 24 C 0.8331 -2.62108 3.43399 0
M  V30 25 C -0.0319 -3.89811 3.60861 0
M  V30 26 C -0.9929 -3.77193 4.8207 0
M  V30 27 N -1.8559 -4.9673 4.96189 0
M  V30 28 H 2.9841 -1.04962 2.78903 0
M  V30 29 H 0.5211 -0.507088 1.38083 0
M  V30 30 H 2.4791 -3.48089 2.29978 0
M  V30 31 H 1.1091 -2.96194 1.28331 0
M  V30 32 H 0.1611 -1.74967 3.37773 0
M  V30 33 H 1.4731 -2.48685 4.32386 0
M  V30 34 H 0.6271 -4.77103 3.74777 0
M  V30 35 H -0.6339 -4.06102 2.7006 0
M  V30 36 H -1.6289 -2.88284 4.68159 0
M  V30 37 H -0.4039 -3.62421 5.74307 0
M  V30 38 H -2.4579 -5.13431 4.08319 0
M  V30 39 H -2.5409 -4.85839 5.79221 0
M  V30 40 H -1.2729 -5.85594 5.1449 0
M  V30 41 N 2.9562 -1.48159 -0.537278 0
M  V30 42 C 3.8862 -1.65029 -1.6519 0
M  V30 43 C 4.8672 -0.499281 -1.62607 0
M  V30 44 O 6.0522 -0.730972 -1.79918 0
M  V30 45 C 3.1822 -1.68303 -3.03795 0
M  V30 46 C 2.1362 -2.8283 -3.21234 0
M  V30 47 C 1.4622 -2.71189 -4.60826 0
M  V30 48 C 2.7622 -4.24211 -3.04701 0
M  V30 49 H 4.4562 -2.58341 -1.51328 0
M  V30 50 H 2.0022 -1.24325 -0.726585 0
M  V30 51 H 3.9552 -1.78693 -3.81637 0
M  V30 52 H 2.6792 -0.715635 -3.18663 0
M  V30 53 H 1.3382 -2.71983 -2.45807 0
M  V30 54 H 0.9862 -1.72435 -4.7252 0
M  V30 55 H 0.6862 -3.48035 -4.7344 0
M  V30 56 H 2.2102 -2.83537 -5.40777 0
M  V30 57 H 3.6242 -4.3593 -3.72341 0
M  V30 58 H 2.0212 -5.01998 -3.28813 0
M  V30 59 H 3.0912 -4.41184 -2.01209 0
M  V30 60 N 4.4343 0.785586 -1.36625 0
M  V30 61 C 5.3643 1.91259 -1.33949 0
M  V30 62 C 6.3453 1.68795 -0.210325 0
M  V30 63 O 7.5303 1.89854 -0.408561 0
M  V30 64 C 4.6603 3.28339 -1.13186 0
M  V30 65 C 3.6143 3.65335 -2.22967 0
M  V30 66 C 2.9403 5.00806 -1.87342 0
M  V30 67 C 4.2403 3.7352 -3.65075 0
M  V30 68 H 5.9343 1.93755 -2.28253 0
M  V30 69 H 3.4803 0.930788 -1.09874 0
M  V30 70 H 5.4333 4.06804 -1.09948 0
M  V30 71 H 4.1573 3.2624 -0.153332 0
M  V30 72 H 2.8163 2.89169 -2.25337 0
M  V30 73 H 2.4643 4.95233 -0.880545 0
M  V30 74 H 2.1643 5.26529 -2.60846 0
M  V30 75 H 3.6883 5.81687 -1.85667 0
M  V30 76 H 5.1023 4.42168 -3.64911 0
M  V30 77 H 3.4993 4.10731 -4.37516 0
M  V30 78 H 4.5693 2.74527 -3.99703 0
M  V30 79 N 5.9124 1.20967 1.01018 0
M  V30 80 C 7.1404 1.04956 1.78303 0
M  V30 81 C 7.5554 -0.400915 1.84494 0
M  V30 82 O 6.9124 -1.27826 1.30257 0
M  V30 83 C 6.9634 1.63403 3.22462 0
M  V30 84 O 6.6844 3.02775 3.16637 0
M  V30 85 C 8.1854 1.52432 4.16268 0
M  V30 86 H 5.4054 0.368858 0.560522 0
M  V30 87 H 7.9494 1.60193 1.27116 0
M  V30 88 H 6.1044 1.1227 3.70775 0
M  V30 89 H 6.5184 3.30626 4.07169 0
M  V30 90 H 7.9924 1.98078 5.15237 0
M  V30 91 H 8.4694 0.477875 4.36592 0
M  V30 92 H 9.0754 2.02787 3.73841 0
M  V30 93 N 7.3905 -1.2043 1.01659 0
M  V30 94 C 8.8065 -1.41852 0.731442 0
M  V30 95 C 9.0065 -1.89358 -0.688898 0
M  V30 96 O 8.0625 -2.06247 -1.45666 0
M  V30 97 C 9.3755 -2.44019 1.75714 0
M  V30 98 C 10.9235 -2.57785 1.77527 0
M  V30 99 C 11.3985 -3.63194 2.79023 0
M  V30 100 N 12.8895 -3.70678 2.77763 0
M  V30 101 C 13.6245 -4.51897 3.52954 0
M  V30 102 N 13.1205 -5.36921 4.37821 0
M  V30 103 N 14.9135 -4.4643 3.41551 0
M  V30 104 H 7.0645 -0.879093 1.93354 0
M  V30 105 H 9.3275 -0.448425 0.835236 0
M  V30 106 H 9.0335 -2.1611 2.77469 0
M  V30 107 H 8.9075 -3.43007 1.56927 0
M  V30 108 H 11.2945 -2.85023 0.764569 0
M  V30 109 H 11.3755 -1.58992 2.00387 0
M  V30 110 H 11.0195 -3.36699 3.80258 0
M  V30 111 H 10.9495 -4.61609 2.53425 0
M  V30 112 H 13.4405 -3.09944 2.16201 0
M  V30 113 H 13.7535 -5.95981 4.91962 0
M  V30 114 H 12.0985 -5.36424 4.41899 0
M  V30 115 H 15.2895 -3.79042 2.74672 0
M  V30 116 H 15.4625 -5.09491 4.00404 0
M  V30 117 N 8.8686 -0.792821 -1.36206 0
M  V30 118 C 9.8316 -0.199459 -2.2833 0
M  V30 119 C 10.8316 0.605189 -1.48977 0
M  V30 120 O 12.0216 0.425685 -1.68919 0
M  V30 121 C 9.1536 0.723523 -3.33134 0
M  V30 122 H 10.3466 -1.01181 -2.82316 0
M  V30 123 H 7.8996 -0.562485 -1.45828 0
M  V30 124 H 8.6346 1.56008 -2.84309 0
M  V30 125 H 8.4196 0.148436 -3.91819 0
M  V30 126 H 9.9096 1.13344 -4.01924 0
M  V30 127 N 10.3467 1.47872 -0.545128 0
M  V30 128 C 11.5947 2.02093 -0.016553 0
M  V30 129 C 11.9157 1.42305 1.3332 0
M  V30 130 O 11.1857 0.593853 1.86682 0
M  V30 131 H 9.7657 0.746993 -0.00313038 0
M  V30 132 H 12.4277 1.81414 -0.712397 0
M  V30 133 H 11.5237 3.11996 0.0805422 0
M  V30 134 N 11.8248 0.280983 1.55075 0
M  V30 135 C 13.0498 -0.340154 2.04592 0
M  V30 136 C 13.4748 -1.48246 1.15779 0
M  V30 137 O 12.8328 -1.80614 0.15761 0
M  V30 138 C 12.8808 -0.793104 3.5177 0
M  V30 139 O 11.9848 -1.89981 3.66034 0
M  V30 140 H 11.3258 -0.0694289 0.66036 0
M  V30 141 H 13.8558 0.416993 2.00306 0
M  V30 142 H 13.8658 -1.08729 3.93245 0
M  V30 143 H 12.5408 0.0426163 4.15878 0
M  V30 144 H 11.1178 -1.60771 3.36463 0
M  V30 145 N 13.3029 -1.57598 0.00835791 0
M  V30 146 C 14.5499 -1.90928 -0.674732 0
M  V30 147 C 14.8779 -0.88277 -1.73313 0
M  V30 148 O 14.1329 0.111294 -1.95383 0
M  V30 149 C 14.4319 -3.3101 -1.34787 0
M  V30 150 C 14.0979 -4.48922 -0.421861 0
M  V30 151 C 12.7599 -4.8091 -0.166927 0
M  V30 152 C 15.1119 -5.20755 0.215211 0
M  V30 153 C 12.4399 -5.821 0.733232 0
M  V30 154 C 14.7919 -6.22905 1.1033 0
M  V30 155 C 13.4559 -6.53346 1.36733 0
M  V30 156 H 12.7259 -0.698656 -0.246902 0
M  V30 157 H 15.3729 -1.91387 0.0656779 0
M  V30 158 H 13.6779 -3.26714 -2.16253 0
M  V30 159 H 15.3749 -3.54061 -1.8826 0
M  V30 160 H 11.9649 -4.23934 -0.630729 0
M  V30 161 H 16.1489 -4.9629 0.0312829 0
M  V30 162 H 11.4049 -6.04042 0.945712 0
M  V30 163 H 15.5789 -6.77694 1.60325 0
M  V30 164 H 13.2059 -7.31573 2.06652 0
M  V30 165 N 14.781 0.264519 -1.55364 0
M  V30 166 C 16.006 1.01726 -1.80739 0
M  V30 167 C 16.431 1.78836 -0.583044 0
M  V30 168 O 15.789 1.75167 0.467566 0
M  V30 169 C 15.837 1.94482 -3.03659 0
M  V30 170 O 14.941 3.03386 -2.7934 0
M  V30 171 H 14.282 0.290395 -0.597132 0
M  V30 172 H 16.812 0.290854 -2.02522 0
M  V30 173 H 16.822 2.36278 -3.32621 0
M  V30 174 H 15.497 1.37772 -3.92418 0
M  V30 175 H 14.074 2.65844 -2.61498 0
M  V30 176 N 16.2591 1.48442 0.529413 0
M  V30 177 C 17.6751 1.34575 0.858004 0
M  V30 178 C 17.8751 0.3572 1.98309 0
M  V30 179 O 16.9311 -0.221379 2.51528 0
M  V30 180 C 18.2441 2.74617 1.22499 0
M  V30 181 C 19.7921 2.83109 1.33484 0
M  V30 182 C 20.2671 4.23854 1.73526 0
M  V30 183 N 21.7581 4.2653 1.80628 0
M  V30 184 C 22.4931 5.32372 2.12997 0
M  V30 185 N 21.9891 6.48491 2.43786 0
M  V30 186 N 23.7821 5.19766 2.14008 0
M  V30 187 H 15.9331 2.1133 -0.212925 0
M  V30 188 H 18.1961 0.947439 -0.0326199 0
M  V30 189 H 17.9021 3.4852 0.471905 0
M  V30 190 H 17.7761 3.08177 2.17501 0
M  V30 191 H 20.1631 2.09462 2.0787 0
M  V30 192 H 20.2441 2.53168 0.366027 0
M  V30 193 H 19.8881 4.98018 0.997013 0
M  V30 194 H 19.8181 4.5124 2.71459 0
M  V30 195 H 22.3091 3.42772 1.59108 0
M  V30 196 H 22.6221 7.24993 2.67592 0
M  V30 197 H 20.9671 6.51765 2.41304 0
M  V30 198 H 24.1581 4.28066 1.89412 0
M  V30 199 H 24.3311 6.02354 2.38902 0
M  V30 200 N 17.7372 -0.778329 1.37039 0
M  V30 201 C 18.9842 -1.53665 1.31884 0
M  V30 202 C 19.3122 -1.9425 -0.0986303 0
M  V30 203 O 18.5672 -1.63832 -1.07041 0
M  V30 204 C 18.8662 -2.81845 2.19768 0
M  V30 205 C 18.5322 -2.60345 3.68146 0
M  V30 206 C 17.1942 -2.5419 4.08584 0
M  V30 207 C 19.5462 -2.40923 4.62175 0
M  V30 208 C 16.8742 -2.26594 5.41177 0
M  V30 209 C 19.2262 -2.14852 5.94997 0
M  V30 210 C 17.8902 -2.07137 6.34547 0
M  V30 211 H 17.1602 -0.562299 0.482598 0
M  V30 212 H 19.8072 -0.897069 1.69189 0
M  V30 213 H 18.1122 -3.50328 1.75436 0
M  V30 214 H 19.8092 -3.39692 2.13097 0
M  V30 215 H 16.3992 -2.65996 3.36072 0
M  V30 216 H 20.5832 -2.44673 4.31797 0
M  V30 217 H 15.8392 -2.19111 5.70789 0
M  V30 218 H 20.0132 -1.98822 6.67415 0
M  V30 219 H 17.6402 -1.85518 7.37216 0
M  V30 220 N 19.2153 -1.21501 -1.00376 0
M  V30 221 C 20.4453 -1.05746 -1.77486 0
M  V30 222 C 20.8533 0.395655 -1.85017 0
M  V30 223 O 20.1963 1.28626 -1.31152 0
M  V30 224 C 20.2583 -1.58092 -3.22873 0
M  V30 225 C 19.9223 -3.06568 -3.38917 0
M  V30 226 C 20.9193 -4.04106 -3.271 0
M  V30 227 C 18.6043 -3.45799 -3.64319 0
M  V30 228 C 20.5983 -5.38862 -3.40451 0
M  V30 229 C 18.2853 -4.80707 -3.77311 0
M  V30 230 C 19.2833 -5.77047 -3.65384 0
M  V30 231 O 18.9713 -7.09507 -3.77961 0
M  V30 232 H 18.7033 -0.371778 -0.564586 0
M  V30 233 H 21.2573 -1.61319 -1.27143 0
M  V30 234 H 19.4873 -0.969163 -3.74358 0
M  V30 235 H 21.1763 -1.38162 -3.81662 0
M  V30 236 H 21.9423 -3.75141 -3.07399 0
M  V30 237 H 17.8213 -2.71344 -3.72684 0
M  V30 238 H 21.3653 -6.14041 -3.31058 0
M  V30 239 H 17.2623 -5.09357 -3.96517 0
M  V30 240 H 18.0303 -7.16935 -3.94901 0
M  V30 241 N 20.6934 1.19889 -1.02296 0
M  V30 242 C 21.9184 1.9393 -0.735237 0
M  V30 243 C 22.3434 1.74639 0.698782 0
M  V30 244 O 21.7014 1.04481 1.48167 0
M  V30 245 C 21.7494 3.43916 -1.08417 0
M  V30 246 O 20.8534 4.11917 -0.199446 0
M  V30 247 H 20.1944 0.605645 -0.272196 0
M  V30 248 H 22.7244 1.52137 -1.36804 0
M  V30 249 H 22.7344 3.9456 -1.03856 0
M  V30 250 H 21.4094 3.5728 -2.12894 0
M  V30 251 H 19.9864 3.71666 -0.303136 0
M  V30 252 N 22.1715 0.800033 1.35784 0
M  V30 253 C 23.1015 0.220184 2.3246 0
M  V30 254 C 24.0825 -0.65073 1.57161 0
M  V30 255 O 25.2675 -0.582359 1.85263 0
M  V30 256 C 22.3975 -0.637353 3.41402 0
M  V30 257 C 21.3515 0.134531 4.27789 0
M  V30 258 C 20.6775 -0.844285 5.27992 0
M  V30 259 C 21.9775 1.32979 5.05088 0
M  V30 260 H 23.6715 1.02787 2.81203 0
M  V30 261 H 21.2175 0.495717 1.35199 0
M  V30 262 H 23.1705 -1.05302 4.08031 0
M  V30 263 H 21.8945 -1.47785 2.91251 0
M  V30 264 H 20.5535 0.531296 3.6273 0
M  V30 265 H 20.2015 -1.68011 4.74111 0
M  V30 266 H 19.9015 -0.332184 5.8666 0
M  V30 267 H 21.4255 -1.2583 5.97494 0
M  V30 268 H 22.8395 0.98934 5.64699 0
M  V30 269 H 21.2365 1.77593 5.7322 0
M  V30 270 H 22.3065 2.11978 4.36111 0
M  V30 271 N 23.6496 -1.47581 0.552962 0
M  V30 272 C 24.5966 -2.29957 -0.197108 0
M  V30 273 C 25.5666 -1.38799 -0.912359 0
M  V30 274 O 26.7516 -1.67761 -0.908888 0
M  V30 275 C 23.8916 -3.22672 -1.22379 0
M  V30 276 C 23.0046 -4.28919 -0.515038 0
M  V30 277 C 22.1396 -5.0879 -1.52664 0
M  V30 278 C 21.1786 -6.06815 -0.802631 0
M  V30 279 N 20.3156 -6.7966 -1.76086 0
M  V30 280 H 25.1556 -2.93578 0.511486 0
M  V30 281 H 22.6926 -1.4471 0.264067 0
M  V30 282 H 24.6506 -3.74845 -1.83159 0
M  V30 283 H 23.2806 -2.60925 -1.90047 0
M  V30 284 H 22.3326 -3.79835 0.207192 0
M  V30 285 H 23.6446 -4.98773 0.0523425 0
M  V30 286 H 22.7986 -5.65091 -2.20809 0
M  V30 287 H 21.5376 -4.38828 -2.12794 0
M  V30 288 H 20.5426 -5.49695 -0.107238 0
M  V30 289 H 21.7676 -6.78784 -0.207135 0
M  V30 290 H 19.7136 -6.12432 -2.35081 0
M  V30 291 H 19.6306 -7.45669 -1.24552 0
M  V30 292 H 20.8986 -7.40538 -2.43359 0
M  V30 293 N 25.1277 -0.289203 -1.54924 0
M  V30 294 C 26.3737 0.323998 -2.00195 0
M  V30 295 C 26.7067 1.54441 -1.17735 0
M  V30 296 O 25.9817 1.92875 -0.250878 0
M  V30 297 C 26.2647 0.692276 -3.53383 0
M  V30 298 C 26.1177 -0.536457 -4.46589 0
M  V30 299 C 27.4367 1.52335 -4.12895 0
M  V30 300 H 24.5557 0.116289 -0.727768 0
M  V30 301 H 27.1977 -0.398954 -1.85764 0
M  V30 302 H 25.3477 1.30822 -3.65811 0
M  V30 303 H 27.0197 -1.17499 -4.46085 0
M  V30 304 H 25.2627 -1.17192 -4.1767 0
M  V30 305 H 25.9337 -0.234806 -5.515 0
M  V30 306 H 28.4097 1.00302 -4.0383 0
M  V30 307 H 27.2857 1.74982 -5.20262 0
M  V30 308 H 27.5467 2.50886 -3.64018 0
M  V30 309 N 26.6058 1.57591 -0.0167156 0
M  V30 310 C 27.5688 2.08393 0.954204 0
M  V30 311 C 28.5688 0.996531 1.26198 0
M  V30 312 O 29.7588 1.25858 1.20438 0
M  V30 313 C 26.8908 2.5394 2.27436 0
M  V30 314 H 28.0838 2.95455 0.514451 0
M  V30 315 H 25.6368 1.54582 0.231089 0
M  V30 316 H 26.3718 1.70171 2.76066 0
M  V30 317 H 26.1568 3.33371 2.06412 0
M  V30 318 H 27.6468 2.93512 2.97053 0
M  V30 319 N 28.0839 -0.256276 1.55502 0
M  V30 320 C 29.4949 -0.826068 1.67431 0
M  V30 321 C 29.8459 -1.86396 0.612446 0
M  V30 322 O 28.9709 -2.15031 -0.243025 0
M  V30 323 C 29.5659 -1.50512 3.03532 0
M  V30 324 C 28.1249 -2.02273 3.17431 0
M  V30 325 C 27.2719 -0.870548 2.63281 0
M  V30 326 H 30.2229 -0.0322728 1.58667 0
M  V30 327 H 30.2439 -2.37279 2.97454 0
M  V30 328 H 29.7559 -0.749484 3.80794 0
M  V30 329 H 27.8569 -2.80746 2.44974 0
M  V30 330 H 27.9699 -2.22655 4.24219 0
M  V30 331 H 26.3339 -1.26851 2.20864 0
M  V30 332 H 27.1169 -0.128149 3.43061 0
M  V30 333 N 29.562 -1.4872 -0.521534 0
M  V30 334 C 30.509 -1.63871 -1.62527 0
M  V30 335 C 31.479 -0.480559 -1.58996 0
M  V30 336 O 32.664 -0.705085 -1.77294 0
M  V30 337 C 29.804 -1.69227 -3.00759 0
M  V30 338 C 28.917 -2.96207 -3.14461 0
M  V30 339 C 28.052 -2.92671 -4.43303 0
M  V30 340 C 27.091 -4.14318 -4.50563 0
M  V30 341 N 26.228 -4.0881 -5.70805 0
M  V30 342 H 31.068 -2.58123 -1.48918 0
M  V30 343 H 28.605 -1.28 -0.724878 0
M  V30 344 H 30.563 -1.70314 -3.80853 0
M  V30 345 H 29.193 -0.784586 -3.1312 0
M  V30 346 H 28.245 -3.04826 -2.27564 0
M  V30 347 H 29.557 -3.86192 -3.15686 0
M  V30 348 H 28.711 -2.92206 -5.31696 0
M  V30 349 H 27.45 -2.00429 -4.44612 0
M  V30 350 H 26.455 -4.15049 -3.60575 0
M  V30 351 H 27.68 -5.07729 -4.50986 0
M  V30 352 H 25.626 -3.19394 -5.72995 0
M  V30 353 H 25.543 -4.92509 -5.7356 0
M  V30 354 H 26.811 -4.12418 -6.61462 0
M  V30 355 N 31.0401 0.771051 -1.3745 0
M  V30 356 C 32.2861 1.5319 -1.32894 0
M  V30 357 C 32.6191 1.94008 0.0862511 0
M  V30 358 O 31.8941 1.64124 1.04373 0
M  V30 359 C 32.1771 2.79648 -2.26868 0
M  V30 360 C 32.0301 2.45079 -3.77169 0
M  V30 361 C 33.3491 3.81583 -2.19277 0
M  V30 362 H 30.4681 0.555744 -0.484064 0
M  V30 363 H 33.1101 0.884492 -1.68157 0
M  V30 364 H 31.2601 3.34891 -1.96926 0
M  V30 365 H 32.9321 1.95745 -4.1771 0
M  V30 366 H 31.1751 1.77767 -3.95704 0
M  V30 367 H 31.8461 3.35478 -4.38359 0
M  V30 368 H 34.3221 3.35835 -2.45671 0
M  V30 369 H 33.1981 4.67787 -2.87171 0
M  V30 370 H 33.4591 4.25897 -1.18592 0
M  V30 371 N 32.5182 1.22032 0.997298 0
M  V30 372 C 33.4652 0.986467 2.08656 0
M  V30 373 C 34.4352 -0.0902671 1.65855 0
M  V30 374 O 35.6202 0.0584294 1.90711 0
M  V30 375 C 32.7602 0.565569 3.40434 0
M  V30 376 C 31.8732 1.71259 3.96604 0
M  V30 377 C 31.0082 1.24011 5.16522 0
M  V30 378 C 30.0472 2.35896 5.64818 0
M  V30 379 N 29.1842 1.89726 6.7598 0
M  V30 380 H 34.0242 1.91892 2.27994 0
M  V30 381 H 31.5612 0.956199 1.11782 0
M  V30 382 H 33.5192 0.302738 4.161 0
M  V30 383 H 32.1492 -0.329879 3.2111 0
M  V30 384 H 31.2012 2.08986 3.17851 0
M  V30 385 H 32.5132 2.55436 4.28432 0
M  V30 386 H 31.6672 0.934395 5.99461 0
M  V30 387 H 30.4062 0.368487 4.86306 0
M  V30 388 H 29.4112 2.67261 4.8047 0
M  V30 389 H 30.6362 3.23567 5.97061 0
M  V30 390 H 28.5822 1.0492 6.47555 0
M  V30 391 H 28.4992 2.67471 7.07103 0
M  V30 392 H 29.7672 1.62211 7.62435 0
M  V30 393 N 33.9963 -1.19345 1.0293 0
M  V30 394 C 34.9593 -2.20793 0.615069 0
M  V30 395 C 35.9593 -1.57553 -0.321533 0
M  V30 396 O 37.1493 -1.73862 -0.108483 0
M  V30 397 C 34.2813 -3.40754 -0.0999222 0
M  V30 398 H 35.4743 -2.58955 1.51269 0
M  V30 399 H 33.0273 -1.3303 0.820534 0
M  V30 400 H 33.7623 -3.0811 -1.01187 0
M  V30 401 H 33.5473 -3.87889 0.57309 0
M  V30 402 H 35.0373 -4.15898 -0.376645 0
M  V30 403 N 35.4744 -0.807222 -1.35358 0
M  V30 404 C 36.7024 -0.400377 -2.02989 0
M  V30 405 C 37.1174 0.988859 -1.60832 0
M  V30 406 O 36.4744 1.63729 -0.806175 0
M  V30 407 C 36.5254 -0.474867 -3.58368 0
M  V30 408 O 36.2464 -1.80933 -3.98992 0
M  V30 409 C 37.7474 -0.0609112 -4.43258 0
M  V30 410 H 34.9674 -0.162587 -0.651004 0
M  V30 411 H 37.5114 -1.09102 -1.72965 0
M  V30 412 H 35.6664 0.167534 -3.87038 0
M  V30 413 H 36.0804 -1.77256 -4.9364 0
M  V30 414 H 37.5544 -0.164145 -5.51756 0
M  V30 415 H 38.0314 0.993831 -4.27808 0
M  V30 416 H 38.6374 -0.676492 -4.19885 0
M  V30 417 N 36.9525 1.47285 -0.560781 0
M  V30 418 C 37.9155 2.28535 0.174488 0
M  V30 419 C 38.9155 1.37153 0.839388 0
M  V30 420 O 40.1055 1.59748 0.694702 0
M  V30 421 C 37.2375 3.16934 1.25561 0
M  V30 422 H 38.4305 2.95012 -0.539262 0
M  V30 423 H 35.9835 1.53034 -0.317865 0
M  V30 424 H 36.7185 2.55157 2.00164 0
M  V30 425 H 36.5035 3.8419 0.783604 0
M  V30 426 H 37.9935 3.78143 1.77193 0
M  V30 427 N 38.4306 0.297415 1.54768 0
M  V30 428 C 39.3936 -0.567375 2.22066 0
M  V30 429 C 40.3936 -1.06409 1.20556 0
M  V30 430 O 41.5836 -0.960691 1.45315 0
M  V30 431 C 38.7156 -1.78517 2.90421 0
M  V30 432 H 39.9086 0.0205534 2.99893 0
M  V30 433 H 37.4616 0.0482163 1.56226 0
M  V30 434 H 38.1966 -2.41303 2.16664 0
M  V30 435 H 37.9816 -1.43669 3.64831 0
M  V30 436 H 39.4716 -2.39964 3.41771 0
M  V30 437 N 39.9087 -1.5758 0.0250728 0
M  V30 438 C 41.3197 -1.79476 -0.514323 0
M  V30 439 C 41.6707 -0.934956 -1.72491 0
M  V30 440 O 40.7957 -0.144245 -2.15919 0
M  V30 441 C 41.3907 -3.25503 -0.939842 0
M  V30 442 C 39.9497 -3.48408 -1.42438 0
M  V30 443 C 39.0967 -2.74583 -0.387201 0
M  V30 444 H 42.0477 -1.567 0.25113 0
M  V30 445 H 42.0687 -3.34992 -1.80445 0
M  V30 446 H 41.5807 -3.88056 -0.0585628 0
M  V30 447 H 39.6817 -2.91103 -2.32572 0
M  V30 448 H 39.7947 -4.57119 -1.43455 0
M  V30 449 H 38.1587 -2.39942 -0.854409 0
M  V30 450 H 38.9417 -3.39849 0.485543 0
M  V30 451 N 41.3868 0.248026 -1.55636 0
M  V30 452 C 42.3498 1.29044 -1.89421 0
M  V30 453 C 43.3498 1.41134 -0.770581 0
M  V30 454 O 44.5398 1.39854 -1.03858 0
M  V30 455 C 41.6718 2.66831 -2.12165 0
M  V30 456 H 42.8648 1.00305 -2.82629 0
M  V30 457 H 40.4178 0.487265 -1.48511 0
M  V30 458 H 41.1528 3.00711 -1.21422 0
M  V30 459 H 40.9378 2.59438 -2.93997 0
M  V30 460 H 42.4278 3.42103 -2.3949 0
M  V30 461 N 42.8649 1.48995 0.513639 0
M  V30 462 C 44.1129 1.57531 1.26604 0
M  V30 463 C 44.4339 0.258236 1.93283 0
M  V30 464 O 43.7039 -0.721502 1.8213 0
M  V30 465 H 42.2839 0.580387 0.470276 0
M  V30 466 H 44.9459 1.85552 0.596373 0
M  V30 467 H 44.0419 2.36486 2.03669 0
M  V30 468 N 44.343 -0.763751 1.37857 0
M  V30 469 C 45.306 -1.85889 1.34081 0
M  V30 470 C 46.306 -1.58949 0.243277 0
M  V30 471 O 47.496 -1.66882 0.499589 0
M  V30 472 C 44.628 -3.23176 1.08489 0
M  V30 473 H 45.821 -1.90648 2.31502 0
M  V30 474 H 43.374 -0.964367 1.23003 0
M  V30 475 H 44.109 -3.24091 0.116318 0
M  V30 476 H 43.894 -3.44124 1.8794 0
M  V30 477 H 45.384 -4.03254 1.08517 0
M  V30 478 N 45.8211 -1.22559 -0.990812 0
M  V30 479 C 47.2321 -1.04791 -1.54518 0
M  V30 480 C 47.5831 0.387998 -1.92325 0
M  V30 481 O 46.7081 1.27328 -1.74976 0
M  V30 482 C 47.3031 -1.896 -2.80779 0
M  V30 483 C 45.8621 -1.76124 -3.32652 0
M  V30 484 C 45.0091 -1.8594 -2.05722 0
M  V30 485 H 47.9601 -1.36374 -0.811662 0
M  V30 486 H 47.9811 -1.41464 -3.53225 0
M  V30 487 H 47.4931 -2.94101 -2.53231 0
M  V30 488 H 45.5941 -0.743643 -3.65104 0
M  V30 489 H 45.7071 -2.58913 -4.03114 0
M  V30 490 H 44.0711 -1.29403 -2.19379 0
M  V30 491 H 44.8541 -2.91976 -1.80568 0
M  V30 492 N 47.2992 1.18797 -1.03562 0
M  V30 493 C 48.7102 1.70322 -0.764676 0
M  V30 494 C 49.0612 1.82708 0.714996 0
M  V30 495 O 48.1862 1.50299 1.55689 0
M  V30 496 C 48.7812 3.09356 -1.38145 0
M  V30 497 C 47.3402 3.58114 -1.15895 0
M  V30 498 C 46.4872 2.34798 -1.4753 0
M  V30 499 H 49.4382 1.03543 -1.20268 0
M  V30 500 H 49.4592 3.72378 -0.781977 0
M  V30 501 H 48.9712 3.00309 -2.45837 0
M  V30 502 H 47.0722 3.72464 -0.100544 0
M  V30 503 H 47.1852 4.4184 -1.8524 0
M  V30 504 H 45.5492 2.38464 -0.894829 0
M  V30 505 H 46.3322 2.28375 -2.56319 0
M  V30 506 N 48.7773 0.814389 1.34928 0
M  V30 507 C 49.7093 0.187834 2.28429 0
M  V30 508 C 50.7223 -0.617374 1.5064 0
M  V30 509 O 51.9113 -0.448454 1.72775 0
M  V30 510 C 49.0113 -0.755962 3.30361 0
M  V30 511 C 48.1843 0.00456686 4.374 0
M  V30 512 C 47.2433 -0.858876 5.19143 0
M  V30 513 O 46.2693 -0.306968 5.68372 0
M  V30 514 N 47.4713 -2.17988 5.38016 0
M  V30 515 H 50.2363 0.991105 2.82838 0
M  V30 516 H 47.7973 0.670561 1.4736 0
M  V30 517 H 49.7893 -1.338 3.81942 0
M  V30 518 H 48.3593 -1.46001 2.7641 0
M  V30 519 H 47.5793 0.767865 3.86649 0
M  V30 520 H 48.8673 0.528422 5.06049 0
M  V30 521 H 48.2653 -2.65212 4.99679 0
M  V30 522 H 46.8223 -2.71098 5.92747 0
M  V30 523 N 50.2554 -1.46986 0.568584 0
M  V30 524 C 51.6664 -1.86188 0.138219 0
M  V30 525 C 52.0174 -1.47388 -1.29504 0
M  V30 526 O 51.1424 -0.88219 -1.97602 0
M  V30 527 C 51.7374 -3.3792 0.244065 0
M  V30 528 C 50.2964 -3.76171 -0.131335 0
M  V30 529 C 49.4434 -2.71027 0.586465 0
M  V30 530 H 52.3944 -1.38342 0.777645 0
M  V30 531 H 52.4154 -3.76729 -0.534351 0
M  V30 532 H 51.9274 -3.66128 1.28731 0
M  V30 533 H 50.0284 -3.5358 -1.17526 0
M  V30 534 H 50.1414 -4.78523 0.235146 0
M  V30 535 H 48.5054 -2.54684 0.0282722 0
M  V30 536 H 49.2884 -3.02077 1.63109 0
M  V30 537 N 51.7335 -0.305618 -1.54608 0
M  V30 538 C 52.6655 0.602161 -2.21149 0
M  V30 539 C 53.6785 1.09394 -1.20569 0
M  V30 540 O 54.8675 1.0106 -1.47136 0
M  V30 541 C 51.9675 1.83692 -2.84799 0
M  V30 542 C 51.1405 1.48686 -4.11353 0
M  V30 543 C 50.1995 2.57725 -4.58764 0
M  V30 544 O 49.2255 2.22623 -5.23858 0
M  V30 545 N 50.4275 3.88346 -4.31471 0
M  V30 546 H 53.1925 0.0324966 -2.99682 0
M  V30 547 H 50.7535 -0.128021 -1.61393 0
M  V30 548 H 52.7455 2.55994 -3.13448 0
M  V30 549 H 51.3155 2.31486 -2.10078 0
M  V30 550 H 50.5355 0.596269 -3.89664 0
M  V30 551 H 51.8235 1.22842 -4.93748 0
M  V30 552 H 51.2215 4.19671 -3.79331 0
M  V30 553 H 49.7785 4.56932 -4.64818 0
M  V30 554 N 53.2116 1.57565 -0.0334293 0
M  V30 555 C 54.4886 1.83282 0.683163 0
M  V30 556 C 54.8686 0.91823 1.90084 0
M  V30 557 O 54.2166 -0.025113 2.28486 0
M  V30 558 C 54.4266 3.32599 1.0573 0
M  V30 559 C 55.7746 3.99179 1.44711 0
M  V30 560 O 56.7986 3.3712 1.15015 0
M  V30 561 O 55.6576 5.08565 2.0006 0
M  V30 562 H 52.7516 0.755869 0.335546 0
M  V30 563 H 55.2976 1.69589 -0.0614402 0
M  V30 564 H 54.0696 3.90834 0.190828 0
M  V30 565 H 53.6926 3.51415 1.85993 0
M  V30 566 N 54.6897 -0.239769 1.55765 0
M  V30 567 C 55.6197 -1.30052 1.9393 0
M  V30 568 C 56.6007 -1.49839 0.805132 0
M  V30 569 O 57.7857 -1.62328 1.06599 0
M  V30 570 C 54.9157 -2.65391 2.2402 0
M  V30 571 C 53.8697 -2.60289 3.39755 0
M  V30 572 C 53.1957 -3.99489 3.55405 0
M  V30 573 C 54.4957 -2.16654 4.75246 0
M  V30 574 H 56.1897 -0.983573 2.82783 0
M  V30 575 H 53.7357 -0.471701 1.36055 0
M  V30 576 H 55.6887 -3.3974 2.49308 0
M  V30 577 H 54.4127 -2.98736 1.32 0
M  V30 578 H 53.0717 -1.88398 3.14487 0
M  V30 579 H 52.7197 -4.30112 2.60793 0
M  V30 580 H 52.4197 -3.96962 4.33238 0
M  V30 581 H 53.9437 -4.75528 3.83022 0
M  V30 582 H 55.3577 -2.80737 4.99859 0
M  V30 583 H 53.7547 -2.25223 5.56232 0
M  V30 584 H 54.8247 -1.11835 4.71827 0
M  V30 585 N 56.1678 -1.49265 -0.50573 0
M  V30 586 C 57.0778 -1.68312 -1.63427 0
M  V30 587 C 58.0938 -0.565682 -1.64548 0
M  V30 588 O 59.2698 -0.839801 -1.83055 0
M  V30 589 C 56.3348 -1.74107 -2.99813 0
M  V30 590 C 55.3958 -2.97653 -3.09356 0
M  V30 591 C 54.6288 -3.03163 -4.39236 0
M  V30 592 O 54.8518 -2.16396 -5.27758 0
M  V30 593 O 53.7858 -3.9558 -4.53652 0
M  V30 594 H 57.6118 -2.63907 -1.50289 0
M  V30 595 H 55.1968 -1.32951 -0.681502 0
M  V30 596 H 57.0788 -1.803 -3.80881 0
M  V30 597 H 55.7538 -0.816901 -3.13223 0
M  V30 598 H 54.6608 -2.96981 -2.27493 0
M  V30 599 H 55.9938 -3.89535 -3.00871 0
M  V30 600 N 57.6459 0.756429 -1.3826 0
M  V30 601 C 58.8929 1.51547 -1.34312 0
M  V30 602 C 59.2209 1.94382 0.0677144 0
M  V30 603 O 58.4759 1.65514 1.04421 0
M  V30 604 C 58.7749 2.78313 -2.24224 0
M  V30 605 C 58.4409 2.54455 -3.72241 0
M  V30 606 C 57.1029 2.47657 -4.12576 0
M  V30 607 C 59.4549 2.3354 -4.65949 0
M  V30 608 C 56.7829 2.17956 -5.44713 0
M  V30 609 C 59.1349 2.05359 -5.9834 0
M  V30 610 C 57.7989 1.97016 -6.37762 0
M  V30 611 H 57.0689 0.55455 -0.491482 0
M  V30 612 H 59.7159 0.870039 -1.70595 0
M  V30 613 H 58.0209 3.47492 -1.80987 0
M  V30 614 H 59.7179 3.36259 -2.18474 0
M  V30 615 H 56.3079 2.60616 -3.40261 0
M  V30 616 H 60.4919 2.37772 -4.35635 0
M  V30 617 H 55.7479 2.10003 -5.74203 0
M  V30 618 H 59.9219 1.88179 -6.70494 0
M  V30 619 H 57.5489 1.73766 -7.40074 0
M  V30 620 N 59.124 1.23083 0.984299 0
M  V30 621 C 60.352 1.08714 1.76037 0
M  V30 622 C 60.767 -0.361691 1.85303 0
M  V30 623 O 60.124 -1.25034 1.32939 0
M  V30 624 C 60.175 1.70206 3.18923 0
M  V30 625 O 59.896 3.09423 3.10144 0
M  V30 626 C 61.397 1.61227 4.12941 0
M  V30 627 H 58.617 0.380664 0.552572 0
M  V30 628 H 61.161 1.62853 1.23689 0
M  V30 629 H 59.316 1.20109 3.6831 0
M  V30 630 H 59.73 3.39188 4.00065 0
M  V30 631 H 61.204 2.08962 5.10919 0
M  V30 632 H 61.681 0.570375 4.35481 0
M  V30 633 H 62.287 2.10671 3.69456 0
M  V30 634 N 60.6021 -1.18246 1.0419 0
M  V30 635 C 61.5491 -2.2192 0.634037 0
M  V30 636 C 62.5191 -1.62179 -0.358765 0
M  V30 637 O 63.7041 -1.89122 -0.252466 0
M  V30 638 C 60.8441 -3.451 0.00445535 0
M  V30 639 C 59.9571 -4.19174 1.04487 0
M  V30 640 C 59.0921 -5.29813 0.383676 0
M  V30 641 C 58.1311 -5.9566 1.4091 0
M  V30 642 N 57.2681 -6.97834 0.772784 0
M  V30 643 H 62.1081 -2.56164 1.52263 0
M  V30 644 H 59.6451 -1.25843 0.761701 0
M  V30 645 H 61.6031 -4.15485 -0.377919 0
M  V30 646 H 60.2331 -3.11472 -0.847652 0
M  V30 647 H 59.2851 -3.47604 1.54518 0
M  V30 648 H 60.5971 -4.64267 1.82368 0
M  V30 649 H 59.7511 -6.06677 -0.0528366 0
M  V30 650 H 58.4901 -4.85825 -0.427208 0
M  V30 651 H 57.4951 -5.17535 1.85574 0
M  V30 652 H 58.7201 -6.4173 2.22171 0
M  V30 653 H 56.6661 -6.55998 -0.0177708 0
M  V30 654 H 56.5831 -7.41186 1.48928 0
M  V30 655 H 57.8511 -7.78665 0.36071 0
M  V30 656 N 62.0802 -0.821533 -1.34494 0
M  V30 657 C 63.0102 -0.257138 -2.3208 0
M  V30 658 C 63.9912 0.625645 -1.58176 0
M  V30 659 O 65.1762 0.552811 -1.86166 0
M  V30 660 C 62.3062 0.582958 -3.42372 0
M  V30 661 C 61.2602 -0.202571 -4.2752 0
M  V30 662 C 60.5862 0.760179 -5.29269 0
M  V30 663 C 61.8862 -1.40998 -5.02908 0
M  V30 664 H 63.5802 -1.07247 -2.79532 0
M  V30 665 H 61.1262 -0.517163 -1.34393 0
M  V30 666 H 63.0792 0.987972 -4.09655 0
M  V30 667 H 61.8032 1.43133 -2.93565 0
M  V30 668 H 60.4622 -0.588936 -3.61838 0
M  V30 669 H 60.1102 1.60447 -4.76724 0
M  V30 670 H 59.8102 0.238809 -5.87115 0
M  V30 671 H 61.3342 1.16308 -5.9942 0
M  V30 672 H 62.7482 -1.07905 -5.63054 0
M  V30 673 H 61.1452 -1.86689 -5.70322 0
M  V30 674 H 62.2152 -2.1889 -4.32684 0
M  V30 675 N 63.5583 1.46682 -0.576371 0
M  V30 676 C 64.9693 1.86112 -0.148091 0
M  V30 677 C 65.3203 1.48073 1.2872 0
M  V30 678 O 64.4453 0.892656 1.97131 0
M  V30 679 C 65.0403 3.37786 -0.261982 0
M  V30 680 C 63.5993 3.76235 0.111384 0
M  V30 681 C 62.7463 2.70713 -0.60083 0
M  V30 682 H 65.6973 1.37927 -0.78497 0
M  V30 683 H 65.7183 3.77007 0.514364 0
M  V30 684 H 65.2303 3.6544 -1.30671 0
M  V30 685 H 63.3313 3.54198 1.15649 0
M  V30 686 H 63.4443 4.78391 -0.26052 0
M  V30 687 H 61.8083 2.54666 -0.0417783 0
M  V30 688 H 62.5913 3.01208 -1.64708 0
M  V30 689 N 65.0364 0.313813 1.54444 0
M  V30 690 C 65.9844 -0.572171 2.25453 0
M  V30 691 C 66.9784 -1.12657 1.2651 0
M  V30 692 O 68.1844 -1.07573 1.44319 0
M  V30 693 H 64.5594 -0.203146 0.724041 0
M  V30 694 H 66.5304 0.0491145 2.9836 0
M  V30 695 C 65.2794 -1.72626 3.0182 0
M  V30 696 H 64.6024 -1.30891 3.77767 0
M  V30 697 H 66.0424 -2.32199 3.54767 0
M  V30 698 C 64.5014 -2.63806 2.09542 0
M  V30 699 O 65.0314 -3.65256 1.67185 0
M  V30 700 N 63.2374 -2.31824 1.75232 0
M  V30 701 H 62.7844 -1.49368 2.09873 0
M  V30 702 H 62.7424 -2.93095 1.13767 0
M  V30 703 N 66.5145 -1.57545 0.0417849 0
M  V30 704 C 67.7625 -1.91937 -0.632829 0
M  V30 705 C 68.0835 -0.919978 -1.71934 0
M  V30 706 O 67.3535 0.0366064 -1.95866 0
M  V30 707 H 65.9335 -0.708493 -0.236742 0
M  V30 708 H 68.5955 -1.9468 0.0925745 0
M  V30 709 H 67.6915 -2.92912 -1.07746 0
M  V30 710 N 67.9926 0.231505 -1.5589 0
M  V30 711 C 68.9226 1.29022 -1.94617 0
M  V30 712 C 69.9036 1.4941 -0.813067 0
M  V30 713 O 71.0886 1.6176 -1.07459 0
M  V30 714 C 68.2186 2.64199 -2.25424 0
M  V30 715 C 67.1726 2.58484 -3.41131 0
M  V30 716 C 66.4986 3.97599 -3.57518 0
M  V30 717 C 67.7986 2.1413 -4.76388 0
M  V30 718 H 69.4926 0.968563 -2.83301 0
M  V30 719 H 67.0386 0.464479 -1.36303 0
M  V30 720 H 68.9916 3.38413 -2.51107 0
M  V30 721 H 67.7156 2.98032 -1.33583 0
M  V30 722 H 66.3746 1.86727 -3.15481 0
M  V30 723 H 66.0226 4.28723 -2.6307 0
M  V30 724 H 65.7226 3.94659 -4.35337 0
M  V30 725 H 67.2466 4.7349 -3.85538 0
M  V30 726 H 68.6606 2.78083 -5.01341 0
M  V30 727 H 67.0576 2.2227 -5.57419 0
M  V30 728 H 68.1276 1.09331 -4.72414 0
M  V30 729 N 69.4707 1.49531 0.497807 0
M  V30 730 C 70.7167 1.59415 1.25358 0
M  V30 731 C 71.0497 0.281422 1.9215 0
M  V30 732 O 70.3247 -0.715249 1.80871 0
M  V30 733 C 70.6077 2.75566 2.3181 0
M  V30 734 C 70.4607 4.16642 1.69498 0
M  V30 735 C 71.7797 2.87347 3.33346 0
M  V30 736 H 68.8987 0.580244 0.454408 0
M  V30 737 H 71.5407 1.81827 0.551262 0
M  V30 738 H 69.6907 2.56587 2.91711 0
M  V30 739 H 71.3627 4.47145 1.13399 0
M  V30 740 H 69.6057 4.22141 0.998978 0
M  V30 741 H 70.2767 4.93792 2.46725 0
M  V30 742 H 72.7527 3.04634 2.83438 0
M  V30 743 H 71.6287 3.70289 4.05188 0
M  V30 744 H 71.8897 1.96834 3.95865 0
M  V30 745 N 70.9488 -0.749086 1.3866 0
M  V30 746 C 72.1978 -1.50371 1.3443 0
M  V30 747 C 72.5108 -1.95503 -0.0616397 0
M  V30 748 O 73.7168 -2.70554 -0.226489 0
M  V30 749 C 72.1728 -2.71644 2.36088 0
M  V30 750 C 71.7808 -2.3352 3.82325 0
M  V30 751 C 73.5248 -3.49518 2.40909 0
M  V30 752 C 71.4318 -3.51431 4.75658 0
M  V30 753 H 70.3618 -0.564628 0.499712 0
M  V30 754 H 73.0128 -0.818449 1.64237 0
M  V30 755 H 71.3948 -3.42175 1.9933 0
M  V30 756 H 72.5688 -1.70627 4.28046 0
M  V30 757 H 70.8838 -1.6877 3.80665 0
M  V30 758 H 73.4808 -4.37197 3.07836 0
M  V30 759 H 73.8238 -3.90992 1.42937 0
M  V30 760 H 74.3568 -2.86005 2.76489 0
M  V30 761 H 71.0958 -3.15019 5.74842 0
M  V30 762 H 70.6158 -4.13352 4.34627 0
M  V30 763 H 72.2948 -4.17953 4.93887 0
M  V30 764 N 72.4269 -1.23603 -0.977757 0
M  V30 765 C 73.3899 -1.02069 -2.05218 0
M  V30 766 C 74.3899 0.0184305 -1.60789 0
M  V30 767 O 75.5799 -0.221569 -1.72785 0
M  V30 768 C 72.7119 -0.544926 -3.36517 0
M  V30 769 H 73.9049 -1.9742 -2.25755 0
M  V30 770 H 71.4579 -1.05684 -1.15155 0
M  V30 771 H 72.1929 0.412241 -3.21669 0
M  V30 772 H 71.9779 -1.2948 -3.70105 0
M  V30 773 H 73.4679 -0.414985 -4.15533 0
M  V30 774 N 73.905 1.17692 -1.04816 0
M  V30 775 C 75.13 1.92327 -0.776207 0
M  V30 776 C 75.555 1.76082 0.661581 0
M  V30 777 O 74.913 1.076 1.45917 0
M  V30 778 C 74.961 3.41539 -1.15687 0
M  V30 779 O 74.065 4.11402 -0.286775 0
M  V30 780 H 73.406 0.599735 -0.284981 0
M  V30 781 H 75.936 1.49201 -1.4 0
M  V30 782 H 75.946 3.92269 -1.12202 0
M  V30 783 H 74.621 3.52684 -2.20425 0
M  V30 784 H 73.198 3.70939 -0.381903 0
M  V30 785 N 75.3831 0.828654 1.34056 0
M  V30 786 C 76.3131 0.269443 2.3194 0
M  V30 787 C 77.2941 -0.617247 1.58506 0
M  V30 788 O 78.4791 -0.542931 1.86456 0
M  V30 789 C 75.6091 -0.564793 3.42677 0
M  V30 790 C 74.5631 0.225241 4.27407 0
M  V30 791 C 73.8891 -0.7321 5.29664 0
M  V30 792 C 75.1891 1.43663 5.02154 0
M  V30 793 H 76.8831 1.08728 2.7896 0
M  V30 794 H 74.4291 0.524283 1.34117 0
M  V30 795 H 76.3821 -0.966233 4.10173 0
M  V30 796 H 75.1061 -1.41574 2.9432 0
M  V30 797 H 73.7651 0.608117 3.61521 0
M  V30 798 H 73.4131 -1.57916 4.77568 0
M  V30 799 H 73.1131 -0.20767 5.87233 0
M  V30 800 H 74.6371 -1.13128 6.00029 0
M  V30 801 H 76.0511 1.1089 5.62473 0
M  V30 802 H 74.4481 1.89711 5.69324 0
M  V30 803 H 75.5181 2.21181 4.31517 0
M  V30 804 N 76.8612 -1.46375 0.584142 0
M  V30 805 C 77.7712 -2.34115 -0.150728 0
M  V30 806 C 78.7872 -1.49838 -0.884567 0
M  V30 807 O 79.9632 -1.82704 -0.847429 0
M  V30 808 C 77.0282 -3.2705 -1.15062 0
M  V30 809 C 76.0892 -4.27228 -0.421293 0
M  V30 810 C 75.3222 -5.15722 -1.37355 0
M  V30 811 O 75.5452 -5.07176 -2.61014 0
M  V30 812 O 74.4792 -5.95383 -0.883355 0
M  V30 813 H 78.3052 -2.98309 0.569708 0
M  V30 814 H 75.8902 -1.45373 0.344535 0
M  V30 815 H 77.7722 -3.84381 -1.72712 0
M  V30 816 H 76.4472 -2.65451 -1.8525 0
M  V30 817 H 75.3542 -3.7358 0.197085 0
M  V30 818 H 76.6872 -4.91616 0.239641 0
M  V30 819 N 78.3393 -0.321999 -1.54275 0
M  V30 820 C 79.2873 0.560206 -2.25753 0
M  V30 821 C 80.2813 1.11984 -1.27106 0
M  V30 822 O 81.4873 1.06806 -1.44888 0
M  V30 823 H 77.8623 0.199304 -0.725108 0
M  V30 824 H 79.8333 -0.0649365 -2.98329 0
M  V30 825 C 78.5823 1.71023 -3.02731 0
M  V30 826 H 77.9053 1.28885 -3.78456 0
M  V30 827 H 79.3453 2.30314 -3.55993 0
M  V30 828 C 77.8043 2.62692 -2.10938 0
M  V30 829 O 78.3343 3.64364 -1.6912 0
M  V30 830 N 76.5403 2.30891 -1.76459 0
M  V30 831 H 76.0873 1.48253 -2.10663 0
M  V30 832 H 76.0453 2.92487 -1.1532 0
M  V30 833 N 79.8174 1.5752 -0.0501392 0
M  V30 834 C 81.0474 1.96678 0.632573 0
M  V30 835 C 81.4554 0.926298 1.64974 0
M  V30 836 O 80.7984 -0.09802 1.83438 0
M  V30 837 C 80.8604 3.32068 1.37735 0
M  V30 838 C 80.5244 4.54076 0.516131 0
M  V30 839 C 81.5214 5.19445 -0.217357 0
M  V30 840 C 79.2064 5.00304 0.44736 0
M  V30 841 C 81.2004 6.29378 -1.00807 0
M  V30 842 C 78.8874 6.10114 -0.347038 0
M  V30 843 C 79.8854 6.74512 -1.07344 0
M  V30 844 O 79.5734 7.82211 -1.85477 0
M  V30 845 H 79.3054 0.652193 0.177821 0
M  V30 846 H 81.8594 2.05091 -0.112543 0
M  V30 847 H 80.0894 3.20206 2.16807 0
M  V30 848 H 81.7784 3.55981 1.95019 0
M  V30 849 H 82.5444 4.84689 -0.173688 0
M  V30 850 H 78.4234 4.49971 1.00235 0
M  V30 851 H 81.9674 6.79575 -1.57556 0
M  V30 852 H 77.8644 6.44307 -0.392349 0
M  V30 853 H 78.6324 7.98982 -1.77678 0
M  V30 854 N 81.2955 -0.223234 1.56011 0
M  V30 855 C 82.5205 -0.968978 1.83373 0
M  V30 856 C 82.9455 -1.77227 0.630254 0
M  V30 857 O 82.3035 -1.76345 -0.420959 0
M  V30 858 C 82.3515 -1.86363 3.08709 0
M  V30 859 O 81.4555 -2.95873 2.87285 0
M  V30 860 H 80.7965 -0.274461 0.604622 0
M  V30 861 H 83.3265 -0.237056 2.03222 0
M  V30 862 H 83.3365 -2.27376 3.38768 0
M  V30 863 H 82.0115 -1.27319 3.95933 0
M  V30 864 H 80.5885 -2.58818 2.68454 0
M  V30 865 N 82.7736 -1.49793 -0.48987 0
M  V30 866 C 84.1846 -1.52914 -1.07118 0
M  V30 867 C 84.5356 -0.321738 -1.93544 0
M  V30 868 O 83.6606 0.567338 -2.08831 0
M  V30 869 C 84.2556 -2.771 -1.94938 0
M  V30 870 C 82.8146 -2.82963 -2.48212 0
M  V30 871 C 81.9616 -2.46972 -1.26096 0
M  V30 872 H 84.9126 -1.56329 -0.273289 0
M  V30 873 H 84.9336 -2.57892 -2.79771 0
M  V30 874 H 84.4456 -3.64959 -1.32009 0
M  V30 875 H 82.5466 -1.99411 -3.14748 0
M  V30 876 H 82.6596 -3.85406 -2.84603 0
M  V30 877 H 81.0236 -1.98994 -1.58976 0
M  V30 878 H 81.8066 -3.37118 -0.648581 0
M  V30 879 N 84.2517 0.741722 -1.39055 0
M  V30 880 C 85.4977 1.50336 -1.36113 0
M  V30 881 C 85.8307 1.94148 0.0450796 0
M  V30 882 O 85.1057 1.66301 1.00868 0
M  V30 883 C 85.3887 2.74773 -2.32749 0
M  V30 884 C 85.2417 2.37023 -3.82283 0
M  V30 885 C 86.5607 3.76846 -2.27322 0
M  V30 886 H 83.6797 0.545351 -0.495743 0
M  V30 887 H 86.3217 0.848624 -1.69995 0
M  V30 888 H 84.4717 3.30639 -2.03986 0
M  V30 889 H 86.1437 1.8684 -4.21768 0
M  V30 890 H 84.3867 1.69334 -3.99385 0
M  V30 891 H 85.0577 3.26104 -4.45376 0
M  V30 892 H 87.5337 3.30548 -2.5274 0
M  V30 893 H 86.4097 4.6159 -2.97028 0
M  V30 894 H 86.6707 4.23286 -1.27599 0
M  V30 895 N 85.7298 1.2412 0.971189 0
M  V30 896 C 86.9548 1.10667 1.75407 0
M  V30 897 C 87.3798 -0.337048 1.85056 0
M  V30 898 O 86.7378 -1.24396 1.31892 0
M  V30 899 C 86.7858 1.74726 3.15441 0
M  V30 900 O 85.8898 1.01566 3.99697 0
M  V30 901 H 85.2308 0.387341 0.539317 0
M  V30 902 H 87.7608 1.64358 1.2185 0
M  V30 903 H 87.7708 1.80341 3.6598 0
M  V30 904 H 86.4458 2.79773 3.07734 0
M  V30 905 H 85.0228 1.03713 3.58187 0
M  V30 906 N 87.2079 -1.17134 1.05439 0
M  V30 907 C 88.6239 -1.39454 0.776201 0
M  V30 908 C 88.8239 -1.91454 -0.628307 0
M  V30 909 O 87.8799 -2.10777 -1.39031 0
M  V30 910 C 89.1929 -2.38305 1.83388 0
M  V30 911 C 90.7409 -2.52006 1.85639 0
M  V30 912 C 91.2159 -3.54133 2.90437 0
M  V30 913 N 92.7069 -3.61653 2.89415 0
M  V30 914 C 93.4419 -4.4044 3.67152 0
M  V30 915 N 92.9379 -5.22721 4.54681 0
M  V30 916 N 94.7309 -4.35337 3.55581 0
M  V30 917 H 86.8819 -0.817134 1.96053 0
M  V30 918 H 89.1449 -0.421626 0.849079 0
M  V30 919 H 88.8509 -2.07173 2.84204 0
M  V30 920 H 88.7249 -3.37841 1.67761 0
M  V30 921 H 91.1119 -2.82447 0.85486 0
M  V30 922 H 91.1929 -1.52537 2.05344 0
M  V30 923 H 90.8369 -3.24431 3.90777 0
M  V30 924 H 90.7669 -4.53313 2.67983 0
M  V30 925 H 93.2579 -3.02909 2.25952 0
M  V30 926 H 93.5709 -5.80027 5.10674 0
M  V30 927 H 91.9159 -5.22093 4.58741 0
M  V30 928 H 95.1069 -3.70112 2.86592 0
M  V30 929 H 95.2799 -4.96494 4.1641 0
M  V30 930 N 88.686 -0.835752 -1.33615 0
M  V30 931 C 89.935 -0.426289 -1.97144 0
M  V30 932 C 90.248 1.01912 -1.66953 0
M  V30 933 O 91.454 1.53311 -2.24072 0
M  V30 934 C 89.91 -0.711321 -3.52801 0
M  V30 935 C 89.518 -2.1712 -3.91871 0
M  V30 936 C 91.262 -0.368654 -4.22896 0
M  V30 937 C 89.169 -2.40044 -5.40493 0
M  V30 938 H 88.099 -0.15567 -0.737755 0
M  V30 939 H 90.75 -1.0239 -1.52278 0
M  V30 940 H 89.132 -0.0433766 -3.95976 0
M  V30 941 H 90.306 -2.87936 -3.59763 0
M  V30 942 H 88.621 -2.47654 -3.34749 0
M  V30 943 H 91.218 -0.517601 -5.32189 0
M  V30 944 H 91.561 0.688078 -4.10574 0
M  V30 945 H 92.094 -0.991702 -3.8524 0
M  V30 946 H 88.833 -3.44271 -5.57815 0
M  V30 947 H 88.353 -1.73785 -5.74072 0
M  V30 948 H 90.032 -2.23042 -6.0734 0
M  V30 949 N 90.1641 1.46063 -0.591896 0
M  V30 950 C 91.4121 2.01938 -0.0808391 0
M  V30 951 C 91.7331 1.46475 1.28725 0
M  V30 952 O 91.0031 0.652944 1.84698 0
M  V30 953 H 89.5831 0.746516 -0.0268938 0
M  V30 954 H 92.2451 1.79055 -0.769752 0
M  V30 955 H 91.3411 3.12094 -0.0187578 0
M  V30 956 N 91.6422 0.330177 1.54103 0
M  V30 957 C 92.5722 -0.525353 2.27513 0
M  V30 958 C 93.5532 -1.11383 1.2856 0
M  V30 959 O 94.7382 -1.13773 1.57383 0
M  V30 960 C 91.8682 -1.6831 3.03791 0
M  V30 961 C 90.8222 -1.2236 4.10137 0
M  V30 962 C 90.1482 -2.46882 4.74293 0
M  V30 963 C 91.4482 -0.333697 5.21233 0
M  V30 964 H 93.1422 0.087013 2.99274 0
M  V30 965 H 90.6882 0.0432893 1.43935 0
M  V30 966 H 92.6412 -2.28795 3.5388 0
M  V30 967 H 91.3652 -2.32216 2.29659 0
M  V30 968 H 90.0242 -0.64165 3.60941 0
M  V30 969 H 89.6722 -3.09165 3.96769 0
M  V30 970 H 89.3722 -2.16825 5.46133 0
M  V30 971 H 90.8962 -3.08117 5.27159 0
M  V30 972 H 92.3102 -0.845013 5.67038 0
M  V30 973 H 90.7072 -0.125612 5.99969 0
M  V30 974 H 91.7772 0.633724 4.80741 0
M  V30 975 N 93.1203 -1.57491 0.0584922 0
M  V30 976 C 94.3673 -1.92978 -0.613648 0
M  V30 977 C 94.6953 -0.937461 -1.70417 0
M  V30 978 O 93.9503 0.049078 -1.95638 0
M  V30 979 C 94.2493 -3.3513 -1.24188 0
M  V30 980 C 93.9153 -4.50037 -0.278826 0
M  V30 981 C 92.5773 -4.81198 -0.0138447 0
M  V30 982 C 94.9293 -5.19807 0.380777 0
M  V30 983 C 92.2573 -5.79473 0.918052 0
M  V30 984 C 94.6093 -6.19079 1.30091 0
M  V30 985 C 93.2733 -6.48665 1.57449 0
M  V30 986 H 92.5433 -0.706157 -0.22455 0
M  V30 987 H 95.1903 -1.91082 0.126533 0
M  V30 988 H 93.4953 -3.33429 -2.05749 0
M  V30 989 H 95.1923 -3.59871 -1.769 0
M  V30 990 H 91.7823 -4.25726 -0.495539 0
M  V30 991 H 95.9663 -4.95939 0.189158 0
M  V30 992 H 91.2223 -6.00727 1.1374 0
M  V30 993 H 95.3963 -6.7225 1.81804 0
M  V30 994 H 93.0233 -7.24628 2.29822 0
M  V30 995 N 94.5984 0.214957 -1.56127 0
M  V30 996 C 95.8474 0.936451 -1.78643 0
M  V30 997 C 96.1604 1.85237 -0.628229 0
M  V30 998 O 97.3664 2.613 -0.737186 0
M  V30 999 C 95.8224 1.7154 -3.16389 0
M  V30 1000 C 95.4304 0.845299 -4.39953 0
M  V30 1001 C 97.1744 2.42772 -3.48227 0
M  V30 1002 C 95.0814 1.62198 -5.68723 0
M  V30 1003 H 94.0114 0.353401 -0.666051 0
M  V30 1004 H 96.6624 0.190169 -1.82512 0
M  V30 1005 H 95.0444 2.50484 -3.06715 0
M  V30 1006 H 96.2184 0.0959353 -4.607 0
M  V30 1007 H 94.5334 0.244789 -4.1568 0
M  V30 1008 H 97.1304 3.01394 -4.41663 0
M  V30 1009 H 97.4734 3.15984 -2.71035 0
M  V30 1010 H 98.0064 1.70813 -3.5926 0
M  V30 1011 H 94.7454 0.933011 -6.48826 0
M  V30 1012 H 94.2654 2.34579 -5.52026 0
M  V30 1013 H 95.9444 2.18095 -6.09133 0
M  V30 1014 N 96.0765 1.50051 0.48192 0
M  V30 1015 C 97.0235 1.68122 1.58125 0
M  V30 1016 C 97.9935 0.522545 1.57666 0
M  V30 1017 O 99.1785 0.751844 1.75362 0
M  V30 1018 C 96.3185 1.77142 2.96167 0
M  V30 1019 C 95.4315 3.0444 3.06497 0
M  V30 1020 C 94.5665 3.04321 4.35387 0
M  V30 1021 C 93.6055 4.26118 4.3942 0
M  V30 1022 N 92.7425 4.238 5.59766 0
M  V30 1023 H 97.5825 2.6198 1.42022 0
M  V30 1024 H 95.1195 1.29877 0.690687 0
M  V30 1025 H 97.0775 1.80352 3.76203 0
M  V30 1026 H 95.7075 0.867329 3.1093 0
M  V30 1027 H 94.7595 3.10752 2.19402 0
M  V30 1028 H 96.0715 3.94426 3.05336 0
M  V30 1029 H 95.2255 3.062 5.23762 0
M  V30 1030 H 93.9645 2.12147 4.39141 0
M  V30 1031 H 92.9695 4.24463 3.49444 0
M  V30 1032 H 94.1945 5.19507 4.37366 0
M  V30 1033 H 92.1405 3.34474 5.64326 0
M  V30 1034 H 92.0575 5.07542 5.60301 0
M  V30 1035 H 93.3255 4.2981 6.50295 0
M  V30 1036 N 97.5546 -0.734337 1.39446 0
M  V30 1037 C 98.5176 -1.83004 1.37994 0
M  V30 1038 C 99.5176 -1.58397 0.276938 0
M  V30 1039 O 100.708 -1.65785 0.534875 0
M  V30 1040 C 97.8396 -3.20802 1.1532 0
M  V30 1041 H 99.0326 -1.85694 2.35494 0
M  V30 1042 H 96.5856 -0.938059 1.25021 0
M  V30 1043 H 97.3206 -3.23772 0.185036 0
M  V30 1044 H 97.1056 -3.4006 1.95197 0
M  V30 1045 H 98.5956 -4.00862 1.17046 0
M  V30 1046 N 99.0327 -1.24633 -0.964593 0
M  V30 1047 C 100.281 -1.08573 -1.70459 0
M  V30 1048 C 100.602 0.375655 -1.91347 0
M  V30 1049 O 99.8717 1.26779 -1.49345 0
M  V30 1050 H 98.4517 -0.398784 -0.631649 0
M  V30 1051 H 101.114 -1.56601 -1.16026 0
M  V30 1052 H 100.21 -1.58623 -2.68785 0
M  V30 1053 N 100.511 1.16574 -1.06058 0
M  V30 1054 C 101.736 1.91493 -0.796562 0
M  V30 1055 C 102.161 1.76773 0.642868 0
M  V30 1056 O 101.519 1.09142 1.44768 0
M  V30 1057 C 101.567 3.40293 -1.19303 0
M  V30 1058 O 100.671 4.11074 -0.330394 0
M  V30 1059 H 100.012 0.596678 -0.291326 0
M  V30 1060 H 102.542 1.47708 -1.41575 0
M  V30 1061 H 102.552 3.91057 -1.16356 0
M  V30 1062 H 101.227 3.50326 -2.24153 0
M  V30 1063 H 99.8038 3.70513 -0.421225 0
M  V30 1064 N 101.989 0.842826 1.3317 0
M  V30 1065 C 103.405 0.531128 1.50503 0
M  V30 1066 C 103.605 -0.940734 1.78192 0
M  V30 1067 O 102.661 -1.72436 1.84451 0
M  V30 1068 C 103.974 1.40789 2.65705 0
M  V30 1069 C 105.522 1.40708 2.79589 0
M  V30 1070 C 105.997 2.26878 3.97857 0
M  V30 1071 N 107.488 2.24609 4.05099 0
M  V30 1072 C 108.223 2.88019 4.95815 0
M  V30 1073 N 107.719 3.60496 5.9162 0
M  V30 1074 N 109.512 2.77469 4.88843 0
M  V30 1075 H 101.663 1.79557 1.1346 0
M  V30 1076 H 103.926 0.766267 0.558156 0
M  V30 1077 H 103.632 2.454 2.51936 0
M  V30 1078 H 103.506 1.08677 3.61205 0
M  V30 1079 H 105.893 0.368668 2.92788 0
M  V30 1080 H 105.974 1.76829 1.84838 0
M  V30 1081 H 105.618 3.3078 3.85418 0
M  V30 1082 H 105.548 1.88096 4.91861 0
M  V30 1083 H 108.039 1.71906 3.36536 0
M  V30 1084 H 108.352 4.06076 6.57512 0
M  V30 1085 H 106.697 3.64604 5.91683 0
M  V30 1086 H 109.888 2.20406 4.12963 0
M  V30 1087 H 110.061 3.2717 5.59342 0
M  V30 1088 N 103.467 -1.45747 0.599634 0
M  V30 1089 C 104.697 -2.06369 0.0977132 0
M  V30 1090 C 105.105 -1.44624 -1.21985 0
M  V30 1091 O 104.448 -0.551831 -1.75216 0
M  V30 1092 C 104.51 -3.59284 -0.124673 0
M  V30 1093 C 104.174 -4.43318 1.10987 0
M  V30 1094 C 105.171 -4.78796 2.02609 0
M  V30 1095 C 102.856 -4.84194 1.33647 0
M  V30 1096 C 104.85 -5.53997 3.15224 0
M  V30 1097 C 102.537 -5.5915 2.46565 0
M  V30 1098 C 103.535 -5.93968 3.37182 0
M  V30 1099 O 103.223 -6.67405 4.48136 0
M  V30 1100 H 102.955 -0.673122 0.0623153 0
M  V30 1101 H 105.509 -1.88104 0.824981 0
M  V30 1102 H 103.739 -3.75919 -0.906745 0
M  V30 1103 H 105.428 -4.01775 -0.577201 0
M  V30 1104 H 106.194 -4.47781 1.86325 0
M  V30 1105 H 102.073 -4.56534 0.64016 0
M  V30 1106 H 105.617 -5.81091 3.85978 0
M  V30 1107 H 101.514 -5.89579 2.62805 0
M  V30 1108 H 102.282 -6.85847 4.46717 0
M  V30 1109 N 104.945 -0.338344 -1.53925 0
M  V30 1110 C 105.855 0.529421 -2.28548 0
M  V30 1111 C 106.871 1.11645 -1.3346 0
M  V30 1112 O 108.047 1.13325 -1.66492 0
M  V30 1113 C 105.112 1.66713 -3.03987 0
M  V30 1114 C 104.173 1.11041 -4.14691 0
M  V30 1115 C 103.406 2.19389 -4.86522 0
M  V30 1116 O 103.629 3.40013 -4.57982 0
M  V30 1117 O 102.563 1.83976 -5.73094 0
M  V30 1118 H 106.389 -0.0770399 -3.03602 0
M  V30 1119 H 103.974 -0.103555 -1.49041 0
M  V30 1120 H 105.856 2.32918 -3.5118 0
M  V30 1121 H 104.531 2.25949 -2.31794 0
M  V30 1122 H 103.438 0.413024 -3.71813 0
M  V30 1123 H 104.771 0.562975 -4.8897 0
M  V30 1124 N 106.423 1.57458 -0.0668435 0
M  V30 1125 C 107.7 1.8469 0.644132 0
M  V30 1126 C 108.08 0.958343 1.88093 0
M  V30 1127 O 107.428 0.0233579 2.28488 0
M  V30 1128 C 107.638 3.34767 0.986509 0
M  V30 1129 C 108.986 4.02159 1.36212 0
M  V30 1130 O 110.01 3.39484 1.07839 0
M  V30 1131 O 108.869 5.12694 1.89227 0
M  V30 1132 H 105.963 0.762816 0.319437 0
M  V30 1133 H 108.509 1.6942 -0.0973986 0
M  V30 1134 H 107.281 3.91151 0.107883 0
M  V30 1135 H 106.904 3.55281 1.78497 0
M  V30 1136 N 107.901 -0.206675 1.56239 0
M  V30 1137 C 109.148 -0.928842 1.79941 0
M  V30 1138 C 109.476 -1.83734 0.638131 0
M  V30 1139 O 108.731 -1.92039 -0.376746 0
M  V30 1140 C 109.03 -1.78675 3.09532 0
M  V30 1141 C 108.696 -1.03022 4.38973 0
M  V30 1142 C 107.358 -0.821302 4.74139 0
M  V30 1143 C 109.71 -0.497081 5.18824 0
M  V30 1144 C 107.038 -0.0675719 5.86661 0
M  V30 1145 C 109.39 0.24338 6.32132 0
M  V30 1146 C 108.054 0.463422 6.65889 0
M  V30 1147 H 107.324 -0.339887 0.658451 0
M  V30 1148 H 109.971 -0.195977 1.90495 0
M  V30 1149 H 108.276 -2.58794 2.94165 0
M  V30 1150 H 109.973 -2.34792 3.25075 0
M  V30 1151 H 106.563 -1.20306 4.11369 0
M  V30 1152 H 110.747 -0.645921 4.92079 0
M  V30 1153 H 106.003 0.112995 6.11296 0
M  V30 1154 H 110.177 0.66393 6.93228 0
M  V30 1155 H 107.804 1.04938 7.52922 0
M  V30 1156 N 109.379 -1.50304 -0.473955 0
M  V30 1157 C 110.604 -1.65175 -1.25427 0
M  V30 1158 C 111.029 -0.333673 -1.85117 0
M  V30 1159 O 110.387 0.702114 -1.67153 0
M  V30 1160 C 110.435 -2.74295 -2.34082 0
M  V30 1161 O 109.539 -2.35349 -3.38651 0
M  V30 1162 H 108.88 -0.551944 -0.369126 0
M  V30 1163 H 111.41 -1.96662 -0.564364 0
M  V30 1164 H 111.42 -2.97285 -2.79438 0
M  V30 1165 H 110.095 -3.69959 -1.90008 0
M  V30 1166 H 108.672 -2.22794 -2.99027 0
M  V30 1167 N 110.857 0.726932 -1.39834 0
M  V30 1168 C 111.805 1.86235 -1.39353 0
M  V30 1169 C 112.799 1.67144 -0.275555 0
M  V30 1170 O 114.005 1.74387 -0.44601 0
M  V30 1171 H 110.38 0.613174 -0.43534 0
M  V30 1172 H 112.351 1.83756 -2.35109 0
M  V30 1173 C 111.1 3.23995 -1.26185 0
M  V30 1174 H 110.423 3.39285 -2.11484 0
M  V30 1175 H 111.863 4.03609 -1.29907 0
M  V30 1176 C 110.322 3.36888 0.0290018 0
M  V30 1177 O 110.852 3.89152 0.99619 0
M  V30 1178 N 109.058 2.90446 0.0947437 0
M  V30 1179 H 108.605 2.48102 -0.693035 0
M  V30 1180 H 108.563 2.99451 0.957932 0
M  V30 1181 N 112.336 1.25143 0.95797 0
M  V30 1182 C 113.266 1.07711 2.07173 0
M  V30 1183 C 114.247 -0.0128462 1.70095 0
M  V30 1184 O 115.432 0.156061 1.93572 0
M  V30 1185 C 112.562 0.691503 3.40346 0
M  V30 1186 C 111.516 1.73132 3.9142 0
M  V30 1187 C 110.842 1.20049 5.21049 0
M  V30 1188 C 112.142 3.1294 4.1817 0
M  V30 1189 H 113.836 2.00873 2.22014 0
M  V30 1190 H 111.382 0.967191 1.06684 0
M  V30 1191 H 113.335 0.556505 4.17709 0
M  V30 1192 H 112.059 -0.275819 3.25433 0
M  V30 1193 H 110.718 1.8547 3.16222 0
M  V30 1194 H 110.366 0.223499 5.02503 0
M  V30 1195 H 110.066 1.89545 5.56189 0
M  V30 1196 H 111.59 1.07782 6.01012 0
M  V30 1197 H 113.004 3.03775 4.86203 0
M  V30 1198 H 111.401 3.79875 4.64559 0
M  V30 1199 H 112.471 3.6025 3.24573 0
M  V30 1200 N 113.814 -1.1601 1.06675 0
M  V30 1201 C 115.062 -1.86264 0.784229 0
M  V30 1202 C 115.383 -1.82328 -0.691488 0
M  V30 1203 O 114.653 -1.25947 -1.50047 0
M  V30 1204 H 113.233 -0.689621 0.28711 0
M  V30 1205 H 115.895 -1.40664 1.34906 0
M  V30 1206 H 114.991 -2.91595 1.11259 0
M  V30 1207 N 115.292 -0.849877 -1.32721 0
M  V30 1208 C 116.52 -0.464754 -2.01613 0
M  V30 1209 C 116.935 0.937191 -1.63897 0
M  V30 1210 O 116.292 1.61081 -0.857856 0
M  V30 1211 C 116.343 -0.588638 -3.56675 0
M  V30 1212 O 116.064 -1.93535 -3.93034 0
M  V30 1213 C 117.565 -0.2019 -4.4284 0
M  V30 1214 H 114.785 -0.183215 -0.645502 0
M  V30 1215 H 117.329 -1.1455 -1.69407 0
M  V30 1216 H 115.484 0.0443159 -3.87375 0
M  V30 1217 H 115.898 -1.92871 -4.87751 0
M  V30 1218 H 117.372 -0.339599 -5.50954 0
M  V30 1219 H 117.849 0.857224 -4.30753 0
M  V30 1220 H 118.455 -0.809733 -4.17521 0
M  V30 1221 N 116.77 1.45427 -0.607355 0
M  V30 1222 C 117.998 2.06614 -0.108814 0
M  V30 1223 C 118.413 1.45204 1.2067 0
M  V30 1224 O 117.77 0.566132 1.73497 0
M  V30 1225 C 117.821 3.61481 0.0375347 0
M  V30 1226 O 117.542 4.20598 -1.22593 0
M  V30 1227 C 119.043 4.39652 0.567561 0
M  V30 1228 H 116.263 0.66747 -0.0687351 0
M  V30 1229 H 118.807 1.86675 -0.835022 0
M  V30 1230 H 116.962 3.80762 0.714068 0
M  V30 1231 H 117.376 5.1377 -1.05547 0
M  V30 1232 H 118.85 5.48518 0.61905 0
M  V30 1233 H 119.327 4.09417 1.58978 0
M  V30 1234 H 119.933 4.25234 -0.0749202 0
M  V30 1235 N 118.248 0.346503 1.53744 0
M  V30 1236 C 119.198 -0.524953 2.21874 0
M  V30 1237 C 120.182 -1.06376 1.20718 0
M  V30 1238 O 121.374 -0.996972 1.46251 0
M  V30 1239 C 118.503 -1.6739 2.99726 0
M  V30 1240 C 117.589 -1.14888 4.08242 0
M  V30 1241 N 117.98 -0.345329 5.0462 0
M  V30 1242 C 116.278 -1.4255 4.22606 0
M  V30 1243 C 116.979 -0.0600706 5.81669 0
M  V30 1244 N 115.955 -0.65252 5.39669 0
M  V30 1245 H 119.757 0.0960091 2.93743 0
M  V30 1246 H 117.271 0.15352 1.61673 0
M  V30 1247 H 119.268 -2.3102 3.47038 0
M  V30 1248 H 117.928 -2.29811 2.29384 0
M  V30 1249 H 118.939 0.0138439 5.17898 0
M  V30 1250 H 115.616 -2.05389 3.63486 0
M  V30 1251 H 117.006 0.588321 6.69319 0
M  V30 1252 N 119.726 -1.57421 0.075193 0
M  V30 1253 C 120.656 -2.15942 -0.888324 0
M  V30 1254 C 121.637 -1.08737 -1.30806 0
M  V30 1255 O 122.822 -1.36787 -1.37851 0
M  V30 1256 C 119.952 -2.72379 -2.1547 0
M  V30 1257 C 118.906 -3.8478 -1.87425 0
M  V30 1258 C 118.232 -4.27834 -3.20721 0
M  V30 1259 C 119.532 -5.08869 -1.17684 0
M  V30 1260 H 121.226 -2.96705 -0.400799 0
M  V30 1261 H 118.772 -1.42723 -0.191342 0
M  V30 1262 H 120.725 -3.11965 -2.83295 0
M  V30 1263 H 119.449 -1.88841 -2.6647 0
M  V30 1264 H 118.108 -3.45703 -1.22004 0
M  V30 1265 H 117.756 -3.41214 -3.6957 0
M  V30 1266 H 117.456 -5.03605 -3.02746 0
M  V30 1267 H 118.98 -4.70039 -3.89738 0
M  V30 1268 H 120.394 -5.4575 -1.75584 0
M  V30 1269 H 118.791 -5.8994 -1.09956 0
M  V30 1270 H 119.861 -4.84648 -0.156453 0
M  V30 1271 N 121.204 0.198386 -1.56346 0
M  V30 1272 C 122.134 1.24865 -1.9731 0
M  V30 1273 C 123.115 1.47651 -0.844576 0
M  V30 1274 O 124.3 1.59444 -1.10866 0
M  V30 1275 C 121.43 2.59358 -2.30977 0
M  V30 1276 C 120.384 2.5119 -3.46537 0
M  V30 1277 C 119.71 3.89926 -3.65871 0
M  V30 1278 C 121.01 2.03977 -4.80823 0
M  V30 1279 H 122.704 0.908252 -2.85291 0
M  V30 1280 H 120.25 0.435462 -1.37258 0
M  V30 1281 H 122.203 3.33011 -2.58228 0
M  V30 1282 H 120.927 2.95132 -1.39874 0
M  V30 1283 H 119.586 1.79993 -3.19371 0
M  V30 1284 H 119.234 4.23046 -2.72105 0
M  V30 1285 H 118.934 3.85336 -4.4361 0
M  V30 1286 H 120.458 4.65205 -3.95495 0
M  V30 1287 H 121.872 2.67386 -5.07127 0
M  V30 1288 H 120.269 2.10397 -5.62008 0
M  V30 1289 H 121.339 0.992861 -4.74626 0
M  V30 1290 N 122.682 1.50554 0.465978 0
M  V30 1291 C 124.098 1.38093 0.800154 0
M  V30 1292 C 124.298 0.440988 1.96615 0
M  V30 1293 O 123.354 -0.114499 2.5224 0
M  V30 1294 C 124.667 2.79565 1.10742 0
M  V30 1295 C 126.215 2.88516 1.21357 0
M  V30 1296 C 126.69 4.30833 1.55393 0
M  V30 1297 N 128.181 4.33807 1.62375 0
M  V30 1298 C 128.916 5.40927 1.90225 0
M  V30 1299 N 128.412 6.58247 2.16062 0
M  V30 1300 N 130.205 5.28376 1.9177 0
M  V30 1301 H 122.356 2.10237 -0.302366 0
M  V30 1302 H 124.619 0.945203 -0.0727746 0
M  V30 1303 H 124.325 3.50208 0.323661 0
M  V30 1304 H 124.199 3.17125 2.04234 0
M  V30 1305 H 126.586 2.1809 1.98799 0
M  V30 1306 H 126.667 2.54492 0.258321 0
M  V30 1307 H 126.311 5.01799 0.784889 0
M  V30 1308 H 126.241 4.62347 2.52076 0
M  V30 1309 H 128.732 3.49212 1.44427 0
M  V30 1310 H 129.045 7.3569 2.36601 0
M  V30 1311 H 127.39 6.61413 2.13444 0
M  V30 1312 H 130.581 4.35715 1.71085 0
M  V30 1313 H 130.754 6.11944 2.13139 0
M  V30 1314 N 124.16 -0.719506 1.40217 0
M  V30 1315 C 125.09 -1.8465 1.42922 0
M  V30 1316 C 126.071 -1.67599 0.29062 0
M  V30 1317 O 127.256 -1.87688 0.498677 0
M  V30 1318 C 124.386 -3.22565 1.28722 0
M  V30 1319 C 123.34 -3.54281 2.40144 0
M  V30 1320 C 122.666 -4.91298 2.11023 0
M  V30 1321 C 123.966 -3.55676 3.82481 0
M  V30 1322 H 125.66 -1.82644 2.37237 0
M  V30 1323 H 123.206 -0.877305 1.1419 0
M  V30 1324 H 125.159 -4.01095 1.29232 0
M  V30 1325 H 123.883 -3.25137 0.308811 0
M  V30 1326 H 122.542 -2.78088 2.38877 0
M  V30 1327 H 122.19 -4.90468 1.11582 0
M  V30 1328 H 121.89 -5.13485 2.8567 0
M  V30 1329 H 123.414 -5.72166 2.13209 0
M  V30 1330 H 124.828 -4.24254 3.85592 0
M  V30 1331 H 123.225 -3.89388 4.56614 0
M  V30 1332 H 124.295 -2.55144 4.12346 0
M  V30 1333 N 125.638 -1.25649 -0.95132 0
M  V30 1334 C 126.866 -1.13343 -1.73092 0
M  V30 1335 C 127.281 0.312434 -1.86197 0
M  V30 1336 O 126.638 1.21465 -1.36207 0
M  V30 1337 C 126.689 -1.78602 -3.14299 0
M  V30 1338 O 126.41 -3.17537 -3.01831 0
M  V30 1339 C 127.911 -1.72119 -4.08522 0
M  V30 1340 H 125.131 -0.395181 -0.542285 0
M  V30 1341 H 127.675 -1.66076 -1.19328 0
M  V30 1342 H 125.83 -1.29832 -3.64996 0
M  V30 1343 H 126.244 -3.49676 -3.90931 0
M  V30 1344 H 127.718 -2.22435 -5.052 0
M  V30 1345 H 128.195 -0.685635 -4.33815 0
M  V30 1346 H 128.801 -2.20393 -3.63741 0
M  V30 1347 N 127.117 1.15442 -1.07289 0
M  V30 1348 C 128.342 1.90638 -0.816828 0
M  V30 1349 C 128.767 1.77445 0.624083 0
M  V30 1350 O 128.125 1.10671 1.43602 0
M  V30 1351 C 128.173 3.39008 -1.22906 0
M  V30 1352 O 127.277 4.10701 -0.373975 0
M  V30 1353 H 126.618 0.593555 -0.297638 0
M  V30 1354 H 129.148 1.46198 -1.43134 0
M  V30 1355 H 129.158 3.89801 -1.20497 0
M  V30 1356 H 127.833 3.47929 -2.27856 0
M  V30 1357 H 126.41 3.70046 -0.460499 0
M  V30 1358 N 128.595 0.856903 1.32268 0
M  V30 1359 C 129.82 0.474569 2.01897 0
M  V30 1360 C 130.245 -0.921766 1.63967 0
M  V30 1361 O 129.603 -1.60589 0.84148 0
M  V30 1362 C 129.651 0.623799 3.55164 0
M  V30 1363 O 128.755 -0.342459 4.10976 0
M  V30 1364 H 128.096 0.190422 0.63611 0
M  V30 1365 H 130.626 1.15672 1.68764 0
M  V30 1366 H 130.636 0.512169 4.04773 0
M  V30 1367 H 129.311 1.64202 3.82113 0
M  V30 1368 H 127.888 -0.18688 3.72431 0
M  V30 1369 N 130.073 -1.45103 0.615059 0
M  V30 1370 C 131.003 -2.33339 -0.0865619 0
M  V30 1371 C 131.984 -1.4727 -0.851209 0
M  V30 1372 O 133.169 -1.76026 -0.820281 0
M  V30 1373 C 130.299 -3.30095 -1.07956 0
M  V30 1374 C 129.253 -4.25858 -0.427628 0
M  V30 1375 C 128.579 -5.12361 -1.5294 0
M  V30 1376 C 129.879 -5.18165 0.655944 0
M  V30 1377 H 131.573 -2.92254 0.650224 0
M  V30 1378 H 129.119 -1.40532 0.314138 0
M  V30 1379 H 131.072 -3.90698 -1.57901 0
M  V30 1380 H 129.796 -2.69355 -1.84703 0
M  V30 1381 H 128.455 -3.66564 0.0510292 0
M  V30 1382 H 128.103 -4.47984 -2.28734 0
M  V30 1383 H 127.803 -5.77238 -1.09865 0
M  V30 1384 H 129.327 -5.75833 -2.03098 0
M  V30 1385 H 130.741 -5.72796 0.240257 0
M  V30 1386 H 129.138 -5.91559 1.00888 0
M  V30 1387 H 130.208 -4.60144 1.52957 0
M  V30 1388 N 131.551 -0.354651 -1.53558 0
M  V30 1389 C 132.779 0.239515 -2.05509 0
M  V30 1390 C 133.194 1.4333 -1.2289 0
M  V30 1391 O 132.551 1.80538 -0.266899 0
M  V30 1392 C 132.602 0.643719 -3.55723 0
M  V30 1393 O 132.323 -0.502602 -4.35207 0
M  V30 1394 C 133.824 1.29743 -4.23889 0
M  V30 1395 H 131.044 0.0442697 -0.669538 0
M  V30 1396 H 133.588 -0.509856 -1.98042 0
M  V30 1397 H 131.743 1.34302 -3.63376 0
M  V30 1398 H 132.157 -0.178172 -5.24197 0
M  V30 1399 H 133.631 1.53091 -5.30346 0
M  V30 1400 H 134.108 2.25441 -3.76926 0
M  V30 1401 H 134.714 0.639865 -4.20459 0
M  V30 1402 N 133.029 1.57378 -0.0835403 0
M  V30 1403 C 134.257 1.98263 0.59157 0
M  V30 1404 C 134.672 0.962302 1.62435 0
M  V30 1405 O 134.029 -0.049581 1.82433 0
M  V30 1406 C 134.08 3.39214 1.24965 0
M  V30 1407 O 133.801 4.37339 0.258186 0
M  V30 1408 C 135.302 3.95038 2.01147 0
M  V30 1409 H 132.522 0.651773 0.159477 0
M  V30 1410 H 135.066 2.03878 -0.159415 0
M  V30 1411 H 133.221 3.34649 1.95164 0
M  V30 1412 H 133.635 5.19371 0.731734 0
M  V30 1413 H 135.109 4.95848 2.42567 0
M  V30 1414 H 135.586 3.32222 2.87272 0
M  V30 1415 H 136.192 4.0304 1.35789 0
M  V30 1416 N 134.507 -0.190092 1.56449 0
M  V30 1417 C 135.454 -1.23557 1.94942 0
M  V30 1418 C 136.424 -1.44972 0.810696 0
M  V30 1419 O 137.609 -1.58023 1.06927 0
M  V30 1420 C 134.749 -2.57416 2.2985 0
M  V30 1421 C 133.862 -2.43537 3.5681 0
M  V30 1422 C 132.997 -3.70134 3.81017 0
M  V30 1423 C 132.036 -3.51109 5.01387 0
M  V30 1424 N 131.173 -4.6973 5.21822 0
M  V30 1425 H 136.013 -0.900304 2.84075 0
M  V30 1426 H 133.55 -0.43318 1.40577 0
M  V30 1427 H 135.508 -3.35409 2.48106 0
M  V30 1428 H 134.138 -2.88975 1.43852 0
M  V30 1429 H 133.19 -1.56816 3.46573 0
M  V30 1430 H 134.502 -2.25415 4.4496 0
M  V30 1431 H 133.656 -4.56566 3.9954 0
M  V30 1432 H 132.395 -3.91215 2.91207 0
M  V30 1433 H 131.4 -2.63063 4.82782 0
M  V30 1434 H 132.625 -3.31468 5.9271 0
M  V30 1435 H 130.571 -4.91065 4.34961 0
M  V30 1436 H 130.488 -4.54452 6.0416 0
M  V30 1437 H 131.756 -5.57499 5.44808 0
M  V30 1438 N 135.985 -1.50799 -0.457987 0
M  V30 1439 C 137.233 -1.62121 -1.2067 0
M  V30 1440 C 137.554 -0.329793 -1.92191 0
M  V30 1441 O 136.824 0.653409 -1.84682 0
M  V30 1442 H 135.404 -0.597441 -0.448411 0
M  V30 1443 H 138.066 -1.87637 -0.527096 0
M  V30 1444 H 137.162 -2.43882 -1.94751 0
M  V30 1445 N 137.463 0.71206 -1.40597 0
M  V30 1446 C 138.426 1.80785 -1.40888 0
M  V30 1447 C 139.426 1.57937 -0.302103 0
M  V30 1448 O 140.616 1.64913 -0.561182 0
M  V30 1449 C 137.748 3.18927 -1.20409 0
M  V30 1450 H 138.941 1.81924 -2.38419 0
M  V30 1451 H 136.494 0.91805 -1.26497 0
M  V30 1452 H 137.229 3.23436 -0.236522 0
M  V30 1453 H 137.014 3.36911 -2.00582 0
M  V30 1454 H 138.504 3.98949 -1.23408 0
M  V30 1455 N 138.941 1.26152 0.944643 0
M  V30 1456 C 140.166 1.14363 1.7302 0
M  V30 1457 C 140.591 -0.29772 1.85729 0
M  V30 1458 O 139.949 -1.2157 1.34501 0
M  V30 1459 C 139.997 1.81378 3.11664 0
M  V30 1460 O 139.101 1.10022 3.97453 0
M  V30 1461 H 138.442 0.398694 0.53098 0
M  V30 1462 H 140.972 1.66906 1.18337 0
M  V30 1463 H 140.982 1.88064 3.62072 0
M  V30 1464 H 139.657 2.86237 3.0173 0
M  V30 1465 H 138.234 1.11287 3.55907 0
M  V30 1466 N 140.419 -1.14872 1.07899 0
M  V30 1467 C 141.644 -1.90202 0.826926 0
M  V30 1468 C 142.069 -1.77774 -0.614664 0
M  V30 1469 O 141.427 -1.11431 -1.43013 0
M  V30 1470 C 141.475 -3.38352 1.24702 0
M  V30 1471 O 140.579 -4.10497 0.39575 0
M  V30 1472 H 139.92 -0.591968 0.300782 0
M  V30 1473 H 142.45 -1.45437 1.43907 0
M  V30 1474 H 142.46 -3.89156 1.22563 0
M  V30 1475 H 141.135 -3.46715 2.29698 0
M  V30 1476 H 139.712 -3.69796 0.480117 0
M  V30 1477 N 141.898 -0.863906 -1.31812 0
M  V30 1478 C 143.145 -0.471836 -1.96926 0
M  V30 1479 C 143.473 0.974578 -1.68322 0
M  V30 1480 O 142.728 1.7003 -0.968933 0
M  V30 1481 C 143.027 -0.668547 -3.51091 0
M  V30 1482 C 142.693 -2.08683 -3.99703 0
M  V30 1483 C 141.355 -2.47471 -4.12688 0
M  V30 1484 C 143.707 -3.01207 -4.25351 0
M  V30 1485 C 141.035 -3.78037 -4.4867 0
M  V30 1486 C 143.387 -4.31282 -4.62794 0
M  V30 1487 C 142.051 -4.69992 -4.73987 0
M  V30 1488 H 141.321 -0.172657 -0.720604 0
M  V30 1489 H 143.968 -1.09573 -1.57054 0
M  V30 1490 H 142.273 0.0385252 -3.91781 0
M  V30 1491 H 143.97 -0.345102 -3.99512 0
M  V30 1492 H 140.56 -1.77566 -3.90087 0
M  V30 1493 H 144.744 -2.72469 -4.14819 0
M  V30 1494 H 140 -4.078 -4.55532 0
M  V30 1495 H 144.174 -5.03031 -4.81594 0
M  V30 1496 H 141.801 -5.71207 -5.01624 0
M  V30 1497 N 143.376 1.44774 -0.622745 0
M  V30 1498 C 144.323 2.30635 0.0871679 0
M  V30 1499 C 145.293 1.42994 0.845097 0
M  V30 1500 O 146.478 1.71907 0.827812 0
M  V30 1501 C 143.618 3.28144 1.06844 0
M  V30 1502 C 142.731 4.30888 0.309809 0
M  V30 1503 C 141.866 5.15494 1.28215 0
M  V30 1504 C 140.905 6.09953 0.512198 0
M  V30 1505 N 140.042 6.87287 1.43458 0
M  V30 1506 H 144.882 2.90803 -0.650974 0
M  V30 1507 H 142.419 1.43286 -0.33281 0
M  V30 1508 H 144.377 3.83157 1.65066 0
M  V30 1509 H 143.007 2.69695 1.77382 0
M  V30 1510 H 142.059 3.78414 -0.388181 0
M  V30 1511 H 143.371 4.97955 -0.290254 0
M  V30 1512 H 142.525 5.74983 1.93596 0
M  V30 1513 H 141.264 4.48481 1.91614 0
M  V30 1514 H 140.269 5.49581 -0.155151 0
M  V30 1515 H 141.494 6.78999 -0.116958 0
M  V30 1516 H 139.44 6.2295 2.05594 0
M  V30 1517 H 139.357 7.50763 0.888335 0
M  V30 1518 H 140.625 7.51306 2.07749 0
M  V30 1519 N 144.854 0.36279 1.53368 0
M  V30 1520 C 146.103 -0.22888 2.00397 0
M  V30 1521 C 146.416 -1.50096 1.25421 0
M  V30 1522 O 147.622 -2.17106 1.63025 0
M  V30 1523 C 146.078 -0.458417 3.56969 0
M  V30 1524 C 145.686 0.798877 4.4082 0
M  V30 1525 C 147.43 -1.00789 4.12361 0
M  V30 1526 C 145.337 0.539078 5.88938 0
M  V30 1527 H 144.267 -0.089305 0.748693 0
M  V30 1528 H 146.918 0.481099 1.77081 0
M  V30 1529 H 145.3 -1.22959 3.76427 0
M  V30 1530 H 146.474 1.57262 4.33134 0
M  V30 1531 H 144.789 1.27137 3.96516 0
M  V30 1532 H 147.386 -1.21754 5.20653 0
M  V30 1533 H 147.729 -1.9692 3.66781 0
M  V30 1534 H 148.262 -0.296961 3.9669 0
M  V30 1535 H 145.001 1.47064 6.3879 0
M  V30 1536 H 144.521 -0.196222 5.99479 0
M  V30 1537 H 146.2 0.163542 6.46793 0
M  V30 1538 N 146.332 -1.57332 0.0918853 0
M  V30 1539 C 147.56 -1.98574 -0.581048 0
M  V30 1540 C 147.975 -0.970903 -1.61923 0
M  V30 1541 O 147.332 0.0399054 -1.82456 0
M  V30 1542 C 147.383 -3.39872 -1.23164 0
M  V30 1543 O 147.104 -4.37469 -0.234989 0
M  V30 1544 C 148.605 -3.96099 -1.99049 0
M  V30 1545 H 145.825 -0.65261 -0.156018 0
M  V30 1546 H 148.369 -2.0379 0.170225 0
M  V30 1547 H 146.524 -3.35679 -1.93386 0
M  V30 1548 H 146.938 -5.19751 -0.70418 0
M  V30 1549 H 148.412 -4.97127 -2.39934 0
M  V30 1550 H 148.889 -3.3374 -2.85507 0
M  V30 1551 H 149.495 -4.03755 -1.3365 0
M  V30 1552 N 147.81 0.181792 -1.56548 0
M  V30 1553 C 149.226 0.53316 -1.50431 0
M  V30 1554 C 149.426 1.85184 -0.794297 0
M  V30 1555 O 148.482 2.50058 -0.350318 0
M  V30 1556 C 149.795 0.575597 -2.9514 0
M  V30 1557 C 151.343 0.663519 -3.05886 0
M  V30 1558 C 151.818 0.736946 -4.52032 0
M  V30 1559 N 153.309 0.800118 -4.56237 0
M  V30 1560 C 154.044 0.877327 -5.66649 0
M  V30 1561 N 153.54 0.916016 -6.86718 0
M  V30 1562 N 155.333 0.915542 -5.54594 0
M  V30 1563 H 147.484 -0.683025 -2.01118 0
M  V30 1564 H 149.747 -0.244988 -0.915797 0
M  V30 1565 H 149.453 -0.324482 -3.502 0
M  V30 1566 H 149.327 1.42572 -3.49218 0
M  V30 1567 H 151.714 1.55403 -2.50867 0
M  V30 1568 H 151.795 -0.21307 -2.54911 0
M  V30 1569 H 151.439 -0.149262 -5.07681 0
M  V30 1570 H 151.369 1.62953 -5.00753 0
M  V30 1571 H 153.86 0.778926 -3.69785 0
M  V30 1572 H 154.173 0.975813 -7.66614 0
M  V30 1573 H 152.518 0.884469 -6.89349 0
M  V30 1574 H 155.709 0.882245 -4.59711 0
M  V30 1575 H 155.882 0.972253 -6.40665 0
M  V30 1576 N 149.288 1.51039 0.449983 0
M  V30 1577 C 150.536 1.62759 1.19808 0
M  V30 1578 C 150.857 0.339981 1.92013 0
M  V30 1579 O 150.127 -0.643606 1.85026 0
M  V30 1580 H 148.707 0.599811 0.445237 0
M  V30 1581 H 151.369 1.87914 0.517138 0
M  V30 1582 H 150.465 2.44911 1.93455 0
M  V30 1583 N 150.766 -0.704594 1.40972 0
M  V30 1584 C 152.015 -1.46018 1.39146 0
M  V30 1585 C 152.328 -1.956 0.000589254 0
M  V30 1586 O 153.534 -2.71137 -0.1403 0
M  V30 1587 C 151.99 -2.63996 2.4461 0
M  V30 1588 C 151.598 -2.21238 3.89561 0
M  V30 1589 C 153.342 -3.41677 2.51907 0
M  V30 1590 C 151.249 -3.3612 4.86598 0
M  V30 1591 H 150.179 -0.548444 0.517422 0
M  V30 1592 H 152.83 -0.765784 1.66757 0
M  V30 1593 H 151.212 -3.3566 2.10115 0
M  V30 1594 H 152.386 -1.56923 4.33257 0
M  V30 1595 H 150.701 -1.56574 3.85841 0
M  V30 1596 H 153.298 -4.27182 3.2159 0
M  V30 1597 H 153.641 -3.86247 1.55303 0
M  V30 1598 H 154.174 -2.77064 2.85448 0
M  V30 1599 H 150.913 -2.96572 5.84573 0
M  V30 1600 H 150.433 -3.99315 4.47557 0
M  V30 1601 H 152.112 -4.02029 5.06934 0
M  V30 1602 N 152.244 -1.26651 -0.937939 0
M  V30 1603 C 153.154 -1.10276 -2.07066 0
M  V30 1604 C 154.17 -0.0354197 -1.73964 0
M  V30 1605 O 155.346 -0.239816 -1.99967 0
M  V30 1606 C 152.411 -0.740887 -3.38691 0
M  V30 1607 C 151.472 -1.88799 -3.85556 0
M  V30 1608 C 150.705 -1.54329 -5.10899 0
M  V30 1609 O 150.928 -0.446494 -5.6865 0
M  V30 1610 O 149.862 -2.37911 -5.52885 0
M  V30 1611 H 153.688 -2.05309 -2.23789 0
M  V30 1612 H 151.273 -1.05743 -1.0554 0
M  V30 1613 H 153.155 -0.55195 -4.1777 0
M  V30 1614 H 151.83 0.180022 -3.23199 0
M  V30 1615 H 150.737 -2.13191 -3.07409 0
M  V30 1616 H 152.07 -2.78874 -4.05574 0
M  V30 1617 N 153.722 1.14298 -1.08507 0
M  V30 1618 C 154.685 2.17607 -0.719711 0
M  V30 1619 C 155.685 1.58907 0.245997 0
M  V30 1620 O 156.875 1.74181 0.0254081 0
M  V30 1621 C 154.007 3.40842 -0.0627695 0
M  V30 1622 H 155.2 2.51443 -1.63452 0
M  V30 1623 H 152.753 1.28963 -0.88307 0
M  V30 1624 H 153.488 3.12587 0.863716 0
M  V30 1625 H 153.273 3.84713 -0.757504 0
M  V30 1626 H 154.763 4.17221 0.177786 0
M  V30 1627 N 155.201 0.870884 1.31352 0
M  V30 1628 C 156.447 0.482987 1.96965 0
M  V30 1629 C 156.78 -0.962462 1.68672 0
M  V30 1630 O 156.055 -1.6779 0.98371 0
M  V30 1631 C 156.338 0.741752 3.52378 0
M  V30 1632 C 156.191 2.2368 3.9024 0
M  V30 1633 C 157.51 0.208838 4.39604 0
M  V30 1634 H 154.629 0.176955 0.715441 0
M  V30 1635 H 157.271 1.09229 1.55464 0
M  V30 1636 H 155.421 0.223149 3.87859 0
M  V30 1637 H 157.093 2.82273 3.64856 0
M  V30 1638 H 155.336 2.70901 3.38814 0
M  V30 1639 H 156.007 2.3685 4.98604 0
M  V30 1640 H 158.483 0.652529 4.10952 0
M  V30 1641 H 157.359 0.419336 5.47296 0
M  V30 1642 H 157.62 -0.889275 4.33064 0
M  V30 1643 N 156.679 -1.44442 0.630414 0
M  V30 1644 C 157.927 -2.01653 0.134351 0
M  V30 1645 C 158.248 -1.49836 -1.24796 0
M  V30 1646 O 157.518 -0.701684 -1.82902 0
M  V30 1647 H 156.098 -0.74554 0.0466769 0
M  V30 1648 H 158.76 -1.76952 0.816955 0
M  V30 1649 H 157.856 -3.11935 0.101498 0
M  V30 1650 N 158.157 -0.370918 -1.53173 0
M  V30 1651 C 159.405 0.216673 -2.00935 0
M  V30 1652 C 159.726 1.48845 -1.25977 0
M  V30 1653 O 158.996 1.92286 -0.374551 0
M  V30 1654 H 157.576 0.0830565 -0.742368 0
M  V30 1655 H 160.238 -0.49838 -1.8842 0
M  V30 1656 H 159.334 0.439893 -3.08984 0
M  V30 1657 N 159.635 1.57281 -0.100228 0
M  V30 1658 C 160.582 2.14305 0.856858 0
M  V30 1659 C 161.552 1.06296 1.27634 0
M  V30 1660 O 162.737 1.34109 1.35718 0
M  V30 1661 C 159.877 2.73184 2.10866 0
M  V30 1662 C 158.99 3.95442 1.73925 0
M  V30 1663 C 158.125 4.42468 2.93931 0
M  V30 1664 C 157.164 5.57303 2.5314 0
M  V30 1665 N 156.301 5.99158 3.65997 0
M  V30 1666 H 161.141 2.95772 0.363726 0
M  V30 1667 H 158.678 1.46139 0.167858 0
M  V30 1668 H 160.636 3.05442 2.84185 0
M  V30 1669 H 159.266 1.94437 2.57671 0
M  V30 1670 H 158.318 3.69464 0.905554 0
M  V30 1671 H 159.63 4.78769 1.39935 0
M  V30 1672 H 158.784 4.76537 3.75496 0
M  V30 1673 H 157.523 3.58052 3.31134 0
M  V30 1674 H 156.528 5.22857 1.70003 0
M  V30 1675 H 157.753 6.43471 2.17075 0
M  V30 1676 H 155.699 5.17687 4.02909 0
M  V30 1677 H 155.616 6.77295 3.35869 0
M  V30 1678 H 156.884 6.3786 4.48057 0
M  V30 1679 N 161.113 -0.173488 1.56642 0
M  V30 1680 C 162.043 -1.2171 1.99271 0
M  V30 1681 C 163.024 -1.46289 0.867959 0
M  V30 1682 O 164.209 -1.5766 1.13388 0
M  V30 1683 C 161.339 -2.55651 2.35074 0
M  V30 1684 C 160.293 -2.45645 3.50489 0
M  V30 1685 C 159.619 -3.84056 3.72028 0
M  V30 1686 C 160.919 -1.96302 4.84007 0
M  V30 1687 H 162.613 -0.86275 2.867 0
M  V30 1688 H 160.159 -0.413571 1.37933 0
M  V30 1689 H 162.112 -3.2886 2.63494 0
M  V30 1690 H 160.836 -2.92869 1.44552 0
M  V30 1691 H 159.495 -1.7489 3.22194 0
M  V30 1692 H 159.143 -4.18664 2.788 0
M  V30 1693 H 158.843 -3.7823 4.49684 0
M  V30 1694 H 160.367 -4.58854 4.02846 0
M  V30 1695 H 161.781 -2.59284 5.11317 0
M  V30 1696 H 160.178 -2.01429 5.65284 0
M  V30 1697 H 161.248 -0.917226 4.76146 0
M  V30 1698 N 162.591 -1.51276 -0.441967 0
M  V30 1699 C 163.816 -1.67799 -1.21895 0
M  V30 1700 C 164.241 -0.372864 -1.84367 0
M  V30 1701 O 163.599 0.666501 -1.68604 0
M  V30 1702 C 163.647 -2.79199 -2.28211 0
M  V30 1703 O 162.751 -2.42479 -3.33583 0
M  V30 1704 H 162.092 -0.559649 -0.357336 0
M  V30 1705 H 164.622 -1.97815 -0.522522 0
M  V30 1706 H 164.632 -3.03146 -2.73069 0
M  V30 1707 H 163.307 -3.73906 -1.82118 0
M  V30 1708 H 161.884 -2.29087 -2.94234 0
M  V30 1709 N 164.069 0.697108 -1.41344 0
M  V30 1710 C 165.315 1.4593 -1.40827 0
M  V30 1711 C 165.648 1.94193 -0.0167098 0
M  V30 1712 O 164.923 1.69425 0.955263 0
M  V30 1713 C 165.206 2.67229 -2.41373 0
M  V30 1714 C 165.059 2.24741 -3.8963 0
M  V30 1715 C 166.378 3.69423 -2.39196 0
M  V30 1716 H 163.497 0.529303 -0.512842 0
M  V30 1717 H 166.139 0.794112 -1.72609 0
M  V30 1718 H 164.289 3.23982 -2.14401 0
M  V30 1719 H 165.961 1.73327 -4.27499 0
M  V30 1720 H 164.204 1.56542 -4.0457 0
M  V30 1721 H 164.875 3.1177 -4.55525 0
M  V30 1722 H 167.351 3.2234 -2.63128 0
M  V30 1723 H 166.227 4.51907 -3.11563 0
M  V30 1724 H 166.488 4.19012 -1.41001 0
M  V30 1725 N 165.547 1.27147 0.931209 0
M  V30 1726 C 166.775 1.16082 1.71267 0
M  V30 1727 C 167.19 -0.282772 1.8667 0
M  V30 1728 O 166.547 -1.19283 1.38122 0
M  V30 1729 C 166.598 1.8358 3.11417 0
M  V30 1730 O 166.319 3.22299 2.96741 0
M  V30 1731 C 167.82 1.78597 4.05732 0
M  V30 1732 H 165.04 0.403758 0.535929 0
M  V30 1733 H 167.584 1.67953 1.16671 0
M  V30 1734 H 165.739 1.35623 3.62885 0
M  V30 1735 H 166.153 3.55851 3.85319 0
M  V30 1736 H 167.627 2.30444 5.01597 0
M  V30 1737 H 168.104 0.754564 4.3267 0
M  V30 1738 H 168.71 2.26152 3.60188 0
M  V30 1739 N 167.025 -1.13721 1.09112 0
M  V30 1740 C 167.988 -2.17222 0.731241 0
M  V30 1741 C 168.988 -1.59035 -0.237566 0
M  V30 1742 O 170.178 -1.74192 -0.0161704 0
M  V30 1743 C 167.31 -3.40804 0.0808443 0
M  V30 1744 H 168.503 -2.50573 1.64783 0
M  V30 1745 H 166.056 -1.28493 0.889897 0
M  V30 1746 H 166.791 -3.1304 -0.847127 0
M  V30 1747 H 166.576 -3.84306 0.777896 0
M  V30 1748 H 168.066 -4.1731 -0.155657 0
M  V30 1749 N 168.503 -0.877838 -1.30888 0
M  V30 1750 C 169.731 -0.507414 -2.00581 0
M  V30 1751 C 170.146 0.902216 -1.65848 0
M  V30 1752 O 169.503 1.59225 -0.891831 0
M  V30 1753 C 169.554 -0.664162 -3.55347 0
M  V30 1754 O 169.275 -2.01829 -3.8884 0
M  V30 1755 C 170.776 -0.295787 -4.42312 0
M  V30 1756 H 167.996 -0.196866 -0.641471 0
M  V30 1757 H 170.54 -1.18117 -1.66939 0
M  V30 1758 H 168.695 -0.0378619 -3.87381 0
M  V30 1759 H 169.109 -2.03174 -4.8355 0
M  V30 1760 H 170.583 -0.456388 -5.5011 0
M  V30 1761 H 171.06 0.765663 -4.32475 0
M  V30 1762 H 171.666 -0.898113 -4.15709 0
M  V30 1763 N 169.982 1.44106 -0.638065 0
M  V30 1764 C 171.398 1.56672 -0.304286 0
M  V30 1765 C 171.598 1.6244 1.19228 0
M  V30 1766 O 170.654 1.57121 1.9766 0
M  V30 1767 C 171.967 2.83503 -1.00231 0
M  V30 1768 C 173.515 2.97226 -0.981116 0
M  V30 1769 C 173.99 4.26868 -1.65974 0
M  V30 1770 N 175.481 4.33698 -1.62666 0
M  V30 1771 C 176.216 5.32745 -2.12063 0
M  V30 1772 N 175.712 6.38157 -2.6968 0
M  V30 1773 N 177.505 5.24299 -2.02651 0
M  V30 1774 H 169.656 1.38605 -1.60942 0
M  V30 1775 H 171.919 0.664661 -0.675965 0
M  V30 1776 H 171.625 2.85251 -2.0573 0
M  V30 1777 H 171.499 3.73251 -0.54439 0
M  V30 1778 H 173.886 2.95027 0.0654188 0
M  V30 1779 H 173.967 2.08808 -1.47759 0
M  V30 1780 H 173.611 4.29826 -2.70576 0
M  V30 1781 H 173.541 5.14156 -1.13804 0
M  V30 1782 H 176.032 3.58138 -1.20606 0
M  V30 1783 H 176.345 7.10029 -3.05087 0
M  V30 1784 H 174.69 6.38823 -2.73734 0
M  V30 1785 H 177.881 4.4086 -1.57353 0
M  V30 1786 H 178.054 6.01334 -2.41457 0
M  V30 1787 N 171.46 0.379036 1.52974 0
M  V30 1788 C 172.37 -0.468639 2.29872 0
M  V30 1789 C 173.386 -1.08067 1.36373 0
M  V30 1790 O 174.562 -1.08871 1.69438 0
M  V30 1791 C 171.627 -1.58594 3.083 0
M  V30 1792 C 170.688 -1.00007 4.17489 0
M  V30 1793 C 169.921 -2.06413 4.92168 0
M  V30 1794 O 170.144 -3.27751 4.66835 0
M  V30 1795 O 169.078 -1.68717 5.7777 0
M  V30 1796 H 172.904 0.157508 3.03291 0
M  V30 1797 H 170.489 0.143035 1.48714 0
M  V30 1798 H 172.371 -2.23525 3.57232 0
M  V30 1799 H 171.046 -2.19724 2.37703 0
M  V30 1800 H 169.953 -0.314299 3.72777 0
M  V30 1801 H 171.286 -0.433135 4.90291 0
M  V30 1802 N 172.938 -1.57226 0.108567 0
M  V30 1803 C 173.886 -2.16002 -0.862885 0
M  V30 1804 C 174.88 -1.10644 -1.28274 0
M  V30 1805 O 176.086 -1.28966 -1.2557 0
M  V30 1806 H 172.461 -0.691148 -0.296342 0
M  V30 1807 H 174.432 -2.96427 -0.342575 0
M  V30 1808 C 173.181 -2.76576 -2.10716 0
M  V30 1809 H 172.504 -3.5734 -1.793 0
M  V30 1810 H 173.944 -3.21253 -2.76717 0
M  V30 1811 C 172.403 -1.73137 -2.89007 0
M  V30 1812 O 172.933 -1.17842 -3.84026 0
M  V30 1813 N 171.139 -1.43317 -2.52801 0
M  V30 1814 H 170.686 -1.88473 -1.75601 0
M  V30 1815 H 170.644 -0.743485 -3.05483 0
M  V30 1816 N 174.416 0.165178 -1.56732 0
M  V30 1817 C 175.349 1.23336 -1.91998 0
M  V30 1818 C 176.327 1.42476 -0.783531 0
M  V30 1819 O 177.511 1.57384 -1.03743 0
M  V30 1820 C 174.638 2.59533 -2.17625 0
M  V30 1821 C 173.684 2.57093 -3.40302 0
M  V30 1822 S 174.517 2.05571 -4.9447 0
M  V30 1823 C 175.673 3.43532 -5.23198 0
M  V30 1824 H 175.906 0.932387 -2.82301 0
M  V30 1825 H 173.439 0.370013 -1.49901 0
M  V30 1826 H 175.397 3.37918 -2.3307 0
M  V30 1827 H 174.058 2.86827 -1.28019 0
M  V30 1828 H 173.251 3.57308 -3.55453 0
M  V30 1829 H 172.853 1.86806 -3.24005 0
M  V30 1830 H 175.145 4.39559 -5.15552 0
M  V30 1831 H 176.088 3.33251 -6.2478 0
M  V30 1832 H 176.496 3.39828 -4.50752 0
M  V30 1833 N 175.894 1.51508 0.433938 0
M  V30 1834 C 176.857 1.72473 1.50949 0
M  V30 1835 C 177.857 0.594725 1.49398 0
M  V30 1836 O 179.047 0.862315 1.5136 0
M  V30 1837 C 176.179 1.78431 2.90474 0
M  V30 1838 H 177.372 2.68467 1.33662 0
M  V30 1839 H 174.925 1.41549 0.662836 0
M  V30 1840 H 175.66 0.842645 3.13161 0
M  V30 1841 H 175.445 2.60558 2.93005 0
M  V30 1842 H 176.935 1.96479 3.68491 0
M  V30 1843 N 177.372 -0.689602 1.41712 0
M  V30 1844 C 178.602 -1.47613 1.44548 0
M  V30 1845 C 179.01 -1.89132 0.0509034 0
M  V30 1846 O 178.353 -1.57741 -0.94146 0
M  V30 1847 C 178.415 -2.76596 2.2964 0
M  V30 1848 C 178.079 -2.57245 3.77722 0
M  V30 1849 C 179.076 -2.22804 4.69739 0
M  V30 1850 C 176.761 -2.727 4.2183 0
M  V30 1851 C 178.755 -2.04064 6.03851 0
M  V30 1852 C 176.442 -2.53576 5.56006 0
M  V30 1853 C 177.44 -2.1931 6.46832 0
M  V30 1854 O 177.128 -2.00359 7.78532 0
M  V30 1855 H 176.86 -0.461227 0.494212 0
M  V30 1856 H 179.414 -0.856045 1.86711 0
M  V30 1857 H 177.644 -3.41033 1.82301 0
M  V30 1858 H 179.333 -3.38424 2.24107 0
M  V30 1859 H 180.099 -2.10473 4.36951 0
M  V30 1860 H 175.978 -2.98353 3.51435 0
M  V30 1861 H 179.522 -1.77241 6.74708 0
M  V30 1862 H 175.419 -2.65499 5.88371 0
M  V30 1863 H 176.187 -2.15075 7.89737 0
M  V30 1864 N 178.85 -1.27639 -0.924453 0
M  V30 1865 C 180.078 -1.16989 -1.70649 0
M  V30 1866 C 180.493 0.272869 -1.86818 0
M  V30 1867 O 179.85 1.18549 -1.38753 0
M  V30 1868 C 179.901 -1.85229 -3.10439 0
M  V30 1869 O 179.622 -3.23868 -2.95028 0
M  V30 1870 C 181.123 -1.80746 -4.04779 0
M  V30 1871 H 178.343 -0.406595 -0.53378 0
M  V30 1872 H 180.887 -1.68569 -1.15778 0
M  V30 1873 H 179.042 -1.37545 -3.6216 0
M  V30 1874 H 179.456 -3.57889 -3.83426 0
M  V30 1875 H 180.93 -2.33101 -5.00368 0
M  V30 1876 H 181.407 -0.777499 -4.32263 0
M  V30 1877 H 182.013 -2.28059 -3.58984 0
M  V30 1878 N 180.328 1.1314 -1.09713 0
M  V30 1879 C 181.574 1.84757 -0.836224 0
M  V30 1880 C 181.907 1.8347 0.636598 0
M  V30 1881 O 181.182 1.27491 1.46889 0
M  V30 1882 C 181.465 3.32782 -1.37578 0
M  V30 1883 C 181.318 3.42567 -2.91493 0
M  V30 1884 C 182.637 4.28307 -1.01198 0
M  V30 1885 H 179.756 0.67082 -0.305236 0
M  V30 1886 H 182.398 1.3278 -1.35903 0
M  V30 1887 H 180.548 3.77177 -0.931097 0
M  V30 1888 H 182.22 3.06862 -3.44432 0
M  V30 1889 H 180.463 2.83349 -3.28475 0
M  V30 1890 H 181.134 4.46674 -3.24324 0
M  V30 1891 H 183.61 3.91999 -1.39556 0
M  V30 1892 H 182.486 5.30307 -1.41653 0
M  V30 1893 H 182.747 4.42029 0.0794833 0
M  V30 1894 N 181.806 0.884767 1.30421 0
M  V30 1895 C 182.716 0.355398 2.31892 0
M  V30 1896 C 183.732 -0.542261 1.65335 0
M  V30 1897 O 184.908 -0.435432 1.96637 0
M  V30 1898 C 181.973 -0.421661 3.44126 0
M  V30 1899 C 181.034 0.505727 4.26311 0
M  V30 1900 C 180.267 -0.234343 5.33185 0
M  V30 1901 O 180.49 -1.46045 5.51386 0
M  V30 1902 O 179.424 0.415443 6.00465 0
M  V30 1903 H 183.25 1.19685 2.79122 0
M  V30 1904 H 180.835 0.648596 1.34587 0
M  V30 1905 H 182.717 -0.861641 4.12497 0
M  V30 1906 H 181.392 -1.23942 2.99032 0
M  V30 1907 H 180.299 0.994513 3.60639 0
M  V30 1908 H 181.632 1.28948 4.75009 0
M  V30 1909 N 183.284 -1.43765 0.645699 0
M  V30 1910 C 184.524 -2.03776 0.159542 0
M  V30 1911 C 184.888 -1.49792 -1.2011 0
M  V30 1912 O 186.089 -2.01398 -1.78023 0
M  V30 1913 C 184.36 -3.57036 0.161251 0
M  V30 1914 S 185.919 -4.3804 -0.258159 0
M  V30 1915 H 182.737 -0.707717 0.0682454 0
M  V30 1916 H 185.339 -1.75941 0.852352 0
M  V30 1917 H 184.043 -3.9383 1.15439 0
M  V30 1918 H 183.574 -3.89503 -0.552339 0
M  V30 1919 H 185.589 -4.7302 -1.49889 0
M  V30 1920 N 184.763 -0.387143 -1.52771 0
M  V30 1921 C 185.693 0.440551 -2.29306 0
M  V30 1922 C 186.674 1.06535 -1.32606 0
M  V30 1923 O 187.859 1.07853 -1.61497 0
M  V30 1924 C 184.989 1.56919 -3.09829 0
M  V30 1925 C 183.943 1.07054 -4.14395 0
M  V30 1926 C 183.269 2.29109 -4.83129 0
M  V30 1927 C 184.569 0.140015 -5.22112 0
M  V30 1928 H 186.263 -0.198026 -2.98744 0
M  V30 1929 H 183.809 -0.09668 -1.43675 0
M  V30 1930 H 185.762 2.15503 -3.62128 0
M  V30 1931 H 184.486 2.23532 -2.3812 0
M  V30 1932 H 183.145 0.507247 -3.63074 0
M  V30 1933 H 182.793 2.94227 -4.0797 0
M  V30 1934 H 182.493 1.96406 -5.53804 0
M  V30 1935 H 184.017 2.88339 -5.38231 0
M  V30 1936 H 185.431 0.633978 -5.69784 0
M  V30 1937 H 183.828 -0.0971485 -6.00021 0
M  V30 1938 H 184.898 -0.811711 -4.78058 0
M  V30 1939 N 186.241 1.57166 -0.116904 0
M  V30 1940 C 187.657 1.5779 0.239693 0
M  V30 1941 C 187.857 1.1295 1.66867 0
M  V30 1942 O 186.913 0.81592 2.38954 0
M  V30 1943 C 188.226 3.00699 0.00828202 0
M  V30 1944 C 189.774 3.12912 0.0743438 0
M  V30 1945 C 190.249 4.57817 -0.129348 0
M  V30 1946 N 191.74 4.63139 -0.075247 0
M  V30 1947 C 192.475 5.73023 -0.207788 0
M  V30 1948 N 191.971 6.91665 -0.396382 0
M  V30 1949 N 193.764 5.61906 -0.14751 0
M  V30 1950 H 185.915 1.84615 -1.05029 0
M  V30 1951 H 188.178 0.85311 -0.41341 0
M  V30 1952 H 187.884 3.37784 -0.979531 0
M  V30 1953 H 187.758 3.69848 0.741077 0
M  V30 1954 H 190.145 2.75686 1.05268 0
M  V30 1955 H 190.226 2.4631 -0.690297 0
M  V30 1956 H 189.87 4.95742 -1.10465 0
M  V30 1957 H 189.8 5.22507 0.655253 0
M  V30 1958 H 192.291 3.7784 0.0670898 0
M  V30 1959 H 192.604 7.71255 -0.488437 0
M  V30 1960 H 190.949 6.93654 -0.432329 0
M  V30 1961 H 194.14 4.681 -0.00115036 0
M  V30 1962 H 194.313 6.47501 -0.254247 0
M  V30 1963 N 187.719 -0.156864 1.56817 0
M  V30 1964 C 188.967 -0.869404 1.82444 0
M  V30 1965 C 189.288 -1.82147 0.69623 0
M  V30 1966 O 188.558 -1.93847 -0.28287 0
M  V30 1967 H 187.138 -0.324043 0.673056 0
M  V30 1968 H 189.8 -0.153224 1.94297 0
M  V30 1969 H 188.896 -1.43761 2.77019 0
M  V30 1970 N 189.197 -1.51736 -0.425897 0
M  V30 1971 C 190.474 -1.55519 -1.1863 0
M  V30 1972 C 190.854 -0.326219 -2.08564 0
M  V30 1973 O 190.202 0.688012 -2.17896 0
M  V30 1974 C 190.412 -2.87521 -1.9782 0
M  V30 1975 C 191.76 -3.39899 -2.54468 0
M  V30 1976 O 192.784 -2.89148 -2.08019 0
M  V30 1977 O 191.643 -4.2848 -3.39215 0
M  V30 1978 H 188.737 -0.625739 -0.540721 0
M  V30 1979 H 191.283 -1.64055 -0.434038 0
M  V30 1980 H 190.055 -3.68422 -1.31836 0
M  V30 1981 H 189.678 -2.822 -2.80088 0
M  V30 1982 N 190.675 0.682077 -1.42076 0
M  V30 1983 C 191.921 1.44428 -1.42367 0
M  V30 1984 C 192.254 1.94164 -0.0373056 0
M  V30 1985 O 191.529 1.70429 0.937239 0
M  V30 1986 C 191.812 2.64654 -2.44194 0
M  V30 1987 C 191.665 2.20596 -3.91991 0
M  V30 1988 C 192.984 3.66865 -2.431 0
M  V30 1989 H 190.103 0.523834 -0.518428 0
M  V30 1990 H 192.745 0.77576 -1.73442 0
M  V30 1991 H 190.895 3.2169 -2.17826 0
M  V30 1992 H 192.567 1.68783 -4.29313 0
M  V30 1993 H 190.81 1.52242 -4.06208 0
M  V30 1994 H 191.481 3.06921 -4.58807 0
M  V30 1995 H 193.957 3.19531 -2.66532 0
M  V30 1996 H 192.833 4.48577 -3.16339 0
M  V30 1997 H 193.094 4.17493 -1.45437 0
M  V30 1998 N 192.153 1.28127 0.917671 0
M  V30 1999 C 193.43 1.05761 1.64542 0
M  V30 2000 C 193.81 -0.404344 2.07191 0
M  V30 2001 O 193.158 -1.38963 1.81388 0
M  V30 2002 C 193.368 2.02857 2.83989 0
M  V30 2003 C 194.716 2.32786 3.551 0
M  V30 2004 O 195.74 2.0091 2.94132 0
M  V30 2005 O 194.599 2.87169 4.64969 0
M  V30 2006 H 191.693 0.403916 0.721652 0
M  V30 2007 H 194.239 1.39431 0.967322 0
M  V30 2008 H 193.011 3.01407 2.49538 0
M  V30 2009 H 192.634 1.69809 3.59514 0
M  V30 2010 N 193.631 -1.12557 1.10312 0
M  V30 2011 C 194.88 -1.83395 0.839588 0
M  V30 2012 C 195.193 -1.84939 -0.636929 0
M  V30 2013 O 196.399 -2.51761 -1.01631 0
M  V30 2014 C 194.855 -3.29303 1.45215 0
M  V30 2015 C 194.463 -3.36122 2.96186 0
M  V30 2016 C 196.207 -4.05121 1.26796 0
M  V30 2017 C 194.114 -4.76357 3.50483 0
M  V30 2018 H 193.044 -0.687133 0.310425 0
M  V30 2019 H 195.695 -1.26746 1.32694 0
M  V30 2020 H 194.077 -3.85812 0.892469 0
M  V30 2021 H 195.251 -2.89559 3.58458 0
M  V30 2022 H 193.566 -2.73776 3.13745 0
M  V30 2023 H 196.163 -5.08668 1.64806 0
M  V30 2024 H 196.506 -4.15773 0.209409 0
M  V30 2025 H 197.039 -3.54967 1.79563 0
M  V30 2026 H 193.778 -4.70899 4.55998 0
M  V30 2027 H 193.298 -5.23377 2.92978 0
M  V30 2028 H 194.977 -5.45294 3.48228 0
M  V30 2029 N 195.109 -0.891671 -1.2995 0
M  V30 2030 C 196.039 -0.379797 -2.30391 0
M  V30 2031 C 197.02 0.540919 -1.6127 0
M  V30 2032 O 198.205 0.453352 -1.88834 0
M  V30 2033 C 195.335 0.400654 -3.44981 0
M  V30 2034 C 194.289 -0.428905 -4.25846 0
M  V30 2035 C 193.615 0.478557 -5.32554 0
M  V30 2036 C 194.915 -1.67458 -4.94727 0
M  V30 2037 H 196.609 -1.21914 -2.73454 0
M  V30 2038 H 194.155 -0.587675 -1.31462 0
M  V30 2039 H 196.108 0.769434 -4.14316 0
M  V30 2040 H 194.832 1.27371 -3.0074 0
M  V30 2041 H 193.491 -0.779911 -3.58208 0
M  V30 2042 H 193.139 1.34951 -4.84559 0
M  V30 2043 H 192.839 -0.0727433 -5.87555 0
M  V30 2044 H 194.363 0.843705 -6.04743 0
M  V30 2045 H 195.777 -1.376 -5.56542 0
M  V30 2046 H 194.174 -2.16659 -5.59624 0
M  V30 2047 H 195.244 -2.41518 -4.20473 0
M  V30 2048 N 196.587 1.43421 -0.653314 0
M  V30 2049 C 197.52 2.2803 0.0879804 0
M  V30 2050 C 198.498 1.39833 0.82979 0
M  V30 2051 O 199.682 1.69275 0.829341 0
M  V30 2052 C 196.809 3.19247 1.13132 0
M  V30 2053 C 195.855 4.23704 0.487546 0
M  V30 2054 S 196.688 5.30377 -0.738961 0
M  V30 2055 C 197.844 6.25162 0.30384 0
M  V30 2056 H 198.077 2.90554 -0.629739 0
M  V30 2057 H 195.61 1.47934 -0.442156 0
M  V30 2058 H 197.568 3.72346 1.72827 0
M  V30 2059 H 196.229 2.55901 1.82136 0
M  V30 2060 H 195.422 4.87631 1.27407 0
M  V30 2061 H 195.024 3.73983 -0.0352915 0
M  V30 2062 H 197.316 6.67321 1.17 0
M  V30 2063 H 198.259 7.07463 -0.300402 0
M  V30 2064 H 198.667 5.60864 0.63969 0
M  V30 2065 N 198.065 0.39524 1.52563 0
M  V30 2066 C 198.975 -0.444232 2.30356 0
M  V30 2067 C 199.991 -1.06615 1.37511 0
M  V30 2068 O 201.167 -1.07067 1.70583 0
M  V30 2069 C 198.232 -1.55315 3.09964 0
M  V30 2070 C 197.293 -0.955734 4.18526 0
M  V30 2071 C 196.526 -2.01181 4.9433 0
M  V30 2072 O 196.749 -3.22781 4.70285 0
M  V30 2073 O 195.683 -1.62579 5.79527 0
M  V30 2074 H 199.509 0.189667 3.03107 0
M  V30 2075 H 197.094 0.1588 1.48554 0
M  V30 2076 H 198.976 -2.19724 3.59582 0
M  V30 2077 H 197.651 -2.17191 2.4002 0
M  V30 2078 H 196.558 -0.274743 3.7309 0
M  V30 2079 H 197.891 -0.381109 4.90722 0
M  V30 2080 N 199.544 -1.57102 0.125237 0
M  V30 2081 C 200.791 -1.95407 -0.531248 0
M  V30 2082 C 201.119 -1.0089 -1.66287 0
M  V30 2083 O 200.374 -0.0339431 -1.95671 0
M  V30 2084 C 200.673 -3.40096 -1.09862 0
M  V30 2085 C 200.339 -4.50815 -0.0876989 0
M  V30 2086 C 199.001 -4.80824 0.19026 0
M  V30 2087 C 201.353 -5.17724 0.600902 0
M  V30 2088 C 198.681 -5.75058 1.163 0
M  V30 2089 C 201.033 -6.13005 1.56231 0
M  V30 2090 C 199.697 -6.41403 1.8482 0
M  V30 2091 H 198.967 -0.715046 -0.194397 0
M  V30 2092 H 201.614 -1.90373 0.207463 0
M  V30 2093 H 199.919 -3.41855 -1.91422 0
M  V30 2094 H 201.616 -3.6705 -1.61478 0
M  V30 2095 H 198.206 -4.27444 -0.314528 0
M  V30 2096 H 202.39 -4.94691 0.399333 0
M  V30 2097 H 197.646 -5.95362 1.39117 0
M  V30 2098 H 201.82 -6.63934 2.10153 0
M  V30 2099 H 199.447 -7.14229 2.60349 0
M  V30 2100 N 201.022 0.148545 -1.56898 0
M  V30 2101 C 201.952 1.18524 -2.01182 0
M  V30 2102 C 202.933 1.4489 -0.891123 0
M  V30 2103 O 204.118 1.55836 -1.15882 0
M  V30 2104 C 201.248 2.51879 -2.39112 0
M  V30 2105 C 200.202 2.40038 -3.54353 0
M  V30 2106 C 199.528 3.78089 -3.78091 0
M  V30 2107 C 200.828 1.88577 -4.87069 0
M  V30 2108 H 202.522 0.817029 -2.88036 0
M  V30 2109 H 200.068 0.391575 -1.38574 0
M  V30 2110 H 202.021 3.24627 -2.68692 0
M  V30 2111 H 200.745 2.90532 -1.49193 0
M  V30 2112 H 199.404 1.69742 -3.24936 0
M  V30 2113 H 199.052 4.14175 -2.85426 0
M  V30 2114 H 198.752 3.71028 -4.55645 0
M  V30 2115 H 200.276 4.52387 -4.10095 0
M  V30 2116 H 201.69 2.51117 -5.15377 0
M  V30 2117 H 200.087 1.9241 -5.68417 0
M  V30 2118 H 201.157 0.84136 -4.77545 0
M  V30 2119 N 202.5 1.5196 0.417844 0
M  V30 2120 C 203.43 1.77634 1.51554 0
M  V30 2121 C 204.411 0.626918 1.58126 0
M  V30 2122 O 205.596 0.871632 1.7354 0
M  V30 2123 C 202.726 1.91911 2.8946 0
M  V30 2124 C 201.68 3.07463 2.97743 0
M  V30 2125 C 201.006 3.06951 4.37819 0
M  V30 2126 C 202.306 4.47082 2.70027 0
M  V30 2127 H 204 2.6955 1.3032 0
M  V30 2128 H 201.546 1.29706 0.625492 0
M  V30 2129 H 203.499 2.08455 3.6623 0
M  V30 2130 H 202.223 0.966598 3.11969 0
M  V30 2131 H 200.882 2.90656 2.23416 0
M  V30 2132 H 200.53 2.09438 4.57323 0
M  V30 2133 H 200.23 3.84556 4.44286 0
M  V30 2134 H 201.754 3.25613 5.16535 0
M  V30 2135 H 203.168 4.6414 3.36522 0
M  V30 2136 H 201.565 5.2654 2.87881 0
M  V30 2137 H 202.635 4.55777 1.65514 0
M  V30 2138 N 203.978 -0.674533 1.42435 0
M  V30 2139 C 204.926 -1.80934 1.46169 0
M  V30 2140 C 205.92 -1.66006 0.3374 0
M  V30 2141 O 207.126 -1.72611 0.510425 0
M  V30 2142 H 203.501 -0.596594 0.457798 0
M  V30 2143 H 205.472 -1.74903 2.41767 0
M  V30 2144 C 204.221 -3.19088 1.38123 0
M  V30 2145 H 203.544 -3.31203 2.23931 0
M  V30 2146 H 204.984 -3.9851 1.44797 0
M  V30 2147 C 203.443 -3.36763 0.0960517 0
M  V30 2148 O 203.973 -3.92581 -0.851073 0
M  V30 2149 N 202.179 -2.90597 0.0131186 0
M  V30 2150 H 201.726 -2.45359 0.784639 0
M  V30 2151 H 201.684 -3.028 -0.846133 0
M  V30 2152 N 205.456 -1.28612 -0.910864 0
M  V30 2153 C 206.702 -1.16106 -1.66274 0
M  V30 2154 C 207.035 0.289113 -1.92036 0
M  V30 2155 O 206.31 1.21 -1.52281 0
M  V30 2156 C 206.593 -1.96309 -3.01885 0
M  V30 2157 C 206.446 -3.49405 -2.8326 0
M  V30 2158 C 207.765 -1.78076 -4.02463 0
M  V30 2159 H 204.884 -0.423152 -0.603417 0
M  V30 2160 H 207.526 -1.57961 -1.05586 0
M  V30 2161 H 205.676 -1.60742 -3.53687 0
M  V30 2162 H 207.348 -3.94894 -2.38446 0
M  V30 2163 H 205.591 -3.74893 -2.18261 0
M  V30 2164 H 206.262 -4.00784 -3.79574 0
M  V30 2165 H 208.738 -2.0912 -3.59733 0
M  V30 2166 H 207.614 -2.36561 -4.95308 0
M  V30 2167 H 207.875 -0.733008 -4.35981 0
M  V30 2168 N 206.934 1.1197 -1.10907 0
M  V30 2169 C 208.162 1.87402 -0.876824 0
M  V30 2170 C 208.577 1.79894 0.573025 0
M  V30 2171 O 207.934 1.17629 1.39534 0
M  V30 2172 C 207.985 3.36428 -1.32282 0
M  V30 2173 O 207.706 3.43765 -2.71582 0
M  V30 2174 C 209.207 4.28783 -1.12518 0
M  V30 2175 H 206.427 0.592793 -0.314384 0
M  V30 2176 H 208.971 1.41649 -1.47499 0
M  V30 2177 H 207.126 3.79706 -0.768229 0
M  V30 2178 H 207.54 4.3652 -2.90776 0
M  V30 2179 H 209.014 5.31613 -1.48633 0
M  V30 2180 H 209.491 4.39153 -0.0642394 0
M  V30 2181 H 210.097 3.91291 -1.66648 0
M  V30 2182 N 208.412 0.89855 1.29475 0
M  V30 2183 C 209.64 0.539261 1.99749 0
M  V30 2184 C 210.055 -0.875716 1.67262 0
M  V30 2185 O 209.412 -1.57786 0.917049 0
M  V30 2186 C 209.463 0.72061 3.54245 0
M  V30 2187 O 209.184 2.07989 3.8558 0
M  V30 2188 C 210.685 0.366118 4.41786 0
M  V30 2189 H 207.905 0.207047 0.638258 0
M  V30 2190 H 210.449 1.20758 1.65039 0
M  V30 2191 H 208.604 0.0994862 3.87272 0
M  V30 2192 H 209.018 2.10841 4.80257 0
M  V30 2193 H 210.492 0.543848 5.49314 0
M  V30 2194 H 210.969 -0.696763 4.33638 0
M  V30 2195 H 211.575 0.964135 4.14228 0
M  V30 2196 N 209.89 -1.43072 0.660911 0
M  V30 2197 C 210.853 -2.29194 -0.0166406 0
M  V30 2198 C 211.853 -1.42609 -0.742912 0
M  V30 2199 O 213.043 -1.64155 -0.583004 0
M  V30 2200 C 210.175 -3.24831 -1.0343 0
M  V30 2201 H 211.368 -2.90596 0.741208 0
M  V30 2202 H 208.921 -1.5048 0.422532 0
M  V30 2203 H 209.656 -2.68339 -1.82111 0
M  V30 2204 H 209.441 -3.88676 -0.517082 0
M  V30 2205 H 210.931 -3.89451 -1.50723 0
M  V30 2206 N 211.368 -0.403325 -1.52352 0
M  V30 2207 C 212.779 0.0675782 -1.86578 0
M  V30 2208 C 213.13 1.44941 -1.32236 0
M  V30 2209 O 212.255 2.06112 -0.659307 0
M  V30 2210 C 212.85 0.129404 -3.38553 0
M  V30 2211 C 211.409 0.544629 -3.72439 0
M  V30 2212 C 210.556 -0.284551 -2.75836 0
M  V30 2213 H 213.507 -0.620631 -1.46061 0
M  V30 2214 H 213.528 0.94581 -3.68558 0
M  V30 2215 H 213.04 -0.87645 -3.78074 0
M  V30 2216 H 211.141 1.55734 -3.38493 0
M  V30 2217 H 211.254 0.293046 -4.78203 0
M  V30 2218 H 209.618 0.252258 -2.53448 0
M  V30 2219 H 210.401 -1.28865 -3.18196 0
M  V30 2220 N 212.846 1.57033 -0.133567 0
M  V30 2221 C 213.756 2.19632 0.824564 0
M  V30 2222 C 214.772 1.17666 1.28182 0
M  V30 2223 O 215.948 1.50193 1.3418 0
M  V30 2224 C 213.013 2.79499 2.05137 0
M  V30 2225 C 212.074 3.96548 1.64464 0
M  V30 2226 C 211.307 4.5355 2.81297 0
M  V30 2227 O 211.53 4.09438 3.97136 0
M  V30 2228 O 210.464 5.44018 2.57542 0
M  V30 2229 H 214.29 3.01991 0.321766 0
M  V30 2230 H 211.875 1.49112 0.0927889 0
M  V30 2231 H 213.757 3.17602 2.7696 0
M  V30 2232 H 212.432 2.00162 2.54395 0
M  V30 2233 H 211.339 3.63186 0.897048 0
M  V30 2234 H 212.672 4.77364 1.19934 0
M  V30 2235 N 214.325 -0.140222 1.56975 0
M  V30 2236 C 215.572 -0.851687 1.83719 0
M  V30 2237 C 215.9 -1.80862 0.715485 0
M  V30 2238 O 215.155 -1.93464 -0.294956 0
M  V30 2239 C 215.454 -1.65386 3.16832 0
M  V30 2240 C 215.12 -0.843112 4.42947 0
M  V30 2241 C 213.782 -0.619464 4.77196 0
M  V30 2242 C 216.134 -0.276582 5.20466 0
M  V30 2243 C 213.462 0.181312 5.8642 0
M  V30 2244 C 215.814 0.51127 6.30531 0
M  V30 2245 C 214.478 0.745432 6.63325 0
M  V30 2246 H 213.748 -0.311654 0.672274 0
M  V30 2247 H 216.395 -0.115006 1.91154 0
M  V30 2248 H 214.7 -2.46084 3.04877 0
M  V30 2249 H 216.397 -2.20793 3.34741 0
M  V30 2250 H 212.987 -1.0275 4.16101 0
M  V30 2251 H 217.171 -0.436632 4.94376 0
M  V30 2252 H 212.427 0.372165 6.10266 0
M  V30 2253 H 216.601 0.957354 6.89788 0
M  V30 2254 H 214.228 1.36778 7.47794 0
M  V30 2255 N 215.803 -1.52179 -0.40978 0
M  V30 2256 C 217.219 -1.40968 -0.74835 0
M  V30 2257 C 217.419 -0.513657 -1.94843 0
M  V30 2258 O 216.475 0.0208026 -2.52491 0
M  V30 2259 C 217.788 -2.83483 -1.0029 0
M  V30 2260 C 219.336 -2.92821 -1.10565 0
M  V30 2261 C 219.811 -4.36303 -1.39296 0
M  V30 2262 N 221.302 -4.39535 -1.46162 0
M  V30 2263 C 222.037 -5.47614 -1.70018 0
M  V30 2264 N 221.533 -6.65812 -1.91483 0
M  V30 2265 N 223.326 -5.35129 -1.72027 0
M  V30 2266 H 215.477 -2.0897 0.380186 0
M  V30 2267 H 217.74 -0.94185 0.107805 0
M  V30 2268 H 217.446 -3.51168 -0.193461 0
M  V30 2269 H 217.32 -3.24487 -1.92323 0
M  V30 2270 H 219.707 -2.25318 -1.90568 0
M  V30 2271 H 219.788 -2.55276 -0.16369 0
M  V30 2272 H 219.432 -5.04366 -0.598109 0
M  V30 2273 H 219.362 -4.71385 -2.34743 0
M  V30 2274 H 221.853 -3.54332 -1.31367 0
M  V30 2275 H 222.166 -7.43964 -2.09134 0
M  V30 2276 H 220.511 -6.68879 -1.88749 0
M  V30 2277 H 223.702 -4.41764 -1.54796 0
M  V30 2278 H 223.875 -6.19433 -1.9028 0
M  V30 2279 N 217.281 0.66697 -1.42791 0
M  V30 2280 C 218.697 0.981027 -1.25889 0
M  V30 2281 C 218.897 2.00793 -0.168695 0
M  V30 2282 O 217.953 2.48321 0.45747 0
M  V30 2283 C 219.266 1.47838 -2.61848 0
M  V30 2284 C 220.814 1.59575 -2.69267 0
M  V30 2285 C 221.289 2.12704 -4.05612 0
M  V30 2286 N 222.78 2.20026 -4.07606 0
M  V30 2287 C 223.515 2.62227 -5.09926 0
M  V30 2288 N 223.011 3.03824 -6.22626 0
M  V30 2289 N 224.804 2.62045 -4.97281 0
M  V30 2290 H 216.955 -0.0127891 -2.12396 0
M  V30 2291 H 219.218 0.0568258 -0.946295 0
M  V30 2292 H 218.924 0.798299 -3.4252 0
M  V30 2293 H 218.798 2.45579 -2.86305 0
M  V30 2294 H 221.185 2.26687 -1.88936 0
M  V30 2295 H 221.266 0.60302 -2.48591 0
M  V30 2296 H 220.91 1.46198 -4.86404 0
M  V30 2297 H 220.84 3.12782 -4.23645 0
M  V30 2298 H 223.331 1.90708 -3.2625 0
M  V30 2299 H 223.644 3.34734 -6.96544 0
M  V30 2300 H 221.989 3.01662 -6.26119 0
M  V30 2301 H 225.18 2.28916 -4.08308 0
M  V30 2302 H 225.353 2.94613 -5.77154 0
M  V30 2303 N 218.759 1.29093 0.90403 0
M  V30 2304 C 220.005 1.17996 1.65676 0
M  V30 2305 C 220.36 -0.266816 1.90541 0
M  V30 2306 O 219.653 -1.19 1.50165 0
M  V30 2307 C 219.847 1.92224 3.01305 0
M  V30 2308 C 219.676 3.43972 2.89678 0
M  V30 2309 C 218.446 4.1332 2.90679 0
M  V30 2310 C 220.644 4.39546 2.67028 0
M  V30 2311 N 218.626 5.51463 2.69743 0
M  V30 2312 C 219.997 5.65119 2.5503 0
M  V30 2313 C 222.052 4.29359 2.52101 0
M  V30 2314 C 220.755 6.81663 2.29626 0
M  V30 2315 C 222.781 5.4565 2.28079 0
M  V30 2316 C 222.143 6.70193 2.16843 0
M  V30 2317 H 218.242 0.486759 0.612037 0
M  V30 2318 H 220.826 1.62868 1.06688 0
M  V30 2319 H 218.997 1.49773 3.58361 0
M  V30 2320 H 220.729 1.73429 3.65656 0
M  V30 2321 H 217.484 3.64984 3.01801 0
M  V30 2322 H 217.908 6.24105 2.6234 0
M  V30 2323 H 222.55 3.33769 2.59534 0
M  V30 2324 H 220.268 7.77313 2.20932 0
M  V30 2325 H 223.854 5.39664 2.1738 0
M  V30 2326 H 222.734 7.58659 1.98511 0
M  V30 2327 N 220.237 -1.11381 1.11499 0
M  V30 2328 C 221.147 -2.21019 0.786628 0
M  V30 2329 C 222.163 -1.72597 -0.220507 0
M  V30 2330 O 223.339 -2.01321 -0.0565251 0
M  V30 2331 C 220.404 -3.459 0.235333 0
M  V30 2332 C 219.465 -4.09107 1.30115 0
M  V30 2333 C 218.698 -5.28027 0.776068 0
M  V30 2334 O 218.921 -5.6904 -0.393661 0
M  V30 2335 O 217.855 -5.81835 1.54114 0
M  V30 2336 H 221.681 -2.51521 1.70209 0
M  V30 2337 H 219.266 -1.19928 0.890928 0
M  V30 2338 H 221.148 -4.21346 -0.067715 0
M  V30 2339 H 219.823 -3.17049 -0.652828 0
M  V30 2340 H 218.73 -3.35391 1.65722 0
M  V30 2341 H 220.063 -4.42139 2.16273 0
M  V30 2342 N 221.715 -0.905404 -1.28997 0
M  V30 2343 C 222.961 -0.535039 -1.95615 0
M  V30 2344 C 223.294 0.917404 -1.71165 0
M  V30 2345 O 222.569 1.65123 -1.02785 0
M  V30 2346 C 222.852 -0.834918 -3.50287 0
M  V30 2347 C 222.705 -2.33948 -3.84172 0
M  V30 2348 C 224.024 -0.325318 -4.38896 0
M  V30 2349 H 221.143 -0.195861 -0.710498 0
M  V30 2350 H 223.785 -1.13313 -1.52513 0
M  V30 2351 H 221.935 -0.325904 -3.87131 0
M  V30 2352 H 223.607 -2.91847 -3.57243 0
M  V30 2353 H 221.85 -2.79789 -3.31513 0
M  V30 2354 H 222.521 -2.49987 -4.92149 0
M  V30 2355 H 224.997 -0.761256 -4.09077 0
M  V30 2356 H 223.873 -0.564295 -5.45992 0
M  V30 2357 H 224.134 0.774144 -4.35269 0
M  V30 2358 N 223.193 1.4272 -0.668489 0
M  V30 2359 C 224.156 2.292 0.00448567 0
M  V30 2360 C 225.156 1.43001 0.735339 0
M  V30 2361 O 226.346 1.64461 0.57429 0
M  V30 2362 C 223.478 3.25375 1.01705 0
M  V30 2363 H 224.671 2.90199 -0.756608 0
M  V30 2364 H 222.224 1.50254 -0.430506 0
M  V30 2365 H 222.959 2.69301 1.80686 0
M  V30 2366 H 222.744 3.88944 0.496463 0
M  V30 2367 H 224.234 3.90245 1.48655 0
M  V30 2368 N 224.671 0.411399 1.52136 0
M  V30 2369 C 225.948 -0.222308 1.94333 0
M  V30 2370 C 226.328 -1.6242 1.34844 0
M  V30 2371 O 225.676 -2.22384 0.525145 0
M  V30 2372 C 225.886 -0.226345 3.48265 0
M  V30 2373 C 227.234 -0.444592 4.22266 0
M  V30 2374 O 228.258 -0.305602 3.54887 0
M  V30 2375 O 227.117 -0.718749 5.41753 0
M  V30 2376 H 224.211 -0.143907 0.814383 0
M  V30 2377 H 226.757 0.467506 1.63133 0
M  V30 2378 H 225.529 0.75475 3.83952 0
M  V30 2379 H 225.152 -0.960163 3.85832 0
M  V30 2380 N 226.149 -1.5696 0.141893 0
M  V30 2381 C 227.079 -2.19516 -0.795936 0
M  V30 2382 C 228.06 -1.14187 -1.26077 0
M  V30 2383 O 229.245 -1.42511 -1.31925 0
M  V30 2384 C 226.375 -2.81272 -2.03723 0
M  V30 2385 C 225.329 -3.92384 -1.70936 0
M  V30 2386 C 224.655 -4.41052 -3.02287 0
M  V30 2387 C 225.955 -5.13403 -0.959954 0
M  V30 2388 H 227.649 -2.98138 -0.274596 0
M  V30 2389 H 225.195 -1.43406 -0.130636 0
M  V30 2390 H 227.148 -3.237 -2.69808 0
M  V30 2391 H 225.872 -1.99973 -2.58221 0
M  V30 2392 H 224.531 -3.50566 -1.07232 0
M  V30 2393 H 224.179 -3.56582 -3.54765 0
M  V30 2394 H 223.879 -5.15993 -2.81114 0
M  V30 2395 H 225.403 -4.86146 -3.69451 0
M  V30 2396 H 226.817 -5.52706 -1.52279 0
M  V30 2397 H 225.214 -5.94073 -0.848357 0
M  V30 2398 H 226.284 -4.84875 0.0492434 0
M  V30 2399 N 227.627 0.131896 -1.57047 0
M  V30 2400 C 228.559 1.1878 -1.9602 0
M  V30 2401 C 229.572 1.38363 -0.857875 0
M  V30 2402 O 230.761 1.37666 -1.13623 0
M  V30 2403 C 227.861 2.55008 -2.23213 0
M  V30 2404 C 227.034 2.56201 -3.54513 0
M  V30 2405 C 226.093 3.7408 -3.70069 0
M  V30 2406 O 225.119 3.58258 -4.42312 0
M  V30 2407 N 226.321 4.92137 -3.07866 0
M  V30 2408 H 229.086 0.85639 -2.87204 0
M  V30 2409 H 226.647 0.321309 -1.5868 0
M  V30 2410 H 228.639 3.32404 -2.30846 0
M  V30 2411 H 227.209 2.80382 -1.3822 0
M  V30 2412 H 226.429 1.64613 -3.58185 0
M  V30 2413 H 227.717 2.54043 -4.4084 0
M  V30 2414 H 227.115 5.07895 -2.49116 0
M  V30 2415 H 225.672 5.67254 -3.21039 0
M  V30 2416 N 229.106 1.52395 0.401703 0
M  V30 2417 C 230.517 1.58899 0.980202 0
M  V30 2418 C 230.868 0.434032 1.91339 0
M  V30 2419 O 229.993 -0.444619 2.11783 0
M  V30 2420 C 230.588 2.87994 1.78451 0
M  V30 2421 C 229.147 2.96953 2.31292 0
M  V30 2422 C 228.294 2.53903 1.11483 0
M  V30 2423 H 231.245 1.57657 0.18168 0
M  V30 2424 H 231.266 2.73765 2.64259 0
M  V30 2425 H 230.778 3.72035 1.10506 0
M  V30 2426 H 228.879 2.17422 3.02586 0
M  V30 2427 H 228.992 4.01344 2.61649 0
M  V30 2428 H 227.356 2.07925 1.47104 0
M  V30 2429 H 228.139 3.40326 0.450928 0
M  V30 2430 N 230.584 -0.659388 1.43143 0
M  V30 2431 C 231.516 -1.7849 1.43784 0
M  V30 2432 C 232.529 -1.5932 0.334787 0
M  V30 2433 O 233.718 -1.68155 0.598842 0
M  V30 2434 C 230.818 -3.15828 1.22906 0
M  V30 2435 C 229.991 -3.61711 2.45934 0
M  V30 2436 C 229.05 -4.77831 2.20371 0
M  V30 2437 O 228.076 -4.87586 2.93681 0
M  V30 2438 N 229.278 -5.67611 1.21647 0
M  V30 2439 H 232.043 -1.7842 2.40803 0
M  V30 2440 H 229.604 -0.84302 1.3822 0
M  V30 2441 H 231.596 -3.91189 1.03697 0
M  V30 2442 H 230.166 -3.10707 0.343542 0
M  V30 2443 H 229.386 -2.76861 2.80609 0
M  V30 2444 H 230.674 -3.89112 3.27825 0
M  V30 2445 H 230.072 -5.62397 0.610449 0
M  V30 2446 H 228.629 -6.42719 1.08423 0
M  V30 2447 N 232.062 -1.29571 -0.897171 0
M  V30 2448 C 232.992 -1.17473 -2.01798 0
M  V30 2449 C 233.973 -0.068323 -1.69963 0
M  V30 2450 O 235.158 -0.248239 -1.92607 0
M  V30 2451 C 232.288 -0.853099 -3.36659 0
M  V30 2452 C 231.242 -1.9161 -3.82713 0
M  V30 2453 C 230.568 -1.44773 -5.14728 0
M  V30 2454 C 231.868 -3.32535 -4.02763 0
M  V30 2455 H 233.562 -2.11237 -2.12177 0
M  V30 2456 H 231.108 -1.01699 -1.01948 0
M  V30 2457 H 233.061 -0.755165 -4.14578 0
M  V30 2458 H 231.785 0.120236 -3.26379 0
M  V30 2459 H 230.444 -2.00346 -3.07013 0
M  V30 2460 H 230.092 -0.462995 -5.00865 0
M  V30 2461 H 229.792 -2.15865 -5.46513 0
M  V30 2462 H 231.316 -1.36334 -5.95185 0
M  V30 2463 H 232.73 -3.26626 -4.71156 0
M  V30 2464 H 231.127 -4.01607 -4.45905 0
M  V30 2465 H 232.197 -3.75326 -3.07016 0
M  V30 2466 N 233.54 1.10788 -1.12088 0
M  V30 2467 C 234.487 2.17025 -0.785407 0
M  V30 2468 C 235.457 1.64265 0.246191 0
M  V30 2469 O 236.642 1.90412 0.121584 0
M  V30 2470 C 233.782 3.44249 -0.242177 0
M  V30 2471 C 232.895 4.1098 -1.33115 0
M  V30 2472 C 232.03 5.25911 -0.747741 0
M  V30 2473 C 231.069 5.84538 -1.81609 0
M  V30 2474 N 230.206 6.90853 -1.25167 0
M  V30 2475 H 235.046 2.45066 -1.69548 0
M  V30 2476 H 232.583 1.20297 -0.846582 0
M  V30 2477 H 234.541 4.17101 0.0908026 0
M  V30 2478 H 233.171 3.16571 0.631072 0
M  V30 2479 H 232.223 3.36133 -1.78097 0
M  V30 2480 H 233.535 4.50601 -2.13917 0
M  V30 2481 H 232.689 6.056 -0.365216 0
M  V30 2482 H 231.428 4.87614 0.0915188 0
M  V30 2483 H 230.433 5.03522 -2.20785 0
M  V30 2484 H 231.658 6.249 -2.6585 0
M  V30 2485 H 229.604 6.54562 -0.434174 0
M  V30 2486 H 229.521 7.29166 -1.99633 0
M  V30 2487 H 230.789 7.7433 -0.896259 0
M  V30 2488 N 235.018 0.912232 1.28515 0
M  V30 2489 C 236.267 0.540504 1.94323 0
M  V30 2490 C 236.58 -0.920044 1.72611 0
M  V30 2491 O 237.786 -1.39986 2.32629 0
M  V30 2492 C 236.242 0.915803 3.48053 0
M  V30 2493 C 235.85 2.39598 3.78546 0
M  V30 2494 C 237.594 0.614588 4.20027 0
M  V30 2495 C 235.501 2.71148 5.25578 0
M  V30 2496 H 234.431 0.198418 0.727424 0
M  V30 2497 H 237.082 1.11094 1.46049 0
M  V30 2498 H 235.464 0.274168 3.9505 0
M  V30 2499 H 236.638 3.08422 3.42364 0
M  V30 2500 H 234.953 2.66749 3.1974 0
M  V30 2501 H 237.55 0.827002 5.28266 0
M  V30 2502 H 237.893 -0.447531 4.13887 0
M  V30 2503 H 238.426 1.21462 3.78803 0
M  V30 2504 H 235.165 3.76207 5.36794 0
M  V30 2505 H 234.685 2.0696 5.62963 0
M  V30 2506 H 236.364 2.58072 5.93302 0
M  V30 2507 N 236.496 -1.42363 0.676048 0
M  V30 2508 C 237.773 -1.95183 0.127726 0
M  V30 2509 C 238.153 -1.61641 -1.35777 0
M  V30 2510 O 237.501 -0.913216 -2.09458 0
M  V30 2511 C 237.711 -3.46721 0.398199 0
M  V30 2512 C 239.059 -4.23427 0.315383 0
M  V30 2513 O 240.083 -3.54649 0.332016 0
M  V30 2514 O 238.942 -5.45888 0.25865 0
M  V30 2515 H 236.036 -0.826992 0.00359427 0
M  V30 2516 H 238.582 -1.52184 0.750864 0
M  V30 2517 H 237.354 -3.64344 1.4272 0
M  V30 2518 H 236.977 -3.96769 -0.256885 0
M  V30 2519 N 237.974 -0.419461 -1.51915 0
M  V30 2520 C 238.921 0.400927 -2.27291 0
M  V30 2521 C 239.891 1.03224 -1.30131 0
M  V30 2522 O 241.076 1.05455 -1.59009 0
M  V30 2523 C 238.216 1.50603 -3.10504 0
M  V30 2524 C 237.329 0.89462 -4.22635 0
M  V30 2525 C 236.464 1.97328 -4.93189 0
M  V30 2526 C 235.503 1.33935 -5.97267 0
M  V30 2527 N 234.64 2.3586 -6.61298 0
M  V30 2528 H 239.48 -0.248251 -2.96964 0
M  V30 2529 H 237.017 -0.134266 -1.46486 0
M  V30 2530 H 238.975 2.15783 -3.57062 0
M  V30 2531 H 237.605 2.12509 -2.42981 0
M  V30 2532 H 236.657 0.131583 -3.80172 0
M  V30 2533 H 237.969 0.391641 -4.9726 0
M  V30 2534 H 237.123 2.70211 -5.43204 0
M  V30 2535 H 235.862 2.50994 -4.18155 0
M  V30 2536 H 234.867 0.595896 -5.46561 0
M  V30 2537 H 236.092 0.810252 -6.74249 0
M  V30 2538 H 234.038 2.88639 -5.89087 0
M  V30 2539 H 233.955 1.90403 -7.3163 0
M  V30 2540 H 235.223 3.08282 -7.15949 0
M  V30 2541 N 239.452 1.56882 -0.150215 0
M  V30 2542 C 240.415 2.1573 0.774157 0
M  V30 2543 C 241.415 1.0999 1.17298 0
M  V30 2544 O 242.605 1.35613 1.09338 0
M  V30 2545 C 239.737 2.72302 2.05096 0
M  V30 2546 H 240.93 2.98752 0.262201 0
M  V30 2547 H 238.483 1.55985 0.099248 0
M  V30 2548 H 239.218 1.92956 2.6065 0
M  V30 2549 H 239.003 3.49665 1.77416 0
M  V30 2550 H 240.493 3.17632 2.71109 0
M  V30 2551 N 240.93 -0.123565 1.57115 0
M  V30 2552 C 242.176 -0.833386 1.84885 0
M  V30 2553 C 242.509 -1.79742 0.735292 0
M  V30 2554 O 241.784 -1.92764 -0.25925 0
M  V30 2555 C 242.067 -1.5873 3.23228 0
M  V30 2556 C 241.92 -0.643183 4.45178 0
M  V30 2557 C 243.239 -2.54453 3.59085 0
M  V30 2558 H 240.358 -0.301518 0.6725 0
M  V30 2559 H 243 -0.097778 1.89748 0
M  V30 2560 H 241.15 -2.21438 3.19214 0
M  V30 2561 H 242.822 -0.0253015 4.61293 0
M  V30 2562 H 241.065 0.0456139 4.33776 0
M  V30 2563 H 241.736 -1.20724 5.38637 0
M  V30 2564 H 244.212 -2.01853 3.63861 0
M  V30 2565 H 243.088 -3.04238 4.5687 0
M  V30 2566 H 243.349 -3.36906 2.86264 0
M  V30 2567 N 242.408 -1.52605 -0.393616 0
M  V30 2568 C 243.371 -1.76415 -1.46323 0
M  V30 2569 C 244.371 -0.634126 -1.47768 0
M  V30 2570 O 245.561 -0.902142 -1.4902 0
M  V30 2571 C 242.693 -1.8607 -2.85641 0
M  V30 2572 H 243.886 -2.71916 -1.26498 0
M  V30 2573 H 241.439 -1.43257 -0.625073 0
M  V30 2574 H 242.174 -0.925378 -3.10817 0
M  V30 2575 H 241.959 -2.68235 -2.85993 0
M  V30 2576 H 243.449 -2.06179 -3.63153 0
M  V30 2577 N 243.887 0.651787 -1.4349 0
M  V30 2578 C 245.134 1.41167 -1.45183 0
M  V30 2579 C 245.462 1.94349 -0.0766601 0
M  V30 2580 O 244.717 1.72804 0.918555 0
M  V30 2581 C 245.016 2.60914 -2.44251 0
M  V30 2582 C 244.682 2.26142 -3.9009 0
M  V30 2583 C 243.344 2.16371 -4.2981 0
M  V30 2584 C 245.696 1.98334 -4.81989 0
M  V30 2585 C 243.024 1.7695 -5.5938 0
M  V30 2586 C 245.376 1.6041 -6.11924 0
M  V30 2587 C 244.04 1.49166 -6.5062 0
M  V30 2588 H 243.31 0.516566 -0.531263 0
M  V30 2589 H 245.957 0.741099 -1.76579 0
M  V30 2590 H 244.262 3.3311 -2.06265 0
M  V30 2591 H 245.959 3.19127 -2.42815 0
M  V30 2592 H 242.549 2.34658 -3.58655 0
M  V30 2593 H 246.733 2.04803 -4.52072 0
M  V30 2594 H 241.989 1.66831 -5.88198 0
M  V30 2595 H 246.163 1.37925 -6.82605 0
M  V30 2596 H 243.79 1.1839 -7.50925 0
M  V30 2597 N 245.365 1.30045 0.890287 0
M  V30 2598 C 246.297 1.11786 2.00091 0
M  V30 2599 C 247.31 0.0626307 1.62679 0
M  V30 2600 O 248.499 0.308112 1.75821 0
M  V30 2601 C 245.599 0.681527 3.31977 0
M  V30 2602 C 244.772 1.81735 3.97858 0
M  V30 2603 C 243.831 1.37045 5.08041 0
M  V30 2604 O 242.857 2.07677 5.29961 0
M  V30 2605 N 244.059 0.246525 5.79976 0
M  V30 2606 H 246.824 2.07441 2.16306 0
M  V30 2607 H 244.385 1.2211 1.06305 0
M  V30 2608 H 246.377 0.365675 4.03045 0
M  V30 2609 H 244.947 -0.182828 3.12065 0
M  V30 2610 H 244.167 2.30159 3.20032 0
M  V30 2611 H 245.455 2.57865 4.38615 0
M  V30 2612 H 244.853 -0.34215 5.64664 0
M  V30 2613 H 243.41 -0.00990438 6.51799 0
M  V30 2614 N 246.843 -1.10192 1.12674 0
M  V30 2615 C 247.791 -2.18694 0.792196 0
M  V30 2616 C 248.785 -1.67938 -0.222058 0
M  V30 2617 O 249.991 -1.79822 -0.0800074 0
M  V30 2618 H 246.366 -0.713223 0.238364 0
M  V30 2619 H 248.337 -2.44149 1.71564 0
M  V30 2620 C 247.086 -3.46682 0.265859 0
M  V30 2621 H 246.409 -3.86101 1.03761 0
M  V30 2622 H 247.849 -4.23942 0.0701128 0
M  V30 2623 C 246.308 -3.21506 -1.00675 0
M  V30 2624 O 246.838 -3.43408 -2.08408 0
M  V30 2625 N 245.044 -2.75158 -0.934692 0
M  V30 2626 H 244.591 -2.57535 -0.0578604 0
M  V30 2627 H 244.549 -2.58691 -1.7868 0
M  V30 2628 N 248.321 -0.919034 -1.28029 0
M  V30 2629 C 249.732 -0.600735 -1.76771 0
M  V30 2630 C 250.083 0.884024 -1.75156 0
M  V30 2631 O 249.208 1.69163 -1.34956 0
M  V30 2632 C 249.803 -1.08372 -3.21 0
M  V30 2633 C 248.362 -0.816248 -3.67443 0
M  V30 2634 C 247.509 -1.24742 -2.47658 0
M  V30 2635 H 250.46 -1.09974 -1.14418 0
M  V30 2636 H 250.481 -0.427512 -3.78091 0
M  V30 2637 H 249.993 -2.16437 -3.22144 0
M  V30 2638 H 248.094 0.250968 -3.71754 0
M  V30 2639 H 248.207 -1.4277 -4.57333 0
M  V30 2640 H 246.571 -0.666083 -2.45836 0
M  V30 2641 H 247.354 -2.33653 -2.51518 0
M  V30 2642 N 249.799 1.42003 -0.683588 0
M  V30 2643 C 250.731 2.29183 0.0283068 0
M  V30 2644 C 251.744 1.4415 0.756611 0
M  V30 2645 O 252.933 1.67779 0.609306 0
M  V30 2646 C 250.033 3.21765 1.06398 0
M  V30 2647 C 249.206 4.35496 0.407723 0
M  V30 2648 C 248.265 5.08737 1.34437 0
M  V30 2649 O 247.291 5.62948 0.841318 0
M  V30 2650 N 248.493 5.15075 2.67728 0
M  V30 2651 H 251.258 2.9092 -0.720105 0
M  V30 2652 H 248.819 1.53025 -0.528682 0
M  V30 2653 H 250.811 3.6763 1.69204 0
M  V30 2654 H 249.381 2.61418 1.71404 0
M  V30 2655 H 248.601 3.92165 -0.400012 0
M  V30 2656 H 249.889 5.08776 -0.0490956 0
M  V30 2657 H 249.287 4.72457 3.11129 0
M  V30 2658 H 247.844 5.64556 3.2576 0
M  V30 2659 N 251.277 0.427512 1.51691 0
M  V30 2660 C 252.505 -0.141191 2.06418 0
M  V30 2661 C 252.92 -1.37303 1.29589 0
M  V30 2662 O 252.277 -1.79059 0.352732 0
M  V30 2663 C 252.328 -0.473266 3.58389 0
M  V30 2664 O 252.049 0.709673 4.32314 0
M  V30 2665 C 253.55 -1.09371 4.29596 0
M  V30 2666 H 250.77 -0.0122747 0.670888 0
M  V30 2667 H 253.314 0.603764 1.95384 0
M  V30 2668 H 251.469 -1.16812 3.69369 0
M  V30 2669 H 251.883 0.42807 5.2275 0
M  V30 2670 H 253.357 -1.27613 5.37046 0
M  V30 2671 H 253.834 -2.072 3.87253 0
M  V30 2672 H 254.44 -0.43853 4.23033 0
M  V30 2673 N 252.755 -1.56801 0.158532 0
M  V30 2674 C 253.705 -2.13923 -0.788738 0
M  V30 2675 C 254.689 -1.07006 -1.2016 0
M  V30 2676 O 255.881 -1.33159 -1.1661 0
M  V30 2677 C 253.01 -2.77348 -2.02319 0
M  V30 2678 C 252.096 -3.91404 -1.6329 0
M  V30 2679 N 252.487 -4.9677 -0.951463 0
M  V30 2680 C 250.785 -4.02326 -1.92482 0
M  V30 2681 C 251.486 -5.76698 -0.761221 0
M  V30 2682 N 250.462 -5.27859 -1.29869 0
M  V30 2683 H 254.264 -2.92757 -0.258995 0
M  V30 2684 H 251.778 -1.62344 -0.0426055 0
M  V30 2685 H 253.775 -3.16639 -2.71192 0
M  V30 2686 H 252.435 -1.99991 -2.558 0
M  V30 2687 H 253.446 -5.14284 -0.610928 0
M  V30 2688 H 250.123 -3.36059 -2.47732 0
M  V30 2689 H 251.513 -6.71529 -0.223284 0
M  V30 2690 N 254.233 0.115231 -1.57178 0
M  V30 2691 C 255.479 0.82357 -1.85325 0
M  V30 2692 C 255.812 1.79349 -0.744814 0
M  V30 2693 O 255.087 1.92899 0.249024 0
M  V30 2694 C 255.37 1.57014 -3.24066 0
M  V30 2695 C 255.223 0.619565 -4.45513 0
M  V30 2696 C 256.542 2.52545 -3.60429 0
M  V30 2697 H 253.661 0.297948 -0.674089 0
M  V30 2698 H 256.303 0.0877138 -1.89797 0
M  V30 2699 H 254.453 2.19742 -3.20383 0
M  V30 2700 H 256.125 0.000837639 -4.613 0
M  V30 2701 H 254.368 -0.0686174 -4.33746 0
M  V30 2702 H 255.039 1.17866 -5.3927 0
M  V30 2703 H 257.515 1.9992 -3.64926 0
M  V30 2704 H 256.391 3.01811 -4.58477 0
M  V30 2705 H 256.652 3.35383 -2.88047 0
M  V30 2706 N 255.711 1.52812 0.385517 0
M  V30 2707 C 256.96 1.67249 1.12741 0
M  V30 2708 C 257.273 0.4205 1.91027 0
M  V30 2709 O 258.479 0.445064 2.67827 0
M  V30 2710 C 256.935 2.95583 2.05326 0
M  V30 2711 C 256.543 4.27974 1.32447 0
M  V30 2712 C 258.287 3.19386 2.7963 0
M  V30 2713 C 256.194 5.47412 2.23818 0
M  V30 2714 H 255.124 0.6231 0.424573 0
M  V30 2715 H 257.775 1.79309 0.389924 0
M  V30 2716 H 256.157 2.77277 2.82725 0
M  V30 2717 H 257.331 4.56844 0.602495 0
M  V30 2718 H 255.646 4.10459 0.700885 0
M  V30 2719 H 258.243 4.05801 3.48181 0
M  V30 2720 H 258.586 2.34604 3.43899 0
M  V30 2721 H 259.119 3.38274 2.09322 0
M  V30 2722 H 255.858 6.34612 1.64157 0
M  V30 2723 H 255.378 5.22849 2.93921 0
M  V30 2724 H 257.057 5.81423 2.83824 0
M  V30 2725 N 257.189 -0.644168 1.43834 0
M  V30 2726 C 258.099 -1.78563 1.52159 0
M  V30 2727 C 259.115 -1.69147 0.408069 0
M  V30 2728 O 260.291 -1.90156 0.663524 0
M  V30 2729 C 257.356 -3.14888 1.45073 0
M  V30 2730 C 256.417 -3.36034 2.6717 0
M  V30 2731 C 255.65 -4.65855 2.60413 0
M  V30 2732 O 255.873 -5.45805 1.65689 0
M  V30 2733 O 254.807 -4.88918 3.5106 0
M  V30 2734 H 258.633 -1.74494 2.48567 0
M  V30 2735 H 256.218 -0.80378 1.25935 0
M  V30 2736 H 258.1 -3.96179 1.43597 0
M  V30 2737 H 256.775 -3.19528 0.518037 0
M  V30 2738 H 255.682 -2.54472 2.74217 0
M  V30 2739 H 257.015 -3.36247 3.59442 0
M  V30 2740 N 258.668 -1.30515 -0.883378 0
M  V30 2741 C 259.616 -1.16941 -2.01066 0
M  V30 2742 C 260.61 -0.0809148 -1.69207 0
M  V30 2743 O 261.816 -0.241877 -1.78367 0
M  V30 2744 H 258.191 -0.361705 -0.659298 0
M  V30 2745 H 260.162 -2.12344 -2.09649 0
M  V30 2746 C 258.911 -0.879694 -3.36388 0
M  V30 2747 H 258.234 -1.70936 -3.61415 0
M  V30 2748 H 259.674 -0.82483 -4.159 0
M  V30 2749 C 258.133 0.417409 -3.34304 0
M  V30 2750 O 258.663 1.43843 -3.75063 0
M  V30 2751 N 256.869 0.429141 -2.87414 0
M  V30 2752 H 256.416 -0.402222 -2.5444 0
M  V30 2753 H 256.374 1.29696 -2.86403 0
M  V30 2754 N 260.146 1.09593 -1.13257 0
M  V30 2755 C 261.076 2.18214 -0.830946 0
M  V30 2756 C 262.057 1.68812 0.208966 0
M  V30 2757 O 263.242 1.9408 0.0682666 0
M  V30 2758 C 260.372 3.46051 -0.294296 0
M  V30 2759 C 259.326 4.08778 -1.26826 0
M  V30 2760 C 258.652 5.31419 -0.591449 0
M  V30 2761 C 259.952 4.51476 -2.62615 0
M  V30 2762 H 261.646 2.43703 -1.73923 0
M  V30 2763 H 259.192 1.17128 -0.837675 0
M  V30 2764 H 261.145 4.2134 -0.0709606 0
M  V30 2765 H 259.869 3.20079 0.649366 0
M  V30 2766 H 258.528 3.35505 -1.47756 0
M  V30 2767 H 258.176 5.01727 0.357633 0
M  V30 2768 H 257.876 5.74341 -1.24123 0
M  V30 2769 H 259.4 6.09433 -0.377355 0
M  V30 2770 H 260.814 5.17999 -2.45663 0
M  V30 2771 H 259.211 5.05277 -3.23752 0
M  V30 2772 H 260.281 3.63962 -3.20406 0
M  V30 2773 N 261.624 0.925811 1.2754 0
M  V30 2774 C 262.574 0.394488 2.24561 0
M  V30 2775 C 263.558 -0.500183 1.52928 0
M  V30 2776 O 264.75 -0.337936 1.73744 0
M  V30 2777 C 261.879 -0.353328 3.41477 0
M  V30 2778 C 260.965 0.557752 4.20416 0
M  V30 2779 N 261.356 1.67674 4.77199 0
M  V30 2780 C 259.654 0.360404 4.44541 0
M  V30 2781 C 260.355 2.24324 5.36706 0
M  V30 2782 N 259.331 1.53305 5.21535 0
M  V30 2783 H 263.133 1.2489 2.66045 0
M  V30 2784 H 260.647 0.779864 1.4245 0
M  V30 2785 H 262.644 -0.7509 4.10082 0
M  V30 2786 H 261.304 -1.20469 3.01525 0
M  V30 2787 H 262.315 2.05915 4.75204 0
M  V30 2788 H 258.992 -0.450454 4.15063 0
M  V30 2789 H 260.382 3.18521 5.91603 0
M  V30 2790 N 263.102 -1.41638 0.69111 0
M  V30 2791 C 264.065 -2.29178 0.0319786 0
M  V30 2792 C 265.065 -1.44153 -0.712496 0
M  V30 2793 O 266.255 -1.65354 -0.548053 0
M  V30 2794 C 263.387 -3.26952 -0.965161 0
M  V30 2795 H 264.58 -2.88959 0.802681 0
M  V30 2796 H 262.133 -1.4955 0.454356 0
M  V30 2797 H 262.868 -2.72142 -1.76378 0
M  V30 2798 H 262.653 -3.89685 -0.434522 0
M  V30 2799 H 264.143 -3.92561 -1.42428 0
M  V30 2800 N 264.58 -0.43555 -1.51462 0
M  V30 2801 C 265.543 0.365137 -2.26273 0
M  V30 2802 C 266.543 0.951227 -1.29647 0
M  V30 2803 O 267.733 0.825958 -1.53374 0
M  V30 2804 C 264.865 1.51645 -3.05314 0
M  V30 2805 H 266.058 -0.290474 -2.9849 0
M  V30 2806 H 263.611 -0.188676 -1.55157 0
M  V30 2807 H 264.346 2.20816 -2.3751 0
M  V30 2808 H 264.131 1.10238 -3.76284 0
M  V30 2809 H 265.621 2.08218 -3.61987 0
M  V30 2810 N 266.058 1.56714 -0.166846 0
M  V30 2811 C 267.021 2.16539 0.751232 0
M  V30 2812 C 268.021 1.11228 1.16125 0
M  V30 2813 O 269.211 1.36765 1.07894 0
M  V30 2814 C 266.343 2.74462 2.02196 0
M  V30 2815 H 267.536 2.99013 0.230499 0
M  V30 2816 H 265.089 1.56081 0.0826982 0
M  V30 2817 H 265.824 1.95709 2.58589 0
M  V30 2818 H 265.609 3.51527 1.73698 0
M  V30 2819 H 267.099 3.20489 2.67725 0
M  V30 2820 N 267.536 -0.106894 1.57237 0
M  V30 2821 C 268.766 -0.825191 1.89405 0
M  V30 2822 C 269.174 -1.73374 0.757496 0
M  V30 2823 O 268.517 -1.81552 -0.280115 0
M  V30 2824 C 268.579 -1.70102 3.1671 0
M  V30 2825 C 268.243 -0.965523 4.46684 0
M  V30 2826 C 269.24 -0.300741 5.19029 0
M  V30 2827 C 266.925 -0.943105 4.93367 0
M  V30 2828 C 268.919 0.376622 6.36286 0
M  V30 2829 C 266.606 -0.261949 6.10538 0
M  V30 2830 C 267.604 0.396748 6.81847 0
M  V30 2831 O 267.292 1.06701 7.96787 0
M  V30 2832 H 267.024 -0.241852 0.631255 0
M  V30 2833 H 269.578 -0.0921491 2.05193 0
M  V30 2834 H 267.808 -2.47601 2.97036 0
M  V30 2835 H 269.497 -2.29483 3.34802 0
M  V30 2836 H 270.263 -0.309599 4.84011 0
M  V30 2837 H 266.142 -1.44524 4.3776 0
M  V30 2838 H 269.686 0.891334 6.91882 0
M  V30 2839 H 265.583 -0.250896 6.45012 0
M  V30 2840 H 266.351 0.972707 8.127 0
M  V30 2841 N 269.014 -1.53014 -0.377408 0
M  V30 2842 C 270.43 -1.42523 -0.718281 0
M  V30 2843 C 270.63 -0.55487 -1.9371 0
M  V30 2844 O 269.686 -0.0327593 -2.52479 0
M  V30 2845 C 270.999 -2.85546 -0.942539 0
M  V30 2846 C 272.547 -2.95101 -1.04329 0
M  V30 2847 C 273.022 -4.3916 -1.3001 0
M  V30 2848 N 274.513 -4.42536 -1.36806 0
M  V30 2849 C 275.248 -5.51097 -1.58364 0
M  V30 2850 N 274.744 -6.69724 -1.77317 0
M  V30 2851 N 276.537 -5.38657 -1.60638 0
M  V30 2852 H 268.688 -2.08116 0.424426 0
M  V30 2853 H 270.951 -0.939352 0.127759 0
M  V30 2854 H 270.657 -3.51499 -0.118929 0
M  V30 2855 H 270.531 -3.28493 -1.85397 0
M  V30 2856 H 272.918 -2.29309 -1.85745 0
M  V30 2857 H 272.999 -2.55566 -0.109505 0
M  V30 2858 H 272.643 -5.05521 -0.490991 0
M  V30 2859 H 272.573 -4.76258 -2.24691 0
M  V30 2860 H 275.064 -3.57039 -1.23821 0
M  V30 2861 H 275.377 -7.48233 -1.93306 0
M  V30 2862 H 273.722 -6.72732 -1.74518 0
M  V30 2863 H 276.913 -4.44948 -1.45391 0
M  V30 2864 H 277.086 -6.2333 -1.77098 0
M  V30 2865 N 270.492 0.636531 -1.44174 0
M  V30 2866 C 271.44 1.76995 -1.50915 0
M  V30 2867 C 272.434 1.65053 -0.381295 0
M  V30 2868 O 273.64 1.71197 -0.55601 0
M  V30 2869 H 270.015 0.584247 -0.473455 0
M  V30 2870 H 271.986 1.68432 -2.4632 0
M  V30 2871 C 270.735 3.15314 -1.46534 0
M  V30 2872 H 270.058 3.25149 -2.32633 0
M  V30 2873 H 271.498 3.9453 -1.55312 0
M  V30 2874 C 269.957 3.3639 -0.185305 0
M  V30 2875 O 270.487 3.94699 0.746688 0
M  V30 2876 N 268.693 2.9046 -0.0901606 0
M  V30 2877 H 268.24 2.43193 -0.849416 0
M  V30 2878 H 268.198 3.04937 0.765553 0
M  V30 2879 N 271.97 1.30982 0.876444 0
M  V30 2880 C 272.933 1.18054 1.96459 0
M  V30 2881 C 273.933 0.109399 1.60427 0
M  V30 2882 O 275.123 0.358173 1.70478 0
M  V30 2883 C 272.255 0.810616 3.31122 0
M  V30 2884 H 273.448 2.14735 2.09354 0
M  V30 2885 H 271.001 1.145 1.06392 0
M  V30 2886 H 271.736 -0.155322 3.23928 0
M  V30 2887 H 271.521 1.58481 3.58645 0
M  V30 2888 H 273.011 0.743876 4.10921 0
M  V30 2889 N 273.449 -1.08991 1.13837 0
M  V30 2890 C 274.379 -2.17771 0.842507 0
M  V30 2891 C 275.36 -1.6892 -0.20001 0
M  V30 2892 O 276.545 -1.94113 -0.0579731 0
M  V30 2893 C 273.675 -3.4589 0.312644 0
M  V30 2894 C 272.629 -4.08099 1.28992 0
M  V30 2895 C 271.955 -5.31098 0.619623 0
M  V30 2896 C 273.255 -4.50077 2.65005 0
M  V30 2897 H 274.949 -2.42777 1.75213 0
M  V30 2898 H 272.495 -1.16682 0.843875 0
M  V30 2899 H 274.448 -4.21297 0.0933043 0
M  V30 2900 H 273.172 -3.20419 -0.632382 0
M  V30 2901 H 271.831 -3.34717 1.49533 0
M  V30 2902 H 271.479 -5.0191 -0.33102 0
M  V30 2903 H 271.179 -5.73674 1.27167 0
M  V30 2904 H 272.703 -6.09224 0.409669 0
M  V30 2905 H 274.117 -5.16688 2.48407 0
M  V30 2906 H 272.514 -5.03553 3.26427 0
M  V30 2907 H 273.584 -3.62257 3.22332 0
M  V30 2908 N 274.927 -0.932562 -1.27047 0
M  V30 2909 C 275.89 -0.440064 -2.24936 0
M  V30 2910 C 276.89 0.444071 -1.54547 0
M  V30 2911 O 278.08 0.244465 -1.72476 0
M  V30 2912 C 275.212 0.36678 -3.38921 0
M  V30 2913 H 276.405 -1.305 -2.70018 0
M  V30 2914 H 273.958 -0.713707 -1.39054 0
M  V30 2915 H 274.693 1.25033 -2.99228 0
M  V30 2916 H 274.478 -0.267204 -3.91188 0
M  V30 2917 H 275.968 0.701567 -4.11665 0
M  V30 2918 N 276.405 1.4127 -0.698611 0
M  V30 2919 C 277.353 2.32588 -0.023855 0
M  V30 2920 C 278.347 1.51128 0.765292 0
M  V30 2921 O 279.553 1.67043 0.670571 0
M  V30 2922 H 275.928 0.751918 0.0110871 0
M  V30 2923 H 277.899 2.87167 -0.811031 0
M  V30 2924 C 276.648 3.35947 0.896369 0
M  V30 2925 H 275.971 3.98684 0.298548 0
M  V30 2926 H 277.411 4.02376 1.33676 0
M  V30 2927 C 275.87 2.70076 2.01396 0
M  V30 2928 O 276.4 2.55093 3.10307 0
M  V30 2929 N 274.606 2.28724 1.79259 0
M  V30 2930 H 274.153 2.4111 0.906841 0
M  V30 2931 H 274.111 1.84986 2.54219 0
M  V30 2932 N 277.883 0.443576 1.51229 0
M  V30 2933 C 279.294 -0.0180867 1.86691 0
M  V30 2934 C 279.645 -1.41384 1.36033 0
M  V30 2935 O 278.77 -2.04291 0.713722 0
M  V30 2936 C 279.365 -0.039597 3.38777 0
M  V30 2937 C 277.924 -0.445692 3.73752 0
M  V30 2938 C 277.071 0.357584 2.74985 0
M  V30 2939 H 280.022 0.659138 1.44364 0
M  V30 2940 H 280.043 -0.847761 3.70936 0
M  V30 2941 H 279.555 0.976382 3.75617 0
M  V30 2942 H 277.656 -1.46704 3.42503 0
M  V30 2943 H 277.769 -0.166155 4.78812 0
M  V30 2944 H 276.133 -0.184973 2.54027 0
M  V30 2945 H 276.916 1.37256 3.14668 0
M  V30 2946 N 279.361 -1.56624 0.175154 0
M  V30 2947 C 280.291 -2.21155 -0.749195 0
M  V30 2948 C 281.272 -1.16836 -1.23626 0
M  V30 2949 O 282.457 -1.45277 -1.28873 0
M  V30 2950 C 279.587 -2.8553 -1.97711 0
M  V30 2951 C 278.541 -3.95921 -1.62575 0
M  V30 2952 C 277.867 -4.47365 -2.92864 0
M  V30 2953 C 279.167 -5.15323 -0.850838 0
M  V30 2954 H 280.861 -2.98653 -0.211295 0
M  V30 2955 H 278.407 -1.43651 -0.100188 0
M  V30 2956 H 280.36 -3.2935 -2.62881 0
M  V30 2957 H 279.084 -2.05406 -2.53921 0
M  V30 2958 H 277.743 -3.52762 -0.997719 0
M  V30 2959 H 277.391 -3.64027 -3.47122 0
M  V30 2960 H 277.091 -5.21839 -2.70106 0
M  V30 2961 H 278.615 -4.93873 -3.59056 0
M  V30 2962 H 280.029 -5.55812 -1.40521 0
M  V30 2963 H 278.426 -5.95739 -0.722154 0
M  V30 2964 H 279.496 -4.84661 0.152082 0
M  V30 2965 N 280.839 0.0985539 -1.57292 0
M  V30 2966 C 282.069 0.815135 -1.8984 0
M  V30 2967 C 282.477 1.7297 -0.766679 0
M  V30 2968 O 281.82 1.81698 0.270483 0
M  V30 2969 C 281.882 1.6842 -3.17608 0
M  V30 2970 C 281.546 0.94182 -4.4719 0
M  V30 2971 C 282.543 0.273212 -5.19182 0
M  V30 2972 C 280.228 0.916927 -4.9386 0
M  V30 2973 C 282.222 -0.410361 -6.36078 0
M  V30 2974 C 279.909 0.229567 -6.10669 0
M  V30 2975 C 280.907 -0.432902 -6.81627 0
M  V30 2976 O 280.595 -1.10925 -7.9621 0
M  V30 2977 H 280.327 0.238501 -0.632529 0
M  V30 2978 H 282.881 0.0812659 -2.05239 0
M  V30 2979 H 281.111 2.46022 -2.98345 0
M  V30 2980 H 282.8 2.27704 -3.36015 0
M  V30 2981 H 283.566 0.283927 -4.84168 0
M  V30 2982 H 279.445 1.42201 -4.3852 0
M  V30 2983 H 282.989 -0.928013 -6.914 0
M  V30 2984 H 278.886 0.216686 -6.45136 0
M  V30 2985 H 279.654 -1.01579 -8.12172 0
M  V30 2986 N 282.317 1.53212 0.369288 0
M  V30 2987 C 283.557 1.70915 1.12105 0
M  V30 2988 C 283.921 0.449444 1.86665 0
M  V30 2989 O 285.122 0.503105 2.6405 0
M  V30 2990 C 283.393 2.9222 2.05772 0
M  V30 2991 S 284.952 3.30609 2.88519 0
M  V30 2992 H 281.77 0.601445 0.379189 0
M  V30 2993 H 284.372 1.91306 0.402794 0
M  V30 2994 H 283.076 3.82103 1.49752 0
M  V30 2995 H 282.607 2.7422 2.82076 0
M  V30 2996 H 284.622 2.82333 4.08047 0
M  V30 2997 N 283.795 -0.628877 1.44509 0
M  V30 2998 C 285.206 -1.21054 1.42137 0
M  V30 2999 C 285.557 -1.95715 0.137881 0
M  V30 3000 O 284.682 -2.02554 -0.761645 0
M  V30 3001 C 285.277 -2.20189 2.57493 0
M  V30 3002 C 283.836 -2.73777 2.58308 0
M  V30 3003 C 282.983 -1.48813 2.33987 0
M  V30 3004 H 285.934 -0.41942 1.53057 0
M  V30 3005 H 285.955 -3.02833 2.30375 0
M  V30 3006 H 285.467 -1.6582 3.50892 0
M  V30 3007 H 283.568 -3.32142 1.68856 0
M  V30 3008 H 283.681 -3.19662 3.56865 0
M  V30 3009 H 282.045 -1.77024 1.83124 0
M  V30 3010 H 282.828 -0.963442 3.29504 0
M  V30 3011 N 285.273 -1.31445 -0.869486 0
M  V30 3012 C 286.55 -1.11795 -1.60503 0
M  V30 3013 C 286.93 0.327168 -2.08549 0
M  V30 3014 O 286.278 1.32135 -1.8642 0
M  V30 3015 C 286.488 -2.13258 -2.76265 0
M  V30 3016 C 287.836 -2.45805 -3.46215 0
M  V30 3017 O 288.86 -2.11688 -2.86473 0
M  V30 3018 O 287.719 -3.04228 -4.5399 0
M  V30 3019 H 284.813 -0.430421 -0.706163 0
M  V30 3020 H 287.359 -1.42925 -0.914907 0
M  V30 3021 H 286.131 -3.10461 -2.3818 0
M  V30 3022 H 285.754 -1.83035 -3.52964 0
M  V30 3023 N 286.751 1.08385 -1.14413 0
M  V30 3024 C 287.981 1.8425 -0.934644 0
M  V30 3025 C 288.389 1.81907 0.520234 0
M  V30 3026 O 287.732 1.22126 1.37226 0
M  V30 3027 C 287.794 3.32853 -1.35828 0
M  V30 3028 C 287.458 3.5893 -2.82875 0
M  V30 3029 C 288.455 3.53756 -3.80989 0
M  V30 3030 C 286.14 3.86934 -3.20293 0
M  V30 3031 C 288.134 3.76216 -5.14529 0
M  V30 3032 C 285.821 4.09047 -4.54008 0
M  V30 3033 C 286.819 4.03682 -5.50936 0
M  V30 3034 O 286.507 4.25214 -6.82238 0
M  V30 3035 H 286.239 0.588502 -0.332628 0
M  V30 3036 H 288.793 1.37792 -1.52324 0
M  V30 3037 H 287.023 3.8007 -0.713019 0
M  V30 3038 H 288.712 3.90154 -1.11957 0
M  V30 3039 H 289.478 3.32135 -3.53428 0
M  V30 3040 H 285.357 3.9023 -2.45442 0
M  V30 3041 H 288.901 3.71943 -5.90173 0
M  V30 3042 H 284.798 4.30151 -4.8129 0
M  V30 3043 H 285.566 4.42619 -6.88499 0
M  V30 3044 N 288.23 0.939286 1.26551 0
M  V30 3045 C 289.646 0.641304 1.46149 0
M  V30 3046 C 289.846 -0.805964 1.84679 0
M  V30 3047 O 288.902 -1.58278 1.96734 0
M  V30 3048 C 290.215 1.6011 2.54529 0
M  V30 3049 C 291.763 1.6106 2.68382 0
M  V30 3050 C 292.238 2.55765 3.79932 0
M  V30 3051 N 293.729 2.5404 3.87322 0
M  V30 3052 C 294.464 3.24004 4.73085 0
M  V30 3053 N 293.96 4.03388 5.63249 0
M  V30 3054 N 295.753 3.12965 4.66914 0
M  V30 3055 H 287.904 1.87478 0.998285 0
M  V30 3056 H 290.167 0.805559 0.499779 0
M  V30 3057 H 289.873 2.63412 2.33039 0
M  V30 3058 H 289.747 1.35171 3.52149 0
M  V30 3059 H 292.134 0.584835 2.89247 0
M  V30 3060 H 292.215 1.90053 1.71212 0
M  V30 3061 H 291.859 3.58458 3.5982 0
M  V30 3062 H 291.789 2.24063 4.76554 0
M  V30 3063 H 294.28 1.96396 3.22858 0
M  V30 3064 H 294.593 4.5373 6.25579 0
M  V30 3065 H 292.938 4.07489 5.63008 0
M  V30 3066 H 296.129 2.50432 3.95476 0
M  V30 3067 H 296.302 3.67759 5.33533 0
M  V30 3068 N 289.708 -1.40897 0.706093 0
M  V30 3069 C 290.957 -2.00284 0.238574 0
M  V30 3070 C 291.27 -1.56604 -1.17194 0
M  V30 3071 O 292.476 -2.08624 -1.73748 0
M  V30 3072 C 290.932 -3.57934 0.375623 0
M  V30 3073 C 290.54 -4.10591 1.79217 0
M  V30 3074 C 292.284 -4.24488 -0.0315857 0
M  V30 3075 C 290.191 -5.60712 1.88032 0
M  V30 3076 H 289.121 -0.749144 0.0854398 0
M  V30 3077 H 291.772 -1.61251 0.875813 0
M  V30 3078 H 290.154 -3.94622 -0.330042 0
M  V30 3079 H 291.328 -3.85301 2.52745 0
M  V30 3080 H 289.643 -3.56601 2.15 0
M  V30 3081 H 292.24 -5.34698 0.0136842 0
M  V30 3082 H 292.583 -4.02261 -1.072 0
M  V30 3083 H 293.116 -3.92873 0.624181 0
M  V30 3084 H 289.855 -5.87781 2.90161 0
M  V30 3085 H 289.375 -5.87896 1.18903 0
M  V30 3086 H 291.054 -6.25658 1.64805 0
M  V30 3087 N 291.186 -0.45159 -1.50991 0
M  V30 3088 C 292.434 0.109857 -2.01801 0
M  V30 3089 C 292.755 1.41958 -1.3369 0
M  V30 3090 O 292.025 1.9003 -0.475951 0
M  V30 3091 H 290.605 0.0435884 -0.745727 0
M  V30 3092 H 293.267 -0.597557 -1.85514 0
M  V30 3093 H 292.363 0.275489 -3.10882 0
M  V30 3094 N 292.664 1.56529 -0.183458 0
M  V30 3095 C 293.611 2.18546 0.742055 0
M  V30 3096 C 294.581 1.12912 1.2182 0
M  V30 3097 O 295.766 1.41115 1.28418 0
M  V30 3098 C 292.906 2.83977 1.96089 0
M  V30 3099 C 292.019 4.04105 1.52719 0
M  V30 3100 C 291.154 4.57427 2.70063 0
M  V30 3101 C 290.193 5.69938 2.23243 0
M  V30 3102 N 289.33 6.17717 3.33722 0
M  V30 3103 H 294.17 2.97284 0.206432 0
M  V30 3104 H 291.707 1.46823 0.0901571 0
M  V30 3105 H 293.665 3.20077 2.67594 0
M  V30 3106 H 292.295 2.07822 2.47002 0
M  V30 3107 H 291.347 3.73745 0.708436 0
M  V30 3108 H 292.659 4.85513 1.1436 0
M  V30 3109 H 291.813 4.95772 3.49708 0
M  V30 3110 H 290.552 3.75101 3.11689 0
M  V30 3111 H 289.557 5.31133 1.42048 0
M  V30 3112 H 290.782 6.54073 1.82661 0
M  V30 3113 H 288.728 5.38317 3.74902 0
M  V30 3114 H 288.645 6.94146 2.99495 0
M  V30 3115 H 289.913 6.60713 4.13616 0
M  V30 3116 N 294.142 -0.090211 1.57342 0
M  V30 3117 C 295.388 -0.793982 1.86611 0
M  V30 3118 C 295.721 -1.78142 0.773252 0
M  V30 3119 O 294.996 -1.93271 -0.218304 0
M  V30 3120 C 295.279 -1.51839 3.26523 0
M  V30 3121 C 295.132 -0.548609 4.46442 0
M  V30 3122 C 296.451 -2.46779 3.64401 0
M  V30 3123 H 293.57 -0.287186 0.678744 0
M  V30 3124 H 296.212 -0.0575076 1.89913 0
M  V30 3125 H 294.362 -2.14617 3.23839 0
M  V30 3126 H 296.034 0.0725513 4.61243 0
M  V30 3127 H 294.277 0.137614 4.33582 0
M  V30 3128 H 294.948 -1.09271 5.41076 0
M  V30 3129 H 297.424 -1.94089 3.68061 0
M  V30 3130 H 296.3 -2.94479 4.63221 0
M  V30 3131 H 296.561 -3.30758 2.93346 0
M  V30 3132 N 295.62 -1.53406 -0.361157 0
M  V30 3133 C 296.848 -1.73717 -1.12383 0
M  V30 3134 C 297.263 -0.468161 -1.82904 0
M  V30 3135 O 296.62 0.559198 -1.73722 0
M  V30 3136 C 296.671 -2.90558 -2.15078 0
M  V30 3137 O 296.392 -4.12549 -1.47428 0
M  V30 3138 C 297.893 -3.22777 -3.03858 0
M  V30 3139 H 295.113 -0.580896 -0.335858 0
M  V30 3140 H 297.657 -2.00167 -0.418728 0
M  V30 3141 H 295.812 -2.66489 -2.8118 0
M  V30 3142 H 296.226 -4.78009 -2.15887 0
M  V30 3143 H 297.7 -4.07927 -3.71887 0
M  V30 3144 H 298.177 -2.38329 -3.68912 0
M  V30 3145 H 298.783 -3.48787 -2.43367 0
M  V30 3146 N 297.098 0.621204 -1.44841 0
M  V30 3147 C 298.323 1.41244 -1.51871 0
M  V30 3148 C 298.748 1.87519 -0.147764 0
M  V30 3149 O 298.106 1.59334 0.865 0
M  V30 3150 C 298.154 2.60221 -2.49634 0
M  V30 3151 O 297.258 3.60395 -2.00473 0
M  V30 3152 H 296.599 0.42223 -0.512463 0
M  V30 3153 H 299.129 0.757305 -1.90069 0
M  V30 3154 H 299.139 3.0764 -2.67996 0
M  V30 3155 H 297.814 2.25887 -3.4921 0
M  V30 3156 H 296.391 3.19717 -1.91925 0
M  V30 3157 N 298.576 1.31904 0.862503 0
M  V30 3158 C 299.486 1.22161 2.00285 0
M  V30 3159 C 300.502 0.136785 1.73462 0
M  V30 3160 O 301.678 0.355994 1.98229 0
M  V30 3161 C 298.743 0.937093 3.33796 0
M  V30 3162 C 297.804 2.10957 3.73893 0
M  V30 3163 C 297.037 1.83853 5.01033 0
M  V30 3164 O 297.26 0.777274 5.65079 0
M  V30 3165 O 296.194 2.69741 5.38074 0
M  V30 3166 H 300.02 2.18008 2.11439 0
M  V30 3167 H 297.605 1.11716 0.991957 0
M  V30 3168 H 299.487 0.794583 4.13841 0
M  V30 3169 H 298.162 0.00871894 3.23699 0
M  V30 3170 H 297.069 2.30752 2.94456 0
M  V30 3171 H 298.402 3.02046 3.88625 0
M  V30 3172 N 300.054 -1.07777 1.14986 0
M  V30 3173 C 300.964 -2.18404 0.856546 0
M  V30 3174 C 301.98 -1.73211 -0.165485 0
M  V30 3175 O 303.156 -2.01399 0.00755219 0
M  V30 3176 C 300.221 -3.44977 0.34526 0
M  V30 3177 C 299.282 -4.0476 1.43065 0
M  V30 3178 C 298.515 -5.25291 0.943663 0
M  V30 3179 O 298.738 -5.70004 -0.212426 0
M  V30 3180 O 297.672 -5.76638 1.72547 0
M  V30 3181 H 301.498 -2.45978 1.78125 0
M  V30 3182 H 299.083 -1.17033 0.928631 0
M  V30 3183 H 300.965 -4.21348 0.0663671 0
M  V30 3184 H 299.64 -3.18965 -0.551631 0
M  V30 3185 H 298.547 -3.29949 1.76309 0
M  V30 3186 H 299.88 -4.35035 2.30229 0
M  V30 3187 N 301.532 -0.945985 -1.26051 0
M  V30 3188 C 302.462 -0.477172 -2.28572 0
M  V30 3189 C 303.443 0.472032 -1.63419 0
M  V30 3190 O 304.628 0.372853 -1.90587 0
M  V30 3191 C 301.758 0.253975 -3.4637 0
M  V30 3192 C 300.712 -0.609135 -4.23643 0
M  V30 3193 C 300.038 0.252252 -5.34105 0
M  V30 3194 C 301.338 -1.8829 -4.8718 0
M  V30 3195 H 303.032 -1.33402 -2.68038 0
M  V30 3196 H 300.578 -0.642904 -1.28852 0
M  V30 3197 H 302.531 0.593016 -4.17207 0
M  V30 3198 H 301.255 1.145 -3.05871 0
M  V30 3199 H 299.914 -0.931138 -3.54578 0
M  V30 3200 H 299.562 1.14278 -4.89846 0
M  V30 3201 H 299.262 -0.32188 -5.86718 0
M  V30 3202 H 300.786 0.586454 -6.07777 0
M  V30 3203 H 302.2 -1.61081 -5.50205 0
M  V30 3204 H 300.597 -2.40199 -5.49931 0
M  V30 3205 H 301.667 -2.59134 -4.09851 0
M  V30 3206 N 303.011 1.40521 -0.713556 0
M  V30 3207 C 303.961 2.27971 -0.036165 0
M  V30 3208 C 304.945 1.43151 0.734623 0
M  V30 3209 O 306.137 1.66261 0.607158 0
M  V30 3210 C 303.266 3.31661 0.886331 0
M  V30 3211 C 302.352 4.23955 0.110836 0
M  V30 3212 N 302.743 4.97641 -0.904847 0
M  V30 3213 C 301.041 4.44674 0.343692 0
M  V30 3214 C 301.742 5.65322 -1.37064 0
M  V30 3215 N 300.718 5.39162 -0.693168 0
M  V30 3216 H 304.52 2.82384 -0.814645 0
M  V30 3217 H 302.034 1.52948 -0.545963 0
M  V30 3218 H 304.031 3.93154 1.38692 0
M  V30 3219 H 302.691 2.78808 1.66421 0
M  V30 3220 H 303.702 5.01689 -1.28563 0
M  V30 3221 H 300.379 4.02801 1.09805 0
M  V30 3222 H 301.769 6.34359 -2.21447 0
M  V30 3223 N 304.489 0.459591 1.5075 0
M  V30 3224 C 305.719 -0.0972338 2.06371 0
M  V30 3225 C 306.127 -1.35074 1.32483 0
M  V30 3226 O 305.47 -1.79637 0.384226 0
M  V30 3227 C 305.532 -0.462759 3.56509 0
M  V30 3228 C 305.196 0.687084 4.51805 0
M  V30 3229 C 306.193 1.56578 4.95761 0
M  V30 3230 C 303.878 0.874144 4.94635 0
M  V30 3231 C 305.872 2.61604 5.81242 0
M  V30 3232 C 303.559 1.92765 5.79901 0
M  V30 3233 C 304.557 2.79697 6.23104 0
M  V30 3234 O 304.245 3.83235 7.06673 0
M  V30 3235 H 303.977 -0.00140687 0.675999 0
M  V30 3236 H 306.531 0.644011 1.95043 0
M  V30 3237 H 304.761 -1.25703 3.65699 0
M  V30 3238 H 306.45 -0.953323 3.94546 0
M  V30 3239 H 307.216 1.4329 4.6335 0
M  V30 3240 H 303.095 0.207006 4.60535 0
M  V30 3241 H 306.639 3.29489 6.14884 0
M  V30 3242 H 302.536 2.06064 6.11725 0
M  V30 3243 H 303.304 3.80084 7.24899 0
M  V30 3244 N 305.967 -1.56429 0.191757 0
M  V30 3245 C 307.214 -1.97485 -0.447891 0
M  V30 3246 C 307.542 -1.07852 -1.61859 0
M  V30 3247 O 306.797 -0.116903 -1.95351 0
M  V30 3248 C 307.096 -3.44449 -0.953384 0
M  V30 3249 C 306.762 -4.50781 0.103586 0
M  V30 3250 C 305.424 -4.79584 0.394023 0
M  V30 3251 C 307.776 -5.1471 0.819946 0
M  V30 3252 C 305.104 -5.69607 1.40585 0
M  V30 3253 C 307.456 -6.05827 1.8209 0
M  V30 3254 C 306.12 -6.32987 2.11857 0
M  V30 3255 H 305.39 -0.722648 -0.163895 0
M  V30 3256 H 308.037 -1.89322 0.28802 0
M  V30 3257 H 306.342 -3.49666 -1.76751 0
M  V30 3258 H 308.039 -3.73569 -1.45765 0
M  V30 3259 H 304.629 -4.28394 -0.132951 0
M  V30 3260 H 308.813 -4.92552 0.608789 0
M  V30 3261 H 304.069 -5.88926 1.64243 0
M  V30 3262 H 308.243 -6.54424 2.38123 0
M  V30 3263 H 305.87 -7.02544 2.90407 0
M  V30 3264 N 307.445 0.0818655 -1.57387 0
M  V30 3265 C 308.691 0.784074 -1.8703 0
M  V30 3266 C 309.024 1.77729 -0.782689 0
M  V30 3267 O 308.299 1.93384 0.208051 0
M  V30 3268 C 308.582 1.50105 -3.27323 0
M  V30 3269 C 308.435 0.524925 -4.46727 0
M  V30 3270 C 309.754 2.44843 -3.65705 0
M  V30 3271 H 306.873 0.283582 -0.680257 0
M  V30 3272 H 309.515 0.0474352 -1.89941 0
M  V30 3273 H 307.665 2.12897 -3.24972 0
M  V30 3274 H 309.337 -0.0970111 -4.61198 0
M  V30 3275 H 307.58 -0.160606 -4.33503 0
M  V30 3276 H 308.251 1.064 -5.41648 0
M  V30 3277 H 310.727 1.92135 -3.69085 0
M  V30 3278 H 309.603 2.92018 -4.64776 0
M  V30 3279 H 309.864 3.29197 -2.95096 0
M  V30 3280 N 308.923 1.53595 0.353017 0
M  V30 3281 C 309.855 1.77219 1.45348 0
M  V30 3282 C 310.868 0.65324 1.49119 0
M  V30 3283 O 312.057 0.929775 1.52373 0
M  V30 3284 C 309.157 1.84841 2.84055 0
M  V30 3285 C 308.33 3.14649 3.03833 0
M  V30 3286 C 307.389 3.13351 4.22727 0
M  V30 3287 O 306.415 3.87107 4.17297 0
M  V30 3288 N 307.617 2.35052 5.30783 0
M  V30 3289 H 310.382 2.72178 1.25457 0
M  V30 3290 H 307.943 1.52528 0.542833 0
M  V30 3291 H 309.935 1.81435 3.61751 0
M  V30 3292 H 308.505 0.971114 2.97133 0
M  V30 3293 H 307.725 3.31256 2.13689 0
M  V30 3294 H 309.013 4.00411 3.13925 0
M  V30 3295 H 308.411 1.74663 5.38061 0
M  V30 3296 H 306.968 2.37453 6.07009 0
M  V30 3297 N 310.401 -0.613514 1.45168 0
M  V30 3298 C 311.349 -1.74572 1.53712 0
M  V30 3299 C 312.343 -1.64426 0.407505 0
M  V30 3300 O 313.549 -1.70291 0.583176 0
M  V30 3301 H 309.924 -0.576641 0.48269 0
M  V30 3302 H 311.895 -1.64492 2.48968 0
M  V30 3303 C 310.644 -3.12943 1.51532 0
M  V30 3304 H 309.967 -3.21407 2.37776 0
M  V30 3305 H 311.407 -3.9201 1.61569 0
M  V30 3306 C 309.866 -3.36053 0.238798 0
M  V30 3307 O 310.396 -3.95837 -0.6838 0
M  V30 3308 N 308.602 -2.9028 0.136359 0
M  V30 3309 H 308.149 -2.41811 0.887999 0
M  V30 3310 H 308.107 -3.06116 -0.716944 0
M  V30 3311 N 311.879 -1.3236 -0.855495 0
M  V30 3312 C 312.829 -1.17809 -1.95205 0
M  V30 3313 C 313.813 -0.0852319 -1.60674 0
M  V30 3314 O 315.005 -0.311651 -1.74235 0
M  V30 3315 C 312.134 -0.902437 -3.31226 0
M  V30 3316 C 311.22 -2.03695 -3.7198 0
M  V30 3317 N 311.611 -3.28544 -3.84568 0
M  V30 3318 C 309.909 -1.93993 -4.016 0
M  V30 3319 C 310.61 -4.02847 -4.19629 0
M  V30 3320 N 309.586 -3.31138 -4.31102 0
M  V30 3321 H 313.388 -2.12462 -2.0307 0
M  V30 3322 H 310.902 -1.24127 -1.0472 0
M  V30 3323 H 312.899 -0.77915 -4.09554 0
M  V30 3324 H 311.559 0.0357267 -3.2468 0
M  V30 3325 H 312.57 -3.6349 -3.68911 0
M  V30 3326 H 309.247 -1.07733 -4.03361 0
M  V30 3327 H 310.637 -5.10506 -4.36845 0
M  V30 3328 N 313.357 1.07166 -1.15556 0
M  V30 3329 C 314.604 1.79798 -0.931604 0
M  V30 3330 C 314.932 1.8682 0.54115 0
M  V30 3331 O 314.187 1.34942 1.41736 0
M  V30 3332 C 314.486 3.24707 -1.49332 0
M  V30 3333 C 314.152 3.37781 -2.98688 0
M  V30 3334 C 312.814 3.41057 -3.39461 0
M  V30 3335 C 315.166 3.40424 -3.94665 0
M  V30 3336 C 312.494 3.4458 -4.74849 0
M  V30 3337 C 314.846 3.45485 -5.29927 0
M  V30 3338 C 313.51 3.47039 -5.70193 0
M  V30 3339 H 312.78 0.657928 -0.340898 0
M  V30 3340 H 315.427 1.26091 -1.44129 0
M  V30 3341 H 313.732 3.81208 -0.904859 0
M  V30 3342 H 315.429 3.79486 -1.29582 0
M  V30 3343 H 312.019 3.35932 -2.66172 0
M  V30 3344 H 316.203 3.37113 -3.64237 0
M  V30 3345 H 311.459 3.44083 -5.05388 0
M  V30 3346 H 315.633 3.46476 -6.04092 0
M  V30 3347 H 313.26 3.49522 -6.75084 0
M  V30 3348 N 314.835 0.952656 1.25548 0
M  V30 3349 C 316.063 0.623496 1.97282 0
M  V30 3350 C 316.478 -0.803987 1.70826 0
M  V30 3351 O 315.835 -1.53755 0.983147 0
M  V30 3352 C 315.886 0.870209 3.5087 0
M  V30 3353 O 315.607 2.24156 3.76412 0
M  V30 3354 C 317.108 0.553164 4.39835 0
M  V30 3355 H 314.328 0.233931 0.628902 0
M  V30 3356 H 316.872 1.27649 1.59768 0
M  V30 3357 H 315.027 0.263652 3.86502 0
M  V30 3358 H 315.441 2.31021 4.70882 0
M  V30 3359 H 316.915 0.776342 5.46513 0
M  V30 3360 H 317.392 -0.512215 4.36203 0
M  V30 3361 H 317.998 1.13896 4.09766 0
M  V30 3362 N 316.313 -1.40141 0.720998 0
M  V30 3363 C 317.538 -2.05618 0.271258 0
M  V30 3364 C 317.963 -1.53978 -1.08039 0
M  V30 3365 O 317.321 -0.677463 -1.68167 0
M  V30 3366 C 317.369 -3.59609 0.267197 0
M  V30 3367 O 316.473 -4.05526 -0.749814 0
M  V30 3368 H 315.814 -0.651904 0.126162 0
M  V30 3369 H 318.344 -1.79439 0.982997 0
M  V30 3370 H 318.354 -4.0786 0.106744 0
M  V30 3371 H 317.029 -3.96559 1.25354 0
M  V30 3372 H 315.606 -3.68722 -0.556644 0
M  V30 3373 N 317.792 -0.46758 -1.50504 0
M  V30 3374 C 318.755 0.317059 -2.26996 0
M  V30 3375 C 319.755 0.923513 -1.31635 0
M  V30 3376 O 320.945 0.793239 -1.55091 0
M  V30 3377 C 318.077 1.45134 -3.08462 0
M  V30 3378 H 319.27 -0.353723 -2.97807 0
M  V30 3379 H 316.823 -0.221545 -1.54722 0
M  V30 3380 H 317.558 2.15728 -2.4214 0
M  V30 3381 H 317.343 1.02232 -3.78538 0
M  V30 3382 H 318.833 2.00493 -3.66323 0
M  V30 3383 N 319.27 1.56325 -0.20005 0
M  V30 3384 C 320.686 1.58839 0.155716 0
M  V30 3385 C 320.886 1.21636 1.60645 0
M  V30 3386 O 319.942 0.941437 2.34293 0
M  V30 3387 C 321.255 3.0032 -0.151124 0
M  V30 3388 C 322.803 3.12866 -0.0916284 0
M  V30 3389 C 323.278 4.56488 -0.371845 0
M  V30 3390 N 324.769 4.62089 -0.320641 0
M  V30 3391 C 325.504 5.71116 -0.511243 0
M  V30 3392 N 325 6.88592 -0.762461 0
M  V30 3393 N 326.793 5.60335 -0.445157 0
M  V30 3394 H 318.944 1.78788 -1.14668 0
M  V30 3395 H 321.207 0.829996 -0.458051 0
M  V30 3396 H 320.913 3.32117 -1.15721 0
M  V30 3397 H 320.787 3.73257 0.543986 0
M  V30 3398 H 323.174 2.80878 0.905065 0
M  V30 3399 H 323.255 2.42304 -0.81989 0
M  V30 3400 H 322.899 4.89189 -1.36588 0
M  V30 3401 H 322.829 5.25246 0.377362 0
M  V30 3402 H 325.32 3.77665 -0.13329 0
M  V30 3403 H 325.633 7.67581 -0.896576 0
M  V30 3404 H 323.978 6.90387 -0.799412 0
M  V30 3405 H 327.169 4.67436 -0.249278 0
M  V30 3406 H 327.342 6.45243 -0.597116 0
M  V30 3407 N 320.748 -0.0735177 1.57428 0
M  V30 3408 C 321.681 -1.11932 1.98863 0
M  V30 3409 C 322.659 -1.37666 0.865266 0
M  V30 3410 O 323.843 -1.51068 1.12742 0
M  V30 3411 C 320.97 -2.46403 2.32386 0
M  V30 3412 C 320.016 -2.36815 3.54713 0
M  V30 3413 S 320.849 -1.76392 5.05614 0
M  V30 3414 C 322.005 -3.12444 5.42337 0
M  V30 3415 H 322.238 -0.766212 2.87257 0
M  V30 3416 H 319.771 -0.281987 1.51803 0
M  V30 3417 H 321.729 -3.23755 2.52375 0
M  V30 3418 H 320.39 -2.78876 1.44524 0
M  V30 3419 H 319.583 -3.35977 3.7568 0
M  V30 3420 H 319.185 -1.67598 3.34345 0
M  V30 3421 H 321.477 -4.08753 5.40303 0
M  V30 3422 H 322.42 -2.96258 6.43146 0
M  V30 3423 H 322.828 -3.1297 4.69798 0
M  V30 3424 N 322.226 -1.5378 -0.344866 0
M  V30 3425 C 323.189 -1.80981 -1.40637 0
M  V30 3426 C 324.189 -0.680816 -1.45676 0
M  V30 3427 O 325.379 -0.949095 -1.46075 0
M  V30 3428 C 322.511 -1.95063 -2.79577 0
M  V30 3429 H 323.704 -2.75803 -1.17783 0
M  V30 3430 H 321.257 -1.45173 -0.579181 0
M  V30 3431 H 321.992 -1.02379 -3.07716 0
M  V30 3432 H 321.777 -2.77198 -2.77315 0
M  V30 3433 H 323.267 -2.17629 -3.56409 0
M  V30 3434 N 323.704 0.605807 -1.45491 0
M  V30 3435 C 324.634 1.72709 -1.57143 0
M  V30 3436 C 325.615 1.6476 -0.422884 0
M  V30 3437 O 326.8 1.83132 -0.646247 0
M  V30 3438 C 323.93 3.11316 -1.53948 0
M  V30 3439 C 322.884 3.34077 -2.67537 0
M  V30 3440 C 322.21 4.72975 -2.49397 0
M  V30 3441 C 323.51 3.24158 -4.09535 0
M  V30 3442 H 325.204 1.63214 -2.51001 0
M  V30 3443 H 322.75 0.78379 -1.208 0
M  V30 3444 H 324.703 3.89557 -1.60696 0
M  V30 3445 H 323.427 3.21655 -0.566205 0
M  V30 3446 H 322.086 2.58227 -2.6022 0
M  V30 3447 H 321.734 4.8005 -1.50205 0
M  V30 3448 H 321.434 4.8916 -3.25571 0
M  V30 3449 H 322.958 5.53414 -2.58002 0
M  V30 3450 H 324.372 3.92271 -4.18086 0
M  V30 3451 H 322.769 3.51872 -4.86113 0
M  V30 3452 H 323.839 2.2157 -4.31317 0
M  V30 3453 N 325.182 1.32811 0.848464 0
M  V30 3454 C 326.431 1.23075 1.59798 0
M  V30 3455 C 326.744 -0.204419 1.94529 0
M  V30 3456 O 327.95 -0.423701 2.68173 0
M  V30 3457 C 326.406 2.15594 2.88179 0
M  V30 3458 C 326.014 3.64228 2.60849 0
M  V30 3459 C 327.758 2.14709 3.66197 0
M  V30 3460 C 325.665 4.48689 3.85269 0
M  V30 3461 H 324.595 0.457091 0.599653 0
M  V30 3462 H 327.246 1.57813 0.936342 0
M  V30 3463 H 325.628 1.73778 3.55833 0
M  V30 3464 H 326.802 4.14424 2.01467 0
M  V30 3465 H 325.117 3.67306 1.96151 0
M  V30 3466 H 327.714 2.75046 4.58534 0
M  V30 3467 H 328.057 1.13966 4.00397 0
M  V30 3468 H 328.59 2.54837 3.05455 0
M  V30 3469 H 325.329 5.5027 3.56207 0
M  V30 3470 H 324.849 4.03241 4.44024 0
M  V30 3471 H 326.528 4.62006 4.52946 0
M  V30 3472 N 326.66 -1.06551 1.16123 0
M  V30 3473 C 327.908 -1.78947 0.939267 0
M  V30 3474 C 328.229 -1.87532 -0.534476 0
M  V30 3475 O 327.499 -1.38211 -1.38833 0
M  V30 3476 H 326.079 -0.662807 0.344523 0
M  V30 3477 H 328.741 -1.28725 1.46342 0
M  V30 3478 H 327.837 -2.81117 1.35572 0
M  V30 3479 N 328.138 -0.959301 -1.25041 0
M  V30 3480 C 329.068 -0.501388 -2.28053 0
M  V30 3481 C 330.049 0.454673 -1.63911 0
M  V30 3482 O 331.234 0.352618 -1.90972 0
M  V30 3483 C 328.364 0.217224 -3.4662 0
M  V30 3484 C 327.318 -0.654034 -4.22973 0
M  V30 3485 C 326.644 0.195589 -5.34342 0
M  V30 3486 C 327.944 -1.93447 -4.85155 0
M  V30 3487 H 329.638 -1.36238 -2.66608 0
M  V30 3488 H 327.184 -0.656534 -1.28163 0
M  V30 3489 H 329.137 0.548732 -4.17812 0
M  V30 3490 H 327.861 1.1125 -3.07068 0
M  V30 3491 H 326.52 -0.968693 -3.5357 0
M  V30 3492 H 326.168 1.09076 -4.91031 0
M  V30 3493 H 325.868 -0.384091 -5.86343 0
M  V30 3494 H 327.392 0.521958 -6.08365 0
M  V30 3495 H 328.806 -1.66908 -5.48466 0
M  V30 3496 H 327.203 -2.46018 -5.47353 0
M  V30 3497 H 328.273 -2.63466 -4.07079 0
M  V30 3498 N 329.616 1.39756 -0.72842 0
M  V30 3499 C 330.864 2.00248 -0.272946 0
M  V30 3500 C 331.185 1.58077 1.14178 0
M  V30 3501 O 330.455 0.826014 1.77634 0
M  V30 3502 H 329.035 0.740554 -0.0979247 0
M  V30 3503 H 331.697 1.70903 -0.936912 0
M  V30 3504 H 330.793 3.10495 -0.316142 0
M  V30 3505 N 331.094 0.475555 1.50254 0
M  V30 3506 C 332.34 -0.0780073 2.0265 0
M  V30 3507 C 332.673 -1.38968 1.35652 0
M  V30 3508 O 331.948 -1.8839 0.483691 0
M  V30 3509 C 332.231 -0.257161 3.59181 0
M  V30 3510 C 332.084 1.07585 4.36744 0
M  V30 3511 C 333.403 -1.00965 4.28362 0
M  V30 3512 H 330.522 -0.0268758 0.73651 0
M  V30 3513 H 333.164 0.622015 1.7953 0
M  V30 3514 H 331.314 -0.853412 3.79011 0
M  V30 3515 H 332.986 1.70902 4.28474 0
M  V30 3516 H 331.229 1.6714 4.00308 0
M  V30 3517 H 331.9 0.904088 5.44546 0
M  V30 3518 H 334.376 -0.504214 4.13034 0
M  V30 3519 H 333.252 -1.10381 5.37687 0
M  V30 3520 H 333.513 -2.04731 3.91839 0
M  V30 3521 N 332.573 -1.56217 0.208337 0
M  V30 3522 C 333.798 -2.02782 -0.435222 0
M  V30 3523 C 334.223 -1.08738 -1.53485 0
M  V30 3524 O 333.581 -0.0731855 -1.81152 0
M  V30 3525 C 333.629 -3.47687 -0.956335 0
M  V30 3526 O 332.733 -3.56773 -2.06849 0
M  V30 3527 H 332.074 -0.656403 -0.100158 0
M  V30 3528 H 334.604 -2.02033 0.3231 0
M  V30 3529 H 334.614 -3.87745 -1.26955 0
M  V30 3530 H 333.289 -4.15624 -0.15143 0
M  V30 3531 H 331.866 -3.28597 -1.76292 0
M  V30 3532 N 334.051 0.0651679 -1.57465 0
M  V30 3533 C 335.001 1.0838 -2.00594 0
M  V30 3534 C 335.985 1.34106 -0.889071 0
M  V30 3535 O 337.177 1.34295 -1.15299 0
M  V30 3536 C 334.306 2.39565 -2.45894 0
M  V30 3537 C 333.392 2.17085 -3.64328 0
M  V30 3538 N 333.783 1.64553 -4.78285 0
M  V30 3539 C 332.081 2.4753 -3.71006 0
M  V30 3540 C 332.782 1.57042 -5.60101 0
M  V30 3541 N 331.758 2.03328 -5.04141 0
M  V30 3542 H 335.56 0.671062 -2.86136 0
M  V30 3543 H 333.074 0.27213 -1.60104 0
M  V30 3544 H 335.071 3.13308 -2.75034 0
M  V30 3545 H 333.731 2.81549 -1.61741 0
M  V30 3546 H 334.742 1.33323 -5.00445 0
M  V30 3547 H 331.419 2.92835 -2.9758 0
M  V30 3548 H 332.809 1.17223 -6.61595 0
M  V30 3549 N 335.529 1.53961 0.336706 0
M  V30 3550 C 336.94 1.62914 0.911925 0
M  V30 3551 C 337.291 0.514795 1.89326 0
M  V30 3552 O 336.416 -0.354395 2.13478 0
M  V30 3553 C 337.011 2.95304 1.66076 0
M  V30 3554 C 335.57 3.06496 2.18489 0
M  V30 3555 C 334.717 2.58403 1.00613 0
M  V30 3556 H 337.668 1.58285 0.114649 0
M  V30 3557 H 337.689 2.84727 2.5241 0
M  V30 3558 H 337.201 3.76387 0.946276 0
M  V30 3559 H 335.302 2.3006 2.93092 0
M  V30 3560 H 335.415 4.1208 2.44391 0
M  V30 3561 H 333.779 2.13977 1.38152 0
M  V30 3562 H 334.562 3.41932 0.306179 0
M  V30 3563 N 337.007 -0.598083 1.45811 0
M  V30 3564 C 338.253 -1.35882 1.50545 0
M  V30 3565 C 338.586 -1.93616 0.150445 0
M  V30 3566 O 337.861 -1.75604 -0.83628 0
M  V30 3567 C 338.144 -2.49966 2.59208 0
M  V30 3568 C 337.997 -1.97367 4.04186 0
M  V30 3569 C 339.316 -3.52068 2.64076 0
M  V30 3570 H 336.435 -0.492717 0.548087 0
M  V30 3571 H 339.077 -0.673319 1.77669 0
M  V30 3572 H 337.227 -3.08443 2.3621 0
M  V30 3573 H 338.899 -1.43466 4.38423 0
M  V30 3574 H 337.142 -1.283 4.14393 0
M  V30 3575 H 337.813 -2.79649 4.75921 0
M  V30 3576 H 340.289 -3.03448 2.84708 0
M  V30 3577 H 339.165 -4.2937 3.41954 0
M  V30 3578 H 339.426 -4.08304 1.69531 0
M  V30 3579 N 338.485 -1.33259 -0.841409 0
M  V30 3580 C 339.415 -1.25926 -1.96634 0
M  V30 3581 C 340.396 -0.140349 -1.6952 0
M  V30 3582 O 341.581 -0.329707 -1.91381 0
M  V30 3583 C 338.711 -0.99512 -3.32738 0
M  V30 3584 C 337.665 -2.0767 -3.74242 0
M  V30 3585 C 336.991 -1.66474 -5.08125 0
M  V30 3586 C 338.291 -3.49318 -3.88297 0
M  V30 3587 H 339.985 -2.20046 -2.03027 0
M  V30 3588 H 337.531 -1.05931 -0.975425 0
M  V30 3589 H 339.484 -0.930323 -4.11002 0
M  V30 3590 H 338.208 -0.0183004 -3.26595 0
M  V30 3591 H 336.867 -2.13187 -2.98239 0
M  V30 3592 H 336.515 -0.675012 -4.9845 0
M  V30 3593 H 336.215 -2.3885 -5.36865 0
M  V30 3594 H 337.739 -1.61455 -5.88867 0
M  V30 3595 H 339.153 -3.46316 -4.56879 0
M  V30 3596 H 337.55 -4.20158 -4.28471 0
M  V30 3597 H 338.62 -3.8801 -2.9082 0
M  V30 3598 N 339.963 1.05934 -1.16686 0
M  V30 3599 C 340.91 2.13499 -0.876748 0
M  V30 3600 C 341.88 1.65162 0.176299 0
M  V30 3601 O 343.065 1.90757 0.0407143 0
M  V30 3602 C 340.205 3.42912 -0.387967 0
M  V30 3603 C 339.318 4.04964 -1.50426 0
M  V30 3604 C 338.453 5.22266 -0.970125 0
M  V30 3605 C 337.492 5.76309 -2.06238 0
M  V30 3606 N 336.629 6.84922 -1.54356 0
M  V30 3607 H 341.469 2.37654 -1.7979 0
M  V30 3608 H 339.006 1.16598 -0.896843 0
M  V30 3609 H 340.964 4.17111 -0.086186 0
M  V30 3610 H 339.594 3.18963 0.496235 0
M  V30 3611 H 338.646 3.28277 -1.92193 0
M  V30 3612 H 339.958 4.41122 -2.32836 0
M  V30 3613 H 339.112 6.03506 -0.621743 0
M  V30 3614 H 337.851 4.87564 -0.115377 0
M  V30 3615 H 336.856 4.93704 -2.41942 0
M  V30 3616 H 338.081 6.13062 -2.92115 0
M  V30 3617 H 336.027 6.52131 -0.711406 0
M  V30 3618 H 335.944 7.20043 -2.30379 0
M  V30 3619 H 337.212 7.69832 -1.22387 0
M  V30 3620 N 341.441 0.965919 1.2453 0
M  V30 3621 C 342.373 0.452465 2.2469 0
M  V30 3622 C 343.386 -0.437821 1.56802 0
M  V30 3623 O 344.575 -0.244283 1.76821 0
M  V30 3624 C 341.675 -0.366258 3.36915 0
M  V30 3625 C 340.848 0.513701 4.34373 0
M  V30 3626 C 339.907 -0.248716 5.25612 0
M  V30 3627 O 338.933 0.356745 5.68081 0
M  V30 3628 N 340.135 -1.53877 5.59734 0
M  V30 3629 H 342.9 1.31361 2.69378 0
M  V30 3630 H 340.461 0.837541 1.38553 0
M  V30 3631 H 342.453 -0.884297 3.94921 0
M  V30 3632 H 341.023 -1.12832 2.91526 0
M  V30 3633 H 340.243 1.21273 3.75082 0
M  V30 3634 H 341.531 1.11391 4.96457 0
M  V30 3635 H 340.929 -2.05243 5.27154 0
M  V30 3636 H 339.486 -2.00254 6.20275 0
M  V30 3637 N 342.919 -1.39368 0.735821 0
M  V30 3638 C 344.165 -2.00794 0.284544 0
M  V30 3639 C 344.498 -1.58255 -1.12557 0
M  V30 3640 O 343.773 -0.811819 -1.76748 0
M  V30 3641 C 344.056 -3.58011 0.387337 0
M  V30 3642 C 343.909 -4.10566 1.83728 0
M  V30 3643 C 345.228 -4.395 -0.22975 0
M  V30 3644 H 342.347 -0.729501 0.104866 0
M  V30 3645 H 344.989 -1.65564 0.93213 0
M  V30 3646 H 343.139 -3.88154 -0.164006 0
M  V30 3647 H 344.811 -3.91139 2.44556 0
M  V30 3648 H 343.054 -3.64095 2.35833 0
M  V30 3649 H 343.725 -5.19702 1.86047 0
M  V30 3650 H 346.201 -4.15406 0.240257 0
M  V30 3651 H 345.077 -5.48752 -0.127485 0
M  V30 3652 H 345.338 -4.22062 -1.3159 0
M  V30 3653 N 344.397 -0.483516 -1.5 0
M  V30 3654 C 345.36 0.292965 -2.2732 0
M  V30 3655 C 346.36 0.909499 -1.32608 0
M  V30 3656 O 347.55 0.776745 -1.55924 0
M  V30 3657 C 344.682 1.41854 -3.09984 0
M  V30 3658 H 345.875 -0.385289 -2.97415 0
M  V30 3659 H 343.428 -0.237942 -1.54478 0
M  V30 3660 H 344.163 2.13148 -2.44414 0
M  V30 3661 H 343.948 0.982114 -3.79601 0
M  V30 3662 H 345.438 1.96597 -3.68429 0
M  V30 3663 N 345.875 1.56104 -0.216619 0
M  V30 3664 C 346.785 2.23694 0.706982 0
M  V30 3665 C 347.801 1.24295 1.21765 0
M  V30 3666 O 348.977 1.57094 1.2603 0
M  V30 3667 C 346.042 2.8998 1.90033 0
M  V30 3668 C 345.103 4.04708 1.43213 0
M  V30 3669 C 344.336 4.67824 2.56859 0
M  V30 3670 O 344.559 4.29913 3.74874 0
M  V30 3671 O 343.493 5.56905 2.28343 0
M  V30 3672 H 347.319 3.03272 0.161235 0
M  V30 3673 H 344.904 1.49394 0.0136177 0
M  V30 3674 H 346.786 3.31837 2.59735 0
M  V30 3675 H 345.461 2.13365 2.43428 0
M  V30 3676 H 344.368 3.6743 0.70327 0
M  V30 3677 H 345.701 4.83051 0.944615 0
M  V30 3678 N 347.353 -0.0568162 1.57498 0
M  V30 3679 C 348.285 -1.09292 2.01464 0
M  V30 3680 C 349.298 -1.34112 0.922913 0
M  V30 3681 O 350.487 -1.32089 1.20062 0
M  V30 3682 C 347.587 -2.44068 2.35125 0
M  V30 3683 C 346.76 -2.38995 3.66333 0
M  V30 3684 C 345.819 -3.55997 3.87495 0
M  V30 3685 O 344.845 -3.36746 4.58901 0
M  V30 3686 N 346.047 -4.76888 3.30996 0
M  V30 3687 H 348.812 -0.718386 2.90963 0
M  V30 3688 H 346.373 -0.245235 1.60032 0
M  V30 3689 H 348.365 -3.21011 2.46443 0
M  V30 3690 H 346.935 -2.73468 1.5144 0
M  V30 3691 H 346.155 -1.47336 3.65631 0
M  V30 3692 H 347.443 -2.3272 4.52458 0
M  V30 3693 H 346.841 -4.95431 2.73065 0
M  V30 3694 H 345.398 -5.51291 3.47738 0
M  V30 3695 N 348.832 -1.54138 -0.328536 0
M  V30 3696 C 350.079 -1.72105 -1.06706 0
M  V30 3697 C 350.407 -0.492111 -1.88171 0
M  V30 3698 O 349.662 0.526153 -1.88494 0
M  V30 3699 C 349.961 -2.9457 -2.02393 0
M  V30 3700 C 349.627 -4.29544 -1.37122 0
M  V30 3701 C 348.289 -4.6624 -1.19052 0
M  V30 3702 C 350.641 -5.1333 -0.902331 0
M  V30 3703 C 347.969 -5.84325 -0.527331 0
M  V30 3704 C 350.321 -6.32094 -0.252988 0
M  V30 3705 C 348.985 -6.67473 -0.0600901 0
M  V30 3706 H 348.255 -0.629775 -0.390466 0
M  V30 3707 H 350.902 -1.88372 -0.34473 0
M  V30 3708 H 349.207 -2.72969 -2.81061 0
M  V30 3709 H 350.904 -3.05665 -2.59557 0
M  V30 3710 H 347.494 -4.0067 -1.52188 0
M  V30 3711 H 351.678 -4.855 -1.02974 0
M  V30 3712 H 346.934 -6.103 -0.366634 0
M  V30 3713 H 351.108 -6.96299 0.118366 0
M  V30 3714 H 348.735 -7.58832 0.455828 0
M  V30 3715 N 350.31 0.590341 -1.46126 0
M  V30 3716 C 351.24 1.71032 -1.58966 0
M  V30 3717 C 352.221 1.64302 -0.440335 0
M  V30 3718 O 353.406 1.82436 -0.665634 0
M  V30 3719 C 350.536 3.09665 -1.57241 0
M  V30 3720 C 349.49 3.31221 -2.71066 0
M  V30 3721 C 348.816 4.70303 -2.54399 0
M  V30 3722 C 350.116 3.19796 -4.1295 0
M  V30 3723 H 351.81 1.60543 -2.52718 0
M  V30 3724 H 349.356 0.770933 -1.21625 0
M  V30 3725 H 351.309 3.87831 -1.64819 0
M  V30 3726 H 350.033 3.21036 -0.600289 0
M  V30 3727 H 348.692 2.55452 -2.62944 0
M  V30 3728 H 348.34 4.78429 -1.55288 0
M  V30 3729 H 348.04 4.85679 -3.30741 0
M  V30 3730 H 349.564 5.50647 -2.63857 0
M  V30 3731 H 350.978 3.87815 -4.22223 0
M  V30 3732 H 349.375 3.46696 -4.89818 0
M  V30 3733 H 350.445 2.16983 -4.33643 0
M  V30 3734 N 351.788 1.33704 0.83433 0
M  V30 3735 C 352.736 1.24323 1.96587 0
M  V30 3736 C 353.73 0.143659 1.6879 0
M  V30 3737 O 354.936 0.30791 1.77347 0
M  V30 3738 H 351.311 0.385925 0.645419 0
M  V30 3739 H 353.282 2.19978 2.01624 0
M  V30 3740 C 352.031 1.00394 3.32891 0
M  V30 3741 H 351.354 1.84231 3.54822 0
M  V30 3742 H 352.794 0.97862 4.12552 0
M  V30 3743 C 351.253 -0.293047 3.35623 0
M  V30 3744 O 351.783 -1.29823 3.80143 0
M  V30 3745 N 349.989 -0.322174 2.88809 0
M  V30 3746 H 349.536 0.496379 2.52772 0
M  V30 3747 H 349.494 -1.18977 2.91019 0
M  V30 3748 N 353.266 -1.05314 1.17247 0
M  V30 3749 C 354.199 -2.12512 0.831507 0
M  V30 3750 C 355.177 -1.61351 -0.201168 0
M  V30 3751 O 356.361 -1.88317 -0.0829831 0
M  V30 3752 C 353.488 -3.37848 0.24015 0
M  V30 3753 C 352.534 -4.07832 1.24801 0
M  V30 3754 S 353.367 -4.56537 2.79882 0
M  V30 3755 C 354.523 -5.85122 2.22223 0
M  V30 3756 H 354.756 -2.41106 1.7394 0
M  V30 3757 H 352.289 -1.17896 0.996988 0
M  V30 3758 H 354.247 -4.10391 -0.0945588 0
M  V30 3759 H 352.908 -3.07392 -0.645668 0
M  V30 3760 H 352.101 -4.97883 0.78287 0
M  V30 3761 H 351.703 -3.41348 1.52831 0
M  V30 3762 H 353.995 -6.58408 1.59703 0
M  V30 3763 H 354.938 -6.36381 3.10523 0
M  V30 3764 H 355.346 -5.39626 1.65722 0
M  V30 3765 N 354.744 -0.972509 -1.24016 0
M  V30 3766 C 356.16 -0.679827 -1.44397 0
M  V30 3767 C 356.36 0.756716 -1.86751 0
M  V30 3768 O 355.416 1.53007 -2.00861 0
M  V30 3769 C 356.729 -1.66803 -2.50195 0
M  V30 3770 C 358.277 -1.68119 -2.64017 0
M  V30 3771 C 358.752 -2.65748 -3.73017 0
M  V30 3772 N 360.243 -2.64219 -3.8045 0
M  V30 3773 C 360.978 -3.36433 -4.64328 0
M  V30 3774 N 360.474 -4.1818 -5.52356 0
M  V30 3775 N 362.267 -3.25235 -4.58453 0
M  V30 3776 H 354.418 -1.90059 -0.948228 0
M  V30 3777 H 356.681 -0.818527 -0.478245 0
M  V30 3778 H 356.387 -2.69498 -2.25973 0
M  V30 3779 H 356.261 -1.4446 -3.48441 0
M  V30 3780 H 358.648 -0.661319 -2.87594 0
M  V30 3781 H 358.729 -1.94525 -1.66113 0
M  V30 3782 H 358.373 -3.67872 -3.50189 0
M  V30 3783 H 358.303 -2.36619 -4.70446 0
M  V30 3784 H 360.794 -2.04887 -3.17537 0
M  V30 3785 H 361.107 -4.70157 -6.13329 0
M  V30 3786 H 359.452 -4.22273 -5.52006 0
M  V30 3787 H 362.643 -2.60829 -3.88698 0
M  V30 3788 H 362.816 -3.81776 -5.23594 0
M  V30 3789 N 356.222 1.38976 -0.743202 0
M  V30 3790 C 357.47 1.99948 -0.29417 0
M  V30 3791 C 357.791 1.59279 1.12495 0
M  V30 3792 O 357.061 0.844808 1.76748 0
M  V30 3793 H 355.641 0.739473 -0.105774 0
M  V30 3794 H 358.303 1.699 -0.954986 0
M  V30 3795 H 357.399 3.10142 -0.349056 0
M  V30 3796 N 357.7 0.491464 1.49741 0
M  V30 3797 C 358.948 -0.0563141 2.02022 0
M  V30 3798 C 359.269 -1.38363 1.37407 0
M  V30 3799 O 358.539 -1.88702 0.526166 0
M  V30 3800 H 357.119 -0.0238014 0.746621 0
M  V30 3801 H 359.781 0.646533 1.83864 0
M  V30 3802 H 358.877 -0.192967 3.11503 0
M  V30 3803 N 359.178 -1.55987 0.224894 0
M  V30 3804 C 360.108 -2.23426 -0.678457 0
M  V30 3805 C 361.089 -1.20709 -1.19847 0
M  V30 3806 O 362.274 -1.49304 -1.24186 0
M  V30 3807 C 359.404 -2.91676 -1.88527 0
M  V30 3808 C 358.358 -4.00893 -1.49896 0
M  V30 3809 C 357.684 -4.56455 -2.78483 0
M  V30 3810 C 358.984 -5.17769 -0.686461 0
M  V30 3811 H 360.678 -2.99175 -0.116173 0
M  V30 3812 H 358.224 -1.43897 -0.054436 0
M  V30 3813 H 360.177 -3.37547 -2.5227 0
M  V30 3814 H 358.901 -2.1338 -2.47258 0
M  V30 3815 H 357.56 -3.55758 -0.884985 0
M  V30 3816 H 357.208 -3.74886 -3.35365 0
M  V30 3817 H 356.908 -5.30169 -2.53368 0
M  V30 3818 H 358.432 -5.05047 -3.43162 0
M  V30 3819 H 359.846 -5.60001 -1.22767 0
M  V30 3820 H 358.243 -5.97735 -0.532259 0
M  V30 3821 H 359.313 -4.83932 0.306196 0
M  V30 3822 N 360.656 0.0484629 -1.57525 0
M  V30 3823 C 361.904 0.741657 -1.88 0
M  V30 3824 C 362.225 1.76918 -0.820054 0
M  V30 3825 O 361.495 1.95335 0.148661 0
M  V30 3826 H 360.075 0.276908 -0.69378 0
M  V30 3827 H 362.737 0.019013 -1.94891 0
M  V30 3828 H 361.833 1.24336 -2.86264 0
M  V30 3829 N 362.134 1.5431 0.320358 0
M  V30 3830 C 363.064 1.86912 1.3995 0
M  V30 3831 C 364.045 0.726211 1.53819 0
M  V30 3832 O 365.23 0.980233 1.67646 0
M  V30 3833 C 362.36 2.09932 2.7667 0
M  V30 3834 C 361.314 3.25776 2.77586 0
M  V30 3835 C 360.64 3.34173 4.17412 0
M  V30 3836 C 361.94 4.6335 2.41048 0
M  V30 3837 H 363.634 2.77292 1.12914 0
M  V30 3838 H 361.18 1.33421 0.541738 0
M  V30 3839 H 363.133 2.31324 3.52232 0
M  V30 3840 H 361.857 1.16304 3.0519 0
M  V30 3841 H 360.516 3.04276 2.04479 0
M  V30 3842 H 360.164 2.38098 4.43078 0
M  V30 3843 H 359.864 4.12033 4.18931 0
M  V30 3844 H 361.388 3.57803 4.94782 0
M  V30 3845 H 362.802 4.84602 3.06324 0
M  V30 3846 H 361.199 5.43782 2.53813 0
M  V30 3847 H 362.269 4.65381 1.36193 0
M  V30 3848 N 363.613 -0.582584 1.46437 0
M  V30 3849 C 364.838 -1.37168 1.55563 0
M  V30 3850 C 365.263 -1.87061 0.19743 0
M  V30 3851 O 364.621 -1.61572 -0.822451 0
M  V30 3852 C 364.669 -2.53511 2.56446 0
M  V30 3853 O 363.773 -3.54953 2.09958 0
M  V30 3854 H 363.114 -0.408494 0.523477 0
M  V30 3855 H 365.644 -0.706646 1.9201 0
M  V30 3856 H 365.654 -3.00426 2.76058 0
M  V30 3857 H 364.329 -2.16549 3.55076 0
M  V30 3858 H 362.906 -3.14516 2.00334 0
M  V30 3859 N 365.091 -1.34144 -0.827227 0
M  V30 3860 C 366.339 -1.26009 -1.58007 0
M  V30 3861 C 366.66 0.170971 -1.94249 0
M  V30 3862 O 365.93 1.10256 -1.61927 0
M  V30 3863 H 364.51 -0.463414 -0.585881 0
M  V30 3864 H 367.172 -1.68005 -0.987951 0
M  V30 3865 H 366.268 -1.86187 -2.50481 0
M  V30 3866 N 366.569 1.04691 -1.17803 0
M  V30 3867 C 367.532 2.10724 -0.901545 0
M  V30 3868 C 368.532 1.6042 0.110437 0
M  V30 3869 O 369.722 1.7377 -0.122303 0
M  V30 3870 C 366.854 3.39084 -0.351409 0
M  V30 3871 H 368.047 2.36686 -1.84174 0
M  V30 3872 H 365.6 1.21015 -0.98919 0
M  V30 3873 H 366.335 3.18782 0.59569 0
M  V30 3874 H 366.12 3.76909 -1.08083 0
M  V30 3875 H 367.61 4.17227 -0.176451 0
M  V30 3876 N 368.047 0.979072 1.23499 0
M  V30 3877 C 368.994 0.517904 2.24914 0
M  V30 3878 C 369.964 -0.442525 1.60097 0
M  V30 3879 O 371.149 -0.350365 1.87556 0
M  V30 3880 C 368.289 -0.174813 3.44657 0
M  V30 3881 C 367.402 0.825721 4.24035 0
M  V30 3882 C 366.537 0.107946 5.3109 0
M  V30 3883 C 365.576 1.09778 6.02175 0
M  V30 3884 N 364.713 0.40925 7.00906 0
M  V30 3885 H 369.553 1.38751 2.63727 0
M  V30 3886 H 367.09 0.695303 1.2963 0
M  V30 3887 H 369.048 -0.593233 4.12961 0
M  V30 3888 H 367.678 -1.0083 3.06648 0
M  V30 3889 H 366.73 1.36253 3.55161 0
M  V30 3890 H 368.042 1.58005 4.73113 0
M  V30 3891 H 367.196 -0.367904 6.05583 0
M  V30 3892 H 365.935 -0.678994 4.8295 0
M  V30 3893 H 364.94 1.5844 5.26476 0
M  V30 3894 H 366.165 1.88536 6.52404 0
M  V30 3895 H 364.111 -0.358506 6.5502 0
M  V30 3896 H 364.028 1.10226 7.47921 0
M  V30 3897 H 365.296 -0.0442557 7.79487 0
M  V30 3898 N 369.525 -1.3858 0.750561 0
M  V30 3899 C 370.488 -2.28836 0.129152 0
M  V30 3900 C 371.488 -1.47045 -0.650714 0
M  V30 3901 O 372.678 -1.6753 -0.477428 0
M  V30 3902 C 369.81 -3.30751 -0.825622 0
M  V30 3903 H 371.003 -2.85294 0.924516 0
M  V30 3904 H 368.556 -1.47489 0.517376 0
M  V30 3905 H 369.291 -2.79378 -1.64677 0
M  V30 3906 H 369.076 -3.91177 -0.268852 0
M  V30 3907 H 370.566 -3.98249 -1.2565 0
M  V30 3908 N 371.003 -0.499398 -1.49478 0
M  V30 3909 C 371.951 0.293604 -2.3074 0
M  V30 3910 C 372.945 0.96427 -1.39277 0
M  V30 3911 O 374.151 0.892141 -1.56336 0
M  V30 3912 H 370.526 0.113541 -0.743379 0
M  V30 3913 H 372.497 -0.411772 -2.95545 0
M  V30 3914 C 371.246 1.3462 -3.20582 0
M  V30 3915 H 370.569 0.83954 -3.90886 0
M  V30 3916 H 372.009 1.87308 -3.80384 0
M  V30 3917 C 370.468 2.36351 -2.40083 0
M  V30 3918 O 370.998 3.422 -2.10385 0
M  V30 3919 N 369.204 2.0878 -2.02137 0
M  V30 3920 H 368.751 1.22723 -2.26488 0
M  V30 3921 H 368.709 2.77075 -1.48583 0
M  V30 3922 N 372.481 1.55866 -0.233164 0
M  V30 3923 C 373.711 2.02704 0.399325 0
M  V30 3924 C 374.119 1.11204 1.53069 0
M  V30 3925 O 373.462 0.116182 1.83332 0
M  V30 3926 C 373.524 3.45844 0.981429 0
M  V30 3927 C 373.188 4.56997 -0.0159561 0
M  V30 3928 C 374.185 5.13384 -0.820552 0
M  V30 3929 C 371.87 5.0211 -0.138072 0
M  V30 3930 C 373.864 6.13365 -1.73386 0
M  V30 3931 C 371.551 6.01926 -1.0549 0
M  V30 3932 C 372.549 6.57431 -1.85132 0
M  V30 3933 O 372.237 7.55302 -2.75272 0
M  V30 3934 H 371.969 0.668459 0.100692 0
M  V30 3935 H 374.523 2.02387 -0.35052 0
M  V30 3936 H 372.753 3.43267 1.78058 0
M  V30 3937 H 374.442 3.76262 1.52255 0
M  V30 3938 H 375.208 4.79372 -0.736721 0
M  V30 3939 H 371.087 4.5858 0.471737 0
M  V30 3940 H 374.631 6.56614 -2.35592 0
M  V30 3941 H 370.528 6.35359 -1.1397 0
M  V30 3942 H 371.296 7.72867 -2.69477 0
M  V30 3943 N 373.959 -0.0401083 1.57549 0
M  V30 3944 C 375.375 -0.395556 1.54621 0
M  V30 3945 C 375.575 -1.77281 0.957799 0
M  V30 3946 O 374.631 -2.45888 0.574031 0
M  V30 3947 C 375.944 -0.307535 2.99123 0
M  V30 3948 C 377.492 -0.385425 3.10618 0
M  V30 3949 C 377.967 -0.326973 4.56831 0
M  V30 3950 N 379.458 -0.386102 4.61588 0
M  V30 3951 C 380.193 -0.363591 5.72246 0
M  V30 3952 N 379.689 -0.29402 6.92176 0
M  V30 3953 N 381.482 -0.412503 5.60584 0
M  V30 3954 H 373.633 0.861325 1.94152 0
M  V30 3955 H 375.896 0.326445 0.890021 0
M  V30 3956 H 375.602 0.638461 3.45856 0
M  V30 3957 H 375.476 -1.10552 3.60636 0
M  V30 3958 H 377.863 -1.32185 2.63839 0
M  V30 3959 H 377.944 0.44171 2.51957 0
M  V30 3960 H 377.588 0.605738 5.04275 0
M  V30 3961 H 377.518 -1.17207 5.13391 0
M  V30 3962 H 380.009 -0.442832 3.75296 0
M  V30 3963 H 380.322 -0.28164 7.72287 0
M  V30 3964 H 378.667 -0.260232 6.94513 0
M  V30 3965 H 381.858 -0.464769 4.65787 0
M  V30 3966 H 382.031 -0.391492 6.46816 0
M  V30 3967 N 375.437 -1.54477 -0.31217 0
M  V30 3968 C 376.685 -1.72884 -1.04668 0
M  V30 3969 C 377.006 -0.511477 -1.88173 0
M  V30 3970 O 376.276 0.474407 -1.90069 0
M  V30 3971 H 374.856 -0.637461 -0.389425 0
M  V30 3972 H 377.518 -1.91807 -0.345852 0
M  V30 3973 H 376.614 -2.61334 -1.70619 0
M  V30 3974 N 376.915 0.57481 -1.46744 0
M  V30 3975 C 378.163 1.33009 -1.52161 0
M  V30 3976 C 378.484 1.94185 -0.178092 0
M  V30 3977 O 377.754 1.7899 0.796196 0
M  V30 3978 H 376.334 0.493873 -0.560445 0
M  V30 3979 H 378.996 0.672589 -1.82927 0
M  V30 3980 H 378.092 2.13273 -2.27862 0
M  V30 3981 N 378.394 1.34581 0.820102 0
M  V30 3982 C 379.304 1.28471 1.96297 0
M  V30 3983 C 380.32 0.191902 1.72939 0
M  V30 3984 O 381.496 0.418879 1.96996 0
M  V30 3985 C 378.561 1.04281 3.30645 0
M  V30 3986 C 377.622 2.22745 3.66992 0
M  V30 3987 C 376.855 1.997 4.9493 0
M  V30 3988 O 377.078 0.956656 5.6232 0
M  V30 3989 O 376.012 2.86723 5.2922 0
M  V30 3990 H 379.838 2.24624 2.04396 0
M  V30 3991 H 377.423 1.14816 0.955913 0
M  V30 3992 H 379.305 0.925841 4.11104 0
M  V30 3993 H 377.98 0.111697 3.23507 0
M  V30 3994 H 376.887 2.40003 2.86966 0
M  V30 3995 H 378.22 3.14257 3.78819 0
M  V30 3996 N 379.872 -1.04064 1.18357 0
M  V30 3997 C 381.121 -1.76662 0.973313 0
M  V30 3998 C 381.434 -1.89154 -0.497991 0
M  V30 3999 O 382.64 -2.58606 -0.826762 0
M  V30 4000 C 381.096 -3.17624 1.69242 0
M  V30 4001 C 380.704 -3.13225 3.20303 0
M  V30 4002 C 382.448 -3.946 1.56497 0
M  V30 4003 C 380.355 -4.49046 3.84853 0
M  V30 4004 H 379.285 -0.662214 0.36054 0
M  V30 4005 H 381.936 -1.16553 1.41731 0
M  V30 4006 H 380.318 -3.78129 1.1762 0
M  V30 4007 H 381.492 -2.62172 3.78949 0
M  V30 4008 H 379.807 -2.49749 3.33189 0
M  V30 4009 H 382.404 -4.95042 2.02084 0
M  V30 4010 H 382.747 -4.13074 0.517243 0
M  V30 4011 H 383.28 -3.4067 2.05399 0
M  V30 4012 H 380.019 -4.35777 4.89672 0
M  V30 4013 H 379.539 -5.00203 3.30994 0
M  V30 4014 H 381.218 -5.17961 3.87718 0
M  V30 4015 N 381.35 -0.985608 -1.22978 0
M  V30 4016 C 382.766 -0.695104 -1.43668 0
M  V30 4017 C 382.966 0.736866 -1.87543 0
M  V30 4018 O 382.022 1.50868 -2.02473 0
M  V30 4019 C 383.335 -1.69447 -2.48412 0
M  V30 4020 C 384.883 -1.70909 -2.62219 0
M  V30 4021 C 385.358 -2.6969 -3.70178 0
M  V30 4022 N 386.849 -2.6824 -3.77626 0
M  V30 4023 C 387.584 -3.41339 -4.60733 0
M  V30 4024 N 387.08 -4.24015 -5.4789 0
M  V30 4025 N 388.873 -3.30079 -4.54977 0
M  V30 4026 H 381.024 -1.91054 -0.928016 0
M  V30 4027 H 383.287 -0.823553 -0.469536 0
M  V30 4028 H 382.993 -2.7188 -2.23102 0
M  V30 4029 H 382.867 -1.48147 -3.46889 0
M  V30 4030 H 385.254 -0.691785 -2.86877 0
M  V30 4031 H 385.335 -1.96276 -1.6404 0
M  V30 4032 H 384.979 -3.71566 -3.46268 0
M  V30 4033 H 384.909 -2.41595 -4.67909 0
M  V30 4034 H 387.4 -2.08243 -3.15346 0
M  V30 4035 H 387.713 -4.76636 -6.08308 0
M  V30 4036 H 386.058 -4.28104 -5.47496 0
M  V30 4037 H 389.249 -2.64937 -3.85909 0
M  V30 4038 H 389.422 -3.87308 -5.19516 0
M  V30 4039 N 382.828 1.3818 -0.7579 0
M  V30 4040 C 383.738 2.3421 -0.135247 0
M  V30 4041 C 384.754 1.59487 0.695683 0
M  V30 4042 O 385.93 1.91657 0.618832 0
M  V30 4043 C 382.995 3.3862 0.744139 0
M  V30 4044 C 382.056 4.2918 -0.101658 0
M  V30 4045 C 381.289 5.28603 0.735851 0
M  V30 4046 O 381.512 5.35166 1.97366 0
M  V30 4047 O 380.446 6.01707 0.152372 0
M  V30 4048 H 384.272 2.8916 -0.928436 0
M  V30 4049 H 381.857 1.40101 -0.518855 0
M  V30 4050 H 383.739 4.02539 1.2466 0
M  V30 4051 H 382.414 2.86019 1.51575 0
M  V30 4052 H 381.321 3.68407 -0.650167 0
M  V30 4053 H 382.654 4.85048 -0.836024 0
M  V30 4054 N 384.306 0.507319 1.49211 0
M  V30 4055 C 385.238 -0.304532 2.27168 0
M  V30 4056 C 386.251 -0.924956 1.33972 0
M  V30 4057 O 387.44 -0.807227 1.59205 0
M  V30 4058 C 384.54 -1.44431 3.06583 0
M  V30 4059 C 383.713 -0.930026 4.27398 0
M  V30 4060 C 382.772 -1.94817 4.88807 0
M  V30 4061 O 381.798 -1.51418 5.4869 0
M  V30 4062 N 383 -3.279 4.79022 0
M  V30 4063 H 385.765 0.36395 2.97482 0
M  V30 4064 H 383.326 0.340249 1.58284 0
M  V30 4065 H 385.318 -2.12311 3.44537 0
M  V30 4066 H 383.888 -2.01684 2.38835 0
M  V30 4067 H 383.108 -0.0759244 3.94127 0
M  V30 4068 H 384.396 -0.564932 5.05654 0
M  V30 4069 H 383.794 -3.65843 4.3148 0
M  V30 4070 H 382.351 -3.91476 5.21142 0
M  V30 4071 N 385.784 -1.5574 0.241426 0
M  V30 4072 C 386.732 -2.22538 -0.676718 0
M  V30 4073 C 387.726 -1.21117 -1.18436 0
M  V30 4074 O 388.932 -1.39144 -1.14188 0
M  V30 4075 H 385.307 -0.713776 -0.236701 0
M  V30 4076 H 387.278 -2.98264 -0.0901187 0
M  V30 4077 C 386.027 -2.93439 -1.86518 0
M  V30 4078 H 385.35 -3.7125 -1.4837 0
M  V30 4079 H 386.79 -3.43549 -2.48495 0
M  V30 4080 C 385.249 -1.97008 -2.73294 0
M  V30 4081 O 385.779 -1.49965 -3.72657 0
M  V30 4082 N 383.985 -1.64227 -2.39745 0
M  V30 4083 H 383.532 -2.02677 -1.58996 0
M  V30 4084 H 383.49 -0.999708 -2.98083 0
M  V30 4085 N 387.262 0.0317525 -1.57568 0
M  V30 4086 C 388.51 0.721676 -1.88776 0
M  V30 4087 C 388.831 1.76039 -0.838772 0
M  V30 4088 O 388.101 1.95482 0.127935 0
M  V30 4089 H 386.681 0.269534 -0.696678 0
M  V30 4090 H 389.343 -0.00165879 -1.949 0
M  V30 4091 H 388.439 1.21293 -2.87566 0
M  V30 4092 N 388.74 1.54641 0.303973 0
M  V30 4093 C 390.017 1.64455 1.05896 0
M  V30 4094 C 390.397 0.490923 2.05312 0
M  V30 4095 O 389.745 -0.512685 2.22674 0
M  V30 4096 C 389.955 3.02331 1.74347 0
M  V30 4097 C 391.303 3.59045 2.26653 0
M  V30 4098 O 392.327 3.04764 1.84384 0
M  V30 4099 O 391.186 4.54081 3.04093 0
M  V30 4100 H 388.28 0.666729 0.489287 0
M  V30 4101 H 390.826 1.66986 0.302298 0
M  V30 4102 H 389.598 3.77734 1.02142 0
M  V30 4103 H 389.221 3.03565 2.56777 0
M  V30 4104 N 390.218 -0.567019 1.47046 0
M  V30 4105 C 391.443 -1.3551 1.57009 0
M  V30 4106 C 391.868 -1.86841 0.217259 0
M  V30 4107 O 391.226 -1.62435 -0.805268 0
M  V30 4108 C 391.274 -2.50777 2.5912 0
M  V30 4109 O 390.378 -3.52706 2.13711 0
M  V30 4110 H 389.719 -0.402919 0.52778 0
M  V30 4111 H 392.249 -0.686241 1.92748 0
M  V30 4112 H 392.259 -2.97481 2.79229 0
M  V30 4113 H 390.934 -2.12771 3.57353 0
M  V30 4114 H 389.511 -3.12374 2.03659 0
M  V30 4115 N 391.696 -1.35014 -0.812953 0
M  V30 4116 C 392.626 -1.30069 -1.93919 0
M  V30 4117 C 393.607 -0.176275 -1.69184 0
M  V30 4118 O 394.792 -0.370227 -1.90638 0
M  V30 4119 C 391.922 -1.06547 -3.30552 0
M  V30 4120 C 390.876 -2.15561 -3.69753 0
M  V30 4121 C 390.202 -1.77214 -5.04479 0
M  V30 4122 C 391.502 -3.57476 -3.808 0
M  V30 4123 H 393.196 -2.24303 -1.98314 0
M  V30 4124 H 390.742 -1.07977 -0.952736 0
M  V30 4125 H 392.695 -1.01729 -4.08937 0
M  V30 4126 H 391.419 -0.0875719 -3.26483 0
M  V30 4127 H 390.078 -2.19466 -2.9365 0
M  V30 4128 H 389.726 -0.780589 -4.96906 0
M  V30 4129 H 389.426 -2.50184 -5.31678 0
M  V30 4130 H 390.95 -1.7391 -5.8531 0
M  V30 4131 H 392.364 -3.55929 -4.4943 0
M  V30 4132 H 390.761 -4.29152 -4.19462 0
M  V30 4133 H 391.831 -3.94091 -2.82525 0
M  V30 4134 N 393.175 1.03435 -1.18907 0
M  V30 4135 C 394.421 1.77005 -0.989798 0
M  V30 4136 C 394.754 1.88205 0.478816 0
M  V30 4137 O 394.029 1.39481 1.35556 0
M  V30 4138 C 394.312 3.19925 -1.65287 0
M  V30 4139 C 394.165 3.1663 -3.19477 0
M  V30 4140 C 395.484 4.18189 -1.37134 0
M  V30 4141 H 392.603 0.642538 -0.360991 0
M  V30 4142 H 395.245 1.20784 -1.46667 0
M  V30 4143 H 393.395 3.67929 -1.24741 0
M  V30 4144 H 395.067 2.76567 -3.692 0
M  V30 4145 H 393.31 2.54491 -3.51307 0
M  V30 4146 H 393.981 4.1758 -3.61013 0
M  V30 4147 H 396.457 3.78761 -1.72276 0
M  V30 4148 H 395.333 5.16394 -1.86087 0
M  V30 4149 H 395.594 4.41112 -0.295424 0
M  V30 4150 N 394.653 0.992116 1.22453 0
M  V30 4151 C 395.603 0.512969 2.22155 0
M  V30 4152 C 396.587 -0.418416 1.55364 0
M  V30 4153 O 397.779 -0.245363 1.75291 0
M  V30 4154 C 394.908 -0.171822 3.4287 0
M  V30 4155 C 393.994 0.779822 4.16869 0
M  V30 4156 N 394.385 1.92734 4.6764 0
M  V30 4157 C 392.683 0.59554 4.42006 0
M  V30 4158 C 393.384 2.52458 5.24061 0
M  V30 4159 N 392.36 1.80735 5.12675 0
M  V30 4160 H 396.162 1.38817 2.5905 0
M  V30 4161 H 393.676 0.854277 1.38115 0
M  V30 4162 H 395.673 -0.532469 4.13486 0
M  V30 4163 H 394.333 -1.04317 3.07487 0
M  V30 4164 H 395.344 2.30816 4.63621 0
M  V30 4165 H 392.021 -0.229805 4.16867 0
M  V30 4166 H 393.411 3.49433 5.73887 0
M  V30 4167 N 396.131 -1.37776 0.765217 0
M  V30 4168 C 397.094 -2.28686 0.153416 0
M  V30 4169 C 398.094 -1.47727 -0.635081 0
M  V30 4170 O 399.284 -1.68027 -0.459632 0
M  V30 4171 C 396.416 -3.31608 -0.790495 0
M  V30 4172 H 397.609 -2.84297 0.954723 0
M  V30 4173 H 395.162 -1.46932 0.53299 0
M  V30 4174 H 395.897 -2.81109 -1.61705 0
M  V30 4175 H 395.682 -3.9144 -0.227348 0
M  V30 4176 H 397.172 -3.99559 -1.21419 0
M  V30 4177 N 397.609 -0.515225 -1.4894 0
M  V30 4178 C 398.572 0.244681 -2.2789 0
M  V30 4179 C 399.572 0.881166 -1.34507 0
M  V30 4180 O 400.762 0.743497 -1.57537 0
M  V30 4181 C 397.894 1.35247 -3.12923 0
M  V30 4182 H 399.087 -0.448289 -2.96531 0
M  V30 4183 H 396.64 -0.270656 -1.53939 0
M  V30 4184 H 397.375 2.07916 -2.48881 0
M  V30 4185 H 397.16 0.901374 -3.81599 0
M  V30 4186 H 398.65 1.88737 -3.72516 0
M  V30 4187 N 399.087 1.5561 -0.249682 0
M  V30 4188 C 400.334 1.99011 0.374287 0
M  V30 4189 C 400.662 1.13785 1.57744 0
M  V30 4190 O 399.917 0.189326 1.94782 0
M  V30 4191 C 400.216 3.4775 0.824887 0
M  V30 4192 C 399.882 4.50086 -0.270819 0
M  V30 4193 C 398.544 4.77791 -0.571746 0
M  V30 4194 C 400.896 5.11312 -1.01041 0
M  V30 4195 C 398.224 5.63997 -1.61629 0
M  V30 4196 C 400.576 5.98651 -2.0445 0
M  V30 4197 C 399.24 6.24688 -2.35204 0
M  V30 4198 H 398.51 0.728233 0.136961 0
M  V30 4199 H 401.157 1.88122 -0.358087 0
M  V30 4200 H 399.462 3.55985 1.63651 0
M  V30 4201 H 401.159 3.78721 1.31799 0
M  V30 4202 H 397.749 4.28592 -0.026136 0
M  V30 4203 H 401.933 4.89953 -0.791177 0
M  V30 4204 H 397.189 5.82425 -1.85988 0
M  V30 4205 H 401.363 6.45135 -2.62248 0
M  V30 4206 H 398.99 6.91281 -3.16282 0
M  V30 4207 N 400.565 -0.0233959 1.57583 0
M  V30 4208 C 401.811 -0.714119 1.89811 0
M  V30 4209 C 402.144 -1.74702 0.848113 0
M  V30 4210 O 401.419 -1.94023 -0.136135 0
M  V30 4211 C 401.702 -1.37853 3.32669 0
M  V30 4212 C 401.555 -0.358764 4.48367 0
M  V30 4213 C 402.874 -2.31101 3.7454 0
M  V30 4214 H 399.993 -0.25814 0.690314 0
M  V30 4215 H 402.635 0.0230927 1.89986 0
M  V30 4216 H 400.785 -2.00689 3.3265 0
M  V30 4217 H 402.457 0.268115 4.6052 0
M  V30 4218 H 400.7 0.321387 4.32608 0
M  V30 4219 H 401.371 -0.862242 5.45224 0
M  V30 4220 H 403.847 -1.78304 3.75961 0
M  V30 4221 H 402.723 -2.74567 4.75294 0
M  V30 4222 H 402.984 -3.18018 3.0711 0
M  V30 4223 N 402.043 -1.548 -0.295768 0
M  V30 4224 C 403.006 -1.85363 -1.34808 0
M  V30 4225 C 404.006 -0.726817 -1.43436 0
M  V30 4226 O 405.196 -0.995088 -1.42981 0
M  V30 4227 C 402.328 -2.03859 -2.73229 0
M  V30 4228 H 403.521 -2.7941 -1.08949 0
M  V30 4229 H 401.074 -1.46942 -0.532702 0
M  V30 4230 H 401.809 -1.12117 -3.04303 0
M  V30 4231 H 401.594 -2.8588 -2.68356 0
M  V30 4232 H 403.084 -2.28857 -3.49305 0
M  V30 4233 N 403.521 0.559213 -1.47345 0
M  V30 4234 C 404.431 1.69388 -1.62311 0
M  V30 4235 C 405.447 1.6648 -0.505993 0
M  V30 4236 O 406.623 1.85964 -0.773262 0
M  V30 4237 C 403.688 3.05894 -1.63185 0
M  V30 4238 C 402.749 3.19885 -2.86307 0
M  V30 4239 C 401.982 4.49879 -2.87131 0
M  V30 4240 O 402.205 5.35217 -1.97229 0
M  V30 4241 O 401.139 4.67618 -3.78968 0
M  V30 4242 H 404.965 1.59706 -2.58317 0
M  V30 4243 H 402.55 0.728989 -1.30407 0
M  V30 4244 H 404.432 3.87133 -1.66451 0
M  V30 4245 H 403.107 3.15964 -0.70345 0
M  V30 4246 H 402.014 2.38052 -2.88587 0
M  V30 4247 H 403.347 3.14718 -3.78435 0
M  V30 4248 N 404.999 1.35443 0.805782 0
M  V30 4249 C 406.224 1.32037 1.59941 0
M  V30 4250 C 406.649 -0.0994215 1.87837 0
M  V30 4251 O 406.007 -1.06648 1.46615 0
M  V30 4252 C 406.055 2.13354 2.90711 0
M  V30 4253 O 405.159 1.5148 3.83572 0
M  V30 4254 H 404.5 0.452666 0.485787 0
M  V30 4255 H 407.03 1.78496 1.00002 0
M  V30 4256 H 407.04 2.25338 3.40128 0
M  V30 4257 H 405.715 3.16572 2.69732 0
M  V30 4258 H 404.292 1.4834 3.42125 0
M  V30 4259 N 406.477 -1.02803 1.19454 0
M  V30 4260 C 407.44 -2.09264 0.934955 0
M  V30 4261 C 408.44 -1.60576 -0.0849015 0
M  V30 4262 O 409.63 -1.73554 0.149933 0
M  V30 4263 C 406.762 -3.38482 0.40531 0
M  V30 4264 H 407.955 -2.33726 1.87916 0
M  V30 4265 H 405.508 -1.19426 1.00832 0
M  V30 4266 H 406.243 -3.19689 -0.544899 0
M  V30 4267 H 406.028 -3.75142 1.14065 0
M  V30 4268 H 407.518 -4.16894 0.242806 0
M  V30 4269 N 407.956 -0.998596 -1.21925 0
M  V30 4270 C 409.202 -0.678667 -1.91107 0
M  V30 4271 C 409.535 0.78791 -1.77498 0
M  V30 4272 O 408.81 1.57043 -1.1475 0
M  V30 4273 C 409.093 -1.09245 -3.43129 0
M  V30 4274 C 408.946 -2.61801 -3.6576 0
M  V30 4275 C 410.265 -0.649984 -4.35274 0
M  V30 4276 H 407.384 -0.248025 -0.694012 0
M  V30 4277 H 410.026 -1.24314 -1.43688 0
M  V30 4278 H 408.176 -0.612171 -3.83647 0
M  V30 4279 H 409.848 -3.17543 -3.34611 0
M  V30 4280 H 408.091 -3.03609 -3.09845 0
M  V30 4281 H 408.762 -2.85804 -4.7225 0
M  V30 4282 H 411.238 -1.0626 -4.02303 0
M  V30 4283 H 410.114 -0.967743 -5.40302 0
M  V30 4284 H 410.375 0.449139 -4.39813 0
M  V30 4285 N 409.434 1.37368 -0.772513 0
M  V30 4286 C 410.397 2.28601 -0.165541 0
M  V30 4287 C 411.397 1.48062 0.627238 0
M  V30 4288 O 412.587 1.68268 0.450715 0
M  V30 4289 C 409.719 3.32023 0.772897 0
M  V30 4290 H 410.912 2.83787 -0.969787 0
M  V30 4291 H 408.465 1.46647 -0.540775 0
M  V30 4292 H 409.2 2.81962 1.60212 0
M  V30 4293 H 408.985 3.91555 0.206585 0
M  V30 4294 H 410.475 4.00197 1.19298 0
M  V30 4295 N 410.912 0.523116 1.48665 0
M  V30 4296 C 412.16 -0.0134497 2.02096 0
M  V30 4297 C 412.481 -1.35418 1.40311 0
M  V30 4298 O 411.751 -1.87543 0.566074 0
M  V30 4299 H 410.331 -0.00795915 0.746958 0
M  V30 4300 H 412.993 0.685388 1.82451 0
M  V30 4301 H 412.089 -0.126849 3.11842 0
M  V30 4302 N 412.39 -1.55475 0.257931 0
M  V30 4303 C 413.615 -2.04064 -0.370488 0
M  V30 4304 C 414.04 -1.13565 -1.49948 0
M  V30 4305 O 413.398 -0.130781 -1.80828 0
M  V30 4306 C 413.446 -3.50554 -0.845237 0
M  V30 4307 O 412.55 -3.63173 -1.95394 0
M  V30 4308 H 411.891 -0.659257 -0.0792243 0
M  V30 4309 H 414.421 -2.00903 0.387212 0
M  V30 4310 H 414.431 -3.91588 -1.14555 0
M  V30 4311 H 413.106 -4.15896 -0.0191259 0
M  V30 4312 H 411.683 -3.34039 -1.65748 0
M  V30 4313 N 413.868 0.0150385 -1.57593 0
M  V30 4314 C 414.831 0.995996 -2.06428 0
M  V30 4315 C 415.831 1.2818 -0.970903 0
M  V30 4316 O 417.021 1.22949 -1.23406 0
M  V30 4317 C 414.153 2.32506 -2.49307 0
M  V30 4318 H 415.346 0.573873 -2.94358 0
M  V30 4319 H 412.899 0.262186 -1.54085 0
M  V30 4320 H 413.634 2.79438 -1.64575 0
M  V30 4321 H 413.419 2.13087 -3.29145 0
M  V30 4322 H 414.909 3.02906 -2.87468 0
M  V30 4323 N 415.346 1.54954 0.287554 0
M  V30 4324 C 416.256 1.8991 1.37736 0
M  V30 4325 C 417.272 0.794701 1.54792 0
M  V30 4326 O 418.448 1.09243 1.69198 0
M  V30 4327 C 415.513 2.15108 2.71899 0
M  V30 4328 C 414.574 3.38752 2.63715 0
M  V30 4329 C 413.807 3.62739 3.91479 0
M  V30 4330 O 414.03 2.89492 4.91478 0
M  V30 4331 O 412.964 4.56267 3.92561 0
M  V30 4332 H 416.79 2.82652 1.11092 0
M  V30 4333 H 414.375 1.41315 0.484807 0
M  V30 4334 H 416.257 2.32806 3.51254 0
M  V30 4335 H 414.932 1.25551 2.9836 0
M  V30 4336 H 413.839 3.26405 1.82786 0
M  V30 4337 H 415.172 4.28483 2.42205 0
M  V30 4338 N 416.824 -0.551391 1.4764 0
M  V30 4339 C 417.787 -1.64007 1.60107 0
M  V30 4340 C 418.787 -1.53601 0.47576 0
M  V30 4341 O 419.977 -1.57655 0.740988 0
M  V30 4342 C 417.109 -3.03569 1.55108 0
M  V30 4343 H 418.302 -1.543 2.57161 0
M  V30 4344 H 415.855 -0.771776 1.35917 0
M  V30 4345 H 416.59 -3.18804 0.594519 0
M  V30 4346 H 416.375 -3.12532 2.36783 0
M  V30 4347 H 417.865 -3.82762 1.66982 0
M  V30 4348 N 418.302 -1.35869 -0.798587 0
M  V30 4349 C 419.25 -1.29491 -1.93222 0
M  V30 4350 C 420.244 -0.18836 -1.6835 0
M  V30 4351 O 421.45 -0.354822 -1.76468 0
M  V30 4352 H 417.825 -0.402901 -0.63496 0
M  V30 4353 H 419.796 -2.25247 -1.9572 0
M  V30 4354 C 418.545 -1.09184 -3.30112 0
M  V30 4355 H 417.868 -1.93574 -3.49813 0
M  V30 4356 H 419.308 -1.08766 -4.09812 0
M  V30 4357 C 417.767 0.203959 -3.36282 0
M  V30 4358 O 418.297 1.19699 -3.83451 0
M  V30 4359 N 416.503 0.245488 -2.89561 0
M  V30 4360 H 416.05 -0.563223 -2.51367 0
M  V30 4361 H 416.008 1.11219 -2.94071 0
M  V30 4362 N 419.78 1.02168 -1.19998 0
M  V30 4363 C 420.743 2.08765 -0.94604 0
M  V30 4364 C 421.743 1.60618 0.0763846 0
M  V30 4365 O 422.933 1.73472 -0.159135 0
M  V30 4366 C 420.065 3.38262 -0.423255 0
M  V30 4367 H 421.258 2.32726 -1.89153 0
M  V30 4368 H 418.811 1.1889 -1.01464 0
M  V30 4369 H 419.546 3.19974 0.527938 0
M  V30 4370 H 419.331 3.74532 -1.16053 0
M  V30 4371 H 420.821 4.16759 -0.264911 0
M  V30 4372 N 421.258 1.00505 1.21394 0
M  V30 4373 C 422.505 0.687774 1.90462 0
M  V30 4374 C 422.833 -0.78147 1.7811 0
M  V30 4375 O 422.088 -1.58208 1.1519 0
M  V30 4376 C 422.387 1.0546 3.41486 0
M  V30 4377 C 422.053 2.51812 3.74034 0
M  V30 4378 C 420.715 2.91804 3.82628 0
M  V30 4379 C 423.067 3.46614 3.8924 0
M  V30 4380 C 420.395 4.2556 4.03876 0
M  V30 4381 C 422.747 4.80044 4.11995 0
M  V30 4382 C 421.411 5.19759 4.18816 0
M  V30 4383 H 420.681 0.251674 0.696951 0
M  V30 4384 H 423.328 1.26349 1.43903 0
M  V30 4385 H 421.633 0.397133 3.89782 0
M  V30 4386 H 423.33 0.786976 3.93202 0
M  V30 4387 H 419.92 2.1982 3.67936 0
M  V30 4388 H 424.104 3.16883 3.81967 0
M  V30 4389 H 419.36 4.55901 4.07387 0
M  V30 4390 H 423.534 5.53439 4.22704 0
M  V30 4391 H 421.161 6.23418 4.35033 0
M  V30 4392 N 422.737 -1.36956 0.779787 0
M  V30 4393 C 423.962 -2.04283 0.358224 0
M  V30 4394 C 424.387 -1.58422 -1.01411 0
M  V30 4395 O 423.745 -0.748179 -1.65142 0
M  V30 4396 C 423.793 -3.58152 0.419479 0
M  V30 4397 O 422.897 -4.08342 -0.577142 0
M  V30 4398 H 422.238 -0.645967 0.153698 0
M  V30 4399 H 424.768 -1.75108 1.05822 0
M  V30 4400 H 424.778 -4.07041 0.279636 0
M  V30 4401 H 423.453 -3.90886 1.42061 0
M  V30 4402 H 422.03 -3.70751 -0.399755 0
M  V30 4403 N 424.215 -0.530993 -1.48385 0
M  V30 4404 C 425.461 0.00274135 -2.028 0
M  V30 4405 C 425.794 1.33838 -1.40716 0
M  V30 4406 O 425.069 1.86465 -0.553277 0
M  V30 4407 C 425.352 0.123676 -3.59888 0
M  V30 4408 C 425.205 -1.2372 -4.3245 0
M  V30 4409 C 426.524 0.849967 -4.31814 0
M  V30 4410 H 423.643 -0.000477758 -0.737 0
M  V30 4411 H 426.285 -0.688217 -1.77098 0
M  V30 4412 H 424.435 0.712157 -3.81917 0
M  V30 4413 H 426.107 -1.86687 -4.21836 0
M  V30 4414 H 424.35 -1.81882 -3.93829 0
M  V30 4415 H 425.021 -1.10557 -5.40815 0
M  V30 4416 H 427.497 0.350572 -4.14621 0
M  V30 4417 H 426.373 0.903486 -5.41413 0
M  V30 4418 H 426.634 1.90047 -3.99167 0
M  V30 4419 N 425.693 1.55336 -0.266172 0
M  V30 4420 C 426.623 2.25146 0.618981 0
M  V30 4421 C 427.604 1.23845 1.16604 0
M  V30 4422 O 428.789 1.52544 1.20183 0
M  V30 4423 C 425.919 2.96572 1.80728 0
M  V30 4424 C 424.873 4.04726 1.39215 0
M  V30 4425 C 424.199 4.63678 2.66283 0
M  V30 4426 C 425.499 5.19407 0.548942 0
M  V30 4427 H 427.193 2.99377 0.0368116 0
M  V30 4428 H 424.739 1.43991 0.0162651 0
M  V30 4429 H 426.692 3.44116 2.43232 0
M  V30 4430 H 425.416 2.19861 2.41514 0
M  V30 4431 H 424.075 3.57979 0.790351 0
M  V30 4432 H 423.723 3.83646 3.25308 0
M  V30 4433 H 423.423 5.367 2.39222 0
M  V30 4434 H 424.947 5.13967 3.29651 0
M  V30 4435 H 426.361 5.63059 1.07876 0
M  V30 4436 H 424.758 5.98936 0.373593 0
M  V30 4437 H 425.828 4.8295 -0.434394 0
M  V30 4438 N 427.171 -0.0066808 1.57599 0
M  V30 4439 C 428.103 -1.02827 2.04839 0
M  V30 4440 C 429.116 -1.31108 0.965113 0
M  V30 4441 O 430.305 -1.28202 1.24203 0
M  V30 4442 C 427.405 -2.36464 2.42771 0
M  V30 4443 C 426.578 -2.27219 3.73751 0
M  V30 4444 C 425.637 -3.43489 3.98625 0
M  V30 4445 O 424.663 -3.21976 4.69382 0
M  V30 4446 N 425.865 -4.66116 3.46 0
M  V30 4447 H 428.63 -0.625455 2.93101 0
M  V30 4448 H 426.191 -0.194198 1.60731 0
M  V30 4449 H 428.183 -3.13008 2.56531 0
M  V30 4450 H 426.753 -2.68512 1.60063 0
M  V30 4451 H 425.973 -1.35629 3.70133 0
M  V30 4452 H 427.261 -2.18208 4.59633 0
M  V30 4453 H 426.659 -4.86493 2.88688 0
M  V30 4454 H 425.216 -5.39949 3.65101 0
M  V30 4455 N 428.649 -1.55105 -0.279332 0
M  V30 4456 C 429.599 -1.83937 -1.34727 0
M  V30 4457 C 430.583 -0.69785 -1.44979 0
M  V30 4458 O 431.775 -0.95904 -1.48766 0
M  V30 4459 C 428.904 -2.1092 -2.70864 0
M  V30 4460 C 427.99 -3.31314 -2.64748 0
M  V30 4461 N 428.381 -4.51371 -2.2825 0
M  V30 4462 C 426.679 -3.33777 -2.95819 0
M  V30 4463 C 427.38 -5.33447 -2.31969 0
M  V30 4464 N 426.356 -4.71697 -2.7019 0
M  V30 4465 H 430.158 -2.74309 -1.05506 0
M  V30 4466 H 427.672 -1.54896 -0.487959 0
M  V30 4467 H 429.669 -2.2973 -3.47893 0
M  V30 4468 H 428.329 -1.21828 -3.00979 0
M  V30 4469 H 429.34 -4.77584 -2.00335 0
M  V30 4470 H 426.017 -2.54858 -3.30687 0
M  V30 4471 H 427.407 -6.39424 -2.06365 0
M  V30 4472 N 430.127 0.543554 -1.4793 0
M  V30 4473 C 431.373 1.30201 -1.55485 0
M  V30 4474 C 431.706 1.92925 -0.222201 0
M  V30 4475 O 430.981 1.78586 0.77053 0
M  V30 4476 C 431.264 2.40174 -2.68307 0
M  V30 4477 C 431.117 1.8223 -4.11233 0
M  V30 4478 C 432.436 3.42024 -2.76961 0
M  V30 4479 H 429.555 0.472036 -0.565996 0
M  V30 4480 H 432.197 0.606914 -1.80046 0
M  V30 4481 H 430.347 2.99463 -2.47495 0
M  V30 4482 H 432.019 1.27096 -4.43446 0
M  V30 4483 H 430.262 1.12832 -4.18869 0
M  V30 4484 H 430.933 2.61793 -4.85972 0
M  V30 4485 H 433.409 2.92672 -2.95774 0
M  V30 4486 H 432.285 4.16383 -3.57654 0
M  V30 4487 H 432.546 4.0173 -1.84568 0
M  V30 4488 N 431.605 1.3629 0.791371 0
M  V30 4489 C 432.535 1.33137 1.91825 0
M  V30 4490 C 433.516 0.203168 1.68882 0
M  V30 4491 O 434.701 0.400509 1.90025 0
M  V30 4492 C 431.831 1.11793 3.28816 0
M  V30 4493 C 430.785 2.21417 3.66277 0
M  V30 4494 C 430.111 1.85218 5.01596 0
M  V30 4495 C 431.411 3.63489 3.75064 0
M  V30 4496 H 433.105 2.2743 1.9472 0
M  V30 4497 H 430.651 1.09479 0.935437 0
M  V30 4498 H 432.604 1.08222 4.07266 0
M  V30 4499 H 431.328 0.139501 3.26302 0
M  V30 4500 H 429.987 2.2411 2.90121 0
M  V30 4501 H 429.635 0.859544 4.95602 0
M  V30 4502 H 429.335 2.58611 5.27631 0
M  V30 4503 H 430.859 1.832 5.82469 0
M  V30 4504 H 432.273 3.63034 4.43711 0
M  V30 4505 H 430.67 4.35771 4.12582 0
M  V30 4506 H 431.74 3.98536 2.76219 0
M  V30 4507 N 433.083 -1.0153 1.20538 0
M  V30 4508 C 434.331 -1.74803 1.01432 0
M  V30 4509 C 434.652 -1.8963 -0.454456 0
M  V30 4510 O 433.922 -1.43975 -1.32846 0
M  V30 4511 H 432.502 -0.647598 0.372324 0
M  V30 4512 H 435.164 -1.22402 1.5167 0
M  V30 4513 H 434.26 -2.75114 1.47373 0
M  V30 4514 N 434.561 -1.01147 -1.20859 0
M  V30 4515 C 435.524 -0.582224 -2.21682 0
M  V30 4516 C 436.524 0.344887 -1.57058 0
M  V30 4517 O 437.714 0.134281 -1.73682 0
M  V30 4518 C 434.846 0.150496 -3.40568 0
M  V30 4519 H 436.039 -1.47408 -2.61172 0
M  V30 4520 H 433.592 -0.800695 -1.34233 0
M  V30 4521 H 434.327 1.0575 -3.06574 0
M  V30 4522 H 434.112 -0.515444 -3.88697 0
M  V30 4523 H 435.602 0.438344 -4.15293 0
M  V30 4524 N 436.039 1.36541 -0.78704 0
M  V30 4525 C 437.287 1.98911 -0.357633 0
M  V30 4526 C 437.608 1.62778 1.07371 0
M  V30 4527 O 436.878 0.900612 1.73971 0
M  V30 4528 H 435.458 0.735734 -0.129246 0
M  V30 4529 H 438.12 1.66776 -1.00855 0
M  V30 4530 H 437.216 3.08874 -0.447549 0
M  V30 4531 N 437.518 0.538854 1.48102 0
M  V30 4532 C 438.929 0.100679 1.86428 0
M  V30 4533 C 439.28 -1.32447 1.44749 0
M  V30 4534 O 438.405 -1.99339 0.842199 0
M  V30 4535 C 439 0.175933 3.38343 0
M  V30 4536 C 437.559 -0.207098 3.7583 0
M  V30 4537 C 436.706 0.531741 2.72154 0
M  V30 4538 H 439.657 0.749614 1.3988 0
M  V30 4539 H 439.678 -0.610144 3.75576 0
M  V30 4540 H 439.19 1.21328 3.68648 0
M  V30 4541 H 437.291 -1.24626 3.5114 0
M  V30 4542 H 437.404 0.138687 4.78899 0
M  V30 4543 H 435.768 -0.0230462 2.5469 0
M  V30 4544 H 436.551 1.56989 3.05302 0
M  V30 4545 N 438.996 -1.55193 0.274407 0
M  V30 4546 C 439.946 -2.19184 -0.627882 0
M  V30 4547 C 440.93 -1.15625 -1.11892 0
M  V30 4548 O 442.122 -1.41441 -1.06411 0
M  V30 4549 C 439.251 -2.91591 -1.81189 0
M  V30 4550 C 438.337 -4.02438 -1.33807 0
M  V30 4551 N 438.728 -5.0246 -0.580349 0
M  V30 4552 C 437.026 -4.15496 -1.62109 0
M  V30 4553 C 437.727 -5.80756 -0.331344 0
M  V30 4554 N 436.703 -5.36038 -0.903556 0
M  V30 4555 H 440.505 -2.93871 -0.0411216 0
M  V30 4556 H 438.019 -1.62213 0.0779348 0
M  V30 4557 H 440.016 -3.35883 -2.46957 0
M  V30 4558 H 438.676 -2.18414 -2.40261 0
M  V30 4559 H 439.687 -5.17399 -0.227762 0
M  V30 4560 H 436.364 -3.53509 -2.22121 0
M  V30 4561 H 437.754 -6.71335 0.275454 0
M  V30 4562 N 440.474 -0.00167713 -1.576 0
M  V30 4563 C 441.72 0.683832 -1.90923 0
M  V30 4564 C 442.053 1.7333 -0.875799 0
M  V30 4565 O 441.328 1.94215 0.10525 0
M  V30 4566 C 441.611 1.32543 -3.3482 0
M  V30 4567 C 441.464 0.287387 -4.48881 0
M  V30 4568 C 442.783 2.25114 -3.78169 0
M  V30 4569 H 439.902 0.247125 -0.694333 0
M  V30 4570 H 442.544 -0.0533149 -1.89925 0
M  V30 4571 H 440.694 1.95372 -3.35801 0
M  V30 4572 H 442.366 -0.341346 -4.60035 0
M  V30 4573 H 440.609 -0.39017 -4.32042 0
M  V30 4574 H 441.28 0.775393 -5.46527 0
M  V30 4575 H 443.756 1.723 -3.7875 0
M  V30 4576 H 442.632 2.66971 -4.79602 0
M  V30 4577 H 442.893 3.13092 -3.12131 0
M  V30 4578 N 441.952 1.55251 0.271103 0
M  V30 4579 C 442.899 1.88261 1.33516 0
M  V30 4580 C 443.869 0.734296 1.48988 0
M  V30 4581 O 445.054 0.985741 1.63364 0
M  V30 4582 C 442.194 2.16168 2.69008 0
M  V30 4583 C 441.307 3.43678 2.61743 0
M  V30 4584 C 440.442 3.61276 3.89427 0
M  V30 4585 C 439.481 4.82472 3.7668 0
M  V30 4586 N 438.618 4.96717 4.96202 0
M  V30 4587 H 443.458 2.79015 1.04665 0
M  V30 4588 H 440.995 1.38137 0.505618 0
M  V30 4589 H 442.953 2.30349 3.47844 0
M  V30 4590 H 441.583 1.28646 2.96057 0
M  V30 4591 H 440.635 3.37959 1.74607 0
M  V30 4592 H 441.947 4.3265 2.48224 0
M  V30 4593 H 441.101 3.75284 4.76704 0
M  V30 4594 H 439.84 2.70492 4.05814 0
M  V30 4595 H 438.845 4.68465 2.87786 0
M  V30 4596 H 440.07 5.74692 3.61809 0
M  V30 4597 H 438.016 4.08865 5.12997 0
M  V30 4598 H 437.933 5.79738 4.85222 0
M  V30 4599 H 439.201 5.15113 5.85046 0
M  V30 4600 N 443.43 -0.535701 1.48216 0
M  V30 4601 C 444.846 -0.863701 1.3421 0
M  V30 4602 C 445.046 -1.98458 0.34879 0
M  V30 4603 O 444.102 -2.51432 -0.23204 0
M  V30 4604 C 445.415 -1.23662 2.74095 0
M  V30 4605 C 446.963 -1.34683 2.82541 0
M  V30 4606 C 447.438 -1.75322 4.23115 0
M  V30 4607 N 448.929 -1.82434 4.2576 0
M  V30 4608 C 449.664 -2.15252 5.31464 0
M  V30 4609 N 449.16 -2.46533 6.47452 0
M  V30 4610 N 450.953 -2.16209 5.18855 0
M  V30 4611 H 443.104 0.203965 2.11418 0
M  V30 4612 H 445.367 0.0286033 0.947568 0
M  V30 4613 H 445.073 -0.486674 3.48316 0
M  V30 4614 H 444.947 -2.18805 3.07253 0
M  V30 4615 H 447.334 -2.08756 2.08579 0
M  V30 4616 H 447.415 -0.376756 2.5301 0
M  V30 4617 H 447.059 -1.01812 4.97591 0
M  V30 4618 H 446.989 -2.7337 4.50085 0
M  V30 4619 H 449.48 -1.6056 3.42095 0
M  V30 4620 H 449.793 -2.70662 7.23852 0
M  V30 4621 H 448.138 -2.44065 6.50736 0
M  V30 4622 H 451.329 -1.91224 4.2726 0
M  V30 4623 H 451.502 -2.41453 6.01335 0
M  V30 4624 N 444.908 -1.36708 -0.784132 0
M  V30 4625 C 446.156 -1.30972 -1.53918 0
M  V30 4626 C 446.477 0.109086 -1.94695 0
M  V30 4627 O 445.747 1.05048 -1.65353 0
M  V30 4628 H 444.327 -0.481819 -0.570841 0
M  V30 4629 H 446.989 -1.71063 -0.934002 0
M  V30 4630 H 446.085 -1.94061 -2.44431 0
M  V30 4631 N 446.386 1.0089 -1.21074 0
M  V30 4632 C 447.611 1.78727 -1.05221 0
M  V30 4633 C 448.036 1.83932 0.393795 0
M  V30 4634 O 447.394 1.28004 1.28393 0
M  V30 4635 C 447.442 3.20665 -1.64944 0
M  V30 4636 O 446.546 4.02632 -0.892273 0
M  V30 4637 H 445.887 0.550973 -0.370574 0
M  V30 4638 H 448.417 1.26847 -1.60534 0
M  V30 4639 H 448.427 3.71352 -1.69002 0
M  V30 4640 H 447.102 3.16191 -2.70177 0
M  V30 4641 H 445.679 3.61207 -0.926492 0
M  V30 4642 N 447.864 1.01787 1.20321 0
M  V30 4643 C 448.812 0.58254 2.25187 0
M  V30 4644 C 449.806 -0.379359 1.65098 0
M  V30 4645 O 451.012 -0.249142 1.78267 0
M  V30 4646 H 447.387 0.170078 0.732514 0
M  V30 4647 H 449.358 1.47788 2.59232 0
M  V30 4648 C 448.107 -0.0620885 3.47645 0
M  V30 4649 H 447.43 0.669069 3.94162 0
M  V30 4650 H 448.87 -0.329784 4.22716 0
M  V30 4651 C 447.329 -1.3053 3.10586 0
M  V30 4652 O 447.859 -2.39848 3.22236 0
M  V30 4653 N 446.065 -1.18988 2.65123 0
M  V30 4654 H 445.612 -0.300341 2.55843 0
M  V30 4655 H 445.57 -2.02267 2.40698 0
M  V30 4656 N 449.342 -1.36122 0.79427 0
M  V30 4657 C 450.57 -2.03362 0.380989 0
M  V30 4658 C 450.985 -1.59881 -1.00416 0
M  V30 4659 O 450.342 -0.790515 -1.6449 0
M  V30 4660 C 450.393 -3.58804 0.440649 0
M  V30 4661 O 450.114 -4.007 1.77118 0
M  V30 4662 C 451.615 -4.43296 0.0186117 0
M  V30 4663 H 448.835 -0.652526 0.156367 0
M  V30 4664 H 451.379 -1.73998 1.07447 0
M  V30 4665 H 449.534 -3.8686 -0.204458 0
M  V30 4666 H 449.948 -4.95309 1.72538 0
M  V30 4667 H 451.422 -5.51887 0.111488 0
M  V30 4668 H 451.899 -4.2684 -1.03461 0
M  V30 4669 H 452.505 -4.20512 0.636395 0
M  V30 4670 N 450.82 -0.546701 -1.47814 0
M  V30 4671 C 452.048 -0.0232857 -2.06887 0
M  V30 4672 C 452.463 1.26571 -1.4009 0
M  V30 4673 O 451.82 1.7569 -0.493906 0
M  V30 4674 C 451.871 0.186975 -3.61016 0
M  V30 4675 O 451.592 -1.05097 -4.25307 0
M  V30 4676 C 453.093 0.748872 -4.36929 0
M  V30 4677 H 450.313 -0.0410763 -0.669742 0
M  V30 4678 H 452.857 -0.757117 -1.89968 0
M  V30 4679 H 451.012 0.870903 -3.77484 0
M  V30 4680 H 451.426 -0.842121 -5.17695 0
M  V30 4681 H 452.9 0.845334 -5.45489 0
M  V30 4682 H 453.377 1.75772 -4.02493 0
M  V30 4683 H 453.983 0.100979 -4.2518 0
M  V30 4684 N 452.299 1.55045 -0.282633 0
M  V30 4685 C 453.524 2.04628 0.337977 0
M  V30 4686 C 453.949 1.15937 1.48123 0
M  V30 4687 O 453.307 0.159532 1.80597 0
M  V30 4688 C 453.355 3.51854 0.78936 0
M  V30 4689 O 452.459 3.66236 1.89592 0
M  V30 4690 H 451.8 0.660434 0.0687261 0
M  V30 4691 H 454.33 2.00261 -0.419124 0
M  V30 4692 H 454.34 3.93361 1.08311 0
M  V30 4693 H 453.015 4.15873 -0.0470419 0
M  V30 4694 H 451.592 3.36633 1.60413 0
M  V30 4695 N 453.777 0.010035 1.57597 0
M  V30 4696 C 454.727 -0.986858 2.05536 0
M  V30 4697 C 455.711 -1.29711 0.952042 0
M  V30 4698 O 456.903 -1.28641 1.21575 0
M  V30 4699 C 454.032 -2.2756 2.57043 0
M  V30 4700 C 453.118 -1.99455 3.74271 0
M  V30 4701 N 453.509 -1.41546 4.85591 0
M  V30 4702 C 451.807 -2.29547 3.82393 0
M  V30 4703 C 452.508 -1.3014 5.66956 0
M  V30 4704 N 451.484 -1.79044 5.13268 0
M  V30 4705 H 455.286 -0.533778 2.89012 0
M  V30 4706 H 452.8 -0.195432 1.6122 0
M  V30 4707 H 454.797 -2.99829 2.89669 0
M  V30 4708 H 453.457 -2.73512 1.7499 0
M  V30 4709 H 454.468 -1.09294 5.06236 0
M  V30 4710 H 451.145 -2.78304 3.11213 0
M  V30 4711 H 452.535 -0.855237 6.66435 0
M  V30 4712 N 455.255 -1.55392 -0.262866 0
M  V30 4713 C 456.185 -1.91978 -1.32917 0
M  V30 4714 C 457.166 -0.7828 -1.51017 0
M  V30 4715 O 458.351 -1.04178 -1.63892 0
M  V30 4716 C 455.481 -2.20055 -2.68687 0
M  V30 4717 C 454.435 -3.35854 -2.65304 0
M  V30 4718 C 453.761 -3.49435 -4.04721 0
M  V30 4719 C 455.061 -4.71977 -2.23685 0
M  V30 4720 H 456.755 -2.81292 -1.02544 0
M  V30 4721 H 454.301 -1.3534 -0.491846 0
M  V30 4722 H 456.254 -2.44237 -3.43404 0
M  V30 4723 H 454.978 -1.27551 -3.00663 0
M  V30 4724 H 453.637 -3.11655 -1.93045 0
M  V30 4725 H 453.285 -2.54379 -4.33936 0
M  V30 4726 H 452.985 -4.27297 -4.0335 0
M  V30 4727 H 454.509 -3.7592 -4.81161 0
M  V30 4728 H 455.923 -4.95637 -2.88127 0
M  V30 4729 H 454.32 -5.52828 -2.33456 0
M  V30 4730 H 455.39 -4.70115 -1.18827 0
M  V30 4731 N 456.733 0.527833 -1.48498 0
M  V30 4732 C 457.683 1.62844 -1.5958 0
M  V30 4733 C 458.667 1.54397 -0.452809 0
M  V30 4734 O 459.859 1.62381 -0.704364 0
M  V30 4735 C 456.988 3.01557 -1.64067 0
M  V30 4736 C 456.074 3.151 -2.83853 0
M  V30 4737 N 456.465 2.9861 -4.08247 0
M  V30 4738 C 454.763 3.46158 -2.8123 0
M  V30 4739 C 455.464 3.15626 -4.88626 0
M  V30 4740 N 454.44 3.43298 -4.21483 0
M  V30 4741 H 458.242 1.48708 -2.53502 0
M  V30 4742 H 455.756 0.733343 -1.44899 0
M  V30 4743 H 457.753 3.8062 -1.70101 0
M  V30 4744 H 456.413 3.16783 -0.712636 0
M  V30 4745 H 457.424 2.75329 -4.3865 0
M  V30 4746 H 454.101 3.67728 -1.97692 0
M  V30 4747 H 455.491 3.07596 -5.97356 0
M  V30 4748 N 458.211 1.37122 0.776871 0
M  V30 4749 C 459.143 1.28342 1.89897 0
M  V30 4750 C 460.156 0.200277 1.61563 0
M  V30 4751 O 461.345 0.456012 1.72577 0
M  V30 4752 C 458.445 0.960427 3.25006 0
M  V30 4753 C 457.618 2.148 3.81025 0
M  V30 4754 C 456.677 1.79608 4.94598 0
M  V30 4755 O 455.703 2.51845 5.10454 0
M  V30 4756 N 456.905 0.737171 5.758 0
M  V30 4757 H 459.67 2.25027 1.97947 0
M  V30 4758 H 457.231 1.3068 0.955739 0
M  V30 4759 H 459.223 0.705942 3.98495 0
M  V30 4760 H 457.793 0.0823066 3.12492 0
M  V30 4761 H 457.013 2.56454 2.99374 0
M  V30 4762 H 458.301 2.9411 4.15183 0
M  V30 4763 H 457.699 0.137637 5.65533 0
M  V30 4764 H 456.256 0.542534 6.49538 0
M  V30 4765 N 459.689 -1.00246 1.21608 0
M  V30 4766 C 460.652 -2.07233 0.979133 0
M  V30 4767 C 461.652 -1.6072 -0.0508219 0
M  V30 4768 O 462.842 -1.73196 0.186712 0
M  V30 4769 C 459.974 -3.37546 0.477016 0
M  V30 4770 H 461.167 -2.29687 1.92831 0
M  V30 4771 H 458.72 -1.17261 1.03342 0
M  V30 4772 H 459.455 -3.20773 -0.476966 0
M  V30 4773 H 459.24 -3.72638 1.21997 0
M  V30 4774 H 460.73 -4.16285 0.331181 0
M  V30 4775 N 461.167 -1.02423 -1.1978 0
M  V30 4776 C 462.413 -0.719051 -1.89625 0
M  V30 4777 C 462.746 0.750083 -1.7913 0
M  V30 4778 O 462.021 1.54574 -1.18056 0
M  V30 4779 C 462.304 -1.16499 -3.40735 0
M  V30 4780 C 462.157 -2.695 -3.60125 0
M  V30 4781 C 463.476 -0.742166 -4.33797 0
M  V30 4782 H 460.595 -0.26269 -0.688595 0
M  V30 4783 H 463.237 -1.27333 -1.41018 0
M  V30 4784 H 461.387 -0.69341 -3.82262 0
M  V30 4785 H 463.059 -3.24569 -3.278 0
M  V30 4786 H 461.302 -3.10113 -3.03336 0
M  V30 4787 H 461.973 -2.95757 -4.66081 0
M  V30 4788 H 464.449 -1.1477 -3.99959 0
M  V30 4789 H 463.325 -1.08213 -5.38127 0
M  V30 4790 H 463.586 0.355747 -4.40666 0
M  V30 4791 N 462.645 1.35699 -0.801477 0
M  V30 4792 C 463.608 2.28199 -0.213994 0
M  V30 4793 C 464.608 1.49359 0.595691 0
M  V30 4794 O 465.798 1.69186 0.414921 0
M  V30 4795 C 462.93 3.33587 0.702297 0
M  V30 4796 H 464.123 2.81666 -1.02976 0
M  V30 4797 H 461.676 1.45467 -0.571759 0
M  V30 4798 H 462.411 2.85297 1.54195 0
M  V30 4799 H 462.196 3.91906 0.123484 0
M  V30 4800 H 463.686 4.02638 1.10783 0
M  V30 4801 N 464.123 0.554532 1.47522 0
M  V30 4802 C 465.07 -0.19466 2.29978 0
M  V30 4803 C 466.04 -0.910882 1.38896 0
M  V30 4804 O 467.225 -0.907102 1.67858 0
M  V30 4805 C 464.365 -1.22035 3.22802 0
M  V30 4806 C 463.478 -0.510474 4.28973 0
M  V30 4807 C 462.613 -1.52123 5.08952 0
M  V30 4808 C 461.652 -0.796173 6.069 0
M  V30 4809 N 460.789 -1.75363 6.79847 0
M  V30 4810 H 465.629 0.51461 2.93523 0
M  V30 4811 H 463.166 0.265607 1.44682 0
M  V30 4812 H 465.124 -1.8276 3.7504 0
M  V30 4813 H 463.754 -1.89769 2.61127 0
M  V30 4814 H 462.806 0.211234 3.79813 0
M  V30 4815 H 464.118 0.0576503 4.98767 0
M  V30 4816 H 463.272 -2.20207 5.65326 0
M  V30 4817 H 462.011 -2.12327 4.39054 0
M  V30 4818 H 461.016 -0.101388 5.49707 0
M  V30 4819 H 462.241 -0.199911 6.78806 0
M  V30 4820 H 460.187 -2.3443 6.12682 0
M  V30 4821 H 460.104 -1.23759 7.45801 0
M  V30 4822 H 461.372 -2.4257 7.40797 0
M  V30 4823 N 465.601 -1.54893 0.290851 0
M  V30 4824 C 466.564 -2.21824 -0.576784 0
M  V30 4825 C 467.564 -1.20104 -1.06919 0
M  V30 4826 O 468.754 -1.44906 -0.966843 0
M  V30 4827 C 465.886 -2.89662 -1.79747 0
M  V30 4828 H 467.079 -2.99899 0.00784051 0
M  V30 4829 H 464.632 -1.56245 0.0415934 0
M  V30 4830 H 465.367 -2.15639 -2.42219 0
M  V30 4831 H 465.152 -3.64219 -1.45214 0
M  V30 4832 H 466.642 -3.4075 -2.4141 0
M  V30 4833 N 467.08 -0.0183926 -1.57589 0
M  V30 4834 C 468.308 0.673046 -1.95647 0
M  V30 4835 C 468.723 1.66275 -0.894312 0
M  V30 4836 O 468.08 1.82072 0.124975 0
M  V30 4837 C 468.131 1.38884 -3.33756 0
M  V30 4838 O 467.852 0.438806 -4.35897 0
M  V30 4839 C 469.353 2.1731 -3.86383 0
M  V30 4840 H 466.573 0.186292 -0.644621 0
M  V30 4841 H 469.117 -0.0749748 -2.04363 0
M  V30 4842 H 467.272 2.08835 -3.26293 0
M  V30 4843 H 467.686 0.945869 -5.15901 0
M  V30 4844 H 469.16 2.62863 -4.85394 0
M  V30 4845 H 469.637 3.00764 -3.20059 0
M  V30 4846 H 470.243 1.52339 -3.97081 0
M  V30 4847 N 468.558 1.5553 0.254621 0
M  V30 4848 C 469.49 1.86104 1.33783 0
M  V30 4849 C 470.503 0.746752 1.44663 0
M  V30 4850 O 471.692 1.0248 1.46151 0
M  V30 4851 C 468.792 2.02532 2.71724 0
M  V30 4852 C 467.965 3.33335 2.83208 0
M  V30 4853 C 467.024 3.396 4.01943 0
M  V30 4854 O 466.05 4.12862 3.91834 0
M  V30 4855 N 467.252 2.68332 5.1476 0
M  V30 4856 H 470.017 2.79605 1.07893 0
M  V30 4857 H 467.578 1.55672 0.444732 0
M  V30 4858 H 469.57 2.04074 3.4948 0
M  V30 4859 H 468.14 1.15811 2.90356 0
M  V30 4860 H 467.36 3.44176 1.92189 0
M  V30 4861 H 468.648 4.19565 2.87824 0
M  V30 4862 H 468.046 2.08528 5.25864 0
M  V30 4863 H 466.603 2.75575 5.90679 0
M  V30 4864 N 470.036 -0.519951 1.48776 0
M  V30 4865 C 470.968 -1.63973 1.60142 0
M  V30 4866 C 471.981 -1.55404 0.485117 0
M  V30 4867 O 473.17 -1.61682 0.756391 0
M  V30 4868 C 470.27 -3.02676 1.52449 0
M  V30 4869 C 469.443 -3.36624 2.79291 0
M  V30 4870 C 468.502 -4.54652 2.64912 0
M  V30 4871 O 467.528 -4.57374 3.38818 0
M  V30 4872 N 468.73 -5.53432 1.75195 0
M  V30 4873 H 471.495 -1.54656 2.56713 0
M  V30 4874 H 469.056 -0.707439 1.45626 0
M  V30 4875 H 471.048 -3.79525 1.4051 0
M  V30 4876 H 469.618 -3.06018 0.638125 0
M  V30 4877 H 468.838 -2.48855 3.0572 0
M  V30 4878 H 470.126 -3.56094 3.6342 0
M  V30 4879 H 469.524 -5.54018 1.14371 0
M  V30 4880 H 468.081 -6.29459 1.69189 0
M  V30 4881 N 471.514 -1.37532 -0.769588 0
M  V30 4882 C 472.925 -1.29382 -1.346 0
M  V30 4883 C 473.276 0.0576039 -1.96115 0
M  V30 4884 O 472.401 0.95947 -1.93967 0
M  V30 4885 C 472.996 -2.34298 -2.44724 0
M  V30 4886 C 471.555 -2.29776 -2.98128 0
M  V30 4887 C 470.702 -2.18013 -1.71364 0
M  V30 4888 H 473.653 -1.48123 -0.56968 0
M  V30 4889 H 473.674 -1.99089 -3.24259 0
M  V30 4890 H 473.186 -3.32645 -1.99922 0
M  V30 4891 H 471.287 -1.34959 -3.47299 0
M  V30 4892 H 471.4 -3.23276 -3.53595 0
M  V30 4893 H 469.764 -1.64595 -1.94372 0
M  V30 4894 H 470.547 -3.18278 -1.28662 0
M  V30 4895 N 472.992 0.995999 -1.22138 0
M  V30 4896 C 474.239 1.7351 -1.04406 0
M  V30 4897 C 474.567 1.89884 0.421244 0
M  V30 4898 O 473.822 1.43683 1.32867 0
M  V30 4899 C 474.121 3.14553 -1.6968 0
M  V30 4900 C 473.787 3.18102 -3.19565 0
M  V30 4901 C 472.449 3.18778 -3.60464 0
M  V30 4902 C 474.801 3.14636 -4.15516 0
M  V30 4903 C 472.129 3.13684 -4.95801 0
M  V30 4904 C 474.481 3.11084 -5.50826 0
M  V30 4905 C 473.145 3.10074 -5.91109 0
M  V30 4906 H 472.415 0.634916 -0.38205 0
M  V30 4907 H 475.062 1.1667 -1.51857 0
M  V30 4908 H 473.367 3.74682 -1.14546 0
M  V30 4909 H 475.064 3.70477 -1.53454 0
M  V30 4910 H 471.654 3.18324 -2.86998 0
M  V30 4911 H 475.838 3.13266 -3.84939 0
M  V30 4912 H 471.094 3.11245 -5.26247 0
M  V30 4913 H 475.268 3.07357 -6.24904 0
M  V30 4914 H 472.895 3.05882 -6.95946 0
M  V30 4915 N 474.47 1.03057 1.19235 0
M  V30 4916 C 475.747 0.642608 1.84743 0
M  V30 4917 C 476.127 -0.878577 1.91948 0
M  V30 4918 O 475.475 -1.77597 1.43776 0
M  V30 4919 C 475.685 1.30665 3.23616 0
M  V30 4920 C 477.033 1.43098 3.9976 0
M  V30 4921 O 478.057 1.26396 3.3302 0
M  V30 4922 O 476.916 1.70223 5.19313 0
M  V30 4923 H 474.01 0.223573 0.796206 0
M  V30 4924 H 476.556 1.12883 1.26711 0
M  V30 4925 H 475.328 2.34544 3.13217 0
M  V30 4926 H 474.951 0.808405 3.89295 0
M  V30 4927 N 475.948 -1.35272 0.808662 0
M  V30 4928 C 477.194 -1.99003 0.390581 0
M  V30 4929 C 477.527 -1.63999 -1.0401 0
M  V30 4930 O 476.802 -0.904368 -1.72196 0
M  V30 4931 C 477.085 -3.55454 0.576566 0
M  V30 4932 C 476.938 -4.00249 2.05233 0
M  V30 4933 C 478.257 -4.401 0.00354277 0
M  V30 4934 H 475.376 -0.722917 0.143388 0
M  V30 4935 H 478.018 -1.6039 1.01858 0
M  V30 4936 H 476.168 -3.88477 0.0419766 0
M  V30 4937 H 477.84 -3.77626 2.64946 0
M  V30 4938 H 476.083 -3.51082 2.54801 0
M  V30 4939 H 476.754 -5.0911 2.13333 0
M  V30 4940 H 479.23 -4.13548 0.460117 0
M  V30 4941 H 478.106 -5.48656 0.163575 0
M  V30 4942 H 478.367 -4.28444 -1.09032 0
M  V30 4943 N 477.426 -0.562348 -1.47226 0
M  V30 4944 C 478.651 -0.0432632 -2.07355 0
M  V30 4945 C 479.076 1.24332 -1.41149 0
M  V30 4946 O 478.434 1.74603 -0.488226 0
M  V30 4947 C 478.482 0.130288 -3.60365 0
M  V30 4948 O 477.586 1.19166 -3.94808 0
M  V30 4949 H 476.927 -0.0536334 -0.66183 0
M  V30 4950 H 479.457 -0.779495 -1.89169 0
M  V30 4951 H 479.467 0.342881 -4.06557 0
M  V30 4952 H 478.142 -0.809389 -4.07948 0
M  V30 4953 H 476.719 0.959153 -3.60354 0
M  V30 4954 N 478.904 1.54736 -0.299062 0
M  V30 4955 C 479.867 2.22127 0.565012 0
M  V30 4956 C 480.867 1.20669 1.06281 0
M  V30 4957 O 482.057 1.45417 0.959145 0
M  V30 4958 C 479.189 2.90611 1.78208 0
M  V30 4959 H 480.382 2.99891 -0.0237448 0
M  V30 4960 H 477.935 1.5622 -0.0498788 0
M  V30 4961 H 478.67 2.16921 2.41072 0
M  V30 4962 H 478.455 3.64984 1.43281 0
M  V30 4963 H 479.945 3.42026 2.396 0
M  V30 4964 N 480.382 0.0267497 1.57577 0
M  V30 4965 C 481.629 -0.652404 1.91703 0
M  V30 4966 C 481.957 -1.72271 0.902936 0
M  V30 4967 O 481.212 -1.955 -0.0884843 0
M  V30 4968 C 481.511 -1.30914 3.3256 0
M  V30 4969 C 481.177 -0.369441 4.49384 0
M  V30 4970 C 479.839 -0.110791 4.81072 0
M  V30 4971 C 482.191 0.275971 5.20469 0
M  V30 4972 C 479.519 0.801116 5.81205 0
M  V30 4973 C 481.871 1.17592 6.21575 0
M  V30 4974 C 480.535 1.44348 6.51705 0
M  V30 4975 H 479.805 -0.238732 0.70149 0
M  V30 4976 H 482.452 0.0880091 1.91298 0
M  V30 4977 H 480.757 -2.12425 3.29216 0
M  V30 4978 H 482.454 -1.84115 3.56234 0
M  V30 4979 H 479.044 -0.581211 4.24641 0
M  V30 4980 H 483.228 0.0892 4.9622 0
M  V30 4981 H 478.484 1.01614 6.02897 0
M  V30 4982 H 482.658 1.68223 6.75777 0
M  V30 4983 H 480.285 2.15176 7.29111 0
M  V30 4984 N 481.861 -1.55662 -0.24637 0
M  V30 4985 C 482.809 -1.91186 -1.3248 0
M  V30 4986 C 483.803 -0.790996 -1.49799 0
M  V30 4987 O 485.009 -0.975617 -1.51267 0
M  V30 4988 H 481.384 -0.607207 -0.443626 0
M  V30 4989 H 483.355 -2.81221 -0.997853 0
M  V30 4990 C 482.104 -2.22349 -2.67313 0
M  V30 4991 H 481.427 -3.08097 -2.54786 0
M  V30 4992 H 482.867 -2.51107 -3.41645 0
M  V30 4993 C 481.326 -1.04001 -3.20446 0
M  V30 4994 O 481.856 -0.28828 -4.00664 0
M  V30 4995 N 480.062 -0.830494 -2.7848 0
M  V30 4996 H 479.609 -1.4435 -2.13356 0
M  V30 4997 H 479.567 -0.0403258 -3.14374 0
M  V30 4998 N 483.339 0.512053 -1.4905 0
M  V30 4999 C 484.302 1.59704 -1.64399 0
M  V30 5000 C 485.302 1.52285 -0.516317 0
M  V30 5001 O 486.492 1.55635 -0.782527 0
M  V30 5002 C 483.624 2.9935 -1.63102 0
M  V30 5003 H 484.817 1.47428 -2.61161 0
M  V30 5004 H 482.37 0.735469 -1.37915 0
M  V30 5005 H 483.105 3.17116 -0.678836 0
M  V30 5006 H 482.89 3.06144 -2.44986 0
M  V30 5007 H 484.38 3.782 -1.77072 0
M  V30 5008 N 484.817 1.37938 0.762283 0
M  V30 5009 C 486.042 1.37059 1.55659 0
M  V30 5010 C 486.467 -0.0396123 1.88058 0
M  V30 5011 O 485.825 -1.01929 1.49934 0
M  V30 5012 C 485.873 2.22494 2.83776 0
M  V30 5013 O 484.977 1.63607 3.78559 0
M  V30 5014 H 484.318 0.467892 0.47114 0
M  V30 5015 H 486.848 1.81587 0.942725 0
M  V30 5016 H 486.858 2.36045 3.32786 0
M  V30 5017 H 485.533 3.24993 2.59524 0
M  V30 5018 H 484.11 1.5915 3.37233 0
M  V30 5019 N 486.295 -0.989507 1.22664 0
M  V30 5020 C 487.525 -1.7624 1.0781 0
M  V30 5021 C 487.933 -1.85466 -0.374036 0
M  V30 5022 O 487.276 -1.32645 -1.27087 0
M  V30 5023 C 487.338 -3.21007 1.61849 0
M  V30 5024 C 487.002 -3.35316 3.10503 0
M  V30 5025 C 487.999 -3.22362 4.07896 0
M  V30 5026 C 485.684 -3.60258 3.50028 0
M  V30 5027 C 487.678 -3.34139 5.42798 0
M  V30 5028 C 485.365 -3.71676 4.85078 0
M  V30 5029 C 486.363 -3.58625 5.81272 0
M  V30 5030 O 486.051 -3.69655 7.1387 0
M  V30 5031 H 485.783 -0.560209 0.378341 0
M  V30 5032 H 488.337 -1.25252 1.62792 0
M  V30 5033 H 486.567 -3.73202 1.01279 0
M  V30 5034 H 488.256 -3.80024 1.42606 0
M  V30 5035 H 489.022 -3.03 3.78703 0
M  V30 5036 H 484.901 -3.69492 2.75675 0
M  V30 5037 H 488.445 -3.23869 6.17863 0
M  V30 5038 H 484.342 -3.90545 5.1395 0
M  V30 5039 H 485.11 -3.86507 7.21495 0
M  V30 5040 N 487.773 -1.03688 -1.18687 0
M  V30 5041 C 488.998 -0.757819 -1.93059 0
M  V30 5042 C 489.423 0.678353 -1.75442 0
M  V30 5043 O 488.781 1.46938 -1.06203 0
M  V30 5044 C 488.829 -1.12423 -3.42627 0
M  V30 5045 O 487.933 -0.247505 -4.11657 0
M  V30 5046 H 487.274 -0.279245 -0.602427 0
M  V30 5047 H 489.804 -1.3857 -1.5053 0
M  V30 5048 H 489.814 -1.08454 -3.93322 0
M  V30 5049 H 488.489 -2.17049 -3.54771 0
M  V30 5050 H 487.066 -0.34649 -3.71287 0
M  V30 5051 N 489.251 1.34841 -0.815825 0
M  V30 5052 C 490.528 1.92908 -0.323416 0
M  V30 5053 C 490.908 1.74479 1.18828 0
M  V30 5054 O 490.256 1.11928 1.99209 0
M  V30 5055 C 490.466 3.40957 -0.744952 0
M  V30 5056 C 491.814 4.18107 -0.739716 0
M  V30 5057 O 492.838 3.49511 -0.68708 0
M  V30 5058 O 491.697 5.40517 -0.806456 0
M  V30 5059 H 488.791 0.822436 -0.0867646 0
M  V30 5060 H 491.337 1.4386 -0.90014 0
M  V30 5061 H 490.109 3.4814 -1.78646 0
M  V30 5062 H 489.732 3.97341 -0.143535 0
M  V30 5063 N 490.729 0.570148 1.46925 0
M  V30 5064 C 491.954 0.0542592 2.07329 0
M  V30 5065 C 492.379 -1.23582 1.41806 0
M  V30 5066 O 491.737 -1.74341 0.497479 0
M  V30 5067 C 491.785 -0.111175 3.60429 0
M  V30 5068 O 490.889 -1.17071 3.95434 0
M  V30 5069 H 490.23 0.0571425 0.661537 0
M  V30 5070 H 492.76 0.789516 1.88753 0
M  V30 5071 H 492.77 -0.321315 4.06733 0
M  V30 5072 H 491.445 0.831012 4.07513 0
M  V30 5073 H 490.022 -0.940029 3.60857 0
M  V30 5074 N 492.207 -1.54576 0.307264 0
M  V30 5075 C 493.455 -1.99867 -0.299574 0
M  V30 5076 C 493.776 -1.19714 -1.53927 0
M  V30 5077 O 493.046 -0.29472 -1.9367 0
M  V30 5078 H 491.626 -0.738299 -0.113683 0
M  V30 5079 H 494.288 -1.9032 0.420042 0
M  V30 5080 H 493.384 -3.06901 -0.567283 0
M  V30 5081 N 493.685 -0.035106 -1.57561 0
M  V30 5082 C 494.615 0.942993 -2.13612 0
M  V30 5083 C 495.596 1.33531 -1.05373 0
M  V30 5084 O 496.781 1.41287 -1.33235 0
M  V30 5085 C 493.911 2.22332 -2.66807 0
M  V30 5086 C 492.865 1.97156 -3.79886 0
M  V30 5087 C 492.191 3.31506 -4.19533 0
M  V30 5088 C 493.491 1.30596 -5.05709 0
M  V30 5089 H 495.185 0.476179 -2.95589 0
M  V30 5090 H 492.731 0.227602 -1.4219 0
M  V30 5091 H 494.684 2.91142 -3.04654 0
M  V30 5092 H 493.408 2.7119 -1.81999 0
M  V30 5093 H 492.067 1.30763 -3.42486 0
M  V30 5094 H 491.715 3.78134 -3.31698 0
M  V30 5095 H 491.415 3.15465 -4.95738 0
M  V30 5096 H 492.939 4.01574 -4.59968 0
M  V30 5097 H 494.353 1.89416 -5.41105 0
M  V30 5098 H 492.75 1.24934 -5.86951 0
M  V30 5099 H 493.82 0.279742 -4.84092 0
M  V30 5100 N 495.163 1.55791 0.238111 0
M  V30 5101 C 496.41 1.78033 0.964907 0
M  V30 5102 C 496.738 0.600984 1.84982 0
M  V30 5103 O 495.993 -0.41536 1.91241 0
M  V30 5104 C 496.292 3.05869 1.84875 0
M  V30 5105 C 495.958 4.36808 1.11846 0
M  V30 5106 C 494.62 4.72388 0.916662 0
M  V30 5107 C 496.972 5.17717 0.60151 0
M  V30 5108 C 494.3 5.86406 0.185756 0
M  V30 5109 C 496.652 6.32494 -0.115972 0
M  V30 5110 C 495.316 6.66688 -0.329168 0
M  V30 5111 H 494.586 0.651469 0.353085 0
M  V30 5112 H 497.233 1.90061 0.234318 0
M  V30 5113 H 495.538 2.88891 2.64668 0
M  V30 5114 H 497.235 3.20278 2.41294 0
M  V30 5115 H 493.825 4.08862 1.28569 0
M  V30 5116 H 498.009 4.90678 0.744932 0
M  V30 5117 H 493.265 6.11399 0.0101886 0
M  V30 5118 H 497.439 6.94425 -0.524127 0
M  V30 5119 H 495.066 7.54884 -0.897474 0
M  V30 5120 N 496.642 -0.504142 1.49319 0
M  V30 5121 C 497.89 -1.25598 1.58334 0
M  V30 5122 C 498.211 -1.93114 0.270538 0
M  V30 5123 O 497.481 -1.82585 -0.709891 0
M  V30 5124 H 496.061 -0.466571 0.58337 0
M  V30 5125 H 498.723 -0.584547 1.85928 0
M  V30 5126 H 497.819 -2.02159 2.37778 0
M  V30 5127 N 498.12 -1.38341 -0.754957 0
M  V30 5128 C 499.369 -1.33791 -1.5094 0
M  V30 5129 C 499.682 0.0699267 -1.95475 0
M  V30 5130 O 500.888 0.237956 -2.70455 0
M  V30 5131 C 499.344 -2.34934 -2.72643 0
M  V30 5132 C 498.952 -3.81332 -2.35138 0
M  V30 5133 C 500.696 -2.39425 -3.50536 0
M  V30 5134 C 498.603 -4.74164 -3.53444 0
M  V30 5135 H 497.533 -0.497314 -0.566741 0
M  V30 5136 H 500.184 -1.63888 -0.825403 0
M  V30 5137 H 498.566 -1.97878 -3.43017 0
M  V30 5138 H 499.74 -4.27319 -1.7244 0
M  V30 5139 H 498.055 -3.79946 -1.70382 0
M  V30 5140 H 500.652 -3.0598 -4.38498 0
M  V30 5141 H 500.995 -1.41278 -3.91594 0
M  V30 5142 H 501.528 -2.75274 -2.87174 0
M  V30 5143 H 498.267 -5.73501 -3.17453 0
M  V30 5144 H 497.787 -4.3287 -4.15191 0
M  V30 5145 H 499.466 -4.92111 -4.20043 0
M  V30 5146 N 499.598 0.982988 -1.23187 0
M  V30 5147 C 500.828 1.75666 -1.08743 0
M  V30 5148 C 501.236 1.85662 0.364195 0
M  V30 5149 O 500.579 1.33317 1.26382 0
M  V30 5150 C 500.641 3.20144 -1.63549 0
M  V30 5151 C 500.305 3.33665 -3.12277 0
M  V30 5152 C 501.302 3.20194 -4.096 0
M  V30 5153 C 498.987 3.58397 -3.51933 0
M  V30 5154 C 500.981 3.31256 -5.44563 0
M  V30 5155 C 498.668 3.69098 -4.87042 0
M  V30 5156 C 499.666 3.55537 -5.83166 0
M  V30 5157 O 499.354 3.65864 -7.1582 0
M  V30 5158 H 499.086 0.558194 -0.381307 0
M  V30 5159 H 501.64 1.24387 -1.63454 0
M  V30 5160 H 499.87 3.72659 -1.03256 0
M  V30 5161 H 501.559 3.79262 -1.4462 0
M  V30 5162 H 502.325 3.00987 -3.80305 0
M  V30 5163 H 498.204 3.68025 -2.77631 0
M  V30 5164 H 501.748 3.20588 -6.19572 0
M  V30 5165 H 497.645 3.87814 -5.16014 0
M  V30 5166 H 498.413 3.82675 -7.23534 0
M  V30 5167 N 501.076 1.04316 1.18135 0
M  V30 5168 C 502.304 0.768117 1.92113 0
M  V30 5169 C 502.719 -0.675057 1.76319 0
M  V30 5170 O 502.076 -1.46038 1.09449 0
M  V30 5171 C 502.127 1.12808 3.43448 0
M  V30 5172 O 501.848 2.5146 3.58747 0
M  V30 5173 C 503.349 0.8779 4.3452 0
M  V30 5174 H 500.569 0.279937 0.609817 0
M  V30 5175 H 503.113 1.39149 1.49859 0
M  V30 5176 H 501.268 0.549623 3.83481 0
M  V30 5177 H 501.682 2.65313 4.52448 0
M  V30 5178 H 503.156 1.17959 5.39249 0
M  V30 5179 H 503.633 -0.187239 4.38801 0
M  V30 5180 H 504.239 1.43977 4.00188 0
M  V30 5181 N 502.554 -1.34406 0.822964 0
M  V30 5182 C 503.803 -1.97542 0.407458 0
M  V30 5183 C 504.116 -1.65973 -1.035 0
M  V30 5184 O 505.322 -2.22598 -1.55442 0
M  V30 5185 C 503.778 -3.53463 0.677623 0
M  V30 5186 C 503.386 -3.93925 2.1337 0
M  V30 5187 C 505.13 -4.23229 0.328284 0
M  V30 5188 C 503.037 -5.42759 2.34876 0
M  V30 5189 H 501.967 -0.739207 0.148623 0
M  V30 5190 H 504.618 -1.53248 1.00932 0
M  V30 5191 H 503 -3.96 0.00558965 0
M  V30 5192 H 504.174 -3.62494 2.8449 0
M  V30 5193 H 502.489 -3.37097 2.44448 0
M  V30 5194 H 505.086 -5.32659 0.466794 0
M  V30 5195 H 505.429 -4.09899 -0.727224 0
M  V30 5196 H 505.962 -3.86169 0.954896 0
M  V30 5197 H 502.701 -5.61075 3.38932 0
M  V30 5198 H 502.221 -5.75704 1.68299 0
M  V30 5199 H 503.9 -6.0944 2.17236 0
M  V30 5200 N 504.032 -0.577932 -1.46621 0
M  V30 5201 C 505.257 -0.0652536 -2.07297 0
M  V30 5202 C 505.682 1.22828 -1.4246 0
M  V30 5203 O 505.04 1.74075 -0.506718 0
M  V30 5204 C 505.088 0.0920589 -3.60482 0
M  V30 5205 O 504.192 1.14972 -3.96049 0
M  V30 5206 H 503.533 -0.06065 -0.661224 0
M  V30 5207 H 506.063 -0.799515 -1.88332 0
M  V30 5208 H 506.073 0.299741 -4.06897 0
M  V30 5209 H 504.748 -0.852612 -4.07067 0
M  V30 5210 H 503.325 0.920879 -3.61351 0
M  V30 5211 N 505.51 1.54411 -0.315457 0
M  V30 5212 C 506.442 2.21527 0.588067 0
M  V30 5213 C 507.455 1.21263 1.08624 0
M  V30 5214 O 508.644 1.47777 1.00121 0
M  V30 5215 C 505.744 2.85963 1.81875 0
M  V30 5216 C 504.917 4.12291 1.46063 0
M  V30 5217 C 503.976 4.60396 2.54799 0
M  V30 5218 O 503.002 5.25265 2.19283 0
M  V30 5219 N 504.204 4.33935 3.85591 0
M  V30 5220 H 506.969 2.99697 0.013414 0
M  V30 5221 H 504.53 1.61308 -0.138295 0
M  V30 5222 H 506.522 3.15071 2.53993 0
M  V30 5223 H 505.092 2.11548 2.30144 0
M  V30 5224 H 504.312 3.90036 0.571445 0
M  V30 5225 H 505.6 4.9452 1.19695 0
M  V30 5226 H 504.998 3.81996 4.17248 0
M  V30 5227 H 503.555 4.67718 4.53964 0
M  V30 5228 N 506.988 0.0434614 1.5754 0
M  V30 5229 C 507.951 -0.918696 2.09982 0
M  V30 5230 C 508.951 -1.24488 1.01781 0
M  V30 5231 O 510.141 -1.18284 1.27885 0
M  V30 5232 C 507.273 -2.23093 2.57764 0
M  V30 5233 H 508.466 -0.464229 2.96285 0
M  V30 5234 H 506.019 -0.204818 1.54952 0
M  V30 5235 H 506.754 -2.73137 1.74832 0
M  V30 5236 H 506.539 -2.00724 3.36827 0
M  V30 5237 H 508.029 -2.92028 2.98512 0
M  V30 5238 N 508.466 -1.55915 -0.229846 0
M  V30 5239 C 509.694 -1.82617 -0.972562 0
M  V30 5240 C 510.109 -0.621488 -1.78278 0
M  V30 5241 O 509.466 0.409956 -1.77836 0
M  V30 5242 C 509.517 -3.0774 -1.89679 0
M  V30 5243 O 509.238 -4.23559 -1.11934 0
M  V30 5244 C 510.739 -3.47368 -2.75409 0
M  V30 5245 H 507.959 -0.60727 -0.285419 0
M  V30 5246 H 510.503 -2.02996 -0.247579 0
M  V30 5247 H 508.658 -2.89361 -2.57583 0
M  V30 5248 H 509.072 -4.94586 -1.74599 0
M  V30 5249 H 510.546 -4.37977 -3.35977 0
M  V30 5250 H 511.023 -2.68737 -3.47386 0
M  V30 5251 H 511.629 -3.68158 -2.12931 0
M  V30 5252 N 509.944 0.496216 -1.49584 0
M  V30 5253 C 510.907 1.57952 -1.66084 0
M  V30 5254 C 511.907 1.51729 -0.53244 0
M  V30 5255 O 513.097 1.54796 -0.79899 0
M  V30 5256 C 510.229 2.97604 -1.66268 0
M  V30 5257 H 511.422 1.44649 -2.6271 0
M  V30 5258 H 508.975 0.7208 -1.38687 0
M  V30 5259 H 509.71 3.16378 -0.712432 0
M  V30 5260 H 509.495 3.03528 -2.4822 0
M  V30 5261 H 510.985 3.76301 -1.81073 0
M  V30 5262 N 511.423 1.38739 0.74761 0
M  V30 5263 C 512.386 1.36241 1.84312 0
M  V30 5264 C 513.386 0.261811 1.58654 0
M  V30 5265 O 514.576 0.519031 1.66288 0
M  V30 5266 C 511.708 1.12253 3.21888 0
M  V30 5267 H 512.901 2.33712 1.87933 0
M  V30 5268 H 510.454 1.2412 0.949946 0
M  V30 5269 H 511.189 0.154133 3.23934 0
M  V30 5270 H 510.974 1.91943 3.41907 0
M  V30 5271 H 512.464 1.13215 4.0196 0
M  V30 5272 N 512.901 -0.976442 1.23707 0
M  V30 5273 C 514.149 -1.71487 1.06942 0
M  V30 5274 C 514.47 -1.9098 -0.393897 0
M  V30 5275 O 513.74 -1.48128 -1.28198 0
M  V30 5276 H 512.32 -0.635425 0.392739 0
M  V30 5277 H 514.982 -1.17515 1.55487 0
M  V30 5278 H 514.078 -2.70286 1.56051 0
M  V30 5279 N 514.379 -1.04941 -1.1758 0
M  V30 5280 C 515.656 -0.671918 -1.83697 0
M  V30 5281 C 516.036 0.847929 -1.93322 0
M  V30 5282 O 515.384 1.75287 -1.46583 0
M  V30 5283 C 515.594 -1.35797 -3.21497 0
M  V30 5284 C 516.942 -1.4944 -3.97433 0
M  V30 5285 O 517.966 -1.31678 -3.30967 0
M  V30 5286 O 516.825 -1.78463 -5.1654 0
M  V30 5287 H 513.919 -0.236212 -0.792548 0
M  V30 5288 H 516.465 -1.14884 -1.24899 0
M  V30 5289 H 515.237 -2.39498 -3.09446 0
M  V30 5290 H 514.86 -0.870236 -3.8796 0
M  V30 5291 N 515.857 1.33968 -0.830081 0
M  V30 5292 C 517.103 1.98357 -0.422191 0
M  V30 5293 C 517.436 1.65633 1.01387 0
M  V30 5294 O 516.711 0.931648 1.70735 0
M  V30 5295 C 516.994 3.54492 -0.633043 0
M  V30 5296 C 516.847 3.96934 -2.11574 0
M  V30 5297 C 518.166 4.40039 -0.0735584 0
M  V30 5298 H 515.285 0.720544 -0.154871 0
M  V30 5299 H 517.927 1.58749 -1.04397 0
M  V30 5300 H 516.077 3.88361 -0.103775 0
M  V30 5301 H 517.749 3.73363 -2.7092 0
M  V30 5302 H 515.992 3.46984 -2.60354 0
M  V30 5303 H 516.663 5.05651 -2.21406 0
M  V30 5304 H 519.139 4.12764 -0.52585 0
M  V30 5305 H 518.015 5.48327 -0.250841 0
M  V30 5306 H 518.276 4.30124 1.02202 0
M  V30 5307 N 517.335 0.585699 1.46312 0
M  V30 5308 C 518.584 0.0701192 2.01578 0
M  V30 5309 C 518.897 -1.29889 1.46247 0
M  V30 5310 O 520.103 -1.90598 1.93351 0
M  V30 5311 C 518.559 0.0747499 3.59822 0
M  V30 5312 C 518.167 1.44226 4.24149 0
M  V30 5313 C 519.911 -0.38673 4.22735 0
M  V30 5314 C 517.818 1.40446 5.74481 0
M  V30 5315 H 516.748 0.0224441 0.753666 0
M  V30 5316 H 519.399 0.737789 1.68015 0
M  V30 5317 H 517.781 -0.659144 3.90476 0
M  V30 5318 H 518.955 2.19612 4.05101 0
M  V30 5319 H 517.27 1.84401 3.73343 0
M  V30 5320 H 519.867 -0.433853 5.32937 0
M  V30 5321 H 520.21 -1.40489 3.91878 0
M  V30 5322 H 520.743 0.293195 3.96718 0
M  V30 5323 H 517.482 2.39952 6.10003 0
M  V30 5324 H 517.002 0.692845 5.95785 0
M  V30 5325 H 518.681 1.11865 6.37256 0
M  V30 5326 N 518.813 -1.54241 0.323641 0
M  V30 5327 C 519.76 -2.24339 -0.542277 0
M  V30 5328 C 520.73 -1.23421 -1.11159 0
M  V30 5329 O 521.915 -1.52104 -1.15192 0
M  V30 5330 C 519.055 -3.00479 -1.69725 0
M  V30 5331 C 518.168 -4.16214 -1.15716 0
M  V30 5332 C 517.303 -4.79884 -2.27783 0
M  V30 5333 C 516.342 -5.87722 -1.71023 0
M  V30 5334 N 515.479 -6.45254 -2.76752 0
M  V30 5335 H 520.319 -2.97935 0.0620613 0
M  V30 5336 H 517.856 -1.47039 0.0423993 0
M  V30 5337 H 519.814 -3.42869 -2.3769 0
M  V30 5338 H 518.444 -2.29217 -2.27288 0
M  V30 5339 H 517.496 -3.78605 -0.369063 0
M  V30 5340 H 518.808 -4.93838 -0.701832 0
M  V30 5341 H 517.962 -5.25243 -3.03651 0
M  V30 5342 H 516.701 -4.01641 -2.76652 0
M  V30 5343 H 515.706 -5.41765 -0.936518 0
M  V30 5344 H 516.931 -6.67863 -1.2303 0
M  V30 5345 H 514.877 -5.69884 -3.24912 0
M  V30 5346 H 514.794 -7.18292 -2.35782 0
M  V30 5347 H 516.062 -6.95269 -3.5245 0
M  V30 5348 N 520.291 -0.0518155 -1.57515 0
M  V30 5349 C 521.254 0.907547 -2.10467 0
M  V30 5350 C 522.254 1.23947 -1.02439 0
M  V30 5351 O 523.444 1.17604 -1.2851 0
M  V30 5352 C 520.576 2.21723 -2.58944 0
M  V30 5353 H 521.769 0.44851 -2.96527 0
M  V30 5354 H 519.322 0.196598 -1.55059 0
M  V30 5355 H 520.057 2.72206 -1.76279 0
M  V30 5356 H 519.842 1.98935 -3.37886 0
M  V30 5357 H 521.332 2.90441 -3.00056 0
M  V30 5358 N 521.769 1.56035 0.221574 0
M  V30 5359 C 522.732 1.91584 1.2581 0
M  V30 5360 C 523.732 0.794425 1.39805 0
M  V30 5361 O 524.922 1.06217 1.38071 0
M  V30 5362 C 522.054 2.16663 2.63192 0
M  V30 5363 H 523.247 2.8429 0.954935 0
M  V30 5364 H 520.8 1.49316 0.461988 0
M  V30 5365 H 521.535 1.26508 2.98607 0
M  V30 5366 H 521.32 2.98358 2.5441 0
M  V30 5367 H 522.81 2.45262 3.37988 0
M  V30 5368 N 523.247 -0.488276 1.49845 0
M  V30 5369 C 524.477 -1.26344 1.63465 0
M  V30 5370 C 524.885 -1.86637 0.310379 0
M  V30 5371 O 524.228 -1.69184 -0.715712 0
M  V30 5372 C 524.29 -2.42407 2.65479 0
M  V30 5373 C 523.954 -2.02886 4.09495 0
M  V30 5374 C 524.951 -1.56124 4.95904 0
M  V30 5375 C 522.636 -2.12131 4.55308 0
M  V30 5376 C 524.63 -1.19129 6.26169 0
M  V30 5377 C 522.317 -1.74747 5.85582 0
M  V30 5378 C 523.315 -1.28322 6.70837 0
M  V30 5379 O 523.003 -0.914491 7.98682 0
M  V30 5380 H 522.735 -0.388921 0.552916 0
M  V30 5381 H 525.289 -0.591288 1.96705 0
M  V30 5382 H 523.519 -3.12739 2.27445 0
M  V30 5383 H 525.208 -3.04409 2.68495 0
M  V30 5384 H 525.974 -1.48417 4.61733 0
M  V30 5385 H 521.853 -2.47217 3.89107 0
M  V30 5386 H 525.397 -0.828211 6.92666 0
M  V30 5387 H 521.294 -1.82109 6.19279 0
M  V30 5388 H 522.062 -1.04485 8.11804 0
M  V30 5389 N 524.725 -1.39134 -0.740242 0
M  V30 5390 C 525.673 -1.3757 -1.87556 0
M  V30 5391 C 526.667 -0.259593 -1.67399 0
M  V30 5392 O 527.873 -0.429349 -1.74804 0
M  V30 5393 H 524.248 -0.42947 -0.6173 0
M  V30 5394 H 526.219 -2.33345 -1.85991 0
M  V30 5395 C 524.968 -1.23087 -3.25184 0
M  V30 5396 H 524.291 -2.08237 -3.41288 0
M  V30 5397 H 525.731 -1.26049 -4.0483 0
M  V30 5398 C 524.19 0.0611471 -3.36845 0
M  V30 5399 O 524.72 1.03328 -3.88183 0
M  V30 5400 N 522.926 0.122454 -2.90342 0
M  V30 5401 H 522.473 -0.669329 -2.48752 0
M  V30 5402 H 522.431 0.986463 -2.98523 0
M  V30 5403 N 526.204 0.969867 -1.24223 0
M  V30 5404 C 527.136 2.0669 -0.99055 0
M  V30 5405 C 528.149 1.62753 0.0392222 0
M  V30 5406 O 529.338 1.77403 -0.197561 0
M  V30 5407 C 526.438 3.35589 -0.472594 0
M  V30 5408 C 525.611 4.08444 -1.56499 0
M  V30 5409 C 524.67 5.15616 -1.05007 0
M  V30 5410 O 523.696 5.41911 -1.7413 0
M  V30 5411 N 524.898 5.80383 0.116641 0
M  V30 5412 H 527.663 2.28855 -1.93508 0
M  V30 5413 H 525.224 1.13733 -1.15223 0
M  V30 5414 H 527.216 4.04542 -0.112919 0
M  V30 5415 H 525.786 3.10311 0.377617 0
M  V30 5416 H 525.006 3.33798 -2.09696 0
M  V30 5417 H 526.294 4.53882 -2.29932 0
M  V30 5418 H 525.692 5.6142 0.694589 0
M  V30 5419 H 524.249 6.50462 0.417483 0
M  V30 5420 N 527.682 1.05563 1.17022 0
M  V30 5421 C 528.928 0.769074 1.87652 0
M  V30 5422 C 529.261 -0.702326 1.81055 0
M  V30 5423 O 528.536 -1.5139 1.22112 0
M  V30 5424 C 528.819 1.25492 3.37526 0
M  V30 5425 C 528.672 2.78953 3.52853 0
M  V30 5426 C 529.991 0.856919 4.31677 0
M  V30 5427 H 527.11 0.280854 0.681388 0
M  V30 5428 H 529.752 1.31027 1.37593 0
M  V30 5429 H 527.902 0.794516 3.80289 0
M  V30 5430 H 529.574 3.33146 3.19079 0
M  V30 5431 H 527.817 3.18046 2.95007 0
M  V30 5432 H 528.488 3.08011 4.58076 0
M  V30 5433 H 530.964 1.25334 3.96775 0
M  V30 5434 H 529.84 1.22443 5.35069 0
M  V30 5435 H 530.101 -0.238787 4.41455 0
M  V30 5436 N 529.16 -1.33526 0.837174 0
M  V30 5437 C 530.107 -2.29248 0.267169 0
M  V30 5438 C 531.077 -1.54252 -0.616071 0
M  V30 5439 O 532.262 -1.82559 -0.554699 0
M  V30 5440 C 529.402 -3.40638 -0.553152 0
M  V30 5441 C 528.515 -4.30548 0.353921 0
M  V30 5442 C 527.65 -5.29051 -0.477339 0
M  V30 5443 C 526.689 -6.106 0.42823 0
M  V30 5444 N 525.826 -7.01152 -0.364801 0
M  V30 5445 H 530.666 -2.77398 1.08877 0
M  V30 5446 H 528.203 -1.36496 0.54838 0
M  V30 5447 H 530.161 -4.03921 -1.04422 0
M  V30 5448 H 528.791 -2.93685 -1.33973 0
M  V30 5449 H 527.843 -3.68001 0.963289 0
M  V30 5450 H 529.155 -4.87631 1.04964 0
M  V30 5451 H 528.309 -5.97853 -1.0323 0
M  V30 5452 H 527.048 -4.72541 -1.2065 0
M  V30 5453 H 526.053 -5.40718 0.995219 0
M  V30 5454 H 527.278 -6.69193 1.15573 0
M  V30 5455 H 525.224 -6.47092 -1.07738 0
M  V30 5456 H 525.141 -7.5551 0.272238 0
M  V30 5457 H 526.409 -7.74263 -0.902054 0
M  V30 5458 N 530.638 -0.59345 -1.46 0
M  V30 5459 C 531.866 -0.0890934 -2.06708 0
M  V30 5460 C 532.281 1.2205 -1.44046 0
M  V30 5461 O 531.638 1.74029 -0.549551 0
M  V30 5462 C 531.689 0.0720263 -3.61428 0
M  V30 5463 O 531.41 -1.18574 -4.21748 0
M  V30 5464 C 532.911 0.609487 -4.3909 0
M  V30 5465 H 530.131 -0.0623628 -0.668096 0
M  V30 5466 H 532.675 -0.817171 -1.87464 0
M  V30 5467 H 530.83 0.750369 -3.80063 0
M  V30 5468 H 531.244 -1.0064 -5.14754 0
M  V30 5469 H 532.718 0.671363 -5.47902 0
M  V30 5470 H 533.195 1.62878 -4.07882 0
M  V30 5471 H 533.801 -0.03434 -4.25286 0
M  V30 5472 N 532.116 1.54067 -0.331816 0
M  V30 5473 C 533.365 1.99895 0.269209 0
M  V30 5474 C 533.678 1.22371 1.52593 0
M  V30 5475 O 534.884 1.58618 2.20347 0
M  V30 5476 C 533.34 3.55972 0.530244 0
M  V30 5477 C 532.948 4.4234 -0.709901 0
M  V30 5478 C 534.692 4.10247 1.09077 0
M  V30 5479 C 532.599 5.89905 -0.420312 0
M  V30 5480 H 531.529 0.746741 0.104371 0
M  V30 5481 H 534.18 1.78014 -0.445324 0
M  V30 5482 H 532.562 3.73873 1.30518 0
M  V30 5483 H 533.736 4.36215 -1.48504 0
M  V30 5484 H 532.051 3.98997 -1.19123 0
M  V30 5485 H 534.648 5.18095 1.32219 0
M  V30 5486 H 534.991 3.62739 2.0427 0
M  V30 5487 H 535.524 3.96011 0.376824 0
M  V30 5488 H 532.263 6.41623 -1.34164 0
M  V30 5489 H 531.783 5.98962 0.316962 0
M  V30 5490 H 533.462 6.46991 -0.0331956 0
M  V30 5491 N 533.594 0.0601682 1.57485 0
M  V30 5492 C 534.557 -0.896373 2.10945 0
M  V30 5493 C 535.557 -1.23402 1.03095 0
M  V30 5494 O 536.747 -1.16921 1.29132 0
M  V30 5495 C 533.879 -2.20346 2.60116 0
M  V30 5496 H 535.072 -0.432778 2.96761 0
M  V30 5497 H 532.625 -0.188372 1.55161 0
M  V30 5498 H 533.36 -2.71268 1.7772 0
M  V30 5499 H 533.145 -1.9714 3.38937 0
M  V30 5500 H 534.635 -2.88846 3.01592 0
M  V30 5501 N 535.072 -1.5615 -0.213296 0
M  V30 5502 C 536.004 -1.89586 -1.28802 0
M  V30 5503 C 537.017 -0.784844 -1.42633 0
M  V30 5504 O 538.206 -1.06319 -1.43383 0
M  V30 5505 C 535.306 -2.09665 -2.66259 0
M  V30 5506 C 534.479 -3.40726 -2.7427 0
M  V30 5507 C 533.538 -3.50137 -3.92798 0
M  V30 5508 O 532.564 -4.23105 -3.8075 0
M  V30 5509 N 533.766 -2.81886 -5.07465 0
M  V30 5510 H 536.531 -2.82368 -1.00442 0
M  V30 5511 H 534.092 -1.56796 -0.403302 0
M  V30 5512 H 536.084 -2.13268 -3.43946 0
M  V30 5513 H 534.654 -1.23469 -2.87183 0
M  V30 5514 H 533.874 -3.4915 -1.82997 0
M  V30 5515 H 535.162 -4.27048 -2.76599 0
M  V30 5516 H 534.56 -2.22397 -5.2015 0
M  V30 5517 H 533.117 -2.91139 -5.83165 0
M  V30 5518 N 536.55 0.480323 -1.50102 0
M  V30 5519 C 537.798 1.23063 -1.60312 0
M  V30 5520 C 538.119 1.92659 -0.301226 0
M  V30 5521 O 537.389 1.83691 0.680753 0
M  V30 5522 H 535.969 0.457231 -0.590719 0
M  V30 5523 H 538.631 0.554893 -1.86834 0
M  V30 5524 H 537.727 1.9835 -2.40964 0
M  V30 5525 N 538.028 1.39524 0.732853 0
M  V30 5526 C 538.976 1.38563 1.86824 0
M  V30 5527 C 539.97 0.268467 1.67259 0
M  V30 5528 O 541.176 0.438613 1.74574 0
M  V30 5529 H 537.551 0.432737 0.615014 0
M  V30 5530 H 539.522 2.34328 1.84751 0
M  V30 5531 C 538.271 1.2481 3.24527 0
M  V30 5532 H 537.594 2.10044 3.40179 0
M  V30 5533 H 539.034 1.28194 4.04156 0
M  V30 5534 C 537.493 -0.0432825 3.36872 0
M  V30 5535 O 538.023 -1.01268 3.88726 0
M  V30 5536 N 536.229 -0.107055 2.90403 0
M  V30 5537 H 535.776 0.682512 2.48394 0
M  V30 5538 H 535.734 -0.970618 2.99042 0
M  V30 5539 N 539.506 -0.963266 1.24736 0
M  V30 5540 C 540.436 -2.07628 1.06832 0
M  V30 5541 C 541.417 -1.70088 -0.0200566 0
M  V30 5542 O 542.602 -1.93636 0.147854 0
M  V30 5543 C 539.732 -3.40636 0.677069 0
M  V30 5544 C 538.686 -3.9215 1.71471 0
M  V30 5545 C 538.012 -5.21553 1.1784 0
M  V30 5546 C 539.312 -4.19493 3.11164 0
M  V30 5547 H 541.006 -2.22864 1.9993 0
M  V30 5548 H 538.552 -1.07093 0.96266 0
M  V30 5549 H 540.505 -4.17941 0.538792 0
M  V30 5550 H 539.229 -3.25313 -0.289612 0
M  V30 5551 H 537.888 -3.17005 1.84128 0
M  V30 5552 H 537.536 -5.02593 0.202195 0
M  V30 5553 H 537.236 -5.56988 1.87185 0
M  V30 5554 H 538.76 -6.01463 1.05233 0
M  V30 5555 H 540.174 -4.87487 3.01711 0
M  V30 5556 H 538.571 -4.66165 3.77902 0
M  V30 5557 H 539.641 -3.26097 3.58871 0
M  V30 5558 N 540.985 -1.06182 -1.16461 0
M  V30 5559 C 542.21 -0.798599 -1.91408 0
M  V30 5560 C 542.635 0.640987 -1.76842 0
M  V30 5561 O 541.993 1.44652 -1.09296 0
M  V30 5562 C 542.041 -1.19665 -3.40165 0
M  V30 5563 O 541.145 -0.334768 -4.11039 0
M  V30 5564 H 540.486 -0.291961 -0.596368 0
M  V30 5565 H 543.016 -1.41732 -1.47557 0
M  V30 5566 H 543.026 -1.16772 -3.90933 0
M  V30 5567 H 541.701 -2.24526 -3.50087 0
M  V30 5568 H 540.278 -0.425168 -3.70468 0
M  V30 5569 N 542.463 1.3308 -0.844243 0
M  V30 5570 C 543.411 2.31028 -0.269954 0
M  V30 5571 C 544.405 1.58381 0.600997 0
M  V30 5572 O 545.611 1.73203 0.48996 0
M  V30 5573 H 541.986 0.748866 -0.0685782 0
M  V30 5574 H 543.957 2.76967 -1.11049 0
M  V30 5575 C 542.706 3.43549 0.535676 0
M  V30 5576 H 542.029 3.99604 -0.125202 0
M  V30 5577 H 543.469 4.14267 0.903262 0
M  V30 5578 C 541.928 2.8988 1.71672 0
M  V30 5579 O 542.458 2.86511 2.81557 0
M  V30 5580 N 540.664 2.46416 1.54037 0
M  V30 5581 H 540.211 2.49356 0.64649 0
M  V30 5582 H 540.169 2.1086 2.33207 0
M  V30 5583 N 543.941 0.601185 1.45683 0
M  V30 5584 C 545.169 0.100054 2.06658 0
M  V30 5585 C 545.584 -1.21285 1.44691 0
M  V30 5586 O 544.941 -1.73735 0.558772 0
M  V30 5587 C 544.992 -0.0528579 3.61461 0
M  V30 5588 O 544.713 1.20809 4.21114 0
M  V30 5589 C 546.214 -0.586193 4.39407 0
M  V30 5590 H 543.434 0.065905 0.667756 0
M  V30 5591 H 545.978 0.827101 1.87028 0
M  V30 5592 H 544.133 -0.730203 3.80456 0
M  V30 5593 H 544.547 1.03368 5.14213 0
M  V30 5594 H 546.021 -0.642297 5.4825 0
M  V30 5595 H 546.498 -1.60713 4.0874 0
M  V30 5596 H 547.104 0.0568935 4.25262 0
M  V30 5597 N 545.419 -1.53889 0.339982 0
M  V30 5598 C 546.696 -1.93084 -0.312719 0
M  V30 5599 C 547.076 -1.2712 -1.68534 0
M  V30 5600 O 546.424 -0.420835 -2.24591 0
M  V30 5601 C 546.634 -3.4683 -0.388558 0
M  V30 5602 C 547.982 -4.19732 -0.641088 0
M  V30 5603 O 549.006 -3.53075 -0.470818 0
M  V30 5604 O 547.865 -5.3781 -0.970685 0
M  V30 5605 H 544.959 -0.806784 -0.18174 0
M  V30 5606 H 547.505 -1.65137 0.390898 0
M  V30 5607 H 546.277 -3.87055 0.574821 0
M  V30 5608 H 545.9 -3.80933 -1.1391 0
M  V30 5609 N 546.897 -0.0685191 -1.57451 0
M  V30 5610 C 548.143 0.602239 -1.93652 0
M  V30 5611 C 548.476 1.6946 -0.948526 0
M  V30 5612 O 547.751 1.94487 0.022782 0
M  V30 5613 C 548.034 1.18223 -3.4014 0
M  V30 5614 C 547.887 0.0967431 -4.49696 0
M  V30 5615 C 549.206 2.08872 -3.87377 0
M  V30 5616 H 546.325 0.217453 -0.70419 0
M  V30 5617 H 548.967 -0.133821 -1.89528 0
M  V30 5618 H 547.117 1.80953 -3.43785 0
M  V30 5619 H 548.789 -0.536155 -4.58174 0
M  V30 5620 H 547.032 -0.573063 -4.29998 0
M  V30 5621 H 547.703 0.542894 -5.49324 0
M  V30 5622 H 550.179 1.56081 -3.85717 0
M  V30 5623 H 549.055 2.46389 -4.90493 0
M  V30 5624 H 549.316 2.99572 -3.25129 0
M  V30 5625 N 548.375 1.56261 0.205012 0
M  V30 5626 C 549.307 1.90266 1.27795 0
M  V30 5627 C 550.32 0.792397 1.42214 0
M  V30 5628 O 551.509 1.07077 1.42817 0
M  V30 5629 C 548.609 2.11074 2.65143 0
M  V30 5630 C 547.782 3.42176 2.7246 0
M  V30 5631 C 546.841 3.52216 3.90936 0
M  V30 5632 O 545.867 4.25119 3.78501 0
M  V30 5633 N 547.069 2.84573 5.05963 0
M  V30 5634 H 549.834 2.82896 0.989434 0
M  V30 5635 H 547.395 1.57008 0.394981 0
M  V30 5636 H 549.387 2.15089 3.4281 0
M  V30 5637 H 547.957 1.2499 2.86524 0
M  V30 5638 H 547.177 3.50116 1.81142 0
M  V30 5639 H 548.465 4.28509 2.74331 0
M  V30 5640 H 547.863 2.25152 5.18963 0
M  V30 5641 H 546.42 2.94228 5.81613 0
M  V30 5642 N 549.853 -0.472356 1.50355 0
M  V30 5643 C 550.816 -1.5529 1.68576 0
M  V30 5644 C 551.816 -1.50863 0.556511 0
M  V30 5645 O 553.006 -1.53505 0.823516 0
M  V30 5646 C 550.138 -2.94921 1.70981 0
M  V30 5647 H 551.331 -1.40451 2.64978 0
M  V30 5648 H 548.884 -0.698645 1.39816 0
M  V30 5649 H 549.619 -3.15204 0.762675 0
M  V30 5650 H 549.404 -2.99541 2.53017 0
M  V30 5651 H 550.894 -3.73372 1.87037 0
M  V30 5652 N 551.331 -1.39911 -0.725443 0
M  V30 5653 C 552.294 -1.39156 -1.82121 0
M  V30 5654 C 553.294 -0.287018 -1.58218 0
M  V30 5655 O 554.484 -0.545421 -1.65441 0
M  V30 5656 C 551.616 -1.1736 -3.20062 0
M  V30 5657 H 552.809 -2.36672 -1.84191 0
M  V30 5658 H 550.362 -1.25615 -0.930079 0
M  V30 5659 H 551.097 -0.205648 -3.23647 0
M  V30 5660 H 550.882 -1.97358 -3.3881 0
M  V30 5661 H 552.372 -1.19596 -4.00108 0
M  V30 5662 N 552.809 0.956637 -1.25245 0
M  V30 5663 C 553.756 2.053 -1.05454 0
M  V30 5664 C 554.726 1.66062 0.0356889 0
M  V30 5665 O 555.911 1.90415 -0.121099 0
M  V30 5666 C 553.051 3.38391 -0.677191 0
M  V30 5667 C 552.164 3.90758 -1.84206 0
M  V30 5668 C 551.299 5.12165 -1.40926 0
M  V30 5669 C 550.338 5.56757 -2.54338 0
M  V30 5670 N 549.475 6.69376 -2.11848 0
M  V30 5671 H 554.315 2.21562 -1.99284 0
M  V30 5672 H 551.852 1.08578 -0.992434 0
M  V30 5673 H 553.81 4.1488 -0.43938 0
M  V30 5674 H 552.44 3.22021 0.224127 0
M  V30 5675 H 551.492 3.10808 -2.19323 0
M  V30 5676 H 552.804 4.19802 -2.69383 0
M  V30 5677 H 551.958 5.96065 -1.13098 0
M  V30 5678 H 550.697 4.84832 -0.528175 0
M  V30 5679 H 549.702 4.71423 -2.82913 0
M  V30 5680 H 550.927 5.861 -3.43022 0
M  V30 5681 H 548.873 6.43756 -1.26153 0
M  V30 5682 H 548.79 6.97927 -2.90574 0
M  V30 5683 H 550.058 7.5669 -1.87191 0
M  V30 5684 N 554.287 1.06798 1.15896 0
M  V30 5685 C 555.235 0.677525 2.22514 0
M  V30 5686 C 556.229 -0.308994 1.66558 0
M  V30 5687 O 557.435 -0.173308 1.79164 0
M  V30 5688 H 553.81 0.200994 0.724642 0
M  V30 5689 H 555.781 1.5865 2.52731 0
M  V30 5690 C 554.53 0.0854153 3.47595 0
M  V30 5691 H 553.853 0.835645 3.90969 0
M  V30 5692 H 555.293 -0.150199 4.23734 0
M  V30 5693 C 553.752 -1.1724 3.15843 0
M  V30 5694 O 554.282 -2.25965 3.32119 0
M  V30 5695 N 552.488 -1.07636 2.69931 0
M  V30 5696 H 552.035 -0.191559 2.56887 0
M  V30 5697 H 551.993 -1.91876 2.4906 0
M  V30 5698 N 555.766 -1.3263 0.851289 0
M  V30 5699 C 556.713 -2.28952 0.291469 0
M  V30 5700 C 557.683 -1.54897 -0.599676 0
M  V30 5701 O 558.868 -1.83137 -0.535305 0
M  V30 5702 C 556.008 -3.41206 -0.516992 0
M  V30 5703 C 555.121 -4.30148 0.399566 0
M  V30 5704 C 554.256 -5.29527 -0.4212 0
M  V30 5705 C 553.295 -6.10112 0.492969 0
M  V30 5706 N 552.432 -7.01499 -0.290414 0
M  V30 5707 H 557.272 -2.76228 1.11813 0
M  V30 5708 H 554.809 -1.35907 0.562826 0
M  V30 5709 H 556.767 -4.05005 -1.00132 0
M  V30 5710 H 555.397 -2.9509 -1.30851 0
M  V30 5711 H 554.449 -3.66959 1.00227 0
M  V30 5712 H 555.761 -4.8649 1.1013 0
M  V30 5713 H 554.915 -5.98914 -0.968832 0
M  V30 5714 H 553.654 -4.73794 -1.15632 0
M  V30 5715 H 552.659 -5.39632 1.05251 0
M  V30 5716 H 553.884 -6.6793 1.22664 0
M  V30 5717 H 551.83 -6.48199 -1.00868 0
M  V30 5718 H 551.747 -7.55178 0.352354 0
M  V30 5719 H 553.015 -7.75176 -0.819882 0
M  V30 5720 N 557.244 -0.608902 -1.45362 0
M  V30 5721 C 558.174 0.0964526 -2.33301 0
M  V30 5722 C 559.155 0.857444 -1.46908 0
M  V30 5723 O 560.34 0.827735 -1.75676 0
M  V30 5724 C 557.47 1.09354 -3.29635 0
M  V30 5725 C 556.424 0.445676 -4.25673 0
M  V30 5726 C 555.75 1.5511 -5.11708 0
M  V30 5727 C 557.05 -0.633972 -5.18438 0
M  V30 5728 H 558.744 -0.637829 -2.92527 0
M  V30 5729 H 556.29 -0.308178 -1.40664 0
M  V30 5730 H 558.243 1.59556 -3.90025 0
M  V30 5731 H 556.967 1.85843 -2.6857 0
M  V30 5732 H 555.626 -0.0354897 -3.66583 0
M  V30 5733 H 555.274 2.30631 -4.4701 0
M  V30 5734 H 554.974 1.12311 -5.76767 0
M  V30 5735 H 556.498 2.05537 -5.74967 0
M  V30 5736 H 557.912 -0.215974 -5.72893 0
M  V30 5737 H 556.309 -0.983789 -5.91981 0
M  V30 5738 H 557.379 -1.51005 -4.60788 0
M  V30 5739 N 558.722 1.53707 -0.348139 0
M  V30 5740 C 559.669 2.25173 0.506518 0
M  V30 5741 C 560.639 1.25174 1.09182 0
M  V30 5742 O 561.824 1.53917 1.12757 0
M  V30 5743 C 558.964 3.03141 1.64923 0
M  V30 5744 C 558.077 4.18002 1.0908 0
M  V30 5745 C 557.212 4.83447 2.20119 0
M  V30 5746 C 556.251 5.90369 1.61651 0
M  V30 5747 N 555.388 6.49575 2.66451 0
M  V30 5748 H 560.228 2.97799 -0.109452 0
M  V30 5749 H 557.765 1.46953 -0.0657866 0
M  V30 5750 H 559.723 3.46607 2.32205 0
M  V30 5751 H 558.353 2.32803 2.23612 0
M  V30 5752 H 557.405 3.79145 0.308783 0
M  V30 5753 H 558.717 4.94892 0.623178 0
M  V30 5754 H 557.871 5.30008 2.95257 0
M  V30 5755 H 556.61 4.05991 2.70227 0
M  V30 5756 H 555.615 5.43186 0.850209 0
M  V30 5757 H 556.84 6.69735 1.1239 0
M  V30 5758 H 554.786 5.74981 3.15805 0
M  V30 5759 H 554.703 7.21952 2.24325 0
M  V30 5760 H 555.971 7.00789 3.41344 0
M  V30 5761 N 560.2 0.0768682 1.57412 0
M  V30 5762 C 561.163 -0.873949 2.11884 0
M  V30 5763 C 562.163 -1.22301 1.04398 0
M  V30 5764 O 563.353 -1.15545 1.30365 0
M  V30 5765 C 560.485 -2.17575 2.62438 0
M  V30 5766 H 561.678 -0.401278 2.97203 0
M  V30 5767 H 559.231 -0.171904 1.55352 0
M  V30 5768 H 559.966 -2.69368 1.80587 0
M  V30 5769 H 559.751 -1.93534 3.41009 0
M  V30 5770 H 561.241 -2.85631 3.04639 0
M  V30 5771 N 561.678 -1.56367 -0.196722 0
M  V30 5772 C 562.926 -1.80172 -0.915554 0
M  V30 5773 C 563.247 -0.649649 -1.8386 0
M  V30 5774 O 562.517 0.332111 -1.93064 0
M  V30 5775 H 561.097 -0.664592 -0.341067 0
M  V30 5776 H 563.759 -1.93844 -0.202622 0
M  V30 5777 H 562.855 -2.7327 -1.50764 0
M  V30 5778 N 563.156 0.464375 -1.50603 0
M  V30 5779 C 564.386 1.23727 -1.65454 0
M  V30 5780 C 564.794 1.86119 -0.340032 0
M  V30 5781 O 564.137 1.70301 0.688706 0
M  V30 5782 C 564.199 2.38153 -2.69301 0
M  V30 5783 C 563.863 1.96345 -4.12671 0
M  V30 5784 C 564.86 1.48215 -4.98326 0
M  V30 5785 C 562.545 2.04861 -4.58625 0
M  V30 5786 C 564.539 1.09152 -6.27985 0
M  V30 5787 C 562.226 1.65409 -5.88288 0
M  V30 5788 C 563.224 1.17634 -6.72794 0
M  V30 5789 O 562.912 0.787312 -8.00035 0
M  V30 5790 H 562.644 0.380075 -0.559034 0
M  V30 5791 H 565.198 0.559919 -1.97621 0
M  V30 5792 H 563.428 3.09081 -2.32392 0
M  V30 5793 H 565.117 3.00099 -2.73304 0
M  V30 5794 H 565.883 1.41052 -4.64036 0
M  V30 5795 H 561.762 2.40996 -3.92991 0
M  V30 5796 H 565.306 0.717909 -6.93896 0
M  V30 5797 H 561.203 1.72233 -6.22098 0
M  V30 5798 H 561.971 0.915567 -8.13363 0
M  V30 5799 N 564.634 1.40294 0.718013 0
M  V30 5800 C 565.564 1.43118 1.84498 0
M  V30 5801 C 566.545 0.292403 1.67568 0
M  V30 5802 O 567.73 0.500675 1.87635 0
M  V30 5803 C 564.86 1.29065 3.22427 0
M  V30 5804 C 563.814 2.40521 3.54025 0
M  V30 5805 C 563.14 2.11546 4.91073 0
M  V30 5806 C 564.44 3.82859 3.55269 0
M  V30 5807 H 566.134 2.37432 1.82391 0
M  V30 5808 H 563.68 1.14283 0.87609 0
M  V30 5809 H 565.633 1.29658 4.00957 0
M  V30 5810 H 564.357 0.312271 3.25104 0
M  V30 5811 H 563.016 2.39173 2.77834 0
M  V30 5812 H 562.664 1.12104 4.90348 0
M  V30 5813 H 562.364 2.86216 5.1318 0
M  V30 5814 H 563.888 2.13817 5.71939 0
M  V30 5815 H 565.302 3.86044 4.23843 0
M  V30 5816 H 563.699 4.57029 3.88902 0
M  V30 5817 H 564.769 4.12617 2.54706 0
M  V30 5818 N 566.112 -0.949982 1.2575 0
M  V30 5819 C 567.045 -2.047 1.00862 0
M  V30 5820 C 568.023 -1.62475 -0.0636982 0
M  V30 5821 O 569.207 -1.88343 0.0769153 0
M  V30 5822 C 566.334 -3.34597 0.525613 0
M  V30 5823 C 565.38 -3.95788 1.58916 0
M  V30 5824 S 566.213 -4.31175 3.17567 0
M  V30 5825 C 567.369 -5.64183 2.71013 0
M  V30 5826 H 567.602 -2.25497 1.93749 0
M  V30 5827 H 565.135 -1.09022 1.09332 0
M  V30 5828 H 567.093 -4.09716 0.25359 0
M  V30 5829 H 565.754 -3.11758 -0.382828 0
M  V30 5830 H 564.947 -4.89457 1.20201 0
M  V30 5831 H 564.549 -3.27168 1.81211 0
M  V30 5832 H 566.841 -6.42504 2.14928 0
M  V30 5833 H 567.784 -6.07774 3.6334 0
M  V30 5834 H 568.192 -5.2364 2.1086 0
M  V30 5835 N 567.59 -1.07411 -1.15328 0
M  V30 5836 C 568.815 -0.818856 -1.90551 0
M  V30 5837 C 569.24 0.622194 -1.77512 0
M  V30 5838 O 568.598 1.43484 -1.10824 0
M  V30 5839 C 568.646 -1.23267 -3.38877 0
M  V30 5840 O 567.75 -0.378345 -4.10661 0
M  V30 5841 H 567.091 -0.29827 -0.593238 0
M  V30 5842 H 569.621 -1.43289 -1.46046 0
M  V30 5843 H 569.631 -1.20912 -3.89672 0
M  V30 5844 H 568.306 -2.28226 -3.47686 0
M  V30 5845 H 566.883 -0.464437 -3.69996 0
M  V30 5846 N 569.068 1.32177 -0.85831 0
M  V30 5847 C 570.314 1.97417 -0.46417 0
M  V30 5848 C 570.647 1.67746 0.978514 0
M  V30 5849 O 569.922 0.967654 1.68721 0
M  V30 5850 C 570.205 3.53069 -0.708094 0
M  V30 5851 C 570.058 3.92357 -2.19946 0
M  V30 5852 C 571.377 4.39783 -0.166881 0
M  V30 5853 H 568.496 0.717097 -0.17012 0
M  V30 5854 H 571.138 1.56499 -1.07741 0
M  V30 5855 H 569.288 3.88054 -0.186128 0
M  V30 5856 H 570.96 3.67533 -2.78779 0
M  V30 5857 H 569.203 3.41384 -2.67656 0
M  V30 5858 H 569.874 5.00841 -2.32082 0
M  V30 5859 H 572.35 4.11556 -0.613285 0
M  V30 5860 H 571.226 5.47671 -0.367093 0
M  V30 5861 H 571.487 4.32196 0.930559 0
M  V30 5862 N 570.547 0.616602 1.45037 0
M  V30 5863 C 571.457 -0.0985401 2.34393 0
M  V30 5864 C 572.473 -0.850971 1.51771 0
M  V30 5865 O 573.649 -0.806521 1.84546 0
M  V30 5866 C 570.714 -1.07748 3.29532 0
M  V30 5867 C 569.775 -0.326022 4.2806 0
M  V30 5868 C 569.008 -1.25833 5.18654 0
M  V30 5869 O 569.231 -2.49652 5.12864 0
M  V30 5870 O 568.165 -0.750512 5.97203 0
M  V30 5871 H 571.991 0.636016 2.96966 0
M  V30 5872 H 569.576 0.376832 1.44569 0
M  V30 5873 H 571.458 -1.64107 3.88133 0
M  V30 5874 H 570.133 -1.79291 2.69512 0
M  V30 5875 H 569.04 0.280253 3.73049 0
M  V30 5876 H 570.373 0.349091 4.9096 0
M  V30 5877 N 572.025 -1.5352 0.356285 0
M  V30 5878 C 573.25 -2.06007 -0.239961 0
M  V30 5879 C 573.675 -1.22872 -1.42422 0
M  V30 5880 O 573.033 -0.245516 -1.7963 0
M  V30 5881 C 573.081 -3.5522 -0.620587 0
M  V30 5882 O 572.185 -3.74864 -1.71902 0
M  V30 5883 H 571.526 -0.662961 -0.0371377 0
M  V30 5884 H 574.056 -1.98033 0.514194 0
M  V30 5885 H 574.066 -3.98081 -0.894197 0
M  V30 5886 H 572.741 -4.15175 0.245407 0
M  V30 5887 H 571.318 -3.43904 -1.44169 0
M  V30 5888 N 573.503 -0.0852151 -1.57369 0
M  V30 5889 C 574.728 0.592872 -1.98746 0
M  V30 5890 C 575.153 1.61538 -0.963689 0
M  V30 5891 O 574.511 1.81168 0.069071 0
M  V30 5892 C 574.559 1.22599 -3.39119 0
M  V30 5893 O 573.663 2.34185 -3.39457 0
M  V30 5894 H 573.004 0.151314 -0.646529 0
M  V30 5895 H 575.534 -0.163703 -2.03944 0
M  V30 5896 H 575.544 1.56965 -3.76598 0
M  V30 5897 H 574.219 0.476831 -4.13158 0
M  V30 5898 H 572.796 2.01512 -3.13763 0
M  V30 5899 N 574.981 1.5647 0.188427 0
M  V30 5900 C 575.891 1.98285 1.2538 0
M  V30 5901 C 576.907 0.891535 1.49424 0
M  V30 5902 O 578.083 1.19782 1.61908 0
M  V30 5903 C 575.148 2.31965 2.57669 0
M  V30 5904 C 574.209 3.54838 2.41638 0
M  V30 5905 C 573.442 3.86901 3.67618 0
M  V30 5906 O 573.665 3.20163 4.72072 0
M  V30 5907 O 572.599 4.80309 3.62749 0
M  V30 5908 H 576.425 2.89145 0.928912 0
M  V30 5909 H 574.01 1.44112 0.393955 0
M  V30 5910 H 575.892 2.54673 3.35737 0
M  V30 5911 H 574.567 1.44271 2.89771 0
M  V30 5912 H 573.474 3.37369 1.61658 0
M  V30 5913 H 574.807 4.43019 2.14465 0
M  V30 5914 N 576.459 -0.456382 1.50847 0
M  V30 5915 C 577.699 -1.21704 1.64218 0
M  V30 5916 C 578.063 -1.88932 0.341859 0
M  V30 5917 O 579.264 -2.66497 0.351137 0
M  V30 5918 C 577.535 -2.22162 2.79962 0
M  V30 5919 S 579.094 -3.0697 3.13552 0
M  V30 5920 H 575.912 -0.412995 0.578754 0
M  V30 5921 H 578.514 -0.511637 1.88686 0
M  V30 5922 H 577.218 -1.71379 3.72904 0
M  V30 5923 H 576.749 -2.9731 2.57624 0
M  V30 5924 H 578.764 -4.23539 2.58513 0
M  V30 5925 N 577.937 -1.40673 -0.710563 0
M  V30 5926 C 579.184 -1.39222 -1.47049 0
M  V30 5927 C 579.512 0.0037691 -1.945 0
M  V30 5928 O 578.767 0.989224 -1.68857 0
M  V30 5929 C 579.066 -2.33253 -2.70791 0
M  V30 5930 C 578.732 -3.80406 -2.42079 0
M  V30 5931 C 577.394 -4.20496 -2.33959 0
M  V30 5932 C 579.746 -4.73375 -2.18094 0
M  V30 5933 C 577.074 -5.51584 -1.99929 0
M  V30 5934 C 579.426 -6.04768 -1.85576 0
M  V30 5935 C 578.09 -6.43895 -1.75941 0
M  V30 5936 H 577.36 -0.509449 -0.538092 0
M  V30 5937 H 580.007 -1.73363 -0.81348 0
M  V30 5938 H 578.312 -1.92314 -3.41354 0
M  V30 5939 H 580.009 -2.29412 -3.28894 0
M  V30 5940 H 576.599 -3.48645 -2.49288 0
M  V30 5941 H 580.783 -4.43217 -2.23321 0
M  V30 5942 H 576.039 -5.80797 -1.91011 0
M  V30 5943 H 580.213 -6.76318 -1.66033 0
M  V30 5944 H 577.84 -7.45387 -1.4934 0
M  V30 5945 N 579.415 0.9433 -1.26252 0
M  V30 5946 C 580.345 2.05902 -1.10122 0
M  V30 5947 C 581.326 1.70099 -0.00700552 0
M  V30 5948 O 582.511 1.93377 -0.178641 0
M  V30 5949 C 579.641 3.39516 -0.731175 0
M  V30 5950 C 578.595 3.89372 -1.77688 0
M  V30 5951 C 577.921 5.19613 -1.26122 0
M  V30 5952 C 579.221 4.14489 -3.17799 0
M  V30 5953 H 580.915 2.19655 -2.03451 0
M  V30 5954 H 578.461 1.05548 -0.979576 0
M  V30 5955 H 580.414 4.17031 -0.605215 0
M  V30 5956 H 579.138 3.25733 0.23782 0
M  V30 5957 H 577.797 3.14036 -1.89148 0
M  V30 5958 H 577.445 5.02208 -0.282128 0
M  V30 5959 H 577.145 5.53939 -1.96023 0
M  V30 5960 H 578.669 5.99713 -1.14789 0
M  V30 5961 H 580.083 4.82625 -3.09428 0
M  V30 5962 H 578.48 4.60094 -3.85271 0
M  V30 5963 H 579.55 3.20347 -3.64014 0
M  V30 5964 N 580.893 1.08022 1.14757 0
M  V30 5965 C 581.803 0.718292 2.23333 0
M  V30 5966 C 582.819 -0.273477 1.71837 0
M  V30 5967 O 583.995 -0.118406 2.01052 0
M  V30 5968 C 581.06 0.128855 3.4646 0
M  V30 5969 C 580.121 1.17473 4.12915 0
M  V30 5970 C 579.354 0.61333 5.30164 0
M  V30 5971 O 579.577 -0.568458 5.6756 0
M  V30 5972 O 578.511 1.3615 5.86299 0
M  V30 5973 H 582.337 1.62394 2.56636 0
M  V30 5974 H 579.922 0.853628 1.22611 0
M  V30 5975 H 581.804 -0.197249 4.20938 0
M  V30 5976 H 580.479 -0.750014 3.14891 0
M  V30 5977 H 579.386 1.5533 3.40328 0
M  V30 5978 H 580.719 2.02574 4.48581 0
M  V30 5979 N 582.371 -1.3172 0.865308 0
M  V30 5980 C 583.281 -2.32394 0.320935 0
M  V30 5981 C 584.297 -1.64511 -0.566746 0
M  V30 5982 O 585.473 -1.95969 -0.464575 0
M  V30 5983 C 582.538 -3.43462 -0.472701 0
M  V30 5984 C 581.599 -4.27015 0.442385 0
M  V30 5985 C 580.832 -5.32779 -0.313469 0
M  V30 5986 O 581.055 -5.49158 -1.54214 0
M  V30 5987 O 579.989 -6.01015 0.326257 0
M  V30 5988 H 583.815 -2.80868 1.15528 0
M  V30 5989 H 581.4 -1.35535 0.628545 0
M  V30 5990 H 583.282 -4.11172 -0.922781 0
M  V30 5991 H 581.957 -2.97159 -1.28367 0
M  V30 5992 H 580.864 -3.62075 0.940866 0
M  V30 5993 H 582.197 -4.76871 1.21882 0
M  V30 5994 N 583.85 -0.624285 -1.44708 0
M  V30 5995 C 585.096 -0.126237 -2.02407 0
M  V30 5996 C 585.428 1.24618 -1.48943 0
M  V30 5997 O 584.704 1.82569 -0.670742 0
M  V30 5998 C 584.986 -0.105449 -3.59946 0
M  V30 5999 C 584.84 -1.50972 -4.23707 0
M  V30 6000 C 586.159 0.573629 -4.36346 0
M  V30 6001 H 583.278 -0.0473472 -0.735478 0
M  V30 6002 H 585.92 -0.799452 -1.72362 0
M  V30 6003 H 584.07 0.46783 -3.85673 0
M  V30 6004 H 585.742 -2.13136 -4.0911 0
M  V30 6005 H 583.985 -2.0656 -3.81465 0
M  V30 6006 H 584.656 -1.44727 -5.32689 0
M  V30 6007 H 587.132 0.0861787 -4.16011 0
M  V30 6008 H 586.008 0.557338 -5.46063 0
M  V30 6009 H 586.269 1.64276 -4.10446 0
M  V30 6010 N 585.328 1.53329 -0.364422 0
M  V30 6011 C 586.576 2.00842 0.225189 0
M  V30 6012 C 586.897 1.25345 1.49378 0
M  V30 6013 O 586.167 0.366396 1.92443 0
M  V30 6014 H 584.747 0.742009 0.0862027 0
M  V30 6015 H 587.409 1.8863 -0.490389 0
M  V30 6016 H 586.505 3.08795 0.452987 0
M  V30 6017 N 586.806 0.0935595 1.57322 0
M  V30 6018 C 588.031 -0.582324 1.99057 0
M  V30 6019 C 588.456 -1.61025 0.972242 0
M  V30 6020 O 587.814 -1.81202 -0.0594622 0
M  V30 6021 C 587.862 -1.20799 3.39765 0
M  V30 6022 O 586.966 -2.32382 3.40694 0
M  V30 6023 H 586.307 -0.147884 0.647323 0
M  V30 6024 H 588.837 0.174516 2.03854 0
M  V30 6025 H 588.847 -1.54966 3.77425 0
M  V30 6026 H 587.522 -0.454914 4.13405 0
M  V30 6027 H 586.099 -1.99845 3.14827 0
M  V30 6028 N 588.284 -1.56567 -0.180126 0
M  V30 6029 C 589.216 -1.92275 -1.24751 0
M  V30 6030 C 590.229 -0.814922 -1.40936 0
M  V30 6031 O 591.418 -1.09336 -1.41095 0
M  V30 6032 C 588.518 -2.15265 -2.61752 0
M  V30 6033 C 587.691 -3.46467 -2.66981 0
M  V30 6034 C 586.75 -3.58391 -3.85283 0
M  V30 6035 O 585.776 -4.31086 -3.7169 0
M  V30 6036 N 586.978 -2.92587 -5.01371 0
M  V30 6037 H 589.743 -2.84435 -0.944302 0
M  V30 6038 H 587.304 -1.57617 -0.369952 0
M  V30 6039 H 589.296 -2.20515 -3.39345 0
M  V30 6040 H 587.866 -1.29533 -2.845 0
M  V30 6041 H 587.086 -3.52953 -1.75549 0
M  V30 6042 H 588.374 -4.32819 -2.67479 0
M  V30 6043 H 587.772 -2.3338 -5.15316 0
M  V30 6044 H 586.329 -3.03444 -5.76858 0
M  V30 6045 N 589.762 0.448376 -1.51087 0
M  V30 6046 C 590.725 1.52588 -1.71025 0
M  V30 6047 C 591.725 1.49958 -0.580442 0
M  V30 6048 O 592.915 1.52176 -0.847833 0
M  V30 6049 C 590.047 2.92163 -1.75652 0
M  V30 6050 H 591.24 1.36218 -2.67179 0
M  V30 6051 H 588.793 0.676313 -1.4091 0
M  V30 6052 H 589.528 3.13951 -0.812724 0
M  V30 6053 H 589.313 2.95478 -2.57751 0
M  V30 6054 H 590.803 3.70349 -1.92953 0
M  V30 6055 N 591.24 1.41047 0.703093 0
M  V30 6056 C 592.17 1.45067 1.82969 0
M  V30 6057 C 593.151 0.31016 1.67248 0
M  V30 6058 O 594.336 0.520548 1.87093 0
M  V30 6059 C 591.466 1.32478 3.2104 0
M  V30 6060 C 590.42 2.44262 3.51454 0
M  V30 6061 C 589.746 2.16742 4.88801 0
M  V30 6062 C 591.046 3.86606 3.51189 0
M  V30 6063 H 592.74 2.39353 1.79863 0
M  V30 6064 H 590.286 1.15206 0.863919 0
M  V30 6065 H 592.239 1.33904 3.99559 0
M  V30 6066 H 590.963 0.346735 3.24754 0
M  V30 6067 H 589.622 2.42107 2.75282 0
M  V30 6068 H 589.27 1.17299 4.89132 0
M  V30 6069 H 588.97 2.91643 5.10116 0
M  V30 6070 H 590.494 2.19872 5.69639 0
M  V30 6071 H 591.908 3.90517 4.19725 0
M  V30 6072 H 590.305 4.61128 3.84033 0
M  V30 6073 H 591.375 4.15296 2.50315 0
M  V30 6074 N 592.718 -0.936591 1.26751 0
M  V30 6075 C 593.964 -1.6858 1.12733 0
M  V30 6076 C 594.297 -1.91414 -0.327745 0
M  V30 6077 O 593.572 -1.49812 -1.24043 0
M  V30 6078 C 593.855 -3.05779 1.90187 0
M  V30 6079 C 593.708 -2.90242 3.43627 0
M  V30 6080 C 595.027 -4.0597 1.69931 0
M  V30 6081 H 592.146 -0.61182 0.410908 0
M  V30 6082 H 594.788 -1.08747 1.55801 0
M  V30 6083 H 592.938 -3.56853 1.53584 0
M  V30 6084 H 594.61 -2.46354 3.9001 0
M  V30 6085 H 592.853 -2.2577 3.70419 0
M  V30 6086 H 593.524 -3.87572 3.93055 0
M  V30 6087 H 596 -3.63874 2.0183 0
M  V30 6088 H 594.876 -4.99974 2.26534 0
M  V30 6089 H 595.137 -4.37369 0.64502 0
M  V30 6090 N 594.196 -1.08629 -1.14182 0
M  V30 6091 C 595.159 -0.722027 -2.1753 0
M  V30 6092 C 596.159 0.244305 -1.58933 0
M  V30 6093 O 597.349 0.0235545 -1.74184 0
M  V30 6094 C 594.481 -0.0663966 -3.40835 0
M  V30 6095 H 595.674 -1.63719 -2.51269 0
M  V30 6096 H 593.227 -0.884442 -1.28869 0
M  V30 6097 H 593.962 0.860389 -3.12678 0
M  V30 6098 H 593.747 -0.761598 -3.84632 0
M  V30 6099 H 595.237 0.173346 -4.1724 0
M  V30 6100 N 595.674 1.31259 -0.872281 0
M  V30 6101 C 596.922 1.96233 -0.483409 0
M  V30 6102 C 597.243 1.69276 0.968012 0
M  V30 6103 O 596.513 1.00943 1.67891 0
M  V30 6104 H 595.093 0.726025 -0.175774 0
M  V30 6105 H 597.755 1.60024 -1.11258 0
M  V30 6106 H 596.851 3.05403 -0.643075 0
M  V30 6107 N 597.152 0.631951 1.44375 0
M  V30 6108 C 598.377 0.142146 2.06912 0
M  V30 6109 C 598.802 -1.17456 1.4692 0
M  V30 6110 O 598.16 -1.72074 0.570975 0
M  V30 6111 C 598.208 0.0417952 3.60576 0
M  V30 6112 O 597.312 -1.00194 4.00044 0
M  V30 6113 H 596.653 0.0851491 0.658518 0
M  V30 6114 H 599.183 0.868863 1.85235 0
M  V30 6115 H 599.193 -0.148517 4.0773 0
M  V30 6116 H 597.868 1.0031 4.03622 0
M  V30 6117 H 596.445 -0.786131 3.64519 0
M  V30 6118 N 598.631 -1.53133 0.372548 0
M  V30 6119 C 599.861 -2.05476 -0.215202 0
M  V30 6120 C 600.269 -1.24534 -1.42436 0
M  V30 6121 O 599.612 -0.280771 -1.81542 0
M  V30 6122 C 599.674 -3.53276 -0.666068 0
M  V30 6123 C 599.338 -4.54998 0.427342 0
M  V30 6124 C 600.335 -5.03911 1.27944 0
M  V30 6125 C 598.02 -4.98828 0.589579 0
M  V30 6126 C 600.014 -5.95263 2.27905 0
M  V30 6127 C 597.701 -5.89984 1.59255 0
M  V30 6128 C 598.699 -6.38093 2.43571 0
M  V30 6129 O 598.387 -7.27451 3.42156 0
M  V30 6130 H 598.119 -0.67481 -0.040099 0
M  V30 6131 H 600.673 -1.98409 0.531312 0
M  V30 6132 H 598.903 -3.57904 -1.4643 0
M  V30 6133 H 600.592 -3.88442 -1.1776 0
M  V30 6134 H 601.358 -4.70792 1.16532 0
M  V30 6135 H 597.237 -4.60965 -0.0569456 0
M  V30 6136 H 600.781 -6.32736 2.93753 0
M  V30 6137 H 596.678 -6.22518 1.70711 0
M  V30 6138 H 597.446 -7.45467 3.37967 0
M  V30 6139 N 600.109 -0.101901 -1.5727 0
M  V30 6140 C 601.042 0.891377 -2.10071 0
M  V30 6141 C 602.02 1.27197 -1.01291 0
M  V30 6142 O 603.204 1.37602 -1.28833 0
M  V30 6143 C 600.331 2.19049 -2.58331 0
M  V30 6144 C 599.377 1.95925 -3.78834 0
M  V30 6145 S 600.21 1.19106 -5.22086 0
M  V30 6146 C 601.366 2.50234 -5.73702 0
M  V30 6147 H 601.599 0.442212 -2.93993 0
M  V30 6148 H 599.132 0.111529 -1.53997 0
M  V30 6149 H 601.09 2.937 -2.86793 0
M  V30 6150 H 599.751 2.61086 -1.74622 0
M  V30 6151 H 598.944 2.92143 -4.10693 0
M  V30 6152 H 598.546 1.29401 -3.50901 0
M  V30 6153 H 600.838 3.46173 -5.82384 0
M  V30 6154 H 601.781 2.22944 -6.72088 0
M  V30 6155 H 602.189 2.58818 -5.01671 0
M  V30 6156 N 601.587 1.56661 0.17182 0
M  V30 6157 C 602.998 1.71652 0.734329 0
M  V30 6158 C 603.349 0.712335 1.82812 0
M  V30 6159 O 602.474 -0.126401 2.16031 0
M  V30 6160 C 603.069 3.11226 1.3388 0
M  V30 6161 C 601.628 3.27904 1.84813 0
M  V30 6162 C 600.775 2.67603 0.726917 0
M  V30 6163 H 603.726 1.5861 -0.0535665 0
M  V30 6164 H 603.747 3.09849 2.20849 0
M  V30 6165 H 603.259 3.8429 0.54249 0
M  V30 6166 H 601.36 2.59796 2.6709 0
M  V30 6167 H 601.473 4.35637 1.99392 0
M  V30 6168 H 599.837 2.274 1.14723 0
M  V30 6169 H 600.62 3.43252 -0.0575334 0
M  V30 6170 N 603.065 -0.440357 1.51323 0
M  V30 6171 C 604.476 -1.02032 1.56353 0
M  V30 6172 C 604.827 -1.92382 0.385197 0
M  V30 6173 O 603.952 -2.10583 -0.498373 0
M  V30 6174 C 604.547 -1.85723 2.83359 0
M  V30 6175 C 603.106 -2.38774 2.90971 0
M  V30 6176 C 602.253 -1.17908 2.50984 0
M  V30 6177 H 605.204 -0.221744 1.57143 0
M  V30 6178 H 605.225 -2.71141 2.66951 0
M  V30 6179 H 604.737 -1.19939 3.69102 0
M  V30 6180 H 602.838 -3.08021 2.09651 0
M  V30 6181 H 602.951 -2.71778 3.94555 0
M  V30 6182 H 601.315 -1.52347 2.04114 0
M  V30 6183 H 602.098 -0.537393 3.39068 0
M  V30 6184 N 604.543 -1.41418 -0.695603 0
M  V30 6185 C 605.768 -1.44329 -1.48942 0
M  V30 6186 C 606.193 -0.0501579 -1.88033 0
M  V30 6187 O 605.551 0.946598 -1.54626 0
M  V30 6188 C 605.599 -2.3578 -2.72837 0
M  V30 6189 O 604.703 -1.81482 -3.70322 0
M  V30 6190 H 604.044 -0.489838 -0.44828 0
M  V30 6191 H 606.574 -1.85878 -0.855014 0
M  V30 6192 H 606.584 -2.51654 -3.21145 0
M  V30 6193 H 605.259 -3.37005 -2.43722 0
M  V30 6194 H 603.836 -1.75058 -3.29255 0
M  V30 6195 N 606.021 0.929856 -1.27246 0
M  V30 6196 C 607.249 1.71144 -1.16265 0
M  V30 6197 C 607.664 1.867 0.280786 0
M  V30 6198 O 607.021 1.38249 1.19136 0
M  V30 6199 C 607.072 3.11222 -1.83911 0
M  V30 6200 O 606.793 2.96398 -3.22614 0
M  V30 6201 C 608.294 4.05541 -1.79028 0
M  V30 6202 H 605.514 0.535499 -0.404328 0
M  V30 6203 H 608.058 1.16492 -1.68077 0
M  V30 6204 H 606.213 3.6274 -1.36009 0
M  V30 6205 H 606.627 3.8494 -3.56261 0
M  V30 6206 H 608.101 5.01351 -2.30978 0
M  V30 6207 H 608.578 4.32589 -0.759168 0
M  V30 6208 H 609.184 3.59947 -2.26535 0
M  V30 6209 N 607.499 1.09233 1.13605 0
M  V30 6210 C 608.745 0.828385 1.8511 0
M  V30 6211 C 609.078 -0.64437 1.83198 0
M  V30 6212 O 608.353 -1.47428 1.26867 0
M  V30 6213 C 608.636 1.36167 3.33363 0
M  V30 6214 C 608.489 2.90038 3.438 0
M  V30 6215 C 609.808 0.993819 4.28732 0
M  V30 6216 H 606.927 0.30239 0.672108 0
M  V30 6217 H 609.569 1.35339 1.33355 0
M  V30 6218 H 607.719 0.9151 3.77569 0
M  V30 6219 H 609.391 3.43128 3.08319 0
M  V30 6220 H 607.634 3.27271 2.84739 0
M  V30 6221 H 608.305 3.22428 4.48045 0
M  V30 6222 H 610.781 1.37893 3.92587 0
M  V30 6223 H 609.657 1.39403 5.30903 0
M  V30 6224 H 609.918 -0.0982206 4.41991 0
M  V30 6225 N 608.977 -1.30795 0.87923 0
M  V30 6226 C 609.907 -2.30742 0.357796 0
M  V30 6227 C 610.888 -1.60747 -0.556283 0
M  V30 6228 O 612.073 -1.88393 -0.47135 0
M  V30 6229 C 609.203 -3.44583 -0.433555 0
M  V30 6230 C 608.157 -4.26235 0.388251 0
M  V30 6231 C 607.483 -5.32073 -0.529352 0
M  V30 6232 C 608.783 -4.96303 1.62729 0
M  V30 6233 H 610.477 -2.74605 1.19299 0
M  V30 6234 H 608.023 -1.32017 0.575104 0
M  V30 6235 H 609.976 -4.13563 -0.808934 0
M  V30 6236 H 608.7 -2.99511 -1.30234 0
M  V30 6237 H 607.359 -3.58936 0.745695 0
M  V30 6238 H 607.007 -4.83249 -1.39569 0
M  V30 6239 H 606.707 -5.87598 0.0166741 0
M  V30 6240 H 608.231 -6.0391 -0.901373 0
M  V30 6241 H 609.645 -5.5783 1.32283 0
M  V30 6242 H 608.042 -5.61666 2.11309 0
M  V30 6243 H 609.112 -4.22758 2.37494 0
M  V30 6244 N 610.455 -0.639598 -1.44038 0
M  V30 6245 C 611.387 0.0987684 -2.28987 0
M  V30 6246 C 612.4 0.80058 -1.41755 0
M  V30 6247 O 613.589 0.660611 -1.65826 0
M  V30 6248 C 610.689 1.16242 -3.18341 0
M  V30 6249 C 609.862 0.541447 -4.34036 0
M  V30 6250 C 608.921 1.50017 -5.04362 0
M  V30 6251 O 607.947 1.01403 -5.60095 0
M  V30 6252 N 609.149 2.83441 -5.06598 0
M  V30 6253 H 611.914 -0.630305 -2.92997 0
M  V30 6254 H 609.475 -0.481376 -1.54578 0
M  V30 6255 H 611.467 1.80429 -3.62253 0
M  V30 6256 H 610.037 1.79362 -2.56024 0
M  V30 6257 H 609.257 -0.27923 -3.9321 0
M  V30 6258 H 610.545 0.107379 -5.08687 0
M  V30 6259 H 609.943 3.2551 -4.62666 0
M  V30 6260 H 608.5 3.42966 -5.54272 0
M  V30 6261 N 611.933 1.52934 -0.380664 0
M  V30 6262 C 612.865 2.23822 0.493581 0
M  V30 6263 C 613.878 1.25761 1.03383 0
M  V30 6264 O 615.067 1.5189 0.937633 0
M  V30 6265 C 612.167 2.9342 1.69582 0
M  V30 6266 C 611.34 4.18115 1.28445 0
M  V30 6267 C 610.399 4.70788 2.35042 0
M  V30 6268 O 609.425 5.34093 1.96807 0
M  V30 6269 N 610.627 4.49899 3.66839 0
M  V30 6270 H 613.392 2.99484 -0.11371 0
M  V30 6271 H 610.953 1.60577 -0.206587 0
M  V30 6272 H 612.945 3.2556 2.40401 0
M  V30 6273 H 611.515 2.21119 2.20965 0
M  V30 6274 H 610.735 3.92109 0.405503 0
M  V30 6275 H 612.023 4.99152 0.986132 0
M  V30 6276 H 611.421 3.99349 4.0067 0
M  V30 6277 H 609.978 4.86551 4.33718 0
M  V30 6278 N 613.412 0.11024 1.57214 0
M  V30 6279 C 614.661 -0.549638 1.94067 0
M  V30 6280 C 614.974 -1.68388 0.995234 0
M  V30 6281 O 616.18 -2.40593 1.25807 0
M  V30 6282 C 614.636 -1.02912 3.44873 0
M  V30 6283 C 614.244 0.0761861 4.47935 0
M  V30 6284 C 615.988 -1.66087 3.9066 0
M  V30 6285 C 613.895 -0.419502 5.8991 0
M  V30 6286 H 612.825 -0.209092 0.724428 0
M  V30 6287 H 615.476 0.188683 1.82527 0
M  V30 6288 H 613.858 -1.82159 3.51616 0
M  V30 6289 H 615.032 0.852185 4.52851 0
M  V30 6290 H 613.347 0.614052 4.11847 0
M  V30 6291 H 615.944 -2.04272 4.94143 0
M  V30 6292 H 616.287 -2.53591 3.30148 0
M  V30 6293 H 616.82 -0.933959 3.86681 0
M  V30 6294 H 613.559 0.419277 6.54158 0
M  V30 6295 H 613.079 -1.16217 5.88433 0
M  V30 6296 H 614.758 -0.883577 6.40938 0
M  V30 6297 N 614.89 -1.56749 -0.16351 0
M  V30 6298 C 616.167 -1.73321 -0.906599 0
M  V30 6299 C 616.547 -0.673779 -2.00059 0
M  V30 6300 O 615.895 0.310121 -2.26386 0
M  V30 6301 C 616.105 -3.168 -1.46419 0
M  V30 6302 C 617.453 -3.77993 -1.93407 0
M  V30 6303 O 618.477 -3.20127 -1.56196 0
M  V30 6304 O 617.336 -4.79615 -2.61976 0
M  V30 6305 H 614.43 -0.708073 -0.427272 0
M  V30 6306 H 616.976 -1.69029 -0.150727 0
M  V30 6307 H 615.748 -3.85396 -0.677189 0
M  V30 6308 H 615.371 -3.2545 -2.28403 0
M  V30 6309 N 616.368 0.432326 -1.51554 0
M  V30 6310 C 617.593 1.20824 -1.68571 0
M  V30 6311 C 618.018 1.84126 -0.384596 0
M  V30 6312 O 617.376 1.69025 0.655751 0
M  V30 6313 C 617.424 2.26429 -2.80646 0
M  V30 6314 O 616.528 3.32032 -2.44598 0
M  V30 6315 H 615.869 0.353765 -0.561913 0
M  V30 6316 H 618.399 0.509916 -1.98144 0
M  V30 6317 H 618.409 2.71133 -3.04878 0
M  V30 6318 H 617.084 1.79733 -3.75058 0
M  V30 6319 H 615.661 2.92769 -2.30956 0
M  V30 6320 N 617.846 1.41785 0.688094 0
M  V30 6321 C 619.092 1.41753 1.4503 0
M  V30 6322 C 619.425 0.0290745 1.94178 0
M  V30 6323 O 618.7 -0.944456 1.7003 0
M  V30 6324 C 618.983 2.43069 2.65686 0
M  V30 6325 C 618.836 3.91053 2.22256 0
M  V30 6326 C 620.155 2.41543 3.67893 0
M  V30 6327 H 617.274 0.516202 0.526027 0
M  V30 6328 H 619.916 1.73111 0.783105 0
M  V30 6329 H 618.066 2.1646 3.2261 0
M  V30 6330 H 619.738 4.28594 1.70602 0
M  V30 6331 H 617.981 4.05559 1.53963 0
M  V30 6332 H 618.652 4.57501 3.08863 0
M  V30 6333 H 621.128 2.65175 3.20658 0
M  V30 6334 H 620.004 3.14434 4.49914 0
M  V30 6335 H 620.265 1.43666 4.18106 0
M  V30 6336 N 619.324 -0.923095 1.27737 0
M  V30 6337 C 620.287 -2.00587 1.10894 0
M  V30 6338 C 621.287 -1.60718 0.0514927 0
M  V30 6339 O 622.477 -1.71658 0.296481 0
M  V30 6340 C 619.609 -3.33829 0.690717 0
M  V30 6341 H 620.802 -2.16959 2.07048 0
M  V30 6342 H 618.355 -1.10451 1.1059 0
M  V30 6343 H 619.09 -3.23157 -0.272 0
M  V30 6344 H 618.875 -3.64125 1.45448 0
M  V30 6345 H 620.365 -4.13336 0.595252 0
M  V30 6346 N 620.802 -1.09834 -1.13024 0
M  V30 6347 C 621.75 -0.736283 -2.20639 0
M  V30 6348 C 622.744 0.264725 -1.67319 0
M  V30 6349 O 623.95 0.125745 -1.7956 0
M  V30 6350 H 620.325 -0.220136 -0.719058 0
M  V30 6351 H 622.296 -1.65295 -2.48436 0
M  V30 6352 C 621.045 -0.177544 -3.47246 0
M  V30 6353 H 620.368 -0.939009 -3.88616 0
M  V30 6354 H 621.808 0.0378007 -4.23983 0
M  V30 6355 C 620.267 1.08824 -3.1884 0
M  V30 6356 O 620.797 2.1708 -3.37993 0
M  V30 6357 N 619.003 1.00442 -2.7269 0
M  V30 6358 H 618.55 0.123383 -2.57304 0
M  V30 6359 H 618.508 1.85206 -2.5406 0
M  V30 6360 N 622.28 1.30327 -0.886154 0
M  V30 6361 C 623.243 2.26376 -0.358687 0
M  V30 6362 C 624.243 1.52845 0.499498 0
M  V30 6363 O 625.433 1.71483 0.306485 0
M  V30 6364 C 622.565 3.37379 0.488726 0
M  V30 6365 H 623.758 2.74547 -1.20681 0
M  V30 6366 H 621.311 1.41536 -0.663113 0
M  V30 6367 H 622.046 2.94526 1.35739 0
M  V30 6368 H 621.831 3.91897 -0.126003 0
M  V30 6369 H 623.321 4.08868 0.84952 0
M  V30 6370 N 623.758 0.647228 1.43697 0
M  V30 6371 C 625.035 0.0883758 1.954 0
M  V30 6372 C 625.415 -1.39006 1.58873 0
M  V30 6373 O 624.763 -2.11255 0.87083 0
M  V30 6374 C 624.973 0.328263 3.47453 0
M  V30 6375 C 626.321 0.230009 4.23977 0
M  V30 6376 O 627.345 0.260496 3.55246 0
M  V30 6377 O 626.204 0.148615 5.46298 0
M  V30 6378 H 623.298 -0.0130683 0.826897 0
M  V30 6379 H 625.844 0.72005 1.53666 0
M  V30 6380 H 624.616 1.3535 3.67146 0
M  V30 6381 H 624.239 -0.336772 3.96171 0
M  V30 6382 N 625.236 -1.5273 0.388769 0
M  V30 6383 C 626.485 -2.00757 -0.194833 0
M  V30 6384 C 626.798 -1.27951 -1.47946 0
M  V30 6385 O 628.004 -1.66686 -2.14308 0
M  V30 6386 C 626.46 -3.57695 -0.397762 0
M  V30 6387 C 626.068 -4.394 0.873583 0
M  V30 6388 C 627.812 -4.14012 -0.937759 0
M  V30 6389 C 625.719 -5.87938 0.638962 0
M  V30 6390 H 624.649 -0.750101 -0.0765845 0
M  V30 6391 H 627.3 -1.76239 0.511086 0
M  V30 6392 H 625.682 -3.7846 -1.16552 0
M  V30 6393 H 626.856 -4.30403 1.64591 0
M  V30 6394 H 625.171 -3.94301 1.33849 0
M  V30 6395 H 627.768 -5.22645 -1.12899 0
M  V30 6396 H 628.111 -3.7007 -1.90666 0
M  V30 6397 H 628.644 -3.97137 -0.229588 0
M  V30 6398 H 625.383 -6.36202 1.57885 0
M  V30 6399 H 624.903 -5.99726 -0.094443 0
M  V30 6400 H 626.582 -6.46423 0.273299 0
M  V30 6401 N 626.714 -0.118576 -1.57153 0
M  V30 6402 C 627.963 0.539339 -1.94355 0
M  V30 6403 C 628.276 1.67858 -1.00415 0
M  V30 6404 O 629.482 2.39922 -1.27081 0
M  V30 6405 C 627.938 1.01082 -3.45414 0
M  V30 6406 C 627.546 -0.0999402 -4.47889 0
M  V30 6407 C 629.29 1.64013 -3.91535 0
M  V30 6408 C 627.197 0.388212 -5.90124 0
M  V30 6409 H 626.127 0.205247 -0.725527 0
M  V30 6410 H 628.778 -0.19836 -1.82425 0
M  V30 6411 H 627.16 1.80292 -3.52577 0
M  V30 6412 H 628.334 -0.876189 -4.52393 0
M  V30 6413 H 626.649 -0.635885 -4.11516 0
M  V30 6414 H 629.246 2.01649 -4.95219 0
M  V30 6415 H 629.589 2.51836 -3.31488 0
M  V30 6416 H 630.122 0.913439 -3.87171 0
M  V30 6417 H 626.861 -0.453963 -6.53926 0
M  V30 6418 H 626.381 1.13095 -5.89041 0
M  V30 6419 H 628.06 0.849574 -6.41398 0
M  V30 6420 N 628.193 1.56834 0.155195 0
M  V30 6421 C 629.141 1.98584 1.21107 0
M  V30 6422 C 630.135 0.876987 1.44932 0
M  V30 6423 O 631.341 1.06215 1.45322 0
M  V30 6424 H 627.716 0.632039 0.407469 0
M  V30 6425 H 629.687 2.86561 0.832195 0
M  V30 6426 C 628.436 2.37555 2.53895 0
M  V30 6427 H 627.759 3.22428 2.3639 0
M  V30 6428 H 629.199 2.70598 3.26424 0
M  V30 6429 C 627.658 1.22507 3.13837 0
M  V30 6430 O 628.188 0.521388 3.98302 0
M  V30 6431 N 626.394 0.991444 2.73164 0
M  V30 6432 H 625.941 1.56544 2.04577 0
M  V30 6433 H 625.899 0.223546 3.13604 0
M  V30 6434 N 629.671 -0.424282 1.51781 0
M  V30 6435 C 630.634 -1.49848 1.73431 0
M  V30 6436 C 631.634 -1.49016 0.604225 0
M  V30 6437 O 632.824 -1.50808 0.871935 0
M  V30 6438 C 629.956 -2.89332 1.80277 0
M  V30 6439 H 631.149 -1.3195 2.69312 0
M  V30 6440 H 628.702 -0.653809 1.41968 0
M  V30 6441 H 629.437 -3.12618 0.862568 0
M  V30 6442 H 629.222 -2.9134 2.62419 0
M  V30 6443 H 630.712 -3.67233 1.98821 0
M  V30 6444 N 631.149 -1.42148 -0.680565 0
M  V30 6445 C 632.112 -1.4488 -1.77602 0
M  V30 6446 C 633.112 -0.337209 -1.57224 0
M  V30 6447 O 634.302 -0.597778 -1.63622 0
M  V30 6448 C 631.434 -1.27483 -3.16166 0
M  V30 6449 H 632.627 -2.42412 -1.76568 0
M  V30 6450 H 630.18 -1.28511 -0.889645 0
M  V30 6451 H 630.915 -0.30851 -3.22829 0
M  V30 6452 H 630.7 -2.08037 -3.3236 0
M  V30 6453 H 632.19 -1.32265 -3.96101 0
M  V30 6454 N 632.627 0.916307 -1.28225 0
M  V30 6455 C 633.574 2.01841 -1.11932 0
M  V30 6456 C 634.544 1.66091 -0.0171604 0
M  V30 6457 O 635.729 1.89934 -0.181617 0
M  V30 6458 C 632.869 3.36065 -0.784504 0
M  V30 6459 C 631.982 3.847 -1.96544 0
M  V30 6460 C 631.117 5.07423 -1.57149 0
M  V30 6461 C 630.156 5.48384 -2.71922 0
M  V30 6462 N 629.293 6.62298 -2.33037 0
M  V30 6463 H 634.133 2.1511 -2.06232 0
M  V30 6464 H 631.67 1.05366 -1.02647 0
M  V30 6465 H 633.628 4.13272 -0.571148 0
M  V30 6466 H 632.258 3.22571 0.121565 0
M  V30 6467 H 631.31 3.03673 -2.291 0
M  V30 6468 H 632.622 4.1102 -2.82603 0
M  V30 6469 H 631.776 5.92165 -1.32004 0
M  V30 6470 H 630.515 4.82906 -0.682153 0
M  V30 6471 H 629.52 4.62184 -2.97768 0
M  V30 6472 H 630.745 5.7489 -3.61494 0
M  V30 6473 H 628.691 6.39416 -1.4657 0
M  V30 6474 H 628.608 6.8833 -3.12631 0
M  V30 6475 H 629.876 7.50352 -2.11169 0
M  V30 6476 N 634.105 1.10431 1.1244 0
M  V30 6477 C 635.052 0.753103 2.18167 0
M  V30 6478 C 636.022 -0.270549 1.63882 0
M  V30 6479 O 637.207 -0.149837 1.90211 0
M  V30 6480 C 634.347 0.191046 3.44571 0
M  V30 6481 C 633.46 1.26999 4.12911 0
M  V30 6482 C 632.595 0.669586 5.26963 0
M  V30 6483 C 631.634 1.72912 5.87169 0
M  V30 6484 N 630.771 1.14898 6.92635 0
M  V30 6485 H 635.611 1.65892 2.47556 0
M  V30 6486 H 633.148 0.828631 1.21541 0
M  V30 6487 H 635.106 -0.152712 4.1692 0
M  V30 6488 H 633.736 -0.677997 3.15599 0
M  V30 6489 H 632.788 1.73087 3.3874 0
M  V30 6490 H 634.1 2.07204 4.53727 0
M  V30 6491 H 633.254 0.275274 6.06075 0
M  V30 6492 H 631.993 -0.163895 4.87425 0
M  V30 6493 H 630.998 2.13286 5.06744 0
M  V30 6494 H 632.223 2.56544 6.28778 0
M  V30 6495 H 630.169 0.336956 6.55134 0
M  V30 6496 H 630.086 1.88786 7.32049 0
M  V30 6497 H 631.354 0.78121 7.75576 0
M  V30 6498 N 635.583 -1.29855 0.893053 0
M  V30 6499 C 636.83 -1.95826 0.515585 0
M  V30 6500 C 637.158 -1.70451 -0.936842 0
M  V30 6501 O 636.413 -1.00657 -1.67829 0
M  V30 6502 C 636.712 -3.49515 0.746588 0
M  V30 6503 C 636.378 -3.94955 2.17535 0
M  V30 6504 C 635.04 -4.07073 2.56603 0
M  V30 6505 C 637.392 -4.18536 3.10607 0
M  V30 6506 C 634.72 -4.40138 3.87938 0
M  V30 6507 C 637.072 -4.53073 4.41484 0
M  V30 6508 C 635.736 -4.634 4.80434 0
M  V30 6509 H 635.006 -0.71658 0.188666 0
M  V30 6510 H 637.653 -1.54574 1.13045 0
M  V30 6511 H 635.958 -3.9177 0.0487551 0
M  V30 6512 H 637.655 -3.98644 0.434009 0
M  V30 6513 H 634.245 -3.86035 1.86212 0
M  V30 6514 H 638.429 -4.08646 2.81641 0
M  V30 6515 H 633.685 -4.46335 4.17846 0
M  V30 6516 H 637.859 -4.70269 5.13634 0
M  V30 6517 H 635.486 -4.88775 5.82239 0
M  V30 6518 N 637.061 -0.65484 -1.43351 0
M  V30 6519 C 638.307 -0.169142 -2.02093 0
M  V30 6520 C 638.64 1.21431 -1.51553 0
M  V30 6521 O 637.915 1.81105 -0.709317 0
M  V30 6522 C 638.198 -0.181775 -3.59641 0
M  V30 6523 C 638.051 -1.59926 -4.20409 0
M  V30 6524 C 639.37 0.480945 -4.37464 0
M  V30 6525 H 636.489 -0.0629371 -0.734308 0
M  V30 6526 H 639.131 -0.835833 -1.70628 0
M  V30 6527 H 637.281 0.385918 -3.86578 0
M  V30 6528 H 638.953 -2.21766 -4.04497 0
M  V30 6529 H 637.196 -2.14605 -3.76998 0
M  V30 6530 H 637.867 -1.55994 -5.295 0
M  V30 6531 H 640.343 -0.00208273 -4.161 0
M  V30 6532 H 639.219 0.441384 -5.47122 0
M  V30 6533 H 639.48 1.55533 -4.13838 0
M  V30 6534 N 638.539 1.52521 -0.396863 0
M  V30 6535 C 639.764 2.06571 0.185258 0
M  V30 6536 C 640.189 1.26605 1.39115 0
M  V30 6537 O 639.547 0.293055 1.78916 0
M  V30 6538 C 639.595 3.5674 0.526189 0
M  V30 6539 O 638.699 3.7929 1.61903 0
M  V30 6540 H 638.04 0.663712 0.0195474 0
M  V30 6541 H 640.57 1.966 -0.566519 0
M  V30 6542 H 640.58 4.00311 0.788338 0
M  V30 6543 H 639.255 4.14379 -0.355397 0
M  V30 6544 H 637.832 3.47605 1.35 0
M  V30 6545 N 640.017 0.126909 1.57088 0
M  V30 6546 C 641.265 -0.528123 1.95078 0
M  V30 6547 C 641.586 -1.66708 1.0116 0
M  V30 6548 O 640.856 -1.95777 0.0693527 0
M  V30 6549 H 639.436 -0.198087 0.720257 0
M  V30 6550 H 642.098 0.197703 1.93895 0
M  V30 6551 H 641.194 -0.917507 2.98309 0
M  V30 6552 N 641.495 -1.56914 -0.146875 0
M  V30 6553 C 642.427 -1.94878 -1.20645 0
M  V30 6554 C 643.44 -0.844633 -1.39175 0
M  V30 6555 O 644.629 -1.12304 -1.38744 0
M  V30 6556 C 641.729 -2.20769 -2.57127 0
M  V30 6557 C 640.902 -3.52053 -2.59572 0
M  V30 6558 C 639.961 -3.66482 -3.77594 0
M  V30 6559 O 638.987 -4.38873 -3.62462 0
M  V30 6560 N 640.189 -3.03156 -4.95052 0
M  V30 6561 H 642.954 -2.86374 -0.883757 0
M  V30 6562 H 640.515 -1.58366 -0.336436 0
M  V30 6563 H 642.507 -2.27664 -3.34591 0
M  V30 6564 H 641.077 -1.35538 -2.81688 0
M  V30 6565 H 640.297 -3.56598 -1.68023 0
M  V30 6566 H 641.585 -4.38396 -2.58238 0
M  V30 6567 H 640.983 -2.44258 -5.10249 0
M  V30 6568 H 639.54 -3.15611 -5.70292 0
M  V30 6569 N 642.974 0.416227 -1.52004 0
M  V30 6570 C 643.921 1.50666 -1.74838 0
M  V30 6571 C 644.891 1.55245 -0.590599 0
M  V30 6572 O 646.076 1.71928 -0.827374 0
M  V30 6573 C 643.216 2.88185 -1.89851 0
M  V30 6574 C 642.329 2.92971 -3.17478 0
M  V30 6575 C 641.464 4.21745 -3.22962 0
M  V30 6576 C 640.503 4.20478 -4.4482 0
M  V30 6577 N 639.64 5.40811 -4.47736 0
M  V30 6578 H 644.48 1.30498 -2.67907 0
M  V30 6579 H 642.017 0.633568 -1.32757 0
M  V30 6580 H 643.975 3.68007 -1.96537 0
M  V30 6581 H 642.605 3.06865 -1.00169 0
M  V30 6582 H 641.657 2.05684 -3.19997 0
M  V30 6583 H 642.969 2.87899 -4.07328 0
M  V30 6584 H 642.123 5.09954 -3.28682 0
M  V30 6585 H 640.862 4.29503 -2.31038 0
M  V30 6586 H 639.867 3.30659 -4.39254 0
M  V30 6587 H 641.092 4.14366 -5.38031 0
M  V30 6588 H 639.038 5.4925 -3.58692 0
M  V30 6589 H 638.955 5.37705 -5.31422 0
M  V30 6590 H 640.223 6.30993 -4.57676 0
M  V30 6591 N 644.452 1.42507 0.673017 0
M  V30 6592 C 645.677 1.4668 1.46627 0
M  V30 6593 C 646.102 0.080066 1.8793 0
M  V30 6594 O 645.46 -0.921879 1.56112 0
M  V30 6595 C 645.508 2.40091 2.69051 0
M  V30 6596 O 644.612 1.8735 3.67387 0
M  V30 6597 H 643.953 0.496908 0.44043 0
M  V30 6598 H 646.483 1.87215 0.825334 0
M  V30 6599 H 646.493 2.56731 3.17101 0
M  V30 6600 H 645.168 3.4084 2.3833 0
M  V30 6601 H 643.745 1.80274 3.26429 0
M  V30 6602 N 645.93 -0.909495 1.28709 0
M  V30 6603 C 646.863 -2.01388 1.07323 0
M  V30 6604 C 647.841 -1.62596 -0.0119757 0
M  V30 6605 O 649.025 -1.88003 0.136796 0
M  V30 6606 C 646.152 -3.32755 0.631797 0
M  V30 6607 C 645.198 -3.90532 1.71428 0
M  V30 6608 S 646.031 -4.20853 3.31124 0
M  V30 6609 C 647.187 -5.55276 2.88825 0
M  V30 6610 H 647.42 -2.19219 2.00824 0
M  V30 6611 H 644.953 -1.05489 1.12745 0
M  V30 6612 H 646.911 -4.08702 0.38381 0
M  V30 6613 H 645.572 -3.12818 -0.283451 0
M  V30 6614 H 644.765 -4.85385 1.35712 0
M  V30 6615 H 644.367 -3.21237 1.91528 0
M  V30 6616 H 646.659 -6.35341 2.3526 0
M  V30 6617 H 647.602 -5.95907 3.82492 0
M  V30 6618 H 648.01 -5.16666 2.27412 0
M  V30 6619 N 647.408 -1.11026 -1.11852 0
M  V30 6620 C 648.371 -0.768006 -2.1595 0
M  V30 6621 C 649.371 0.210538 -1.59416 0
M  V30 6622 O 650.561 -0.0133978 -1.74195 0
M  V30 6623 C 647.693 -0.138678 -3.40618 0
M  V30 6624 H 648.886 -1.69012 -2.4774 0
M  V30 6625 H 646.439 -0.911578 -1.26964 0
M  V30 6626 H 647.174 0.793872 -3.14433 0
M  V30 6627 H 646.959 -0.843012 -3.8293 0
M  V30 6628 H 648.449 0.0848039 -4.17514 0
M  V30 6629 N 648.886 1.2938 -0.899927 0
M  V30 6630 C 649.849 2.25983 -0.382677 0
M  V30 6631 C 650.849 1.53366 0.483259 0
M  V30 6632 O 652.039 1.71798 0.28828 0
M  V30 6633 C 649.171 3.37878 0.452915 0
M  V30 6634 H 650.364 2.73252 -1.23586 0
M  V30 6635 H 647.917 1.40825 -0.678088 0
M  V30 6636 H 648.652 2.95949 1.32608 0
M  V30 6637 H 648.437 3.91742 -0.167562 0
M  V30 6638 H 649.927 4.09746 0.806107 0
M  V30 6639 N 650.364 0.662433 1.43002 0
M  V30 6640 C 651.589 0.186003 2.06564 0
M  V30 6641 C 652.014 -1.14314 1.49379 0
M  V30 6642 O 651.372 -1.70824 0.607346 0
M  V30 6643 C 651.42 0.118269 3.60406 0
M  V30 6644 O 650.524 -0.916859 4.02079 0
M  V30 6645 H 649.865 0.0990981 0.656563 0
M  V30 6646 H 652.395 0.907958 1.8335 0
M  V30 6647 H 652.405 -0.0619981 4.07953 0
M  V30 6648 H 651.08 1.08849 4.01403 0
M  V30 6649 H 649.657 -0.708635 3.66105 0
M  V30 6650 N 651.842 -1.52309 0.404946 0
M  V30 6651 C 653.09 -2.01368 -0.17186 0
M  V30 6652 C 653.411 -1.29261 -1.46002 0
M  V30 6653 O 652.681 -0.41729 -1.91404 0
M  V30 6654 H 651.261 -0.744034 -0.0664993 0
M  V30 6655 H 653.923 -1.87263 0.540228 0
M  V30 6656 H 653.019 -3.09888 -0.370957 0
M  V30 6657 N 653.32 -0.135238 -1.57019 0
M  V30 6658 C 654.268 0.826099 -2.17436 0
M  V30 6659 C 655.262 1.26378 -1.12805 0
M  V30 6660 O 656.468 1.23363 -1.31079 0
M  V30 6661 H 652.843 0.284568 -0.696078 0
M  V30 6662 H 654.814 0.292212 -2.96966 0
M  V30 6663 C 653.563 2.05991 -2.80112 0
M  V30 6664 H 652.886 1.73209 -3.60331 0
M  V30 6665 H 654.326 2.71225 -3.25903 0
M  V30 6666 C 652.785 2.86027 -1.78017 0
M  V30 6667 O 653.315 3.81971 -1.24344 0
M  V30 6668 N 651.521 2.50332 -1.47588 0
M  V30 6669 H 651.068 1.72377 -1.91426 0
M  V30 6670 H 651.026 3.04177 -0.795228 0
M  V30 6671 N 654.798 1.5699 0.138552 0
M  V30 6672 C 655.728 2.01933 1.17241 0
M  V30 6673 C 656.709 0.90033 1.44319 0
M  V30 6674 O 657.894 1.16872 1.55095 0
M  V30 6675 C 655.024 2.40711 2.50351 0
M  V30 6676 C 653.978 3.55874 2.37776 0
M  V30 6677 C 653.304 3.80491 3.75674 0
M  V30 6678 C 654.604 4.8826 1.85472 0
M  V30 6679 H 656.298 2.88551 0.798672 0
M  V30 6680 H 653.844 1.3882 0.382743 0
M  V30 6681 H 655.797 2.70754 3.22909 0
M  V30 6682 H 654.521 1.5104 2.89576 0
M  V30 6683 H 653.18 3.2601 1.67669 0
M  V30 6684 H 652.828 2.88057 4.12349 0
M  V30 6685 H 652.528 4.57998 3.68119 0
M  V30 6686 H 654.052 4.12967 4.49767 0
M  V30 6687 H 655.466 5.16965 2.4783 0
M  V30 6688 H 653.863 5.69631 1.88787 0
M  V30 6689 H 654.933 4.78071 0.810935 0
M  V30 6690 N 656.276 -0.40816 1.52223 0
M  V30 6691 C 657.524 -1.15274 1.66001 0
M  V30 6692 C 657.845 -1.91003 0.392803 0
M  V30 6693 O 657.115 -1.8673 -0.592336 0
M  V30 6694 H 655.695 -0.428526 0.611861 0
M  V30 6695 H 658.357 -0.46512 1.89269 0
M  V30 6696 H 657.453 -1.86628 2.50153 0
M  V30 6697 N 657.755 -1.42862 -0.66545 0
M  V30 6698 C 658.705 -1.43521 -1.7716 0
M  V30 6699 C 659.689 -0.305267 -1.57978 0
M  V30 6700 O 660.881 -0.548176 -1.68297 0
M  V30 6701 C 658.01 -1.34914 -3.15679 0
M  V30 6702 C 657.096 -2.5289 -3.40452 0
M  V30 6703 N 657.487 -3.78284 -3.3576 0
M  V30 6704 C 655.785 -2.47351 -3.71124 0
M  V30 6705 C 656.486 -4.56701 -3.60276 0
M  V30 6706 N 655.462 -3.87249 -3.81496 0
M  V30 6707 H 659.264 -2.38357 -1.7194 0
M  V30 6708 H 656.778 -1.37342 -0.866653 0
M  V30 6709 H 658.775 -1.33468 -3.94958 0
M  V30 6710 H 657.435 -0.410881 -3.2209 0
M  V30 6711 H 658.446 -4.10746 -3.15448 0
M  V30 6712 H 655.123 -1.62152 -3.84725 0
M  V30 6713 H 656.513 -5.65704 -3.6253 0
M  V30 6714 N 659.233 0.902656 -1.29189 0
M  V30 6715 C 660.461 1.68639 -1.19869 0
M  V30 6716 C 660.876 1.87254 0.241121 0
M  V30 6717 O 660.233 1.40745 1.16177 0
M  V30 6718 C 660.284 3.07251 -1.90471 0
M  V30 6719 O 660.005 2.89488 -3.28829 0
M  V30 6720 C 661.506 4.01653 -1.8759 0
M  V30 6721 H 658.726 0.526802 -0.415596 0
M  V30 6722 H 661.27 1.12901 -1.7051 0
M  V30 6723 H 659.425 3.59774 -1.43672 0
M  V30 6724 H 659.839 3.77296 -3.64346 0
M  V30 6725 H 661.313 4.96339 -2.4156 0
M  V30 6726 H 661.79 4.30881 -0.850756 0
M  V30 6727 H 662.396 3.55061 -2.34119 0
M  V30 6728 N 660.711 1.11618 1.11262 0
M  V30 6729 C 662.122 0.881942 1.64556 0
M  V30 6730 C 662.473 -0.585442 1.87262 0
M  V30 6731 O 661.598 -1.44795 1.60821 0
M  V30 6732 C 662.193 1.59446 2.98935 0
M  V30 6733 C 660.752 1.40661 3.4913 0
M  V30 6734 C 659.899 1.63593 2.23903 0
M  V30 6735 H 662.85 1.27217 0.94877 0
M  V30 6736 H 662.871 1.04054 3.65996 0
M  V30 6737 H 662.383 2.66241 2.82378 0
M  V30 6738 H 660.484 0.360835 3.70849 0
M  V30 6739 H 660.597 2.15693 4.27801 0
M  V30 6740 H 658.961 1.05944 2.3162 0
M  V30 6741 H 659.744 2.71666 2.09886 0
M  V30 6742 N 662.189 -1.289 0.906776 0
M  V30 6743 C 663.436 -1.95269 0.536326 0
M  V30 6744 C 663.764 -1.71435 -0.918711 0
M  V30 6745 O 663.019 -1.02431 -1.66752 0
M  V30 6746 C 663.318 -3.48704 0.783617 0
M  V30 6747 C 662.984 -3.92626 2.21711 0
M  V30 6748 C 661.646 -4.04329 2.60906 0
M  V30 6749 C 663.998 -4.15218 3.15029 0
M  V30 6750 C 661.326 -4.35998 3.92584 0
M  V30 6751 C 663.678 -4.48365 4.46264 0
M  V30 6752 C 662.342 -4.58278 4.85322 0
M  V30 6753 H 661.612 -0.714538 0.196256 0
M  V30 6754 H 664.259 -1.53366 1.14678 0
M  V30 6755 H 662.564 -3.91696 0.0903048 0
M  V30 6756 H 664.261 -3.98162 0.476267 0
M  V30 6757 H 660.851 -3.84038 1.90296 0
M  V30 6758 H 665.035 -4.05636 2.8596 0
M  V30 6759 H 660.291 -4.41878 4.22557 0
M  V30 6760 H 664.465 -4.64795 5.18593 0
M  V30 6761 H 662.092 -4.82573 5.87391 0
M  V30 6762 N 663.667 -0.670007 -1.42649 0
M  V30 6763 C 664.913 -0.190568 -2.01903 0
M  V30 6764 C 665.246 1.19817 -1.52832 0
M  V30 6765 O 664.521 1.80342 -0.728485 0
M  V30 6766 C 664.804 -0.21991 -3.59428 0
M  V30 6767 C 664.657 -1.64376 -4.18689 0
M  V30 6768 C 665.976 0.434519 -4.3795 0
M  V30 6769 H 663.095 -0.0707219 -0.733599 0
M  V30 6770 H 665.737 -0.853883 -1.69732 0
M  V30 6771 H 663.887 0.344894 -3.86966 0
M  V30 6772 H 665.559 -2.26044 -4.02122 0
M  V30 6773 H 663.802 -2.18591 -3.747 0
M  V30 6774 H 664.473 -1.61601 -5.27815 0
M  V30 6775 H 666.949 -0.0462156 -4.16074 0
M  V30 6776 H 665.825 0.38333 -5.4756 0
M  V30 6777 H 666.086 1.51135 -4.15464 0
M  V30 6778 N 665.145 1.52092 -0.413018 0
M  V30 6779 C 666.422 1.94356 0.22024 0
M  V30 6780 C 666.802 1.35017 1.62277 0
M  V30 6781 O 666.15 0.527511 2.22328 0
M  V30 6782 C 666.36 3.48289 0.222638 0
M  V30 6783 C 667.708 4.22313 0.440098 0
M  V30 6784 O 668.732 3.54919 0.301826 0
M  V30 6785 O 667.591 5.41829 0.712984 0
M  V30 6786 H 664.685 0.814536 0.14304 0
M  V30 6787 H 667.231 1.63083 -0.469242 0
M  V30 6788 H 666.003 3.83872 -0.758836 0
M  V30 6789 H 665.626 3.85934 0.956057 0
M  V30 6790 N 666.623 0.143563 1.56945 0
M  V30 6791 C 667.533 -0.810562 2.20152 0
M  V30 6792 C 668.549 -1.27431 1.1848 0
M  V30 6793 O 669.725 -1.33221 1.51044 0
M  V30 6794 C 666.79 -2.03353 2.80799 0
M  V30 6795 C 665.851 -1.61936 3.97587 0
M  V30 6796 C 665.084 -2.78403 4.55332 0
M  V30 6797 O 665.307 -3.94521 4.11958 0
M  V30 6798 O 664.241 -2.54073 5.45647 0
M  V30 6799 H 668.067 -0.30253 3.02189 0
M  V30 6800 H 665.652 -0.0832925 1.49168 0
M  V30 6801 H 667.534 -2.74932 3.19359 0
M  V30 6802 H 666.209 -2.53116 2.01777 0
M  V30 6803 H 665.116 -0.873904 3.6375 0
M  V30 6804 H 666.449 -1.16892 4.78118 0
M  V30 6805 N 668.101 -1.57061 -0.130224 0
M  V30 6806 C 669.031 -2.02552 -1.16168 0
M  V30 6807 C 670.012 -0.907971 -1.4384 0
M  V30 6808 O 671.197 -1.17693 -1.54473 0
M  V30 6809 C 668.327 -2.42035 -2.49071 0
M  V30 6810 C 667.281 -3.5713 -2.35886 0
M  V30 6811 C 666.607 -3.82478 -3.7365 0
M  V30 6812 C 667.907 -4.89236 -1.8288 0
M  V30 6813 H 669.601 -2.8897 -0.783359 0
M  V30 6814 H 667.147 -1.39021 -0.375376 0
M  V30 6815 H 669.1 -2.72462 -3.21469 0
M  V30 6816 H 667.824 -1.52573 -2.88771 0
M  V30 6817 H 666.483 -3.26895 -1.65938 0
M  V30 6818 H 666.131 -2.9024 -4.10816 0
M  V30 6819 H 665.831 -4.59944 -3.65685 0
M  V30 6820 H 667.355 -4.15347 -4.47571 0
M  V30 6821 H 668.769 -5.18272 -2.45085 0
M  V30 6822 H 667.166 -5.70624 -1.85763 0
M  V30 6823 H 668.236 -4.78494 -0.785571 0
M  V30 6824 O 669.618 0.274706 -1.59147 0
M  V30 6825 H 670.309 0.920013 -1.70457 0
M  V30 END ATOM
M  V30 BEGIN BOND
M  V30 END BOND
M  V30 END CTAB
M  END
$$$$
