drugbank_target|Q15274 Nicotinate-nucleotide pyrophosphorylase [carboxylating] (DB00627)
 OpenBabel12092119333D

  0  0  0     0  0            999 V3000
M  V30 BEGIN CTAB
M  V30 COUNTS 4372 4418 0 0 0
M  V30 BEGIN ATOM
M  V30 1 H -0.908 1.98254 -0.117106 0
M  V30 2 N 0 1.576 0 0
M  V30 3 C 0.933 2.03868 1.02534 0
M  V30 4 C 1.911 0.928543 1.3348 0
M  V30 5 O 3.095 1.19667 1.45644 0
M  V30 6 C 0.222 2.43627 2.35294 0
M  V30 7 C -0.732 3.65373 2.2001 0
M  V30 8 S 0.101 5.13292 1.52614 0
M  V30 9 C 1.257 5.56322 2.86805 0
M  V30 10 H 1.49 2.90518 0.631377 0
M  V30 11 H -0.977 1.52953 0.210867 0
M  V30 12 H 0.981 2.67203 3.11629 0
M  V30 13 H -0.358 1.57376 2.7183 0
M  V30 14 H -1.165 3.90944 3.18086 0
M  V30 15 H -1.563 3.418 1.51819 0
M  V30 16 H 0.729 5.58782 3.83104 0
M  V30 17 H 1.672 6.56266 2.65933 0
M  V30 18 H 2.08 4.83886 2.90714 0
M  V30 19 N 1.4781 -0.272755 1.55222 0
M  V30 20 C 2.7551 -1.02562 1.66555 0
M  V30 21 C 3.1351 -2.04282 0.532189 0
M  V30 22 O 2.4831 -2.23662 -0.467717 0
M  V30 23 C 2.6931 -1.6822 3.05782 0
M  V30 24 C 4.0411 -2.19373 3.63539 0
M  V30 25 O 5.0651 -1.78206 3.08417 0
M  V30 26 O 3.9241 -2.94883 4.60115 0
M  V30 27 H 1.0181 -0.475755 0.676451 0
M  V30 28 H 3.5641 -0.268593 1.67561 0
M  V30 29 H 2.3361 -0.945112 3.79715 0
M  V30 30 H 1.9591 -2.50609 3.08676 0
M  V30 31 N 2.9562 -1.48159 -0.537278 0
M  V30 32 C 3.9192 -1.61665 -1.62472 0
M  V30 33 C 4.9192 -0.490395 -1.5314 0
M  V30 34 O 6.1092 -0.755998 -1.5694 0
M  V30 35 C 3.2412 -1.57997 -3.02076 0
M  V30 36 H 4.4342 -2.58621 -1.51839 0
M  V30 37 H 1.9872 -1.36647 -0.758771 0
M  V30 38 H 2.7222 -0.624913 -3.18222 0
M  V30 39 H 2.5072 -2.39755 -3.10258 0
M  V30 40 H 3.9972 -1.70627 -3.81151 0
M  V30 41 N 4.4343 0.785586 -1.36625 0
M  V30 42 C 5.3443 1.92964 -1.33425 0
M  V30 43 C 6.3603 1.72394 -0.235851 0
M  V30 44 O 7.5363 1.95866 -0.468878 0
M  V30 45 C 4.6013 3.27884 -1.12662 0
M  V30 46 C 3.6623 3.61204 -2.32013 0
M  V30 47 C 2.8953 4.89687 -2.12231 0
M  V30 48 O 3.1183 5.59704 -1.09945 0
M  V30 49 O 2.0523 5.21752 -3.00098 0
M  V30 50 H 5.8783 1.98613 -2.29753 0
M  V30 51 H 3.4633 0.926384 -1.17211 0
M  V30 52 H 5.3453 4.08614 -1.03016 0
M  V30 53 H 4.0203 3.23118 -0.193991 0
M  V30 54 H 2.9273 2.80765 -2.47228 0
M  V30 55 H 4.2603 3.70698 -3.23796 0
M  V30 56 N 5.9124 1.20967 1.01018 0
M  V30 57 C 7.1604 1.02172 1.74371 0
M  V30 58 C 7.4814 -0.446414 1.89821 0
M  V30 59 O 6.7514 -1.32234 1.44537 0
M  V30 60 H 5.3314 0.375066 0.646014 0
M  V30 61 H 7.9934 1.52187 1.21758 0
M  V30 62 H 7.0894 1.48538 2.74487 0
M  V30 63 N 7.3905 -1.2043 1.01659 0
M  V30 64 C 8.3205 -2.25466 0.607226 0
M  V30 65 C 9.3015 -1.65853 -0.377716 0
M  V30 66 O 10.4865 -1.92409 -0.263149 0
M  V30 67 C 7.6165 -3.47256 -0.0552949 0
M  V30 68 C 6.5705 -4.19462 0.850632 0
M  V30 69 C 5.8965 -5.34673 0.0538859 0
M  V30 70 C 7.1965 -4.75603 2.15868 0
M  V30 71 H 8.8905 -2.59962 1.48526 0
M  V30 72 H 6.4365 -1.2496 0.715605 0
M  V30 73 H 8.3895 -4.19917 -0.353233 0
M  V30 74 H 7.1135 -3.11924 -0.968045 0
M  V30 75 H 5.7725 -3.48667 1.13257 0
M  V30 76 H 5.4205 -4.95585 -0.860514 0
M  V30 77 H 5.1205 -5.83913 0.657192 0
M  V30 78 H 6.6445 -6.10138 -0.237598 0
M  V30 79 H 8.0585 -5.40083 1.92311 0
M  V30 80 H 6.4555 -5.3528 2.71284 0
M  V30 81 H 7.5255 -3.94346 2.82169 0
M  V30 82 N 8.8686 -0.792821 -1.36206 0
M  V30 83 C 9.8316 -0.199459 -2.2833 0
M  V30 84 C 10.8316 0.605189 -1.48977 0
M  V30 85 O 12.0216 0.425685 -1.68919 0
M  V30 86 C 9.1536 0.723523 -3.33134 0
M  V30 87 H 10.3466 -1.01181 -2.82316 0
M  V30 88 H 7.8996 -0.562485 -1.45828 0
M  V30 89 H 8.6346 1.56008 -2.84309 0
M  V30 90 H 8.4196 0.148436 -3.91819 0
M  V30 91 H 9.9096 1.13344 -4.01924 0
M  V30 92 N 10.3467 1.47872 -0.545128 0
M  V30 93 C 11.2767 2.32661 0.197793 0
M  V30 94 C 12.2577 1.43041 0.920504 0
M  V30 95 O 13.4427 1.71912 0.90333 0
M  V30 96 C 10.5727 3.24569 1.23582 0
M  V30 97 C 9.5267 4.23333 0.630323 0
M  V30 98 C 8.8527 5.0448 1.77211 0
M  V30 99 C 10.1527 5.20704 -0.407974 0
M  V30 100 H 11.8467 2.95024 -0.510045 0
M  V30 101 H 9.3927 1.4187 -0.246731 0
M  V30 102 H 11.3457 3.8272 1.76362 0
M  V30 103 H 10.0697 2.60236 1.97344 0
M  V30 104 H 8.7287 3.6639 0.123922 0
M  V30 105 H 8.3767 4.36561 2.49847 0
M  V30 106 H 8.0767 5.71339 1.37281 0
M  V30 107 H 9.6007 5.65487 2.3034 0
M  V30 108 H 11.0147 5.7329 0.033305 0
M  V30 109 H 9.4117 5.95699 -0.725486 0
M  V30 110 H 10.4817 4.66917 -1.30828 0
M  V30 111 N 11.8248 0.280983 1.55075 0
M  V30 112 C 12.7548 -0.597469 2.25727 0
M  V30 113 C 13.7358 -1.15417 1.24952 0
M  V30 114 O 14.9208 -1.18722 1.53684 0
M  V30 115 C 12.0508 -1.7789 2.98283 0
M  V30 116 C 11.0048 -1.35347 4.06036 0
M  V30 117 C 10.3308 -2.61846 4.66198 0
M  V30 118 C 11.6308 -0.499354 5.19907 0
M  V30 119 H 13.3248 -0.00824265 2.99399 0
M  V30 120 H 10.8708 -0.0025244 1.44 0
M  V30 121 H 12.8238 -2.39937 3.46422 0
M  V30 122 H 11.5478 -2.39405 2.22155 0
M  V30 123 H 10.2068 -0.756156 3.58717 0
M  V30 124 H 9.8548 -3.21632 3.86732 0
M  V30 125 H 9.5548 -2.3409 5.38958 0
M  V30 126 H 11.0788 -3.24732 5.1709 0
M  V30 127 H 12.4928 -1.02498 5.64063 0
M  V30 128 H 10.8898 -0.316424 5.99265 0
M  V30 129 H 11.9598 0.480459 4.82514 0
M  V30 130 N 13.3029 -1.57598 0.00835791 0
M  V30 131 C 14.2329 -2.1198 -0.979113 0
M  V30 132 C 15.2139 -1.03091 -1.35301 0
M  V30 133 O 16.3989 -1.30818 -1.43528 0
M  V30 134 C 13.5289 -2.62995 -2.26828 0
M  V30 135 C 12.4829 -3.76485 -2.03576 0
M  V30 136 C 11.8089 -4.13846 -3.38579 0
M  V30 137 C 13.1089 -5.0342 -1.39161 0
M  V30 138 H 14.8029 -2.94738 -0.526281 0
M  V30 139 H 12.3489 -1.41783 -0.251704 0
M  V30 140 H 14.3019 -2.99669 -2.96271 0
M  V30 141 H 13.0259 -1.7737 -2.7424 0
M  V30 142 H 11.6849 -3.40217 -1.36557 0
M  V30 143 H 11.3329 -3.25232 -3.83709 0
M  V30 144 H 11.0329 -4.90312 -3.23834 0
M  V30 145 H 12.5569 -4.53086 -4.09323 0
M  V30 146 H 13.9709 -5.37812 -1.98573 0
M  V30 147 H 12.3679 -5.84746 -1.34878 0
M  V30 148 H 13.4379 -4.83548 -0.361868 0
M  V30 149 N 14.781 0.264519 -1.55364 0
M  V30 150 C 16.192 0.834936 -1.6699 0
M  V30 151 C 16.543 1.86718 -0.602552 0
M  V30 152 O 15.668 2.14899 0.254425 0
M  V30 153 C 16.263 1.5212 -3.02729 0
M  V30 154 C 14.822 2.03954 -3.16354 0
M  V30 155 C 13.969 0.884498 -2.62815 0
M  V30 156 H 16.92 0.0406869 -1.58648 0
M  V30 157 H 16.941 2.38853 -2.96191 0
M  V30 158 H 16.453 0.769668 -3.80392 0
M  V30 159 H 14.554 2.82041 -2.43482 0
M  V30 160 H 14.667 2.24902 -4.23032 0
M  V30 161 H 13.031 1.2802 -2.20188 0
M  V30 162 H 13.814 0.14634 -3.42988 0
M  V30 163 N 16.2591 1.48442 0.529413 0
M  V30 164 C 17.6701 1.5002 1.11134 0
M  V30 165 C 18.0211 0.27031 1.94329 0
M  V30 166 O 17.1461 -0.622507 2.07253 0
M  V30 167 C 17.7411 2.71834 2.02217 0
M  V30 168 C 16.3001 2.76283 2.55627 0
M  V30 169 C 15.4471 2.43542 1.326 0
M  V30 170 H 18.3981 1.5555 0.314641 0
M  V30 171 H 18.4191 2.50384 2.8651 0
M  V30 172 H 17.9311 3.61331 1.41639 0
M  V30 173 H 16.0321 1.90995 3.19924 0
M  V30 174 H 16.1451 3.77725 2.94721 0
M  V30 175 H 14.5091 1.94709 1.64196 0
M  V30 176 H 15.2921 3.3528 0.737734 0
M  V30 177 N 17.7372 -0.778329 1.37039 0
M  V30 178 C 18.9832 -1.53892 1.32079 0
M  V30 179 C 19.3162 -1.9396 -0.0965386 0
M  V30 180 O 18.5912 -1.63568 -1.05242 0
M  V30 181 C 18.8742 -2.80847 2.25382 0
M  V30 182 C 18.7272 -2.47076 3.75864 0
M  V30 183 C 20.0462 -3.82741 2.1725 0
M  V30 184 H 17.1652 -0.558303 0.48111 0
M  V30 185 H 19.8072 -0.893397 1.67685 0
M  V30 186 H 17.9572 -3.35931 1.95148 0
M  V30 187 H 19.6292 -1.97957 4.16666 0
M  V30 188 H 17.8722 -1.79863 3.94755 0
M  V30 189 H 18.5432 -3.37798 4.36574 0
M  V30 190 H 21.0192 -3.37133 2.43887 0
M  V30 191 H 19.8952 -4.69303 2.84686 0
M  V30 192 H 20.1562 -4.2652 1.16331 0
M  V30 193 N 19.2153 -1.21501 -1.00376 0
M  V30 194 C 20.4433 -1.059 -1.77744 0
M  V30 195 C 20.8583 0.391125 -1.84704 0
M  V30 196 O 20.2153 1.27133 -1.30933 0
M  V30 197 C 20.2663 -1.65111 -3.21591 0
M  V30 198 O 19.9873 -3.0445 -3.15027 0
M  V30 199 C 21.4883 -1.54637 -4.15454 0
M  V30 200 H 18.7083 -0.371825 -0.558558 0
M  V30 201 H 21.2523 -1.60865 -1.26264 0
M  V30 202 H 19.4073 -1.14235 -3.70175 0
M  V30 203 H 19.8213 -3.3278 -4.0541 0
M  V30 204 H 21.2953 -2.00808 -5.14179 0
M  V30 205 H 21.7723 -0.501022 -4.36333 0
M  V30 206 H 22.3783 -2.04767 -3.72761 0
M  V30 207 N 20.6934 1.19889 -1.02296 0
M  V30 208 C 21.6234 2.25141 -0.619174 0
M  V30 209 C 22.6044 1.66051 0.368915 0
M  V30 210 O 23.7894 1.92546 0.252941 0
M  V30 211 C 20.9194 3.4728 0.0368783 0
M  V30 212 C 19.8734 4.19005 -0.872865 0
M  V30 213 C 19.1994 5.34637 -0.0822402 0
M  V30 214 C 20.4994 4.74452 -2.18387 0
M  V30 215 H 22.1934 2.59171 -1.49903 0
M  V30 216 H 19.7394 1.24579 -0.722222 0
M  V30 217 H 21.6924 4.20098 0.330958 0
M  V30 218 H 20.4164 3.12433 0.95149 0
M  V30 219 H 19.0754 3.48061 -1.15105 0
M  V30 220 H 18.7234 4.96034 0.83422 0
M  V30 221 H 18.4234 5.83557 -0.688149 0
M  V30 222 H 19.9474 6.10255 0.205238 0
M  V30 223 H 21.3614 5.39055 -1.95172 0
M  V30 224 H 19.7584 5.33834 -2.74119 0
M  V30 225 H 20.8284 3.92844 -2.84257 0
M  V30 226 N 22.1715 0.800033 1.35784 0
M  V30 227 C 23.1345 0.211565 2.28221 0
M  V30 228 C 24.1345 -0.59728 1.49296 0
M  V30 229 O 25.3245 -0.416721 1.69142 0
M  V30 230 C 22.4565 -0.705846 3.33513 0
M  V30 231 H 23.6495 1.02677 2.81776 0
M  V30 232 H 21.2025 0.570211 1.45528 0
M  V30 233 H 21.9375 -1.54498 2.85133 0
M  V30 234 H 21.7225 -0.127655 3.91892 0
M  V30 235 H 23.2125 -1.11211 4.02519 0
M  V30 236 N 23.6496 -1.47581 0.552962 0
M  V30 237 C 24.6126 -2.28439 -0.186605 0
M  V30 238 C 25.6126 -1.36706 -0.84665 0
M  V30 239 O 26.8026 -1.59378 -0.703164 0
M  V30 240 C 23.9346 -3.16264 -1.2724 0
M  V30 241 H 25.1276 -2.95294 0.523609 0
M  V30 242 H 22.6806 -1.532 0.309745 0
M  V30 243 H 23.4156 -2.54091 -2.01514 0
M  V30 244 H 23.2006 -3.83769 -0.803968 0
M  V30 245 H 24.6906 -3.77198 -1.79196 0
M  V30 246 N 25.1277 -0.289203 -1.54924 0
M  V30 247 C 26.0577 0.58549 -2.2604 0
M  V30 248 C 27.0387 1.14753 -1.25562 0
M  V30 249 O 28.2237 1.17906 -1.54311 0
M  V30 250 C 25.3537 1.76305 -2.99222 0
M  V30 251 C 24.3077 1.33191 -4.06748 0
M  V30 252 C 23.6337 2.5937 -4.6758 0
M  V30 253 C 24.9337 0.471775 -5.20165 0
M  V30 254 H 26.6277 -0.00763532 -2.99399 0
M  V30 255 H 24.1737 -0.00511229 -1.43999 0
M  V30 256 H 26.1267 2.38097 -3.47689 0
M  V30 257 H 24.8507 2.38223 -2.23422 0
M  V30 258 H 23.5097 0.737121 -3.59113 0
M  V30 259 H 23.1577 3.19576 -3.88433 0
M  V30 260 H 22.8577 2.31228 -5.40192 0
M  V30 261 H 24.3817 3.21985 -5.18804 0
M  V30 262 H 25.7957 0.995056 -5.64599 0
M  V30 263 H 24.1927 0.284639 -5.99425 0
M  V30 264 H 25.2627 -0.506041 -4.82252 0
M  V30 265 N 26.6058 1.57591 -0.0167156 0
M  V30 266 C 27.8518 1.91567 0.665582 0
M  V30 267 C 28.1848 0.892298 1.72487 0
M  V30 268 O 27.4598 -0.0867127 1.94307 0
M  V30 269 C 27.7428 3.36069 1.29342 0
M  V30 270 C 27.5958 4.49135 0.244541 0
M  V30 271 C 28.9148 3.803 2.21495 0
M  V30 272 H 26.0338 0.69666 0.240488 0
M  V30 273 H 28.6758 1.89866 -0.0714356 0
M  V30 274 H 26.8258 3.3765 1.92158 0
M  V30 275 H 28.4978 4.59689 -0.385228 0
M  V30 276 H 26.7408 4.3165 -0.431379 0
M  V30 277 H 27.4118 5.47242 0.723207 0
M  V30 278 H 29.8878 3.80377 1.68678 0
M  V30 279 H 28.7638 4.82127 2.62382 0
M  V30 280 H 29.0248 3.15104 3.101 0
M  V30 281 N 28.0839 -0.256276 1.55502 0
M  V30 282 C 29.3609 -1.00789 1.67633 0
M  V30 283 C 29.7409 -2.03706 0.553826 0
M  V30 284 O 29.0889 -2.24145 -0.443969 0
M  V30 285 C 29.2989 -1.64968 3.07549 0
M  V30 286 C 30.6469 -2.15505 3.65845 0
M  V30 287 O 31.6709 -1.74925 3.1029 0
M  V30 288 O 30.5299 -2.89986 4.63217 0
M  V30 289 H 27.6239 -0.468553 0.681459 0
M  V30 290 H 30.1699 -0.250806 1.67836 0
M  V30 291 H 28.9419 -0.904785 3.80696 0
M  V30 292 H 28.5649 -2.47321 3.11317 0
M  V30 293 N 29.562 -1.4872 -0.521534 0
M  V30 294 C 30.787 -1.61101 -1.30618 0
M  V30 295 C 31.212 -0.274611 -1.86085 0
M  V30 296 O 30.57 0.754937 -1.64834 0
M  V30 297 C 30.618 -2.66709 -2.4269 0
M  V30 298 O 29.722 -2.24456 -3.45967 0
M  V30 299 H 29.063 -0.539921 -0.386499 0
M  V30 300 H 31.593 -1.94767 -0.626645 0
M  V30 301 H 31.603 -2.88245 -2.88754 0
M  V30 302 H 30.278 -3.63727 -2.01682 0
M  V30 303 H 28.855 -2.13168 -3.05964 0
M  V30 304 N 31.0401 0.771051 -1.3745 0
M  V30 305 C 32.2861 1.53109 -1.339 0
M  V30 306 C 32.6411 1.9225 0.0758401 0
M  V30 307 O 31.9341 1.61264 1.03463 0
M  V30 308 C 32.1281 2.80676 -2.2126 0
M  V30 309 C 31.9571 2.54003 -3.71096 0
M  V30 310 C 30.7271 2.48097 -4.402 0
M  V30 311 C 32.9251 2.21953 -4.63941 0
M  V30 312 N 30.9071 2.13515 -5.75573 0
M  V30 313 C 32.2781 1.97516 -5.87697 0
M  V30 314 C 34.3331 2.08114 -4.5232 0
M  V30 315 C 33.0361 1.60638 -7.01133 0
M  V30 316 C 35.0621 1.72636 -5.65642 0
M  V30 317 C 34.4241 1.4906 -6.88448 0
M  V30 318 H 30.5231 0.56055 -0.54526 0
M  V30 319 H 33.1071 0.899472 -1.72678 0
M  V30 320 H 31.2781 3.41674 -1.84698 0
M  V30 321 H 33.0101 3.46578 -2.08963 0
M  V30 322 H 29.7651 2.63974 -3.93211 0
M  V30 323 H 30.1891 1.98919 -6.47117 0
M  V30 324 H 34.8311 2.25024 -3.57944 0
M  V30 325 H 32.5491 1.42467 -7.95443 0
M  V30 326 H 36.1351 1.62586 -5.58621 0
M  V30 327 H 35.0151 1.22014 -7.7465 0
M  V30 328 N 32.5182 1.22032 0.997298 0
M  V30 329 C 33.4482 1.01065 2.10495 0
M  V30 330 C 34.4292 -0.0669542 1.69968 0
M  V30 331 O 35.6142 0.0943987 1.9397 0
M  V30 332 C 32.7442 0.582874 3.42374 0
M  V30 333 C 31.6982 1.60592 3.96729 0
M  V30 334 C 31.0242 1.03412 5.24605 0
M  V30 335 C 32.3242 2.99478 4.27914 0
M  V30 336 H 34.0182 1.93708 2.28292 0
M  V30 337 H 31.5642 0.932761 1.09707 0
M  V30 338 H 33.5172 0.423332 4.19268 0
M  V30 339 H 32.2412 -0.379213 3.24391 0
M  V30 340 H 30.9002 1.75316 3.21963 0
M  V30 341 H 30.5482 0.063518 5.0296 0
M  V30 342 H 30.2482 1.71754 5.61938 0
M  V30 343 H 31.7722 0.886066 6.04137 0
M  V30 344 H 33.1862 2.88153 4.95622 0
M  V30 345 H 31.5832 3.64903 4.76409 0
M  V30 346 H 32.6532 3.49742 3.3587 0
M  V30 347 N 33.9963 -1.19345 1.0293 0
M  V30 348 C 35.4123 -1.41069 0.746446 0
M  V30 349 C 35.6123 -1.90078 -0.668776 0
M  V30 350 O 34.6683 -2.0778 -1.4347 0
M  V30 351 C 35.9813 -2.42141 1.78292 0
M  V30 352 C 37.5293 -2.55887 1.80252 0
M  V30 353 C 38.0043 -3.60214 2.8286 0
M  V30 354 N 39.4953 -3.67711 2.81679 0
M  V30 355 C 40.2303 -4.48128 3.57727 0
M  V30 356 N 39.7263 -5.32248 4.43491 0
M  V30 357 N 41.5193 -4.42782 3.46267 0
M  V30 358 H 33.6703 -0.858536 1.94275 0
M  V30 359 H 35.9333 -0.439541 0.839945 0
M  V30 360 H 35.6393 -2.13155 2.79746 0
M  V30 361 H 35.5133 -3.41323 1.60557 0
M  V30 362 H 37.9003 -2.84196 0.794757 0
M  V30 363 H 37.9813 -1.56858 2.02062 0
M  V30 364 H 37.6253 -3.32647 3.83807 0
M  V30 365 H 37.5553 -4.58895 2.58307 0
M  V30 366 H 40.0463 -3.07634 2.19476 0
M  V30 367 H 40.3593 -5.90729 4.98256 0
M  V30 368 H 38.7043 -5.31707 4.47564 0
M  V30 369 H 41.8953 -3.76107 2.78677 0
M  V30 370 H 42.0683 -5.05215 4.05785 0
M  V30 371 N 35.4744 -0.807222 -1.35358 0
M  V30 372 C 36.3844 -0.219594 -2.3357 0
M  V30 373 C 37.4004 0.637734 -1.61892 0
M  V30 374 O 38.5764 0.549336 -1.93763 0
M  V30 375 C 35.6414 0.62158 -3.41083 0
M  V30 376 C 34.7024 -0.256315 -4.28534 0
M  V30 377 C 33.9354 0.544807 -5.30912 0
M  V30 378 O 34.1584 1.77944 -5.41934 0
M  V30 379 O 33.0924 -0.0646478 -6.01865 0
M  V30 380 H 36.9184 -1.03208 -2.85625 0
M  V30 381 H 34.5034 -0.569025 -1.38139 0
M  V30 382 H 36.3854 1.10067 -4.06772 0
M  V30 383 H 35.0604 1.41165 -2.91297 0
M  V30 384 H 33.9674 -0.782559 -3.65823 0
M  V30 385 H 35.3004 -1.01034 -4.81719 0
M  V30 386 N 36.9525 1.47285 -0.560781 0
M  V30 387 C 38.2295 1.9558 0.0277798 0
M  V30 388 C 38.6095 1.5034 1.48192 0
M  V30 389 O 37.9575 0.743882 2.16052 0
M  V30 390 C 38.1675 3.48789 -0.121418 0
M  V30 391 C 39.5155 4.24594 0.0220912 0
M  V30 392 O 40.5395 3.56166 -0.0491439 0
M  V30 393 O 39.3985 5.46217 0.175958 0
M  V30 394 H 36.4925 0.824663 0.0621342 0
M  V30 395 H 39.0385 1.5767 -0.627556 0
M  V30 396 H 37.8105 3.74533 -1.13316 0
M  V30 397 H 37.4335 3.93473 0.571366 0
M  V30 398 N 38.4306 0.297415 1.54768 0
M  V30 399 C 39.6706 -0.313829 2.01976 0
M  V30 400 C 40.0346 -1.51366 1.1812 0
M  V30 401 O 41.2356 -2.19603 1.5501 0
M  V30 402 C 39.5066 -0.664964 3.51159 0
M  V30 403 S 41.0656 -1.25958 4.20333 0
M  V30 404 H 37.8836 -0.0965014 0.704421 0
M  V30 405 H 40.4856 0.424451 1.90837 0
M  V30 406 H 39.1896 0.21681 4.09827 0
M  V30 407 H 38.7206 -1.43413 3.66328 0
M  V30 408 H 40.7356 -2.54751 4.25813 0
M  V30 409 N 39.9087 -1.5758 0.0250728 0
M  V30 410 C 41.3197 -1.79476 -0.514323 0
M  V30 411 C 41.6707 -0.934956 -1.72491 0
M  V30 412 O 40.7957 -0.144245 -2.15919 0
M  V30 413 C 41.3907 -3.25503 -0.939842 0
M  V30 414 C 39.9497 -3.48408 -1.42438 0
M  V30 415 C 39.0967 -2.74583 -0.387201 0
M  V30 416 H 42.0477 -1.567 0.25113 0
M  V30 417 H 42.0687 -3.34992 -1.80445 0
M  V30 418 H 41.5807 -3.88056 -0.0585628 0
M  V30 419 H 39.6817 -2.91103 -2.32572 0
M  V30 420 H 39.7947 -4.57119 -1.43455 0
M  V30 421 H 38.1587 -2.39942 -0.854409 0
M  V30 422 H 38.9417 -3.39849 0.485543 0
M  V30 423 N 41.3868 0.248026 -1.55636 0
M  V30 424 C 42.6348 0.974295 -1.77065 0
M  V30 425 C 42.9558 1.85897 -0.588849 0
M  V30 426 O 42.2258 1.91868 0.395407 0
M  V30 427 H 40.8058 0.362733 -0.653019 0
M  V30 428 H 43.4678 0.266244 -1.93073 0
M  V30 429 H 42.5638 1.59667 -2.68166 0
M  V30 430 N 42.8649 1.48995 0.513639 0
M  V30 431 C 43.7949 1.67636 1.62544 0
M  V30 432 C 44.7759 0.525087 1.61793 0
M  V30 433 O 45.9609 0.759502 1.78732 0
M  V30 434 C 43.0909 1.73114 3.01079 0
M  V30 435 C 42.0449 2.87905 3.16693 0
M  V30 436 C 41.3709 2.78486 4.56453 0
M  V30 437 C 42.6709 4.29005 2.97913 0
M  V30 438 H 44.3649 2.60716 1.47198 0
M  V30 439 H 41.9109 1.25465 0.706714 0
M  V30 440 H 43.8639 1.84742 3.78746 0
M  V30 441 H 42.5879 0.766241 3.17484 0
M  V30 442 H 41.2469 2.75859 2.41448 0
M  V30 443 H 40.8949 1.7993 4.69717 0
M  V30 444 H 40.5949 3.55523 4.67843 0
M  V30 445 H 42.1189 2.92104 5.36197 0
M  V30 446 H 43.5329 4.41798 3.65359 0
M  V30 447 H 41.9299 5.07166 3.20785 0
M  V30 448 H 42.9999 4.44329 1.94165 0
M  V30 449 N 44.343 -0.763751 1.37857 0
M  V30 450 C 45.291 -1.89864 1.34367 0
M  V30 451 C 46.285 -1.67816 0.231143 0
M  V30 452 O 47.491 -1.75508 0.399617 0
M  V30 453 H 43.866 -0.624501 0.41893 0
M  V30 454 H 45.837 -1.89925 2.30155 0
M  V30 455 C 44.586 -3.27227 1.1755 0
M  V30 456 H 43.909 -3.44773 2.02414 0
M  V30 457 H 45.349 -4.06911 1.1916 0
M  V30 458 C 43.808 -3.36692 -0.118311 0
M  V30 459 O 44.338 -3.86374 -1.09902 0
M  V30 460 N 42.544 -2.90092 -0.171717 0
M  V30 461 H 42.091 -2.49853 0.627012 0
M  V30 462 H 42.049 -2.96806 -1.03699 0
M  V30 463 N 45.8211 -1.22559 -0.990812 0
M  V30 464 C 47.0511 -1.07623 -1.76355 0
M  V30 465 C 47.4591 0.37601 -1.85426 0
M  V30 466 O 46.8021 1.27228 -1.32509 0
M  V30 467 C 46.8641 -1.61507 -3.21179 0
M  V30 468 C 46.5281 -3.10146 -3.35646 0
M  V30 469 C 47.5251 -4.07553 -3.22796 0
M  V30 470 C 45.2101 -3.49644 -3.60631 0
M  V30 471 C 47.2041 -5.42442 -3.34716 0
M  V30 472 C 44.8911 -4.84682 -3.72192 0
M  V30 473 C 45.8891 -5.8089 -3.59243 0
M  V30 474 O 45.5771 -7.13476 -3.70415 0
M  V30 475 H 45.3091 -0.377745 -0.560611 0
M  V30 476 H 47.8631 -1.62658 -1.25425 0
M  V30 477 H 46.0931 -1.00881 -3.73309 0
M  V30 478 H 47.7821 -1.42202 -3.80175 0
M  V30 479 H 48.5481 -3.78381 -3.03403 0
M  V30 480 H 44.4271 -2.75282 -3.69785 0
M  V30 481 H 47.9711 -6.17518 -3.24526 0
M  V30 482 H 43.8681 -5.13534 -3.91092 0
M  V30 483 H 44.6361 -7.21083 -3.87275 0
M  V30 484 N 47.2992 1.18797 -1.03562 0
M  V30 485 C 48.2622 2.20464 -0.626769 0
M  V30 486 C 49.2622 1.57721 0.313173 0
M  V30 487 O 50.4522 1.73917 0.0992615 0
M  V30 488 C 47.5842 3.40802 0.0818498 0
M  V30 489 H 48.7772 2.58149 -1.5264 0
M  V30 490 H 46.3302 1.32593 -0.827578 0
M  V30 491 H 47.0652 3.08642 0.995518 0
M  V30 492 H 46.8502 3.8758 -0.593652 0
M  V30 493 H 48.3402 4.16092 0.354584 0
M  V30 494 N 48.7773 0.814389 1.34928 0
M  V30 495 C 49.7403 0.235759 2.27984 0
M  V30 496 C 50.7403 -0.581412 1.49921 0
M  V30 497 O 51.9303 -0.398758 1.69575 0
M  V30 498 C 49.0623 -0.670433 3.34242 0
M  V30 499 H 50.2553 1.05659 2.80671 0
M  V30 500 H 47.8083 0.585614 1.44915 0
M  V30 501 H 48.5433 -1.51466 2.86755 0
M  V30 502 H 48.3283 -0.0860822 3.92005 0
M  V30 503 H 49.8183 -1.06935 4.03676 0
M  V30 504 N 50.2554 -1.46986 0.568584 0
M  V30 505 C 51.1854 -2.32946 -0.160753 0
M  V30 506 C 52.1664 -1.44487 -0.897631 0
M  V30 507 O 53.3514 -1.73327 -0.875867 0
M  V30 508 C 50.4814 -3.26494 -1.18403 0
M  V30 509 C 49.4354 -4.24282 -0.562895 0
M  V30 510 C 48.7614 -5.07236 -1.69163 0
M  V30 511 C 50.0614 -5.19989 0.490761 0
M  V30 512 H 51.7554 -2.94175 0.556916 0
M  V30 513 H 49.3014 -1.4146 0.26927 0
M  V30 514 H 51.2544 -3.85477 -1.70251 0
M  V30 515 H 49.9784 -2.63343 -1.93179 0
M  V30 516 H 48.6374 -3.66541 -0.0656164 0
M  V30 517 H 48.2854 -4.4048 -2.42871 0
M  V30 518 H 47.9854 -5.7345 -1.28174 0
M  V30 519 H 49.5094 -5.6908 -2.21314 0
M  V30 520 H 50.9234 -5.73271 0.0579047 0
M  V30 521 H 49.3204 -5.94469 0.820165 0
M  V30 522 H 50.3904 -4.64777 1.3824 0
M  V30 523 N 51.7335 -0.305618 -1.54608 0
M  V30 524 C 52.9795 0.302746 -2.00528 0
M  V30 525 C 53.3125 1.53184 -1.19367 0
M  V30 526 O 52.5875 1.92598 -0.271321 0
M  V30 527 C 52.8705 0.654756 -3.54097 0
M  V30 528 C 52.7235 -0.583793 -4.45995 0
M  V30 529 C 54.0425 1.47947 -4.14487 0
M  V30 530 H 51.1615 0.108564 -0.72896 0
M  V30 531 H 53.8035 -0.418634 -1.85331 0
M  V30 532 H 51.9535 1.26935 -3.67178 0
M  V30 533 H 53.6255 -1.22224 -4.44814 0
M  V30 534 H 51.8685 -1.21615 -4.16404 0
M  V30 535 H 52.5395 -0.293287 -5.5122 0
M  V30 536 H 55.0155 0.96013 -4.04871 0
M  V30 537 H 53.8915 1.69454 -5.22088 0
M  V30 538 H 54.1525 2.47011 -3.66658 0
M  V30 539 N 53.2116 1.57565 -0.0334293 0
M  V30 540 C 54.4366 1.96689 0.657895 0
M  V30 541 C 54.8616 0.910057 1.64619 0
M  V30 542 O 54.2196 -0.128598 1.80843 0
M  V30 543 C 54.2676 3.34905 1.33683 0
M  V30 544 O 53.3716 3.31574 2.45219 0
M  V30 545 H 52.7126 0.641205 0.172489 0
M  V30 546 H 55.2426 2.04372 -0.0965621 0
M  V30 547 H 55.2526 3.71234 1.69262 0
M  V30 548 H 53.9276 4.11366 0.612411 0
M  V30 549 H 52.5046 3.06968 2.11719 0
M  V30 550 N 54.6897 -0.239769 1.55765 0
M  V30 551 C 55.9377 -0.964892 1.77579 0
M  V30 552 C 56.2587 -1.85582 0.598699 0
M  V30 553 O 55.5287 -1.92075 -0.385226 0
M  V30 554 H 54.1087 -0.359265 0.654933 0
M  V30 555 H 56.7707 -0.256001 1.93211 0
M  V30 556 H 55.8667 -1.58243 2.69009 0
M  V30 557 N 56.1678 -1.49265 -0.50573 0
M  V30 558 C 57.1308 -1.65075 -1.59006 0
M  V30 559 C 58.1308 -0.522768 -1.52065 0
M  V30 560 O 59.3208 -0.789117 -1.55302 0
M  V30 561 C 56.4528 -1.64369 -2.98656 0
M  V30 562 H 57.6458 -2.61784 -1.46319 0
M  V30 563 H 55.1988 -1.38226 -0.729616 0
M  V30 564 H 55.9338 -0.692272 -3.16825 0
M  V30 565 H 55.7188 -2.46282 -3.05103 0
M  V30 566 H 57.2088 -1.78674 -3.77446 0
M  V30 567 N 57.6459 0.756429 -1.3826 0
M  V30 568 C 58.8939 1.51248 -1.34047 0
M  V30 569 C 59.2149 1.94875 0.0698372 0
M  V30 570 O 58.4849 1.67436 1.01696 0
M  V30 571 H 57.0649 0.561018 -0.493222 0
M  V30 572 H 59.7269 0.899347 -1.7291 0
M  V30 573 H 58.8229 2.40472 -1.98947 0
M  V30 574 N 59.124 1.23083 0.984299 0
M  V30 575 C 60.535 1.05609 1.5396 0
M  V30 576 C 60.886 -0.377793 1.92528 0
M  V30 577 O 60.011 -1.26398 1.75649 0
M  V30 578 C 60.606 1.91087 2.7977 0
M  V30 579 C 59.165 1.77885 3.31713 0
M  V30 580 C 58.312 1.87028 2.04733 0
M  V30 581 H 61.263 1.36802 0.804419 0
M  V30 582 H 61.284 1.43336 3.5247 0
M  V30 583 H 60.796 2.9544 2.51668 0
M  V30 584 H 58.897 0.762995 3.64704 0
M  V30 585 H 59.01 2.61047 4.01735 0
M  V30 586 H 57.374 1.30565 2.18689 0
M  V30 587 H 58.157 2.92929 1.79017 0
M  V30 588 N 60.6021 -1.18246 1.0419 0
M  V30 589 C 61.8271 -1.92736 0.765996 0
M  V30 590 C 62.2521 -1.75728 -0.67091 0
M  V30 591 O 61.6101 -1.06825 -1.46486 0
M  V30 592 C 61.6581 -3.42148 1.13875 0
M  V30 593 O 60.7621 -4.11548 0.264954 0
M  V30 594 H 60.1031 -0.601238 0.281797 0
M  V30 595 H 62.6331 -1.49942 1.39207 0
M  V30 596 H 62.6431 -3.92858 1.1012 0
M  V30 597 H 61.3181 -3.53848 2.18551 0
M  V30 598 H 59.8951 -3.71137 0.362226 0
M  V30 599 N 62.0802 -0.821533 -1.34494 0
M  V30 600 C 63.0122 -0.199946 -2.28326 0
M  V30 601 C 64.0252 0.609377 -1.50965 0
M  V30 602 O 65.2142 0.439285 -1.7301 0
M  V30 603 C 62.3142 0.738431 -3.30757 0
M  V30 604 C 61.4872 -0.0277632 -4.37391 0
M  V30 605 C 60.5462 0.831332 -5.19591 0
M  V30 606 O 59.5722 0.276822 -5.68526 0
M  V30 607 N 60.7742 2.15132 -5.39165 0
M  V30 608 H 63.5392 -1.00609 -2.82308 0
M  V30 609 H 61.1002 -0.678366 -1.47003 0
M  V30 610 H 63.0922 1.31773 -3.82646 0
M  V30 611 H 61.6622 1.44533 -2.7718 0
M  V30 612 H 60.8822 -0.788359 -3.86236 0
M  V30 613 H 62.1702 -0.555251 -5.05761 0
M  V30 614 H 61.5682 2.62559 -5.01078 0
M  V30 615 H 60.1252 2.6795 -5.94177 0
M  V30 616 N 63.5583 1.46682 -0.576371 0
M  V30 617 C 64.5213 2.28707 0.150239 0
M  V30 618 C 65.5213 1.38035 0.824794 0
M  V30 619 O 66.7113 1.60476 0.677719 0
M  V30 620 C 63.8433 3.18248 1.22192 0
M  V30 621 H 65.0363 2.94423 -0.570521 0
M  V30 622 H 62.5893 1.52688 -0.334078 0
M  V30 623 H 63.3243 2.57265 1.97447 0
M  V30 624 H 63.1093 3.85 0.742812 0
M  V30 625 H 64.5993 3.80001 1.73172 0
M  V30 626 N 65.0364 0.313813 1.54444 0
M  V30 627 C 65.9994 -0.54379 2.22656 0
M  V30 628 C 66.9994 -1.05124 1.21678 0
M  V30 629 O 68.1894 -0.945225 1.46325 0
M  V30 630 C 65.3214 -1.75427 2.92298 0
M  V30 631 H 66.5144 0.0523599 2.99854 0
M  V30 632 H 64.0674 0.0647834 1.56166 0
M  V30 633 H 64.8024 -2.38991 2.19211 0
M  V30 634 H 64.5874 -1.39791 3.66334 0
M  V30 635 H 66.0774 -2.36325 3.44297 0
M  V30 636 N 66.5145 -1.57545 0.0417849 0
M  V30 637 C 67.4445 -2.14009 -0.933929 0
M  V30 638 C 68.4255 -1.05938 -1.33083 0
M  V30 639 O 69.6105 -1.33833 -1.40721 0
M  V30 640 C 66.7405 -2.67747 -2.21199 0
M  V30 641 C 65.6945 -3.80718 -1.95544 0
M  V30 642 C 65.0205 -4.20935 -3.29724 0
M  V30 643 C 66.3205 -5.06258 -1.28452 0
M  V30 644 H 68.0145 -2.95788 -0.463645 0
M  V30 645 H 65.5605 -1.42285 -0.221573 0
M  V30 646 H 67.5135 -3.05886 -2.89848 0
M  V30 647 H 66.2375 -1.83147 -2.70416 0
M  V30 648 H 64.8965 -3.43037 -1.2931 0
M  V30 649 H 64.5445 -3.33298 -3.76724 0
M  V30 650 H 64.2445 -4.9707 -3.13361 0
M  V30 651 H 65.7685 -4.61666 -3.9962 0
M  V30 652 H 67.1825 -5.41903 -1.8712 0
M  V30 653 H 65.5795 -5.87475 -1.22445 0
M  V30 654 H 66.6495 -4.84207 -0.259219 0
M  V30 655 N 67.9926 0.231505 -1.5589 0
M  V30 656 C 69.2386 0.954429 -1.79617 0
M  V30 657 C 69.5936 1.82367 -0.613199 0
M  V30 658 O 68.8866 1.87524 0.393094 0
M  V30 659 C 69.0806 1.83577 -3.0665 0
M  V30 660 C 68.9096 1.05334 -4.3719 0
M  V30 661 C 67.6796 0.75225 -4.99669 0
M  V30 662 C 69.8776 0.423444 -5.12554 0
M  V30 663 N 67.8596 -0.052627 -6.13877 0
M  V30 664 C 69.2306 -0.245287 -6.19515 0
M  V30 665 C 71.2856 0.335466 -4.96769 0
M  V30 666 C 69.9886 -0.993566 -7.12405 0
M  V30 667 C 72.0146 -0.399321 -5.9005 0
M  V30 668 C 71.3766 -1.05663 -6.9643 0
M  V30 669 H 67.4756 0.329846 -0.709031 0
M  V30 670 H 70.0596 0.226172 -1.93382 0
M  V30 671 H 68.2306 2.53592 -2.94186 0
M  V30 672 H 69.9626 2.49541 -3.18608 0
M  V30 673 H 66.7176 1.06783 -4.61405 0
M  V30 674 H 67.1416 -0.443609 -6.75545 0
M  V30 675 H 71.7836 0.829311 -4.14587 0
M  V30 676 H 69.5016 -1.49896 -7.94076 0
M  V30 677 H 73.0876 -0.468265 -5.79913 0
M  V30 678 H 71.9676 -1.61612 -7.67366 0
M  V30 679 N 69.4707 1.49531 0.497807 0
M  V30 680 C 70.4337 1.65916 1.58128 0
M  V30 681 C 71.4337 0.530825 1.51786 0
M  V30 682 O 72.6237 0.797342 1.54881 0
M  V30 683 C 69.7557 1.65951 2.9778 0
M  V30 684 H 70.9487 2.62556 1.44929 0
M  V30 685 H 68.5017 1.38611 0.722275 0
M  V30 686 H 69.2367 0.709065 3.16453 0
M  V30 687 H 69.0217 2.47897 3.03792 0
M  V30 688 H 70.5117 1.80673 3.76493 0
M  V30 689 N 70.9488 -0.749086 1.3866 0
M  V30 690 C 71.8958 -1.86291 1.36251 0
M  V30 691 C 72.8658 -1.64578 0.224347 0
M  V30 692 O 74.0508 -1.86181 0.417279 0
M  V30 693 C 71.1908 -3.23644 1.19786 0
M  V30 694 C 70.3038 -3.57158 2.43027 0
M  V30 695 C 69.4388 -4.83838 2.19258 0
M  V30 696 C 68.4778 -5.10152 3.38247 0
M  V30 697 N 67.6148 -6.28029 3.13884 0
M  V30 698 H 72.4548 -1.87685 2.3147 0
M  V30 699 H 69.9918 -0.917287 1.14997 0
M  V30 700 H 71.9498 -4.0291 1.08254 0
M  V30 701 H 70.5798 -3.21566 0.282031 0
M  V30 702 H 69.6318 -2.72701 2.65214 0
M  V30 703 H 70.9438 -3.7253 3.31697 0
M  V30 704 H 70.0978 -5.71057 2.04888 0
M  V30 705 H 68.8368 -4.70614 1.2796 0
M  V30 706 H 67.8418 -4.21401 3.53131 0
M  V30 707 H 69.0668 -5.25271 4.30427 0
M  V30 708 H 67.0128 -6.1612 2.25238 0
M  V30 709 H 66.9298 -6.43922 3.96106 0
M  V30 710 H 68.1978 -7.18124 3.03179 0
M  V30 711 N 72.4269 -1.23603 -0.977757 0
M  V30 712 C 73.6519 -1.09735 -1.75991 0
M  V30 713 C 74.0769 0.346858 -1.84874 0
M  V30 714 O 73.4349 1.25093 -1.3123 0
M  V30 715 C 73.4829 -1.73051 -3.16363 0
M  V30 716 O 72.5869 -0.994452 -4.0023 0
M  V30 717 H 71.9279 -0.384476 -0.541364 0
M  V30 718 H 74.4579 -1.6371 -1.2272 0
M  V30 719 H 74.4679 -1.78398 -3.66931 0
M  V30 720 H 73.1429 -2.78137 -3.09213 0
M  V30 721 H 71.7199 -1.01812 -3.58732 0
M  V30 722 N 73.905 1.17692 -1.04816 0
M  V30 723 C 75.316 1.69501 -0.782698 0
M  V30 724 C 75.667 1.83456 0.695577 0
M  V30 725 O 74.792 1.51942 1.54086 0
M  V30 726 C 75.387 3.07874 -1.41419 0
M  V30 727 C 73.946 3.56864 -1.19686 0
M  V30 728 C 73.093 2.3322 -1.50012 0
M  V30 729 H 76.044 1.02262 -1.2136 0
M  V30 730 H 76.065 3.71528 -0.821428 0
M  V30 731 H 75.577 2.97685 -2.49009 0
M  V30 732 H 73.678 3.72337 -0.140043 0
M  V30 733 H 73.791 4.39851 -1.89916 0
M  V30 734 H 72.155 2.37501 -0.920071 0
M  V30 735 H 72.938 2.25644 -2.58727 0
M  V30 736 N 75.3831 0.828654 1.34056 0
M  V30 737 C 76.6311 0.41863 1.97717 0
M  V30 738 C 76.9521 -1.02314 1.66002 0
M  V30 739 O 76.2221 -1.71119 0.953683 0
M  V30 740 H 74.8021 0.151809 0.731412 0
M  V30 741 H 77.4641 1.05936 1.63596 0
M  V30 742 H 76.5601 0.542318 3.07352 0
M  V30 743 N 76.8612 -1.46375 0.584142 0
M  V30 744 C 78.1072 -2.02678 0.0703716 0
M  V30 745 C 78.4402 -1.4545 -1.28678 0
M  V30 746 O 77.7152 -0.62014 -1.84349 0
M  V30 747 C 77.9982 -3.60099 0.00614674 0
M  V30 748 C 77.8512 -4.27709 1.3923 0
M  V30 749 C 79.1702 -4.34598 -0.693742 0
M  V30 750 H 76.2892 -0.736504 0.027047 0
M  V30 751 H 78.9312 -1.74501 0.751615 0
M  V30 752 H 77.0812 -3.84236 -0.574009 0
M  V30 753 H 78.7532 -4.14832 2.01773 0
M  V30 754 H 76.9962 -3.87016 1.95962 0
M  V30 755 H 77.6672 -5.36478 1.29982 0
M  V30 756 H 80.1432 -4.15615 -0.200869 0
M  V30 757 H 79.0192 -5.44318 -0.707714 0
M  V30 758 H 79.2802 -4.05759 -1.75533 0
M  V30 759 N 78.3393 -0.321999 -1.54275 0
M  V30 760 C 79.2693 0.537411 -2.27231 0
M  V30 761 C 80.2503 1.12064 -1.27968 0
M  V30 762 O 81.4353 1.14606 -1.56777 0
M  V30 763 C 78.5653 1.69919 -3.02894 0
M  V30 764 C 77.5193 1.24534 -4.09482 0
M  V30 765 C 76.8453 2.49394 -4.72977 0
M  V30 766 C 78.1453 0.361335 -5.21049 0
M  V30 767 H 79.8393 -0.0711406 -2.99315 0
M  V30 768 H 77.3853 -0.0356555 -1.43956 0
M  V30 769 H 79.3383 2.30668 -3.52662 0
M  V30 770 H 78.0623 2.33431 -2.28424 0
M  V30 771 H 76.7213 0.660782 -3.60596 0
M  V30 772 H 76.3693 3.11265 -3.95124 0
M  V30 773 H 76.0693 2.19718 -5.44975 0
M  V30 774 H 77.5933 3.10908 -5.25517 0
M  V30 775 H 79.0073 0.875072 -5.66582 0
M  V30 776 H 77.4043 0.157428 -5.99893 0
M  V30 777 H 78.4743 -0.60822 -4.8107 0
M  V30 778 N 79.8174 1.5752 -0.0501392 0
M  V30 779 C 80.7804 2.1037 0.909786 0
M  V30 780 C 81.7804 1.02308 1.24056 0
M  V30 781 O 82.9704 1.28385 1.17741 0
M  V30 782 C 80.1024 2.58708 2.21998 0
M  V30 783 H 81.2954 2.96479 0.451665 0
M  V30 784 H 78.8484 1.55038 0.198248 0
M  V30 785 H 79.5834 1.75989 2.72394 0
M  V30 786 H 79.3684 3.37675 1.99295 0
M  V30 787 H 80.8584 2.99747 2.9076 0
M  V30 788 N 81.2955 -0.223234 1.56011 0
M  V30 789 C 82.5435 -0.946003 1.78592 0
M  V30 790 C 82.8645 -1.84936 0.618349 0
M  V30 791 O 82.1345 -1.92473 -0.364833 0
M  V30 792 H 80.7145 -0.352298 0.658707 0
M  V30 793 H 83.3765 -0.235494 1.93472 0
M  V30 794 H 82.4725 -1.55381 2.70672 0
M  V30 795 N 82.7736 -1.49793 -0.48987 0
M  V30 796 C 83.7056 -1.63413 -1.60713 0
M  V30 797 C 84.7186 -0.516329 -1.54395 0
M  V30 798 O 85.9076 -0.788812 -1.60125 0
M  V30 799 C 83.0076 -1.58516 -2.99543 0
M  V30 800 C 82.1806 -2.86016 -3.30928 0
M  V30 801 C 81.2396 -2.74018 -4.49222 0
M  V30 802 O 80.2656 -3.47964 -4.50455 0
M  V30 803 N 81.4676 -1.86309 -5.4979 0
M  V30 804 H 84.2326 -2.59777 -1.49452 0
M  V30 805 H 81.7936 -1.47022 -0.677955 0
M  V30 806 H 83.7856 -1.48128 -3.76617 0
M  V30 807 H 82.3556 -0.69965 -3.0467 0
M  V30 808 H 81.5756 -3.10672 -2.42645 0
M  V30 809 H 82.8636 -3.70521 -3.487 0
M  V30 810 H 82.2616 -1.2551 -5.51601 0
M  V30 811 H 80.8186 -1.81837 -6.25922 0
M  V30 812 N 84.2517 0.741722 -1.39055 0
M  V30 813 C 85.6627 1.31966 -1.32068 0
M  V30 814 C 86.0137 1.96192 0.0180797 0
M  V30 815 O 85.1387 1.95861 0.920196 0
M  V30 816 C 85.7337 2.39954 -2.39181 0
M  V30 817 C 84.2927 2.93438 -2.35735 0
M  V30 818 C 83.4397 1.66936 -2.21422 0
M  V30 819 H 86.3907 0.539721 -1.4924 0
M  V30 820 H 86.4117 3.20182 -2.05581 0
M  V30 821 H 85.9237 1.9318 -3.36605 0
M  V30 822 H 84.0247 3.4451 -1.41929 0
M  V30 823 H 84.1377 3.4701 -3.30335 0
M  V30 824 H 82.5017 1.91016 -1.68478 0
M  V30 825 H 83.2847 1.22224 -3.20806 0
M  V30 826 N 85.7298 1.2412 0.971189 0
M  V30 827 C 86.9768 1.07881 1.71371 0
M  V30 828 C 87.3048 -0.382901 1.90694 0
M  V30 829 O 86.5598 -1.29945 1.46331 0
M  V30 830 C 86.8588 1.75983 3.11071 0
M  V30 831 C 86.5248 3.25909 3.11599 0
M  V30 832 C 85.1868 3.66813 3.11451 0
M  V30 833 C 87.5388 4.21771 3.062 0
M  V30 834 C 84.8668 5.02021 3.03631 0
M  V30 835 C 87.2188 5.56982 2.99923 0
M  V30 836 C 85.8828 5.97237 2.98102 0
M  V30 837 H 85.1528 0.394764 0.62709 0
M  V30 838 H 87.7998 1.54176 1.13587 0
M  V30 839 H 86.1048 1.22072 3.72298 0
M  V30 840 H 87.8018 1.60887 3.6731 0
M  V30 841 H 84.3918 2.93353 3.12477 0
M  V30 842 H 88.5758 3.91172 3.05447 0
M  V30 843 H 83.8318 5.32411 3.0058 0
M  V30 844 H 88.0058 6.30969 2.94704 0
M  V30 845 H 85.6328 7.01967 2.91798 0
M  V30 846 N 87.2079 -1.17134 1.05439 0
M  V30 847 C 88.4549 -1.87456 0.765942 0
M  V30 848 C 88.7829 -1.81189 -0.707153 0
M  V30 849 O 88.0379 -1.21633 -1.5331 0
M  V30 850 C 88.3369 -3.36833 1.19491 0
M  V30 851 C 88.0029 -3.63301 2.67063 0
M  V30 852 C 86.6649 -3.70234 3.07376 0
M  V30 853 C 89.0169 -3.74575 3.62413 0
M  V30 854 C 86.3449 -3.85933 4.41896 0
M  V30 855 C 88.6969 -3.91793 4.9667 0
M  V30 856 C 87.3609 -3.96966 5.36633 0
M  V30 857 H 86.6309 -0.685948 0.280278 0
M  V30 858 H 89.2779 -1.38556 1.32192 0
M  V30 859 H 87.5829 -3.87807 0.557969 0
M  V30 860 H 89.2799 -3.89611 0.948893 0
M  V30 861 H 85.8699 -3.58532 2.34846 0
M  V30 862 H 90.0539 -3.68537 3.32406 0
M  V30 863 H 85.3099 -3.88187 4.72357 0
M  V30 864 H 89.4839 -3.99458 5.70444 0
M  V30 865 H 87.1109 -4.08883 6.40874 0
M  V30 866 N 88.686 -0.835752 -1.33615 0
M  V30 867 C 89.963 -0.352017 -1.92406 0
M  V30 868 C 90.343 1.16225 -1.76224 0
M  V30 869 O 89.691 1.97526 -1.14873 0
M  V30 870 C 89.901 -0.795485 -3.39813 0
M  V30 871 C 91.249 -0.801703 -4.16963 0
M  V30 872 O 92.273 -0.738889 -3.48452 0
M  V30 873 O 91.132 -0.886607 -5.3926 0
M  V30 874 H 88.226 -0.0989641 -0.821057 0
M  V30 875 H 90.772 -0.921397 -1.42507 0
M  V30 876 H 89.544 -1.83795 -3.45449 0
M  V30 877 H 89.167 -0.202505 -3.97084 0
M  V30 878 N 90.1641 1.46063 -0.591896 0
M  V30 879 C 91.1271 2.28854 0.125973 0
M  V30 880 C 92.1271 1.38903 0.810107 0
M  V30 881 O 93.3171 1.61186 0.66066 0
M  V30 882 C 90.4491 3.19526 1.1881 0
M  V30 883 H 91.6421 2.93802 -0.601717 0
M  V30 884 H 89.1951 1.52325 -0.350254 0
M  V30 885 H 89.9301 2.59345 1.94707 0
M  V30 886 H 89.7151 3.85766 0.701936 0
M  V30 887 H 91.2051 3.81817 1.69132 0
M  V30 888 N 91.6422 0.330177 1.54103 0
M  V30 889 C 92.8912 -0.271336 1.99867 0
M  V30 890 C 93.2042 -1.52723 1.22209 0
M  V30 891 O 94.4102 -2.20515 1.58383 0
M  V30 892 C 92.8662 -0.534032 3.55916 0
M  V30 893 C 92.4742 0.705193 4.42415 0
M  V30 894 C 94.2182 -1.09514 4.1013 0
M  V30 895 C 92.1252 0.414035 5.89949 0
M  V30 896 H 91.0552 -0.105166 0.74663 0
M  V30 897 H 93.7062 0.443429 1.78062 0
M  V30 898 H 92.0882 -1.30915 3.73734 0
M  V30 899 H 93.2622 1.4804 4.36372 0
M  V30 900 H 91.5772 1.18698 3.99124 0
M  V30 901 H 94.1742 -1.3277 5.17954 0
M  V30 902 H 94.5172 -2.04656 3.62521 0
M  V30 903 H 95.0502 -0.381038 3.95971 0
M  V30 904 H 91.7892 1.33481 6.41766 0
M  V30 905 H 91.3092 -0.323336 5.98928 0
M  V30 906 H 92.9882 0.0263105 6.46995 0
M  V30 907 N 93.1203 -1.57491 0.0584922 0
M  V30 908 C 94.3673 -1.92978 -0.613648 0
M  V30 909 C 94.6953 -0.937461 -1.70417 0
M  V30 910 O 93.9503 0.049078 -1.95638 0
M  V30 911 C 94.2493 -3.3513 -1.24188 0
M  V30 912 C 93.9153 -4.50037 -0.278826 0
M  V30 913 C 92.5773 -4.81198 -0.0138447 0
M  V30 914 C 94.9293 -5.19807 0.380777 0
M  V30 915 C 92.2573 -5.79473 0.918052 0
M  V30 916 C 94.6093 -6.19079 1.30091 0
M  V30 917 C 93.2733 -6.48665 1.57449 0
M  V30 918 H 92.5433 -0.706157 -0.22455 0
M  V30 919 H 95.1903 -1.91082 0.126533 0
M  V30 920 H 93.4953 -3.33429 -2.05749 0
M  V30 921 H 95.1923 -3.59871 -1.769 0
M  V30 922 H 91.7823 -4.25726 -0.495539 0
M  V30 923 H 95.9663 -4.95939 0.189158 0
M  V30 924 H 91.2223 -6.00727 1.1374 0
M  V30 925 H 95.3963 -6.7225 1.81804 0
M  V30 926 H 93.0233 -7.24628 2.29822 0
M  V30 927 N 94.5984 0.214957 -1.56127 0
M  V30 928 C 95.8264 0.955092 -1.83536 0
M  V30 929 C 96.2414 1.77677 -0.638472 0
M  V30 930 O 95.5984 1.78219 0.392968 0
M  V30 931 C 95.6494 1.86734 -3.09536 0
M  V30 932 O 95.3704 1.07887 -4.24608 0
M  V30 933 C 96.8714 2.72082 -3.4998 0
M  V30 934 H 94.0914 0.279611 -0.609966 0
M  V30 935 H 96.6354 0.228197 -2.03223 0
M  V30 936 H 94.7904 2.5481 -2.91806 0
M  V30 937 H 95.2044 1.69872 -4.9623 0
M  V30 938 H 96.6784 3.31782 -4.41163 0
M  V30 939 H 97.1554 3.44806 -2.7204 0
M  V30 940 H 97.7614 2.09409 -3.70173 0
M  V30 941 N 96.0765 1.50051 0.48192 0
M  V30 942 C 97.0085 1.64263 1.59844 0
M  V30 943 C 98.0215 0.52451 1.54119 0
M  V30 944 O 99.2105 0.797293 1.59704 0
M  V30 945 C 96.3105 1.60102 2.98698 0
M  V30 946 C 95.4835 2.87767 3.29407 0
M  V30 947 C 94.5425 2.76397 4.47762 0
M  V30 948 O 93.5685 3.50348 4.48603 0
M  V30 949 N 94.7705 1.89222 5.48794 0
M  V30 950 H 97.5355 2.60566 1.48073 0
M  V30 951 H 95.0965 1.47379 0.670149 0
M  V30 952 H 97.0885 1.50123 3.75826 0
M  V30 953 H 95.6585 0.715798 3.04294 0
M  V30 954 H 94.8785 3.11954 2.40994 0
M  V30 955 H 96.1665 3.72365 3.4673 0
M  V30 956 H 95.5645 1.28434 5.50928 0
M  V30 957 H 94.1215 1.85154 6.24949 0
M  V30 958 N 97.5546 -0.734337 1.39446 0
M  V30 959 C 98.4846 -1.86155 1.40955 0
M  V30 960 C 99.4656 -1.67898 0.272827 0
M  V30 961 O 100.651 -1.88207 0.478743 0
M  V30 962 C 97.7806 -3.23912 1.25294 0
M  V30 963 C 96.7346 -3.56808 2.36373 0
M  V30 964 C 96.0606 -4.93508 2.058 0
M  V30 965 C 97.3606 -3.59713 3.78687 0
M  V30 966 H 99.0546 -1.8515 2.35287 0
M  V30 967 H 96.6006 -0.889367 1.13253 0
M  V30 968 H 98.5536 -4.02443 1.2497 0
M  V30 969 H 97.2776 -3.25446 0.274308 0
M  V30 970 H 95.9366 -2.80606 2.35914 0
M  V30 971 H 95.5846 -4.91623 1.06374 0
M  V30 972 H 95.2846 -5.16486 2.80208 0
M  V30 973 H 96.8086 -5.74396 2.07128 0
M  V30 974 H 98.2226 -4.2832 3.81071 0
M  V30 975 H 96.6196 -3.94209 4.52459 0
M  V30 976 H 97.6896 -2.59504 4.09617 0
M  V30 977 N 99.0327 -1.24633 -0.964593 0
M  V30 978 C 99.9807 -1.03917 -2.08096 0
M  V30 979 C 100.975 0.0268581 -1.69379 0
M  V30 980 O 102.181 -0.127952 -1.79545 0
M  V30 981 H 98.5557 -0.319044 -0.680966 0
M  V30 982 H 100.527 -1.98581 -2.22729 0
M  V30 983 C 99.2757 -0.663983 -3.41301 0
M  V30 984 H 98.5987 -1.47605 -3.71555 0
M  V30 985 H 100.039 -0.558663 -4.20303 0
M  V30 986 C 98.4977 0.629169 -3.30973 0
M  V30 987 O 99.0277 1.67404 -3.65156 0
M  V30 988 N 97.2337 0.611057 -2.84103 0
M  V30 989 H 96.7807 -0.239593 -2.56483 0
M  V30 990 H 96.7387 1.47647 -2.77575 0
M  V30 991 N 100.511 1.16574 -1.06058 0
M  V30 992 C 101.751 1.88723 -0.78504 0
M  V30 993 C 102.115 1.79706 0.676006 0
M  V30 994 O 103.316 2.46757 1.06603 0
M  V30 995 C 101.587 3.34338 -1.26304 0
M  V30 996 S 103.146 4.24366 -1.1162 0
M  V30 997 H 99.9638 0.651448 -0.284846 0
M  V30 998 H 102.566 1.40732 -1.35701 0
M  V30 999 H 101.27 3.38439 -2.32136 0
M  V30 1000 H 100.801 3.87378 -0.685719 0
M  V30 1001 H 102.816 4.96179 -0.0456539 0
M  V30 1002 N 101.989 0.842826 1.3317 0
M  V30 1003 C 102.921 0.236245 2.27979 0
M  V30 1004 C 103.934 -0.585282 1.51915 0
M  V30 1005 O 105.123 -0.411705 1.73687 0
M  V30 1006 C 102.223 -0.685717 3.3189 0
M  V30 1007 C 101.396 0.0973448 4.37292 0
M  V30 1008 C 100.455 -0.748565 5.20848 0
M  V30 1009 O 99.4809 -0.186339 5.68895 0
M  V30 1010 N 100.683 -2.06527 5.42519 0
M  V30 1011 H 103.448 1.05088 2.80672 0
M  V30 1012 H 101.009 0.701667 1.45905 0
M  V30 1013 H 103.001 -1.25669 3.84694 0
M  V30 1014 H 101.571 -1.40105 2.79445 0
M  V30 1015 H 100.791 0.849706 3.84933 0
M  V30 1016 H 102.079 0.635643 5.04814 0
M  V30 1017 H 101.477 -2.54554 5.05192 0
M  V30 1018 H 100.034 -2.58464 5.98364 0
M  V30 1019 N 103.467 -1.45747 0.599634 0
M  V30 1020 C 104.713 -2.02592 0.0918643 0
M  V30 1021 C 105.046 -1.46806 -1.27128 0
M  V30 1022 O 104.321 -0.639658 -1.83681 0
M  V30 1023 C 104.604 -3.60073 0.0443398 0
M  V30 1024 C 104.457 -4.26208 1.43759 0
M  V30 1025 C 105.776 -4.35309 -0.647608 0
M  V30 1026 H 102.895 -0.736175 0.034857 0
M  V30 1027 H 105.537 -1.73694 0.770081 0
M  V30 1028 H 103.687 -3.84823 -0.533224 0
M  V30 1029 H 105.359 -4.12668 2.06162 0
M  V30 1030 H 103.602 -3.84916 2.00056 0
M  V30 1031 H 104.273 -5.35069 1.35665 0
M  V30 1032 H 106.749 -4.15805 -0.156776 0
M  V30 1033 H 105.625 -5.45038 -0.649942 0
M  V30 1034 H 105.886 -4.07598 -1.71219 0
M  V30 1035 N 104.945 -0.338344 -1.53925 0
M  V30 1036 C 106.17 0.263987 -2.05713 0
M  V30 1037 C 106.595 1.43847 -1.21201 0
M  V30 1038 O 105.953 1.79904 -0.224535 0
M  V30 1039 C 106.001 0.662 -3.54471 0
M  V30 1040 O 105.105 1.76265 -3.72833 0
M  V30 1041 H 104.446 0.0448722 -0.662482 0
M  V30 1042 H 106.976 -0.491048 -1.9862 0
M  V30 1043 H 106.986 0.940594 -3.9701 0
M  V30 1044 H 105.661 -0.196937 -4.15433 0
M  V30 1045 H 104.238 1.48173 -3.42198 0
M  V30 1046 N 106.423 1.57458 -0.0668435 0
M  V30 1047 C 107.669 1.94401 0.598316 0
M  V30 1048 C 108.024 0.946335 1.67518 0
M  V30 1049 O 107.317 -0.0321442 1.91573 0
M  V30 1050 C 107.511 3.35784 1.22409 0
M  V30 1051 C 107.34 4.49212 0.209367 0
M  V30 1052 C 106.11 5.04887 -0.204218 0
M  V30 1053 C 108.308 5.11335 -0.551431 0
M  V30 1054 N 106.29 6.01854 -1.21016 0
M  V30 1055 C 107.661 6.03754 -1.41 0
M  V30 1056 C 109.716 4.94173 -0.608038 0
M  V30 1057 C 108.419 6.80854 -2.32013 0
M  V30 1058 C 110.445 5.71912 -1.50566 0
M  V30 1059 C 109.807 6.63976 -2.35191 0
M  V30 1060 H 105.906 0.758538 0.190114 0
M  V30 1061 H 108.49 1.94175 -0.142832 0
M  V30 1062 H 106.661 3.36757 1.93518 0
M  V30 1063 H 108.393 3.59976 1.84931 0
M  V30 1064 H 105.148 4.73266 0.177908 0
M  V30 1065 H 105.572 6.55035 -1.71049 0
M  V30 1066 H 110.214 4.22788 0.032022 0
M  V30 1067 H 107.932 7.5152 -2.97057 0
M  V30 1068 H 111.518 5.60656 -1.55423 0
M  V30 1069 H 110.398 7.2308 -3.03522 0
M  V30 1070 N 107.901 -0.206675 1.56239 0
M  V30 1071 C 109.148 -0.928842 1.79941 0
M  V30 1072 C 109.476 -1.83734 0.638131 0
M  V30 1073 O 108.731 -1.92039 -0.376746 0
M  V30 1074 C 109.03 -1.78675 3.09532 0
M  V30 1075 C 108.696 -1.03022 4.38973 0
M  V30 1076 C 107.358 -0.821302 4.74139 0
M  V30 1077 C 109.71 -0.497081 5.18824 0
M  V30 1078 C 107.038 -0.0675719 5.86661 0
M  V30 1079 C 109.39 0.24338 6.32132 0
M  V30 1080 C 108.054 0.463422 6.65889 0
M  V30 1081 H 107.324 -0.339887 0.658451 0
M  V30 1082 H 109.971 -0.195977 1.90495 0
M  V30 1083 H 108.276 -2.58794 2.94165 0
M  V30 1084 H 109.973 -2.34792 3.25075 0
M  V30 1085 H 106.563 -1.20306 4.11369 0
M  V30 1086 H 110.747 -0.645921 4.92079 0
M  V30 1087 H 106.003 0.112995 6.11296 0
M  V30 1088 H 110.177 0.66393 6.93228 0
M  V30 1089 H 107.804 1.04938 7.52922 0
M  V30 1090 N 109.379 -1.50304 -0.473955 0
M  V30 1091 C 110.309 -1.71886 -1.58042 0
M  V30 1092 C 111.29 -0.567799 -1.60344 0
M  V30 1093 O 112.475 -0.806623 -1.76656 0
M  V30 1094 C 109.605 -1.81036 -2.96384 0
M  V30 1095 C 108.559 -2.962 -3.08949 0
M  V30 1096 C 107.885 -2.9049 -4.48909 0
M  V30 1097 C 109.185 -4.36752 -2.86434 0
M  V30 1098 H 110.879 -2.64527 -1.40234 0
M  V30 1099 H 108.425 -1.27295 -0.673201 0
M  V30 1100 H 110.378 -1.94719 -3.73714 0
M  V30 1101 H 109.102 -0.850147 -3.15341 0
M  V30 1102 H 107.761 -2.82164 -2.3405 0
M  V30 1103 H 107.409 -1.92321 -4.64781 0
M  V30 1104 H 107.109 -3.67802 -4.58253 0
M  V30 1105 H 108.633 -3.06218 -5.28264 0
M  V30 1106 H 110.047 -4.5133 -3.53517 0
M  V30 1107 H 108.444 -5.15493 -3.07225 0
M  V30 1108 H 109.514 -4.49321 -1.82316 0
M  V30 1109 N 110.857 0.726932 -1.39834 0
M  V30 1110 C 112.268 1.30558 -1.3346 0
M  V30 1111 C 112.619 1.962 -0.00273003 0
M  V30 1112 O 111.744 1.96826 0.899371 0
M  V30 1113 C 112.339 2.37404 -2.41713 0
M  V30 1114 C 110.898 2.90921 -2.38835 0
M  V30 1115 C 110.045 1.64578 -2.2318 0
M  V30 1116 H 112.996 0.523862 -1.49804 0
M  V30 1117 H 113.017 3.17984 -2.08966 0
M  V30 1118 H 112.529 1.89599 -3.38635 0
M  V30 1119 H 110.63 3.42985 -1.45575 0
M  V30 1120 H 110.743 3.43487 -3.33997 0
M  V30 1121 H 109.107 1.89219 -1.70494 0
M  V30 1122 H 109.89 1.18814 -3.22084 0
M  V30 1123 N 112.336 1.25143 0.95797 0
M  V30 1124 C 113.246 1.06968 2.08794 0
M  V30 1125 C 114.262 0.00773911 1.73998 0
M  V30 1126 O 115.438 0.207972 2.00323 0
M  V30 1127 C 112.503 0.68691 3.39827 0
M  V30 1128 C 111.564 1.82641 3.88511 0
M  V30 1129 C 110.797 1.46181 5.1329 0
M  V30 1130 O 111.02 0.355971 5.69288 0
M  V30 1131 O 109.954 2.29085 5.566 0
M  V30 1132 H 113.78 2.01723 2.27027 0
M  V30 1133 H 111.365 1.04051 1.07209 0
M  V30 1134 H 113.247 0.485417 4.18595 0
M  V30 1135 H 111.922 -0.231417 3.22872 0
M  V30 1136 H 110.829 2.08274 3.10762 0
M  V30 1137 H 112.162 2.72386 4.09959 0
M  V30 1138 N 113.814 -1.1601 1.06675 0
M  V30 1139 C 115.062 -1.86264 0.784229 0
M  V30 1140 C 115.383 -1.82328 -0.691488 0
M  V30 1141 O 114.653 -1.25947 -1.50047 0
M  V30 1142 H 113.233 -0.689621 0.28711 0
M  V30 1143 H 115.895 -1.40664 1.34906 0
M  V30 1144 H 114.991 -2.91595 1.11259 0
M  V30 1145 N 115.292 -0.849877 -1.32721 0
M  V30 1146 C 116.517 -0.463856 -2.02146 0
M  V30 1147 C 116.942 0.930449 -1.63476 0
M  V30 1148 O 116.3 1.61033 -0.832952 0
M  V30 1149 C 116.348 -0.604955 -3.55489 0
M  V30 1150 O 115.452 0.36425 -4.10788 0
M  V30 1151 H 114.793 -0.187046 -0.637111 0
M  V30 1152 H 117.323 -1.14775 -1.69375 0
M  V30 1153 H 117.333 -0.490696 -4.05038 0
M  V30 1154 H 116.008 -1.62174 -3.82978 0
M  V30 1155 H 114.585 0.206628 -3.72327 0
M  V30 1156 N 116.77 1.45427 -0.607355 0
M  V30 1157 C 117.717 2.3053 0.111625 0
M  V30 1158 C 118.687 1.4209 0.860216 0
M  V30 1159 O 119.872 1.71019 0.845998 0
M  V30 1160 C 117.012 3.26992 1.10319 0
M  V30 1161 C 116.125 4.30535 0.355493 0
M  V30 1162 C 115.26 5.14105 1.33676 0
M  V30 1163 C 114.299 6.09376 0.576862 0
M  V30 1164 N 113.436 6.85727 1.5074 0
M  V30 1165 H 118.276 2.91477 -0.620093 0
M  V30 1166 H 115.813 1.43631 -0.317594 0
M  V30 1167 H 117.771 3.81385 1.6912 0
M  V30 1168 H 116.401 2.67799 1.80232 0
M  V30 1169 H 115.453 3.78805 -0.348023 0
M  V30 1170 H 116.765 4.98235 -0.237423 0
M  V30 1171 H 115.919 5.72897 1.99684 0
M  V30 1172 H 114.658 4.46423 1.9636 0
M  V30 1173 H 113.663 5.49715 -0.0968519 0
M  V30 1174 H 114.888 6.79085 -0.0449341 0
M  V30 1175 H 112.834 6.20735 2.12189 0
M  V30 1176 H 112.751 7.49778 0.967913 0
M  V30 1177 H 114.019 7.4906 2.15706 0
M  V30 1178 N 118.248 0.346503 1.53744 0
M  V30 1179 C 119.178 -0.501193 2.28058 0
M  V30 1180 C 120.159 -1.10014 1.29734 0
M  V30 1181 O 121.344 -1.12097 1.58581 0
M  V30 1182 C 118.474 -1.65078 3.05559 0
M  V30 1183 C 117.428 -1.18003 4.11411 0
M  V30 1184 C 116.754 -2.41837 4.76884 0
M  V30 1185 C 118.054 -0.278394 5.21558 0
M  V30 1186 H 119.748 0.11875 2.99164 0
M  V30 1187 H 117.294 0.0585531 1.43881 0
M  V30 1188 H 119.247 -2.25028 3.56287 0
M  V30 1189 H 117.971 -2.29767 2.32109 0
M  V30 1190 H 116.63 -0.603331 3.61601 0
M  V30 1191 H 116.278 -3.0494 4.00026 0
M  V30 1192 H 115.978 -2.1102 5.48402 0
M  V30 1193 H 117.502 -3.02508 5.30397 0
M  V30 1194 H 118.916 -0.784823 5.67903 0
M  V30 1195 H 117.313 -0.0619707 6.00068 0
M  V30 1196 H 118.383 0.684677 4.80042 0
M  V30 1197 N 119.726 -1.57421 0.075193 0
M  V30 1198 C 120.972 -1.93905 -0.594025 0
M  V30 1199 C 121.305 -0.955701 -1.69056 0
M  V30 1200 O 120.58 0.0145373 -1.94495 0
M  V30 1201 C 120.863 -3.40638 -1.1678 0
M  V30 1202 C 120.716 -4.49733 -0.0776792 0
M  V30 1203 C 122.035 -3.88259 -2.07228 0
M  V30 1204 H 119.154 -0.705105 -0.214466 0
M  V30 1205 H 121.796 -1.8947 0.141854 0
M  V30 1206 H 119.946 -3.44549 -1.79494 0
M  V30 1207 H 121.618 -4.57942 0.555573 0
M  V30 1208 H 119.861 -4.29751 0.591286 0
M  V30 1209 H 120.532 -5.49549 -0.519603 0
M  V30 1210 H 123.008 -3.86376 -1.54445 0
M  V30 1211 H 121.884 -4.91533 -2.44308 0
M  V30 1212 H 122.145 -3.26396 -2.98191 0
M  V30 1213 N 121.204 0.198386 -1.56346 0
M  V30 1214 C 122.615 0.763358 -1.70381 0
M  V30 1215 C 122.966 1.83995 -0.681203 0
M  V30 1216 O 122.091 2.15785 0.16305 0
M  V30 1217 C 122.686 1.39143 -3.08909 0
M  V30 1218 C 121.245 1.90352 -3.2472 0
M  V30 1219 C 120.392 0.772233 -2.6633 0
M  V30 1220 H 123.343 -0.0266377 -1.58678 0
M  V30 1221 H 123.364 2.26076 -3.06055 0
M  V30 1222 H 122.876 0.607638 -3.83314 0
M  V30 1223 H 120.977 2.71461 -2.55225 0
M  V30 1224 H 121.09 2.06757 -4.3219 0
M  V30 1225 H 119.454 1.18566 -2.2542 0
M  V30 1226 H 120.237 0.00073556 -3.433 0
M  V30 1227 N 122.682 1.50554 0.465978 0
M  V30 1228 C 123.928 1.62038 1.21949 0
M  V30 1229 C 124.261 0.322116 1.9151 0
M  V30 1230 O 123.536 -0.676723 1.82348 0
M  V30 1231 C 123.819 2.80421 2.25912 0
M  V30 1232 C 123.672 4.20144 1.60622 0
M  V30 1233 C 124.991 2.94354 3.27176 0
M  V30 1234 H 122.11 0.589752 0.441998 0
M  V30 1235 H 124.752 1.82956 0.51257 0
M  V30 1236 H 122.902 2.62717 2.86203 0
M  V30 1237 H 124.574 4.49449 1.03889 0
M  V30 1238 H 122.817 4.24165 0.909211 0
M  V30 1239 H 123.488 4.98914 2.36196 0
M  V30 1240 H 125.964 3.10578 2.76913 0
M  V30 1241 H 124.84 3.788 3.97242 0
M  V30 1242 H 125.101 2.05186 3.916 0
M  V30 1243 N 124.16 -0.719506 1.40217 0
M  V30 1244 C 125.123 -1.8153 1.39927 0
M  V30 1245 C 126.123 -1.58095 0.293723 0
M  V30 1246 O 127.313 -1.65209 0.552429 0
M  V30 1247 C 124.445 -3.19561 1.18716 0
M  V30 1248 H 125.638 -1.83186 2.37451 0
M  V30 1249 H 123.191 -0.924746 1.26008 0
M  V30 1250 H 123.926 -3.23557 0.219366 0
M  V30 1251 H 123.711 -3.3797 1.98793 0
M  V30 1252 H 125.201 -3.99598 1.21291 0
M  V30 1253 N 125.638 -1.25649 -0.95132 0
M  V30 1254 C 127.054 -1.02542 -1.223 0
M  V30 1255 C 127.254 0.255715 -1.99871 0
M  V30 1256 O 126.31 0.967558 -2.33226 0
M  V30 1257 C 127.623 -2.25065 -1.99415 0
M  V30 1258 C 129.171 -2.29861 -2.12446 0
M  V30 1259 C 129.646 -3.52048 -2.92961 0
M  V30 1260 N 131.137 -3.52465 -3.00538 0
M  V30 1261 C 131.872 -4.43672 -3.63239 0
M  V30 1262 N 131.368 -5.45157 -4.27523 0
M  V30 1263 N 133.161 -4.31346 -3.60412 0
M  V30 1264 H 125.312 -2.07951 -0.432471 0
M  V30 1265 H 127.575 -0.91339 -0.253816 0
M  V30 1266 H 127.281 -3.18194 -1.49817 0
M  V30 1267 H 127.155 -2.28502 -3.00111 0
M  V30 1268 H 129.542 -1.37252 -2.61239 0
M  V30 1269 H 129.623 -2.3044 -1.11044 0
M  V30 1270 H 129.267 -4.44981 -2.44856 0
M  V30 1271 H 129.197 -3.48715 -3.94596 0
M  V30 1272 H 131.688 -2.79056 -2.54826 0
M  V30 1273 H 132.001 -6.10958 -4.73234 0
M  V30 1274 H 130.346 -5.49025 -4.26141 0
M  V30 1275 H 133.537 -3.51288 -3.09377 0
M  V30 1276 H 133.71 -5.02624 -4.0899 0
M  V30 1277 N 127.117 1.15442 -1.07289 0
M  V30 1278 C 128.363 1.86489 -0.796846 0
M  V30 1279 C 128.696 1.82078 0.675371 0
M  V30 1280 O 127.971 1.24346 1.4956 0
M  V30 1281 C 128.254 3.35626 -1.30489 0
M  V30 1282 C 128.107 3.48673 -2.84161 0
M  V30 1283 C 129.426 4.30357 -0.920907 0
M  V30 1284 H 126.545 0.677144 -0.290939 0
M  V30 1285 H 129.187 1.35633 -1.33056 0
M  V30 1286 H 127.337 3.79068 -0.850883 0
M  V30 1287 H 129.009 3.14099 -3.37846 0
M  V30 1288 H 127.252 2.90253 -3.22391 0
M  V30 1289 H 127.923 4.53453 -3.14777 0
M  V30 1290 H 130.399 3.94871 -1.3121 0
M  V30 1291 H 129.275 5.33193 -1.30372 0
M  V30 1292 H 129.536 4.4176 0.173226 0
M  V30 1293 N 128.595 0.856903 1.32268 0
M  V30 1294 C 129.558 0.308171 2.27119 0
M  V30 1295 C 130.558 -0.533421 1.51695 0
M  V30 1296 O 131.748 -0.344607 1.70757 0
M  V30 1297 C 128.88 -0.563757 3.36206 0
M  V30 1298 H 130.073 1.14535 2.77167 0
M  V30 1299 H 127.626 0.631421 1.42978 0
M  V30 1300 H 128.361 -1.42266 2.91429 0
M  V30 1301 H 128.146 0.0386749 3.92081 0
M  V30 1302 H 129.636 -0.940386 4.06874 0
M  V30 1303 N 130.073 -1.45103 0.615059 0
M  V30 1304 C 130.983 -2.34382 -0.101034 0
M  V30 1305 C 131.999 -1.51681 -0.852585 0
M  V30 1306 O 133.175 -1.8446 -0.808484 0
M  V30 1307 C 130.24 -3.29417 -1.08099 0
M  V30 1308 C 129.301 -4.28025 -0.330577 0
M  V30 1309 C 128.534 -5.1852 -1.26385 0
M  V30 1310 O 128.757 -5.12598 -2.50198 0
M  V30 1311 O 127.691 -5.97122 -0.756866 0
M  V30 1312 H 131.517 -2.97033 0.632855 0
M  V30 1313 H 129.102 -1.4461 0.375293 0
M  V30 1314 H 130.984 -3.87958 -1.6452 0
M  V30 1315 H 129.659 -2.69321 -1.79577 0
M  V30 1316 H 128.566 -3.73078 0.276283 0
M  V30 1317 H 129.899 -4.90997 0.343866 0
M  V30 1318 N 131.551 -0.354651 -1.53558 0
M  V30 1319 C 132.797 0.238797 -2.01389 0
M  V30 1320 C 133.13 1.49309 -1.2418 0
M  V30 1321 O 132.405 1.91638 -0.332457 0
M  V30 1322 C 132.688 0.541771 -3.56001 0
M  V30 1323 C 132.541 -0.725388 -4.43912 0
M  V30 1324 C 133.86 1.34685 -4.18984 0
M  V30 1325 H 130.979 0.0853177 -0.732045 0
M  V30 1326 H 133.621 -0.477384 -1.83905 0
M  V30 1327 H 131.771 1.15189 -3.71031 0
M  V30 1328 H 133.443 -1.36313 -4.407 0
M  V30 1329 H 131.686 -1.34801 -4.12324 0
M  V30 1330 H 132.357 -0.468505 -5.50008 0
M  V30 1331 H 134.833 0.830837 -4.07721 0
M  V30 1332 H 133.709 1.52759 -5.27215 0
M  V30 1333 H 133.97 2.35221 -3.74331 0
M  V30 1334 N 133.029 1.57378 -0.0835403 0
M  V30 1335 C 134.445 1.57246 0.273109 0
M  V30 1336 C 134.645 1.09385 1.69225 0
M  V30 1337 O 133.701 0.765051 2.40631 0
M  V30 1338 C 135.014 3.00614 0.0720628 0
M  V30 1339 C 136.562 3.12684 0.1407 0
M  V30 1340 C 137.037 4.57989 -0.0322094 0
M  V30 1341 N 138.528 4.63194 0.0230085 0
M  V30 1342 C 139.263 5.73335 -0.0861941 0
M  V30 1343 N 138.759 6.9235 -0.24958 0
M  V30 1344 N 140.552 5.62093 -0.0282886 0
M  V30 1345 H 132.703 1.86801 -1.0109 0
M  V30 1346 H 134.966 0.861687 -0.395222 0
M  V30 1347 H 134.672 3.39786 -0.907662 0
M  V30 1348 H 134.546 3.68193 0.81936 0
M  V30 1349 H 136.933 2.73391 1.11092 0
M  V30 1350 H 137.014 2.47719 -0.637896 0
M  V30 1351 H 136.658 4.97973 -0.999247 0
M  V30 1352 H 136.588 5.21 0.765937 0
M  V30 1353 H 139.079 3.77613 0.14722 0
M  V30 1354 H 139.392 7.72117 -0.324733 0
M  V30 1355 H 137.737 6.94415 -0.285097 0
M  V30 1356 H 140.928 4.67997 0.0981408 0
M  V30 1357 H 141.101 6.47895 -0.116845 0
M  V30 1358 N 134.507 -0.190092 1.56449 0
M  V30 1359 C 135.755 -0.907908 1.80559 0
M  V30 1360 C 136.076 -1.83583 0.657438 0
M  V30 1361 O 135.346 -1.93203 -0.323924 0
M  V30 1362 H 133.926 -0.338247 0.666032 0
M  V30 1363 H 136.588 -0.194403 1.93928 0
M  V30 1364 H 135.684 -1.49604 2.73907 0
M  V30 1365 N 135.985 -1.50799 -0.457987 0
M  V30 1366 C 137.396 -1.55152 -1.0385 0
M  V30 1367 C 137.747 -0.362719 -1.92818 0
M  V30 1368 O 136.872 0.522915 -2.09987 0
M  V30 1369 C 137.467 -2.81173 -1.89017 0
M  V30 1370 C 136.026 -2.88164 -2.42154 0
M  V30 1371 C 135.173 -2.49591 -1.20829 0
M  V30 1372 H 138.124 -1.56874 -0.240068 0
M  V30 1373 H 138.145 -2.63769 -2.74238 0
M  V30 1374 H 137.657 -3.67677 -1.24238 0
M  V30 1375 H 135.758 -2.06042 -3.10447 0
M  V30 1376 H 135.871 -3.91356 -2.76364 0
M  V30 1377 H 134.235 -2.02322 -1.54719 0
M  V30 1378 H 135.018 -3.38418 -0.576927 0
M  V30 1379 N 137.463 0.71206 -1.40597 0
M  V30 1380 C 138.426 1.80785 -1.40888 0
M  V30 1381 C 139.426 1.57937 -0.302103 0
M  V30 1382 O 140.616 1.64913 -0.561182 0
M  V30 1383 C 137.748 3.18927 -1.20409 0
M  V30 1384 H 138.941 1.81924 -2.38419 0
M  V30 1385 H 136.494 0.91805 -1.26497 0
M  V30 1386 H 137.229 3.23436 -0.236522 0
M  V30 1387 H 137.014 3.36911 -2.00582 0
M  V30 1388 H 138.504 3.98949 -1.23408 0
M  V30 1389 N 138.941 1.26152 0.944643 0
M  V30 1390 C 139.891 1.04081 2.02857 0
M  V30 1391 C 140.875 -0.0256555 1.6088 0
M  V30 1392 O 142.067 0.190884 1.75968 0
M  V30 1393 C 139.196 0.672118 3.36656 0
M  V30 1394 C 138.282 1.77586 3.85128 0
M  V30 1395 N 138.673 3.01272 4.06287 0
M  V30 1396 C 136.971 1.65867 4.1401 0
M  V30 1397 C 137.672 3.72983 4.46384 0
M  V30 1398 N 136.648 3.00653 4.52889 0
M  V30 1399 H 140.45 1.97968 2.17223 0
M  V30 1400 H 137.964 1.16618 1.13022 0
M  V30 1401 H 139.961 0.495166 4.13949 0
M  V30 1402 H 138.621 -0.259307 3.23663 0
M  V30 1403 H 139.632 3.37213 3.93075 0
M  V30 1404 H 136.309 0.796907 4.09824 0
M  V30 1405 H 137.699 4.792 4.70975 0
M  V30 1406 N 140.419 -1.14872 1.07899 0
M  V30 1407 C 141.659 -1.8745 0.814965 0
M  V30 1408 C 142.023 -1.80758 -0.64733 0
M  V30 1409 O 143.224 -2.48422 -1.02664 0
M  V30 1410 C 141.495 -3.32286 1.31607 0
M  V30 1411 S 143.054 -4.22537 1.18357 0
M  V30 1412 H 139.872 -0.646833 0.295174 0
M  V30 1413 H 142.474 -1.38555 1.37923 0
M  V30 1414 H 141.178 -3.34703 2.37491 0
M  V30 1415 H 140.709 -3.86238 0.747261 0
M  V30 1416 H 142.724 -4.96044 0.124586 0
M  V30 1417 N 141.898 -0.863906 -1.31812 0
M  V30 1418 C 142.828 -0.330843 -2.31144 0
M  V30 1419 C 143.809 0.575005 -1.60087 0
M  V30 1420 O 144.994 0.493304 -1.8783 0
M  V30 1421 C 142.124 0.47374 -3.44054 0
M  V30 1422 C 141.078 -0.338481 -4.26659 0
M  V30 1423 C 140.404 0.591412 -5.31419 0
M  V30 1424 C 141.704 -1.56926 -4.98168 0
M  V30 1425 H 143.398 -1.16086 -2.75979 0
M  V30 1426 H 140.944 -0.559657 -1.32679 0
M  V30 1427 H 142.897 0.857143 -4.12591 0
M  V30 1428 H 141.621 1.33721 -2.9797 0
M  V30 1429 H 140.28 -0.703754 -3.59782 0
M  V30 1430 H 139.928 1.45199 -4.81587 0
M  V30 1431 H 139.628 0.0519022 -5.87577 0
M  V30 1432 H 141.152 0.97179 -6.02817 0
M  V30 1433 H 142.566 -1.25764 -5.59336 0
M  V30 1434 H 140.963 -2.04739 -5.64094 0
M  V30 1435 H 142.033 -2.32544 -4.25501 0
M  V30 1436 N 143.376 1.44774 -0.622745 0
M  V30 1437 C 144.306 2.33382 0.0741861 0
M  V30 1438 C 145.287 1.47719 0.843387 0
M  V30 1439 O 146.472 1.76458 0.810934 0
M  V30 1440 C 143.602 3.30663 1.06204 0
M  V30 1441 C 142.556 4.26079 0.405037 0
M  V30 1442 C 141.882 5.13165 1.5022 0
M  V30 1443 C 143.182 5.1781 -0.683414 0
M  V30 1444 H 144.876 2.91905 -0.665713 0
M  V30 1445 H 142.422 1.40363 -0.321587 0
M  V30 1446 H 144.375 3.9153 1.55827 0
M  V30 1447 H 143.099 2.70331 1.83272 0
M  V30 1448 H 141.758 3.66532 -0.0704683 0
M  V30 1449 H 141.406 4.49191 2.26355 0
M  V30 1450 H 141.106 5.77812 1.06803 0
M  V30 1451 H 142.63 5.76902 2.00041 0
M  V30 1452 H 144.044 5.72661 -0.270631 0
M  V30 1453 H 142.441 5.91015 -1.04023 0
M  V30 1454 H 143.511 4.59326 -1.55395 0
M  V30 1455 N 144.854 0.36279 1.53368 0
M  V30 1456 C 145.784 -0.476976 2.28576 0
M  V30 1457 C 146.765 -1.08631 1.30894 0
M  V30 1458 O 147.95 -1.10409 1.59761 0
M  V30 1459 C 145.08 -1.61828 3.07293 0
M  V30 1460 C 144.034 -1.13633 4.1264 0
M  V30 1461 C 143.36 -2.36766 4.79423 0
M  V30 1462 C 144.66 -0.223061 5.21823 0
M  V30 1463 H 146.354 0.150474 2.99022 0
M  V30 1464 H 143.9 0.0738103 1.43811 0
M  V30 1465 H 145.853 -2.21237 3.58653 0
M  V30 1466 H 144.577 -2.27292 2.34533 0
M  V30 1467 H 143.236 -0.564945 3.62221 0
M  V30 1468 H 142.884 -3.0068 4.03238 0
M  V30 1469 H 142.584 -2.05192 5.50609 0
M  V30 1470 H 144.108 -2.96865 5.33576 0
M  V30 1471 H 145.522 -0.724545 5.68703 0
M  V30 1472 H 143.919 0.001678 6.001 0
M  V30 1473 H 144.989 0.735553 4.79289 0
M  V30 1474 N 146.332 -1.57332 0.0918853 0
M  V30 1475 C 147.58 -1.93853 -0.571446 0
M  V30 1476 C 147.901 -0.974212 -1.6892 0
M  V30 1477 O 147.171 -0.0257254 -1.95883 0
M  V30 1478 H 145.751 -0.715666 -0.214082 0
M  V30 1479 H 148.413 -1.94287 0.154464 0
M  V30 1480 H 147.509 -2.96191 -0.983729 0
M  V30 1481 N 147.81 0.181792 -1.56548 0
M  V30 1482 C 148.72 1.24538 -1.98815 0
M  V30 1483 C 149.736 1.49045 -0.897861 0
M  V30 1484 O 150.912 1.61399 -1.20467 0
M  V30 1485 C 147.977 2.56683 -2.33055 0
M  V30 1486 C 147.038 2.40131 -3.55859 0
M  V30 1487 C 146.271 3.65975 -3.88456 0
M  V30 1488 O 146.494 4.70711 -3.22161 0
M  V30 1489 O 145.428 3.6071 -4.81842 0
M  V30 1490 H 149.254 0.916647 -2.89536 0
M  V30 1491 H 146.839 0.387842 -1.44278 0
M  V30 1492 H 148.721 3.34655 -2.56094 0
M  V30 1493 H 147.396 2.89157 -1.45498 0
M  V30 1494 H 146.303 1.60226 -3.38051 0
M  V30 1495 H 147.636 2.12585 -4.43924 0
M  V30 1496 N 149.288 1.51039 0.449983 0
M  V30 1497 C 150.704 1.38934 0.785462 0
M  V30 1498 C 150.904 0.461817 1.96136 0
M  V30 1499 O 149.96 -0.0877389 2.52348 0
M  V30 1500 C 151.273 2.80724 1.0777 0
M  V30 1501 C 152.821 2.89787 1.1829 0
M  V30 1502 C 153.296 4.32457 1.50815 0
M  V30 1503 N 154.787 4.35505 1.57764 0
M  V30 1504 C 155.522 5.42914 1.84477 0
M  V30 1505 N 155.018 6.60502 2.09068 0
M  V30 1506 N 156.811 5.3038 1.86155 0
M  V30 1507 H 148.962 2.09904 -0.324647 0
M  V30 1508 H 151.225 0.944378 -0.0827957 0
M  V30 1509 H 150.931 3.50531 0.286498 0
M  V30 1510 H 150.805 3.19273 2.00859 0
M  V30 1511 H 153.192 2.20186 1.96474 0
M  V30 1512 H 153.273 2.54752 0.231314 0
M  V30 1513 H 152.917 5.02603 0.731622 0
M  V30 1514 H 152.847 4.64995 2.47158 0
M  V30 1515 H 155.338 3.50724 1.40715 0
M  V30 1516 H 155.651 7.38158 2.28785 0
M  V30 1517 H 153.996 6.63639 2.06416 0
M  V30 1518 H 157.187 4.37505 1.66454 0
M  V30 1519 H 157.36 6.1417 2.06637 0
M  V30 1520 N 150.766 -0.704594 1.40972 0
M  V30 1521 C 152.012 -1.46675 1.40051 0
M  V30 1522 C 152.345 -1.94199 0.00641102 0
M  V30 1523 O 151.62 -1.68916 -0.964235 0
M  V30 1524 C 151.903 -2.68505 2.39952 0
M  V30 1525 C 151.756 -2.26805 3.88432 0
M  V30 1526 C 153.075 -3.70686 2.37233 0
M  V30 1527 H 150.194 -0.532015 0.510028 0
M  V30 1528 H 152.836 -0.803255 1.72185 0
M  V30 1529 H 150.986 -3.25114 2.1268 0
M  V30 1530 H 152.658 -1.75592 4.26574 0
M  V30 1531 H 150.901 -1.58685 4.03734 0
M  V30 1532 H 151.572 -3.14181 4.53866 0
M  V30 1533 H 154.048 -3.23731 2.61415 0
M  V30 1534 H 152.924 -4.53553 3.09162 0
M  V30 1535 H 153.185 -4.19754 1.38777 0
M  V30 1536 N 152.244 -1.26651 -0.937939 0
M  V30 1537 C 153.207 -1.08546 -2.01867 0
M  V30 1538 C 154.207 -0.0327327 -1.60767 0
M  V30 1539 O 155.397 -0.276427 -1.71993 0
M  V30 1540 C 152.529 -0.651711 -3.34613 0
M  V30 1541 H 153.722 -2.04502 -2.1936 0
M  V30 1542 H 151.275 -1.09294 -1.11734 0
M  V30 1543 H 152.01 0.309696 -3.22818 0
M  V30 1544 H 151.795 -1.41189 -3.65798 0
M  V30 1545 H 153.285 -0.546973 -4.14002 0
M  V30 1546 N 153.722 1.14298 -1.08507 0
M  V30 1547 C 154.652 2.21542 -0.737646 0
M  V30 1548 C 155.633 1.67773 0.280377 0
M  V30 1549 O 156.818 1.93616 0.150521 0
M  V30 1550 C 153.948 3.46988 -0.147259 0
M  V30 1551 C 152.902 4.13789 -1.09374 0
M  V30 1552 C 152.228 5.33449 -0.365524 0
M  V30 1553 C 153.528 4.62208 -2.4323 0
M  V30 1554 H 155.222 2.5086 -1.6343 0
M  V30 1555 H 152.768 1.20576 -0.787243 0
M  V30 1556 H 154.721 4.21262 0.107808 0
M  V30 1557 H 153.445 3.17037 0.784538 0
M  V30 1558 H 152.104 3.4147 -1.33393 0
M  V30 1559 H 151.752 4.99759 0.57011 0
M  V30 1560 H 151.452 5.79088 -0.996512 0
M  V30 1561 H 152.976 6.10485 -0.118534 0
M  V30 1562 H 154.39 5.27952 -2.23472 0
M  V30 1563 H 152.787 5.18553 -3.02031 0
M  V30 1564 H 153.857 3.77224 -3.04681 0
M  V30 1565 N 155.201 0.870884 1.31352 0
M  V30 1566 C 156.149 0.316445 2.30437 0
M  V30 1567 C 157.143 -0.568965 1.59559 0
M  V30 1568 O 158.349 -0.454964 1.74155 0
M  V30 1569 H 154.724 0.0836521 0.747333 0
M  V30 1570 H 156.695 1.16606 2.74673 0
M  V30 1571 C 155.444 -0.46635 3.44558 0
M  V30 1572 H 154.767 0.205687 3.99271 0
M  V30 1573 H 156.207 -0.819614 4.16003 0
M  V30 1574 C 154.666 -1.65797 2.9328 0
M  V30 1575 O 155.196 -2.75728 2.92125 0
M  V30 1576 N 153.402 -1.49041 2.4947 0
M  V30 1577 H 152.949 -0.59612 2.50608 0
M  V30 1578 H 152.907 -2.28911 2.15516 0
M  V30 1579 N 156.679 -1.44442 0.630414 0
M  V30 1580 C 157.907 -2.06414 0.141671 0
M  V30 1581 C 158.322 -1.47105 -1.18345 0
M  V30 1582 O 157.679 -0.593662 -1.72574 0
M  V30 1583 C 157.73 -3.61494 0.0199784 0
M  V30 1584 O 157.451 -4.18594 1.29269 0
M  V30 1585 C 158.952 -4.40499 -0.497544 0
M  V30 1586 H 156.172 -0.666292 0.0793452 0
M  V30 1587 H 158.716 -1.85323 0.864614 0
M  V30 1588 H 156.871 -3.8185 -0.653402 0
M  V30 1589 H 157.285 -5.12026 1.13707 0
M  V30 1590 H 158.759 -5.49433 -0.531708 0
M  V30 1591 H 159.236 -4.11895 -1.52445 0
M  V30 1592 H 159.842 -4.25061 0.142562 0
M  V30 1593 N 158.157 -0.370918 -1.53173 0
M  V30 1594 C 159.087 0.464847 -2.28826 0
M  V30 1595 C 160.068 1.07936 -1.31468 0
M  V30 1596 O 161.253 1.0956 -1.60344 0
M  V30 1597 C 158.383 1.60196 -3.08147 0
M  V30 1598 C 157.337 1.11443 -4.13237 0
M  V30 1599 C 156.663 2.3422 -4.80672 0
M  V30 1600 C 157.963 0.195384 -5.21934 0
M  V30 1601 H 159.657 -0.166329 -2.98938 0
M  V30 1602 H 157.203 -0.0814359 -1.4377 0
M  V30 1603 H 159.156 2.19332 -3.59822 0
M  V30 1604 H 157.88 2.26045 -2.35735 0
M  V30 1605 H 156.539 0.545727 -3.62515 0
M  V30 1606 H 156.187 2.98537 -4.04827 0
M  V30 1607 H 155.887 2.02269 -5.51689 0
M  V30 1608 H 157.411 2.94032 -5.35143 0
M  V30 1609 H 158.825 0.694375 -5.69079 0
M  V30 1610 H 157.222 -0.0335027 -6.00091 0
M  V30 1611 H 158.292 -0.760961 -4.78892 0
M  V30 1612 N 159.635 1.57281 -0.100228 0
M  V30 1613 C 160.598 2.13158 0.842398 0
M  V30 1614 C 161.598 1.06202 1.20738 0
M  V30 1615 O 162.788 1.32066 1.13597 0
M  V30 1616 C 159.92 2.65639 2.13655 0
M  V30 1617 H 161.113 2.97766 0.357114 0
M  V30 1618 H 158.666 1.5559 0.148823 0
M  V30 1619 H 159.401 1.84566 2.66657 0
M  V30 1620 H 159.186 3.43844 1.88451 0
M  V30 1621 H 160.676 3.08846 2.81077 0
M  V30 1622 N 161.113 -0.173488 1.56642 0
M  V30 1623 C 162.529 -0.525174 1.50712 0
M  V30 1624 C 162.729 -1.8476 0.804107 0
M  V30 1625 O 161.785 -2.49869 0.363574 0
M  V30 1626 C 163.098 -0.559937 2.95441 0
M  V30 1627 C 164.646 -0.647288 3.06234 0
M  V30 1628 C 165.121 -0.712963 4.52417 0
M  V30 1629 N 166.612 -0.775911 4.56655 0
M  V30 1630 C 167.347 -0.847264 5.67106 0
M  V30 1631 N 166.843 -0.879585 6.87194 0
M  V30 1632 N 168.636 -0.886117 5.55071 0
M  V30 1633 H 160.787 0.693681 2.00753 0
M  V30 1634 H 163.05 0.249841 0.914485 0
M  V30 1635 H 162.756 0.343049 3.50023 0
M  V30 1636 H 162.63 -1.40718 3.49969 0
M  V30 1637 H 165.017 -1.5407 2.51687 0
M  V30 1638 H 165.098 0.226586 2.54794 0
M  V30 1639 H 164.742 0.176183 5.07594 0
M  V30 1640 H 164.672 -1.60295 5.0161 0
M  V30 1641 H 167.163 -0.759304 3.70193 0
M  V30 1642 H 167.476 -0.935144 7.67121 0
M  V30 1643 H 165.821 -0.847898 6.89808 0
M  V30 1644 H 169.012 -0.857853 4.60172 0
M  V30 1645 H 169.185 -0.938263 6.41171 0
M  V30 1646 N 162.591 -1.51276 -0.441967 0
M  V30 1647 C 163.831 -1.65372 -1.20132 0
M  V30 1648 C 164.195 -0.359871 -1.88597 0
M  V30 1649 O 165.396 -0.376551 -2.66149 0
M  V30 1650 C 163.667 -2.8207 -2.1948 0
M  V30 1651 S 165.226 -3.16467 -3.03964 0
M  V30 1652 H 162.044 -0.582669 -0.407453 0
M  V30 1653 H 164.646 -1.89166 -0.493609 0
M  V30 1654 H 163.35 -3.74523 -1.67812 0
M  V30 1655 H 162.881 -2.6045 -2.94838 0
M  V30 1656 H 164.896 -2.62543 -4.21053 0
M  V30 1657 N 164.069 0.697108 -1.41344 0
M  V30 1658 C 165.294 1.49096 -1.44171 0
M  V30 1659 C 165.719 1.88038 -0.0481568 0
M  V30 1660 O 165.077 1.54525 0.948243 0
M  V30 1661 C 165.125 2.73088 -2.3549 0
M  V30 1662 O 164.229 3.70514 -1.81088 0
M  V30 1663 H 163.57 0.448801 -0.489361 0
M  V30 1664 H 166.1 0.856992 -1.85787 0
M  V30 1665 H 166.11 3.21413 -2.51312 0
M  V30 1666 H 164.785 2.44081 -3.36745 0
M  V30 1667 H 163.362 3.29441 -1.74708 0
M  V30 1668 N 165.547 1.27147 0.931209 0
M  V30 1669 C 166.795 1.13055 1.6752 0
M  V30 1670 C 167.116 -0.324791 1.92276 0
M  V30 1671 O 166.386 -1.22775 1.52654 0
M  V30 1672 H 164.966 0.415391 0.620854 0
M  V30 1673 H 167.628 1.59623 1.11833 0
M  V30 1674 H 166.724 1.65694 2.64485 0
M  V30 1675 N 167.025 -1.13721 1.09112 0
M  V30 1676 C 168.274 -1.84275 0.82009 0
M  V30 1677 C 168.587 -1.84253 -0.656509 0
M  V30 1678 O 169.793 -2.50668 -1.04296 0
M  V30 1679 C 168.249 -3.30825 1.41714 0
M  V30 1680 C 167.857 -3.39244 2.92605 0
M  V30 1681 C 169.601 -4.06443 1.22492 0
M  V30 1682 C 167.508 -4.80047 3.45411 0
M  V30 1683 H 166.438 -0.690387 0.30312 0
M  V30 1684 H 169.089 -1.28146 1.31343 0
M  V30 1685 H 167.471 -3.86737 0.851498 0
M  V30 1686 H 168.645 -2.93344 3.55367 0
M  V30 1687 H 166.96 -2.77088 3.10823 0
M  V30 1688 H 169.557 -5.10387 1.59402 0
M  V30 1689 H 169.9 -4.15972 0.165299 0
M  V30 1690 H 170.433 -3.56852 1.75788 0
M  V30 1691 H 167.172 -4.75709 4.50978 0
M  V30 1692 H 166.692 -5.26455 2.87411 0
M  V30 1693 H 168.371 -5.48957 3.42425 0
M  V30 1694 N 168.503 -0.877838 -1.30888 0
M  V30 1695 C 169.466 -0.344265 -2.266 0
M  V30 1696 C 170.466 0.50922 -1.52524 0
M  V30 1697 O 171.656 0.317398 -1.71284 0
M  V30 1698 C 168.788 0.510198 -3.37061 0
M  V30 1699 H 169.981 -1.1893 -2.7531 0
M  V30 1700 H 167.534 -0.654088 -1.41956 0
M  V30 1701 H 168.269 1.37612 -2.93655 0
M  V30 1702 H 168.054 -0.101047 -3.9197 0
M  V30 1703 H 169.544 0.875537 -4.08319 0
M  V30 1704 N 169.982 1.44106 -0.638065 0
M  V30 1705 C 171.207 2.0685 -0.150916 0
M  V30 1706 C 171.632 1.47417 1.16833 0
M  V30 1707 O 170.99 0.578264 1.71831 0
M  V30 1708 C 171.038 3.60555 -0.05708 0
M  V30 1709 O 170.142 4.00465 0.984972 0
M  V30 1710 H 169.483 0.658151 -0.0879399 0
M  V30 1711 H 172.013 1.84865 -0.876707 0
M  V30 1712 H 172.023 4.07789 0.131232 0
M  V30 1713 H 170.698 4.03193 -1.02021 0
M  V30 1714 H 169.275 3.64849 0.770672 0
M  V30 1715 N 171.46 0.379036 1.52974 0
M  V30 1716 C 172.423 -0.448865 2.24762 0
M  V30 1717 C 173.423 -0.998689 1.26027 0
M  V30 1718 O 174.613 -0.882313 1.50203 0
M  V30 1719 C 171.745 -1.62872 2.99476 0
M  V30 1720 H 172.938 0.179491 2.99362 0
M  V30 1721 H 170.491 0.13096 1.5575 0
M  V30 1722 H 171.226 -2.29479 2.29151 0
M  V30 1723 H 171.011 -1.24128 3.71934 0
M  V30 1724 H 172.501 -2.2151 3.5401 0
M  V30 1725 N 172.938 -1.57226 0.108567 0
M  V30 1726 C 173.901 -2.13602 -0.831082 0
M  V30 1727 C 174.901 -1.06841 -1.20173 0
M  V30 1728 O 176.091 -1.32666 -1.12895 0
M  V30 1729 C 173.223 -2.66769 -2.12243 0
M  V30 1730 H 174.416 -2.97951 -0.341317 0
M  V30 1731 H 171.969 -1.55667 -0.14057 0
M  V30 1732 H 172.704 -1.85977 -2.65675 0
M  V30 1733 H 172.489 -3.44839 -1.86625 0
M  V30 1734 H 173.979 -3.10332 -2.79435 0
M  V30 1735 N 174.416 0.165178 -1.56732 0
M  V30 1736 C 175.379 1.18822 -1.95995 0
M  V30 1737 C 176.379 1.3685 -0.84431 0
M  V30 1738 O 177.569 1.34152 -1.11126 0
M  V30 1739 C 174.701 2.5521 -2.26011 0
M  V30 1740 H 175.894 0.851825 -2.87548 0
M  V30 1741 H 173.447 0.407857 -1.50885 0
M  V30 1742 H 174.182 2.93852 -1.37191 0
M  V30 1743 H 173.967 2.43489 -3.07336 0
M  V30 1744 H 175.457 3.28927 -2.57288 0
M  V30 1745 N 175.894 1.51508 0.433938 0
M  V30 1746 C 176.857 1.72473 1.50949 0
M  V30 1747 C 177.857 0.594725 1.49398 0
M  V30 1748 O 179.047 0.862315 1.5136 0
M  V30 1749 C 176.179 1.78431 2.90474 0
M  V30 1750 H 177.372 2.68467 1.33662 0
M  V30 1751 H 174.925 1.41549 0.662836 0
M  V30 1752 H 175.66 0.842645 3.13161 0
M  V30 1753 H 175.445 2.60558 2.93005 0
M  V30 1754 H 176.935 1.96479 3.68491 0
M  V30 1755 N 177.372 -0.689602 1.41712 0
M  V30 1756 C 178.335 -1.78521 1.43746 0
M  V30 1757 C 179.335 -1.57436 0.327191 0
M  V30 1758 O 180.525 -1.64 0.587348 0
M  V30 1759 C 177.657 -3.16971 1.25467 0
M  V30 1760 H 178.85 -1.78108 2.41283 0
M  V30 1761 H 176.403 -0.89781 1.27942 0
M  V30 1762 H 177.138 -3.23019 0.287948 0
M  V30 1763 H 176.923 -3.33678 2.05917 0
M  V30 1764 H 178.413 -3.96935 1.2974 0
M  V30 1765 N 178.85 -1.27639 -0.924453 0
M  V30 1766 C 180.096 -1.14336 -1.67497 0
M  V30 1767 C 180.429 0.309465 -1.91718 0
M  V30 1768 O 179.704 1.22608 -1.50989 0
M  V30 1769 C 179.987 -1.93096 -3.0395 0
M  V30 1770 C 179.84 -3.46381 -2.8695 0
M  V30 1771 C 181.159 -1.73798 -4.0433 0
M  V30 1772 H 178.278 -0.416728 -0.607871 0
M  V30 1773 H 180.92 -1.56832 -1.07256 0
M  V30 1774 H 179.07 -1.56982 -3.55372 0
M  V30 1775 H 180.742 -3.92343 -2.42621 0
M  V30 1776 H 178.985 -3.72557 -2.22225 0
M  V30 1777 H 179.656 -3.96735 -3.83804 0
M  V30 1778 H 182.132 -2.05293 -3.61931 0
M  V30 1779 H 181.008 -2.31294 -4.97789 0
M  V30 1780 H 181.269 -0.686725 -4.36734 0
M  V30 1781 N 180.328 1.1314 -1.09713 0
M  V30 1782 C 181.238 2.22242 -0.751367 0
M  V30 1783 C 182.254 1.72224 0.247938 0
M  V30 1784 O 183.43 2.01205 0.0885463 0
M  V30 1785 C 180.495 3.46231 -0.180274 0
M  V30 1786 C 179.556 4.11125 -1.2359 0
M  V30 1787 C 178.789 5.29195 -0.691966 0
M  V30 1788 O 179.012 5.68342 0.48414 0
M  V30 1789 O 177.946 5.84214 -1.44838 0
M  V30 1790 H 181.772 2.54197 -1.66186 0
M  V30 1791 H 179.357 1.21331 -0.871735 0
M  V30 1792 H 181.239 4.21185 0.134739 0
M  V30 1793 H 179.914 3.1597 0.703185 0
M  V30 1794 H 178.821 3.37985 -1.60366 0
M  V30 1795 H 180.154 4.45524 -2.09211 0
M  V30 1796 N 181.806 0.884767 1.30421 0
M  V30 1797 C 182.769 0.356277 2.26414 0
M  V30 1798 C 183.769 -0.501124 1.52792 0
M  V30 1799 O 184.959 -0.30831 1.7145 0
M  V30 1800 C 182.091 -0.492316 3.37326 0
M  V30 1801 H 183.284 1.20389 2.74675 0
M  V30 1802 H 180.837 0.661607 1.41607 0
M  V30 1803 H 181.572 -1.36052 2.94381 0
M  V30 1804 H 181.357 0.121832 3.91911 0
M  V30 1805 H 182.847 -0.853871 4.08777 0
M  V30 1806 N 183.284 -1.43765 0.645699 0
M  V30 1807 C 184.247 -2.29163 -0.0409488 0
M  V30 1808 C 185.247 -1.41813 -0.757996 0
M  V30 1809 O 186.437 -1.63527 -0.600382 0
M  V30 1810 C 183.569 -3.23716 -1.06869 0
M  V30 1811 H 184.762 -2.91366 0.710345 0
M  V30 1812 H 182.315 -1.5092 0.406547 0
M  V30 1813 H 183.05 -2.66393 -1.84947 0
M  V30 1814 H 182.835 -3.88105 -0.558277 0
M  V30 1815 H 184.325 -3.87831 -1.54845 0
M  V30 1816 N 184.763 -0.387143 -1.52771 0
M  V30 1817 C 186.179 -0.037007 -1.59557 0
M  V30 1818 C 186.379 1.44801 -1.40124 0
M  V30 1819 O 185.435 2.21227 -1.21716 0
M  V30 1820 C 186.748 -0.512256 -2.96305 0
M  V30 1821 C 188.296 -0.468328 -3.09476 0
M  V30 1822 C 188.771 -0.919731 -4.4867 0
M  V30 1823 N 190.262 -0.875656 -4.54848 0
M  V30 1824 C 190.997 -1.19637 -5.6078 0
M  V30 1825 N 190.493 -1.58745 -6.74368 0
M  V30 1826 N 192.286 -1.11776 -5.50874 0
M  V30 1827 H 184.437 -1.35395 -1.63652 0
M  V30 1828 H 186.7 -0.554818 -0.768688 0
M  V30 1829 H 186.406 -1.54935 -3.15734 0
M  V30 1830 H 186.28 0.089805 -3.77093 0
M  V30 1831 H 188.667 0.559671 -2.89744 0
M  V30 1832 H 188.748 -1.10616 -2.30646 0
M  V30 1833 H 188.392 -1.94595 -4.69143 0
M  V30 1834 H 188.322 -0.258927 -5.25963 0
M  V30 1835 H 190.813 -0.587843 -3.733 0
M  V30 1836 H 191.126 -1.81586 -7.51163 0
M  V30 1837 H 189.471 -1.6263 -6.75705 0
M  V30 1838 H 192.662 -0.811264 -4.61016 0
M  V30 1839 H 192.835 -1.37103 -6.3333 0
M  V30 1840 N 186.241 1.57166 -0.116904 0
M  V30 1841 C 187.489 1.94737 0.540533 0
M  V30 1842 C 187.81 1.00096 1.67349 0
M  V30 1843 O 187.08 0.0568854 1.95817 0
M  V30 1844 H 185.66 0.718981 0.202669 0
M  V30 1845 H 188.322 1.94017 -0.185353 0
M  V30 1846 H 187.418 2.97719 0.936483 0
M  V30 1847 N 187.719 -0.156864 1.56817 0
M  V30 1848 C 188.682 -1.17781 1.96622 0
M  V30 1849 C 189.682 -1.36401 0.851555 0
M  V30 1850 O 190.872 -1.33561 1.11836 0
M  V30 1851 C 188.004 -2.54008 2.27361 0
M  V30 1852 H 189.197 -0.836564 2.87996 0
M  V30 1853 H 186.75 -0.39985 1.51099 0
M  V30 1854 H 187.485 -2.9312 1.38748 0
M  V30 1855 H 187.27 -2.41856 3.08623 0
M  V30 1856 H 188.76 -3.27558 2.59029 0
M  V30 1857 N 189.197 -1.51736 -0.425897 0
M  V30 1858 C 190.445 -1.64644 -1.17204 0
M  V30 1859 C 190.766 -0.370486 -1.91448 0
M  V30 1860 O 190.036 0.614088 -1.86026 0
M  V30 1861 H 188.616 -0.606819 -0.435638 0
M  V30 1862 H 191.278 -1.88713 -0.487177 0
M  V30 1863 H 190.374 -2.47958 -1.89534 0
M  V30 1864 N 190.675 0.682077 -1.42076 0
M  V30 1865 C 191.921 1.44283 -1.43366 0
M  V30 1866 C 192.276 1.92344 -0.0465775 0
M  V30 1867 O 191.569 1.67517 0.929973 0
M  V30 1868 C 191.763 2.66036 -2.38662 0
M  V30 1869 C 191.592 2.29889 -3.86499 0
M  V30 1870 C 190.362 2.19599 -4.55087 0
M  V30 1871 C 192.56 1.91999 -4.77117 0
M  V30 1872 N 190.542 1.76478 -5.87987 0
M  V30 1873 C 191.913 1.59741 -5.99068 0
M  V30 1874 C 193.968 1.78927 -4.64639 0
M  V30 1875 C 192.671 1.15723 -7.0993 0
M  V30 1876 C 194.697 1.36314 -5.75476 0
M  V30 1877 C 194.059 1.04975 -6.96534 0
M  V30 1878 H 190.158 0.524739 -0.579805 0
M  V30 1879 H 192.742 0.787834 -1.78048 0
M  V30 1880 H 190.913 3.29237 -2.06053 0
M  V30 1881 H 192.645 3.32588 -2.30581 0
M  V30 1882 H 189.4 2.38433 -4.09202 0
M  V30 1883 H 189.824 1.57362 -6.58458 0
M  V30 1884 H 194.466 2.01805 -3.7153 0
M  V30 1885 H 192.184 0.91591 -8.02893 0
M  V30 1886 H 195.77 1.26731 -5.6783 0
M  V30 1887 H 194.65 0.725017 -7.80841 0
M  V30 1888 N 192.153 1.28127 0.917671 0
M  V30 1889 C 193.381 1.17892 1.70026 0
M  V30 1890 C 193.796 -0.262958 1.8696 0
M  V30 1891 O 193.153 -1.17811 1.3938 0
M  V30 1892 C 193.204 1.86872 3.09453 0
M  V30 1893 O 192.925 3.25428 2.93306 0
M  V30 1894 C 194.426 1.8289 4.03815 0
M  V30 1895 H 191.646 0.40942 0.531617 0
M  V30 1896 H 194.19 1.69181 1.14883 0
M  V30 1897 H 192.345 1.39464 3.61426 0
M  V30 1898 H 192.759 3.59918 3.81523 0
M  V30 1899 H 194.233 2.35751 4.99125 0
M  V30 1900 H 194.71 0.800412 4.31845 0
M  V30 1901 H 195.316 2.29959 3.57769 0
M  V30 1902 N 193.631 -1.12557 1.10312 0
M  V30 1903 C 194.879 -1.83675 0.843091 0
M  V30 1904 C 195.2 -1.84435 -0.633131 0
M  V30 1905 O 194.47 -1.30657 -1.45964 0
M  V30 1906 H 193.05 -0.680138 0.308904 0
M  V30 1907 H 195.712 -1.36301 1.39313 0
M  V30 1908 H 194.808 -2.87908 1.2048 0
M  V30 1909 N 195.109 -0.891671 -1.2995 0
M  V30 1910 C 196.059 -0.334811 -2.25528 0
M  V30 1911 C 197.043 0.540553 -1.51548 0
M  V30 1912 O 198.235 0.383882 -1.72787 0
M  V30 1913 C 195.364 0.44374 -3.4042 0
M  V30 1914 C 194.45 -0.44609 -4.21747 0
M  V30 1915 N 194.841 -1.54963 -4.81477 0
M  V30 1916 C 193.139 -0.242415 -4.45341 0
M  V30 1917 C 193.84 -2.10015 -5.42465 0
M  V30 1918 N 192.816 -1.39423 -5.25416 0
M  V30 1919 H 196.618 -1.17792 -2.69262 0
M  V30 1920 H 194.132 -0.741822 -1.44467 0
M  V30 1921 H 196.129 0.859362 -4.07947 0
M  V30 1922 H 194.789 1.28421 -2.98225 0
M  V30 1923 H 195.8 -1.93244 -4.80497 0
M  V30 1924 H 192.477 0.560342 -4.13723 0
M  V30 1925 H 193.867 -3.02724 -5.9984 0
M  V30 1926 N 196.587 1.43421 -0.653314 0
M  V30 1927 C 197.833 2.02111 -0.166992 0
M  V30 1928 C 198.166 1.51423 1.21592 0
M  V30 1929 O 197.441 0.707389 1.8118 0
M  V30 1930 C 197.724 3.5966 -0.177948 0
M  V30 1931 C 197.577 4.20579 -1.59478 0
M  V30 1932 C 198.896 4.37413 0.4856 0
M  V30 1933 H 196.015 0.734374 -0.0621557 0
M  V30 1934 H 198.657 1.70717 -0.834016 0
M  V30 1935 H 196.807 3.86537 0.390032 0
M  V30 1936 H 198.479 4.04732 -2.21336 0
M  V30 1937 H 196.722 3.77226 -2.14204 0
M  V30 1938 H 197.393 5.29665 -1.5543 0
M  V30 1939 H 199.869 4.161 0.00234528 0
M  V30 1940 H 198.745 5.47075 0.447207 0
M  V30 1941 H 199.006 4.13672 1.55974 0
M  V30 1942 N 198.065 0.39524 1.52563 0
M  V30 1943 C 199.028 -0.425001 2.25225 0
M  V30 1944 C 200.028 -0.985266 1.27079 0
M  V30 1945 O 201.218 -0.866332 1.5113 0
M  V30 1946 C 198.35 -1.59686 3.01186 0
M  V30 1947 H 199.543 0.211233 2.99155 0
M  V30 1948 H 197.096 0.147472 1.55603 0
M  V30 1949 H 197.831 -2.27035 2.31572 0
M  V30 1950 H 197.616 -1.20176 3.73229 0
M  V30 1951 H 199.106 -2.17743 3.5634 0
M  V30 1952 N 199.544 -1.57102 0.125237 0
M  V30 1953 C 200.792 -1.95021 -0.530198 0
M  V30 1954 C 201.113 -1.00982 -1.66816 0
M  V30 1955 O 200.383 -0.0672693 -1.95784 0
M  V30 1956 H 198.963 -0.720046 -0.198853 0
M  V30 1957 H 201.625 -1.93916 0.19564 0
M  V30 1958 H 200.721 -2.98211 -0.920681 0
M  V30 1959 N 201.022 0.148545 -1.56898 0
M  V30 1960 C 202.25 0.876389 -1.87422 0
M  V30 1961 C 202.665 1.74809 -0.713256 0
M  V30 1962 O 202.022 1.79725 0.317025 0
M  V30 1963 C 202.073 1.73438 -3.17178 0
M  V30 1964 O 201.794 0.897809 -4.28802 0
M  V30 1965 C 203.295 2.56993 -3.61205 0
M  V30 1966 H 200.515 0.253489 -0.621277 0
M  V30 1967 H 203.059 0.141798 -2.04008 0
M  V30 1968 H 201.214 2.42205 -3.0235 0
M  V30 1969 H 201.628 1.48672 -5.02988 0
M  V30 1970 H 203.102 3.12773 -4.54838 0
M  V30 1971 H 203.579 3.32958 -2.86419 0
M  V30 1972 H 204.185 1.9352 -3.78722 0
M  V30 1973 N 202.5 1.5196 0.417844 0
M  V30 1974 C 203.916 1.40569 0.755816 0
M  V30 1975 C 204.116 0.503316 1.95113 0
M  V30 1976 O 203.172 -0.0341925 2.52477 0
M  V30 1977 C 204.485 2.82947 1.01791 0
M  V30 1978 C 206.033 2.92231 1.12116 0
M  V30 1979 C 206.508 4.35559 1.41608 0
M  V30 1980 N 207.999 4.38753 1.48491 0
M  V30 1981 C 208.734 5.46705 1.7292 0
M  V30 1982 N 208.23 6.64788 1.95011 0
M  V30 1983 N 210.023 5.34209 1.74863 0
M  V30 1984 H 202.174 2.09168 -0.369098 0
M  V30 1985 H 204.437 0.942409 -0.102809 0
M  V30 1986 H 204.143 3.5106 0.212081 0
M  V30 1987 H 204.017 3.23462 1.94042 0
M  V30 1988 H 206.404 2.24304 1.9176 0
M  V30 1989 H 206.485 2.55185 0.177225 0
M  V30 1990 H 206.129 5.04042 0.624848 0
M  V30 1991 H 206.059 4.70133 2.37239 0
M  V30 1992 H 208.55 3.5363 1.33244 0
M  V30 1993 H 208.863 7.42845 2.13076 0
M  V30 1994 H 207.208 6.67869 1.92293 0
M  V30 1995 H 210.399 4.40937 1.57137 0
M  V30 1996 H 210.572 6.18415 1.93563 0
M  V30 1997 N 203.978 -0.674533 1.42435 0
M  V30 1998 C 204.925 -1.78807 1.45934 0
M  V30 1999 C 205.895 -1.63157 0.311271 0
M  V30 2000 O 207.08 -1.83707 0.515383 0
M  V30 2001 C 204.22 -3.16839 1.36773 0
M  V30 2002 C 203.333 -3.43774 2.61617 0
M  V30 2003 C 202.468 -4.71536 2.44597 0
M  V30 2004 C 201.507 -4.91505 3.64814 0
M  V30 2005 N 200.644 -6.10508 3.46734 0
M  V30 2006 H 205.484 -1.75151 2.41093 0
M  V30 2007 H 203.021 -0.85504 1.19697 0
M  V30 2008 H 204.979 -3.96606 1.29459 0
M  V30 2009 H 203.609 -3.19619 0.452089 0
M  V30 2010 H 202.661 -2.58259 2.79297 0
M  V30 2011 H 203.973 -3.54423 3.50978 0
M  V30 2012 H 203.127 -5.59393 2.3487 0
M  V30 2013 H 201.866 -4.6317 1.52726 0
M  V30 2014 H 200.871 -4.0209 3.74972 0
M  V30 2015 H 202.096 -5.01716 4.57665 0
M  V30 2016 H 200.042 -6.03315 2.5758 0
M  V30 2017 H 199.959 -6.2202 4.29682 0
M  V30 2018 H 201.227 -7.01044 3.40819 0
M  V30 2019 N 205.456 -1.28612 -0.910864 0
M  V30 2020 C 206.684 -1.18792 -1.69399 0
M  V30 2021 C 207.099 0.253039 -1.87097 0
M  V30 2022 O 206.456 1.17071 -1.40003 0
M  V30 2023 C 206.507 -1.88511 -3.08457 0
M  V30 2024 O 206.228 -3.26979 -2.91576 0
M  V30 2025 C 207.729 -1.85029 -4.02839 0
M  V30 2026 H 204.949 -0.412233 -0.529438 0
M  V30 2027 H 207.493 -1.69788 -1.13984 0
M  V30 2028 H 205.648 -1.41379 -3.60681 0
M  V30 2029 H 206.062 -3.61936 -3.79608 0
M  V30 2030 H 207.536 -2.38395 -4.97867 0
M  V30 2031 H 208.013 -0.823303 -4.31414 0
M  V30 2032 H 208.619 -2.31853 -3.56545 0
M  V30 2033 N 206.934 1.1197 -1.10907 0
M  V30 2034 C 208.162 1.87402 -0.876824 0
M  V30 2035 C 208.577 1.79894 0.573025 0
M  V30 2036 O 207.934 1.17629 1.39534 0
M  V30 2037 C 207.985 3.36428 -1.32282 0
M  V30 2038 O 207.706 3.43765 -2.71582 0
M  V30 2039 C 209.207 4.28783 -1.12518 0
M  V30 2040 H 206.427 0.592793 -0.314384 0
M  V30 2041 H 208.971 1.41649 -1.47499 0
M  V30 2042 H 207.126 3.79706 -0.768229 0
M  V30 2043 H 207.54 4.3652 -2.90776 0
M  V30 2044 H 209.014 5.31613 -1.48633 0
M  V30 2045 H 209.491 4.39153 -0.0642394 0
M  V30 2046 H 210.097 3.91291 -1.66648 0
M  V30 2047 N 208.412 0.89855 1.29475 0
M  V30 2048 C 209.823 0.572537 1.77705 0
M  V30 2049 C 210.174 -0.911778 1.73727 0
M  V30 2050 O 209.299 -1.71288 1.32247 0
M  V30 2051 C 209.894 1.03252 3.22683 0
M  V30 2052 C 208.453 0.757687 3.68695 0
M  V30 2053 C 207.6 1.20787 2.49612 0
M  V30 2054 H 210.551 1.08139 1.16153 0
M  V30 2055 H 210.572 0.367307 3.78723 0
M  V30 2056 H 210.084 2.11285 3.25546 0
M  V30 2057 H 208.185 -0.310079 3.71308 0
M  V30 2058 H 208.298 1.35476 4.59547 0
M  V30 2059 H 206.662 0.626888 2.46865 0
M  V30 2060 H 207.445 2.29622 2.55203 0
M  V30 2061 N 209.89 -1.43072 0.660911 0
M  V30 2062 C 211.138 -2.01323 0.177094 0
M  V30 2063 C 211.459 -1.5245 -1.2159 0
M  V30 2064 O 210.729 -0.740322 -1.81373 0
M  V30 2065 H 209.309 -0.744382 0.0624804 0
M  V30 2066 H 211.971 -1.75179 0.854305 0
M  V30 2067 H 211.067 -3.11649 0.167641 0
M  V30 2068 N 211.368 -0.403325 -1.52352 0
M  V30 2069 C 212.615 0.174347 -2.01748 0
M  V30 2070 C 212.943 1.45636 -1.2892 0
M  V30 2071 O 212.198 1.9193 -0.382258 0
M  V30 2072 C 212.497 0.474665 -3.54234 0
M  V30 2073 C 212.163 -0.717458 -4.45155 0
M  V30 2074 C 210.825 -1.04447 -4.69728 0
M  V30 2075 C 213.177 -1.51432 -4.98716 0
M  V30 2076 C 210.505 -2.16963 -5.45109 0
M  V30 2077 C 212.857 -2.6302 -5.75329 0
M  V30 2078 C 211.521 -2.96213 -5.98175 0
M  V30 2079 H 210.791 0.0637981 -0.738248 0
M  V30 2080 H 213.438 -0.543553 -1.83624 0
M  V30 2081 H 211.743 1.27406 -3.70506 0
M  V30 2082 H 213.44 0.934496 -3.89959 0
M  V30 2083 H 210.03 -0.452596 -4.26204 0
M  V30 2084 H 214.214 -1.27491 -4.79645 0
M  V30 2085 H 209.47 -2.43034 -5.61021 0
M  V30 2086 H 213.644 -3.25158 -6.15829 0
M  V30 2087 H 211.271 -3.83516 -6.56368 0
M  V30 2088 N 212.846 1.57033 -0.133567 0
M  V30 2089 C 214.262 1.58035 0.222944 0
M  V30 2090 C 214.462 1.14713 1.6566 0
M  V30 2091 O 213.518 0.841218 2.38075 0
M  V30 2092 C 214.831 3.00691 -0.0236116 0
M  V30 2093 C 216.379 3.12973 0.0411512 0
M  V30 2094 C 216.854 4.57654 -0.177899 0
M  V30 2095 N 218.345 4.63033 -0.124365 0
M  V30 2096 C 219.08 5.72771 -0.268553 0
M  V30 2097 N 218.576 6.91206 -0.46972 0
M  V30 2098 N 220.369 5.61718 -0.2071 0
M  V30 2099 H 212.52 1.8349 -1.06981 0
M  V30 2100 H 214.783 0.848677 -0.422436 0
M  V30 2101 H 214.489 3.36726 -1.0153 0
M  V30 2102 H 214.363 3.70614 0.701808 0
M  V30 2103 H 216.75 2.76787 1.02338 0
M  V30 2104 H 216.831 2.45564 -0.716383 0
M  V30 2105 H 216.475 4.94542 -1.15717 0
M  V30 2106 H 216.405 5.23173 0.599797 0
M  V30 2107 H 218.896 3.7789 0.027011 0
M  V30 2108 H 219.209 7.70693 -0.570212 0
M  V30 2109 H 217.554 6.93156 -0.505876 0
M  V30 2110 H 220.745 4.68072 -0.0507986 0
M  V30 2111 H 220.918 6.47195 -0.322909 0
M  V30 2112 N 214.325 -0.140222 1.56975 0
M  V30 2113 C 215.255 -1.17456 2.01808 0
M  V30 2114 C 216.236 -1.44415 0.898794 0
M  V30 2115 O 217.421 -1.5522 1.16707 0
M  V30 2116 C 214.551 -2.50607 2.40444 0
M  V30 2117 C 213.505 -2.38155 3.55621 0
M  V30 2118 C 212.831 -3.76078 3.80091 0
M  V30 2119 C 214.131 -1.85991 4.88062 0
M  V30 2120 H 215.825 -0.801743 2.88466 0
M  V30 2121 H 213.371 -0.38422 1.38779 0
M  V30 2122 H 215.324 -3.23197 2.7041 0
M  V30 2123 H 214.048 -2.89737 1.50732 0
M  V30 2124 H 212.707 -1.68016 3.25832 0
M  V30 2125 H 212.355 -4.12656 2.87618 0
M  V30 2126 H 212.055 -3.68606 4.57606 0
M  V30 2127 H 213.579 -4.50206 4.12488 0
M  V30 2128 H 214.993 -2.4838 5.16701 0
M  V30 2129 H 213.39 -1.89393 5.6943 0
M  V30 2130 H 214.46 -0.816023 4.77984 0
M  V30 2131 N 215.803 -1.52179 -0.40978 0
M  V30 2132 C 217.049 -1.66453 -1.15851 0
M  V30 2133 C 217.382 -0.392972 -1.90182 0
M  V30 2134 O 216.657 0.608579 -1.84734 0
M  V30 2135 C 216.94 -2.88612 -2.15349 0
M  V30 2136 C 216.793 -4.25815 -1.44918 0
M  V30 2137 C 218.112 -3.06294 -3.16026 0
M  V30 2138 H 215.231 -0.60575 -0.419805 0
M  V30 2139 H 217.873 -1.84732 -0.444314 0
M  V30 2140 H 216.023 -2.73158 -2.76255 0
M  V30 2141 H 217.695 -4.52995 -0.871365 0
M  V30 2142 H 215.938 -4.27247 -0.751159 0
M  V30 2143 H 216.609 -5.07337 -2.17516 0
M  V30 2144 H 219.085 -3.20641 -2.65195 0
M  V30 2145 H 217.961 -3.93283 -3.8291 0
M  V30 2146 H 218.222 -2.19579 -3.83715 0
M  V30 2147 N 217.281 0.66697 -1.42791 0
M  V30 2148 C 218.191 1.80962 -1.49299 0
M  V30 2149 C 219.207 1.69775 -0.381108 0
M  V30 2150 O 220.383 1.91188 -0.633188 0
M  V30 2151 C 217.448 3.17156 -1.40045 0
M  V30 2152 C 216.509 3.40242 -2.6179 0
M  V30 2153 C 215.742 4.69939 -2.52969 0
M  V30 2154 O 215.965 5.48372 -1.56985 0
M  V30 2155 O 214.899 4.94441 -3.43237 0
M  V30 2156 H 218.725 1.78427 -2.45759 0
M  V30 2157 H 216.31 0.823713 -1.24641 0
M  V30 2158 H 218.192 3.98413 -1.37276 0
M  V30 2159 H 216.867 3.20312 -0.467138 0
M  V30 2160 H 215.774 2.58802 -2.70134 0
M  V30 2161 H 217.107 3.41923 -3.54047 0
M  V30 2162 N 218.759 1.29093 0.90403 0
M  V30 2163 C 219.706 1.13853 2.00764 0
M  V30 2164 C 220.676 0.0330084 1.66067 0
M  V30 2165 O 221.861 0.199733 1.89752 0
M  V30 2166 C 219.001 0.816537 3.35301 0
M  V30 2167 C 218.114 2.00206 3.82807 0
M  V30 2168 C 217.249 1.61983 5.059 0
M  V30 2169 C 216.288 2.77143 5.45764 0
M  V30 2170 N 215.425 2.39346 6.60044 0
M  V30 2171 H 220.265 2.08276 2.13132 0
M  V30 2172 H 217.802 1.03648 1.04381 0
M  V30 2173 H 219.76 0.610557 4.12708 0
M  V30 2174 H 218.39 -0.090779 3.22672 0
M  V30 2175 H 217.442 2.31988 3.01473 0
M  V30 2176 H 218.754 2.86512 4.08304 0
M  V30 2177 H 217.908 1.37649 5.90879 0
M  V30 2178 H 216.647 0.728202 4.82233 0
M  V30 2179 H 215.652 3.02165 4.59322 0
M  V30 2180 H 216.877 3.66964 5.71414 0
M  V30 2181 H 214.823 1.52665 6.37989 0
M  V30 2182 H 214.74 3.19185 6.85315 0
M  V30 2183 H 216.008 2.1832 7.48303 0
M  V30 2184 N 220.237 -1.11381 1.11499 0
M  V30 2185 C 221.467 -1.86663 0.885464 0
M  V30 2186 C 221.875 -1.80464 -0.568281 0
M  V30 2187 O 221.218 -1.18445 -1.40415 0
M  V30 2188 C 221.28 -3.36337 1.26956 0
M  V30 2189 C 220.944 -3.66304 2.73259 0
M  V30 2190 C 221.941 -3.63733 3.71476 0
M  V30 2191 C 219.626 -3.9529 3.09921 0
M  V30 2192 C 221.62 -3.89725 5.04374 0
M  V30 2193 C 219.307 -4.20941 4.43004 0
M  V30 2194 C 220.305 -4.18147 5.40039 0
M  V30 2195 O 219.993 -4.43153 6.70724 0
M  V30 2196 H 219.725 -0.597114 0.316908 0
M  V30 2197 H 222.279 -1.41782 1.48617 0
M  V30 2198 H 220.509 -3.81826 0.611999 0
M  V30 2199 H 222.198 -3.92986 1.01573 0
M  V30 2200 H 222.964 -3.41389 3.44498 0
M  V30 2201 H 218.843 -3.966 2.35009 0
M  V30 2202 H 222.387 -3.8746 5.80104 0
M  V30 2203 H 218.284 -4.42761 4.69716 0
M  V30 2204 H 219.052 -4.60717 6.76522 0
M  V30 2205 N 221.715 -0.905404 -1.28997 0
M  V30 2206 C 222.963 -0.533192 -1.9494 0
M  V30 2207 C 223.284 0.924618 -1.71685 0
M  V30 2208 O 222.554 1.65268 -1.05183 0
M  V30 2209 H 221.134 -0.194194 -0.721317 0
M  V30 2210 H 223.796 -1.15294 -1.57141 0
M  V30 2211 H 222.892 -0.72059 -3.03667 0
M  V30 2212 N 223.193 1.4272 -0.668489 0
M  V30 2213 C 224.123 2.335 -0.000100175 0
M  V30 2214 C 225.104 1.50328 0.795964 0
M  V30 2215 O 226.289 1.78949 0.754385 0
M  V30 2216 C 223.419 3.33874 0.956302 0
M  V30 2217 C 222.373 4.27152 0.269278 0
M  V30 2218 C 221.699 5.17684 1.33818 0
M  V30 2219 C 222.999 5.15373 -0.847805 0
M  V30 2220 H 224.693 2.89639 -0.758244 0
M  V30 2221 H 222.239 1.39269 -0.366079 0
M  V30 2222 H 224.192 3.9629 1.43292 0
M  V30 2223 H 222.916 2.76025 1.74579 0
M  V30 2224 H 221.575 3.66123 -0.187042 0
M  V30 2225 H 221.223 4.56165 2.1195 0
M  V30 2226 H 220.923 5.80918 0.883659 0
M  V30 2227 H 222.447 5.82974 1.81586 0
M  V30 2228 H 223.861 5.7151 -0.452681 0
M  V30 2229 H 222.258 5.87407 -1.22773 0
M  V30 2230 H 223.328 4.5415 -1.69929 0
M  V30 2231 N 224.671 0.411399 1.52136 0
M  V30 2232 C 225.601 -0.404015 2.29978 0
M  V30 2233 C 226.582 -1.04412 1.34284 0
M  V30 2234 O 227.767 -1.0527 1.63192 0
M  V30 2235 C 224.897 -1.5197 3.12286 0
M  V30 2236 C 223.851 -1.00448 4.16046 0
M  V30 2237 C 223.177 -2.21393 4.86712 0
M  V30 2238 C 224.477 -0.0569336 5.22269 0
M  V30 2239 H 226.171 0.245529 2.98392 0
M  V30 2240 H 223.717 0.119525 1.43503 0
M  V30 2241 H 225.67 -2.09715 3.6551 0
M  V30 2242 H 224.394 -2.19716 2.41646 0
M  V30 2243 H 223.053 -0.449421 3.63835 0
M  V30 2244 H 222.701 -2.87699 4.12599 0
M  V30 2245 H 222.401 -1.87571 5.56858 0
M  V30 2246 H 223.925 -2.7974 5.4275 0
M  V30 2247 H 225.339 -0.54325 5.7072 0
M  V30 2248 H 223.736 0.192594 5.99791 0
M  V30 2249 H 224.806 0.887663 4.76706 0
M  V30 2250 N 226.149 -1.5696 0.141893 0
M  V30 2251 C 227.395 -1.9625 -0.511248 0
M  V30 2252 C 227.728 -1.02654 -1.64851 0
M  V30 2253 O 227.003 -0.0679676 -1.94381 0
M  V30 2254 C 227.286 -3.45285 -1.02227 0
M  V30 2255 C 227.139 -4.49658 0.113138 0
M  V30 2256 C 228.458 -3.96698 -1.90574 0
M  V30 2257 H 225.577 -0.713567 -0.184367 0
M  V30 2258 H 228.219 -1.88698 0.222087 0
M  V30 2259 H 226.369 -3.51852 -1.64719 0
M  V30 2260 H 228.041 -4.55174 0.749302 0
M  V30 2261 H 226.284 -4.26857 0.773026 0
M  V30 2262 H 226.955 -5.51258 -0.286053 0
M  V30 2263 H 229.431 -3.92578 -1.37918 0
M  V30 2264 H 228.307 -5.01453 -2.2324 0
M  V30 2265 H 228.568 -3.3875 -2.84079 0
M  V30 2266 N 227.627 0.131896 -1.57047 0
M  V30 2267 C 228.875 0.840269 -1.83804 0
M  V30 2268 C 229.196 1.81017 -0.72512 0
M  V30 2269 O 228.466 1.94272 0.251995 0
M  V30 2270 H 227.046 0.313294 -0.678127 0
M  V30 2271 H 229.708 0.122294 -1.94516 0
M  V30 2272 H 228.804 1.39335 -2.79271 0
M  V30 2273 N 229.106 1.52395 0.401703 0
M  V30 2274 C 230.354 1.66488 1.14569 0
M  V30 2275 C 230.675 0.400897 1.90835 0
M  V30 2276 O 229.945 -0.584415 1.8698 0
M  V30 2277 H 228.525 0.613672 0.425929 0
M  V30 2278 H 231.187 1.89464 0.457093 0
M  V30 2279 H 230.283 2.50942 1.85566 0
M  V30 2280 N 230.584 -0.659388 1.43143 0
M  V30 2281 C 231.547 -1.75432 1.47501 0
M  V30 2282 C 232.547 -1.56707 0.360512 0
M  V30 2283 O 233.737 -1.62717 0.622002 0
M  V30 2284 C 230.869 -3.14239 1.32162 0
M  V30 2285 H 232.062 -1.7295 2.45006 0
M  V30 2286 H 229.615 -0.870469 1.29817 0
M  V30 2287 H 230.35 -3.22336 0.356401 0
M  V30 2288 H 230.135 -3.29235 2.12948 0
M  V30 2289 H 231.625 -3.94094 1.3813 0
M  V30 2290 N 232.062 -1.29571 -0.897171 0
M  V30 2291 C 233.025 -1.14913 -1.98312 0
M  V30 2292 C 234.025 -0.0838629 -1.60581 0
M  V30 2293 O 235.215 -0.331006 -1.71026 0
M  V30 2294 C 232.347 -0.757835 -3.3237 0
M  V30 2295 H 233.54 -2.11377 -2.12743 0
M  V30 2296 H 231.093 -1.12793 -1.08201 0
M  V30 2297 H 231.828 0.206837 -3.2364 0
M  V30 2298 H 231.613 -1.52755 -3.61121 0
M  V30 2299 H 233.103 -0.678408 -4.12053 0
M  V30 2300 N 233.54 1.10788 -1.12088 0
M  V30 2301 C 234.765 1.87002 -0.896949 0
M  V30 2302 C 235.19 1.79933 0.548261 0
M  V30 2303 O 234.548 1.16662 1.38779 0
M  V30 2304 C 234.596 3.3349 -1.37174 0
M  V30 2305 O 233.7 4.08745 -0.547831 0
M  V30 2306 H 233.041 0.580397 -0.322545 0
M  V30 2307 H 235.571 1.39996 -1.49206 0
M  V30 2308 H 235.581 3.84339 -1.36922 0
M  V30 2309 H 234.256 3.37951 -2.42408 0
M  V30 2310 H 232.833 3.6776 -0.617034 0
M  V30 2311 N 235.018 0.912232 1.28515 0
M  V30 2312 C 235.968 0.370649 2.24967 0
M  V30 2313 C 236.952 -0.516375 1.52389 0
M  V30 2314 O 238.144 -0.356345 1.73376 0
M  V30 2315 C 235.273 -0.389526 3.41083 0
M  V30 2316 C 234.359 0.51313 4.20984 0
M  V30 2317 N 234.75 1.62604 4.78951 0
M  V30 2318 C 233.048 0.313235 4.44899 0
M  V30 2319 C 233.749 2.18619 5.39055 0
M  V30 2320 N 232.725 1.47765 5.23132 0
M  V30 2321 H 236.527 1.22061 2.67354 0
M  V30 2322 H 234.041 0.764712 1.43269 0
M  V30 2323 H 236.038 -0.794353 4.09262 0
M  V30 2324 H 234.698 -1.2366 3.0023 0
M  V30 2325 H 235.709 2.00864 4.77362 0
M  V30 2326 H 232.386 -0.494452 4.14562 0
M  V30 2327 H 233.776 3.12228 5.94948 0
M  V30 2328 N 236.496 -1.42363 0.676048 0
M  V30 2329 C 237.912 -1.55811 0.345718 0
M  V30 2330 C 238.112 -1.65544 -1.14879 0
M  V30 2331 O 237.168 -1.62306 -1.93424 0
M  V30 2332 C 238.481 -2.80746 1.07713 0
M  V30 2333 C 240.029 -2.9452 1.05958 0
M  V30 2334 C 240.504 -4.22318 1.77233 0
M  V30 2335 N 241.995 -4.29233 1.74108 0
M  V30 2336 C 242.73 -5.26935 2.26113 0
M  V30 2337 N 242.226 -6.30783 2.86505 0
M  V30 2338 N 244.019 -5.18741 2.1648 0
M  V30 2339 H 236.17 -1.34289 1.6456 0
M  V30 2340 H 238.433 -0.646506 0.69335 0
M  V30 2341 H 238.139 -2.79696 2.13221 0
M  V30 2342 H 238.013 -3.71676 0.64316 0
M  V30 2343 H 240.4 -2.95097 0.0128255 0
M  V30 2344 H 240.481 -2.04817 1.53244 0
M  V30 2345 H 240.125 -4.22502 2.81877 0
M  V30 2346 H 240.055 -5.10958 1.27396 0
M  V30 2347 H 242.546 -3.54814 1.30059 0
M  V30 2348 H 242.859 -7.01691 3.23805 0
M  V30 2349 H 241.204 -6.31341 2.90575 0
M  V30 2350 H 244.395 -4.36533 1.68987 0
M  V30 2351 H 244.568 -5.94721 2.57316 0
M  V30 2352 N 237.974 -0.419461 -1.51915 0
M  V30 2353 C 239.204 0.151915 -2.06041 0
M  V30 2354 C 239.612 1.38539 -1.28855 0
M  V30 2355 O 238.955 1.80592 -0.336463 0
M  V30 2356 C 239.017 0.557119 -3.55157 0
M  V30 2357 C 238.681 -0.567054 -4.53468 0
M  V30 2358 C 239.678 -1.43379 -4.99738 0
M  V30 2359 C 237.363 -0.742693 -4.96779 0
M  V30 2360 C 239.357 -2.46102 -5.87973 0
M  V30 2361 C 237.044 -1.77322 -5.84808 0
M  V30 2362 C 238.042 -2.63078 -6.30301 0
M  V30 2363 O 237.73 -3.64364 -7.16585 0
M  V30 2364 H 237.462 0.0193293 -0.675724 0
M  V30 2365 H 240.016 -0.592073 -1.96682 0
M  V30 2366 H 238.246 1.35355 -3.62238 0
M  V30 2367 H 239.935 1.05759 -3.9188 0
M  V30 2368 H 240.701 -1.30954 -4.66986 0
M  V30 2369 H 236.58 -0.0848307 -4.60922 0
M  V30 2370 H 240.124 -3.13071 -6.23404 0
M  V30 2371 H 236.021 -1.89773 -6.16974 0
M  V30 2372 H 236.789 -3.60731 -7.34721 0
M  V30 2373 N 239.452 1.56882 -0.150215 0
M  V30 2374 C 240.729 1.87844 0.545327 0
M  V30 2375 C 241.109 1.0567 1.82749 0
M  V30 2376 O 240.457 0.144442 2.28043 0
M  V30 2377 C 240.667 3.39526 0.80767 0
M  V30 2378 C 242.015 4.08814 1.14703 0
M  V30 2379 O 243.039 3.44723 0.896917 0
M  V30 2380 O 241.898 5.22004 1.61784 0
M  V30 2381 H 238.992 0.778677 0.278553 0
M  V30 2382 H 241.538 1.68666 -0.187068 0
M  V30 2383 H 240.31 3.91173 -0.0996096 0
M  V30 2384 H 239.933 3.64243 1.59413 0
M  V30 2385 N 240.93 -0.123565 1.57115 0
M  V30 2386 C 241.86 -1.15309 2.03042 0
M  V30 2387 C 242.841 -1.43454 0.914061 0
M  V30 2388 O 244.026 -1.53973 1.18347 0
M  V30 2389 C 241.156 -2.48043 2.43089 0
M  V30 2390 C 240.11 -2.3437 3.58127 0
M  V30 2391 C 239.436 -3.72026 3.84059 0
M  V30 2392 C 240.736 -1.80804 4.90007 0
M  V30 2393 H 242.43 -0.771102 2.893 0
M  V30 2394 H 239.976 -0.369479 1.39179 0
M  V30 2395 H 241.929 -3.20311 2.73823 0
M  V30 2396 H 240.653 -2.88122 1.53796 0
M  V30 2397 H 239.312 -1.64551 3.27595 0
M  V30 2398 H 238.96 -4.09582 2.91979 0
M  V30 2399 H 238.66 -3.63732 4.6149 0
M  V30 2400 H 240.184 -4.45806 4.1724 0
M  V30 2401 H 241.598 -2.42886 5.19307 0
M  V30 2402 H 239.995 -1.83343 5.71407 0
M  V30 2403 H 241.065 -0.76528 4.78823 0
M  V30 2404 N 242.408 -1.52605 -0.393616 0
M  V30 2405 C 243.656 -1.67093 -1.13685 0
M  V30 2406 C 243.977 -0.411011 -1.90619 0
M  V30 2407 O 243.247 0.574491 -1.87287 0
M  V30 2408 H 241.827 -0.615923 -0.422668 0
M  V30 2409 H 244.489 -1.89704 -0.447039 0
M  V30 2410 H 243.585 -2.51922 -1.84232 0
M  V30 2411 N 243.887 0.651787 -1.4349 0
M  V30 2412 C 245.135 1.40888 -1.44897 0
M  V30 2413 C 245.456 1.94856 -0.0749086 0
M  V30 2414 O 244.726 1.74518 0.889956 0
M  V30 2415 H 243.306 0.522887 -0.533478 0
M  V30 2416 H 245.968 0.768609 -1.79104 0
M  V30 2417 H 245.064 2.25052 -2.16236 0
M  V30 2418 N 245.365 1.30045 0.890287 0
M  V30 2419 C 246.295 1.18541 2.01172 0
M  V30 2420 C 247.276 0.0773356 1.69924 0
M  V30 2421 O 248.461 0.25845 1.92473 0
M  V30 2422 C 245.591 0.870941 3.36202 0
M  V30 2423 C 244.545 1.93637 3.81692 0
M  V30 2424 C 243.871 1.475 5.13953 0
M  V30 2425 C 245.171 3.34666 4.00994 0
M  V30 2426 H 246.865 2.12359 2.11054 0
M  V30 2427 H 244.411 1.02238 1.01407 0
M  V30 2428 H 246.364 0.777141 4.14172 0
M  V30 2429 H 245.088 -0.102926 3.26438 0
M  V30 2430 H 243.747 2.01972 3.05946 0
M  V30 2431 H 243.395 0.489551 5.00612 0
M  V30 2432 H 243.095 2.1876 5.4536 0
M  V30 2433 H 244.619 1.39489 5.94454 0
M  V30 2434 H 246.033 3.2912 4.69417 0
M  V30 2435 H 244.43 4.03966 4.43769 0
M  V30 2436 H 245.5 3.76949 3.05021 0
M  V30 2437 N 246.843 -1.10192 1.12674 0
M  V30 2438 C 248.089 -1.82475 0.884915 0
M  V30 2439 C 248.422 -1.85093 -0.58773 0
M  V30 2440 O 247.697 -1.3134 -1.43457 0
M  V30 2441 C 247.98 -3.29018 1.46353 0
M  V30 2442 C 247.833 -3.34718 3.00473 0
M  V30 2443 C 249.152 -4.25473 1.12519 0
M  V30 2444 H 246.271 -0.662492 0.322915 0
M  V30 2445 H 248.913 -1.2913 1.39375 0
M  V30 2446 H 247.063 -3.74576 1.03077 0
M  V30 2447 H 248.735 -2.97622 3.52447 0
M  V30 2448 H 246.978 -2.74541 3.35872 0
M  V30 2449 H 247.649 -4.37918 3.36053 0
M  V30 2450 H 250.125 -3.88161 1.499 0
M  V30 2451 H 249.001 -5.26365 1.55663 0
M  V30 2452 H 249.262 -4.42084 0.0377407 0
M  V30 2453 N 248.321 -0.919034 -1.28029 0
M  V30 2454 C 249.254 -0.355887 -2.25408 0
M  V30 2455 C 250.232 0.542874 -1.5327 0
M  V30 2456 O 251.416 0.485338 -1.82145 0
M  V30 2457 C 248.543 0.490759 -3.35126 0
M  V30 2458 C 247.589 -0.343358 -4.25116 0
M  V30 2459 S 248.422 -1.75344 -5.05979 0
M  V30 2460 C 249.578 -0.914244 -6.19187 0
M  V30 2461 H 249.811 -1.18123 -2.72826 0
M  V30 2462 H 247.344 -0.720636 -1.36551 0
M  V30 2463 H 249.302 0.973404 -3.98792 0
M  V30 2464 H 247.963 1.29054 -2.86363 0
M  V30 2465 H 247.156 0.304266 -5.03081 0
M  V30 2466 H 246.758 -0.759851 -3.662 0
M  V30 2467 H 249.05 -0.146282 -6.77342 0
M  V30 2468 H 249.993 -1.66661 -6.88208 0
M  V30 2469 H 250.401 -0.460082 -5.62622 0
M  V30 2470 N 249.799 1.42003 -0.683588 0
M  V30 2471 C 251.045 2.01712 -0.209825 0
M  V30 2472 C 251.378 1.53968 1.18353 0
M  V30 2473 O 250.653 0.745661 1.79639 0
M  V30 2474 C 250.936 3.59202 -0.254197 0
M  V30 2475 C 250.789 4.17102 -1.68363 0
M  V30 2476 C 252.108 4.38344 0.392709 0
M  V30 2477 H 249.227 0.732891 -0.0777189 0
M  V30 2478 H 251.869 1.68909 -0.87004 0
M  V30 2479 H 250.019 3.87278 0.307954 0
M  V30 2480 H 251.691 3.99946 -2.29871 0
M  V30 2481 H 249.934 3.72597 -2.22157 0
M  V30 2482 H 250.605 5.26249 -1.6663 0
M  V30 2483 H 253.081 4.16011 -0.0859162 0
M  V30 2484 H 251.957 5.47901 0.331063 0
M  V30 2485 H 252.218 4.16887 1.47164 0
M  V30 2486 N 251.277 0.427512 1.51691 0
M  V30 2487 C 252.224 -0.388867 2.275 0
M  V30 2488 C 253.194 -1.02532 1.30677 0
M  V30 2489 O 254.379 -1.0461 1.59566 0
M  V30 2490 C 251.519 -1.48954 3.11298 0
M  V30 2491 C 250.632 -0.872194 4.23104 0
M  V30 2492 C 249.767 -1.94709 4.94228 0
M  V30 2493 C 248.806 -1.30766 5.97969 0
M  V30 2494 N 247.943 -2.32349 6.62539 0
M  V30 2495 H 252.783 0.263997 2.96828 0
M  V30 2496 H 250.32 0.142033 1.46413 0
M  V30 2497 H 252.278 -2.13887 3.58201 0
M  V30 2498 H 250.908 -2.11217 2.44105 0
M  V30 2499 H 249.96 -0.111419 3.80237 0
M  V30 2500 H 251.272 -0.365264 4.97461 0
M  V30 2501 H 250.426 -2.67327 5.44629 0
M  V30 2502 H 249.165 -2.48773 4.1948 0
M  V30 2503 H 248.17 -0.566902 5.4687 0
M  V30 2504 H 249.395 -0.774483 6.74669 0
M  V30 2505 H 247.341 -2.85511 5.90609 0
M  V30 2506 H 247.258 -1.8652 7.3263 0
M  V30 2507 H 248.526 -3.04481 7.17574 0
M  V30 2508 N 252.755 -1.56801 0.158532 0
M  V30 2509 C 254.032 -1.88131 -0.535357 0
M  V30 2510 C 254.412 -1.06638 -1.82186 0
M  V30 2511 O 253.76 -0.156533 -2.27963 0
M  V30 2512 C 253.97 -3.39949 -0.789653 0
M  V30 2513 C 255.318 -4.09416 -1.12533 0
M  V30 2514 O 256.342 -3.45194 -0.878622 0
M  V30 2515 O 255.201 -5.22855 -1.59014 0
M  V30 2516 H 252.295 -0.780143 -0.27442 0
M  V30 2517 H 254.841 -1.68564 0.19601 0
M  V30 2518 H 253.613 -3.91115 0.120353 0
M  V30 2519 H 253.236 -3.65084 -1.57479 0
M  V30 2520 N 254.233 0.115231 -1.57178 0
M  V30 2521 C 255.181 1.16014 -2.01602 0
M  V30 2522 C 256.175 1.42653 -0.913587 0
M  V30 2523 O 257.381 1.42571 -1.09879 0
M  V30 2524 H 253.756 0.391252 -0.642204 0
M  V30 2525 H 255.727 0.758998 -2.88586 0
M  V30 2526 C 254.476 2.47767 -2.4394 0
M  V30 2527 H 253.799 2.28108 -3.28339 0
M  V30 2528 H 255.239 3.19432 -2.78818 0
M  V30 2529 C 253.698 3.10617 -1.30455 0
M  V30 2530 O 254.228 3.96846 -0.622585 0
M  V30 2531 N 252.434 2.70553 -1.06064 0
M  V30 2532 H 251.981 2.00527 -1.61699 0
M  V30 2533 H 251.939 3.12934 -0.303284 0
M  V30 2534 N 255.711 1.52812 0.385517 0
M  V30 2535 C 256.661 1.74219 1.47078 0
M  V30 2536 C 257.645 0.59632 1.49442 0
M  V30 2537 O 258.837 0.85428 1.5502 0
M  V30 2538 C 255.966 1.9176 2.84751 0
M  V30 2539 C 255.052 3.12289 2.86943 0
M  V30 2540 N 255.443 4.34575 2.58802 0
M  V30 2541 C 253.741 3.12605 3.1811 0
M  V30 2542 C 254.442 5.162 2.68166 0
M  V30 2543 N 253.418 4.51964 3.02043 0
M  V30 2544 H 257.22 2.6639 1.24152 0
M  V30 2545 H 254.734 1.51166 0.593504 0
M  V30 2546 H 256.731 2.05218 3.62893 0
M  V30 2547 H 255.391 1.00805 3.08656 0
M  V30 2548 H 256.402 4.62649 2.32759 0
M  V30 2549 H 253.079 2.31472 3.47458 0
M  V30 2550 H 254.469 6.23689 2.49923 0
M  V30 2551 N 257.189 -0.644168 1.43834 0
M  V30 2552 C 258.435 -1.40603 1.46146 0
M  V30 2553 C 258.768 -1.93997 0.0887717 0
M  V30 2554 O 258.043 -1.72854 -0.891724 0
M  V30 2555 C 258.326 -2.58086 2.51124 0
M  V30 2556 C 258.179 -2.10126 3.97702 0
M  V30 2557 C 259.498 -3.60291 2.52742 0
M  V30 2558 H 256.617 -0.509905 0.532134 0
M  V30 2559 H 259.259 -0.729502 1.75437 0
M  V30 2560 H 257.409 -3.15801 2.26278 0
M  V30 2561 H 259.081 -1.57342 4.33637 0
M  V30 2562 H 257.324 -1.41419 4.10101 0
M  V30 2563 H 257.995 -2.94649 4.66783 0
M  V30 2564 H 260.471 -3.12352 2.7491 0
M  V30 2565 H 259.347 -4.40032 3.28121 0
M  V30 2566 H 259.608 -4.1349 1.56455 0
M  V30 2567 N 258.668 -1.30515 -0.883378 0
M  V30 2568 C 259.914 -1.19607 -1.63774 0
M  V30 2569 C 260.247 0.248314 -1.92606 0
M  V30 2570 O 259.522 1.17742 -1.54813 0
M  V30 2571 C 259.805 -2.02669 -2.97653 0
M  V30 2572 C 259.658 -3.55335 -2.75784 0
M  V30 2573 C 260.977 -1.86573 -3.98596 0
M  V30 2574 H 258.096 -0.435856 -0.594305 0
M  V30 2575 H 260.738 -1.60165 -1.02212 0
M  V30 2576 H 258.888 -1.68208 -3.50197 0
M  V30 2577 H 260.56 -3.99863 -2.30016 0
M  V30 2578 H 258.803 -3.79438 -2.1026 0
M  V30 2579 H 259.474 -4.08745 -3.70988 0
M  V30 2580 H 261.95 -2.16703 -3.55217 0
M  V30 2581 H 260.826 -2.47014 -4.90179 0
M  V30 2582 H 261.087 -0.825321 -4.34328 0
M  V30 2583 N 260.146 1.09593 -1.13257 0
M  V30 2584 C 261.109 2.14359 -0.811358 0
M  V30 2585 C 262.109 1.59808 0.178377 0
M  V30 2586 O 263.299 1.74132 -0.0484911 0
M  V30 2587 C 260.431 3.40269 -0.207276 0
M  V30 2588 H 261.624 2.44284 -1.73969 0
M  V30 2589 H 259.177 1.25102 -0.936973 0
M  V30 2590 H 259.912 3.15969 0.73036 0
M  V30 2591 H 259.697 3.81154 -0.919992 0
M  V30 2592 H 261.187 4.176 0.000667944 0
M  V30 2593 N 261.624 0.925811 1.2754 0
M  V30 2594 C 262.587 0.428129 2.25166 0
M  V30 2595 C 263.587 -0.452261 1.54309 0
M  V30 2596 O 264.777 -0.253608 1.72344 0
M  V30 2597 C 261.909 -0.384749 3.38722 0
M  V30 2598 H 263.102 1.29066 2.70706 0
M  V30 2599 H 260.655 0.706323 1.3943 0
M  V30 2600 H 261.39 -1.26618 2.98561 0
M  V30 2601 H 261.175 0.246454 3.91325 0
M  V30 2602 H 262.665 -0.723389 4.11287 0
M  V30 2603 N 263.102 -1.41638 0.69111 0
M  V30 2604 C 264.35 -2.00902 0.219758 0
M  V30 2605 C 264.671 -1.54994 -1.18329 0
M  V30 2606 O 263.941 -0.778628 -1.79762 0
M  V30 2607 H 262.521 -0.74289 0.0782558 0
M  V30 2608 H 265.183 -1.73327 0.891271 0
M  V30 2609 H 264.279 -3.11224 0.233708 0
M  V30 2610 N 264.58 -0.43555 -1.51462 0
M  V30 2611 C 265.828 0.131254 -2.01673 0
M  V30 2612 C 266.149 1.43368 -1.32177 0
M  V30 2613 O 265.419 1.90524 -0.455769 0
M  V30 2614 H 263.999 0.0514954 -0.745223 0
M  V30 2615 H 266.661 -0.577847 -1.86137 0
M  V30 2616 H 265.757 0.308446 -3.10572 0
M  V30 2617 N 266.058 1.56714 -0.166846 0
M  V30 2618 C 267.304 1.97039 0.479962 0
M  V30 2619 C 267.637 1.05264 1.63197 0
M  V30 2620 O 266.912 0.0988833 1.94248 0
M  V30 2621 C 267.195 3.46867 0.967212 0
M  V30 2622 C 267.048 4.49421 -0.18466 0
M  V30 2623 C 268.367 3.9968 1.84238 0
M  V30 2624 H 265.486 0.71641 0.172992 0
M  V30 2625 H 268.128 1.8832 -0.252079 0
M  V30 2626 H 266.278 3.54428 1.59101 0
M  V30 2627 H 267.95 4.53924 -0.821621 0
M  V30 2628 H 266.193 4.25573 -0.840837 0
M  V30 2629 H 266.864 5.51644 0.198317 0
M  V30 2630 H 269.34 3.94723 1.31655 0
M  V30 2631 H 268.216 5.04941 2.15234 0
M  V30 2632 H 268.477 3.43226 2.78654 0
M  V30 2633 N 267.536 -0.106894 1.57237 0
M  V30 2634 C 268.446 -1.14911 2.0453 0
M  V30 2635 C 269.462 -1.44592 0.96795 0
M  V30 2636 O 270.638 -1.55468 1.2803 0
M  V30 2637 C 267.703 -2.45272 2.45036 0
M  V30 2638 C 266.764 -2.22879 3.66911 0
M  V30 2639 C 265.997 -3.47024 4.05475 0
M  V30 2640 O 266.22 -4.54804 3.44252 0
M  V30 2641 O 265.154 -3.3731 4.98504 0
M  V30 2642 H 268.98 -0.777461 2.9358 0
M  V30 2643 H 266.565 -0.318563 1.45964 0
M  V30 2644 H 268.447 -3.22055 2.71769 0
M  V30 2645 H 267.122 -2.81886 1.59129 0
M  V30 2646 H 266.029 -1.43915 3.45311 0
M  V30 2647 H 267.362 -1.91163 4.53561 0
M  V30 2648 N 269.014 -1.53014 -0.377408 0
M  V30 2649 C 269.961 -1.78616 -1.46168 0
M  V30 2650 C 270.931 -0.629917 -1.53692 0
M  V30 2651 O 272.116 -0.870861 -1.69766 0
M  V30 2652 C 269.256 -1.97123 -2.8326 0
M  V30 2653 C 268.369 -3.24831 -2.84796 0
M  V30 2654 C 267.504 -3.33591 -4.13389 0
M  V30 2655 C 266.543 -4.55377 -4.09021 0
M  V30 2656 N 265.68 -4.61355 -5.29241 0
M  V30 2657 H 270.52 -2.71142 -1.23637 0
M  V30 2658 H 268.057 -1.34326 -0.599577 0
M  V30 2659 H 270.015 -2.05839 -3.62886 0
M  V30 2660 H 268.645 -1.07946 -3.04216 0
M  V30 2661 H 267.697 -3.25128 -1.97474 0
M  V30 2662 H 269.009 -4.14523 -2.77439 0
M  V30 2663 H 268.163 -3.41554 -5.01424 0
M  V30 2664 H 266.902 -2.41894 -4.23484 0
M  V30 2665 H 265.907 -4.47527 -3.19373 0
M  V30 2666 H 267.132 -5.48402 -4.00539 0
M  V30 2667 H 265.078 -3.72554 -5.39944 0
M  V30 2668 H 264.995 -5.44935 -5.24006 0
M  V30 2669 H 266.263 -4.73586 -6.19141 0
M  V30 2670 N 270.492 0.636531 -1.44174 0
M  V30 2671 C 271.455 1.73063 -1.50273 0
M  V30 2672 C 272.455 1.56113 -0.385397 0
M  V30 2673 O 273.645 1.61707 -0.64781 0
M  V30 2674 C 270.777 3.12096 -1.37145 0
M  V30 2675 H 271.97 1.69031 -2.47727 0
M  V30 2676 H 269.523 0.849706 -1.31186 0
M  V30 2677 H 270.258 3.21728 -0.407636 0
M  V30 2678 H 270.043 3.25805 -2.18159 0
M  V30 2679 H 271.533 3.91846 -1.44382 0
M  V30 2680 N 271.97 1.30982 0.876444 0
M  V30 2681 C 273.216 1.20474 1.63138 0
M  V30 2682 C 273.549 -0.238096 1.92735 0
M  V30 2683 O 272.824 -1.1692 1.55435 0
M  V30 2684 C 273.107 2.04244 2.96574 0
M  V30 2685 C 272.96 3.56793 2.73896 0
M  V30 2686 C 274.279 1.88684 3.97601 0
M  V30 2687 H 271.398 0.439001 0.591985 0
M  V30 2688 H 274.04 1.60704 1.01361 0
M  V30 2689 H 272.19 1.70063 3.493 0
M  V30 2690 H 273.862 4.01077 2.27892 0
M  V30 2691 H 272.105 3.80548 2.08245 0
M  V30 2692 H 272.776 4.10706 3.68815 0
M  V30 2693 H 275.252 2.18584 3.54062 0
M  V30 2694 H 274.128 2.4961 4.88862 0
M  V30 2695 H 274.389 0.848343 4.33884 0
M  V30 2696 N 273.449 -1.08991 1.13837 0
M  V30 2697 C 274.865 -1.33312 0.877506 0
M  V30 2698 C 275.065 -1.95587 -0.48456 0
M  V30 2699 O 274.121 -2.20509 -1.23013 0
M  V30 2700 C 275.434 -2.24045 2.0056 0
M  V30 2701 C 276.982 -2.37542 2.03821 0
M  V30 2702 C 277.457 -3.31614 3.15905 0
M  V30 2703 N 278.948 -3.39189 3.15445 0
M  V30 2704 C 279.683 -4.11992 3.98811 0
M  V30 2705 N 279.179 -4.87553 4.92203 0
M  V30 2706 N 280.972 -4.07762 3.86894 0
M  V30 2707 H 273.123 -0.669456 2.01574 0
M  V30 2708 H 275.386 -0.357482 0.878015 0
M  V30 2709 H 275.092 -1.85521 2.98789 0
M  V30 2710 H 274.966 -3.24466 1.92359 0
M  V30 2711 H 277.353 -2.75327 1.06202 0
M  V30 2712 H 277.434 -1.36884 2.16093 0
M  V30 2713 H 277.078 -2.94551 4.13766 0
M  V30 2714 H 277.008 -4.32186 3.0087 0
M  V30 2715 H 279.499 -2.85314 2.47799 0
M  V30 2716 H 279.812 -5.40549 5.52292 0
M  V30 2717 H 278.157 -4.86627 4.96205 0
M  V30 2718 H 281.348 -3.47833 3.13257 0
M  V30 2719 H 281.521 -4.64238 4.52092 0
M  V30 2720 N 274.927 -0.932562 -1.27047 0
M  V30 2721 C 275.89 -0.440064 -2.24936 0
M  V30 2722 C 276.89 0.444071 -1.54547 0
M  V30 2723 O 278.08 0.244465 -1.72476 0
M  V30 2724 C 275.212 0.36678 -3.38921 0
M  V30 2725 H 276.405 -1.305 -2.70018 0
M  V30 2726 H 273.958 -0.713707 -1.39054 0
M  V30 2727 H 274.693 1.25033 -2.99228 0
M  V30 2728 H 274.478 -0.267204 -3.91188 0
M  V30 2729 H 275.968 0.701567 -4.11665 0
M  V30 2730 N 276.405 1.4127 -0.698611 0
M  V30 2731 C 277.368 2.29158 -0.044132 0
M  V30 2732 C 278.368 1.44529 0.704841 0
M  V30 2733 O 279.558 1.65643 0.539276 0
M  V30 2734 C 276.69 3.27459 0.947809 0
M  V30 2735 H 277.883 2.88529 -0.817994 0
M  V30 2736 H 275.436 1.49307 -0.46228 0
M  V30 2737 H 276.171 2.73073 1.74933 0
M  V30 2738 H 275.956 3.8991 0.41385 0
M  V30 2739 H 277.446 3.93311 1.40344 0
M  V30 2740 N 277.883 0.443576 1.51229 0
M  V30 2741 C 279.299 0.0962001 1.5931 0
M  V30 2742 C 279.499 -1.39501 1.45402 0
M  V30 2743 O 278.555 -2.16557 1.29843 0
M  V30 2744 C 279.868 0.621875 2.94199 0
M  V30 2745 C 281.416 0.582865 3.07525 0
M  V30 2746 C 281.891 1.08562 4.44948 0
M  V30 2747 N 283.382 1.04387 4.51284 0
M  V30 2748 C 284.117 1.40368 5.55954 0
M  V30 2749 N 283.613 1.83664 6.68011 0
M  V30 2750 N 285.406 1.32145 5.46346 0
M  V30 2751 H 277.557 1.41376 1.58514 0
M  V30 2752 H 279.82 0.582965 0.747567 0
M  V30 2753 H 279.526 1.66546 3.09767 0
M  V30 2754 H 279.4 0.0502125 3.77167 0
M  V30 2755 H 281.787 -0.451749 2.91622 0
M  V30 2756 H 281.868 1.191 2.26382 0
M  V30 2757 H 281.512 2.11873 4.61598 0
M  V30 2758 H 281.442 0.453956 5.2464 0
M  V30 2759 H 283.933 0.725986 3.70861 0
M  V30 2760 H 284.246 2.0934 7.43906 0
M  V30 2761 H 282.591 1.87596 6.69203 0
M  V30 2762 H 285.782 0.981808 4.57688 0
M  V30 2763 H 285.955 1.60514 6.27805 0
M  V30 2764 N 279.361 -1.56624 0.175154 0
M  V30 2765 C 280.293 -2.15333 -0.785128 0
M  V30 2766 C 281.306 -1.1099 -1.19101 0
M  V30 2767 O 282.495 -1.38162 -1.13019 0
M  V30 2768 C 279.595 -2.68427 -2.06882 0
M  V30 2769 C 278.768 -3.97466 -1.8259 0
M  V30 2770 C 277.827 -4.35585 -2.95215 0
M  V30 2771 O 276.853 -5.03389 -2.65684 0
M  V30 2772 N 278.055 -3.97457 -4.23094 0
M  V30 2773 H 280.82 -2.98359 -0.283187 0
M  V30 2774 H 278.381 -1.61898 -0.00749817 0
M  V30 2775 H 280.373 -2.90924 -2.81328 0
M  V30 2776 H 278.943 -1.89968 -2.48256 0
M  V30 2777 H 278.163 -3.83307 -0.920287 0
M  V30 2778 H 279.451 -4.81736 -1.63733 0
M  V30 2779 H 278.849 -3.42878 -4.49945 0
M  V30 2780 H 277.406 -4.24947 -4.9423 0
M  V30 2781 N 280.839 0.0985539 -1.57292 0
M  V30 2782 C 281.802 1.10402 -2.00858 0
M  V30 2783 C 282.802 1.33146 -0.901593 0
M  V30 2784 O 283.992 1.29318 -1.16716 0
M  V30 2785 C 281.124 2.45394 -2.36632 0
M  V30 2786 H 282.317 0.729099 -2.90902 0
M  V30 2787 H 279.87 0.343495 -1.52479 0
M  V30 2788 H 280.605 2.87769 -1.49531 0
M  V30 2789 H 280.39 2.30235 -3.17387 0
M  V30 2790 H 281.88 3.17718 -2.71007 0
M  V30 2791 N 282.317 1.53212 0.369288 0
M  V30 2792 C 283.28 1.7872 1.43498 0
M  V30 2793 C 284.28 0.657554 1.46741 0
M  V30 2794 O 285.47 0.925736 1.47566 0
M  V30 2795 C 282.602 1.90591 2.82645 0
M  V30 2796 H 283.795 2.73894 1.22156 0
M  V30 2797 H 281.348 1.44233 0.602203 0
M  V30 2798 H 282.083 0.974709 3.09306 0
M  V30 2799 H 281.868 2.72751 2.8169 0
M  V30 2800 H 283.358 2.11931 3.59826 0
M  V30 2801 N 283.795 -0.628877 1.44509 0
M  V30 2802 C 285.072 -1.38733 1.37886 0
M  V30 2803 C 285.452 -2.11065 0.0387008 0
M  V30 2804 O 284.8 -2.06476 -0.97878 0
M  V30 2805 C 285.01 -2.35188 2.57852 0
M  V30 2806 C 286.358 -2.9845 3.02014 0
M  V30 2807 O 287.382 -2.45513 2.58073 0
M  V30 2808 O 286.241 -3.94487 3.78209 0
M  V30 2809 H 283.335 -0.621015 0.54614 0
M  V30 2810 H 285.881 -0.653744 1.56602 0
M  V30 2811 H 284.653 -1.80855 3.46998 0
M  V30 2812 H 284.276 -3.1596 2.4136 0
M  V30 2813 N 285.273 -1.31445 -0.869486 0
M  V30 2814 C 286.52 -1.21158 -1.62256 0
M  V30 2815 C 286.848 0.230155 -1.93133 0
M  V30 2816 O 286.103 1.17906 -1.56194 0
M  V30 2817 C 286.402 -2.00145 -2.96102 0
M  V30 2818 C 286.068 -3.4964 -2.84715 0
M  V30 2819 C 284.73 -3.90403 -2.81317 0
M  V30 2820 C 287.082 -4.44769 -2.71716 0
M  V30 2821 C 284.41 -5.24561 -2.62778 0
M  V30 2822 C 286.762 -5.79054 -2.54714 0
M  V30 2823 C 285.426 -6.19037 -2.49699 0
M  V30 2824 H 284.696 -0.443348 -0.593737 0
M  V30 2825 H 287.343 -1.62715 -1.00976 0
M  V30 2826 H 285.648 -1.5127 -3.6142 0
M  V30 2827 H 287.345 -1.89566 -3.53363 0
M  V30 2828 H 283.935 -3.17256 -2.88178 0
M  V30 2829 H 288.119 -4.14208 -2.73397 0
M  V30 2830 H 283.375 -5.54613 -2.57321 0
M  V30 2831 H 287.549 -6.52393 -2.43632 0
M  V30 2832 H 285.176 -7.22935 -2.35093 0
M  V30 2833 N 286.751 1.08385 -1.14413 0
M  V30 2834 C 287.979 1.84517 -0.936001 0
M  V30 2835 C 288.394 1.81626 0.515503 0
M  V30 2836 O 287.751 1.22008 1.35721 0
M  V30 2837 C 287.802 3.32049 -1.42918 0
M  V30 2838 O 287.523 3.34951 -2.82381 0
M  V30 2839 C 289.024 4.24986 -1.26103 0
M  V30 2840 H 286.244 0.582491 -0.333084 0
M  V30 2841 H 288.788 1.36885 -1.5193 0
M  V30 2842 H 286.943 3.7707 -0.888641 0
M  V30 2843 H 287.357 4.27048 -3.04517 0
M  V30 2844 H 288.831 5.26615 -1.6547 0
M  V30 2845 H 289.308 4.38726 -0.20392 0
M  V30 2846 H 289.914 3.85791 -1.79012 0
M  V30 2847 N 288.23 0.939286 1.26551 0
M  V30 2848 C 289.16 0.465044 2.28822 0
M  V30 2849 C 290.141 -0.480692 1.63167 0
M  V30 2850 O 291.326 -0.382955 1.90387 0
M  V30 2851 C 288.456 -0.27234 3.46231 0
M  V30 2852 C 287.41 0.58666 4.2396 0
M  V30 2853 C 286.736 -0.280573 5.33963 0
M  V30 2854 C 288.036 1.85704 4.88171 0
M  V30 2855 H 289.73 1.31979 2.68741 0
M  V30 2856 H 287.276 0.636061 1.29191 0
M  V30 2857 H 289.229 -0.615133 4.16886 0
M  V30 2858 H 287.953 -1.16121 3.0526 0
M  V30 2859 H 286.612 0.91232 3.55067 0
M  V30 2860 H 286.26 -1.16874 4.89234 0
M  V30 2861 H 285.96 0.29076 5.8688 0
M  V30 2862 H 287.484 -0.618678 6.07458 0
M  V30 2863 H 288.898 1.58161 5.51052 0
M  V30 2864 H 287.295 2.37279 5.51197 0
M  V30 2865 H 288.365 2.56957 4.11219 0
M  V30 2866 N 289.708 -1.40897 0.706093 0
M  V30 2867 C 290.655 -2.30751 0.0474474 0
M  V30 2868 C 291.625 -1.47678 -0.76029 0
M  V30 2869 O 292.81 -1.76441 -0.726177 0
M  V30 2870 C 289.95 -3.33815 -0.875309 0
M  V30 2871 C 289.063 -4.31961 -0.0580623 0
M  V30 2872 C 288.198 -5.22093 -0.979425 0
M  V30 2873 C 287.237 -6.11902 -0.155706 0
M  V30 2874 N 286.374 -6.94482 -1.03144 0
M  V30 2875 H 291.214 -2.86513 0.819413 0
M  V30 2876 H 288.751 -1.41102 0.415783 0
M  V30 2877 H 290.709 -3.92129 -1.42446 0
M  V30 2878 H 289.339 -2.79579 -1.61356 0
M  V30 2879 H 288.391 -3.75507 0.608147 0
M  V30 2880 H 289.703 -4.95415 0.580082 0
M  V30 2881 H 288.857 -5.85292 -1.59744 0
M  V30 2882 H 287.596 -4.5889 -1.65141 0
M  V30 2883 H 286.601 -5.47742 0.475309 0
M  V30 2884 H 287.826 -6.77162 0.512635 0
M  V30 2885 H 285.772 -6.33877 -1.68924 0
M  V30 2886 H 285.689 -7.54665 -0.449108 0
M  V30 2887 H 286.957 -7.6214 -1.63593 0
M  V30 2888 N 291.186 -0.45159 -1.50991 0
M  V30 2889 C 292.432 0.110237 -2.025 0
M  V30 2890 C 292.765 1.41109 -1.33424 0
M  V30 2891 O 292.04 1.89135 -0.453659 0
M  V30 2892 C 292.323 0.314271 -3.58726 0
M  V30 2893 C 292.176 -1.00623 -4.38401 0
M  V30 2894 C 293.495 1.07767 -4.26702 0
M  V30 2895 H 290.614 0.0385897 -0.735989 0
M  V30 2896 H 293.256 -0.593374 -1.80497 0
M  V30 2897 H 291.406 0.913601 -3.77605 0
M  V30 2898 H 293.078 -1.64064 -4.31139 0
M  V30 2899 H 291.321 -1.6075 -4.02917 0
M  V30 2900 H 291.992 -0.817341 -5.45915 0
M  V30 2901 H 294.468 0.56986 -4.12179 0
M  V30 2902 H 293.344 1.18921 -5.35863 0
M  V30 2903 H 293.605 2.10939 -3.88532 0
M  V30 2904 N 292.664 1.56529 -0.183458 0
M  V30 2905 C 293.574 2.22144 0.754272 0
M  V30 2906 C 294.59 1.21684 1.24374 0
M  V30 2907 O 295.766 1.54385 1.29333 0
M  V30 2908 C 292.831 2.85884 1.96141 0
M  V30 2909 C 291.892 4.01579 1.51765 0
M  V30 2910 C 291.125 4.6227 2.66725 0
M  V30 2911 O 291.348 4.21865 3.83909 0
M  V30 2912 O 290.282 5.51936 2.40104 0
M  V30 2913 H 294.108 3.02861 0.225527 0
M  V30 2914 H 291.693 1.49331 0.0453032 0
M  V30 2915 H 293.575 3.26253 2.66715 0
M  V30 2916 H 292.25 2.08154 2.47899 0
M  V30 2917 H 291.157 3.65856 0.781049 0
M  V30 2918 H 292.49 4.80938 1.04686 0
M  V30 2919 N 294.142 -0.090211 1.57342 0
M  V30 2920 C 295.388 -0.793982 1.86611 0
M  V30 2921 C 295.721 -1.78142 0.773252 0
M  V30 2922 O 294.996 -1.93271 -0.218304 0
M  V30 2923 C 295.279 -1.51839 3.26523 0
M  V30 2924 C 295.132 -0.548609 4.46442 0
M  V30 2925 C 296.451 -2.46779 3.64401 0
M  V30 2926 H 293.57 -0.287186 0.678744 0
M  V30 2927 H 296.212 -0.0575076 1.89913 0
M  V30 2928 H 294.362 -2.14617 3.23839 0
M  V30 2929 H 296.034 0.0725513 4.61243 0
M  V30 2930 H 294.277 0.137614 4.33582 0
M  V30 2931 H 294.948 -1.09271 5.41076 0
M  V30 2932 H 297.424 -1.94089 3.68061 0
M  V30 2933 H 296.3 -2.94479 4.63221 0
M  V30 2934 H 296.561 -3.30758 2.93346 0
M  V30 2935 N 295.62 -1.53406 -0.361157 0
M  V30 2936 C 296.53 -1.83122 -1.4664 0
M  V30 2937 C 297.546 -0.719943 -1.58407 0
M  V30 2938 O 298.722 -1.01046 -1.74218 0
M  V30 2939 C 295.787 -2.01891 -2.81853 0
M  V30 2940 C 294.848 -3.25784 -2.79577 0
M  V30 2941 C 294.081 -3.43648 -4.0834 0
M  V30 2942 O 294.304 -2.65714 -5.0473 0
M  V30 2943 O 293.238 -4.37018 -4.13883 0
M  V30 2944 H 297.064 -2.7703 -1.24451 0
M  V30 2945 H 294.649 -1.38841 -0.551678 0
M  V30 2946 H 296.531 -2.15782 -3.61962 0
M  V30 2947 H 295.206 -1.11173 -3.0401 0
M  V30 2948 H 294.113 -3.17312 -1.98151 0
M  V30 2949 H 295.446 -4.16439 -2.62373 0
M  V30 2950 N 297.098 0.621204 -1.44841 0
M  V30 2951 C 298.338 1.39201 -1.49674 0
M  V30 2952 C 298.702 1.91561 -0.129764 0
M  V30 2953 O 299.903 2.68748 -0.0527814 0
M  V30 2954 C 298.174 2.519 -2.53537 0
M  V30 2955 S 299.733 3.39916 -2.77494 0
M  V30 2956 H 296.551 0.474758 -0.529269 0
M  V30 2957 H 299.153 0.718171 -1.81831 0
M  V30 2958 H 297.857 2.11761 -3.51547 0
M  V30 2959 H 297.388 3.241 -2.22986 0
M  V30 2960 H 299.403 4.49646 -2.0984 0
M  V30 2961 N 298.576 1.31904 0.862503 0
M  V30 2962 C 299.801 1.25135 1.65397 0
M  V30 2963 C 300.226 -0.179 1.87246 0
M  V30 2964 O 299.584 -1.1277 1.4196 0
M  V30 2965 C 299.632 2.00832 2.99498 0
M  V30 2966 O 298.736 1.35075 3.89652 0
M  V30 2967 H 298.077 0.431655 0.504549 0
M  V30 2968 H 300.607 1.74094 1.07483 0
M  V30 2969 H 300.617 2.10709 3.49379 0
M  V30 2970 H 299.292 3.04847 2.82916 0
M  V30 2971 H 297.869 1.33696 3.48109 0
M  V30 2972 N 300.054 -1.07777 1.14986 0
M  V30 2973 C 301.279 -1.84558 0.946213 0
M  V30 2974 C 301.704 -1.81323 -0.500362 0
M  V30 2975 O 301.062 -1.20301 -1.35637 0
M  V30 2976 C 301.11 -3.29736 1.45968 0
M  V30 2977 O 300.214 -4.07149 0.65601 0
M  V30 2978 H 299.555 -0.571641 0.33782 0
M  V30 2979 H 302.085 -1.35991 1.52865 0
M  V30 2980 H 302.095 -3.80574 1.47063 0
M  V30 2981 H 300.77 -3.31406 2.51283 0
M  V30 2982 H 299.347 -3.65994 0.714322 0
M  V30 2983 N 301.532 -0.945985 -1.26051 0
M  V30 2984 C 302.462 -0.477172 -2.28572 0
M  V30 2985 C 303.443 0.472032 -1.63419 0
M  V30 2986 O 304.628 0.372853 -1.90587 0
M  V30 2987 C 301.758 0.253975 -3.4637 0
M  V30 2988 C 300.712 -0.609135 -4.23643 0
M  V30 2989 C 300.038 0.252252 -5.34105 0
M  V30 2990 C 301.338 -1.8829 -4.8718 0
M  V30 2991 H 303.032 -1.33402 -2.68038 0
M  V30 2992 H 300.578 -0.642904 -1.28852 0
M  V30 2993 H 302.531 0.593016 -4.17207 0
M  V30 2994 H 301.255 1.145 -3.05871 0
M  V30 2995 H 299.914 -0.931138 -3.54578 0
M  V30 2996 H 299.562 1.14278 -4.89846 0
M  V30 2997 H 299.262 -0.32188 -5.86718 0
M  V30 2998 H 300.786 0.586454 -6.07777 0
M  V30 2999 H 302.2 -1.61081 -5.50205 0
M  V30 3000 H 300.597 -2.40199 -5.49931 0
M  V30 3001 H 301.667 -2.59134 -4.09851 0
M  V30 3002 N 303.011 1.40521 -0.713556 0
M  V30 3003 C 303.943 2.29191 -0.0203126 0
M  V30 3004 C 304.956 1.45723 0.725864 0
M  V30 3005 O 306.145 1.69033 0.573581 0
M  V30 3006 C 303.245 3.2395 0.995486 0
M  V30 3007 C 302.418 4.36262 0.315256 0
M  V30 3008 C 301.477 5.11474 1.23616 0
M  V30 3009 O 300.503 5.64606 0.721719 0
M  V30 3010 N 301.705 5.20638 2.56743 0
M  V30 3011 H 304.47 2.89327 -0.781652 0
M  V30 3012 H 302.031 1.51869 -0.561022 0
M  V30 3013 H 304.023 3.71137 1.61368 0
M  V30 3014 H 302.593 2.64995 1.6582 0
M  V30 3015 H 301.813 3.91228 -0.483106 0
M  V30 3016 H 303.101 5.08558 -0.157004 0
M  V30 3017 H 302.499 4.7895 3.01037 0
M  V30 3018 H 301.056 5.71339 3.13712 0
M  V30 3019 N 304.489 0.459591 1.5075 0
M  V30 3020 C 305.399 -0.34613 2.32033 0
M  V30 3021 C 306.415 -1.00686 1.41909 0
M  V30 3022 O 307.591 -0.997361 1.7497 0
M  V30 3023 C 304.656 -1.42029 3.16273 0
M  V30 3024 C 303.717 -0.777362 4.22203 0
M  V30 3025 C 302.95 -1.80034 5.02418 0
M  V30 3026 O 303.173 -3.02544 4.83553 0
M  V30 3027 O 302.107 -1.37853 5.85901 0
M  V30 3028 H 305.933 0.318054 3.0203 0
M  V30 3029 H 303.518 0.221663 1.47746 0
M  V30 3030 H 305.4 -2.04275 3.68578 0
M  V30 3031 H 304.075 -2.06815 2.49016 0
M  V30 3032 H 302.982 -0.116256 3.73919 0
M  V30 3033 H 304.315 -0.172634 4.91897 0
M  V30 3034 N 305.967 -1.56429 0.191757 0
M  V30 3035 C 306.93 -2.17707 -0.716688 0
M  V30 3036 C 307.93 -1.13061 -1.14341 0
M  V30 3037 O 309.12 -1.38464 -1.05704 0
M  V30 3038 C 306.252 -2.77644 -1.97804 0
M  V30 3039 H 307.445 -2.99342 -0.1829 0
M  V30 3040 H 304.998 -1.56193 -0.0578566 0
M  V30 3041 H 305.733 -1.99799 -2.55443 0
M  V30 3042 H 305.518 -3.54246 -1.68083 0
M  V30 3043 H 307.008 -3.24708 -2.62592 0
M  V30 3044 N 307.445 0.0818655 -1.57387 0
M  V30 3045 C 308.691 0.784074 -1.8703 0
M  V30 3046 C 309.024 1.77729 -0.782689 0
M  V30 3047 O 308.299 1.93384 0.208051 0
M  V30 3048 C 308.582 1.50105 -3.27323 0
M  V30 3049 C 308.435 0.524925 -4.46727 0
M  V30 3050 C 309.754 2.44843 -3.65705 0
M  V30 3051 H 306.873 0.283582 -0.680257 0
M  V30 3052 H 309.515 0.0474352 -1.89941 0
M  V30 3053 H 307.665 2.12897 -3.24972 0
M  V30 3054 H 309.337 -0.0970111 -4.61198 0
M  V30 3055 H 307.58 -0.160606 -4.33503 0
M  V30 3056 H 308.251 1.064 -5.41648 0
M  V30 3057 H 310.727 1.92135 -3.69085 0
M  V30 3058 H 309.603 2.92018 -4.64776 0
M  V30 3059 H 309.864 3.29197 -2.95096 0
M  V30 3060 N 308.923 1.53595 0.353017 0
M  V30 3061 C 309.855 1.77219 1.45348 0
M  V30 3062 C 310.868 0.65324 1.49119 0
M  V30 3063 O 312.057 0.929775 1.52373 0
M  V30 3064 C 309.157 1.84841 2.84055 0
M  V30 3065 C 308.33 3.14649 3.03833 0
M  V30 3066 C 307.389 3.13351 4.22727 0
M  V30 3067 O 306.415 3.87107 4.17297 0
M  V30 3068 N 307.617 2.35052 5.30783 0
M  V30 3069 H 310.382 2.72178 1.25457 0
M  V30 3070 H 307.943 1.52528 0.542833 0
M  V30 3071 H 309.935 1.81435 3.61751 0
M  V30 3072 H 308.505 0.971114 2.97133 0
M  V30 3073 H 307.725 3.31256 2.13689 0
M  V30 3074 H 309.013 4.00411 3.13925 0
M  V30 3075 H 308.411 1.74663 5.38061 0
M  V30 3076 H 306.968 2.37453 6.07009 0
M  V30 3077 N 310.401 -0.613514 1.45168 0
M  V30 3078 C 311.364 -1.7065 1.53007 0
M  V30 3079 C 312.364 -1.5548 0.410184 0
M  V30 3080 O 313.554 -1.60656 0.673455 0
M  V30 3081 C 310.686 -3.09875 1.42093 0
M  V30 3082 H 311.879 -1.65068 2.50385 0
M  V30 3083 H 309.432 -0.828728 1.32521 0
M  V30 3084 H 310.167 -3.21039 0.458769 0
M  V30 3085 H 309.952 -3.22293 2.23315 0
M  V30 3086 H 311.442 -3.895 1.50598 0
M  V30 3087 N 311.879 -1.3236 -0.855495 0
M  V30 3088 C 312.842 -1.21164 -1.94556 0
M  V30 3089 C 313.842 -0.134908 -1.60233 0
M  V30 3090 O 315.032 -0.385249 -1.69887 0
M  V30 3091 C 312.164 -0.863192 -3.29791 0
M  V30 3092 H 313.357 -2.18038 -2.05911 0
M  V30 3093 H 310.91 -1.16179 -1.04557 0
M  V30 3094 H 311.645 0.103769 -3.24134 0
M  V30 3095 H 311.43 -1.64166 -3.56078 0
M  V30 3096 H 312.92 -0.809156 -4.09686 0
M  V30 3097 N 313.357 1.07166 -1.15556 0
M  V30 3098 C 314.267 2.17947 -0.868116 0
M  V30 3099 C 315.283 1.73297 0.156297 0
M  V30 3100 O 316.459 2.01392 -0.0182327 0
M  V30 3101 C 313.524 3.44789 -0.36355 0
M  V30 3102 C 312.585 4.03996 -1.45209 0
M  V30 3103 C 311.818 5.24783 -0.971508 0
M  V30 3104 O 312.041 5.70109 0.182194 0
M  V30 3105 O 310.975 5.75715 -1.75603 0
M  V30 3106 H 314.801 2.4503 -1.79427 0
M  V30 3107 H 312.386 1.16539 -0.934824 0
M  V30 3108 H 314.268 4.21307 -0.0887113 0
M  V30 3109 H 312.943 3.19253 0.534708 0
M  V30 3110 H 311.85 3.29009 -1.78056 0
M  V30 3111 H 313.183 4.33808 -2.32533 0
M  V30 3112 N 314.835 0.952656 1.25548 0
M  V30 3113 C 315.798 0.475794 2.24207 0
M  V30 3114 C 316.798 -0.419428 1.55234 0
M  V30 3115 O 317.988 -0.216994 1.72843 0
M  V30 3116 C 315.12 -0.312814 3.39462 0
M  V30 3117 H 316.313 1.34779 2.67908 0
M  V30 3118 H 313.866 0.735739 1.37901 0
M  V30 3119 H 314.601 -1.20257 3.01179 0
M  V30 3120 H 314.386 0.329404 3.90714 0
M  V30 3121 H 315.876 -0.635986 4.12729 0
M  V30 3122 N 316.313 -1.40141 0.720998 0
M  V30 3123 C 317.561 -2.0039 0.262323 0
M  V30 3124 C 317.882 -1.57469 -1.15015 0
M  V30 3125 O 317.152 -0.816582 -1.78069 0
M  V30 3126 H 315.732 -0.741063 0.093996 0
M  V30 3127 H 318.394 -1.71398 0.927835 0
M  V30 3128 H 317.49 -3.10658 0.299671 0
M  V30 3129 N 317.792 -0.46758 -1.50504 0
M  V30 3130 C 318.755 0.317059 -2.26996 0
M  V30 3131 C 319.755 0.923513 -1.31635 0
M  V30 3132 O 320.945 0.793239 -1.55091 0
M  V30 3133 C 318.077 1.45134 -3.08462 0
M  V30 3134 H 319.27 -0.353723 -2.97807 0
M  V30 3135 H 316.823 -0.221545 -1.54722 0
M  V30 3136 H 317.558 2.15728 -2.4214 0
M  V30 3137 H 317.343 1.02232 -3.78538 0
M  V30 3138 H 318.833 2.00493 -3.66323 0
M  V30 3139 N 319.27 1.56325 -0.20005 0
M  V30 3140 C 320.547 1.89484 0.48529 0
M  V30 3141 C 320.927 1.1143 1.79294 0
M  V30 3142 O 320.275 0.216919 2.27468 0
M  V30 3143 C 320.485 3.41923 0.699243 0
M  V30 3144 C 321.833 4.12256 1.01638 0
M  V30 3145 O 322.857 3.47402 0.786792 0
M  V30 3146 O 321.716 5.26887 1.45095 0
M  V30 3147 H 318.81 0.787144 0.253639 0
M  V30 3148 H 321.356 1.67985 -0.240633 0
M  V30 3149 H 320.128 3.90658 -0.224008 0
M  V30 3150 H 319.751 3.69131 1.47744 0
M  V30 3151 N 320.748 -0.0735177 1.57428 0
M  V30 3152 C 321.678 -1.0879 2.06608 0
M  V30 3153 C 322.659 -1.40473 0.959237 0
M  V30 3154 O 323.844 -1.5013 1.23185 0
M  V30 3155 C 320.974 -2.40183 2.50857 0
M  V30 3156 C 319.928 -2.22858 3.65402 0
M  V30 3157 C 319.254 -3.59619 3.957 0
M  V30 3158 C 320.554 -1.65123 4.95511 0
M  V30 3159 H 322.248 -0.678673 2.91607 0
M  V30 3160 H 319.794 -0.325013 1.40284 0
M  V30 3161 H 321.747 -3.11437 2.83874 0
M  V30 3162 H 320.471 -2.83083 1.62885 0
M  V30 3163 H 319.13 -1.54045 3.32664 0
M  V30 3164 H 318.778 -4.00086 3.04861 0
M  V30 3165 H 318.478 -3.48866 4.72828 0
M  V30 3166 H 320.002 -4.32306 4.31212 0
M  V30 3167 H 321.416 -2.26241 5.26771 0
M  V30 3168 H 319.813 -1.65071 5.7695 0
M  V30 3169 H 320.883 -0.612559 4.81015 0
M  V30 3170 N 322.226 -1.5378 -0.344866 0
M  V30 3171 C 323.472 -1.71216 -1.08687 0
M  V30 3172 C 323.805 -0.473281 -1.88345 0
M  V30 3173 O 323.08 0.52968 -1.87149 0
M  V30 3174 C 323.363 -2.97486 -2.02914 0
M  V30 3175 C 323.216 -4.31579 -1.26727 0
M  V30 3176 C 324.535 -3.19422 -3.0275 0
M  V30 3177 H 321.654 -0.62301 -0.393735 0
M  V30 3178 H 324.296 -1.8645 -0.365563 0
M  V30 3179 H 322.446 -2.84629 -2.64421 0
M  V30 3180 H 324.118 -4.56284 -0.67845 0
M  V30 3181 H 322.361 -4.30049 -0.569273 0
M  V30 3182 H 323.032 -5.16106 -1.95803 0
M  V30 3183 H 325.508 -3.316 -2.51357 0
M  V30 3184 H 324.384 -4.09169 -3.65885 0
M  V30 3185 H 324.645 -2.35656 -3.74057 0
M  V30 3186 N 323.704 0.605807 -1.45491 0
M  V30 3187 C 324.634 1.72709 -1.57143 0
M  V30 3188 C 325.615 1.6476 -0.422884 0
M  V30 3189 O 326.8 1.83132 -0.646247 0
M  V30 3190 C 323.93 3.11316 -1.53948 0
M  V30 3191 C 322.884 3.34077 -2.67537 0
M  V30 3192 C 322.21 4.72975 -2.49397 0
M  V30 3193 C 323.51 3.24158 -4.09535 0
M  V30 3194 H 325.204 1.63214 -2.51001 0
M  V30 3195 H 322.75 0.78379 -1.208 0
M  V30 3196 H 324.703 3.89557 -1.60696 0
M  V30 3197 H 323.427 3.21655 -0.566205 0
M  V30 3198 H 322.086 2.58227 -2.6022 0
M  V30 3199 H 321.734 4.8005 -1.50205 0
M  V30 3200 H 321.434 4.8916 -3.25571 0
M  V30 3201 H 322.958 5.53414 -2.58002 0
M  V30 3202 H 324.372 3.92271 -4.18086 0
M  V30 3203 H 322.769 3.51872 -4.86113 0
M  V30 3204 H 323.839 2.2157 -4.31317 0
M  V30 3205 N 325.182 1.32811 0.848464 0
M  V30 3206 C 326.112 1.24882 1.97299 0
M  V30 3207 C 327.093 0.131357 1.69592 0
M  V30 3208 O 328.278 0.319553 1.91553 0
M  V30 3209 C 325.408 0.97746 3.33261 0
M  V30 3210 C 324.362 2.05682 3.75338 0
M  V30 3211 C 323.688 1.63777 5.09 0
M  V30 3212 C 324.988 3.47254 3.90144 0
M  V30 3213 H 326.682 2.18966 2.04191 0
M  V30 3214 H 324.228 1.05413 0.981029 0
M  V30 3215 H 326.181 0.908513 4.1149 0
M  V30 3216 H 324.905 0.000980011 3.266 0
M  V30 3217 H 323.564 2.11603 2.99366 0
M  V30 3218 H 323.212 0.648569 4.98801 0
M  V30 3219 H 322.912 2.36 5.38124 0
M  V30 3220 H 324.436 1.5833 5.89715 0
M  V30 3221 H 325.85 3.43888 4.58709 0
M  V30 3222 H 324.247 4.1788 4.30693 0
M  V30 3223 H 325.317 3.86462 2.92874 0
M  V30 3224 N 326.66 -1.06551 1.16123 0
M  V30 3225 C 327.937 -1.76097 0.85142 0
M  V30 3226 C 328.317 -2.00802 -0.6513 0
M  V30 3227 O 327.665 -1.63302 -1.59827 0
M  V30 3228 C 327.875 -3.06384 1.67122 0
M  V30 3229 C 329.223 -3.80585 1.88255 0
M  V30 3230 O 330.247 -3.16218 1.63966 0
M  V30 3231 O 329.106 -4.96212 2.2899 0
M  V30 3232 H 326.2 -0.765102 0.313923 0
M  V30 3233 H 328.746 -1.12844 1.26745 0
M  V30 3234 H 327.518 -2.84071 2.69108 0
M  V30 3235 H 327.141 -3.77371 1.25206 0
M  V30 3236 N 328.138 -0.959301 -1.25041 0
M  V30 3237 C 329.086 -0.474437 -2.2771 0
M  V30 3238 C 330.08 0.457697 -1.631 0
M  V30 3239 O 331.286 0.333912 -1.76876 0
M  V30 3240 H 327.661 -0.134936 -0.739795 0
M  V30 3241 H 329.632 -1.35251 -2.65988 0
M  V30 3242 C 328.381 0.227884 -3.46952 0
M  V30 3243 H 327.704 -0.480248 -3.96905 0
M  V30 3244 H 329.144 0.531091 -4.20661 0
M  V30 3245 C 327.603 1.452 -3.04004 0
M  V30 3246 O 328.133 2.54949 -3.10426 0
M  V30 3247 N 326.339 1.31502 -2.59144 0
M  V30 3248 H 325.886 0.422065 -2.54119 0
M  V30 3249 H 325.844 2.13521 -2.30773 0
M  V30 3250 N 329.616 1.39756 -0.72842 0
M  V30 3251 C 330.863 2.00645 -0.273487 0
M  V30 3252 C 331.191 1.57786 1.13727 0
M  V30 3253 O 330.446 0.794886 1.7883 0
M  V30 3254 C 330.745 3.56002 -0.315776 0
M  V30 3255 C 330.411 4.18489 -1.67863 0
M  V30 3256 C 329.073 4.3527 -2.05166 0
M  V30 3257 C 331.425 4.53219 -2.57375 0
M  V30 3258 C 328.753 4.84069 -3.31503 0
M  V30 3259 C 331.105 5.03423 -3.83077 0
M  V30 3260 C 329.769 5.18413 -4.20481 0
M  V30 3261 H 329.039 0.734211 -0.100076 0
M  V30 3262 H 331.686 1.6718 -0.933972 0
M  V30 3263 H 329.991 3.89452 0.428285 0
M  V30 3264 H 331.688 4.00963 0.0542575 0
M  V30 3265 H 328.278 4.05824 -1.37858 0
M  V30 3266 H 332.462 4.39878 -2.29827 0
M  V30 3267 H 327.718 4.93859 -3.60435 0
M  V30 3268 H 331.892 5.2927 -4.52599 0
M  V30 3269 H 329.519 5.55987 -5.18443 0
M  V30 3270 N 331.094 0.475555 1.50254 0
M  V30 3271 C 332.041 -0.316293 2.28622 0
M  V30 3272 C 333.011 -0.983227 1.33873 0
M  V30 3273 O 334.196 -0.994805 1.62814 0
M  V30 3274 C 331.336 -1.38975 3.1588 0
M  V30 3275 C 330.449 -0.737146 4.25664 0
M  V30 3276 C 329.584 -1.78887 5.00173 0
M  V30 3277 C 328.623 -1.11676 6.01826 0
M  V30 3278 N 327.76 -2.11154 6.69596 0
M  V30 3279 H 332.6 0.358297 2.95838 0
M  V30 3280 H 330.137 0.188541 1.45887 0
M  V30 3281 H 332.095 -2.02383 3.64825 0
M  V30 3282 H 330.725 -2.03344 2.50701 0
M  V30 3283 H 329.777 0.0096065 3.80399 0
M  V30 3284 H 331.089 -0.206816 4.98371 0
M  V30 3285 H 330.243 -2.49865 5.52859 0
M  V30 3286 H 328.982 -2.35302 4.27182 0
M  V30 3287 H 327.987 -0.392633 5.48396 0
M  V30 3288 H 329.212 -0.55945 6.76792 0
M  V30 3289 H 327.158 -2.66577 5.99394 0
M  V30 3290 H 327.075 -1.63118 7.38193 0
M  V30 3291 H 328.343 -2.81497 7.26897 0
M  V30 3292 N 332.573 -1.56217 0.208337 0
M  V30 3293 C 333.984 -1.84243 -0.301904 0
M  V30 3294 C 334.335 -1.12939 -1.60434 0
M  V30 3295 O 333.46 -0.39461 -2.12772 0
M  V30 3296 C 334.055 -3.34231 -0.554543 0
M  V30 3297 C 332.614 -3.62621 -1.00912 0
M  V30 3298 C 331.761 -2.77224 -0.064933 0
M  V30 3299 H 334.712 -1.52712 0.431833 0
M  V30 3300 H 334.733 -3.5372 -1.40223 0
M  V30 3301 H 334.245 -3.86099 0.393561 0
M  V30 3302 H 332.346 -3.16197 -1.97104 0
M  V30 3303 H 332.459 -4.7071 -0.892674 0
M  V30 3304 H 330.823 -2.48256 -0.56929 0
M  V30 3305 H 331.606 -3.31887 0.877851 0
M  V30 3306 N 334.051 0.0651679 -1.57465 0
M  V30 3307 C 334.961 1.09448 -2.07505 0
M  V30 3308 C 335.977 1.41974 -1.00595 0
M  V30 3309 O 337.153 1.52018 -1.32107 0
M  V30 3310 C 334.218 2.38689 -2.51453 0
M  V30 3311 C 333.279 2.13073 -3.72691 0
M  V30 3312 C 332.512 3.36152 -4.14533 0
M  V30 3313 O 332.735 4.45517 -3.56189 0
M  V30 3314 O 331.669 3.23974 -5.07272 0
M  V30 3315 H 335.495 0.69935 -2.95538 0
M  V30 3316 H 333.08 0.279752 -1.46757 0
M  V30 3317 H 334.962 3.14736 -2.80212 0
M  V30 3318 H 333.637 2.77568 -1.66546 0
M  V30 3319 H 332.544 1.34709 -3.49005 0
M  V30 3320 H 333.877 1.79071 -4.5847 0
M  V30 3321 N 335.529 1.53961 0.336706 0
M  V30 3322 C 336.439 1.85432 1.43708 0
M  V30 3323 C 337.455 0.745053 1.57242 0
M  V30 3324 O 338.631 1.03804 1.72588 0
M  V30 3325 C 335.696 2.06349 2.78605 0
M  V30 3326 C 334.757 3.30191 2.74358 0
M  V30 3327 C 333.99 3.50101 4.02822 0
M  V30 3328 O 334.213 2.7371 5.00439 0
M  V30 3329 O 333.147 4.43547 4.06878 0
M  V30 3330 H 336.973 2.78975 1.20028 0
M  V30 3331 H 334.558 1.39701 0.52952 0
M  V30 3332 H 336.44 2.21513 3.58483 0
M  V30 3333 H 335.115 1.15995 3.02203 0
M  V30 3334 H 334.022 3.20425 1.93078 0
M  V30 3335 H 335.355 4.2056 2.55715 0
M  V30 3336 N 337.007 -0.598083 1.45811 0
M  V30 3337 C 337.937 -1.71873 1.58057 0
M  V30 3338 C 338.918 -1.64533 0.431615 0
M  V30 3339 O 340.103 -1.82787 0.65595 0
M  V30 3340 C 337.233 -3.10495 1.55597 0
M  V30 3341 C 336.187 -3.32654 2.69305 0
M  V30 3342 C 335.513 -4.71646 2.51902 0
M  V30 3343 C 336.813 -3.21981 4.11248 0
M  V30 3344 H 338.507 -1.61881 2.51863 0
M  V30 3345 H 336.053 -0.777372 1.21214 0
M  V30 3346 H 338.006 -3.88699 1.6276 0
M  V30 3347 H 336.73 -3.2135 0.583255 0
M  V30 3348 H 335.389 -2.56843 2.61586 0
M  V30 3349 H 335.037 -4.79246 1.52748 0
M  V30 3350 H 334.737 -4.87426 3.2816 0
M  V30 3351 H 336.261 -5.52038 2.60933 0
M  V30 3352 H 337.675 -3.90049 4.20161 0
M  V30 3353 H 336.072 -3.49289 4.87972 0
M  V30 3354 H 337.142 -2.1928 4.32486 0
M  V30 3355 N 338.485 -1.33259 -0.841409 0
M  V30 3356 C 339.435 -1.19872 -1.93945 0
M  V30 3357 C 340.419 -0.102269 -1.60575 0
M  V30 3358 O 341.611 -0.330114 -1.73894 0
M  V30 3359 C 338.74 -0.937517 -3.30251 0
M  V30 3360 C 337.826 -2.07629 -3.69799 0
M  V30 3361 N 338.217 -3.32604 -3.81062 0
M  V30 3362 C 336.515 -1.98242 -3.9952 0
M  V30 3363 C 337.216 -4.07275 -4.15333 0
M  V30 3364 N 336.192 -3.35691 -4.27566 0
M  V30 3365 H 339.994 -2.14604 -2.00805 0
M  V30 3366 H 337.508 -1.2523 -1.03398 0
M  V30 3367 H 339.505 -0.822545 -4.08705 0
M  V30 3368 H 338.165 0.00128798 -3.247 0
M  V30 3369 H 339.176 -3.67382 -3.65035 0
M  V30 3370 H 335.853 -1.12005 -4.02195 0
M  V30 3371 H 337.243 -5.1511 -4.31406 0
M  V30 3372 N 339.963 1.05934 -1.16686 0
M  V30 3373 C 341.374 1.60263 -0.957745 0
M  V30 3374 C 341.725 1.89789 0.49745 0
M  V30 3375 O 340.85 1.67401 1.37135 0
M  V30 3376 C 341.445 2.91172 -1.73218 0
M  V30 3377 C 340.004 3.42188 -1.56794 0
M  V30 3378 C 339.151 2.16028 -1.73859 0
M  V30 3379 H 342.102 0.888392 -1.31504 0
M  V30 3380 H 342.123 3.60744 -1.21014 0
M  V30 3381 H 341.635 2.6965 -2.79124 0
M  V30 3382 H 339.736 3.68762 -0.533437 0
M  V30 3383 H 339.849 4.17273 -2.35414 0
M  V30 3384 H 338.213 2.26426 -1.16633 0
M  V30 3385 H 338.996 1.96985 -2.81161 0
M  V30 3386 N 341.441 0.965919 1.2453 0
M  V30 3387 C 342.669 0.644385 1.96609 0
M  V30 3388 C 343.084 -0.785823 1.71669 0
M  V30 3389 O 342.441 -1.52703 0.999399 0
M  V30 3390 C 342.492 0.907375 3.49927 0
M  V30 3391 O 342.213 2.28136 3.74013 0
M  V30 3392 C 343.714 0.599784 4.39224 0
M  V30 3393 H 340.934 0.240588 0.626385 0
M  V30 3394 H 343.478 1.29337 1.58405 0
M  V30 3395 H 341.633 0.304631 3.862 0
M  V30 3396 H 342.047 2.36002 4.68405 0
M  V30 3397 H 343.521 0.834263 5.45659 0
M  V30 3398 H 343.998 -0.465921 4.36722 0
M  V30 3399 H 344.604 1.18235 4.08535 0
M  V30 3400 N 342.919 -1.39368 0.735821 0
M  V30 3401 C 343.882 -2.2896 0.104874 0
M  V30 3402 C 344.882 -1.46347 -0.666274 0
M  V30 3403 O 346.072 -1.67014 -0.49517 0
M  V30 3404 C 343.204 -3.29857 -0.860656 0
M  V30 3405 H 344.397 -2.86259 0.894205 0
M  V30 3406 H 341.95 -1.48029 0.501704 0
M  V30 3407 H 342.685 -2.77615 -1.67631 0
M  V30 3408 H 342.47 -3.9087 -0.310327 0
M  V30 3409 H 343.96 -3.96893 -1.29867 0
M  V30 3410 N 344.397 -0.483516 -1.5 0
M  V30 3411 C 345.625 0.0644831 -2.06799 0
M  V30 3412 C 346.04 1.32399 -1.34596 0
M  V30 3413 O 345.397 1.77626 -0.418946 0
M  V30 3414 C 345.448 0.339927 -3.59898 0
M  V30 3415 O 345.169 -0.869635 -4.29382 0
M  V30 3416 C 346.67 0.933515 -4.33359 0
M  V30 3417 H 343.89 -0.0126333 -0.670881 0
M  V30 3418 H 346.434 -0.675864 -1.93009 0
M  V30 3419 H 344.589 1.03022 -3.7345 0
M  V30 3420 H 345.003 -0.62179 -5.20801 0
M  V30 3421 H 346.477 1.07593 -5.41413 0
M  V30 3422 H 346.954 1.92685 -3.94676 0
M  V30 3423 H 347.56 0.281221 -4.24369 0
M  V30 3424 N 345.875 1.56104 -0.216619 0
M  V30 3425 C 347.121 1.98466 0.417033 0
M  V30 3426 C 347.454 1.10403 1.59765 0
M  V30 3427 O 346.729 0.160632 1.93836 0
M  V30 3428 C 347.012 3.49769 0.85637 0
M  V30 3429 C 346.865 4.48606 -0.327546 0
M  V30 3430 C 348.184 4.05339 1.7143 0
M  V30 3431 H 345.303 0.721551 0.150112 0
M  V30 3432 H 347.945 1.87423 -0.311864 0
M  V30 3433 H 346.095 3.5931 1.47745 0
M  V30 3434 H 347.767 4.5108 -0.965618 0
M  V30 3435 H 346.01 4.22682 -0.975805 0
M  V30 3436 H 346.681 5.51995 0.0227149 0
M  V30 3437 H 349.157 3.98712 1.19031 0
M  V30 3438 H 348.033 5.11533 1.99061 0
M  V30 3439 H 348.294 3.51918 2.67593 0
M  V30 3440 N 347.353 -0.0568162 1.57498 0
M  V30 3441 C 348.283 -1.06593 2.0775 0
M  V30 3442 C 349.264 -1.39448 0.974082 0
M  V30 3443 O 350.449 -1.48815 1.24771 0
M  V30 3444 C 347.579 -2.37509 2.5339 0
M  V30 3445 C 346.533 -2.1897 3.67745 0
M  V30 3446 C 345.859 -3.55402 3.99492 0
M  V30 3447 C 347.159 -1.59859 4.97235 0
M  V30 3448 H 348.853 -0.647706 2.9231 0
M  V30 3449 H 346.399 -0.310116 1.40621 0
M  V30 3450 H 348.352 -3.08409 2.87162 0
M  V30 3451 H 347.076 -2.8134 1.65878 0
M  V30 3452 H 345.735 -1.50508 3.3428 0
M  V30 3453 H 345.383 -3.9683 3.09088 0
M  V30 3454 H 345.083 -3.43831 4.76502 0
M  V30 3455 H 346.607 -4.27708 4.35773 0
M  V30 3456 H 348.021 -2.20642 5.29141 0
M  V30 3457 H 346.418 -1.58942 5.78669 0
M  V30 3458 H 347.488 -0.561506 4.81638 0
M  V30 3459 N 348.832 -1.54138 -0.328536 0
M  V30 3460 C 349.779 -1.83176 -1.40411 0
M  V30 3461 C 350.749 -0.678494 -1.5161 0
M  V30 3462 O 351.934 -0.92443 -1.6691 0
M  V30 3463 C 349.074 -2.06035 -2.76846 0
M  V30 3464 C 348.187 -3.33727 -2.74318 0
M  V30 3465 C 347.322 -3.46574 -4.02567 0
M  V30 3466 C 346.361 -4.68159 -3.94327 0
M  V30 3467 N 345.498 -4.77959 -5.14296 0
M  V30 3468 H 350.338 -2.74938 -1.14948 0
M  V30 3469 H 347.875 -1.36166 -0.556538 0
M  V30 3470 H 349.833 -2.1728 -3.56153 0
M  V30 3471 H 348.463 -1.1757 -3.00628 0
M  V30 3472 H 347.515 -3.31246 -1.8703 0
M  V30 3473 H 348.827 -4.23139 -2.64111 0
M  V30 3474 H 347.981 -3.57333 -4.90304 0
M  V30 3475 H 346.72 -2.55245 -4.15574 0
M  V30 3476 H 345.725 -4.57461 -3.04974 0
M  V30 3477 H 346.95 -5.60868 -3.82889 0
M  V30 3478 H 344.896 -3.89544 -5.27818 0
M  V30 3479 H 344.813 -5.6133 -5.06404 0
M  V30 3480 H 346.081 -4.93044 -6.03761 0
M  V30 3481 N 350.31 0.590341 -1.46126 0
M  V30 3482 C 351.273 1.68194 -1.55703 0
M  V30 3483 C 352.273 1.54808 -0.434868 0
M  V30 3484 O 353.463 1.59564 -0.698928 0
M  V30 3485 C 350.595 3.07575 -1.47005 0
M  V30 3486 H 351.788 1.61064 -2.52979 0
M  V30 3487 H 349.341 0.807541 -1.33823 0
M  V30 3488 H 350.076 3.20268 -0.509785 0
M  V30 3489 H 349.861 3.187 -2.28414 0
M  V30 3490 H 351.351 3.87055 -1.56776 0
M  V30 3491 N 351.788 1.33704 0.83433 0
M  V30 3492 C 352.72 1.20172 1.9517 0
M  V30 3493 C 353.733 0.131572 1.62267 0
M  V30 3494 O 354.922 0.382406 1.74356 0
M  V30 3495 C 352.022 0.821716 3.28787 0
M  V30 3496 C 351.195 1.98446 3.89792 0
M  V30 3497 C 350.254 1.58469 5.01771 0
M  V30 3498 O 349.28 2.29968 5.20676 0
M  V30 3499 N 350.482 0.492291 5.78409 0
M  V30 3500 H 353.247 2.16429 2.07313 0
M  V30 3501 H 350.808 1.26509 1.0103 0
M  V30 3502 H 352.8 0.536291 4.01131 0
M  V30 3503 H 351.37 -0.0503058 3.1256 0
M  V30 3504 H 350.59 2.43526 3.09982 0
M  V30 3505 H 351.878 2.76236 4.27283 0
M  V30 3506 H 351.276 -0.102349 5.65607 0
M  V30 3507 H 349.833 0.266555 6.51255 0
M  V30 3508 N 353.266 -1.05314 1.17247 0
M  V30 3509 C 354.513 -1.78293 0.960091 0
M  V30 3510 C 354.841 -1.87658 -0.51136 0
M  V30 3511 O 354.096 -1.3718 -1.39571 0
M  V30 3512 C 354.395 -3.2229 1.54479 0
M  V30 3513 C 354.061 -3.32987 3.04024 0
M  V30 3514 C 352.723 -3.35613 3.44844 0
M  V30 3515 C 355.075 -3.34102 4.00031 0
M  V30 3516 C 352.403 -3.36982 4.8027 0
M  V30 3517 C 354.755 -3.3701 5.35357 0
M  V30 3518 C 353.419 -3.37923 5.75642 0
M  V30 3519 H 352.689 -0.652422 0.351322 0
M  V30 3520 H 355.336 -1.23782 1.46117 0
M  V30 3521 H 353.641 -3.7972 0.965391 0
M  V30 3522 H 355.338 -3.77376 1.35603 0
M  V30 3523 H 351.928 -3.31655 2.71483 0
M  V30 3524 H 356.112 -3.31276 3.69554 0
M  V30 3525 H 351.368 -3.35999 5.10798 0
M  V30 3526 H 355.542 -3.36822 6.09528 0
M  V30 3527 H 353.169 -3.38738 6.80559 0
M  V30 3528 N 354.744 -0.972509 -1.24016 0
M  V30 3529 C 356.155 -0.67517 -1.74064 0
M  V30 3530 C 356.506 0.808939 -1.78747 0
M  V30 3531 O 355.631 1.63286 -1.42009 0
M  V30 3532 C 356.226 -1.21889 -3.16115 0
M  V30 3533 C 354.785 -0.971358 -3.6365 0
M  V30 3534 C 353.932 -1.35134 -2.42145 0
M  V30 3535 H 356.883 -1.14727 -1.09651 0
M  V30 3536 H 356.904 -0.587489 -3.75937 0
M  V30 3537 H 356.416 -2.29906 -3.12674 0
M  V30 3538 H 354.517 0.0930686 -3.72484 0
M  V30 3539 H 354.63 -1.62039 -4.50866 0
M  V30 3540 H 352.994 -0.769751 -2.4279 0
M  V30 3541 H 353.777 -2.4411 -2.41381 0
M  V30 3542 N 356.222 1.38976 -0.743202 0
M  V30 3543 C 357.447 2.05161 -0.303936 0
M  V30 3544 C 357.872 1.55677 1.05576 0
M  V30 3545 O 357.23 0.704131 1.67068 0
M  V30 3546 C 357.278 3.59138 -0.324373 0
M  V30 3547 O 356.382 4.06668 0.685204 0
M  V30 3548 H 355.723 0.649815 -0.136518 0
M  V30 3549 H 358.253 1.77852 -1.01142 0
M  V30 3550 H 358.263 4.07639 -0.171618 0
M  V30 3551 H 356.938 3.94515 -1.31647 0
M  V30 3552 H 355.515 3.69561 0.497913 0
M  V30 3553 N 357.7 0.491464 1.49741 0
M  V30 3554 C 358.946 -0.0565092 2.02721 0
M  V30 3555 C 359.279 -1.37522 1.37118 0
M  V30 3556 O 358.554 -1.87866 0.503645 0
M  V30 3557 C 358.837 -0.219051 3.59433 0
M  V30 3558 C 358.69 1.12211 4.35579 0
M  V30 3559 C 360.009 -0.964157 4.29409 0
M  V30 3560 H 357.128 -0.0190627 0.736753 0
M  V30 3561 H 359.77 0.641021 1.7886 0
M  V30 3562 H 357.92 -0.813165 3.79895 0
M  V30 3563 H 359.592 1.75437 4.26637 0
M  V30 3564 H 357.835 1.71377 3.98513 0
M  V30 3565 H 358.506 0.961794 5.43556 0
M  V30 3566 H 360.982 -0.460378 4.13545 0
M  V30 3567 H 359.858 -1.04671 5.38828 0
M  V30 3568 H 360.119 -2.00563 3.93988 0
M  V30 3569 N 359.178 -1.55987 0.224894 0
M  V30 3570 C 360.141 -2.19178 -0.670348 0
M  V30 3571 C 361.141 -1.15461 -1.11917 0
M  V30 3572 O 362.331 -1.40675 -1.02743 0
M  V30 3573 C 359.463 -2.81777 -1.9187 0
M  V30 3574 H 360.656 -2.99662 -0.119364 0
M  V30 3575 H 358.209 -1.5628 -0.0247128 0
M  V30 3576 H 358.944 -2.05172 -2.51147 0
M  V30 3577 H 358.729 -3.57732 -1.60531 0
M  V30 3578 H 360.219 -3.30205 -2.55645 0
M  V30 3579 N 360.656 0.0484629 -1.57525 0
M  V30 3580 C 361.902 0.744226 -1.88651 0
M  V30 3581 C 362.235 1.76029 -0.820212 0
M  V30 3582 O 361.51 1.93782 0.166985 0
M  V30 3583 C 361.793 1.43128 -3.30434 0
M  V30 3584 C 361.646 0.43005 -4.47739 0
M  V30 3585 C 362.965 2.37031 -3.70816 0
M  V30 3586 H 360.084 0.269089 -0.68612 0
M  V30 3587 H 362.726 0.00713532 -1.89999 0
M  V30 3588 H 360.876 2.05956 -3.29415 0
M  V30 3589 H 362.548 -0.194816 -4.60888 0
M  V30 3590 H 360.791 -0.252522 -4.33064 0
M  V30 3591 H 361.462 0.948874 -5.43783 0
M  V30 3592 H 363.938 1.84263 -3.73077 0
M  V30 3593 H 362.814 2.82094 -4.70865 0
M  V30 3594 H 363.075 3.22864 -3.02012 0
M  V30 3595 N 362.134 1.5431 0.320358 0
M  V30 3596 C 363.044 1.86946 1.41734 0
M  V30 3597 C 364.06 0.761689 1.56443 0
M  V30 3598 O 365.236 1.05629 1.71477 0
M  V30 3599 C 362.301 2.09293 2.76401 0
M  V30 3600 C 361.362 3.33082 2.70841 0
M  V30 3601 C 360.595 3.54353 3.99086 0
M  V30 3602 O 360.818 2.79002 4.97508 0
M  V30 3603 O 359.752 4.47838 4.0215 0
M  V30 3604 H 363.578 2.80232 1.17062 0
M  V30 3605 H 361.163 1.40255 0.514673 0
M  V30 3606 H 363.045 2.25303 3.56113 0
M  V30 3607 H 361.72 1.19194 3.00956 0
M  V30 3608 H 360.627 3.22454 1.89668 0
M  V30 3609 H 361.96 4.23249 2.5124 0
M  V30 3610 N 363.613 -0.582584 1.46437 0
M  V30 3611 C 364.576 -1.67366 1.56592 0
M  V30 3612 C 365.576 -1.54575 0.443072 0
M  V30 3613 O 366.766 -1.59191 0.707381 0
M  V30 3614 C 363.898 -3.06791 1.48634 0
M  V30 3615 H 365.091 -1.5972 2.5383 0
M  V30 3616 H 362.644 -0.800432 1.34249 0
M  V30 3617 H 363.379 -3.19993 0.526763 0
M  V30 3618 H 363.164 -3.17484 2.30101 0
M  V30 3619 H 364.654 -3.86218 1.58826 0
M  V30 3620 N 365.091 -1.34144 -0.827227 0
M  V30 3621 C 366.316 -1.29476 -1.62021 0
M  V30 3622 C 366.741 0.129292 -1.87655 0
M  V30 3623 O 366.099 1.08967 -1.449 0
M  V30 3624 C 366.147 -2.08702 -2.94068 0
M  V30 3625 O 365.251 -1.45359 -3.85933 0
M  V30 3626 H 364.592 -0.444881 -0.492927 0
M  V30 3627 H 367.122 -1.76882 -1.02829 0
M  V30 3628 H 367.132 -2.19898 -3.43669 0
M  V30 3629 H 365.807 -3.12241 -2.74734 0
M  V30 3630 H 364.384 -1.42879 -3.44442 0
M  V30 3631 N 366.569 1.04691 -1.17803 0
M  V30 3632 C 367.817 1.7743 -0.967617 0
M  V30 3633 C 368.138 1.88359 0.504574 0
M  V30 3634 O 367.408 1.40402 1.36617 0
M  V30 3635 H 365.988 0.657242 -0.355024 0
M  V30 3636 H 368.65 1.2638 -1.48371 0
M  V30 3637 H 367.746 2.78924 -1.40027 0
M  V30 3638 N 368.047 0.979072 1.23499 0
M  V30 3639 C 369.295 0.645941 1.91499 0
M  V30 3640 C 369.616 -0.822948 1.76784 0
M  V30 3641 O 368.886 -1.58854 1.14639 0
M  V30 3642 H 367.466 0.235919 0.708767 0
M  V30 3643 H 370.128 1.2426 1.50152 0
M  V30 3644 H 369.224 0.896411 2.9895 0
M  V30 3645 N 369.525 -1.3858 0.750561 0
M  V30 3646 C 370.774 -1.99424 0.302172 0
M  V30 3647 C 371.087 -1.60254 -1.12152 0
M  V30 3648 O 372.293 -2.14046 -1.67023 0
M  V30 3649 C 370.749 -3.56558 0.489307 0
M  V30 3650 C 370.357 -4.04682 1.92189 0
M  V30 3651 C 372.101 -4.24374 0.103478 0
M  V30 3652 C 370.008 -5.54446 2.05775 0
M  V30 3653 H 368.938 -0.746046 0.10923 0
M  V30 3654 H 371.589 -1.58383 0.92667 0
M  V30 3655 H 369.971 -3.95472 -0.204329 0
M  V30 3656 H 371.145 -3.77065 2.64875 0
M  V30 3657 H 369.46 -3.4958 2.26236 0
M  V30 3658 H 372.057 -5.34384 0.183787 0
M  V30 3659 H 372.4 -4.05468 -0.943481 0
M  V30 3660 H 372.933 -3.90688 0.748854 0
M  V30 3661 H 369.672 -5.78252 3.08714 0
M  V30 3662 H 369.192 -5.83816 1.37546 0
M  V30 3663 H 370.871 -6.20099 1.84626 0
M  V30 3664 N 371.003 -0.499398 -1.49478 0
M  V30 3665 C 372.231 0.0425456 -2.06856 0
M  V30 3666 C 372.646 1.30964 -1.35992 0
M  V30 3667 O 372.003 1.77172 -0.437762 0
M  V30 3668 C 372.054 0.301735 -3.60239 0
M  V30 3669 O 371.775 -0.915127 -4.28436 0
M  V30 3670 C 373.276 0.887499 -4.34325 0
M  V30 3671 H 370.496 -0.0197482 -0.670709 0
M  V30 3672 H 373.04 -0.696297 -1.92281 0
M  V30 3673 H 371.195 0.990556 -3.74522 0
M  V30 3674 H 371.609 -0.676993 -5.20113 0
M  V30 3675 H 373.083 1.01845 -5.42523 0
M  V30 3676 H 373.56 1.88488 -3.96698 0
M  V30 3677 H 374.166 0.236196 -4.24644 0
M  V30 3678 N 372.481 1.55866 -0.233164 0
M  V30 3679 C 373.411 2.23783 0.666599 0
M  V30 3680 C 374.392 1.21343 1.19205 0
M  V30 3681 O 375.577 1.4996 1.23392 0
M  V30 3682 C 372.707 2.92671 1.86978 0
M  V30 3683 C 371.661 4.01682 1.47768 0
M  V30 3684 C 370.987 4.57926 2.76058 0
M  V30 3685 C 372.287 5.18126 0.658993 0
M  V30 3686 H 373.981 2.99232 0.100306 0
M  V30 3687 H 371.527 1.43924 0.046804 0
M  V30 3688 H 373.48 3.3888 2.50476 0
M  V30 3689 H 372.204 2.14688 2.46123 0
M  V30 3690 H 370.863 3.56222 0.866106 0
M  V30 3691 H 370.511 3.76659 3.33372 0
M  V30 3692 H 370.211 5.31505 2.50552 0
M  V30 3693 H 371.735 5.06859 3.40479 0
M  V30 3694 H 373.149 5.60644 1.19795 0
M  V30 3695 H 371.546 5.98009 0.500552 0
M  V30 3696 H 372.616 4.83763 -0.331856 0
M  V30 3697 N 373.959 -0.0401083 1.57549 0
M  V30 3698 C 375.236 -0.767917 1.79896 0
M  V30 3699 C 375.616 -1.9416 0.82856 0
M  V30 3700 O 374.964 -2.2812 -0.131671 0
M  V30 3701 C 375.174 -1.2113 3.27305 0
M  V30 3702 C 376.522 -1.63175 3.91994 0
M  V30 3703 O 377.546 -1.30616 3.31388 0
M  V30 3704 O 376.405 -2.23565 4.98679 0
M  V30 3705 H 373.499 -0.370441 0.739393 0
M  V30 3706 H 376.045 -0.017737 1.69691 0
M  V30 3707 H 374.817 -0.372937 3.89519 0
M  V30 3708 H 374.44 -2.02183 3.42356 0
M  V30 3709 N 375.437 -1.54477 -0.31217 0
M  V30 3710 C 376.385 -1.85395 -1.40469 0
M  V30 3711 C 377.379 -0.726749 -1.53019 0
M  V30 3712 O 378.585 -0.910582 -1.55269 0
M  V30 3713 H 374.96 -0.587845 -0.46898 0
M  V30 3714 H 376.931 -2.76736 -1.11623 0
M  V30 3715 C 375.68 -2.10811 -2.76503 0
M  V30 3716 H 375.003 -2.97014 -2.67625 0
M  V30 3717 H 376.443 -2.3639 -3.51988 0
M  V30 3718 C 374.902 -0.903165 -3.24568 0
M  V30 3719 O 375.432 -0.118085 -4.01526 0
M  V30 3720 N 373.638 -0.711634 -2.81752 0
M  V30 3721 H 373.185 -1.35171 -2.19286 0
M  V30 3722 H 373.143 0.0930473 -3.14262 0
M  V30 3723 N 376.915 0.57481 -1.46744 0
M  V30 3724 C 377.845 1.69337 -1.60771 0
M  V30 3725 C 378.826 1.63825 -0.457736 0
M  V30 3726 O 380.011 1.8172 -0.684947 0
M  V30 3727 C 377.141 3.0798 -1.60517 0
M  V30 3728 C 376.095 3.28327 -2.74564 0
M  V30 3729 C 375.421 4.67578 -2.59373 0
M  V30 3730 C 376.721 3.15398 -4.16319 0
M  V30 3731 H 378.415 1.57853 -2.54407 0
M  V30 3732 H 375.961 0.75799 -1.22436 0
M  V30 3733 H 377.914 3.86061 -1.68923 0
M  V30 3734 H 376.638 3.20381 -0.634305 0
M  V30 3735 H 375.297 2.52649 -2.65639 0
M  V30 3736 H 374.945 4.76755 -1.60353 0
M  V30 3737 H 374.645 4.82144 -3.35873 0
M  V30 3738 H 376.169 5.47817 -2.69682 0
M  V30 3739 H 377.583 3.83315 -4.26313 0
M  V30 3740 H 375.98 3.41482 -4.93468 0
M  V30 3741 H 377.05 2.12372 -4.3592 0
M  V30 3742 N 378.394 1.34581 0.820102 0
M  V30 3743 C 379.805 1.24298 1.39309 0
M  V30 3744 C 380.156 -0.130351 1.95767 0
M  V30 3745 O 379.281 -1.0308 1.90272 0
M  V30 3746 C 379.876 2.25054 2.53251 0
M  V30 3747 C 378.435 2.18552 3.0645 0
M  V30 3748 C 377.582 2.11503 1.79337 0
M  V30 3749 H 380.533 1.45906 0.624262 0
M  V30 3750 H 380.554 1.86917 3.31425 0
M  V30 3751 H 380.066 3.24996 2.1213 0
M  V30 3752 H 378.167 1.21976 3.52069 0
M  V30 3753 H 378.28 3.0993 3.65349 0
M  V30 3754 H 376.644 1.57268 2.00347 0
M  V30 3755 H 377.427 3.13284 1.40386 0
M  V30 3756 N 379.872 -1.04064 1.18357 0
M  V30 3757 C 380.804 -2.12114 0.868358 0
M  V30 3758 C 381.817 -1.62247 -0.134045 0
M  V30 3759 O 383.006 -1.78253 0.0937933 0
M  V30 3760 C 380.106 -3.37773 0.276132 0
M  V30 3761 C 379.279 -4.16874 1.3242 0
M  V30 3762 C 378.338 -5.20861 0.747662 0
M  V30 3763 O 377.364 -5.51141 1.42239 0
M  V30 3764 N 378.566 -5.78715 -0.454823 0
M  V30 3765 H 381.331 -2.39748 1.79836 0
M  V30 3766 H 378.892 -1.20258 1.08396 0
M  V30 3767 H 380.884 -4.04513 -0.123133 0
M  V30 3768 H 379.454 -3.07581 -0.557895 0
M  V30 3769 H 378.674 -3.45456 1.89878 0
M  V30 3770 H 379.962 -4.66516 2.03078 0
M  V30 3771 H 379.36 -5.56415 -1.02073 0
M  V30 3772 H 377.917 -6.46921 -0.79601 0
M  V30 3773 N 381.35 -0.985608 -1.22978 0
M  V30 3774 C 382.597 -0.657386 -1.91532 0
M  V30 3775 C 382.925 0.809707 -1.76845 0
M  V30 3776 O 382.18 1.60021 -1.12658 0
M  V30 3777 C 382.479 -1.00014 -3.43121 0
M  V30 3778 C 382.145 -2.4583 -3.77993 0
M  V30 3779 C 380.807 -2.85679 -3.87222 0
M  V30 3780 C 383.159 -3.40378 -3.94705 0
M  V30 3781 C 380.487 -4.19081 -4.10595 0
M  V30 3782 C 382.839 -4.73429 -4.1958 0
M  V30 3783 C 381.503 -5.1303 -4.27032 0
M  V30 3784 H 380.773 -0.240555 -0.700867 0
M  V30 3785 H 383.42 -1.24044 -1.45895 0
M  V30 3786 H 381.725 -0.335072 -3.90365 0
M  V30 3787 H 383.422 -0.724322 -3.94404 0
M  V30 3788 H 380.012 -2.13939 -3.71387 0
M  V30 3789 H 384.196 -3.10766 -3.8696 0
M  V30 3790 H 379.452 -4.49362 -4.14589 0
M  V30 3791 H 383.626 -5.46644 -4.31455 0
M  V30 3792 H 381.253 -6.16418 -4.44896 0
M  V30 3793 N 382.828 1.3818 -0.7579 0
M  V30 3794 C 384.068 2.01864 -0.320968 0
M  V30 3795 C 384.432 1.58863 1.07827 0
M  V30 3796 O 385.633 2.14908 1.61456 0
M  V30 3797 C 383.904 3.54626 -0.44446 0
M  V30 3798 S 385.463 4.38706 -0.0907467 0
M  V30 3799 H 382.281 0.700056 -0.124268 0
M  V30 3800 H 384.883 1.68611 -0.989468 0
M  V30 3801 H 383.587 3.83411 -1.4637 0
M  V30 3802 H 383.118 3.92661 0.241073 0
M  V30 3803 H 385.133 4.83435 1.11826 0
M  V30 3804 N 384.306 0.507319 1.49211 0
M  V30 3805 C 385.554 -0.0348839 2.0207 0
M  V30 3806 C 385.875 -1.36898 1.38866 0
M  V30 3807 O 385.145 -1.88133 0.546151 0
M  V30 3808 H 383.725 -0.0158812 0.746831 0
M  V30 3809 H 386.387 0.665998 1.83168 0
M  V30 3810 H 385.483 -0.159917 3.1169 0
M  V30 3811 N 385.784 -1.5574 0.241426 0
M  V30 3812 C 387.195 -1.84842 -0.262755 0
M  V30 3813 C 387.546 -1.16317 -1.58003 0
M  V30 3814 O 386.671 -0.439653 -2.11887 0
M  V30 3815 C 387.266 -3.35332 -0.483523 0
M  V30 3816 C 385.825 -3.6468 -0.931977 0
M  V30 3817 C 384.972 -2.77299 -0.0061151 0
M  V30 3818 H 387.923 -1.51761 0.464129 0
M  V30 3819 H 387.944 -3.56615 -1.32688 0
M  V30 3820 H 387.456 -3.85178 0.47537 0
M  V30 3821 H 385.557 -3.20307 -1.90353 0
M  V30 3822 H 385.67 -4.72498 -0.792628 0
M  V30 3823 H 384.034 -2.49408 -0.516503 0
M  V30 3824 H 384.817 -3.2995 0.948052 0
M  V30 3825 N 387.262 0.0317525 -1.57568 0
M  V30 3826 C 388.212 1.04101 -2.02847 0
M  V30 3827 C 389.196 1.3219 -0.917317 0
M  V30 3828 O 390.388 1.31819 -1.18121 0
M  V30 3829 C 387.517 2.34295 -2.5092 0
M  V30 3830 C 386.603 2.09308 -3.68851 0
M  V30 3831 N 386.994 1.5437 -4.81667 0
M  V30 3832 C 385.292 2.39604 -3.76172 0
M  V30 3833 C 385.993 1.45126 -5.63306 0
M  V30 3834 N 384.969 1.92589 -5.08341 0
M  V30 3835 H 388.771 0.610217 -2.87495 0
M  V30 3836 H 386.285 0.238108 -1.60645 0
M  V30 3837 H 388.282 3.07404 -2.81617 0
M  V30 3838 H 386.942 2.78055 -1.67677 0
M  V30 3839 H 387.953 1.22678 -5.03161 0
M  V30 3840 H 384.63 2.86457 -3.03724 0
M  V30 3841 H 386.02 1.03163 -6.63933 0
M  V30 3842 N 388.74 1.54641 0.303973 0
M  V30 3843 C 389.989 1.7299 1.03717 0
M  V30 3844 C 390.302 0.521168 1.88529 0
M  V30 3845 O 391.508 0.586408 2.65092 0
M  V30 3846 C 389.964 3.06051 1.89369 0
M  V30 3847 C 389.572 4.34393 1.09574 0
M  V30 3848 C 391.316 3.3376 2.62306 0
M  V30 3849 C 389.223 5.58506 1.94486 0
M  V30 3850 H 388.153 0.64473 0.390947 0
M  V30 3851 H 390.804 1.81124 0.294328 0
M  V30 3852 H 389.186 2.91874 2.67629 0
M  V30 3853 H 390.36 4.59396 0.359485 0
M  V30 3854 H 388.675 4.13597 0.482324 0
M  V30 3855 H 391.272 4.23687 3.26181 0
M  V30 3856 H 391.615 2.52503 3.3098 0
M  V30 3857 H 392.148 3.48894 1.91097 0
M  V30 3858 H 388.887 6.42422 1.30287 0
M  V30 3859 H 388.407 5.37694 2.65792 0
M  V30 3860 H 390.086 5.95651 2.52605 0
M  V30 3861 N 390.218 -0.567019 1.47046 0
M  V30 3862 C 391.495 -1.3276 1.43646 0
M  V30 3863 C 391.875 -2.1071 0.128186 0
M  V30 3864 O 391.223 -2.10441 -0.890326 0
M  V30 3865 C 391.433 -2.2404 2.67595 0
M  V30 3866 C 392.781 -2.85372 3.14401 0
M  V30 3867 O 393.805 -2.34346 2.68254 0
M  V30 3868 O 392.664 -3.78091 3.946 0
M  V30 3869 H 389.758 -0.597293 0.571988 0
M  V30 3870 H 392.304 -0.586735 1.59234 0
M  V30 3871 H 391.076 -1.65975 3.54356 0
M  V30 3872 H 390.699 -3.05439 2.54544 0
M  V30 3873 N 391.696 -1.35014 -0.812953 0
M  V30 3874 C 392.942 -1.2812 -1.57204 0
M  V30 3875 C 393.275 0.145869 -1.93651 0
M  V30 3876 O 392.55 1.0937 -1.60836 0
M  V30 3877 C 392.833 -2.18162 -2.86492 0
M  V30 3878 C 392.686 -3.69454 -2.56561 0
M  V30 3879 C 394.005 -2.07439 -3.88145 0
M  V30 3880 H 391.124 -0.466746 -0.570366 0
M  V30 3881 H 393.766 -1.65357 -0.935783 0
M  V30 3882 H 391.916 -1.86535 -3.40789 0
M  V30 3883 H 393.588 -4.11493 -2.08497 0
M  V30 3884 H 391.831 -3.9005 -1.89851 0
M  V30 3885 H 392.502 -4.27835 -3.48799 0
M  V30 3886 H 394.978 -2.35228 -3.4323 0
M  V30 3887 H 393.854 -2.7265 -4.76396 0
M  V30 3888 H 394.115 -1.05439 -4.29343 0
M  V30 3889 N 393.175 1.03435 -1.18907 0
M  V30 3890 C 394.424 1.76143 -0.982669 0
M  V30 3891 C 394.737 1.89416 0.487953 0
M  V30 3892 O 395.943 2.59041 0.813036 0
M  V30 3893 C 394.399 3.16722 -1.70924 0
M  V30 3894 C 394.007 3.11522 -3.21959 0
M  V30 3895 C 395.751 3.93764 -1.58588 0
M  V30 3896 C 393.658 4.46999 -3.87228 0
M  V30 3897 H 392.588 0.660292 -0.364047 0
M  V30 3898 H 395.239 1.158 -1.42347 0
M  V30 3899 H 393.621 3.775 -1.19623 0
M  V30 3900 H 394.795 2.60158 -3.80335 0
M  V30 3901 H 393.11 2.47978 -3.34508 0
M  V30 3902 H 395.707 4.93963 -2.04707 0
M  V30 3903 H 396.05 4.12794 -0.539142 0
M  V30 3904 H 396.583 3.39576 -2.07203 0
M  V30 3905 H 393.322 4.33174 -4.91976 0
M  V30 3906 H 392.842 4.98441 -3.33642 0
M  V30 3907 H 394.521 5.15898 -3.90459 0
M  V30 3908 N 394.653 0.992116 1.22453 0
M  V30 3909 C 395.878 0.685644 1.95739 0
M  V30 3910 C 396.303 -0.743 1.72804 0
M  V30 3911 O 395.661 -1.50778 1.00676 0
M  V30 3912 C 395.709 0.996293 3.46564 0
M  V30 3913 O 394.813 0.0945512 4.12292 0
M  V30 3914 H 394.154 0.256694 0.612376 0
M  V30 3915 H 396.684 1.32888 1.5557 0
M  V30 3916 H 396.694 0.93781 3.97076 0
M  V30 3917 H 395.369 2.03733 3.62582 0
M  V30 3918 H 393.946 0.208451 3.72317 0
M  V30 3919 N 396.131 -1.37776 0.765217 0
M  V30 3920 C 397.064 -2.28008 0.0935025 0
M  V30 3921 C 398.042 -1.45985 -0.716047 0
M  V30 3922 O 399.226 -1.75331 -0.692203 0
M  V30 3923 C 396.353 -3.27228 -0.874052 0
M  V30 3924 C 395.399 -4.26239 -0.149307 0
M  V30 3925 S 396.232 -5.22827 1.15809 0
M  V30 3926 C 397.388 -6.256 0.193906 0
M  V30 3927 H 397.621 -2.84631 0.858637 0
M  V30 3928 H 395.154 -1.43952 0.558313 0
M  V30 3929 H 397.112 -3.84902 -1.42691 0
M  V30 3930 H 395.773 -2.69565 -1.61225 0
M  V30 3931 H 394.966 -4.96213 -0.88254 0
M  V30 3932 H 394.568 -3.7252 0.332366 0
M  V30 3933 H 396.86 -6.74508 -0.636011 0
M  V30 3934 H 397.803 -7.02838 0.861638 0
M  V30 3935 H 398.211 -5.64173 -0.191975 0
M  V30 3936 N 397.609 -0.515225 -1.4894 0
M  V30 3937 C 398.857 0.0241671 -2.02086 0
M  V30 3938 C 399.178 1.3616 -1.3959 0
M  V30 3939 O 398.448 1.87841 -0.556121 0
M  V30 3940 H 397.028 0.0119203 -0.746905 0
M  V30 3941 H 399.69 -0.675702 -1.82812 0
M  V30 3942 H 398.786 0.143385 -3.1177 0
M  V30 3943 N 399.087 1.5561 -0.249682 0
M  V30 3944 C 400.02 2.17537 0.689408 0
M  V30 3945 C 400.998 1.12829 1.17083 0
M  V30 3946 O 402.182 1.41229 1.24846 0
M  V30 3947 C 399.309 2.77828 1.93725 0
M  V30 3948 C 398.355 3.95615 1.59346 0
M  V30 3949 S 399.188 5.30988 0.69367 0
M  V30 3950 C 400.344 5.94734 1.95046 0
M  V30 3951 H 400.577 2.96852 0.163142 0
M  V30 3952 H 398.11 1.54362 -0.0341166 0
M  V30 3953 H 400.068 3.13199 2.65361 0
M  V30 3954 H 398.729 1.98454 2.43465 0
M  V30 3955 H 397.922 4.364 2.52132 0
M  V30 3956 H 397.524 3.61535 0.957512 0
M  V30 3957 H 399.816 6.12419 2.89739 0
M  V30 3958 H 400.759 6.90109 1.58604 0
M  V30 3959 H 401.167 5.23832 2.10381 0
M  V30 3960 N 400.565 -0.0233959 1.57583 0
M  V30 3961 C 401.495 -1.02162 2.09965 0
M  V30 3962 C 402.476 -1.3735 1.00344 0
M  V30 3963 O 403.661 -1.46135 1.27899 0
M  V30 3964 C 400.791 -2.32081 2.58371 0
M  V30 3965 C 399.745 -2.1112 3.72307 0
M  V30 3966 C 399.071 -3.46848 4.06941 0
M  V30 3967 C 400.371 -1.49276 5.00514 0
M  V30 3968 H 402.065 -0.585557 2.93618 0
M  V30 3969 H 399.611 -0.280218 1.41247 0
M  V30 3970 H 401.564 -3.02249 2.93639 0
M  V30 3971 H 400.288 -2.77758 1.71808 0
M  V30 3972 H 398.947 -1.43384 3.37397 0
M  V30 3973 H 398.595 -3.90184 3.17436 0
M  V30 3974 H 398.295 -3.33646 4.83688 0
M  V30 3975 H 399.819 -4.18369 4.44747 0
M  V30 3976 H 401.233 -2.09368 5.33702 0
M  V30 3977 H 399.63 -1.46632 5.8191 0
M  V30 3978 H 400.7 -0.459217 4.82721 0
M  V30 3979 N 402.043 -1.548 -0.295768 0
M  V30 3980 C 403.271 -1.78327 -1.04914 0
M  V30 3981 C 403.686 -0.545316 -1.80753 0
M  V30 3982 O 403.043 0.485013 -1.75937 0
M  V30 3983 C 403.094 -2.99418 -2.02561 0
M  V30 3984 O 402.815 -4.18431 -1.29798 0
M  V30 3985 C 404.316 -3.35375 -2.89895 0
M  V30 3986 H 401.536 -0.594618 -0.310918 0
M  V30 3987 H 404.08 -2.01763 -0.333454 0
M  V30 3988 H 402.235 -2.78175 -2.69624 0
M  V30 3989 H 402.649 -4.86736 -1.95419 0
M  V30 3990 H 404.123 -4.23332 -3.54251 0
M  V30 3991 H 404.6 -2.53761 -3.58472 0
M  V30 3992 H 405.206 -3.58796 -2.28355 0
M  V30 3993 N 403.521 0.559213 -1.47345 0
M  V30 3994 C 404.453 1.68161 -1.55738 0
M  V30 3995 C 405.466 1.56636 -0.443744 0
M  V30 3996 O 406.655 1.6363 -0.713258 0
M  V30 3997 C 403.755 3.06611 -1.4437 0
M  V30 3998 C 402.928 3.4391 -2.70268 0
M  V30 3999 C 401.987 4.61515 -2.52765 0
M  V30 4000 O 401.013 4.66197 -3.26572 0
M  V30 4001 N 402.215 5.57883 -1.6046 0
M  V30 4002 H 404.98 1.61408 -2.52522 0
M  V30 4003 H 402.541 0.7458 -1.43699 0
M  V30 4004 H 404.533 3.83117 -1.30398 0
M  V30 4005 H 403.103 3.07602 -0.556766 0
M  V30 4006 H 402.323 2.56873 -2.99015 0
M  V30 4007 H 403.611 3.65605 -3.53851 0
M  V30 4008 H 403.009 5.56855 -0.996422 0
M  V30 4009 H 401.566 6.33723 -1.52441 0
M  V30 4010 N 404.999 1.35443 0.805782 0
M  V30 4011 C 405.962 1.28301 1.89925 0
M  V30 4012 C 406.962 0.194285 1.59622 0
M  V30 4013 O 408.152 0.448036 1.6834 0
M  V30 4014 C 405.284 0.984997 3.2636 0
M  V30 4015 H 406.477 2.2553 1.97677 0
M  V30 4016 H 404.03 1.19979 1.00173 0
M  V30 4017 H 404.765 0.016603 3.24296 0
M  V30 4018 H 404.55 1.77269 3.4974 0
M  V30 4019 H 406.04 0.960651 4.064 0
M  V30 4020 N 406.477 -1.02803 1.19454 0
M  V30 4021 C 407.44 -2.09264 0.934955 0
M  V30 4022 C 408.44 -1.60576 -0.0849015 0
M  V30 4023 O 409.63 -1.73554 0.149933 0
M  V30 4024 C 406.762 -3.38482 0.40531 0
M  V30 4025 H 407.955 -2.33726 1.87916 0
M  V30 4026 H 405.508 -1.19426 1.00832 0
M  V30 4027 H 406.243 -3.19689 -0.544899 0
M  V30 4028 H 406.028 -3.75142 1.14065 0
M  V30 4029 H 407.518 -4.16894 0.242806 0
M  V30 4030 N 407.956 -0.998596 -1.21925 0
M  V30 4031 C 409.367 -0.711939 -1.72593 0
M  V30 4032 C 409.718 0.770842 -1.80423 0
M  V30 4033 O 408.843 1.60237 -1.4544 0
M  V30 4034 C 409.438 -1.28567 -3.13458 0
M  V30 4035 C 407.997 -1.04828 -3.61508 0
M  V30 4036 C 407.144 -1.4024 -2.39224 0
M  V30 4037 H 410.095 -1.17027 -1.07193 0
M  V30 4038 H 410.116 -0.667098 -3.74607 0
M  V30 4039 H 409.628 -2.36486 -3.07727 0
M  V30 4040 H 407.729 0.0140383 -3.72597 0
M  V30 4041 H 407.842 -1.71566 -4.47328 0
M  V30 4042 H 406.206 -0.821077 -2.41103 0
M  V30 4043 H 406.989 -2.49176 -2.36149 0
M  V30 4044 N 409.434 1.37368 -0.772513 0
M  V30 4045 C 410.397 2.28601 -0.165541 0
M  V30 4046 C 411.397 1.48062 0.627238 0
M  V30 4047 O 412.587 1.68268 0.450715 0
M  V30 4048 C 409.719 3.32023 0.772897 0
M  V30 4049 H 410.912 2.83787 -0.969787 0
M  V30 4050 H 408.465 1.46647 -0.540775 0
M  V30 4051 H 409.2 2.81962 1.60212 0
M  V30 4052 H 408.985 3.91555 0.206585 0
M  V30 4053 H 410.475 4.00197 1.19298 0
M  V30 4054 N 410.912 0.523116 1.48665 0
M  V30 4055 C 411.842 -0.23231 2.32342 0
M  V30 4056 C 412.823 -0.941637 1.41659 0
M  V30 4057 O 414.008 -0.928751 1.70552 0
M  V30 4058 C 411.138 -1.28387 3.22698 0
M  V30 4059 C 410.092 -0.693098 4.22351 0
M  V30 4060 C 409.418 -1.8468 5.01794 0
M  V30 4061 C 410.718 0.33063 5.21252 0
M  V30 4062 H 412.412 0.466192 2.95748 0
M  V30 4063 H 409.958 0.225643 1.42221 0
M  V30 4064 H 411.911 -1.82024 3.80059 0
M  V30 4065 H 410.635 -2.01186 2.57278 0
M  V30 4066 H 409.294 -0.178299 3.66166 0
M  V30 4067 H 408.942 -2.56301 4.32804 0
M  V30 4068 H 408.642 -1.45747 5.69238 0
M  V30 4069 H 410.166 -2.38709 5.62006 0
M  V30 4070 H 411.58 -0.118407 5.73178 0
M  V30 4071 H 409.977 0.636974 5.9671 0
M  V30 4072 H 411.047 1.23883 4.68808 0
M  V30 4073 N 412.39 -1.55475 0.257931 0
M  V30 4074 C 413.667 -1.91155 -0.414629 0
M  V30 4075 C 414.047 -1.18008 -1.75035 0
M  V30 4076 O 413.395 -0.301193 -2.26506 0
M  V30 4077 C 413.605 -3.44283 -0.571859 0
M  V30 4078 C 414.953 -4.15744 -0.862678 0
M  V30 4079 O 415.977 -3.50083 -0.657314 0
M  V30 4080 O 414.836 -5.31909 -1.2544 0
M  V30 4081 H 411.93 -0.796016 -0.22425 0
M  V30 4082 H 414.476 -1.66976 0.302814 0
M  V30 4083 H 413.248 -3.89558 0.368844 0
M  V30 4084 H 412.871 -3.7436 -1.33943 0
M  V30 4085 N 413.868 0.0150385 -1.57593 0
M  V30 4086 C 415.115 0.703001 -1.89906 0
M  V30 4087 C 415.443 1.74604 -0.856944 0
M  V30 4088 O 414.698 1.95197 0.140287 0
M  V30 4089 C 414.997 1.39686 -3.28972 0
M  V30 4090 C 414.663 0.488457 -4.48246 0
M  V30 4091 C 413.325 0.2383 -4.8061 0
M  V30 4092 C 415.677 -0.137881 -5.21018 0
M  V30 4093 C 413.005 -0.646738 -5.83125 0
M  V30 4094 C 415.357 -1.0107 -6.24474 0
M  V30 4095 C 414.021 -1.27019 -6.55303 0
M  V30 4096 H 413.291 0.257246 -0.694914 0
M  V30 4097 H 415.938 -0.037259 -1.91464 0
M  V30 4098 H 414.243 2.21079 -3.23468 0
M  V30 4099 H 415.94 1.93495 -3.51227 0
M  V30 4100 H 412.53 0.693593 -4.22951 0
M  V30 4101 H 416.714 0.0423953 -4.96282 0
M  V30 4102 H 411.97 -0.855937 -6.05379 0
M  V30 4103 H 416.144 -1.50247 -6.79999 0
M  V30 4104 H 413.771 -1.95769 -7.3456 0
M  V30 4105 N 415.346 1.54954 0.287554 0
M  V30 4106 C 416.571 1.79209 1.04397 0
M  V30 4107 C 416.996 0.556431 1.79682 0
M  V30 4108 O 416.354 -0.493518 1.74454 0
M  V30 4109 C 416.402 3.00739 1.98969 0
M  V30 4110 O 415.506 2.74805 3.075 0
M  V30 4111 H 414.847 0.592755 0.299227 0
M  V30 4112 H 417.377 2.02068 0.320886 0
M  V30 4113 H 417.387 3.29077 2.4119 0
M  V30 4114 H 416.062 3.90329 1.43582 0
M  V30 4115 H 414.639 2.57523 2.69697 0
M  V30 4116 N 416.824 -0.551391 1.4764 0
M  V30 4117 C 417.754 -1.66757 1.63445 0
M  V30 4118 C 418.735 -1.63077 0.483742 0
M  V30 4119 O 419.92 -1.80607 0.71377 0
M  V30 4120 C 417.05 -3.05387 1.65396 0
M  V30 4121 C 416.004 -3.23918 2.79752 0
M  V30 4122 C 415.33 -4.63393 2.66779 0
M  V30 4123 C 416.63 -3.08735 4.21284 0
M  V30 4124 H 418.324 -1.53786 2.56886 0
M  V30 4125 H 415.87 -0.738415 1.23626 0
M  V30 4126 H 417.823 -3.83325 1.75043 0
M  V30 4127 H 416.547 -3.19332 0.685195 0
M  V30 4128 H 415.206 -2.48391 2.69625 0
M  V30 4129 H 414.854 -4.74144 1.67918 0
M  V30 4130 H 414.554 -4.7674 3.43501 0
M  V30 4131 H 416.078 -5.43458 2.78364 0
M  V30 4132 H 417.492 -3.76484 4.32357 0
M  V30 4133 H 415.889 -3.33588 4.98838 0
M  V30 4134 H 416.959 -2.0541 4.39243 0
M  V30 4135 N 418.302 -1.35869 -0.798587 0
M  V30 4136 C 419.249 -1.29446 -1.91082 0
M  V30 4137 C 420.219 -0.16487 -1.6528 0
M  V30 4138 O 421.404 -0.349888 -1.87564 0
M  V30 4139 C 418.544 -1.0804 -3.27752 0
M  V30 4140 C 417.657 -2.29993 -3.65687 0
M  V30 4141 C 416.792 -2.01673 -4.91428 0
M  V30 4142 C 415.831 -3.19636 -5.22015 0
M  V30 4143 N 414.968 -2.91039 -6.38937 0
M  V30 4144 H 419.808 -2.24553 -1.95907 0
M  V30 4145 H 417.345 -1.11615 -0.958148 0
M  V30 4146 H 419.303 -0.936586 -4.06551 0
M  V30 4147 H 417.933 -0.16592 -3.22373 0
M  V30 4148 H 416.985 -2.55211 -2.82085 0
M  V30 4149 H 418.297 -3.18052 -3.84245 0
M  V30 4150 H 417.451 -1.84168 -5.78072 0
M  V30 4151 H 416.19 -1.10911 -4.74921 0
M  V30 4152 H 415.195 -3.37709 -4.33858 0
M  V30 4153 H 416.42 -4.11211 -5.40447 0
M  V30 4154 H 414.366 -2.0288 -6.2384 0
M  V30 4155 H 414.283 -3.72635 -6.57784 0
M  V30 4156 H 415.551 -2.77093 -7.28587 0
M  V30 4157 N 419.78 1.02168 -1.19998 0
M  V30 4158 C 420.71 2.12488 -0.96804 0
M  V30 4159 C 421.691 1.69799 0.101185 0
M  V30 4160 O 422.876 1.94121 -0.0552993 0
M  V30 4161 C 420.006 3.43479 -0.513776 0
M  V30 4162 C 418.96 3.99884 -1.52566 0
M  V30 4163 C 418.286 5.26582 -0.928214 0
M  V30 4164 C 419.586 4.33861 -2.90795 0
M  V30 4165 H 421.28 2.32149 -1.89069 0
M  V30 4166 H 418.826 1.11564 -0.910468 0
M  V30 4167 H 420.779 4.20036 -0.338774 0
M  V30 4168 H 419.503 3.23561 0.444493 0
M  V30 4169 H 418.162 3.25429 -1.68794 0
M  V30 4170 H 417.81 5.02986 0.0378289 0
M  V30 4171 H 417.51 5.65284 -1.60397 0
M  V30 4172 H 419.034 6.05799 -0.764167 0
M  V30 4173 H 420.448 5.01327 -2.78109 0
M  V30 4174 H 418.845 4.83664 -3.55231 0
M  V30 4175 H 419.915 3.42848 -3.42904 0
M  V30 4176 N 421.258 1.00505 1.21394 0
M  V30 4177 C 422.505 0.687774 1.90462 0
M  V30 4178 C 422.833 -0.78147 1.7811 0
M  V30 4179 O 422.088 -1.58208 1.1519 0
M  V30 4180 C 422.387 1.0546 3.41486 0
M  V30 4181 C 422.053 2.51812 3.74034 0
M  V30 4182 C 420.715 2.91804 3.82628 0
M  V30 4183 C 423.067 3.46614 3.8924 0
M  V30 4184 C 420.395 4.2556 4.03876 0
M  V30 4185 C 422.747 4.80044 4.11995 0
M  V30 4186 C 421.411 5.19759 4.18816 0
M  V30 4187 H 420.681 0.251674 0.696951 0
M  V30 4188 H 423.328 1.26349 1.43903 0
M  V30 4189 H 421.633 0.397133 3.89782 0
M  V30 4190 H 423.33 0.786976 3.93202 0
M  V30 4191 H 419.92 2.1982 3.67936 0
M  V30 4192 H 424.104 3.16883 3.81967 0
M  V30 4193 H 419.36 4.55901 4.07387 0
M  V30 4194 H 423.534 5.53439 4.22704 0
M  V30 4195 H 421.161 6.23418 4.35033 0
M  V30 4196 N 422.737 -1.36956 0.779787 0
M  V30 4197 C 423.7 -2.2851 0.177662 0
M  V30 4198 C 424.7 -1.48393 -0.619377 0
M  V30 4199 O 425.89 -1.68505 -0.441785 0
M  V30 4200 C 423.022 -3.32428 -0.755279 0
M  V30 4201 H 424.215 -2.83269 0.984823 0
M  V30 4202 H 421.768 -1.46358 0.548544 0
M  V30 4203 H 422.503 -2.82808 -1.58714 0
M  V30 4204 H 422.288 -3.91659 -0.185817 0
M  V30 4205 H 423.778 -4.00824 -1.17174 0
M  V30 4206 N 424.215 -0.530993 -1.48385 0
M  V30 4207 C 425.162 0.231223 -2.29639 0
M  V30 4208 C 426.132 0.932864 -1.37429 0
M  V30 4209 O 427.317 0.933692 -1.66394 0
M  V30 4210 C 424.457 1.27155 -3.2082 0
M  V30 4211 C 423.57 0.578655 -4.28107 0
M  V30 4212 C 422.705 1.602 -5.06467 0
M  V30 4213 C 421.744 0.892625 -6.05556 0
M  V30 4214 N 420.881 1.86157 -6.76971 0
M  V30 4215 H 425.721 -0.467848 -2.94305 0
M  V30 4216 H 423.258 -0.242556 -1.45086 0
M  V30 4217 H 425.216 1.88703 -3.72085 0
M  V30 4218 H 423.846 1.939 -2.58075 0
M  V30 4219 H 422.898 -0.150782 -3.80101 0
M  V30 4220 H 424.21 0.0217065 -4.98795 0
M  V30 4221 H 423.364 2.29173 -5.61751 0
M  V30 4222 H 422.103 2.19285 -4.35621 0
M  V30 4223 H 421.108 0.188829 -5.49476 0
M  V30 4224 H 422.333 0.307878 -6.78402 0
M  V30 4225 H 420.279 2.44147 -6.08875 0
M  V30 4226 H 420.196 1.35608 -7.43738 0
M  V30 4227 H 421.464 2.54325 -7.36844 0
M  V30 4228 N 425.693 1.55336 -0.266172 0
M  V30 4229 C 426.603 2.2583 0.635458 0
M  V30 4230 C 427.619 1.28106 1.17749 0
M  V30 4231 O 428.795 1.61024 1.20968 0
M  V30 4232 C 425.86 2.95879 1.80712 0
M  V30 4233 C 424.921 4.09059 1.30265 0
M  V30 4234 C 424.154 4.75759 2.41846 0
M  V30 4235 O 424.377 4.41622 3.61007 0
M  V30 4236 O 423.311 5.63888 2.1051 0
M  V30 4237 H 427.137 3.03631 0.0646693 0
M  V30 4238 H 424.722 1.49361 -0.0339177 0
M  V30 4239 H 426.604 3.39932 2.49047 0
M  V30 4240 H 425.279 2.21002 2.36516 0
M  V30 4241 H 424.186 3.69482 0.586019 0
M  V30 4242 H 425.519 4.85811 0.790458 0
M  V30 4243 N 427.171 -0.0066808 1.57599 0
M  V30 4244 C 428.417 -0.693947 1.90558 0
M  V30 4245 C 428.75 -1.73792 0.866594 0
M  V30 4246 O 428.025 -1.94156 -0.115548 0
M  V30 4247 C 428.308 -1.34317 3.34112 0
M  V30 4248 C 428.161 -0.311189 4.48722 0
M  V30 4249 C 429.48 -2.27116 3.7697 0
M  V30 4250 H 426.599 -0.250803 0.693013 0
M  V30 4251 H 429.241 0.043242 1.89951 0
M  V30 4252 H 427.391 -1.9715 3.3476 0
M  V30 4253 H 429.063 0.316944 4.6021 0
M  V30 4254 H 427.306 0.367253 4.32243 0
M  V30 4255 H 427.977 -0.804366 5.46108 0
M  V30 4256 H 430.453 -1.74306 3.77831 0
M  V30 4257 H 429.329 -2.69511 4.78179 0
M  V30 4258 H 429.59 -3.14743 3.10466 0
M  V30 4259 N 428.649 -1.55105 -0.279332 0
M  V30 4260 C 429.612 -1.86783 -1.32834 0
M  V30 4261 C 430.612 -0.74199 -1.42657 0
M  V30 4262 O 431.802 -1.0102 -1.41918 0
M  V30 4263 C 428.934 -2.06746 -2.71052 0
M  V30 4264 H 430.127 -2.8055 -1.05979 0
M  V30 4265 H 427.68 -1.47499 -0.517087 0
M  V30 4266 H 428.415 -1.15339 -3.03097 0
M  V30 4267 H 428.2 -2.88711 -2.65309 0
M  V30 4268 H 429.69 -2.32549 -3.46858 0
M  V30 4269 N 430.127 0.543554 -1.4793 0
M  V30 4270 C 431.538 1.12561 -1.48953 0
M  V30 4271 C 431.889 1.94578 -0.251754 0
M  V30 4272 O 431.014 2.0665 0.642255 0
M  V30 4273 C 431.609 2.04801 -2.69892 0
M  V30 4274 C 430.168 2.58251 -2.73831 0
M  V30 4275 C 429.315 1.34918 -2.42265 0
M  V30 4276 H 432.266 0.32947 -1.55242 0
M  V30 4277 H 432.287 2.88886 -2.47639 0
M  V30 4278 H 431.799 1.4508 -3.59963 0
M  V30 4279 H 429.9 3.21732 -1.87934 0
M  V30 4280 H 430.013 2.98312 -3.74895 0
M  V30 4281 H 428.377 1.66046 -1.93134 0
M  V30 4282 H 429.16 0.769693 -3.3456 0
M  V30 4283 N 431.605 1.3629 0.791371 0
M  V30 4284 C 432.851 1.30605 1.55146 0
M  V30 4285 C 433.184 -0.115042 1.93859 0
M  V30 4286 O 432.459 -1.06798 1.62556 0
M  V30 4287 C 432.742 2.22692 2.82985 0
M  V30 4288 C 432.595 3.73489 2.50651 0
M  V30 4289 C 433.914 2.13588 3.84796 0
M  V30 4290 H 431.033 0.475761 0.562868 0
M  V30 4291 H 433.675 1.66825 0.909358 0
M  V30 4292 H 431.825 1.91933 3.37778 0
M  V30 4293 H 433.497 4.14758 2.01924 0
M  V30 4294 H 431.74 3.93021 1.83622 0
M  V30 4295 H 432.411 4.3333 3.41949 0
M  V30 4296 H 434.887 2.40659 3.39445 0
M  V30 4297 H 433.763 2.80195 4.71998 0
M  V30 4298 H 434.024 1.12256 4.27611 0
M  V30 4299 N 433.083 -1.0153 1.20538 0
M  V30 4300 C 434.494 -1.56598 1.01657 0
M  V30 4301 C 434.845 -1.91505 -0.426668 0
M  V30 4302 O 433.97 -1.72375 -1.30827 0
M  V30 4303 C 434.565 -2.84542 1.83905 0
M  V30 4304 C 433.124 -3.36133 1.69386 0
M  V30 4305 C 432.271 -2.09427 1.81757 0
M  V30 4306 H 435.222 -0.838974 1.34711 0
M  V30 4307 H 435.243 -3.56004 1.34319 0
M  V30 4308 H 434.755 -2.59105 2.8894 0
M  V30 4309 H 432.856 -3.66528 0.669933 0
M  V30 4310 H 432.969 -4.08248 2.50739 0
M  V30 4311 H 431.333 -2.21941 1.24957 0
M  V30 4312 H 432.116 -1.86414 2.88279 0
M  V30 4313 N 434.561 -1.01147 -1.20859 0
M  V30 4314 C 435.508 -0.577354 -2.23462 0
M  V30 4315 C 436.478 0.399922 -1.61214 0
M  V30 4316 O 437.663 0.300515 -1.88419 0
M  V30 4317 C 434.803 0.083372 -3.44999 0
M  V30 4318 C 433.916 -0.937856 -4.21697 0
M  V30 4319 C 433.051 -0.248717 -5.30617 0
M  V30 4320 C 432.09 -1.25705 -5.99053 0
M  V30 4321 N 431.227 -0.594939 -6.99575 0
M  V30 4322 H 436.067 -1.45695 -2.59956 0
M  V30 4323 H 433.604 -0.729428 -1.27741 0
M  V30 4324 H 435.562 0.483535 -4.14388 0
M  V30 4325 H 434.192 0.926645 -3.09214 0
M  V30 4326 H 433.244 -1.45622 -3.51423 0
M  V30 4327 H 434.556 -1.70493 -4.68757 0
M  V30 4328 H 433.71 0.207215 -6.06346 0
M  V30 4329 H 432.449 0.55071 -4.84581 0
M  V30 4330 H 431.454 -1.72343 -5.2209 0
M  V30 4331 H 432.679 -2.05767 -6.47176 0
M  V30 4332 H 430.625 0.184713 -6.5574 0
M  V30 4333 H 430.542 -1.30017 -7.44736 0
M  V30 4334 H 431.81 -0.162427 -7.79331 0
M  V30 4335 N 436.039 1.36541 -0.78704 0
M  V30 4336 C 437.288 1.98552 -0.35494 0
M  V30 4337 C 437.601 1.63171 1.07864 0
M  V30 4338 O 438.807 2.18399 1.61289 0
M  V30 4339 C 437.263 3.55136 -0.583671 0
M  V30 4340 C 436.871 3.99444 -2.02851 0
M  V30 4341 C 438.615 4.2395 -0.215957 0
M  V30 4342 C 436.522 5.48796 -2.20403 0
M  V30 4343 H 435.452 0.742888 -0.128972 0
M  V30 4344 H 438.103 1.5587 -0.968337 0
M  V30 4345 H 436.485 3.95875 0.0994046 0
M  V30 4346 H 437.659 3.6991 -2.74779 0
M  V30 4347 H 435.974 3.43459 -2.35425 0
M  V30 4348 H 438.571 5.33709 -0.325405 0
M  V30 4349 H 438.914 4.07827 0.835646 0
M  V30 4350 H 439.447 3.88565 -0.852175 0
M  V30 4351 H 436.186 5.69864 -3.23937 0
M  V30 4352 H 435.706 5.79964 -1.52977 0
M  V30 4353 H 437.385 6.14986 -2.01002 0
M  V30 4354 N 437.518 0.538854 1.48102 0
M  V30 4355 C 438.468 -0.23907 2.26743 0
M  V30 4356 C 439.452 -0.901923 1.33245 0
M  V30 4357 O 440.644 -0.803263 1.57723 0
M  V30 4358 C 437.773 -1.2799 3.18549 0
M  V30 4359 C 436.859 -0.621388 4.19523 0
M  V30 4360 N 437.25 0.298004 5.04921 0
M  V30 4361 C 435.548 -0.877533 4.37282 0
M  V30 4362 C 436.249 0.678757 5.77726 0
M  V30 4363 N 435.225 0.0377881 5.43587 0
M  V30 4364 H 439.027 0.468096 2.90148 0
M  V30 4365 H 436.541 0.357497 1.58416 0
M  V30 4366 H 438.538 -1.851 3.73555 0
M  V30 4367 H 437.198 -1.98835 2.567 0
M  V30 4368 H 438.209 0.671126 5.13533 0
M  V30 4369 H 434.886 -1.57588 3.86616 0
M  V30 4370 H 436.276 1.43316 6.56437 0
M  V30 4371 O 439.035 -1.56041 0.416352 0
M  V30 4372 H 439.726 -1.93313 -0.122438 0
M  V30 END ATOM
M  V30 BEGIN BOND
M  V30 END BOND
M  V30 END CTAB
M  END
$$$$
