drugbank_target|P04062 Glucosylceramidase (DB03106; DB03740; DB06720; DB08283)
 OpenBabel12092119443D

  0  0  0     0  0            999 V3000
M  V30 BEGIN CTAB
M  V30 COUNTS 8366 8492 0 0 0
M  V30 BEGIN ATOM
M  V30 1 H -0.908 1.98254 -0.117106 0
M  V30 2 N 0 1.576 0 0
M  V30 3 C 0.933 2.03868 1.02534 0
M  V30 4 C 1.911 0.928543 1.3348 0
M  V30 5 O 3.095 1.19667 1.45644 0
M  V30 6 C 0.222 2.43627 2.35294 0
M  V30 7 C -0.732 3.65373 2.2001 0
M  V30 8 S 0.101 5.13292 1.52614 0
M  V30 9 C 1.257 5.56322 2.86805 0
M  V30 10 H 1.49 2.90518 0.631377 0
M  V30 11 H -0.977 1.52953 0.210867 0
M  V30 12 H 0.981 2.67203 3.11629 0
M  V30 13 H -0.358 1.57376 2.7183 0
M  V30 14 H -1.165 3.90944 3.18086 0
M  V30 15 H -1.563 3.418 1.51819 0
M  V30 16 H 0.729 5.58782 3.83104 0
M  V30 17 H 1.672 6.56266 2.65933 0
M  V30 18 H 2.08 4.83886 2.90714 0
M  V30 19 N 1.4781 -0.272755 1.55222 0
M  V30 20 C 2.3881 -1.35918 1.91216 0
M  V30 21 C 3.4041 -1.54026 0.809436 0
M  V30 22 O 4.5801 -1.68148 1.10852 0
M  V30 23 C 1.6451 -2.69834 2.17693 0
M  V30 24 C 0.7061 -2.6047 3.41253 0
M  V30 25 C -0.0609 -3.88 3.66458 0
M  V30 26 O 0.1621 -4.88693 2.94169 0
M  V30 27 O -0.9039 -3.88189 4.59992 0
M  V30 28 H 2.9221 -1.0839 2.83699 0
M  V30 29 H 0.5071 -0.471301 1.41771 0
M  V30 30 H 2.3891 -3.49017 2.36147 0
M  V30 31 H 1.0641 -2.97148 1.28392 0
M  V30 32 H -0.0289 -1.79663 3.28134 0
M  V30 33 H 1.3041 -2.38106 4.30774 0
M  V30 34 N 2.9562 -1.48159 -0.537278 0
M  V30 35 C 4.2032 -1.55804 -1.29349 0
M  V30 36 C 4.5312 -0.228802 -1.9315 0
M  V30 37 O 3.7862 0.780242 -1.79473 0
M  V30 38 C 4.0852 -2.63956 -2.40961 0
M  V30 39 C 3.7512 -4.0662 -1.94861 0
M  V30 40 C 2.4132 -4.45452 -1.82006 0
M  V30 41 C 4.7652 -4.96055 -1.59933 0
M  V30 42 C 2.0932 -5.71531 -1.32547 0
M  V30 43 C 4.4452 -6.22617 -1.11939 0
M  V30 44 C 3.1092 -6.60312 -0.976951 0
M  V30 45 H 2.3792 -0.570129 -0.473322 0
M  V30 46 H 5.0262 -1.81845 -0.600372 0
M  V30 47 H 3.3312 -2.31747 -3.15912 0
M  V30 48 H 5.0282 -2.67089 -2.99107 0
M  V30 49 H 1.6182 -3.75949 -2.05815 0
M  V30 50 H 5.8022 -4.66738 -1.68728 0
M  V30 51 H 1.0582 -5.99468 -1.202 0
M  V30 52 H 5.2322 -6.91318 -0.839811 0
M  V30 53 H 2.8592 -7.57895 -0.591501 0
M  V30 54 N 4.4343 0.785586 -1.36625 0
M  V30 55 C 5.6593 1.57963 -1.34397 0
M  V30 56 C 6.0843 1.87964 0.071526 0
M  V30 57 O 5.4423 1.48182 1.0446 0
M  V30 58 C 5.4903 2.87511 -2.17646 0
M  V30 59 O 4.5943 3.81281 -1.57158 0
M  V30 60 H 3.9353 0.479014 -0.459828 0
M  V30 61 H 6.4653 0.973411 -1.79961 0
M  V30 62 H 6.4753 3.36745 -2.30362 0
M  V30 63 H 5.1503 2.65002 -3.20541 0
M  V30 64 H 3.7273 3.39885 -1.53403 0
M  V30 65 N 5.9124 1.20967 1.01018 0
M  V30 66 C 7.1374 1.0503 1.78839 0
M  V30 67 C 7.5624 -0.395752 1.8389 0
M  V30 68 O 6.9204 -1.28529 1.27867 0
M  V30 69 C 6.9684 1.64602 3.2084 0
M  V30 70 O 6.0724 0.887988 4.02726 0
M  V30 71 H 5.4134 0.369987 0.551367 0
M  V30 72 H 7.9434 1.60399 1.27018 0
M  V30 73 H 7.9534 1.68607 3.71532 0
M  V30 74 H 6.6284 2.69841 3.16479 0
M  V30 75 H 5.2054 0.922648 3.61305 0
M  V30 76 N 7.3905 -1.2043 1.01659 0
M  V30 77 C 8.8015 -1.71517 0.737482 0
M  V30 78 C 9.1525 -1.81547 -0.743973 0
M  V30 79 O 8.2775 -1.47803 -1.58061 0
M  V30 80 C 8.8725 -3.11515 1.33206 0
M  V30 81 C 7.4315 -3.59912 1.10183 0
M  V30 82 C 6.5785 -2.37116 1.43776 0
M  V30 83 H 9.5295 -1.05444 1.18606 0
M  V30 84 H 9.5505 -3.73575 0.722636 0
M  V30 85 H 9.0625 -3.04182 2.41028 0
M  V30 86 H 7.1635 -3.72577 0.0412756 0
M  V30 87 H 7.2765 -4.44731 1.78188 0
M  V30 88 H 5.6405 -2.39857 0.856778 0
M  V30 89 H 6.4235 -2.32424 2.52654 0
M  V30 90 N 8.8686 -0.792821 -1.36206 0
M  V30 91 C 10.0936 -0.377701 -2.03932 0
M  V30 92 C 10.5186 0.998947 -1.59382 0
M  V30 93 O 9.8766 1.64421 -0.763903 0
M  V30 94 C 9.9246 -0.453635 -3.57735 0
M  V30 95 O 9.0286 0.538151 -4.08874 0
M  V30 96 H 8.3696 -0.159855 -0.644471 0
M  V30 97 H 10.8996 -1.07488 -1.7409 0
M  V30 98 H 10.9096 -0.318464 -4.06755 0
M  V30 99 H 9.5846 -1.45784 -3.89512 0
M  V30 100 H 8.1616 0.364359 -3.71116 0
M  V30 101 N 10.3467 1.47872 -0.545128 0
M  V30 102 C 11.7627 1.5829 -0.204032 0
M  V30 103 C 11.9627 1.54529 1.29317 0
M  V30 104 O 11.0187 1.44232 2.07252 0
M  V30 105 C 12.3317 2.89304 -0.819987 0
M  V30 106 C 13.8797 3.02864 -0.790105 0
M  V30 107 C 14.3547 4.3656 -1.38491 0
M  V30 108 N 15.8457 4.43165 -1.34755 0
M  V30 109 C 16.5807 5.45153 -1.77753 0
M  V30 110 N 16.0767 6.54016 -2.2855 0
M  V30 111 N 17.8697 5.36125 -1.68897 0
M  V30 112 H 10.0207 1.4856 -1.51802 0
M  V30 113 H 12.2837 0.706305 -0.632327 0
M  V30 114 H 11.9897 2.97757 -1.87173 0
M  V30 115 H 11.8637 3.75957 -0.305915 0
M  V30 116 H 14.2507 2.94014 0.252913 0
M  V30 117 H 14.3317 2.17782 -1.34181 0
M  V30 118 H 13.9757 4.46164 -2.42693 0
M  V30 119 H 13.9057 5.20353 -0.808754 0
M  V30 120 H 16.3967 3.65083 -0.975855 0
M  V30 121 H 16.7097 7.27994 -2.59314 0
M  V30 122 H 15.0547 6.54938 -2.32553 0
M  V30 123 H 18.2457 4.49975 -1.28998 0
M  V30 124 H 18.4187 6.15472 -2.02726 0
M  V30 125 N 11.8248 0.280983 1.55075 0
M  V30 126 C 12.7348 -0.61388 2.26426 0
M  V30 127 C 13.7508 -1.16521 1.29224 0
M  V30 128 O 14.9268 -1.19426 1.62171 0
M  V30 129 C 11.9918 -1.7788 2.9759 0
M  V30 130 C 11.0528 -1.26355 4.10284 0
M  V30 131 C 10.2858 -2.37295 4.78045 0
M  V30 132 O 10.5088 -3.56777 4.45047 0
M  V30 133 O 9.4428 -2.05119 5.65871 0
M  V30 134 H 13.2688 -0.0356932 3.03679 0
M  V30 135 H 10.8538 0.0481686 1.49322 0
M  V30 136 H 12.7358 -2.45791 3.42293 0
M  V30 137 H 11.4108 -2.34397 2.23249 0
M  V30 138 H 10.3178 -0.550735 3.70024 0
M  V30 139 H 11.6508 -0.744065 4.86543 0
M  V30 140 N 13.3029 -1.57598 0.00835791 0
M  V30 141 C 14.2129 -2.12385 -0.996487 0
M  V30 142 C 15.2289 -1.07108 -1.37127 0
M  V30 143 O 16.4049 -1.39055 -1.4569 0
M  V30 144 C 13.4699 -2.62314 -2.26699 0
M  V30 145 C 12.5309 -3.82225 -1.95456 0
M  V30 146 C 11.7639 -4.29763 -3.16449 0
M  V30 147 O 11.9869 -3.76584 -4.28416 0
M  V30 148 O 10.9209 -5.21832 -2.99958 0
M  V30 149 H 14.7469 -2.98479 -0.560725 0
M  V30 150 H 12.3319 -1.47903 -0.210987 0
M  V30 151 H 14.2139 -2.94589 -3.01322 0
M  V30 152 H 12.8889 -1.79313 -2.69497 0
M  V30 153 H 11.7959 -3.54909 -1.18282 0
M  V30 154 H 13.1289 -4.66324 -1.57489 0
M  V30 155 N 14.781 0.264519 -1.55364 0
M  V30 156 C 16.021 1.00254 -1.78125 0
M  V30 157 C 16.385 1.83187 -0.575017 0
M  V30 158 O 17.586 2.60029 -0.681042 0
M  V30 159 C 15.857 1.85478 -3.05504 0
M  V30 160 S 17.416 2.6543 -3.49417 0
M  V30 161 H 14.234 0.337522 -0.625779 0
M  V30 162 H 16.836 0.272111 -1.93597 0
M  V30 163 H 15.54 1.23491 -3.9138 0
M  V30 164 H 15.071 2.62827 -2.92721 0
M  V30 165 H 17.086 3.87958 -3.09359 0
M  V30 166 N 16.2591 1.48442 0.529413 0
M  V30 167 C 17.6701 1.5002 1.11134 0
M  V30 168 C 18.0211 0.27031 1.94329 0
M  V30 169 O 17.1461 -0.622507 2.07253 0
M  V30 170 C 17.7411 2.71834 2.02217 0
M  V30 171 C 16.3001 2.76283 2.55627 0
M  V30 172 C 15.4471 2.43542 1.326 0
M  V30 173 H 18.3981 1.5555 0.314641 0
M  V30 174 H 18.4191 2.50384 2.8651 0
M  V30 175 H 17.9311 3.61331 1.41639 0
M  V30 176 H 16.0321 1.90995 3.19924 0
M  V30 177 H 16.1451 3.77725 2.94721 0
M  V30 178 H 14.5091 1.94709 1.64196 0
M  V30 179 H 15.2921 3.3528 0.737734 0
M  V30 180 N 17.7372 -0.778329 1.37039 0
M  V30 181 C 18.6842 -1.89139 1.32269 0
M  V30 182 C 19.6542 -1.65017 0.189387 0
M  V30 183 O 20.8392 -1.87024 0.377693 0
M  V30 184 C 17.9792 -3.26112 1.12894 0
M  V30 185 C 17.0922 -3.62233 2.35396 0
M  V30 186 C 16.2272 -4.8838 2.08946 0
M  V30 187 C 15.2662 -5.17212 3.2735 0
M  V30 188 N 14.4032 -6.34546 3.00492 0
M  V30 189 H 19.2432 -1.92552 2.27437 0
M  V30 190 H 16.7802 -0.941473 1.13025 0
M  V30 191 H 18.7382 -4.05116 0.996835 0
M  V30 192 H 17.3682 -3.22091 0.213758 0
M  V30 193 H 16.4202 -2.78265 2.5937 0
M  V30 194 H 17.7322 -3.79481 3.23721 0
M  V30 195 H 16.8862 -5.75274 1.92729 0
M  V30 196 H 15.6252 -4.73222 1.17949 0
M  V30 197 H 14.6302 -4.28796 3.44113 0
M  V30 198 H 15.8552 -5.34283 4.19188 0
M  V30 199 H 13.8012 -6.20759 2.12118 0
M  V30 200 H 13.7182 -6.52179 3.82358 0
M  V30 201 H 14.9862 -7.24394 2.87879 0
M  V30 202 N 19.2153 -1.21501 -1.00376 0
M  V30 203 C 20.6263 -1.03146 -1.55621 0
M  V30 204 C 20.9773 0.408375 -1.91903 0
M  V30 205 O 20.1023 1.29177 -1.73616 0
M  V30 206 C 20.6973 -1.86612 -2.82775 0
M  V30 207 C 19.2563 -1.72586 -3.34501 0
M  V30 208 C 18.4033 -1.83747 -2.07683 0
M  V30 209 H 21.3543 -1.35505 -0.826081 0
M  V30 210 H 21.3753 -1.3771 -3.54706 0
M  V30 211 H 20.8873 -2.91399 -2.56336 0
M  V30 212 H 18.9883 -0.704877 -3.65872 0
M  V30 213 H 19.1013 -2.54623 -4.05837 0
M  V30 214 H 17.4653 -1.27069 -2.20739 0
M  V30 215 H 18.2483 -2.90044 -1.83655 0
M  V30 216 N 20.6934 1.19889 -1.02296 0
M  V30 217 C 21.6234 2.25141 -0.619174 0
M  V30 218 C 22.6044 1.66051 0.368915 0
M  V30 219 O 23.7894 1.92546 0.252941 0
M  V30 220 C 20.9194 3.4728 0.0368783 0
M  V30 221 C 19.8734 4.19005 -0.872865 0
M  V30 222 C 19.1994 5.34637 -0.0822402 0
M  V30 223 C 20.4994 4.74452 -2.18387 0
M  V30 224 H 22.1934 2.59171 -1.49903 0
M  V30 225 H 19.7394 1.24579 -0.722222 0
M  V30 226 H 21.6924 4.20098 0.330958 0
M  V30 227 H 20.4164 3.12433 0.95149 0
M  V30 228 H 19.0754 3.48061 -1.15105 0
M  V30 229 H 18.7234 4.96034 0.83422 0
M  V30 230 H 18.4234 5.83557 -0.688149 0
M  V30 231 H 19.9474 6.10255 0.205238 0
M  V30 232 H 21.3614 5.39055 -1.95172 0
M  V30 233 H 19.7584 5.33834 -2.74119 0
M  V30 234 H 20.8284 3.92844 -2.84257 0
M  V30 235 N 22.1715 0.800033 1.35784 0
M  V30 236 C 23.3965 0.388511 2.03729 0
M  V30 237 C 23.8215 -0.990481 1.5991 0
M  V30 238 O 23.1795 -1.64013 0.772612 0
M  V30 239 C 23.2275 0.4726 3.5749 0
M  V30 240 O 22.3315 -0.51646 4.09153 0
M  V30 241 H 21.6725 0.163271 0.643614 0
M  V30 242 H 24.2025 1.0841 1.73518 0
M  V30 243 H 24.2125 0.34003 4.06581 0
M  V30 244 H 22.8875 1.47848 3.88734 0
M  V30 245 H 21.4645 -0.344673 3.71304 0
M  V30 246 N 23.6496 -1.47581 0.552962 0
M  V30 247 C 25.0656 -1.5818 0.212424 0
M  V30 248 C 25.2656 -1.55213 -1.28496 0
M  V30 249 O 24.3216 -1.45329 -2.06484 0
M  V30 250 C 25.6346 -2.88865 0.835318 0
M  V30 251 C 27.1826 -3.0244 0.806156 0
M  V30 252 C 27.6576 -4.35819 1.40804 0
M  V30 253 N 29.1486 -4.42444 1.37103 0
M  V30 254 C 29.8836 -5.44202 1.80641 0
M  V30 255 N 29.3796 -6.52795 2.32015 0
M  V30 256 N 31.1726 -5.35222 1.71738 0
M  V30 257 H 23.3236 -1.47753 1.52587 0
M  V30 258 H 25.5866 -0.702941 0.636064 0
M  V30 259 H 25.2926 -2.9676 1.88749 0
M  V30 260 H 25.1666 -3.7579 0.325848 0
M  V30 261 H 27.5536 -2.94144 -0.237317 0
M  V30 262 H 27.6346 -2.17068 1.35334 0
M  V30 263 H 27.2786 -4.44871 2.45056 0
M  V30 264 H 27.2086 -5.19916 0.836338 0
M  V30 265 H 29.6996 -3.6456 0.995202 0
M  V30 266 H 30.0126 -7.26609 2.63171 0
M  V30 267 H 28.3576 -6.53696 2.36023 0
M  V30 268 H 31.5486 -4.49284 1.31382 0
M  V30 269 H 31.7216 -6.14389 2.05987 0
M  V30 270 N 25.1277 -0.289203 -1.54924 0
M  V30 271 C 26.3737 0.323998 -2.00195 0
M  V30 272 C 26.7067 1.54441 -1.17735 0
M  V30 273 O 25.9817 1.92875 -0.250878 0
M  V30 274 C 26.2647 0.692276 -3.53383 0
M  V30 275 C 26.1177 -0.536457 -4.46589 0
M  V30 276 C 27.4367 1.52335 -4.12895 0
M  V30 277 H 24.5557 0.116289 -0.727768 0
M  V30 278 H 27.1977 -0.398954 -1.85764 0
M  V30 279 H 25.3477 1.30822 -3.65811 0
M  V30 280 H 27.0197 -1.17499 -4.46085 0
M  V30 281 H 25.2627 -1.17192 -4.1767 0
M  V30 282 H 25.9337 -0.234806 -5.515 0
M  V30 283 H 28.4097 1.00302 -4.0383 0
M  V30 284 H 27.2857 1.74982 -5.20262 0
M  V30 285 H 27.5467 2.50886 -3.64018 0
M  V30 286 N 26.6058 1.57591 -0.0167156 0
M  V30 287 C 27.8308 1.9598 0.67872 0
M  V30 288 C 28.2558 0.892546 1.65575 0
M  V30 289 O 27.6138 -0.147772 1.80697 0
M  V30 290 C 27.6618 3.33468 1.37227 0
M  V30 291 O 26.7658 3.28954 2.48722 0
M  V30 292 H 26.1068 0.639339 0.17928 0
M  V30 293 H 28.6368 2.04463 -0.0748802 0
M  V30 294 H 28.6468 3.69417 1.7319 0
M  V30 295 H 27.3218 4.10694 0.656007 0
M  V30 296 H 25.8988 3.04705 2.14963 0
M  V30 297 N 28.0839 -0.256276 1.55502 0
M  V30 298 C 29.3329 -0.983486 1.76098 0
M  V30 299 C 29.6459 -1.86837 0.578896 0
M  V30 300 O 30.8519 -2.63163 0.667648 0
M  V30 301 C 29.3079 -1.79868 3.1173 0
M  V30 302 C 28.9159 -0.961648 4.37557 0
M  V30 303 C 30.6599 -2.51919 3.41668 0
M  V30 304 C 28.5669 -1.77219 5.64223 0
M  V30 305 H 27.4969 -0.370936 0.656447 0
M  V30 306 H 30.1479 -0.238492 1.81944 0
M  V30 307 H 28.5299 -2.58527 2.99966 0
M  V30 308 H 29.7039 -0.218048 4.60284 0
M  V30 309 H 28.0189 -0.354913 4.14885 0
M  V30 310 H 30.6159 -3.12998 4.33516 0
M  V30 311 H 30.9589 -3.23059 2.62562 0
M  V30 312 H 31.4919 -1.80278 3.54605 0
M  V30 313 H 28.2309 -1.10471 6.46124 0
M  V30 314 H 27.7509 -2.49132 5.45613 0
M  V30 315 H 29.4299 -2.34169 6.03137 0
M  V30 316 N 29.562 -1.4872 -0.521534 0
M  V30 317 C 30.495 -1.58451 -1.64221 0
M  V30 318 C 31.473 -0.434513 -1.56687 0
M  V30 319 O 32.657 -0.647275 -1.77038 0
M  V30 320 C 29.784 -1.52037 -3.02659 0
M  V30 321 C 28.83 -2.71981 -3.28525 0
M  V30 322 S 29.663 -4.33869 -3.13876 0
M  V30 323 C 30.819 -4.30067 -4.54745 0
M  V30 324 H 31.052 -2.53256 -1.55719 0
M  V30 325 H 28.585 -1.37358 -0.705143 0
M  V30 326 H 30.543 -1.49023 -3.82495 0
M  V30 327 H 29.204 -0.585541 -3.08594 0
M  V30 328 H 28.397 -2.63656 -4.29536 0
M  V30 329 H 27.999 -2.72302 -2.56374 0
M  V30 330 H 30.291 -4.00521 -5.46433 0
M  V30 331 H 31.234 -5.31287 -4.68123 0
M  V30 332 H 31.642 -3.60419 -4.34463 0
M  V30 333 N 31.0401 0.771051 -1.3745 0
M  V30 334 C 32.0031 1.86598 -1.33093 0
M  V30 335 C 33.0031 1.59076 -0.234845 0
M  V30 336 O 34.1931 1.67145 -0.490732 0
M  V30 337 C 31.3251 3.23747 -1.06773 0
M  V30 338 H 32.5181 1.91873 -2.30488 0
M  V30 339 H 30.0711 0.970876 -1.2249 0
M  V30 340 H 30.8061 3.24148 -0.099129 0
M  V30 341 H 30.5911 3.45115 -1.86112 0
M  V30 342 H 32.0811 4.03824 -1.06377 0
M  V30 343 N 32.5182 1.22032 0.997298 0
M  V30 344 C 33.7662 1.04016 1.73278 0
M  V30 345 C 34.0872 -0.426255 1.90284 0
M  V30 346 O 33.3572 -1.30694 1.45931 0
M  V30 347 H 31.9372 0.381897 0.642 0
M  V30 348 H 34.5992 1.5347 1.20137 0
M  V30 349 H 33.6952 1.51441 2.72896 0
M  V30 350 N 33.9963 -1.19345 1.0293 0
M  V30 351 C 35.2213 -1.93538 0.745511 0
M  V30 352 C 35.6463 -1.75007 -0.689511 0
M  V30 353 O 35.0043 -1.05265 -1.47611 0
M  V30 354 C 35.0523 -3.43336 1.10239 0
M  V30 355 O 34.1563 -4.11806 0.221289 0
M  V30 356 H 33.4973 -0.604193 0.275404 0
M  V30 357 H 36.0273 -1.5141 1.37609 0
M  V30 358 H 36.0373 -3.94004 1.05947 0
M  V30 359 H 34.7123 -3.56146 2.14786 0
M  V30 360 H 33.2893 -3.715 0.322842 0
M  V30 361 N 35.4744 -0.807222 -1.35358 0
M  V30 362 C 36.4044 -0.232509 -2.3234 0
M  V30 363 C 37.3854 0.642386 -1.57504 0
M  V30 364 O 38.5704 0.572526 -1.85569 0
M  V30 365 C 35.7004 0.619238 -3.41735 0
M  V30 366 C 34.6544 -0.157215 -4.27711 0
M  V30 367 C 33.9804 0.816273 -5.28433 0
M  V30 368 C 35.2804 -1.35656 -5.04376 0
M  V30 369 H 36.9744 -1.04276 -2.80654 0
M  V30 370 H 34.5204 -0.50288 -1.34934 0
M  V30 371 H 36.4734 1.03137 -4.08584 0
M  V30 372 H 35.1974 1.46239 -2.92031 0
M  V30 373 H 33.8564 -0.550525 -3.62443 0
M  V30 374 H 33.5044 1.65494 -4.74996 0
M  V30 375 H 33.2044 0.301067 -5.86828 0
M  V30 376 H 34.7284 1.22659 -5.98153 0
M  V30 377 H 36.1424 -1.01927 -5.64166 0
M  V30 378 H 34.5394 -1.8063 -5.7227 0
M  V30 379 H 35.6094 -2.14288 -4.34981 0
M  V30 380 N 36.9525 1.47285 -0.560781 0
M  V30 381 C 38.1805 2.06855 -0.0430262 0
M  V30 382 C 38.5955 1.41291 1.25229 0
M  V30 383 O 37.9525 0.510648 1.7521 0
M  V30 384 C 38.0035 3.61178 0.152518 0
M  V30 385 O 37.7245 4.24285 -1.0915 0
M  V30 386 C 39.2255 4.37624 0.707145 0
M  V30 387 H 36.4455 0.669319 -0.0474652 0
M  V30 388 H 38.9895 1.89237 -0.77521 0
M  V30 389 H 37.1445 3.78298 0.834843 0
M  V30 390 H 37.5585 5.16868 -0.891482 0
M  V30 391 H 39.0325 5.46271 0.793244 0
M  V30 392 H 39.5095 4.04152 1.71923 0
M  V30 393 H 40.1155 4.25257 0.0604027 0
M  V30 394 N 38.4306 0.297415 1.54768 0
M  V30 395 C 39.6786 -0.312295 1.99673 0
M  V30 396 C 39.9996 -1.54686 1.18732 0
M  V30 397 O 39.2696 -1.93854 0.282382 0
M  V30 398 H 37.8496 -0.118381 0.73756 0
M  V30 399 H 40.5116 0.407915 1.90583 0
M  V30 400 H 39.6076 -0.586813 3.06534 0
M  V30 401 N 39.9087 -1.5758 0.0250728 0
M  V30 402 C 40.8387 -2.13007 -0.956575 0
M  V30 403 C 41.8197 -1.0452 -1.342 0
M  V30 404 O 43.0047 -1.32332 -1.42133 0
M  V30 405 C 40.1347 -2.65386 -2.24026 0
M  V30 406 C 39.0887 -3.78623 -1.99571 0
M  V30 407 C 38.4147 -4.17414 -3.3417 0
M  V30 408 C 39.7147 -5.04867 -1.33814 0
M  V30 409 H 41.4087 -2.9528 -0.494991 0
M  V30 410 H 38.9547 -1.42042 -0.236651 0
M  V30 411 H 40.9077 -3.02794 -2.93076 0
M  V30 412 H 39.6317 -1.80268 -2.72343 0
M  V30 413 H 38.2907 -3.41646 -1.32941 0
M  V30 414 H 37.9387 -3.29284 -3.80238 0
M  V30 415 H 37.6387 -4.93719 -3.18615 0
M  V30 416 H 39.1627 -4.57402 -4.04495 0
M  V30 417 H 40.5767 -5.39888 -1.92857 0
M  V30 418 H 38.9737 -5.86144 -1.28669 0
M  V30 419 H 40.0437 -4.83904 -0.310561 0
M  V30 420 N 41.3868 0.248026 -1.55636 0
M  V30 421 C 42.3168 1.31079 -1.93237 0
M  V30 422 C 43.2978 1.50264 -0.797174 0
M  V30 423 O 44.4828 1.62891 -1.05737 0
M  V30 424 C 41.6128 2.66575 -2.22609 0
M  V30 425 C 40.5668 2.62087 -3.3837 0
M  V30 426 C 39.8928 4.01369 -3.53281 0
M  V30 427 C 41.1928 2.19171 -4.7409 0
M  V30 428 H 42.8868 0.998556 -2.82257 0
M  V30 429 H 40.4328 0.47891 -1.35803 0
M  V30 430 H 42.3858 3.41057 -2.47503 0
M  V30 431 H 41.1098 2.99432 -1.30414 0
M  V30 432 H 39.7688 1.90063 -3.13483 0
M  V30 433 H 39.4168 4.31489 -2.58508 0
M  V30 434 H 39.1168 3.99254 -4.31127 0
M  V30 435 H 40.6408 4.77552 -3.80495 0
M  V30 436 H 42.0548 2.83384 -4.98363 0
M  V30 437 H 40.4518 2.2817 -5.5503 0
M  V30 438 H 41.5218 1.14336 -4.71227 0
M  V30 439 N 42.8649 1.48995 0.513639 0
M  V30 440 C 43.7949 1.67636 1.62544 0
M  V30 441 C 44.7759 0.525087 1.61793 0
M  V30 442 O 45.9609 0.759502 1.78732 0
M  V30 443 C 43.0909 1.73114 3.01079 0
M  V30 444 C 42.0449 2.87905 3.16693 0
M  V30 445 C 41.3709 2.78486 4.56453 0
M  V30 446 C 42.6709 4.29005 2.97913 0
M  V30 447 H 44.3649 2.60716 1.47198 0
M  V30 448 H 41.9109 1.25465 0.706714 0
M  V30 449 H 43.8639 1.84742 3.78746 0
M  V30 450 H 42.5879 0.766241 3.17484 0
M  V30 451 H 41.2469 2.75859 2.41448 0
M  V30 452 H 40.8949 1.7993 4.69717 0
M  V30 453 H 40.5949 3.55523 4.67843 0
M  V30 454 H 42.1189 2.92104 5.36197 0
M  V30 455 H 43.5329 4.41798 3.65359 0
M  V30 456 H 41.9299 5.07166 3.20785 0
M  V30 457 H 42.9999 4.44329 1.94165 0
M  V30 458 N 44.343 -0.763751 1.37857 0
M  V30 459 C 45.273 -1.89103 1.36975 0
M  V30 460 C 46.254 -1.68439 0.237152 0
M  V30 461 O 47.439 -1.8918 0.438713 0
M  V30 462 C 44.569 -3.26496 1.18395 0
M  V30 463 C 43.523 -3.61741 2.28751 0
M  V30 464 C 42.849 -4.97762 1.95286 0
M  V30 465 C 44.149 -3.67665 3.70972 0
M  V30 466 H 45.843 -1.90099 2.31307 0
M  V30 467 H 43.389 -0.91319 1.11341 0
M  V30 468 H 45.342 -4.05003 1.16406 0
M  V30 469 H 44.066 -3.25955 0.205215 0
M  V30 470 H 42.725 -2.85547 2.29909 0
M  V30 471 H 42.373 -4.93769 0.959221 0
M  V30 472 H 42.073 -5.22313 2.69189 0
M  V30 473 H 43.597 -5.7866 1.94898 0
M  V30 474 H 45.011 -4.36307 3.719 0
M  V30 475 H 43.408 -4.03718 4.43995 0
M  V30 476 H 44.478 -2.68134 4.0402 0
M  V30 477 N 45.8211 -1.22559 -0.990812 0
M  V30 478 C 46.7531 -0.955325 -2.08342 0
M  V30 479 C 47.7661 0.0668408 -1.62663 0
M  V30 480 O 48.9551 -0.167421 -1.77713 0
M  V30 481 C 46.0551 -0.415566 -3.36342 0
M  V30 482 C 45.2281 -1.49544 -4.11042 0
M  V30 483 C 44.2871 -0.962399 -5.17324 0
M  V30 484 O 43.3131 -1.64907 -5.44788 0
M  V30 485 N 44.5151 0.215134 -5.80101 0
M  V30 486 H 47.2801 -1.89596 -2.32106 0
M  V30 487 H 44.8411 -1.13276 -1.15673 0
M  V30 488 H 46.8331 -0.0442386 -4.04676 0
M  V30 489 H 45.4031 0.430232 -3.09625 0
M  V30 490 H 44.6231 -2.04 -3.37309 0
M  V30 491 H 45.9111 -2.22195 -4.57719 0
M  V30 492 H 45.3091 0.789779 -5.6016 0
M  V30 493 H 43.8661 0.527826 -6.49659 0
M  V30 494 N 47.2992 1.18797 -1.03562 0
M  V30 495 C 48.2622 2.20464 -0.626769 0
M  V30 496 C 49.2622 1.57721 0.313173 0
M  V30 497 O 50.4522 1.73917 0.0992615 0
M  V30 498 C 47.5842 3.40802 0.0818498 0
M  V30 499 H 48.7772 2.58149 -1.5264 0
M  V30 500 H 46.3302 1.32593 -0.827578 0
M  V30 501 H 47.0652 3.08642 0.995518 0
M  V30 502 H 46.8502 3.8758 -0.593652 0
M  V30 503 H 48.3402 4.16092 0.354584 0
M  V30 504 N 48.7773 0.814389 1.34928 0
M  V30 505 C 50.0233 0.399013 1.98836 0
M  V30 506 C 50.3563 -1.03314 1.64438 0
M  V30 507 O 49.6313 -1.71811 0.911659 0
M  V30 508 C 49.9143 0.591629 3.55207 0
M  V30 509 C 49.7673 2.06928 3.99376 0
M  V30 510 C 51.0863 0.022199 4.40094 0
M  V30 511 H 48.2053 0.146451 0.722303 0
M  V30 512 H 50.8473 1.02537 1.59957 0
M  V30 513 H 48.9973 0.0584441 3.88456 0
M  V30 514 H 50.6693 2.66544 3.76499 0
M  V30 515 H 48.9123 2.56287 3.49999 0
M  V30 516 H 49.5833 2.1549 5.08201 0
M  V30 517 H 52.0593 0.477643 4.13349 0
M  V30 518 H 50.9353 0.186832 5.48582 0
M  V30 519 H 51.1963 -1.07215 4.28902 0
M  V30 520 N 50.2554 -1.46986 0.568584 0
M  V30 521 C 51.4804 -2.07335 0.0520528 0
M  V30 522 C 51.9054 -1.41675 -1.23733 0
M  V30 523 O 51.2634 -0.495623 -1.74394 0
M  V30 524 C 51.3114 -3.60417 -0.11501 0
M  V30 525 O 50.4154 -3.95309 -1.17492 0
M  V30 526 H 49.7564 -0.661597 0.0564385 0
M  V30 527 H 52.2864 -1.88837 0.787507 0
M  V30 528 H 52.2964 -4.06698 -0.325644 0
M  V30 529 H 50.9714 -4.07601 0.826675 0
M  V30 530 H 49.5484 -3.60757 -0.943869 0
M  V30 531 N 51.7335 -0.305618 -1.54608 0
M  V30 532 C 52.9795 0.295595 -2.01241 0
M  V30 533 C 53.3345 1.51171 -1.19018 0
M  V30 534 O 52.6275 1.89832 -0.259684 0
M  V30 535 C 52.8215 0.698983 -3.50498 0
M  V30 536 C 52.6505 -0.476491 -4.47168 0
M  V30 537 C 51.4205 -0.969963 -4.95903 0
M  V30 538 C 53.6185 -1.32294 -4.96994 0
M  V30 539 N 51.6005 -2.11172 -5.76437 0
M  V30 540 C 52.9715 -2.31212 -5.75275 0
M  V30 541 C 55.0265 -1.35278 -4.7917 0
M  V30 542 C 53.7295 -3.32896 -6.37631 0
M  V30 543 C 55.7555 -2.35823 -5.42348 0
M  V30 544 C 55.1175 -3.33469 -6.20466 0
M  V30 545 H 51.2165 0.0724992 -0.778632 0
M  V30 546 H 53.8005 -0.436583 -1.89742 0
M  V30 547 H 51.9715 1.40032 -3.62278 0
M  V30 548 H 53.7035 1.28013 -3.8392 0
M  V30 549 H 50.4585 -0.544178 -4.70463 0
M  V30 550 H 50.8825 -2.68714 -6.21387 0
M  V30 551 H 55.5245 -0.61157 -4.18354 0
M  V30 552 H 53.2425 -4.07933 -6.97579 0
M  V30 553 H 56.8285 -2.38911 -5.30484 0
M  V30 554 H 55.7085 -4.09996 -6.68485 0
M  V30 555 N 53.2116 1.57565 -0.0334293 0
M  V30 556 C 54.1746 2.09393 0.932048 0
M  V30 557 C 55.1746 1.00986 1.25134 0
M  V30 558 O 56.3646 1.27129 1.19096 0
M  V30 559 C 53.4966 2.56338 2.2473 0
M  V30 560 H 54.6896 2.95984 0.483085 0
M  V30 561 H 52.2426 1.54819 0.21468 0
M  V30 562 H 52.9776 1.7309 2.74245 0
M  V30 563 H 52.7626 3.35542 2.02865 0
M  V30 564 H 54.2526 2.96646 2.93923 0
M  V30 565 N 54.6897 -0.239769 1.55765 0
M  V30 566 C 55.9147 -0.988373 1.82335 0
M  V30 567 C 56.3397 -1.77886 0.611421 0
M  V30 568 O 55.6977 -1.75889 -0.439639 0
M  V30 569 C 55.7457 -1.89627 3.06715 0
M  V30 570 O 54.8497 -2.98904 2.84131 0
M  V30 571 H 54.1907 -0.280858 0.601677 0
M  V30 572 H 56.7207 -0.258597 2.02959 0
M  V30 573 H 56.7307 -2.30957 3.36338 0
M  V30 574 H 55.4057 -1.31511 3.9456 0
M  V30 575 H 53.9827 -2.61651 2.65694 0
M  V30 576 N 56.1678 -1.49265 -0.50573 0
M  V30 577 C 57.4158 -1.582 -1.25766 0
M  V30 578 C 57.7368 -0.268482 -1.93143 0
M  V30 579 O 57.0068 0.711833 -1.8251 0
M  V30 580 H 55.5868 -0.582873 -0.467191 0
M  V30 581 H 58.2488 -1.85865 -0.586525 0
M  V30 582 H 57.3448 -2.37563 -2.02412 0
M  V30 583 N 57.6459 0.756429 -1.3826 0
M  V30 584 C 58.6089 1.85176 -1.35065 0
M  V30 585 C 59.6089 1.58818 -0.251703 0
M  V30 586 O 60.7989 1.66615 -0.508433 0
M  V30 587 C 57.9309 3.22596 -1.10201 0
M  V30 588 H 59.1239 1.89417 -2.3251 0
M  V30 589 H 56.6769 0.95783 -1.23512 0
M  V30 590 H 57.4119 3.24025 -0.133504 0
M  V30 591 H 57.1969 3.43122 -1.89762 0
M  V30 592 H 58.6869 4.02673 -1.10654 0
M  V30 593 N 59.124 1.23083 0.984299 0
M  V30 594 C 60.54 0.992637 1.24975 0
M  V30 595 C 60.74 -0.308618 1.99123 0
M  V30 596 O 59.796 -1.02905 2.30579 0
M  V30 597 C 61.109 2.19698 2.05312 0
M  V30 598 C 62.657 2.24147 2.18465 0
M  V30 599 C 63.132 3.44157 3.02192 0
M  V30 600 N 64.623 3.44372 3.09777 0
M  V30 601 C 65.358 4.33886 3.74874 0
M  V30 602 N 64.854 5.3363 4.41827 0
M  V30 603 N 66.647 4.21639 3.71721 0
M  V30 604 H 58.798 2.06731 0.487453 0
M  V30 605 H 61.061 0.906339 0.277944 0
M  V30 606 H 60.767 3.1411 1.58201 0
M  V30 607 H 60.641 2.20465 3.06064 0
M  V30 608 H 63.028 1.30277 2.64786 0
M  V30 609 H 63.109 2.27415 1.17115 0
M  V30 610 H 62.753 4.38332 2.56568 0
M  V30 611 H 62.683 3.3813 4.03702 0
M  V30 612 H 65.174 2.72201 2.62135 0
M  V30 613 H 65.487 5.98196 4.89266 0
M  V30 614 H 63.832 5.37534 4.40548 0
M  V30 615 H 67.023 3.42962 3.18582 0
M  V30 616 H 67.196 4.91604 4.22173 0
M  V30 617 N 60.6021 -1.18246 1.0419 0
M  V30 618 C 62.0131 -1.69914 0.773698 0
M  V30 619 C 62.3641 -1.83085 -0.705297 0
M  V30 620 O 61.4891 -1.51123 -1.5489 0
M  V30 621 C 62.0841 -3.08619 1.39784 0
M  V30 622 C 60.6431 -3.57494 1.17792 0
M  V30 623 C 59.7901 -2.34013 1.48773 0
M  V30 624 H 62.7411 -1.02904 1.20816 0
M  V30 625 H 62.7621 -3.71958 0.801714 0
M  V30 626 H 62.2741 -2.99001 2.47426 0
M  V30 627 H 60.3751 -3.72406 0.120295 0
M  V30 628 H 60.4881 -4.40852 1.87581 0
M  V30 629 H 58.8521 -2.37986 0.907463 0
M  V30 630 H 59.6351 -2.27013 2.57527 0
M  V30 631 N 62.0802 -0.821533 -1.34494 0
M  V30 632 C 63.3202 -0.414785 -2.00147 0
M  V30 633 C 63.6842 1.00299 -1.6372 0
M  V30 634 O 64.8852 1.51255 -2.22206 0
M  V30 635 C 63.1562 -0.609403 -3.52166 0
M  V30 636 S 64.7152 -0.295297 -4.37805 0
M  V30 637 H 61.5332 -0.15679 -0.693497 0
M  V30 638 H 64.1352 -1.06705 -1.63812 0
M  V30 639 H 62.8392 -1.64096 -3.76166 0
M  V30 640 H 62.3702 0.0576414 -3.93358 0
M  V30 641 H 64.3852 0.891531 -4.88125 0
M  V30 642 N 63.5583 1.46682 -0.576371 0
M  V30 643 C 64.8073 2.01619 -0.0572825 0
M  V30 644 C 65.1203 1.45417 1.30818 0
M  V30 645 O 66.3263 1.92133 1.91825 0
M  V30 646 C 64.7823 3.59863 -0.0518371 0
M  V30 647 C 64.3903 4.25059 -1.41523 0
M  V30 648 C 66.1343 4.2248 0.413639 0
M  V30 649 C 64.0413 5.75364 -1.36785 0
M  V30 650 H 62.9713 0.753794 -0.0176448 0
M  V30 651 H 65.6223 1.68481 -0.727076 0
M  V30 652 H 64.0043 3.90048 0.683994 0
M  V30 653 H 65.1783 4.06491 -2.17029 0
M  V30 654 H 63.4933 3.7451 -1.8202 0
M  V30 655 H 66.0903 5.3265 0.467779 0
M  V30 656 H 66.4333 3.90976 1.42982 0
M  V30 657 H 66.9663 3.96897 -0.267929 0
M  V30 658 H 63.7053 6.11518 -2.36063 0
M  V30 659 H 63.2253 5.96214 -0.654895 0
M  V30 660 H 64.9043 6.37955 -1.07805 0
M  V30 661 N 65.0364 0.313813 1.54444 0
M  V30 662 C 66.4474 -0.176243 1.85866 0
M  V30 663 C 66.7984 -1.52405 1.23561 0
M  V30 664 O 65.9234 -2.09605 0.538016 0
M  V30 665 C 66.5184 -0.32657 3.37222 0
M  V30 666 C 65.0774 -0.760846 3.6863 0
M  V30 667 C 64.2244 0.123247 2.77026 0
M  V30 668 H 67.1754 0.534418 1.49431 0
M  V30 669 H 67.1964 -1.15908 3.62416 0
M  V30 670 H 66.7084 0.654531 3.82541 0
M  V30 671 H 64.8094 -1.75204 3.28838 0
M  V30 672 H 64.9224 -0.571353 4.75681 0
M  V30 673 H 63.2864 -0.399597 2.51546 0
M  V30 674 H 64.0694 1.10094 3.25168 0
M  V30 675 N 66.5145 -1.57545 0.0417849 0
M  V30 676 C 67.4615 -2.10977 -0.935805 0
M  V30 677 C 68.4315 -1.01486 -1.31491 0
M  V30 678 O 69.6165 -1.2898 -1.40602 0
M  V30 679 C 66.7565 -2.65169 -2.2086 0
M  V30 680 C 65.8695 -3.88714 -1.88482 0
M  V30 681 C 65.0045 -4.31254 -3.1015 0
M  V30 682 C 64.0435 -5.47524 -2.7365 0
M  V30 683 N 63.1805 -5.85162 -3.87982 0
M  V30 684 H 68.0205 -2.94218 -0.473249 0
M  V30 685 H 65.5575 -1.45415 -0.221981 0
M  V30 686 H 67.5155 -2.94685 -2.95325 0
M  V30 687 H 66.1455 -1.8474 -2.64709 0
M  V30 688 H 65.1975 -3.65849 -1.04205 0
M  V30 689 H 66.5095 -4.73245 -1.57608 0
M  V30 690 H 65.6635 -4.62273 -3.92923 0
M  V30 691 H 64.4025 -3.45516 -3.44195 0
M  V30 692 H 63.4075 -5.16187 -1.89291 0
M  V30 693 H 64.6325 -6.34971 -2.40807 0
M  V30 694 H 62.5785 -5.02377 -4.21846 0
M  V30 695 H 62.4955 -6.64362 -3.60775 0
M  V30 696 H 63.7635 -6.20791 -4.71422 0
M  V30 697 N 67.9926 0.231505 -1.5589 0
M  V30 698 C 69.2176 0.978689 -1.82856 0
M  V30 699 C 69.6426 1.77559 -0.620846 0
M  V30 700 O 69.0006 1.76119 0.430305 0
M  V30 701 C 69.0486 1.87997 -3.07716 0
M  V30 702 O 68.1526 2.97393 -2.85712 0
M  V30 703 H 67.4936 0.277663 -0.603158 0
M  V30 704 H 70.0236 0.24783 -2.03093 0
M  V30 705 H 70.0336 2.2917 -3.37558 0
M  V30 706 H 68.7086 1.29417 -3.95252 0
M  V30 707 H 67.2856 2.60238 -2.67078 0
M  V30 708 N 69.4707 1.49531 0.497807 0
M  V30 709 C 70.7177 1.59179 1.25173 0
M  V30 710 C 71.0457 0.279932 1.92475 0
M  V30 711 O 70.3007 -0.732383 1.81479 0
M  V30 712 C 70.5997 2.70252 2.33878 0
M  V30 713 C 70.2657 4.11644 1.84012 0
M  V30 714 C 68.9277 4.50121 1.70132 0
M  V30 715 C 71.2797 5.00121 1.46725 0
M  V30 716 C 68.6077 5.74845 1.17348 0
M  V30 717 C 70.9597 6.25366 0.95392 0
M  V30 718 C 69.6237 6.6267 0.801538 0
M  V30 719 H 68.8937 0.582478 0.45804 0
M  V30 720 H 71.5407 1.83373 0.551948 0
M  V30 721 H 69.8457 2.40041 3.09657 0
M  V30 722 H 71.5427 2.74925 2.9192 0
M  V30 723 H 68.1327 3.81274 1.95775 0
M  V30 724 H 72.3167 4.71048 1.56294 0
M  V30 725 H 67.5727 6.02444 1.04264 0
M  V30 726 H 71.7467 6.93301 0.656225 0
M  V30 727 H 69.3737 7.59197 0.390351 0
M  V30 728 N 70.9488 -0.749086 1.3866 0
M  V30 729 C 72.1968 -1.50535 1.34847 0
M  V30 730 C 72.5178 -1.94909 -0.0595016 0
M  V30 731 O 71.7878 -1.67973 -1.00806 0
M  V30 732 H 70.3678 -0.558395 0.49619 0
M  V30 733 H 73.0298 -0.890165 1.73384 0
M  V30 734 H 72.1258 -2.39413 2.00219 0
M  V30 735 N 72.4269 -1.23603 -0.977757 0
M  V30 736 C 73.6569 -1.09487 -1.75203 0
M  V30 737 C 74.0649 0.356321 -1.85814 0
M  V30 738 O 73.4079 1.25816 -1.33851 0
M  V30 739 C 73.4699 -1.64905 -3.19447 0
M  V30 740 C 73.1339 -3.13688 -3.32338 0
M  V30 741 C 74.1309 -4.10953 -3.18455 0
M  V30 742 C 71.8159 -3.53449 -3.56902 0
M  V30 743 C 73.8099 -5.45962 -3.28944 0
M  V30 744 C 71.4969 -4.88602 -3.6703 0
M  V30 745 C 72.4949 -5.84668 -3.53062 0
M  V30 746 O 72.1829 -7.17365 -3.62826 0
M  V30 747 H 71.9149 -0.38367 -0.556573 0
M  V30 748 H 74.4689 -1.6398 -1.23693 0
M  V30 749 H 72.6989 -1.04835 -3.72218 0
M  V30 750 H 74.3879 -1.46226 -3.78646 0
M  V30 751 H 75.1539 -3.81577 -2.99372 0
M  V30 752 H 71.0329 -2.79188 -3.66844 0
M  V30 753 H 74.5769 -6.20925 -3.17958 0
M  V30 754 H 70.4739 -5.17653 -3.85623 0
M  V30 755 H 71.2419 -7.2515 -3.79605 0
M  V30 756 N 73.905 1.17692 -1.04816 0
M  V30 757 C 75.13 1.92327 -0.776207 0
M  V30 758 C 75.555 1.76082 0.661581 0
M  V30 759 O 74.913 1.076 1.45917 0
M  V30 760 C 74.961 3.41539 -1.15687 0
M  V30 761 O 74.065 4.11402 -0.286775 0
M  V30 762 H 73.406 0.599735 -0.284981 0
M  V30 763 H 75.936 1.49201 -1.4 0
M  V30 764 H 75.946 3.92269 -1.12202 0
M  V30 765 H 74.621 3.52684 -2.20425 0
M  V30 766 H 73.198 3.70939 -0.381903 0
M  V30 767 N 75.3831 0.828654 1.34056 0
M  V30 768 C 76.6081 0.431637 2.02859 0
M  V30 769 C 77.0331 -0.956339 1.61975 0
M  V30 770 O 76.3911 -1.62338 0.807228 0
M  V30 771 C 76.4391 0.548323 3.56407 0
M  V30 772 O 75.5431 -0.429556 4.10157 0
M  V30 773 H 74.8841 0.176886 0.640006 0
M  V30 774 H 77.4141 1.12066 1.71179 0
M  V30 775 H 77.4241 0.426196 4.05768 0
M  V30 776 H 76.0991 1.5606 3.8551 0
M  V30 777 H 74.6761 -0.265836 3.71951 0
M  V30 778 N 76.8612 -1.46375 0.584142 0
M  V30 779 C 78.1072 -2.02678 0.0703716 0
M  V30 780 C 78.4402 -1.4545 -1.28678 0
M  V30 781 O 77.7152 -0.62014 -1.84349 0
M  V30 782 C 77.9982 -3.60099 0.00614674 0
M  V30 783 C 77.8512 -4.27709 1.3923 0
M  V30 784 C 79.1702 -4.34598 -0.693742 0
M  V30 785 H 76.2892 -0.736504 0.027047 0
M  V30 786 H 78.9312 -1.74501 0.751615 0
M  V30 787 H 77.0812 -3.84236 -0.574009 0
M  V30 788 H 78.7532 -4.14832 2.01773 0
M  V30 789 H 76.9962 -3.87016 1.95962 0
M  V30 790 H 77.6672 -5.36478 1.29982 0
M  V30 791 H 80.1432 -4.15615 -0.200869 0
M  V30 792 H 79.0192 -5.44318 -0.707714 0
M  V30 793 H 79.2802 -4.05759 -1.75533 0
M  V30 794 N 78.3393 -0.321999 -1.54275 0
M  V30 795 C 79.5853 0.281461 -2.00837 0
M  V30 796 C 79.9183 1.51909 -1.20985 0
M  V30 797 O 79.1933 1.923 -0.291733 0
M  V30 798 C 79.4763 0.617162 -3.54772 0
M  V30 799 C 79.3293 -0.631064 -4.45351 0
M  V30 800 C 80.6483 1.43542 -4.16033 0
M  V30 801 H 77.7673 0.100826 -0.730071 0
M  V30 802 H 80.4093 -0.438268 -1.84876 0
M  V30 803 H 78.5593 1.23034 -3.68504 0
M  V30 804 H 80.2313 -1.26934 -4.43492 0
M  V30 805 H 78.4743 -1.26025 -4.15091 0
M  V30 806 H 79.1453 -0.351735 -5.50878 0
M  V30 807 H 81.6213 0.917134 -4.05867 0
M  V30 808 H 80.4973 1.63907 -5.23856 0
M  V30 809 H 80.7583 2.43108 -3.69257 0
M  V30 810 N 79.8174 1.5752 -0.0501392 0
M  V30 811 C 81.0574 1.94521 0.627783 0
M  V30 812 C 81.4214 0.928265 1.68069 0
M  V30 813 O 82.6224 1.18517 2.41261 0
M  V30 814 C 80.8934 3.36319 1.20932 0
M  V30 815 S 82.4524 3.95272 1.90539 0
M  V30 816 H 79.2704 0.680456 0.206158 0
M  V30 817 H 81.8724 1.95139 -0.118829 0
M  V30 818 H 80.5764 4.08132 0.430865 0
M  V30 819 H 80.1074 3.39193 1.99277 0
M  V30 820 H 82.1224 3.80415 3.18589 0
M  V30 821 N 81.2955 -0.223234 1.56011 0
M  V30 822 C 82.5415 -0.949279 1.79211 0
M  V30 823 C 82.8745 -1.84054 0.619494 0
M  V30 824 O 82.1495 -1.90726 -0.381317 0
M  V30 825 C 82.4325 -1.78965 3.12479 0
M  V30 826 C 82.2855 -0.924997 4.40186 0
M  V30 827 C 83.6045 -2.76774 3.42175 0
M  V30 828 H 80.7235 -0.343676 0.651963 0
M  V30 829 H 83.3655 -0.218253 1.88742 0
M  V30 830 H 81.5155 -2.41291 3.04485 0
M  V30 831 H 83.1875 -0.318615 4.60198 0
M  V30 832 H 81.4305 -0.230344 4.33188 0
M  V30 833 H 82.1015 -1.54735 5.29869 0
M  V30 834 H 84.5775 -2.24584 3.50287 0
M  V30 835 H 83.4535 -3.32678 4.36597 0
M  V30 836 H 83.7145 -3.54429 2.64258 0
M  V30 837 N 82.7736 -1.49793 -0.48987 0
M  V30 838 C 84.0136 -1.61466 -1.25332 0
M  V30 839 C 84.3776 -0.299688 -1.89647 0
M  V30 840 O 85.5786 -0.291687 -2.67213 0
M  V30 841 C 83.8496 -2.74944 -2.28343 0
M  V30 842 S 85.4086 -3.06637 -3.13878 0
M  V30 843 H 82.2266 -0.569411 -0.425784 0
M  V30 844 H 84.8286 -1.875 -0.553541 0
M  V30 845 H 83.5326 -3.68994 -1.79643 0
M  V30 846 H 83.0636 -2.50938 -3.02975 0
M  V30 847 H 85.0786 -2.49015 -4.29192 0
M  V30 848 N 84.2517 0.741722 -1.39055 0
M  V30 849 C 85.1997 1.87702 -1.3737 0
M  V30 850 C 86.1937 1.67427 -0.257812 0
M  V30 851 O 87.3997 1.7485 -0.427489 0
M  V30 852 H 83.7747 0.617757 -0.428812 0
M  V30 853 H 85.7457 1.86239 -2.33147 0
M  V30 854 C 84.4947 3.25315 -1.22741 0
M  V30 855 H 83.8177 3.41509 -2.07873 0
M  V30 856 H 85.2577 4.04964 -1.25618 0
M  V30 857 C 83.7167 3.36838 0.0647316 0
M  V30 858 O 84.2467 3.88073 1.03741 0
M  V30 859 N 82.4527 2.90329 0.125544 0
M  V30 860 H 81.9997 2.48823 -0.666682 0
M  V30 861 H 81.9577 2.98418 0.989639 0
M  V30 862 N 85.7298 1.2412 0.971189 0
M  V30 863 C 86.6928 1.03156 2.04674 0
M  V30 864 C 87.6928 -0.00990322 1.60797 0
M  V30 865 O 88.8828 0.230729 1.72665 0
M  V30 866 C 86.0148 0.562765 3.36223 0
M  V30 867 H 87.2078 1.98614 2.24705 0
M  V30 868 H 84.7608 1.06293 1.14593 0
M  V30 869 H 85.4958 -0.395176 3.21883 0
M  V30 870 H 85.2808 1.31441 3.69413 0
M  V30 871 H 86.7708 0.437015 4.15307 0
M  V30 872 N 87.2079 -1.17134 1.05439 0
M  V30 873 C 88.4359 -1.91372 0.786414 0
M  V30 874 C 88.8509 -1.76955 -0.658202 0
M  V30 875 O 88.2079 -1.10838 -1.44987 0
M  V30 876 C 88.2589 -3.42356 1.1608 0
M  V30 877 O 87.9799 -3.56332 2.54871 0
M  V30 878 C 89.4809 -4.33663 0.919322 0
M  V30 879 H 86.7009 -0.607118 0.285743 0
M  V30 880 H 89.2449 -1.48525 1.40572 0
M  V30 881 H 87.3999 -3.82939 0.586191 0
M  V30 882 H 87.8139 -4.49896 2.69618 0
M  V30 883 H 89.2879 -5.38099 1.231 0
M  V30 884 H 89.7649 -4.38959 -0.145359 0
M  V30 885 H 90.3709 -3.98796 1.47789 0
M  V30 886 N 88.686 -0.835752 -1.33615 0
M  V30 887 C 89.916 -0.442701 -2.01801 0
M  V30 888 C 90.324 0.959807 -1.63047 0
M  V30 889 O 89.667 1.63468 -0.838088 0
M  V30 890 C 89.729 -0.480125 -3.56279 0
M  V30 891 C 89.393 -1.8382 -4.18401 0
M  V30 892 C 90.39 -2.80097 -4.37998 0
M  V30 893 C 88.075 -2.13019 -4.54894 0
M  V30 894 C 90.069 -4.03736 -4.9323 0
M  V30 895 C 87.756 -3.36916 -5.09834 0
M  V30 896 C 88.754 -4.32091 -5.28948 0
M  V30 897 O 88.442 -5.53797 -5.82721 0
M  V30 898 H 88.174 -0.17441 -0.653114 0
M  V30 899 H 90.728 -1.129 -1.71589 0
M  V30 900 H 88.958 0.262931 -3.85805 0
M  V30 901 H 90.647 -0.105335 -4.05763 0
M  V30 902 H 91.413 -2.58838 -4.10156 0
M  V30 903 H 87.292 -1.39733 -4.39313 0
M  V30 904 H 90.836 -4.78034 -5.08064 0
M  V30 905 H 86.733 -3.58033 -5.37106 0
M  V30 906 H 87.501 -5.55494 -6.0114 0
M  V30 907 N 90.1641 1.46063 -0.591896 0
M  V30 908 C 91.4041 2.04228 -0.0838014 0
M  V30 909 C 91.7681 1.45231 1.25587 0
M  V30 910 O 92.9691 1.94653 1.85375 0
M  V30 911 C 91.2401 3.57389 -0.0286282 0
M  V30 912 S 92.7991 4.3678 0.420557 0
M  V30 913 H 89.6171 0.709762 -0.0419319 0
M  V30 914 H 92.2191 1.78983 -0.786465 0
M  V30 915 H 90.9231 3.97843 -1.00743 0
M  V30 916 H 90.4541 3.87185 0.69652 0
M  V30 917 H 92.4691 4.67131 1.67341 0
M  V30 918 N 91.6422 0.330177 1.54103 0
M  V30 919 C 92.9192 -0.325007 1.92881 0
M  V30 920 C 93.2992 -1.6934 1.26045 0
M  V30 921 O 92.6472 -2.24855 0.406526 0
M  V30 922 C 92.8572 -0.410634 3.46576 0
M  V30 923 C 94.2052 -0.667801 4.19316 0
M  V30 924 O 95.2292 -0.49329 3.52768 0
M  V30 925 O 94.0882 -1.00491 5.37181 0
M  V30 926 H 91.1822 -0.186873 0.80561 0
M  V30 927 H 93.7282 0.380376 1.65382 0
M  V30 928 H 92.5002 0.550164 3.87413 0
M  V30 929 H 92.1232 -1.16333 3.802 0
M  V30 930 N 93.1203 -1.57491 0.0584922 0
M  V30 931 C 94.3453 -1.97711 -0.62652 0
M  V30 932 C 94.7703 -0.936132 -1.63151 0
M  V30 933 O 94.1283 0.099811 -1.81025 0
M  V30 934 C 94.1763 -3.36989 -1.28338 0
M  V30 935 O 93.2803 -3.35433 -2.39913 0
M  V30 936 H 92.6213 -0.643868 -0.162266 0
M  V30 937 H 95.1513 -2.04193 0.129064 0
M  V30 938 H 95.1613 -3.73879 -1.63335 0
M  V30 939 H 93.8363 -4.12289 -0.546889 0
M  V30 940 H 92.4133 -3.10298 -2.06809 0
M  V30 941 N 94.5984 0.214957 -1.56127 0
M  V30 942 C 95.8454 0.938372 -1.79446 0
M  V30 943 C 96.1734 1.8407 -0.628378 0
M  V30 944 O 95.4284 1.91837 0.386925 0
M  V30 945 C 95.7274 1.80314 -3.0858 0
M  V30 946 C 95.3934 1.05349 -4.3842 0
M  V30 947 C 94.0554 0.846435 -4.73697 0
M  V30 948 C 96.4074 0.524588 -5.18553 0
M  V30 949 C 93.7354 0.098683 -5.86617 0
M  V30 950 C 96.0874 -0.209853 -6.32252 0
M  V30 951 C 94.7514 -0.428102 -6.66126 0
M  V30 952 H 94.0214 0.343375 -0.656639 0
M  V30 953 H 96.6684 0.206077 -1.90388 0
M  V30 954 H 94.9734 2.6035 -2.92789 0
M  V30 955 H 96.6704 2.36513 -3.23825 0
M  V30 956 H 93.2604 1.22486 -4.10725 0
M  V30 957 H 97.4444 0.672008 -4.91729 0
M  V30 958 H 92.7004 -0.0805753 -6.11347 0
M  V30 959 H 96.8744 -0.627157 -6.9357 0
M  V30 960 H 94.5014 -1.00944 -7.53468 0
M  V30 961 N 96.0765 1.50051 0.48192 0
M  V30 962 C 97.3535 1.51009 1.2432 0
M  V30 963 C 97.7335 0.248587 2.09631 0
M  V30 964 O 97.0815 -0.768409 2.15192 0
M  V30 965 C 97.2915 2.79981 2.08355 0
M  V30 966 C 98.6395 3.3022 2.66908 0
M  V30 967 O 99.6635 2.81228 2.18607 0
M  V30 968 O 98.5225 4.15595 3.54884 0
M  V30 969 H 95.6165 0.605239 0.563573 0
M  V30 970 H 98.1625 1.62332 0.494627 0
M  V30 971 H 96.9345 3.63275 1.45419 0
M  V30 972 H 96.5575 2.7161 2.90368 0
M  V30 973 N 97.5546 -0.734337 1.39446 0
M  V30 974 C 98.9656 -1.31264 1.32766 0
M  V30 975 C 99.3166 -1.96198 -0.00767497 0
M  V30 976 O 98.4416 -1.96346 -0.909796 0
M  V30 977 C 99.0366 -2.38682 2.4045 0
M  V30 978 C 97.5956 -2.92184 2.37288 0
M  V30 979 C 96.7426 -1.6576 2.22304 0
M  V30 980 H 99.6936 -0.531799 1.49525 0
M  V30 981 H 99.7146 -3.19087 2.07276 0
M  V30 982 H 99.2266 -1.91392 3.37625 0
M  V30 983 H 97.3276 -3.43752 1.43754 0
M  V30 984 H 97.4406 -3.45253 3.3217 0
M  V30 985 H 95.8046 -1.9012 1.69489 0
M  V30 986 H 96.5876 -1.20521 3.21449 0
M  V30 987 N 99.0327 -1.24633 -0.964593 0
M  V30 988 C 100.444 -1.08045 -1.5226 0
M  V30 989 C 100.795 0.347116 -1.93105 0
M  V30 990 O 99.9197 1.23588 -1.77637 0
M  V30 991 C 100.515 -1.95514 -2.76695 0
M  V30 992 C 99.0737 -1.8314 -3.28841 0
M  V30 993 C 98.2207 -1.90262 -2.01732 0
M  V30 994 H 101.172 -1.38064 -0.782553 0
M  V30 995 H 101.193 -1.48925 -3.50145 0
M  V30 996 H 100.705 -2.99407 -2.46936 0
M  V30 997 H 98.8057 -0.82092 -3.63444 0
M  V30 998 H 98.9187 -2.67406 -3.97531 0
M  V30 999 H 97.2827 -1.34027 -2.16584 0
M  V30 1000 H 98.0657 -2.9574 -1.74334 0
M  V30 1001 N 100.511 1.16574 -1.06058 0
M  V30 1002 C 101.739 1.90952 -0.796552 0
M  V30 1003 C 102.154 1.77302 0.648808 0
M  V30 1004 O 101.511 1.11605 1.44397 0
M  V30 1005 C 101.562 3.41736 -1.17894 0
M  V30 1006 O 101.283 3.54975 -2.56758 0
M  V30 1007 C 102.784 4.33169 -0.942308 0
M  V30 1008 H 100.004 0.605594 -0.288959 0
M  V30 1009 H 102.548 1.47777 -1.41358 0
M  V30 1010 H 100.703 3.82623 -0.606491 0
M  V30 1011 H 101.117 4.4846 -2.72 0
M  V30 1012 H 102.591 5.37439 -1.25952 0
M  V30 1013 H 103.068 4.3903 0.122078 0
M  V30 1014 H 103.674 3.98007 -1.49902 0
M  V30 1015 N 101.989 0.842826 1.3317 0
M  V30 1016 C 103.236 0.440447 1.97652 0
M  V30 1017 C 103.564 -1.00123 1.6675 0
M  V30 1018 O 102.819 -1.7155 0.941761 0
M  V30 1019 C 103.118 0.612607 3.52111 0
M  V30 1020 C 102.784 2.02297 4.02972 0
M  V30 1021 C 101.446 2.40874 4.16573 0
M  V30 1022 C 103.798 2.94402 4.30089 0
M  V30 1023 C 101.126 3.70852 4.54627 0
M  V30 1024 C 103.478 4.23865 4.69597 0
M  V30 1025 C 102.142 4.62392 4.81404 0
M  V30 1026 H 101.412 0.161171 0.72326 0
M  V30 1027 H 104.059 1.07061 1.58777 0
M  V30 1028 H 102.364 -0.100849 3.9167 0
M  V30 1029 H 104.061 0.2815 4.00011 0
M  V30 1030 H 100.651 1.71338 3.92863 0
M  V30 1031 H 104.835 2.65835 4.19101 0
M  V30 1032 H 100.091 4.00501 4.61962 0
M  V30 1033 H 104.265 4.95306 4.89536 0
M  V30 1034 H 101.892 5.63154 5.10648 0
M  V30 1035 N 103.467 -1.45747 0.599634 0
M  V30 1036 C 104.878 -1.85853 0.177681 0
M  V30 1037 C 105.229 -1.50102 -1.26348 0
M  V30 1038 O 104.354 -0.923905 -1.95686 0
M  V30 1039 C 104.949 -3.37326 0.315688 0
M  V30 1040 C 103.508 -3.76365 -0.0515144 0
M  V30 1041 C 102.655 -2.69722 0.643822 0
M  V30 1042 H 105.606 -1.36661 0.806814 0
M  V30 1043 H 105.627 -3.77778 -0.454321 0
M  V30 1044 H 105.139 -3.63315 1.36468 0
M  V30 1045 H 103.24 -3.55993 -1.09999 0
M  V30 1046 H 103.353 -4.77916 0.336594 0
M  V30 1047 H 101.717 -2.54567 0.0822881 0
M  V30 1048 H 102.5 -2.98549 1.6948 0
M  V30 1049 N 104.945 -0.338344 -1.53925 0
M  V30 1050 C 105.908 0.508299 -2.23493 0
M  V30 1051 C 106.908 1.03175 -1.23335 0
M  V30 1052 O 108.098 0.921826 -1.47811 0
M  V30 1053 C 105.23 1.70754 -2.95052 0
M  V30 1054 H 106.423 -0.100058 -2.99733 0
M  V30 1055 H 103.976 -0.0896198 -1.56043 0
M  V30 1056 H 104.711 2.35474 -2.22986 0
M  V30 1057 H 104.496 1.33946 -3.68512 0
M  V30 1058 H 105.986 2.30818 -3.48013 0
M  V30 1059 N 106.423 1.57458 -0.0668435 0
M  V30 1060 C 107.353 2.15468 0.899764 0
M  V30 1061 C 108.334 1.08042 1.31381 0
M  V30 1062 O 109.519 1.36054 1.38574 0
M  V30 1063 C 106.649 2.71232 2.16911 0
M  V30 1064 C 105.603 3.83781 1.89463 0
M  V30 1065 C 104.929 4.26127 3.22986 0
M  V30 1066 C 106.229 5.08238 1.20381 0
M  V30 1067 H 107.923 2.96488 0.416529 0
M  V30 1068 H 105.469 1.4262 0.198908 0
M  V30 1069 H 107.422 3.10458 2.84945 0
M  V30 1070 H 106.146 1.87426 2.67468 0
M  V30 1071 H 104.805 3.45051 1.23836 0
M  V30 1072 H 104.453 3.39249 3.71374 0
M  V30 1073 H 104.153 5.01993 3.05413 0
M  V30 1074 H 105.677 4.67966 3.92225 0
M  V30 1075 H 107.091 5.44811 1.78475 0
M  V30 1076 H 105.488 5.89349 1.13083 0
M  V30 1077 H 106.558 4.84558 0.182153 0
M  V30 1078 N 107.901 -0.206675 1.56239 0
M  V30 1079 C 109.149 -0.927007 1.79586 0
M  V30 1080 C 109.47 -1.8427 0.637929 0
M  V30 1081 O 108.74 -1.92849 -0.344398 0
M  V30 1082 H 107.32 -0.345292 0.662407 0
M  V30 1083 H 109.982 -0.21496 1.93711 0
M  V30 1084 H 109.078 -1.52501 2.72305 0
M  V30 1085 N 109.379 -1.50304 -0.473955 0
M  V30 1086 C 110.607 -1.64902 -1.24959 0
M  V30 1087 C 111.022 -0.331198 -1.85872 0
M  V30 1088 O 110.379 0.68652 -1.69095 0
M  V30 1089 C 110.43 -2.73803 -2.36038 0
M  V30 1090 O 110.151 -4.00477 -1.77624 0
M  V30 1091 C 111.652 -2.99349 -3.26964 0
M  V30 1092 H 108.872 -0.554383 -0.378022 0
M  V30 1093 H 111.416 -1.9651 -0.566054 0
M  V30 1094 H 109.571 -2.44898 -3.00173 0
M  V30 1095 H 109.985 -4.60678 -2.5075 0
M  V30 1096 H 111.459 -3.79217 -4.01121 0
M  V30 1097 H 111.936 -2.10307 -3.85574 0
M  V30 1098 H 112.542 -3.29774 -2.68569 0
M  V30 1099 N 110.857 0.726932 -1.39834 0
M  V30 1100 C 112.104 1.48664 -1.37496 0
M  V30 1101 C 112.432 1.94482 0.0264678 0
M  V30 1102 O 111.687 1.67692 1.00886 0
M  V30 1103 C 111.986 2.73495 -2.30077 0
M  V30 1104 C 111.652 2.46502 -3.77555 0
M  V30 1105 C 110.314 2.3885 -4.17737 0
M  V30 1106 C 112.666 2.23604 -4.70798 0
M  V30 1107 C 109.994 2.06352 -5.49214 0
M  V30 1108 C 112.346 1.92622 -6.02561 0
M  V30 1109 C 111.01 1.83444 -6.41798 0
M  V30 1110 H 110.28 0.544001 -0.503135 0
M  V30 1111 H 112.927 0.833657 -1.72402 0
M  V30 1112 H 111.232 3.43575 -1.88317 0
M  V30 1113 H 112.929 3.31549 -2.25558 0
M  V30 1114 H 109.519 2.5334 -3.45712 0
M  V30 1115 H 113.703 2.28479 -4.40581 0
M  V30 1116 H 108.959 1.97776 -5.78528 0
M  V30 1117 H 113.133 1.73914 -6.74334 0
M  V30 1118 H 110.76 1.58029 -7.43593 0
M  V30 1119 N 112.336 1.25143 0.95797 0
M  V30 1120 C 113.561 1.12521 1.74223 0
M  V30 1121 C 113.986 -0.317402 1.85403 0
M  V30 1122 O 113.344 -1.2299 1.33204 0
M  V30 1123 C 113.392 1.78062 3.1357 0
M  V30 1124 O 112.496 1.058 3.98598 0
M  V30 1125 H 111.837 0.39304 0.535178 0
M  V30 1126 H 114.367 1.65641 1.201 0
M  V30 1127 H 114.377 1.84213 3.64046 0
M  V30 1128 H 113.052 2.83021 3.04749 0
M  V30 1129 H 111.629 1.07506 3.57067 0
M  V30 1130 N 113.814 -1.1601 1.06675 0
M  V30 1131 C 115.23 -1.38622 0.790948 0
M  V30 1132 C 115.43 -1.92109 -0.607965 0
M  V30 1133 O 114.486 -2.12239 -1.36787 0
M  V30 1134 C 115.799 -2.36347 1.85905 0
M  V30 1135 C 117.347 -2.50023 1.88301 0
M  V30 1136 C 117.822 -3.51033 2.94176 0
M  V30 1137 N 119.313 -3.58563 2.93235 0
M  V30 1138 C 120.048 -4.36521 3.71803 0
M  V30 1139 N 119.544 -5.17869 4.602 0
M  V30 1140 N 121.337 -4.31541 3.60178 0
M  V30 1141 H 113.488 -0.796294 1.96908 0
M  V30 1142 H 115.751 -0.412597 0.853503 0
M  V30 1143 H 115.457 -2.04147 2.86386 0
M  V30 1144 H 115.331 -3.36042 1.71334 0
M  V30 1145 H 117.718 -2.81524 0.884769 0
M  V30 1146 H 117.799 -1.5035 2.06951 0
M  V30 1147 H 117.443 -3.20268 3.94196 0
M  V30 1148 H 117.373 -4.50445 2.72776 0
M  V30 1149 H 119.864 -3.00496 2.29152 0
M  V30 1150 H 120.177 -5.74578 5.16797 0
M  V30 1151 H 118.522 -5.17199 4.64253 0
M  V30 1152 H 121.713 -3.67051 2.90502 0
M  V30 1153 H 121.886 -4.9205 4.21653 0
M  V30 1154 N 115.292 -0.849877 -1.32721 0
M  V30 1155 C 116.522 -0.46408 -2.0132 0
M  V30 1156 C 116.93 0.94246 -1.64056 0
M  V30 1157 O 116.273 1.6257 -0.855379 0
M  V30 1158 C 116.335 -0.517887 -3.5575 0
M  V30 1159 C 115.999 -1.88248 -4.16427 0
M  V30 1160 C 116.996 -2.84726 -4.35002 0
M  V30 1161 C 114.681 -2.17832 -4.52609 0
M  V30 1162 C 116.675 -4.08945 -4.8892 0
M  V30 1163 C 114.362 -3.42304 -5.06232 0
M  V30 1164 C 115.36 -4.37677 -5.24335 0
M  V30 1165 O 115.048 -5.59946 -5.76815 0
M  V30 1166 H 114.78 -0.181327 -0.651227 0
M  V30 1167 H 117.334 -1.14713 -1.70382 0
M  V30 1168 H 115.564 0.221997 -3.86062 0
M  V30 1169 H 117.253 -0.148366 -4.05629 0
M  V30 1170 H 118.019 -2.63174 -4.07388 0
M  V30 1171 H 113.898 -1.44385 -4.37806 0
M  V30 1172 H 117.442 -4.83396 -5.02966 0
M  V30 1173 H 113.339 -3.63709 -5.33278 0
M  V30 1174 H 114.107 -5.61838 -5.95214 0
M  V30 1175 N 116.77 1.45427 -0.607355 0
M  V30 1176 C 117.68 2.34325 0.113463 0
M  V30 1177 C 118.696 1.51226 0.860617 0
M  V30 1178 O 119.872 1.84029 0.818255 0
M  V30 1179 C 116.937 3.28839 1.09844 0
M  V30 1180 C 115.998 4.27844 0.353271 0
M  V30 1181 C 115.231 5.17842 1.29133 0
M  V30 1182 O 115.454 5.11264 2.52913 0
M  V30 1183 O 114.388 5.96713 0.788523 0
M  V30 1184 H 118.214 2.97364 -0.617094 0
M  V30 1185 H 115.799 1.44807 -0.367619 0
M  V30 1186 H 117.681 3.8708 1.66575 0
M  V30 1187 H 116.356 2.68365 1.81003 0
M  V30 1188 H 115.263 3.7322 -0.256494 0
M  V30 1189 H 116.596 4.91173 -0.317822 0
M  V30 1190 N 118.248 0.346503 1.53744 0
M  V30 1191 C 119.473 -0.253074 2.0585 0
M  V30 1192 C 119.898 -1.43202 1.21962 0
M  V30 1193 O 119.256 -1.79783 0.234073 0
M  V30 1194 C 119.304 -0.643193 3.54817 0
M  V30 1195 O 118.408 -1.74286 3.73762 0
M  V30 1196 H 117.749 -0.0413583 0.662711 0
M  V30 1197 H 120.279 0.501574 1.98357 0
M  V30 1198 H 120.289 -0.919526 3.97503 0
M  V30 1199 H 118.964 0.218966 4.15323 0
M  V30 1200 H 117.541 -1.46356 3.42979 0
M  V30 1201 N 119.726 -1.57421 0.075193 0
M  V30 1202 C 120.954 -1.97946 -0.602076 0
M  V30 1203 C 121.369 -0.953674 -1.62943 0
M  V30 1204 O 120.726 0.0592551 -1.82404 0
M  V30 1205 C 120.777 -3.38546 -1.26762 0
M  V30 1206 O 120.498 -4.37195 -0.281376 0
M  V30 1207 C 121.999 -3.93966 -2.03239 0
M  V30 1208 H 119.219 -0.650918 -0.162931 0
M  V30 1209 H 121.763 -2.03959 0.148601 0
M  V30 1210 H 119.918 -3.33609 -1.96936 0
M  V30 1211 H 120.332 -5.18975 -0.759267 0
M  V30 1212 H 121.806 -4.94555 -2.45193 0
M  V30 1213 H 122.283 -3.30693 -2.8903 0
M  V30 1214 H 122.889 -4.02315 -1.37924 0
M  V30 1215 N 121.204 0.198386 -1.56346 0
M  V30 1216 C 122.62 0.549085 -1.49857 0
M  V30 1217 C 122.82 1.86016 -0.774611 0
M  V30 1218 O 121.876 2.50416 -0.323776 0
M  V30 1219 C 123.189 0.606868 -2.94512 0
M  V30 1220 C 124.737 0.695925 -3.05165 0
M  V30 1221 C 125.212 0.784848 -4.51225 0
M  V30 1222 N 126.703 0.848463 -4.55363 0
M  V30 1223 C 127.438 0.937378 -5.65686 0
M  V30 1224 N 126.934 0.9888 -6.85707 0
M  V30 1225 N 128.727 0.974312 -5.53592 0
M  V30 1226 H 120.878 -0.661655 -2.01831 0
M  V30 1227 H 123.141 -0.235261 -0.918344 0
M  V30 1228 H 122.847 -0.28732 -3.50524 0
M  V30 1229 H 122.721 1.46268 -3.47686 0
M  V30 1230 H 125.108 1.58055 -2.49204 0
M  V30 1231 H 125.189 -0.186022 -2.55123 0
M  V30 1232 H 124.833 -0.0954072 -5.0781 0
M  V30 1233 H 124.763 1.68255 -4.98997 0
M  V30 1234 H 127.254 0.818103 -3.68938 0
M  V30 1235 H 127.567 1.05707 -7.65536 0
M  V30 1236 H 125.912 0.957534 -6.88372 0
M  V30 1237 H 129.103 0.930954 -4.58749 0
M  V30 1238 H 129.276 1.04015 -6.39597 0
M  V30 1239 N 122.682 1.50554 0.465978 0
M  V30 1240 C 123.907 1.65838 1.24549 0
M  V30 1241 C 124.332 0.343486 1.84937 0
M  V30 1242 O 123.69 -0.69324 1.67523 0
M  V30 1243 C 123.738 2.75533 2.32624 0
M  V30 1244 O 122.842 2.37142 3.37398 0
M  V30 1245 H 122.183 0.553893 0.366194 0
M  V30 1246 H 124.713 1.96959 0.553927 0
M  V30 1247 H 124.723 2.98763 2.77857 0
M  V30 1248 H 123.398 3.70962 1.88043 0
M  V30 1249 H 121.975 2.24377 2.97841 0
M  V30 1250 N 124.16 -0.719506 1.40217 0
M  V30 1251 C 125.408 -1.47641 1.3801 0
M  V30 1252 C 125.729 -1.94992 -0.018145 0
M  V30 1253 O 124.999 -1.70073 -0.972207 0
M  V30 1254 H 123.579 -0.547744 0.507923 0
M  V30 1255 H 126.241 -0.853187 1.75233 0
M  V30 1256 H 125.337 -2.35112 2.05253 0
M  V30 1257 N 125.638 -1.25649 -0.95132 0
M  V30 1258 C 127.054 -1.02542 -1.223 0
M  V30 1259 C 127.254 0.255715 -1.99871 0
M  V30 1260 O 126.31 0.967558 -2.33226 0
M  V30 1261 C 127.623 -2.25065 -1.99415 0
M  V30 1262 C 129.171 -2.29861 -2.12446 0
M  V30 1263 C 129.646 -3.52048 -2.92961 0
M  V30 1264 N 131.137 -3.52465 -3.00538 0
M  V30 1265 C 131.872 -4.43672 -3.63239 0
M  V30 1266 N 131.368 -5.45157 -4.27523 0
M  V30 1267 N 133.161 -4.31346 -3.60412 0
M  V30 1268 H 125.312 -2.07951 -0.432471 0
M  V30 1269 H 127.575 -0.91339 -0.253816 0
M  V30 1270 H 127.281 -3.18194 -1.49817 0
M  V30 1271 H 127.155 -2.28502 -3.00111 0
M  V30 1272 H 129.542 -1.37252 -2.61239 0
M  V30 1273 H 129.623 -2.3044 -1.11044 0
M  V30 1274 H 129.267 -4.44981 -2.44856 0
M  V30 1275 H 129.197 -3.48715 -3.94596 0
M  V30 1276 H 131.688 -2.79056 -2.54826 0
M  V30 1277 H 132.001 -6.10958 -4.73234 0
M  V30 1278 H 130.346 -5.49025 -4.26141 0
M  V30 1279 H 133.537 -3.51288 -3.09377 0
M  V30 1280 H 133.71 -5.02624 -4.0899 0
M  V30 1281 N 127.117 1.15442 -1.07289 0
M  V30 1282 C 128.533 1.38201 -0.798288 0
M  V30 1283 C 128.733 1.92429 0.597769 0
M  V30 1284 O 127.789 2.12962 1.3566 0
M  V30 1285 C 129.102 2.35357 -1.87156 0
M  V30 1286 C 130.65 2.49021 -1.89624 0
M  V30 1287 C 131.125 3.49468 -2.96034 0
M  V30 1288 N 132.616 3.57003 -2.95132 0
M  V30 1289 C 133.351 4.34543 -3.74112 0
M  V30 1290 N 132.847 5.15421 -4.6294 0
M  V30 1291 N 134.64 4.29625 -3.62462 0
M  V30 1292 H 126.791 0.78584 -1.97328 0
M  V30 1293 H 129.054 0.408065 -0.855679 0
M  V30 1294 H 128.76 2.02626 -2.87464 0
M  V30 1295 H 128.634 3.35129 -1.73114 0
M  V30 1296 H 131.021 2.81051 -0.899687 0
M  V30 1297 H 131.102 1.4925 -2.07745 0
M  V30 1298 H 130.746 3.18173 -3.95889 0
M  V30 1299 H 130.676 4.48992 -2.75161 0
M  V30 1300 H 133.167 2.99276 -2.30743 0
M  V30 1301 H 133.48 5.7183 -5.19837 0
M  V30 1302 H 131.825 5.14729 -4.66989 0
M  V30 1303 H 135.016 3.65505 -2.92444 0
M  V30 1304 H 135.189 4.89807 -4.24256 0
M  V30 1305 N 128.595 0.856903 1.32268 0
M  V30 1306 C 129.528 0.247937 2.26849 0
M  V30 1307 C 130.506 -0.615382 1.50505 0
M  V30 1308 O 131.69 -0.571689 1.79622 0
M  V30 1309 C 128.817 -0.650093 3.32403 0
M  V30 1310 C 127.863 0.140138 4.2627 0
M  V30 1311 S 128.696 1.51004 5.13769 0
M  V30 1312 C 129.852 0.61778 6.22844 0
M  V30 1313 H 130.085 1.04971 2.78152 0
M  V30 1314 H 127.618 0.654665 1.39834 0
M  V30 1315 H 129.576 -1.16256 3.93694 0
M  V30 1316 H 128.237 -1.4257 2.7988 0
M  V30 1317 H 127.43 -0.543945 5.01056 0
M  V30 1318 H 127.032 0.584267 3.69408 0
M  V30 1319 H 129.324 -0.177053 6.77269 0
M  V30 1320 H 130.267 1.33636 6.95375 0
M  V30 1321 H 130.675 0.191124 5.64176 0
M  V30 1322 N 130.073 -1.45103 0.615059 0
M  V30 1323 C 130.983 -2.34382 -0.101034 0
M  V30 1324 C 131.999 -1.51681 -0.852585 0
M  V30 1325 O 133.175 -1.8446 -0.808484 0
M  V30 1326 C 130.24 -3.29417 -1.08099 0
M  V30 1327 C 129.301 -4.28025 -0.330577 0
M  V30 1328 C 128.534 -5.1852 -1.26385 0
M  V30 1329 O 128.757 -5.12598 -2.50198 0
M  V30 1330 O 127.691 -5.97122 -0.756866 0
M  V30 1331 H 131.517 -2.97033 0.632855 0
M  V30 1332 H 129.102 -1.4461 0.375293 0
M  V30 1333 H 130.984 -3.87958 -1.6452 0
M  V30 1334 H 129.659 -2.69321 -1.79577 0
M  V30 1335 H 128.566 -3.73078 0.276283 0
M  V30 1336 H 129.899 -4.90997 0.343866 0
M  V30 1337 N 131.551 -0.354651 -1.53558 0
M  V30 1338 C 132.481 0.489091 -2.2832 0
M  V30 1339 C 133.462 1.09324 -1.30316 0
M  V30 1340 O 134.647 1.11255 -1.59173 0
M  V30 1341 C 131.777 1.63456 -3.0643 0
M  V30 1342 C 130.731 1.1582 -4.12031 0
M  V30 1343 C 130.057 2.39305 -4.7816 0
M  V30 1344 C 131.357 0.250731 -5.21698 0
M  V30 1345 H 133.051 -0.134614 -2.99097 0
M  V30 1346 H 130.597 -0.0661826 -1.43848 0
M  V30 1347 H 132.55 2.23136 -3.57475 0
M  V30 1348 H 131.274 2.28533 -2.33325 0
M  V30 1349 H 129.933 0.584146 -3.61916 0
M  V30 1350 H 129.581 3.02814 -4.01637 0
M  V30 1351 H 129.281 2.08109 -5.49513 0
M  V30 1352 H 130.805 2.99691 -5.31994 0
M  V30 1353 H 132.219 0.754695 -5.68311 0
M  V30 1354 H 130.616 0.0301468 -6.00092 0
M  V30 1355 H 131.686 -0.710125 -4.79672 0
M  V30 1356 N 133.029 1.57378 -0.0835403 0
M  V30 1357 C 134.254 1.98682 0.594987 0
M  V30 1358 C 134.679 0.961969 1.61641 0
M  V30 1359 O 134.037 -0.0709989 1.81161 0
M  V30 1360 C 134.085 3.38988 1.2296 0
M  V30 1361 O 133.189 3.39208 2.34546 0
M  V30 1362 H 132.53 0.646368 0.152002 0
M  V30 1363 H 135.06 2.03961 -0.161533 0
M  V30 1364 H 135.07 3.76431 1.57366 0
M  V30 1365 H 133.745 4.13107 0.481228 0
M  V30 1366 H 132.322 3.13548 2.01846 0
M  V30 1367 N 134.507 -0.190092 1.56449 0
M  V30 1368 C 135.44 -1.26375 1.90012 0
M  V30 1369 C 136.418 -1.43705 0.760765 0
M  V30 1370 O 137.602 -1.59014 1.01226 0
M  V30 1371 C 134.729 -2.62962 2.13468 0
M  V30 1372 C 133.775 -2.62474 3.36169 0
M  V30 1373 S 134.608 -2.13412 4.91137 0
M  V30 1374 C 135.764 -3.51812 5.17667 0
M  V30 1375 H 135.997 -0.977181 2.80782 0
M  V30 1376 H 133.53 -0.393814 1.49293 0
M  V30 1377 H 135.488 -3.41583 2.27664 0
M  V30 1378 H 134.149 -2.88828 1.23439 0
M  V30 1379 H 133.342 -3.62918 3.49723 0
M  V30 1380 H 132.944 -1.91937 3.20992 0
M  V30 1381 H 135.236 -4.47706 5.08494 0
M  V30 1382 H 136.179 -3.43148 6.19399 0
M  V30 1383 H 136.587 -3.46956 4.45288 0
M  V30 1384 N 135.985 -1.50799 -0.457987 0
M  V30 1385 C 137.233 -1.62121 -1.2067 0
M  V30 1386 C 137.554 -0.329793 -1.92191 0
M  V30 1387 O 136.824 0.653409 -1.84682 0
M  V30 1388 H 135.404 -0.597441 -0.448411 0
M  V30 1389 H 138.066 -1.87637 -0.527096 0
M  V30 1390 H 137.162 -2.43882 -1.94751 0
M  V30 1391 N 137.463 0.71206 -1.40597 0
M  V30 1392 C 138.874 1.29135 -1.34837 0
M  V30 1393 C 139.225 1.96186 -0.0235395 0
M  V30 1394 O 138.35 1.97768 0.878444 0
M  V30 1395 C 138.945 2.34827 -2.44217 0
M  V30 1396 C 137.504 2.88371 -2.41907 0
M  V30 1397 C 136.651 1.62202 -2.24913 0
M  V30 1398 H 139.602 0.507944 -1.50352 0
M  V30 1399 H 139.623 3.15749 -2.12327 0
M  V30 1400 H 139.135 1.85996 -3.40627 0
M  V30 1401 H 137.236 3.41422 -1.49204 0
M  V30 1402 H 137.349 3.39925 -3.37621 0
M  V30 1403 H 135.713 1.874 -1.72492 0
M  V30 1404 H 136.496 1.15391 -3.23326 0
M  V30 1405 N 138.941 1.26152 0.944643 0
M  V30 1406 C 140.19 1.10883 1.68487 0
M  V30 1407 C 140.503 -0.348153 1.92477 0
M  V30 1408 O 141.709 -0.621459 2.64292 0
M  V30 1409 C 140.165 1.93624 3.03377 0
M  V30 1410 C 139.773 3.43875 2.87148 0
M  V30 1411 C 141.517 1.86954 3.81115 0
M  V30 1412 C 139.424 4.18875 4.1749 0
M  V30 1413 H 138.354 0.41135 0.631907 0
M  V30 1414 H 141.005 1.50433 1.05082 0
M  V30 1415 H 139.387 1.46904 3.67743 0
M  V30 1416 H 140.561 3.98338 2.31653 0
M  V30 1417 H 138.876 3.51744 2.22856 0
M  V30 1418 H 141.473 2.40275 4.77673 0
M  V30 1419 H 141.816 0.839518 4.07747 0
M  V30 1420 H 142.349 2.31477 3.23517 0
M  V30 1421 H 139.088 5.22332 3.96043 0
M  V30 1422 H 138.608 3.69193 4.72712 0
M  V30 1423 H 140.287 4.27134 4.85968 0
M  V30 1424 N 140.419 -1.14872 1.07899 0
M  V30 1425 C 141.351 -2.19425 0.662231 0
M  V30 1426 C 142.364 -1.60231 -0.288079 0
M  V30 1427 O 143.553 -1.78336 -0.076534 0
M  V30 1428 C 140.653 -3.38867 -0.0470695 0
M  V30 1429 C 139.826 -4.27597 0.920831 0
M  V30 1430 C 138.885 -5.25616 0.247805 0
M  V30 1431 O 137.911 -5.62189 0.890599 0
M  V30 1432 N 139.113 -5.71746 -1.00435 0
M  V30 1433 H 141.878 -2.55797 1.56166 0
M  V30 1434 H 139.439 -1.30042 0.964404 0
M  V30 1435 H 141.431 -4.01497 -0.50813 0
M  V30 1436 H 140.001 -3.00864 -0.848523 0
M  V30 1437 H 139.221 -3.61982 1.56087 0
M  V30 1438 H 140.509 -4.83748 1.57688 0
M  V30 1439 H 139.907 -5.44153 -1.54642 0
M  V30 1440 H 138.464 -6.36389 -1.40899 0
M  V30 1441 N 141.898 -0.863906 -1.31812 0
M  V30 1442 C 142.861 -0.320212 -2.26952 0
M  V30 1443 C 143.861 0.525369 -1.51975 0
M  V30 1444 O 145.051 0.335547 -1.70938 0
M  V30 1445 C 142.183 0.545919 -3.365 0
M  V30 1446 H 143.376 -1.16004 -2.76556 0
M  V30 1447 H 140.929 -0.638995 -1.42641 0
M  V30 1448 H 141.664 1.40718 -2.92179 0
M  V30 1449 H 141.449 -0.0594674 -3.92055 0
M  V30 1450 H 142.939 0.918796 -4.07367 0
M  V30 1451 N 143.376 1.44774 -0.622745 0
M  V30 1452 C 144.324 2.32387 0.0994683 0
M  V30 1453 C 145.318 1.46859 0.844326 0
M  V30 1454 O 146.524 1.63254 0.758174 0
M  V30 1455 H 142.899 0.750273 0.0509291 0
M  V30 1456 H 144.87 2.91062 -0.65767 0
M  V30 1457 C 143.619 3.30723 1.07319 0
M  V30 1458 H 142.942 3.96541 0.509462 0
M  V30 1459 H 144.382 3.94725 1.54817 0
M  V30 1460 C 142.841 2.59021 2.15429 0
M  V30 1461 O 143.371 2.38286 3.23393 0
M  V30 1462 N 141.577 2.189 1.91131 0
M  V30 1463 H 141.124 2.35964 1.03337 0
M  V30 1464 H 141.082 1.71251 2.63668 0
M  V30 1465 N 144.854 0.36279 1.53368 0
M  V30 1466 C 145.804 -0.501391 2.22419 0
M  V30 1467 C 146.788 -1.0509 1.2184 0
M  V30 1468 O 147.98 -0.981404 1.47301 0
M  V30 1469 C 145.109 -1.64201 3.01484 0
M  V30 1470 C 144.195 -1.10552 4.09438 0
M  V30 1471 N 144.586 -0.291788 5.04958 0
M  V30 1472 C 142.884 -1.3806 4.24094 0
M  V30 1473 C 143.585 0.00162655 5.817 0
M  V30 1474 N 142.561 -0.595244 5.40331 0
M  V30 1475 H 146.363 0.127159 2.93625 0
M  V30 1476 H 143.877 0.170658 1.61501 0
M  V30 1477 H 145.874 -2.27326 3.49469 0
M  V30 1478 H 144.534 -2.27365 2.31809 0
M  V30 1479 H 145.545 0.0687731 5.17854 0
M  V30 1480 H 142.222 -2.01522 3.65644 0
M  V30 1481 H 143.612 0.659278 6.68658 0
M  V30 1482 N 146.332 -1.57332 0.0918853 0
M  V30 1483 C 147.56 -1.98574 -0.581048 0
M  V30 1484 C 147.975 -0.970903 -1.61923 0
M  V30 1485 O 147.332 0.0399054 -1.82456 0
M  V30 1486 C 147.383 -3.39872 -1.23164 0
M  V30 1487 O 147.104 -4.37469 -0.234989 0
M  V30 1488 C 148.605 -3.96099 -1.99049 0
M  V30 1489 H 145.825 -0.65261 -0.156018 0
M  V30 1490 H 148.369 -2.0379 0.170225 0
M  V30 1491 H 146.524 -3.35679 -1.93386 0
M  V30 1492 H 146.938 -5.19751 -0.70418 0
M  V30 1493 H 148.412 -4.97127 -2.39934 0
M  V30 1494 H 148.889 -3.3374 -2.85507 0
M  V30 1495 H 149.495 -4.03755 -1.3365 0
M  V30 1496 N 147.81 0.181792 -1.56548 0
M  V30 1497 C 149.058 0.89832 -1.81038 0
M  V30 1498 C 149.379 1.83232 -0.667164 0
M  V30 1499 O 148.649 1.93372 0.313673 0
M  V30 1500 H 147.229 0.33471 -0.667816 0
M  V30 1501 H 149.891 0.184116 -1.94028 0
M  V30 1502 H 148.987 1.4815 -2.74696 0
M  V30 1503 N 149.288 1.51039 0.449983 0
M  V30 1504 C 150.516 1.66869 1.2232 0
M  V30 1505 C 150.931 0.360727 1.85322 0
M  V30 1506 O 150.288 -0.659531 1.70166 0
M  V30 1507 C 150.339 2.77524 2.31652 0
M  V30 1508 O 150.06 4.03252 1.7123 0
M  V30 1509 C 151.561 3.04512 3.2216 0
M  V30 1510 H 148.781 0.560326 0.369155 0
M  V30 1511 H 151.325 1.97385 0.534719 0
M  V30 1512 H 149.48 2.49642 2.96239 0
M  V30 1513 H 149.894 4.64609 2.43389 0
M  V30 1514 H 151.368 3.85551 3.95038 0
M  V30 1515 H 151.845 2.16415 3.8218 0
M  V30 1516 H 152.451 3.34005 2.63288 0
M  V30 1517 N 150.766 -0.704594 1.40972 0
M  V30 1518 C 152.014 -1.46169 1.39568 0
M  V30 1519 C 152.335 -1.95 0.00253745 0
M  V30 1520 O 151.605 -1.71095 -0.954114 0
M  V30 1521 H 150.185 -0.542326 0.513704 0
M  V30 1522 H 152.847 -0.834553 1.76128 0
M  V30 1523 H 151.943 -2.32922 2.07735 0
M  V30 1524 N 152.244 -1.26651 -0.937939 0
M  V30 1525 C 153.174 -1.10993 -2.05433 0
M  V30 1526 C 154.155 -0.0142161 -1.70094 0
M  V30 1527 O 155.34 -0.186837 -1.93299 0
M  V30 1528 C 152.47 -0.745561 -3.39203 0
M  V30 1529 C 151.424 -1.79337 -3.88616 0
M  V30 1530 C 150.75 -1.28324 -5.19073 0
M  V30 1531 C 152.05 -3.19553 -4.13138 0
M  V30 1532 H 153.744 -2.0438 -2.1879 0
M  V30 1533 H 151.29 -0.984041 -1.05131 0
M  V30 1534 H 153.243 -0.622888 -4.16771 0
M  V30 1535 H 151.967 0.22401 -3.25831 0
M  V30 1536 H 150.626 -1.90477 -3.13231 0
M  V30 1537 H 150.274 -0.303414 -5.02084 0
M  V30 1538 H 149.974 -1.98369 -5.53103 0
M  V30 1539 H 151.498 -1.1733 -5.99221 0
M  V30 1540 H 152.912 -3.11471 -4.81309 0
M  V30 1541 H 151.309 -3.87218 -4.58457 0
M  V30 1542 H 152.379 -3.65368 -3.18801 0
M  V30 1543 N 153.722 1.14298 -1.08507 0
M  V30 1544 C 154.652 2.21542 -0.737646 0
M  V30 1545 C 155.633 1.67773 0.280377 0
M  V30 1546 O 156.818 1.93616 0.150521 0
M  V30 1547 C 153.948 3.46988 -0.147259 0
M  V30 1548 C 152.902 4.13789 -1.09374 0
M  V30 1549 C 152.228 5.33449 -0.365524 0
M  V30 1550 C 153.528 4.62208 -2.4323 0
M  V30 1551 H 155.222 2.5086 -1.6343 0
M  V30 1552 H 152.768 1.20576 -0.787243 0
M  V30 1553 H 154.721 4.21262 0.107808 0
M  V30 1554 H 153.445 3.17037 0.784538 0
M  V30 1555 H 152.104 3.4147 -1.33393 0
M  V30 1556 H 151.752 4.99759 0.57011 0
M  V30 1557 H 151.452 5.79088 -0.996512 0
M  V30 1558 H 152.976 6.10485 -0.118534 0
M  V30 1559 H 154.39 5.27952 -2.23472 0
M  V30 1560 H 152.787 5.18553 -3.02031 0
M  V30 1561 H 153.857 3.77224 -3.04681 0
M  V30 1562 N 155.201 0.870884 1.31352 0
M  V30 1563 C 156.131 0.343096 2.30966 0
M  V30 1564 C 157.112 -0.566507 1.60389 0
M  V30 1565 O 158.297 -0.483336 1.88089 0
M  V30 1566 C 155.427 -0.455487 3.443 0
M  V30 1567 C 154.381 0.361103 4.26474 0
M  V30 1568 C 153.707 -0.563221 5.31725 0
M  V30 1569 C 155.007 1.59566 4.97329 0
M  V30 1570 H 156.701 1.17548 2.75359 0
M  V30 1571 H 154.247 0.566686 1.32381 0
M  V30 1572 H 156.2 -0.83525 4.13039 0
M  V30 1573 H 154.924 -1.32139 2.98675 0
M  V30 1574 H 153.583 0.722825 3.59403 0
M  V30 1575 H 153.231 -1.42643 4.82351 0
M  V30 1576 H 152.931 -0.0207409 5.87596 0
M  V30 1577 H 154.455 -0.939808 6.03324 0
M  V30 1578 H 155.869 1.28728 5.58661 0
M  V30 1579 H 154.266 2.07728 5.63 0
M  V30 1580 H 155.336 2.34798 4.24262 0
M  V30 1581 N 156.679 -1.44442 0.630414 0
M  V30 1582 C 157.907 -2.06414 0.141671 0
M  V30 1583 C 158.322 -1.47105 -1.18345 0
M  V30 1584 O 157.679 -0.593662 -1.72574 0
M  V30 1585 C 157.73 -3.61494 0.0199784 0
M  V30 1586 O 157.451 -4.18594 1.29269 0
M  V30 1587 C 158.952 -4.40499 -0.497544 0
M  V30 1588 H 156.172 -0.666292 0.0793452 0
M  V30 1589 H 158.716 -1.85323 0.864614 0
M  V30 1590 H 156.871 -3.8185 -0.653402 0
M  V30 1591 H 157.285 -5.12026 1.13707 0
M  V30 1592 H 158.759 -5.49433 -0.531708 0
M  V30 1593 H 159.236 -4.11895 -1.52445 0
M  V30 1594 H 159.842 -4.25061 0.142562 0
M  V30 1595 N 158.157 -0.370918 -1.53173 0
M  V30 1596 C 159.087 0.464847 -2.28826 0
M  V30 1597 C 160.068 1.07936 -1.31468 0
M  V30 1598 O 161.253 1.0956 -1.60344 0
M  V30 1599 C 158.383 1.60196 -3.08147 0
M  V30 1600 C 157.337 1.11443 -4.13237 0
M  V30 1601 C 156.663 2.3422 -4.80672 0
M  V30 1602 C 157.963 0.195384 -5.21934 0
M  V30 1603 H 159.657 -0.166329 -2.98938 0
M  V30 1604 H 157.203 -0.0814359 -1.4377 0
M  V30 1605 H 159.156 2.19332 -3.59822 0
M  V30 1606 H 157.88 2.26045 -2.35735 0
M  V30 1607 H 156.539 0.545727 -3.62515 0
M  V30 1608 H 156.187 2.98537 -4.04827 0
M  V30 1609 H 155.887 2.02269 -5.51689 0
M  V30 1610 H 157.411 2.94032 -5.35143 0
M  V30 1611 H 158.825 0.694375 -5.69079 0
M  V30 1612 H 157.222 -0.0335027 -6.00091 0
M  V30 1613 H 158.292 -0.760961 -4.78892 0
M  V30 1614 N 159.635 1.57281 -0.100228 0
M  V30 1615 C 160.567 2.11342 0.886972 0
M  V30 1616 C 161.58 1.05182 1.24261 0
M  V30 1617 O 162.769 1.32613 1.19483 0
M  V30 1618 C 159.869 2.5825 2.19454 0
M  V30 1619 C 159.042 3.88302 2.01346 0
M  V30 1620 C 158.101 4.21004 3.15661 0
M  V30 1621 O 157.127 4.9014 2.89398 0
M  V30 1622 N 158.329 3.76818 4.41575 0
M  V30 1623 H 161.094 2.96668 0.425216 0
M  V30 1624 H 158.655 1.61678 0.0847334 0
M  V30 1625 H 160.647 2.7717 2.94888 0
M  V30 1626 H 159.217 1.77907 2.57037 0
M  V30 1627 H 158.437 3.7848 1.10212 0
M  V30 1628 H 159.725 4.73375 1.8653 0
M  V30 1629 H 159.123 3.2102 4.65792 0
M  V30 1630 H 157.68 4.00882 5.13942 0
M  V30 1631 N 161.113 -0.173488 1.56642 0
M  V30 1632 C 162.524 -0.736155 1.71574 0
M  V30 1633 C 162.875 -1.82888 0.710389 0
M  V30 1634 O 162 -2.16017 -0.1287 0
M  V30 1635 C 162.595 -1.34211 3.11083 0
M  V30 1636 C 161.154 -1.85162 3.27707 0
M  V30 1637 C 160.301 -0.729765 2.67525 0
M  V30 1638 H 163.252 0.0518786 1.58615 0
M  V30 1639 H 163.273 -2.21178 3.09613 0
M  V30 1640 H 162.785 -0.546579 3.84232 0
M  V30 1641 H 160.886 -2.67366 2.59512 0
M  V30 1642 H 160.999 -1.99855 4.35425 0
M  V30 1643 H 159.363 -1.14965 2.27278 0
M  V30 1644 H 160.146 0.0538806 3.43258 0
M  V30 1645 N 162.591 -1.51276 -0.441967 0
M  V30 1646 C 163.501 -1.75092 -1.56141 0
M  V30 1647 C 164.517 -0.634963 -1.62001 0
M  V30 1648 O 165.693 -0.916686 -1.79329 0
M  V30 1649 C 162.758 -1.86666 -2.92158 0
M  V30 1650 C 161.819 -3.10506 -2.96453 0
M  V30 1651 C 161.052 -3.21519 -4.25982 0
M  V30 1652 O 161.275 -2.38586 -5.18105 0
M  V30 1653 O 160.209 -4.14465 -4.36466 0
M  V30 1654 H 164.035 -2.70044 -1.38961 0
M  V30 1655 H 161.62 -1.35722 -0.624499 0
M  V30 1656 H 163.502 -1.96292 -3.72891 0
M  V30 1657 H 162.177 -0.949014 -3.09476 0
M  V30 1658 H 161.084 -3.06363 -2.14692 0
M  V30 1659 H 162.417 -4.01945 -2.84079 0
M  V30 1660 N 164.069 0.697108 -1.41344 0
M  V30 1661 C 165.001 1.8224 -1.39001 0
M  V30 1662 C 166.014 1.60152 -0.292428 0
M  V30 1663 O 167.203 1.69684 -0.554048 0
M  V30 1664 C 164.303 3.18976 -1.14489 0
M  V30 1665 C 163.476 3.68105 -2.36258 0
M  V30 1666 C 162.535 4.83506 -2.07625 0
M  V30 1667 O 161.561 4.95201 -2.8065 0
M  V30 1668 N 162.763 5.70637 -1.06555 0
M  V30 1669 H 165.528 1.84742 -2.35988 0
M  V30 1670 H 163.089 0.87937 -1.35936 0
M  V30 1671 H 165.081 3.93801 -0.932885 0
M  V30 1672 H 163.651 3.11508 -0.261043 0
M  V30 1673 H 162.871 2.84204 -2.7317 0
M  V30 1674 H 164.159 3.97667 -3.17393 0
M  V30 1675 H 163.557 5.63817 -0.461125 0
M  V30 1676 H 162.114 6.45368 -0.913444 0
M  V30 1677 N 165.547 1.27147 0.931209 0
M  V30 1678 C 166.494 1.09568 2.03134 0
M  V30 1679 C 167.464 -0.00222433 1.661 0
M  V30 1680 O 168.649 0.159439 1.90133 0
M  V30 1681 C 165.789 0.745231 3.36957 0
M  V30 1682 C 164.902 1.92041 3.86968 0
M  V30 1683 C 164.037 1.51216 5.09222 0
M  V30 1684 C 163.076 2.65504 5.5152 0
M  V30 1685 N 162.213 2.25291 6.64972 0
M  V30 1686 H 167.053 2.03708 2.17502 0
M  V30 1687 H 164.59 1.01411 1.06556 0
M  V30 1688 H 166.548 0.522878 4.1391 0
M  V30 1689 H 165.178 -0.159202 3.22407 0
M  V30 1690 H 164.23 2.25541 3.06326 0
M  V30 1691 H 165.542 2.77787 4.1429 0
M  V30 1692 H 164.696 1.25084 5.93666 0
M  V30 1693 H 163.435 0.625749 4.83669 0
M  V30 1694 H 162.44 2.92354 4.65628 0
M  V30 1695 H 163.665 3.54761 5.7907 0
M  V30 1696 H 161.611 1.39098 6.41083 0
M  V30 1697 H 161.528 3.04577 6.91931 0
M  V30 1698 H 162.796 2.02398 7.52765 0
M  V30 1699 N 167.025 -1.13721 1.09112 0
M  V30 1700 C 168.272 -1.84924 0.825192 0
M  V30 1701 C 168.6 -1.83347 -0.649151 0
M  V30 1702 O 167.855 -1.26449 -1.49362 0
M  V30 1703 C 168.154 -3.32861 1.30146 0
M  V30 1704 C 167.82 -3.54621 2.78486 0
M  V30 1705 C 166.482 -3.60268 3.18999 0
M  V30 1706 C 168.834 -3.62855 3.74146 0
M  V30 1707 C 166.162 -3.71679 4.53951 0
M  V30 1708 C 168.514 -3.75793 5.08883 0
M  V30 1709 C 167.178 -3.79692 5.4899 0
M  V30 1710 H 166.448 -0.676684 0.301959 0
M  V30 1711 H 169.095 -1.3428 1.36533 0
M  V30 1712 H 167.4 -3.85835 0.681064 0
M  V30 1713 H 169.097 -3.86395 1.07236 0
M  V30 1714 H 165.687 -3.50879 2.46134 0
M  V30 1715 H 169.871 -3.57775 3.43963 0
M  V30 1716 H 165.127 -3.72963 4.84467 0
M  V30 1717 H 169.301 -3.81107 5.82864 0
M  V30 1718 H 166.928 -3.88287 6.53558 0
M  V30 1719 N 168.503 -0.877838 -1.30888 0
M  V30 1720 C 169.435 -0.296607 -2.27273 0
M  V30 1721 C 170.448 0.544799 -1.53414 0
M  V30 1722 O 171.637 0.365511 -1.74718 0
M  V30 1723 C 168.737 0.597481 -3.33592 0
M  V30 1724 C 167.91 -0.213251 -4.3688 0
M  V30 1725 C 166.969 0.610208 -5.2265 0
M  V30 1726 O 165.995 0.035441 -5.69189 0
M  V30 1727 N 167.197 1.92071 -5.47804 0
M  V30 1728 H 169.962 -1.12492 -2.77787 0
M  V30 1729 H 167.523 -0.740105 -1.43993 0
M  V30 1730 H 169.515 1.15425 -3.87891 0
M  V30 1731 H 168.085 1.32647 -2.83061 0
M  V30 1732 H 167.305 -0.951466 -3.82545 0
M  V30 1733 H 168.593 -0.769262 -5.02951 0
M  V30 1734 H 167.991 2.4107 -5.11763 0
M  V30 1735 H 166.548 2.42508 -6.05007 0
M  V30 1736 N 169.982 1.44106 -0.638065 0
M  V30 1737 C 170.929 2.30715 0.062701 0
M  V30 1738 C 171.899 1.43882 0.829883 0
M  V30 1739 O 173.084 1.72775 0.809532 0
M  V30 1740 C 170.224 3.29258 1.03358 0
M  V30 1741 C 169.337 4.31192 0.26409 0
M  V30 1742 C 168.472 5.16825 1.22741 0
M  V30 1743 C 167.511 6.10462 0.447475 0
M  V30 1744 N 166.648 6.8877 1.36161 0
M  V30 1745 H 171.488 2.90096 -0.681781 0
M  V30 1746 H 169.025 1.42925 -0.347988 0
M  V30 1747 H 170.983 3.84886 1.60992 0
M  V30 1748 H 169.613 2.71562 1.74511 0
M  V30 1749 H 168.665 3.77981 -0.428295 0
M  V30 1750 H 169.977 4.97619 -0.343052 0
M  V30 1751 H 169.131 5.77004 1.87487 0
M  V30 1752 H 167.87 4.50488 1.86847 0
M  V30 1753 H 166.875 5.49386 -0.213433 0
M  V30 1754 H 168.1 6.78837 -0.188968 0
M  V30 1755 H 166.046 6.25096 1.98975 0
M  V30 1756 H 165.963 7.51663 0.808656 0
M  V30 1757 H 167.231 7.53467 1.99769 0
M  V30 1758 N 171.46 0.379036 1.52974 0
M  V30 1759 C 172.706 -0.206727 2.01744 0
M  V30 1760 C 173.039 -1.47314 1.26539 0
M  V30 1761 O 172.314 -1.91084 0.362903 0
M  V30 1762 C 172.597 -0.485066 3.56818 0
M  V30 1763 C 172.45 0.795919 4.42702 0
M  V30 1764 C 173.769 -1.28003 4.21074 0
M  V30 1765 H 170.888 -0.0736607 0.73331 0
M  V30 1766 H 173.53 0.506581 1.83122 0
M  V30 1767 H 171.68 -1.09272 3.72816 0
M  V30 1768 H 173.352 1.43307 4.38476 0
M  V30 1769 H 171.595 1.41344 4.10127 0
M  V30 1770 H 172.266 0.555947 5.49193 0
M  V30 1771 H 174.742 -0.765867 4.08991 0
M  V30 1772 H 173.618 -1.44352 5.29579 0
M  V30 1773 H 173.879 -2.29236 3.78026 0
M  V30 1774 N 172.938 -1.57226 0.108567 0
M  V30 1775 C 173.885 -2.14756 -0.845481 0
M  V30 1776 C 174.855 -1.06971 -1.27068 0
M  V30 1777 O 176.04 -1.34827 -1.35005 0
M  V30 1778 C 173.18 -2.74298 -2.09415 0
M  V30 1779 C 172.293 -3.96358 -1.71826 0
M  V30 1780 C 171.428 -4.44021 -2.9158 0
M  V30 1781 C 170.467 -5.58637 -2.50181 0
M  V30 1782 N 169.604 -6.01091 -3.62814 0
M  V30 1783 H 174.444 -2.95961 -0.348035 0
M  V30 1784 H 171.981 -1.46226 -0.160106 0
M  V30 1785 H 173.939 -3.06945 -2.82561 0
M  V30 1786 H 172.569 -1.95801 -2.56636 0
M  V30 1787 H 171.621 -3.69939 -0.885947 0
M  V30 1788 H 172.933 -4.79504 -1.37394 0
M  V30 1789 H 172.087 -4.78522 -3.72963 0
M  V30 1790 H 170.826 -3.59803 -3.29231 0
M  V30 1791 H 169.831 -5.23751 -1.67228 0
M  V30 1792 H 171.056 -6.44613 -2.13659 0
M  V30 1793 H 169.002 -5.19817 -4.00158 0
M  V30 1794 H 168.919 -6.79066 -3.32273 0
M  V30 1795 H 170.187 -6.40227 -4.44668 0
M  V30 1796 N 174.416 0.165178 -1.56732 0
M  V30 1797 C 175.664 0.879068 -1.8198 0
M  V30 1798 C 175.985 1.82514 -0.686561 0
M  V30 1799 O 175.255 1.93694 0.293146 0
M  V30 1800 H 173.835 0.327608 -0.671329 0
M  V30 1801 H 176.497 0.163526 -1.94213 0
M  V30 1802 H 175.593 1.45228 -2.76252 0
M  V30 1803 N 175.894 1.51508 0.433938 0
M  V30 1804 C 177.141 1.64345 1.18309 0
M  V30 1805 C 177.469 0.361315 1.91115 0
M  V30 1806 O 176.724 -0.654753 1.84422 0
M  V30 1807 C 177.023 2.79928 2.22205 0
M  V30 1808 C 176.689 4.19078 1.66387 0
M  V30 1809 C 175.351 4.56932 1.50887 0
M  V30 1810 C 177.703 5.05894 1.25381 0
M  V30 1811 C 175.031 5.79305 0.928608 0
M  V30 1812 C 177.383 6.2885 0.687823 0
M  V30 1813 C 176.047 6.65473 0.519755 0
M  V30 1814 H 175.317 0.601381 0.432923 0
M  V30 1815 H 177.964 1.85549 0.473676 0
M  V30 1816 H 176.269 2.52959 2.99197 0
M  V30 1817 H 177.966 2.87059 2.79997 0
M  V30 1818 H 174.556 3.89234 1.79428 0
M  V30 1819 H 178.74 4.77253 1.36175 0
M  V30 1820 H 173.996 6.06324 0.786186 0
M  V30 1821 H 178.17 6.95461 0.361581 0
M  V30 1822 H 175.797 7.6017 0.0679979 0
M  V30 1823 N 177.372 -0.689602 1.41712 0
M  V30 1824 C 178.62 -1.4468 1.4111 0
M  V30 1825 C 178.941 -1.94986 0.0232196 0
M  V30 1826 O 178.211 -1.72097 -0.935913 0
M  V30 1827 H 176.791 -0.536847 0.519427 0
M  V30 1828 H 179.453 -0.815825 1.77004 0
M  V30 1829 H 178.549 -2.30706 2.10193 0
M  V30 1830 N 178.85 -1.27639 -0.924453 0
M  V30 1831 C 180.098 -1.13941 -1.66918 0
M  V30 1832 C 180.419 0.314589 -1.92446 0
M  V30 1833 O 179.689 1.21964 -1.53303 0
M  V30 1834 H 178.269 -0.418678 -0.618642 0
M  V30 1835 H 180.931 -1.60213 -1.10985 0
M  V30 1836 H 180.027 -1.67094 -2.63602 0
M  V30 1837 N 180.328 1.1314 -1.09713 0
M  V30 1838 C 181.291 2.16831 -0.742751 0
M  V30 1839 C 182.291 1.59159 0.229129 0
M  V30 1840 O 183.481 1.74199 0.00693237 0
M  V30 1841 C 180.613 3.40756 -0.0989168 0
M  V30 1842 H 181.806 2.49695 -1.66109 0
M  V30 1843 H 179.359 1.2802 -0.896699 0
M  V30 1844 H 180.094 3.13485 0.830514 0
M  V30 1845 H 179.879 3.83888 -0.798265 0
M  V30 1846 H 181.369 4.17386 0.133524 0
M  V30 1847 N 181.806 0.884767 1.30421 0
M  V30 1848 C 182.739 0.295999 2.26272 0
M  V30 1849 C 183.717 -0.58332 1.51777 0
M  V30 1850 O 184.901 -0.53346 1.80794 0
M  V30 1851 C 182.028 -0.57944 3.33707 0
M  V30 1852 C 181.074 0.230525 4.25877 0
M  V30 1853 S 181.907 1.61867 5.1045 0
M  V30 1854 C 183.063 0.749756 6.21393 0
M  V30 1855 H 183.296 1.10848 2.75862 0
M  V30 1856 H 180.829 0.684178 1.38414 0
M  V30 1857 H 182.787 -1.07879 3.96071 0
M  V30 1858 H 181.448 -1.36601 2.82841 0
M  V30 1859 H 180.641 -0.437542 5.02097 0
M  V30 1860 H 180.243 0.662493 3.68086 0
M  V30 1861 H 182.535 -0.0333547 6.77492 0
M  V30 1862 H 183.478 1.48356 6.92384 0
M  V30 1863 H 183.886 0.310751 5.63644 0
M  V30 1864 N 183.284 -1.43765 0.645699 0
M  V30 1865 C 184.512 -2.06253 0.163556 0
M  V30 1866 C 184.927 -1.48352 -1.16778 0
M  V30 1867 O 184.284 -0.611932 -1.71935 0
M  V30 1868 C 184.335 -3.61453 0.0583186 0
M  V30 1869 O 184.056 -4.172 1.33702 0
M  V30 1870 C 185.557 -4.41002 -0.450795 0
M  V30 1871 H 182.777 -0.665413 0.0864077 0
M  V30 1872 H 185.321 -1.84396 0.884222 0
M  V30 1873 H 183.476 -3.82522 -0.612865 0
M  V30 1874 H 183.89 -5.10791 1.19131 0
M  V30 1875 H 185.364 -5.49966 -0.473403 0
M  V30 1876 H 185.841 -4.13488 -1.48068 0
M  V30 1877 H 186.447 -4.24886 0.187637 0
M  V30 1878 N 184.763 -0.387143 -1.52771 0
M  V30 1879 C 186.04 0.253197 -1.93954 0
M  V30 1880 C 186.42 1.64545 -1.32243 0
M  V30 1881 O 185.768 2.23191 -0.489699 0
M  V30 1882 C 185.978 0.281722 -3.47861 0
M  V30 1883 C 187.326 0.511715 -4.21505 0
M  V30 1884 O 188.35 0.362023 -3.54356 0
M  V30 1885 O 187.209 0.804847 -5.40541 0
M  V30 1886 H 184.303 0.156845 -0.811991 0
M  V30 1887 H 186.849 -0.441494 -1.63856 0
M  V30 1888 H 185.621 -0.693571 -3.85104 0
M  V30 1889 H 185.244 1.02142 -3.84256 0
M  V30 1890 N 186.241 1.57166 -0.116904 0
M  V30 1891 C 187.204 2.14039 0.819742 0
M  V30 1892 C 188.204 1.07477 1.19605 0
M  V30 1893 O 189.394 1.33263 1.1219 0
M  V30 1894 C 186.526 2.67891 2.10826 0
M  V30 1895 H 187.719 2.98128 0.325511 0
M  V30 1896 H 185.272 1.55739 0.132312 0
M  V30 1897 H 186.007 1.87384 2.64685 0
M  V30 1898 H 185.792 3.45823 1.84793 0
M  V30 1899 H 187.282 3.11809 2.77785 0
M  V30 1900 N 187.719 -0.156864 1.56817 0
M  V30 1901 C 188.682 -1.17781 1.96622 0
M  V30 1902 C 189.682 -1.36401 0.851555 0
M  V30 1903 O 190.872 -1.33561 1.11836 0
M  V30 1904 C 188.004 -2.54008 2.27361 0
M  V30 1905 H 189.197 -0.836564 2.87996 0
M  V30 1906 H 186.75 -0.39985 1.51099 0
M  V30 1907 H 187.485 -2.9312 1.38748 0
M  V30 1908 H 187.27 -2.41856 3.08623 0
M  V30 1909 H 188.76 -3.27558 2.59029 0
M  V30 1910 N 189.197 -1.51736 -0.425897 0
M  V30 1911 C 190.16 -1.73271 -1.50032 0
M  V30 1912 C 191.16 -0.602639 -1.4908 0
M  V30 1913 O 192.35 -0.87033 -1.509 0
M  V30 1914 C 189.482 -1.79969 -2.89523 0
M  V30 1915 H 190.675 -2.69172 -1.32237 0
M  V30 1916 H 188.228 -1.41899 -0.65532 0
M  V30 1917 H 188.963 -0.859241 -3.1271 0
M  V30 1918 H 188.748 -2.62109 -2.91619 0
M  V30 1919 H 190.238 -1.9843 -3.67444 0
M  V30 1920 N 190.675 0.682077 -1.42076 0
M  V30 1921 C 191.605 1.80796 -1.47767 0
M  V30 1922 C 192.586 1.6677 -0.334954 0
M  V30 1923 O 193.771 1.863 -0.548264 0
M  V30 1924 C 190.901 3.19038 -1.37229 0
M  V30 1925 C 189.855 3.47789 -2.49453 0
M  V30 1926 C 189.181 4.8553 -2.23975 0
M  V30 1927 C 190.481 3.45411 -3.91776 0
M  V30 1928 H 192.175 1.7629 -2.41997 0
M  V30 1929 H 189.721 0.846721 -1.16476 0
M  V30 1930 H 191.674 3.97528 -1.39821 0
M  V30 1931 H 190.398 3.24204 -0.394907 0
M  V30 1932 H 189.057 2.71657 -2.46166 0
M  V30 1933 H 188.705 4.87337 -1.24547 0
M  V30 1934 H 188.405 5.0573 -2.99184 0
M  V30 1935 H 189.929 5.66312 -2.28304 0
M  V30 1936 H 191.343 4.13882 -3.96705 0
M  V30 1937 H 189.74 3.77145 -4.66778 0
M  V30 1938 H 190.81 2.44122 -4.18966 0
M  V30 1939 N 192.153 1.28127 0.917671 0
M  V30 1940 C 193.101 1.11569 2.04096 0
M  V30 1941 C 194.095 0.0360242 1.69362 0
M  V30 1942 O 195.301 0.194501 1.78946 0
M  V30 1943 H 191.676 0.344097 0.668656 0
M  V30 1944 H 193.647 2.06711 2.15205 0
M  V30 1945 C 192.396 0.790197 3.38602 0
M  V30 1946 H 191.719 1.61293 3.6582 0
M  V30 1947 H 193.159 0.714271 4.1794 0
M  V30 1948 C 191.618 -0.505897 3.3308 0
M  V30 1949 O 192.148 -1.53736 3.71117 0
M  V30 1950 N 190.354 -0.505193 2.86175 0
M  V30 1951 H 189.901 0.334621 2.55417 0
M  V30 1952 H 189.859 -1.37243 2.82863 0
M  V30 1953 N 193.631 -1.12557 1.10312 0
M  V30 1954 C 194.88 -1.83395 0.839588 0
M  V30 1955 C 195.193 -1.84939 -0.636929 0
M  V30 1956 O 196.399 -2.51761 -1.01631 0
M  V30 1957 C 194.855 -3.29303 1.45215 0
M  V30 1958 C 194.463 -3.36122 2.96186 0
M  V30 1959 C 196.207 -4.05121 1.26796 0
M  V30 1960 C 194.114 -4.76357 3.50483 0
M  V30 1961 H 193.044 -0.687133 0.310425 0
M  V30 1962 H 195.695 -1.26746 1.32694 0
M  V30 1963 H 194.077 -3.85812 0.892469 0
M  V30 1964 H 195.251 -2.89559 3.58458 0
M  V30 1965 H 193.566 -2.73776 3.13745 0
M  V30 1966 H 196.163 -5.08668 1.64806 0
M  V30 1967 H 196.506 -4.15773 0.209409 0
M  V30 1968 H 197.039 -3.54967 1.79563 0
M  V30 1969 H 193.778 -4.70899 4.55998 0
M  V30 1970 H 193.298 -5.23377 2.92978 0
M  V30 1971 H 194.977 -5.45294 3.48228 0
M  V30 1972 N 195.109 -0.891671 -1.2995 0
M  V30 1973 C 196.039 -0.379797 -2.30391 0
M  V30 1974 C 197.02 0.540919 -1.6127 0
M  V30 1975 O 198.205 0.453352 -1.88834 0
M  V30 1976 C 195.335 0.400654 -3.44981 0
M  V30 1977 C 194.289 -0.428905 -4.25846 0
M  V30 1978 C 193.615 0.478557 -5.32554 0
M  V30 1979 C 194.915 -1.67458 -4.94727 0
M  V30 1980 H 196.609 -1.21914 -2.73454 0
M  V30 1981 H 194.155 -0.587675 -1.31462 0
M  V30 1982 H 196.108 0.769434 -4.14316 0
M  V30 1983 H 194.832 1.27371 -3.0074 0
M  V30 1984 H 193.491 -0.779911 -3.58208 0
M  V30 1985 H 193.139 1.34951 -4.84559 0
M  V30 1986 H 192.839 -0.0727433 -5.87555 0
M  V30 1987 H 194.363 0.843705 -6.04743 0
M  V30 1988 H 195.777 -1.376 -5.56542 0
M  V30 1989 H 194.174 -2.16659 -5.59624 0
M  V30 1990 H 195.244 -2.41518 -4.20473 0
M  V30 1991 N 196.587 1.43421 -0.653314 0
M  V30 1992 C 197.55 2.29182 0.0287951 0
M  V30 1993 C 198.55 1.42213 0.750465 0
M  V30 1994 O 199.74 1.63843 0.591701 0
M  V30 1995 C 196.872 3.24278 1.05151 0
M  V30 1996 H 198.065 2.90985 -0.725786 0
M  V30 1997 H 195.618 1.50702 -0.414545 0
M  V30 1998 H 196.353 2.6737 1.83532 0
M  V30 1999 H 196.138 3.88396 0.537687 0
M  V30 2000 H 197.628 3.88647 1.52786 0
M  V30 2001 N 198.065 0.39524 1.52563 0
M  V30 2002 C 198.995 -0.428384 2.29537 0
M  V30 2003 C 199.976 -1.05831 1.33169 0
M  V30 2004 O 201.161 -1.06995 1.62067 0
M  V30 2005 C 198.291 -1.55274 3.10656 0
M  V30 2006 C 197.245 -1.04855 4.14957 0
M  V30 2007 C 196.571 -2.26543 4.84337 0
M  V30 2008 C 197.871 -0.112324 5.22179 0
M  V30 2009 H 199.565 0.213867 2.98635 0
M  V30 2010 H 197.111 0.104298 1.43622 0
M  V30 2011 H 199.064 -2.1358 3.63265 0
M  V30 2012 H 197.788 -2.22266 2.39302 0
M  V30 2013 H 196.447 -0.487985 3.63338 0
M  V30 2014 H 196.095 -2.92059 4.09525 0
M  V30 2015 H 195.795 -1.93466 5.54837 0
M  V30 2016 H 197.319 -2.85481 5.39753 0
M  V30 2017 H 198.733 -0.603752 5.70112 0
M  V30 2018 H 197.13 0.128968 5.99961 0
M  V30 2019 H 198.2 0.837052 4.77621 0
M  V30 2020 N 199.544 -1.57102 0.125237 0
M  V30 2021 C 200.769 -2.0019 -0.542101 0
M  V30 2022 C 201.194 -1.00449 -1.59034 0
M  V30 2023 O 200.552 0.0229423 -1.81285 0
M  V30 2024 C 200.6 -3.42129 -1.13929 0
M  V30 2025 O 199.704 -3.45307 -2.2547 0
M  V30 2026 H 199.045 -0.650171 -0.134812 0
M  V30 2027 H 201.575 -2.03461 0.215553 0
M  V30 2028 H 201.585 -3.80471 -1.4733 0
M  V30 2029 H 200.26 -4.14237 -0.371531 0
M  V30 2030 H 198.837 -3.1879 -1.93462 0
M  V30 2031 N 201.022 0.148545 -1.56898 0
M  V30 2032 C 202.433 0.708766 -1.72723 0
M  V30 2033 C 202.784 1.81734 -0.739395 0
M  V30 2034 O 201.909 2.16194 0.0943169 0
M  V30 2035 C 202.504 1.29245 -3.13179 0
M  V30 2036 C 201.063 1.79925 -3.30611 0
M  V30 2037 C 200.21 0.687111 -2.68652 0
M  V30 2038 H 203.161 -0.0771063 -1.58513 0
M  V30 2039 H 203.182 2.16224 -3.13093 0
M  V30 2040 H 202.694 0.485382 -3.85053 0
M  V30 2041 H 200.795 2.63203 -2.63732 0
M  V30 2042 H 200.908 1.92903 -4.38549 0
M  V30 2043 H 199.272 1.11335 -2.29078 0
M  V30 2044 H 200.055 -0.108483 -3.43129 0
M  V30 2045 N 202.5 1.5196 0.417844 0
M  V30 2046 C 203.911 1.57851 0.997 0
M  V30 2047 C 204.262 0.413714 1.91789 0
M  V30 2048 O 203.387 -0.467057 2.113 0
M  V30 2049 C 203.982 2.86085 1.81496 0
M  V30 2050 C 202.541 2.94483 2.34428 0
M  V30 2051 C 201.688 2.52707 1.14169 0
M  V30 2052 H 204.639 1.57455 0.198392 0
M  V30 2053 H 204.66 2.70947 2.67148 0
M  V30 2054 H 204.172 3.70842 1.14446 0
M  V30 2055 H 202.273 2.142 3.04875 0
M  V30 2056 H 202.386 3.98546 2.65891 0
M  V30 2057 H 200.75 2.06353 1.49301 0
M  V30 2058 H 201.533 3.39828 0.486999 0
M  V30 2059 N 203.978 -0.674533 1.42435 0
M  V30 2060 C 204.941 -1.76986 1.45632 0
M  V30 2061 C 205.941 -1.5708 0.343871 0
M  V30 2062 O 207.131 -1.63367 0.604709 0
M  V30 2063 C 204.263 -3.15623 1.28822 0
M  V30 2064 H 205.456 -1.75539 2.43158 0
M  V30 2065 H 203.009 -0.884189 1.28887 0
M  V30 2066 H 203.744 -3.22696 0.322193 0
M  V30 2067 H 203.529 -3.31475 2.09444 0
M  V30 2068 H 205.019 -3.95537 1.33942 0
M  V30 2069 N 205.456 -1.28612 -0.910864 0
M  V30 2070 C 206.388 -1.08589 -2.01844 0
M  V30 2071 C 207.401 -0.0367419 -1.62759 0
M  V30 2072 O 208.59 -0.280101 -1.76289 0
M  V30 2073 C 205.69 -0.628626 -3.33019 0
M  V30 2074 C 204.863 -1.75382 -4.00699 0
M  V30 2075 C 203.922 -1.28945 -5.10156 0
M  V30 2076 O 202.948 -1.9922 -5.33198 0
M  V30 2077 N 204.15 -0.154224 -5.80295 0
M  V30 2078 H 206.915 -2.03973 -2.19579 0
M  V30 2079 H 204.476 -1.20403 -1.08234 0
M  V30 2080 H 206.468 -0.301508 -4.03575 0
M  V30 2081 H 205.038 0.232451 -3.11735 0
M  V30 2082 H 204.258 -2.25039 -3.23653 0
M  V30 2083 H 205.546 -2.50854 -4.42662 0
M  V30 2084 H 204.944 0.43194 -5.64049 0
M  V30 2085 H 203.501 0.113599 -6.51701 0
M  V30 2086 N 206.934 1.1197 -1.10907 0
M  V30 2087 C 207.882 2.19927 -0.757303 0
M  V30 2088 C 208.876 1.67564 0.248747 0
M  V30 2089 O 210.082 1.79672 0.108605 0
M  V30 2090 H 206.457 0.716925 -0.226987 0
M  V30 2091 H 208.428 2.46847 -1.67658 0
M  V30 2092 C 207.177 3.47061 -0.210671 0
M  V30 2093 H 206.5 3.87703 -0.976049 0
M  V30 2094 H 207.94 4.24 -0.0026584 0
M  V30 2095 C 206.399 3.19864 1.05777 0
M  V30 2096 O 206.929 3.40049 2.13845 0
M  V30 2097 N 205.135 2.73636 0.978349 0
M  V30 2098 H 204.682 2.5741 0.0988246 0
M  V30 2099 H 204.64 2.55815 1.82773 0
M  V30 2100 N 208.412 0.89855 1.29475 0
M  V30 2101 C 209.342 0.39201 2.30186 0
M  V30 2102 C 210.323 -0.532359 1.61555 0
M  V30 2103 O 211.508 -0.443331 1.89072 0
M  V30 2104 C 208.638 -0.382353 3.45189 0
M  V30 2105 C 207.592 0.451483 4.25612 0
M  V30 2106 C 206.918 -0.450307 5.328 0
M  V30 2107 C 208.218 1.70079 4.93832 0
M  V30 2108 H 209.912 1.23362 2.72804 0
M  V30 2109 H 207.458 0.594638 1.31149 0
M  V30 2110 H 209.411 -0.747451 4.14718 0
M  V30 2111 H 208.135 -1.25774 3.01411 0
M  V30 2112 H 206.794 0.798897 3.57789 0
M  V30 2113 H 206.442 -1.32379 4.85268 0
M  V30 2114 H 206.142 0.103902 5.87508 0
M  V30 2115 H 207.666 -0.811623 6.05182 0
M  V30 2116 H 209.08 1.40549 5.55805 0
M  V30 2117 H 207.477 2.19623 5.58467 0
M  V30 2118 H 208.547 2.43744 4.19186 0
M  V30 2119 N 209.89 -1.43072 0.660911 0
M  V30 2120 C 210.82 -2.33497 -0.0122829 0
M  V30 2121 C 211.801 -1.49903 -0.803925 0
M  V30 2122 O 212.986 -1.78546 -0.763864 0
M  V30 2123 C 210.116 -3.33363 -0.973994 0
M  V30 2124 C 209.07 -4.27003 -0.291928 0
M  V30 2125 C 208.396 -5.16967 -1.36562 0
M  V30 2126 C 209.696 -5.15816 0.820462 0
M  V30 2127 H 211.39 -2.90038 0.742873 0
M  V30 2128 H 208.936 -1.39461 0.358688 0
M  V30 2129 H 210.889 -3.95524 -1.45392 0
M  V30 2130 H 209.613 -2.75095 -1.7604 0
M  V30 2131 H 208.272 -3.66217 0.167623 0
M  V30 2132 H 207.92 -4.55034 -2.14366 0
M  V30 2133 H 207.62 -5.80441 -0.914454 0
M  V30 2134 H 209.144 -5.82003 -1.84675 0
M  V30 2135 H 210.558 -5.71742 0.422366 0
M  V30 2136 H 208.955 -5.8805 1.19656 0
M  V30 2137 H 210.025 -4.55045 1.67518 0
M  V30 2138 N 211.368 -0.403325 -1.52352 0
M  V30 2139 C 212.298 0.416205 -2.29761 0
M  V30 2140 C 213.279 1.05123 -1.33728 0
M  V30 2141 O 214.464 1.06134 -1.62632 0
M  V30 2142 C 211.594 1.53624 -3.11475 0
M  V30 2143 C 210.548 1.02653 -4.15507 0
M  V30 2144 C 209.874 2.23971 -4.85532 0
M  V30 2145 C 211.174 0.08463 -5.22231 0
M  V30 2146 H 212.868 -0.229701 -2.98518 0
M  V30 2147 H 210.414 -0.111913 -1.43564 0
M  V30 2148 H 212.367 2.1165 -3.64393 0
M  V30 2149 H 211.091 2.20994 -2.40477 0
M  V30 2150 H 209.75 0.46871 -3.63591 0
M  V30 2151 H 209.398 2.89883 -4.11068 0
M  V30 2152 H 209.098 1.90521 -5.55856 0
M  V30 2153 H 210.622 2.82614 -5.41259 0
M  V30 2154 H 212.036 0.573509 -5.70424 0
M  V30 2155 H 210.433 -0.160783 -5.99885 0
M  V30 2156 H 211.503 -0.86237 -4.7717 0
M  V30 2157 N 212.846 1.57033 -0.133567 0
M  V30 2158 C 213.793 2.16074 0.811208 0
M  V30 2159 C 214.763 1.08979 1.2535 0
M  V30 2160 O 215.948 1.36958 1.32843 0
M  V30 2161 C 213.088 2.77595 2.05024 0
M  V30 2162 C 212.201 3.99042 1.65498 0
M  V30 2163 C 211.336 4.48603 2.84479 0
M  V30 2164 C 210.375 5.62547 2.41262 0
M  V30 2165 N 209.512 6.06787 3.53206 0
M  V30 2166 H 214.352 2.96477 0.300906 0
M  V30 2167 H 211.889 1.46462 0.136822 0
M  V30 2168 H 213.847 3.11402 2.77642 0
M  V30 2169 H 212.477 1.99859 2.53488 0
M  V30 2170 H 211.529 3.71302 0.826981 0
M  V30 2171 H 212.841 4.81629 1.29748 0
M  V30 2172 H 211.995 4.84395 3.65303 0
M  V30 2173 H 210.734 3.64995 3.23465 0
M  V30 2174 H 209.739 5.26345 1.58874 0
M  V30 2175 H 210.964 6.47931 2.03377 0
M  V30 2176 H 208.91 5.26117 3.91838 0
M  V30 2177 H 208.827 6.84266 3.21427 0
M  V30 2178 H 210.095 6.4722 4.34427 0
M  V30 2179 N 214.325 -0.140222 1.56975 0
M  V30 2180 C 215.55 -0.870414 1.88251 0
M  V30 2181 C 215.975 -1.73637 0.723312 0
M  V30 2182 O 215.333 -1.78329 -0.32689 0
M  V30 2183 C 215.381 -1.69737 3.18154 0
M  V30 2184 O 214.485 -2.80229 3.02565 0
M  V30 2185 H 213.826 -0.242025 0.61832 0
M  V30 2186 H 216.356 -0.128999 2.04193 0
M  V30 2187 H 216.366 -2.09099 3.50345 0
M  V30 2188 H 215.041 -1.06152 4.02125 0
M  V30 2189 H 213.618 -2.44224 2.81796 0
M  V30 2190 N 215.803 -1.52179 -0.40978 0
M  V30 2191 C 217.033 -1.69807 -1.17682 0
M  V30 2192 C 217.441 -0.406908 -1.84773 0
M  V30 2193 O 216.784 0.626863 -1.72673 0
M  V30 2194 C 216.846 -2.77712 -2.2829 0
M  V30 2195 C 216.51 -4.19481 -1.81341 0
M  V30 2196 C 217.507 -5.03345 -1.30154 0
M  V30 2197 C 215.192 -4.65713 -1.88194 0
M  V30 2198 C 217.186 -6.31511 -0.864416 0
M  V30 2199 C 214.873 -5.93869 -1.44093 0
M  V30 2200 C 215.871 -6.76597 -0.933023 0
M  V30 2201 O 215.559 -8.02354 -0.49838 0
M  V30 2202 H 215.291 -0.572372 -0.359675 0
M  V30 2203 H 217.845 -1.99511 -0.488311 0
M  V30 2204 H 216.075 -2.43383 -3.00502 0
M  V30 2205 H 217.764 -2.83946 -2.90051 0
M  V30 2206 H 218.53 -4.68819 -1.24232 0
M  V30 2207 H 214.409 -4.01424 -2.26671 0
M  V30 2208 H 217.953 -6.96033 -0.467286 0
M  V30 2209 H 213.85 -6.27903 -1.49694 0
M  V30 2210 H 214.618 -8.16135 -0.621747 0
M  V30 2211 N 217.281 0.66697 -1.42791 0
M  V30 2212 C 218.528 1.42699 -1.43678 0
M  V30 2213 C 218.856 1.94419 -0.0560425 0
M  V30 2214 O 218.111 1.7182 0.936831 0
M  V30 2215 C 218.41 2.6349 -2.4147 0
M  V30 2216 C 218.076 2.30267 -3.8767 0
M  V30 2217 C 216.738 2.20918 -4.27491 0
M  V30 2218 C 219.09 2.03435 -4.79858 0
M  V30 2219 C 216.418 1.82873 -5.57471 0
M  V30 2220 C 218.77 1.66892 -6.10188 0
M  V30 2221 C 217.434 1.56058 -6.49001 0
M  V30 2222 H 216.704 0.522171 -0.525755 0
M  V30 2223 H 219.351 0.759785 -1.75783 0
M  V30 2224 H 217.656 3.35279 -2.0272 0
M  V30 2225 H 219.353 3.21684 -2.39417 0
M  V30 2226 H 215.943 2.38449 -3.56146 0
M  V30 2227 H 220.127 2.09586 -4.49875 0
M  V30 2228 H 215.383 1.7306 -5.86396 0
M  V30 2229 H 219.557 1.45157 -6.81104 0
M  V30 2230 H 217.184 1.26348 -7.49627 0
M  V30 2231 N 218.759 1.29093 0.90403 0
M  V30 2232 C 219.984 1.19809 1.69294 0
M  V30 2233 C 220.409 -0.238481 1.86582 0
M  V30 2234 O 219.767 -1.1723 1.383 0
M  V30 2235 C 219.815 1.91202 3.05736 0
M  V30 2236 O 218.919 1.22611 3.93752 0
M  V30 2237 H 218.26 0.415385 0.518027 0
M  V30 2238 H 220.79 1.70586 1.12967 0
M  V30 2239 H 220.8 1.99487 3.55906 0
M  V30 2240 H 219.475 2.95692 2.92471 0
M  V30 2241 H 218.052 1.22554 3.52186 0
M  V30 2242 N 220.237 -1.11381 1.11499 0
M  V30 2243 C 221.147 -2.21019 0.786628 0
M  V30 2244 C 222.163 -1.72597 -0.220507 0
M  V30 2245 O 223.339 -2.01321 -0.0565251 0
M  V30 2246 C 220.404 -3.459 0.235333 0
M  V30 2247 C 219.465 -4.09107 1.30115 0
M  V30 2248 C 218.698 -5.28027 0.776068 0
M  V30 2249 O 218.921 -5.6904 -0.393661 0
M  V30 2250 O 217.855 -5.81835 1.54114 0
M  V30 2251 H 221.681 -2.51521 1.70209 0
M  V30 2252 H 219.266 -1.19928 0.890928 0
M  V30 2253 H 221.148 -4.21346 -0.067715 0
M  V30 2254 H 219.823 -3.17049 -0.652828 0
M  V30 2255 H 218.73 -3.35391 1.65722 0
M  V30 2256 H 220.063 -4.42139 2.16273 0
M  V30 2257 N 221.715 -0.905404 -1.28997 0
M  V30 2258 C 222.625 -0.392246 -2.31298 0
M  V30 2259 C 223.641 0.515889 -1.66176 0
M  V30 2260 O 224.817 0.404093 -1.97304 0
M  V30 2261 C 221.882 0.36686 -3.44754 0
M  V30 2262 C 220.943 -0.573485 -4.25452 0
M  V30 2263 C 220.176 0.149488 -5.33491 0
M  V30 2264 O 220.399 1.37255 -5.5364 0
M  V30 2265 O 219.333 -0.510919 -5.99728 0
M  V30 2266 H 223.159 -1.2411 -2.77183 0
M  V30 2267 H 220.744 -0.669926 -1.33538 0
M  V30 2268 H 222.626 0.795907 -4.13816 0
M  V30 2269 H 221.301 1.19169 -3.00966 0
M  V30 2270 H 220.208 -1.05176 -3.59011 0
M  V30 2271 H 221.541 -1.36489 -4.72897 0
M  V30 2272 N 223.193 1.4272 -0.668489 0
M  V30 2273 C 224.441 2.01226 -0.187769 0
M  V30 2274 C 224.762 1.53092 1.2078 0
M  V30 2275 O 224.032 0.74993 1.80977 0
M  V30 2276 H 222.612 0.744041 -0.0664272 0
M  V30 2277 H 225.274 1.74723 -0.863583 0
M  V30 2278 H 224.37 3.11556 -0.184166 0
M  V30 2279 N 224.671 0.411399 1.52136 0
M  V30 2280 C 225.92 -0.165009 2.01024 0
M  V30 2281 C 226.233 -1.4603 1.30133 0
M  V30 2282 O 227.439 -2.1181 1.69849 0
M  V30 2283 C 225.895 -0.344618 3.58246 0
M  V30 2284 C 225.503 0.938716 4.38055 0
M  V30 2285 C 227.247 -0.876195 4.15359 0
M  V30 2286 C 225.154 0.726172 5.86925 0
M  V30 2287 H 224.084 -0.0654407 0.751155 0
M  V30 2288 H 226.735 0.537192 1.75461 0
M  V30 2289 H 225.117 -1.10921 3.80148 0
M  V30 2290 H 226.291 1.70963 4.27912 0
M  V30 2291 H 224.606 1.39688 3.92271 0
M  V30 2292 H 227.203 -1.05128 5.24263 0
M  V30 2293 H 227.546 -1.85152 3.7286 0
M  V30 2294 H 228.079 -0.170607 3.97434 0
M  V30 2295 H 224.818 1.67312 6.33788 0
M  V30 2296 H 224.338 -0.00540283 5.998 0
M  V30 2297 H 226.017 0.369231 6.45946 0
M  V30 2298 N 226.149 -1.5696 0.141893 0
M  V30 2299 C 227.397 -1.95573 -0.509484 0
M  V30 2300 C 227.718 -1.02746 -1.65736 0
M  V30 2301 O 226.988 -0.0880311 -1.95702 0
M  V30 2302 H 225.568 -0.722115 -0.191205 0
M  V30 2303 H 228.23 -1.93697 0.216196 0
M  V30 2304 H 227.326 -2.99171 -0.889 0
M  V30 2305 N 227.627 0.131896 -1.57047 0
M  V30 2306 C 228.857 0.855219 -1.88068 0
M  V30 2307 C 229.265 1.74557 -0.729817 0
M  V30 2308 O 228.608 1.81083 0.308962 0
M  V30 2309 C 228.67 1.75119 -3.13964 0
M  V30 2310 C 228.334 1.03646 -4.45091 0
M  V30 2311 C 229.331 0.383276 -5.18485 0
M  V30 2312 C 227.016 1.02148 -4.91804 0
M  V30 2313 C 229.01 -0.275347 -6.36805 0
M  V30 2314 C 226.697 0.359047 -6.10044 0
M  V30 2315 C 227.695 -0.288222 -6.82392 0
M  V30 2316 O 227.383 -0.94011 -7.98384 0
M  V30 2317 H 227.115 0.251864 -0.627328 0
M  V30 2318 H 229.669 0.124782 -2.05021 0
M  V30 2319 H 227.899 2.52295 -2.9306 0
M  V30 2320 H 229.588 2.3478 -3.31109 0
M  V30 2321 H 230.354 0.386562 -4.83457 0
M  V30 2322 H 226.233 1.5147 -4.35405 0
M  V30 2323 H 229.777 -0.781148 -6.93213 0
M  V30 2324 H 225.674 0.35348 -6.44531 0
M  V30 2325 H 226.442 -0.84329 -8.14144 0
M  V30 2326 N 229.106 1.52395 0.401703 0
M  V30 2327 C 230.054 1.7689 1.51039 0
M  V30 2328 C 231.048 0.636298 1.56996 0
M  V30 2329 O 232.254 0.818507 1.60314 0
M  V30 2330 H 228.629 0.559502 0.502456 0
M  V30 2331 H 230.6 2.69757 1.27568 0
M  V30 2332 C 229.349 1.94331 2.88324 0
M  V30 2333 H 228.672 2.80905 2.84486 0
M  V30 2334 H 230.112 2.15466 3.65172 0
M  V30 2335 C 228.571 0.712396 3.29282 0
M  V30 2336 O 229.101 -0.116218 4.01532 0
M  V30 2337 N 227.307 0.546154 2.85422 0
M  V30 2338 H 226.854 1.22156 2.26794 0
M  V30 2339 H 226.812 -0.276113 3.13185 0
M  V30 2340 N 230.584 -0.659388 1.43143 0
M  V30 2341 C 231.833 -1.41518 1.43721 0
M  V30 2342 C 232.146 -1.95499 0.0628176 0
M  V30 2343 O 233.352 -2.71446 -0.0539683 0
M  V30 2344 C 231.808 -2.5608 2.52885 0
M  V30 2345 C 231.416 -2.08733 3.96402 0
M  V30 2346 C 233.16 -3.3349 2.62649 0
M  V30 2347 C 231.067 -3.20469 4.97045 0
M  V30 2348 H 229.997 -0.531705 0.534608 0
M  V30 2349 H 232.648 -0.712343 1.69109 0
M  V30 2350 H 231.03 -3.28805 2.20688 0
M  V30 2351 H 232.204 -1.43059 4.3803 0
M  V30 2352 H 230.519 -1.44219 3.90627 0
M  V30 2353 H 233.116 -4.16734 3.35017 0
M  V30 2354 H 233.459 -3.8111 1.67513 0
M  V30 2355 H 233.992 -2.67842 2.94118 0
M  V30 2356 H 230.731 -2.77824 5.93712 0
M  V30 2357 H 230.251 -3.84874 4.60034 0
M  V30 2358 H 231.93 -3.85698 5.19467 0
M  V30 2359 N 232.062 -1.29571 -0.897171 0
M  V30 2360 C 233.311 -1.1706 -1.64256 0
M  V30 2361 C 233.624 0.276476 -1.93636 0
M  V30 2362 O 234.83 0.52294 -2.66416 0
M  V30 2363 C 233.286 -2.0475 -2.95982 0
M  V30 2364 C 232.894 -3.54295 -2.74187 0
M  V30 2365 C 234.638 -2.0097 -3.73914 0
M  V30 2366 C 232.545 -4.34081 -4.01656 0
M  V30 2367 H 231.475 -0.43452 -0.616205 0
M  V30 2368 H 234.126 -1.54229 -0.994268 0
M  V30 2369 H 232.508 -1.60452 -3.62038 0
M  V30 2370 H 233.682 -4.06662 -2.1671 0
M  V30 2371 H 231.997 -3.59773 -2.09648 0
M  V30 2372 H 234.594 -2.57838 -4.68427 0
M  V30 2373 H 234.937 -0.990273 -4.0435 0
M  V30 2374 H 235.47 -2.43325 -3.14703 0
M  V30 2375 H 232.209 -5.36671 -3.76384 0
M  V30 2376 H 231.729 -3.86483 -4.58684 0
M  V30 2377 H 233.408 -4.44877 -4.69781 0
M  V30 2378 N 233.54 1.10788 -1.12088 0
M  V30 2379 C 234.956 1.34691 -0.856186 0
M  V30 2380 C 235.156 1.94791 0.515615 0
M  V30 2381 O 234.212 2.18524 1.26505 0
M  V30 2382 C 235.525 2.27208 -1.9697 0
M  V30 2383 C 237.073 2.40755 -2.00016 0
M  V30 2384 C 237.548 3.36598 -3.1059 0
M  V30 2385 N 239.039 3.44164 -3.10008 0
M  V30 2386 C 239.774 4.18284 -3.92206 0
M  V30 2387 N 239.27 4.95322 -4.84384 0
M  V30 2388 N 241.063 4.13865 -3.80357 0
M  V30 2389 H 233.214 0.70144 -2.00483 0
M  V30 2390 H 235.477 0.371405 -0.872217 0
M  V30 2391 H 235.183 1.90251 -2.958 0
M  V30 2392 H 235.057 3.27485 -1.87172 0
M  V30 2393 H 237.444 2.76982 -1.01808 0
M  V30 2394 H 237.525 1.40305 -2.13888 0
M  V30 2395 H 237.169 3.01096 -4.09028 0
M  V30 2396 H 237.099 4.36918 -2.93956 0
M  V30 2397 H 239.59 2.8922 -2.43228 0
M  V30 2398 H 239.903 5.49267 -5.43623 0
M  V30 2399 H 238.248 4.94459 -4.884 0
M  V30 2400 H 241.439 3.52773 -3.07683 0
M  V30 2401 H 241.612 4.71372 -4.44649 0
M  V30 2402 N 235.018 0.912232 1.28515 0
M  V30 2403 C 236.264 0.545405 1.95328 0
M  V30 2404 C 236.597 -0.908313 1.71649 0
M  V30 2405 O 235.872 -1.64575 1.03659 0
M  V30 2406 C 236.155 0.853483 3.4984 0
M  V30 2407 C 236.008 2.35982 3.82926 0
M  V30 2408 C 237.327 0.348589 4.38717 0
M  V30 2409 H 234.446 0.199626 0.709449 0
M  V30 2410 H 237.088 1.1412 1.5191 0
M  V30 2411 H 235.238 0.34643 3.86952 0
M  V30 2412 H 236.91 2.93738 3.55691 0
M  V30 2413 H 235.153 2.81543 3.30024 0
M  V30 2414 H 235.824 2.52593 4.90816 0
M  V30 2415 H 238.3 0.78294 4.08668 0
M  V30 2416 H 237.176 0.593242 5.45685 0
M  V30 2417 H 237.437 -0.751049 4.35674 0
M  V30 2418 N 236.496 -1.42363 0.676048 0
M  V30 2419 C 237.907 -1.84649 0.275948 0
M  V30 2420 C 238.258 -1.56588 -1.18214 0
M  V30 2421 O 237.383 -1.02634 -1.90513 0
M  V30 2422 C 237.978 -3.35178 0.494053 0
M  V30 2423 C 236.537 -3.76109 0.148061 0
M  V30 2424 C 235.684 -2.65931 0.785891 0
M  V30 2425 H 238.635 -1.32192 0.878121 0
M  V30 2426 H 238.656 -3.79655 -0.25343 0
M  V30 2427 H 238.168 -3.55571 1.55535 0
M  V30 2428 H 236.269 -3.61323 -0.909742 0
M  V30 2429 H 236.382 -4.7546 0.589454 0
M  V30 2430 H 234.746 -2.53773 0.217113 0
M  V30 2431 H 235.529 -2.89146 1.85067 0
M  V30 2432 N 237.974 -0.419461 -1.51915 0
M  V30 2433 C 238.907 0.445751 -2.23804 0
M  V30 2434 C 239.885 1.03951 -1.25031 0
M  V30 2435 O 241.069 1.08541 -1.54114 0
M  V30 2436 C 238.196 1.61964 -2.97465 0
M  V30 2437 C 237.242 1.14828 -4.10751 0
M  V30 2438 S 238.075 0.104938 -5.35397 0
M  V30 2439 C 239.231 1.28391 -6.1259 0
M  V30 2440 H 239.464 -0.164627 -2.96844 0
M  V30 2441 H 236.997 -0.203833 -1.53049 0
M  V30 2442 H 238.955 2.29271 -3.40507 0
M  V30 2443 H 237.616 2.20139 -2.24048 0
M  V30 2444 H 236.809 2.02561 -4.61503 0
M  V30 2445 H 236.411 0.553712 -3.69878 0
M  V30 2446 H 238.703 2.20563 -6.40592 0
M  V30 2447 H 239.646 0.816724 -7.03374 0
M  V30 2448 H 240.054 1.51439 -5.43807 0
M  V30 2449 N 239.452 1.56882 -0.150215 0
M  V30 2450 C 240.415 2.1573 0.774157 0
M  V30 2451 C 241.415 1.0999 1.17298 0
M  V30 2452 O 242.605 1.35613 1.09338 0
M  V30 2453 C 239.737 2.72302 2.05096 0
M  V30 2454 H 240.93 2.98752 0.262201 0
M  V30 2455 H 238.483 1.55985 0.099248 0
M  V30 2456 H 239.218 1.92956 2.6065 0
M  V30 2457 H 239.003 3.49665 1.77416 0
M  V30 2458 H 240.493 3.17632 2.71109 0
M  V30 2459 N 240.93 -0.123565 1.57115 0
M  V30 2460 C 242.155 -0.850398 1.89164 0
M  V30 2461 C 242.58 -1.7286 0.741688 0
M  V30 2462 O 241.938 -1.78665 -0.307958 0
M  V30 2463 C 241.986 -1.66353 3.19936 0
M  V30 2464 O 241.09 -2.77004 3.0552 0
M  V30 2465 H 240.431 -0.235454 0.620852 0
M  V30 2466 H 242.961 -0.107335 2.04318 0
M  V30 2467 H 242.971 -2.05372 3.52543 0
M  V30 2468 H 241.646 -1.01881 4.03228 0
M  V30 2469 H 240.223 -2.41221 2.84371 0
M  V30 2470 N 242.408 -1.52605 -0.393616 0
M  V30 2471 C 243.648 -1.6911 -1.1481 0
M  V30 2472 C 244.012 -0.41969 -1.87357 0
M  V30 2473 O 245.213 -0.461034 -2.64817 0
M  V30 2474 C 243.484 -2.88909 -2.10395 0
M  V30 2475 S 245.043 -3.25977 -2.93742 0
M  V30 2476 H 241.861 -0.595337 -0.38871 0
M  V30 2477 H 244.463 -1.90641 -0.433178 0
M  V30 2478 H 243.167 -3.79672 -1.55812 0
M  V30 2479 H 242.698 -2.69698 -2.86403 0
M  V30 2480 H 244.713 -2.75806 -4.12487 0
M  V30 2481 N 243.887 0.651787 -1.4349 0
M  V30 2482 C 245.164 1.40909 -1.35661 0
M  V30 2483 C 245.544 2.11099 -0.00511733 0
M  V30 2484 O 244.892 2.04892 1.0115 0
M  V30 2485 C 245.102 2.3926 -2.54078 0
M  V30 2486 C 246.45 3.03217 -2.97228 0
M  V30 2487 O 247.474 2.49588 -2.54135 0
M  V30 2488 O 246.333 4.00455 -3.71885 0
M  V30 2489 H 243.427 0.629625 -0.536191 0
M  V30 2490 H 245.973 0.678575 -1.55542 0
M  V30 2491 H 244.745 1.86352 -3.44076 0
M  V30 2492 H 244.368 3.1976 -2.36303 0
M  V30 2493 N 245.365 1.30045 0.890287 0
M  V30 2494 C 246.612 1.18561 1.64163 0
M  V30 2495 C 246.94 -0.260852 1.92743 0
M  V30 2496 O 246.195 -1.20376 1.54299 0
M  V30 2497 C 246.494 1.95409 2.99249 0
M  V30 2498 C 246.16 3.45066 2.90242 0
M  V30 2499 C 244.822 3.85878 2.87492 0
M  V30 2500 C 247.174 4.4039 2.78758 0
M  V30 2501 C 244.502 5.20314 2.7109 0
M  V30 2502 C 246.854 5.74928 2.63894 0
M  V30 2503 C 245.518 6.14986 2.59516 0
M  V30 2504 H 244.788 0.433846 0.600715 0
M  V30 2505 H 247.435 1.61088 1.03552 0
M  V30 2506 H 245.74 1.45501 3.63781 0
M  V30 2507 H 247.437 1.8392 3.56334 0
M  V30 2508 H 244.027 3.12631 2.93189 0
M  V30 2509 H 248.211 4.09806 2.79952 0
M  V30 2510 H 243.467 5.50449 2.66112 0
M  V30 2511 H 247.641 6.48434 2.53981 0
M  V30 2512 H 245.268 7.19104 2.46565 0
M  V30 2513 N 246.843 -1.10192 1.12674 0
M  V30 2514 C 248.068 -1.86523 0.906853 0
M  V30 2515 C 248.493 -1.80221 -0.538711 0
M  V30 2516 O 247.851 -1.17396 -1.38158 0
M  V30 2517 C 247.899 -3.32758 1.3894 0
M  V30 2518 O 247.003 -4.08449 0.5695 0
M  V30 2519 H 246.344 -0.578678 0.325619 0
M  V30 2520 H 248.874 -1.39203 1.49946 0
M  V30 2521 H 248.884 -3.83608 1.38958 0
M  V30 2522 H 247.559 -3.36661 2.44197 0
M  V30 2523 H 246.136 -3.67427 0.636528 0
M  V30 2524 N 248.321 -0.919034 -1.28029 0
M  V30 2525 C 249.57 -0.550802 -1.94034 0
M  V30 2526 C 249.883 0.910877 -1.73096 0
M  V30 2527 O 251.089 1.3875 -2.33368 0
M  V30 2528 C 249.545 -0.934249 -3.47563 0
M  V30 2529 C 249.153 -2.41602 -3.7727 0
M  V30 2530 C 250.897 -0.636854 -4.19696 0
M  V30 2531 C 248.804 -2.73932 -5.24133 0
M  V30 2532 H 247.734 -0.202273 -0.726362 0
M  V30 2533 H 250.385 -1.11867 -1.45458 0
M  V30 2534 H 248.767 -0.295115 -3.94899 0
M  V30 2535 H 249.941 -3.10233 -3.40723 0
M  V30 2536 H 248.256 -2.68441 -3.18321 0
M  V30 2537 H 250.853 -0.855005 -5.2782 0
M  V30 2538 H 251.196 0.425575 -4.14119 0
M  V30 2539 H 251.729 -1.23469 -3.78154 0
M  V30 2540 H 248.468 -3.79049 -5.34792 0
M  V30 2541 H 247.988 -2.09942 -5.61858 0
M  V30 2542 H 249.667 -2.61215 -5.91925 0
M  V30 2543 N 249.799 1.42003 -0.683588 0
M  V30 2544 C 251.215 1.55625 -0.353976 0
M  V30 2545 C 251.415 1.66151 1.14 0
M  V30 2546 O 250.471 1.63329 1.92561 0
M  V30 2547 C 251.784 2.80171 -1.092 0
M  V30 2548 C 253.332 2.93954 -1.07518 0
M  V30 2549 C 253.807 4.21372 -1.79471 0
M  V30 2550 N 255.298 4.28303 -1.76381 0
M  V30 2551 C 256.033 5.25729 -2.28904 0
M  V30 2552 N 255.529 6.29254 -2.89846 0
M  V30 2553 N 257.322 5.17586 -2.19228 0
M  V30 2554 H 249.473 1.33415 -1.6527 0
M  V30 2555 H 251.736 0.64282 -0.696769 0
M  V30 2556 H 251.442 2.78561 -2.14701 0
M  V30 2557 H 251.316 3.7133 -0.662862 0
M  V30 2558 H 253.703 2.95086 -0.028475 0
M  V30 2559 H 253.784 2.04002 -1.54328 0
M  V30 2560 H 253.428 4.21001 -2.84114 0
M  V30 2561 H 253.358 5.10275 -1.30104 0
M  V30 2562 H 255.849 3.54119 -1.31939 0
M  V30 2563 H 256.162 6.99964 -3.27522 0
M  V30 2564 H 254.507 6.29791 -2.93919 0
M  V30 2565 H 257.698 4.35631 -1.71299 0
M  V30 2566 H 257.871 5.93348 -2.60466 0
M  V30 2567 N 251.277 0.427512 1.51691 0
M  V30 2568 C 252.505 -0.141191 2.06418 0
M  V30 2569 C 252.92 -1.37303 1.29589 0
M  V30 2570 O 252.277 -1.79059 0.352732 0
M  V30 2571 C 252.328 -0.473266 3.58389 0
M  V30 2572 O 252.049 0.709673 4.32314 0
M  V30 2573 C 253.55 -1.09371 4.29596 0
M  V30 2574 H 250.77 -0.0122747 0.670888 0
M  V30 2575 H 253.314 0.603764 1.95384 0
M  V30 2576 H 251.469 -1.16812 3.69369 0
M  V30 2577 H 251.883 0.42807 5.2275 0
M  V30 2578 H 253.357 -1.27613 5.37046 0
M  V30 2579 H 253.834 -2.072 3.87253 0
M  V30 2580 H 254.44 -0.43853 4.23033 0
M  V30 2581 N 252.755 -1.56801 0.158532 0
M  V30 2582 C 253.985 -2.00568 -0.495583 0
M  V30 2583 C 254.393 -1.03774 -1.58201 0
M  V30 2584 O 253.736 -0.0285797 -1.83678 0
M  V30 2585 C 253.798 -3.40768 -1.14532 0
M  V30 2586 C 253.462 -4.56553 -0.202101 0
M  V30 2587 C 254.459 -5.16714 0.574675 0
M  V30 2588 C 252.144 -5.02197 -0.101648 0
M  V30 2589 C 254.138 -6.20939 1.43924 0
M  V30 2590 C 251.825 -6.06274 0.766508 0
M  V30 2591 C 252.823 -6.65515 1.53555 0
M  V30 2592 O 252.511 -7.67575 2.38922 0
M  V30 2593 H 252.243 -0.662893 -0.13247 0
M  V30 2594 H 254.797 -2.03829 0.253559 0
M  V30 2595 H 253.027 -3.34381 -1.94233 0
M  V30 2596 H 254.716 -3.6857 -1.70033 0
M  V30 2597 H 255.482 -4.82341 0.507167 0
M  V30 2598 H 251.361 -4.55807 -0.689994 0
M  V30 2599 H 254.905 -6.67107 2.03996 0
M  V30 2600 H 250.802 -6.40073 0.835266 0
M  V30 2601 H 251.57 -7.84844 2.32296 0
M  V30 2602 N 254.233 0.115231 -1.57178 0
M  V30 2603 C 255.461 0.836437 -1.89239 0
M  V30 2604 C 255.876 1.73256 -0.750175 0
M  V30 2605 O 255.233 1.80357 0.278832 0
M  V30 2606 C 255.284 1.66671 -3.20785 0
M  V30 2607 O 255.005 0.806652 -4.3061 0
M  V30 2608 C 256.506 2.49274 -3.66575 0
M  V30 2609 H 253.726 0.240253 -0.626514 0
M  V30 2610 H 256.27 0.0984932 -2.04263 0
M  V30 2611 H 254.425 2.35737 -3.0742 0
M  V30 2612 H 254.839 1.37969 -5.06028 0
M  V30 2613 H 256.313 3.03055 -4.6137 0
M  V30 2614 H 256.79 3.26807 -2.93417 0
M  V30 2615 H 257.396 1.85443 -3.82741 0
M  V30 2616 N 255.711 1.52812 0.385517 0
M  V30 2617 C 256.941 1.71658 1.14966 0
M  V30 2618 C 257.349 0.436253 1.84102 0
M  V30 2619 O 256.692 -0.599313 1.73649 0
M  V30 2620 C 256.754 2.81309 2.23843 0
M  V30 2621 C 256.418 4.22313 1.74644 0
M  V30 2622 C 257.415 5.05352 1.22129 0
M  V30 2623 C 255.1 4.68648 1.80761 0
M  V30 2624 C 257.094 6.32807 0.763838 0
M  V30 2625 C 254.781 5.96086 1.34627 0
M  V30 2626 C 255.779 6.77996 0.825264 0
M  V30 2627 O 255.467 8.03045 0.370669 0
M  V30 2628 H 255.199 0.578022 0.350523 0
M  V30 2629 H 257.753 2.00263 0.456509 0
M  V30 2630 H 255.983 2.48133 2.96592 0
M  V30 2631 H 257.672 2.88524 2.85497 0
M  V30 2632 H 258.438 4.70736 1.16758 0
M  V30 2633 H 254.317 4.04979 2.20256 0
M  V30 2634 H 257.861 6.96689 0.356494 0
M  V30 2635 H 253.758 6.30205 1.39686 0
M  V30 2636 H 254.526 8.17021 0.491829 0
M  V30 2637 N 257.189 -0.644168 1.43834 0
M  V30 2638 C 258.152 -1.73857 1.49353 0
M  V30 2639 C 259.152 -1.56315 0.377112 0
M  V30 2640 O 260.342 -1.62048 0.639226 0
M  V30 2641 C 257.474 -3.12819 1.35488 0
M  V30 2642 H 258.667 -1.70342 2.46827 0
M  V30 2643 H 256.22 -0.856652 1.30733 0
M  V30 2644 H 256.955 -3.2194 0.390569 0
M  V30 2645 H 256.74 -3.26958 2.16428 0
M  V30 2646 H 258.23 -3.92606 1.42302 0
M  V30 2647 N 258.668 -1.30515 -0.883378 0
M  V30 2648 C 259.945 -1.10086 -1.6168 0
M  V30 2649 C 260.325 0.349269 -2.08191 0
M  V30 2650 O 259.673 1.34105 -1.85008 0
M  V30 2651 C 259.883 -2.10315 -2.78511 0
M  V30 2652 C 261.231 -2.42119 -3.48803 0
M  V30 2653 O 262.255 -2.08638 -2.88702 0
M  V30 2654 O 261.114 -2.99396 -4.57192 0
M  V30 2655 H 258.208 -0.422907 -0.710689 0
M  V30 2656 H 260.754 -1.41947 -0.930015 0
M  V30 2657 H 259.526 -3.07917 -2.41459 0
M  V30 2658 H 259.149 -1.79282 -3.54886 0
M  V30 2659 N 260.146 1.09593 -1.13257 0
M  V30 2660 C 261.374 1.855 -0.916378 0
M  V30 2661 C 261.789 1.81069 0.534738 0
M  V30 2662 O 261.146 1.20562 1.37007 0
M  V30 2663 C 261.197 3.33546 -1.39388 0
M  V30 2664 O 260.918 3.37927 -2.78813 0
M  V30 2665 C 262.419 4.26299 -1.21588 0
M  V30 2666 H 259.639 0.585991 -0.326887 0
M  V30 2667 H 262.183 1.38488 -1.5047 0
M  V30 2668 H 260.338 3.77992 -0.848597 0
M  V30 2669 H 260.752 4.30254 -2.9997 0
M  V30 2670 H 262.226 5.28341 -1.59876 0
M  V30 2671 H 262.703 4.38918 -0.157376 0
M  V30 2672 H 263.309 3.87668 -1.7491 0
M  V30 2673 N 261.624 0.925811 1.2754 0
M  V30 2674 C 263.035 0.610102 1.7645 0
M  V30 2675 C 263.386 -0.874723 1.75622 0
M  V30 2676 O 262.511 -1.68444 1.35851 0
M  V30 2677 C 263.106 1.10073 3.20421 0
M  V30 2678 C 261.665 0.835723 3.67005 0
M  V30 2679 C 260.812 1.26054 2.46993 0
M  V30 2680 H 263.763 1.10579 1.13833 0
M  V30 2681 H 263.784 0.447557 3.77859 0
M  V30 2682 H 263.296 2.18143 3.20991 0
M  V30 2683 H 261.397 -0.231249 3.71882 0
M  V30 2684 H 261.51 1.45193 4.56569 0
M  V30 2685 H 259.874 0.679111 2.45479 0
M  V30 2686 H 260.657 2.34984 2.50275 0
M  V30 2687 N 263.102 -1.41638 0.69111 0
M  V30 2688 C 264.379 -1.95036 0.148421 0
M  V30 2689 C 264.759 -1.63072 -1.34055 0
M  V30 2690 O 264.107 -0.93538 -2.08478 0
M  V30 2691 C 264.317 -3.46279 0.434951 0
M  V30 2692 C 265.665 -4.23069 0.360275 0
M  V30 2693 O 266.689 -3.54277 0.369613 0
M  V30 2694 O 265.548 -5.45583 0.316534 0
M  V30 2695 H 262.642 -0.826908 0.0123654 0
M  V30 2696 H 265.188 -1.5138 0.766963 0
M  V30 2697 H 263.96 -3.6281 1.46576 0
M  V30 2698 H 263.583 -3.97019 -0.214787 0
M  V30 2699 N 264.58 -0.43555 -1.51462 0
M  V30 2700 C 265.857 0.191364 -1.94662 0
M  V30 2701 C 266.237 1.60254 -1.37411 0
M  V30 2702 O 265.585 2.2152 -0.560458 0
M  V30 2703 C 265.795 0.17091 -3.48581 0
M  V30 2704 C 267.143 0.377357 -4.2292 0
M  V30 2705 O 268.167 0.249104 -3.55328 0
M  V30 2706 O 267.026 0.63247 -5.42828 0
M  V30 2707 H 264.12 0.130932 -0.816569 0
M  V30 2708 H 266.666 -0.4934 -1.62369 0
M  V30 2709 H 265.438 -0.815738 -3.82703 0
M  V30 2710 H 265.061 0.898659 -3.87311 0
M  V30 2711 N 266.058 1.56714 -0.166846 0
M  V30 2712 C 267.305 1.96747 0.479252 0
M  V30 2713 C 267.633 1.05263 1.63554 0
M  V30 2714 O 266.888 0.0858098 1.95512 0
M  V30 2715 C 267.187 3.42889 1.00806 0
M  V30 2716 C 266.853 4.50889 -0.0318574 0
M  V30 2717 C 265.515 4.8015 -0.317675 0
M  V30 2718 C 267.867 5.15949 -0.737956 0
M  V30 2719 C 265.195 5.71772 -1.31506 0
M  V30 2720 C 267.547 6.08647 -1.72429 0
M  V30 2721 C 266.211 6.36277 -2.0176 0
M  V30 2722 H 265.481 0.719949 0.175371 0
M  V30 2723 H 268.128 1.89756 -0.257864 0
M  V30 2724 H 266.433 3.4681 1.82291 0
M  V30 2725 H 268.13 3.71203 1.51689 0
M  V30 2726 H 264.72 4.28128 0.201088 0
M  V30 2727 H 268.904 4.93458 -0.530351 0
M  V30 2728 H 264.16 5.91465 -1.54853 0
M  V30 2729 H 268.334 6.58129 -2.27682 0
M  V30 2730 H 265.961 7.07075 -2.79194 0
M  V30 2731 N 267.536 -0.106894 1.57237 0
M  V30 2732 C 268.468 -1.15646 1.97885 0
M  V30 2733 C 269.481 -1.36981 0.879779 0
M  V30 2734 O 270.67 -1.35841 1.15799 0
M  V30 2735 C 267.77 -2.51425 2.27241 0
M  V30 2736 C 266.943 -2.50529 3.58545 0
M  V30 2737 C 266.002 -3.68145 3.75973 0
M  V30 2738 O 265.028 -3.51176 4.47956 0
M  V30 2739 N 266.23 -4.87177 3.15656 0
M  V30 2740 H 268.995 -0.81059 2.8853 0
M  V30 2741 H 266.556 -0.296024 1.59171 0
M  V30 2742 H 268.548 -3.28689 2.36105 0
M  V30 2743 H 267.118 -2.78147 1.42663 0
M  V30 2744 H 266.338 -1.58894 3.60758 0
M  V30 2745 H 267.626 -2.46997 4.44826 0
M  V30 2746 H 267.024 -5.03868 2.57165 0
M  V30 2747 H 265.581 -5.62075 3.30023 0
M  V30 2748 N 269.014 -1.53014 -0.377408 0
M  V30 2749 C 269.944 -1.81589 -1.46791 0
M  V30 2750 C 270.925 -0.668622 -1.56408 0
M  V30 2751 O 272.11 -0.917337 -1.71168 0
M  V30 2752 C 269.24 -1.99519 -2.8427 0
M  V30 2753 C 268.194 -3.15249 -2.89486 0
M  V30 2754 C 267.52 -3.18451 -4.29527 0
M  V30 2755 C 268.82 -4.54084 -2.58079 0
M  V30 2756 H 270.514 -2.7291 -1.23127 0
M  V30 2757 H 268.06 -1.31319 -0.590883 0
M  V30 2758 H 270.013 -2.18092 -3.60575 0
M  V30 2759 H 268.737 -1.04897 -3.09296 0
M  V30 2760 H 267.396 -2.96477 -2.15631 0
M  V30 2761 H 267.044 -2.2149 -4.5161 0
M  V30 2762 H 266.744 -3.962 -4.33934 0
M  V30 2763 H 268.268 -3.39193 -5.07721 0
M  V30 2764 H 269.682 -4.72899 -3.24098 0
M  V30 2765 H 268.079 -5.33987 -2.7382 0
M  V30 2766 H 269.149 -4.60006 -1.53372 0
M  V30 2767 N 270.492 0.636531 -1.44174 0
M  V30 2768 C 271.442 1.74233 -1.47061 0
M  V30 2769 C 272.426 1.57331 -0.337034 0
M  V30 2770 O 273.618 1.67159 -0.581973 0
M  V30 2771 C 270.747 3.12897 -1.41246 0
M  V30 2772 C 269.833 3.35288 -2.59698 0
M  V30 2773 N 270.224 3.2807 -3.84972 0
M  V30 2774 C 268.522 3.66065 -2.54778 0
M  V30 2775 C 269.223 3.51001 -4.63867 0
M  V30 2776 N 268.199 3.73616 -3.94857 0
M  V30 2777 H 272.001 1.67103 -2.41773 0
M  V30 2778 H 269.515 0.838806 -1.3906 0
M  V30 2779 H 271.512 3.92189 -1.41398 0
M  V30 2780 H 270.172 3.21197 -0.47569 0
M  V30 2781 H 271.183 3.07109 -4.17019 0
M  V30 2782 H 267.86 3.81379 -1.6987 0
M  V30 2783 H 269.25 3.51059 -5.72894 0
M  V30 2784 N 271.97 1.30982 0.876444 0
M  V30 2785 C 272.918 1.18006 2.00443 0
M  V30 2786 C 273.912 0.0898871 1.69161 0
M  V30 2787 O 275.118 0.251333 1.78237 0
M  V30 2788 H 271.493 0.365196 0.65737 0
M  V30 2789 H 273.464 2.13453 2.0852 0
M  V30 2790 C 272.213 0.897521 3.35916 0
M  V30 2791 H 271.536 1.7285 3.60504 0
M  V30 2792 H 272.976 0.846874 4.15456 0
M  V30 2793 C 271.435 -0.399674 3.34521 0
M  V30 2794 O 271.965 -1.41852 3.7582 0
M  V30 2795 N 270.171 -0.413893 2.87637 0
M  V30 2796 H 269.718 0.41571 2.54224 0
M  V30 2797 H 269.676 -1.28175 2.87086 0
M  V30 2798 N 273.449 -1.08991 1.13837 0
M  V30 2799 C 274.696 -1.81258 0.902882 0
M  V30 2800 C 275.024 -1.85936 -0.570803 0
M  V30 2801 O 274.279 -1.3267 -1.43865 0
M  V30 2802 C 274.578 -3.27042 1.44147 0
M  V30 2803 C 274.244 -3.4249 2.93276 0
M  V30 2804 C 272.906 -3.46414 3.33992 0
M  V30 2805 C 275.258 -3.4666 3.892 0
M  V30 2806 C 272.586 -3.52091 4.69307 0
M  V30 2807 C 274.938 -3.53872 5.24364 0
M  V30 2808 C 273.602 -3.56066 5.646 0
M  V30 2809 H 272.872 -0.663268 0.330388 0
M  V30 2810 H 275.519 -1.28368 1.42105 0
M  V30 2811 H 273.824 -3.82599 0.844097 0
M  V30 2812 H 275.521 -3.81499 1.23528 0
M  V30 2813 H 272.111 -3.40124 2.60794 0
M  V30 2814 H 276.295 -3.42865 3.58828 0
M  V30 2815 H 271.551 -3.52079 4.9985 0
M  V30 2816 H 275.725 -3.56043 5.98503 0
M  V30 2817 H 273.352 -3.60218 6.69438 0
M  V30 2818 N 274.927 -0.932562 -1.27047 0
M  V30 2819 C 276.152 -0.591474 -1.98787 0
M  V30 2820 C 276.577 0.824601 -1.69062 0
M  V30 2821 O 275.935 1.5541 -0.933677 0
M  V30 2822 C 275.983 -0.829808 -3.50922 0
M  V30 2823 O 275.087 0.102266 -4.12273 0
M  V30 2824 H 274.428 -0.227185 -0.623926 0
M  V30 2825 H 276.958 -1.25314 -1.61733 0
M  V30 2826 H 276.968 -0.747292 -4.01098 0
M  V30 2827 H 275.643 -1.86201 -3.7189 0
M  V30 2828 H 274.22 -0.0305761 -3.72887 0
M  V30 2829 N 276.405 1.4127 -0.698611 0
M  V30 2830 C 277.335 2.33447 -0.049629 0
M  V30 2831 C 278.316 1.51982 0.763898 0
M  V30 2832 O 279.501 1.80509 0.716257 0
M  V30 2833 C 276.631 3.35828 0.885267 0
M  V30 2834 C 275.585 4.27627 0.178613 0
M  V30 2835 C 274.911 5.20406 1.22807 0
M  V30 2836 C 276.211 5.13459 -0.956933 0
M  V30 2837 H 277.905 2.87966 -0.81951 0
M  V30 2838 H 275.451 1.38461 -0.395538 0
M  V30 2839 H 277.404 3.9924 1.34854 0
M  V30 2840 H 276.128 2.79666 1.68685 0
M  V30 2841 H 274.787 3.65643 -0.26466 0
M  V30 2842 H 274.435 4.60558 2.02226 0
M  V30 2843 H 274.135 5.82661 0.760239 0
M  V30 2844 H 275.659 5.86695 1.69179 0
M  V30 2845 H 277.073 5.70421 -0.573805 0
M  V30 2846 H 275.47 5.8467 -1.35205 0
M  V30 2847 H 276.54 4.50443 -1.79524 0
M  V30 2848 N 277.883 0.443576 1.51229 0
M  V30 2849 C 279.294 -0.0180867 1.86691 0
M  V30 2850 C 279.645 -1.41384 1.36033 0
M  V30 2851 O 278.77 -2.04291 0.713722 0
M  V30 2852 C 279.365 -0.039597 3.38777 0
M  V30 2853 C 277.924 -0.445692 3.73752 0
M  V30 2854 C 277.071 0.357584 2.74985 0
M  V30 2855 H 280.022 0.659138 1.44364 0
M  V30 2856 H 280.043 -0.847761 3.70936 0
M  V30 2857 H 279.555 0.976382 3.75617 0
M  V30 2858 H 277.656 -1.46704 3.42503 0
M  V30 2859 H 277.769 -0.166155 4.78812 0
M  V30 2860 H 276.133 -0.184973 2.54027 0
M  V30 2861 H 276.916 1.37256 3.14668 0
M  V30 2862 N 279.361 -1.56624 0.175154 0
M  V30 2863 C 280.271 -2.21741 -0.766042 0
M  V30 2864 C 281.287 -1.21023 -1.25018 0
M  V30 2865 O 282.463 -1.53697 -1.3015 0
M  V30 2866 C 279.528 -2.84839 -1.97655 0
M  V30 2867 C 278.589 -4.00769 -1.53892 0
M  V30 2868 C 277.822 -4.60849 -2.69173 0
M  V30 2869 O 278.045 -4.19823 -3.86141 0
M  V30 2870 O 276.979 -5.50655 -2.43028 0
M  V30 2871 H 280.805 -3.02738 -0.241585 0
M  V30 2872 H 278.39 -1.49305 -0.053222 0
M  V30 2873 H 280.272 -3.24834 -2.68442 0
M  V30 2874 H 278.947 -2.06836 -2.48999 0
M  V30 2875 H 277.854 -3.65436 -0.80044 0
M  V30 2876 H 279.187 -4.80376 -1.07236 0
M  V30 2877 N 280.839 0.0985539 -1.57292 0
M  V30 2878 C 281.749 1.13824 -2.05137 0
M  V30 2879 C 282.765 1.44076 -0.975604 0
M  V30 2880 O 283.941 1.54786 -1.28853 0
M  V30 2881 C 281.006 2.43969 -2.46333 0
M  V30 2882 C 280.067 2.2093 -3.68087 0
M  V30 2883 C 279.3 3.44869 -4.0731 0
M  V30 2884 O 279.523 4.52972 -3.46659 0
M  V30 2885 O 278.457 3.34661 -5.00285 0
M  V30 2886 H 282.283 0.761881 -2.93988 0
M  V30 2887 H 279.868 0.310818 -1.46131 0
M  V30 2888 H 281.75 3.20609 -2.73473 0
M  V30 2889 H 280.425 2.81038 -1.60621 0
M  V30 2890 H 279.332 1.42081 -3.46069 0
M  V30 2891 H 280.665 1.88755 -4.54568 0
M  V30 2892 N 282.317 1.53212 0.369288 0
M  V30 2893 C 283.594 1.59815 1.12776 0
M  V30 2894 C 283.974 0.403402 2.0721 0
M  V30 2895 O 283.322 -0.606667 2.20299 0
M  V30 2896 C 283.532 2.94664 1.87013 0
M  V30 2897 C 284.88 3.49109 2.41677 0
M  V30 2898 O 285.904 2.96669 1.97144 0
M  V30 2899 O 284.763 4.40775 3.23079 0
M  V30 2900 H 281.857 0.645376 0.517125 0
M  V30 2901 H 284.403 1.65553 0.37285 0
M  V30 2902 H 283.175 3.73061 1.18071 0
M  V30 2903 H 282.798 2.92401 2.69421 0
M  V30 2904 N 283.795 -0.628877 1.44509 0
M  V30 2905 C 285.023 -1.41554 1.50897 0
M  V30 2906 C 285.438 -1.8832 0.134564 0
M  V30 2907 O 284.795 -1.60969 -0.859965 0
M  V30 2908 C 284.846 -2.63435 2.47556 0
M  V30 2909 O 284.567 -2.18619 3.79654 0
M  V30 2910 C 286.068 -3.56537 2.63431 0
M  V30 2911 H 283.288 -0.434044 0.511709 0
M  V30 2912 H 285.832 -0.768895 1.89495 0
M  V30 2913 H 283.987 -3.24187 2.12089 0
M  V30 2914 H 284.401 -2.97652 4.31861 0
M  V30 2915 H 285.875 -4.38657 3.35088 0
M  V30 2916 H 286.352 -4.05493 1.68738 0
M  V30 2917 H 286.958 -3.01653 2.9981 0
M  V30 2918 N 285.273 -1.31445 -0.869486 0
M  V30 2919 C 286.22 -1.19135 -1.97675 0
M  V30 2920 C 287.19 -0.0770266 -1.65921 0
M  V30 2921 O 288.375 -0.249972 -1.89155 0
M  V30 2922 C 285.515 -0.905149 -3.33018 0
M  V30 2923 C 284.628 -2.10285 -3.77365 0
M  V30 2924 C 283.763 -1.75339 -5.01427 0
M  V30 2925 C 282.802 -2.91515 -5.38224 0
M  V30 2926 N 281.939 -2.56762 -6.53466 0
M  V30 2927 H 286.779 -2.13853 -2.07535 0
M  V30 2928 H 284.316 -1.06379 -1.01597 0
M  V30 2929 H 286.274 -0.719765 -4.10944 0
M  V30 2930 H 284.904 0.00519624 -3.228 0
M  V30 2931 H 283.956 -2.39899 -2.95216 0
M  V30 2932 H 285.268 -2.97237 -4.00564 0
M  V30 2933 H 284.422 -1.53266 -5.87022 0
M  V30 2934 H 283.161 -0.855801 -4.80133 0
M  V30 2935 H 282.166 -3.14237 -4.51149 0
M  V30 2936 H 283.391 -3.81985 -5.61484 0
M  V30 2937 H 281.337 -1.69526 -6.33717 0
M  V30 2938 H 281.254 -3.37243 -6.76612 0
M  V30 2939 H 282.522 -2.38083 -7.42251 0
M  V30 2940 N 286.751 1.08385 -1.14413 0
M  V30 2941 C 287.681 2.17321 -0.854044 0
M  V30 2942 C 288.662 1.69024 0.191049 0
M  V30 2943 O 289.847 1.94141 0.0476779 0
M  V30 2944 C 286.977 3.45719 -0.330983 0
M  V30 2945 C 285.931 4.07409 -1.31155 0
M  V30 2946 C 285.257 5.30762 -0.64778 0
M  V30 2947 C 286.557 4.48665 -2.67388 0
M  V30 2948 H 288.251 2.41845 -1.76498 0
M  V30 2949 H 285.797 1.16233 -0.850051 0
M  V30 2950 H 287.75 4.21241 -0.115645 0
M  V30 2951 H 286.474 3.2075 0.615381 0
M  V30 2952 H 285.133 3.33919 -1.51306 0
M  V30 2953 H 284.781 5.02078 0.304398 0
M  V30 2954 H 284.481 5.72992 -1.30207 0
M  V30 2955 H 286.005 6.08998 -0.441972 0
M  V30 2956 H 287.419 5.15364 -2.51143 0
M  V30 2957 H 285.816 5.01814 -3.29093 0
M  V30 2958 H 286.886 3.60543 -3.24248 0
M  V30 2959 N 288.23 0.939286 1.26551 0
M  V30 2960 C 289.177 0.446088 2.26448 0
M  V30 2961 C 290.147 -0.493234 1.58608 0
M  V30 2962 O 291.332 -0.409857 1.86346 0
M  V30 2963 C 288.472 -0.284375 3.43926 0
M  V30 2964 C 287.585 0.690399 4.26448 0
M  V30 2965 C 286.72 -0.0610712 5.31165 0
M  V30 2966 C 285.759 0.905649 6.05363 0
M  V30 2967 N 284.896 0.186055 7.01853 0
M  V30 2968 H 289.736 1.30291 2.68008 0
M  V30 2969 H 287.273 0.65371 1.31776 0
M  V30 2970 H 289.231 -0.724313 4.10864 0
M  V30 2971 H 287.861 -1.10535 3.03285 0
M  V30 2972 H 286.913 1.24885 3.59316 0
M  V30 2973 H 288.225 1.42873 4.779 0
M  V30 2974 H 287.379 -0.56038 6.04106 0
M  V30 2975 H 286.118 -0.832297 4.80546 0
M  V30 2976 H 285.123 1.4161 5.3125 0
M  V30 2977 H 286.348 1.67685 6.58072 0
M  V30 2978 H 284.294 -0.566714 6.53548 0
M  V30 2979 H 284.211 0.863752 7.51049 0
M  V30 2980 H 285.479 -0.292221 7.78952 0
M  V30 2981 N 289.708 -1.40897 0.706093 0
M  V30 2982 C 290.957 -2.00284 0.238574 0
M  V30 2983 C 291.27 -1.56604 -1.17194 0
M  V30 2984 O 292.476 -2.08624 -1.73748 0
M  V30 2985 C 290.932 -3.57934 0.375623 0
M  V30 2986 C 290.54 -4.10591 1.79217 0
M  V30 2987 C 292.284 -4.24488 -0.0315857 0
M  V30 2988 C 290.191 -5.60712 1.88032 0
M  V30 2989 H 289.121 -0.749144 0.0854398 0
M  V30 2990 H 291.772 -1.61251 0.875813 0
M  V30 2991 H 290.154 -3.94622 -0.330042 0
M  V30 2992 H 291.328 -3.85301 2.52745 0
M  V30 2993 H 289.643 -3.56601 2.15 0
M  V30 2994 H 292.24 -5.34698 0.0136842 0
M  V30 2995 H 292.583 -4.02261 -1.072 0
M  V30 2996 H 293.116 -3.92873 0.624181 0
M  V30 2997 H 289.855 -5.87781 2.90161 0
M  V30 2998 H 289.375 -5.87896 1.18903 0
M  V30 2999 H 291.054 -6.25658 1.64805 0
M  V30 3000 N 291.186 -0.45159 -1.50991 0
M  V30 3001 C 292.597 0.00818571 -1.86698 0
M  V30 3002 C 292.948 1.40661 -1.3678 0
M  V30 3003 O 292.073 2.0391 -0.724546 0
M  V30 3004 C 292.668 0.0216303 -3.38793 0
M  V30 3005 C 291.227 0.425865 -3.73983 0
M  V30 3006 C 290.374 -0.372163 -2.74791 0
M  V30 3007 H 293.325 -0.666785 -1.44013 0
M  V30 3008 H 293.346 0.828078 -3.7138 0
M  V30 3009 H 292.858 -0.996288 -3.75094 0
M  V30 3010 H 290.959 1.44886 -3.43277 0
M  V30 3011 H 291.072 0.140761 -4.78893 0
M  V30 3012 H 289.436 0.171498 -2.54122 0
M  V30 3013 H 290.219 -1.38922 -3.13935 0
M  V30 3014 N 292.664 1.56529 -0.183458 0
M  V30 3015 C 293.594 2.21549 0.737456 0
M  V30 3016 C 294.575 1.17489 1.23005 0
M  V30 3017 O 295.76 1.45959 1.281 0
M  V30 3018 C 292.89 2.86575 1.96194 0
M  V30 3019 C 291.844 3.96778 1.60473 0
M  V30 3020 C 291.17 4.48911 2.90487 0
M  V30 3021 C 292.47 5.15767 0.823497 0
M  V30 3022 H 294.164 2.98761 0.195453 0
M  V30 3023 H 291.71 1.43702 0.0925686 0
M  V30 3024 H 293.663 3.30739 2.61131 0
M  V30 3025 H 292.387 2.06749 2.52828 0
M  V30 3026 H 291.046 3.53286 0.978997 0
M  V30 3027 H 290.694 3.65862 3.45186 0
M  V30 3028 H 290.394 5.23265 2.67335 0
M  V30 3029 H 291.918 4.95771 3.56432 0
M  V30 3030 H 293.332 5.56549 1.37571 0
M  V30 3031 H 291.729 5.96114 0.690551 0
M  V30 3032 H 292.799 4.84574 -0.177782 0
M  V30 3033 N 294.142 -0.090211 1.57342 0
M  V30 3034 C 295.391 -0.791531 1.8552 0
M  V30 3035 C 295.704 -1.79659 0.773441 0
M  V30 3036 O 296.91 -2.54616 0.942497 0
M  V30 3037 C 295.366 -1.45856 3.2902 0
M  V30 3038 C 294.974 -0.493017 4.45279 0
M  V30 3039 C 296.718 -2.14332 3.66418 0
M  V30 3040 C 294.625 -1.16491 5.79814 0
M  V30 3041 H 293.555 -0.299356 0.692027 0
M  V30 3042 H 296.206 -0.0445343 1.83446 0
M  V30 3043 H 294.588 -2.25318 3.2565 0
M  V30 3044 H 295.762 0.270464 4.60006 0
M  V30 3045 H 294.077 0.0863061 4.16311 0
M  V30 3046 H 296.674 -2.65344 4.64216 0
M  V30 3047 H 297.017 -2.93447 2.95287 0
M  V30 3048 H 297.55 -1.41724 3.71698 0
M  V30 3049 H 294.289 -0.41447 6.54188 0
M  V30 3050 H 293.809 -1.8997 5.68921 0
M  V30 3051 H 295.488 -1.69001 6.24538 0
M  V30 3052 N 295.62 -1.53406 -0.361157 0
M  V30 3053 C 296.57 -1.76536 -1.44287 0
M  V30 3054 C 297.554 -0.620019 -1.48474 0
M  V30 3055 O 298.746 -0.878834 -1.53641 0
M  V30 3056 C 295.875 -1.96266 -2.81664 0
M  V30 3057 C 294.961 -3.16815 -2.81938 0
M  V30 3058 N 295.352 -4.38637 -2.51855 0
M  V30 3059 C 293.65 -3.17627 -3.13096 0
M  V30 3060 C 294.351 -5.20401 -2.59919 0
M  V30 3061 N 293.327 -4.56712 -2.94814 0
M  V30 3062 H 297.129 -2.68331 -1.19899 0
M  V30 3063 H 294.643 -1.52091 -0.56938 0
M  V30 3064 H 296.64 -2.10966 -3.59582 0
M  V30 3065 H 295.3 -1.05702 -3.07013 0
M  V30 3066 H 296.311 -4.66293 -2.25369 0
M  V30 3067 H 292.988 -2.36971 -3.43731 0
M  V30 3068 H 294.378 -6.27586 -2.39969 0
M  V30 3069 N 297.098 0.621204 -1.44841 0
M  V30 3070 C 298.514 0.94048 -1.28946 0
M  V30 3071 C 298.714 2.00154 -0.23249 0
M  V30 3072 O 297.77 2.49651 0.378237 0
M  V30 3073 C 299.083 1.39433 -2.66419 0
M  V30 3074 C 300.631 1.50927 -2.74208 0
M  V30 3075 C 301.106 1.99692 -4.12174 0
M  V30 3076 N 302.597 2.06947 -4.144 0
M  V30 3077 C 303.332 2.45871 -5.1801 0
M  V30 3078 N 302.828 2.83862 -6.31977 0
M  V30 3079 N 304.621 2.46092 -5.05366 0
M  V30 3080 H 296.772 -0.0803548 -2.12248 0
M  V30 3081 H 299.035 0.0266913 -0.947624 0
M  V30 3082 H 298.741 0.688925 -3.44887 0
M  V30 3083 H 298.615 2.36347 -2.93973 0
M  V30 3084 H 301.002 2.20561 -1.96053 0
M  V30 3085 H 301.083 0.523627 -2.50383 0
M  V30 3086 H 300.727 1.30649 -4.90809 0
M  V30 3087 H 300.657 2.99146 -4.33381 0
M  V30 3088 H 303.148 1.80232 -3.32152 0
M  V30 3089 H 303.461 3.12405 -7.0684 0
M  V30 3090 H 301.806 2.8159 -6.35399 0
M  V30 3091 H 304.997 2.1581 -4.15384 0
M  V30 3092 H 305.17 2.76102 -5.86235 0
M  V30 3093 N 298.576 1.31904 0.862503 0
M  V30 3094 C 299.539 1.20131 1.95195 0
M  V30 3095 C 300.539 0.126409 1.60302 0
M  V30 3096 O 301.729 0.376234 1.70089 0
M  V30 3097 C 298.861 0.845691 3.30244 0
M  V30 3098 H 300.054 2.16943 2.07064 0
M  V30 3099 H 297.607 1.15622 1.05172 0
M  V30 3100 H 298.342 -0.120957 3.24074 0
M  V30 3101 H 298.127 1.62276 3.56944 0
M  V30 3102 H 299.617 0.787418 4.10109 0
M  V30 3103 N 300.054 -1.07777 1.14986 0
M  V30 3104 C 300.984 -2.16865 0.865557 0
M  V30 3105 C 301.965 -1.69123 -0.182083 0
M  V30 3106 O 303.15 -1.94164 -0.0373815 0
M  V30 3107 C 300.28 -3.45539 0.349313 0
M  V30 3108 C 299.234 -4.06708 1.33313 0
M  V30 3109 C 298.56 -5.30411 0.675918 0
M  V30 3110 C 299.86 -4.47241 2.69764 0
M  V30 3111 H 301.554 -2.40905 1.77778 0
M  V30 3112 H 299.1 -1.15781 0.856203 0
M  V30 3113 H 301.053 -4.21174 0.137983 0
M  V30 3114 H 299.777 -3.21072 -0.598362 0
M  V30 3115 H 298.436 -3.33112 1.53075 0
M  V30 3116 H 298.084 -5.02232 -0.277767 0
M  V30 3117 H 297.784 -5.72293 1.33244 0
M  V30 3118 H 299.308 -6.08755 0.474262 0
M  V30 3119 H 300.722 -5.14025 2.53873 0
M  V30 3120 H 299.119 -5.00062 3.3175 0
M  V30 3121 H 300.189 -3.58818 3.26156 0
M  V30 3122 N 301.532 -0.945985 -1.26051 0
M  V30 3123 C 302.464 -0.416662 -2.25381 0
M  V30 3124 C 303.477 0.462712 -1.56086 0
M  V30 3125 O 304.666 0.272383 -1.7641 0
M  V30 3126 C 301.766 0.419812 -3.3629 0
M  V30 3127 C 300.939 -0.444531 -4.35135 0
M  V30 3128 C 299.998 0.332305 -5.2515 0
M  V30 3129 O 299.024 -0.266324 -5.68577 0
M  V30 3130 N 300.226 1.62763 -5.57215 0
M  V30 3131 H 302.991 -1.27059 -2.71433 0
M  V30 3132 H 300.552 -0.815392 -1.39868 0
M  V30 3133 H 302.544 0.947013 -3.93464 0
M  V30 3134 H 301.114 1.17456 -2.89694 0
M  V30 3135 H 300.334 -1.15291 -3.76964 0
M  V30 3136 H 301.622 -1.03478 -4.98166 0
M  V30 3137 H 301.02 2.13603 -5.23823 0
M  V30 3138 H 299.577 2.10097 -6.17011 0
M  V30 3139 N 303.011 1.40521 -0.713556 0
M  V30 3140 C 303.941 2.33381 -0.0743864 0
M  V30 3141 C 304.922 1.52784 0.747735 0
M  V30 3142 O 306.107 1.81258 0.697071 0
M  V30 3143 C 303.237 3.36748 0.849598 0
M  V30 3144 C 302.191 4.27793 0.133247 0
M  V30 3145 C 301.517 5.21679 1.17281 0
M  V30 3146 C 302.817 5.12415 -1.01134 0
M  V30 3147 H 304.511 2.87081 -0.850007 0
M  V30 3148 H 302.057 1.38034 -0.410201 0
M  V30 3149 H 304.01 4.00648 1.30612 0
M  V30 3150 H 302.734 2.81439 1.65709 0
M  V30 3151 H 301.393 3.65342 -0.303426 0
M  V30 3152 H 301.041 4.62677 1.9733 0
M  V30 3153 H 300.741 5.83435 0.698397 0
M  V30 3154 H 302.265 5.88456 1.62947 0
M  V30 3155 H 303.679 5.69781 -0.634274 0
M  V30 3156 H 302.076 5.83203 -1.41399 0
M  V30 3157 H 303.146 4.48514 -1.84292 0
M  V30 3158 N 304.489 0.459591 1.5075 0
M  V30 3159 C 305.452 -0.329093 2.26825 0
M  V30 3160 C 306.452 -0.930481 1.31144 0
M  V30 3161 O 307.642 -0.801453 1.54669 0
M  V30 3162 C 304.774 -1.46768 3.07688 0
M  V30 3163 H 305.967 0.337924 2.9799 0
M  V30 3164 H 303.52 0.213336 1.54837 0
M  V30 3165 H 304.255 -2.17009 2.40993 0
M  V30 3166 H 304.04 -1.04238 3.77991 0
M  V30 3167 H 305.53 -2.02433 3.65254 0
M  V30 3168 N 305.967 -1.56429 0.191757 0
M  V30 3169 C 306.899 -2.16154 -0.762245 0
M  V30 3170 C 307.912 -1.12247 -1.17917 0
M  V30 3171 O 309.101 -1.39353 -1.11548 0
M  V30 3172 C 306.201 -2.70606 -2.04024 0
M  V30 3173 C 305.374 -3.99381 -1.78364 0
M  V30 3174 C 304.433 -4.38692 -2.90578 0
M  V30 3175 O 303.459 -5.06179 -2.6033 0
M  V30 3176 N 304.661 -4.01922 -4.18854 0
M  V30 3177 H 307.426 -2.98643 -0.251526 0
M  V30 3178 H 304.987 -1.61897 0.00967373 0
M  V30 3179 H 306.979 -2.93891 -2.78227 0
M  V30 3180 H 305.549 -1.9259 -2.46227 0
M  V30 3181 H 304.769 -3.84262 -0.879581 0
M  V30 3182 H 306.057 -4.83445 -1.58614 0
M  V30 3183 H 305.455 -3.47631 -4.46283 0
M  V30 3184 H 304.012 -4.30165 -4.89695 0
M  V30 3185 N 307.445 0.0818655 -1.57387 0
M  V30 3186 C 308.861 0.436412 -1.53517 0
M  V30 3187 C 309.061 1.79758 -0.910459 0
M  V30 3188 O 308.117 2.47324 -0.508636 0
M  V30 3189 C 309.43 0.386734 -2.98203 0
M  V30 3190 C 310.978 0.467644 -3.09487 0
M  V30 3191 C 311.453 0.447978 -4.55804 0
M  V30 3192 N 312.944 0.508348 -4.60402 0
M  V30 3193 C 313.679 0.515184 -5.71081 0
M  V30 3194 N 313.175 0.477435 -6.91153 0
M  V30 3195 N 314.968 0.560988 -5.59294 0
M  V30 3196 H 307.119 -0.809546 -1.96367 0
M  V30 3197 H 309.382 -0.302733 -0.898363 0
M  V30 3198 H 309.088 -0.546539 -3.47427 0
M  V30 3199 H 308.962 1.20075 -3.57578 0
M  V30 3200 H 311.349 1.39134 -2.60242 0
M  V30 3201 H 311.43 -0.374753 -2.5304 0
M  V30 3202 H 311.074 -0.471826 -5.05704 0
M  V30 3203 H 311.004 1.30777 -5.10103 0
M  V30 3204 H 313.495 0.54218 -3.7399 0
M  V30 3205 H 313.808 0.486299 -7.71268 0
M  V30 3206 H 312.153 0.444278 -6.93579 0
M  V30 3207 H 315.344 0.5881 -4.64391 0
M  V30 3208 H 315.517 0.562846 -6.45551 0
M  V30 3209 N 308.923 1.53595 0.353017 0
M  V30 3210 C 310.334 1.61937 0.929153 0
M  V30 3211 C 310.685 0.494686 1.89861 0
M  V30 3212 O 309.81 -0.377017 2.1309 0
M  V30 3213 C 310.405 2.93526 1.69199 0
M  V30 3214 C 308.964 3.04161 2.21727 0
M  V30 3215 C 308.111 2.57322 1.03348 0
M  V30 3216 H 311.062 1.58155 0.131431 0
M  V30 3217 H 311.083 2.82034 2.55416 0
M  V30 3218 H 310.595 3.75362 0.986144 0
M  V30 3219 H 308.696 2.26938 2.95516 0
M  V30 3220 H 308.809 4.09465 2.48748 0
M  V30 3221 H 307.173 2.12499 1.40414 0
M  V30 3222 H 307.956 3.41588 0.342428 0
M  V30 3223 N 310.401 -0.613514 1.45168 0
M  V30 3224 C 311.647 -1.37471 1.49096 0
M  V30 3225 C 311.98 -1.93765 0.129901 0
M  V30 3226 O 311.255 -1.74707 -0.854858 0
M  V30 3227 C 311.538 -2.52701 2.56542 0
M  V30 3228 C 311.391 -2.01643 4.0207 0
M  V30 3229 C 312.71 -3.54849 2.60327 0
M  V30 3230 H 309.829 -0.498502 0.54283 0
M  V30 3231 H 312.471 -0.692125 1.76945 0
M  V30 3232 H 310.621 -3.10931 2.32926 0
M  V30 3233 H 312.293 -1.48108 4.36877 0
M  V30 3234 H 310.536 -1.32688 4.13009 0
M  V30 3235 H 311.207 -2.84681 4.72928 0
M  V30 3236 H 313.683 -3.0645 2.81474 0
M  V30 3237 H 312.559 -4.32973 3.37381 0
M  V30 3238 H 312.82 -4.10079 1.6519 0
M  V30 3239 N 311.879 -1.3236 -0.855495 0
M  V30 3240 C 313.104 -1.2601 -1.64731 0
M  V30 3241 C 313.529 0.169068 -1.87339 0
M  V30 3242 O 312.887 1.12016 -1.42556 0
M  V30 3243 C 312.935 -2.02417 -2.98429 0
M  V30 3244 O 312.039 -1.3714 -3.8893 0
M  V30 3245 H 311.38 -0.434325 -0.502253 0
M  V30 3246 H 313.91 -1.74661 -1.06558 0
M  V30 3247 H 313.92 -2.12559 -3.48257 0
M  V30 3248 H 312.595 -3.06343 -2.81295 0
M  V30 3249 H 311.172 -1.3554 -3.47395 0
M  V30 3250 N 313.357 1.07166 -1.15556 0
M  V30 3251 C 314.287 2.16403 -0.877046 0
M  V30 3252 C 315.268 1.69217 0.173111 0
M  V30 3253 O 316.453 1.94181 0.027084 0
M  V30 3254 C 313.583 3.45349 -0.367632 0
M  V30 3255 C 312.537 4.05995 -1.35468 0
M  V30 3256 C 311.863 5.30045 -0.704038 0
M  V30 3257 C 313.163 4.45804 -2.72132 0
M  V30 3258 H 314.857 2.39959 -1.79053 0
M  V30 3259 H 312.403 1.15325 -0.862331 0
M  V30 3260 H 314.356 4.21095 -0.160317 0
M  V30 3261 H 313.08 3.21385 0.581326 0
M  V30 3262 H 311.739 3.32296 -1.54839 0
M  V30 3263 H 311.387 5.02373 0.251128 0
M  V30 3264 H 311.087 5.71579 -1.36277 0
M  V30 3265 H 312.611 6.08495 -0.50654 0
M  V30 3266 H 314.025 5.12671 -2.56595 0
M  V30 3267 H 312.422 4.98296 -3.34397 0
M  V30 3268 H 313.492 3.57083 -3.28054 0
M  V30 3269 N 314.835 0.952656 1.25548 0
M  V30 3270 C 315.765 0.489287 2.28316 0
M  V30 3271 C 316.746 -0.463359 1.63667 0
M  V30 3272 O 317.931 -0.36274 1.90782 0
M  V30 3273 C 315.061 -0.235603 3.465 0
M  V30 3274 C 314.015 0.631593 4.23314 0
M  V30 3275 C 313.341 -0.223923 5.34231 0
M  V30 3276 C 314.641 1.90871 4.86174 0
M  V30 3277 H 316.335 1.34822 2.67326 0
M  V30 3278 H 313.881 0.649728 1.28509 0
M  V30 3279 H 315.834 -0.570882 4.17515 0
M  V30 3280 H 314.558 -1.12877 3.06474 0
M  V30 3281 H 313.217 0.949929 3.54079 0
M  V30 3282 H 312.865 -1.11678 4.90446 0
M  V30 3283 H 312.565 0.35299 5.86539 0
M  V30 3284 H 314.089 -0.554214 6.0808 0
M  V30 3285 H 315.503 1.63997 5.49343 0
M  V30 3286 H 313.9 2.43112 5.4865 0
M  V30 3287 H 314.97 2.61304 4.08471 0
M  V30 3288 N 316.313 -1.40141 0.720998 0
M  V30 3289 C 317.276 -2.29058 0.0805834 0
M  V30 3290 C 318.276 -1.45632 -0.681758 0
M  V30 3291 O 319.466 -1.6648 -0.512856 0
M  V30 3292 C 316.598 -3.28925 -0.895593 0
M  V30 3293 H 317.791 -2.87191 0.863793 0
M  V30 3294 H 315.344 -1.48553 0.485975 0
M  V30 3295 H 316.079 -2.75822 -1.70566 0
M  V30 3296 H 315.864 -3.90519 -0.351766 0
M  V30 3297 H 317.354 -3.95494 -1.34069 0
M  V30 3298 N 317.792 -0.46758 -1.50504 0
M  V30 3299 C 319.017 0.0886943 -2.0721 0
M  V30 3300 C 319.442 1.33057 -1.32956 0
M  V30 3301 O 318.8 1.77354 -0.376197 0
M  V30 3302 C 318.848 0.359202 -3.58806 0
M  V30 3303 O 317.952 1.44034 -3.8643 0
M  V30 3304 H 317.293 -0.0114349 -0.663902 0
M  V30 3305 H 319.823 -0.657613 -1.93744 0
M  V30 3306 H 319.833 0.600742 -4.03553 0
M  V30 3307 H 318.508 -0.548311 -4.1227 0
M  V30 3308 H 317.085 1.18638 -3.53524 0
M  V30 3309 N 319.27 1.56325 -0.20005 0
M  V30 3310 C 320.681 1.8408 0.31167 0
M  V30 3311 C 321.032 1.12087 1.61031 0
M  V30 3312 O 320.157 0.38332 2.12978 0
M  V30 3313 C 320.752 3.33932 0.57226 0
M  V30 3314 C 319.311 3.6208 1.02834 0
M  V30 3315 C 318.458 2.77186 0.079634 0
M  V30 3316 H 321.409 1.52939 -0.423729 0
M  V30 3317 H 321.43 3.52971 1.42096 0
M  V30 3318 H 320.942 3.86303 -0.37308 0
M  V30 3319 H 319.043 3.15147 1.98778 0
M  V30 3320 H 319.156 4.7023 0.917624 0
M  V30 3321 H 317.52 2.47951 0.582448 0
M  V30 3322 H 318.303 3.32347 -0.860238 0
M  V30 3323 N 320.748 -0.0735177 1.57428 0
M  V30 3324 C 321.994 -0.768909 1.88307 0
M  V30 3325 C 322.349 -1.75273 0.793535 0
M  V30 3326 O 321.642 -1.90527 -0.202466 0
M  V30 3327 C 321.836 -1.51799 3.23561 0
M  V30 3328 C 321.665 -0.608217 4.45568 0
M  V30 3329 C 320.435 -0.245808 5.04702 0
M  V30 3330 C 322.633 0.0942904 5.14214 0
M  V30 3331 N 320.615 0.66987 6.10234 0
M  V30 3332 C 321.986 0.867222 6.13905 0
M  V30 3333 C 324.041 0.165943 4.97623 0
M  V30 3334 C 322.744 1.70515 6.98797 0
M  V30 3335 C 324.77 0.990837 5.83041 0
M  V30 3336 C 324.132 1.75182 6.82269 0
M  V30 3337 H 320.231 -0.25685 0.738615 0
M  V30 3338 H 322.815 -0.030499 1.94676 0
M  V30 3339 H 320.986 -2.22713 3.18203 0
M  V30 3340 H 322.718 -2.16226 3.42094 0
M  V30 3341 H 319.473 -0.598284 4.69806 0
M  V30 3342 H 319.897 1.1209 6.67656 0
M  V30 3343 H 324.539 -0.408064 4.20826 0
M  V30 3344 H 322.257 2.29013 7.7497 0
M  V30 3345 H 325.843 1.04923 5.72261 0
M  V30 3346 H 324.723 2.37983 7.47217 0
M  V30 3347 N 322.226 -1.5378 -0.344866 0
M  V30 3348 C 323.454 -1.74899 -1.10534 0
M  V30 3349 C 323.869 -0.487534 -1.82397 0
M  V30 3350 O 323.226 0.540741 -1.74305 0
M  V30 3351 C 323.277 -2.92822 -2.11984 0
M  V30 3352 O 322.998 -4.14089 -1.43044 0
M  V30 3353 C 324.499 -3.25982 -3.00417 0
M  V30 3354 H 321.719 -0.584426 -0.329678 0
M  V30 3355 H 324.263 -2.006 -0.397474 0
M  V30 3356 H 322.418 -2.69457 -2.78338 0
M  V30 3357 H 322.832 -4.80272 -2.10805 0
M  V30 3358 H 324.306 -4.11848 -3.67539 0
M  V30 3359 H 324.783 -2.42228 -3.66363 0
M  V30 3360 H 325.389 -3.51349 -2.39654 0
M  V30 3361 N 323.704 0.605807 -1.45491 0
M  V30 3362 C 324.929 1.39625 -1.53361 0
M  V30 3363 C 325.354 1.87351 -0.167645 0
M  V30 3364 O 324.712 1.60243 0.848051 0
M  V30 3365 C 324.76 2.57559 -2.5238 0
M  V30 3366 O 323.864 3.58248 -2.04285 0
M  V30 3367 H 323.205 0.416771 -0.516912 0
M  V30 3368 H 325.735 0.737103 -1.90861 0
M  V30 3369 H 325.745 3.0478 -2.71244 0
M  V30 3370 H 324.42 2.22171 -3.51586 0
M  V30 3371 H 322.997 3.17664 -1.95305 0
M  V30 3372 N 325.182 1.32811 0.848464 0
M  V30 3373 C 326.593 1.21315 1.41914 0
M  V30 3374 C 326.944 -0.171847 1.95446 0
M  V30 3375 O 326.069 -1.07093 1.88043 0
M  V30 3376 C 326.664 2.19631 2.57968 0
M  V30 3377 C 325.223 2.12003 3.11017 0
M  V30 3378 C 324.37 2.07651 1.83783 0
M  V30 3379 H 327.321 1.44549 0.655071 0
M  V30 3380 H 327.342 1.79845 3.35315 0
M  V30 3381 H 326.854 3.20423 2.18976 0
M  V30 3382 H 324.955 1.14481 3.54577 0
M  V30 3383 H 325.068 3.02111 3.71841 0
M  V30 3384 H 323.432 1.52983 2.03638 0
M  V30 3385 H 324.215 3.10235 1.47 0
M  V30 3386 N 326.66 -1.06551 1.16123 0
M  V30 3387 C 327.888 -1.83005 0.965237 0
M  V30 3388 C 328.303 -1.82423 -0.486542 0
M  V30 3389 O 327.66 -1.24152 -1.33763 0
M  V30 3390 C 327.711 -3.29733 1.48183 0
M  V30 3391 O 327.432 -3.30416 2.87674 0
M  V30 3392 C 328.933 -4.22926 1.32848 0
M  V30 3393 H 326.153 -0.577118 0.342309 0
M  V30 3394 H 328.697 -1.3445 1.54089 0
M  V30 3395 H 326.852 -3.75609 0.948517 0
M  V30 3396 H 327.266 -4.22149 3.11272 0
M  V30 3397 H 328.74 -5.23916 1.73827 0
M  V30 3398 H 329.217 -4.38346 0.273692 0
M  V30 3399 H 329.823 -3.82894 1.85127 0
M  V30 3400 N 328.138 -0.959301 -1.25041 0
M  V30 3401 C 329.384 -0.627096 -1.93492 0
M  V30 3402 C 329.739 0.827484 -1.73696 0
M  V30 3403 O 329.032 1.58651 -1.07427 0
M  V30 3404 C 329.226 -0.927136 -3.45165 0
M  V30 3405 C 329.055 -2.40933 -3.79712 0
M  V30 3406 C 327.825 -3.0677 -4.01522 0
M  V30 3407 C 330.023 -3.38894 -3.86853 0
M  V30 3408 N 328.005 -4.44815 -4.231 0
M  V30 3409 C 329.376 -4.62263 -4.13174 0
M  V30 3410 C 331.431 -3.33668 -3.69554 0
M  V30 3411 C 330.134 -5.81052 -4.23995 0
M  V30 3412 C 332.16 -4.518 -3.81616 0
M  V30 3413 C 331.522 -5.73957 -4.08354 0
M  V30 3414 H 327.621 -0.280166 -0.73009 0
M  V30 3415 H 330.205 -1.23244 -1.50729 0
M  V30 3416 H 328.376 -0.350685 -3.86814 0
M  V30 3417 H 330.108 -0.554361 -4.00885 0
M  V30 3418 H 326.863 -2.57327 -3.97593 0
M  V30 3419 H 327.287 -5.16319 -4.37885 0
M  V30 3420 H 331.929 -2.40268 -3.47895 0
M  V30 3421 H 329.647 -6.74888 -4.44468 0
M  V30 3422 H 333.233 -4.49309 -3.69612 0
M  V30 3423 H 332.113 -6.6384 -4.17475 0
M  V30 3424 N 329.616 1.39756 -0.72842 0
M  V30 3425 C 330.546 2.33289 -0.0991354 0
M  V30 3426 C 331.527 1.53568 0.731489 0
M  V30 3427 O 332.712 1.81987 0.677807 0
M  V30 3428 C 329.842 3.3763 0.813834 0
M  V30 3429 C 328.796 4.2791 0.0878663 0
M  V30 3430 C 328.122 5.22894 1.11741 0
M  V30 3431 C 329.422 5.11314 -1.06563 0
M  V30 3432 H 331.116 2.86163 -0.880408 0
M  V30 3433 H 328.662 1.37591 -0.424819 0
M  V30 3434 H 330.615 4.0201 1.26355 0
M  V30 3435 H 329.339 2.83181 1.62715 0
M  V30 3436 H 327.998 3.65 -0.342159 0
M  V30 3437 H 327.646 4.64744 1.92412 0
M  V30 3438 H 327.346 5.84143 0.636477 0
M  V30 3439 H 328.87 5.90151 1.56697 0
M  V30 3440 H 330.284 5.69076 -0.694671 0
M  V30 3441 H 328.681 5.81671 -1.47577 0
M  V30 3442 H 329.751 4.46534 -1.89038 0
M  V30 3443 N 331.094 0.475555 1.50254 0
M  V30 3444 C 332.041 -0.316293 2.28622 0
M  V30 3445 C 333.011 -0.983227 1.33873 0
M  V30 3446 O 334.196 -0.994805 1.62814 0
M  V30 3447 C 331.336 -1.38975 3.1588 0
M  V30 3448 C 330.449 -0.737146 4.25664 0
M  V30 3449 C 329.584 -1.78887 5.00173 0
M  V30 3450 C 328.623 -1.11676 6.01826 0
M  V30 3451 N 327.76 -2.11154 6.69596 0
M  V30 3452 H 332.6 0.358297 2.95838 0
M  V30 3453 H 330.137 0.188541 1.45887 0
M  V30 3454 H 332.095 -2.02383 3.64825 0
M  V30 3455 H 330.725 -2.03344 2.50701 0
M  V30 3456 H 329.777 0.0096065 3.80399 0
M  V30 3457 H 331.089 -0.206816 4.98371 0
M  V30 3458 H 330.243 -2.49865 5.52859 0
M  V30 3459 H 328.982 -2.35302 4.27182 0
M  V30 3460 H 327.987 -0.392633 5.48396 0
M  V30 3461 H 329.212 -0.55945 6.76792 0
M  V30 3462 H 327.158 -2.66577 5.99394 0
M  V30 3463 H 327.075 -1.63118 7.38193 0
M  V30 3464 H 328.343 -2.81497 7.26897 0
M  V30 3465 N 332.573 -1.56217 0.208337 0
M  V30 3466 C 333.801 -2.02337 -0.43215 0
M  V30 3467 C 334.216 -1.08834 -1.54275 0
M  V30 3468 O 333.573 -0.0955462 -1.8225 0
M  V30 3469 C 333.624 -3.48072 -0.976138 0
M  V30 3470 O 333.345 -4.38007 0.0901621 0
M  V30 3471 C 334.846 -4.09773 -1.69119 0
M  V30 3472 H 332.066 -0.662385 -0.10718 0
M  V30 3473 H 334.61 -2.01966 0.320923 0
M  V30 3474 H 332.765 -3.49099 -1.67954 0
M  V30 3475 H 333.179 -5.23543 -0.316701 0
M  V30 3476 H 334.653 -5.13556 -2.02397 0
M  V30 3477 H 335.13 -3.53999 -2.59964 0
M  V30 3478 H 335.736 -4.12556 -1.03332 0
M  V30 3479 N 334.051 0.0651679 -1.57465 0
M  V30 3480 C 334.999 1.09542 -2.05191 0
M  V30 3481 C 335.993 1.39675 -0.958509 0
M  V30 3482 O 337.199 1.39003 -1.14359 0
M  V30 3483 H 333.574 0.370623 -0.654326 0
M  V30 3484 H 335.545 0.666802 -2.90854 0
M  V30 3485 C 334.294 2.39881 -2.51699 0
M  V30 3486 H 333.617 2.17547 -3.3543 0
M  V30 3487 H 335.057 3.104 -2.88839 0
M  V30 3488 C 333.516 3.0631 -1.40271 0
M  V30 3489 O 334.046 3.94664 -0.748523 0
M  V30 3490 N 332.252 2.67041 -1.14618 0
M  V30 3491 H 331.799 1.95281 -1.67997 0
M  V30 3492 H 331.757 3.1181 -0.402688 0
M  V30 3493 N 335.529 1.53961 0.336706 0
M  V30 3494 C 336.777 1.71197 1.07405 0
M  V30 3495 C 337.098 0.481475 1.88962 0
M  V30 3496 O 336.368 -0.504585 1.8929 0
M  V30 3497 H 334.948 0.631185 0.399517 0
M  V30 3498 H 337.61 1.91232 0.376323 0
M  V30 3499 H 336.706 2.58587 1.74755 0
M  V30 3500 N 337.007 -0.598083 1.45811 0
M  V30 3501 C 337.97 -1.69018 1.54808 0
M  V30 3502 C 338.97 -1.55037 0.426652 0
M  V30 3503 O 340.16 -1.59932 0.690456 0
M  V30 3504 C 337.292 -3.0835 1.45371 0
M  V30 3505 H 338.485 -1.62403 2.52121 0
M  V30 3506 H 336.038 -0.814626 1.33392 0
M  V30 3507 H 336.773 -3.20534 0.492793 0
M  V30 3508 H 336.558 -3.19907 2.26721 0
M  V30 3509 H 338.048 -3.8788 1.54721 0
M  V30 3510 N 338.485 -1.33259 -0.841409 0
M  V30 3511 C 339.731 -1.24757 -1.59886 0
M  V30 3512 C 340.064 0.186913 -1.93298 0
M  V30 3513 O 339.339 1.12757 -1.5848 0
M  V30 3514 C 339.622 -2.12036 -2.91055 0
M  V30 3515 C 339.475 -3.63929 -2.6434 0
M  V30 3516 C 340.794 -1.9916 -3.92458 0
M  V30 3517 H 337.913 -0.454542 -0.580138 0
M  V30 3518 H 340.555 -1.63335 -0.970647 0
M  V30 3519 H 338.705 -1.79265 -3.44669 0
M  V30 3520 H 340.377 -4.06978 -2.17178 0
M  V30 3521 H 338.62 -3.85935 -1.98082 0
M  V30 3522 H 339.291 -4.20341 -3.57796 0
M  V30 3523 H 341.767 -2.27895 -3.48143 0
M  V30 3524 H 340.643 -2.62484 -4.82072 0
M  V30 3525 H 340.904 -0.963082 -4.31482 0
M  V30 3526 N 339.963 1.05934 -1.16686 0
M  V30 3527 C 340.911 2.15603 -0.872817 0
M  V30 3528 C 341.905 1.68647 0.159576 0
M  V30 3529 O 343.111 1.79995 0.0132125 0
M  V30 3530 H 339.486 0.703885 -0.264671 0
M  V30 3531 H 341.457 2.37613 -1.80507 0
M  V30 3532 C 340.206 3.45457 -0.394344 0
M  V30 3533 H 339.529 3.81984 -1.18019 0
M  V30 3534 H 340.969 4.2339 -0.227408 0
M  V30 3535 C 339.428 3.25021 0.88673 0
M  V30 3536 O 339.958 3.50906 1.95519 0
M  V30 3537 N 338.164 2.78437 0.831925 0
M  V30 3538 H 337.711 2.57572 -0.0377619 0
M  V30 3539 H 337.669 2.65144 1.68956 0
M  V30 3540 N 341.441 0.965919 1.2453 0
M  V30 3541 C 342.689 0.625593 1.92174 0
M  V30 3542 C 343.01 -0.841652 1.75901 0
M  V30 3543 O 342.28 -1.60061 1.12948 0
M  V30 3544 H 340.86 0.228388 0.71123 0
M  V30 3545 H 343.522 1.2266 1.51461 0
M  V30 3546 H 342.618 0.864653 2.99884 0
M  V30 3547 N 342.919 -1.39368 0.735821 0
M  V30 3548 C 343.866 -2.30599 0.0963825 0
M  V30 3549 C 344.836 -1.49257 -0.728794 0
M  V30 3550 O 346.021 -1.77941 -0.688588 0
M  V30 3551 C 343.161 -3.35596 -0.804305 0
M  V30 3552 C 342.274 -4.31987 0.0335761 0
M  V30 3553 C 341.409 -5.24053 -0.868461 0
M  V30 3554 C 340.448 -6.12095 -0.0258776 0
M  V30 3555 N 339.585 -6.96514 -0.883893 0
M  V30 3556 H 344.425 -2.8471 0.880002 0
M  V30 3557 H 341.962 -1.40188 0.445619 0
M  V30 3558 H 343.92 -3.95062 -1.34096 0
M  V30 3559 H 342.55 -2.82938 -1.55389 0
M  V30 3560 H 341.602 -3.74133 0.68766 0
M  V30 3561 H 342.914 -4.94074 0.685036 0
M  V30 3562 H 342.068 -5.88549 -1.47293 0
M  V30 3563 H 340.807 -4.62289 -1.5537 0
M  V30 3564 H 339.812 -5.4661 0.591386 0
M  V30 3565 H 341.037 -6.75923 0.656156 0
M  V30 3566 H 338.983 -6.37318 -1.55441 0
M  V30 3567 H 338.9 -7.55448 -0.288931 0
M  V30 3568 H 340.168 -7.65439 -1.4739 0
M  V30 3569 N 344.397 -0.483516 -1.5 0
M  V30 3570 C 345.645 0.067027 -2.01989 0
M  V30 3571 C 345.966 1.3909 -1.36671 0
M  V30 3572 O 345.236 1.88978 -0.516152 0
M  V30 3573 H 343.816 0.0277606 -0.746484 0
M  V30 3574 H 346.478 -0.636773 -1.84204 0
M  V30 3575 H 345.574 0.209484 -3.11396 0
M  V30 3576 N 345.875 1.56104 -0.216619 0
M  V30 3577 C 347.1 2.0301 0.424462 0
M  V30 3578 C 347.525 1.0955 1.52907 0
M  V30 3579 O 346.883 0.0827914 1.81111 0
M  V30 3580 C 346.931 3.4819 0.937883 0
M  V30 3581 O 346.035 3.57865 2.04955 0
M  V30 3582 H 345.376 0.656925 0.0966755 0
M  V30 3583 H 347.906 2.01859 -0.33381 0
M  V30 3584 H 347.916 3.88413 1.24897 0
M  V30 3585 H 346.591 4.15699 0.129387 0
M  V30 3586 H 345.168 3.29527 1.74546 0
M  V30 3587 N 347.353 -0.0568162 1.57498 0
M  V30 3588 C 348.283 -1.06593 2.0775 0
M  V30 3589 C 349.264 -1.39448 0.974082 0
M  V30 3590 O 350.449 -1.48815 1.24771 0
M  V30 3591 C 347.579 -2.37509 2.5339 0
M  V30 3592 C 346.533 -2.1897 3.67745 0
M  V30 3593 C 345.859 -3.55402 3.99492 0
M  V30 3594 C 347.159 -1.59859 4.97235 0
M  V30 3595 H 348.853 -0.647706 2.9231 0
M  V30 3596 H 346.399 -0.310116 1.40621 0
M  V30 3597 H 348.352 -3.08409 2.87162 0
M  V30 3598 H 347.076 -2.8134 1.65878 0
M  V30 3599 H 345.735 -1.50508 3.3428 0
M  V30 3600 H 345.383 -3.9683 3.09088 0
M  V30 3601 H 345.083 -3.43831 4.76502 0
M  V30 3602 H 346.607 -4.27708 4.35773 0
M  V30 3603 H 348.021 -2.20642 5.29141 0
M  V30 3604 H 346.418 -1.58942 5.78669 0
M  V30 3605 H 347.488 -0.561506 4.81638 0
M  V30 3606 N 348.832 -1.54138 -0.328536 0
M  V30 3607 C 349.779 -1.83176 -1.40411 0
M  V30 3608 C 350.749 -0.678494 -1.5161 0
M  V30 3609 O 351.934 -0.92443 -1.6691 0
M  V30 3610 C 349.074 -2.06035 -2.76846 0
M  V30 3611 C 348.187 -3.33727 -2.74318 0
M  V30 3612 C 347.322 -3.46574 -4.02567 0
M  V30 3613 C 346.361 -4.68159 -3.94327 0
M  V30 3614 N 345.498 -4.77959 -5.14296 0
M  V30 3615 H 350.338 -2.74938 -1.14948 0
M  V30 3616 H 347.875 -1.36166 -0.556538 0
M  V30 3617 H 349.833 -2.1728 -3.56153 0
M  V30 3618 H 348.463 -1.1757 -3.00628 0
M  V30 3619 H 347.515 -3.31246 -1.8703 0
M  V30 3620 H 348.827 -4.23139 -2.64111 0
M  V30 3621 H 347.981 -3.57333 -4.90304 0
M  V30 3622 H 346.72 -2.55245 -4.15574 0
M  V30 3623 H 345.725 -4.57461 -3.04974 0
M  V30 3624 H 346.95 -5.60868 -3.82889 0
M  V30 3625 H 344.896 -3.89544 -5.27818 0
M  V30 3626 H 344.813 -5.6133 -5.06404 0
M  V30 3627 H 346.081 -4.93044 -6.03761 0
M  V30 3628 N 350.31 0.590341 -1.46126 0
M  V30 3629 C 351.558 1.34616 -1.50742 0
M  V30 3630 C 351.879 1.94363 -0.157486 0
M  V30 3631 O 351.149 1.78136 0.815136 0
M  V30 3632 H 349.729 0.499789 -0.555175 0
M  V30 3633 H 352.391 0.691953 -1.82203 0
M  V30 3634 H 351.487 2.15678 -2.25587 0
M  V30 3635 N 351.788 1.33704 0.83433 0
M  V30 3636 C 352.72 1.20172 1.9517 0
M  V30 3637 C 353.733 0.131572 1.62267 0
M  V30 3638 O 354.922 0.382406 1.74356 0
M  V30 3639 C 352.022 0.821716 3.28787 0
M  V30 3640 C 351.195 1.98446 3.89792 0
M  V30 3641 C 350.254 1.58469 5.01771 0
M  V30 3642 O 349.28 2.29968 5.20676 0
M  V30 3643 N 350.482 0.492291 5.78409 0
M  V30 3644 H 353.247 2.16429 2.07313 0
M  V30 3645 H 350.808 1.26509 1.0103 0
M  V30 3646 H 352.8 0.536291 4.01131 0
M  V30 3647 H 351.37 -0.0503058 3.1256 0
M  V30 3648 H 350.59 2.43526 3.09982 0
M  V30 3649 H 351.878 2.76236 4.27283 0
M  V30 3650 H 351.276 -0.102349 5.65607 0
M  V30 3651 H 349.833 0.266555 6.51255 0
M  V30 3652 N 353.266 -1.05314 1.17247 0
M  V30 3653 C 354.677 -1.59753 0.96623 0
M  V30 3654 C 355.028 -1.9005 -0.487378 0
M  V30 3655 O 354.153 -1.68126 -1.36245 0
M  V30 3656 C 354.748 -2.90249 1.74759 0
M  V30 3657 C 353.307 -3.41352 1.58606 0
M  V30 3658 C 352.454 -2.15103 1.75002 0
M  V30 3659 H 355.405 -0.881406 1.31973 0
M  V30 3660 H 355.426 -3.60097 1.22925 0
M  V30 3661 H 354.938 -2.68166 2.8055 0
M  V30 3662 H 353.039 -3.68474 0.552985 0
M  V30 3663 H 353.152 -4.16019 2.37624 0
M  V30 3664 H 351.516 -2.25804 1.17833 0
M  V30 3665 H 352.299 -1.95491 2.82202 0
M  V30 3666 N 354.744 -0.972509 -1.24016 0
M  V30 3667 C 355.992 -0.635776 -1.91839 0
M  V30 3668 C 356.313 0.832312 -1.76345 0
M  V30 3669 O 355.583 1.5946 -1.13795 0
M  V30 3670 H 354.163 -0.232157 -0.710009 0
M  V30 3671 H 356.825 -1.23462 -1.50809 0
M  V30 3672 H 355.921 -0.880545 -2.99421 0
M  V30 3673 N 356.222 1.38976 -0.743202 0
M  V30 3674 C 357.499 1.94351 -0.220705 0
M  V30 3675 C 357.879 1.67935 1.2791 0
M  V30 3676 O 357.227 1.01211 2.04862 0
M  V30 3677 C 357.437 3.44426 -0.563171 0
M  V30 3678 C 358.785 4.2144 -0.517046 0
M  V30 3679 O 359.809 3.52661 -0.500846 0
M  V30 3680 O 358.668 5.44032 -0.518806 0
M  V30 3681 H 355.762 0.825879 -0.043047 0
M  V30 3682 H 358.308 1.48429 -0.822618 0
M  V30 3683 H 357.08 3.5712 -1.59941 0
M  V30 3684 H 356.703 3.97543 0.0672883 0
M  V30 3685 N 357.7 0.491464 1.49741 0
M  V30 3686 C 358.949 -0.0582189 2.01616 0
M  V30 3687 C 359.262 -1.38927 1.3769 0
M  V30 3688 O 360.468 -2.02509 1.80838 0
M  V30 3689 C 358.924 -0.154235 3.59569 0
M  V30 3690 C 358.532 1.1696 4.32463 0
M  V30 3691 C 360.276 -0.65479 4.1942 0
M  V30 3692 C 358.183 1.03627 5.8225 0
M  V30 3693 H 357.113 -0.0255317 0.753568 0
M  V30 3694 H 359.764 0.629445 1.72367 0
M  V30 3695 H 358.146 -0.906138 3.85493 0
M  V30 3696 H 359.32 1.93405 4.18248 0
M  V30 3697 H 357.635 1.60285 3.84315 0
M  V30 3698 H 360.232 -0.771903 5.29099 0
M  V30 3699 H 360.575 -1.65127 3.8215 0
M  V30 3700 H 361.108 0.040304 3.9778 0
M  V30 3701 H 357.847 2.00672 6.24028 0
M  V30 3702 H 357.367 0.312546 5.98985 0
M  V30 3703 H 359.046 0.711114 6.4308 0
M  V30 3704 N 359.178 -1.55987 0.224894 0
M  V30 3705 C 360.408 -2.02489 -0.41007 0
M  V30 3706 C 360.816 -1.10391 -1.53657 0
M  V30 3707 O 360.159 -0.106458 -1.83391 0
M  V30 3708 C 360.221 -3.45319 -0.999757 0
M  V30 3709 C 359.885 -4.56999 -0.00827976 0
M  V30 3710 C 360.882 -5.13812 0.793314 0
M  V30 3711 C 358.567 -5.02176 0.111442 0
M  V30 3712 C 360.561 -6.14276 1.7013 0
M  V30 3713 C 358.248 -6.02477 1.02296 0
M  V30 3714 C 359.246 -6.58403 1.81643 0
M  V30 3715 O 358.934 -7.56751 2.71262 0
M  V30 3716 H 358.666 -0.667915 -0.104235 0
M  V30 3717 H 361.22 -2.0257 0.339782 0
M  V30 3718 H 359.45 -3.42318 -1.79876 0
M  V30 3719 H 361.139 -3.7545 -1.54248 0
M  V30 3720 H 361.905 -4.79756 0.711288 0
M  V30 3721 H 357.784 -4.58323 -0.49605 0
M  V30 3722 H 361.328 -6.57854 2.32107 0
M  V30 3723 H 357.225 -6.35954 1.10599 0
M  V30 3724 H 357.993 -7.74286 2.65375 0
M  V30 3725 N 360.656 0.0484629 -1.57525 0
M  V30 3726 C 361.606 1.06246 -2.01732 0
M  V30 3727 C 362.59 1.33155 -0.903245 0
M  V30 3728 O 363.782 1.33065 -1.16717 0
M  V30 3729 C 360.911 2.36943 -2.48421 0
M  V30 3730 C 359.997 2.13208 -3.6661 0
M  V30 3731 N 360.388 1.5947 -4.80003 0
M  V30 3732 C 358.686 2.43581 -3.7361 0
M  V30 3733 C 359.387 1.51092 -5.61735 0
M  V30 3734 N 358.363 1.9797 -5.0627 0
M  V30 3735 H 362.165 0.640675 -2.86832 0
M  V30 3736 H 359.679 0.255134 -1.60383 0
M  V30 3737 H 361.676 3.10374 -2.78341 0
M  V30 3738 H 360.336 2.79818 -1.64718 0
M  V30 3739 H 361.347 1.28008 -5.01831 0
M  V30 3740 H 358.024 2.89662 -3.00669 0
M  V30 3741 H 359.414 1.10199 -6.62801 0
M  V30 3742 N 362.134 1.5431 0.320358 0
M  V30 3743 C 363.066 1.80262 1.41556 0
M  V30 3744 C 364.079 0.684723 1.477 0
M  V30 3745 O 365.268 0.961886 1.50366 0
M  V30 3746 C 362.368 1.90825 2.8007 0
M  V30 3747 C 361.541 3.21023 2.97091 0
M  V30 3748 C 360.6 3.22247 4.15985 0
M  V30 3749 O 359.626 3.95871 4.08992 0
M  V30 3750 N 360.828 2.46258 5.25678 0
M  V30 3751 H 363.593 2.74778 1.19655 0
M  V30 3752 H 361.154 1.53646 0.510358 0
M  V30 3753 H 363.146 1.89067 3.57821 0
M  V30 3754 H 361.716 1.03392 2.95006 0
M  V30 3755 H 360.936 3.35715 2.06614 0
M  V30 3756 H 362.224 4.0698 3.05361 0
M  V30 3757 H 361.622 1.86037 5.34235 0
M  V30 3758 H 360.179 2.50275 6.01835 0
M  V30 3759 N 363.613 -0.582584 1.46437 0
M  V30 3760 C 364.841 -1.36682 1.55324 0
M  V30 3761 C 365.256 -1.87796 0.194409 0
M  V30 3762 O 364.613 -1.63623 -0.808318 0
M  V30 3763 C 364.664 -2.55426 2.55812 0
M  V30 3764 O 364.385 -2.0643 3.86417 0
M  V30 3765 C 365.886 -3.47976 2.74641 0
M  V30 3766 H 363.106 -0.417545 0.525259 0
M  V30 3767 H 365.65 -0.708219 1.91845 0
M  V30 3768 H 363.805 -3.17275 2.22295 0
M  V30 3769 H 364.219 -2.83762 4.41111 0
M  V30 3770 H 365.693 -4.27775 3.48874 0
M  V30 3771 H 366.17 -3.99919 1.81553 0
M  V30 3772 H 366.776 -2.91962 3.09255 0
M  V30 3773 N 365.091 -1.34144 -0.827227 0
M  V30 3774 C 366.337 -1.27455 -1.58515 0
M  V30 3775 C 366.692 0.155271 -1.91772 0
M  V30 3776 O 365.985 1.10042 -1.56848 0
M  V30 3777 C 366.179 -2.09464 -2.89585 0
M  V30 3778 C 366.008 -3.60276 -2.69131 0
M  V30 3779 C 364.778 -4.29565 -2.66087 0
M  V30 3780 C 366.976 -4.54367 -2.40947 0
M  V30 3781 N 364.958 -5.66252 -2.37132 0
M  V30 3782 C 366.329 -5.79027 -2.21648 0
M  V30 3783 C 368.384 -4.43327 -2.26639 0
M  V30 3784 C 367.087 -6.93891 -1.89492 0
M  V30 3785 C 369.113 -5.58019 -1.95878 0
M  V30 3786 C 368.475 -6.81695 -1.774 0
M  V30 3787 H 364.574 -0.521614 -0.582617 0
M  V30 3788 H 367.158 -1.68811 -0.970105 0
M  V30 3789 H 365.329 -1.70411 -3.49019 0
M  V30 3790 H 367.061 -1.94453 -3.54923 0
M  V30 3791 H 363.816 -3.81959 -2.80008 0
M  V30 3792 H 364.24 -6.38338 -2.25507 0
M  V30 3793 H 368.882 -3.48333 -2.39633 0
M  V30 3794 H 366.6 -7.88871 -1.75236 0
M  V30 3795 H 370.186 -5.5142 -1.85546 0
M  V30 3796 H 369.066 -7.68942 -1.53941 0
M  V30 3797 N 366.569 1.04691 -1.17803 0
M  V30 3798 C 367.532 2.10724 -0.901545 0
M  V30 3799 C 368.532 1.6042 0.110437 0
M  V30 3800 O 369.722 1.7377 -0.122303 0
M  V30 3801 C 366.854 3.39084 -0.351409 0
M  V30 3802 H 368.047 2.36686 -1.84174 0
M  V30 3803 H 365.6 1.21015 -0.98919 0
M  V30 3804 H 366.335 3.18782 0.59569 0
M  V30 3805 H 366.12 3.76909 -1.08083 0
M  V30 3806 H 367.61 4.17227 -0.176451 0
M  V30 3807 N 368.047 0.979072 1.23499 0
M  V30 3808 C 369.463 0.687475 1.44034 0
M  V30 3809 C 369.663 -0.746801 1.8715 0
M  V30 3810 O 368.719 -1.51939 2.0167 0
M  V30 3811 C 370.032 1.68127 2.49307 0
M  V30 3812 C 371.58 1.69516 2.63122 0
M  V30 3813 C 372.055 2.67723 3.71603 0
M  V30 3814 N 373.546 2.66233 3.79044 0
M  V30 3815 C 374.281 3.38891 4.62537 0
M  V30 3816 N 373.777 4.21103 5.50131 0
M  V30 3817 N 375.57 3.27661 4.56721 0
M  V30 3818 H 367.721 1.90559 0.938135 0
M  V30 3819 H 369.984 0.821051 0.473897 0
M  V30 3820 H 369.69 2.70693 2.2454 0
M  V30 3821 H 369.564 1.46306 3.4767 0
M  V30 3822 H 371.951 0.676561 2.8724 0
M  V30 3823 H 372.032 1.95404 1.65079 0
M  V30 3824 H 371.676 3.69724 3.48233 0
M  V30 3825 H 371.606 2.39111 4.69184 0
M  V30 3826 H 374.097 2.06568 3.16446 0
M  V30 3827 H 374.41 4.73403 6.10827 0
M  V30 3828 H 372.755 4.25195 5.49759 0
M  V30 3829 H 375.946 2.62887 3.87309 0
M  V30 3830 H 376.119 3.84547 5.21562 0
M  V30 3831 N 369.525 -1.3858 0.750561 0
M  V30 3832 C 370.755 -2.04175 0.31564 0
M  V30 3833 C 371.163 -1.56726 -1.05989 0
M  V30 3834 O 370.506 -0.734225 -1.68389 0
M  V30 3835 C 370.568 -3.58585 0.256389 0
M  V30 3836 C 370.232 -4.29077 1.57296 0
M  V30 3837 C 371.229 -4.54656 2.52159 0
M  V30 3838 C 368.914 -4.67324 1.84156 0
M  V30 3839 C 370.908 -5.17512 3.72103 0
M  V30 3840 C 368.595 -5.29905 3.04374 0
M  V30 3841 C 369.593 -5.54933 3.98168 0
M  V30 3842 O 369.281 -6.16212 5.16273 0
M  V30 3843 H 369.013 -0.662742 0.133226 0
M  V30 3844 H 371.567 -1.78313 1.01948 0
M  V30 3845 H 369.797 -3.83406 -0.503677 0
M  V30 3846 H 371.486 -4.05628 -0.148612 0
M  V30 3847 H 372.252 -4.25539 2.32683 0
M  V30 3848 H 368.131 -4.47191 1.11988 0
M  V30 3849 H 371.675 -5.36963 4.45327 0
M  V30 3850 H 367.572 -5.58444 3.23745 0
M  V30 3851 H 368.34 -6.34701 5.16815 0
M  V30 3852 N 371.003 -0.499398 -1.49478 0
M  V30 3853 C 372.25 0.0456899 -2.02448 0
M  V30 3854 C 372.578 1.37142 -1.37921 0
M  V30 3855 O 371.833 1.89111 -0.503544 0
M  V30 3856 C 372.132 0.248424 -3.56536 0
M  V30 3857 C 371.798 -0.999107 -4.39692 0
M  V30 3858 C 370.46 -1.34108 -4.62135 0
M  V30 3859 C 372.812 -1.82842 -4.88076 0
M  V30 3860 C 370.14 -2.51191 -5.30208 0
M  V30 3861 C 372.492 -2.99076 -5.57437 0
M  V30 3862 C 371.156 -3.33655 -5.78127 0
M  V30 3863 H 370.426 0.0167191 -0.740811 0
M  V30 3864 H 373.073 -0.65923 -1.79795 0
M  V30 3865 H 371.378 1.03586 -3.77859 0
M  V30 3866 H 373.075 0.684605 -3.95113 0
M  V30 3867 H 369.665 -0.722729 -4.22463 0
M  V30 3868 H 373.849 -1.57737 -4.70566 0
M  V30 3869 H 369.105 -2.78221 -5.44429 0
M  V30 3870 H 373.279 -3.63664 -5.93904 0
M  V30 3871 H 370.906 -4.24483 -6.30649 0
M  V30 3872 N 372.481 1.55866 -0.233164 0
M  V30 3873 C 373.727 1.98897 0.395959 0
M  V30 3874 C 374.06 1.12091 1.58585 0
M  V30 3875 O 373.335 0.181182 1.93654 0
M  V30 3876 C 373.618 3.50658 0.819224 0
M  V30 3877 C 373.471 4.48233 -0.375109 0
M  V30 3878 C 374.79 4.07135 1.67121 0
M  V30 3879 H 371.909 0.723102 0.142451 0
M  V30 3880 H 374.551 1.87082 -0.331725 0
M  V30 3881 H 372.701 3.60857 1.43925 0
M  V30 3882 H 374.373 4.50031 -1.01341 0
M  V30 3883 H 372.616 4.21624 -1.02058 0
M  V30 3884 H 373.287 5.51988 -0.0358328 0
M  V30 3885 H 375.763 3.99952 1.14795 0
M  V30 3886 H 374.639 5.13615 1.93625 0
M  V30 3887 H 374.9 3.54736 2.63846 0
M  V30 3888 N 373.959 -0.0401083 1.57549 0
M  V30 3889 C 374.906 -1.04413 2.05831 0
M  V30 3890 C 375.876 -1.36585 0.945184 0
M  V30 3891 O 377.061 -1.47112 1.21502 0
M  V30 3892 C 374.201 -2.34336 2.53339 0
M  V30 3893 C 373.314 -2.08419 3.78398 0
M  V30 3894 C 372.449 -3.32133 4.14561 0
M  V30 3895 C 371.488 -3.01721 5.3257 0
M  V30 3896 N 370.625 -4.17855 5.64218 0
M  V30 3897 H 375.465 -0.625442 2.91363 0
M  V30 3898 H 373.002 -0.297218 1.44066 0
M  V30 3899 H 374.96 -3.10234 2.78946 0
M  V30 3900 H 373.59 -2.73948 1.7074 0
M  V30 3901 H 372.642 -1.23069 3.59942 0
M  V30 3902 H 373.954 -1.81978 4.64419 0
M  V30 3903 H 373.108 -4.16406 4.41238 0
M  V30 3904 H 371.847 -3.61678 3.2717 0
M  V30 3905 H 370.852 -2.15849 5.05657 0
M  V30 3906 H 372.077 -2.73466 6.21605 0
M  V30 3907 H 370.023 -4.47372 4.79786 0
M  V30 3908 H 369.94 -3.94798 6.44725 0
M  V30 3909 H 371.208 -5.03033 5.95465 0
M  V30 3910 N 375.437 -1.54477 -0.31217 0
M  V30 3911 C 376.684 -1.73227 -1.04875 0
M  V30 3912 C 377.012 -0.512042 -1.87639 0
M  V30 3913 O 376.267 0.506131 -1.89042 0
M  V30 3914 C 376.566 -2.967 -1.99258 0
M  V30 3915 C 376.232 -4.30974 -1.32559 0
M  V30 3916 C 374.894 -4.67477 -1.141 0
M  V30 3917 C 377.246 -5.14258 -0.847835 0
M  V30 3918 C 374.574 -5.84852 -0.465326 0
M  V30 3919 C 376.926 -6.32327 -0.185931 0
M  V30 3920 C 375.59 -6.67499 0.0107077 0
M  V30 3921 H 374.86 -0.633881 -0.383765 0
M  V30 3922 H 377.507 -1.88727 -0.324731 0
M  V30 3923 H 375.812 -2.75935 -2.7815 0
M  V30 3924 H 377.509 -3.08401 -2.563 0
M  V30 3925 H 374.099 -4.02262 -1.4793 0
M  V30 3926 H 378.283 -4.86565 -0.978192 0
M  V30 3927 H 373.539 -6.10654 -0.301883 0
M  V30 3928 H 377.713 -6.96135 0.192211 0
M  V30 3929 H 375.34 -7.58306 0.536287 0
M  V30 3930 N 376.915 0.57481 -1.46744 0
M  V30 3931 C 377.845 1.69337 -1.60771 0
M  V30 3932 C 378.826 1.63825 -0.457736 0
M  V30 3933 O 380.011 1.8172 -0.684947 0
M  V30 3934 C 377.141 3.0798 -1.60517 0
M  V30 3935 C 376.095 3.28327 -2.74564 0
M  V30 3936 C 375.421 4.67578 -2.59373 0
M  V30 3937 C 376.721 3.15398 -4.16319 0
M  V30 3938 H 378.415 1.57853 -2.54407 0
M  V30 3939 H 375.961 0.75799 -1.22436 0
M  V30 3940 H 377.914 3.86061 -1.68923 0
M  V30 3941 H 376.638 3.20381 -0.634305 0
M  V30 3942 H 375.297 2.52649 -2.65639 0
M  V30 3943 H 374.945 4.76755 -1.60353 0
M  V30 3944 H 374.645 4.82144 -3.35873 0
M  V30 3945 H 376.169 5.47817 -2.69682 0
M  V30 3946 H 377.583 3.83315 -4.26313 0
M  V30 3947 H 375.98 3.41482 -4.93468 0
M  V30 3948 H 377.05 2.12372 -4.3592 0
M  V30 3949 N 378.394 1.34581 0.820102 0
M  V30 3950 C 379.671 1.17675 1.56244 0
M  V30 3951 C 380.051 -0.249541 2.0962 0
M  V30 3952 O 379.399 -1.25125 1.91196 0
M  V30 3953 C 379.609 2.23364 2.6816 0
M  V30 3954 C 380.957 2.58485 3.36854 0
M  V30 3955 O 381.981 2.22175 2.78418 0
M  V30 3956 O 380.84 3.20868 4.42386 0
M  V30 3957 H 377.934 0.456333 0.689702 0
M  V30 3958 H 380.48 1.46222 0.861231 0
M  V30 3959 H 379.252 3.19087 2.26493 0
M  V30 3960 H 378.875 1.96009 3.45928 0
M  V30 3961 N 379.872 -1.04064 1.18357 0
M  V30 3962 C 380.835 -2.10243 0.912707 0
M  V30 3963 C 381.835 -1.60477 -0.101928 0
M  V30 3964 O 383.025 -1.73703 0.131517 0
M  V30 3965 C 380.157 -3.38893 0.369387 0
M  V30 3966 H 381.35 -2.35706 1.85426 0
M  V30 3967 H 378.903 -1.20489 0.995594 0
M  V30 3968 H 379.638 -3.19094 -0.578776 0
M  V30 3969 H 379.423 -3.76331 1.1008 0
M  V30 3970 H 380.913 -4.17128 0.198575 0
M  V30 3971 N 381.35 -0.985608 -1.22978 0
M  V30 3972 C 382.58 -0.674603 -1.95276 0
M  V30 3973 C 382.988 0.763483 -1.73111 0
M  V30 3974 O 382.331 1.52601 -1.02268 0
M  V30 3975 C 382.393 -0.891597 -3.48268 0
M  V30 3976 C 382.057 -2.31275 -3.94158 0
M  V30 3977 C 383.054 -3.29179 -4.02415 0
M  V30 3978 C 380.739 -2.64524 -4.27004 0
M  V30 3979 C 382.733 -4.58407 -4.42879 0
M  V30 3980 C 380.42 -3.93974 -4.67149 0
M  V30 3981 C 381.418 -4.90727 -4.75053 0
M  V30 3982 O 381.106 -6.17865 -5.14294 0
M  V30 3983 H 380.838 -0.249251 -0.628371 0
M  V30 3984 H 383.392 -1.32106 -1.5728 0
M  V30 3985 H 381.622 -0.187962 -3.86243 0
M  V30 3986 H 383.311 -0.576957 -4.01779 0
M  V30 3987 H 384.077 -3.04823 -3.77237 0
M  V30 3988 H 379.956 -1.89923 -4.2006 0
M  V30 3989 H 383.5 -5.33926 -4.48964 0
M  V30 3990 H 379.397 -4.18122 -4.91777 0
M  V30 3991 H 380.165 -6.21694 -5.32389 0
M  V30 3992 N 382.828 1.3818 -0.7579 0
M  V30 3993 C 383.791 2.28764 -0.141286 0
M  V30 3994 C 384.791 1.47388 0.642907 0
M  V30 3995 O 385.981 1.67781 0.468536 0
M  V30 3996 C 383.113 3.31184 0.808069 0
M  V30 3997 H 384.306 2.848 -0.939633 0
M  V30 3998 H 381.859 1.47212 -0.525191 0
M  V30 3999 H 382.594 2.80247 1.63193 0
M  V30 4000 H 382.379 3.91314 0.248104 0
M  V30 4001 H 383.869 3.98909 1.23536 0
M  V30 4002 N 384.306 0.507319 1.49211 0
M  V30 4003 C 385.216 -0.272136 2.33016 0
M  V30 4004 C 386.232 -0.961206 1.45041 0
M  V30 4005 O 387.408 -0.941191 1.78055 0
M  V30 4006 C 384.473 -1.31895 3.20631 0
M  V30 4007 C 383.534 -0.642648 4.24463 0
M  V30 4008 C 382.767 -1.63959 5.07891 0
M  V30 4009 O 382.99 -2.87007 4.92933 0
M  V30 4010 O 381.924 -1.19143 5.8999 0
M  V30 4011 H 385.75 0.413982 3.00865 0
M  V30 4012 H 383.335 0.268556 1.46966 0
M  V30 4013 H 385.217 -1.92446 3.7489 0
M  V30 4014 H 383.892 -1.98788 2.5547 0
M  V30 4015 H 382.799 0.00276252 3.741 0
M  V30 4016 H 384.132 -0.0160534 4.92197 0
M  V30 4017 N 385.784 -1.5574 0.241426 0
M  V30 4018 C 386.734 -2.17803 -0.674233 0
M  V30 4019 C 387.718 -1.13225 -1.14319 0
M  V30 4020 O 388.91 -1.39153 -1.09387 0
M  V30 4021 C 386.039 -2.87682 -1.87333 0
M  V30 4022 C 385.125 -3.99509 -1.42313 0
M  V30 4023 N 385.516 -5.01115 -0.686798 0
M  V30 4024 C 383.814 -4.11964 -1.70885 0
M  V30 4025 C 384.515 -5.79922 -0.454456 0
M  V30 4026 N 383.491 -5.34001 -1.01705 0
M  V30 4027 H 387.293 -2.93718 -0.103447 0
M  V30 4028 H 384.807 -1.62342 0.0435095 0
M  V30 4029 H 386.804 -3.3057 -2.54026 0
M  V30 4030 H 385.464 -2.13269 -2.4484 0
M  V30 4031 H 386.475 -5.16799 -0.337459 0
M  V30 4032 H 383.152 -3.48718 -2.2957 0
M  V30 4033 H 384.542 -6.71768 0.132992 0
M  V30 4034 N 387.262 0.0317525 -1.57568 0
M  V30 4035 C 388.209 1.0332 -2.06382 0
M  V30 4036 C 389.179 1.36082 -0.952414 0
M  V30 4037 O 390.364 1.46466 -1.2228 0
M  V30 4038 C 387.504 2.32989 -2.54578 0
M  V30 4039 C 386.617 2.0641 -3.79498 0
M  V30 4040 C 385.752 3.2993 -4.16317 0
M  V30 4041 C 384.791 2.98893 -5.34162 0
M  V30 4042 N 383.928 4.14857 -5.66426 0
M  V30 4043 H 388.768 0.609982 -2.9169 0
M  V30 4044 H 386.305 0.289573 -1.44222 0
M  V30 4045 H 388.263 3.0875 -2.80587 0
M  V30 4046 H 386.893 2.73039 -1.7219 0
M  V30 4047 H 385.945 1.21158 -3.6059 0
M  V30 4048 H 387.257 1.79513 -4.65378 0
M  V30 4049 H 386.411 4.1406 -4.4344 0
M  V30 4050 H 385.15 3.59938 -3.29083 0
M  V30 4051 H 384.155 2.13164 -5.06795 0
M  V30 4052 H 385.38 2.70165 -6.23047 0
M  V30 4053 H 383.326 4.44821 -4.82151 0
M  V30 4054 H 383.243 3.91374 -6.4681 0
M  V30 4055 H 384.511 4.99868 -5.98124 0
M  V30 4056 N 388.74 1.54641 0.303973 0
M  V30 4057 C 389.67 1.88386 1.3796 0
M  V30 4058 C 390.651 0.742485 1.5304 0
M  V30 4059 O 391.836 0.997959 1.66597 0
M  V30 4060 C 388.966 2.12854 2.74427 0
M  V30 4061 C 387.92 3.28702 2.74115 0
M  V30 4062 C 387.246 3.38582 4.13844 0
M  V30 4063 C 388.546 4.65881 2.3612 0
M  V30 4064 H 390.24 2.78474 1.09966 0
M  V30 4065 H 387.786 1.33988 0.527556 0
M  V30 4066 H 389.739 2.35047 3.49758 0
M  V30 4067 H 388.463 1.19535 3.03939 0
M  V30 4068 H 387.122 3.06428 2.0124 0
M  V30 4069 H 386.77 2.42784 4.40528 0
M  V30 4070 H 386.47 4.16453 4.14537 0
M  V30 4071 H 387.994 3.63031 4.90959 0
M  V30 4072 H 389.408 4.87823 3.01167 0
M  V30 4073 H 387.805 5.46444 2.48031 0
M  V30 4074 H 388.875 4.66799 1.3125 0
M  V30 4075 N 390.218 -0.567019 1.47046 0
M  V30 4076 C 391.15 -1.68985 1.54844 0
M  V30 4077 C 392.163 -1.56869 0.435431 0
M  V30 4078 O 393.352 -1.64006 0.70457 0
M  V30 4079 C 390.452 -3.07373 1.42742 0
M  V30 4080 C 389.625 -3.45339 2.6844 0
M  V30 4081 C 388.684 -4.62849 2.50314 0
M  V30 4082 O 387.71 -4.67922 3.24095 0
M  V30 4083 N 388.912 -5.58726 1.57499 0
M  V30 4084 H 391.677 -1.62745 2.51663 0
M  V30 4085 H 389.238 -0.753411 1.43302 0
M  V30 4086 H 391.23 -3.83803 1.28365 0
M  V30 4087 H 389.8 -3.07893 0.540445 0
M  V30 4088 H 389.02 -2.58455 2.97648 0
M  V30 4089 H 390.308 -3.67476 3.51907 0
M  V30 4090 H 389.706 -5.57376 0.966876 0
M  V30 4091 H 388.263 -6.34523 1.49078 0
M  V30 4092 N 391.696 -1.35014 -0.812953 0
M  V30 4093 C 392.943 -1.27931 -1.56971 0
M  V30 4094 C 393.271 0.148034 -1.93936 0
M  V30 4095 O 392.526 1.11175 -1.61054 0
M  V30 4096 C 392.825 -2.12524 -2.87347 0
M  V30 4097 C 392.491 -3.61401 -2.6963 0
M  V30 4098 C 391.153 -4.01983 -2.64506 0
M  V30 4099 C 393.505 -4.55894 -2.52607 0
M  V30 4100 C 390.833 -5.35235 -2.40293 0
M  V30 4101 C 393.185 -5.89336 -2.29925 0
M  V30 4102 C 391.849 -6.2907 -2.23219 0
M  V30 4103 H 391.119 -0.468131 -0.574399 0
M  V30 4104 H 393.766 -1.66851 -0.939836 0
M  V30 4105 H 392.071 -1.66463 -3.54679 0
M  V30 4106 H 393.768 -2.04383 -3.45005 0
M  V30 4107 H 390.358 -3.29193 -2.74463 0
M  V30 4108 H 394.542 -4.25431 -2.55583 0
M  V30 4109 H 389.798 -5.65028 -2.33566 0
M  V30 4110 H 393.972 -6.62139 -2.15743 0
M  V30 4111 H 391.599 -7.32256 -2.04219 0
M  V30 4112 N 393.175 1.03435 -1.18907 0
M  V30 4113 C 394.421 1.7713 -0.99982 0
M  V30 4114 C 394.776 1.86695 0.465049 0
M  V30 4115 O 394.069 1.36866 1.34083 0
M  V30 4116 C 394.263 3.19792 -1.59586 0
M  V30 4117 C 394.092 3.24134 -3.11717 0
M  V30 4118 C 392.862 3.32398 -3.80578 0
M  V30 4119 C 395.06 3.11625 -4.09138 0
M  V30 4120 N 393.042 3.26055 -5.20155 0
M  V30 4121 C 394.413 3.12855 -5.35277 0
M  V30 4122 C 396.468 2.95713 -4.00572 0
M  V30 4123 C 395.171 2.99805 -6.53842 0
M  V30 4124 C 397.197 2.84011 -5.1874 0
M  V30 4125 C 396.559 2.8589 -6.43775 0
M  V30 4126 H 392.658 0.659683 -0.419931 0
M  V30 4127 H 395.242 1.2317 -1.50789 0
M  V30 4128 H 393.413 3.72085 -1.11389 0
M  V30 4129 H 395.145 3.81819 -1.3415 0
M  V30 4130 H 391.9 3.38392 -3.31342 0
M  V30 4131 H 392.324 3.26307 -5.93172 0
M  V30 4132 H 396.966 2.93086 -3.0473 0
M  V30 4133 H 394.684 3.01184 -7.49876 0
M  V30 4134 H 398.27 2.72744 -5.13909 0
M  V30 4135 H 397.15 2.76931 -7.33675 0
M  V30 4136 N 394.653 0.992116 1.22453 0
M  V30 4137 C 395.616 0.546883 2.2258 0
M  V30 4138 C 396.616 -0.369829 1.56489 0
M  V30 4139 O 397.806 -0.161896 1.73446 0
M  V30 4140 C 394.938 -0.204659 3.40285 0
M  V30 4141 H 396.131 1.43234 2.63484 0
M  V30 4142 H 393.684 0.779239 1.3549 0
M  V30 4143 H 394.419 -1.10614 3.04853 0
M  V30 4144 H 394.204 0.45354 3.89468 0
M  V30 4145 H 395.694 -0.504358 4.14543 0
M  V30 4146 N 396.131 -1.37776 0.765217 0
M  V30 4147 C 397.377 -2.00145 0.327072 0
M  V30 4148 C 397.71 -1.60607 -1.09175 0
M  V30 4149 O 396.985 -0.849127 -1.74986 0
M  V30 4150 C 397.268 -3.57109 0.46319 0
M  V30 4151 C 397.121 -4.06576 1.92395 0
M  V30 4152 C 398.44 -4.39888 -0.136473 0
M  V30 4153 H 395.559 -0.727113 0.120316 0
M  V30 4154 H 398.201 -1.63549 0.967039 0
M  V30 4155 H 396.351 -3.88414 -0.0816358 0
M  V30 4156 H 398.023 -3.85864 2.52798 0
M  V30 4157 H 396.266 -3.59011 2.43503 0
M  V30 4158 H 396.937 -5.15639 1.97028 0
M  V30 4159 H 399.413 -4.14803 0.328317 0
M  V30 4160 H 398.289 -5.48899 -0.0110582 0
M  V30 4161 H 398.55 -4.24758 -1.22608 0
M  V30 4162 N 397.609 -0.515225 -1.4894 0
M  V30 4163 C 398.837 0.0206034 -2.0689 0
M  V30 4164 C 399.252 1.29514 -1.37374 0
M  V30 4165 O 398.609 1.76698 -0.456529 0
M  V30 4166 C 398.66 0.26351 -3.60538 0
M  V30 4167 O 398.381 -0.960517 -4.27441 0
M  V30 4168 C 399.882 0.841383 -4.35242 0
M  V30 4169 H 397.102 -0.0268608 -0.670462 0
M  V30 4170 H 399.646 -0.716651 -1.91532 0
M  V30 4171 H 397.801 0.950777 -3.75552 0
M  V30 4172 H 398.215 -0.73212 -5.19365 0
M  V30 4173 H 399.689 0.96085 -5.43573 0
M  V30 4174 H 400.166 1.8427 -3.98674 0
M  V30 4175 H 400.772 0.191143 -4.2487 0
M  V30 4176 N 399.087 1.5561 -0.249682 0
M  V30 4177 C 400.05 2.20217 0.635394 0
M  V30 4178 C 401.05 1.17227 1.10066 0
M  V30 4179 O 402.24 1.42292 1.00492 0
M  V30 4180 C 399.372 2.84794 1.87363 0
M  V30 4181 H 400.565 2.99814 0.0716752 0
M  V30 4182 H 398.118 1.563 -0.000153234 0
M  V30 4183 H 398.853 2.09142 2.47851 0
M  V30 4184 H 398.638 3.60241 1.5482 0
M  V30 4185 H 400.128 3.3423 2.5036 0
M  V30 4186 N 400.565 -0.0233959 1.57583 0
M  V30 4187 C 401.475 -1.03907 2.10334 0
M  V30 4188 C 402.491 -1.39257 1.04323 0
M  V30 4189 O 403.667 -1.48462 1.36091 0
M  V30 4190 C 400.732 -2.31938 2.57693 0
M  V30 4191 C 399.793 -2.03117 3.78209 0
M  V30 4192 C 399.026 -3.25043 4.233 0
M  V30 4193 O 399.249 -4.35916 3.67876 0
M  V30 4194 O 398.183 -3.10411 5.15683 0
M  V30 4195 H 402.009 -0.620748 2.97288 0
M  V30 4196 H 399.594 -0.240743 1.47448 0
M  V30 4197 H 401.476 -3.07196 2.88458 0
M  V30 4198 H 400.151 -2.73055 1.73847 0
M  V30 4199 H 399.058 -1.25408 3.52454 0
M  V30 4200 H 400.391 -1.66852 4.63056 0
M  V30 4201 N 402.043 -1.548 -0.295768 0
M  V30 4202 C 402.991 -1.86874 -1.38495 0
M  V30 4203 C 403.985 -0.742938 -1.52239 0
M  V30 4204 O 405.191 -0.926999 -1.54294 0
M  V30 4205 H 401.566 -0.592786 -0.462719 0
M  V30 4206 H 403.537 -2.77904 -1.08682 0
M  V30 4207 C 402.286 -2.13732 -2.74252 0
M  V30 4208 H 401.609 -2.99835 -2.64459 0
M  V30 4209 H 403.049 -2.4011 -3.49461 0
M  V30 4210 C 401.508 -0.937539 -3.23592 0
M  V30 4211 O 402.038 -0.160665 -4.01379 0
M  V30 4212 N 400.244 -0.741478 -2.80981 0
M  V30 4213 H 399.791 -1.37489 -2.1784 0
M  V30 4214 H 399.749 0.0597103 -3.14343 0
M  V30 4215 N 403.521 0.559213 -1.47345 0
M  V30 4216 C 404.431 1.69388 -1.62311 0
M  V30 4217 C 405.447 1.6648 -0.505993 0
M  V30 4218 O 406.623 1.85964 -0.773262 0
M  V30 4219 C 403.688 3.05894 -1.63185 0
M  V30 4220 C 402.749 3.19885 -2.86307 0
M  V30 4221 C 401.982 4.49879 -2.87131 0
M  V30 4222 O 402.205 5.35217 -1.97229 0
M  V30 4223 O 401.139 4.67618 -3.78968 0
M  V30 4224 H 404.965 1.59706 -2.58317 0
M  V30 4225 H 402.55 0.728989 -1.30407 0
M  V30 4226 H 404.432 3.87133 -1.66451 0
M  V30 4227 H 403.107 3.15964 -0.70345 0
M  V30 4228 H 402.014 2.38052 -2.88587 0
M  V30 4229 H 403.347 3.14718 -3.78435 0
M  V30 4230 N 404.999 1.35443 0.805782 0
M  V30 4231 C 406.41 1.25768 1.37983 0
M  V30 4232 C 406.761 -0.10958 1.95894 0
M  V30 4233 O 405.886 -1.01056 1.91355 0
M  V30 4234 C 406.481 2.27727 2.5085 0
M  V30 4235 C 405.04 2.2179 3.04115 0
M  V30 4236 C 404.187 2.13393 1.77084 0
M  V30 4237 H 407.138 1.4656 0.608752 0
M  V30 4238 H 407.159 1.90422 3.29424 0
M  V30 4239 H 406.671 3.27227 2.08671 0
M  V30 4240 H 404.772 1.25703 3.50756 0
M  V30 4241 H 404.885 3.13788 3.62042 0
M  V30 4242 H 403.249 1.59384 1.98668 0
M  V30 4243 H 404.032 3.14755 1.37056 0
M  V30 4244 N 406.477 -1.02803 1.19454 0
M  V30 4245 C 407.702 -1.80378 1.02364 0
M  V30 4246 C 408.127 -1.83282 -0.423007 0
M  V30 4247 O 407.485 -1.25945 -1.30413 0
M  V30 4248 C 407.533 -3.23248 1.59821 0
M  V30 4249 O 406.637 -4.04 0.828105 0
M  V30 4250 H 405.978 -0.556799 0.361761 0
M  V30 4251 H 408.508 -1.29385 1.58495 0
M  V30 4252 H 408.518 -3.73994 1.63073 0
M  V30 4253 H 407.193 -3.2045 2.65113 0
M  V30 4254 H 405.77 -3.62635 0.86891 0
M  V30 4255 N 407.956 -0.998596 -1.21925 0
M  V30 4256 C 408.919 -0.558679 -2.22287 0
M  V30 4257 C 409.919 0.361525 -1.56683 0
M  V30 4258 O 411.109 0.152695 -1.73529 0
M  V30 4259 C 408.241 0.18661 -3.40389 0
M  V30 4260 H 409.434 -1.4463 -2.62721 0
M  V30 4261 H 406.987 -0.786413 -1.35075 0
M  V30 4262 H 407.722 1.08996 -3.05435 0
M  V30 4263 H 407.507 -0.474188 -3.89222 0
M  V30 4264 H 408.997 0.482367 -4.14805 0
M  V30 4265 N 409.434 1.37368 -0.772513 0
M  V30 4266 C 410.682 1.99279 -0.336516 0
M  V30 4267 C 411.003 1.6163 1.09091 0
M  V30 4268 O 410.273 0.882109 1.74916 0
M  V30 4269 H 408.853 0.737063 -0.121435 0
M  V30 4270 H 411.515 1.67836 -0.990809 0
M  V30 4271 H 410.611 3.09332 -0.414763 0
M  V30 4272 N 410.912 0.523116 1.48665 0
M  V30 4273 C 411.842 -0.23231 2.32342 0
M  V30 4274 C 412.823 -0.941637 1.41659 0
M  V30 4275 O 414.008 -0.928751 1.70552 0
M  V30 4276 C 411.138 -1.28387 3.22698 0
M  V30 4277 C 410.092 -0.693098 4.22351 0
M  V30 4278 C 409.418 -1.8468 5.01794 0
M  V30 4279 C 410.718 0.33063 5.21252 0
M  V30 4280 H 412.412 0.466192 2.95748 0
M  V30 4281 H 409.958 0.225643 1.42221 0
M  V30 4282 H 411.911 -1.82024 3.80059 0
M  V30 4283 H 410.635 -2.01186 2.57278 0
M  V30 4284 H 409.294 -0.178299 3.66166 0
M  V30 4285 H 408.942 -2.56301 4.32804 0
M  V30 4286 H 408.642 -1.45747 5.69238 0
M  V30 4287 H 410.166 -2.38709 5.62006 0
M  V30 4288 H 411.58 -0.118407 5.73178 0
M  V30 4289 H 409.977 0.636974 5.9671 0
M  V30 4290 H 411.047 1.23883 4.68808 0
M  V30 4291 N 412.39 -1.55475 0.257931 0
M  V30 4292 C 413.32 -2.24815 -0.630912 0
M  V30 4293 C 414.301 -1.23224 -1.17259 0
M  V30 4294 O 415.486 -1.51904 -1.20991 0
M  V30 4295 C 412.616 -2.95609 -1.82298 0
M  V30 4296 C 411.57 -4.03982 -1.41359 0
M  V30 4297 C 410.896 -4.6226 -2.68738 0
M  V30 4298 C 412.196 -5.19109 -0.57648 0
M  V30 4299 H 413.89 -2.99354 -0.0526878 0
M  V30 4300 H 411.436 -1.4398 -0.023901 0
M  V30 4301 H 413.389 -3.42822 -2.45054 0
M  V30 4302 H 412.113 -2.18577 -2.42676 0
M  V30 4303 H 410.772 -3.57555 -0.809324 0
M  V30 4304 H 410.42 -3.81915 -3.27338 0
M  V30 4305 H 410.12 -5.35424 -2.42065 0
M  V30 4306 H 411.644 -5.12212 -3.32372 0
M  V30 4307 H 413.058 -5.62479 -1.10861 0
M  V30 4308 H 411.455 -5.98729 -0.405351 0
M  V30 4309 H 412.525 -4.83174 0.408776 0
M  V30 4310 N 413.868 0.0150385 -1.57593 0
M  V30 4311 C 415.093 0.718067 -1.94573 0
M  V30 4312 C 415.518 1.6734 -0.859005 0
M  V30 4313 O 414.876 1.80362 0.184147 0
M  V30 4314 C 414.924 1.43918 -3.30636 0
M  V30 4315 O 414.028 2.55299 -3.23876 0
M  V30 4316 H 413.369 0.192125 -0.635597 0
M  V30 4317 H 415.899 -0.0336708 -2.04572 0
M  V30 4318 H 415.909 1.80598 -3.65853 0
M  V30 4319 H 414.584 0.738619 -4.09289 0
M  V30 4320 H 413.161 2.21058 -3.00312 0
M  V30 4321 N 415.346 1.54954 0.287554 0
M  V30 4322 C 416.594 1.74528 1.01904 0
M  V30 4323 C 416.915 0.541349 1.87335 0
M  V30 4324 O 416.185 -0.444108 1.908 0
M  V30 4325 H 414.765 0.643576 0.379235 0
M  V30 4326 H 417.427 1.92333 0.315294 0
M  V30 4327 H 416.523 2.64015 1.6644 0
M  V30 4328 N 416.824 -0.551391 1.4764 0
M  V30 4329 C 418.054 -1.33163 1.57959 0
M  V30 4330 C 418.462 -1.87785 0.23094 0
M  V30 4331 O 417.805 -1.65996 -0.786825 0
M  V30 4332 C 417.867 -2.53449 2.54958 0
M  V30 4333 C 417.531 -2.20071 4.00522 0
M  V30 4334 C 418.528 -1.77017 4.88836 0
M  V30 4335 C 416.213 -2.31252 4.45901 0
M  V30 4336 C 418.207 -1.4558 6.20552 0
M  V30 4337 C 415.894 -1.99427 5.77644 0
M  V30 4338 C 416.892 -1.56659 6.64791 0
M  V30 4339 O 416.58 -1.25242 7.94084 0
M  V30 4340 H 416.312 -0.412022 0.535923 0
M  V30 4341 H 418.866 -0.674186 1.9402 0
M  V30 4342 H 417.096 -3.22104 2.13976 0
M  V30 4343 H 418.785 -3.15523 2.55343 0
M  V30 4344 H 419.551 -1.67867 4.55023 0
M  V30 4345 H 415.43 -2.63498 3.78272 0
M  V30 4346 H 418.974 -1.12125 6.8853 0
M  V30 4347 H 414.871 -2.08211 6.10998 0
M  V30 4348 H 415.639 -1.38822 8.06642 0
M  V30 4349 N 418.302 -1.35869 -0.798587 0
M  V30 4350 C 419.713 -1.26498 -1.37314 0
M  V30 4351 C 420.064 0.0991899 -1.95949 0
M  V30 4352 O 419.189 1.0004 -1.91888 0
M  V30 4353 C 419.784 -2.29054 -2.49639 0
M  V30 4354 C 418.343 -2.234 -3.02935 0
M  V30 4355 C 417.49 -2.14329 -1.75949 0
M  V30 4356 H 420.441 -1.46881 -0.600971 0
M  V30 4357 H 420.462 -1.92166 -3.28409 0
M  V30 4358 H 419.974 -3.2833 -2.06933 0
M  V30 4359 H 418.075 -1.27562 -3.50084 0
M  V30 4360 H 418.188 -3.15703 -3.60372 0
M  V30 4361 H 416.552 -1.60435 -1.9782 0
M  V30 4362 H 417.335 -3.15477 -1.35384 0
M  V30 4363 N 419.78 1.02168 -1.19998 0
M  V30 4364 C 421.027 1.75685 -1.00702 0
M  V30 4365 C 421.355 1.88947 0.461426 0
M  V30 4366 O 420.61 1.40832 1.35885 0
M  V30 4367 C 420.909 3.18081 -1.62969 0
M  V30 4368 C 420.575 3.24809 -3.12746 0
M  V30 4369 C 419.237 3.26352 -3.53621 0
M  V30 4370 C 421.589 3.23379 -4.08749 0
M  V30 4371 C 418.917 3.2413 -4.89036 0
M  V30 4372 C 421.269 3.22698 -5.44104 0
M  V30 4373 C 419.933 3.22542 -5.84399 0
M  V30 4374 H 419.203 0.642877 -0.368496 0
M  V30 4375 H 421.85 1.19865 -1.49348 0
M  V30 4376 H 420.155 3.77027 -1.06573 0
M  V30 4377 H 421.852 3.73648 -1.45561 0
M  V30 4378 H 418.442 3.2434 -2.80181 0
M  V30 4379 H 422.626 3.21361 -3.78207 0
M  V30 4380 H 417.882 3.22338 -5.19527 0
M  V30 4381 H 422.056 3.20543 -6.18244 0
M  V30 4382 H 419.683 3.20575 -6.89301 0
M  V30 4383 N 421.258 1.00505 1.21394 0
M  V30 4384 C 422.19 0.52372 2.23136 0
M  V30 4385 C 423.203 -0.387714 1.58116 0
M  V30 4386 O 424.392 -0.187905 1.77508 0
M  V30 4387 C 421.492 -0.258885 3.3791 0
M  V30 4388 C 420.665 0.651634 4.32519 0
M  V30 4389 C 419.724 -0.0813705 5.26137 0
M  V30 4390 O 418.75 0.537295 5.66658 0
M  V30 4391 N 419.952 -1.35992 5.64346 0
M  V30 4392 H 422.717 1.39865 2.65062 0
M  V30 4393 H 420.278 0.881196 1.35818 0
M  V30 4394 H 422.27 -0.758208 3.97534 0
M  V30 4395 H 420.84 -1.035 2.94968 0
M  V30 4396 H 420.06 1.33145 3.71034 0
M  V30 4397 H 421.348 1.27129 4.92662 0
M  V30 4398 H 420.746 -1.88368 5.33417 0
M  V30 4399 H 419.303 -1.8042 6.26332 0
M  V30 4400 N 422.737 -1.36956 0.779787 0
M  V30 4401 C 423.977 -2.01328 0.353043 0
M  V30 4402 C 424.341 -1.60558 -1.05286 0
M  V30 4403 O 425.542 -2.1745 -1.58016 0
M  V30 4404 C 423.813 -3.53874 0.500822 0
M  V30 4405 S 425.372 -4.38506 0.16053 0
M  V30 4406 H 422.19 -0.69799 0.13539 0
M  V30 4407 H 424.792 -1.67016 1.01617 0
M  V30 4408 H 423.496 -3.81034 1.52451 0
M  V30 4409 H 423.027 -3.92994 -0.178574 0
M  V30 4410 H 425.042 -4.85153 -1.04121 0
M  V30 4411 N 424.215 -0.530993 -1.48385 0
M  V30 4412 C 425.145 0.219985 -2.32461 0
M  V30 4413 C 426.126 0.934111 -1.42156 0
M  V30 4414 O 427.311 0.919694 -1.71042 0
M  V30 4415 C 424.441 1.26674 -3.23375 0
M  V30 4416 C 423.395 0.67069 -4.22712 0
M  V30 4417 C 422.721 1.82017 -5.02766 0
M  V30 4418 C 424.021 -0.358268 -5.2107 0
M  V30 4419 H 425.715 -0.48187 -2.95497 0
M  V30 4420 H 423.261 -0.233182 -1.42099 0
M  V30 4421 H 425.214 1.80006 -3.81019 0
M  V30 4422 H 423.938 1.99818 -2.58341 0
M  V30 4423 H 422.597 0.158878 -3.66256 0
M  V30 4424 H 422.245 2.54002 -4.34157 0
M  V30 4425 H 421.945 1.42727 -5.70003 0
M  V30 4426 H 423.469 2.35725 -5.63264 0
M  V30 4427 H 424.883 0.0880081 -5.73232 0
M  V30 4428 H 423.28 -0.66861 -5.96364 0
M  V30 4429 H 424.35 -1.26367 -4.68145 0
M  V30 4430 N 425.693 1.55336 -0.266172 0
M  V30 4431 C 426.941 1.99003 0.35246 0
M  V30 4432 C 427.262 1.15591 1.57047 0
M  V30 4433 O 426.532 0.243268 1.94384 0
M  V30 4434 H 425.112 0.735025 0.133217 0
M  V30 4435 H 427.774 1.91367 -0.369434 0
M  V30 4436 H 426.87 3.05289 0.648453 0
M  V30 4437 N 427.171 -0.0066808 1.57599 0
M  V30 4438 C 428.418 -0.69292 1.90276 0
M  V30 4439 C 428.746 -1.74148 0.866192 0
M  V30 4440 O 428.001 -1.95268 -0.129933 0
M  V30 4441 C 428.3 -1.37939 3.29708 0
M  V30 4442 C 427.966 -0.464679 4.48499 0
M  V30 4443 C 426.628 -0.212809 4.80729 0
M  V30 4444 C 428.98 0.16551 5.20937 0
M  V30 4445 C 426.308 0.677653 5.82773 0
M  V30 4446 C 428.66 1.04381 6.23929 0
M  V30 4447 C 427.324 1.30492 6.54621 0
M  V30 4448 H 426.594 -0.253558 0.696268 0
M  V30 4449 H 429.241 0.0474123 1.91441 0
M  V30 4450 H 427.546 -2.1936 3.24636 0
M  V30 4451 H 429.243 -1.9163 3.52249 0
M  V30 4452 H 425.833 -0.671153 4.23313 0
M  V30 4453 H 430.017 -0.0160756 4.96297 0
M  V30 4454 H 425.273 0.88803 6.04917 0
M  V30 4455 H 429.447 1.53851 6.79193 0
M  V30 4456 H 427.074 1.99662 7.33512 0
M  V30 4457 N 428.649 -1.55105 -0.279332 0
M  V30 4458 C 429.877 -1.7943 -1.03017 0
M  V30 4459 C 430.292 -0.564456 -1.80165 0
M  V30 4460 O 429.649 0.466326 -1.76442 0
M  V30 4461 C 429.7 -3.0155 -1.99374 0
M  V30 4462 O 429.421 -4.19784 -1.25352 0
M  V30 4463 C 430.922 -3.3843 -2.86321 0
M  V30 4464 H 428.142 -0.597882 -0.304594 0
M  V30 4465 H 430.686 -2.02105 -0.312035 0
M  V30 4466 H 428.841 -2.81019 -2.66659 0
M  V30 4467 H 429.255 -4.88781 -1.90246 0
M  V30 4468 H 430.729 -4.27066 -3.49741 0
M  V30 4469 H 431.206 -2.57549 -3.5576 0
M  V30 4470 H 431.812 -3.61197 -2.24536 0
M  V30 4471 N 430.127 0.543554 -1.4793 0
M  V30 4472 C 431.538 1.12561 -1.48953 0
M  V30 4473 C 431.889 1.94578 -0.251754 0
M  V30 4474 O 431.014 2.0665 0.642255 0
M  V30 4475 C 431.609 2.04801 -2.69892 0
M  V30 4476 C 430.168 2.58251 -2.73831 0
M  V30 4477 C 429.315 1.34918 -2.42265 0
M  V30 4478 H 432.266 0.32947 -1.55242 0
M  V30 4479 H 432.287 2.88886 -2.47639 0
M  V30 4480 H 431.799 1.4508 -3.59963 0
M  V30 4481 H 429.9 3.21732 -1.87934 0
M  V30 4482 H 430.013 2.98312 -3.74895 0
M  V30 4483 H 428.377 1.66046 -1.93134 0
M  V30 4484 H 429.16 0.769693 -3.3456 0
M  V30 4485 N 431.605 1.3629 0.791371 0
M  V30 4486 C 432.515 1.32606 1.93527 0
M  V30 4487 C 433.531 0.228541 1.72493 0
M  V30 4488 O 434.707 0.460571 1.96063 0
M  V30 4489 C 431.772 1.11271 3.28359 0
M  V30 4490 C 430.833 2.3048 3.62185 0
M  V30 4491 C 430.066 2.10154 4.90583 0
M  V30 4492 O 430.289 1.07572 5.60165 0
M  V30 4493 O 429.223 2.97884 5.23019 0
M  V30 4494 H 433.049 2.28909 1.99585 0
M  V30 4495 H 430.634 1.16818 0.931344 0
M  V30 4496 H 432.516 1.01283 4.09047 0
M  V30 4497 H 431.191 0.180292 3.23198 0
M  V30 4498 H 430.098 2.46036 2.81811 0
M  V30 4499 H 431.431 3.22221 3.72068 0
M  V30 4500 N 433.083 -1.0153 1.20538 0
M  V30 4501 C 434.033 -2.08482 0.922991 0
M  V30 4502 C 435.017 -1.60469 -0.117702 0
M  V30 4503 O 436.209 -1.76772 0.0898465 0
M  V30 4504 C 433.338 -3.39952 0.478312 0
M  V30 4505 C 432.424 -3.94662 1.5525 0
M  V30 4506 N 432.815 -4.22866 2.77521 0
M  V30 4507 C 431.113 -4.22825 1.41897 0
M  V30 4508 C 431.814 -4.67002 3.4682 0
M  V30 4509 N 430.79 -4.69356 2.74237 0
M  V30 4510 H 434.592 -2.28199 1.85209 0
M  V30 4511 H 432.106 -1.19512 1.09957 0
M  V30 4512 H 434.103 -4.16105 0.257408 0
M  V30 4513 H 432.763 -3.21648 -0.444148 0
M  V30 4514 H 433.774 -4.11732 3.1416 0
M  V30 4515 H 430.451 -4.13714 0.561015 0
M  V30 4516 H 431.841 -4.97632 4.51455 0
M  V30 4517 N 434.561 -1.01147 -1.20859 0
M  V30 4518 C 435.493 -0.535546 -2.22855 0
M  V30 4519 C 436.506 0.379323 -1.58319 0
M  V30 4520 O 437.695 0.178489 -1.77605 0
M  V30 4521 C 434.795 0.240962 -3.38042 0
M  V30 4522 C 433.968 -0.674562 -4.32167 0
M  V30 4523 C 433.027 0.053467 -5.26173 0
M  V30 4524 O 432.053 -0.567339 -5.66366 0
M  V30 4525 N 433.255 1.32997 -5.65059 0
M  V30 4526 H 436.02 -1.41268 -2.64317 0
M  V30 4527 H 433.581 -0.888386 -1.35349 0
M  V30 4528 H 435.573 0.737115 -3.97931 0
M  V30 4529 H 434.143 1.01935 -2.95513 0
M  V30 4530 H 433.363 -1.35111 -3.70322 0
M  V30 4531 H 434.651 -1.2974 -4.91981 0
M  V30 4532 H 434.049 1.85536 -5.34409 0
M  V30 4533 H 432.606 1.77095 -6.2728 0
M  V30 4534 N 436.039 1.36541 -0.78704 0
M  V30 4535 C 437.455 1.52571 -0.46844 0
M  V30 4536 C 437.655 1.7415 1.01361 0
M  V30 4537 O 436.711 1.77163 1.79915 0
M  V30 4538 C 438.024 2.71299 -1.29682 0
M  V30 4539 C 439.572 2.85169 -1.29027 0
M  V30 4540 C 440.047 4.06898 -2.10233 0
M  V30 4541 N 441.538 4.1404 -2.07666 0
M  V30 4542 C 442.273 5.07301 -2.67271 0
M  V30 4543 N 441.769 6.06021 -3.35724 0
M  V30 4544 N 443.562 4.99898 -2.57018 0
M  V30 4545 H 435.713 1.20788 -1.74711 0
M  V30 4546 H 437.976 0.589364 -0.742532 0
M  V30 4547 H 437.682 2.61868 -2.34773 0
M  V30 4548 H 437.556 3.6539 -0.936479 0
M  V30 4549 H 439.943 2.94062 -0.247284 0
M  V30 4550 H 440.024 1.91992 -1.69035 0
M  V30 4551 H 439.668 3.98766 -3.1456 0
M  V30 4552 H 439.598 4.99218 -1.67597 0
M  V30 4553 H 442.089 3.43357 -1.57843 0
M  V30 4554 H 442.402 6.73741 -3.78541 0
M  V30 4555 H 440.747 6.06253 -3.39826 0
M  V30 4556 H 443.938 4.21724 -2.03142 0
M  V30 4557 H 444.111 5.72392 -3.03761 0
M  V30 4558 N 437.518 0.538854 1.48102 0
M  V30 4559 C 438.795 -0.0568108 1.95517 0
M  V30 4560 C 439.175 -1.50408 1.48124 0
M  V30 4561 O 438.523 -2.17133 0.711727 0
M  V30 4562 C 438.733 0.0696262 3.48931 0
M  V30 4563 C 440.081 -0.0851202 4.24515 0
M  V30 4564 O 441.105 -0.0037347 3.562 0
M  V30 4565 O 439.964 -0.257025 5.45895 0
M  V30 4566 H 437.058 -0.0743695 0.823649 0
M  V30 4567 H 439.604 0.604081 1.58584 0
M  V30 4568 H 438.376 1.07744 3.76174 0
M  V30 4569 H 437.999 -0.629714 3.92582 0
M  V30 4570 N 438.996 -1.55193 0.274407 0
M  V30 4571 C 440.243 -1.99581 -0.342579 0
M  V30 4572 C 440.571 -1.1628 -1.55914 0
M  V30 4573 O 439.826 -0.22029 -1.94456 0
M  V30 4574 C 440.125 -3.49019 -0.769458 0
M  V30 4575 C 439.791 -4.49598 0.342389 0
M  V30 4576 C 438.453 -4.76821 0.647686 0
M  V30 4577 C 440.805 -5.0964 1.09163 0
M  V30 4578 C 438.133 -5.61354 1.70581 0
M  V30 4579 C 440.485 -5.95323 2.13948 0
M  V30 4580 C 439.149 -6.20867 2.45113 0
M  V30 4581 H 438.419 -0.730319 -0.125358 0
M  V30 4582 H 441.066 -1.87529 0.387971 0
M  V30 4583 H 439.371 -3.58544 -1.57967 0
M  V30 4584 H 441.068 -3.8077 -1.25757 0
M  V30 4585 H 437.658 -4.28496 0.094318 0
M  V30 4586 H 441.842 -4.88632 0.869024 0
M  V30 4587 H 437.098 -5.79392 1.9523 0
M  V30 4588 H 441.272 -6.40881 2.72478 0
M  V30 4589 H 438.899 -6.86162 3.27239 0
M  V30 4590 N 440.474 -0.00167713 -1.576 0
M  V30 4591 C 441.723 0.682021 -1.89819 0
M  V30 4592 C 442.036 1.74844 -0.876871 0
M  V30 4593 O 443.242 2.48688 -1.08934 0
M  V30 4594 C 441.698 1.26425 -3.36964 0
M  V30 4595 C 441.306 0.232568 -4.47396 0
M  V30 4596 C 443.05 1.92604 -3.78291 0
M  V30 4597 C 440.957 0.824882 -5.85619 0
M  V30 4598 H 439.887 0.258499 -0.708304 0
M  V30 4599 H 442.538 -0.0624957 -1.83394 0
M  V30 4600 H 440.92 2.05949 -3.38232 0
M  V30 4601 H 442.094 -0.5382 -4.57646 0
M  V30 4602 H 440.409 -0.32888 -4.15099 0
M  V30 4603 H 443.006 2.37827 -4.78897 0
M  V30 4604 H 443.349 2.75732 -3.11894 0
M  V30 4605 H 443.882 1.19812 -3.79328 0
M  V30 4606 H 440.621 0.0323542 -6.55492 0
M  V30 4607 H 440.141 1.56477 -5.79029 0
M  V30 4608 H 441.82 1.32301 -6.33329 0
M  V30 4609 N 441.952 1.55251 0.271103 0
M  V30 4610 C 442.915 1.87484 1.31842 0
M  V30 4611 C 443.915 0.749545 1.42262 0
M  V30 4612 O 445.105 1.01771 1.4138 0
M  V30 4613 C 442.237 2.0818 2.69951 0
M  V30 4614 H 443.43 2.81108 1.0449 0
M  V30 4615 H 440.983 1.47771 0.509258 0
M  V30 4616 H 441.718 1.16944 3.02481 0
M  V30 4617 H 441.503 2.90114 2.63774 0
M  V30 4618 H 442.993 2.34385 3.4562 0
M  V30 4619 N 443.43 -0.535701 1.48216 0
M  V30 4620 C 444.846 -0.863701 1.3421 0
M  V30 4621 C 445.046 -1.98458 0.34879 0
M  V30 4622 O 444.102 -2.51432 -0.23204 0
M  V30 4623 C 445.415 -1.23662 2.74095 0
M  V30 4624 C 446.963 -1.34683 2.82541 0
M  V30 4625 C 447.438 -1.75322 4.23115 0
M  V30 4626 N 448.929 -1.82434 4.2576 0
M  V30 4627 C 449.664 -2.15252 5.31464 0
M  V30 4628 N 449.16 -2.46533 6.47452 0
M  V30 4629 N 450.953 -2.16209 5.18855 0
M  V30 4630 H 443.104 0.203965 2.11418 0
M  V30 4631 H 445.367 0.0286033 0.947568 0
M  V30 4632 H 445.073 -0.486674 3.48316 0
M  V30 4633 H 444.947 -2.18805 3.07253 0
M  V30 4634 H 447.334 -2.08756 2.08579 0
M  V30 4635 H 447.415 -0.376756 2.5301 0
M  V30 4636 H 447.059 -1.01812 4.97591 0
M  V30 4637 H 446.989 -2.7337 4.50085 0
M  V30 4638 H 449.48 -1.6056 3.42095 0
M  V30 4639 H 449.793 -2.70662 7.23852 0
M  V30 4640 H 448.138 -2.44065 6.50736 0
M  V30 4641 H 451.329 -1.91224 4.2726 0
M  V30 4642 H 451.502 -2.41453 6.01335 0
M  V30 4643 N 444.908 -1.36708 -0.784132 0
M  V30 4644 C 446.185 -1.21776 -1.53069 0
M  V30 4645 C 446.565 0.193876 -2.10208 0
M  V30 4646 O 445.913 1.20012 -1.94446 0
M  V30 4647 C 446.123 -2.30395 -2.62143 0
M  V30 4648 C 447.471 -2.67325 -3.29882 0
M  V30 4649 O 448.495 -2.29478 -2.7243 0
M  V30 4650 O 447.354 -3.32485 -4.33724 0
M  V30 4651 H 444.448 -0.474459 -0.677361 0
M  V30 4652 H 446.994 -1.48454 -0.82216 0
M  V30 4653 H 445.766 -3.2498 -2.17953 0
M  V30 4654 H 445.389 -2.05112 -3.40609 0
M  V30 4655 N 446.386 1.0089 -1.21074 0
M  V30 4656 C 447.316 2.1145 -0.990523 0
M  V30 4657 C 448.297 1.69897 0.0831699 0
M  V30 4658 O 449.482 1.94052 -0.0758853 0
M  V30 4659 C 446.612 3.42914 -0.550177 0
M  V30 4660 C 445.566 3.98244 -1.56799 0
M  V30 4661 C 444.892 5.25568 -0.984013 0
M  V30 4662 C 446.192 4.30752 -2.95381 0
M  V30 4663 H 447.886 2.3013 -1.91521 0
M  V30 4664 H 445.432 1.10592 -0.92225 0
M  V30 4665 H 447.385 4.19653 -0.383305 0
M  V30 4666 H 446.109 3.24014 0.41015 0
M  V30 4667 H 444.768 3.23621 -1.72236 0
M  V30 4668 H 444.416 5.02998 -0.0155216 0
M  V30 4669 H 444.116 5.63551 -1.66384 0
M  V30 4670 H 445.64 6.04955 -0.828378 0
M  V30 4671 H 447.054 4.98349 -2.8341 0
M  V30 4672 H 445.451 4.79869 -3.60341 0
M  V30 4673 H 446.521 3.39192 -3.46521 0
M  V30 4674 N 447.864 1.01787 1.20321 0
M  V30 4675 C 449.112 0.706538 1.89347 0
M  V30 4676 C 449.433 -0.766289 1.79313 0
M  V30 4677 O 448.703 -1.55126 1.19635 0
M  V30 4678 H 447.283 0.258348 0.700903 0
M  V30 4679 H 449.945 1.28974 1.46122 0
M  V30 4680 H 449.041 0.991066 2.95946 0
M  V30 4681 N 449.342 -1.36122 0.79427 0
M  V30 4682 C 450.753 -1.81646 0.431446 0
M  V30 4683 C 451.104 -1.66043 -1.04518 0
M  V30 4684 O 450.229 -1.1841 -1.8113 0
M  V30 4685 C 450.824 -3.29785 0.776341 0
M  V30 4686 C 449.383 -3.73501 0.466282 0
M  V30 4687 C 448.53 -2.58313 1.00844 0
M  V30 4688 H 451.481 -1.24274 0.986995 0
M  V30 4689 H 451.502 -3.80437 0.0692413 0
M  V30 4690 H 451.014 -3.4111 1.8511 0
M  V30 4691 H 449.115 -3.67733 -0.600245 0
M  V30 4692 H 449.228 -4.68754 0.990288 0
M  V30 4693 H 447.592 -2.5102 0.431406 0
M  V30 4694 H 448.375 -2.72421 2.08906 0
M  V30 4695 N 450.82 -0.546701 -1.47814 0
M  V30 4696 C 452.048 -0.0232857 -2.06887 0
M  V30 4697 C 452.463 1.26571 -1.4009 0
M  V30 4698 O 451.82 1.7569 -0.493906 0
M  V30 4699 C 451.871 0.186975 -3.61016 0
M  V30 4700 O 451.592 -1.05097 -4.25307 0
M  V30 4701 C 453.093 0.748872 -4.36929 0
M  V30 4702 H 450.313 -0.0410763 -0.669742 0
M  V30 4703 H 452.857 -0.757117 -1.89968 0
M  V30 4704 H 451.012 0.870903 -3.77484 0
M  V30 4705 H 451.426 -0.842121 -5.17695 0
M  V30 4706 H 452.9 0.845334 -5.45489 0
M  V30 4707 H 453.377 1.75772 -4.02493 0
M  V30 4708 H 453.983 0.100979 -4.2518 0
M  V30 4709 N 452.299 1.55045 -0.282633 0
M  V30 4710 C 453.229 2.2579 0.595066 0
M  V30 4711 C 454.21 1.25074 1.15284 0
M  V30 4712 O 455.395 1.5381 1.18559 0
M  V30 4713 C 452.525 2.98472 1.77572 0
M  V30 4714 C 451.479 4.0618 1.34914 0
M  V30 4715 C 450.805 4.66477 2.6135 0
M  V30 4716 C 452.105 5.1996 0.493821 0
M  V30 4717 H 453.799 2.994 0.00505653 0
M  V30 4718 H 451.345 1.44 0.000992001 0
M  V30 4719 H 453.298 3.46677 2.39568 0
M  V30 4720 H 452.022 2.2241 2.39168 0
M  V30 4721 H 450.681 3.58797 0.752338 0
M  V30 4722 H 450.329 3.87074 3.2122 0
M  V30 4723 H 450.029 5.39207 2.33516 0
M  V30 4724 H 451.553 5.17435 3.24181 0
M  V30 4725 H 452.967 5.64172 1.01898 0
M  V30 4726 H 451.364 5.99299 0.310047 0
M  V30 4727 H 452.434 4.82462 -0.485593 0
M  V30 4728 N 453.777 0.010035 1.57597 0
M  V30 4729 C 454.74 -0.963029 2.07986 0
M  V30 4730 C 455.74 -1.26619 0.991173 0
M  V30 4731 O 456.93 -1.2097 1.25347 0
M  V30 4732 C 454.062 -2.2851 2.52974 0
M  V30 4733 H 455.255 -0.526971 2.95234 0
M  V30 4734 H 452.808 -0.237639 1.54483 0
M  V30 4735 H 453.543 -2.76784 1.69 0
M  V30 4736 H 453.328 -2.07824 3.32493 0
M  V30 4737 H 454.818 -2.98294 2.9225 0
M  V30 4738 N 455.255 -1.55392 -0.262866 0
M  V30 4739 C 456.203 -1.8977 -1.345 0
M  V30 4740 C 457.197 -0.775063 -1.50629 0
M  V30 4741 O 458.403 -0.959519 -1.52293 0
M  V30 4742 H 454.778 -0.602467 -0.450041 0
M  V30 4743 H 456.749 -2.80147 -1.02762 0
M  V30 4744 C 455.498 -2.19501 -2.69657 0
M  V30 4745 H 454.821 -3.05378 -2.5804 0
M  V30 4746 H 456.261 -2.47469 -3.44289 0
M  V30 4747 C 454.72 -1.00597 -3.21531 0
M  V30 4748 O 455.25 -0.245768 -4.00947 0
M  V30 4749 N 453.456 -0.800911 -2.79345 0
M  V30 4750 H 453.003 -1.42079 -2.14875 0
M  V30 4751 H 452.961 -0.00697996 -3.14399 0
M  V30 4752 N 456.733 0.527833 -1.48498 0
M  V30 4753 C 457.958 1.313 -1.60546 0
M  V30 4754 C 458.383 1.86199 -0.26672 0
M  V30 4755 O 457.741 1.64513 0.761918 0
M  V30 4756 C 457.789 2.43818 -2.65678 0
M  V30 4757 O 456.893 3.46916 -2.22987 0
M  V30 4758 H 456.234 0.388784 -0.538277 0
M  V30 4759 H 458.764 0.634896 -1.945 0
M  V30 4760 H 458.774 2.89973 -2.87018 0
M  V30 4761 H 457.449 2.03222 -3.62869 0
M  V30 4762 H 456.026 3.06864 -2.11869 0
M  V30 4763 N 458.211 1.37122 0.776871 0
M  V30 4764 C 459.439 1.3523 1.5659 0
M  V30 4765 C 459.854 -0.0635518 1.88693 0
M  V30 4766 O 459.211 -1.02394 1.51069 0
M  V30 4767 C 459.262 2.18583 2.8793 0
M  V30 4768 O 458.983 3.5465 2.57206 0
M  V30 4769 C 460.484 2.24612 3.82183 0
M  V30 4770 H 457.704 0.4634 0.485285 0
M  V30 4771 H 460.248 1.80392 0.963266 0
M  V30 4772 H 458.403 1.76943 3.4463 0
M  V30 4773 H 458.817 3.98286 3.41275 0
M  V30 4774 H 460.291 2.87267 4.71361 0
M  V30 4775 H 460.768 1.25309 4.20944 0
M  V30 4776 H 461.374 2.66543 3.31414 0
M  V30 4777 N 459.689 -1.00246 1.21608 0
M  V30 4778 C 460.639 -2.07492 0.945051 0
M  V30 4779 C 461.623 -1.60585 -0.100675 0
M  V30 4780 O 462.815 -1.76667 0.10859 0
M  V30 4781 C 459.944 -3.39425 0.514342 0
M  V30 4782 C 459.03 -3.92993 1.59428 0
M  V30 4783 N 459.421 -4.19898 2.81991 0
M  V30 4784 C 457.719 -4.21297 1.46374 0
M  V30 4785 C 458.42 -4.63297 3.51754 0
M  V30 4786 N 457.396 -4.66421 2.79199 0
M  V30 4787 H 461.198 -2.26222 1.87619 0
M  V30 4788 H 458.712 -1.18339 1.11219 0
M  V30 4789 H 460.709 -4.15808 0.301527 0
M  V30 4790 H 459.369 -3.22101 -0.410008 0
M  V30 4791 H 460.38 -4.08377 3.1851 0
M  V30 4792 H 457.057 -4.13095 0.604863 0
M  V30 4793 H 458.447 -4.92816 4.56708 0
M  V30 4794 N 461.167 -1.02423 -1.1978 0
M  V30 4795 C 462.117 -0.571689 -2.20716 0
M  V30 4796 C 463.101 0.377077 -1.56419 0
M  V30 4797 O 464.293 0.198801 -1.7588 0
M  V30 4798 C 461.422 0.0808555 -3.43205 0
M  V30 4799 C 460.508 -0.890073 -4.14655 0
M  V30 4800 N 460.899 -2.05065 -4.62366 0
M  V30 4801 C 459.197 -0.71252 -4.40272 0
M  V30 4802 C 459.898 -2.66264 -5.17183 0
M  V30 4803 N 458.874 -1.94264 -5.07703 0
M  V30 4804 H 462.676 -1.45636 -2.55279 0
M  V30 4805 H 460.19 -0.890596 -1.35802 0
M  V30 4806 H 462.187 0.422654 -4.14752 0
M  V30 4807 H 460.847 0.961274 -3.10144 0
M  V30 4808 H 461.858 -2.43026 -4.57339 0
M  V30 4809 H 458.535 0.119199 -4.1733 0
M  V30 4810 H 459.925 -3.64526 -5.64421 0
M  V30 4811 N 462.645 1.35699 -0.801477 0
M  V30 4812 C 463.593 2.3177 -0.196317 0
M  V30 4813 C 464.587 1.56388 0.651081 0
M  V30 4814 O 465.793 1.71557 0.544815 0
M  V30 4815 H 462.168 0.750669 -0.0447189 0
M  V30 4816 H 464.139 2.8036 -1.02181 0
M  V30 4817 C 462.888 3.41671 0.644702 0
M  V30 4818 H 462.211 3.998 0.0019921 0
M  V30 4819 H 463.651 4.11184 1.0346 0
M  V30 4820 C 462.11 2.84271 1.80808 0
M  V30 4821 O 462.64 2.77408 2.9053 0
M  V30 4822 N 460.846 2.41391 1.61799 0
M  V30 4823 H 460.393 2.47173 0.725493 0
M  V30 4824 H 460.351 2.03334 2.39797 0
M  V30 4825 N 464.123 0.554532 1.47522 0
M  V30 4826 C 465.369 0.0295227 2.02779 0
M  V30 4827 C 465.702 -1.31582 1.42828 0
M  V30 4828 O 464.977 -1.85561 0.582872 0
M  V30 4829 C 465.26 -0.0664057 3.60039 0
M  V30 4830 C 465.113 1.30585 4.30427 0
M  V30 4831 C 466.432 -0.781162 4.33112 0
M  V30 4832 H 463.551 0.0122027 0.736899 0
M  V30 4833 H 466.193 0.716305 1.7598 0
M  V30 4834 H 464.343 -0.651307 3.83002 0
M  V30 4835 H 466.015 1.93374 4.18813 0
M  V30 4836 H 464.258 1.88125 3.90886 0
M  V30 4837 H 464.929 1.19147 5.38988 0
M  V30 4838 H 467.405 -0.284565 4.15126 0
M  V30 4839 H 466.281 -0.817237 5.42782 0
M  V30 4840 H 466.542 -1.83672 4.0214 0
M  V30 4841 N 465.601 -1.54893 0.290851 0
M  V30 4842 C 467.017 -1.59476 -0.0628432 0
M  V30 4843 C 467.217 -1.30795 -1.5328 0
M  V30 4844 O 466.273 -1.07644 -2.28406 0
M  V30 4845 C 467.586 -2.98928 0.325962 0
M  V30 4846 C 469.134 -3.11799 0.273882 0
M  V30 4847 C 469.609 -4.53544 0.637359 0
M  V30 4848 N 471.1 -4.59433 0.589507 0
M  V30 4849 C 471.835 -5.67164 0.84335 0
M  V30 4850 N 471.331 -6.82975 1.16263 0
M  V30 4851 N 473.124 -5.56786 0.771091 0
M  V30 4852 H 465.275 -1.71798 1.24896 0
M  V30 4853 H 467.538 -0.801879 0.505663 0
M  V30 4854 H 467.244 -3.24805 1.34887 0
M  V30 4855 H 467.118 -3.75793 -0.325441 0
M  V30 4856 H 469.505 -2.85677 -0.739765 0
M  V30 4857 H 469.586 -2.37112 0.959766 0
M  V30 4858 H 469.23 -4.80394 1.64877 0
M  V30 4859 H 469.16 -5.26553 -0.0704866 0
M  V30 4860 H 471.651 -3.76245 0.353252 0
M  V30 4861 H 471.964 -7.61048 1.34257 0
M  V30 4862 H 470.309 -6.84552 1.20057 0
M  V30 4863 H 473.5 -4.65187 0.521383 0
M  V30 4864 H 473.673 -6.40664 0.972295 0
M  V30 4865 N 467.08 -0.0183926 -1.57589 0
M  V30 4866 C 468.01 0.965596 -2.12599 0
M  V30 4867 C 468.991 1.34641 -1.0395 0
M  V30 4868 O 470.176 1.42693 -1.31729 0
M  V30 4869 C 467.306 2.25149 -2.64434 0
M  V30 4870 C 466.26 2.01175 -3.77773 0
M  V30 4871 C 465.586 3.35937 -4.15994 0
M  V30 4872 C 466.886 1.35953 -5.04296 0
M  V30 4873 H 468.58 0.507504 -2.95067 0
M  V30 4874 H 466.126 0.242671 -1.41941 0
M  V30 4875 H 468.079 2.94357 -3.01549 0
M  V30 4876 H 466.803 2.73105 -1.79112 0
M  V30 4877 H 465.462 1.34388 -3.4108 0
M  V30 4878 H 465.11 3.81631 -3.27669 0
M  V30 4879 H 464.81 3.20705 -4.92364 0
M  V30 4880 H 466.334 4.0643 -4.55683 0
M  V30 4881 H 467.748 1.95144 -5.39065 0
M  V30 4882 H 466.145 1.31152 -5.85593 0
M  V30 4883 H 467.215 0.331071 -4.83768 0
M  V30 4884 N 468.558 1.5553 0.254621 0
M  V30 4885 C 469.488 1.9268 1.31897 0
M  V30 4886 C 470.469 0.790797 1.506 0
M  V30 4887 O 471.654 1.05045 1.63337 0
M  V30 4888 C 468.784 2.21477 2.67517 0
M  V30 4889 C 467.738 3.37256 2.63519 0
M  V30 4890 C 467.064 3.51576 4.02862 0
M  V30 4891 C 468.364 4.73157 2.21179 0
M  V30 4892 H 470.058 2.81832 1.01051 0
M  V30 4893 H 467.604 1.35599 0.484662 0
M  V30 4894 H 469.557 2.46055 3.42104 0
M  V30 4895 H 468.281 1.29144 2.99982 0
M  V30 4896 H 466.94 3.12675 1.9139 0
M  V30 4897 H 466.588 2.56676 4.32581 0
M  V30 4898 H 466.288 4.2943 4.01078 0
M  V30 4899 H 467.812 3.78467 4.79161 0
M  V30 4900 H 469.226 4.97158 2.85494 0
M  V30 4901 H 467.623 5.54058 2.30521 0
M  V30 4902 H 468.693 4.70739 1.16332 0
M  V30 4903 N 470.036 -0.519951 1.48776 0
M  V30 4904 C 470.969 -1.64053 1.58625 0
M  V30 4905 C 471.947 -1.5664 0.43618 0
M  V30 4906 O 473.131 -1.76969 0.649159 0
M  V30 4907 C 470.258 -3.02497 1.52359 0
M  V30 4908 C 469.304 -3.28235 2.72331 0
M  V30 4909 S 470.137 -3.13414 4.34203 0
M  V30 4910 C 471.293 -4.54287 4.30551 0
M  V30 4911 H 471.526 -1.5545 2.53422 0
M  V30 4912 H 469.059 -0.703681 1.37433 0
M  V30 4913 H 471.017 -3.82336 1.4943 0
M  V30 4914 H 469.678 -3.08531 0.588824 0
M  V30 4915 H 468.871 -4.29256 2.64113 0
M  V30 4916 H 468.473 -2.56085 2.72574 0
M  V30 4917 H 470.765 -5.46006 4.01103 0
M  V30 4918 H 471.708 -4.67558 5.31785 0
M  V30 4919 H 472.116 -4.34079 3.60881 0
M  V30 4920 N 471.514 -1.37532 -0.769588 0
M  V30 4921 C 472.444 -1.36172 -1.89682 0
M  V30 4922 C 473.425 -0.23001 -1.68538 0
M  V30 4923 O 474.61 -0.43069 -1.89364 0
M  V30 4924 C 471.74 -1.1701 -3.26995 0
M  V30 4925 C 470.694 -2.27216 -3.62708 0
M  V30 4926 C 470.02 -1.93174 -4.98586 0
M  V30 4927 C 471.32 -3.6941 -3.69234 0
M  V30 4928 H 473.014 -2.30499 -1.91078 0
M  V30 4929 H 470.56 -1.10953 -0.917902 0
M  V30 4930 H 472.513 -1.14688 -4.05493 0
M  V30 4931 H 471.237 -0.191395 -3.26039 0
M  V30 4932 H 469.896 -2.28697 -2.86519 0
M  V30 4933 H 469.544 -0.938281 -4.94171 0
M  V30 4934 H 469.244 -2.66973 -5.23449 0
M  V30 4935 H 470.768 -1.92443 -5.79481 0
M  V30 4936 H 472.182 -3.70047 -4.37879 0
M  V30 4937 H 470.579 -4.4228 -4.05597 0
M  V30 4938 H 471.649 -4.0288 -2.69844 0
M  V30 4939 N 472.992 0.995999 -1.22138 0
M  V30 4940 C 474.269 1.70834 -0.952642 0
M  V30 4941 C 474.649 2.04257 0.533119 0
M  V30 4942 O 473.997 1.72343 1.50034 0
M  V30 4943 C 474.207 2.96119 -1.84701 0
M  V30 4944 C 475.555 3.68962 -2.10124 0
M  V30 4945 O 476.579 3.0612 -1.82124 0
M  V30 4946 O 475.438 4.82017 -2.57531 0
M  V30 4947 H 472.532 0.745498 -0.357997 0
M  V30 4948 H 475.078 1.05262 -1.33109 0
M  V30 4949 H 473.85 2.67898 -2.85213 0
M  V30 4950 H 473.473 3.6943 -1.46995 0
M  V30 4951 N 474.47 1.03057 1.19235 0
M  V30 4952 C 475.747 0.642608 1.84743 0
M  V30 4953 C 476.127 -0.878577 1.91948 0
M  V30 4954 O 475.475 -1.77597 1.43776 0
M  V30 4955 C 475.685 1.30665 3.23616 0
M  V30 4956 C 477.033 1.43098 3.9976 0
M  V30 4957 O 478.057 1.26396 3.3302 0
M  V30 4958 O 476.916 1.70223 5.19313 0
M  V30 4959 H 474.01 0.223573 0.796206 0
M  V30 4960 H 476.556 1.12883 1.26711 0
M  V30 4961 H 475.328 2.34544 3.13217 0
M  V30 4962 H 474.951 0.808405 3.89295 0
M  V30 4963 N 475.948 -1.35272 0.808662 0
M  V30 4964 C 476.88 -2.28507 0.178149 0
M  V30 4965 C 477.893 -1.50377 -0.623754 0
M  V30 4966 O 479.082 -1.72583 -0.455774 0
M  V30 4967 C 476.182 -3.30038 -0.769959 0
M  V30 4968 C 475.355 -4.37398 -0.0139749 0
M  V30 4969 C 474.414 -5.18775 -0.880875 0
M  V30 4970 O 473.44 -5.68236 -0.331059 0
M  V30 4971 N 474.642 -5.37087 -2.20267 0
M  V30 4972 H 477.407 -2.83255 0.979106 0
M  V30 4973 H 474.968 -1.47643 0.664308 0
M  V30 4974 H 476.96 -3.81371 -1.35418 0
M  V30 4975 H 475.53 -2.75789 -1.47171 0
M  V30 4976 H 474.75 -3.86971 0.751468 0
M  V30 4977 H 476.038 -5.06268 0.506965 0
M  V30 4978 H 475.436 -4.9855 -2.67328 0
M  V30 4979 H 473.993 -5.91593 -2.73608 0
M  V30 4980 N 477.426 -0.562348 -1.47226 0
M  V30 4981 C 478.842 -0.222492 -1.58042 0
M  V30 4982 C 479.042 1.27505 -1.56028 0
M  V30 4983 O 478.098 2.05555 -1.46641 0
M  V30 4984 C 479.411 -0.853694 -2.88327 0
M  V30 4985 C 480.959 -0.825397 -3.01921 0
M  V30 4986 C 481.434 -1.43576 -4.34914 0
M  V30 4987 N 482.925 -1.39918 -4.41562 0
M  V30 4988 C 483.66 -1.84103 -5.43041 0
M  V30 4989 N 483.156 -2.36167 -6.51304 0
M  V30 4990 N 484.949 -1.75142 -5.34118 0
M  V30 4991 H 477.1 -1.53525 -1.46778 0
M  V30 4992 H 479.363 -0.640527 -0.698877 0
M  V30 4993 H 479.069 -1.90635 -2.95552 0
M  V30 4994 H 478.943 -0.34977 -3.75575 0
M  V30 4995 H 481.33 0.218583 -2.94289 0
M  V30 4996 H 481.411 -1.36713 -2.16202 0
M  V30 4997 H 481.055 -2.47884 -4.43301 0
M  V30 4998 H 480.985 -0.869427 -5.19373 0
M  V30 4999 H 483.476 -1.0184 -3.63919 0
M  V30 5000 H 483.789 -2.67793 -7.24919 0
M  V30 5001 H 482.134 -2.40181 -6.52179 0
M  V30 5002 H 485.325 -1.34241 -4.48439 0
M  V30 5003 H 485.498 -2.09895 -6.13065 0
M  V30 5004 N 478.904 1.54736 -0.299062 0
M  V30 5005 C 479.834 2.26409 0.571085 0
M  V30 5006 C 480.815 1.2629 1.13951 0
M  V30 5007 O 482 1.55059 1.16921 0
M  V30 5008 C 479.13 3.00338 1.74396 0
M  V30 5009 C 478.084 4.07588 1.30599 0
M  V30 5010 C 477.41 4.69222 2.56387 0
M  V30 5011 C 478.71 5.20455 0.438645 0
M  V30 5012 H 480.404 2.99388 -0.0266991 0
M  V30 5013 H 477.95 1.43993 -0.0142812 0
M  V30 5014 H 479.903 3.49198 2.35878 0
M  V30 5015 H 478.627 2.24934 2.36796 0
M  V30 5016 H 477.286 3.59575 0.71424 0
M  V30 5017 H 476.934 3.9046 3.17097 0
M  V30 5018 H 476.634 5.41653 2.27784 0
M  V30 5019 H 478.158 5.20844 3.18675 0
M  V30 5020 H 479.572 5.65221 0.959085 0
M  V30 5021 H 477.969 5.99594 0.246466 0
M  V30 5022 H 479.039 4.8192 -0.536738 0
M  V30 5023 N 480.382 0.0267497 1.57577 0
M  V30 5024 C 481.312 -0.954308 2.13108 0
M  V30 5025 C 482.293 -1.34088 1.04663 0
M  V30 5026 O 483.478 -1.41992 1.32484 0
M  V30 5027 C 480.608 -2.23744 2.65624 0
M  V30 5028 C 479.562 -1.99168 3.78835 0
M  V30 5029 C 478.888 -3.33726 4.17769 0
M  V30 5030 C 480.188 -1.33277 5.0501 0
M  V30 5031 H 481.882 -0.491848 2.95332 0
M  V30 5032 H 479.428 -0.23514 1.42067 0
M  V30 5033 H 481.381 -2.92754 3.03106 0
M  V30 5034 H 480.105 -2.72151 1.80558 0
M  V30 5035 H 478.764 -1.32577 3.41788 0
M  V30 5036 H 478.412 -3.79888 3.29688 0
M  V30 5037 H 478.112 -3.18089 4.94058 0
M  V30 5038 H 479.636 -4.04008 4.57832 0
M  V30 5039 H 481.05 -1.92283 5.40093 0
M  V30 5040 H 479.447 -1.28045 5.8628 0
M  V30 5041 H 480.517 -0.305411 4.83937 0
M  V30 5042 N 481.861 -1.55662 -0.24637 0
M  V30 5043 C 482.791 -1.93377 -1.30873 0
M  V30 5044 C 483.772 -0.798773 -1.50179 0
M  V30 5045 O 484.957 -1.0591 -1.62778 0
M  V30 5046 C 482.087 -2.22893 -2.66338 0
M  V30 5047 C 481.041 -3.38649 -2.61727 0
M  V30 5048 C 480.367 -3.53708 -4.00992 0
M  V30 5049 C 481.667 -4.74323 -2.18666 0
M  V30 5050 H 483.361 -2.82363 -0.995552 0
M  V30 5051 H 480.907 -1.35854 -0.477464 0
M  V30 5052 H 482.86 -2.47866 -3.40794 0
M  V30 5053 H 481.584 -1.30733 -2.99293 0
M  V30 5054 H 480.243 -3.13685 -1.89729 0
M  V30 5055 H 479.891 -2.58967 -4.31214 0
M  V30 5056 H 479.591 -4.31551 -3.98795 0
M  V30 5057 H 481.115 -3.81003 -4.77147 0
M  V30 5058 H 482.529 -4.98665 -2.82854 0
M  V30 5059 H 480.926 -5.55273 -2.27579 0
M  V30 5060 H 481.996 -4.71349 -1.13834 0
M  V30 5061 N 483.339 0.512053 -1.4905 0
M  V30 5062 C 484.75 1.09376 -1.51307 0
M  V30 5063 C 485.101 1.94 -0.292971 0
M  V30 5064 O 484.226 2.07965 0.598277 0
M  V30 5065 C 484.821 1.99031 -2.74176 0
M  V30 5066 C 483.38 2.52385 -2.79247 0
M  V30 5067 C 482.527 1.29749 -2.45073 0
M  V30 5068 H 485.478 0.296467 -1.55906 0
M  V30 5069 H 485.499 2.83569 -2.53711 0
M  V30 5070 H 485.011 1.37412 -3.62959 0
M  V30 5071 H 483.112 3.17673 -1.94716 0
M  V30 5072 H 483.225 2.90293 -3.81139 0
M  V30 5073 H 481.589 1.61912 -1.96612 0
M  V30 5074 H 482.372 0.698555 -3.36118 0
M  V30 5075 N 484.817 1.37938 0.762283 0
M  V30 5076 C 485.767 1.30976 1.86626 0
M  V30 5077 C 486.751 0.195714 1.59705 0
M  V30 5078 O 487.943 0.430937 1.71674 0
M  V30 5079 C 485.072 1.12847 3.24223 0
M  V30 5080 C 484.158 2.28836 3.57064 0
M  V30 5081 N 484.549 3.54256 3.61022 0
M  V30 5082 C 482.847 2.21198 3.87282 0
M  V30 5083 C 483.548 4.30798 3.90881 0
M  V30 5084 N 482.524 3.60049 4.07266 0
M  V30 5085 H 486.326 2.25946 1.87951 0
M  V30 5086 H 483.84 1.31046 0.959206 0
M  V30 5087 H 485.837 1.05943 4.03214 0
M  V30 5088 H 484.497 0.188024 3.24155 0
M  V30 5089 H 485.508 3.8804 3.42995 0
M  V30 5090 H 482.185 1.35264 3.94981 0
M  V30 5091 H 483.575 5.39386 4.00639 0
M  V30 5092 N 486.295 -0.989507 1.22664 0
M  V30 5093 C 487.541 -1.73298 1.06487 0
M  V30 5094 C 487.896 -1.88292 -0.395438 0
M  V30 5095 O 487.189 -1.41748 -1.28911 0
M  V30 5096 C 487.383 -3.13649 1.71345 0
M  V30 5097 C 487.212 -3.12341 3.23532 0
M  V30 5098 C 485.982 -3.18044 3.92653 0
M  V30 5099 C 488.18 -2.96226 4.20422 0
M  V30 5100 N 486.162 -3.06526 5.31898 0
M  V30 5101 C 487.533 -2.92773 5.4652 0
M  V30 5102 C 489.588 -2.80642 4.11271 0
M  V30 5103 C 488.291 -2.75332 6.64519 0
M  V30 5104 C 490.317 -2.64563 5.28924 0
M  V30 5105 C 489.679 -2.618 6.53942 0
M  V30 5106 H 485.778 -0.643643 0.444126 0
M  V30 5107 H 488.362 -1.17489 1.55256 0
M  V30 5108 H 486.533 -3.67694 1.25122 0
M  V30 5109 H 488.265 -3.76577 1.48229 0
M  V30 5110 H 485.02 -3.25861 3.43673 0
M  V30 5111 H 485.444 -3.04067 6.04874 0
M  V30 5112 H 490.086 -2.81574 3.15398 0
M  V30 5113 H 487.804 -2.73145 7.60538 0
M  V30 5114 H 491.39 -2.53482 5.23677 0
M  V30 5115 H 490.27 -2.49511 7.43447 0
M  V30 5116 N 487.773 -1.03688 -1.18687 0
M  V30 5117 C 488.736 -0.629115 -2.20397 0
M  V30 5118 C 489.736 0.311495 -1.57754 0
M  V30 5119 O 490.926 0.0974107 -1.73927 0
M  V30 5120 C 488.058 0.0782231 -3.4081 0
M  V30 5121 H 489.251 -1.52915 -2.57987 0
M  V30 5122 H 486.804 -0.828988 -1.32505 0
M  V30 5123 H 487.539 0.992233 -3.08748 0
M  V30 5124 H 487.324 -0.597776 -3.87517 0
M  V30 5125 H 488.814 0.350156 -4.16129 0
M  V30 5126 N 489.251 1.34841 -0.815825 0
M  V30 5127 C 490.198 2.29644 -0.230664 0
M  V30 5128 C 491.168 1.53253 0.640533 0
M  V30 5129 O 492.353 1.81653 0.583672 0
M  V30 5130 C 489.493 3.39715 0.607275 0
M  V30 5131 C 488.606 4.31056 -0.28538 0
M  V30 5132 C 487.741 5.28225 0.561446 0
M  V30 5133 C 486.78 6.11204 -0.331035 0
M  V30 5134 N 485.917 7.00483 0.476302 0
M  V30 5135 H 490.757 2.79095 -1.0445 0
M  V30 5136 H 488.294 1.37351 -0.526595 0
M  V30 5137 H 490.252 4.02208 1.10835 0
M  V30 5138 H 488.882 2.91517 1.38629 0
M  V30 5139 H 487.934 3.69487 -0.904621 0
M  V30 5140 H 489.246 4.89239 -0.97193 0
M  V30 5141 H 488.4 5.96135 1.12728 0
M  V30 5142 H 487.139 4.70562 1.28153 0
M  V30 5143 H 486.144 5.42232 -0.909069 0
M  V30 5144 H 487.369 6.70947 -1.04912 0
M  V30 5145 H 485.315 6.45296 1.18019 0
M  V30 5146 H 485.232 7.55847 -0.152008 0
M  V30 5147 H 486.5 7.7273 1.02512 0
M  V30 5148 N 490.729 0.570148 1.46925 0
M  V30 5149 C 491.975 0.0510284 2.02736 0
M  V30 5150 C 492.308 -1.3006 1.44215 0
M  V30 5151 O 491.583 -1.84932 0.602521 0
M  V30 5152 C 491.866 -0.028215 3.60089 0
M  V30 5153 C 491.719 1.35142 4.29018 0
M  V30 5154 C 493.038 -0.735181 4.33916 0
M  V30 5155 H 490.157 0.0200178 0.736728 0
M  V30 5156 H 492.799 0.73493 1.75211 0
M  V30 5157 H 490.949 -0.610648 3.83671 0
M  V30 5158 H 492.621 1.97806 4.16738 0
M  V30 5159 H 490.864 1.9226 3.88868 0
M  V30 5160 H 491.535 1.24857 5.37694 0
M  V30 5161 H 494.011 -0.240519 4.15404 0
M  V30 5162 H 492.887 -0.759622 5.43618 0
M  V30 5163 H 493.148 -1.79397 4.04066 0
M  V30 5164 N 492.207 -1.54576 0.307264 0
M  V30 5165 C 493.453 -2.0056 -0.300612 0
M  V30 5166 C 493.786 -1.1953 -1.53057 0
M  V30 5167 O 493.061 -0.27337 -1.92569 0
M  V30 5168 C 493.344 -3.54167 -0.650987 0
M  V30 5169 C 493.197 -4.45933 0.588539 0
M  V30 5170 C 494.516 -4.14645 -1.47506 0
M  V30 5171 H 491.635 -0.729075 -0.107788 0
M  V30 5172 H 494.277 -1.85286 0.420606 0
M  V30 5173 H 492.427 -3.67313 -1.26544 0
M  V30 5174 H 494.099 -4.44683 1.22697 0
M  V30 5175 H 492.342 -4.16274 1.22058 0
M  V30 5176 H 493.013 -5.51189 0.299153 0
M  V30 5177 H 495.489 -4.04973 -0.955821 0
M  V30 5178 H 494.365 -5.22269 -1.68899 0
M  V30 5179 H 494.626 -3.66921 -2.4662 0
M  V30 5180 N 493.685 -0.035106 -1.57561 0
M  V30 5181 C 494.615 0.942993 -2.13612 0
M  V30 5182 C 495.596 1.33531 -1.05373 0
M  V30 5183 O 496.781 1.41287 -1.33235 0
M  V30 5184 C 493.911 2.22332 -2.66807 0
M  V30 5185 C 492.865 1.97156 -3.79886 0
M  V30 5186 C 492.191 3.31506 -4.19533 0
M  V30 5187 C 493.491 1.30596 -5.05709 0
M  V30 5188 H 495.185 0.476179 -2.95589 0
M  V30 5189 H 492.731 0.227602 -1.4219 0
M  V30 5190 H 494.684 2.91142 -3.04654 0
M  V30 5191 H 493.408 2.7119 -1.81999 0
M  V30 5192 H 492.067 1.30763 -3.42486 0
M  V30 5193 H 491.715 3.78134 -3.31698 0
M  V30 5194 H 491.415 3.15465 -4.95738 0
M  V30 5195 H 492.939 4.01574 -4.59968 0
M  V30 5196 H 494.353 1.89416 -5.41105 0
M  V30 5197 H 492.75 1.24934 -5.86951 0
M  V30 5198 H 493.82 0.279742 -4.84092 0
M  V30 5199 N 495.163 1.55791 0.238111 0
M  V30 5200 C 496.391 1.82098 0.982233 0
M  V30 5201 C 496.806 0.612025 1.78605 0
M  V30 5202 O 496.163 -0.419381 1.77616 0
M  V30 5203 C 496.214 3.0673 1.91309 0
M  V30 5204 O 495.935 4.2296 1.14179 0
M  V30 5205 C 497.436 3.45903 2.77248 0
M  V30 5206 H 494.656 0.605748 0.288635 0
M  V30 5207 H 497.2 2.02862 0.258341 0
M  V30 5208 H 495.355 2.87991 2.59114 0
M  V30 5209 H 495.769 4.93653 1.7722 0
M  V30 5210 H 497.243 4.36189 3.38295 0
M  V30 5211 H 497.72 2.66891 3.48806 0
M  V30 5212 H 498.326 3.67024 2.14881 0
M  V30 5213 N 496.642 -0.504142 1.49319 0
M  V30 5214 C 497.919 -1.26548 1.49147 0
M  V30 5215 C 498.299 -2.09977 0.21744 0
M  V30 5216 O 497.647 -2.14028 -0.800269 0
M  V30 5217 C 497.857 -2.12489 2.76857 0
M  V30 5218 C 499.205 -2.7178 3.26222 0
M  V30 5219 O 500.229 -2.22758 2.77952 0
M  V30 5220 O 499.088 -3.61015 4.10281 0
M  V30 5221 H 496.182 -0.572495 0.596806 0
M  V30 5222 H 498.728 -0.51867 1.61579 0
M  V30 5223 H 497.5 -1.50796 3.61077 0
M  V30 5224 H 497.123 -2.94368 2.6727 0
M  V30 5225 N 498.12 -1.38341 -0.754957 0
M  V30 5226 C 499.531 -1.30803 -1.3322 0
M  V30 5227 C 499.882 0.0368 -1.96165 0
M  V30 5228 O 499.007 0.938844 -1.94974 0
M  V30 5229 C 499.602 -2.3688 -2.42225 0
M  V30 5230 C 498.161 -2.32925 -2.95674 0
M  V30 5231 C 497.308 -2.19819 -1.69042 0
M  V30 5232 H 500.259 -1.48719 -0.553937 0
M  V30 5233 H 500.28 -2.02517 -3.22129 0
M  V30 5234 H 499.792 -3.34747 -1.96383 0
M  V30 5235 H 497.893 -1.38635 -3.45848 0
M  V30 5236 H 498.006 -3.27008 -3.50146 0
M  V30 5237 H 496.37 -1.66648 -1.92615 0
M  V30 5238 H 497.153 -3.19625 -1.25279 0
M  V30 5239 N 499.598 0.982988 -1.23187 0
M  V30 5240 C 500.508 2.10907 -1.02739 0
M  V30 5241 C 501.524 1.73979 0.0273188 0
M  V30 5242 O 502.7 2.00702 -0.16757 0
M  V30 5243 C 499.765 3.41142 -0.618304 0
M  V30 5244 C 498.826 3.92112 -1.74777 0
M  V30 5245 C 498.059 5.16131 -1.3581 0
M  V30 5246 O 498.282 5.6989 -0.241201 0
M  V30 5247 O 497.216 5.61103 -2.17824 0
M  V30 5248 H 501.042 2.31046 -1.97108 0
M  V30 5249 H 498.627 1.09284 -1.01869 0
M  V30 5250 H 500.509 4.19488 -0.400982 0
M  V30 5251 H 499.184 3.2234 0.296421 0
M  V30 5252 H 498.091 3.14895 -2.0197 0
M  V30 5253 H 499.424 4.15364 -2.64071 0
M  V30 5254 N 501.076 1.04316 1.18135 0
M  V30 5255 C 502.039 0.640794 2.2006 0
M  V30 5256 C 503.039 -0.303124 1.57917 0
M  V30 5257 O 504.229 -0.0881855 1.73977 0
M  V30 5258 C 501.361 -0.060148 3.40847 0
M  V30 5259 H 502.554 1.54281 2.57172 0
M  V30 5260 H 500.107 0.836004 1.32063 0
M  V30 5261 H 500.842 -0.975845 3.0927 0
M  V30 5262 H 500.627 0.618319 3.87194 0
M  V30 5263 H 502.117 -0.328082 4.16309 0
M  V30 5264 N 502.554 -1.34406 0.822964 0
M  V30 5265 C 503.517 -2.2783 0.250271 0
M  V30 5266 C 504.517 -1.50288 -0.571854 0
M  V30 5267 O 505.707 -1.69825 -0.387952 0
M  V30 5268 C 502.839 -3.34663 -0.649137 0
M  V30 5269 H 504.032 -2.79992 1.07444 0
M  V30 5270 H 501.585 -1.44539 0.594829 0
M  V30 5271 H 502.32 -2.87714 -1.49637 0
M  V30 5272 H 502.105 -3.92052 -0.0611199 0
M  V30 5273 H 503.595 -4.04349 -1.04363 0
M  V30 5274 N 504.032 -0.577932 -1.46621 0
M  V30 5275 C 504.979 0.158048 -2.30258 0
M  V30 5276 C 505.949 0.888669 -1.40328 0
M  V30 5277 O 507.134 0.880283 -1.6928 0
M  V30 5278 C 504.274 1.16884 -3.24703 0
M  V30 5279 C 503.387 0.442163 -4.29731 0
M  V30 5280 C 502.522 1.44007 -5.11308 0
M  V30 5281 C 501.561 0.69952 -6.0809 0
M  V30 5282 N 500.698 1.64525 -6.82551 0
M  V30 5283 H 505.538 -0.561242 -2.92667 0
M  V30 5284 H 503.075 -0.288591 -1.44241 0
M  V30 5285 H 505.033 1.7677 -3.779 0
M  V30 5286 H 503.663 1.85591 -2.64113 0
M  V30 5287 H 502.715 -0.271632 -3.79429 0
M  V30 5288 H 504.027 -0.136992 -4.98612 0
M  V30 5289 H 503.181 2.11186 -5.68758 0
M  V30 5290 H 501.92 2.05315 -4.42377 0
M  V30 5291 H 500.925 0.0139217 -5.49798 0
M  V30 5292 H 502.15 0.091894 -6.79038 0
M  V30 5293 H 500.096 2.24653 -6.16334 0
M  V30 5294 H 500.013 1.11878 -7.47676 0
M  V30 5295 H 501.281 2.30754 -7.44562 0
M  V30 5296 N 505.51 1.54411 -0.315457 0
M  V30 5297 C 506.74 2.04536 0.291315 0
M  V30 5298 C 507.148 1.19162 1.4696 0
M  V30 5299 O 506.491 0.213199 1.82459 0
M  V30 5300 C 506.553 3.5056 0.796725 0
M  V30 5301 C 506.217 4.5627 -0.258178 0
M  V30 5302 C 507.214 5.08312 -1.09153 0
M  V30 5303 C 504.899 5.00672 -0.404036 0
M  V30 5304 C 506.893 6.03312 -2.05655 0
M  V30 5305 C 504.58 5.95488 -1.37248 0
M  V30 5306 C 505.578 6.46693 -2.19721 0
M  V30 5307 O 505.266 7.39648 -3.14921 0
M  V30 5308 H 504.998 0.672856 0.0651165 0
M  V30 5309 H 507.552 2.00244 -0.457308 0
M  V30 5310 H 505.782 3.52223 1.59612 0
M  V30 5311 H 507.471 3.83804 1.32096 0
M  V30 5312 H 508.237 4.74793 -0.98979 0
M  V30 5313 H 504.116 4.60436 0.22799 0
M  V30 5314 H 507.66 6.43203 -2.70067 0
M  V30 5315 H 503.557 6.28424 -1.47489 0
M  V30 5316 H 504.325 7.57496 -3.10067 0
M  V30 5317 N 506.988 0.0434614 1.5754 0
M  V30 5318 C 508.234 -0.632971 1.92669 0
M  V30 5319 C 508.567 -1.70947 0.921446 0
M  V30 5320 O 507.842 -1.94426 -0.0537202 0
M  V30 5321 C 508.125 -1.23619 3.38216 0
M  V30 5322 C 507.978 -0.168274 4.49485 0
M  V30 5323 C 509.297 -2.15008 3.84005 0
M  V30 5324 H 506.416 -0.228629 0.700641 0
M  V30 5325 H 509.058 0.103651 1.89717 0
M  V30 5326 H 507.208 -1.864 3.40863 0
M  V30 5327 H 508.88 0.463196 4.58969 0
M  V30 5328 H 507.123 0.504581 4.30855 0
M  V30 5329 H 507.794 -0.630218 5.48391 0
M  V30 5330 H 510.27 -1.62198 3.83185 0
M  V30 5331 H 509.146 -2.54161 4.86511 0
M  V30 5332 H 509.407 -3.04707 3.20322 0
M  V30 5333 N 508.466 -1.55915 -0.229846 0
M  V30 5334 C 509.416 -1.8813 -1.28807 0
M  V30 5335 C 510.4 -0.743621 -1.42685 0
M  V30 5336 O 511.592 -1.00588 -1.4564 0
M  V30 5337 C 508.721 -2.19431 -2.64017 0
M  V30 5338 C 507.807 -3.39569 -2.54074 0
M  V30 5339 N 508.198 -4.58404 -2.13774 0
M  V30 5340 C 506.496 -3.43019 -2.85051 0
M  V30 5341 C 507.197 -5.40557 -2.1488 0
M  V30 5342 N 506.173 -4.80054 -2.55047 0
M  V30 5343 H 509.975 -2.77527 -0.967261 0
M  V30 5344 H 507.489 -1.5637 -0.438433 0
M  V30 5345 H 509.486 -2.40681 -3.40409 0
M  V30 5346 H 508.146 -1.31341 -2.9695 0
M  V30 5347 H 509.157 -4.83716 -1.8504 0
M  V30 5348 H 505.834 -2.65249 -3.22411 0
M  V30 5349 H 507.224 -6.45666 -1.85918 0
M  V30 5350 N 509.944 0.496216 -1.49584 0
M  V30 5351 C 511.192 1.24756 -1.58998 0
M  V30 5352 C 511.513 1.92968 -0.280775 0
M  V30 5353 O 510.783 1.82959 0.700198 0
M  V30 5354 H 509.363 0.463471 -0.585836 0
M  V30 5355 H 512.025 0.574678 -1.86235 0
M  V30 5356 H 511.121 2.00895 -2.38847 0
M  V30 5357 N 511.423 1.38739 0.74761 0
M  V30 5358 C 512.672 1.3459 1.50228 0
M  V30 5359 C 512.985 -0.0595592 1.95509 0
M  V30 5360 O 514.191 -0.22361 2.70578 0
M  V30 5361 C 512.647 2.36377 2.71393 0
M  V30 5362 C 512.255 3.82573 2.33113 0
M  V30 5363 C 513.999 2.41281 3.49262 0
M  V30 5364 C 511.906 4.76032 3.50924 0
M  V30 5365 H 510.836 0.500312 0.564096 0
M  V30 5366 H 513.487 1.64324 0.8167 0
M  V30 5367 H 511.869 1.99694 3.41962 0
M  V30 5368 H 513.043 4.28227 1.70171 0
M  V30 5369 H 511.358 3.80844 1.68365 0
M  V30 5370 H 513.955 3.08301 4.36869 0
M  V30 5371 H 514.298 1.43353 3.9084 0
M  V30 5372 H 514.831 2.76793 2.85711 0
M  V30 5373 H 511.57 5.75177 3.14408 0
M  V30 5374 H 511.09 4.35066 4.12889 0
M  V30 5375 H 512.769 4.94331 4.17427 0
M  V30 5376 N 512.901 -0.976442 1.23707 0
M  V30 5377 C 513.864 -2.0511 1.02287 0
M  V30 5378 C 514.864 -1.60791 -0.0167195 0
M  V30 5379 O 516.054 -1.72761 0.223408 0
M  V30 5380 C 513.186 -3.36458 0.548507 0
M  V30 5381 H 514.379 -2.25545 1.9766 0
M  V30 5382 H 511.932 -1.15042 1.05806 0
M  V30 5383 H 512.667 -3.21713 -0.408818 0
M  V30 5384 H 512.452 -3.69967 1.29874 0
M  V30 5385 H 513.942 -4.15489 0.419406 0
M  V30 5386 N 514.379 -1.04941 -1.1758 0
M  V30 5387 C 515.625 -0.759112 -1.88057 0
M  V30 5388 C 515.958 0.711918 -1.8068 0
M  V30 5389 O 515.233 1.52035 -1.21308 0
M  V30 5390 C 515.516 -1.237 -3.38187 0
M  V30 5391 C 515.369 -2.77078 -3.54327 0
M  V30 5392 C 516.688 -0.834014 -4.32125 0
M  V30 5393 H 513.807 -0.277237 -0.682868 0
M  V30 5394 H 516.449 -1.30296 -1.38286 0
M  V30 5395 H 514.599 -0.774337 -3.80705 0
M  V30 5396 H 516.271 -3.31449 -3.20842 0
M  V30 5397 H 514.514 -3.16477 -2.96689 0
M  V30 5398 H 515.185 -3.05577 -4.59703 0
M  V30 5399 H 517.661 -1.23228 -3.97434 0
M  V30 5400 H 516.537 -1.19603 -5.35711 0
M  V30 5401 H 516.798 0.262195 -4.41322 0
M  V30 5402 N 515.857 1.33968 -0.830081 0
M  V30 5403 C 516.807 2.26845 -0.229242 0
M  V30 5404 C 517.791 1.48862 0.610659 0
M  V30 5405 O 518.983 1.70808 0.464067 0
M  V30 5406 C 516.112 3.3798 0.602057 0
M  V30 5407 C 515.198 4.23369 -0.248866 0
M  V30 5408 N 515.589 4.88182 -1.32334 0
M  V30 5409 C 513.887 4.45987 -0.0344077 0
M  V30 5410 C 514.588 5.51671 -1.84482 0
M  V30 5411 N 513.564 5.31348 -1.14762 0
M  V30 5412 H 517.366 2.74464 -1.05104 0
M  V30 5413 H 514.88 1.4777 -0.673623 0
M  V30 5414 H 516.877 4.03494 1.04873 0
M  V30 5415 H 515.537 2.9191 1.42193 0
M  V30 5416 H 516.548 4.88988 -1.70619 0
M  V30 5417 H 513.225 4.10658 0.752727 0
M  V30 5418 H 514.615 6.13308 -2.74413 0
M  V30 5419 N 517.335 0.585699 1.46312 0
M  V30 5420 C 518.581 0.0808731 2.03239 0
M  V30 5421 C 518.936 -1.26609 1.44872 0
M  V30 5422 O 518.229 -1.81779 0.60556 0
M  V30 5423 C 518.423 -0.0401312 3.57377 0
M  V30 5424 C 518.252 1.29356 4.30694 0
M  V30 5425 C 517.022 1.86849 4.69484 0
M  V30 5426 C 519.22 2.21742 4.64042 0
M  V30 5427 N 517.202 3.13926 5.27564 0
M  V30 5428 C 518.573 3.33408 5.22723 0
M  V30 5429 C 520.628 2.21386 4.45974 0
M  V30 5430 C 519.331 4.44852 5.65242 0
M  V30 5431 C 521.357 3.31862 4.89511 0
M  V30 5432 C 520.719 4.42248 5.48266 0
M  V30 5433 H 516.818 0.072443 0.778637 0
M  V30 5434 H 519.402 0.779254 1.78426 0
M  V30 5435 H 517.573 -0.707686 3.81898 0
M  V30 5436 H 519.305 -0.549615 4.00951 0
M  V30 5437 H 516.06 1.40307 4.52339 0
M  V30 5438 H 516.484 3.78775 5.61122 0
M  V30 5439 H 521.126 1.37314 3.99881 0
M  V30 5440 H 518.844 5.29665 6.10312 0
M  V30 5441 H 522.43 3.32708 4.7728 0
M  V30 5442 H 521.31 5.26323 5.81338 0
M  V30 5443 N 518.813 -1.54241 0.323641 0
M  V30 5444 C 520.043 -2.04687 -0.280464 0
M  V30 5445 C 520.451 -1.19939 -1.46326 0
M  V30 5446 O 519.794 -0.222872 -1.82343 0
M  V30 5447 C 519.856 -3.50978 -0.778123 0
M  V30 5448 C 519.52 -4.56127 0.282371 0
M  V30 5449 C 520.517 -5.07726 1.11847 0
M  V30 5450 C 518.202 -5.00451 0.430582 0
M  V30 5451 C 520.196 -6.02212 2.08851 0
M  V30 5452 C 517.883 -5.94752 1.40404 0
M  V30 5453 C 518.881 -6.45519 2.23147 0
M  V30 5454 O 518.569 -7.37968 3.1884 0
M  V30 5455 H 518.301 -0.673192 -0.0615473 0
M  V30 5456 H 520.855 -1.99999 0.467921 0
M  V30 5457 H 519.085 -3.53064 -1.57742 0
M  V30 5458 H 520.774 -3.84499 -1.30058 0
M  V30 5459 H 521.54 -4.74261 1.01496 0
M  V30 5460 H 517.419 -4.6055 -0.203569 0
M  V30 5461 H 520.963 -6.41761 2.73474 0
M  V30 5462 H 516.86 -6.27633 1.5082 0
M  V30 5463 H 517.628 -7.55841 3.14079 0
M  V30 5464 N 520.291 -0.0518155 -1.57515 0
M  V30 5465 C 521.221 0.920283 -2.146 0
M  V30 5466 C 522.202 1.32406 -1.06783 0
M  V30 5467 O 523.387 1.39866 -1.34726 0
M  V30 5468 C 520.517 2.1949 -2.6915 0
M  V30 5469 C 519.471 1.93116 -3.81956 0
M  V30 5470 C 518.797 3.27037 -4.23026 0
M  V30 5471 C 520.097 1.25225 -5.07066 0
M  V30 5472 H 521.791 0.444801 -2.96077 0
M  V30 5473 H 519.337 0.212508 -1.42423 0
M  V30 5474 H 521.29 2.87894 -3.07725 0
M  V30 5475 H 520.014 2.69244 -1.84865 0
M  V30 5476 H 518.673 1.27123 -3.43854 0
M  V30 5477 H 518.321 3.74595 -3.3569 0
M  V30 5478 H 518.021 3.10189 -4.99056 0
M  V30 5479 H 519.545 3.96673 -4.64202 0
M  V30 5480 H 520.959 1.83666 -5.43083 0
M  V30 5481 H 519.356 1.18702 -5.88243 0
M  V30 5482 H 520.426 0.228382 -4.84362 0
M  V30 5483 N 521.769 1.56035 0.221574 0
M  V30 5484 C 523.046 1.69837 0.970301 0
M  V30 5485 C 523.426 0.599065 2.02421 0
M  V30 5486 O 522.774 -0.393929 2.25079 0
M  V30 5487 C 522.984 3.11148 1.58076 0
M  V30 5488 C 524.332 3.70555 2.07302 0
M  V30 5489 O 525.356 3.14109 1.6797 0
M  V30 5490 O 524.215 4.69562 2.79596 0
M  V30 5491 H 521.309 0.691727 0.453257 0
M  V30 5492 H 523.855 1.68353 0.213358 0
M  V30 5493 H 522.627 3.82617 0.819759 0
M  V30 5494 H 522.25 3.16749 2.40324 0
M  V30 5495 N 523.247 -0.488276 1.49845 0
M  V30 5496 C 524.494 -1.24157 1.59973 0
M  V30 5497 C 524.822 -1.92293 0.292182 0
M  V30 5498 O 524.077 -1.81942 -0.720813 0
M  V30 5499 C 524.376 -2.32152 2.71735 0
M  V30 5500 C 524.042 -1.81387 4.12807 0
M  V30 5501 C 522.704 -1.67262 4.51195 0
M  V30 5502 C 525.056 -1.43537 5.01045 0
M  V30 5503 C 522.384 -1.13685 5.7558 0
M  V30 5504 C 524.736 -0.914081 6.25961 0
M  V30 5505 C 523.4 -0.759327 6.63167 0
M  V30 5506 H 522.67 -0.454322 0.585383 0
M  V30 5507 H 525.317 -0.540261 1.83721 0
M  V30 5508 H 523.622 -3.08122 2.42008 0
M  V30 5509 H 525.319 -2.90164 2.76778 0
M  V30 5510 H 521.909 -1.93344 3.82513 0
M  V30 5511 H 526.093 -1.53292 4.72033 0
M  V30 5512 H 521.349 -1.00426 6.03096 0
M  V30 5513 H 525.523 -0.612066 6.93705 0
M  V30 5514 H 523.15 -0.342002 7.5943 0
M  V30 5515 N 524.725 -1.39134 -0.740242 0
M  V30 5516 C 525.655 -1.40165 -1.86751 0
M  V30 5517 C 526.636 -0.265708 -1.68012 0
M  V30 5518 O 527.821 -0.47076 -1.88408 0
M  V30 5519 C 524.951 -1.2392 -3.2444 0
M  V30 5520 C 523.905 -2.34858 -3.57807 0
M  V30 5521 C 523.231 -2.03707 -4.94376 0
M  V30 5522 C 524.531 -3.77159 -3.61315 0
M  V30 5523 H 526.225 -2.345 -1.86145 0
M  V30 5524 H 523.771 -1.12875 -0.89416 0
M  V30 5525 H 525.724 -1.23263 -4.02969 0
M  V30 5526 H 524.448 -0.26051 -3.25559 0
M  V30 5527 H 523.107 -2.34723 -2.81604 0
M  V30 5528 H 522.755 -1.04289 -4.9207 0
M  V30 5529 H 522.455 -2.78016 -5.17669 0
M  V30 5530 H 523.979 -2.04691 -5.75268 0
M  V30 5531 H 525.393 -3.79252 -4.29931 0
M  V30 5532 H 523.79 -4.50784 -3.96124 0
M  V30 5533 H 524.86 -4.08513 -2.61238 0
M  V30 5534 N 526.204 0.969867 -1.24223 0
M  V30 5535 C 527.167 2.04564 -1.03373 0
M  V30 5536 C 528.167 1.60798 0.00819206 0
M  V30 5537 O 529.357 1.72641 -0.232567 0
M  V30 5538 C 526.489 3.36163 -0.566343 0
M  V30 5539 H 527.682 2.24494 -1.98853 0
M  V30 5540 H 525.235 1.1448 -1.06415 0
M  V30 5541 H 525.97 3.21925 0.391751 0
M  V30 5542 H 525.755 3.69273 -1.31834 0
M  V30 5543 H 527.245 4.1526 -0.441435 0
M  V30 5544 N 527.682 1.05563 1.17022 0
M  V30 5545 C 529.093 0.793475 1.69 0
M  V30 5546 C 529.444 -0.683882 1.83895 0
M  V30 5547 O 528.569 -1.53116 1.5292 0
M  V30 5548 C 529.164 1.43376 3.06967 0
M  V30 5549 C 527.723 1.21956 3.56095 0
M  V30 5550 C 526.87 1.51494 2.3226 0
M  V30 5551 H 529.821 1.22008 1.01487 0
M  V30 5552 H 529.842 0.845068 3.70997 0
M  V30 5553 H 529.354 2.50899 2.96093 0
M  V30 5554 H 527.455 0.163749 3.7224 0
M  V30 5555 H 527.568 1.92713 4.38633 0
M  V30 5556 H 525.932 0.935175 2.3691 0
M  V30 5557 H 526.715 2.60159 2.23992 0
M  V30 5558 N 529.16 -1.33526 0.837174 0
M  V30 5559 C 530.123 -2.27551 0.274421 0
M  V30 5560 C 531.123 -1.50886 -0.555881 0
M  V30 5561 O 532.313 -1.70227 -0.369918 0
M  V30 5562 C 529.445 -3.35332 -0.613605 0
M  V30 5563 H 530.638 -2.78837 1.10408 0
M  V30 5564 H 528.191 -1.439 0.610126 0
M  V30 5565 H 528.926 -2.89285 -1.46577 0
M  V30 5566 H 528.711 -3.92095 -0.0195341 0
M  V30 5567 H 530.201 -4.05433 -1.00068 0
M  V30 5568 N 530.638 -0.59345 -1.46 0
M  V30 5569 C 531.585 0.133618 -2.30413 0
M  V30 5570 C 532.555 0.873736 -1.41262 0
M  V30 5571 O 533.74 0.862279 -1.70204 0
M  V30 5572 C 530.88 1.13434 -3.25924 0
M  V30 5573 C 529.993 0.39656 -4.30176 0
M  V30 5574 C 529.128 1.38575 -5.12806 0
M  V30 5575 C 528.167 0.634984 -6.08797 0
M  V30 5576 N 527.304 1.57276 -6.84258 0
M  V30 5577 H 532.144 -0.592252 -2.92055 0
M  V30 5578 H 529.681 -0.303874 -1.43927 0
M  V30 5579 H 531.639 1.72752 -3.79753 0
M  V30 5580 H 530.269 1.82779 -2.66067 0
M  V30 5581 H 529.321 -0.311861 -3.79119 0
M  V30 5582 H 530.633 -0.189869 -4.98438 0
M  V30 5583 H 529.787 2.05141 -5.70966 0
M  V30 5584 H 528.526 2.00611 -4.44529 0
M  V30 5585 H 527.531 -0.0443925 -5.49782 0
M  V30 5586 H 528.756 0.0198678 -6.79097 0
M  V30 5587 H 526.702 2.18103 -6.18682 0
M  V30 5588 H 526.619 1.03941 -7.48821 0
M  V30 5589 H 527.887 2.22844 -7.46968 0
M  V30 5590 N 532.116 1.54067 -0.331816 0
M  V30 5591 C 533.079 2.23275 0.517768 0
M  V30 5592 C 534.079 1.22897 1.03697 0
M  V30 5593 O 535.269 1.47419 0.928084 0
M  V30 5594 C 532.401 2.94326 1.72004 0
M  V30 5595 H 533.594 2.99773 -0.0873507 0
M  V30 5596 H 531.147 1.56079 -0.0830042 0
M  V30 5597 H 531.882 2.21986 2.36417 0
M  V30 5598 H 531.667 3.67941 1.35507 0
M  V30 5599 H 533.157 3.47031 2.32291 0
M  V30 5600 N 533.594 0.0601682 1.57485 0
M  V30 5601 C 534.822 -0.620937 1.97363 0
M  V30 5602 C 535.237 -1.63846 0.938082 0
M  V30 5603 O 534.594 -1.82339 -0.0766578 0
M  V30 5604 C 534.645 -1.29987 3.37321 0
M  V30 5605 O 534.366 -0.323081 4.36907 0
M  V30 5606 C 535.867 -2.06989 3.92008 0
M  V30 5607 H 533.087 -0.169135 0.649334 0
M  V30 5608 H 535.631 0.129132 2.04092 0
M  V30 5609 H 533.786 -2.0011 3.31715 0
M  V30 5610 H 534.2 -0.808754 5.18227 0
M  V30 5611 H 535.674 -2.49901 4.92192 0
M  V30 5612 H 536.151 -2.92173 3.2792 0
M  V30 5613 H 536.757 -1.41757 4.0098 0
M  V30 5614 N 535.072 -1.5615 -0.213296 0
M  V30 5615 C 536.002 -1.96109 -1.26742 0
M  V30 5616 C 536.983 -0.830448 -1.48451 0
M  V30 5617 O 538.168 -1.09339 -1.60495 0
M  V30 5618 C 535.298 -2.28492 -2.61551 0
M  V30 5619 C 534.252 -3.44124 -2.54485 0
M  V30 5620 C 533.578 -3.62134 -3.93399 0
M  V30 5621 C 534.878 -4.78855 -2.08556 0
M  V30 5622 H 536.572 -2.84412 -0.935434 0
M  V30 5623 H 534.118 -1.36836 -0.44854 0
M  V30 5624 H 536.071 -2.55039 -3.3546 0
M  V30 5625 H 534.795 -1.37052 -2.96453 0
M  V30 5626 H 533.454 -3.17639 -1.83033 0
M  V30 5627 H 533.102 -2.68055 -4.25623 0
M  V30 5628 H 532.802 -4.39913 -3.89551 0
M  V30 5629 H 534.326 -3.91038 -4.68958 0
M  V30 5630 H 535.74 -5.04552 -2.72213 0
M  V30 5631 H 534.137 -5.59975 -2.1575 0
M  V30 5632 H 535.207 -4.73657 -1.03811 0
M  V30 5633 N 536.55 0.480323 -1.50102 0
M  V30 5634 C 537.798 1.23063 -1.60312 0
M  V30 5635 C 538.119 1.92659 -0.301226 0
M  V30 5636 O 537.389 1.83691 0.680753 0
M  V30 5637 H 535.969 0.457231 -0.590719 0
M  V30 5638 H 538.631 0.554893 -1.86834 0
M  V30 5639 H 537.727 1.9835 -2.40964 0
M  V30 5640 N 538.028 1.39524 0.732853 0
M  V30 5641 C 538.938 1.40695 1.87729 0
M  V30 5642 C 539.954 0.301496 1.71368 0
M  V30 5643 O 541.13 0.543313 1.93933 0
M  V30 5644 C 538.195 1.25098 3.23344 0
M  V30 5645 C 537.256 2.45634 3.52083 0
M  V30 5646 C 536.489 2.30772 4.81228 0
M  V30 5647 O 536.712 1.31233 5.55098 0
M  V30 5648 O 535.646 3.19799 5.09914 0
M  V30 5649 H 539.472 2.37168 1.89697 0
M  V30 5650 H 537.057 1.20663 0.880959 0
M  V30 5651 H 538.939 1.18541 4.04383 0
M  V30 5652 H 537.614 0.317209 3.22142 0
M  V30 5653 H 536.521 2.57767 2.71122 0
M  V30 5654 H 537.854 3.37712 3.58066 0
M  V30 5655 N 539.506 -0.963266 1.24736 0
M  V30 5656 C 540.734 -1.74166 1.11686 0
M  V30 5657 C 541.149 -1.8589 -0.330187 0
M  V30 5658 O 540.506 -1.35042 -1.2276 0
M  V30 5659 C 540.557 -3.15989 1.75595 0
M  V30 5660 O 540.278 -3.04847 3.14642 0
M  V30 5661 C 541.779 -4.10145 1.68213 0
M  V30 5662 H 538.999 -0.546031 0.389989 0
M  V30 5663 H 541.543 -1.20907 1.64929 0
M  V30 5664 H 539.698 -3.66219 1.26343 0
M  V30 5665 H 540.112 -3.9425 3.4593 0
M  V30 5666 H 541.586 -5.07299 2.17604 0
M  V30 5667 H 542.063 -4.3445 0.644208 0
M  V30 5668 H 542.669 -3.65827 2.16912 0
M  V30 5669 N 540.985 -1.06182 -1.16461 0
M  V30 5670 C 541.935 -0.641619 -2.18786 0
M  V30 5671 C 542.919 0.327122 -1.5754 0
M  V30 5672 O 544.111 0.142746 -1.76423 0
M  V30 5673 C 541.24 -0.0283734 -3.43288 0
M  V30 5674 C 540.326 -1.02154 -4.11613 0
M  V30 5675 N 540.717 -2.19671 -4.55608 0
M  V30 5676 C 539.015 -0.852229 -4.37782 0
M  V30 5677 C 539.716 -2.82583 -5.0845 0
M  V30 5678 N 538.692 -2.10318 -5.01266 0
M  V30 5679 H 542.494 -1.53684 -2.50516 0
M  V30 5680 H 540.008 -0.933349 -1.329 0
M  V30 5681 H 542.005 0.29049 -4.15887 0
M  V30 5682 H 540.665 0.862118 -3.13046 0
M  V30 5683 H 541.676 -2.57453 -4.49375 0
M  V30 5684 H 538.353 -0.0136314 -4.17498 0
M  V30 5685 H 539.743 -3.82298 -5.52538 0
M  V30 5686 N 542.463 1.3308 -0.844243 0
M  V30 5687 C 543.879 1.50447 -0.532729 0
M  V30 5688 C 544.079 1.78292 0.938837 0
M  V30 5689 O 543.135 1.84635 1.72239 0
M  V30 5690 C 544.448 2.65555 -1.41072 0
M  V30 5691 C 545.996 2.7944 -1.41005 0
M  V30 5692 C 546.471 3.97616 -2.27301 0
M  V30 5693 N 547.962 4.0486 -2.2504 0
M  V30 5694 C 548.697 4.95508 -2.88547 0
M  V30 5695 N 548.193 5.91236 -3.61126 0
M  V30 5696 N 549.986 4.88548 -2.77989 0
M  V30 5697 H 542.137 1.13269 -1.79677 0
M  V30 5698 H 544.4 0.55734 -0.766861 0
M  V30 5699 H 544.106 2.51675 -2.45668 0
M  V30 5700 H 543.98 3.61089 -1.09061 0
M  V30 5701 H 546.367 2.92749 -0.371784 0
M  V30 5702 H 546.448 1.8465 -1.77026 0
M  V30 5703 H 546.092 3.85066 -3.3119 0
M  V30 5704 H 546.022 4.91661 -1.88619 0
M  V30 5705 H 548.513 3.36353 -1.72264 0
M  V30 5706 H 548.826 6.57079 -4.06776 0
M  V30 5707 H 547.171 5.91295 -3.65234 0
M  V30 5708 H 550.362 4.12729 -2.20846 0
M  V30 5709 H 550.535 5.58994 -3.27765 0
M  V30 5710 N 543.941 0.601185 1.45683 0
M  V30 5711 C 544.871 -0.108824 2.33246 0
M  V30 5712 C 545.852 -0.865223 1.46451 0
M  V30 5713 O 547.037 -0.83704 1.75235 0
M  V30 5714 C 544.167 -1.11101 3.2905 0
M  V30 5715 C 543.121 -0.468244 4.25431 0
M  V30 5716 C 542.447 -1.57822 5.10878 0
M  V30 5717 C 543.747 0.606469 5.18767 0
M  V30 5718 H 545.441 0.622306 2.92861 0
M  V30 5719 H 542.987 0.300714 1.40825 0
M  V30 5720 H 544.94 -1.61622 3.89174 0
M  V30 5721 H 543.664 -1.87265 2.67581 0
M  V30 5722 H 542.323 0.0160484 3.66596 0
M  V30 5723 H 541.971 -2.32998 4.45781 0
M  V30 5724 H 541.671 -1.15369 5.76163 0
M  V30 5725 H 543.195 -2.08583 5.73869 0
M  V30 5726 H 544.609 0.185589 5.73 0
M  V30 5727 H 543.006 0.952381 5.92494 0
M  V30 5728 H 544.076 1.48559 4.61582 0
M  V30 5729 N 545.419 -1.53889 0.339982 0
M  V30 5730 C 546.666 -2.00855 -0.257621 0
M  V30 5731 C 546.994 -1.22788 -1.50842 0
M  V30 5732 O 546.249 -0.302567 -1.93347 0
M  V30 5733 C 546.548 -3.51968 -0.620735 0
M  V30 5734 C 546.214 -4.47741 0.532771 0
M  V30 5735 C 544.876 -4.73645 0.849339 0
M  V30 5736 C 547.228 -5.04551 1.3068 0
M  V30 5737 C 544.556 -5.53614 1.94237 0
M  V30 5738 C 546.908 -5.85713 2.39005 0
M  V30 5739 C 545.572 -6.09912 2.71225 0
M  V30 5740 H 544.842 -0.734979 -0.0942703 0
M  V30 5741 H 547.489 -1.85714 0.467159 0
M  V30 5742 H 545.794 -3.64921 -1.42618 0
M  V30 5743 H 547.491 -3.85762 -1.09495 0
M  V30 5744 H 544.081 -4.27711 0.275973 0
M  V30 5745 H 548.265 -4.84507 1.07549 0
M  V30 5746 H 543.521 -5.7059 2.19628 0
M  V30 5747 H 547.695 -6.28748 2.99415 0
M  V30 5748 H 545.322 -6.71665 3.56047 0
M  V30 5749 N 546.897 -0.0685191 -1.57451 0
M  V30 5750 C 548.308 0.464634 -1.80826 0
M  V30 5751 C 548.659 1.69847 -0.982169 0
M  V30 5752 O 547.784 2.15439 -0.203734 0
M  V30 5753 C 548.379 0.849721 -3.27971 0
M  V30 5754 C 546.938 1.32776 -3.52204 0
M  V30 5755 C 546.085 0.311332 -2.75547 0
M  V30 5756 H 549.036 -0.294248 -1.55948 0
M  V30 5757 H 549.057 1.71138 -3.39841 0
M  V30 5758 H 548.569 -0.0484736 -3.8807 0
M  V30 5759 H 546.67 2.24456 -2.97406 0
M  V30 5760 H 546.783 1.30794 -4.60901 0
M  V30 5761 H 545.147 0.787915 -2.42206 0
M  V30 5762 H 545.93 -0.579078 -3.38381 0
M  V30 5763 N 548.375 1.56261 0.205012 0
M  V30 5764 C 549.323 1.94631 1.27364 0
M  V30 5765 C 550.317 0.830434 1.47649 0
M  V30 5766 O 551.523 1.01538 1.48627 0
M  V30 5767 H 547.898 0.618755 0.427371 0
M  V30 5768 H 549.869 2.83768 0.922941 0
M  V30 5769 C 548.618 2.29358 2.61324 0
M  V30 5770 H 547.941 3.14744 2.46528 0
M  V30 5771 H 549.381 2.60076 3.34868 0
M  V30 5772 C 547.84 1.12461 3.17575 0
M  V30 5773 O 548.37 0.394407 3.99759 0
M  V30 5774 N 546.576 0.904036 2.7618 0
M  V30 5775 H 546.123 1.49956 2.09454 0
M  V30 5776 H 546.081 0.123662 3.14157 0
M  V30 5777 N 549.853 -0.472356 1.50355 0
M  V30 5778 C 551.081 -1.24784 1.65035 0
M  V30 5779 C 551.496 -1.85837 0.333176 0
M  V30 5780 O 550.853 -1.69168 -0.68472 0
M  V30 5781 C 550.904 -2.35747 2.74054 0
M  V30 5782 O 550.625 -1.77197 4.00665 0
M  V30 5783 C 552.126 -3.26645 2.99696 0
M  V30 5784 H 549.346 -0.377432 0.554785 0
M  V30 5785 H 551.89 -0.563962 1.9657 0
M  V30 5786 H 550.045 -2.99912 2.45217 0
M  V30 5787 H 550.459 -2.5026 4.60945 0
M  V30 5788 H 551.933 -4.00718 3.79644 0
M  V30 5789 H 552.41 -3.8535 2.10718 0
M  V30 5790 H 553.016 -2.68218 3.3006 0
M  V30 5791 N 551.331 -1.39911 -0.725443 0
M  V30 5792 C 552.264 -1.33788 -1.84867 0
M  V30 5793 C 553.242 -0.209907 -1.61239 0
M  V30 5794 O 554.426 -0.391943 -1.8438 0
M  V30 5795 C 551.553 -1.07975 -3.21028 0
M  V30 5796 C 550.599 -2.23092 -3.635 0
M  V30 5797 S 551.432 -3.85431 -3.71757 0
M  V30 5798 C 552.588 -3.61862 -5.10692 0
M  V30 5799 H 552.821 -2.28848 -1.89779 0
M  V30 5800 H 550.354 -1.26079 -0.891254 0
M  V30 5801 H 552.312 -0.937669 -3.99647 0
M  V30 5802 H 550.973 -0.145865 -3.13761 0
M  V30 5803 H 550.166 -2.00647 -4.62338 0
M  V30 5804 H 549.768 -2.33553 -2.92112 0
M  V30 5805 H 552.06 -3.19719 -5.97316 0
M  V30 5806 H 553.003 -4.60196 -5.38169 0
M  V30 5807 H 553.411 -2.95757 -4.8082 0
M  V30 5808 N 552.809 0.956637 -1.25245 0
M  V30 5809 C 553.739 2.07058 -1.07931 0
M  V30 5810 C 554.72 1.70096 0.0110361 0
M  V30 5811 O 555.905 1.93555 -0.158121 0
M  V30 5812 C 553.035 3.40272 -0.695124 0
M  V30 5813 C 551.989 3.91235 -1.73549 0
M  V30 5814 C 551.315 5.20921 -1.20604 0
M  V30 5815 C 552.615 4.17837 -3.13385 0
M  V30 5816 H 554.309 2.218 -2.01109 0
M  V30 5817 H 551.855 1.06581 -0.968326 0
M  V30 5818 H 553.808 4.1765 -0.560949 0
M  V30 5819 H 552.532 3.25462 0.272355 0
M  V30 5820 H 551.191 3.16025 -1.85807 0
M  V30 5821 H 550.839 5.02479 -0.228846 0
M  V30 5822 H 550.539 5.55987 -1.90136 0
M  V30 5823 H 552.063 6.00897 -1.08421 0
M  V30 5824 H 553.477 4.8588 -3.04292 0
M  V30 5825 H 551.874 4.64154 -3.80369 0
M  V30 5826 H 552.944 3.2419 -3.60595 0
M  V30 5827 N 554.287 1.06798 1.15896 0
M  V30 5828 C 555.534 0.787767 1.86549 0
M  V30 5829 C 555.862 -0.685959 1.82002 0
M  V30 5830 O 555.117 -1.5188 1.23414 0
M  V30 5831 C 555.416 1.23414 3.35416 0
M  V30 5832 C 555.082 2.71285 3.6016 0
M  V30 5833 C 553.744 3.11676 3.66622 0
M  V30 5834 C 556.096 3.6676 3.7032 0
M  V30 5835 C 553.424 4.4637 3.8075 0
M  V30 5836 C 555.776 5.01209 3.8597 0
M  V30 5837 C 554.44 5.41229 3.90676 0
M  V30 5838 H 553.71 0.288264 0.682631 0
M  V30 5839 H 556.357 1.338 1.37003 0
M  V30 5840 H 554.662 0.60319 3.87129 0
M  V30 5841 H 556.359 0.994298 3.88477 0
M  V30 5842 H 552.949 2.39015 3.55767 0
M  V30 5843 H 557.133 3.36685 3.64633 0
M  V30 5844 H 552.389 4.76855 3.82648 0
M  V30 5845 H 556.563 5.75067 3.92773 0
M  V30 5846 H 554.19 6.45602 4.01375 0
M  V30 5847 N 555.766 -1.3263 0.851289 0
M  V30 5848 C 556.729 -2.27247 0.298541 0
M  V30 5849 C 557.729 -1.51467 -0.539847 0
M  V30 5850 O 558.919 -1.7061 -0.351843 0
M  V30 5851 C 556.051 -3.35964 -0.578004 0
M  V30 5852 H 557.244 -2.7765 1.13359 0
M  V30 5853 H 554.797 -1.43245 0.625354 0
M  V30 5854 H 555.532 -2.90823 -1.435 0
M  V30 5855 H 555.317 -3.92094 0.0220539 0
M  V30 5856 H 556.807 -4.06472 -0.957626 0
M  V30 5857 N 557.244 -0.608902 -1.45362 0
M  V30 5858 C 558.469 -0.10921 -2.07112 0
M  V30 5859 C 558.894 1.19779 -1.45033 0
M  V30 5860 O 558.252 1.72961 -0.543527 0
M  V30 5861 C 558.3 0.0155745 -3.60597 0
M  V30 5862 O 557.404 1.06546 -3.98399 0
M  V30 5863 H 556.745 -0.0746619 -0.659789 0
M  V30 5864 H 559.275 -0.839283 -1.86594 0
M  V30 5865 H 559.285 0.213364 -4.07442 0
M  V30 5866 H 557.96 -0.938765 -4.05167 0
M  V30 5867 H 556.537 0.844024 -3.63223 0
M  V30 5868 N 558.722 1.53707 -0.348139 0
M  V30 5869 C 559.632 2.28881 0.514857 0
M  V30 5870 C 560.648 1.34168 1.10793 0
M  V30 5871 O 561.824 1.6721 1.12262 0
M  V30 5872 C 558.889 3.05042 1.64774 0
M  V30 5873 C 557.95 4.15389 1.08398 0
M  V30 5874 C 557.183 4.87909 2.16287 0
M  V30 5875 O 557.406 4.60137 3.3709 0
M  V30 5876 O 556.34 5.74254 1.80323 0
M  V30 5877 H 560.166 3.03547 -0.0963699 0
M  V30 5878 H 557.751 1.48972 -0.113043 0
M  V30 5879 H 559.633 3.52656 2.30677 0
M  V30 5880 H 558.308 2.33228 2.24469 0
M  V30 5881 H 557.215 3.72068 0.389341 0
M  V30 5882 H 558.548 4.89318 0.531829 0
M  V30 5883 N 560.2 0.0768682 1.57412 0
M  V30 5884 C 561.163 -0.873949 2.11884 0
M  V30 5885 C 562.163 -1.22301 1.04398 0
M  V30 5886 O 563.353 -1.15545 1.30365 0
M  V30 5887 C 560.485 -2.17575 2.62438 0
M  V30 5888 H 561.678 -0.401278 2.97203 0
M  V30 5889 H 559.231 -0.171904 1.55352 0
M  V30 5890 H 559.966 -2.69368 1.80587 0
M  V30 5891 H 559.751 -1.93534 3.41009 0
M  V30 5892 H 561.241 -2.85631 3.04639 0
M  V30 5893 N 561.678 -1.56367 -0.196722 0
M  V30 5894 C 562.918 -1.82315 -0.92415 0
M  V30 5895 C 563.282 -0.654117 -1.80514 0
M  V30 5896 O 564.483 -0.79345 -2.56823 0
M  V30 5897 C 562.754 -3.13279 -1.72021 0
M  V30 5898 S 564.313 -3.60627 -2.49988 0
M  V30 5899 H 561.131 -0.639862 -0.309997 0
M  V30 5900 H 563.733 -1.94597 -0.187684 0
M  V30 5901 H 562.437 -3.96379 -1.06358 0
M  V30 5902 H 561.968 -3.03871 -2.49852 0
M  V30 5903 H 563.983 -3.25934 -3.74141 0
M  V30 5904 N 563.156 0.464375 -1.50603 0
M  V30 5905 C 564.402 1.21776 -1.62168 0
M  V30 5906 C 564.735 1.91476 -0.324154 0
M  V30 5907 O 564.01 1.8242 0.674782 0
M  V30 5908 C 564.293 2.25614 -2.80661 0
M  V30 5909 C 564.146 1.60175 -4.20314 0
M  V30 5910 C 565.465 3.26862 -2.94702 0
M  V30 5911 H 562.584 0.44137 -0.590222 0
M  V30 5912 H 565.226 0.510623 -1.8301 0
M  V30 5913 H 563.376 2.85923 -2.63021 0
M  V30 5914 H 565.048 1.03411 -4.4956 0
M  V30 5915 H 563.291 0.904697 -4.24261 0
M  V30 5916 H 563.962 2.35665 -4.99165 0
M  V30 5917 H 566.438 2.76582 -3.10872 0
M  V30 5918 H 565.314 3.96839 -3.79223 0
M  V30 5919 H 565.575 3.91382 -2.05603 0
M  V30 5920 N 564.634 1.40294 0.718013 0
M  V30 5921 C 565.882 1.38167 1.47494 0
M  V30 5922 C 566.203 -0.01607 1.94993 0
M  V30 5923 O 565.473 -0.970396 1.70177 0
M  V30 5924 H 564.053 0.508505 0.547203 0
M  V30 5925 H 566.715 1.75324 0.851322 0
M  V30 5926 H 565.811 2.05503 2.34894 0
M  V30 5927 N 566.112 -0.949982 1.2575 0
M  V30 5928 C 567.337 -1.73503 1.13628 0
M  V30 5929 C 567.762 -1.85601 -0.30559 0
M  V30 5930 O 567.12 -1.33984 -1.22139 0
M  V30 5931 C 567.168 -3.1243 1.80055 0
M  V30 5932 O 566.272 -3.97916 1.08336 0
M  V30 5933 H 565.613 -0.532665 0.396439 0
M  V30 5934 H 568.143 -1.19043 1.66403 0
M  V30 5935 H 568.153 -3.62866 1.86527 0
M  V30 5936 H 566.828 -3.02941 2.84956 0
M  V30 5937 H 565.405 -3.56375 1.09777 0
M  V30 5938 N 567.59 -1.07411 -1.15328 0
M  V30 5939 C 568.537 -0.694995 -2.20087 0
M  V30 5940 C 569.507 0.313904 -1.63107 0
M  V30 5941 O 570.692 0.200216 -1.89747 0
M  V30 5942 C 567.832 -0.0996218 -3.44956 0
M  V30 5943 C 566.945 -1.16007 -4.16133 0
M  V30 5944 C 566.08 -0.529636 -5.28553 0
M  V30 5945 C 565.119 -1.57283 -5.91548 0
M  V30 5946 N 564.256 -0.964932 -6.95438 0
M  V30 5947 H 569.096 -1.5927 -2.51867 0
M  V30 5948 H 566.633 -0.796115 -1.23695 0
M  V30 5949 H 568.591 0.263197 -4.16369 0
M  V30 5950 H 567.221 0.761435 -3.13691 0
M  V30 5951 H 566.273 -1.64045 -3.4321 0
M  V30 5952 H 567.585 -1.95101 -4.59061 0
M  V30 5953 H 566.739 -0.114487 -6.06592 0
M  V30 5954 H 565.478 0.29307 -4.86819 0
M  V30 5955 H 564.483 -1.99775 -5.12221 0
M  V30 5956 H 565.708 -2.39783 -6.35359 0
M  V30 5957 H 563.654 -0.16314 -6.55797 0
M  V30 5958 H 563.571 -1.69311 -7.36797 0
M  V30 5959 H 564.839 -0.575305 -7.77374 0
M  V30 5960 N 569.068 1.32177 -0.85831 0
M  V30 5961 C 570.315 1.97125 -0.463484 0
M  V30 5962 C 570.643 1.67907 0.981705 0
M  V30 5963 O 569.898 0.961717 1.70439 0
M  V30 5964 C 570.197 3.51372 -0.653658 0
M  V30 5965 C 569.863 4.00584 -2.06987 0
M  V30 5966 C 568.525 4.13733 -2.4572 0
M  V30 5967 C 570.877 4.26624 -2.99402 0
M  V30 5968 C 568.205 4.50268 -3.76132 0
M  V30 5969 C 570.557 4.64618 -4.29316 0
M  V30 5970 C 569.221 4.75975 -4.67979 0
M  V30 5971 H 568.491 0.72133 -0.169601 0
M  V30 5972 H 571.138 1.57517 -1.08907 0
M  V30 5973 H 569.443 3.91761 0.0551328 0
M  V30 5974 H 571.14 3.99655 -0.328163 0
M  V30 5975 H 567.73 3.90837 -1.75911 0
M  V30 5976 H 571.914 4.1597 -2.70708 0
M  V30 5977 H 567.17 4.57256 -4.05865 0
M  V30 5978 H 571.344 4.83722 -5.00985 0
M  V30 5979 H 568.971 5.04041 -5.69076 0
M  V30 5980 N 570.547 0.616602 1.45037 0
M  V30 5981 C 571.793 0.123965 2.03022 0
M  V30 5982 C 572.148 -1.23508 1.47525 0
M  V30 5983 O 571.441 -1.80453 0.643981 0
M  V30 5984 C 571.635 0.0356829 3.57382 0
M  V30 5985 C 571.464 1.38462 4.27853 0
M  V30 5986 C 570.234 1.96766 4.65415 0
M  V30 5987 C 572.432 2.31536 4.59234 0
M  V30 5988 N 570.414 3.25046 5.20786 0
M  V30 5989 C 571.785 3.4442 5.15533 0
M  V30 5990 C 573.84 2.30796 4.41178 0
M  V30 5991 C 572.543 4.56742 5.55679 0
M  V30 5992 C 574.569 3.42171 4.82362 0
M  V30 5993 C 573.931 4.53778 5.38762 0
M  V30 5994 H 570.03 0.0889428 0.776925 0
M  V30 5995 H 572.614 0.816925 1.76733 0
M  V30 5996 H 570.785 -0.62652 3.83314 0
M  V30 5997 H 572.517 -0.464443 4.02026 0
M  V30 5998 H 569.272 1.4987 4.49261 0
M  V30 5999 H 569.696 3.90592 5.52962 0
M  V30 6000 H 574.338 1.45765 3.96878 0
M  V30 6001 H 572.056 5.42491 5.9894 0
M  V30 6002 H 575.642 3.42757 4.70116 0
M  V30 6003 H 574.522 5.38536 5.70043 0
M  V30 6004 N 572.025 -1.5352 0.356285 0
M  V30 6005 C 572.935 -2.29151 -0.502712 0
M  V30 6006 C 573.951 -1.34753 -1.1008 0
M  V30 6007 O 575.127 -1.67803 -1.11374 0
M  V30 6008 C 572.192 -3.05911 -1.63154 0
M  V30 6009 C 571.253 -4.15958 -1.06194 0
M  V30 6010 C 570.486 -4.8905 -2.13696 0
M  V30 6011 O 570.709 -4.61919 -3.34645 0
M  V30 6012 O 569.643 -5.75202 -1.77275 0
M  V30 6013 H 573.469 -3.03492 0.112466 0
M  V30 6014 H 571.054 -1.4891 0.120942 0
M  V30 6015 H 572.936 -3.53874 -2.28804 0
M  V30 6016 H 571.611 -2.34415 -2.23229 0
M  V30 6017 H 570.518 -3.7227 -0.369603 0
M  V30 6018 H 571.851 -4.89593 -0.505872 0
M  V30 6019 N 573.503 -0.0852151 -1.57369 0
M  V30 6020 C 574.435 0.907099 -2.10486 0
M  V30 6021 C 575.448 1.25259 -1.03991 0
M  V30 6022 O 576.637 1.20743 -1.31467 0
M  V30 6023 C 573.737 2.21908 -2.56145 0
M  V30 6024 C 572.91 2.05042 -3.86363 0
M  V30 6025 C 571.969 3.19664 -4.17973 0
M  V30 6026 O 570.995 2.94062 -4.87356 0
M  V30 6027 N 572.197 4.45151 -3.72587 0
M  V30 6028 H 574.962 0.453505 -2.96249 0
M  V30 6029 H 572.523 0.100157 -1.6159 0
M  V30 6030 H 574.515 2.97519 -2.74343 0
M  V30 6031 H 573.085 2.58723 -1.75446 0
M  V30 6032 H 572.305 1.13819 -3.77411 0
M  V30 6033 H 573.593 1.91039 -4.71574 0
M  V30 6034 H 572.991 4.68834 -3.16561 0
M  V30 6035 H 571.548 5.17744 -3.9596 0
M  V30 6036 N 574.981 1.5647 0.188427 0
M  V30 6037 C 576.206 1.85486 0.927891 0
M  V30 6038 C 576.631 0.669575 1.75779 0
M  V30 6039 O 575.989 -0.381573 1.77239 0
M  V30 6040 C 576.037 3.12784 1.7944 0
M  V30 6041 O 575.141 2.93805 2.894 0
M  V30 6042 H 574.482 0.610585 0.260925 0
M  V30 6043 H 577.012 2.037 0.191729 0
M  V30 6044 H 577.022 3.43749 2.19774 0
M  V30 6045 H 575.697 3.98671 1.18468 0
M  V30 6046 H 574.274 2.74153 2.52774 0
M  V30 6047 N 576.459 -0.456382 1.50847 0
M  V30 6048 C 577.705 -1.20914 1.62811 0
M  V30 6049 C 578.038 -1.91301 0.334304 0
M  V30 6050 O 577.313 -1.82775 -0.665098 0
M  V30 6051 C 577.596 -2.24122 2.81853 0
M  V30 6052 C 577.449 -1.57944 4.21158 0
M  V30 6053 C 578.768 -3.25295 2.96431 0
M  V30 6054 H 575.887 -0.438233 0.592554 0
M  V30 6055 H 578.529 -0.50091 1.83278 0
M  V30 6056 H 576.679 -2.84524 2.64534 0
M  V30 6057 H 578.351 -1.01025 4.50102 0
M  V30 6058 H 576.594 -0.882185 4.24735 0
M  V30 6059 H 577.265 -2.33014 5.00408 0
M  V30 6060 H 579.741 -2.7493 3.12335 0
M  V30 6061 H 578.617 -3.94822 3.81322 0
M  V30 6062 H 578.878 -3.90286 2.07676 0
M  V30 6063 N 577.937 -1.40673 -0.710563 0
M  V30 6064 C 579.353 -1.22813 -1.01928 0
M  V30 6065 C 579.553 -0.10687 -2.01216 0
M  V30 6066 O 578.609 0.533614 -2.46797 0
M  V30 6067 C 579.922 -2.57178 -1.5582 0
M  V30 6068 C 581.47 -2.64233 -1.67779 0
M  V30 6069 C 581.945 -3.98879 -2.25076 0
M  V30 6070 N 583.436 -4.00647 -2.32456 0
M  V30 6071 C 584.171 -5.01621 -2.77784 0
M  V30 6072 N 583.667 -6.12989 -3.22826 0
M  V30 6073 N 585.46 -4.88988 -2.77213 0
M  V30 6074 H 577.611 -2.12335 -0.05253 0
M  V30 6075 H 579.874 -0.9441 -0.085898 0
M  V30 6076 H 579.58 -3.39903 -0.903249 0
M  V30 6077 H 579.454 -2.78618 -2.54267 0
M  V30 6078 H 581.841 -1.81876 -2.3239 0
M  V30 6079 H 581.922 -2.46619 -0.679178 0
M  V30 6080 H 581.566 -4.81678 -1.61086 0
M  V30 6081 H 581.496 -4.13826 -3.25661 0
M  V30 6082 H 583.987 -3.20231 -2.0065 0
M  V30 6083 H 584.3 -6.85921 -3.55995 0
M  V30 6084 H 582.645 -6.16547 -3.20773 0
M  V30 6085 H 585.836 -4.01075 -2.41363 0
M  V30 6086 H 586.009 -5.67822 -3.12221 0
M  V30 6087 N 579.415 0.9433 -1.26252 0
M  V30 6088 C 580.345 2.05902 -1.10122 0
M  V30 6089 C 581.326 1.70099 -0.00700552 0
M  V30 6090 O 582.511 1.93377 -0.178641 0
M  V30 6091 C 579.641 3.39516 -0.731175 0
M  V30 6092 C 578.595 3.89372 -1.77688 0
M  V30 6093 C 577.921 5.19613 -1.26122 0
M  V30 6094 C 579.221 4.14489 -3.17799 0
M  V30 6095 H 580.915 2.19655 -2.03451 0
M  V30 6096 H 578.461 1.05548 -0.979576 0
M  V30 6097 H 580.414 4.17031 -0.605215 0
M  V30 6098 H 579.138 3.25733 0.23782 0
M  V30 6099 H 577.797 3.14036 -1.89148 0
M  V30 6100 H 577.445 5.02208 -0.282128 0
M  V30 6101 H 577.145 5.53939 -1.96023 0
M  V30 6102 H 578.669 5.99713 -1.14789 0
M  V30 6103 H 580.083 4.82625 -3.09428 0
M  V30 6104 H 578.48 4.60094 -3.85271 0
M  V30 6105 H 579.55 3.20347 -3.64014 0
M  V30 6106 N 580.893 1.08022 1.14757 0
M  V30 6107 C 582.141 0.805913 1.85336 0
M  V30 6108 C 582.462 -0.670162 1.83122 0
M  V30 6109 O 581.732 -1.48567 1.2769 0
M  V30 6110 H 580.312 0.295138 0.686223 0
M  V30 6111 H 582.974 1.36538 1.3908 0
M  V30 6112 H 582.07 1.14655 2.90277 0
M  V30 6113 N 582.371 -1.3172 0.865308 0
M  V30 6114 C 583.596 -2.01591 0.487415 0
M  V30 6115 C 584.021 -1.6455 -0.911307 0
M  V30 6116 O 583.379 -0.851689 -1.6005 0
M  V30 6117 C 583.427 -3.54759 0.646401 0
M  V30 6118 O 582.531 -4.11185 -0.316284 0
M  V30 6119 H 581.872 -0.634884 0.194468 0
M  V30 6120 H 584.402 -1.68024 1.16744 0
M  V30 6121 H 584.412 -4.04438 0.537932 0
M  V30 6122 H 583.087 -3.8106 1.66632 0
M  V30 6123 H 581.664 -3.72543 -0.163162 0
M  V30 6124 N 583.85 -0.624285 -1.44708 0
M  V30 6125 C 585.096 -0.13473 -2.02953 0
M  V30 6126 C 585.451 1.22724 -1.48178 0
M  V30 6127 O 584.744 1.80109 -0.653542 0
M  V30 6128 C 584.938 -0.0546353 -3.57358 0
M  V30 6129 C 584.767 -1.40729 -4.27113 0
M  V30 6130 C 583.537 -1.99231 -4.64365 0
M  V30 6131 C 585.735 -2.33968 -4.58 0
M  V30 6132 N 583.716 -3.27803 -5.19055 0
M  V30 6133 C 585.088 -3.47149 -5.137 0
M  V30 6134 C 587.143 -2.33132 -4.39948 0
M  V30 6135 C 585.846 -4.59682 -5.53249 0
M  V30 6136 C 587.872 -3.44724 -4.8054 0
M  V30 6137 C 587.234 -4.56629 -5.36348 0
M  V30 6138 H 583.332 -0.0930617 -0.776443 0
M  V30 6139 H 585.917 -0.826286 -1.76297 0
M  V30 6140 H 584.088 0.606183 -3.8364 0
M  V30 6141 H 585.82 0.443116 -4.02267 0
M  V30 6142 H 582.575 -1.52251 -4.4846 0
M  V30 6143 H 582.999 -3.93519 -5.50883 0
M  V30 6144 H 587.641 -1.47868 -3.961 0
M  V30 6145 H 585.359 -5.4566 -5.96054 0
M  V30 6146 H 588.945 -3.45245 -4.68291 0
M  V30 6147 H 587.825 -5.41551 -5.67179 0
M  V30 6148 N 585.328 1.53329 -0.364422 0
M  V30 6149 C 586.605 1.93557 0.281962 0
M  V30 6150 C 586.985 1.29786 1.6649 0
M  V30 6151 O 586.333 0.456512 2.23893 0
M  V30 6152 C 586.543 3.47405 0.333331 0
M  V30 6153 C 587.891 4.20699 0.574231 0
M  V30 6154 O 588.915 3.53779 0.414588 0
M  V30 6155 O 587.774 5.39287 0.885002 0
M  V30 6156 H 584.868 0.809573 0.168881 0
M  V30 6157 H 587.414 1.64494 -0.417121 0
M  V30 6158 H 586.186 3.86091 -0.636326 0
M  V30 6159 H 585.809 3.82697 1.07836 0
M  V30 6160 N 586.806 0.0935595 1.57322 0
M  V30 6161 C 588.222 -0.263091 1.57417 0
M  V30 6162 C 588.422 -1.68526 1.1046 0
M  V30 6163 O 587.478 -2.40139 0.780357 0
M  V30 6164 C 588.791 -0.0529201 3.00653 0
M  V30 6165 C 590.339 -0.120788 3.12767 0
M  V30 6166 C 590.814 0.0613707 4.57959 0
M  V30 6167 N 592.305 0.00648534 4.632 0
M  V30 6168 C 593.04 0.122699 5.73269 0
M  V30 6169 N 592.536 0.29366 6.92177 0
M  V30 6170 N 594.329 0.0640787 5.62063 0
M  V30 6171 H 586.48 1.02277 1.86154 0
M  V30 6172 H 588.743 0.4007 0.859153 0
M  V30 6173 H 588.449 0.929279 3.39201 0
M  V30 6174 H 588.323 -0.795899 3.68708 0
M  V30 6175 H 590.71 -1.09349 2.74093 0
M  V30 6176 H 590.791 0.653656 2.47307 0
M  V30 6177 H 590.435 1.03093 4.97327 0
M  V30 6178 H 590.365 -0.732748 5.21477 0
M  V30 6179 H 592.856 -0.123173 3.77699 0
M  V30 6180 H 593.169 0.37389 7.71895 0
M  V30 6181 H 591.514 0.329307 6.94219 0
M  V30 6182 H 594.705 -0.0683396 4.6805 0
M  V30 6183 H 594.878 0.158097 6.47807 0
M  V30 6184 N 588.284 -1.56567 -0.180126 0
M  V30 6185 C 589.532 -1.81133 -0.896392 0
M  V30 6186 C 589.853 -0.669114 -1.83161 0
M  V30 6187 O 589.123 0.311616 -1.93406 0
M  V30 6188 H 587.703 -0.668172 -0.333999 0
M  V30 6189 H 590.365 -1.94048 -0.182051 0
M  V30 6190 H 589.461 -2.74854 -1.47857 0
M  V30 6191 N 589.762 0.448376 -1.51087 0
M  V30 6192 C 590.695 1.56298 -1.66272 0
M  V30 6193 C 591.673 1.54381 -0.510419 0
M  V30 6194 O 592.857 1.73671 -0.732854 0
M  V30 6195 C 589.984 2.94883 -1.66618 0
M  V30 6196 C 589.03 3.14868 -2.87681 0
M  V30 6197 S 589.863 2.9234 -4.48662 0
M  V30 6198 C 591.019 4.33227 -4.51735 0
M  V30 6199 H 591.252 1.43182 -2.6055 0
M  V30 6200 H 588.785 0.637309 -1.40633 0
M  V30 6201 H 590.743 3.74771 -1.67502 0
M  V30 6202 H 589.404 3.05371 -0.735358 0
M  V30 6203 H 588.597 4.16166 -2.84292 0
M  V30 6204 H 588.199 2.42788 -2.84482 0
M  V30 6205 H 590.491 5.26247 -4.26697 0
M  V30 6206 H 591.434 4.41653 -5.53487 0
M  V30 6207 H 591.842 4.16367 -3.81181 0
M  V30 6208 N 591.24 1.41047 0.703093 0
M  V30 6209 C 592.172 1.38228 1.82827 0
M  V30 6210 C 593.185 0.285637 1.60275 0
M  V30 6211 O 594.374 0.54685 1.69917 0
M  V30 6212 C 591.474 1.13136 3.19458 0
M  V30 6213 C 590.647 2.34695 3.69103 0
M  V30 6214 C 589.706 2.05574 4.84382 0
M  V30 6215 O 588.732 2.78549 4.96386 0
M  V30 6216 N 589.934 1.04135 5.71083 0
M  V30 6217 H 592.699 2.35203 1.85741 0
M  V30 6218 H 590.26 1.35562 0.885125 0
M  V30 6219 H 592.252 0.916183 3.94193 0
M  V30 6220 H 590.822 0.247836 3.11616 0
M  V30 6221 H 590.042 2.71963 2.85359 0
M  V30 6222 H 591.33 3.15705 3.99009 0
M  V30 6223 H 590.728 0.43722 5.64008 0
M  V30 6224 H 589.285 0.886078 6.45749 0
M  V30 6225 N 592.718 -0.936591 1.26751 0
M  V30 6226 C 593.948 -1.71509 1.15188 0
M  V30 6227 C 594.356 -1.86885 -0.295037 0
M  V30 6228 O 593.699 -1.37915 -1.21347 0
M  V30 6229 C 593.761 -3.13853 1.75318 0
M  V30 6230 C 593.425 -3.21845 3.24445 0
M  V30 6231 C 594.422 -3.04771 4.21201 0
M  V30 6232 C 592.107 -3.45088 3.64992 0
M  V30 6233 C 594.101 -3.10816 5.56482 0
M  V30 6234 C 591.788 -3.50767 5.00405 0
M  V30 6235 C 592.786 -3.33648 5.9596 0
M  V30 6236 O 592.474 -3.39045 7.28906 0
M  V30 6237 H 592.206 -0.543658 0.401761 0
M  V30 6238 H 594.76 -1.18234 1.67958 0
M  V30 6239 H 592.99 -3.6857 1.17016 0
M  V30 6240 H 594.679 -3.73634 1.58596 0
M  V30 6241 H 595.445 -2.86665 3.91214 0
M  V30 6242 H 591.324 -3.57467 2.91098 0
M  V30 6243 H 594.868 -2.97372 6.31043 0
M  V30 6244 H 590.765 -3.68396 5.30052 0
M  V30 6245 H 591.533 -3.55558 7.37238 0
M  V30 6246 N 594.196 -1.08629 -1.14182 0
M  V30 6247 C 595.421 -0.83902 -1.89671 0
M  V30 6248 C 595.846 0.603332 -1.78161 0
M  V30 6249 O 595.204 1.42301 -1.12339 0
M  V30 6250 C 595.252 -1.26854 -3.37551 0
M  V30 6251 O 594.356 -0.42188 -4.10236 0
M  V30 6252 H 593.697 -0.304545 -0.590041 0
M  V30 6253 H 596.227 -1.4483 -1.44518 0
M  V30 6254 H 596.237 -1.25038 -3.88368 0
M  V30 6255 H 594.912 -2.31901 -3.45246 0
M  V30 6256 H 593.489 -0.503654 -3.69483 0
M  V30 6257 N 595.674 1.31259 -0.872281 0
M  V30 6258 C 596.624 2.26 -0.301295 0
M  V30 6259 C 597.608 1.50729 0.562991 0
M  V30 6260 O 598.8 1.72198 0.40949 0
M  V30 6261 C 595.929 3.39724 0.494227 0
M  V30 6262 C 595.015 4.22363 -0.383432 0
M  V30 6263 N 595.406 4.83724 -1.47799 0
M  V30 6264 C 593.704 4.45652 -0.176278 0
M  V30 6265 C 594.405 5.45523 -2.01939 0
M  V30 6266 N 593.381 5.27428 -1.31608 0
M  V30 6267 H 597.183 2.70981 -1.13782 0
M  V30 6268 H 594.697 1.45552 -0.720294 0
M  V30 6269 H 596.694 4.06626 0.919828 0
M  V30 6270 H 595.354 2.96286 1.32834 0
M  V30 6271 H 596.365 4.83313 -1.8609 0
M  V30 6272 H 593.042 4.12845 0.621698 0
M  V30 6273 H 594.432 6.04268 -2.93786 0
M  V30 6274 N 597.152 0.631951 1.44375 0
M  V30 6275 C 598.377 0.142146 2.06912 0
M  V30 6276 C 598.802 -1.17456 1.4692 0
M  V30 6277 O 598.16 -1.72074 0.570975 0
M  V30 6278 C 598.208 0.0417952 3.60576 0
M  V30 6279 O 597.312 -1.00194 4.00044 0
M  V30 6280 H 596.653 0.0851491 0.658518 0
M  V30 6281 H 599.183 0.868863 1.85235 0
M  V30 6282 H 599.193 -0.148517 4.0773 0
M  V30 6283 H 597.868 1.0031 4.03622 0
M  V30 6284 H 596.445 -0.786131 3.64519 0
M  V30 6285 N 598.631 -1.53133 0.372548 0
M  V30 6286 C 599.88 -2.00539 -0.216115 0
M  V30 6287 C 600.193 -1.26374 -1.49295 0
M  V30 6288 O 601.399 -1.64404 -2.16064 0
M  V30 6289 C 599.855 -3.57253 -0.435678 0
M  V30 6290 C 599.463 -4.40302 0.82693 0
M  V30 6291 C 601.207 -4.12995 -0.981618 0
M  V30 6292 C 599.114 -5.88583 0.576567 0
M  V30 6293 H 598.044 -0.749246 -0.084536 0
M  V30 6294 H 600.695 -1.76771 0.492364 0
M  V30 6295 H 599.077 -3.77202 -1.20559 0
M  V30 6296 H 600.251 -4.32124 1.60017 0
M  V30 6297 H 598.566 -3.95699 1.29659 0
M  V30 6298 H 601.163 -5.21418 -1.18436 0
M  V30 6299 H 601.506 -3.68027 -1.94581 0
M  V30 6300 H 602.039 -3.96871 -0.271696 0
M  V30 6301 H 598.778 -6.37841 1.51128 0
M  V30 6302 H 598.298 -5.99592 -0.158047 0
M  V30 6303 H 599.977 -6.46676 0.204722 0
M  V30 6304 N 600.109 -0.101901 -1.5727 0
M  V30 6305 C 601.358 0.559922 -1.93772 0
M  V30 6306 C 601.671 1.68913 -0.98629 0
M  V30 6307 O 602.877 2.41256 -1.24529 0
M  V30 6308 C 601.333 1.04739 -3.44322 0
M  V30 6309 C 600.941 -0.05243 -4.47969 0
M  V30 6310 C 602.685 1.68157 -3.89774 0
M  V30 6311 C 600.592 0.450781 -5.8968 0
M  V30 6312 H 599.522 0.212931 -0.723309 0
M  V30 6313 H 602.173 -0.179001 -1.82625 0
M  V30 6314 H 600.555 1.84021 -3.50645 0
M  V30 6315 H 601.729 -0.828157 -4.53297 0
M  V30 6316 H 600.044 -0.592202 -4.12167 0
M  V30 6317 H 602.641 2.0689 -4.93052 0
M  V30 6318 H 602.984 2.55338 -3.28798 0
M  V30 6319 H 603.517 0.954453 -3.8618 0
M  V30 6320 H 600.256 -0.38458 -6.54371 0
M  V30 6321 H 599.776 1.19336 -5.87809 0
M  V30 6322 H 601.455 0.917555 -6.40461 0
M  V30 6323 N 601.587 1.56661 0.17182 0
M  V30 6324 C 602.815 1.861 0.904115 0
M  V30 6325 C 603.23 0.687227 1.75848 0
M  V30 6326 O 602.587 -0.343671 1.79235 0
M  V30 6327 C 602.638 3.14568 1.78127 0
M  V30 6328 O 602.359 4.27422 0.961366 0
M  V30 6329 C 603.86 3.5735 2.62327 0
M  V30 6330 H 601.08 0.617445 0.262684 0
M  V30 6331 H 603.624 2.03775 0.172068 0
M  V30 6332 H 601.779 2.98721 2.46666 0
M  V30 6333 H 602.193 5.00725 1.56123 0
M  V30 6334 H 603.667 4.50144 3.1949 0
M  V30 6335 H 604.144 2.81445 3.37173 0
M  V30 6336 H 604.75 3.75807 1.99121 0
M  V30 6337 N 603.065 -0.440357 1.51323 0
M  V30 6338 C 604.013 -1.55492 1.72988 0
M  V30 6339 C 605.007 -1.58564 0.596138 0
M  V30 6340 O 606.213 -1.62345 0.777443 0
M  V30 6341 H 602.588 -0.516532 0.546533 0
M  V30 6342 H 604.559 -1.34392 2.66423 0
M  V30 6343 C 603.308 -2.93176 1.86931 0
M  V30 6344 H 602.631 -2.91543 2.73574 0
M  V30 6345 H 604.071 -3.70537 2.06103 0
M  V30 6346 C 602.53 -3.30988 0.628365 0
M  V30 6347 O 603.06 -4.01106 -0.218367 0
M  V30 6348 N 601.266 -2.86719 0.473339 0
M  V30 6349 H 600.813 -2.2983 1.16345 0
M  V30 6350 H 600.771 -3.12381 -0.355727 0
M  V30 6351 N 604.543 -1.41418 -0.695603 0
M  V30 6352 C 605.473 -1.46035 -1.82197 0
M  V30 6353 C 606.454 -0.319025 -1.67082 0
M  V30 6354 O 607.639 -0.530462 -1.86815 0
M  V30 6355 C 604.769 -1.34179 -3.20333 0
M  V30 6356 C 603.723 -2.46123 -3.50154 0
M  V30 6357 C 603.049 -2.19332 -4.87645 0
M  V30 6358 C 604.349 -3.88463 -3.49133 0
M  V30 6359 H 606.043 -2.40303 -1.78591 0
M  V30 6360 H 603.589 -1.15663 -0.857797 0
M  V30 6361 H 605.542 -1.36021 -3.98844 0
M  V30 6362 H 604.266 -0.363952 -3.24566 0
M  V30 6363 H 602.925 -2.43563 -2.73994 0
M  V30 6364 H 602.573 -1.19891 -4.88503 0
M  V30 6365 H 602.273 -2.94344 -5.08562 0
M  V30 6366 H 603.797 -2.22889 -5.68465 0
M  V30 6367 H 605.211 -3.92738 -4.17648 0
M  V30 6368 H 603.608 -4.63158 -3.81582 0
M  V30 6369 H 604.678 -4.16617 -2.48109 0
M  V30 6370 N 606.021 0.929856 -1.27246 0
M  V30 6371 C 606.951 2.04722 -1.12299 0
M  V30 6372 C 607.932 1.70082 -0.0250464 0
M  V30 6373 O 609.117 1.93176 -0.199141 0
M  V30 6374 C 606.247 3.38721 -0.767145 0
M  V30 6375 C 605.201 3.87466 -1.81808 0
M  V30 6376 C 604.527 5.18246 -1.31626 0
M  V30 6377 C 605.827 4.11095 -3.22177 0
M  V30 6378 H 607.521 2.17485 -2.05769 0
M  V30 6379 H 605.067 1.04503 -0.990715 0
M  V30 6380 H 607.02 4.16366 -0.649413 0
M  V30 6381 H 605.744 3.25967 0.203259 0
M  V30 6382 H 604.403 3.12012 -1.92468 0
M  V30 6383 H 604.051 5.01881 -0.335378 0
M  V30 6384 H 603.751 5.51829 -2.01887 0
M  V30 6385 H 605.275 5.98462 -1.21143 0
M  V30 6386 H 606.689 4.79316 -3.1453 0
M  V30 6387 H 605.086 4.55982 -3.90129 0
M  V30 6388 H 606.156 3.16468 -3.67391 0
M  V30 6389 N 607.499 1.09233 1.13605 0
M  V30 6390 C 608.729 0.847677 1.88409 0
M  V30 6391 C 609.137 -0.604524 1.79282 0
M  V30 6392 O 608.48 -1.42773 1.15592 0
M  V30 6393 C 608.542 1.20153 3.38827 0
M  V30 6394 C 608.206 2.65824 3.71735 0
M  V30 6395 C 609.203 3.64072 3.71143 0
M  V30 6396 C 606.888 3.01894 4.01454 0
M  V30 6397 C 608.882 4.96419 3.99808 0
M  V30 6398 C 606.569 4.34433 4.29781 0
M  V30 6399 C 607.567 5.31505 4.28942 0
M  V30 6400 O 607.255 6.61659 4.56576 0
M  V30 6401 H 606.987 0.304813 0.603378 0
M  V30 6402 H 609.541 1.4573 1.44748 0
M  V30 6403 H 607.771 0.534946 3.82982 0
M  V30 6404 H 609.46 0.936349 3.94952 0
M  V30 6405 H 610.226 3.37549 3.4826 0
M  V30 6406 H 606.105 2.26971 4.01255 0
M  V30 6407 H 609.649 5.7218 3.99069 0
M  V30 6408 H 605.546 4.607 4.52135 0
M  V30 6409 H 606.314 6.67102 4.74254 0
M  V30 6410 N 608.977 -1.30795 0.87923 0
M  V30 6411 C 609.927 -2.25838 0.313276 0
M  V30 6412 C 610.911 -1.51025 -0.55499 0
M  V30 6413 O 612.103 -1.72413 -0.400353 0
M  V30 6414 C 609.232 -3.39981 -0.476204 0
M  V30 6415 C 608.318 -4.22154 0.405826 0
M  V30 6416 N 608.709 -4.82934 1.50362 0
M  V30 6417 C 607.007 -4.45552 0.199909 0
M  V30 6418 C 607.708 -5.44444 2.0483 0
M  V30 6419 N 606.684 -5.26723 1.34403 0
M  V30 6420 H 610.486 -2.70374 1.15218 0
M  V30 6421 H 608 -1.45168 0.728003 0
M  V30 6422 H 609.997 -4.07108 -0.898251 0
M  V30 6423 H 608.657 -2.96986 -1.31261 0
M  V30 6424 H 609.668 -4.82319 1.8865 0
M  V30 6425 H 606.345 -4.13169 -0.599795 0
M  V30 6426 H 607.735 -6.02701 2.96986 0
M  V30 6427 N 610.455 -0.639598 -1.44038 0
M  V30 6428 C 611.701 -0.147698 -2.02261 0
M  V30 6429 C 612.034 1.23031 -1.50256 0
M  V30 6430 O 611.309 1.81847 -0.690068 0
M  V30 6431 C 611.592 -0.14362 -3.59813 0
M  V30 6432 C 611.445 -1.55458 -4.22082 0
M  V30 6433 C 612.764 0.527317 -4.36929 0
M  V30 6434 H 609.883 -0.0551453 -0.734934 0
M  V30 6435 H 612.525 -0.817688 -1.71505 0
M  V30 6436 H 610.675 0.426898 -3.86147 0
M  V30 6437 H 612.347 -2.17464 -4.06826 0
M  V30 6438 H 610.59 -2.10594 -3.79253 0
M  V30 6439 H 611.261 -1.50369 -5.31124 0
M  V30 6440 H 613.737 0.0420504 -4.16079 0
M  V30 6441 H 612.613 0.499389 -5.46624 0
M  V30 6442 H 612.874 1.59914 -4.12165 0
M  V30 6443 N 611.933 1.52934 -0.380664 0
M  V30 6444 C 613.179 2.01765 0.20458 0
M  V30 6445 C 613.512 1.26696 1.47179 0
M  V30 6446 O 612.787 0.364936 1.91046 0
M  V30 6447 C 613.07 3.56869 0.481269 0
M  V30 6448 C 612.923 4.42617 -0.800629 0
M  V30 6449 C 614.242 4.2121 1.27554 0
M  V30 6450 H 611.361 0.733388 0.0728803 0
M  V30 6451 H 614.003 1.83068 -0.50853 0
M  V30 6452 H 612.153 3.72932 1.08875 0
M  V30 6453 H 613.825 4.38323 -1.43773 0
M  V30 6454 H 612.068 4.09977 -1.4178 0
M  V30 6455 H 612.739 5.49134 -0.561791 0
M  V30 6456 H 615.215 4.09072 0.761514 0
M  V30 6457 H 614.091 5.29732 1.43788 0
M  V30 6458 H 614.352 3.78269 2.28833 0
M  V30 6459 N 613.412 0.11024 1.57214 0
M  V30 6460 C 614.66 -0.548783 1.94506 0
M  V30 6461 C 614.981 -1.67772 0.99386 0
M  V30 6462 O 614.251 -1.9584 0.0485841 0
M  V30 6463 H 612.831 -0.205715 0.718116 0
M  V30 6464 H 615.493 0.177127 1.94093 0
M  V30 6465 H 614.589 -0.949096 2.97319 0
M  V30 6466 N 614.89 -1.56749 -0.16351 0
M  V30 6467 C 616.136 -1.83597 -0.875436 0
M  V30 6468 C 616.491 -0.691907 -1.79528 0
M  V30 6469 O 615.784 0.311193 -1.89056 0
M  V30 6470 C 615.978 -3.14342 -1.70071 0
M  V30 6471 C 615.807 -4.41356 -0.862265 0
M  V30 6472 C 614.577 -5.02467 -0.534299 0
M  V30 6473 C 616.775 -5.1391 -0.200203 0
M  V30 6474 N 614.757 -6.13068 0.31947 0
M  V30 6475 C 616.128 -6.17862 0.514398 0
M  V30 6476 C 618.183 -4.97757 -0.119171 0
M  V30 6477 C 616.886 -7.07412 1.30236 0
M  V30 6478 C 618.912 -5.87756 0.655477 0
M  V30 6479 C 618.274 -6.91178 1.35842 0
M  V30 6480 H 614.373 -0.722702 -0.298708 0
M  V30 6481 H 616.957 -1.94182 -0.141883 0
M  V30 6482 H 615.128 -3.04933 -2.40562 0
M  V30 6483 H 616.86 -3.29156 -2.35453 0
M  V30 6484 H 613.615 -4.65611 -0.866222 0
M  V30 6485 H 614.039 -6.72978 0.736893 0
M  V30 6486 H 618.681 -4.178 -0.648278 0
M  V30 6487 H 616.399 -7.86808 1.84278 0
M  V30 6488 H 619.985 -5.77328 0.719948 0
M  V30 6489 H 618.865 -7.59614 1.94822 0
M  V30 6490 N 616.368 0.432326 -1.51554 0
M  V30 6491 C 617.596 1.20364 -1.68286 0
M  V30 6492 C 618.011 1.84888 -0.38233 0
M  V30 6493 O 617.368 1.70924 0.639627 0
M  V30 6494 C 617.419 2.28398 -2.80208 0
M  V30 6495 O 617.14 1.66512 -4.05223 0
M  V30 6496 C 618.641 3.18584 -3.08251 0
M  V30 6497 H 615.861 0.36259 -0.564596 0
M  V30 6498 H 618.405 0.511647 -1.97996 0
M  V30 6499 H 616.56 2.93305 -2.53083 0
M  V30 6500 H 616.974 2.37951 -4.67418 0
M  V30 6501 H 618.448 3.90511 -3.90135 0
M  V30 6502 H 618.925 3.79628 -2.2086 0
M  V30 6503 H 619.531 2.59372 -3.37055 0
M  V30 6504 N 617.846 1.41785 0.688094 0
M  V30 6505 C 619.123 1.32031 1.44316 0
M  V30 6506 C 619.503 -0.0486079 2.11044 0
M  V30 6507 O 618.851 -1.06332 2.02252 0
M  V30 6508 C 619.061 2.47906 2.45649 0
M  V30 6509 C 620.409 2.89415 3.10683 0
M  V30 6510 O 621.433 2.477 2.55975 0
M  V30 6511 O 620.292 3.61573 4.09789 0
M  V30 6512 H 617.386 0.519994 0.643067 0
M  V30 6513 H 619.932 1.53765 0.71794 0
M  V30 6514 H 618.704 3.39222 1.95048 0
M  V30 6515 H 618.327 2.28089 3.25671 0
M  V30 6516 N 619.324 -0.923095 1.27737 0
M  V30 6517 C 620.57 -1.67409 1.15524 0
M  V30 6518 C 620.925 -1.90124 -0.295072 0
M  V30 6519 O 620.218 -1.48382 -1.21216 0
M  V30 6520 C 620.412 -3.04125 1.8773 0
M  V30 6521 C 620.241 -2.94752 3.39634 0
M  V30 6522 C 619.011 -2.96783 4.0896 0
M  V30 6523 C 621.209 -2.73524 4.35533 0
M  V30 6524 N 619.191 -2.779 5.47398 0
M  V30 6525 C 620.562 -2.63391 5.61271 0
M  V30 6526 C 622.617 -2.58447 4.2557 0
M  V30 6527 C 621.32 -2.3972 6.78179 0
M  V30 6528 C 623.346 -2.36154 5.42204 0
M  V30 6529 C 622.708 -2.26768 6.669 0
M  V30 6530 H 618.807 -0.619196 0.477619 0
M  V30 6531 H 621.391 -1.09094 1.61266 0
M  V30 6532 H 619.562 -3.60545 1.44436 0
M  V30 6533 H 621.294 -3.6819 1.67982 0
M  V30 6534 H 618.049 -3.07186 3.60463 0
M  V30 6535 H 618.473 -2.71576 6.20141 0
M  V30 6536 H 623.115 -2.6446 3.2988 0
M  V30 6537 H 620.833 -2.32447 7.73947 0
M  V30 6538 H 624.419 -2.25367 5.36378 0
M  V30 6539 H 623.299 -2.09751 7.55628 0
M  V30 6540 N 620.802 -1.09834 -1.13024 0
M  V30 6541 C 621.75 -0.736283 -2.20639 0
M  V30 6542 C 622.744 0.264725 -1.67319 0
M  V30 6543 O 623.95 0.125745 -1.7956 0
M  V30 6544 H 620.325 -0.220136 -0.719058 0
M  V30 6545 H 622.296 -1.65295 -2.48436 0
M  V30 6546 C 621.045 -0.177544 -3.47246 0
M  V30 6547 H 620.368 -0.939009 -3.88616 0
M  V30 6548 H 621.808 0.0378007 -4.23983 0
M  V30 6549 C 620.267 1.08824 -3.1884 0
M  V30 6550 O 620.797 2.1708 -3.37993 0
M  V30 6551 N 619.003 1.00442 -2.7269 0
M  V30 6552 H 618.55 0.123383 -2.57304 0
M  V30 6553 H 618.508 1.85206 -2.5406 0
M  V30 6554 N 622.28 1.30327 -0.886154 0
M  V30 6555 C 623.21 2.30549 -0.370028 0
M  V30 6556 C 624.191 1.61039 0.547751 0
M  V30 6557 O 625.376 1.8864 0.461353 0
M  V30 6558 C 622.506 3.44808 0.415275 0
M  V30 6559 C 621.46 4.26024 -0.41085 0
M  V30 6560 C 620.786 5.32347 0.501128 0
M  V30 6561 C 622.086 4.95433 -1.65359 0
M  V30 6562 H 623.78 2.73969 -1.20754 0
M  V30 6563 H 621.326 1.3171 -0.582097 0
M  V30 6564 H 623.279 4.13986 0.78699 0
M  V30 6565 H 622.003 3.00197 1.28644 0
M  V30 6566 H 620.662 3.58535 -0.764719 0
M  V30 6567 H 620.31 4.83982 1.37004 0
M  V30 6568 H 620.01 5.87581 -0.0478356 0
M  V30 6569 H 621.534 6.0438 0.869333 0
M  V30 6570 H 622.948 5.5712 -1.35239 0
M  V30 6571 H 621.345 5.60537 -2.14284 0
M  V30 6572 H 622.415 4.21493 -2.39733 0
M  V30 6573 N 623.758 0.647228 1.43697 0
M  V30 6574 C 624.721 -0.0385101 2.29168 0
M  V30 6575 C 625.721 -0.756487 1.41894 0
M  V30 6576 O 626.911 -0.598641 1.63591 0
M  V30 6577 C 624.043 -1.06524 3.23829 0
M  V30 6578 H 625.236 0.713445 2.9129 0
M  V30 6579 H 622.789 0.408153 1.50877 0
M  V30 6580 H 623.524 -1.84664 2.66589 0
M  V30 6581 H 623.309 -0.554147 3.88164 0
M  V30 6582 H 624.799 -1.54432 3.87996 0
M  V30 6583 N 625.236 -1.5273 0.388769 0
M  V30 6584 C 626.166 -2.29353 -0.438111 0
M  V30 6585 C 627.147 -1.32719 -1.06394 0
M  V30 6586 O 628.332 -1.61612 -1.07681 0
M  V30 6587 C 625.462 -3.09995 -1.56589 0
M  V30 6588 C 624.416 -4.14509 -1.06613 0
M  V30 6589 C 623.742 -4.83372 -2.28594 0
M  V30 6590 C 625.042 -5.22127 -0.134459 0
M  V30 6591 H 626.736 -2.98723 0.201206 0
M  V30 6592 H 624.282 -1.43665 0.0982089 0
M  V30 6593 H 626.235 -3.62357 -2.15118 0
M  V30 6594 H 624.959 -2.38357 -2.23279 0
M  V30 6595 H 623.618 -3.63128 -0.503383 0
M  V30 6596 H 623.266 -4.08283 -2.93792 0
M  V30 6597 H 622.966 -5.54012 -1.95817 0
M  V30 6598 H 624.49 -5.38538 -2.87766 0
M  V30 6599 H 625.904 -5.69851 -0.627914 0
M  V30 6600 H 624.301 -6.00011 0.103534 0
M  V30 6601 H 625.371 -4.77971 0.816798 0
M  V30 6602 N 626.714 -0.118576 -1.57153 0
M  V30 6603 C 627.662 0.849114 -2.16547 0
M  V30 6604 C 628.656 1.27567 -1.11458 0
M  V30 6605 O 629.862 1.24746 -1.29763 0
M  V30 6606 H 626.237 0.291935 -0.693021 0
M  V30 6607 H 628.208 0.323693 -2.96639 0
M  V30 6608 C 626.957 2.08951 -2.77912 0
M  V30 6609 H 626.28 1.77021 -3.58474 0
M  V30 6610 H 627.72 2.74666 -3.23008 0
M  V30 6611 C 626.179 2.87899 -1.74974 0
M  V30 6612 O 626.709 3.83268 -1.20285 0
M  V30 6613 N 624.915 2.51884 -1.44924 0
M  V30 6614 H 624.462 1.74397 -1.89587 0
M  V30 6615 H 624.42 3.05003 -0.762921 0
M  V30 6616 N 628.193 1.56834 0.155195 0
M  V30 6617 C 629.604 1.72421 0.716082 0
M  V30 6618 C 629.955 0.731685 1.82046 0
M  V30 6619 O 629.08 -0.103481 2.16152 0
M  V30 6620 C 629.675 3.12629 1.30571 0
M  V30 6621 C 628.234 3.29846 1.81325 0
M  V30 6622 C 627.381 2.68359 0.698494 0
M  V30 6623 H 630.332 1.58544 -0.0703861 0
M  V30 6624 H 630.353 3.12174 2.1755 0
M  V30 6625 H 629.865 3.84844 0.501701 0
M  V30 6626 H 627.966 2.62614 2.64319 0
M  V30 6627 H 628.079 4.37727 1.9476 0
M  V30 6628 H 626.443 2.28604 1.12305 0
M  V30 6629 H 627.226 3.43171 -0.0939366 0
M  V30 6630 N 629.671 -0.424282 1.51781 0
M  V30 6631 C 630.581 -1.54087 1.76902 0
M  V30 6632 C 631.597 -1.61249 0.653826 0
M  V30 6633 O 632.773 -1.78247 0.937552 0
M  V30 6634 C 629.838 -2.8996 1.90063 0
M  V30 6635 C 628.899 -2.92809 3.13945 0
M  V30 6636 C 628.132 -4.22201 3.26469 0
M  V30 6637 O 628.355 -5.15286 2.44616 0
M  V30 6638 O 627.289 -4.31599 4.1953 0
M  V30 6639 H 631.115 -1.358 2.71647 0
M  V30 6640 H 628.7 -0.608618 1.36441 0
M  V30 6641 H 630.582 -3.70575 2.0063 0
M  V30 6642 H 629.257 -3.08347 0.985067 0
M  V30 6643 H 628.164 -2.11102 3.08847 0
M  V30 6644 H 629.497 -2.79369 4.05233 0
M  V30 6645 N 631.149 -1.42148 -0.680565 0
M  V30 6646 C 632.397 -1.42029 -1.43779 0
M  V30 6647 C 632.718 -0.0356347 -1.94967 0
M  V30 6648 O 631.988 0.924936 -1.7269 0
M  V30 6649 H 630.568 -0.522835 -0.533529 0
M  V30 6650 H 633.23 -1.7752 -0.804538 0
M  V30 6651 H 632.326 -2.11658 -2.29363 0
M  V30 6652 N 632.627 0.916307 -1.28225 0
M  V30 6653 C 633.875 1.6619 -1.15002 0
M  V30 6654 C 634.196 1.92642 0.302329 0
M  V30 6655 O 633.466 1.54076 1.20985 0
M  V30 6656 H 632.046 0.615964 -0.422608 0
M  V30 6657 H 634.708 1.09963 -1.60917 0
M  V30 6658 H 633.804 2.62533 -1.68769 0
M  V30 6659 N 634.105 1.10431 1.1244 0
M  V30 6660 C 635.516 0.864439 1.65482 0
M  V30 6661 C 635.867 -0.60527 1.8663 0
M  V30 6662 O 634.992 -1.46492 1.59276 0
M  V30 6663 C 635.587 1.56267 3.0061 0
M  V30 6664 C 634.146 1.3695 3.50602 0
M  V30 6665 C 633.293 1.61209 2.25626 0
M  V30 6666 H 636.244 1.26203 0.962209 0
M  V30 6667 H 636.265 1.00166 3.67079 0
M  V30 6668 H 635.777 2.63231 2.85186 0
M  V30 6669 H 633.878 0.321481 3.71211 0
M  V30 6670 H 633.991 2.11143 4.30064 0
M  V30 6671 H 632.355 1.03482 2.32731 0
M  V30 6672 H 633.138 2.69425 2.12756 0
M  V30 6673 N 635.583 -1.29855 0.893053 0
M  V30 6674 C 636.531 -2.29867 0.355512 0
M  V30 6675 C 637.525 -1.60502 -0.541801 0
M  V30 6676 O 638.731 -1.74902 -0.425339 0
M  V30 6677 H 635.106 -0.745805 0.0963247 0
M  V30 6678 H 637.077 -2.72655 1.21252 0
M  V30 6679 C 635.826 -3.453 -0.407801 0
M  V30 6680 H 635.149 -3.98864 0.273426 0
M  V30 6681 H 636.589 -4.17334 -0.748887 0
M  V30 6682 C 635.048 -2.96051 -1.60795 0
M  V30 6683 O 635.578 -2.96763 -2.7073 0
M  V30 6684 N 633.784 -2.51963 -1.44786 0
M  V30 6685 H 633.331 -2.51583 -0.553498 0
M  V30 6686 H 633.289 -2.1937 -2.2522 0
M  V30 6687 N 637.061 -0.65484 -1.43351 0
M  V30 6688 C 638.307 -0.177749 -2.02622 0
M  V30 6689 C 638.662 1.19553 -1.50748 0
M  V30 6690 O 637.955 1.78683 -0.691599 0
M  V30 6691 C 638.149 -0.130424 -3.57162 0
M  V30 6692 C 637.978 -1.49757 -4.24032 0
M  V30 6693 C 636.748 -2.09036 -4.60035 0
M  V30 6694 C 638.946 -2.4363 -4.52934 0
M  V30 6695 N 636.928 -3.3874 -5.11985 0
M  V30 6696 C 638.299 -3.57968 -5.0622 0
M  V30 6697 C 640.354 -2.42412 -4.34903 0
M  V30 6698 C 639.057 -4.71314 -5.43374 0
M  V30 6699 C 641.083 -3.5484 -4.7312 0
M  V30 6700 C 640.445 -4.67903 -5.26541 0
M  V30 6701 H 636.544 -0.10951 -0.774294 0
M  V30 6702 H 639.128 -0.863495 -1.74505 0
M  V30 6703 H 637.299 0.524671 -3.8484 0
M  V30 6704 H 639.031 0.35769 -4.03116 0
M  V30 6705 H 635.786 -1.61729 -4.4513 0
M  V30 6706 H 636.21 -4.05116 -5.42412 0
M  V30 6707 H 640.852 -1.56236 -3.92874 0
M  V30 6708 H 638.57 -5.5818 -5.84346 0
M  V30 6709 H 642.156 -3.55101 -4.60863 0
M  V30 6710 H 641.036 -5.5346 -5.55564 0
M  V30 6711 N 638.539 1.52521 -0.396863 0
M  V30 6712 C 639.785 2.01971 0.183169 0
M  V30 6713 C 640.118 1.2825 1.45827 0
M  V30 6714 O 639.393 0.385179 1.90648 0
M  V30 6715 C 639.676 3.5736 0.443391 0
M  V30 6716 C 639.529 4.41743 -0.84753 0
M  V30 6717 C 640.848 4.22539 1.2308 0
M  V30 6718 H 637.967 0.734119 0.0650976 0
M  V30 6719 H 640.609 1.82519 -0.527918 0
M  V30 6720 H 638.759 3.74066 1.04914 0
M  V30 6721 H 640.431 4.36773 -1.48414 0
M  V30 6722 H 638.674 4.0845 -1.4612 0
M  V30 6723 H 639.345 5.48507 -0.620003 0
M  V30 6724 H 641.821 4.09857 0.718084 0
M  V30 6725 H 640.697 5.31227 1.38162 0
M  V30 6726 H 640.958 3.80675 2.24808 0
M  V30 6727 N 640.017 0.126909 1.57088 0
M  V30 6728 C 641.433 -0.229641 1.57939 0
M  V30 6729 C 641.633 -1.66145 1.1401 0
M  V30 6730 O 640.689 -2.3843 0.831119 0
M  V30 6731 C 642.002 0.0108648 3.00698 0
M  V30 6732 C 643.55 -0.054418 3.12953 0
M  V30 6733 C 644.025 0.158497 4.57726 0
M  V30 6734 N 645.516 0.104735 4.63082 0
M  V30 6735 C 646.251 0.24427 5.72879 0
M  V30 6736 N 645.747 0.440415 6.91399 0
M  V30 6737 N 647.54 0.183286 5.61801 0
M  V30 6738 H 639.691 1.06203 1.83942 0
M  V30 6739 H 641.954 0.418834 0.85046 0
M  V30 6740 H 641.66 1.00102 3.37154 0
M  V30 6741 H 641.534 -0.717512 3.70313 0
M  V30 6742 H 643.921 -1.0351 2.7635 0
M  V30 6743 H 644.002 0.705967 2.45865 0
M  V30 6744 H 643.646 1.13619 4.95028 0
M  V30 6745 H 643.576 -0.62197 5.22914 0
M  V30 6746 H 646.067 -0.0430298 3.77876 0
M  V30 6747 H 646.38 0.537536 7.70928 0
M  V30 6748 H 644.725 0.476488 6.93365 0
M  V30 6749 H 647.916 0.0309561 4.6809 0
M  V30 6750 H 648.089 0.295471 6.47326 0
M  V30 6751 N 641.495 -1.56914 -0.146875 0
M  V30 6752 C 642.443 -1.99224 -1.20053 0
M  V30 6753 C 643.437 -0.884661 -1.44465 0
M  V30 6754 O 644.643 -1.06984 -1.44756 0
M  V30 6755 H 641.018 -0.634191 -0.404112 0
M  V30 6756 H 642.989 -2.86998 -0.816987 0
M  V30 6757 C 641.738 -2.38899 -2.52632 0
M  V30 6758 H 641.061 -3.23677 -2.34677 0
M  V30 6759 H 642.501 -2.72326 -3.24984 0
M  V30 6760 C 640.96 -1.2417 -3.13183 0
M  V30 6761 O 641.49 -0.542503 -3.9802 0
M  V30 6762 N 639.696 -1.00592 -2.72635 0
M  V30 6763 H 639.243 -1.57627 -2.03744 0
M  V30 6764 H 639.201 -0.240174 -3.13481 0
M  V30 6765 N 642.974 0.416227 -1.52004 0
M  V30 6766 C 644.221 1.16383 -1.65714 0
M  V30 6767 C 644.549 1.9068 -0.383594 0
M  V30 6768 O 643.804 1.85174 0.633185 0
M  V30 6769 C 644.103 2.18923 -2.82502 0
M  V30 6770 C 643.769 1.61485 -4.20991 0
M  V30 6771 C 642.431 1.45545 -4.58661 0
M  V30 6772 C 644.783 1.19468 -5.07323 0
M  V30 6773 C 642.111 0.860937 -5.80349 0
M  V30 6774 C 644.463 0.614386 -6.29609 0
M  V30 6775 C 643.127 0.442056 -6.66035 0
M  V30 6776 H 642.397 0.425875 -0.606392 0
M  V30 6777 H 645.044 0.45199 -1.8609 0
M  V30 6778 H 643.349 2.96225 -2.56433 0
M  V30 6779 H 645.046 2.76628 -2.90307 0
M  V30 6780 H 641.636 1.74873 -3.91302 0
M  V30 6781 H 645.82 1.30596 -4.78809 0
M  V30 6782 H 641.076 0.715372 -6.072 0
M  V30 6783 H 645.25 0.280393 -6.95835 0
M  V30 6784 H 642.877 -0.0207218 -7.60197 0
M  V30 6785 N 644.452 1.42507 0.673017 0
M  V30 6786 C 645.698 1.43284 1.43519 0
M  V30 6787 C 646.031 0.049668 1.94136 0
M  V30 6788 O 645.306 -0.926369 1.71022 0
M  V30 6789 C 645.589 2.45874 2.63093 0
M  V30 6790 C 645.442 3.93388 2.18096 0
M  V30 6791 C 646.761 2.45431 3.6531 0
M  V30 6792 H 643.88 0.521752 0.520522 0
M  V30 6793 H 646.522 1.73932 0.764701 0
M  V30 6794 H 644.672 2.19869 3.20296 0
M  V30 6795 H 646.344 4.30379 1.66046 0
M  V30 6796 H 644.587 4.07169 1.49652 0
M  V30 6797 H 645.258 4.60752 3.03993 0
M  V30 6798 H 647.734 2.68561 3.17827 0
M  V30 6799 H 646.61 3.19189 4.46553 0
M  V30 6800 H 646.871 1.48092 4.16559 0
M  V30 6801 N 645.93 -0.909495 1.28709 0
M  V30 6802 C 647.207 -1.63865 1.06806 0
M  V30 6803 C 647.587 -2.07445 -0.391143 0
M  V30 6804 O 646.935 -1.82269 -1.37805 0
M  V30 6805 C 647.145 -2.82692 2.04661 0
M  V30 6806 C 648.493 -3.5361 2.35042 0
M  V30 6807 O 649.517 -2.92847 2.02779 0
M  V30 6808 O 648.376 -4.63131 2.90124 0
M  V30 6809 H 645.47 -0.719065 0.408502 0
M  V30 6810 H 648.016 -0.958424 1.40044 0
M  V30 6811 H 646.788 -2.47614 3.0299 0
M  V30 6812 H 646.411 -3.58426 1.72095 0
M  V30 6813 N 647.408 -1.11026 -1.11852 0
M  V30 6814 C 648.633 -0.879064 -1.87849 0
M  V30 6815 C 649.058 0.565406 -1.79401 0
M  V30 6816 O 648.416 1.39886 -1.15333 0
M  V30 6817 C 648.464 -1.33985 -3.34784 0
M  V30 6818 O 647.568 -0.508803 -4.09249 0
M  V30 6819 H 646.909 -0.316992 -0.583448 0
M  V30 6820 H 649.439 -1.47863 -1.41413 0
M  V30 6821 H 649.449 -1.33248 -3.85628 0
M  V30 6822 H 648.124 -2.39172 -3.40249 0
M  V30 6823 H 646.701 -0.581913 -3.68332 0
M  V30 6824 N 648.886 1.2938 -0.899927 0
M  V30 6825 C 650.297 1.77644 -0.574427 0
M  V30 6826 C 650.648 1.73824 0.909928 0
M  V30 6827 O 649.773 1.32429 1.71147 0
M  V30 6828 C 650.368 3.22573 -1.03595 0
M  V30 6829 C 648.927 3.68614 -0.76161 0
M  V30 6830 C 648.074 2.49483 -1.21052 0
M  V30 6831 H 651.025 1.16038 -1.08263 0
M  V30 6832 H 651.046 3.78684 -0.371337 0
M  V30 6833 H 650.558 3.25321 -2.11631 0
M  V30 6834 H 648.659 3.7134 0.306127 0
M  V30 6835 H 648.772 4.59402 -1.35965 0
M  V30 6836 H 647.136 2.46798 -0.629515 0
M  V30 6837 H 647.919 2.54959 -2.29893 0
M  V30 6838 N 650.364 0.662433 1.43002 0
M  V30 6839 C 651.613 0.176873 2.00923 0
M  V30 6840 C 651.926 -1.21954 1.52927 0
M  V30 6841 O 653.132 -1.80081 2.03182 0
M  V30 6842 C 651.588 0.265379 3.5892 0
M  V30 6843 C 651.196 1.66507 4.15908 0
M  V30 6844 C 652.94 -0.162103 4.2419 0
M  V30 6845 C 650.847 1.707 5.66229 0
M  V30 6846 H 649.777 0.0623627 0.751417 0
M  V30 6847 H 652.428 0.825813 1.63868 0
M  V30 6848 H 650.81 -0.451235 3.93421 0
M  V30 6849 H 651.984 2.40777 3.92891 0
M  V30 6850 H 650.299 2.03932 3.63044 0
M  V30 6851 H 652.896 -0.150745 5.34487 0
M  V30 6852 H 653.239 -1.19519 3.98774 0
M  V30 6853 H 653.772 0.503075 3.94606 0
M  V30 6854 H 650.511 2.7195 5.96426 0
M  V30 6855 H 650.031 1.00768 5.91275 0
M  V30 6856 H 651.71 1.45487 6.3043 0
M  V30 6857 N 651.842 -1.52309 0.404946 0
M  V30 6858 C 653.091 -2.00952 -0.173529 0
M  V30 6859 C 653.404 -1.29512 -1.46581 0
M  V30 6860 O 654.61 -1.6895 -2.12528 0
M  V30 6861 C 653.066 -3.58097 -0.359801 0
M  V30 6862 C 652.674 -4.38449 0.920138 0
M  V30 6863 C 654.418 -4.14984 -0.893794 0
M  V30 6864 C 652.325 -5.87227 0.701285 0
M  V30 6865 H 651.255 -0.750871 -0.0686244 0
M  V30 6866 H 653.906 -1.75687 0.529749 0
M  V30 6867 H 652.288 -3.79675 -1.12531 0
M  V30 6868 H 653.462 -4.28633 1.69147 0
M  V30 6869 H 651.777 -3.92859 1.38024 0
M  V30 6870 H 654.374 -5.23813 -1.0735 0
M  V30 6871 H 654.717 -3.72072 -1.8673 0
M  V30 6872 H 655.25 -3.97358 -0.187453 0
M  V30 6873 H 651.989 -6.34491 1.64624 0
M  V30 6874 H 651.509 -5.99792 -0.0308288 0
M  V30 6875 H 653.188 -6.46096 0.341846 0
M  V30 6876 N 653.32 -0.135238 -1.57019 0
M  V30 6877 C 654.566 0.519563 -1.96032 0
M  V30 6878 C 654.899 1.65284 -1.01955 0
M  V30 6879 O 654.174 1.94408 -0.059727 0
M  V30 6880 C 654.457 1.0369 -3.44848 0
M  V30 6881 C 654.31 -0.0940754 -4.49702 0
M  V30 6882 C 655.629 1.92254 -3.95887 0
M  V30 6883 H 652.748 0.18739 -0.712779 0
M  V30 6884 H 655.39 -0.214086 -1.8879 0
M  V30 6885 H 653.54 1.66209 -3.5115 0
M  V30 6886 H 655.212 -0.73 -4.55487 0
M  V30 6887 H 653.455 -0.754924 -4.27181 0
M  V30 6888 H 654.126 0.309419 -5.51132 0
M  V30 6889 H 656.602 1.39581 -3.9199 0
M  V30 6890 H 655.478 2.25364 -5.00502 0
M  V30 6891 H 655.739 2.85513 -3.37543 0
M  V30 6892 N 654.798 1.5699 0.138552 0
M  V30 6893 C 656.075 1.74741 0.87891 0
M  V30 6894 C 656.455 0.705522 1.98961 0
M  V30 6895 O 655.803 -0.274066 2.2685 0
M  V30 6896 C 656.013 3.1909 1.4136 0
M  V30 6897 C 657.361 3.81023 1.87368 0
M  V30 6898 O 658.385 3.22571 1.51084 0
M  V30 6899 O 657.244 4.83722 2.54312 0
M  V30 6900 H 654.338 0.714781 0.415953 0
M  V30 6901 H 656.884 1.69248 0.123817 0
M  V30 6902 H 655.656 3.86424 0.61579 0
M  V30 6903 H 655.279 3.29043 2.23196 0
M  V30 6904 N 656.276 -0.40816 1.52223 0
M  V30 6905 C 657.525 -1.15212 1.65557 0
M  V30 6906 C 657.838 -1.9163 0.392096 0
M  V30 6907 O 659.044 -2.68458 0.405256 0
M  V30 6908 C 657.5 -2.09691 2.92502 0
M  V30 6909 C 657.108 -1.38785 4.25961 0
M  V30 6910 C 658.852 -2.8434 3.152 0
M  V30 6911 C 656.759 -2.31919 5.44029 0
M  V30 6912 H 655.689 -0.433776 0.616729 0
M  V30 6913 H 658.34 -0.4165 1.78711 0
M  V30 6914 H 656.722 -2.8681 2.7305 0
M  V30 6915 H 657.896 -0.670248 4.55899 0
M  V30 6916 H 656.211 -0.761741 4.09373 0
M  V30 6917 H 658.808 -3.54166 4.00587 0
M  V30 6918 H 659.151 -3.47344 2.29473 0
M  V30 6919 H 659.684 -2.14321 3.35129 0
M  V30 6920 H 656.423 -1.7356 6.32105 0
M  V30 6921 H 655.943 -3.0165 5.18428 0
M  V30 6922 H 657.622 -2.92424 5.77146 0
M  V30 6923 N 657.755 -1.42862 -0.66545 0
M  V30 6924 C 658.983 -1.47246 -1.45349 0
M  V30 6925 C 659.398 -0.0865944 -1.88601 0
M  V30 6926 O 658.755 0.900652 -1.58728 0
M  V30 6927 C 658.806 -2.40772 -2.6965 0
M  V30 6928 O 658.527 -3.73968 -2.2821 0
M  V30 6929 C 660.028 -2.54272 -3.63126 0
M  V30 6930 H 657.248 -0.500497 -0.446927 0
M  V30 6931 H 659.792 -1.87477 -0.816871 0
M  V30 6932 H 657.947 -2.0377 -3.29479 0
M  V30 6933 H 658.361 -4.24146 -3.08546 0
M  V30 6934 H 659.835 -3.23815 -4.47043 0
M  V30 6935 H 660.312 -1.58364 -4.09656 0
M  V30 6936 H 660.918 -2.92036 -3.09185 0
M  V30 6937 N 659.233 0.902656 -1.29189 0
M  V30 6938 C 660.18 2.00643 -1.14066 0
M  V30 6939 C 661.15 1.66064 -0.0347756 0
M  V30 6940 O 662.335 1.8973 -0.201752 0
M  V30 6941 C 659.475 3.35214 -0.820104 0
M  V30 6942 C 658.588 3.82594 -2.00614 0
M  V30 6943 C 657.723 5.05727 -1.62522 0
M  V30 6944 C 656.762 5.45469 -2.77724 0
M  V30 6945 N 655.899 6.59789 -2.40048 0
M  V30 6946 H 660.739 2.1291 -2.08502 0
M  V30 6947 H 658.276 1.04271 -1.03759 0
M  V30 6948 H 660.234 4.12643 -0.614949 0
M  V30 6949 H 658.864 3.22682 0.0873452 0
M  V30 6950 H 657.916 3.01226 -2.32308 0
M  V30 6951 H 659.228 4.07999 -2.86946 0
M  V30 6952 H 658.382 5.90732 -1.38277 0
M  V30 6953 H 657.121 4.82155 -0.733333 0
M  V30 6954 H 656.126 4.59 -3.02653 0
M  V30 6955 H 657.351 5.71024 -3.67572 0
M  V30 6956 H 655.297 6.37826 -1.53343 0
M  V30 6957 H 655.214 6.84975 -3.19914 0
M  V30 6958 H 656.482 7.4807 -2.19116 0
M  V30 6959 N 660.711 1.11618 1.11262 0
M  V30 6960 C 661.988 0.777876 1.79467 0
M  V30 6961 C 662.368 -0.733774 1.97937 0
M  V30 6962 O 661.716 -1.66443 1.56554 0
M  V30 6963 C 661.926 1.5431 3.13032 0
M  V30 6964 C 663.274 1.72357 3.88044 0
M  V30 6965 O 664.298 1.5075 3.22727 0
M  V30 6966 O 663.157 2.08276 5.05256 0
M  V30 6967 H 660.251 0.282018 0.777428 0
M  V30 6968 H 662.797 1.21971 1.17988 0
M  V30 6969 H 661.569 2.57132 2.94956 0
M  V30 6970 H 661.192 1.09495 3.82226 0
M  V30 6971 N 662.189 -1.289 0.906776 0
M  V30 6972 C 663.417 -1.99401 0.551969 0
M  V30 6973 C 663.832 -1.67816 -0.865048 0
M  V30 6974 O 663.189 -0.927078 -1.57199 0
M  V30 6975 C 663.24 -3.53779 0.743152 0
M  V30 6976 O 662.961 -3.84248 2.1044 0
M  V30 6977 C 664.462 -4.41543 0.39424 0
M  V30 6978 H 661.682 -0.636926 0.211106 0
M  V30 6979 H 664.226 -1.64266 1.21807 0
M  V30 6980 H 662.381 -3.87201 0.124143 0
M  V30 6981 H 662.795 -4.78904 2.13895 0
M  V30 6982 H 664.269 -5.48957 0.578814 0
M  V30 6983 H 664.746 -4.34073 -0.669137 0
M  V30 6984 H 665.352 -4.13605 0.990491 0
M  V30 6985 N 663.667 -0.670007 -1.42649 0
M  V30 6986 C 664.914 -0.190286 -2.01604 0
M  V30 6987 C 665.242 1.20155 -1.52948 0
M  V30 6988 O 664.497 1.81964 -0.72026 0
M  V30 6989 C 664.796 -0.168298 -3.57004 0
M  V30 6990 C 664.462 -1.50415 -4.25072 0
M  V30 6991 C 663.124 -1.86992 -4.43382 0
M  V30 6992 C 665.476 -2.38414 -4.63474 0
M  V30 6993 C 662.804 -3.11203 -4.97363 0
M  V30 6994 C 665.156 -3.61933 -5.18833 0
M  V30 6995 C 663.82 -3.98685 -5.35356 0
M  V30 6996 H 663.09 -0.0696305 -0.737721 0
M  V30 6997 H 665.737 -0.864044 -1.70899 0
M  V30 6998 H 664.042 0.588958 -3.87348 0
M  V30 6999 H 665.739 0.22001 -4.00396 0
M  V30 7000 H 662.329 -1.20959 -4.11177 0
M  V30 7001 H 666.513 -2.11442 -4.49006 0
M  V30 7002 H 661.769 -3.39705 -5.08341 0
M  V30 7003 H 665.943 -4.30326 -5.47533 0
M  V30 7004 H 663.57 -4.95009 -5.76949 0
M  V30 7005 N 665.145 1.52092 -0.413018 0
M  V30 7006 C 666.375 2.05974 0.160648 0
M  V30 7007 C 666.783 1.28267 1.39084 0
M  V30 7008 O 666.126 0.328805 1.80733 0
M  V30 7009 C 666.188 3.54918 0.572169 0
M  V30 7010 C 665.852 4.53705 -0.547826 0
M  V30 7011 C 666.849 5.00342 -1.41259 0
M  V30 7012 C 664.534 4.97089 -0.721627 0
M  V30 7013 C 666.528 5.89011 -2.43607 0
M  V30 7014 C 664.215 5.85554 -1.74841 0
M  V30 7015 C 665.213 6.3141 -2.60403 0
M  V30 7016 O 664.901 7.18123 -3.61323 0
M  V30 7017 H 664.633 0.675636 0.0221936 0
M  V30 7018 H 667.187 1.96931 -0.58373 0
M  V30 7019 H 665.417 3.61661 1.36889 0
M  V30 7020 H 667.106 3.91428 1.0742 0
M  V30 7021 H 667.872 4.67537 -1.28974 0
M  V30 7022 H 663.751 4.60954 -0.0652911 0
M  V30 7023 H 667.295 6.24725 -3.10425 0
M  V30 7024 H 663.192 6.17773 -1.87156 0
M  V30 7025 H 663.96 7.36244 -3.57613 0
M  V30 7026 N 666.623 0.143563 1.56945 0
M  V30 7027 C 667.57 -0.797433 2.16586 0
M  V30 7028 C 668.54 -1.24654 1.09775 0
M  V30 7029 O 669.725 -1.31968 1.37801 0
M  V30 7030 C 666.865 -2.03253 2.78895 0
M  V30 7031 C 665.978 -1.62954 4.00087 0
M  V30 7032 C 665.113 -2.81617 4.50406 0
M  V30 7033 C 664.152 -2.37675 5.64072 0
M  V30 7034 N 663.289 -3.49335 6.09023 0
M  V30 7035 H 668.129 -0.282023 2.96662 0
M  V30 7036 H 665.666 -0.127494 1.46546 0
M  V30 7037 H 667.624 -2.75653 3.13163 0
M  V30 7038 H 666.254 -2.52211 2.01469 0
M  V30 7039 H 665.306 -0.803322 3.71821 0
M  V30 7040 H 666.618 -1.26679 4.82446 0
M  V30 7041 H 665.772 -3.62212 4.86711 0
M  V30 7042 H 664.511 -3.21134 3.67048 0
M  V30 7043 H 663.516 -1.55519 5.27346 0
M  V30 7044 H 664.741 -1.99247 6.49213 0
M  V30 7045 H 662.687 -3.8848 5.28601 0
M  V30 7046 H 662.604 -3.17064 6.86299 0
M  V30 7047 H 663.872 -4.30297 6.49973 0
M  V30 7048 N 668.101 -1.57061 -0.130224 0
M  V30 7049 C 669.033 -1.96147 -1.18571 0
M  V30 7050 C 670.046 -0.859347 -1.38272 0
M  V30 7051 O 671.235 -1.13769 -1.37545 0
M  V30 7052 C 668.335 -2.23484 -2.54771 0
M  V30 7053 C 667.508 -3.54786 -2.55824 0
M  V30 7054 C 666.567 -3.70467 -3.73686 0
M  V30 7055 O 665.593 -4.42693 -3.57787 0
M  V30 7056 N 666.795 -3.08389 -4.91809 0
M  V30 7057 H 669.56 -2.87295 -0.853333 0
M  V30 7058 H 667.121 -1.58714 -0.319621 0
M  V30 7059 H 669.113 -2.312 -3.32158 0
M  V30 7060 H 667.683 -1.38518 -2.80235 0
M  V30 7061 H 666.903 -3.5836 -1.64232 0
M  V30 7062 H 668.191 -4.4111 -2.53573 0
M  V30 7063 H 667.589 -2.49656 -5.0763 0
M  V30 7064 H 666.146 -3.21642 -5.66912 0
M  V30 7065 N 669.579 0.400081 -1.52437 0
M  V30 7066 C 670.99 0.97851 -1.59003 0
M  V30 7067 C 671.341 1.91293 -0.436068 0
M  V30 7068 O 670.466 2.1183 0.442365 0
M  V30 7069 C 671.061 1.78145 -2.88184 0
M  V30 7070 C 669.62 2.30976 -2.97199 0
M  V30 7071 C 668.767 1.11212 -2.54022 0
M  V30 7072 H 671.718 0.180002 -1.57676 0
M  V30 7073 H 671.739 2.63968 -2.74046 0
M  V30 7074 H 671.251 1.1011 -3.72152 0
M  V30 7075 H 669.352 3.02355 -2.17744 0
M  V30 7076 H 669.465 2.61221 -4.01622 0
M  V30 7077 H 667.829 1.46882 -2.08081 0
M  V30 7078 H 668.612 0.447307 -3.40373 0
M  V30 7079 N 671.057 1.43213 0.657864 0
M  V30 7080 C 671.99 1.42456 1.78273 0
M  V30 7081 C 672.968 0.286598 1.60054 0
M  V30 7082 O 674.152 0.479467 1.823 0
M  V30 7083 C 671.279 1.23169 3.15511 0
M  V30 7084 C 670.325 2.40181 3.52442 0
M  V30 7085 S 671.158 4.02729 3.52944 0
M  V30 7086 C 672.314 3.85816 4.92846 0
M  V30 7087 H 672.547 2.37642 1.78644 0
M  V30 7088 H 670.08 1.30188 0.830084 0
M  V30 7089 H 672.038 1.12728 3.94719 0
M  V30 7090 H 670.699 0.295398 3.12708 0
M  V30 7091 H 669.892 2.22478 4.52239 0
M  V30 7092 H 669.494 2.47224 2.80636 0
M  V30 7093 H 671.786 3.47853 5.81381 0
M  V30 7094 H 672.729 4.85348 5.15599 0
M  V30 7095 H 673.137 3.18361 4.66162 0
M  V30 7096 N 672.536 -0.895792 1.29666 0
M  V30 7097 C 673.783 -1.64664 1.17864 0
M  V30 7098 C 674.111 -1.92631 -0.26902 0
M  V30 7099 O 673.366 -1.53787 -1.21029 0
M  V30 7100 C 673.665 -3.00075 1.94139 0
M  V30 7101 C 673.331 -2.91702 3.43833 0
M  V30 7102 C 671.993 -2.89126 3.84656 0
M  V30 7103 C 674.345 -2.80622 4.39205 0
M  V30 7104 C 671.673 -2.73293 5.1916 0
M  V30 7105 C 674.025 -2.66329 5.73805 0
M  V30 7106 C 672.689 -2.62121 6.1388 0
M  V30 7107 H 671.959 -0.602549 0.431295 0
M  V30 7108 H 674.606 -1.04234 1.60648 0
M  V30 7109 H 672.911 -3.64394 1.43958 0
M  V30 7110 H 674.608 -3.57111 1.82408 0
M  V30 7111 H 671.198 -2.94511 3.11386 0
M  V30 7112 H 675.382 -2.81686 4.08615 0
M  V30 7113 H 670.638 -2.68443 5.49316 0
M  V30 7114 H 674.812 -2.56727 6.47352 0
M  V30 7115 H 672.439 -2.49611 7.18052 0
M  V30 7116 N 674.014 -1.12206 -1.10668 0
M  V30 7117 C 675.244 -0.897332 -1.86095 0
M  V30 7118 C 675.652 0.556778 -1.80822 0
M  V30 7119 O 674.995 1.39658 -1.19337 0
M  V30 7120 C 675.057 -1.29095 -3.35522 0
M  V30 7121 C 674.721 -2.75586 -3.64556 0
M  V30 7122 C 675.718 -3.73785 -3.6136 0
M  V30 7123 C 673.403 -3.12432 -3.93309 0
M  V30 7124 C 675.397 -5.06845 -3.86506 0
M  V30 7125 C 673.084 -4.45675 -4.18111 0
M  V30 7126 C 674.082 -5.42691 -4.147 0
M  V30 7127 O 673.77 -6.73532 -4.38873 0
M  V30 7128 H 673.502 -0.320704 -0.595084 0
M  V30 7129 H 676.056 -1.49517 -1.40833 0
M  V30 7130 H 674.286 -0.636299 -3.81429 0
M  V30 7131 H 675.975 -1.04073 -3.92331 0
M  V30 7132 H 676.741 -3.46664 -3.39189 0
M  V30 7133 H 672.62 -2.3753 -3.95096 0
M  V30 7134 H 676.164 -5.82559 -3.83758 0
M  V30 7135 H 672.061 -4.72526 -4.39761 0
M  V30 7136 H 672.829 -6.79442 -4.564 0
M  V30 7137 N 675.492 1.28418 -0.913599 0
M  V30 7138 C 676.442 2.24928 -0.373042 0
M  V30 7139 C 677.426 1.52444 0.514753 0
M  V30 7140 O 678.618 1.73414 0.3545 0
M  V30 7141 C 675.747 3.41124 0.385896 0
M  V30 7142 C 674.833 4.20929 -0.51761 0
M  V30 7143 N 675.224 4.78777 -1.63113 0
M  V30 7144 C 673.522 4.44865 -0.317969 0
M  V30 7145 C 674.223 5.38822 -2.19193 0
M  V30 7146 N 673.199 5.22974 -1.48321 0
M  V30 7147 H 677.001 2.67224 -1.22346 0
M  V30 7148 H 674.515 1.43187 -0.766236 0
M  V30 7149 H 676.512 4.09347 0.789997 0
M  V30 7150 H 675.172 3.00362 1.23341 0
M  V30 7151 H 676.183 4.77148 -2.01372 0
M  V30 7152 H 672.86 4.14614 0.49004 0
M  V30 7153 H 674.25 5.94615 -3.12861 0
M  V30 7154 N 676.97 0.677563 1.42291 0
M  V30 7155 C 677.9 0.014968 2.33495 0
M  V30 7156 C 678.881 -0.786376 1.50831 0
M  V30 7157 O 680.066 -0.742975 1.79426 0
M  V30 7158 C 677.196 -0.935023 3.34477 0
M  V30 7159 C 676.15 -0.242074 4.27315 0
M  V30 7160 C 675.476 -1.30519 5.18526 0
M  V30 7161 C 676.776 0.880604 5.14823 0
M  V30 7162 H 678.47 0.776671 2.89151 0
M  V30 7163 H 676.016 0.37494 1.39033 0
M  V30 7164 H 677.969 -1.40766 3.97194 0
M  V30 7165 H 676.693 -1.72818 2.77131 0
M  V30 7166 H 675.352 0.210351 3.65996 0
M  V30 7167 H 675 -2.09041 4.57505 0
M  V30 7168 H 674.7 -0.846652 5.81468 0
M  V30 7169 H 676.224 -1.7787 5.84119 0
M  V30 7170 H 677.638 0.489062 5.7121 0
M  V30 7171 H 676.035 1.26511 5.86613 0
M  V30 7172 H 677.105 1.72818 4.53059 0
M  V30 7173 N 678.448 -1.51871 0.421078 0
M  V30 7174 C 679.696 -2.01539 -0.150492 0
M  V30 7175 C 680.017 -1.30803 -1.44623 0
M  V30 7176 O 679.287 -0.437568 -1.90951 0
M  V30 7177 H 677.867 -0.744698 -0.0586041 0
M  V30 7178 H 680.529 -1.8668 0.560059 0
M  V30 7179 H 679.625 -3.10264 -0.338068 0
M  V30 7180 N 679.926 -0.151884 -1.56866 0
M  V30 7181 C 680.876 0.797799 -2.13586 0
M  V30 7182 C 681.86 1.20613 -1.06496 0
M  V30 7183 O 683.052 1.17173 -1.32663 0
M  V30 7184 C 680.181 2.03493 -2.76488 0
M  V30 7185 C 679.267 1.64948 -3.90708 0
M  V30 7186 N 679.658 0.972513 -4.96363 0
M  V30 7187 C 677.956 1.94186 -4.01507 0
M  V30 7188 C 678.657 0.785661 -5.7637 0
M  V30 7189 N 677.633 1.32105 -5.27304 0
M  V30 7190 H 681.435 0.271403 -2.92644 0
M  V30 7191 H 678.949 0.049487 -1.62325 0
M  V30 7192 H 680.946 2.72532 -3.15487 0
M  V30 7193 H 679.606 2.56646 -1.98904 0
M  V30 7194 H 680.617 0.632724 -5.1402 0
M  V30 7195 H 677.294 2.49154 -3.35005 0
M  V30 7196 H 678.684 0.251749 -6.71428 0
M  V30 7197 N 681.404 1.57128 0.121893 0
M  V30 7198 C 682.651 1.847 0.830188 0
M  V30 7199 C 682.979 0.736543 1.80015 0
M  V30 7200 O 682.234 -0.272358 1.93796 0
M  V30 7201 C 682.533 3.1874 1.61677 0
M  V30 7202 C 682.199 4.43901 0.791361 0
M  V30 7203 C 680.861 4.77887 0.563731 0
M  V30 7204 C 683.213 5.20753 0.215823 0
M  V30 7205 C 680.541 5.86168 -0.249737 0
M  V30 7206 C 682.893 6.29891 -0.584821 0
M  V30 7207 C 681.557 6.6241 -0.822794 0
M  V30 7208 H 680.827 0.675866 0.303787 0
M  V30 7209 H 683.474 1.91276 0.0926894 0
M  V30 7210 H 681.779 3.07728 2.42509 0
M  V30 7211 H 683.476 3.37295 2.16872 0
M  V30 7212 H 680.066 4.17272 0.978867 0
M  V30 7213 H 684.25 4.94851 0.378907 0
M  V30 7214 H 679.506 6.0979 -0.44336 0
M  V30 7215 H 683.68 6.88624 -1.03779 0
M  V30 7216 H 681.307 7.46147 -1.45496 0
M  V30 7217 N 682.882 -0.391992 1.52647 0
M  V30 7218 C 684.107 -1.16312 1.71716 0
M  V30 7219 C 684.532 -1.83042 0.433279 0
M  V30 7220 O 683.89 -1.70705 -0.610707 0
M  V30 7221 C 683.938 -2.18908 2.86551 0
M  V30 7222 O 683.042 -3.2543 2.53316 0
M  V30 7223 H 682.383 -0.338743 0.571095 0
M  V30 7224 H 684.913 -0.457202 1.99426 0
M  V30 7225 H 684.923 -2.62954 3.1196 0
M  V30 7226 H 683.598 -1.69726 3.79692 0
M  V30 7227 H 682.175 -2.86543 2.38637 0
M  V30 7228 N 684.36 -1.4356 -0.65026 0
M  V30 7229 C 685.307 -1.48948 -1.76304 0
M  V30 7230 C 686.277 -0.338919 -1.62605 0
M  V30 7231 O 687.462 -0.54649 -1.82806 0
M  V30 7232 C 684.602 -1.42131 -3.14472 0
M  V30 7233 C 683.715 -2.67415 -3.39284 0
M  V30 7234 C 682.85 -2.52565 -4.67316 0
M  V30 7235 C 681.889 -3.73103 -4.85243 0
M  V30 7236 N 681.026 -3.57046 -6.04535 0
M  V30 7237 H 685.866 -2.44032 -1.71034 0
M  V30 7238 H 683.403 -1.21131 -0.834601 0
M  V30 7239 H 685.361 -1.36172 -3.94351 0
M  V30 7240 H 683.991 -0.506273 -3.18805 0
M  V30 7241 H 683.043 -2.8364 -2.53481 0
M  V30 7242 H 684.355 -3.56943 -3.48415 0
M  V30 7243 H 683.509 -2.44331 -5.55326 0
M  V30 7244 H 682.248 -1.60566 -4.60511 0
M  V30 7245 H 681.253 -3.81743 -3.95667 0
M  V30 7246 H 682.478 -4.66115 -4.93876 0
M  V30 7247 H 680.424 -2.67783 -5.98856 0
M  V30 7248 H 680.341 -4.40178 -6.14638 0
M  V30 7249 H 681.609 -3.52669 -6.95158 0
M  V30 7250 N 685.838 0.888903 -1.30139 0
M  V30 7251 C 687.085 1.64037 -1.18736 0
M  V30 7252 C 687.413 1.92771 0.258801 0
M  V30 7253 O 686.668 1.54427 1.20212 0
M  V30 7254 C 686.967 2.99041 -1.95728 0
M  V30 7255 C 686.633 2.89874 -3.45375 0
M  V30 7256 C 685.295 2.87082 -3.86183 0
M  V30 7257 C 687.647 2.78289 -4.40687 0
M  V30 7258 C 684.975 2.70536 -5.20603 0
M  V30 7259 C 687.327 2.63282 -5.75209 0
M  V30 7260 C 685.991 2.58861 -6.15262 0
M  V30 7261 H 685.261 0.600253 -0.434485 0
M  V30 7262 H 687.908 1.0338 -1.61198 0
M  V30 7263 H 686.213 3.63626 -1.45888 0
M  V30 7264 H 687.91 3.56139 -1.843 0
M  V30 7265 H 684.5 2.92856 -3.12943 0
M  V30 7266 H 688.684 2.79516 -4.10103 0
M  V30 7267 H 683.94 2.65526 -5.50732 0
M  V30 7268 H 688.114 2.5329 -6.48704 0
M  V30 7269 H 685.741 2.45799 -7.19366 0
M  V30 7270 N 687.317 1.12792 1.10072 0
M  V30 7271 C 688.566 0.880232 1.81479 0
M  V30 7272 C 688.879 -0.595575 1.86312 0
M  V30 7273 O 690.085 -0.959979 2.53962 0
M  V30 7274 C 688.541 1.52514 3.25987 0
M  V30 7275 C 688.149 3.036 3.29441 0
M  V30 7276 C 689.893 1.35788 4.02196 0
M  V30 7277 C 687.8 3.61007 4.68431 0
M  V30 7278 H 686.73 0.325654 0.680048 0
M  V30 7279 H 689.381 1.35485 1.23758 0
M  V30 7280 H 687.763 0.978188 3.83728 0
M  V30 7281 H 688.937 3.64819 2.81502 0
M  V30 7282 H 687.252 3.19765 2.66719 0
M  V30 7283 H 689.849 1.76096 5.0487 0
M  V30 7284 H 690.192 0.301972 4.15203 0
M  V30 7285 H 690.725 1.87426 3.50879 0
M  V30 7286 H 687.464 4.66375 4.60625 0
M  V30 7287 H 686.984 3.04564 5.16721 0
M  V30 7288 H 688.663 3.60289 5.37402 0
M  V30 7289 N 688.795 -1.27931 0.920396 0
M  V30 7290 C 690.206 -1.76707 0.602616 0
M  V30 7291 C 690.557 -1.75249 -0.882159 0
M  V30 7292 O 689.682 -1.35135 -1.69019 0
M  V30 7293 C 690.277 -3.20884 1.08714 0
M  V30 7294 C 688.836 -3.67356 0.820157 0
M  V30 7295 C 687.983 -2.47525 1.25006 0
M  V30 7296 H 690.934 -1.14301 1.10095 0
M  V30 7297 H 690.955 -3.78045 0.431535 0
M  V30 7298 H 690.467 -3.21913 2.1678 0
M  V30 7299 H 688.568 -3.7178 -0.247012 0
M  V30 7300 H 688.681 -4.57181 1.43257 0
M  V30 7301 H 687.045 -2.45765 0.668698 0
M  V30 7302 H 687.828 -2.51269 2.3392 0
M  V30 7303 N 690.273 -0.685099 -1.4193 0
M  V30 7304 C 691.183 -0.013404 -2.34596 0
M  V30 7305 C 692.199 0.777589 -1.55658 0
M  V30 7306 O 693.375 0.717553 -1.88184 0
M  V30 7307 C 690.44 0.919031 -3.34297 0
M  V30 7308 C 689.501 0.121417 -4.29128 0
M  V30 7309 C 688.734 1.00944 -5.24067 0
M  V30 7310 O 688.957 2.24898 -5.24192 0
M  V30 7311 O 687.891 0.464724 -6.00103 0
M  V30 7312 H 691.717 -0.776978 -2.93593 0
M  V30 7313 H 689.302 -0.445379 -1.42607 0
M  V30 7314 H 691.184 1.45402 -3.9552 0
M  V30 7315 H 689.859 1.66228 -2.77759 0
M  V30 7316 H 688.766 -0.45792 -3.71287 0
M  V30 7317 H 690.099 -0.582937 -4.88736 0
M  V30 7318 N 691.751 1.51645 -0.429126 0
M  V30 7319 C 692.999 2.01616 0.139802 0
M  V30 7320 C 693.32 1.31568 1.43927 0
M  V30 7321 O 692.59 0.447688 1.90716 0
M  V30 7322 H 691.17 0.744998 0.054654 0
M  V30 7323 H 693.832 1.8638 -0.569952 0
M  V30 7324 H 692.928 3.10439 0.321609 0
M  V30 7325 N 693.229 0.160201 1.56784 0
M  V30 7326 C 694.454 -0.497373 2.01348 0
M  V30 7327 C 694.879 -1.56757 1.03966 0
M  V30 7328 O 694.237 -1.81292 0.0174455 0
M  V30 7329 C 694.285 -1.0628 3.44582 0
M  V30 7330 O 693.389 -2.17723 3.50244 0
M  V30 7331 H 692.73 -0.120295 0.653012 0
M  V30 7332 H 695.26 0.260821 2.02931 0
M  V30 7333 H 695.27 -1.38819 3.83658 0
M  V30 7334 H 693.945 -0.279166 4.14962 0
M  V30 7335 H 692.522 -1.86313 3.2302 0
M  V30 7336 N 694.707 -1.5719 -0.113559 0
M  V30 7337 C 695.639 -1.97393 -1.16484 0
M  V30 7338 C 696.652 -0.873964 -1.37352 0
M  V30 7339 O 697.841 -1.15222 -1.36331 0
M  V30 7340 C 694.941 -2.26174 -2.52386 0
M  V30 7341 C 694.114 -3.57479 -2.52046 0
M  V30 7342 C 693.173 -3.74409 -3.69735 0
M  V30 7343 O 692.199 -4.46463 -3.53071 0
M  V30 7344 N 693.401 -3.13588 -4.88511 0
M  V30 7345 H 696.166 -2.88184 -0.822814 0
M  V30 7346 H 693.727 -1.59044 -0.302769 0
M  V30 7347 H 695.719 -2.3471 -3.29687 0
M  V30 7348 H 694.289 -1.41483 -2.7875 0
M  V30 7349 H 693.509 -3.60081 -1.60421 0
M  V30 7350 H 694.797 -4.43775 -2.48881 0
M  V30 7351 H 694.195 -2.55026 -5.04953 0
M  V30 7352 H 692.752 -3.27637 -5.63469 0
M  V30 7353 N 696.185 0.383891 -1.52853 0
M  V30 7354 C 697.601 0.724316 -1.42218 0
M  V30 7355 C 697.801 1.93943 -0.546654 0
M  V30 7356 O 696.857 2.5249 -0.0220562 0
M  V30 7357 C 698.17 0.954635 -2.85144 0
M  V30 7358 C 699.718 1.05579 -2.94656 0
M  V30 7359 C 700.193 1.3187 -4.38605 0
M  V30 7360 N 701.684 1.38681 -4.41952 0
M  V30 7361 C 702.419 1.60699 -5.50421 0
M  V30 7362 N 701.915 1.80154 -6.68967 0
M  V30 7363 N 703.708 1.6292 -5.37972 0
M  V30 7364 H 695.859 -0.4156 -2.08294 0
M  V30 7365 H 698.122 -0.123776 -0.939885 0
M  V30 7366 H 697.828 0.133829 -3.51445 0
M  V30 7367 H 697.702 1.86788 -3.27704 0
M  V30 7368 H 700.089 1.86716 -2.2852 0
M  V30 7369 H 700.17 0.120338 -2.55517 0
M  V30 7370 H 699.814 0.512416 -5.05309 0
M  V30 7371 H 699.744 2.26708 -4.75301 0
M  V30 7372 H 702.235 1.25334 -3.56511 0
M  V30 7373 H 702.548 1.96476 -7.47407 0
M  V30 7374 H 700.893 1.77368 -6.71986 0
M  V30 7375 H 704.084 1.47276 -4.44328 0
M  V30 7376 H 704.257 1.79739 -6.22574 0
M  V30 7377 N 697.663 1.43903 0.642637 0
M  V30 7378 C 698.909 1.46296 1.40447 0
M  V30 7379 C 699.242 0.0908361 1.93987 0
M  V30 7380 O 698.517 -0.889884 1.72949 0
M  V30 7381 C 698.8 2.51399 2.57819 0
M  V30 7382 C 698.653 3.97926 2.09702 0
M  V30 7383 C 699.972 2.53125 3.60022 0
M  V30 7384 H 697.091 0.532676 0.509338 0
M  V30 7385 H 699.733 1.75515 0.727635 0
M  V30 7386 H 697.883 2.26614 3.1556 0
M  V30 7387 H 699.555 4.33804 1.5688 0
M  V30 7388 H 697.798 4.10252 1.40982 0
M  V30 7389 H 698.469 4.67096 2.94152 0
M  V30 7390 H 700.945 2.75242 3.12059 0
M  V30 7391 H 699.821 3.28589 4.39682 0
M  V30 7392 H 700.082 1.56895 4.13324 0
M  V30 7393 N 699.141 -0.881989 1.30609 0
M  V30 7394 C 700.389 -1.63082 1.19368 0
M  V30 7395 C 700.71 -1.93376 -0.251147 0
M  V30 7396 O 699.98 -1.5723 -1.16857 0
M  V30 7397 H 698.56 -0.604542 0.438791 0
M  V30 7398 H 701.222 -1.05658 1.63776 0
M  V30 7399 H 700.318 -2.57966 1.7567 0
M  V30 7400 N 700.619 -1.13374 -1.09472 0
M  V30 7401 C 701.549 -0.833268 -2.18126 0
M  V30 7402 C 702.53 0.207169 -1.68834 0
M  V30 7403 O 703.715 0.0662012 -1.94087 0
M  V30 7404 C 700.845 -0.297979 -3.46019 0
M  V30 7405 C 699.799 -1.27261 -4.08642 0
M  V30 7406 C 699.125 -0.597104 -5.31356 0
M  V30 7407 C 700.425 -2.63095 -4.51197 0
M  V30 7408 H 702.119 -1.74182 -2.43518 0
M  V30 7409 H 699.665 -0.838921 -1.17039 0
M  V30 7410 H 701.618 -0.0754444 -4.21332 0
M  V30 7411 H 700.342 0.645959 -3.20148 0
M  V30 7412 H 699.001 -1.48113 -3.35348 0
M  V30 7413 H 698.649 0.352293 -5.01765 0
M  V30 7414 H 698.349 -1.24734 -5.74208 0
M  V30 7415 H 699.873 -0.38384 -6.09392 0
M  V30 7416 H 701.287 -2.46214 -5.17737 0
M  V30 7417 H 699.684 -3.2429 -5.04932 0
M  V30 7418 H 700.754 -3.20793 -3.6362 0
M  V30 7419 N 702.098 1.27442 -0.927168 0
M  V30 7420 C 703.344 1.94679 -0.568164 0
M  V30 7421 C 703.677 1.72697 0.888219 0
M  V30 7422 O 702.952 1.05573 1.63354 0
M  V30 7423 C 703.235 3.4882 -0.894253 0
M  V30 7424 C 703.088 3.80146 -2.40435 0
M  V30 7425 C 704.407 4.38281 -0.399766 0
M  V30 7426 H 701.526 0.707071 -0.207892 0
M  V30 7427 H 704.168 1.50568 -1.15885 0
M  V30 7428 H 702.318 3.86522 -0.391566 0
M  V30 7429 H 703.99 3.52238 -2.97869 0
M  V30 7430 H 702.233 3.26716 -2.85375 0
M  V30 7431 H 702.904 4.87835 -2.58304 0
M  V30 7432 H 705.38 4.07726 -0.83058 0
M  V30 7433 H 704.256 5.44955 -0.656885 0
M  V30 7434 H 704.517 4.36521 0.700153 0
M  V30 7435 N 703.576 0.692616 1.41565 0
M  V30 7436 C 704.539 0.0344174 2.29174 0
M  V30 7437 C 705.539 -0.710961 1.44229 0
M  V30 7438 O 706.729 -0.546293 1.65412 0
M  V30 7439 C 703.861 -0.961682 3.27054 0
M  V30 7440 H 705.054 0.805755 2.88873 0
M  V30 7441 H 702.607 0.455947 1.49502 0
M  V30 7442 H 703.342 -1.76089 2.72329 0
M  V30 7443 H 703.127 -0.430375 3.89731 0
M  V30 7444 H 704.617 -1.4201 3.92712 0
M  V30 7445 N 705.054 -1.51416 0.437162 0
M  V30 7446 C 706.279 -2.0699 -0.130424 0
M  V30 7447 C 706.704 -1.30249 -1.35709 0
M  V30 7448 O 706.062 -0.340388 -1.78076 0
M  V30 7449 C 706.11 -3.5801 -0.43142 0
M  V30 7450 O 705.214 -3.8345 -1.5179 0
M  V30 7451 H 704.555 -0.663997 -0.00194339 0
M  V30 7452 H 707.085 -1.95029 0.618445 0
M  V30 7453 H 707.095 -4.02261 -0.681926 0
M  V30 7454 H 705.77 -4.13291 0.465137 0
M  V30 7455 H 704.347 -3.51062 -1.25737 0
M  V30 7456 N 706.532 -0.168513 -1.56696 0
M  V30 7457 C 707.464 0.794249 -2.14998 0
M  V30 7458 C 708.477 1.1957 -1.10485 0
M  V30 7459 O 709.666 1.13604 -1.37682 0
M  V30 7460 C 706.766 2.08018 -2.67547 0
M  V30 7461 C 705.939 1.84274 -3.96689 0
M  V30 7462 C 704.998 2.97059 -4.3433 0
M  V30 7463 O 704.024 2.67815 -5.02259 0
M  V30 7464 N 705.226 4.24775 -3.9566 0
M  V30 7465 H 707.991 0.295832 -2.98236 0
M  V30 7466 H 705.552 0.0143611 -1.61894 0
M  V30 7467 H 707.544 2.82559 -2.89729 0
M  V30 7468 H 706.114 2.49059 -1.88914 0
M  V30 7469 H 705.334 0.936528 -3.82914 0
M  V30 7470 H 706.622 1.65773 -4.81037 0
M  V30 7471 H 706.02 4.51395 -3.40968 0
M  V30 7472 H 704.577 4.96027 -4.22848 0
M  V30 7473 N 708.01 1.57248 0.105221 0
M  V30 7474 C 708.957 2.01338 1.12835 0
M  V30 7475 C 709.927 0.887897 1.40377 0
M  V30 7476 O 711.112 1.15315 1.5201 0
M  V30 7477 C 708.252 2.43432 2.44611 0
M  V30 7478 C 707.365 3.69457 2.23888 0
M  V30 7479 C 706.5 4.00473 3.48991 0
M  V30 7480 C 705.539 5.19638 3.23485 0
M  V30 7481 N 704.676 5.46457 4.40828 0
M  V30 7482 H 709.516 2.88527 0.745386 0
M  V30 7483 H 707.053 1.42714 0.356535 0
M  V30 7484 H 709.011 2.65879 3.21503 0
M  V30 7485 H 707.641 1.59266 2.80774 0
M  V30 7486 H 706.693 3.54545 1.37847 0
M  V30 7487 H 708.005 4.56497 2.01026 0
M  V30 7488 H 707.159 4.23642 4.34295 0
M  V30 7489 H 705.898 3.11935 3.74897 0
M  V30 7490 H 704.903 4.96299 2.36574 0
M  V30 7491 H 706.128 6.09766 2.98935 0
M  V30 7492 H 704.074 4.60876 4.66829 0
M  V30 7493 H 703.991 6.27849 4.2112 0
M  V30 7494 H 705.259 5.74155 5.27225 0
M  V30 7495 N 709.488 -0.375779 1.53054 0
M  V30 7496 C 710.436 -1.48015 1.79428 0
M  V30 7497 C 711.43 -1.55893 0.662854 0
M  V30 7498 O 712.636 -1.58901 0.845599 0
M  V30 7499 H 709.011 -0.492887 0.56795 0
M  V30 7500 H 710.982 -1.22971 2.71884 0
M  V30 7501 C 709.731 -2.84984 1.99197 0
M  V30 7502 H 709.054 -2.79677 2.85693 0
M  V30 7503 H 710.494 -3.61462 2.21633 0
M  V30 7504 C 708.953 -3.28025 0.768183 0
M  V30 7505 O 709.483 -4.01671 -0.0480482 0
M  V30 7506 N 707.689 -2.84454 0.594521 0
M  V30 7507 H 707.236 -2.24688 1.25988 0
M  V30 7508 H 707.194 -3.13609 -0.222916 0
M  V30 7509 N 710.966 -1.44241 -0.634997 0
M  V30 7510 C 712.243 -1.37296 -1.39317 0
M  V30 7511 C 712.623 -0.0297532 -2.11079 0
M  V30 7512 O 711.971 0.987524 -2.06059 0
M  V30 7513 C 712.181 -2.56853 -2.36279 0
M  V30 7514 C 713.529 -3.00747 -2.99728 0
M  V30 7515 O 714.553 -2.5703 -2.46605 0
M  V30 7516 O 713.412 -3.76533 -3.96087 0
M  V30 7517 H 710.506 -0.543503 -0.623325 0
M  V30 7518 H 713.052 -1.56324 -0.660376 0
M  V30 7519 H 711.824 -3.46228 -1.82324 0
M  V30 7520 H 711.447 -2.40019 -3.16981 0
M  V30 7521 N 712.444 0.87505 -1.31075 0
M  V30 7522 C 713.374 1.99775 -1.20881 0
M  V30 7523 C 714.355 1.69822 -0.0971612 0
M  V30 7524 O 715.54 1.92158 -0.280895 0
M  V30 7525 C 712.67 3.35163 -0.910118 0
M  V30 7526 C 711.624 3.79406 -1.98078 0
M  V30 7527 C 710.95 5.12197 -1.53488 0
M  V30 7528 C 712.25 3.97061 -3.39323 0
M  V30 7529 H 713.944 2.08562 -2.14808 0
M  V30 7530 H 711.49 1.00207 -1.03415 0
M  V30 7531 H 713.443 4.13237 -0.825423 0
M  V30 7532 H 712.167 3.26536 0.064822 0
M  V30 7533 H 710.826 3.03568 -2.05528 0
M  V30 7534 H 710.474 5.00007 -0.547941 0
M  V30 7535 H 710.174 5.4277 -2.2511 0
M  V30 7536 H 711.698 5.92785 -1.46417 0
M  V30 7537 H 713.112 4.65545 -3.34576 0
M  V30 7538 H 711.509 4.39025 -4.09118 0
M  V30 7539 H 712.579 3.00601 -3.80483 0
M  V30 7540 N 713.922 1.13953 1.08869 0
M  V30 7541 C 715.199 0.815768 1.77777 0
M  V30 7542 C 715.579 -0.691624 1.99449 0
M  V30 7543 O 714.927 -1.63085 1.60049 0
M  V30 7544 C 715.137 1.60916 3.09689 0
M  V30 7545 C 716.485 1.80549 3.84301 0
M  V30 7546 O 717.509 1.57562 3.19457 0
M  V30 7547 O 716.368 2.18946 5.00724 0
M  V30 7548 H 713.462 0.298445 0.771271 0
M  V30 7549 H 716.008 1.24446 1.15374 0
M  V30 7550 H 714.78 2.6333 2.89435 0
M  V30 7551 H 714.403 1.17578 3.79817 0
M  V30 7552 N 715.4 -1.26948 0.933913 0
M  V30 7553 C 716.363 -2.24889 0.442457 0
M  V30 7554 C 717.363 -1.54594 -0.442426 0
M  V30 7555 O 718.553 -1.72502 -0.242629 0
M  V30 7556 C 715.685 -3.3896 -0.363173 0
M  V30 7557 H 716.878 -2.69879 1.30787 0
M  V30 7558 H 714.431 -1.38978 0.715187 0
M  V30 7559 H 715.166 -2.99361 -1.24714 0
M  V30 7560 H 714.951 -3.9116 0.271366 0
M  V30 7561 H 716.441 -4.11739 -0.697186 0
M  V30 7562 N 716.879 -0.700114 -1.41195 0
M  V30 7563 C 718.125 -0.233351 -2.01453 0
M  V30 7564 C 718.458 1.16548 -1.55339 0
M  V30 7565 O 717.733 1.78756 -0.766575 0
M  V30 7566 C 718.016 -0.2961 -3.58881 0
M  V30 7567 C 717.869 -1.7322 -4.15108 0
M  V30 7568 C 719.188 0.341525 -4.38773 0
M  V30 7569 H 716.307 -0.0862667 -0.731934 0
M  V30 7570 H 718.949 -0.889693 -1.67882 0
M  V30 7571 H 717.099 0.262736 -3.87611 0
M  V30 7572 H 718.771 -2.34523 -3.97236 0
M  V30 7573 H 717.014 -2.2649 -3.69979 0
M  V30 7574 H 717.685 -1.7276 -5.24269 0
M  V30 7575 H 720.161 -0.134461 -4.15883 0
M  V30 7576 H 719.037 0.267098 -5.4825 0
M  V30 7577 H 719.298 1.42289 -4.18577 0
M  V30 7578 N 718.357 1.51182 -0.445186 0
M  V30 7579 C 719.32 2.26501 0.350722 0
M  V30 7580 C 720.32 1.3025 0.942952 0
M  V30 7581 O 721.51 1.53897 0.816175 0
M  V30 7582 C 718.642 3.06274 1.49697 0
M  V30 7583 H 719.835 2.98299 -0.309474 0
M  V30 7584 H 717.388 1.55034 -0.198551 0
M  V30 7585 H 718.123 2.38911 2.19299 0
M  V30 7586 H 717.908 3.76979 1.0784 0
M  V30 7587 H 719.398 3.63306 2.05909 0
M  V30 7588 N 719.835 0.176821 1.56605 0
M  V30 7589 C 720.765 -0.746841 2.21234 0
M  V30 7590 C 721.746 -1.23502 1.16967 0
M  V30 7591 O 722.931 -1.28718 1.45414 0
M  V30 7592 C 720.061 -1.97407 2.8574 0
M  V30 7593 C 719.015 -1.62153 3.96094 0
M  V30 7594 C 718.341 -2.92387 4.47676 0
M  V30 7595 C 719.641 -0.845353 5.15413 0
M  V30 7596 H 721.335 -0.208116 2.98676 0
M  V30 7597 H 718.881 -0.0986594 1.43662 0
M  V30 7598 H 720.834 -2.62531 3.2963 0
M  V30 7599 H 719.558 -2.53703 2.05676 0
M  V30 7600 H 718.217 -0.993964 3.52868 0
M  V30 7601 H 717.865 -3.46734 3.64396 0
M  V30 7602 H 717.565 -2.69551 5.22127 0
M  V30 7603 H 719.089 -3.5853 4.94255 0
M  V30 7604 H 720.503 -1.39929 5.55961 0
M  V30 7605 H 718.9 -0.715814 5.95815 0
M  V30 7606 H 719.97 0.157239 4.84645 0
M  V30 7607 N 721.313 -1.57302 -0.09688 0
M  V30 7608 C 722.246 -1.97179 -1.14872 0
M  V30 7609 C 723.224 -0.844734 -1.38935 0
M  V30 7610 O 724.408 -1.10487 -1.52725 0
M  V30 7611 C 721.535 -2.28703 -2.49826 0
M  V30 7612 C 720.581 -3.51158 -2.42054 0
M  V30 7613 S 721.414 -5.0294 -1.83879 0
M  V30 7614 C 722.57 -5.37639 -3.2046 0
M  V30 7615 H 722.803 -2.86088 -0.808771 0
M  V30 7616 H 720.336 -1.51368 -0.304492 0
M  V30 7617 H 722.294 -2.47541 -3.27466 0
M  V30 7618 H 720.955 -1.40368 -2.8099 0
M  V30 7619 H 720.148 -3.70651 -3.41517 0
M  V30 7620 H 719.75 -3.31821 -1.72543 0
M  V30 7621 H 722.042 -5.34175 -4.16729 0
M  V30 7622 H 722.985 -6.38677 -3.05773 0
M  V30 7623 H 723.393 -4.651 -3.19909 0
M  V30 7624 N 722.791 0.367657 -1.53252 0
M  V30 7625 C 723.741 1.45035 -1.75923 0
M  V30 7626 C 724.725 1.48736 -0.613719 0
M  V30 7627 O 725.917 1.54012 -0.872313 0
M  V30 7628 C 723.046 2.82493 -1.9507 0
M  V30 7629 C 722.132 2.83279 -3.15617 0
M  V30 7630 N 722.523 2.53712 -4.37566 0
M  V30 7631 C 720.821 3.1444 -3.16297 0
M  V30 7632 C 721.522 2.62123 -5.19294 0
M  V30 7633 N 720.498 2.96747 -4.55458 0
M  V30 7634 H 724.3 1.21035 -2.6782 0
M  V30 7635 H 721.814 0.575822 -1.51849 0
M  V30 7636 H 723.811 3.60473 -2.0944 0
M  V30 7637 H 722.471 3.07459 -1.044 0
M  V30 7638 H 723.482 2.27344 -4.65333 0
M  V30 7639 H 720.159 3.44733 -2.35511 0
M  V30 7640 H 721.549 2.42628 -6.26563 0
M  V30 7641 N 724.269 1.44576 0.627338 0
M  V30 7642 C 725.68 1.42266 1.20902 0
M  V30 7643 C 726.031 0.139964 1.957 0
M  V30 7644 O 725.156 -0.759489 2.02634 0
M  V30 7645 C 725.751 2.57727 2.19914 0
M  V30 7646 C 724.31 2.58599 2.73502 0
M  V30 7647 C 723.457 2.34145 1.48564 0
M  V30 7648 H 726.408 1.53102 0.417791 0
M  V30 7649 H 726.429 2.30697 3.02588 0
M  V30 7650 H 725.941 3.51068 1.65447 0
M  V30 7651 H 724.042 1.6921 3.31962 0
M  V30 7652 H 724.155 3.57205 3.19282 0
M  V30 7653 H 722.519 1.83313 1.76829 0
M  V30 7654 H 723.302 3.29606 0.959935 0
M  V30 7655 N 725.747 -0.868086 1.31537 0
M  V30 7656 C 727.024 -1.60384 1.11965 0
M  V30 7657 C 727.404 -2.08584 -0.324949 0
M  V30 7658 O 726.752 -1.86561 -1.31937 0
M  V30 7659 C 726.962 -2.76038 2.13551 0
M  V30 7660 C 728.31 -3.45954 2.46173 0
M  V30 7661 O 729.334 -2.86247 2.11993 0
M  V30 7662 O 728.193 -4.53666 3.04711 0
M  V30 7663 H 725.287 -0.705705 0.431172 0
M  V30 7664 H 727.833 -0.913385 1.43022 0
M  V30 7665 H 726.605 -2.37849 3.10714 0
M  V30 7666 H 726.228 -3.52769 1.83411 0
M  V30 7667 N 727.225 -1.14528 -1.08264 0
M  V30 7668 C 728.473 -0.912599 -1.80322 0
M  V30 7669 C 728.794 0.562256 -1.86718 0
M  V30 7670 O 728.064 1.40869 -1.36135 0
M  V30 7671 H 726.644 -0.334645 -0.667849 0
M  V30 7672 H 729.306 -1.44415 -1.30883 0
M  V30 7673 H 728.402 -1.31384 -2.83098 0
M  V30 7674 N 728.703 1.26451 -0.940633 0
M  V30 7675 C 729.928 1.98407 -0.60412 0
M  V30 7676 C 730.353 1.69584 0.81382 0
M  V30 7677 O 729.711 0.943553 1.54812 0
M  V30 7678 C 729.759 3.50387 -0.852136 0
M  V30 7679 O 728.863 4.1233 0.076013 0
M  V30 7680 H 728.204 0.622466 -0.231153 0
M  V30 7681 H 730.734 1.60932 -1.26342 0
M  V30 7682 H 730.744 4.00614 -0.772816 0
M  V30 7683 H 729.419 3.70696 -1.88566 0
M  V30 7684 H 727.996 3.7286 -0.0543187 0
M  V30 7685 N 730.181 0.707592 1.40822 0
M  V30 7686 C 731.144 0.0587224 2.29125 0
M  V30 7687 C 732.144 -0.695624 1.44975 0
M  V30 7688 O 733.334 -0.528718 1.65983 0
M  V30 7689 C 730.466 -0.926939 3.28056 0
M  V30 7690 H 731.659 0.836349 2.88002 0
M  V30 7691 H 729.212 0.471778 1.4901 0
M  V30 7692 H 729.947 -1.7319 2.74182 0
M  V30 7693 H 729.732 -0.389015 3.90165 0
M  V30 7694 H 731.222 -1.37837 3.94196 0
M  V30 7695 N 731.66 -1.50943 0.453197 0
M  V30 7696 C 732.906 -2.02512 -0.108082 0
M  V30 7697 C 733.239 -1.33574 -1.40967 0
M  V30 7698 O 732.514 -0.455671 -1.89087 0
M  V30 7699 C 732.797 -3.58759 -0.310453 0
M  V30 7700 C 732.65 -4.38293 1.0109 0
M  V30 7701 C 733.969 -4.26816 -1.07313 0
M  V30 7702 H 731.088 -0.73603 -0.0378064 0
M  V30 7703 H 733.73 -1.80433 0.595295 0
M  V30 7704 H 731.88 -3.77702 -0.909582 0
M  V30 7705 H 733.552 -4.30964 1.64523 0
M  V30 7706 H 731.795 -4.02745 1.61179 0
M  V30 7707 H 732.466 -5.45828 0.82315 0
M  V30 7708 H 734.942 -4.1224 -0.565473 0
M  V30 7709 H 733.818 -5.35989 -1.1835 0
M  V30 7710 H 734.079 -3.88757 -2.10525 0
M  V30 7711 N 733.138 -0.185124 -1.56509 0
M  V30 7712 C 734.384 0.456934 -1.97585 0
M  V30 7713 C 734.717 1.61957 -1.07161 0
M  V30 7714 O 733.992 1.9412 -0.121546 0
M  V30 7715 C 734.275 0.926666 -3.47973 0
M  V30 7716 C 734.128 -0.237097 -4.49175 0
M  V30 7717 C 735.447 1.79561 -4.01803 0
M  V30 7718 H 732.566 0.164619 -0.71838 0
M  V30 7719 H 735.208 -0.274039 -1.88013 0
M  V30 7720 H 733.358 1.54954 -3.56261 0
M  V30 7721 H 735.03 -0.87454 -4.52934 0
M  V30 7722 H 733.273 -0.890446 -4.24563 0
M  V30 7723 H 733.944 0.133924 -5.51838 0
M  V30 7724 H 736.42 1.27039 -3.96232 0
M  V30 7725 H 735.296 2.09327 -5.07418 0
M  V30 7726 H 735.557 2.74629 -3.46455 0
M  V30 7727 N 734.616 1.57351 0.0885366 0
M  V30 7728 C 735.862 1.86696 0.791996 0
M  V30 7729 C 736.195 0.775148 1.78059 0
M  V30 7730 O 735.47 -0.216247 1.93294 0
M  V30 7731 C 735.753 3.26684 1.51491 0
M  V30 7732 C 735.606 4.465 0.543858 0
M  V30 7733 C 736.925 3.64664 2.46391 0
M  V30 7734 H 734.044 0.679049 0.286463 0
M  V30 7735 H 736.686 1.89919 0.0554866 0
M  V30 7736 H 734.836 3.24067 2.14273 0
M  V30 7737 H 736.508 4.61235 -0.0774597 0
M  V30 7738 H 734.751 4.33567 -0.142228 0
M  V30 7739 H 735.422 5.41192 1.08696 0
M  V30 7740 H 737.898 3.68267 1.93698 0
M  V30 7741 H 736.774 4.63534 2.93986 0
M  V30 7742 H 737.035 2.93698 3.30445 0
M  V30 7743 N 736.094 -0.359525 1.53444 0
M  V30 7744 C 737.34 -1.10315 1.70172 0
M  V30 7745 C 737.673 -1.88788 0.455287 0
M  V30 7746 O 736.948 -1.86635 -0.547514 0
M  V30 7747 C 737.231 -2.05744 2.95536 0
M  V30 7748 C 737.084 -1.3084 4.3035 0
M  V30 7749 C 738.403 -3.05784 3.16518 0
M  V30 7750 H 735.522 -0.399662 0.619225 0
M  V30 7751 H 738.164 -0.383338 1.86093 0
M  V30 7752 H 736.314 -2.67125 2.82093 0
M  V30 7753 H 737.986 -0.721959 4.55615 0
M  V30 7754 H 736.229 -0.610283 4.29486 0
M  V30 7755 H 736.9 -2.00718 5.14214 0
M  V30 7756 H 739.376 -2.5451 3.29187 0
M  V30 7757 H 738.252 -3.69772 4.05659 0
M  V30 7758 H 738.513 -3.76289 2.32076 0
M  V30 7759 N 737.572 -1.44907 -0.619662 0
M  V30 7760 C 738.502 -1.55488 -1.742 0
M  V30 7761 C 739.483 -0.407143 -1.65156 0
M  V30 7762 O 740.668 -0.628743 -1.8374 0
M  V30 7763 C 737.798 -1.5097 -3.1277 0
M  V30 7764 C 736.752 -2.64337 -3.36615 0
M  V30 7765 C 736.078 -2.44872 -4.75333 0
M  V30 7766 C 737.378 -4.06423 -3.28051 0
M  V30 7767 H 739.072 -2.49432 -1.65602 0
M  V30 7768 H 736.618 -1.20047 -0.795281 0
M  V30 7769 H 738.571 -1.56971 -3.91073 0
M  V30 7770 H 737.295 -0.535486 -3.2218 0
M  V30 7771 H 735.954 -2.57744 -2.60698 0
M  V30 7772 H 735.602 -1.45617 -4.81461 0
M  V30 7773 H 735.302 -3.20888 -4.92244 0
M  V30 7774 H 736.826 -2.52709 -5.55851 0
M  V30 7775 H 738.24 -4.14324 -3.96243 0
M  V30 7776 H 736.637 -4.82733 -3.56495 0
M  V30 7777 H 737.707 -4.29183 -2.25676 0
M  V30 7778 N 739.05 0.861098 -1.31996 0
M  V30 7779 C 739.998 1.99052 -1.20337 0
M  V30 7780 C 740.992 1.69045 -0.109623 0
M  V30 7781 O 742.198 1.77931 -0.272117 0
M  V30 7782 H 738.573 0.653064 -0.372843 0
M  V30 7783 H 740.544 2.06015 -2.15872 0
M  V30 7784 C 739.293 3.34846 -0.936663 0
M  V30 7785 H 738.616 3.58462 -1.77045 0
M  V30 7786 H 740.056 4.1444 -0.895302 0
M  V30 7787 C 738.515 3.34965 0.360607 0
M  V30 7788 O 739.045 3.7745 1.37456 0
M  V30 7789 N 737.251 2.88101 0.380296 0
M  V30 7790 H 736.798 2.53721 -0.445351 0
M  V30 7791 H 736.756 2.88563 1.24816 0
M  V30 7792 N 740.528 1.15101 1.07655 0
M  V30 7793 C 741.944 0.893004 1.32279 0
M  V30 7794 C 742.144 -0.461701 1.96139 0
M  V30 7795 O 741.2 -1.20431 2.21929 0
M  V30 7796 C 742.513 2.03161 2.21689 0
M  V30 7797 C 744.061 2.06579 2.35147 0
M  V30 7798 C 744.536 3.19754 3.27905 0
M  V30 7799 N 746.027 3.19382 3.35484 0
M  V30 7800 C 746.762 4.03592 4.07309 0
M  V30 7801 N 746.258 4.97859 4.81776 0
M  V30 7802 N 748.051 3.91626 4.03219 0
M  V30 7803 H 740.202 2.02341 0.645886 0
M  V30 7804 H 742.465 0.882127 0.347211 0
M  V30 7805 H 742.171 3.00934 1.82021 0
M  V30 7806 H 742.045 1.96132 3.22199 0
M  V30 7807 H 744.432 1.09408 2.74069 0
M  V30 7808 H 744.513 2.17676 1.34353 0
M  V30 7809 H 744.157 4.17175 2.89702 0
M  V30 7810 H 744.087 3.05893 4.28645 0
M  V30 7811 H 746.578 2.51112 2.82403 0
M  V30 7812 H 746.891 5.58563 5.34067 0
M  V30 7813 H 745.236 5.0185 4.80803 0
M  V30 7814 H 748.427 3.17295 3.44154 0
M  V30 7815 H 748.6 4.57479 4.5893 0
M  V30 7816 N 742.006 -1.2595 0.947325 0
M  V30 7817 C 743.231 -1.98083 0.614633 0
M  V30 7818 C 743.656 -1.70013 -0.804815 0
M  V30 7819 O 743.014 -0.95175 -1.54309 0
M  V30 7820 C 743.062 -3.4993 0.870706 0
M  V30 7821 O 742.166 -4.12364 -0.0541451 0
M  V30 7822 H 741.507 -0.621232 0.234451 0
M  V30 7823 H 744.037 -1.60259 1.27193 0
M  V30 7824 H 744.047 -4.00198 0.794051 0
M  V30 7825 H 742.722 -3.69691 1.90529 0
M  V30 7826 H 741.299 -3.72826 0.0740917 0
M  V30 7827 N 743.484 -0.715051 -1.40445 0
M  V30 7828 C 744.709 -0.26254 -2.05732 0
M  V30 7829 C 745.134 1.08691 -1.53519 0
M  V30 7830 O 744.492 1.68453 -0.670328 0
M  V30 7831 C 744.54 -0.25195 -3.59719 0
M  V30 7832 O 743.644 0.766998 -4.05205 0
M  V30 7833 H 742.985 -0.123398 -0.652433 0
M  V30 7834 H 745.515 -0.975382 -1.79854 0
M  V30 7835 H 745.525 -0.0894537 -4.07902 0
M  V30 7836 H 744.2 -1.23672 -3.97087 0
M  V30 7837 H 742.777 0.572269 -3.68483 0
M  V30 7838 N 744.962 1.50701 -0.461195 0
M  V30 7839 C 745.909 2.2831 0.338094 0
M  V30 7840 C 746.879 1.32928 0.995957 0
M  V30 7841 O 748.064 1.61857 1.0103 0
M  V30 7842 C 745.204 3.14539 1.41983 0
M  V30 7843 C 744.317 4.24942 0.77773 0
M  V30 7844 C 743.452 4.98443 1.83652 0
M  V30 7845 C 742.491 6.00733 1.17413 0
M  V30 7846 N 741.628 6.6755 2.17533 0
M  V30 7847 H 746.468 2.96167 -0.330051 0
M  V30 7848 H 744.005 1.4606 -0.174611 0
M  V30 7849 H 745.963 3.62877 2.05855 0
M  V30 7850 H 744.593 2.48749 2.05727 0
M  V30 7851 H 743.645 3.80391 0.0266924 0
M  V30 7852 H 744.957 4.98151 0.254362 0
M  V30 7853 H 744.111 5.50449 2.55129 0
M  V30 7854 H 742.85 4.24917 2.39367 0
M  V30 7855 H 741.855 5.47997 0.444944 0
M  V30 7856 H 743.08 6.76227 0.624006 0
M  V30 7857 H 741.026 5.96823 2.72284 0
M  V30 7858 H 740.943 7.36603 1.70154 0
M  V30 7859 H 742.211 7.24178 2.88421 0
M  V30 7860 N 746.441 0.193421 1.56409 0
M  V30 7861 C 747.718 -0.493318 1.89277 0
M  V30 7862 C 748.098 -1.79765 1.10669 0
M  V30 7863 O 747.446 -2.27558 0.207274 0
M  V30 7864 C 747.656 -0.713732 3.41624 0
M  V30 7865 C 749.004 -1.03385 4.11821 0
M  V30 7866 O 750.028 -0.801511 3.47065 0
M  V30 7867 O 748.887 -1.47327 5.26267 0
M  V30 7868 H 745.981 -0.256973 0.786062 0
M  V30 7869 H 748.527 0.23351 1.68086 0
M  V30 7870 H 747.299 0.207446 3.9075 0
M  V30 7871 H 746.922 -1.49308 3.68501 0
M  V30 7872 N 747.919 -1.57396 -0.0801906 0
M  V30 7873 C 749.165 -1.87113 -0.782083 0
M  V30 7874 C 749.498 -0.78458 -1.77646 0
M  V30 7875 O 748.773 0.205993 -1.93406 0
M  V30 7876 C 749.056 -3.27483 -1.49756 0
M  V30 7877 C 748.909 -4.46782 -0.520171 0
M  V30 7878 C 750.228 -3.65965 -2.44454 0
M  V30 7879 H 747.347 -0.680559 -0.282858 0
M  V30 7880 H 749.989 -1.89946 -0.0454139 0
M  V30 7881 H 748.139 -3.25199 -2.12551 0
M  V30 7882 H 749.811 -4.61187 0.101919 0
M  V30 7883 H 748.054 -4.33485 0.165219 0
M  V30 7884 H 748.725 -5.41761 -1.05824 0
M  V30 7885 H 751.201 -3.69289 -1.91742 0
M  V30 7886 H 750.077 -4.65086 -2.91524 0
M  V30 7887 H 750.338 -2.95446 -3.28883 0
M  V30 7888 N 749.397 0.351382 -1.53633 0
M  V30 7889 C 750.808 0.927429 -1.62036 0
M  V30 7890 C 751.159 1.89809 -0.496706 0
M  V30 7891 O 750.284 2.1313 0.374749 0
M  V30 7892 C 750.879 1.68886 -2.93706 0
M  V30 7893 C 749.438 2.21404 -3.04397 0
M  V30 7894 C 748.585 1.03075 -2.57431 0
M  V30 7895 H 751.536 0.129748 -1.58169 0
M  V30 7896 H 751.557 2.55116 -2.82305 0
M  V30 7897 H 751.069 0.982149 -3.75467 0
M  V30 7898 H 749.17 2.95274 -2.27253 0
M  V30 7899 H 749.283 2.48312 -4.09729 0
M  V30 7900 H 747.647 1.40188 -2.12649 0
M  V30 7901 H 748.43 0.338793 -3.41624 0
M  V30 7902 N 750.875 1.45233 0.611969 0
M  V30 7903 C 751.805 1.5641 1.73373 0
M  V30 7904 C 752.786 0.415896 1.64937 0
M  V30 7905 O 753.971 0.638478 1.83404 0
M  V30 7906 C 751.101 1.52627 3.11965 0
M  V30 7907 C 750.055 2.66119 3.35208 0
M  V30 7908 C 749.381 2.4739 4.74028 0
M  V30 7909 C 750.681 4.08157 3.25891 0
M  V30 7910 H 752.375 2.50307 1.64277 0
M  V30 7911 H 749.921 1.20467 0.788904 0
M  V30 7912 H 751.874 1.59043 3.90235 0
M  V30 7913 H 750.598 0.552564 3.21892 0
M  V30 7914 H 749.257 2.59123 2.59327 0
M  V30 7915 H 748.905 1.48168 4.80682 0
M  V30 7916 H 748.605 3.23494 4.90536 0
M  V30 7917 H 750.129 2.55653 5.54503 0
M  V30 7918 H 751.543 4.1642 3.9404 0
M  V30 7919 H 749.94 4.84617 3.5393 0
M  V30 7920 H 751.01 4.30374 2.23397 0
M  V30 7921 N 752.353 -0.854086 1.3245 0
M  V30 7922 C 753.581 -1.64074 1.26045 0
M  V30 7923 C 753.996 -1.8802 -0.171456 0
M  V30 7924 O 753.353 -1.4496 -1.10873 0
M  V30 7925 C 753.404 -2.9997 2.01743 0
M  V30 7926 O 753.125 -2.77084 3.39346 0
M  V30 7927 C 754.626 -3.94414 2.02368 0
M  V30 7928 H 751.846 -0.511015 0.434862 0
M  V30 7929 H 754.39 -1.06494 1.74583 0
M  V30 7930 H 752.545 -3.54193 1.56926 0
M  V30 7931 H 752.959 -3.63514 3.78098 0
M  V30 7932 H 754.433 -4.87032 2.59815 0
M  V30 7933 H 754.91 -4.27427 1.01009 0
M  V30 7934 H 755.516 -3.46127 2.47135 0
M  V30 7935 N 753.831 -1.1567 -1.07043 0
M  V30 7936 C 755.08 -0.928039 -1.79082 0
M  V30 7937 C 755.393 0.545968 -1.87826 0
M  V30 7938 O 756.599 0.892308 -2.56418 0
M  V30 7939 C 755.055 -1.61103 -3.21829 0
M  V30 7940 C 754.663 -3.12228 -3.21275 0
M  V30 7941 C 756.407 -1.46404 -3.98455 0
M  V30 7942 C 754.314 -3.733 -4.58695 0
M  V30 7943 H 753.244 -0.34357 -0.671175 0
M  V30 7944 H 755.895 -1.38718 -1.20123 0
M  V30 7945 H 754.277 -1.07958 -3.81 0
M  V30 7946 H 755.451 -3.72155 -2.71731 0
M  V30 7947 H 753.766 -3.26725 -2.58147 0
M  V30 7948 H 756.363 -1.8942 -5.00024 0
M  V30 7949 H 756.706 -0.41195 -4.14257 0
M  V30 7950 H 757.239 -1.96663 -3.45787 0
M  V30 7951 H 753.978 -4.78423 -4.48098 0
M  V30 7952 H 753.498 -3.18157 -5.08465 0
M  V30 7953 H 755.177 -3.7441 -5.27661 0
M  V30 7954 N 755.309 1.25446 -0.953992 0
M  V30 7955 C 756.256 2.25912 -0.472485 0
M  V30 7956 C 757.226 1.59173 0.47469 0
M  V30 7957 O 758.411 1.86812 0.388082 0
M  V30 7958 C 755.551 3.44235 0.244218 0
M  V30 7959 C 754.664 4.25613 -0.740121 0
M  V30 7960 C 753.799 5.312 -0.000922267 0
M  V30 7961 C 752.838 6.04265 -0.976236 0
M  V30 7962 N 751.975 7.01589 -0.267952 0
M  V30 7963 H 756.815 2.66469 -1.3341 0
M  V30 7964 H 754.352 1.31005 -0.669045 0
M  V30 7965 H 756.31 4.11682 0.676314 0
M  V30 7966 H 754.94 3.04554 1.06988 0
M  V30 7967 H 753.992 3.57834 -1.2907 0
M  V30 7968 H 755.304 4.762 -1.48441 0
M  V30 7969 H 754.458 6.04719 0.48984 0
M  V30 7970 H 753.197 4.81484 0.776159 0
M  V30 7971 H 752.202 5.29561 -1.478 0
M  V30 7972 H 753.427 6.5607 -1.75354 0
M  V30 7973 H 751.373 6.54164 0.490403 0
M  V30 7974 H 751.29 7.4999 -0.951344 0
M  V30 7975 H 752.558 7.7924 0.201294 0
M  V30 7976 N 756.787 0.722489 1.40064 0
M  V30 7977 C 758.064 0.191829 1.94657 0
M  V30 7978 C 758.444 -1.30389 1.66018 0
M  V30 7979 O 757.792 -2.06342 0.981588 0
M  V30 7980 C 758.002 0.511978 3.45224 0
M  V30 7981 C 759.35 0.454426 4.22161 0
M  V30 7982 O 760.374 0.448438 3.53366 0
M  V30 7983 O 759.233 0.437986 5.44742 0
M  V30 7984 H 756.327 0.0307821 0.826427 0
M  V30 7985 H 758.873 0.800493 1.49634 0
M  V30 7986 H 757.645 1.54622 3.59455 0
M  V30 7987 H 757.268 -0.126296 3.97399 0
M  V30 7988 N 758.265 -1.50454 0.469181 0
M  V30 7989 C 759.676 -1.86695 0.0136034 0
M  V30 7990 C 760.027 -1.38413 -1.39055 0
M  V30 7991 O 759.152 -0.748294 -2.03051 0
M  V30 7992 C 759.747 -3.38795 0.0179098 0
M  V30 7993 C 758.306 -3.74455 -0.382191 0
M  V30 7994 C 757.453 -2.74338 0.404207 0
M  V30 7995 H 760.404 -1.43225 0.683547 0
M  V30 7996 H 760.425 -3.72321 -0.78468 0
M  V30 7997 H 759.937 -3.73906 1.04 0
M  V30 7998 H 758.038 -3.44944 -1.4087 0
M  V30 7999 H 758.151 -4.79025 -0.084862 0
M  V30 8000 H 756.515 -2.54305 -0.141829 0
M  V30 8001 H 757.298 -3.12293 1.42577 0
M  V30 8002 N 759.743 -0.201713 -1.56304 0
M  V30 8003 C 760.706 0.702811 -2.18159 0
M  V30 8004 C 761.706 1.13619 -1.13787 0
M  V30 8005 O 762.896 1.0482 -1.39134 0
M  V30 8006 C 760.028 1.96032 -2.78898 0
M  V30 8007 H 761.221 0.163836 -2.99452 0
M  V30 8008 H 758.774 0.04791 -1.56227 0
M  V30 8009 H 759.509 2.54165 -2.01421 0
M  V30 8010 H 759.294 1.65824 -3.55309 0
M  V30 8011 H 760.784 2.60519 -3.26373 0
M  V30 8012 N 761.222 1.57436 0.0718424 0
M  V30 8013 C 762.468 1.87525 0.772149 0
M  V30 8014 C 762.801 0.79399 1.77227 0
M  V30 8015 O 762.076 -0.195733 1.93513 0
M  V30 8016 C 762.359 3.28272 1.48018 0
M  V30 8017 C 762.212 4.47052 0.49647 0
M  V30 8018 C 763.531 3.67256 2.42509 0
M  V30 8019 H 760.65 0.682049 0.279245 0
M  V30 8020 H 763.292 1.89967 0.03534 0
M  V30 8021 H 761.442 3.26321 2.10824 0
M  V30 8022 H 763.114 4.61127 -0.126375 0
M  V30 8023 H 761.357 4.33392 -0.188205 0
M  V30 8024 H 762.028 5.42315 1.02949 0
M  V30 8025 H 764.504 3.70301 1.89781 0
M  V30 8026 H 763.38 4.66626 2.89053 0
M  V30 8027 H 763.641 2.97186 3.27312 0
M  V30 8028 N 762.7 -0.34323 1.53817 0
M  V30 8029 C 763.948 -1.0813 1.70741 0
M  V30 8030 C 764.269 -1.89165 0.473461 0
M  V30 8031 O 763.539 -1.89075 -0.512605 0
M  V30 8032 H 762.119 -0.40219 0.629486 0
M  V30 8033 H 764.781 -0.384426 1.91071 0
M  V30 8034 H 763.877 -1.7585 2.57843 0
M  V30 8035 N 764.178 -1.45556 -0.604258 0
M  V30 8036 C 765.425 -1.49746 -1.36317 0
M  V30 8037 C 765.753 -0.140516 -1.93992 0
M  V30 8038 O 765.008 0.861244 -1.7573 0
M  V30 8039 C 765.307 -2.52697 -2.52743 0
M  V30 8040 C 764.973 -3.97315 -2.13195 0
M  V30 8041 C 763.635 -4.36692 -2.02123 0
M  V30 8042 C 765.987 -4.88249 -1.8238 0
M  V30 8043 C 763.315 -5.64895 -1.58463 0
M  V30 8044 C 765.667 -6.16867 -1.40205 0
M  V30 8045 C 764.331 -6.55172 -1.27694 0
M  V30 8046 H 763.601 -0.54796 -0.49882 0
M  V30 8047 H 766.248 -1.7892 -0.682643 0
M  V30 8048 H 764.553 -2.17105 -3.26148 0
M  V30 8049 H 766.25 -2.53176 -3.10971 0
M  V30 8050 H 762.84 -3.66176 -2.22739 0
M  V30 8051 H 767.024 -4.58561 -1.89829 0
M  V30 8052 H 762.28 -5.93365 -1.47402 0
M  V30 8053 H 766.454 -6.86771 -1.15408 0
M  V30 8054 H 764.081 -7.54411 -0.936375 0
M  V30 8055 N 765.656 0.84705 -1.32902 0
M  V30 8056 C 766.586 1.97166 -1.25091 0
M  V30 8057 C 767.567 1.69578 -0.133161 0
M  V30 8058 O 768.752 1.91519 -0.321591 0
M  V30 8059 C 765.882 3.33157 -0.981006 0
M  V30 8060 C 764.836 3.75119 -2.06082 0
M  V30 8061 C 764.162 5.08826 -1.64318 0
M  V30 8062 C 765.462 3.89774 -3.47669 0
M  V30 8063 H 767.156 2.03958 -2.19184 0
M  V30 8064 H 764.702 0.979907 -1.05517 0
M  V30 8065 H 766.655 4.11393 -0.912891 0
M  V30 8066 H 765.379 3.266 -0.00445559 0
M  V30 8067 H 764.038 2.9914 -2.11921 0
M  V30 8068 H 763.686 4.98732 -0.653876 0
M  V30 8069 H 763.386 5.37873 -2.36572 0
M  V30 8070 H 764.91 5.89546 -1.58958 0
M  V30 8071 H 766.324 4.58343 -3.44376 0
M  V30 8072 H 764.721 4.30248 -4.18338 0
M  V30 8073 H 765.791 2.92463 -3.86773 0
M  V30 8074 N 767.134 1.16236 1.06428 0
M  V30 8075 C 768.044 0.881976 2.1739 0
M  V30 8076 C 769.06 -0.145259 1.73393 0
M  V30 8077 O 770.236 0.0310558 2.01376 0
M  V30 8078 C 767.301 0.385496 3.4455 0
M  V30 8079 C 766.362 1.47779 4.03063 0
M  V30 8080 C 765.595 1.0049 5.24154 0
M  V30 8081 O 765.818 -0.145889 5.70213 0
M  V30 8082 O 764.752 1.79265 5.74585 0
M  V30 8083 H 768.578 1.80983 2.43883 0
M  V30 8084 H 766.163 0.942226 1.15942 0
M  V30 8085 H 768.045 0.115536 4.21242 0
M  V30 8086 H 766.72 -0.514369 3.19587 0
M  V30 8087 H 765.627 1.80147 3.27869 0
M  V30 8088 H 766.96 2.35291 4.32318 0
M  V30 8089 N 768.612 -1.24939 0.960631 0
M  V30 8090 C 769.84 -1.96881 0.636045 0
M  V30 8091 C 770.255 -1.71334 -0.793093 0
M  V30 8092 O 769.612 -0.992917 -1.53125 0
M  V30 8093 C 769.663 -3.50309 0.892533 0
M  V30 8094 O 769.384 -3.74977 2.26548 0
M  V30 8095 C 770.885 -4.39474 0.581159 0
M  V30 8096 H 768.105 -0.627399 0.237931 0
M  V30 8097 H 770.649 -1.58952 1.28664 0
M  V30 8098 H 768.804 -3.86326 0.288257 0
M  V30 8099 H 769.218 -4.69401 2.34014 0
M  V30 8100 H 770.692 -5.46008 0.811125 0
M  V30 8101 H 771.169 -4.3652 -0.48443 0
M  V30 8102 H 771.775 -4.09032 1.16502 0
M  V30 8103 N 770.09 -0.729906 -1.39679 0
M  V30 8104 C 771.339 -0.272534 -1.9985 0
M  V30 8105 C 771.652 1.14519 -1.58571 0
M  V30 8106 O 772.858 1.70182 -2.11543 0
M  V30 8107 C 771.314 -0.436322 -3.57245 0
M  V30 8108 C 770.922 -1.86161 -4.0749 0
M  V30 8109 C 772.666 -0.0404679 -4.24481 0
M  V30 8110 C 770.573 -1.97522 -5.5744 0
M  V30 8111 H 769.503 -0.0981428 -0.747585 0
M  V30 8112 H 772.154 -0.903056 -1.59741 0
M  V30 8113 H 770.536 0.263015 -3.95126 0
M  V30 8114 H 771.71 -2.59248 -3.80955 0
M  V30 8115 H 770.025 -2.21021 -3.529 0
M  V30 8116 H 772.622 -0.104437 -5.34598 0
M  V30 8117 H 772.965 1.00357 -4.04023 0
M  V30 8118 H 773.498 -0.690774 -3.91757 0
M  V30 8119 H 770.237 -3.00096 -5.82771 0
M  V30 8120 H 769.757 -1.28864 -5.85794 0
M  V30 8121 H 771.436 -1.754 -6.22771 0
M  V30 8122 N 771.568 1.50203 -0.477153 0
M  V30 8123 C 772.793 2.07263 0.0754986 0
M  V30 8124 C 773.218 1.33801 1.32208 0
M  V30 8125 O 772.576 0.387482 1.77111 0
M  V30 8126 C 772.624 3.59028 0.336348 0
M  V30 8127 O 771.728 3.87339 1.4157 0
M  V30 8128 H 771.069 0.663815 -0.015662 0
M  V30 8129 H 773.599 1.93321 -0.669936 0
M  V30 8130 H 773.609 4.03927 0.575034 0
M  V30 8131 H 772.284 4.11912 -0.574551 0
M  V30 8132 H 770.861 3.54272 1.16385 0
M  V30 8133 N 773.046 0.209999 1.56195 0
M  V30 8134 C 774.457 -0.299943 1.84275 0
M  V30 8135 C 774.808 -1.60314 1.1311 0
M  V30 8136 O 773.933 -2.1273 0.396874 0
M  V30 8137 C 774.528 -0.550986 3.3429 0
M  V30 8138 C 773.087 -1.00526 3.62728 0
M  V30 8139 C 772.234 -0.0619828 2.77231 0
M  V30 8140 H 775.185 0.433458 1.52666 0
M  V30 8141 H 775.206 -1.39846 3.53869 0
M  V30 8142 H 774.718 0.397669 3.86057 0
M  V30 8143 H 772.819 -1.96768 3.16407 0
M  V30 8144 H 772.932 -0.887664 4.70805 0
M  V30 8145 H 771.296 -0.566648 2.48317 0
M  V30 8146 H 772.079 0.881383 3.31793 0
M  V30 8147 N 774.524 -1.57472 -0.0634922 0
M  V30 8148 C 775.772 -1.87283 -0.759563 0
M  V30 8149 C 776.093 -0.803135 -1.77693 0
M  V30 8150 O 775.363 0.167293 -1.95184 0
M  V30 8151 H 773.943 -0.691106 -0.283516 0
M  V30 8152 H 776.605 -1.94864 -0.0376091 0
M  V30 8153 H 775.701 -2.85064 -1.27062 0
M  V30 8154 N 776.003 0.335068 -1.53997 0
M  V30 8155 C 777.233 1.0926 -1.75345 0
M  V30 8156 C 777.641 1.82568 -0.496545 0
M  V30 8157 O 776.984 1.75525 0.541897 0
M  V30 8158 C 777.046 2.14473 -2.88516 0
M  V30 8159 C 776.71 1.60665 -4.27827 0
M  V30 8160 C 777.707 1.05448 -5.09094 0
M  V30 8161 C 775.392 1.65255 -4.74337 0
M  V30 8162 C 777.386 0.555372 -6.34976 0
M  V30 8163 C 775.073 1.14956 -6.0019 0
M  V30 8164 C 776.071 0.601907 -6.80343 0
M  V30 8165 O 775.759 0.106445 -8.0383 0
M  V30 8166 H 775.491 0.331329 -0.589234 0
M  V30 8167 H 778.045 0.39042 -2.01655 0
M  V30 8168 H 776.275 2.88274 -2.5775 0
M  V30 8169 H 777.964 2.75857 -2.97755 0
M  V30 8170 H 778.73 1.01218 -4.74321 0
M  V30 8171 H 774.609 2.06822 -4.12002 0
M  V30 8172 H 778.153 0.127245 -6.97484 0
M  V30 8173 H 774.05 1.18891 -6.34457 0
M  V30 8174 H 774.818 0.222944 -8.18196 0
M  V30 8175 N 777.481 1.45874 0.596531 0
M  V30 8176 C 778.706 1.54247 1.38646 0
M  V30 8177 C 779.131 0.179571 1.87241 0
M  V30 8178 O 778.489 -0.837831 1.6078 0
M  V30 8179 C 778.537 2.54015 2.55946 0
M  V30 8180 O 777.641 2.06561 3.5694 0
M  V30 8181 H 776.982 0.519555 0.413471 0
M  V30 8182 H 779.512 1.91327 0.724936 0
M  V30 8183 H 779.522 2.73179 3.03047 0
M  V30 8184 H 778.197 3.52994 2.19928 0
M  V30 8185 H 776.774 1.97324 3.16414 0
M  V30 8186 N 778.959 -0.83999 1.33349 0
M  V30 8187 C 780.208 -1.59011 1.2409 0
M  V30 8188 C 780.521 -1.94655 -0.192029 0
M  V30 8189 O 781.727 -2.68438 -0.406617 0
M  V30 8190 C 780.183 -2.86801 2.17425 0
M  V30 8191 C 779.791 -2.58525 3.65881 0
M  V30 8192 C 781.535 -3.64823 2.17036 0
M  V30 8193 C 779.442 -3.82404 4.51133 0
M  V30 8194 H 778.372 -0.596731 0.460899 0
M  V30 8195 H 781.023 -0.926274 1.58406 0
M  V30 8196 H 779.405 -3.54719 1.7604 0
M  V30 8197 H 780.579 -1.98824 4.15699 0
M  V30 8198 H 778.894 -1.93808 3.68548 0
M  V30 8199 H 781.491 -4.56774 2.7796 0
M  V30 8200 H 781.834 -3.99663 1.16513 0
M  V30 8201 H 782.367 -3.03826 2.56777 0
M  V30 8202 H 779.106 -3.52696 5.52527 0
M  V30 8203 H 778.626 -4.41447 4.0606 0
M  V30 8204 H 780.305 -4.49995 4.6488 0
M  V30 8205 N 780.437 -1.16799 -1.0581 0
M  V30 8206 C 781.387 -0.847231 -2.11674 0
M  V30 8207 C 782.371 0.175476 -1.5994 0
M  V30 8208 O 783.563 -0.0260602 -1.76981 0
M  V30 8209 C 780.692 -0.355446 -3.41455 0
M  V30 8210 C 779.778 -1.40922 -4.00002 0
M  V30 8211 N 780.169 -2.62096 -4.32596 0
M  V30 8212 C 778.467 -1.26562 -4.27666 0
M  V30 8213 C 779.168 -3.29759 -4.79201 0
M  V30 8214 N 778.144 -2.57138 -4.78938 0
M  V30 8215 H 781.946 -1.76862 -2.34727 0
M  V30 8216 H 779.46 -1.05577 -1.23399 0
M  V30 8217 H 781.457 -0.107231 -4.16762 0
M  V30 8218 H 780.117 0.559817 -3.19838 0
M  V30 8219 H 781.128 -2.99113 -4.22791 0
M  V30 8220 H 777.805 -0.411503 -4.15467 0
M  V30 8221 H 779.195 -4.33222 -5.13584 0
M  V30 8222 N 781.915 1.24427 -0.967243 0
M  V30 8223 C 783.143 1.96541 -0.646477 0
M  V30 8224 C 783.558 1.71753 0.783996 0
M  V30 8225 O 782.915 1.00102 1.52597 0
M  V30 8226 C 782.966 3.4983 -0.911098 0
M  V30 8227 O 782.687 3.7377 -2.28534 0
M  V30 8228 C 784.188 4.3916 -0.604458 0
M  V30 8229 H 781.408 0.626129 -0.241255 0
M  V30 8230 H 783.952 1.58268 -1.29505 0
M  V30 8231 H 782.107 3.86168 -0.308741 0
M  V30 8232 H 782.521 4.68154 -2.365 0
M  V30 8233 H 783.995 5.4557 -0.840069 0
M  V30 8234 H 784.472 4.36771 0.461273 0
M  V30 8235 H 785.078 4.08409 -1.1867 0
M  V30 8236 N 783.393 0.737304 1.3929 0
M  V30 8237 C 784.623 0.296143 2.04467 0
M  V30 8238 C 785.031 -1.0748 1.55707 0
M  V30 8239 O 784.374 -1.69082 0.718123 0
M  V30 8240 C 784.436 0.222161 3.58813 0
M  V30 8241 C 784.1 1.53195 4.30558 0
M  V30 8242 C 785.097 2.47809 4.57041 0
M  V30 8243 C 782.782 1.79688 4.6906 0
M  V30 8244 C 784.776 3.67147 5.21039 0
M  V30 8245 C 782.463 2.99304 5.32785 0
M  V30 8246 C 783.461 3.92855 5.58708 0
M  V30 8247 O 783.149 5.1037 6.2111 0
M  V30 8248 H 782.881 0.126896 0.663983 0
M  V30 8249 H 785.435 1.00242 1.79278 0
M  V30 8250 H 783.665 -0.540239 3.82908 0
M  V30 8251 H 785.354 -0.187311 4.05468 0
M  V30 8252 H 786.12 2.28611 4.2774 0
M  V30 8253 H 781.999 1.07716 4.48239 0
M  V30 8254 H 785.543 4.40183 5.41188 0
M  V30 8255 H 781.44 3.18401 5.61508 0
M  V30 8256 H 782.208 5.10735 6.39603 0
M  V30 8257 N 784.871 -1.49948 0.485112 0
M  V30 8258 C 785.801 -2.31675 -0.291364 0
M  V30 8259 C 786.782 -1.39216 -0.977383 0
M  V30 8260 O 787.967 -1.68133 -0.971855 0
M  V30 8261 C 785.097 -3.19326 -1.36558 0
M  V30 8262 C 784.051 -4.2045 -0.800359 0
M  V30 8263 C 783.377 -4.96931 -1.97391 0
M  V30 8264 C 784.677 -5.21925 0.197867 0
M  V30 8265 H 786.371 -2.96839 0.390775 0
M  V30 8266 H 783.917 -1.42749 0.189375 0
M  V30 8267 H 785.87 -3.75304 -1.91638 0
M  V30 8268 H 784.594 -2.52074 -2.07668 0
M  V30 8269 H 783.253 -3.65594 -0.271428 0
M  V30 8270 H 782.901 -4.26141 -2.67232 0
M  V30 8271 H 782.601 -5.65344 -1.60187 0
M  V30 8272 H 784.125 -5.55749 -2.52935 0
M  V30 8273 H 785.539 -5.72691 -0.264239 0
M  V30 8274 H 783.936 -5.98138 0.484908 0
M  V30 8275 H 785.006 -4.71809 1.11912 0
M  V30 8276 N 786.349 -0.21828 -1.56081 0
M  V30 8277 C 787.595 0.408181 -1.99262 0
M  V30 8278 C 787.95 1.57618 -1.10337 0
M  V30 8279 O 787.243 1.90991 -0.15263 0
M  V30 8280 C 787.437 0.894782 -3.46018 0
M  V30 8281 C 787.266 -0.224528 -4.49139 0
M  V30 8282 C 786.036 -0.689843 -5.00569 0
M  V30 8283 C 788.234 -1.04165 -5.03641 0
M  V30 8284 N 786.216 -1.78455 -5.8739 0
M  V30 8285 C 787.587 -1.98529 -5.87355 0
M  V30 8286 C 789.642 -1.08146 -4.86013 0
M  V30 8287 C 788.345 -2.96549 -6.55325 0
M  V30 8288 C 790.371 -2.04982 -5.5474 0
M  V30 8289 C 789.733 -2.98086 -6.38219 0
M  V30 8290 H 785.832 0.116127 -0.77333 0
M  V30 8291 H 788.416 -0.3293 -1.91895 0
M  V30 8292 H 786.587 1.60163 -3.53839 0
M  V30 8293 H 788.319 1.49379 -3.76122 0
M  V30 8294 H 785.074 -0.279021 -4.72777 0
M  V30 8295 H 785.498 -2.33381 -6.35502 0
M  V30 8296 H 790.14 -0.375581 -4.21129 0
M  V30 8297 H 787.858 -3.68101 -7.19394 0
M  V30 8298 H 791.444 -2.08732 -5.43067 0
M  V30 8299 H 790.324 -3.71794 -6.90463 0
M  V30 8300 N 787.827 1.57504 0.0551401 0
M  V30 8301 C 789.243 1.54236 0.410292 0
M  V30 8302 C 789.443 0.940839 1.78187 0
M  V30 8303 O 788.499 0.550541 2.46425 0
M  V30 8304 C 789.812 2.98816 0.336064 0
M  V30 8305 C 791.36 3.10236 0.415047 0
M  V30 8306 C 791.835 4.56499 0.37055 0
M  V30 8307 N 793.326 4.61199 0.43013 0
M  V30 8308 C 794.061 5.71873 0.418179 0
M  V30 8309 N 793.557 6.91864 0.360056 0
M  V30 8310 N 795.35 5.60165 0.465977 0
M  V30 8311 H 787.501 1.94965 -0.842759 0
M  V30 8312 H 789.764 0.893096 -0.317937 0
M  V30 8313 H 789.47 3.4645 -0.605429 0
M  V30 8314 H 789.344 3.59564 1.13988 0
M  V30 8315 H 791.731 2.62566 1.34697 0
M  V30 8316 H 791.812 2.52367 -0.417648 0
M  V30 8317 H 791.456 5.0483 -0.557592 0
M  V30 8318 H 791.386 5.12249 1.221 0
M  V30 8319 H 793.877 3.74857 0.478623 0
M  V30 8320 H 794.19 7.71983 0.35532 0
M  V30 8321 H 792.535 6.94233 0.326492 0
M  V30 8322 H 795.726 4.65322 0.509194 0
M  V30 8323 H 795.899 6.46413 0.453194 0
M  V30 8324 N 789.305 -0.326896 1.54172 0
M  V30 8325 C 790.721 -0.671034 1.44808 0
M  V30 8326 C 790.921 -1.91781 0.618258 0
M  V30 8327 O 789.977 -2.52235 0.115751 0
M  V30 8328 C 791.29 -0.848147 2.88491 0
M  V30 8329 C 792.838 -0.945702 2.98371 0
M  V30 8330 C 793.313 -1.15501 4.43197 0
M  V30 8331 N 794.804 -1.22183 4.46795 0
M  V30 8332 C 795.539 -1.4016 5.56006 0
M  V30 8333 N 795.035 -1.55202 6.75192 0
M  V30 8334 N 796.828 -1.42841 5.43648 0
M  V30 8335 H 788.979 0.49262 2.06608 0
M  V30 8336 H 791.242 0.158574 0.934643 0
M  V30 8337 H 790.948 -0.00329969 3.517 0
M  V30 8338 H 790.822 -1.74497 3.34411 0
M  V30 8339 H 793.209 -1.78106 2.35292 0
M  V30 8340 H 793.29 -0.0254215 2.55787 0
M  V30 8341 H 792.934 -0.324521 5.06862 0
M  V30 8342 H 792.864 -2.08911 4.83388 0
M  V30 8343 H 795.355 -1.12016 3.60917 0
M  V30 8344 H 795.668 -1.68601 7.54184 0
M  V30 8345 H 794.013 -1.52306 6.78106 0
M  V30 8346 H 797.204 -1.30683 4.49488 0
M  V30 8347 H 797.377 -1.56509 6.28816 0
M  V30 8348 N 790.784 -1.46188 -0.588786 0
M  V30 8349 C 791.716 -1.52319 -1.71265 0
M  V30 8350 C 792.729 -0.412096 -1.57498 0
M  V30 8351 O 793.918 -0.680146 -1.65034 0
M  V30 8352 C 791.018 -1.38164 -3.09458 0
M  V30 8353 C 790.191 -2.63284 -3.49286 0
M  V30 8354 C 789.25 -2.43415 -4.66514 0
M  V30 8355 O 788.276 -3.17113 -4.72682 0
M  V30 8356 N 789.478 -1.49187 -5.61002 0
M  V30 8357 H 792.243 -2.49219 -1.66463 0
M  V30 8358 H 789.804 -1.42167 -0.774601 0
M  V30 8359 H 791.796 -1.22653 -3.85666 0
M  V30 8360 H 790.366 -0.494678 -3.08661 0
M  V30 8361 H 789.586 -2.93779 -2.62845 0
M  V30 8362 H 790.874 -3.46413 -3.7266 0
M  V30 8363 H 790.272 -0.884027 -5.5875 0
M  V30 8364 H 788.829 -1.39642 -6.36666 0
M  V30 8365 O 792.301 0.732974 -1.43909 0
M  V30 8366 H 792.992 1.38287 -1.35633 0
M  V30 END ATOM
M  V30 BEGIN BOND
M  V30 END BOND
M  V30 END CTAB
M  END
$$$$
