drugbank_target|O94956 Solute carrier organic anion transporter family member 2B1 (DB01241; DB05521)
 OpenBabel12092119463D

  0  0  0     0  0            999 V3000
M  V30 BEGIN CTAB
M  V30 COUNTS 10874 11005 0 0 0
M  V30 BEGIN ATOM
M  V30 1 H -0.908 1.98254 -0.117106 0
M  V30 2 N 0 1.576 0 0
M  V30 3 C 0.933 2.03868 1.02534 0
M  V30 4 C 1.911 0.928543 1.3348 0
M  V30 5 O 3.095 1.19667 1.45644 0
M  V30 6 C 0.222 2.43627 2.35294 0
M  V30 7 C -0.732 3.65373 2.2001 0
M  V30 8 S 0.101 5.13292 1.52614 0
M  V30 9 C 1.257 5.56322 2.86805 0
M  V30 10 H 1.49 2.90518 0.631377 0
M  V30 11 H -0.977 1.52953 0.210867 0
M  V30 12 H 0.981 2.67203 3.11629 0
M  V30 13 H -0.358 1.57376 2.7183 0
M  V30 14 H -1.165 3.90944 3.18086 0
M  V30 15 H -1.563 3.418 1.51819 0
M  V30 16 H 0.729 5.58782 3.83104 0
M  V30 17 H 1.672 6.56266 2.65933 0
M  V30 18 H 2.08 4.83886 2.90714 0
M  V30 19 N 1.4781 -0.272755 1.55222 0
M  V30 20 C 2.7261 -1.00234 1.75492 0
M  V30 21 C 3.0471 -1.8681 0.5592 0
M  V30 22 O 2.3171 -1.91215 -0.425882 0
M  V30 23 H 0.8971 -0.373076 0.647166 0
M  V30 24 H 3.5591 -0.296926 1.92625 0
M  V30 25 H 2.6551 -1.63913 2.65592 0
M  V30 26 N 2.9562 -1.48159 -0.537278 0
M  V30 27 C 4.3672 -1.49429 -1.11928 0
M  V30 28 C 4.7182 -0.26 -1.9447 0
M  V30 29 O 3.8432 0.633489 -2.0692 0
M  V30 30 C 4.4382 -2.70758 -2.03656 0
M  V30 31 C 2.9972 -2.74923 -2.57088 0
M  V30 32 C 2.1442 -2.42835 -1.3389 0
M  V30 33 H 5.0952 -1.55381 -0.322886 0
M  V30 34 H 5.1162 -2.48861 -2.87834 0
M  V30 35 H 4.6282 -3.60575 -1.43553 0
M  V30 36 H 2.7292 -1.89296 -3.20933 0
M  V30 37 H 2.8422 -3.76157 -2.9672 0
M  V30 38 H 1.2062 -1.93836 -1.65226 0
M  V30 39 H 1.9892 -3.34884 -0.755504 0
M  V30 40 N 4.4343 0.785586 -1.36625 0
M  V30 41 C 5.8503 1.08419 -1.17122 0
M  V30 42 C 6.0503 2.015 0.00208491 0
M  V30 43 O 5.1063 2.43551 0.666278 0
M  V30 44 C 6.4193 1.69498 -2.48377 0
M  V30 45 C 7.9673 1.81821 -2.54775 0
M  V30 46 C 8.4423 2.46315 -3.86126 0
M  V30 47 N 9.9333 2.53779 -3.87492 0
M  V30 48 C 10.6683 3.045 -4.85868 0
M  V30 49 N 10.1643 3.55499 -5.94637 0
M  V30 50 N 11.9573 3.03247 -4.73284 0
M  V30 51 H 4.1083 0.167264 -2.1174 0
M  V30 52 H 6.3713 0.13682 -0.938075 0
M  V30 53 H 6.0773 1.08571 -3.34522 0
M  V30 54 H 5.9513 2.6896 -2.64462 0
M  V30 55 H 8.3383 2.41884 -1.69045 0
M  V30 56 H 8.4193 0.811532 -2.42586 0
M  V30 57 H 8.0633 1.86895 -4.72263 0
M  V30 58 H 7.9933 3.47561 -3.95612 0
M  V30 59 H 10.4843 2.17672 -3.08913 0
M  V30 60 H 10.7973 3.92562 -6.65669 0
M  V30 61 H 9.1423 3.5364 -5.98301 0
M  V30 62 H 12.3333 2.62696 -3.87438 0
M  V30 63 H 12.5063 3.42467 -5.50109 0
M  V30 64 N 5.9124 1.20967 1.01018 0
M  V30 65 C 7.1614 1.01796 1.74128 0
M  V30 66 C 7.4744 -0.449691 1.90361 0
M  V30 67 O 8.6804 -0.76068 2.60626 0
M  V30 68 C 7.1364 1.7727 3.13215 0
M  V30 69 C 6.7444 3.28171 3.04972 0
M  V30 70 C 8.4884 1.66489 3.90489 0
M  V30 71 C 6.3954 3.96156 4.39107 0
M  V30 72 H 5.3254 0.377276 0.652824 0
M  V30 73 H 7.9764 1.44651 1.12909 0
M  V30 74 H 6.3584 1.27205 3.75013 0
M  V30 75 H 7.5324 3.85499 2.52443 0
M  V30 76 H 5.8474 3.39437 2.41188 0
M  V30 77 H 8.4444 2.14617 4.89738 0
M  V30 78 H 8.7874 0.6222 4.11624 0
M  V30 79 H 9.3204 2.14003 3.35332 0
M  V30 80 H 6.0594 5.00604 4.23174 0
M  V30 81 H 5.5794 3.43617 4.91617 0
M  V30 82 H 7.2584 4.00774 5.07926 0
M  V30 83 N 7.3905 -1.2043 1.01659 0
M  V30 84 C 8.6385 -1.89423 0.704522 0
M  V30 85 C 8.9595 -1.79231 -0.768197 0
M  V30 86 O 8.2295 -1.1947 -1.55254 0
M  V30 87 H 6.8095 -0.701178 0.257602 0
M  V30 88 H 9.4715 -1.4626 1.28818 0
M  V30 89 H 8.5675 -2.96052 0.987916 0
M  V30 90 N 8.8686 -0.792821 -1.36206 0
M  V30 91 C 10.2796 -0.429513 -1.81692 0
M  V30 92 C 10.6306 1.04695 -1.65932 0
M  V30 93 O 9.7556 1.81256 -1.18218 0
M  V30 94 C 10.3506 -0.772831 -3.29868 0
M  V30 95 C 8.9096 -0.462307 -3.7355 0
M  V30 96 C 8.0566 -1.00569 -2.5842 0
M  V30 97 H 11.0076 -0.985672 -1.24379 0
M  V30 98 H 11.0286 -0.0651928 -3.80444 0
M  V30 99 H 10.5406 -1.84747 -3.41307 0
M  V30 100 H 8.6416 0.604158 -3.67669 0
M  V30 101 H 8.7546 -0.985299 -4.68859 0
M  V30 102 H 7.1186 -0.428734 -2.51066 0
M  V30 103 H 7.9016 -2.08616 -2.72643 0
M  V30 104 N 10.3467 1.47872 -0.545128 0
M  V30 105 C 11.3097 2.28337 0.198717 0
M  V30 106 C 12.3097 1.36255 0.853888 0
M  V30 107 O 13.4997 1.59003 0.711606 0
M  V30 108 C 10.6317 3.15585 1.28915 0
M  V30 109 H 11.8247 2.95567 -0.507941 0
M  V30 110 H 9.3777 1.53362 -0.301616 0
M  V30 111 H 10.1127 2.53019 2.02859 0
M  V30 112 H 9.8977 3.83337 0.824309 0
M  V30 113 H 11.3877 3.76243 1.81194 0
M  V30 114 N 11.8248 0.280983 1.55075 0
M  V30 115 C 13.0728 -0.333455 1.9933 0
M  V30 116 C 13.3938 -1.55937 1.17085 0
M  V30 117 O 12.6638 -1.94143 0.261805 0
M  V30 118 H 11.2438 -0.126197 0.736263 0
M  V30 119 H 13.9058 0.387678 1.91005 0
M  V30 120 H 13.0018 -0.619292 3.05894 0
M  V30 121 N 13.3029 -1.57598 0.00835791 0
M  V30 122 C 14.2129 -2.12385 -0.996487 0
M  V30 123 C 15.2289 -1.07108 -1.37127 0
M  V30 124 O 16.4049 -1.39055 -1.4569 0
M  V30 125 C 13.4699 -2.62314 -2.26699 0
M  V30 126 C 12.5309 -3.82225 -1.95456 0
M  V30 127 C 11.7639 -4.29763 -3.16449 0
M  V30 128 O 11.9869 -3.76584 -4.28416 0
M  V30 129 O 10.9209 -5.21832 -2.99958 0
M  V30 130 H 14.7469 -2.98479 -0.560725 0
M  V30 131 H 12.3319 -1.47903 -0.210987 0
M  V30 132 H 14.2139 -2.94589 -3.01322 0
M  V30 133 H 12.8889 -1.79313 -2.69497 0
M  V30 134 H 11.7959 -3.54909 -1.18282 0
M  V30 135 H 13.1289 -4.66324 -1.57489 0
M  V30 136 N 14.781 0.264519 -1.55364 0
M  V30 137 C 16.027 0.99646 -1.76631 0
M  V30 138 C 16.36 1.85632 -0.570478 0
M  V30 139 O 15.635 1.89647 0.43175 0
M  V30 140 C 15.918 1.87187 -3.07625 0
M  V30 141 C 15.771 1.04138 -4.37579 0
M  V30 142 C 17.09 2.85749 -3.34717 0
M  V30 143 H 14.209 0.360841 -0.642622 0
M  V30 144 H 16.851 0.268218 -1.88097 0
M  V30 145 H 15.001 2.49279 -2.9798 0
M  V30 146 H 16.673 0.440517 -4.59192 0
M  V30 147 H 14.916 0.345115 -4.32425 0
M  V30 148 H 15.587 1.68729 -5.2558 0
M  V30 149 H 18.063 2.33793 -3.4421 0
M  V30 150 H 16.939 3.44136 -4.27623 0
M  V30 151 H 17.2 3.61311 -2.54768 0
M  V30 152 N 16.2591 1.48442 0.529413 0
M  V30 153 C 17.6701 1.5002 1.11134 0
M  V30 154 C 18.0211 0.27031 1.94329 0
M  V30 155 O 17.1461 -0.622507 2.07253 0
M  V30 156 C 17.7411 2.71834 2.02217 0
M  V30 157 C 16.3001 2.76283 2.55627 0
M  V30 158 C 15.4471 2.43542 1.326 0
M  V30 159 H 18.3981 1.5555 0.314641 0
M  V30 160 H 18.4191 2.50384 2.8651 0
M  V30 161 H 17.9311 3.61331 1.41639 0
M  V30 162 H 16.0321 1.90995 3.19924 0
M  V30 163 H 16.1451 3.77725 2.94721 0
M  V30 164 H 14.5091 1.94709 1.64196 0
M  V30 165 H 15.2921 3.3528 0.737734 0
M  V30 166 N 17.7372 -0.778329 1.37039 0
M  V30 167 C 18.6692 -1.90034 1.2814 0
M  V30 168 C 19.6822 -1.61585 0.198558 0
M  V30 169 O 20.8712 -1.72625 0.454175 0
M  V30 170 C 17.9712 -3.25108 0.956968 0
M  V30 171 C 17.1442 -3.81253 2.14394 0
M  V30 172 C 16.2032 -4.94789 1.79082 0
M  V30 173 O 15.2292 -5.10721 2.51301 0
M  V30 174 N 16.4312 -5.75878 0.731043 0
M  V30 175 H 19.1962 -1.98186 2.24816 0
M  V30 176 H 16.7572 -0.957129 1.30578 0
M  V30 177 H 18.7492 -3.9857 0.701701 0
M  V30 178 H 17.3192 -3.125 0.0789812 0
M  V30 179 H 16.5392 -2.99647 2.56135 0
M  V30 180 H 17.8272 -4.15495 2.93668 0
M  V30 181 H 17.2252 -5.65547 0.131618 0
M  V30 182 H 15.7822 -6.49596 0.535622 0
M  V30 183 N 19.2153 -1.21501 -1.00376 0
M  V30 184 C 20.4613 -1.03452 -1.74429 0
M  V30 185 C 20.7943 0.430764 -1.89362 0
M  V30 186 O 20.0693 1.31962 -1.42886 0
M  V30 187 C 20.3523 -1.73375 -3.15615 0
M  V30 188 C 20.2053 -3.27431 -3.08397 0
M  V30 189 C 21.5243 -1.47732 -4.14564 0
M  V30 190 H 18.6433 -0.377226 -0.633143 0
M  V30 191 H 21.2853 -1.49693 -1.17013 0
M  V30 192 H 19.4353 -1.34064 -3.64636 0
M  V30 193 H 21.1073 -3.76119 -2.67081 0
M  V30 194 H 19.3503 -3.5767 -2.45468 0
M  V30 195 H 20.0213 -3.71524 -4.08258 0
M  V30 196 H 22.4973 -1.8186 -3.74254 0
M  V30 197 H 21.3733 -1.99169 -5.11491 0
M  V30 198 H 21.6343 -0.407589 -4.40217 0
M  V30 199 N 20.6934 1.19889 -1.02296 0
M  V30 200 C 22.1044 1.71124 -0.746568 0
M  V30 201 C 22.4554 1.81939 0.734335 0
M  V30 202 O 21.5804 1.48639 1.57275 0
M  V30 203 C 22.1754 3.10804 -1.34857 0
M  V30 204 C 20.7344 3.59323 -1.1209 0
M  V30 205 C 19.8814 2.3635 -1.45031 0
M  V30 206 H 22.8324 1.04813 -1.19163 0
M  V30 207 H 22.8534 3.73186 -0.742437 0
M  V30 208 H 22.3654 3.029 -2.42638 0
M  V30 209 H 20.4664 3.7255 -0.0610337 0
M  V30 210 H 20.5794 4.4378 -1.80544 0
M  V30 211 H 18.9434 2.39399 -0.869487 0
M  V30 212 H 19.7264 2.31081 -2.53883 0
M  V30 213 N 22.1715 0.800033 1.35784 0
M  V30 214 C 23.4485 0.30088 1.93272 0
M  V30 215 C 23.8285 -1.20857 1.73081 0
M  V30 216 O 23.1765 -2.00502 1.09596 0
M  V30 217 C 23.3865 0.70511 3.41803 0
M  V30 218 C 24.7345 0.690871 4.18942 0
M  V30 219 O 25.7585 0.646244 3.50289 0
M  V30 220 O 24.6175 0.74332 5.41421 0
M  V30 221 H 21.7115 0.0771605 0.823393 0
M  V30 222 H 24.2575 0.88329 1.449 0
M  V30 223 H 23.0295 1.74571 3.50201 0
M  V30 224 H 22.6525 0.0971541 3.97481 0
M  V30 225 N 23.6496 -1.47581 0.552962 0
M  V30 226 C 24.5966 -2.29957 -0.197108 0
M  V30 227 C 25.5666 -1.38799 -0.912359 0
M  V30 228 O 26.7516 -1.67761 -0.908888 0
M  V30 229 C 23.8916 -3.22672 -1.22379 0
M  V30 230 C 23.0046 -4.28919 -0.515038 0
M  V30 231 C 22.1396 -5.0879 -1.52664 0
M  V30 232 C 21.1786 -6.06815 -0.802631 0
M  V30 233 N 20.3156 -6.7966 -1.76086 0
M  V30 234 H 25.1556 -2.93578 0.511486 0
M  V30 235 H 22.6926 -1.4471 0.264067 0
M  V30 236 H 24.6506 -3.74845 -1.83159 0
M  V30 237 H 23.2806 -2.60925 -1.90047 0
M  V30 238 H 22.3326 -3.79835 0.207192 0
M  V30 239 H 23.6446 -4.98773 0.0523425 0
M  V30 240 H 22.7986 -5.65091 -2.20809 0
M  V30 241 H 21.5376 -4.38828 -2.12794 0
M  V30 242 H 20.5426 -5.49695 -0.107238 0
M  V30 243 H 21.7676 -6.78784 -0.207135 0
M  V30 244 H 19.7136 -6.12432 -2.35081 0
M  V30 245 H 19.6306 -7.45669 -1.24552 0
M  V30 246 H 20.8986 -7.40538 -2.43359 0
M  V30 247 N 25.1277 -0.289203 -1.54924 0
M  V30 248 C 26.0377 0.601863 -2.26748 0
M  V30 249 C 27.0537 1.15834 -1.2984 0
M  V30 250 O 28.2297 1.18564 -1.62802 0
M  V30 251 C 25.2947 1.76299 -2.98529 0
M  V30 252 C 24.3557 1.24178 -4.10948 0
M  V30 253 C 23.5887 2.34757 -4.79296 0
M  V30 254 O 23.8117 3.54411 -4.46933 0
M  V30 255 O 22.7457 2.02115 -5.66951 0
M  V30 256 H 26.5717 0.0195879 -3.03694 0
M  V30 257 H 24.1567 -0.0560868 -1.49295 0
M  V30 258 H 26.0387 2.43973 -3.43592 0
M  V30 259 H 24.7137 2.33209 -2.24488 0
M  V30 260 H 23.6207 0.531104 -3.70311 0
M  V30 261 H 24.9537 0.718252 -4.86931 0
M  V30 262 N 26.6058 1.57591 -0.0167156 0
M  V30 263 C 27.8338 1.95575 0.675128 0
M  V30 264 C 28.2488 0.892542 1.6637 0
M  V30 265 O 27.6058 -0.126912 1.82058 0
M  V30 266 C 27.6568 3.33608 1.39239 0
M  V30 267 O 27.3778 4.3585 0.443444 0
M  V30 268 C 28.8788 3.86151 2.17721 0
M  V30 269 H 26.0988 0.644423 0.186978 0
M  V30 270 H 28.6428 2.0437 -0.0728 0
M  V30 271 H 26.7978 3.2607 2.09182 0
M  V30 272 H 27.2118 5.158 0.951358 0
M  V30 273 H 28.6858 4.85114 2.63379 0
M  V30 274 H 29.1628 3.19738 3.01105 0
M  V30 275 H 29.7688 3.96918 1.52761 0
M  V30 276 N 28.0839 -0.256276 1.55502 0
M  V30 277 C 29.0309 -1.31714 1.89526 0
M  V30 278 C 30.0009 -1.4828 0.748479 0
M  V30 279 O 31.1859 -1.62416 1.00128 0
M  V30 280 C 28.3259 -2.66933 2.18725 0
M  V30 281 C 27.4389 -2.58452 3.4616 0
M  V30 282 C 26.5739 -3.85961 3.64976 0
M  V30 283 C 25.6129 -3.72059 4.86044 0
M  V30 284 N 24.7499 -4.9144 5.01429 0
M  V30 285 H 29.5899 -1.01998 2.80001 0
M  V30 286 H 27.1269 -0.492413 1.38613 0
M  V30 287 H 29.0849 -3.4563 2.33657 0
M  V30 288 H 27.7149 -2.94816 1.31466 0
M  V30 289 H 26.7669 -1.71374 3.3961 0
M  V30 290 H 28.0789 -2.44085 4.34999 0
M  V30 291 H 27.2329 -4.73101 3.79816 0
M  V30 292 H 25.9719 -4.03215 2.74353 0
M  V30 293 H 24.9769 -2.83302 4.7119 0
M  V30 294 H 26.2019 -3.56309 5.78118 0
M  V30 295 H 24.1479 -5.09072 4.13741 0
M  V30 296 H 24.0649 -4.79668 5.84341 0
M  V30 297 H 25.3329 -5.80104 5.20672 0
M  V30 298 N 29.562 -1.4872 -0.521534 0
M  V30 299 C 30.525 -1.63379 -1.60748 0
M  V30 300 C 31.525 -0.50661 -1.52611 0
M  V30 301 O 32.715 -0.772601 -1.5613 0
M  V30 302 C 29.847 -1.61192 -3.00383 0
M  V30 303 H 31.04 -2.60217 -1.49087 0
M  V30 304 H 28.593 -1.37444 -0.744235 0
M  V30 305 H 29.328 -0.65863 -3.17541 0
M  V30 306 H 29.113 -2.43032 -3.07698 0
M  V30 307 H 30.603 -1.7466 -3.7932 0
M  V30 308 N 31.0401 0.771051 -1.3745 0
M  V30 309 C 32.2681 1.56015 -1.35893 0
M  V30 310 C 32.6831 1.88718 0.0555523 0
M  V30 311 O 32.0401 1.51502 1.01752 0
M  V30 312 C 32.0911 2.87001 -2.19801 0
M  V30 313 O 31.8121 2.557 -3.55738 0
M  V30 314 C 33.3131 3.81228 -2.26231 0
M  V30 315 H 30.5331 0.483317 -0.465453 0
M  V30 316 H 33.0771 0.955611 -1.80799 0
M  V30 317 H 31.2321 3.43877 -1.78402 0
M  V30 318 H 31.6461 3.39584 -3.99729 0
M  V30 319 H 33.1201 4.70139 -2.89263 0
M  V30 320 H 33.5971 4.20409 -1.27093 0
M  V30 321 H 34.2031 3.30281 -2.67945 0
M  V30 322 N 32.5182 1.22032 0.997298 0
M  V30 323 C 33.4512 0.929735 2.08401 0
M  V30 324 C 34.4292 -0.125681 1.62114 0
M  V30 325 O 35.6132 0.00495409 1.88499 0
M  V30 326 C 32.7402 0.397488 3.3636 0
M  V30 327 C 31.7862 1.4369 4.01566 0
M  V30 328 S 32.6192 3.00874 4.42984 0
M  V30 329 C 33.7752 2.49276 5.74119 0
M  V30 330 H 34.0082 1.84998 2.32729 0
M  V30 331 H 31.5412 1.0509 1.13117 0
M  V30 332 H 33.4992 0.0969846 4.10385 0
M  V30 333 H 32.1602 -0.501571 3.10069 0
M  V30 334 H 31.3532 1.01427 4.93689 0
M  V30 335 H 30.9552 1.68588 3.33847 0
M  V30 336 H 33.2472 1.90242 6.50242 0
M  V30 337 H 34.1902 3.39872 6.21203 0
M  V30 338 H 34.5982 1.90714 5.31308 0
M  V30 339 N 33.9963 -1.19345 1.0293 0
M  V30 340 C 35.2443 -1.88665 0.724574 0
M  V30 341 C 35.5653 -1.80036 -0.749144 0
M  V30 342 O 34.8353 -1.2111 -1.53978 0
M  V30 343 H 33.4153 -0.698406 0.265025 0
M  V30 344 H 36.0773 -1.44885 1.30362 0
M  V30 345 H 35.1733 -2.94987 1.01926 0
M  V30 346 N 35.4744 -0.807222 -1.35358 0
M  V30 347 C 36.7024 -0.400377 -2.02989 0
M  V30 348 C 37.1174 0.988859 -1.60832 0
M  V30 349 O 36.4744 1.63729 -0.806175 0
M  V30 350 C 36.5254 -0.474867 -3.58368 0
M  V30 351 O 36.2464 -1.80933 -3.98992 0
M  V30 352 C 37.7474 -0.0609112 -4.43258 0
M  V30 353 H 34.9674 -0.162587 -0.651004 0
M  V30 354 H 37.5114 -1.09102 -1.72965 0
M  V30 355 H 35.6664 0.167534 -3.87038 0
M  V30 356 H 36.0804 -1.77256 -4.9364 0
M  V30 357 H 37.5544 -0.164145 -5.51756 0
M  V30 358 H 38.0314 0.993831 -4.27808 0
M  V30 359 H 38.6374 -0.676492 -4.19885 0
M  V30 360 N 36.9525 1.47285 -0.560781 0
M  V30 361 C 37.8625 2.33846 0.187954 0
M  V30 362 C 38.8785 1.48412 0.908293 0
M  V30 363 O 40.0545 1.81332 0.876388 0
M  V30 364 C 37.1195 3.25178 1.2025 0
M  V30 365 C 36.1805 4.26504 0.489208 0
M  V30 366 C 35.4135 5.13472 1.45542 0
M  V30 367 O 35.6365 5.02959 2.6905 0
M  V30 368 O 34.5705 5.93902 0.977963 0
M  V30 369 H 38.3965 2.99177 -0.522177 0
M  V30 370 H 35.9815 1.45903 -0.321364 0
M  V30 371 H 37.8635 3.81584 1.78805 0
M  V30 372 H 36.5385 2.6247 1.89449 0
M  V30 373 H 35.4455 3.73847 -0.137627 0
M  V30 374 H 36.7785 4.91935 -0.161399 0
M  V30 375 N 38.4306 0.297415 1.54768 0
M  V30 376 C 39.3786 -0.596051 2.24833 0
M  V30 377 C 40.3726 -1.13992 1.25308 0
M  V30 378 O 41.5786 -1.09098 1.4317 0
M  V30 379 H 37.9536 -0.210814 0.721846 0
M  V30 380 H 39.9246 0.0174667 2.98395 0
M  V30 381 C 38.6736 -1.75818 2.99972 0
M  V30 382 H 37.9966 -1.3489 3.76357 0
M  V30 383 H 39.4366 -2.35949 3.52284 0
M  V30 384 C 37.8956 -2.66014 2.06732 0
M  V30 385 O 38.4256 -3.67009 1.63302 0
M  V30 386 N 36.6316 -2.33669 1.72763 0
M  V30 387 H 36.1786 -1.51586 2.08277 0
M  V30 388 H 36.1366 -2.94285 1.10652 0
M  V30 389 N 39.9087 -1.5758 0.0250728 0
M  V30 390 C 41.1367 -1.9593 -0.664747 0
M  V30 391 C 41.5517 -0.901352 -1.65895 0
M  V30 392 O 40.9087 0.117255 -1.82123 0
M  V30 393 C 40.9597 -3.34342 -1.37468 0
M  V30 394 O 40.6807 -4.36079 -0.420324 0
M  V30 395 C 42.1817 -3.873 -2.1567 0
M  V30 396 H 39.4017 -0.645405 -0.183557 0
M  V30 397 H 41.9457 -2.04329 0.0836372 0
M  V30 398 H 40.1007 -3.27175 -2.0745 0
M  V30 399 H 40.5147 -5.16297 -0.923991 0
M  V30 400 H 41.9887 -4.86504 -2.60803 0
M  V30 401 H 42.4657 -3.21331 -2.99405 0
M  V30 402 H 43.0717 -3.97723 -1.50654 0
M  V30 403 N 41.3868 0.248026 -1.55636 0
M  V30 404 C 42.7978 0.817177 -1.67866 0
M  V30 405 C 43.1488 1.86069 -0.622322 0
M  V30 406 O 42.2738 2.15157 0.231618 0
M  V30 407 C 42.8688 1.489 -3.04326 0
M  V30 408 C 41.4278 2.00587 -3.185 0
M  V30 409 C 40.5748 0.856573 -2.63739 0
M  V30 410 H 43.5258 0.0238579 -1.58682 0
M  V30 411 H 43.5468 2.35698 -2.98708 0
M  V30 412 H 43.0588 0.729279 -3.81186 0
M  V30 413 H 41.1598 2.79443 -2.4646 0
M  V30 414 H 41.2728 2.20402 -4.25393 0
M  V30 415 H 39.6368 1.25678 -2.21534 0
M  V30 416 H 40.4198 0.109953 -3.43124 0
M  V30 417 N 42.8649 1.48995 0.513639 0
M  V30 418 C 44.1129 1.57531 1.26604 0
M  V30 419 C 44.4339 0.258236 1.93283 0
M  V30 420 O 43.7039 -0.721502 1.8213 0
M  V30 421 H 42.2839 0.580387 0.470276 0
M  V30 422 H 44.9459 1.85552 0.596373 0
M  V30 423 H 44.0419 2.36486 2.03669 0
M  V30 424 N 44.343 -0.763751 1.37857 0
M  V30 425 C 45.591 -1.51957 1.33243 0
M  V30 426 C 45.912 -1.94835 -0.0801709 0
M  V30 427 O 45.182 -1.66894 -1.02582 0
M  V30 428 H 43.762 -0.563626 0.49024 0
M  V30 429 H 46.424 -0.908504 1.7243 0
M  V30 430 H 45.52 -2.41523 1.97669 0
M  V30 431 N 45.8211 -1.22559 -0.990812 0
M  V30 432 C 46.7681 -0.997519 -2.0813 0
M  V30 433 C 47.7381 0.0814702 -1.659 0
M  V30 434 O 48.9231 -0.0685424 -1.90677 0
M  V30 435 C 46.0631 -0.583615 -3.40129 0
M  V30 436 C 45.1761 -1.7336 -3.9569 0
M  V30 437 C 44.3111 -1.26748 -5.15857 0
M  V30 438 C 43.3501 -2.38888 -5.63559 0
M  V30 439 N 42.4871 -1.93308 -6.74964 0
M  V30 440 H 47.3271 -1.93099 -2.26973 0
M  V30 441 H 44.8641 -0.962114 -1.11273 0
M  V30 442 H 46.8221 -0.324801 -4.15934 0
M  V30 443 H 45.4521 0.312845 -3.2128 0
M  V30 444 H 44.5041 -2.10669 -3.16738 0
M  V30 445 H 45.8161 -2.57704 -4.27071 0
M  V30 446 H 44.9701 -0.966173 -5.98957 0
M  V30 447 H 43.7091 -0.394272 -4.86104 0
M  V30 448 H 42.7141 -2.69805 -4.79046 0
M  V30 449 H 43.9391 -3.26728 -5.95336 0
M  V30 450 H 41.8851 -1.08352 -6.4699 0
M  V30 451 H 41.8021 -2.71217 -7.05675 0
M  V30 452 H 43.0701 -1.66252 -7.61564 0
M  V30 453 N 47.2992 1.18797 -1.03562 0
M  V30 454 C 48.2622 2.20464 -0.626769 0
M  V30 455 C 49.2622 1.57721 0.313173 0
M  V30 456 O 50.4522 1.73917 0.0992615 0
M  V30 457 C 47.5842 3.40802 0.0818498 0
M  V30 458 H 48.7772 2.58149 -1.5264 0
M  V30 459 H 46.3302 1.32593 -0.827578 0
M  V30 460 H 47.0652 3.08642 0.995518 0
M  V30 461 H 46.8502 3.8758 -0.593652 0
M  V30 462 H 48.3402 4.16092 0.354584 0
M  V30 463 N 48.7773 0.814389 1.34928 0
M  V30 464 C 50.0023 0.410097 2.03305 0
M  V30 465 C 50.4273 -0.973464 1.60951 0
M  V30 466 O 49.7853 -1.63185 0.789964 0
M  V30 467 C 49.8333 0.51049 3.56968 0
M  V30 468 O 48.9373 -0.473035 4.09678 0
M  V30 469 H 48.2783 0.170088 0.641846 0
M  V30 470 H 50.8083 1.10244 1.72358 0
M  V30 471 H 50.8183 0.383135 4.06197 0
M  V30 472 H 49.4933 1.51963 3.87144 0
M  V30 473 H 48.0703 -0.305272 3.71648 0
M  V30 474 N 50.2554 -1.46986 0.568584 0
M  V30 475 C 51.6664 -1.86188 0.138219 0
M  V30 476 C 52.0174 -1.47388 -1.29504 0
M  V30 477 O 51.1424 -0.88219 -1.97602 0
M  V30 478 C 51.7374 -3.3792 0.244065 0
M  V30 479 C 50.2964 -3.76171 -0.131335 0
M  V30 480 C 49.4434 -2.71027 0.586465 0
M  V30 481 H 52.3944 -1.38342 0.777645 0
M  V30 482 H 52.4154 -3.76729 -0.534351 0
M  V30 483 H 51.9274 -3.66128 1.28731 0
M  V30 484 H 50.0284 -3.5358 -1.17526 0
M  V30 485 H 50.1414 -4.78523 0.235146 0
M  V30 486 H 48.5054 -2.54684 0.0282722 0
M  V30 487 H 49.2884 -3.02077 1.63109 0
M  V30 488 N 51.7335 -0.305618 -1.54608 0
M  V30 489 C 53.0105 0.355652 -1.92339 0
M  V30 490 C 53.3905 1.71324 -1.23335 0
M  V30 491 O 52.7385 2.25473 -0.370702 0
M  V30 492 C 52.9485 0.46572 -3.45879 0
M  V30 493 C 54.2965 0.734426 -4.182 0
M  V30 494 O 55.3205 0.54935 -3.51938 0
M  V30 495 O 54.1795 1.09024 -5.35515 0
M  V30 496 H 51.2735 0.199666 -0.802535 0
M  V30 497 H 53.8195 -0.354017 -1.65966 0
M  V30 498 H 52.5915 -0.488461 -3.88239 0
M  V30 499 H 52.2145 1.22367 -3.78301 0
M  V30 500 N 53.2116 1.57565 -0.0334293 0
M  V30 501 C 54.6226 1.79746 0.504798 0
M  V30 502 C 54.9736 0.944091 1.71992 0
M  V30 503 O 54.0986 0.155694 2.15839 0
M  V30 504 C 54.6936 3.25997 0.922567 0
M  V30 505 C 53.2526 3.49159 1.40588 0
M  V30 506 C 52.3996 2.74785 0.372633 0
M  V30 507 H 55.3506 1.56565 -0.259436 0
M  V30 508 H 55.3716 3.35945 1.78666 0
M  V30 509 H 54.8836 3.88081 0.0379825 0
M  V30 510 H 52.9846 2.92332 2.31025 0
M  V30 511 H 53.0976 4.57873 1.41028 0
M  V30 512 H 51.4616 2.40391 0.841672 0
M  V30 513 H 52.2446 3.39587 -0.503559 0
M  V30 514 N 54.6897 -0.239769 1.55765 0
M  V30 515 C 55.6217 -1.32001 1.87372 0
M  V30 516 C 56.6347 -1.43944 0.760522 0
M  V30 517 O 57.8237 -1.45167 1.0387 0
M  V30 518 C 54.9237 -2.69779 2.05115 0
M  V30 519 C 54.0967 -2.80014 3.36022 0
M  V30 520 C 53.1557 -3.98684 3.4342 0
M  V30 521 O 52.1817 -3.87877 4.16582 0
M  V30 522 N 53.3837 -5.12176 2.73232 0
M  V30 523 H 56.1487 -1.0522 2.80622 0
M  V30 524 H 53.7097 -0.429857 1.56089 0
M  V30 525 H 55.7017 -3.47517 2.07399 0
M  V30 526 H 54.2717 -2.89237 1.18577 0
M  V30 527 H 53.4917 -1.88896 3.45994 0
M  V30 528 H 54.7797 -2.83808 4.22292 0
M  V30 529 H 54.1777 -5.2385 2.13536 0
M  V30 530 H 52.7347 -5.88022 2.81199 0
M  V30 531 N 56.1678 -1.49265 -0.50573 0
M  V30 532 C 57.4448 -1.49012 -1.26707 0
M  V30 533 C 57.8248 -0.215205 -2.1 0
M  V30 534 O 57.1728 0.802547 -2.13943 0
M  V30 535 C 57.3828 -2.7663 -2.12783 0
M  V30 536 C 58.7308 -3.25932 -2.72127 0
M  V30 537 O 59.7548 -2.77715 -2.23054 0
M  V30 538 O 58.6138 -4.09897 -3.61451 0
M  V30 539 H 55.7078 -0.596197 -0.57313 0
M  V30 540 H 58.2538 -1.61524 -0.52039 0
M  V30 541 H 57.0258 -3.60916 -1.5118 0
M  V30 542 H 56.6488 -2.66956 -2.94653 0
M  V30 543 N 57.6459 0.756429 -1.3826 0
M  V30 544 C 58.8919 1.51772 -1.34511 0
M  V30 545 C 59.2249 1.94089 0.0656691 0
M  V30 546 O 58.4999 1.65221 1.02626 0
M  V30 547 C 58.7829 2.77226 -2.29821 0
M  V30 548 C 58.6359 2.41065 -3.79747 0
M  V30 549 C 59.9549 3.79236 -2.23312 0
M  V30 550 H 57.0739 0.550578 -0.489931 0
M  V30 551 H 59.7159 0.866607 -1.69086 0
M  V30 552 H 57.8659 3.32784 -2.00467 0
M  V30 553 H 59.5379 1.91303 -4.19763 0
M  V30 554 H 57.7809 1.7356 -3.97567 0
M  V30 555 H 58.4519 3.3081 -4.41892 0
M  V30 556 H 60.9279 3.3321 -2.49219 0
M  V30 557 H 59.8039 4.64714 -2.92116 0
M  V30 558 H 60.0649 4.24615 -1.23102 0
M  V30 559 N 59.124 1.23083 0.984299 0
M  V30 560 C 60.54 0.992637 1.24975 0
M  V30 561 C 60.74 -0.308618 1.99123 0
M  V30 562 O 59.796 -1.02905 2.30579 0
M  V30 563 C 61.109 2.19698 2.05312 0
M  V30 564 C 62.657 2.24147 2.18465 0
M  V30 565 C 63.132 3.44157 3.02192 0
M  V30 566 N 64.623 3.44372 3.09777 0
M  V30 567 C 65.358 4.33886 3.74874 0
M  V30 568 N 64.854 5.3363 4.41827 0
M  V30 569 N 66.647 4.21639 3.71721 0
M  V30 570 H 58.798 2.06731 0.487453 0
M  V30 571 H 61.061 0.906339 0.277944 0
M  V30 572 H 60.767 3.1411 1.58201 0
M  V30 573 H 60.641 2.20465 3.06064 0
M  V30 574 H 63.028 1.30277 2.64786 0
M  V30 575 H 63.109 2.27415 1.17115 0
M  V30 576 H 62.753 4.38332 2.56568 0
M  V30 577 H 62.683 3.3813 4.03702 0
M  V30 578 H 65.174 2.72201 2.62135 0
M  V30 579 H 65.487 5.98196 4.89266 0
M  V30 580 H 63.832 5.37534 4.40548 0
M  V30 581 H 67.023 3.42962 3.18582 0
M  V30 582 H 67.196 4.91604 4.22173 0
M  V30 583 N 60.6021 -1.18246 1.0419 0
M  V30 584 C 62.0131 -1.69914 0.773698 0
M  V30 585 C 62.3641 -1.83085 -0.705297 0
M  V30 586 O 61.4891 -1.51123 -1.5489 0
M  V30 587 C 62.0841 -3.08619 1.39784 0
M  V30 588 C 60.6431 -3.57494 1.17792 0
M  V30 589 C 59.7901 -2.34013 1.48773 0
M  V30 590 H 62.7411 -1.02904 1.20816 0
M  V30 591 H 62.7621 -3.71958 0.801714 0
M  V30 592 H 62.2741 -2.99001 2.47426 0
M  V30 593 H 60.3751 -3.72406 0.120295 0
M  V30 594 H 60.4881 -4.40852 1.87581 0
M  V30 595 H 58.8521 -2.37986 0.907463 0
M  V30 596 H 59.6351 -2.27013 2.57527 0
M  V30 597 N 62.0802 -0.821533 -1.34494 0
M  V30 598 C 63.3052 -0.420873 -2.03085 0
M  V30 599 C 63.7302 0.964915 -1.61465 0
M  V30 600 O 63.0882 1.62763 -0.798607 0
M  V30 601 C 63.1362 -0.529414 -3.56693 0
M  V30 602 O 62.2402 0.451302 -4.09923 0
M  V30 603 H 61.5812 -0.173489 -0.640935 0
M  V30 604 H 64.1112 -1.11157 -1.71771 0
M  V30 605 H 64.1212 -0.404671 -4.05988 0
M  V30 606 H 62.7962 -1.54014 -3.86332 0
M  V30 607 H 61.3732 0.285558 -3.71805 0
M  V30 608 N 63.5583 1.46682 -0.576371 0
M  V30 609 C 64.8043 2.02712 -0.0596221 0
M  V30 610 C 65.1373 1.44765 1.29448 0
M  V30 611 O 64.4123 0.610355 1.84675 0
M  V30 612 C 64.6953 3.60098 0.0129503 0
M  V30 613 C 64.5483 4.28441 -1.3696 0
M  V30 614 C 65.8673 4.34224 0.71678 0
M  V30 615 H 62.9863 0.736637 -0.0231407 0
M  V30 616 H 65.6283 1.74898 -0.742351 0
M  V30 617 H 63.7783 3.83926 0.594378 0
M  V30 618 H 65.4503 4.15896 -1.9957 0
M  V30 619 H 63.6933 3.8805 -1.93907 0
M  V30 620 H 64.3643 5.3716 -1.27135 0
M  V30 621 H 66.8403 4.15503 0.222908 0
M  V30 622 H 65.7163 5.43936 0.73657 0
M  V30 623 H 65.9773 4.04823 1.77682 0
M  V30 624 N 65.0364 0.313813 1.54444 0
M  V30 625 C 66.2834 -0.291675 2.00388 0
M  V30 626 C 66.6114 -1.52904 1.2021 0
M  V30 627 O 65.8664 -1.93833 0.269707 0
M  V30 628 C 66.1654 -0.680386 3.50864 0
M  V30 629 C 65.8314 0.456699 4.48581 0
M  V30 630 C 64.4934 0.768824 4.75018 0
M  V30 631 C 66.8454 1.22098 5.06697 0
M  V30 632 C 64.1734 1.84812 5.56831 0
M  V30 633 C 66.5254 2.29029 5.89685 0
M  V30 634 C 65.1894 2.60834 6.14428 0
M  V30 635 H 64.4594 -0.106732 0.733273 0
M  V30 636 H 67.1064 0.43557 1.86481 0
M  V30 637 H 65.4114 -1.48791 3.62448 0
M  V30 638 H 67.1084 -1.16026 3.83847 0
M  V30 639 H 63.6984 0.203337 4.28117 0
M  V30 640 H 67.8824 0.993096 4.86263 0
M  V30 641 H 63.1384 2.09912 5.74236 0
M  V30 642 H 67.3124 2.887 6.33739 0
M  V30 643 H 64.9394 3.44596 6.77612 0
M  V30 644 N 66.5145 -1.57545 0.0417849 0
M  V30 645 C 67.4645 -2.07483 -0.945247 0
M  V30 646 C 68.4485 -0.977983 -1.27767 0
M  V30 647 O 69.6405 -1.24142 -1.26166 0
M  V30 648 C 66.7695 -2.61576 -2.22335 0
M  V30 649 C 65.8555 -3.78213 -1.91874 0
M  V30 650 N 66.2465 -4.88344 -1.31733 0
M  V30 651 C 64.5445 -3.8694 -2.21796 0
M  V30 652 C 65.2455 -5.69462 -1.1869 0
M  V30 653 N 64.2215 -5.16771 -1.68666 0
M  V30 654 H 68.0235 -2.90029 -0.475441 0
M  V30 655 H 65.5375 -1.61581 -0.162911 0
M  V30 656 H 67.5345 -2.95651 -2.93932 0
M  V30 657 H 66.1945 -1.80465 -2.69931 0
M  V30 658 H 67.2055 -5.08335 -0.990729 0
M  V30 659 H 63.8825 -3.16757 -2.71977 0
M  V30 660 H 65.2725 -6.68023 -0.720793 0
M  V30 661 N 67.9926 0.231505 -1.5589 0
M  V30 662 C 68.9406 1.30649 -1.92441 0
M  V30 663 C 69.9346 1.49037 -0.805254 0
M  V30 664 O 71.1406 1.50329 -0.990007 0
M  V30 665 H 67.5156 0.437812 -0.611412 0
M  V30 666 H 69.4866 0.970973 -2.82161 0
M  V30 667 C 68.2356 2.65179 -2.24889 0
M  V30 668 H 67.5586 2.51835 -3.10514 0
M  V30 669 H 68.9986 3.39234 -2.54355 0
M  V30 670 C 67.4576 3.19439 -1.07054 0
M  V30 671 O 67.9876 4.00371 -0.326499 0
M  V30 672 N 66.1936 2.77675 -0.85703 0
M  V30 673 H 65.7406 2.11969 -1.46379 0
M  V30 674 H 65.6986 3.14321 -0.0703223 0
M  V30 675 N 69.4707 1.49531 0.497807 0
M  V30 676 C 70.7197 1.58426 1.24837 0
M  V30 677 C 71.0327 0.277643 1.93619 0
M  V30 678 O 72.2387 0.24517 2.70391 0
M  V30 679 C 70.6947 2.79538 2.26686 0
M  V30 680 C 70.3027 4.16971 1.63828 0
M  V30 681 C 72.0467 2.97764 3.0255 0
M  V30 682 C 69.9537 5.29301 2.63807 0
M  V30 683 H 68.8837 0.58989 0.469623 0
M  V30 684 H 71.5347 1.75923 0.521857 0
M  V30 685 H 69.9167 2.55542 3.02514 0
M  V30 686 H 71.0907 4.51116 0.939711 0
M  V30 687 H 69.4057 4.04129 1.00342 0
M  V30 688 H 72.0027 3.78856 3.77323 0
M  V30 689 H 72.3457 2.08448 3.60354 0
M  V30 690 H 72.8787 3.21815 2.33838 0
M  V30 691 H 69.6177 6.20687 2.10779 0
M  V30 692 H 69.1377 4.99606 3.31894 0
M  V30 693 H 70.8167 5.58768 3.2617 0
M  V30 694 N 70.9488 -0.749086 1.3866 0
M  V30 695 C 71.8958 -1.86291 1.36251 0
M  V30 696 C 72.8658 -1.64578 0.224347 0
M  V30 697 O 74.0508 -1.86181 0.417279 0
M  V30 698 C 71.1908 -3.23644 1.19786 0
M  V30 699 C 70.3038 -3.57158 2.43027 0
M  V30 700 C 69.4388 -4.83838 2.19258 0
M  V30 701 C 68.4778 -5.10152 3.38247 0
M  V30 702 N 67.6148 -6.28029 3.13884 0
M  V30 703 H 72.4548 -1.87685 2.3147 0
M  V30 704 H 69.9918 -0.917287 1.14997 0
M  V30 705 H 71.9498 -4.0291 1.08254 0
M  V30 706 H 70.5798 -3.21566 0.282031 0
M  V30 707 H 69.6318 -2.72701 2.65214 0
M  V30 708 H 70.9438 -3.7253 3.31697 0
M  V30 709 H 70.0978 -5.71057 2.04888 0
M  V30 710 H 68.8368 -4.70614 1.2796 0
M  V30 711 H 67.8418 -4.21401 3.53131 0
M  V30 712 H 69.0668 -5.25271 4.30427 0
M  V30 713 H 67.0128 -6.1612 2.25238 0
M  V30 714 H 66.9298 -6.43922 3.96106 0
M  V30 715 H 68.1978 -7.18124 3.03179 0
M  V30 716 N 72.4269 -1.23603 -0.977757 0
M  V30 717 C 73.3569 -1.04401 -2.0886 0
M  V30 718 C 74.3379 0.0399052 -1.70053 0
M  V30 719 O 75.5229 -0.125246 -1.93796 0
M  V30 720 C 72.6529 -0.637269 -3.41403 0
M  V30 721 C 71.6069 -1.66883 -3.94124 0
M  V30 722 C 70.9329 -1.11745 -5.22893 0
M  V30 723 C 72.2329 -3.06247 -4.23096 0
M  V30 724 H 73.9269 -1.97316 -2.25182 0
M  V30 725 H 71.4729 -0.950096 -1.08209 0
M  V30 726 H 73.4259 -0.48998 -4.18542 0
M  V30 727 H 72.1499 0.327557 -3.24953 0
M  V30 728 H 70.8089 -1.80416 -3.19133 0
M  V30 729 H 70.4569 -0.143527 -5.02795 0
M  V30 730 H 70.1569 -1.80672 -5.59134 0
M  V30 731 H 71.6809 -0.982067 -6.02651 0
M  V30 732 H 73.0949 -2.96001 -4.90975 0
M  V30 733 H 71.4919 -3.72436 -4.70544 0
M  V30 734 H 72.5619 -3.55041 -3.30263 0
M  V30 735 N 73.905 1.17692 -1.04816 0
M  V30 736 C 75.152 1.87859 -0.75599 0
M  V30 737 C 75.48 1.80812 0.716752 0
M  V30 738 O 74.735 1.20819 1.53952 0
M  V30 739 C 75.034 3.37462 -1.17703 0
M  V30 740 C 74.7 3.64713 -2.65133 0
M  V30 741 C 73.362 3.71859 -3.05408 0
M  V30 742 C 75.714 3.76492 -3.60421 0
M  V30 743 C 73.042 3.88271 -4.39843 0
M  V30 744 C 75.394 3.94421 -4.94585 0
M  V30 745 C 74.058 3.99806 -5.3452 0
M  V30 746 H 73.328 0.687425 -0.276636 0
M  V30 747 H 75.975 1.39255 -1.31455 0
M  V30 748 H 74.28 3.88097 -0.537395 0
M  V30 749 H 75.977 3.90109 -0.928218 0
M  V30 750 H 72.567 3.59772 -2.32942 0
M  V30 751 H 76.751 3.70295 -3.30447 0
M  V30 752 H 72.007 3.90687 -4.70291 0
M  V30 753 H 76.181 4.02477 -5.68318 0
M  V30 754 H 73.808 4.12276 -6.38696 0
M  V30 755 N 75.3831 0.828654 1.34056 0
M  V30 756 C 76.6291 0.42008 1.98402 0
M  V30 757 C 76.9621 -1.01564 1.65525 0
M  V30 758 O 76.2371 -1.70834 0.929831 0
M  V30 759 C 76.5201 0.62927 3.54559 0
M  V30 760 C 76.3731 2.11152 3.97159 0
M  V30 761 C 77.6921 0.0688756 4.40046 0
M  V30 762 H 74.8111 0.154104 0.720709 0
M  V30 763 H 77.4531 1.04228 1.5886 0
M  V30 764 H 75.6031 0.0996418 3.88372 0
M  V30 765 H 77.2751 2.70522 3.73651 0
M  V30 766 H 75.5181 2.59985 3.47261 0
M  V30 767 H 76.1891 2.20868 5.05887 0
M  V30 768 H 78.6651 0.521458 4.1282 0
M  V30 769 H 77.5411 0.245006 5.48353 0
M  V30 770 H 77.8021 -1.0266 4.30015 0
M  V30 771 N 76.8612 -1.46375 0.584142 0
M  V30 772 C 77.7912 -2.33103 -0.136037 0
M  V30 773 C 78.7722 -1.45431 -0.882255 0
M  V30 774 O 79.9572 -1.74246 -0.857434 0
M  V30 775 C 77.0872 -3.27731 -1.14933 0
M  V30 776 C 76.0412 -4.24855 -0.517862 0
M  V30 777 C 75.3672 -5.09001 -1.63773 0
M  V30 778 C 76.6672 -5.19439 0.545886 0
M  V30 779 H 78.3612 -2.93568 0.588086 0
M  V30 780 H 75.9072 -1.41166 0.284259 0
M  V30 781 H 77.8602 -3.87261 -1.66153 0
M  V30 782 H 76.5842 -2.65377 -1.90375 0
M  V30 783 H 75.2432 -3.6659 -0.0267361 0
M  V30 784 H 74.8912 -4.43031 -2.38185 0
M  V30 785 H 74.5912 -5.74777 -1.22085 0
M  V30 786 H 76.1152 -5.71396 -2.15266 0
M  V30 787 H 77.5292 -5.73177 0.118704 0
M  V30 788 H 75.9262 -5.93566 0.88317 0
M  V30 789 H 76.9962 -4.63285 1.43162 0
M  V30 790 N 78.3393 -0.321999 -1.54275 0
M  V30 791 C 79.5793 0.281657 -2.0245 0
M  V30 792 C 79.9433 1.49468 -1.20513 0
M  V30 793 O 81.1443 2.17109 -1.58484 0
M  V30 794 C 79.4153 0.609014 -3.52173 0
M  V30 795 S 80.9743 1.19255 -4.22284 0
M  V30 796 H 77.7923 0.0852825 -0.705867 0
M  V30 797 H 80.3943 -0.454758 -1.90137 0
M  V30 798 H 79.0983 -0.281982 -4.0943 0
M  V30 799 H 78.6293 1.37567 -3.68563 0
M  V30 800 H 80.6443 2.47944 -4.29812 0
M  V30 801 N 79.8174 1.5752 -0.0501392 0
M  V30 802 C 80.7674 2.07981 0.934231 0
M  V30 803 C 81.7514 0.984745 1.27246 0
M  V30 804 O 82.9434 1.24809 1.25506 0
M  V30 805 C 80.0724 2.62751 2.20945 0
M  V30 806 C 79.1584 3.79225 1.89865 0
M  V30 807 N 79.5494 4.89036 1.29142 0
M  V30 808 C 77.8474 3.88111 2.19741 0
M  V30 809 C 78.5484 5.70084 1.15669 0
M  V30 810 N 77.5244 5.17659 1.65923 0
M  V30 811 H 81.3264 2.90277 0.460053 0
M  V30 812 H 78.8404 1.61665 0.15434 0
M  V30 813 H 80.8374 2.97205 2.9236 0
M  V30 814 H 79.4974 1.81894 2.6897 0
M  V30 815 H 80.5084 5.08854 0.963756 0
M  V30 816 H 77.1854 3.18194 2.70293 0
M  V30 817 H 78.5754 6.68395 0.685356 0
M  V30 818 N 81.2955 -0.223234 1.56011 0
M  V30 819 C 82.5205 -0.968978 1.83373 0
M  V30 820 C 82.9455 -1.77227 0.630254 0
M  V30 821 O 82.3035 -1.76345 -0.420959 0
M  V30 822 C 82.3515 -1.86363 3.08709 0
M  V30 823 O 81.4555 -2.95873 2.87285 0
M  V30 824 H 80.7965 -0.274461 0.604622 0
M  V30 825 H 83.3265 -0.237056 2.03222 0
M  V30 826 H 83.3365 -2.27376 3.38768 0
M  V30 827 H 82.0115 -1.27319 3.95933 0
M  V30 828 H 80.5885 -2.58818 2.68454 0
M  V30 829 N 82.7736 -1.49793 -0.48987 0
M  V30 830 C 83.7036 -1.70201 -1.59856 0
M  V30 831 C 84.6846 -0.55076 -1.60937 0
M  V30 832 O 85.8696 -0.787841 -1.77501 0
M  V30 833 C 82.9996 -1.77882 -2.98287 0
M  V30 834 C 81.9536 -2.92907 -3.12073 0
M  V30 835 C 81.2796 -2.85712 -4.51965 0
M  V30 836 C 82.5796 -4.3369 -2.91051 0
M  V30 837 H 84.2736 -2.63025 -1.43032 0
M  V30 838 H 81.8196 -1.26574 -0.686664 0
M  V30 839 H 83.7726 -1.90744 -3.75759 0
M  V30 840 H 82.4966 -0.816653 -3.16225 0
M  V30 841 H 81.1556 -2.79665 -2.37029 0
M  V30 842 H 80.8036 -1.8738 -4.66795 0
M  V30 843 H 80.5036 -3.62921 -4.62128 0
M  V30 844 H 82.0276 -3.00598 -5.31482 0
M  V30 845 H 83.4416 -4.47555 -3.58284 0
M  V30 846 H 81.8386 -5.12205 -3.12675 0
M  V30 847 H 82.9086 -4.47362 -1.87071 0
M  V30 848 N 84.2517 0.741722 -1.39055 0
M  V30 849 C 85.1817 1.869 -1.39966 0
M  V30 850 C 86.1627 1.6804 -0.26392 0
M  V30 851 O 87.3477 1.88458 -0.468755 0
M  V30 852 C 84.4777 3.24572 -1.23574 0
M  V30 853 C 83.4317 3.58056 -2.34477 0
M  V30 854 C 82.7577 4.94593 -2.0318 0
M  V30 855 C 84.0577 3.61716 -3.76774 0
M  V30 856 H 85.7517 1.86395 -2.34302 0
M  V30 857 H 83.2977 0.895361 -1.1278 0
M  V30 858 H 85.2507 4.031 -1.22834 0
M  V30 859 H 83.9747 3.25587 -0.257045 0
M  V30 860 H 82.6337 2.81854 -2.34423 0
M  V30 861 H 82.2817 4.92181 -1.03765 0
M  V30 862 H 81.9817 5.17964 -2.77465 0
M  V30 863 H 83.5057 5.75486 -2.04079 0
M  V30 864 H 84.9197 4.30335 -3.78794 0
M  V30 865 H 83.3167 3.96603 -4.50362 0
M  V30 866 H 84.3867 2.61672 -4.08235 0
M  V30 867 N 85.7298 1.2412 0.971189 0
M  V30 868 C 86.6618 0.988349 2.06795 0
M  V30 869 C 87.6748 -0.0409541 1.62748 0
M  V30 870 O 88.8638 0.195673 1.77424 0
M  V30 871 C 85.9638 0.469023 3.35639 0
M  V30 872 C 85.1368 1.56065 4.08611 0
M  V30 873 C 84.1958 1.04458 5.15728 0
M  V30 874 O 83.2218 1.73553 5.42096 0
M  V30 875 N 84.4238 -0.122817 5.8037 0
M  V30 876 H 87.1888 1.93265 2.29061 0
M  V30 877 H 84.7498 1.15102 1.13856 0
M  V30 878 H 86.7418 0.108613 4.04554 0
M  V30 879 H 85.3118 -0.380919 3.1027 0
M  V30 880 H 84.5318 2.09341 3.34021 0
M  V30 881 H 85.8198 2.29449 4.54126 0
M  V30 882 H 85.2178 -0.700563 5.61345 0
M  V30 883 H 83.7748 -0.424404 6.50417 0
M  V30 884 N 87.2079 -1.17134 1.05439 0
M  V30 885 C 88.1379 -2.2342 0.678649 0
M  V30 886 C 89.1189 -1.66971 -0.32476 0
M  V30 887 O 90.3039 -1.93149 -0.201802 0
M  V30 888 C 87.4339 -3.47256 0.0552099 0
M  V30 889 C 86.3879 -4.16543 0.98365 0
M  V30 890 C 85.7139 -5.34231 0.223961 0
M  V30 891 C 87.0139 -4.68495 2.3089 0
M  V30 892 H 88.7079 -2.55105 1.56722 0
M  V30 893 H 86.2539 -1.2262 0.754998 0
M  V30 894 H 88.2069 -4.20828 -0.21946 0
M  V30 895 H 86.9309 -3.14846 -0.868319 0
M  V30 896 H 85.5899 -3.44887 1.24293 0
M  V30 897 H 85.2379 -4.98071 -0.702412 0
M  V30 898 H 84.9379 -5.81527 0.842627 0
M  V30 899 H 86.4619 -6.10585 -0.0433671 0
M  V30 900 H 87.8759 -5.33691 2.09396 0
M  V30 901 H 86.2729 -5.26379 2.88176 0
M  V30 902 H 87.3429 -3.85169 2.94572 0
M  V30 903 N 88.686 -0.835752 -1.33615 0
M  V30 904 C 89.649 -0.272 -2.2758 0
M  V30 905 C 90.649 0.557487 -1.50827 0
M  V30 906 O 91.839 0.37173 -1.70188 0
M  V30 907 C 88.971 0.617173 -3.35267 0
M  V30 908 H 90.164 -1.10111 -2.78954 0
M  V30 909 H 87.717 -0.608594 -1.43965 0
M  V30 910 H 88.452 1.46884 -2.89129 0
M  V30 911 H 88.237 0.0237066 -3.92093 0
M  V30 912 H 89.727 1.005 -4.05326 0
M  V30 913 N 90.1641 1.46063 -0.591896 0
M  V30 914 C 91.0961 2.28539 0.174001 0
M  V30 915 C 92.1091 1.39047 0.846753 0
M  V30 916 O 93.2981 1.63564 0.714774 0
M  V30 917 C 90.3981 3.14347 1.26645 0
M  V30 918 C 89.5711 4.32021 0.683856 0
M  V30 919 C 88.6301 4.99157 1.66518 0
M  V30 920 O 87.6561 5.56458 1.19763 0
M  V30 921 N 88.8581 4.97005 2.99943 0
M  V30 922 H 91.6231 2.94911 -0.533633 0
M  V30 923 H 89.1841 1.56077 -0.430294 0
M  V30 924 H 91.1761 3.56125 1.92242 0
M  V30 925 H 89.7461 2.49988 1.87682 0
M  V30 926 H 88.9661 3.93915 -0.1498 0
M  V30 927 H 90.2541 5.08059 0.274567 0
M  V30 928 H 89.6521 4.51714 3.40545 0
M  V30 929 H 88.2091 5.42696 3.61004 0
M  V30 930 N 91.6422 0.330177 1.54103 0
M  V30 931 C 92.5722 -0.525353 2.27513 0
M  V30 932 C 93.5532 -1.11383 1.2856 0
M  V30 933 O 94.7382 -1.13773 1.57383 0
M  V30 934 C 91.8682 -1.6831 3.03791 0
M  V30 935 C 90.8222 -1.2236 4.10137 0
M  V30 936 C 90.1482 -2.46882 4.74293 0
M  V30 937 C 91.4482 -0.333697 5.21233 0
M  V30 938 H 93.1422 0.087013 2.99274 0
M  V30 939 H 90.6882 0.0432893 1.43935 0
M  V30 940 H 92.6412 -2.28795 3.5388 0
M  V30 941 H 91.3652 -2.32216 2.29659 0
M  V30 942 H 90.0242 -0.64165 3.60941 0
M  V30 943 H 89.6722 -3.09165 3.96769 0
M  V30 944 H 89.3722 -2.16825 5.46133 0
M  V30 945 H 90.8962 -3.08117 5.27159 0
M  V30 946 H 92.3102 -0.845013 5.67038 0
M  V30 947 H 90.7072 -0.125612 5.99969 0
M  V30 948 H 91.7772 0.633724 4.80741 0
M  V30 949 N 93.1203 -1.57491 0.0584922 0
M  V30 950 C 94.0533 -2.07533 -0.948969 0
M  V30 951 C 95.0313 -0.977444 -1.29942 0
M  V30 952 O 96.2153 -1.2499 -1.41102 0
M  V30 953 C 93.3423 -2.52192 -2.2609 0
M  V30 954 C 92.3883 -3.73287 -2.06298 0
M  V30 955 S 93.2213 -5.18603 -1.33459 0
M  V30 956 C 94.3773 -5.66583 -2.65959 0
M  V30 957 H 94.6103 -2.92662 -0.523118 0
M  V30 958 H 92.1433 -1.53631 -0.153954 0
M  V30 959 H 94.1013 -2.78585 -3.01498 0
M  V30 960 H 92.7623 -1.67356 -2.65802 0
M  V30 961 H 91.9553 -4.0248 -3.03357 0
M  V30 962 H 91.5573 -3.47199 -1.39029 0
M  V30 963 H 93.8493 -5.72616 -3.62101 0
M  V30 964 H 94.7923 -6.65684 -2.41393 0
M  V30 965 H 95.2003 -4.94342 -2.72554 0
M  V30 966 N 94.5984 0.214957 -1.56127 0
M  V30 967 C 95.8474 0.936451 -1.78643 0
M  V30 968 C 96.1604 1.85237 -0.628229 0
M  V30 969 O 97.3664 2.613 -0.737186 0
M  V30 970 C 95.8224 1.7154 -3.16389 0
M  V30 971 C 95.4304 0.845299 -4.39953 0
M  V30 972 C 97.1744 2.42772 -3.48227 0
M  V30 973 C 95.0814 1.62198 -5.68723 0
M  V30 974 H 94.0114 0.353401 -0.666051 0
M  V30 975 H 96.6624 0.190169 -1.82512 0
M  V30 976 H 95.0444 2.50484 -3.06715 0
M  V30 977 H 96.2184 0.0959353 -4.607 0
M  V30 978 H 94.5334 0.244789 -4.1568 0
M  V30 979 H 97.1304 3.01394 -4.41663 0
M  V30 980 H 97.4734 3.15984 -2.71035 0
M  V30 981 H 98.0064 1.70813 -3.5926 0
M  V30 982 H 94.7454 0.933011 -6.48826 0
M  V30 983 H 94.2654 2.34579 -5.52026 0
M  V30 984 H 95.9444 2.18095 -6.09133 0
M  V30 985 N 96.0765 1.50051 0.48192 0
M  V30 986 C 97.3015 1.64508 1.26301 0
M  V30 987 C 97.7265 0.323851 1.85291 0
M  V30 988 O 97.0845 -0.710969 1.66778 0
M  V30 989 C 97.1325 2.7305 2.35533 0
M  V30 990 O 96.2365 2.3355 3.39895 0
M  V30 991 H 95.5775 0.549978 0.372048 0
M  V30 992 H 98.1075 1.9636 0.574786 0
M  V30 993 H 98.1175 2.95799 2.8101 0
M  V30 994 H 96.7925 3.68946 1.91967 0
M  V30 995 H 95.3695 2.21205 3.00204 0
M  V30 996 N 97.5546 -0.734337 1.39446 0
M  V30 997 C 98.8026 -1.49096 1.36436 0
M  V30 998 C 99.1236 -1.94961 -0.0388255 0
M  V30 999 O 98.3936 -1.69033 -0.990191 0
M  V30 1000 H 96.9736 -0.5531 0.502085 0
M  V30 1001 H 99.6356 -0.871725 1.74319 0
M  V30 1002 H 98.7316 -2.37276 2.02747 0
M  V30 1003 N 99.0327 -1.24633 -0.964593 0
M  V30 1004 C 100.263 -1.11339 -1.74032 0
M  V30 1005 C 100.671 0.336593 -1.86182 0
M  V30 1006 O 100.014 1.24389 -1.35178 0
M  V30 1007 C 100.076 -1.68284 -3.1768 0
M  V30 1008 C 99.7397 -3.17196 -3.28992 0
M  V30 1009 C 100.737 -4.14308 -3.14078 0
M  V30 1010 C 98.4217 -3.57215 -3.53133 0
M  V30 1011 C 100.416 -5.4942 -3.23135 0
M  V30 1012 C 98.1027 -4.92468 -3.61827 0
M  V30 1013 C 99.1007 -5.8838 -3.46841 0
M  V30 1014 O 98.7887 -7.21173 -3.55197 0
M  V30 1015 H 98.5207 -0.389551 -0.552472 0
M  V30 1016 H 101.075 -1.65282 -1.21946 0
M  V30 1017 H 99.3047 -1.08777 -3.71085 0
M  V30 1018 H 100.994 -1.50234 -3.77074 0
M  V30 1019 H 101.76 -3.84731 -2.95308 0
M  V30 1020 H 97.6387 -2.83063 -3.63863 0
M  V30 1021 H 101.183 -6.24263 -3.11355 0
M  V30 1022 H 97.0797 -5.21714 -3.80111 0
M  V30 1023 H 97.8477 -7.29135 -3.71892 0
M  V30 1024 N 100.511 1.16574 -1.06058 0
M  V30 1025 C 101.441 2.23057 -0.690488 0
M  V30 1026 C 102.422 1.67141 0.315901 0
M  V30 1027 O 103.607 1.93253 0.191556 0
M  V30 1028 C 100.737 3.47222 -0.073625 0
M  V30 1029 C 99.6908 4.16016 -1.00573 0
M  V30 1030 C 99.0168 5.34104 -0.252289 0
M  V30 1031 C 100.317 4.67264 -2.33371 0
M  V30 1032 H 102.011 2.54271 -1.58072 0
M  V30 1033 H 99.5568 1.22218 -0.76149 0
M  V30 1034 H 101.51 4.20939 0.19714 0
M  V30 1035 H 100.234 3.15302 0.85161 0
M  V30 1036 H 98.8928 3.44223 -1.2612 0
M  V30 1037 H 98.5408 4.98437 0.675988 0
M  V30 1038 H 98.2408 5.81072 -0.873455 0
M  V30 1039 H 99.7648 6.10599 0.0109857 0
M  V30 1040 H 101.179 5.32573 -2.12223 0
M  V30 1041 H 99.5758 5.24843 -2.90963 0
M  V30 1042 H 100.646 3.83602 -2.96611 0
M  V30 1043 N 101.989 0.842826 1.3317 0
M  V30 1044 C 102.936 0.276885 2.29133 0
M  V30 1045 C 103.906 -0.609527 1.54512 0
M  V30 1046 O 105.091 -0.546955 1.82792 0
M  V30 1047 C 102.231 -0.538707 3.40869 0
M  V30 1048 C 101.344 0.372169 4.30394 0
M  V30 1049 C 100.479 -0.454908 5.29249 0
M  V30 1050 C 99.5179 0.45411 6.10413 0
M  V30 1051 N 98.6549 -0.335075 7.013 0
M  V30 1052 H 103.495 1.10052 2.76934 0
M  V30 1053 H 101.032 0.554161 1.36262 0
M  V30 1054 H 102.99 -1.02709 4.0436 0
M  V30 1055 H 101.62 -1.32727 2.9425 0
M  V30 1056 H 100.672 0.97888 3.6759 0
M  V30 1057 H 101.984 1.0703 4.87182 0
M  V30 1058 H 101.138 -1.00695 5.98285 0
M  V30 1059 H 99.8769 -1.18646 4.73048 0
M  V30 1060 H 98.8819 1.01813 5.40291 0
M  V30 1061 H 100.107 1.18409 6.68697 0
M  V30 1062 H 98.0529 -1.04994 6.47543 0
M  V30 1063 H 97.9699 0.304262 7.55387 0
M  V30 1064 H 99.2379 -0.869224 7.74638 0
M  V30 1065 N 103.467 -1.45747 0.599634 0
M  V30 1066 C 104.692 -2.07178 0.0960198 0
M  V30 1067 C 105.117 -1.44268 -1.207 0
M  V30 1068 O 104.475 -0.532503 -1.73303 0
M  V30 1069 C 104.523 -3.60579 -0.0385348 0
M  V30 1070 O 103.627 -3.97713 -1.0908 0
M  V30 1071 H 102.968 -0.660251 0.0704593 0
M  V30 1072 H 105.498 -1.87124 0.827385 0
M  V30 1073 H 105.508 -4.07298 -0.239304 0
M  V30 1074 H 104.183 -4.05756 0.912947 0
M  V30 1075 H 102.76 -3.62678 -0.867135 0
M  V30 1076 N 104.945 -0.338344 -1.53925 0
M  V30 1077 C 106.17 0.263987 -2.05713 0
M  V30 1078 C 106.595 1.43847 -1.21201 0
M  V30 1079 O 105.953 1.79904 -0.224535 0
M  V30 1080 C 106.001 0.662 -3.54471 0
M  V30 1081 O 105.105 1.76265 -3.72833 0
M  V30 1082 H 104.446 0.0448722 -0.662482 0
M  V30 1083 H 106.976 -0.491048 -1.9862 0
M  V30 1084 H 106.986 0.940594 -3.9701 0
M  V30 1085 H 105.661 -0.196937 -4.15433 0
M  V30 1086 H 104.238 1.48173 -3.42198 0
M  V30 1087 N 106.423 1.57458 -0.0668435 0
M  V30 1088 C 107.672 1.92477 0.602947 0
M  V30 1089 C 107.985 0.948419 1.71068 0
M  V30 1090 O 109.191 1.19124 2.43971 0
M  V30 1091 C 107.647 3.41903 1.12383 0
M  V30 1092 C 107.255 4.47975 0.04737 0
M  V30 1093 C 108.999 3.85931 1.76797 0
M  V30 1094 C 106.906 5.88529 0.582022 0
M  V30 1095 H 105.836 0.718387 0.22899 0
M  V30 1096 H 108.487 1.82978 -0.138276 0
M  V30 1097 H 106.869 3.46459 1.91787 0
M  V30 1098 H 108.043 4.55029 -0.726978 0
M  V30 1099 H 106.358 4.13384 -0.500243 0
M  V30 1100 H 108.955 4.88322 2.17821 0
M  V30 1101 H 109.298 3.23029 2.62599 0
M  V30 1102 H 109.831 3.83958 1.04024 0
M  V30 1103 H 106.57 6.55065 -0.238721 0
M  V30 1104 H 106.09 5.85004 1.324 0
M  V30 1105 H 107.769 6.38258 1.05999 0
M  V30 1106 N 107.901 -0.206675 1.56239 0
M  V30 1107 C 109.126 -0.949474 1.8439 0
M  V30 1108 C 109.551 -1.76549 0.649016 0
M  V30 1109 O 108.909 -1.76782 -0.402231 0
M  V30 1110 C 108.957 -1.83078 3.10668 0
M  V30 1111 O 108.061 -2.9281 2.90407 0
M  V30 1112 H 107.402 -0.268033 0.607499 0
M  V30 1113 H 109.932 -0.215488 2.03462 0
M  V30 1114 H 109.942 -2.2377 3.41161 0
M  V30 1115 H 108.617 -1.23112 3.97261 0
M  V30 1116 H 107.194 -2.55956 2.71184 0
M  V30 1117 N 109.379 -1.50304 -0.473955 0
M  V30 1118 C 110.607 -1.64902 -1.24959 0
M  V30 1119 C 111.022 -0.331198 -1.85872 0
M  V30 1120 O 110.379 0.68652 -1.69095 0
M  V30 1121 C 110.43 -2.73803 -2.36038 0
M  V30 1122 O 110.151 -4.00477 -1.77624 0
M  V30 1123 C 111.652 -2.99349 -3.26964 0
M  V30 1124 H 108.872 -0.554383 -0.378022 0
M  V30 1125 H 111.416 -1.9651 -0.566054 0
M  V30 1126 H 109.571 -2.44898 -3.00173 0
M  V30 1127 H 109.985 -4.60678 -2.5075 0
M  V30 1128 H 111.459 -3.79217 -4.01121 0
M  V30 1129 H 111.936 -2.10307 -3.85574 0
M  V30 1130 H 112.542 -3.29774 -2.68569 0
M  V30 1131 N 110.857 0.726932 -1.39834 0
M  V30 1132 C 112.103 1.48884 -1.377 0
M  V30 1133 C 112.436 1.94185 0.0244852 0
M  V30 1134 O 111.711 1.67361 0.990986 0
M  V30 1135 C 111.994 2.72288 -2.3565 0
M  V30 1136 C 111.847 2.32956 -3.84775 0
M  V30 1137 C 113.166 3.74414 -2.31306 0
M  V30 1138 H 110.285 0.540062 -0.5015 0
M  V30 1139 H 112.927 0.830547 -1.70886 0
M  V30 1140 H 111.077 3.28457 -2.07481 0
M  V30 1141 H 112.749 1.82356 -4.23726 0
M  V30 1142 H 110.992 1.65088 -4.01159 0
M  V30 1143 H 111.663 3.21362 -4.4881 0
M  V30 1144 H 114.139 3.27849 -2.56231 0
M  V30 1145 H 113.015 4.58414 -3.01907 0
M  V30 1146 H 113.276 4.21909 -1.32081 0
M  V30 1147 N 112.336 1.25143 0.95797 0
M  V30 1148 C 113.246 1.06968 2.08794 0
M  V30 1149 C 114.262 0.00773911 1.73998 0
M  V30 1150 O 115.438 0.207972 2.00323 0
M  V30 1151 C 112.503 0.68691 3.39827 0
M  V30 1152 C 111.564 1.82641 3.88511 0
M  V30 1153 C 110.797 1.46181 5.1329 0
M  V30 1154 O 111.02 0.355971 5.69288 0
M  V30 1155 O 109.954 2.29085 5.566 0
M  V30 1156 H 113.78 2.01723 2.27027 0
M  V30 1157 H 111.365 1.04051 1.07209 0
M  V30 1158 H 113.247 0.485417 4.18595 0
M  V30 1159 H 111.922 -0.231417 3.22872 0
M  V30 1160 H 110.829 2.08274 3.10762 0
M  V30 1161 H 112.162 2.72386 4.09959 0
M  V30 1162 N 113.814 -1.1601 1.06675 0
M  V30 1163 C 114.761 -2.20525 0.680967 0
M  V30 1164 C 115.731 -1.62904 -0.324283 0
M  V30 1165 O 116.916 -1.89615 -0.212294 0
M  V30 1166 C 114.056 -3.45013 0.0776551 0
M  V30 1167 C 113.169 -4.16863 1.13355 0
M  V30 1168 C 112.304 -5.2888 0.49597 0
M  V30 1169 C 111.343 -5.92537 1.53513 0
M  V30 1170 N 110.48 -6.96038 0.920631 0
M  V30 1171 H 115.32 -2.52876 1.57663 0
M  V30 1172 H 112.857 -1.24199 0.788223 0
M  V30 1173 H 114.815 -4.16193 -0.289704 0
M  V30 1174 H 113.445 -3.132 -0.781393 0
M  V30 1175 H 112.497 -3.44248 1.61857 0
M  V30 1176 H 113.809 -4.60294 1.92174 0
M  V30 1177 H 112.963 -6.06653 0.0758604 0
M  V30 1178 H 111.702 -4.86622 -0.324062 0
M  V30 1179 H 110.707 -5.13482 1.9651 0
M  V30 1180 H 111.932 -6.36873 2.35733 0
M  V30 1181 H 109.878 -6.55888 0.12138 0
M  V30 1182 H 109.795 -7.3786 1.64616 0
M  V30 1183 H 111.063 -7.77725 0.525795 0
M  V30 1184 N 115.292 -0.849877 -1.32721 0
M  V30 1185 C 116.708 -0.539102 -1.50219 0
M  V30 1186 C 116.908 0.931271 -1.78689 0
M  V30 1187 O 115.964 1.71455 -1.85363 0
M  V30 1188 C 117.277 -1.42196 -2.64954 0
M  V30 1189 C 118.825 -1.42189 -2.78839 0
M  V30 1190 C 119.3 -2.28985 -3.96648 0
M  V30 1191 N 120.791 -2.26754 -4.03902 0
M  V30 1192 C 121.526 -2.90644 -4.94281 0
M  V30 1193 N 121.022 -3.63629 -5.897 0
M  V30 1194 N 122.815 -2.80057 -4.87365 0
M  V30 1195 H 114.966 -1.80156 -1.12506 0
M  V30 1196 H 117.229 -0.769217 -0.554085 0
M  V30 1197 H 116.935 -2.46733 -2.50631 0
M  V30 1198 H 116.809 -1.10591 -3.60624 0
M  V30 1199 H 119.196 -0.38419 -2.92588 0
M  V30 1200 H 119.277 -1.77807 -1.83898 0
M  V30 1201 H 118.921 -3.32819 -3.83658 0
M  V30 1202 H 118.851 -1.90702 -4.90857 0
M  V30 1203 H 121.342 -1.73688 -3.3562 0
M  V30 1204 H 121.655 -4.09558 -6.55349 0
M  V30 1205 H 120 -3.67737 -5.89741 0
M  V30 1206 H 123.191 -2.22593 -4.11789 0
M  V30 1207 H 123.364 -3.30132 -5.57599 0
M  V30 1208 N 116.77 1.45427 -0.607355 0
M  V30 1209 C 118.017 2.02241 -0.102455 0
M  V30 1210 C 118.345 1.4758 1.26691 0
M  V30 1211 O 117.6 0.640468 1.84923 0
M  V30 1212 C 117.899 3.57398 -0.0129263 0
M  V30 1213 C 117.565 4.3121 -1.31792 0
M  V30 1214 C 116.227 4.51092 -1.67539 0
M  V30 1215 C 118.579 4.73401 -2.18039 0
M  V30 1216 C 115.907 5.10422 -2.89285 0
M  V30 1217 C 118.259 5.34078 -3.39034 0
M  V30 1218 C 116.923 5.52184 -3.75033 0
M  V30 1219 H 116.193 0.740051 -0.037491 0
M  V30 1220 H 118.84 1.74494 -0.788926 0
M  V30 1221 H 117.145 3.84421 0.756806 0
M  V30 1222 H 118.842 3.99061 0.393881 0
M  V30 1223 H 115.432 4.16047 -1.02968 0
M  V30 1224 H 119.616 4.57774 -1.91721 0
M  V30 1225 H 114.872 5.22629 -3.17283 0
M  V30 1226 H 119.046 5.65724 -4.06115 0
M  V30 1227 H 116.673 5.97925 -4.69457 0
M  V30 1228 N 118.248 0.346503 1.53744 0
M  V30 1229 C 119.496 -0.248612 2.00565 0
M  V30 1230 C 119.817 -1.5083 1.23593 0
M  V30 1231 O 119.087 -1.92858 0.343912 0
M  V30 1232 H 117.667 -0.0948564 0.740953 0
M  V30 1233 H 120.329 0.468341 1.89189 0
M  V30 1234 H 119.425 -0.488994 3.08245 0
M  V30 1235 N 119.726 -1.57421 0.075193 0
M  V30 1236 C 120.656 -2.15942 -0.888324 0
M  V30 1237 C 121.637 -1.08737 -1.30806 0
M  V30 1238 O 122.822 -1.36787 -1.37851 0
M  V30 1239 C 119.952 -2.72379 -2.1547 0
M  V30 1240 C 118.906 -3.8478 -1.87425 0
M  V30 1241 C 118.232 -4.27834 -3.20721 0
M  V30 1242 C 119.532 -5.08869 -1.17684 0
M  V30 1243 H 121.226 -2.96705 -0.400799 0
M  V30 1244 H 118.772 -1.42723 -0.191342 0
M  V30 1245 H 120.725 -3.11965 -2.83295 0
M  V30 1246 H 119.449 -1.88841 -2.6647 0
M  V30 1247 H 118.108 -3.45703 -1.22004 0
M  V30 1248 H 117.756 -3.41214 -3.6957 0
M  V30 1249 H 117.456 -5.03605 -3.02746 0
M  V30 1250 H 118.98 -4.70039 -3.89738 0
M  V30 1251 H 120.394 -5.4575 -1.75584 0
M  V30 1252 H 118.791 -5.8994 -1.09956 0
M  V30 1253 H 119.861 -4.84648 -0.156453 0
M  V30 1254 N 121.204 0.198386 -1.56346 0
M  V30 1255 C 122.429 0.939682 -1.84891 0
M  V30 1256 C 122.854 1.76202 -0.658369 0
M  V30 1257 O 122.212 1.76993 0.392851 0
M  V30 1258 C 122.26 1.81428 -3.11635 0
M  V30 1259 O 121.364 2.91265 -2.91956 0
M  V30 1260 H 120.705 0.264807 -0.608912 0
M  V30 1261 H 123.235 0.204695 -2.03573 0
M  V30 1262 H 123.245 2.21958 -3.42343 0
M  V30 1263 H 121.92 1.21004 -3.97908 0
M  V30 1264 H 120.497 2.54514 -2.72538 0
M  V30 1265 N 122.682 1.50554 0.465978 0
M  V30 1266 C 123.907 1.65838 1.24549 0
M  V30 1267 C 124.332 0.343486 1.84937 0
M  V30 1268 O 123.69 -0.69324 1.67523 0
M  V30 1269 C 123.738 2.75533 2.32624 0
M  V30 1270 O 122.842 2.37142 3.37398 0
M  V30 1271 H 122.183 0.553893 0.366194 0
M  V30 1272 H 124.713 1.96959 0.553927 0
M  V30 1273 H 124.723 2.98763 2.77857 0
M  V30 1274 H 123.398 3.70962 1.88043 0
M  V30 1275 H 121.975 2.24377 2.97841 0
M  V30 1276 N 124.16 -0.719506 1.40217 0
M  V30 1277 C 125.092 -1.84428 1.36084 0
M  V30 1278 C 126.105 -1.60597 0.266913 0
M  V30 1279 O 127.294 -1.70544 0.526983 0
M  V30 1280 C 124.394 -3.20757 1.094 0
M  V30 1281 C 123.567 -3.71817 2.30372 0
M  V30 1282 C 122.626 -4.86748 1.99907 0
M  V30 1283 O 121.652 -4.99603 2.72737 0
M  V30 1284 N 122.854 -5.7226 0.974635 0
M  V30 1285 H 125.619 -1.88473 2.33019 0
M  V30 1286 H 123.18 -0.900885 1.3452 0
M  V30 1287 H 125.172 -3.95235 0.870116 0
M  V30 1288 H 123.742 -3.11884 0.211452 0
M  V30 1289 H 122.962 -2.88514 2.68614 0
M  V30 1290 H 124.25 -4.02666 3.11026 0
M  V30 1291 H 123.648 -5.6448 0.371368 0
M  V30 1292 H 122.205 -6.46739 0.810656 0
M  V30 1293 N 125.638 -1.25649 -0.95132 0
M  V30 1294 C 126.866 -1.13343 -1.73092 0
M  V30 1295 C 127.281 0.312434 -1.86197 0
M  V30 1296 O 126.638 1.21465 -1.36207 0
M  V30 1297 C 126.689 -1.78602 -3.14299 0
M  V30 1298 O 126.41 -3.17537 -3.01831 0
M  V30 1299 C 127.911 -1.72119 -4.08522 0
M  V30 1300 H 125.131 -0.395181 -0.542285 0
M  V30 1301 H 127.675 -1.66076 -1.19328 0
M  V30 1302 H 125.83 -1.29832 -3.64996 0
M  V30 1303 H 126.244 -3.49676 -3.90931 0
M  V30 1304 H 127.718 -2.22435 -5.052 0
M  V30 1305 H 128.195 -0.685635 -4.33815 0
M  V30 1306 H 128.801 -2.20393 -3.63741 0
M  V30 1307 N 127.117 1.15442 -1.07289 0
M  V30 1308 C 128.342 1.90638 -0.816828 0
M  V30 1309 C 128.767 1.77445 0.624083 0
M  V30 1310 O 128.125 1.10671 1.43602 0
M  V30 1311 C 128.173 3.39008 -1.22906 0
M  V30 1312 O 127.277 4.10701 -0.373975 0
M  V30 1313 H 126.618 0.593555 -0.297638 0
M  V30 1314 H 129.148 1.46198 -1.43134 0
M  V30 1315 H 129.158 3.89801 -1.20497 0
M  V30 1316 H 127.833 3.47929 -2.27856 0
M  V30 1317 H 126.41 3.70046 -0.460499 0
M  V30 1318 N 128.595 0.856903 1.32268 0
M  V30 1319 C 129.843 0.460474 1.96784 0
M  V30 1320 C 130.164 -0.987701 1.68135 0
M  V30 1321 O 129.434 -1.69058 0.989765 0
M  V30 1322 H 128.014 0.167289 0.728027 0
M  V30 1323 H 130.676 1.09383 1.61312 0
M  V30 1324 H 129.772 0.60739 3.06133 0
M  V30 1325 N 130.073 -1.45103 0.615059 0
M  V30 1326 C 131.003 -2.33339 -0.0865619 0
M  V30 1327 C 131.984 -1.4727 -0.851209 0
M  V30 1328 O 133.169 -1.76026 -0.820281 0
M  V30 1329 C 130.299 -3.30095 -1.07956 0
M  V30 1330 C 129.253 -4.25858 -0.427628 0
M  V30 1331 C 128.579 -5.12361 -1.5294 0
M  V30 1332 C 129.879 -5.18165 0.655944 0
M  V30 1333 H 131.573 -2.92254 0.650224 0
M  V30 1334 H 129.119 -1.40532 0.314138 0
M  V30 1335 H 131.072 -3.90698 -1.57901 0
M  V30 1336 H 129.796 -2.69355 -1.84703 0
M  V30 1337 H 128.455 -3.66564 0.0510292 0
M  V30 1338 H 128.103 -4.47984 -2.28734 0
M  V30 1339 H 127.803 -5.77238 -1.09865 0
M  V30 1340 H 129.327 -5.75833 -2.03098 0
M  V30 1341 H 130.741 -5.72796 0.240257 0
M  V30 1342 H 129.138 -5.91559 1.00888 0
M  V30 1343 H 130.208 -4.60144 1.52957 0
M  V30 1344 N 131.551 -0.354651 -1.53558 0
M  V30 1345 C 132.481 0.489091 -2.2832 0
M  V30 1346 C 133.462 1.09324 -1.30316 0
M  V30 1347 O 134.647 1.11255 -1.59173 0
M  V30 1348 C 131.777 1.63456 -3.0643 0
M  V30 1349 C 130.731 1.1582 -4.12031 0
M  V30 1350 C 130.057 2.39305 -4.7816 0
M  V30 1351 C 131.357 0.250731 -5.21698 0
M  V30 1352 H 133.051 -0.134614 -2.99097 0
M  V30 1353 H 130.597 -0.0661826 -1.43848 0
M  V30 1354 H 132.55 2.23136 -3.57475 0
M  V30 1355 H 131.274 2.28533 -2.33325 0
M  V30 1356 H 129.933 0.584146 -3.61916 0
M  V30 1357 H 129.581 3.02814 -4.01637 0
M  V30 1358 H 129.281 2.08109 -5.49513 0
M  V30 1359 H 130.805 2.99691 -5.31994 0
M  V30 1360 H 132.219 0.754695 -5.68311 0
M  V30 1361 H 130.616 0.0301468 -6.00092 0
M  V30 1362 H 131.686 -0.710125 -4.79672 0
M  V30 1363 N 133.029 1.57378 -0.0835403 0
M  V30 1364 C 133.992 2.12252 0.864959 0
M  V30 1365 C 134.992 1.04916 1.21858 0
M  V30 1366 O 136.182 1.30853 1.14991 0
M  V30 1367 C 133.314 2.63358 2.16461 0
M  V30 1368 H 134.507 2.97371 0.388676 0
M  V30 1369 H 132.06 1.55423 0.165317 0
M  V30 1370 H 132.795 1.81727 2.686 0
M  V30 1371 H 132.58 3.41826 1.92087 0
M  V30 1372 H 134.07 3.05847 2.84337 0
M  V30 1373 N 134.507 -0.190092 1.56449 0
M  V30 1374 C 135.732 -0.929864 1.85387 0
M  V30 1375 C 136.157 -1.7585 0.667704 0
M  V30 1376 O 135.515 -1.77198 -0.383459 0
M  V30 1377 C 135.563 -1.79773 3.12593 0
M  V30 1378 O 134.667 -2.89713 2.93496 0
M  V30 1379 H 134.008 -0.261574 0.610307 0
M  V30 1380 H 136.538 -0.193896 2.03679 0
M  V30 1381 H 136.548 -2.20139 3.43515 0
M  V30 1382 H 135.223 -1.18892 3.98544 0
M  V30 1383 H 133.8 -2.53065 2.73884 0
M  V30 1384 N 135.985 -1.50799 -0.457987 0
M  V30 1385 C 137.232 -1.62442 -1.20908 0
M  V30 1386 C 137.56 -0.330865 -1.91665 0
M  V30 1387 O 136.815 0.68401 -1.83357 0
M  V30 1388 C 137.114 -2.76358 -2.2663 0
M  V30 1389 C 136.78 -4.16378 -1.73033 0
M  V30 1390 C 135.442 -4.54473 -1.58138 0
M  V30 1391 C 137.794 -5.03836 -1.33413 0
M  V30 1392 C 135.122 -5.77754 -1.02065 0
M  V30 1393 C 137.474 -6.27676 -0.78778 0
M  V30 1394 C 136.138 -6.64562 -0.625561 0
M  V30 1395 H 135.408 -0.594417 -0.442435 0
M  V30 1396 H 138.055 -1.84772 -0.503136 0
M  V30 1397 H 136.36 -2.48167 -3.03184 0
M  V30 1398 H 138.057 -2.82568 -2.84528 0
M  V30 1399 H 134.647 -3.86331 -1.85598 0
M  V30 1400 H 138.831 -4.75026 -1.4375 0
M  V30 1401 H 134.087 -6.04997 -0.882547 0
M  V30 1402 H 138.261 -6.94797 -0.472177 0
M  V30 1403 H 135.888 -7.59965 -0.188926 0
M  V30 1404 N 137.463 0.71206 -1.40597 0
M  V30 1405 C 138.411 1.84746 -1.41321 0
M  V30 1406 C 139.405 1.66842 -0.293268 0
M  V30 1407 O 140.611 1.73904 -0.464481 0
M  V30 1408 H 136.986 0.608522 -0.441819 0
M  V30 1409 H 138.957 1.81252 -2.37045 0
M  V30 1410 C 137.706 3.22638 -1.29614 0
M  V30 1411 H 137.029 3.37023 -2.15071 0
M  V30 1412 H 138.469 4.02209 -1.3418 0
M  V30 1413 C 136.928 3.36899 -0.00673121 0
M  V30 1414 O 137.458 3.90186 0.954859 0
M  V30 1415 N 135.664 2.9053 0.0639327 0
M  V30 1416 H 135.211 2.47353 -0.719311 0
M  V30 1417 H 135.169 3.0045 0.926118 0
M  V30 1418 N 138.941 1.26152 0.944643 0
M  V30 1419 C 139.851 1.09176 2.07648 0
M  V30 1420 C 140.867 0.0261935 1.7398 0
M  V30 1421 O 142.043 0.229208 2.00091 0
M  V30 1422 C 139.108 0.722915 3.39079 0
M  V30 1423 C 138.169 1.86752 3.86552 0
M  V30 1424 C 137.402 1.51617 5.11711 0
M  V30 1425 O 137.625 0.416331 5.68879 0
M  V30 1426 O 136.559 2.34975 5.54139 0
M  V30 1427 H 140.385 2.0412 2.24875 0
M  V30 1428 H 137.97 1.05182 1.061 0
M  V30 1429 H 139.852 0.529787 4.18056 0
M  V30 1430 H 138.527 -0.197159 3.23099 0
M  V30 1431 H 137.434 2.11558 3.08535 0
M  V30 1432 H 138.767 2.76719 4.07047 0
M  V30 1433 N 140.419 -1.14872 1.07899 0
M  V30 1434 C 141.665 -1.86064 0.806725 0
M  V30 1435 C 141.998 -1.82434 -0.665706 0
M  V30 1436 O 141.273 -1.25138 -1.48899 0
M  V30 1437 C 141.556 -3.34929 1.32267 0
M  V30 1438 C 141.409 -3.47161 2.86006 0
M  V30 1439 C 142.728 -4.29863 0.943717 0
M  V30 1440 H 139.847 -0.675591 0.294526 0
M  V30 1441 H 142.489 -1.34925 1.33773 0
M  V30 1442 H 140.639 -3.78611 0.870974 0
M  V30 1443 H 142.311 -3.12302 3.39507 0
M  V30 1444 H 140.554 -2.88539 3.23925 0
M  V30 1445 H 141.225 -4.51777 3.17177 0
M  V30 1446 H 143.701 -3.9417 1.33302 0
M  V30 1447 H 142.577 -5.32494 1.33198 0
M  V30 1448 H 142.838 -4.41846 -0.149796 0
M  V30 1449 N 141.898 -0.863906 -1.31812 0
M  V30 1450 C 143.146 -0.470904 -1.96537 0
M  V30 1451 C 143.467 0.978771 -1.68657 0
M  V30 1452 O 142.737 1.6853 -0.998717 0
M  V30 1453 H 141.317 -0.171148 -0.72713 0
M  V30 1454 H 143.979 -1.10236 -1.60729 0
M  V30 1455 H 143.075 -0.623616 -3.05806 0
M  V30 1456 N 143.376 1.44774 -0.622745 0
M  V30 1457 C 144.324 2.32387 0.0994683 0
M  V30 1458 C 145.318 1.46859 0.844326 0
M  V30 1459 O 146.524 1.63254 0.758174 0
M  V30 1460 H 142.899 0.750273 0.0509291 0
M  V30 1461 H 144.87 2.91062 -0.65767 0
M  V30 1462 C 143.619 3.30723 1.07319 0
M  V30 1463 H 142.942 3.96541 0.509462 0
M  V30 1464 H 144.382 3.94725 1.54817 0
M  V30 1465 C 142.841 2.59021 2.15429 0
M  V30 1466 O 143.371 2.38286 3.23393 0
M  V30 1467 N 141.577 2.189 1.91131 0
M  V30 1468 H 141.124 2.35964 1.03337 0
M  V30 1469 H 141.082 1.71251 2.63668 0
M  V30 1470 N 144.854 0.36279 1.53368 0
M  V30 1471 C 146.082 -0.228613 2.05633 0
M  V30 1472 C 146.497 -1.42676 1.23649 0
M  V30 1473 O 145.854 -1.80394 0.27647 0
M  V30 1474 C 145.905 -0.624845 3.56059 0
M  V30 1475 O 145.626 0.525675 4.34935 0
M  V30 1476 C 147.127 -1.27493 4.24571 0
M  V30 1477 H 144.347 -0.0407183 0.669763 0
M  V30 1478 H 146.891 0.520352 1.97769 0
M  V30 1479 H 145.046 -1.32373 3.64083 0
M  V30 1480 H 145.46 0.205969 5.24095 0
M  V30 1481 H 146.934 -1.50277 5.31151 0
M  V30 1482 H 147.411 -2.23439 3.78116 0
M  V30 1483 H 148.017 -0.617558 4.20792 0
M  V30 1484 N 146.332 -1.57332 0.0918853 0
M  V30 1485 C 147.295 -2.12708 -0.85369 0
M  V30 1486 C 148.295 -1.05561 -1.213 0
M  V30 1487 O 149.485 -1.31461 -1.14296 0
M  V30 1488 C 146.617 -2.64503 -2.15061 0
M  V30 1489 H 147.81 -2.97573 -0.3729 0
M  V30 1490 H 145.363 -1.55509 -0.157072 0
M  V30 1491 H 146.098 -1.83149 -2.67632 0
M  V30 1492 H 145.883 -3.4284 -1.90272 0
M  V30 1493 H 147.373 -3.07351 -2.82711 0
M  V30 1494 N 147.81 0.181792 -1.56548 0
M  V30 1495 C 148.74 1.22765 -1.98623 0
M  V30 1496 C 149.721 1.46747 -0.860189 0
M  V30 1497 O 150.906 1.58259 -1.12551 0
M  V30 1498 C 148.036 2.56894 -2.33715 0
M  V30 1499 C 146.99 2.475 -3.49182 0
M  V30 1500 C 146.316 3.86023 -3.69986 0
M  V30 1501 C 147.616 1.98866 -4.82959 0
M  V30 1502 H 149.31 0.877942 -2.86239 0
M  V30 1503 H 146.856 0.42088 -1.37712 0
M  V30 1504 H 148.809 3.30253 -2.61746 0
M  V30 1505 H 147.533 2.93632 -1.42997 0
M  V30 1506 H 146.192 1.76596 -3.21262 0
M  V30 1507 H 145.84 4.20136 -2.76576 0
M  V30 1508 H 145.54 3.80609 -4.47672 0
M  V30 1509 H 147.064 4.60984 -4.00407 0
M  V30 1510 H 148.478 2.61992 -5.09934 0
M  V30 1511 H 146.875 2.04424 -5.64208 0
M  V30 1512 H 147.945 0.942465 -4.75653 0
M  V30 1513 N 149.288 1.51039 0.449983 0
M  V30 1514 C 150.537 1.62317 1.19733 0
M  V30 1515 C 150.85 0.339101 1.92638 0
M  V30 1516 O 152.056 0.331069 2.69474 0
M  V30 1517 C 150.512 2.86608 2.17678 0
M  V30 1518 C 150.12 4.21972 1.50479 0
M  V30 1519 C 151.864 3.07239 2.92924 0
M  V30 1520 C 149.771 5.37426 2.46834 0
M  V30 1521 H 148.701 0.604532 0.450619 0
M  V30 1522 H 151.352 1.77494 0.465625 0
M  V30 1523 H 149.734 2.65037 2.94231 0
M  V30 1524 H 150.908 4.53878 0.795716 0
M  V30 1525 H 149.223 4.07117 0.874344 0
M  V30 1526 H 151.82 3.90668 3.65079 0
M  V30 1527 H 152.163 2.19807 3.5354 0
M  V30 1528 H 152.696 3.29091 2.23481 0
M  V30 1529 H 149.435 6.27079 1.90926 0
M  V30 1530 H 148.955 5.09912 3.15832 0
M  V30 1531 H 150.634 5.68862 3.08228 0
M  V30 1532 N 150.766 -0.704594 1.40972 0
M  V30 1533 C 152.012 -1.46675 1.40051 0
M  V30 1534 C 152.345 -1.94199 0.00641102 0
M  V30 1535 O 151.62 -1.68916 -0.964235 0
M  V30 1536 C 151.903 -2.68505 2.39952 0
M  V30 1537 C 151.756 -2.26805 3.88432 0
M  V30 1538 C 153.075 -3.70686 2.37233 0
M  V30 1539 H 150.194 -0.532015 0.510028 0
M  V30 1540 H 152.836 -0.803255 1.72185 0
M  V30 1541 H 150.986 -3.25114 2.1268 0
M  V30 1542 H 152.658 -1.75592 4.26574 0
M  V30 1543 H 150.901 -1.58685 4.03734 0
M  V30 1544 H 151.572 -3.14181 4.53866 0
M  V30 1545 H 154.048 -3.23731 2.61415 0
M  V30 1546 H 152.924 -4.53553 3.09162 0
M  V30 1547 H 153.185 -4.19754 1.38777 0
M  V30 1548 N 152.244 -1.26651 -0.937939 0
M  V30 1549 C 153.491 -1.12387 -1.6845 0
M  V30 1550 C 153.819 0.332208 -1.91642 0
M  V30 1551 O 153.074 1.2602 -1.49725 0
M  V30 1552 C 153.373 -1.84168 -3.06295 0
M  V30 1553 C 153.039 -3.34056 -3.02849 0
M  V30 1554 C 151.701 -3.74942 -3.01616 0
M  V30 1555 C 154.053 -4.29741 -2.9491 0
M  V30 1556 C 151.381 -5.09894 -2.90215 0
M  V30 1557 C 153.733 -5.64738 -2.8505 0
M  V30 1558 C 152.397 -6.0493 -2.82162 0
M  V30 1559 H 151.667 -0.411252 -0.616403 0
M  V30 1560 H 154.314 -1.57134 -1.09459 0
M  V30 1561 H 152.619 -1.319 -3.6893 0
M  V30 1562 H 154.316 -1.70569 -3.62915 0
M  V30 1563 H 150.906 -3.01534 -3.0459 0
M  V30 1564 H 155.09 -3.99133 -2.94969 0
M  V30 1565 H 150.346 -5.40194 -2.86358 0
M  V30 1566 H 154.52 -6.38561 -2.77872 0
M  V30 1567 H 152.147 -7.09457 -2.73084 0
M  V30 1568 N 153.722 1.14298 -1.08507 0
M  V30 1569 C 154.968 1.85633 -0.816581 0
M  V30 1570 C 155.301 1.82784 0.656021 0
M  V30 1571 O 154.576 1.25926 1.48233 0
M  V30 1572 C 154.859 3.34223 -1.34041 0
M  V30 1573 C 154.712 3.45639 -2.87843 0
M  V30 1574 C 156.031 4.29356 -0.9665 0
M  V30 1575 H 153.15 0.67402 -0.298104 0
M  V30 1576 H 155.792 1.34214 -1.34487 0
M  V30 1577 H 153.942 3.78144 -0.89104 0
M  V30 1578 H 155.614 3.10498 -3.41158 0
M  V30 1579 H 153.857 2.86817 -3.25451 0
M  V30 1580 H 154.528 4.50089 -3.19569 0
M  V30 1581 H 157.004 3.93457 -1.35391 0
M  V30 1582 H 155.88 5.3178 -1.3602 0
M  V30 1583 H 156.141 4.41919 0.126362 0
M  V30 1584 N 155.201 0.870884 1.31352 0
M  V30 1585 C 156.426 0.495957 2.01383 0
M  V30 1586 C 156.851 -0.904324 1.64935 0
M  V30 1587 O 156.209 -1.59687 0.858466 0
M  V30 1588 C 156.257 0.661433 3.54482 0
M  V30 1589 O 155.361 -0.298851 4.11316 0
M  V30 1590 H 154.702 0.197158 0.634054 0
M  V30 1591 H 157.232 1.17455 1.67527 0
M  V30 1592 H 157.242 0.555072 4.04207 0
M  V30 1593 H 155.917 1.68246 3.8035 0
M  V30 1594 H 154.494 -0.147368 3.72609 0
M  V30 1595 N 156.679 -1.44442 0.630414 0
M  V30 1596 C 157.909 -2.06115 0.141465 0
M  V30 1597 C 158.317 -1.47179 -1.1889 0
M  V30 1598 O 157.66 -0.588873 -1.74006 0
M  V30 1599 C 157.722 -3.59467 -0.0484355 0
M  V30 1600 C 157.386 -4.40864 1.20366 0
M  V30 1601 C 158.383 -4.74391 2.12719 0
M  V30 1602 C 156.068 -4.8125 1.43887 0
M  V30 1603 C 158.062 -5.47186 3.26904 0
M  V30 1604 C 155.749 -5.53795 2.5837 0
M  V30 1605 C 156.747 -5.86682 3.49705 0
M  V30 1606 O 156.435 -6.57749 4.62191 0
M  V30 1607 H 156.167 -0.671648 0.0765792 0
M  V30 1608 H 158.721 -1.86312 0.864695 0
M  V30 1609 H 156.951 -3.77758 -0.826803 0
M  V30 1610 H 158.64 -4.02909 -0.491849 0
M  V30 1611 H 159.406 -4.43728 1.95781 0
M  V30 1612 H 155.285 -4.55073 0.736853 0
M  V30 1613 H 158.829 -5.72773 3.98217 0
M  V30 1614 H 154.726 -5.83872 2.75251 0
M  V30 1615 H 155.494 -6.76217 4.61164 0
M  V30 1616 N 158.157 -0.370918 -1.53173 0
M  V30 1617 C 159.404 0.217102 -2.01333 0
M  V30 1618 C 159.732 1.48338 -1.25802 0
M  V30 1619 O 158.987 1.92698 -0.34146 0
M  V30 1620 C 159.286 0.549696 -3.53147 0
M  V30 1621 C 158.952 -0.622872 -4.46577 0
M  V30 1622 C 157.614 -0.944595 -4.71838 0
M  V30 1623 C 159.966 -1.40819 -5.01816 0
M  V30 1624 C 157.294 -2.05351 -5.49589 0
M  V30 1625 C 159.646 -2.50757 -5.80778 0
M  V30 1626 C 158.31 -2.83458 -6.04324 0
M  V30 1627 H 157.58 0.0794431 -0.736729 0
M  V30 1628 H 160.227 -0.504481 -1.84736 0
M  V30 1629 H 158.532 1.35237 -3.6772 0
M  V30 1630 H 160.229 1.017 -3.87889 0
M  V30 1631 H 156.819 -0.36209 -4.27068 0
M  V30 1632 H 161.003 -1.17289 -4.82242 0
M  V30 1633 H 156.259 -2.3108 -5.6605 0
M  V30 1634 H 160.433 -3.12022 -6.22588 0
M  V30 1635 H 158.06 -3.69508 -6.64355 0
M  V30 1636 N 159.635 1.57281 -0.100228 0
M  V30 1637 C 160.883 1.94153 0.561157 0
M  V30 1638 C 161.204 0.983157 1.68401 0
M  V30 1639 O 160.474 0.0361132 1.95867 0
M  V30 1640 H 159.054 0.716791 0.210283 0
M  V30 1641 H 161.716 1.94202 -0.164765 0
M  V30 1642 H 160.812 2.96709 0.968008 0
M  V30 1643 N 161.113 -0.173488 1.56642 0
M  V30 1644 C 162.338 -0.910149 1.86363 0
M  V30 1645 C 162.763 -1.75132 0.686318 0
M  V30 1646 O 162.121 -1.77595 -0.364643 0
M  V30 1647 C 162.169 -1.76447 3.14482 0
M  V30 1648 O 161.273 -2.86584 2.96553 0
M  V30 1649 H 160.614 -0.255086 0.613047 0
M  V30 1650 H 163.144 -0.172283 2.03873 0
M  V30 1651 H 163.154 -2.16483 3.45831 0
M  V30 1652 H 161.829 -1.14658 3.99783 0
M  V30 1653 H 160.406 -2.50146 2.76553 0
M  V30 1654 N 162.591 -1.51276 -0.441967 0
M  V30 1655 C 164.007 -1.39349 -0.778083 0
M  V30 1656 C 164.207 -0.472212 -1.95889 0
M  V30 1657 O 163.263 0.0743551 -2.5239 0
M  V30 1658 C 164.576 -2.81292 -1.0628 0
M  V30 1659 C 166.124 -2.9041 -1.16751 0
M  V30 1660 C 166.599 -4.33251 -1.48519 0
M  V30 1661 N 168.09 -4.36336 -1.55453 0
M  V30 1662 C 168.825 -5.43885 -1.81596 0
M  V30 1663 N 168.321 -6.61601 -2.05562 0
M  V30 1664 N 170.114 -5.3136 -1.8334 0
M  V30 1665 H 162.265 -2.09729 0.335774 0
M  V30 1666 H 164.528 -0.943925 0.0878028 0
M  V30 1667 H 164.234 -3.50678 -0.267905 0
M  V30 1668 H 164.108 -3.20334 -1.99163 0
M  V30 1669 H 166.495 -2.21225 -1.95304 0
M  V30 1670 H 166.576 -2.54871 -0.217801 0
M  V30 1671 H 166.22 -5.02984 -0.704958 0
M  V30 1672 H 166.15 -4.66299 -2.44689 0
M  V30 1673 H 168.641 -3.51466 -1.38853 0
M  V30 1674 H 168.954 -7.39361 -2.24867 0
M  V30 1675 H 167.299 -6.64725 -2.02894 0
M  V30 1676 H 170.49 -4.38382 -1.64132 0
M  V30 1677 H 170.663 -6.15258 -2.03377 0
M  V30 1678 N 164.069 0.697108 -1.41344 0
M  V30 1679 C 165.315 1.4593 -1.40827 0
M  V30 1680 C 165.648 1.94193 -0.0167098 0
M  V30 1681 O 164.923 1.69425 0.955263 0
M  V30 1682 C 165.206 2.67229 -2.41373 0
M  V30 1683 C 165.059 2.24741 -3.8963 0
M  V30 1684 C 166.378 3.69423 -2.39196 0
M  V30 1685 H 163.497 0.529303 -0.512842 0
M  V30 1686 H 166.139 0.794112 -1.72609 0
M  V30 1687 H 164.289 3.23982 -2.14401 0
M  V30 1688 H 165.961 1.73327 -4.27499 0
M  V30 1689 H 164.204 1.56542 -4.0457 0
M  V30 1690 H 164.875 3.1177 -4.55525 0
M  V30 1691 H 167.351 3.2234 -2.63128 0
M  V30 1692 H 166.227 4.51907 -3.11563 0
M  V30 1693 H 166.488 4.19012 -1.41001 0
M  V30 1694 N 165.547 1.27147 0.931209 0
M  V30 1695 C 166.497 1.06227 2.01742 0
M  V30 1696 C 167.481 -0.00859065 1.60898 0
M  V30 1697 O 168.673 0.209537 1.75755 0
M  V30 1698 C 165.802 0.707787 3.35924 0
M  V30 1699 C 164.888 1.81661 3.83223 0
M  V30 1700 N 165.279 3.05564 4.03069 0
M  V30 1701 C 163.577 1.70249 4.12227 0
M  V30 1702 C 164.278 3.77697 4.42403 0
M  V30 1703 N 163.254 3.0544 4.49675 0
M  V30 1704 H 167.056 2.00261 2.15111 0
M  V30 1705 H 164.57 1.1781 1.11779 0
M  V30 1706 H 166.567 0.539043 4.134 0
M  V30 1707 H 165.227 -0.224964 3.2392 0
M  V30 1708 H 166.238 3.41363 3.89476 0
M  V30 1709 H 162.915 0.840329 4.08956 0
M  V30 1710 H 164.305 4.84168 4.65866 0
M  V30 1711 N 167.025 -1.13721 1.09112 0
M  V30 1712 C 168.441 -1.36914 0.820174 0
M  V30 1713 C 168.641 -1.93356 -0.567079 0
M  V30 1714 O 167.697 -2.15093 -1.32255 0
M  V30 1715 C 169.01 -2.3235 1.90877 0
M  V30 1716 C 170.558 -2.45973 1.93562 0
M  V30 1717 C 171.033 -3.44714 3.01556 0
M  V30 1718 N 172.524 -3.52263 3.00775 0
M  V30 1719 C 173.259 -4.28536 3.80978 0
M  V30 1720 N 172.755 -5.07991 4.71081 0
M  V30 1721 N 174.548 -4.23804 3.69251 0
M  V30 1722 H 166.699 -0.754348 1.98553 0
M  V30 1723 H 168.962 -0.3944 0.862063 0
M  V30 1724 H 168.668 -1.98027 2.90651 0
M  V30 1725 H 168.542 -3.32332 1.78424 0
M  V30 1726 H 170.929 -2.79584 0.944286 0
M  V30 1727 H 171.01 -1.45926 2.10093 0
M  V30 1728 H 170.654 -3.11835 4.00901 0
M  V30 1729 H 170.584 -4.44558 2.82269 0
M  V30 1730 H 173.075 -2.95567 2.35475 0
M  V30 1731 H 173.388 -5.63487 5.28869 0
M  V30 1732 H 171.733 -5.07235 4.75119 0
M  V30 1733 H 174.924 -3.60806 2.98222 0
M  V30 1734 H 175.097 -4.82995 4.31995 0
M  V30 1735 N 168.503 -0.877838 -1.30888 0
M  V30 1736 C 169.914 -0.544193 -1.78593 0
M  V30 1737 C 170.265 0.939301 -1.72254 0
M  V30 1738 O 169.39 1.7337 -1.29505 0
M  V30 1739 C 169.985 -0.98105 -3.24285 0
M  V30 1740 C 168.544 -0.698935 -3.69854 0
M  V30 1741 C 167.691 -1.168 -2.51502 0
M  V30 1742 H 170.642 -1.06278 -1.17859 0
M  V30 1743 H 170.663 -0.307009 -3.79259 0
M  V30 1744 H 170.175 -2.06079 -3.28866 0
M  V30 1745 H 168.276 0.369112 -3.70767 0
M  V30 1746 H 168.389 -1.28148 -4.61644 0
M  V30 1747 H 166.753 -0.587535 -2.47831 0
M  V30 1748 H 167.536 -2.25533 -2.58824 0
M  V30 1749 N 169.982 1.44106 -0.638065 0
M  V30 1750 C 171.398 1.56672 -0.304286 0
M  V30 1751 C 171.598 1.6244 1.19228 0
M  V30 1752 O 170.654 1.57121 1.9766 0
M  V30 1753 C 171.967 2.83503 -1.00231 0
M  V30 1754 C 173.515 2.97226 -0.981116 0
M  V30 1755 C 173.99 4.26868 -1.65974 0
M  V30 1756 N 175.481 4.33698 -1.62666 0
M  V30 1757 C 176.216 5.32745 -2.12063 0
M  V30 1758 N 175.712 6.38157 -2.6968 0
M  V30 1759 N 177.505 5.24299 -2.02651 0
M  V30 1760 H 169.656 1.38605 -1.60942 0
M  V30 1761 H 171.919 0.664661 -0.675965 0
M  V30 1762 H 171.625 2.85251 -2.0573 0
M  V30 1763 H 171.499 3.73251 -0.54439 0
M  V30 1764 H 173.886 2.95027 0.0654188 0
M  V30 1765 H 173.967 2.08808 -1.47759 0
M  V30 1766 H 173.611 4.29826 -2.70576 0
M  V30 1767 H 173.541 5.14156 -1.13804 0
M  V30 1768 H 176.032 3.58138 -1.20606 0
M  V30 1769 H 176.345 7.10029 -3.05087 0
M  V30 1770 H 174.69 6.38823 -2.73734 0
M  V30 1771 H 177.881 4.4086 -1.57353 0
M  V30 1772 H 178.054 6.01334 -2.41457 0
M  V30 1773 N 171.46 0.379036 1.52974 0
M  V30 1774 C 172.393 -0.504932 2.22544 0
M  V30 1775 C 173.371 -1.0723 1.22231 0
M  V30 1776 O 174.555 -1.12589 1.51182 0
M  V30 1777 C 171.682 -1.69794 2.93066 0
M  V30 1778 C 170.728 -1.25678 4.07563 0
M  V30 1779 S 171.561 -0.246852 5.34931 0
M  V30 1780 C 172.717 -1.44588 6.08971 0
M  V30 1781 H 172.95 0.0858666 2.97176 0
M  V30 1782 H 170.483 0.163183 1.53535 0
M  V30 1783 H 172.441 -2.38219 3.34308 0
M  V30 1784 H 171.102 -2.26002 2.18133 0
M  V30 1785 H 170.295 -2.14725 4.5597 0
M  V30 1786 H 169.897 -0.651584 3.6828 0
M  V30 1787 H 172.189 -2.37469 6.34519 0
M  V30 1788 H 173.132 -1.00292 7.00962 0
M  V30 1789 H 173.54 -1.65804 5.39601 0
M  V30 1790 N 172.938 -1.57226 0.108567 0
M  V30 1791 C 174.187 -1.94008 -0.551703 0
M  V30 1792 C 174.5 -0.993442 -1.68494 0
M  V30 1793 O 175.706 -1.25551 -2.40726 0
M  V30 1794 C 174.162 -3.44763 -1.03279 0
M  V30 1795 C 173.77 -4.47943 0.0714193 0
M  V30 1796 C 175.514 -3.90483 -1.66503 0
M  V30 1797 C 173.421 -5.89865 -0.425779 0
M  V30 1798 H 172.351 -0.724206 -0.209863 0
M  V30 1799 H 175.002 -1.82547 0.186741 0
M  V30 1800 H 173.384 -3.51422 -1.82533 0
M  V30 1801 H 174.558 -4.52942 0.847365 0
M  V30 1802 H 172.873 -4.11913 0.609669 0
M  V30 1803 H 175.47 -4.93925 -2.04798 0
M  V30 1804 H 175.813 -3.29877 -2.53942 0
M  V30 1805 H 176.346 -3.86581 -0.938074 0
M  V30 1806 H 173.085 -6.54202 0.412316 0
M  V30 1807 H 172.605 -5.88309 -1.16843 0
M  V30 1808 H 174.284 -6.40844 -0.890397 0
M  V30 1809 N 174.416 0.165178 -1.56732 0
M  V30 1810 C 175.664 0.879068 -1.8198 0
M  V30 1811 C 175.985 1.82514 -0.686561 0
M  V30 1812 O 175.255 1.93694 0.293146 0
M  V30 1813 H 173.835 0.327608 -0.671329 0
M  V30 1814 H 176.497 0.163526 -1.94213 0
M  V30 1815 H 175.593 1.45228 -2.76252 0
M  V30 1816 N 175.894 1.51508 0.433938 0
M  V30 1817 C 177.124 1.67914 1.20369 0
M  V30 1818 C 177.532 0.377461 1.85397 0
M  V30 1819 O 176.875 -0.654255 1.71654 0
M  V30 1820 C 176.937 2.74045 2.32679 0
M  V30 1821 C 176.601 4.16543 1.87991 0
M  V30 1822 C 177.598 5.01211 1.38145 0
M  V30 1823 C 175.283 4.6266 1.95579 0
M  V30 1824 C 177.277 6.30056 0.964774 0
M  V30 1825 C 174.964 5.91501 1.53523 0
M  V30 1826 C 175.962 6.75027 1.04055 0
M  V30 1827 O 175.65 8.01459 0.625964 0
M  V30 1828 H 175.382 0.566578 0.368735 0
M  V30 1829 H 177.936 1.98709 0.51999 0
M  V30 1830 H 176.166 2.38572 3.04336 0
M  V30 1831 H 177.855 2.79295 2.94532 0
M  V30 1832 H 178.621 4.66783 1.31675 0
M  V30 1833 H 174.5 3.97767 2.33029 0
M  V30 1834 H 178.044 6.95202 0.57796 0
M  V30 1835 H 173.941 6.25442 1.59665 0
M  V30 1836 H 174.709 8.15043 0.751509 0
M  V30 1837 N 177.372 -0.689602 1.41712 0
M  V30 1838 C 178.62 -1.4468 1.4111 0
M  V30 1839 C 178.941 -1.94986 0.0232196 0
M  V30 1840 O 178.211 -1.72097 -0.935913 0
M  V30 1841 H 176.791 -0.536847 0.519427 0
M  V30 1842 H 179.453 -0.815825 1.77004 0
M  V30 1843 H 178.549 -2.30706 2.10193 0
M  V30 1844 N 178.85 -1.27639 -0.924453 0
M  V30 1845 C 179.813 -1.10681 -2.00705 0
M  V30 1846 C 180.813 -0.0497823 -1.60723 0
M  V30 1847 O 182.003 -0.294654 -1.7169 0
M  V30 1848 C 179.135 -0.687164 -3.33902 0
M  V30 1849 H 180.328 -2.06817 -2.17179 0
M  V30 1850 H 177.881 -1.10473 -1.10569 0
M  V30 1851 H 178.616 0.275439 -3.23128 0
M  V30 1852 H 178.401 -1.45061 -3.6428 0
M  V30 1853 H 179.891 -0.590853 -4.13399 0
M  V30 1854 N 180.328 1.1314 -1.09713 0
M  V30 1855 C 181.577 1.83838 -0.829851 0
M  V30 1856 C 181.89 1.84599 0.646728 0
M  V30 1857 O 183.096 2.51218 1.02965 0
M  V30 1858 C 181.552 3.30069 -1.43466 0
M  V30 1859 C 181.16 3.37688 -2.94399 0
M  V30 1860 C 182.904 4.05788 -1.24645 0
M  V30 1861 C 180.811 4.78209 -3.47952 0
M  V30 1862 H 179.741 0.68877 -0.306777 0
M  V30 1863 H 182.392 1.27448 -1.3202 0
M  V30 1864 H 180.774 3.8628 -0.871996 0
M  V30 1865 H 181.948 2.91456 -3.56918 0
M  V30 1866 H 180.263 2.75436 -3.12289 0
M  V30 1867 H 182.86 5.09535 -1.62107 0
M  V30 1868 H 183.203 4.15878 -0.187357 0
M  V30 1869 H 183.736 3.55915 -1.77678 0
M  V30 1870 H 180.475 4.73311 -4.53495 0
M  V30 1871 H 179.995 5.24924 -2.90198 0
M  V30 1872 H 181.674 5.47133 -3.45332 0
M  V30 1873 N 181.806 0.884767 1.30421 0
M  V30 1874 C 182.736 0.367574 2.30589 0
M  V30 1875 C 183.717 -0.549464 1.60981 0
M  V30 1876 O 184.902 -0.46336 1.88591 0
M  V30 1877 C 182.032 -0.418944 3.44764 0
M  V30 1878 C 180.986 0.406316 4.26067 0
M  V30 1879 C 180.312 -0.506793 5.32293 0
M  V30 1880 C 181.612 1.64832 4.95608 0
M  V30 1881 H 183.306 1.20462 2.74097 0
M  V30 1882 H 180.852 0.580695 1.31772 0
M  V30 1883 H 182.805 -0.791395 4.13902 0
M  V30 1884 H 181.529 -1.28964 3.0006 0
M  V30 1885 H 180.188 0.760903 3.58617 0
M  V30 1886 H 179.836 -1.37519 4.83836 0
M  V30 1887 H 179.536 0.0415828 5.87585 0
M  V30 1888 H 181.06 -0.875764 6.04287 0
M  V30 1889 H 182.474 1.34646 5.57264 0
M  V30 1890 H 180.871 2.13688 5.60765 0
M  V30 1891 H 181.941 2.39284 4.21748 0
M  V30 1892 N 183.284 -1.43765 0.645699 0
M  V30 1893 C 184.53 -2.02197 0.156271 0
M  V30 1894 C 184.863 -1.50776 -1.22393 0
M  V30 1895 O 184.138 -0.697771 -1.81553 0
M  V30 1896 C 184.421 -3.59749 0.158872 0
M  V30 1897 C 184.274 -4.21419 1.57245 0
M  V30 1898 C 185.593 -4.37149 -0.50879 0
M  V30 1899 H 182.712 -0.734694 0.0582602 0
M  V30 1900 H 185.354 -1.71157 0.824951 0
M  V30 1901 H 183.504 -3.86325 -0.410525 0
M  V30 1902 H 185.176 -4.059 2.19186 0
M  V30 1903 H 183.419 -3.78356 2.122 0
M  V30 1904 H 184.09 -5.30482 1.52619 0
M  V30 1905 H 186.566 -4.16093 -0.024412 0
M  V30 1906 H 185.442 -5.4683 -0.476213 0
M  V30 1907 H 185.703 -4.12839 -1.58165 0
M  V30 1908 N 184.763 -0.387143 -1.52771 0
M  V30 1909 C 185.726 0.436939 -2.24997 0
M  V30 1910 C 186.726 0.991991 -1.26555 0
M  V30 1911 O 187.916 0.874335 -1.50669 0
M  V30 1912 C 185.048 1.61281 -3.00335 0
M  V30 1913 H 186.241 -0.195365 -2.99263 0
M  V30 1914 H 183.794 -0.139218 -1.55679 0
M  V30 1915 H 184.529 2.2826 -2.30364 0
M  V30 1916 H 184.314 1.22154 -3.72587 0
M  V30 1917 H 185.804 2.19629 -3.5518 0
M  V30 1918 N 186.241 1.57166 -0.116904 0
M  V30 1919 C 187.171 2.18222 0.830759 0
M  V30 1920 C 188.152 1.12167 1.27877 0
M  V30 1921 O 189.337 1.40394 1.34176 0
M  V30 1922 C 186.467 2.77996 2.08172 0
M  V30 1923 C 185.421 3.89614 1.77157 0
M  V30 1924 C 184.747 4.36187 3.09265 0
M  V30 1925 C 186.047 5.1181 1.04151 0
M  V30 1926 H 187.741 2.97664 0.321992 0
M  V30 1927 H 185.287 1.4318 0.153434 0
M  V30 1928 H 187.24 3.19366 2.74924 0
M  V30 1929 H 185.964 1.9584 2.6137 0
M  V30 1930 H 184.623 3.48816 1.12796 0
M  V30 1931 H 184.271 3.50893 3.60393 0
M  V30 1932 H 183.971 5.11455 2.89288 0
M  V30 1933 H 185.495 4.80207 3.77139 0
M  V30 1934 H 186.909 5.50214 1.61052 0
M  V30 1935 H 185.306 5.92648 0.942762 0
M  V30 1936 H 186.376 4.84892 0.0279022 0
M  V30 1937 N 187.719 -0.156864 1.56817 0
M  V30 1938 C 188.682 -1.17781 1.96622 0
M  V30 1939 C 189.682 -1.36401 0.851555 0
M  V30 1940 O 190.872 -1.33561 1.11836 0
M  V30 1941 C 188.004 -2.54008 2.27361 0
M  V30 1942 H 189.197 -0.836564 2.87996 0
M  V30 1943 H 186.75 -0.39985 1.51099 0
M  V30 1944 H 187.485 -2.9312 1.38748 0
M  V30 1945 H 187.27 -2.41856 3.08623 0
M  V30 1946 H 188.76 -3.27558 2.59029 0
M  V30 1947 N 189.197 -1.51736 -0.425897 0
M  V30 1948 C 190.445 -1.64644 -1.17204 0
M  V30 1949 C 190.766 -0.370486 -1.91448 0
M  V30 1950 O 190.036 0.614088 -1.86026 0
M  V30 1951 H 188.616 -0.606819 -0.435638 0
M  V30 1952 H 191.278 -1.88713 -0.487177 0
M  V30 1953 H 190.374 -2.47958 -1.89534 0
M  V30 1954 N 190.675 0.682077 -1.42076 0
M  V30 1955 C 191.605 1.80796 -1.47767 0
M  V30 1956 C 192.586 1.6677 -0.334954 0
M  V30 1957 O 193.771 1.863 -0.548264 0
M  V30 1958 C 190.901 3.19038 -1.37229 0
M  V30 1959 C 189.855 3.47789 -2.49453 0
M  V30 1960 C 189.181 4.8553 -2.23975 0
M  V30 1961 C 190.481 3.45411 -3.91776 0
M  V30 1962 H 192.175 1.7629 -2.41997 0
M  V30 1963 H 189.721 0.846721 -1.16476 0
M  V30 1964 H 191.674 3.97528 -1.39821 0
M  V30 1965 H 190.398 3.24204 -0.394907 0
M  V30 1966 H 189.057 2.71657 -2.46166 0
M  V30 1967 H 188.705 4.87337 -1.24547 0
M  V30 1968 H 188.405 5.0573 -2.99184 0
M  V30 1969 H 189.929 5.66312 -2.28304 0
M  V30 1970 H 191.343 4.13882 -3.96705 0
M  V30 1971 H 189.74 3.77145 -4.66778 0
M  V30 1972 H 190.81 2.44122 -4.18966 0
M  V30 1973 N 192.153 1.28127 0.917671 0
M  V30 1974 C 193.083 1.14248 2.03641 0
M  V30 1975 C 194.064 0.0412748 1.7005 0
M  V30 1976 O 195.249 0.217566 1.92977 0
M  V30 1977 C 192.379 0.799431 3.37974 0
M  V30 1978 C 191.333 1.85497 3.85713 0
M  V30 1979 C 190.659 1.36565 5.16966 0
M  V30 1980 C 191.959 3.26085 4.08002 0
M  V30 1981 H 193.653 2.07835 2.15511 0
M  V30 1982 H 191.199 1.00064 1.03553 0
M  V30 1983 H 193.152 0.689114 4.15727 0
M  V30 1984 H 191.876 -0.172145 3.26146 0
M  V30 1985 H 190.535 1.95437 3.10161 0
M  V30 1986 H 190.183 0.383253 5.01538 0
M  V30 1987 H 189.883 2.07143 5.49878 0
M  V30 1988 H 191.407 1.26848 5.97279 0
M  V30 1989 H 192.821 3.19089 4.76293 0
M  V30 1990 H 191.218 3.94462 4.52238 0
M  V30 1991 H 192.288 3.70394 3.12948 0
M  V30 1992 N 193.631 -1.12557 1.10312 0
M  V30 1993 C 194.564 -2.1737 0.694674 0
M  V30 1994 C 195.542 -1.59745 -0.303373 0
M  V30 1995 O 196.726 -1.87408 -0.202578 0
M  V30 1996 C 193.853 -3.38691 0.0248052 0
M  V30 1997 C 192.899 -4.14943 0.986121 0
M  V30 1998 S 193.732 -4.73413 2.50281 0
M  V30 1999 C 194.888 -5.9807 1.84562 0
M  V30 2000 H 195.121 -2.5168 1.58255 0
M  V30 2001 H 192.654 -1.23998 0.919992 0
M  V30 2002 H 194.612 -4.08959 -0.355361 0
M  V30 2003 H 193.273 -3.02664 -0.839851 0
M  V30 2004 H 192.466 -5.01854 0.464651 0
M  V30 2005 H 192.068 -3.50377 1.30813 0
M  V30 2006 H 194.36 -6.67232 1.17507 0
M  V30 2007 H 195.303 -6.54841 2.69423 0
M  V30 2008 H 195.711 -5.49073 1.31069 0
M  V30 2009 N 195.109 -0.891671 -1.2995 0
M  V30 2010 C 196.337 -0.52866 -2.00032 0
M  V30 2011 C 196.752 0.884574 -1.66795 0
M  V30 2012 O 196.109 1.5827 -0.908669 0
M  V30 2013 C 196.16 -0.701814 -3.54622 0
M  V30 2014 O 195.881 -2.05942 -3.86678 0
M  V30 2015 C 197.382 -0.342683 -4.41973 0
M  V30 2016 H 194.602 -0.203659 -0.639347 0
M  V30 2017 H 197.146 -1.19881 -1.65677 0
M  V30 2018 H 195.301 -0.0789468 -3.8732 0
M  V30 2019 H 195.715 -2.08291 -4.81368 0
M  V30 2020 H 197.189 -0.514709 -5.49595 0
M  V30 2021 H 197.666 0.71975 -4.33262 0
M  V30 2022 H 198.272 -0.942154 -4.14733 0
M  V30 2023 N 196.587 1.43421 -0.653314 0
M  V30 2024 C 197.517 2.33487 0.0246656 0
M  V30 2025 C 198.498 1.49475 0.811863 0
M  V30 2026 O 199.683 1.78139 0.773322 0
M  V30 2027 C 196.813 3.32841 0.99166 0
M  V30 2028 C 195.767 4.26842 0.314568 0
M  V30 2029 C 195.093 5.16236 1.39302 0
M  V30 2030 C 196.393 5.16243 -0.793095 0
M  V30 2031 H 198.087 2.90427 -0.727481 0
M  V30 2032 H 195.633 1.39649 -0.351287 0
M  V30 2033 H 197.586 3.94747 1.47487 0
M  V30 2034 H 196.31 2.74158 1.77497 0
M  V30 2035 H 194.969 3.663 -0.148199 0
M  V30 2036 H 194.617 4.53891 2.16776 0
M  V30 2037 H 194.317 5.79948 0.945223 0
M  V30 2038 H 195.841 5.81015 1.87759 0
M  V30 2039 H 197.255 5.71958 -0.392039 0
M  V30 2040 H 195.652 5.88676 -1.16536 0
M  V30 2041 H 196.722 4.55927 -1.65103 0
M  V30 2042 N 198.065 0.39524 1.52563 0
M  V30 2043 C 199.476 -0.0774719 1.86539 0
M  V30 2044 C 199.827 -1.45641 1.31466 0
M  V30 2045 O 198.952 -2.06459 0.648367 0
M  V30 2046 C 199.547 -0.147356 3.38479 0
M  V30 2047 C 198.106 -0.564373 3.72145 0
M  V30 2048 C 197.253 0.269919 2.75983 0
M  V30 2049 H 200.204 0.612876 1.46388 0
M  V30 2050 H 200.225 -0.965343 3.68051 0
M  V30 2051 H 199.737 0.856387 3.78534 0
M  V30 2052 H 197.838 -1.57527 3.37663 0
M  V30 2053 H 197.951 -0.318402 4.78041 0
M  V30 2054 H 196.315 -0.265696 2.5331 0
M  V30 2055 H 197.098 1.27175 3.18875 0
M  V30 2056 N 199.544 -1.57102 0.125237 0
M  V30 2057 C 200.494 -2.12202 -0.833936 0
M  V30 2058 C 201.478 -1.04433 -1.22403 0
M  V30 2059 O 202.67 -1.30655 -1.19408 0
M  V30 2060 C 199.799 -2.72994 -2.08157 0
M  V30 2061 C 198.885 -3.87852 -1.71556 0
M  V30 2062 N 199.276 -4.9464 -1.05662 0
M  V30 2063 C 197.574 -3.98153 -2.00973 0
M  V30 2064 C 198.275 -5.74953 -0.883376 0
M  V30 2065 N 197.251 -5.24985 -1.41036 0
M  V30 2066 H 201.053 -2.92141 -0.321035 0
M  V30 2067 H 198.567 -1.62217 -0.0770315 0
M  V30 2068 H 200.564 -3.10816 -2.77847 0
M  V30 2069 H 199.224 -1.9452 -2.59985 0
M  V30 2070 H 200.235 -5.12872 -0.719878 0
M  V30 2071 H 196.912 -3.30728 -2.54804 0
M  V30 2072 H 198.302 -6.70904 -0.365675 0
M  V30 2073 N 201.022 0.148545 -1.56898 0
M  V30 2074 C 202.269 0.861418 -1.83264 0
M  V30 2075 C 202.597 1.81239 -0.705883 0
M  V30 2076 O 201.852 1.93305 0.305212 0
M  V30 2077 C 202.151 1.67064 -3.1595 0
M  V30 2078 C 201.817 0.866591 -4.42494 0
M  V30 2079 C 200.479 0.644762 -4.76861 0
M  V30 2080 C 202.831 0.30418 -5.20312 0
M  V30 2081 C 200.159 -0.15021 -5.86508 0
M  V30 2082 C 202.511 -0.477824 -6.30793 0
M  V30 2083 C 201.175 -0.710244 -6.63711 0
M  V30 2084 H 200.445 0.315215 -0.670612 0
M  V30 2085 H 203.092 0.125142 -1.91091 0
M  V30 2086 H 201.397 2.47698 -3.03567 0
M  V30 2087 H 203.094 2.22566 -3.33565 0
M  V30 2088 H 199.684 1.04955 -4.15551 0
M  V30 2089 H 203.868 0.462844 -4.94137 0
M  V30 2090 H 199.124 -0.339796 -6.10455 0
M  V30 2091 H 203.298 -0.92076 -6.90286 0
M  V30 2092 H 200.925 -1.3281 -7.48509 0
M  V30 2093 N 202.5 1.5196 0.417844 0
M  V30 2094 C 203.749 1.6482 1.16264 0
M  V30 2095 C 204.062 0.379886 1.91876 0
M  V30 2096 O 205.268 0.388154 2.68711 0
M  V30 2097 C 203.724 2.91161 2.1155 0
M  V30 2098 C 203.332 4.25068 1.41495 0
M  V30 2099 C 205.076 3.13383 2.86341 0
M  V30 2100 C 202.983 5.42541 2.35379 0
M  V30 2101 H 201.913 0.613954 0.437694 0
M  V30 2102 H 204.564 1.78442 0.427871 0
M  V30 2103 H 202.946 2.71218 2.88543 0
M  V30 2104 H 204.12 4.55463 0.699263 0
M  V30 2105 H 202.435 4.0888 0.787792 0
M  V30 2106 H 205.032 3.98324 3.5671 0
M  V30 2107 H 205.375 2.27256 3.48798 0
M  V30 2108 H 205.908 3.33757 2.1645 0
M  V30 2109 H 202.647 6.30987 1.77582 0
M  V30 2110 H 202.167 5.16497 3.04945 0
M  V30 2111 H 203.846 5.75272 2.96093 0
M  V30 2112 N 203.978 -0.674533 1.42435 0
M  V30 2113 C 205.203 -1.46784 1.46524 0
M  V30 2114 C 205.628 -1.87938 0.078066 0
M  V30 2115 O 204.986 -1.56014 -0.92354 0
M  V30 2116 C 205.034 -2.69307 2.39805 0
M  V30 2117 O 204.138 -3.67587 1.86959 0
M  V30 2118 H 203.479 -0.440959 0.496439 0
M  V30 2119 H 206.009 -0.827326 1.87127 0
M  V30 2120 H 206.019 -3.17374 2.56393 0
M  V30 2121 H 204.694 -2.38692 3.40586 0
M  V30 2122 H 203.271 -3.2662 1.79927 0
M  V30 2123 N 205.456 -1.28612 -0.910864 0
M  V30 2124 C 206.366 -1.14643 -2.0468 0
M  V30 2125 C 207.382 -0.0723121 -1.7385 0
M  V30 2126 O 208.558 -0.282178 -1.99413 0
M  V30 2127 C 205.623 -0.812561 -3.37044 0
M  V30 2128 C 204.684 -1.96935 -3.81465 0
M  V30 2129 C 203.917 -1.65131 -5.07511 0
M  V30 2130 O 204.14 -0.567013 -5.67575 0
M  V30 2131 O 203.074 -2.49585 -5.47714 0
M  V30 2132 H 206.9 -2.1001 -2.19384 0
M  V30 2133 H 204.485 -1.07958 -1.03274 0
M  V30 2134 H 206.367 -0.640441 -4.16505 0
M  V30 2135 H 205.042 0.111426 -3.23508 0
M  V30 2136 H 203.949 -2.19664 -3.02818 0
M  V30 2137 H 205.282 -2.87414 -3.99567 0
M  V30 2138 N 206.934 1.1197 -1.10907 0
M  V30 2139 C 208.345 1.65114 -0.871446 0
M  V30 2140 C 208.696 1.86885 0.597353 0
M  V30 2141 O 207.821 1.59896 1.45816 0
M  V30 2142 C 208.416 2.99944 -1.5754 0
M  V30 2143 C 206.975 3.50018 -1.38435 0
M  V30 2144 C 206.122 2.24941 -1.62164 0
M  V30 2145 H 209.073 0.956851 -1.2661 0
M  V30 2146 H 209.094 3.66651 -1.01721 0
M  V30 2147 H 208.606 2.84067 -2.64438 0
M  V30 2148 H 206.707 3.71071 -0.337214 0
M  V30 2149 H 206.82 4.29165 -2.12965 0
M  V30 2150 H 205.184 2.3229 -1.04467 0
M  V30 2151 H 205.967 2.11612 -2.70324 0
M  V30 2152 N 208.412 0.89855 1.29475 0
M  V30 2153 C 209.642 0.538479 1.99459 0
M  V30 2154 C 210.05 -0.880922 1.67441 0
M  V30 2155 O 209.393 -1.59283 0.915127 0
M  V30 2156 C 209.455 0.649564 3.53583 0
M  V30 2157 C 209.119 2.03573 4.09154 0
M  V30 2158 C 210.116 3.00675 4.24135 0
M  V30 2159 C 207.801 2.3448 4.44212 0
M  V30 2160 C 209.795 4.26809 4.73405 0
M  V30 2161 C 207.482 3.60857 4.93179 0
M  V30 2162 C 208.48 4.56836 5.0773 0
M  V30 2163 O 208.168 5.80969 5.55635 0
M  V30 2164 H 207.9 0.205372 0.644048 0
M  V30 2165 H 210.454 1.20958 1.66007 0
M  V30 2166 H 208.684 -0.0785592 3.8662 0
M  V30 2167 H 210.373 0.29881 4.04799 0
M  V30 2168 H 211.139 2.78112 3.97339 0
M  V30 2169 H 207.018 1.60534 4.32145 0
M  V30 2170 H 210.562 5.0173 4.84678 0
M  V30 2171 H 206.459 3.83251 5.19412 0
M  V30 2172 H 207.227 5.83542 5.73952 0
M  V30 2173 N 209.89 -1.43072 0.660911 0
M  V30 2174 C 211.306 -1.56169 0.329173 0
M  V30 2175 C 211.506 -1.64317 -1.16629 0
M  V30 2176 O 210.562 -1.60245 -1.95135 0
M  V30 2177 C 211.875 -2.81873 1.04729 0
M  V30 2178 C 213.423 -2.95627 1.02828 0
M  V30 2179 C 213.898 -4.24174 1.72744 0
M  V30 2180 N 215.389 -4.31055 1.69545 0
M  V30 2181 C 216.124 -5.29304 2.20511 0
M  V30 2182 N 215.62 -6.33786 2.79799 0
M  V30 2183 N 217.413 -5.21008 2.10966 0
M  V30 2184 H 209.564 -1.36027 1.63127 0
M  V30 2185 H 211.827 -0.653823 0.686454 0
M  V30 2186 H 211.533 -2.81942 2.10242 0
M  V30 2187 H 211.407 -3.72338 0.603702 0
M  V30 2188 H 213.794 -2.95094 -0.0184742 0
M  V30 2189 H 213.875 -2.06431 1.51063 0
M  V30 2190 H 213.519 -4.25467 2.7738 0
M  V30 2191 H 213.449 -5.1228 1.2197 0
M  V30 2192 H 215.94 -3.56174 1.26288 0
M  V30 2193 H 216.253 -7.05086 3.16344 0
M  V30 2194 H 214.598 -6.34387 2.83863 0
M  V30 2195 H 217.789 -4.38301 1.64347 0
M  V30 2196 H 217.962 -5.97416 2.50993 0
M  V30 2197 N 211.368 -0.403325 -1.52352 0
M  V30 2198 C 212.598 0.17376 -2.05868 0
M  V30 2199 C 213.006 1.39898 -1.27378 0
M  V30 2200 O 212.349 1.80939 -0.31729 0
M  V30 2201 C 212.411 0.594756 -3.54546 0
M  V30 2202 C 212.075 -0.518926 -4.54044 0
M  V30 2203 C 213.072 -1.3807 -5.01231 0
M  V30 2204 C 210.757 -0.689961 -4.97539 0
M  V30 2205 C 212.751 -2.39852 -5.90551 0
M  V30 2206 C 210.438 -1.71109 -5.86656 0
M  V30 2207 C 211.436 -2.56378 -6.33056 0
M  V30 2208 O 211.124 -3.56743 -7.20409 0
M  V30 2209 H 210.856 0.0264951 -0.675481 0
M  V30 2210 H 213.41 -0.571179 -1.97299 0
M  V30 2211 H 211.64 1.39189 -3.60782 0
M  V30 2212 H 213.329 1.0991 -3.90736 0
M  V30 2213 H 214.095 -1.25994 -4.68349 0
M  V30 2214 H 209.974 -0.035939 -4.60986 0
M  V30 2215 H 213.518 -3.06441 -6.26689 0
M  V30 2216 H 209.415 -1.83218 -6.18952 0
M  V30 2217 H 210.183 -3.52918 -7.38506 0
M  V30 2218 N 212.846 1.57033 -0.133567 0
M  V30 2219 C 214.123 1.87256 0.56522 0
M  V30 2220 C 214.503 1.03726 1.83859 0
M  V30 2221 O 213.851 0.120247 2.28183 0
M  V30 2222 C 214.061 3.3865 0.843636 0
M  V30 2223 C 215.409 4.07574 1.19032 0
M  V30 2224 O 216.433 3.43752 0.933429 0
M  V30 2225 O 215.292 5.20259 1.67312 0
M  V30 2226 H 212.386 0.775678 0.286796 0
M  V30 2227 H 214.932 1.68855 -0.169168 0
M  V30 2228 H 213.704 3.91257 -0.0581149 0
M  V30 2229 H 213.327 3.62532 1.63268 0
M  V30 2230 N 214.325 -0.140222 1.56975 0
M  V30 2231 C 215.273 -1.19207 1.99731 0
M  V30 2232 C 216.267 -1.44089 0.890777 0
M  V30 2233 O 217.473 -1.44301 1.07597 0
M  V30 2234 H 213.848 -0.40142 0.635898 0
M  V30 2235 H 215.819 -0.804813 2.87342 0
M  V30 2236 C 214.568 -2.51617 2.39967 0
M  V30 2237 H 213.891 -2.33303 3.24669 0
M  V30 2238 H 215.331 -3.23827 2.73701 0
M  V30 2239 C 213.79 -3.12654 1.25496 0
M  V30 2240 O 214.32 -3.97786 0.559371 0
M  V30 2241 N 212.526 -2.72206 1.01746 0
M  V30 2242 H 212.073 -2.03074 1.58489 0
M  V30 2243 H 212.031 -3.13377 0.253461 0
M  V30 2244 N 215.803 -1.52179 -0.40978 0
M  V30 2245 C 217.031 -1.70054 -1.17853 0
M  V30 2246 C 217.446 -0.409735 -1.843 0
M  V30 2247 O 216.803 0.614183 -1.71855 0
M  V30 2248 C 216.854 -2.83568 -2.24213 0
M  V30 2249 O 216.575 -4.0765 -1.60478 0
M  V30 2250 C 218.076 -3.12947 -3.13973 0
M  V30 2251 H 215.296 -0.569917 -0.354169 0
M  V30 2252 H 217.84 -1.98734 -0.482198 0
M  V30 2253 H 215.995 -2.57409 -2.89516 0
M  V30 2254 H 216.409 -4.70899 -2.30986 0
M  V30 2255 H 217.883 -3.95889 -3.84677 0
M  V30 2256 H 218.36 -2.26472 -3.76307 0
M  V30 2257 H 218.966 -3.40868 -2.5434 0
M  V30 2258 N 217.281 0.66697 -1.42791 0
M  V30 2259 C 218.506 1.46004 -1.47301 0
M  V30 2260 C 218.931 1.87894 -0.0880317 0
M  V30 2261 O 218.289 1.56502 0.915253 0
M  V30 2262 C 218.337 2.68031 -2.41229 0
M  V30 2263 O 217.441 3.6659 -1.88906 0
M  V30 2264 H 216.782 0.43832 -0.49877 0
M  V30 2265 H 219.312 0.817391 -1.87563 0
M  V30 2266 H 219.322 3.1601 -2.58073 0
M  V30 2267 H 217.997 2.36883 -3.41847 0
M  V30 2268 H 216.574 3.25661 -1.81656 0
M  V30 2269 N 218.759 1.29093 0.90403 0
M  V30 2270 C 220.17 1.15186 1.46932 0
M  V30 2271 C 220.521 -0.254587 1.94541 0
M  V30 2272 O 219.646 -1.14972 1.83332 0
M  V30 2273 C 220.241 2.08492 2.67051 0
M  V30 2274 C 218.8 1.98621 3.19729 0
M  V30 2275 C 217.947 1.9967 1.92425 0
M  V30 2276 H 220.898 1.41641 0.715789 0
M  V30 2277 H 220.919 1.65461 3.42641 0
M  V30 2278 H 220.431 3.10847 2.3237 0
M  V30 2279 H 218.532 0.993389 3.59114 0
M  V30 2280 H 218.645 2.86068 3.8432 0
M  V30 2281 H 217.009 1.44208 2.09943 0
M  V30 2282 H 217.792 3.03721 1.60026 0
M  V30 2283 N 220.237 -1.11381 1.11499 0
M  V30 2284 C 221.147 -2.21019 0.786628 0
M  V30 2285 C 222.163 -1.72597 -0.220507 0
M  V30 2286 O 223.339 -2.01321 -0.0565251 0
M  V30 2287 C 220.404 -3.459 0.235333 0
M  V30 2288 C 219.465 -4.09107 1.30115 0
M  V30 2289 C 218.698 -5.28027 0.776068 0
M  V30 2290 O 218.921 -5.6904 -0.393661 0
M  V30 2291 O 217.855 -5.81835 1.54114 0
M  V30 2292 H 221.681 -2.51521 1.70209 0
M  V30 2293 H 219.266 -1.19928 0.890928 0
M  V30 2294 H 221.148 -4.21346 -0.067715 0
M  V30 2295 H 219.823 -3.17049 -0.652828 0
M  V30 2296 H 218.73 -3.35391 1.65722 0
M  V30 2297 H 220.063 -4.42139 2.16273 0
M  V30 2298 N 221.715 -0.905404 -1.28997 0
M  V30 2299 C 222.992 -0.453513 -1.9027 0
M  V30 2300 C 223.372 1.06721 -1.82137 0
M  V30 2301 O 222.72 1.91159 -1.25182 0
M  V30 2302 C 222.93 -0.974494 -3.35119 0
M  V30 2303 C 224.278 -1.0216 -4.12127 0
M  V30 2304 O 225.302 -0.922557 -3.44046 0
M  V30 2305 O 224.161 -1.17121 -5.33802 0
M  V30 2306 H 221.255 -0.142347 -0.814657 0
M  V30 2307 H 223.801 -0.995642 -1.37423 0
M  V30 2308 H 222.573 -2.01848 -3.35221 0
M  V30 2309 H 222.196 -0.412706 -3.95452 0
M  V30 2310 N 223.193 1.4272 -0.668489 0
M  V30 2311 C 224.126 2.28111 0.0637898 0
M  V30 2312 C 225.104 1.40705 0.814912 0
M  V30 2313 O 226.288 1.70146 0.81134 0
M  V30 2314 C 223.415 3.20429 1.0974 0
M  V30 2315 C 222.461 4.24197 0.442579 0
M  V30 2316 S 223.294 5.29563 -0.795173 0
M  V30 2317 C 224.45 6.25449 0.237516 0
M  V30 2318 H 224.683 2.8987 -0.660521 0
M  V30 2319 H 222.216 1.47456 -0.457821 0
M  V30 2320 H 224.174 3.74158 1.68868 0
M  V30 2321 H 222.835 2.57818 1.79411 0
M  V30 2322 H 222.028 4.88954 1.22227 0
M  V30 2323 H 221.63 3.73925 -0.0749554 0
M  V30 2324 H 223.922 6.68524 1.09915 0
M  V30 2325 H 224.865 7.07104 -0.375421 0
M  V30 2326 H 225.273 5.61511 0.580167 0
M  V30 2327 N 224.671 0.411399 1.52136 0
M  V30 2328 C 226.082 -0.0576826 1.86611 0
M  V30 2329 C 226.433 -1.44238 1.33003 0
M  V30 2330 O 225.558 -2.05759 0.670228 0
M  V30 2331 C 226.153 -0.111448 3.38617 0
M  V30 2332 C 224.712 -0.52487 3.72723 0
M  V30 2333 C 223.859 0.299176 2.75681 0
M  V30 2334 H 226.81 0.628368 1.4573 0
M  V30 2335 H 226.831 -0.926252 3.69054 0
M  V30 2336 H 226.343 0.896488 3.77604 0
M  V30 2337 H 224.444 -1.53936 3.39315 0
M  V30 2338 H 224.557 -0.267681 4.78352 0
M  V30 2339 H 222.921 -0.238814 2.53578 0
M  V30 2340 H 223.704 1.3055 3.17508 0
M  V30 2341 N 226.149 -1.5696 0.141893 0
M  V30 2342 C 227.081 -2.13619 -0.830627 0
M  V30 2343 C 228.094 -1.08439 -1.21428 0
M  V30 2344 O 229.283 -1.35734 -1.15925 0
M  V30 2345 C 226.383 -2.63978 -2.12529 0
M  V30 2346 C 225.556 -3.93504 -1.9098 0
M  V30 2347 C 224.615 -4.29225 -3.04388 0
M  V30 2348 O 223.641 -4.97641 -2.76302 0
M  V30 2349 N 224.843 -3.88393 -4.31429 0
M  V30 2350 H 227.608 -2.97691 -0.34641 0
M  V30 2351 H 225.169 -1.61846 -0.0418375 0
M  V30 2352 H 227.161 -2.84891 -2.87436 0
M  V30 2353 H 225.731 -1.84659 -2.52229 0
M  V30 2354 H 224.951 -3.81269 -1.00139 0
M  V30 2355 H 226.239 -4.78154 -1.73914 0
M  V30 2356 H 225.637 -3.33257 -4.57117 0
M  V30 2357 H 224.194 -4.14368 -5.03133 0
M  V30 2358 N 227.627 0.131896 -1.57047 0
M  V30 2359 C 228.904 0.871495 -1.75112 0
M  V30 2360 C 229.284 1.9866 -0.713949 0
M  V30 2361 O 228.632 2.26965 0.264447 0
M  V30 2362 C 228.842 1.40007 -3.19686 0
M  V30 2363 C 230.19 1.85752 -3.81813 0
M  V30 2364 O 231.214 1.49715 -3.23209 0
M  V30 2365 O 230.073 2.5226 -4.84796 0
M  V30 2366 H 227.167 0.412919 -0.716538 0
M  V30 2367 H 229.713 0.116641 -1.69299 0
M  V30 2368 H 228.485 0.599404 -3.86682 0
M  V30 2369 H 228.108 2.218 -3.29986 0
M  V30 2370 N 229.106 1.52395 0.401703 0
M  V30 2371 C 230.353 1.66817 1.14796 0
M  V30 2372 C 230.681 0.401772 1.90305 0
M  V30 2373 O 229.936 -0.615487 1.85769 0
M  V30 2374 C 230.235 2.84578 2.16217 0
M  V30 2375 C 229.901 4.22513 1.5746 0
M  V30 2376 C 228.563 4.60029 1.41161 0
M  V30 2377 C 230.915 5.0844 1.14622 0
M  V30 2378 C 228.243 5.81144 0.80552 0
M  V30 2379 C 230.595 6.30167 0.55428 0
M  V30 2380 C 229.259 6.66426 0.378482 0
M  V30 2381 H 228.529 0.610428 0.420069 0
M  V30 2382 H 231.176 1.86512 0.434212 0
M  V30 2383 H 229.481 2.59248 2.93764 0
M  V30 2384 H 231.178 2.92933 2.73845 0
M  V30 2385 H 227.768 3.92953 1.71132 0
M  V30 2386 H 231.952 4.80034 1.26021 0
M  V30 2387 H 227.208 6.07855 0.657399 0
M  V30 2388 H 231.382 6.96071 0.213983 0
M  V30 2389 H 229.009 7.60143 -0.0932606 0
M  V30 2390 N 230.584 -0.659388 1.43143 0
M  V30 2391 C 231.531 -1.77249 1.47822 0
M  V30 2392 C 232.501 -1.62818 0.328558 0
M  V30 2393 O 233.686 -1.83151 0.534838 0
M  V30 2394 C 230.826 -3.15371 1.40126 0
M  V30 2395 C 229.939 -3.4098 2.65249 0
M  V30 2396 C 229.074 -4.68915 2.49584 0
M  V30 2397 C 228.113 -4.87608 3.70006 0
M  V30 2398 N 227.25 -6.06796 3.53189 0
M  V30 2399 H 232.09 -1.72584 2.42938 0
M  V30 2400 H 229.627 -0.842297 1.20598 0
M  V30 2401 H 231.585 -3.9521 1.33659 0
M  V30 2402 H 230.215 -3.19121 0.485964 0
M  V30 2403 H 229.267 -2.55282 2.8202 0
M  V30 2404 H 230.579 -3.50681 3.54717 0
M  V30 2405 H 229.733 -5.56871 2.4079 0
M  V30 2406 H 228.472 -4.61524 1.5763 0
M  V30 2407 H 227.477 -3.9809 3.79215 0
M  V30 2408 H 228.702 -4.96834 4.62961 0
M  V30 2409 H 226.648 -6.00549 2.63965 0
M  V30 2410 H 226.565 -6.17428 4.36255 0
M  V30 2411 H 227.833 -6.9739 3.48236 0
M  V30 2412 N 232.062 -1.29571 -0.897171 0
M  V30 2413 C 233.025 -1.14913 -1.98312 0
M  V30 2414 C 234.025 -0.0838629 -1.60581 0
M  V30 2415 O 235.215 -0.331006 -1.71026 0
M  V30 2416 C 232.347 -0.757835 -3.3237 0
M  V30 2417 H 233.54 -2.11377 -2.12743 0
M  V30 2418 H 231.093 -1.12793 -1.08201 0
M  V30 2419 H 231.828 0.206837 -3.2364 0
M  V30 2420 H 231.613 -1.52755 -3.61121 0
M  V30 2421 H 233.103 -0.678408 -4.12053 0
M  V30 2422 N 233.54 1.10788 -1.12088 0
M  V30 2423 C 234.765 1.87002 -0.896949 0
M  V30 2424 C 235.19 1.79933 0.548261 0
M  V30 2425 O 234.548 1.16662 1.38779 0
M  V30 2426 C 234.596 3.3349 -1.37174 0
M  V30 2427 O 233.7 4.08745 -0.547831 0
M  V30 2428 H 233.041 0.580397 -0.322545 0
M  V30 2429 H 235.571 1.39996 -1.49206 0
M  V30 2430 H 235.581 3.84339 -1.36922 0
M  V30 2431 H 234.256 3.37951 -2.42408 0
M  V30 2432 H 232.833 3.6776 -0.617034 0
M  V30 2433 N 235.018 0.912232 1.28515 0
M  V30 2434 C 235.948 0.416403 2.29757 0
M  V30 2435 C 236.929 -0.515194 1.6211 0
M  V30 2436 O 238.114 -0.423253 1.89532 0
M  V30 2437 C 235.244 -0.34572 3.45575 0
M  V30 2438 C 234.198 0.496599 4.25109 0
M  V30 2439 C 233.524 -0.393771 5.33248 0
M  V30 2440 C 234.824 1.75307 4.92001 0
M  V30 2441 H 236.518 1.26249 2.7148 0
M  V30 2442 H 234.064 0.608515 1.30511 0
M  V30 2443 H 236.017 -0.703422 4.15488 0
M  V30 2444 H 234.741 -1.2257 3.02728 0
M  V30 2445 H 233.4 0.8368 3.56922 0
M  V30 2446 H 233.048 -1.27225 4.86644 0
M  V30 2447 H 232.748 0.166209 5.87365 0
M  V30 2448 H 234.272 -0.747389 6.06009 0
M  V30 2449 H 235.686 1.46437 5.54283 0
M  V30 2450 H 234.083 2.25534 5.56106 0
M  V30 2451 H 235.153 2.48176 4.16577 0
M  V30 2452 N 236.496 -1.42363 0.676048 0
M  V30 2453 C 237.736 -2.03392 0.20273 0
M  V30 2454 C 238.1 -1.52306 -1.16906 0
M  V30 2455 O 239.301 -2.05129 -1.73711 0
M  V30 2456 C 237.572 -3.56614 0.236947 0
M  V30 2457 S 239.131 -4.38489 -0.165186 0
M  V30 2458 H 235.949 -0.70611 0.0832418 0
M  V30 2459 H 238.551 -1.74093 0.88948 0
M  V30 2460 H 237.255 -3.91293 1.23767 0
M  V30 2461 H 236.786 -3.90587 -0.469596 0
M  V30 2462 H 238.801 -4.76093 -1.39822 0
M  V30 2463 N 237.974 -0.419461 -1.51915 0
M  V30 2464 C 238.904 0.391813 -2.30189 0
M  V30 2465 C 239.885 1.03699 -1.34836 0
M  V30 2466 O 241.07 1.04403 -1.63748 0
M  V30 2467 C 238.2 1.50312 -3.13087 0
M  V30 2468 C 237.154 0.9824 -4.16573 0
M  V30 2469 C 236.48 2.18809 -4.8788 0
M  V30 2470 C 237.78 0.0292356 -5.22292 0
M  V30 2471 H 239.474 -0.26135 -2.98257 0
M  V30 2472 H 237.02 -0.127134 -1.43438 0
M  V30 2473 H 238.973 2.07773 -3.66617 0
M  V30 2474 H 237.697 2.18431 -2.42807 0
M  V30 2475 H 236.356 0.430119 -3.64068 0
M  V30 2476 H 236.004 2.85507 -4.14119 0
M  V30 2477 H 235.704 1.84615 -5.57845 0
M  V30 2478 H 237.228 2.76858 -5.44226 0
M  V30 2479 H 238.642 0.512976 -5.71 0
M  V30 2480 H 237.039 -0.2244 -5.9968 0
M  V30 2481 H 238.109 -0.912931 -4.76228 0
M  V30 2482 N 239.452 1.56882 -0.150215 0
M  V30 2483 C 240.863 1.82995 0.370076 0
M  V30 2484 C 241.214 1.06907 1.64515 0
M  V30 2485 O 240.339 0.315369 2.1409 0
M  V30 2486 C 240.934 3.31942 0.678208 0
M  V30 2487 C 239.493 3.58625 1.14301 0
M  V30 2488 C 238.64 2.76792 0.167778 0
M  V30 2489 H 241.591 1.54209 -0.374858 0
M  V30 2490 H 241.612 3.48272 1.53254 0
M  V30 2491 H 241.124 3.87294 -0.249991 0
M  V30 2492 H 239.225 3.08664 2.08704 0
M  V30 2493 H 239.338 4.67073 1.06676 0
M  V30 2494 H 237.702 2.45972 0.661037 0
M  V30 2495 H 238.485 3.34916 -0.754069 0
M  V30 2496 N 240.93 -0.123565 1.57115 0
M  V30 2497 C 242.158 -0.846461 1.88793 0
M  V30 2498 C 242.573 -1.73652 0.740976 0
M  V30 2499 O 241.93 -1.80207 -0.288393 0
M  V30 2500 C 241.981 -1.6837 3.19897 0
M  V30 2501 O 241.702 -0.829477 4.30176 0
M  V30 2502 C 243.203 -2.51214 3.65248 0
M  V30 2503 H 240.423 -0.243573 0.625231 0
M  V30 2504 H 242.967 -0.109324 2.04208 0
M  V30 2505 H 241.122 -2.37364 3.06165 0
M  V30 2506 H 241.536 -1.40651 5.0529 0
M  V30 2507 H 243.01 -3.05497 4.59756 0
M  V30 2508 H 243.487 -3.28359 2.9168 0
M  V30 2509 H 244.093 -1.8747 3.81752 0
M  V30 2510 N 242.408 -1.52605 -0.393616 0
M  V30 2511 C 243.636 -1.71294 -1.16043 0
M  V30 2512 C 244.051 -0.429259 -1.83855 0
M  V30 2513 O 243.408 0.595921 -1.72496 0
M  V30 2514 C 243.459 -2.8593 -2.21193 0
M  V30 2515 O 243.18 -4.09329 -1.56146 0
M  V30 2516 C 244.681 -3.16259 -3.10636 0
M  V30 2517 H 241.901 -0.573641 -0.348104 0
M  V30 2518 H 244.445 -1.99234 -0.461092 0
M  V30 2519 H 242.6 -2.60465 -2.86769 0
M  V30 2520 H 243.014 -4.73323 -2.25978 0
M  V30 2521 H 244.488 -3.99946 -3.80456 0
M  V30 2522 H 244.965 -2.3045 -3.73884 0
M  V30 2523 H 245.571 -3.43547 -2.50711 0
M  V30 2524 N 243.887 0.651787 -1.4349 0
M  V30 2525 C 245.112 1.44434 -1.48841 0
M  V30 2526 C 245.537 1.8779 -0.107955 0
M  V30 2527 O 244.895 1.57464 0.898602 0
M  V30 2528 C 244.943 2.65458 -2.44059 0
M  V30 2529 O 244.047 3.64566 -1.92784 0
M  V30 2530 H 243.388 0.433005 -0.503391 0
M  V30 2531 H 245.918 0.797451 -1.88419 0
M  V30 2532 H 245.928 3.13255 -2.6141 0
M  V30 2533 H 244.603 2.33244 -3.4434 0
M  V30 2534 H 243.18 3.23716 -1.851 0
M  V30 2535 N 245.365 1.30045 0.890287 0
M  V30 2536 C 246.328 1.15963 1.977 0
M  V30 2537 C 247.328 0.0923777 1.60534 0
M  V30 2538 O 248.518 0.340071 1.70848 0
M  V30 2539 C 245.65 0.775451 3.31963 0
M  V30 2540 H 246.843 2.12502 2.11619 0
M  V30 2541 H 244.396 1.13366 1.07601 0
M  V30 2542 H 245.131 -0.189671 3.23745 0
M  V30 2543 H 244.916 1.54668 3.60306 0
M  V30 2544 H 246.406 0.700251 4.11687 0
M  V30 2545 N 246.843 -1.10192 1.12674 0
M  V30 2546 C 248.254 -1.63707 0.897604 0
M  V30 2547 C 248.605 -1.87812 -0.567546 0
M  V30 2548 O 247.73 -1.62196 -1.43253 0
M  V30 2549 C 248.325 -2.974 1.62292 0
M  V30 2550 C 246.884 -3.47772 1.43986 0
M  V30 2551 C 246.031 -2.22332 1.65722 0
M  V30 2552 H 248.982 -0.936587 1.28116 0
M  V30 2553 H 249.003 -3.64986 1.07541 0
M  V30 2554 H 248.515 -2.79824 2.68924 0
M  V30 2555 H 246.616 -3.70487 0.396206 0
M  V30 2556 H 246.729 -4.25723 2.19765 0
M  V30 2557 H 245.093 -2.30599 1.08149 0
M  V30 2558 H 245.876 -2.07285 2.73657 0
M  V30 2559 N 248.321 -0.919034 -1.28029 0
M  V30 2560 C 249.284 -0.416182 -2.2539 0
M  V30 2561 C 250.284 0.460438 -1.54067 0
M  V30 2562 O 251.474 0.262744 -1.72207 0
M  V30 2563 C 248.606 0.402707 -3.38513 0
M  V30 2564 H 249.799 -1.27629 -2.71387 0
M  V30 2565 H 247.352 -0.698919 -1.39803 0
M  V30 2566 H 248.087 1.282 -2.97885 0
M  V30 2567 H 247.872 -0.225698 -3.9145 0
M  V30 2568 H 249.362 0.745191 -4.10897 0
M  V30 2569 N 249.799 1.42003 -0.683588 0
M  V30 2570 C 251.024 2.06265 -0.216647 0
M  V30 2571 C 251.449 1.51059 1.12083 0
M  V30 2572 O 250.807 0.632638 1.69904 0
M  V30 2573 C 250.855 3.60191 -0.171759 0
M  V30 2574 O 249.959 4.03396 0.857069 0
M  V30 2575 H 249.3 0.65502 -0.108834 0
M  V30 2576 H 251.83 1.81982 -0.935077 0
M  V30 2577 H 251.84 4.08 0.0014303 0
M  V30 2578 H 250.515 3.99743 -1.14796 0
M  V30 2579 H 249.092 3.67117 0.654208 0
M  V30 2580 N 251.277 0.427512 1.51691 0
M  V30 2581 C 252.24 -0.377132 2.26076 0
M  V30 2582 C 253.24 -0.958089 1.29141 0
M  V30 2583 O 254.43 -0.83408 1.52934 0
M  V30 2584 C 251.562 -1.53262 3.04506 0
M  V30 2585 H 252.755 0.27464 2.9864 0
M  V30 2586 H 250.308 0.180445 1.55255 0
M  V30 2587 H 251.043 -2.22072 2.36335 0
M  V30 2588 H 250.828 -1.12232 3.75694 0
M  V30 2589 H 252.318 -2.10135 3.60878 0
M  V30 2590 N 252.755 -1.56801 0.158532 0
M  V30 2591 C 254.166 -1.83189 -0.360366 0
M  V30 2592 C 254.517 -1.07778 -1.63946 0
M  V30 2593 O 253.642 -0.326718 -2.13919 0
M  V30 2594 C 254.237 -3.32297 -0.660595 0
M  V30 2595 C 252.796 -3.59227 -1.12398 0
M  V30 2596 C 251.943 -2.76877 -0.153097 0
M  V30 2597 H 254.894 -1.54008 0.383031 0
M  V30 2598 H 254.915 -3.4908 -1.51405 0
M  V30 2599 H 254.427 -3.87156 0.270527 0
M  V30 2600 H 252.528 -3.09766 -2.07064 0
M  V30 2601 H 252.641 -4.67632 -1.04197 0
M  V30 2602 H 251.005 -2.46319 -0.647983 0
M  V30 2603 H 251.788 -3.34511 0.77182 0
M  V30 2604 N 254.233 0.115231 -1.57178 0
M  V30 2605 C 255.458 0.840354 -1.89612 0
M  V30 2606 C 255.883 1.72464 -0.750845 0
M  V30 2607 O 255.241 1.78826 0.298478 0
M  V30 2608 C 255.289 1.64654 -3.20814 0
M  V30 2609 O 254.393 2.7538 -3.06985 0
M  V30 2610 H 253.734 0.232158 -0.622092 0
M  V30 2611 H 256.264 0.0964977 -2.04372 0
M  V30 2612 H 256.274 2.03499 -3.53627 0
M  V30 2613 H 254.949 0.997416 -4.03763 0
M  V30 2614 H 253.526 2.3971 -2.85646 0
M  V30 2615 N 255.711 1.52812 0.385517 0
M  V30 2616 C 256.659 1.78482 1.49155 0
M  V30 2617 C 257.653 0.652914 1.56312 0
M  V30 2618 O 258.859 0.835464 1.59436 0
M  V30 2619 H 255.234 0.5648 0.496493 0
M  V30 2620 H 257.205 2.71095 1.24699 0
M  V30 2621 C 255.954 1.97378 2.86247 0
M  V30 2622 H 255.277 2.83907 2.81491 0
M  V30 2623 H 256.717 2.19327 3.62866 0
M  V30 2624 C 255.176 0.74728 3.28508 0
M  V30 2625 O 255.706 -0.0736232 4.01633 0
M  V30 2626 N 253.912 0.576396 2.84826 0
M  V30 2627 H 253.459 1.24555 2.25486 0
M  V30 2628 H 253.417 -0.24288 3.1346 0
M  V30 2629 N 257.189 -0.644168 1.43834 0
M  V30 2630 C 258.437 -1.40117 1.45642 0
M  V30 2631 C 258.758 -1.94814 0.0852413 0
M  V30 2632 O 258.028 -1.74988 -0.880688 0
M  V30 2633 H 256.608 -0.52005 0.536243 0
M  V30 2634 H 259.27 -0.7591 1.7951 0
M  V30 2635 H 258.366 -2.23902 2.17427 0
M  V30 2636 N 258.668 -1.30515 -0.883378 0
M  V30 2637 C 259.616 -1.16941 -2.01066 0
M  V30 2638 C 260.61 -0.0809148 -1.69207 0
M  V30 2639 O 261.816 -0.241877 -1.78367 0
M  V30 2640 H 258.191 -0.361705 -0.659298 0
M  V30 2641 H 260.162 -2.12344 -2.09649 0
M  V30 2642 C 258.911 -0.879694 -3.36388 0
M  V30 2643 H 258.234 -1.70936 -3.61415 0
M  V30 2644 H 259.674 -0.82483 -4.159 0
M  V30 2645 C 258.133 0.417409 -3.34304 0
M  V30 2646 O 258.663 1.43843 -3.75063 0
M  V30 2647 N 256.869 0.429141 -2.87414 0
M  V30 2648 H 256.416 -0.402222 -2.5444 0
M  V30 2649 H 256.374 1.29696 -2.86403 0
M  V30 2650 N 260.146 1.09593 -1.13257 0
M  V30 2651 C 261.386 1.83349 -0.903472 0
M  V30 2652 C 261.75 1.83641 0.560351 0
M  V30 2653 O 262.951 2.53037 0.906947 0
M  V30 2654 C 261.222 3.25629 -1.47311 0
M  V30 2655 S 262.781 4.16408 -1.38382 0
M  V30 2656 H 259.599 0.632014 -0.325699 0
M  V30 2657 H 262.201 1.31817 -1.44376 0
M  V30 2658 H 260.905 3.22991 -2.53189 0
M  V30 2659 H 260.436 3.82233 -0.930689 0
M  V30 2660 H 262.451 4.94884 -0.361113 0
M  V30 2661 N 261.624 0.925811 1.2754 0
M  V30 2662 C 262.849 0.580924 1.99098 0
M  V30 2663 C 263.274 -0.833555 1.68622 0
M  V30 2664 O 262.632 -1.55903 0.925422 0
M  V30 2665 C 262.68 0.811186 3.51358 0
M  V30 2666 O 261.784 -0.124129 4.12213 0
M  V30 2667 H 261.125 0.223873 0.625122 0
M  V30 2668 H 263.655 1.24455 1.62395 0
M  V30 2669 H 263.665 0.72601 4.01489 0
M  V30 2670 H 262.34 1.84227 3.72872 0
M  V30 2671 H 260.917 0.0108006 3.72898 0
M  V30 2672 N 263.102 -1.41638 0.69111 0
M  V30 2673 C 264.327 -2.06148 0.227583 0
M  V30 2674 C 264.752 -1.51652 -1.11281 0
M  V30 2675 O 264.11 -0.64164 -1.69566 0
M  V30 2676 C 264.158 -3.60095 0.190858 0
M  V30 2677 O 263.262 -4.03845 -0.835664 0
M  V30 2678 H 262.603 -0.654434 0.112306 0
M  V30 2679 H 265.133 -1.81484 0.944714 0
M  V30 2680 H 265.143 -4.07995 0.020207 0
M  V30 2681 H 263.818 -3.99129 1.16915 0
M  V30 2682 H 262.395 -3.67458 -0.63473 0
M  V30 2683 N 264.58 -0.43555 -1.51462 0
M  V30 2684 C 265.81 0.130053 -2.0619 0
M  V30 2685 C 266.218 1.37164 -1.30317 0
M  V30 2686 O 265.561 1.80225 -0.355598 0
M  V30 2687 C 265.623 0.519418 -3.55728 0
M  V30 2688 C 265.287 -0.615119 -4.52841 0
M  V30 2689 C 266.284 -1.48671 -4.9819 0
M  V30 2690 C 263.969 -0.795341 -4.95963 0
M  V30 2691 C 265.963 -2.52324 -5.8533 0
M  V30 2692 C 263.65 -1.83514 -5.82894 0
M  V30 2693 C 264.648 -2.69748 -6.27475 0
M  V30 2694 O 264.336 -3.71944 -7.1268 0
M  V30 2695 H 264.068 0.0121612 -0.675891 0
M  V30 2696 H 266.622 -0.6129 -1.96043 0
M  V30 2697 H 264.852 1.31505 -3.63653 0
M  V30 2698 H 266.541 1.01597 -3.92979 0
M  V30 2699 H 267.307 -1.359 -4.65571 0
M  V30 2700 H 263.186 -0.133713 -4.60806 0
M  V30 2701 H 266.73 -3.19665 -6.20048 0
M  V30 2702 H 262.627 -1.96306 -6.14926 0
M  V30 2703 H 263.395 -3.68503 -7.30854 0
M  V30 2704 N 266.058 1.56714 -0.166846 0
M  V30 2705 C 267.286 2.0112 0.485644 0
M  V30 2706 C 267.701 1.04705 1.57106 0
M  V30 2707 O 267.058 0.0471923 1.82439 0
M  V30 2708 C 267.109 3.45361 1.06808 0
M  V30 2709 O 266.83 4.38092 0.0259995 0
M  V30 2710 C 268.331 4.05145 1.79924 0
M  V30 2711 H 265.551 0.65931 0.124704 0
M  V30 2712 H 268.095 2.02746 -0.267262 0
M  V30 2713 H 266.25 3.44524 1.7715 0
M  V30 2714 H 266.664 5.22519 0.455398 0
M  V30 2715 H 268.138 5.08009 2.15942 0
M  V30 2716 H 268.615 3.46982 2.69258 0
M  V30 2717 H 269.221 4.09672 1.14234 0
M  V30 2718 N 267.536 -0.106894 1.57237 0
M  V30 2719 C 268.446 -1.14911 2.0453 0
M  V30 2720 C 269.462 -1.44592 0.96795 0
M  V30 2721 O 270.638 -1.55468 1.2803 0
M  V30 2722 C 267.703 -2.45272 2.45036 0
M  V30 2723 C 266.764 -2.22879 3.66911 0
M  V30 2724 C 265.997 -3.47024 4.05475 0
M  V30 2725 O 266.22 -4.54804 3.44252 0
M  V30 2726 O 265.154 -3.3731 4.98504 0
M  V30 2727 H 268.98 -0.777461 2.9358 0
M  V30 2728 H 266.565 -0.318563 1.45964 0
M  V30 2729 H 268.447 -3.22055 2.71769 0
M  V30 2730 H 267.122 -2.81886 1.59129 0
M  V30 2731 H 266.029 -1.43915 3.45311 0
M  V30 2732 H 267.362 -1.91163 4.53561 0
M  V30 2733 N 269.014 -1.53014 -0.377408 0
M  V30 2734 C 270.242 -1.72515 -1.14219 0
M  V30 2735 C 270.657 -0.448735 -1.8339 0
M  V30 2736 O 270.014 0.577592 -1.73119 0
M  V30 2737 C 270.065 -2.8826 -2.18148 0
M  V30 2738 O 269.786 -4.10962 -1.51795 0
M  V30 2739 C 271.287 -3.19536 -3.07264 0
M  V30 2740 H 268.507 -0.577301 -0.342001 0
M  V30 2741 H 271.051 -1.99712 -0.439935 0
M  V30 2742 H 269.206 -2.63492 -2.83991 0
M  V30 2743 H 269.62 -4.75693 -2.20945 0
M  V30 2744 H 271.094 -4.03959 -3.76193 0
M  V30 2745 H 271.571 -2.34403 -3.71419 0
M  V30 2746 H 272.177 -3.46186 -2.47053 0
M  V30 2747 N 270.492 0.636531 -1.44174 0
M  V30 2748 C 271.424 1.7618 -1.46606 0
M  V30 2749 C 272.437 1.58768 -0.360091 0
M  V30 2750 O 273.626 1.67181 -0.625518 0
M  V30 2751 C 270.726 3.13833 -1.27915 0
M  V30 2752 C 269.899 3.57753 -2.51658 0
M  V30 2753 C 268.958 4.74265 -2.27945 0
M  V30 2754 O 267.984 4.82852 -3.01401 0
M  V30 2755 N 269.186 5.65604 -1.30662 0
M  V30 2756 H 271.951 1.74567 -2.43612 0
M  V30 2757 H 269.512 0.820924 -1.39544 0
M  V30 2758 H 271.504 3.8949 -1.09907 0
M  V30 2759 H 270.074 3.10121 -0.39293 0
M  V30 2760 H 269.294 2.72362 -2.84978 0
M  V30 2761 H 270.582 3.83847 -3.33974 0
M  V30 2762 H 269.98 5.61354 -0.699844 0
M  V30 2763 H 268.537 6.40913 -1.18634 0
M  V30 2764 N 271.97 1.30982 0.876444 0
M  V30 2765 C 272.92 1.14688 1.97055 0
M  V30 2766 C 273.904 0.0596593 1.60789 0
M  V30 2767 O 275.096 0.283892 1.74708 0
M  V30 2768 C 272.225 0.849627 3.3262 0
M  V30 2769 C 271.311 1.97752 3.75173 0
M  V30 2770 N 271.702 3.22384 3.89746 0
M  V30 2771 C 270 1.8758 4.04635 0
M  V30 2772 C 270.701 3.96121 4.25985 0
M  V30 2773 N 269.677 3.24237 4.36315 0
M  V30 2774 H 273.479 2.09204 2.06424 0
M  V30 2775 H 270.993 1.22445 1.06682 0
M  V30 2776 H 272.99 0.713895 4.10742 0
M  V30 2777 H 271.65 -0.087376 3.24582 0
M  V30 2778 H 272.661 3.57575 3.74647 0
M  V30 2779 H 269.338 1.01303 4.05024 0
M  V30 2780 H 270.728 5.03491 4.44911 0
M  V30 2781 N 273.449 -1.08991 1.13837 0
M  V30 2782 C 274.379 -2.17771 0.842507 0
M  V30 2783 C 275.36 -1.6892 -0.20001 0
M  V30 2784 O 276.545 -1.94113 -0.0579731 0
M  V30 2785 C 273.675 -3.4589 0.312644 0
M  V30 2786 C 272.629 -4.08099 1.28992 0
M  V30 2787 C 271.955 -5.31098 0.619623 0
M  V30 2788 C 273.255 -4.50077 2.65005 0
M  V30 2789 H 274.949 -2.42777 1.75213 0
M  V30 2790 H 272.495 -1.16682 0.843875 0
M  V30 2791 H 274.448 -4.21297 0.0933043 0
M  V30 2792 H 273.172 -3.20419 -0.632382 0
M  V30 2793 H 271.831 -3.34717 1.49533 0
M  V30 2794 H 271.479 -5.0191 -0.33102 0
M  V30 2795 H 271.179 -5.73674 1.27167 0
M  V30 2796 H 272.703 -6.09224 0.409669 0
M  V30 2797 H 274.117 -5.16688 2.48407 0
M  V30 2798 H 272.514 -5.03553 3.26427 0
M  V30 2799 H 273.584 -3.62257 3.22332 0
M  V30 2800 N 274.927 -0.932562 -1.27047 0
M  V30 2801 C 276.152 -0.591474 -1.98787 0
M  V30 2802 C 276.577 0.824601 -1.69062 0
M  V30 2803 O 275.935 1.5541 -0.933677 0
M  V30 2804 C 275.983 -0.829808 -3.50922 0
M  V30 2805 O 275.087 0.102266 -4.12273 0
M  V30 2806 H 274.428 -0.227185 -0.623926 0
M  V30 2807 H 276.958 -1.25314 -1.61733 0
M  V30 2808 H 276.968 -0.747292 -4.01098 0
M  V30 2809 H 275.643 -1.86201 -3.7189 0
M  V30 2810 H 274.22 -0.0305761 -3.72887 0
M  V30 2811 N 276.405 1.4127 -0.698611 0
M  V30 2812 C 277.651 2.01478 -0.231207 0
M  V30 2813 C 277.984 1.55215 1.16713 0
M  V30 2814 O 277.259 0.764672 1.78838 0
M  V30 2815 C 277.542 3.58912 -0.292281 0
M  V30 2816 C 277.395 4.15293 -1.72778 0
M  V30 2817 C 278.714 4.38736 0.346194 0
M  V30 2818 H 275.833 0.732025 -0.0854878 0
M  V30 2819 H 278.475 1.67977 -0.887906 0
M  V30 2820 H 276.625 3.87582 0.26686 0
M  V30 2821 H 278.297 3.97486 -2.341 0
M  V30 2822 H 276.54 3.7022 -2.26096 0
M  V30 2823 H 277.211 5.24452 -1.72202 0
M  V30 2824 H 279.687 4.15897 -0.130035 0
M  V30 2825 H 278.563 5.48221 0.272932 0
M  V30 2826 H 278.824 4.18425 1.42734 0
M  V30 2827 N 277.883 0.443576 1.51229 0
M  V30 2828 C 279.129 -0.120975 2.02439 0
M  V30 2829 C 279.462 -1.41815 1.32674 0
M  V30 2830 O 278.737 -1.89373 0.443622 0
M  V30 2831 C 279.02 -0.333291 3.58554 0
M  V30 2832 C 278.873 0.982968 4.38928 0
M  V30 2833 C 280.192 -1.10028 4.26124 0
M  V30 2834 H 277.311 -0.0424923 0.735774 0
M  V30 2835 H 279.953 0.583794 1.80809 0
M  V30 2836 H 278.103 -0.933614 3.77115 0
M  V30 2837 H 279.775 1.61775 4.32003 0
M  V30 2838 H 278.018 1.58611 4.03763 0
M  V30 2839 H 278.689 0.788379 5.46341 0
M  V30 2840 H 281.165 -0.591711 4.11871 0
M  V30 2841 H 280.041 -1.21761 5.35225 0
M  V30 2842 H 280.302 -2.12996 3.87408 0
M  V30 2843 N 279.361 -1.56624 0.175154 0
M  V30 2844 C 280.609 -1.96609 -0.467885 0
M  V30 2845 C 280.93 -1.06238 -1.63519 0
M  V30 2846 O 280.2 -0.129523 -1.95471 0
M  V30 2847 H 278.78 -0.726008 -0.175845 0
M  V30 2848 H 281.442 -1.93195 0.257234 0
M  V30 2849 H 280.538 -3.00989 -0.825342 0
M  V30 2850 N 280.839 0.0985539 -1.57292 0
M  V30 2851 C 282.088 0.801358 -1.85098 0
M  V30 2852 C 282.401 1.80066 -0.763902 0
M  V30 2853 O 283.607 2.55112 -0.928981 0
M  V30 2854 C 282.063 1.47599 -3.28242 0
M  V30 2855 C 281.671 0.516624 -4.45011 0
M  V30 2856 C 283.415 2.16272 -3.65276 0
M  V30 2857 C 281.322 1.19564 -5.79188 0
M  V30 2858 H 280.252 0.303022 -0.69043 0
M  V30 2859 H 282.903 0.0542623 -1.8342 0
M  V30 2860 H 281.285 2.27042 -3.2445 0
M  V30 2861 H 282.459 -0.246065 -4.60143 0
M  V30 2862 H 280.774 -0.064227 -4.1635 0
M  V30 2863 H 283.371 2.67802 -4.62803 0
M  V30 2864 H 283.714 2.95009 -2.93727 0
M  V30 2865 H 284.247 1.43693 -3.70941 0
M  V30 2866 H 280.986 0.449157 -6.53959 0
M  V30 2867 H 280.506 1.92984 -5.67906 0
M  V30 2868 H 282.185 1.7231 -6.23633 0
M  V30 2869 N 282.317 1.53212 0.369288 0
M  V30 2870 C 283.25 1.74166 1.4745 0
M  V30 2871 C 284.228 0.589923 1.51521 0
M  V30 2872 O 285.412 0.822078 1.69629 0
M  V30 2873 C 282.539 1.81711 2.8583 0
M  V30 2874 C 281.585 3.03649 2.99499 0
M  V30 2875 S 282.418 4.63242 2.6864 0
M  V30 2876 C 283.574 4.7363 4.09177 0
M  V30 2877 H 283.807 2.67636 1.29454 0
M  V30 2878 H 281.34 1.43754 0.563396 0
M  V30 2879 H 283.298 1.86743 3.65564 0
M  V30 2880 H 281.959 0.89299 3.01139 0
M  V30 2881 H 281.152 3.05526 4.00836 0
M  V30 2882 H 280.754 2.9671 2.27683 0
M  V30 2883 H 283.046 4.53456 5.03372 0
M  V30 2884 H 283.989 5.75682 4.12306 0
M  V30 2885 H 284.397 4.02295 3.96004 0
M  V30 2886 N 283.795 -0.628877 1.44509 0
M  V30 2887 C 285.042 -1.38839 1.47411 0
M  V30 2888 C 285.37 -1.94202 0.10757 0
M  V30 2889 O 284.625 -1.74243 -0.890947 0
M  V30 2890 C 284.924 -2.56995 2.48371 0
M  V30 2891 C 284.59 -2.19908 3.93639 0
M  V30 2892 C 283.252 -2.09506 4.33198 0
M  V30 2893 C 285.604 -1.9064 4.85083 0
M  V30 2894 C 282.932 -1.68028 5.62124 0
M  V30 2895 C 285.284 -1.50655 6.14399 0
M  V30 2896 C 283.948 -1.38796 6.5291 0
M  V30 2897 H 283.218 -0.508048 0.539414 0
M  V30 2898 H 285.865 -0.712913 1.77735 0
M  V30 2899 H 284.17 -3.29786 2.11538 0
M  V30 2900 H 285.867 -3.15223 2.47861 0
M  V30 2901 H 282.457 -2.28922 3.62343 0
M  V30 2902 H 286.641 -1.97585 4.55273 0
M  V30 2903 H 281.897 -1.57452 5.90778 0
M  V30 2904 H 286.071 -1.27048 6.84713 0
M  V30 2905 H 283.698 -1.06429 7.52713 0
M  V30 2906 N 285.273 -1.31445 -0.869486 0
M  V30 2907 C 286.519 -1.21337 -1.62496 0
M  V30 2908 C 286.852 0.227872 -1.92858 0
M  V30 2909 O 286.127 1.16094 -1.56053 0
M  V30 2910 C 286.41 -2.05814 -2.95487 0
M  V30 2911 C 286.263 -3.5824 -2.72 0
M  V30 2912 C 287.582 -1.9079 -3.96594 0
M  V30 2913 H 284.701 -0.442135 -0.589649 0
M  V30 2914 H 287.343 -1.6124 -1.00507 0
M  V30 2915 H 285.493 -1.71913 -3.48394 0
M  V30 2916 H 287.165 -4.0228 -2.25762 0
M  V30 2917 H 285.408 -3.81647 -2.06224 0
M  V30 2918 H 286.079 -4.12657 -3.66631 0
M  V30 2919 H 288.555 -2.20459 -3.52898 0
M  V30 2920 H 287.431 -2.52199 -4.87531 0
M  V30 2921 H 287.692 -0.871341 -4.33428 0
M  V30 2922 N 286.751 1.08385 -1.14413 0
M  V30 2923 C 287.714 2.13486 -0.834048 0
M  V30 2924 C 288.714 1.59988 0.161418 0
M  V30 2925 O 289.904 1.74071 -0.0669575 0
M  V30 2926 C 287.036 3.4003 -0.243354 0
M  V30 2927 H 288.229 2.42425 -1.7655 0
M  V30 2928 H 285.782 1.24101 -0.950189 0
M  V30 2929 H 286.517 3.16726 0.696807 0
M  V30 2930 H 286.302 3.80157 -0.960367 0
M  V30 2931 H 287.792 4.17577 -0.0436242 0
M  V30 2932 N 288.23 0.939286 1.26551 0
M  V30 2933 C 289.162 0.404704 2.25599 0
M  V30 2934 C 290.175 -0.470983 1.55838 0
M  V30 2935 O 291.364 -0.281734 1.76263 0
M  V30 2936 C 288.464 -0.43764 3.36062 0
M  V30 2937 C 287.637 0.421449 4.35365 0
M  V30 2938 C 286.696 -0.36015 5.24966 0
M  V30 2939 O 285.722 0.236167 5.6871 0
M  V30 2940 N 286.924 -1.65715 5.56344 0
M  V30 2941 H 289.689 1.25618 2.72103 0
M  V30 2942 H 287.25 0.807963 1.40298 0
M  V30 2943 H 289.242 -0.967866 3.92956 0
M  V30 2944 H 287.812 -1.18991 2.89067 0
M  V30 2945 H 287.032 1.1329 3.7757 0
M  V30 2946 H 288.32 1.00835 4.98708 0
M  V30 2947 H 287.718 -2.16378 5.22682 0
M  V30 2948 H 286.275 -2.13366 6.15888 0
M  V30 2949 N 289.708 -1.40897 0.706093 0
M  V30 2950 C 290.936 -2.05373 0.250887 0
M  V30 2951 C 291.351 -1.53172 -1.10381 0
M  V30 2952 O 290.708 -0.684305 -1.69185 0
M  V30 2953 C 290.759 -3.6088 0.211571 0
M  V30 2954 O 290.48 -4.11153 1.51276 0
M  V30 2955 C 291.981 -4.42517 -0.263346 0
M  V30 2956 H 289.201 -0.66115 0.114552 0
M  V30 2957 H 291.745 -1.80479 0.961635 0
M  V30 2958 H 289.9 -3.84777 -0.450073 0
M  V30 2959 H 290.314 -5.05279 1.40689 0
M  V30 2960 H 291.788 -5.51479 -0.239718 0
M  V30 2961 H 292.265 -4.19396 -1.30397 0
M  V30 2962 H 292.871 -4.23708 0.367677 0
M  V30 2963 N 291.186 -0.45159 -1.50991 0
M  V30 2964 C 292.116 0.342898 -2.30969 0
M  V30 2965 C 293.097 1.00815 -1.37005 0
M  V30 2966 O 294.282 1.00907 -1.65926 0
M  V30 2967 C 291.412 1.43637 -3.16205 0
M  V30 2968 C 290.366 0.893818 -4.18563 0
M  V30 2969 C 289.692 2.08411 -4.92411 0
M  V30 2970 C 290.992 -0.0815568 -5.22236 0
M  V30 2971 H 292.686 -0.324556 -2.97636 0
M  V30 2972 H 290.232 -0.157531 -1.43136 0
M  V30 2973 H 292.185 1.9995 -3.70942 0
M  V30 2974 H 290.909 2.13232 -2.47386 0
M  V30 2975 H 289.568 0.352798 -3.64898 0
M  V30 2976 H 289.216 2.76658 -4.20082 0
M  V30 2977 H 288.916 1.72741 -5.61636 0
M  V30 2978 H 290.44 2.65251 -5.49976 0
M  V30 2979 H 291.854 0.391742 -5.7196 0
M  V30 2980 H 290.251 -0.351551 -5.99069 0
M  V30 2981 H 291.321 -1.01374 -4.74185 0
M  V30 2982 N 292.664 1.56529 -0.183458 0
M  V30 2983 C 293.594 2.21549 0.737456 0
M  V30 2984 C 294.575 1.17489 1.23005 0
M  V30 2985 O 295.76 1.45959 1.281 0
M  V30 2986 C 292.89 2.86575 1.96194 0
M  V30 2987 C 291.844 3.96778 1.60473 0
M  V30 2988 C 291.17 4.48911 2.90487 0
M  V30 2989 C 292.47 5.15767 0.823497 0
M  V30 2990 H 294.164 2.98761 0.195453 0
M  V30 2991 H 291.71 1.43702 0.0925686 0
M  V30 2992 H 293.663 3.30739 2.61131 0
M  V30 2993 H 292.387 2.06749 2.52828 0
M  V30 2994 H 291.046 3.53286 0.978997 0
M  V30 2995 H 290.694 3.65862 3.45186 0
M  V30 2996 H 290.394 5.23265 2.67335 0
M  V30 2997 H 291.918 4.95771 3.56432 0
M  V30 2998 H 293.332 5.56549 1.37571 0
M  V30 2999 H 291.729 5.96114 0.690551 0
M  V30 3000 H 292.799 4.84574 -0.177782 0
M  V30 3001 N 294.142 -0.090211 1.57342 0
M  V30 3002 C 295.39 -0.791241 1.85967 0
M  V30 3003 C 295.711 -1.7903 0.772859 0
M  V30 3004 O 294.981 -1.94872 -0.200398 0
M  V30 3005 H 293.561 -0.295205 0.686195 0
M  V30 3006 H 296.223 -0.0706782 1.94772 0
M  V30 3007 H 295.319 -1.31882 2.82867 0
M  V30 3008 N 295.62 -1.53406 -0.361157 0
M  V30 3009 C 296.866 -1.70054 -1.10496 0
M  V30 3010 C 297.199 -0.453278 -1.88836 0
M  V30 3011 O 296.474 0.5495 -1.86576 0
M  V30 3012 C 296.757 -2.95317 -2.06058 0
M  V30 3013 C 296.61 -4.3021 -1.31298 0
M  V30 3014 C 297.929 -3.16193 -3.06121 0
M  V30 3015 H 295.048 -0.618799 -0.400321 0
M  V30 3016 H 297.69 -1.86052 -0.385318 0
M  V30 3017 H 295.84 -2.81809 -2.67425 0
M  V30 3018 H 297.512 -4.55538 -0.726807 0
M  V30 3019 H 295.755 -4.29421 -0.614853 0
M  V30 3020 H 296.426 -5.14 -2.01265 0
M  V30 3021 H 298.902 -3.28916 -2.5486 0
M  V30 3022 H 297.778 -4.05266 -3.70204 0
M  V30 3023 H 298.039 -2.31676 -3.76535 0
M  V30 3024 N 297.098 0.621204 -1.44841 0
M  V30 3025 C 298.346 1.37783 -1.47852 0
M  V30 3026 C 298.667 1.94653 -0.116224 0
M  V30 3027 O 297.937 1.76367 0.852737 0
M  V30 3028 H 296.517 0.511453 -0.544449 0
M  V30 3029 H 299.179 0.730446 -1.80694 0
M  V30 3030 H 298.275 2.20414 -2.20961 0
M  V30 3031 N 298.576 1.31904 0.862503 0
M  V30 3032 C 299.824 1.21776 1.61292 0
M  V30 3033 C 300.145 -0.222413 1.93727 0
M  V30 3034 O 299.415 -1.1451 1.58947 0
M  V30 3035 H 297.995 0.447717 0.597962 0
M  V30 3036 H 300.657 1.65326 1.03215 0
M  V30 3037 H 299.753 1.7948 2.5533 0
M  V30 3038 N 300.054 -1.07777 1.14986 0
M  V30 3039 C 301.3 -1.80557 0.923422 0
M  V30 3040 C 301.633 -1.86298 -0.548337 0
M  V30 3041 O 300.908 -1.34354 -1.40639 0
M  V30 3042 C 301.191 -3.25839 1.53299 0
M  V30 3043 C 301.044 -3.28269 3.07505 0
M  V30 3044 C 302.363 -4.22991 1.21518 0
M  V30 3045 H 299.482 -0.655493 0.336894 0
M  V30 3046 H 302.124 -1.26144 1.42083 0
M  V30 3047 H 300.274 -3.72306 1.10999 0
M  V30 3048 H 301.946 -2.90079 3.58681 0
M  V30 3049 H 300.189 -2.67355 3.4162 0
M  V30 3050 H 300.86 -4.30691 3.45266 0
M  V30 3051 H 303.336 -3.84894 1.581 0
M  V30 3052 H 302.212 -5.22945 1.66793 0
M  V30 3053 H 302.473 -4.41904 0.131505 0
M  V30 3054 N 301.532 -0.945985 -1.26051 0
M  V30 3055 C 302.943 -0.638096 -1.75457 0
M  V30 3056 C 303.294 0.846672 -1.76991 0
M  V30 3057 O 302.419 1.66262 -1.38513 0
M  V30 3058 C 303.014 -1.15157 -3.18629 0
M  V30 3059 C 301.573 -0.894004 -3.65629 0
M  V30 3060 C 300.72 -1.29967 -2.44957 0
M  V30 3061 H 303.671 -1.12376 -1.1206 0
M  V30 3062 H 303.692 -0.507615 -3.77099 0
M  V30 3063 H 303.204 -2.23222 -3.1748 0
M  V30 3064 H 301.305 0.172057 -3.72203 0
M  V30 3065 H 301.418 -1.52439 -4.54202 0
M  V30 3066 H 299.782 -0.718078 -2.44368 0
M  V30 3067 H 300.565 -2.38935 -2.46505 0
M  V30 3068 N 303.011 1.40521 -0.713556 0
M  V30 3069 C 304.26 2.00155 -0.249192 0
M  V30 3070 C 304.573 1.57224 1.16362 0
M  V30 3071 O 305.779 2.09542 1.72639 0
M  V30 3072 C 304.235 3.5773 -0.3946 0
M  V30 3073 C 303.843 4.09635 -1.81392 0
M  V30 3074 C 305.587 4.24499 0.00907364 0
M  V30 3075 C 303.494 5.59707 -1.91003 0
M  V30 3076 H 302.424 0.74868 -0.0894114 0
M  V30 3077 H 305.075 1.60784 -0.884352 0
M  V30 3078 H 303.457 3.94792 0.30911 0
M  V30 3079 H 304.631 3.83955 -2.54785 0
M  V30 3080 H 302.946 3.55456 -2.16888 0
M  V30 3081 H 305.543 5.34683 -0.0420404 0
M  V30 3082 H 305.886 4.02824 1.05065 0
M  V30 3083 H 306.419 3.92536 -0.645007 0
M  V30 3084 H 303.158 5.86234 -2.93275 0
M  V30 3085 H 302.678 5.87258 -1.22019 0
M  V30 3086 H 304.357 6.24776 -1.6812 0
M  V30 3087 N 304.489 0.459591 1.5075 0
M  V30 3088 C 305.421 -0.37665 2.26084 0
M  V30 3089 C 306.434 -0.967109 1.30961 0
M  V30 3090 O 307.623 -0.857468 1.56556 0
M  V30 3091 C 304.723 -1.54112 3.01832 0
M  V30 3092 C 303.896 -1.06553 4.24223 0
M  V30 3093 C 302.955 -2.1027 4.82362 0
M  V30 3094 O 301.981 -1.68798 5.43595 0
M  V30 3095 N 303.183 -3.42974 4.68347 0
M  V30 3096 H 305.948 0.269124 2.98489 0
M  V30 3097 H 303.509 0.28972 1.59287 0
M  V30 3098 H 305.501 -2.23165 3.37608 0
M  V30 3099 H 304.071 -2.0918 2.32298 0
M  V30 3100 H 303.291 -0.201274 3.93686 0
M  V30 3101 H 304.579 -0.725516 5.03601 0
M  V30 3102 H 303.977 -3.79385 4.19623 0
M  V30 3103 H 302.534 -4.07858 5.08424 0
M  V30 3104 N 305.967 -1.56429 0.191757 0
M  V30 3105 C 307.378 -1.83912 -0.321428 0
M  V30 3106 C 307.729 -1.11231 -1.61623 0
M  V30 3107 O 306.854 -0.37202 -2.13178 0
M  V30 3108 C 307.449 -3.33624 -0.589961 0
M  V30 3109 C 306.008 -3.6153 -1.04753 0
M  V30 3110 C 305.155 -2.7714 -0.0943327 0
M  V30 3111 H 308.106 -1.53161 0.415612 0
M  V30 3112 H 308.127 -3.52213 -1.43966 0
M  V30 3113 H 307.639 -3.86495 0.352588 0
M  V30 3114 H 305.74 -3.14089 -2.00447 0
M  V30 3115 H 305.853 -4.69737 -0.942549 0
M  V30 3116 H 304.217 -2.47638 -0.595589 0
M  V30 3117 H 305 -3.32799 0.842601 0
M  V30 3118 N 307.445 0.0818655 -1.57387 0
M  V30 3119 C 308.692 0.782914 -1.86753 0
M  V30 3120 C 309.02 1.78082 -0.782118 0
M  V30 3121 O 308.275 1.94426 0.22295 0
M  V30 3122 C 308.574 1.53513 -3.22752 0
M  V30 3123 C 308.24 0.678134 -4.45771 0
M  V30 3124 C 306.902 0.441929 -4.79166 0
M  V30 3125 C 309.254 0.0832243 -5.21134 0
M  V30 3126 C 306.582 -0.398833 -5.85343 0
M  V30 3127 C 308.934 -0.744935 -6.28199 0
M  V30 3128 C 307.598 -0.991107 -6.60101 0
M  V30 3129 H 306.868 0.286489 -0.683378 0
M  V30 3130 H 309.515 0.0439808 -1.91449 0
M  V30 3131 H 307.82 2.34599 -3.138 0
M  V30 3132 H 309.517 2.08218 -3.42705 0
M  V30 3133 H 306.107 0.872357 -4.19628 0
M  V30 3134 H 310.291 0.252847 -4.95655 0
M  V30 3135 H 305.547 -0.598405 -6.08465 0
M  V30 3136 H 309.721 -1.21271 -6.8576 0
M  V30 3137 H 307.348 -1.64437 -7.42202 0
M  V30 3138 N 308.923 1.53595 0.353017 0
M  V30 3139 C 310.171 1.70049 1.09215 0
M  V30 3140 C 310.492 0.461406 1.89463 0
M  V30 3141 O 309.762 -0.524633 1.88744 0
M  V30 3142 H 308.342 0.626912 0.40619 0
M  V30 3143 H 311.004 1.90822 0.396585 0
M  V30 3144 H 310.1 2.56718 1.77488 0
M  V30 3145 N 310.401 -0.613514 1.45168 0
M  V30 3146 C 311.65 -1.36874 1.4815 0
M  V30 3147 C 311.963 -1.952 0.124982 0
M  V30 3148 O 313.169 -2.71481 0.0324176 0
M  V30 3149 C 311.625 -2.47905 2.60904 0
M  V30 3150 C 311.233 -1.96016 4.02842 0
M  V30 3151 C 312.977 -3.24965 2.73126 0
M  V30 3152 C 310.884 -3.04494 5.06988 0
M  V30 3153 H 309.814 -0.514428 0.551253 0
M  V30 3154 H 312.465 -0.658182 1.7129 0
M  V30 3155 H 310.847 -3.21618 2.31037 0
M  V30 3156 H 312.021 -1.29051 4.4236 0
M  V30 3157 H 310.336 -1.31719 3.95018 0
M  V30 3158 H 312.933 -4.05865 3.48106 0
M  V30 3159 H 313.276 -3.75588 1.79553 0
M  V30 3160 H 313.809 -2.5835 3.0249 0
M  V30 3161 H 310.548 -2.58795 6.0225 0
M  V30 3162 H 310.068 -3.70044 4.72046 0
M  V30 3163 H 311.747 -3.68976 5.31475 0
M  V30 3164 N 311.879 -1.3236 -0.855495 0
M  V30 3165 C 313.104 -1.2601 -1.64731 0
M  V30 3166 C 313.529 0.169068 -1.87339 0
M  V30 3167 O 312.887 1.12016 -1.42556 0
M  V30 3168 C 312.935 -2.02417 -2.98429 0
M  V30 3169 O 312.039 -1.3714 -3.8893 0
M  V30 3170 H 311.38 -0.434325 -0.502253 0
M  V30 3171 H 313.91 -1.74661 -1.06558 0
M  V30 3172 H 313.92 -2.12559 -3.48257 0
M  V30 3173 H 312.595 -3.06343 -2.81295 0
M  V30 3174 H 311.172 -1.3554 -3.47395 0
M  V30 3175 N 313.357 1.07166 -1.15556 0
M  V30 3176 C 314.587 1.83248 -0.954133 0
M  V30 3177 C 314.995 1.82449 0.500911 0
M  V30 3178 O 314.338 1.23575 1.35923 0
M  V30 3179 C 314.4 3.31393 -1.39351 0
M  V30 3180 C 314.064 3.5591 -2.86666 0
M  V30 3181 C 315.061 3.49695 -3.8472 0
M  V30 3182 C 312.746 3.83515 -3.24379 0
M  V30 3183 C 314.74 3.70737 -5.18491 0
M  V30 3184 C 312.427 4.04209 -4.58321 0
M  V30 3185 C 313.425 3.97815 -5.55186 0
M  V30 3186 O 313.113 4.17954 -6.86709 0
M  V30 3187 H 312.845 0.584941 -0.338851 0
M  V30 3188 H 315.399 1.36169 -1.53777 0
M  V30 3189 H 313.629 3.79292 -0.75329 0
M  V30 3190 H 315.318 3.88945 -1.16089 0
M  V30 3191 H 316.084 3.28368 -3.56931 0
M  V30 3192 H 311.963 3.87605 -2.49567 0
M  V30 3193 H 315.507 3.65663 -5.94085 0
M  V30 3194 H 311.404 4.25023 -4.85825 0
M  V30 3195 H 312.172 4.35291 -6.93155 0
M  V30 3196 N 314.835 0.952656 1.25548 0
M  V30 3197 C 316.084 0.602053 1.92505 0
M  V30 3198 C 316.397 -0.864663 1.75451 0
M  V30 3199 O 317.603 -1.32514 2.36965 0
M  V30 3200 C 316.059 1.02607 3.44963 0
M  V30 3201 C 315.667 2.51519 3.70732 0
M  V30 3202 C 317.411 0.747905 4.1786 0
M  V30 3203 C 315.318 2.87732 5.16686 0
M  V30 3204 H 314.248 0.22146 0.720744 0
M  V30 3205 H 316.899 1.15684 1.42441 0
M  V30 3206 H 315.281 0.399712 3.93978 0
M  V30 3207 H 316.455 3.19157 3.32378 0
M  V30 3208 H 314.77 2.76786 3.11092 0
M  V30 3209 H 317.367 0.994647 5.25367 0
M  V30 3210 H 317.71 -0.315629 4.15102 0
M  V30 3211 H 318.243 1.33452 3.74747 0
M  V30 3212 H 314.982 3.93095 5.24554 0
M  V30 3213 H 314.502 2.24765 5.56094 0
M  V30 3214 H 316.181 2.76817 5.84792 0
M  V30 3215 N 316.313 -1.40141 0.720998 0
M  V30 3216 C 317.59 -1.94677 0.189757 0
M  V30 3217 C 317.97 -1.65879 -1.30566 0
M  V30 3218 O 317.318 -0.979391 -2.06447 0
M  V30 3219 C 317.528 -3.45279 0.508304 0
M  V30 3220 C 318.876 -4.22209 0.449934 0
M  V30 3221 O 319.9 -3.53413 0.444677 0
M  V30 3222 O 318.759 -5.44788 0.432189 0
M  V30 3223 H 315.853 -0.826459 0.0299026 0
M  V30 3224 H 318.399 -1.49719 0.7989 0
M  V30 3225 H 317.171 -3.59619 1.54239 0
M  V30 3226 H 316.794 -3.97386 -0.130525 0
M  V30 3227 N 317.792 -0.46758 -1.50504 0
M  V30 3228 C 319.069 0.15003 -1.95024 0
M  V30 3229 C 319.449 1.57304 -1.40779 0
M  V30 3230 O 318.797 2.20281 -0.607319 0
M  V30 3231 C 319.007 0.0969324 -3.48865 0
M  V30 3232 C 320.355 0.287565 -4.23625 0
M  V30 3233 O 321.379 0.173678 -3.55776 0
M  V30 3234 O 320.238 0.517186 -5.44047 0
M  V30 3235 H 317.332 0.113582 -0.819163 0
M  V30 3236 H 319.878 -0.52773 -1.61286 0
M  V30 3237 H 318.65 -0.896732 -3.80886 0
M  V30 3238 H 318.273 0.816303 -3.8913 0
M  V30 3239 N 319.27 1.56325 -0.20005 0
M  V30 3240 C 320.517 1.97719 0.437411 0
M  V30 3241 C 320.845 1.08709 1.61284 0
M  V30 3242 O 320.1 0.127261 1.95286 0
M  V30 3243 C 320.399 3.4495 0.935103 0
M  V30 3244 C 320.065 4.5072 -0.12749 0
M  V30 3245 C 318.727 4.79368 -0.419451 0
M  V30 3246 C 321.079 5.14268 -0.847231 0
M  V30 3247 C 318.407 5.68854 -1.43604 0
M  V30 3248 C 320.759 6.04852 -1.85301 0
M  V30 3249 C 319.423 6.31855 -2.15211 0
M  V30 3250 H 318.693 0.723507 0.16006 0
M  V30 3251 H 321.34 1.89166 -0.298056 0
M  V30 3252 H 319.645 3.50599 1.74894 0
M  V30 3253 H 321.342 3.74337 1.43781 0
M  V30 3254 H 317.932 4.28458 0.11023 0
M  V30 3255 H 322.116 4.92222 -0.634901 0
M  V30 3256 H 317.372 5.88047 -1.67364 0
M  V30 3257 H 321.546 6.53152 -2.41591 0
M  V30 3258 H 319.173 7.00994 -2.94129 0
M  V30 3259 N 320.748 -0.0735177 1.57428 0
M  V30 3260 C 321.711 -1.07192 2.02589 0
M  V30 3261 C 322.711 -1.31695 0.922661 0
M  V30 3262 O 323.901 -1.27445 1.18758 0
M  V30 3263 C 321.033 -2.41599 2.40506 0
M  V30 3264 H 322.226 -0.682727 2.92025 0
M  V30 3265 H 319.779 -0.319193 1.53006 0
M  V30 3266 H 320.514 -2.85354 1.5409 0
M  V30 3267 H 320.299 -2.25156 3.21009 0
M  V30 3268 H 321.789 -3.13367 2.76027 0
M  V30 3269 N 322.226 -1.5378 -0.344866 0
M  V30 3270 C 323.176 -1.78057 -1.42407 0
M  V30 3271 C 324.16 -0.635732 -1.47808 0
M  V30 3272 O 325.352 -0.89508 -1.527 0
M  V30 3273 C 322.481 -1.99242 -2.79566 0
M  V30 3274 C 321.567 -3.19787 -2.78562 0
M  V30 3275 N 321.958 -4.41284 -2.47189 0
M  V30 3276 C 320.256 -3.2093 -3.0971 0
M  V30 3277 C 320.957 -5.23128 -2.54385 0
M  V30 3278 N 319.933 -4.59813 -2.89953 0
M  V30 3279 H 323.735 -2.69588 -1.17046 0
M  V30 3280 H 321.249 -1.52687 -0.553217 0
M  V30 3281 H 323.246 -2.14768 -3.57324 0
M  V30 3282 H 321.906 -1.08953 -3.05875 0
M  V30 3283 H 322.917 -4.68657 -2.20411 0
M  V30 3284 H 319.594 -2.40603 -3.41199 0
M  V30 3285 H 320.984 -6.30096 -2.333 0
M  V30 3286 N 323.704 0.605807 -1.45491 0
M  V30 3287 C 324.652 1.73754 -1.54636 0
M  V30 3288 C 325.646 1.64207 -0.416219 0
M  V30 3289 O 326.852 1.69979 -0.592199 0
M  V30 3290 H 323.227 0.574073 -0.485741 0
M  V30 3291 H 325.198 1.63169 -2.49837 0
M  V30 3292 C 323.947 3.12135 -1.53189 0
M  V30 3293 H 323.27 3.20141 -2.39478 0
M  V30 3294 H 324.71 3.91147 -1.63645 0
M  V30 3295 C 323.169 3.35921 -0.256616 0
M  V30 3296 O 323.699 3.96194 0.662798 0
M  V30 3297 N 321.905 2.90204 -0.151751 0
M  V30 3298 H 321.452 2.41336 -0.90081 0
M  V30 3299 H 321.41 3.06492 0.700699 0
M  V30 3300 N 325.182 1.32811 0.848464 0
M  V30 3301 C 326.407 1.26882 1.6406 0
M  V30 3302 C 326.832 -0.15913 1.87426 0
M  V30 3303 O 326.19 -1.11258 1.43148 0
M  V30 3304 C 326.238 2.03997 2.97351 0
M  V30 3305 O 325.342 1.39201 3.88197 0
M  V30 3306 H 324.683 0.436982 0.499943 0
M  V30 3307 H 327.213 1.75224 1.0563 0
M  V30 3308 H 327.223 2.14403 3.47124 0
M  V30 3309 H 325.898 3.0783 2.79666 0
M  V30 3310 H 324.475 1.37381 3.46671 0
M  V30 3311 N 326.66 -1.06551 1.16123 0
M  V30 3312 C 327.608 -2.16063 0.861371 0
M  V30 3313 C 328.602 -1.6856 -0.168517 0
M  V30 3314 O 329.808 -1.79986 -0.0227579 0
M  V30 3315 H 326.183 -0.705278 0.260934 0
M  V30 3316 H 328.154 -2.38567 1.79244 0
M  V30 3317 C 326.903 -3.45661 0.376018 0
M  V30 3318 H 326.226 -3.82604 1.15992 0
M  V30 3319 H 327.666 -4.23504 0.204951 0
M  V30 3320 C 326.125 -3.24546 -0.903954 0
M  V30 3321 O 326.655 -3.49865 -1.97377 0
M  V30 3322 N 324.861 -2.77992 -0.846679 0
M  V30 3323 H 324.408 -2.57589 0.0241017 0
M  V30 3324 H 324.366 -2.64244 -1.70359 0
M  V30 3325 N 328.138 -0.959301 -1.25041 0
M  V30 3326 C 329.363 -0.633507 -1.97488 0
M  V30 3327 C 329.788 0.788555 -1.70773 0
M  V30 3328 O 329.146 1.53394 -0.966431 0
M  V30 3329 C 329.194 -0.904057 -3.49083 0
M  V30 3330 O 328.298 0.0147939 -4.12397 0
M  V30 3331 H 327.639 -0.240368 -0.618966 0
M  V30 3332 H 330.169 -1.28717 -1.59038 0
M  V30 3333 H 330.179 -0.832203 -3.99423 0
M  V30 3334 H 328.854 -1.94048 -3.67856 0
M  V30 3335 H 327.431 -0.109664 -3.72739 0
M  V30 3336 N 329.616 1.39756 -0.72842 0
M  V30 3337 C 331.027 1.83498 -0.344289 0
M  V30 3338 C 331.378 1.60868 1.12321 0
M  V30 3339 O 330.503 1.09634 1.86573 0
M  V30 3340 C 331.098 3.33114 -0.618112 0
M  V30 3341 C 329.657 3.753 -0.287549 0
M  V30 3342 C 328.804 2.62831 -0.884048 0
M  V30 3343 H 331.755 1.28842 -0.926578 0
M  V30 3344 H 331.776 3.80334 0.112349 0
M  V30 3345 H 331.288 3.49553 -1.68625 0
M  V30 3346 H 329.389 3.64451 0.775012 0
M  V30 3347 H 329.502 4.72945 -0.765512 0
M  V30 3348 H 327.866 2.52792 -0.311149 0
M  V30 3349 H 328.649 2.82078 -1.95671 0
M  V30 3350 N 331.094 0.475555 1.50254 0
M  V30 3351 C 332.024 -0.30611 2.31485 0
M  V30 3352 C 333.005 -0.986228 1.38591 0
M  V30 3353 O 334.19 -0.982541 1.67511 0
M  V30 3354 C 331.32 -1.38588 3.1845 0
M  V30 3355 C 330.274 -0.827115 4.19932 0
M  V30 3356 C 329.6 -2.00551 4.95665 0
M  V30 3357 C 330.9 0.16463 5.2204 0
M  V30 3358 H 332.594 0.371866 2.97082 0
M  V30 3359 H 330.14 0.180282 1.42867 0
M  V30 3360 H 332.093 -1.94023 3.74076 0
M  V30 3361 H 330.817 -2.09269 2.50747 0
M  V30 3362 H 329.476 -0.294702 3.65414 0
M  V30 3363 H 329.124 -2.6994 4.2443 0
M  V30 3364 H 328.824 -1.63784 5.64313 0
M  V30 3365 H 330.348 -2.56468 5.54127 0
M  V30 3366 H 331.762 -0.300699 5.72511 0
M  V30 3367 H 330.159 0.446813 5.98434 0
M  V30 3368 H 331.229 1.08905 4.72512 0
M  V30 3369 N 332.573 -1.56217 0.208337 0
M  V30 3370 C 333.803 -2.02043 -0.431523 0
M  V30 3371 C 334.211 -1.08755 -1.54819 0
M  V30 3372 O 333.554 -0.0870009 -1.83494 0
M  V30 3373 C 333.616 -3.44239 -1.03633 0
M  V30 3374 C 333.28 -4.56965 -0.0567502 0
M  V30 3375 C 334.277 -5.14624 0.738773 0
M  V30 3376 C 331.962 -5.02266 0.0581736 0
M  V30 3377 C 333.956 -6.16045 1.63605 0
M  V30 3378 C 331.643 -6.03528 0.959001 0
M  V30 3379 C 332.641 -6.60293 1.7465 0
M  V30 3380 O 332.329 -7.59586 2.6322 0
M  V30 3381 H 332.061 -0.666772 -0.111313 0
M  V30 3382 H 334.615 -2.02919 0.318277 0
M  V30 3383 H 332.845 -3.40391 -1.83497 0
M  V30 3384 H 334.534 -3.73793 -1.58221 0
M  V30 3385 H 335.3 -4.80483 0.660364 0
M  V30 3386 H 331.179 -4.57771 -0.544633 0
M  V30 3387 H 334.723 -6.60279 2.25116 0
M  V30 3388 H 330.62 -6.37092 1.03848 0
M  V30 3389 H 331.388 -7.77057 2.57148 0
M  V30 3390 N 334.051 0.0651679 -1.57465 0
M  V30 3391 C 334.981 1.07693 -2.07182 0
M  V30 3392 C 335.962 1.39962 -0.966673 0
M  V30 3393 O 337.147 1.49475 -1.2398 0
M  V30 3394 C 334.277 2.3885 -2.52127 0
M  V30 3395 C 333.231 2.20917 -3.66579 0
M  V30 3396 C 332.557 3.57515 -3.97601 0
M  V30 3397 C 333.857 1.62493 -4.9638 0
M  V30 3398 H 335.551 0.663199 -2.91962 0
M  V30 3399 H 333.097 0.317569 -1.40455 0
M  V30 3400 H 335.05 3.09928 -2.85522 0
M  V30 3401 H 333.774 2.82215 -1.64384 0
M  V30 3402 H 332.433 1.52279 -3.33477 0
M  V30 3403 H 332.081 3.98463 -3.06979 0
M  V30 3404 H 331.781 3.46353 -4.74672 0
M  V30 3405 H 333.305 4.30013 -4.33499 0
M  V30 3406 H 334.719 2.23445 -5.27963 0
M  V30 3407 H 333.116 1.62009 -5.77818 0
M  V30 3408 H 334.186 0.587041 -4.81333 0
M  V30 3409 N 335.529 1.53961 0.336706 0
M  V30 3410 C 336.777 1.71197 1.07405 0
M  V30 3411 C 337.098 0.481475 1.88962 0
M  V30 3412 O 336.368 -0.504585 1.8929 0
M  V30 3413 H 334.948 0.631185 0.399517 0
M  V30 3414 H 337.61 1.91232 0.376323 0
M  V30 3415 H 336.706 2.58587 1.74755 0
M  V30 3416 N 337.007 -0.598083 1.45811 0
M  V30 3417 C 338.256 -1.35295 1.49594 0
M  V30 3418 C 338.569 -1.95057 0.145679 0
M  V30 3419 O 339.775 -2.71431 0.0612099 0
M  V30 3420 C 338.231 -2.45124 2.63519 0
M  V30 3421 C 337.839 -1.91732 4.04899 0
M  V30 3422 C 339.583 -3.2205 2.76558 0
M  V30 3423 C 337.49 -2.991 5.1019 0
M  V30 3424 H 336.42 -0.508552 0.556679 0
M  V30 3425 H 339.071 -0.639977 1.71978 0
M  V30 3426 H 337.453 -3.19149 2.34435 0
M  V30 3427 H 338.627 -1.24352 4.43704 0
M  V30 3428 H 336.942 -1.27522 3.96393 0
M  V30 3429 H 339.539 -4.0215 3.52391 0
M  V30 3430 H 339.882 -3.73663 1.83526 0
M  V30 3431 H 340.415 -2.55127 3.05213 0
M  V30 3432 H 337.154 -2.52393 6.04961 0
M  V30 3433 H 336.674 -3.65017 4.75944 0
M  V30 3434 H 338.353 -3.63318 5.35359 0
M  V30 3435 N 338.485 -1.33259 -0.841409 0
M  V30 3436 C 339.415 -1.25926 -1.96634 0
M  V30 3437 C 340.396 -0.140349 -1.6952 0
M  V30 3438 O 341.581 -0.329707 -1.91381 0
M  V30 3439 C 338.711 -0.99512 -3.32738 0
M  V30 3440 C 337.665 -2.0767 -3.74242 0
M  V30 3441 C 336.991 -1.66474 -5.08125 0
M  V30 3442 C 338.291 -3.49318 -3.88297 0
M  V30 3443 H 339.985 -2.20046 -2.03027 0
M  V30 3444 H 337.531 -1.05931 -0.975425 0
M  V30 3445 H 339.484 -0.930323 -4.11002 0
M  V30 3446 H 338.208 -0.0183004 -3.26595 0
M  V30 3447 H 336.867 -2.13187 -2.98239 0
M  V30 3448 H 336.515 -0.675012 -4.9845 0
M  V30 3449 H 336.215 -2.3885 -5.36865 0
M  V30 3450 H 337.739 -1.61455 -5.88867 0
M  V30 3451 H 339.153 -3.46316 -4.56879 0
M  V30 3452 H 337.55 -4.20158 -4.28471 0
M  V30 3453 H 338.62 -3.8801 -2.9082 0
M  V30 3454 N 339.963 1.05934 -1.16686 0
M  V30 3455 C 341.21 1.788 -0.950622 0
M  V30 3456 C 341.538 1.87384 0.521305 0
M  V30 3457 O 340.793 1.36438 1.40297 0
M  V30 3458 C 341.092 3.23105 -1.52767 0
M  V30 3459 C 340.758 3.34594 -3.02254 0
M  V30 3460 C 339.42 3.37437 -3.43059 0
M  V30 3461 C 341.772 3.36219 -3.98254 0
M  V30 3462 C 339.1 3.39525 -4.78477 0
M  V30 3463 C 341.452 3.39845 -5.33562 0
M  V30 3464 C 340.116 3.40971 -5.73842 0
M  V30 3465 H 339.386 0.654275 -0.347857 0
M  V30 3466 H 342.033 1.24555 -1.45459 0
M  V30 3467 H 340.338 3.80227 -0.94524 0
M  V30 3468 H 342.035 3.7809 -1.336 0
M  V30 3469 H 338.625 3.3309 -2.6972 0
M  V30 3470 H 342.809 3.33231 -3.67792 0
M  V30 3471 H 338.065 3.38703 -5.09009 0
M  V30 3472 H 342.239 3.4005 -6.07733 0
M  V30 3473 H 339.866 3.42342 -6.78753 0
M  V30 3474 N 341.441 0.965919 1.2453 0
M  V30 3475 C 342.404 0.499547 2.2369 0
M  V30 3476 C 343.404 -0.40294 1.5567 0
M  V30 3477 O 344.594 -0.19865 1.73064 0
M  V30 3478 C 341.726 -0.276792 3.39774 0
M  V30 3479 H 342.919 1.37613 2.66463 0
M  V30 3480 H 340.472 0.750324 1.37112 0
M  V30 3481 H 341.207 -1.17055 3.02438 0
M  V30 3482 H 340.992 0.370826 3.90343 0
M  V30 3483 H 342.482 -0.592175 4.1338 0
M  V30 3484 N 342.919 -1.39368 0.735821 0
M  V30 3485 C 344.165 -2.00794 0.284544 0
M  V30 3486 C 344.498 -1.58255 -1.12557 0
M  V30 3487 O 343.773 -0.811819 -1.76748 0
M  V30 3488 C 344.056 -3.58011 0.387337 0
M  V30 3489 C 343.909 -4.10566 1.83728 0
M  V30 3490 C 345.228 -4.395 -0.22975 0
M  V30 3491 H 342.347 -0.729501 0.104866 0
M  V30 3492 H 344.989 -1.65564 0.93213 0
M  V30 3493 H 343.139 -3.88154 -0.164006 0
M  V30 3494 H 344.811 -3.91139 2.44556 0
M  V30 3495 H 343.054 -3.64095 2.35833 0
M  V30 3496 H 343.725 -5.19702 1.86047 0
M  V30 3497 H 346.201 -4.15406 0.240257 0
M  V30 3498 H 345.077 -5.48752 -0.127485 0
M  V30 3499 H 345.338 -4.22062 -1.3159 0
M  V30 3500 N 344.397 -0.483516 -1.5 0
M  V30 3501 C 345.625 0.0644831 -2.06799 0
M  V30 3502 C 346.04 1.32399 -1.34596 0
M  V30 3503 O 345.397 1.77626 -0.418946 0
M  V30 3504 C 345.448 0.339927 -3.59898 0
M  V30 3505 O 345.169 -0.869635 -4.29382 0
M  V30 3506 C 346.67 0.933515 -4.33359 0
M  V30 3507 H 343.89 -0.0126333 -0.670881 0
M  V30 3508 H 346.434 -0.675864 -1.93009 0
M  V30 3509 H 344.589 1.03022 -3.7345 0
M  V30 3510 H 345.003 -0.62179 -5.20801 0
M  V30 3511 H 346.477 1.07593 -5.41413 0
M  V30 3512 H 346.954 1.92685 -3.94676 0
M  V30 3513 H 347.56 0.281221 -4.24369 0
M  V30 3514 N 345.875 1.56104 -0.216619 0
M  V30 3515 C 346.808 2.16026 0.735395 0
M  V30 3516 C 347.786 1.1032 1.1945 0
M  V30 3517 O 348.97 1.38549 1.27814 0
M  V30 3518 C 346.097 2.73656 1.99575 0
M  V30 3519 C 345.143 3.92146 1.67702 0
M  V30 3520 S 345.976 5.29397 0.806145 0
M  V30 3521 C 347.132 5.90463 2.07617 0
M  V30 3522 H 347.365 2.96439 0.226072 0
M  V30 3523 H 344.898 1.544 -0.00136639 0
M  V30 3524 H 346.856 3.075 2.71945 0
M  V30 3525 H 345.517 1.93245 2.47619 0
M  V30 3526 H 344.71 4.30954 2.61332 0
M  V30 3527 H 344.312 3.59423 1.03398 0
M  V30 3528 H 346.604 6.06136 3.02664 0
M  V30 3529 H 347.547 6.86589 1.73207 0
M  V30 3530 H 347.955 5.19252 2.21445 0
M  V30 3531 N 347.353 -0.0568162 1.57498 0
M  V30 3532 C 348.286 -1.09817 2.00039 0
M  V30 3533 C 349.264 -1.3674 0.879819 0
M  V30 3534 O 350.448 -1.49863 1.14338 0
M  V30 3535 C 347.575 -2.43924 2.34986 0
M  V30 3536 C 346.621 -2.33039 3.57204 0
M  V30 3537 S 347.454 -1.7102 5.07457 0
M  V30 3538 C 348.61 -3.06674 5.45621 0
M  V30 3539 H 348.843 -0.735701 2.88053 0
M  V30 3540 H 346.376 -0.265871 1.52094 0
M  V30 3541 H 348.334 -3.2106 2.55795 0
M  V30 3542 H 346.995 -2.77327 1.47474 0
M  V30 3543 H 346.188 -3.31973 3.79223 0
M  V30 3544 H 345.79 -1.64043 3.36104 0
M  V30 3545 H 348.082 -4.03 5.44608 0
M  V30 3546 H 349.025 -2.8942 6.46252 0
M  V30 3547 H 349.433 -3.07969 4.73091 0
M  V30 3548 N 348.832 -1.54138 -0.328536 0
M  V30 3549 C 350.08 -1.71765 -1.06496 0
M  V30 3550 C 350.401 -0.49149 -1.88704 0
M  V30 3551 O 349.671 0.494539 -1.89555 0
M  V30 3552 H 348.251 -0.633295 -0.396164 0
M  V30 3553 H 350.913 -1.91429 -0.366176 0
M  V30 3554 H 350.009 -2.5951 -1.73381 0
M  V30 3555 N 350.31 0.590341 -1.46126 0
M  V30 3556 C 351.721 1.17243 -1.45296 0
M  V30 3557 C 352.072 1.95281 -0.189723 0
M  V30 3558 O 351.197 2.04502 0.707674 0
M  V30 3559 C 351.792 2.13284 -2.6324 0
M  V30 3560 C 350.351 2.66832 -2.65476 0
M  V30 3561 C 349.498 1.42557 -2.3785 0
M  V30 3562 H 352.449 0.378692 -1.54116 0
M  V30 3563 H 352.47 2.96619 -2.38323 0
M  V30 3564 H 351.982 1.56459 -3.55165 0
M  V30 3565 H 350.083 3.27548 -1.77603 0
M  V30 3566 H 350.196 3.10088 -3.65215 0
M  V30 3567 H 348.56 1.72107 -1.87753 0
M  V30 3568 H 349.343 0.875741 -3.31942 0
M  V30 3569 N 351.788 1.33704 0.83433 0
M  V30 3570 C 353.036 1.25169 1.58673 0
M  V30 3571 C 353.357 -0.18127 1.94156 0
M  V30 3572 O 352.627 -1.11113 1.6134 0
M  V30 3573 H 351.207 0.4603 0.58833 0
M  V30 3574 H 353.869 1.67478 0.996847 0
M  V30 3575 H 352.965 1.84856 2.51465 0
M  V30 3576 N 353.266 -1.05314 1.17247 0
M  V30 3577 C 354.196 -2.1498 0.911362 0
M  V30 3578 C 355.177 -1.69471 -0.146169 0
M  V30 3579 O 356.362 -1.942 0.003812 0
M  V30 3580 C 353.492 -3.4472 0.422528 0
M  V30 3581 C 352.446 -4.03789 1.4191 0
M  V30 3582 C 351.772 -5.28858 0.788274 0
M  V30 3583 C 353.072 -4.41418 2.7919 0
M  V30 3584 H 354.766 -2.3708 1.82848 0
M  V30 3585 H 352.312 -1.13938 0.880569 0
M  V30 3586 H 354.265 -4.20787 0.227289 0
M  V30 3587 H 352.989 -3.22269 -0.530123 0
M  V30 3588 H 351.648 -3.2979 1.60106 0
M  V30 3589 H 351.296 -5.02709 -0.171173 0
M  V30 3590 H 350.996 -5.69338 1.45353 0
M  V30 3591 H 352.52 -6.07612 0.603282 0
M  V30 3592 H 353.934 -5.08524 2.64719 0
M  V30 3593 H 352.331 -4.92913 3.42282 0
M  V30 3594 H 353.401 -3.51819 3.33693 0
M  V30 3595 N 354.744 -0.972509 -1.24016 0
M  V30 3596 C 355.707 -0.511403 -2.23422 0
M  V30 3597 C 356.707 0.394679 -1.55881 0
M  V30 3598 O 357.897 0.189469 -1.73167 0
M  V30 3599 C 355.029 0.258769 -3.39916 0
M  V30 3600 H 356.222 -1.39024 -2.6573 0
M  V30 3601 H 353.775 -0.757585 -1.36713 0
M  V30 3602 H 354.51 1.1545 -3.03054 0
M  V30 3603 H 354.295 -0.391522 -3.9014 0
M  V30 3604 H 355.785 0.570244 -4.13688 0
M  V30 3605 N 356.222 1.38976 -0.743202 0
M  V30 3606 C 357.469 2.00343 -0.294752 0
M  V30 3607 C 357.797 1.58983 1.12047 0
M  V30 3608 O 357.052 0.813809 1.77977 0
M  V30 3609 C 357.351 3.55647 -0.353517 0
M  V30 3610 C 357.017 4.16685 -1.72292 0
M  V30 3611 C 355.679 4.3307 -2.09771 0
M  V30 3612 C 358.031 4.50464 -2.62168 0
M  V30 3613 C 355.359 4.80526 -3.36618 0
M  V30 3614 C 357.711 4.99332 -3.88395 0
M  V30 3615 C 356.375 5.13924 -4.25956 0
M  V30 3616 H 355.645 0.733108 -0.107857 0
M  V30 3617 H 358.292 1.6618 -0.951651 0
M  V30 3618 H 356.597 3.89884 0.386954 0
M  V30 3619 H 358.294 4.00998 0.0117269 0
M  V30 3620 H 354.884 4.04339 -1.42155 0
M  V30 3621 H 359.068 4.37416 -2.3448 0
M  V30 3622 H 354.324 4.90008 -3.65653 0
M  V30 3623 H 358.498 5.2444 -4.58187 0
M  V30 3624 H 356.125 5.50457 -5.2431 0
M  V30 3625 N 357.7 0.491464 1.49741 0
M  V30 3626 C 358.948 -0.0563141 2.02022 0
M  V30 3627 C 359.269 -1.38363 1.37407 0
M  V30 3628 O 358.539 -1.88702 0.526166 0
M  V30 3629 H 357.119 -0.0238014 0.746621 0
M  V30 3630 H 359.781 0.646533 1.83864 0
M  V30 3631 H 358.877 -0.192967 3.11503 0
M  V30 3632 N 359.178 -1.55987 0.224894 0
M  V30 3633 C 360.108 -2.23426 -0.678457 0
M  V30 3634 C 361.089 -1.20709 -1.19847 0
M  V30 3635 O 362.274 -1.49304 -1.24186 0
M  V30 3636 C 359.404 -2.91676 -1.88527 0
M  V30 3637 C 358.358 -4.00893 -1.49896 0
M  V30 3638 C 357.684 -4.56455 -2.78483 0
M  V30 3639 C 358.984 -5.17769 -0.686461 0
M  V30 3640 H 360.678 -2.99175 -0.116173 0
M  V30 3641 H 358.224 -1.43897 -0.054436 0
M  V30 3642 H 360.177 -3.37547 -2.5227 0
M  V30 3643 H 358.901 -2.1338 -2.47258 0
M  V30 3644 H 357.56 -3.55758 -0.884985 0
M  V30 3645 H 357.208 -3.74886 -3.35365 0
M  V30 3646 H 356.908 -5.30169 -2.53368 0
M  V30 3647 H 358.432 -5.05047 -3.43162 0
M  V30 3648 H 359.846 -5.60001 -1.22767 0
M  V30 3649 H 358.243 -5.97735 -0.532259 0
M  V30 3650 H 359.313 -4.83932 0.306196 0
M  V30 3651 N 360.656 0.0484629 -1.57525 0
M  V30 3652 C 361.904 0.741657 -1.88 0
M  V30 3653 C 362.225 1.76918 -0.820054 0
M  V30 3654 O 361.495 1.95335 0.148661 0
M  V30 3655 H 360.075 0.276908 -0.69378 0
M  V30 3656 H 362.737 0.019013 -1.94891 0
M  V30 3657 H 361.833 1.24336 -2.86264 0
M  V30 3658 N 362.134 1.5431 0.320358 0
M  V30 3659 C 363.359 1.76954 1.08175 0
M  V30 3660 C 363.784 0.518193 1.80821 0
M  V30 3661 O 363.142 -0.530411 1.73368 0
M  V30 3662 C 363.19 2.96451 2.05303 0
M  V30 3663 O 362.294 2.68221 3.13259 0
M  V30 3664 H 361.635 0.586275 0.311733 0
M  V30 3665 H 364.165 2.01342 0.363676 0
M  V30 3666 H 364.175 3.23887 2.48116 0
M  V30 3667 H 362.85 3.87196 1.51829 0
M  V30 3668 H 361.427 2.51744 2.75099 0
M  V30 3669 N 363.613 -0.582584 1.46437 0
M  V30 3670 C 364.543 -1.70187 1.59871 0
M  V30 3671 C 365.524 -1.64066 0.449042 0
M  V30 3672 O 366.709 -1.82081 0.6753 0
M  V30 3673 C 363.839 -3.08827 1.58881 0
M  V30 3674 C 362.793 -3.29779 2.72819 0
M  V30 3675 C 362.119 -4.68947 2.5689 0
M  V30 3676 C 363.419 -3.17601 4.1464 0
M  V30 3677 H 365.113 -1.592 2.53566 0
M  V30 3678 H 362.659 -0.764472 1.22032 0
M  V30 3679 H 364.612 -3.86951 1.66873 0
M  V30 3680 H 363.336 -3.20713 0.617306 0
M  V30 3681 H 361.995 -2.54054 2.64296 0
M  V30 3682 H 361.643 -4.77599 1.57823 0
M  V30 3683 H 361.343 -4.83919 3.33312 0
M  V30 3684 H 362.867 -5.4924 2.66773 0
M  V30 3685 H 364.281 -3.8557 4.24274 0
M  V30 3686 H 362.678 -3.44094 4.9165 0
M  V30 3687 H 363.748 -2.14681 4.34788 0
M  V30 3688 N 365.091 -1.34144 -0.827227 0
M  V30 3689 C 366.024 -1.19707 -1.94282 0
M  V30 3690 C 367.002 -0.0897256 -1.62352 0
M  V30 3691 O 368.186 -0.254095 -1.8678 0
M  V30 3692 C 365.313 -0.838646 -3.28153 0
M  V30 3693 C 364.359 -1.95514 -3.79047 0
M  V30 3694 S 365.192 -3.56793 -3.99323 0
M  V30 3695 C 366.348 -3.22983 -5.36127 0
M  V30 3696 H 366.581 -2.1414 -2.06231 0
M  V30 3697 H 364.114 -1.19121 -0.982321 0
M  V30 3698 H 366.072 -0.638637 -4.05502 0
M  V30 3699 H 364.733 0.0872776 -3.13979 0
M  V30 3700 H 363.926 -1.658 -4.75948 0
M  V30 3701 H 363.528 -2.11241 -3.08631 0
M  V30 3702 H 365.82 -2.74531 -6.19386 0
M  V30 3703 H 366.763 -4.19008 -5.70822 0
M  V30 3704 H 367.171 -2.59276 -5.01434 0
M  V30 3705 N 366.569 1.04691 -1.17803 0
M  V30 3706 C 367.499 2.14494 -0.92275 0
M  V30 3707 C 368.48 1.69546 0.137179 0
M  V30 3708 O 369.665 1.94195 -0.0141108 0
M  V30 3709 C 366.795 3.44491 -0.440803 0
M  V30 3710 C 365.749 4.03031 -1.4405 0
M  V30 3711 C 365.075 5.28432 -0.81631 0
M  V30 3712 C 366.375 4.39932 -2.81527 0
M  V30 3713 H 368.069 2.36107 -1.84103 0
M  V30 3714 H 365.615 1.1347 -0.886599 0
M  V30 3715 H 367.568 4.2066 -0.249602 0
M  V30 3716 H 366.292 3.22546 0.513025 0
M  V30 3717 H 364.951 3.28937 -1.61853 0
M  V30 3718 H 364.599 5.02792 0.144511 0
M  V30 3719 H 364.299 5.68559 -1.48371 0
M  V30 3720 H 365.823 6.07284 -0.635496 0
M  V30 3721 H 367.237 5.07113 -2.67412 0
M  V30 3722 H 365.634 4.9109 -3.44892 0
M  V30 3723 H 366.704 3.50045 -3.35554 0
M  V30 3724 N 368.047 0.979072 1.23499 0
M  V30 3725 C 369.463 0.687475 1.44034 0
M  V30 3726 C 369.663 -0.746801 1.8715 0
M  V30 3727 O 368.719 -1.51939 2.0167 0
M  V30 3728 C 370.032 1.68127 2.49307 0
M  V30 3729 C 371.58 1.69516 2.63122 0
M  V30 3730 C 372.055 2.67723 3.71603 0
M  V30 3731 N 373.546 2.66233 3.79044 0
M  V30 3732 C 374.281 3.38891 4.62537 0
M  V30 3733 N 373.777 4.21103 5.50131 0
M  V30 3734 N 375.57 3.27661 4.56721 0
M  V30 3735 H 367.721 1.90559 0.938135 0
M  V30 3736 H 369.984 0.821051 0.473897 0
M  V30 3737 H 369.69 2.70693 2.2454 0
M  V30 3738 H 369.564 1.46306 3.4767 0
M  V30 3739 H 371.951 0.676561 2.8724 0
M  V30 3740 H 372.032 1.95404 1.65079 0
M  V30 3741 H 371.676 3.69724 3.48233 0
M  V30 3742 H 371.606 2.39111 4.69184 0
M  V30 3743 H 374.097 2.06568 3.16446 0
M  V30 3744 H 374.41 4.73403 6.10827 0
M  V30 3745 H 372.755 4.25195 5.49759 0
M  V30 3746 H 375.946 2.62887 3.87309 0
M  V30 3747 H 376.119 3.84547 5.21562 0
M  V30 3748 N 369.525 -1.3858 0.750561 0
M  V30 3749 C 370.455 -2.33102 0.136237 0
M  V30 3750 C 371.436 -1.54713 -0.706965 0
M  V30 3751 O 372.621 -1.83043 -0.648769 0
M  V30 3752 C 369.751 -3.38882 -0.760017 0
M  V30 3753 C 368.705 -4.27995 -0.0197785 0
M  V30 3754 C 368.031 -5.24605 -1.03408 0
M  V30 3755 C 369.331 -5.09554 1.14684 0
M  V30 3756 H 371.025 -2.84726 0.925822 0
M  V30 3757 H 368.571 -1.36898 0.446654 0
M  V30 3758 H 370.524 -4.0397 -1.19943 0
M  V30 3759 H 369.248 -2.85734 -1.58189 0
M  V30 3760 H 367.907 -3.64409 0.400184 0
M  V30 3761 H 367.555 -4.67746 -1.84994 0
M  V30 3762 H 367.255 -5.85081 -0.543464 0
M  V30 3763 H 368.779 -5.9257 -1.47288 0
M  V30 3764 H 370.193 -5.67899 0.785118 0
M  V30 3765 H 368.59 -5.7925 1.56812 0
M  V30 3766 H 369.66 -4.4347 1.96118 0
M  V30 3767 N 371.003 -0.499398 -1.49478 0
M  V30 3768 C 372.233 0.0424839 -2.06556 0
M  V30 3769 C 372.641 1.31514 -1.36018 0
M  V30 3770 O 371.984 1.78555 -0.431718 0
M  V30 3771 C 372.046 0.368074 -3.57611 0
M  V30 3772 C 371.71 -0.806631 -4.49825 0
M  V30 3773 C 372.707 -1.69667 -4.91436 0
M  V30 3774 C 370.392 -1.00498 -4.92144 0
M  V30 3775 C 372.386 -2.76923 -5.74101 0
M  V30 3776 C 370.073 -2.08072 -5.74586 0
M  V30 3777 C 371.071 -2.96119 -6.15469 0
M  V30 3778 O 370.759 -4.01836 -6.96264 0
M  V30 3779 H 370.491 -0.0165165 -0.675798 0
M  V30 3780 H 373.045 -0.695497 -1.93267 0
M  V30 3781 H 371.275 1.15963 -3.68903 0
M  V30 3782 H 372.964 0.848381 -3.96935 0
M  V30 3783 H 373.73 -1.55524 -4.59388 0
M  V30 3784 H 369.609 -0.329036 -4.59824 0
M  V30 3785 H 373.153 -3.45676 -6.05932 0
M  V30 3786 H 369.05 -2.22211 -6.06047 0
M  V30 3787 H 369.818 -3.9917 -7.14567 0
M  V30 3788 N 372.481 1.55866 -0.233164 0
M  V30 3789 C 373.727 1.98897 0.395959 0
M  V30 3790 C 374.06 1.12091 1.58585 0
M  V30 3791 O 373.335 0.181182 1.93654 0
M  V30 3792 C 373.618 3.50658 0.819224 0
M  V30 3793 C 373.471 4.48233 -0.375109 0
M  V30 3794 C 374.79 4.07135 1.67121 0
M  V30 3795 H 371.909 0.723102 0.142451 0
M  V30 3796 H 374.551 1.87082 -0.331725 0
M  V30 3797 H 372.701 3.60857 1.43925 0
M  V30 3798 H 374.373 4.50031 -1.01341 0
M  V30 3799 H 372.616 4.21624 -1.02058 0
M  V30 3800 H 373.287 5.51988 -0.0358328 0
M  V30 3801 H 375.763 3.99952 1.14795 0
M  V30 3802 H 374.639 5.13615 1.93625 0
M  V30 3803 H 374.9 3.54736 2.63846 0
M  V30 3804 N 373.959 -0.0401083 1.57549 0
M  V30 3805 C 375.236 -0.767917 1.79896 0
M  V30 3806 C 375.616 -1.9416 0.82856 0
M  V30 3807 O 374.964 -2.2812 -0.131671 0
M  V30 3808 C 375.174 -1.2113 3.27305 0
M  V30 3809 C 376.522 -1.63175 3.91994 0
M  V30 3810 O 377.546 -1.30616 3.31388 0
M  V30 3811 O 376.405 -2.23565 4.98679 0
M  V30 3812 H 373.499 -0.370441 0.739393 0
M  V30 3813 H 376.045 -0.017737 1.69691 0
M  V30 3814 H 374.817 -0.372937 3.89519 0
M  V30 3815 H 374.44 -2.02183 3.42356 0
M  V30 3816 N 375.437 -1.54477 -0.31217 0
M  V30 3817 C 376.686 -1.72438 -1.04633 0
M  V30 3818 C 376.999 -0.511163 -1.88803 0
M  V30 3819 O 378.205 -0.572341 -2.65399 0
M  V30 3820 C 376.661 -3.05043 -1.9099 0
M  V30 3821 C 376.269 -4.33806 -1.11877 0
M  V30 3822 C 378.013 -3.32364 -2.64073 0
M  V30 3823 C 375.92 -5.57467 -1.97445 0
M  V30 3824 H 374.85 -0.642647 -0.394361 0
M  V30 3825 H 377.501 -1.80966 -0.303929 0
M  V30 3826 H 375.883 -2.90451 -2.69173 0
M  V30 3827 H 377.057 -4.59199 -0.383843 0
M  V30 3828 H 375.372 -4.13336 -0.504252 0
M  V30 3829 H 377.969 -4.21951 -3.28423 0
M  V30 3830 H 378.312 -2.50745 -3.32314 0
M  V30 3831 H 378.845 -3.47875 -1.92944 0
M  V30 3832 H 375.584 -6.41722 -1.33692 0
M  V30 3833 H 375.104 -5.36277 -2.6864 0
M  V30 3834 H 376.783 -5.94303 -2.5576 0
M  V30 3835 N 376.915 0.57481 -1.46744 0
M  V30 3836 C 377.863 1.70435 -1.58286 0
M  V30 3837 C 378.857 1.63287 -0.450956 0
M  V30 3838 O 380.063 1.68685 -0.628121 0
M  V30 3839 H 376.438 0.56364 -0.497809 0
M  V30 3840 H 378.409 1.57833 -2.53242 0
M  V30 3841 C 377.158 3.08815 -1.59776 0
M  V30 3842 H 376.481 3.1499 -2.46214 0
M  V30 3843 H 377.921 3.87588 -1.71905 0
M  V30 3844 C 376.38 3.35301 -0.327812 0
M  V30 3845 O 376.91 3.97511 0.57861 0
M  V30 3846 N 375.116 2.89816 -0.213274 0
M  V30 3847 H 374.663 2.39371 -0.951798 0
M  V30 3848 H 374.621 3.0791 0.63553 0
M  V30 3849 N 378.394 1.34581 0.820102 0
M  V30 3850 C 379.326 1.22236 1.93884 0
M  V30 3851 C 380.339 0.148776 1.62119 0
M  V30 3852 O 381.528 0.400877 1.7394 0
M  V30 3853 C 378.628 0.856542 3.27897 0
M  V30 3854 C 377.801 2.02569 3.87666 0
M  V30 3855 C 376.86 1.63782 5.00062 0
M  V30 3856 O 375.886 2.35477 5.18208 0
M  V30 3857 N 377.088 0.553611 5.77854 0
M  V30 3858 H 379.853 2.18615 2.05006 0
M  V30 3859 H 377.414 1.27573 0.99683 0
M  V30 3860 H 379.406 0.578806 4.0054 0
M  V30 3861 H 377.976 -0.0171518 3.12595 0
M  V30 3862 H 377.196 2.468 3.07382 0
M  V30 3863 H 378.484 2.80752 4.24329 0
M  V30 3864 H 377.882 -0.0423528 5.65684 0
M  V30 3865 H 376.439 0.335614 6.50935 0
M  V30 3866 N 379.872 -1.04064 1.18357 0
M  V30 3867 C 380.805 -2.11618 0.854 0
M  V30 3868 C 381.783 -1.61555 -0.184043 0
M  V30 3869 O 382.967 -1.88395 -0.0630048 0
M  V30 3870 C 380.094 -3.37574 0.27597 0
M  V30 3871 C 379.14 -4.06485 1.2912 0
M  V30 3872 S 379.973 -4.53543 2.84709 0
M  V30 3873 C 381.129 -5.82732 2.28417 0
M  V30 3874 H 381.362 -2.39247 1.76488 0
M  V30 3875 H 378.895 -1.16832 1.00944 0
M  V30 3876 H 380.853 -4.10468 -0.051026 0
M  V30 3877 H 379.514 -3.0806 -0.613028 0
M  V30 3878 H 378.707 -4.97024 0.835633 0
M  V30 3879 H 378.309 -3.39708 1.56443 0
M  V30 3880 H 380.601 -6.56677 1.66677 0
M  V30 3881 H 381.544 -6.33052 3.17256 0
M  V30 3882 H 381.952 -5.37838 1.71436 0
M  V30 3883 N 381.35 -0.985608 -1.22978 0
M  V30 3884 C 382.761 -0.693593 -1.73338 0
M  V30 3885 C 383.112 0.789935 -1.79595 0
M  V30 3886 O 382.237 1.61771 -1.43733 0
M  V30 3887 C 382.832 -1.25235 -3.14804 0
M  V30 3888 C 381.391 -1.00987 -3.626 0
M  V30 3889 C 380.538 -1.37695 -2.40698 0
M  V30 3890 H 383.489 -1.15884 -1.08428 0
M  V30 3891 H 383.51 -0.627329 -3.75293 0
M  V30 3892 H 383.022 -2.33209 -3.10218 0
M  V30 3893 H 381.123 0.0535565 -3.72562 0
M  V30 3894 H 381.236 -1.66812 -4.49122 0
M  V30 3895 H 379.6 -0.795459 -2.4196 0
M  V30 3896 H 380.383 -2.46657 -2.38779 0
M  V30 3897 N 382.828 1.3818 -0.7579 0
M  V30 3898 C 383.738 2.3421 -0.135247 0
M  V30 3899 C 384.754 1.59487 0.695683 0
M  V30 3900 O 385.93 1.91657 0.618832 0
M  V30 3901 C 382.995 3.3862 0.744139 0
M  V30 3902 C 382.056 4.2918 -0.101658 0
M  V30 3903 C 381.289 5.28603 0.735851 0
M  V30 3904 O 381.512 5.35166 1.97366 0
M  V30 3905 O 380.446 6.01707 0.152372 0
M  V30 3906 H 384.272 2.8916 -0.928436 0
M  V30 3907 H 381.857 1.40101 -0.518855 0
M  V30 3908 H 383.739 4.02539 1.2466 0
M  V30 3909 H 382.414 2.86019 1.51575 0
M  V30 3910 H 381.321 3.68407 -0.650167 0
M  V30 3911 H 382.654 4.85048 -0.836024 0
M  V30 3912 N 384.306 0.507319 1.49211 0
M  V30 3913 C 385.554 -0.0348839 2.0207 0
M  V30 3914 C 385.875 -1.36898 1.38866 0
M  V30 3915 O 385.145 -1.88133 0.546151 0
M  V30 3916 H 383.725 -0.0158812 0.746831 0
M  V30 3917 H 386.387 0.665998 1.83168 0
M  V30 3918 H 385.483 -0.159917 3.1169 0
M  V30 3919 N 385.784 -1.5574 0.241426 0
M  V30 3920 C 387.032 -1.98417 -0.384075 0
M  V30 3921 C 387.353 -1.13078 -1.58866 0
M  V30 3922 O 386.623 -0.212312 -1.94746 0
M  V30 3923 H 385.203 -0.732813 -0.144894 0
M  V30 3924 H 387.865 -1.9193 0.338943 0
M  V30 3925 H 386.961 -3.04219 -0.696939 0
M  V30 3926 N 387.262 0.0317525 -1.57568 0
M  V30 3927 C 388.511 0.722131 -1.8833 0
M  V30 3928 C 388.824 1.76664 -0.839587 0
M  V30 3929 O 390.03 2.50942 -1.03635 0
M  V30 3930 C 388.486 1.33544 -3.34207 0
M  V30 3931 C 388.094 0.327415 -4.46802 0
M  V30 3932 C 389.838 2.00585 -3.7412 0
M  V30 3933 C 387.745 0.948915 -5.83738 0
M  V30 3934 H 386.675 0.273466 -0.702661 0
M  V30 3935 H 389.326 -0.0235811 -1.83485 0
M  V30 3936 H 387.708 2.13077 -3.33788 0
M  V30 3937 H 388.882 -0.441006 -4.58685 0
M  V30 3938 H 387.197 -0.240758 -4.15703 0
M  V30 3939 H 389.794 2.47932 -4.73744 0
M  V30 3940 H 390.137 2.82285 -3.05975 0
M  V30 3941 H 390.67 1.27831 -3.76702 0
M  V30 3942 H 387.409 0.171387 -6.55276 0
M  V30 3943 H 386.929 1.68724 -5.7558 0
M  V30 3944 H 388.608 1.45705 -6.3038 0
M  V30 3945 N 388.74 1.54641 0.303973 0
M  V30 3946 C 389.965 1.78092 1.06292 0
M  V30 3947 C 390.39 0.537342 1.80262 0
M  V30 3948 O 389.748 -0.511993 1.7392 0
M  V30 3949 C 389.796 2.98612 2.02147 0
M  V30 3950 O 388.9 2.71528 3.10397 0
M  V30 3951 H 388.241 0.589548 0.305497 0
M  V30 3952 H 390.771 2.01716 0.3423 0
M  V30 3953 H 390.781 3.265 2.44667 0
M  V30 3954 H 389.456 3.88785 1.47714 0
M  V30 3955 H 388.033 2.54648 2.72413 0
M  V30 3956 N 390.218 -0.567019 1.47046 0
M  V30 3957 C 391.148 -1.68482 1.61667 0
M  V30 3958 C 392.129 -1.6358 0.466418 0
M  V30 3959 O 393.314 -1.81354 0.694574 0
M  V30 3960 C 390.444 -3.07124 1.62148 0
M  V30 3961 C 389.398 -3.26867 2.76301 0
M  V30 3962 C 388.724 -4.66196 2.61849 0
M  V30 3963 C 390.024 -3.13186 4.17986 0
M  V30 3964 H 391.718 -1.56502 2.5524 0
M  V30 3965 H 389.264 -0.751486 1.22836 0
M  V30 3966 H 391.217 -3.8516 1.70968 0
M  V30 3967 H 389.941 -3.2004 0.651287 0
M  V30 3968 H 388.6 -2.51237 2.66975 0
M  V30 3969 H 388.248 -4.75898 1.62879 0
M  V30 3970 H 387.948 -4.80356 3.38425 0
M  V30 3971 H 389.472 -5.46379 2.72584 0
M  V30 3972 H 390.886 -3.81049 4.2834 0
M  V30 3973 H 389.283 -3.3886 4.95272 0
M  V30 3974 H 390.353 -2.10057 4.3704 0
M  V30 3975 N 391.696 -1.35014 -0.812953 0
M  V30 3976 C 392.924 -1.31031 -1.6012 0
M  V30 3977 C 393.339 0.113558 -1.88458 0
M  V30 3978 O 392.696 1.06363 -1.48301 0
M  V30 3979 C 392.747 -2.10872 -2.93624 0
M  V30 3980 O 392.468 -3.47706 -2.66518 0
M  V30 3981 C 393.969 -2.14401 -3.88004 0
M  V30 3982 H 391.189 -0.45037 -0.497401 0
M  V30 3983 H 393.733 -1.77775 -1.01076 0
M  V30 3984 H 391.888 -1.67744 -3.492 0
M  V30 3985 H 392.302 -3.89097 -3.51715 0
M  V30 3986 H 393.776 -2.74669 -4.78812 0
M  V30 3987 H 394.253 -1.14105 -4.24119 0
M  V30 3988 H 394.859 -2.57662 -3.38364 0
M  V30 3989 N 393.175 1.03435 -1.18907 0
M  V30 3990 C 394.424 1.76143 -0.982669 0
M  V30 3991 C 394.737 1.89416 0.487953 0
M  V30 3992 O 395.943 2.59041 0.813036 0
M  V30 3993 C 394.399 3.16722 -1.70924 0
M  V30 3994 C 394.007 3.11522 -3.21959 0
M  V30 3995 C 395.751 3.93764 -1.58588 0
M  V30 3996 C 393.658 4.46999 -3.87228 0
M  V30 3997 H 392.588 0.660292 -0.364047 0
M  V30 3998 H 395.239 1.158 -1.42347 0
M  V30 3999 H 393.621 3.775 -1.19623 0
M  V30 4000 H 394.795 2.60158 -3.80335 0
M  V30 4001 H 393.11 2.47978 -3.34508 0
M  V30 4002 H 395.707 4.93963 -2.04707 0
M  V30 4003 H 396.05 4.12794 -0.539142 0
M  V30 4004 H 396.583 3.39576 -2.07203 0
M  V30 4005 H 393.322 4.33174 -4.91976 0
M  V30 4006 H 392.842 4.98441 -3.33642 0
M  V30 4007 H 394.521 5.15898 -3.90459 0
M  V30 4008 N 394.653 0.992116 1.22453 0
M  V30 4009 C 395.6 0.541731 2.24352 0
M  V30 4010 C 396.57 -0.425519 1.60557 0
M  V30 4011 O 397.755 -0.330453 1.87917 0
M  V30 4012 C 394.895 -0.138248 3.44823 0
M  V30 4013 C 394.008 0.870649 4.23136 0
M  V30 4014 C 393.143 0.164269 5.30946 0
M  V30 4015 C 392.182 1.16159 6.00977 0
M  V30 4016 N 391.319 0.483568 7.00433 0
M  V30 4017 H 396.159 1.41541 2.62241 0
M  V30 4018 H 393.696 0.709013 1.28885 0
M  V30 4019 H 395.654 -0.5494 4.13567 0
M  V30 4020 H 394.284 -0.975721 3.077 0
M  V30 4021 H 393.336 1.40013 3.53696 0
M  V30 4022 H 394.648 1.63014 4.7141 0
M  V30 4023 H 393.802 -0.303653 6.0594 0
M  V30 4024 H 392.541 -0.627733 4.83643 0
M  V30 4025 H 391.546 1.64015 5.24766 0
M  V30 4026 H 392.771 1.95445 6.50368 0
M  V30 4027 H 390.717 -0.289012 6.55363 0
M  V30 4028 H 390.634 1.18152 7.4671 0
M  V30 4029 H 391.902 0.0384219 7.79491 0
M  V30 4030 N 396.131 -1.37776 0.765217 0
M  V30 4031 C 397.408 -1.93975 0.251596 0
M  V30 4032 C 397.788 -1.69949 -1.25222 0
M  V30 4033 O 397.136 -1.04457 -2.03226 0
M  V30 4034 C 397.346 -3.43487 0.617895 0
M  V30 4035 C 398.694 -4.20564 0.584029 0
M  V30 4036 O 399.718 -3.5182 0.556888 0
M  V30 4037 O 398.577 -5.43138 0.605291 0
M  V30 4038 H 395.671 -0.82509 0.0561806 0
M  V30 4039 H 398.217 -1.47101 0.846128 0
M  V30 4040 H 396.989 -3.5453 1.65602 0
M  V30 4041 H 396.612 -3.976 -0.00403411 0
M  V30 4042 N 397.609 -0.515225 -1.4894 0
M  V30 4043 C 399.02 -0.0710067 -1.86565 0
M  V30 4044 C 399.371 1.34733 -1.42623 0
M  V30 4045 O 398.496 2.00653 -0.810379 0
M  V30 4046 C 399.091 -0.122083 -3.3858 0
M  V30 4047 C 397.65 0.266863 -3.75453 0
M  V30 4048 C 396.797 -0.488376 -2.72966 0
M  V30 4049 H 399.748 -0.727266 -1.41055 0
M  V30 4050 H 399.769 0.669818 -3.74558 0
M  V30 4051 H 399.281 -1.15448 -3.70531 0
M  V30 4052 H 397.382 1.30196 -3.49113 0
M  V30 4053 H 397.495 -0.0624811 -4.79059 0
M  V30 4054 H 395.859 0.0635622 -2.54621 0
M  V30 4055 H 396.642 -1.52113 -3.07761 0
M  V30 4056 N 399.087 1.5561 -0.249682 0
M  V30 4057 C 400.503 1.59254 0.105103 0
M  V30 4058 C 400.703 1.26685 1.56694 0
M  V30 4059 O 399.759 1.0155 2.31179 0
M  V30 4060 C 401.072 2.99687 -0.246592 0
M  V30 4061 C 402.62 3.12416 -0.191118 0
M  V30 4062 C 403.095 4.55074 -0.516885 0
M  V30 4063 N 404.586 4.60835 -0.467489 0
M  V30 4064 C 405.321 5.69201 -0.69268 0
M  V30 4065 N 404.817 6.85817 -0.981146 0
M  V30 4066 N 406.61 5.58635 -0.623198 0
M  V30 4067 H 398.761 1.75049 -1.20298 0
M  V30 4068 H 401.024 0.815003 -0.484225 0
M  V30 4069 H 400.73 3.28267 -1.26228 0
M  V30 4070 H 400.604 3.74798 0.424962 0
M  V30 4071 H 402.991 2.83615 0.815247 0
M  V30 4072 H 403.072 2.39573 -0.896563 0
M  V30 4073 H 402.716 4.84596 -1.52082 0
M  V30 4074 H 402.646 5.26181 0.210068 0
M  V30 4075 H 405.137 3.7705 -0.253373 0
M  V30 4076 H 405.45 7.64341 -1.14032 0
M  V30 4077 H 403.795 6.87494 -1.01865 0
M  V30 4078 H 406.986 4.66406 -0.397863 0
M  V30 4079 H 407.159 6.43017 -0.802093 0
M  V30 4080 N 400.565 -0.0233959 1.57583 0
M  V30 4081 C 401.811 -0.708611 1.90657 0
M  V30 4082 C 402.166 -1.7266 0.848895 0
M  V30 4083 O 401.459 -1.91075 -0.141749 0
M  V30 4084 C 401.653 -1.41428 3.28227 0
M  V30 4085 C 401.482 -0.466155 4.47277 0
M  V30 4086 C 400.252 -0.085117 5.05228 0
M  V30 4087 C 402.45 0.257836 5.13653 0
M  V30 4088 N 400.432 0.863672 6.07794 0
M  V30 4089 C 401.803 1.06209 6.10835 0
M  V30 4090 C 403.858 0.324174 4.96844 0
M  V30 4091 C 402.561 1.9266 6.93018 0
M  V30 4092 C 404.587 1.17583 5.79593 0
M  V30 4093 C 403.949 1.96799 6.7635 0
M  V30 4094 H 400.048 -0.233222 0.746412 0
M  V30 4095 H 402.632 0.0314512 1.94675 0
M  V30 4096 H 400.803 -2.12477 3.25128 0
M  V30 4097 H 402.535 -2.05233 3.488 0
M  V30 4098 H 399.29 -0.448516 4.71471 0
M  V30 4099 H 399.714 1.33274 6.63752 0
M  V30 4100 H 404.356 -0.273975 4.21911 0
M  V30 4101 H 402.074 2.53552 7.67292 0
M  V30 4102 H 405.66 1.23076 5.68633 0
M  V30 4103 H 404.54 2.61635 7.39268 0
M  V30 4104 N 402.043 -1.548 -0.295768 0
M  V30 4105 C 403.289 -1.74588 -1.03184 0
M  V30 4106 C 403.622 -0.532962 -1.86744 0
M  V30 4107 O 402.897 0.469872 -1.88739 0
M  V30 4108 C 403.18 -3.03791 -1.93347 0
M  V30 4109 C 403.033 -4.35392 -1.12933 0
M  V30 4110 C 404.352 -3.28892 -2.92435 0
M  V30 4111 H 401.471 -0.635221 -0.373715 0
M  V30 4112 H 404.113 -1.87519 -0.30606 0
M  V30 4113 H 402.263 -2.92898 -2.55232 0
M  V30 4114 H 403.935 -4.58211 -0.532943 0
M  V30 4115 H 402.178 -4.31642 -0.432168 0
M  V30 4116 H 402.849 -5.22074 -1.79284 0
M  V30 4117 H 405.325 -3.39429 -2.4068 0
M  V30 4118 H 404.201 -4.20603 -3.52682 0
M  V30 4119 H 404.462 -2.47437 -3.6637 0
M  V30 4120 N 403.521 0.559213 -1.47345 0
M  V30 4121 C 404.769 1.31388 -1.53563 0
M  V30 4122 C 405.09 1.93985 -0.198678 0
M  V30 4123 O 404.36 1.79825 0.777167 0
M  V30 4124 H 402.94 0.487901 -0.565652 0
M  V30 4125 H 405.602 0.65315 -1.8363 0
M  V30 4126 H 404.698 2.10844 -2.30111 0
M  V30 4127 N 404.999 1.35443 0.805782 0
M  V30 4128 C 405.962 1.28301 1.89925 0
M  V30 4129 C 406.962 0.194285 1.59622 0
M  V30 4130 O 408.152 0.448036 1.6834 0
M  V30 4131 C 405.284 0.984997 3.2636 0
M  V30 4132 H 406.477 2.2553 1.97677 0
M  V30 4133 H 404.03 1.19979 1.00173 0
M  V30 4134 H 404.765 0.016603 3.24296 0
M  V30 4135 H 404.55 1.77269 3.4974 0
M  V30 4136 H 406.04 0.960651 4.064 0
M  V30 4137 N 406.477 -1.02803 1.19454 0
M  V30 4138 C 407.723 -1.76598 1.0092 0
M  V30 4139 C 408.078 -1.86939 -0.455142 0
M  V30 4140 O 407.371 -1.37575 -1.33355 0
M  V30 4141 C 407.565 -3.18941 1.6128 0
M  V30 4142 C 407.394 -3.22476 3.13431 0
M  V30 4143 C 406.164 -3.30375 3.82336 0
M  V30 4144 C 408.362 -3.09451 4.10785 0
M  V30 4145 N 406.344 -3.23292 5.21877 0
M  V30 4146 C 407.715 -3.10012 5.36929 0
M  V30 4147 C 409.77 -2.93585 4.02135 0
M  V30 4148 C 408.473 -2.96334 6.55423 0
M  V30 4149 C 410.499 -2.81256 5.20239 0
M  V30 4150 C 409.861 -2.82472 6.45282 0
M  V30 4151 H 405.96 -0.657447 0.423424 0
M  V30 4152 H 408.544 -1.22369 1.5144 0
M  V30 4153 H 406.715 -3.71489 1.1336 0
M  V30 4154 H 408.447 -3.81102 1.36173 0
M  V30 4155 H 405.202 -3.3663 3.33132 0
M  V30 4156 H 405.626 -3.23156 5.94894 0
M  V30 4157 H 410.268 -2.91466 3.0628 0
M  V30 4158 H 407.986 -2.97203 7.51463 0
M  V30 4159 H 411.572 -2.70014 5.15348 0
M  V30 4160 H 410.452 -2.73036 7.35133 0
M  V30 4161 N 407.956 -0.998596 -1.21925 0
M  V30 4162 C 409.202 -0.688337 -1.91399 0
M  V30 4163 C 409.557 0.771805 -1.76241 0
M  V30 4164 O 408.85 1.55153 -1.1242 0
M  V30 4165 C 409.044 -1.03648 -3.42041 0
M  V30 4166 C 408.873 -2.52892 -3.71855 0
M  V30 4167 C 407.643 -3.19389 -3.91559 0
M  V30 4168 C 409.841 -3.5103 -3.75875 0
M  V30 4169 N 407.823 -4.5805 -4.08734 0
M  V30 4170 C 409.194 -4.75174 -3.98259 0
M  V30 4171 C 411.249 -3.45257 -3.58751 0
M  V30 4172 C 409.952 -5.94247 -4.05294 0
M  V30 4173 C 411.978 -4.63712 -3.67049 0
M  V30 4174 C 411.34 -5.86658 -3.89887 0
M  V30 4175 H 407.439 -0.303251 -0.720807 0
M  V30 4176 H 410.023 -1.27977 -1.46731 0
M  V30 4177 H 408.194 -0.473569 -3.85502 0
M  V30 4178 H 409.926 -0.681619 -3.98919 0
M  V30 4179 H 406.681 -2.69846 -3.89205 0
M  V30 4180 H 407.105 -5.29989 -4.21237 0
M  V30 4181 H 411.747 -2.51215 -3.40075 0
M  V30 4182 H 409.465 -6.88687 -4.22772 0
M  V30 4183 H 413.051 -4.6084 -3.5513 0
M  V30 4184 H 411.931 -6.76786 -3.96144 0
M  V30 4185 N 409.434 1.37368 -0.772513 0
M  V30 4186 C 410.364 2.32856 -0.173304 0
M  V30 4187 C 411.345 1.55818 0.682262 0
M  V30 4188 O 412.53 1.84052 0.619566 0
M  V30 4189 C 409.66 3.40048 0.706007 0
M  V30 4190 C 408.614 4.27973 -0.0483144 0
M  V30 4191 C 407.94 5.26184 0.950491 0
M  V30 4192 C 409.24 5.07665 -1.22776 0
M  V30 4193 H 410.934 2.83217 -0.971002 0
M  V30 4194 H 408.48 1.3617 -0.468377 0
M  V30 4195 H 410.433 4.05827 1.13501 0
M  V30 4196 H 409.157 2.88214 1.53623 0
M  V30 4197 H 407.816 3.63726 -0.458107 0
M  V30 4198 H 407.464 4.7063 1.77529 0
M  V30 4199 H 407.164 5.85872 0.450314 0
M  V30 4200 H 408.688 5.94838 1.37842 0
M  V30 4201 H 410.102 5.66578 -0.875366 0
M  V30 4202 H 408.499 5.76681 -1.66007 0
M  V30 4203 H 409.569 4.40294 -2.03149 0
M  V30 4204 N 410.912 0.523116 1.48665 0
M  V30 4205 C 412.16 -0.0134497 2.02096 0
M  V30 4206 C 412.481 -1.35418 1.40311 0
M  V30 4207 O 411.751 -1.87543 0.566074 0
M  V30 4208 H 410.331 -0.00795915 0.746958 0
M  V30 4209 H 412.993 0.685388 1.82451 0
M  V30 4210 H 412.089 -0.126849 3.11842 0
M  V30 4211 N 412.39 -1.55475 0.257931 0
M  V30 4212 C 413.637 -1.99207 -0.363728 0
M  V30 4213 C 413.965 -1.1462 -1.57139 0
M  V30 4214 O 413.22 -0.199653 -1.94679 0
M  V30 4215 C 413.519 -3.48183 -0.806433 0
M  V30 4216 C 413.185 -4.49936 0.294684 0
M  V30 4217 C 411.847 -4.77481 0.597076 0
M  V30 4218 C 414.199 -5.10769 1.03751 0
M  V30 4219 C 411.527 -5.63132 1.64618 0
M  V30 4220 C 413.879 -5.97558 2.07622 0
M  V30 4221 C 412.543 -6.23432 2.38514 0
M  V30 4222 H 411.813 -0.728949 -0.133097 0
M  V30 4223 H 414.46 -1.8793 0.368059 0
M  V30 4224 H 412.765 -3.56848 -1.61761 0
M  V30 4225 H 414.462 -3.79415 -1.29789 0
M  V30 4226 H 411.052 -4.28572 0.0488649 0
M  V30 4227 H 415.236 -4.89527 0.817149 0
M  V30 4228 H 410.492 -5.8143 1.89074 0
M  V30 4229 H 414.666 -6.43735 2.65666 0
M  V30 4230 H 412.293 -6.89594 3.19943 0
M  V30 4231 N 413.868 0.0150385 -1.57593 0
M  V30 4232 C 414.798 1.01047 -2.10503 0
M  V30 4233 C 415.779 1.36816 -1.01071 0
M  V30 4234 O 416.964 1.45455 -1.28672 0
M  V30 4235 C 414.094 2.30708 -2.59598 0
M  V30 4236 C 413.048 2.09142 -3.73421 0
M  V30 4237 C 412.374 3.44685 -4.08774 0
M  V30 4238 C 413.674 1.46619 -5.01298 0
M  V30 4239 H 415.368 0.569978 -2.93925 0
M  V30 4240 H 412.914 0.272724 -1.41394 0
M  V30 4241 H 414.867 3.00687 -2.95238 0
M  V30 4242 H 413.591 2.76843 -1.73279 0
M  V30 4243 H 412.25 1.41592 -3.38153 0
M  V30 4244 H 411.898 3.88495 -3.195 0
M  V30 4245 H 411.598 3.31077 -4.8545 0
M  V30 4246 H 413.122 4.16004 -4.4696 0
M  V30 4247 H 414.536 2.06535 -5.34805 0
M  V30 4248 H 412.933 1.43544 -5.82679 0
M  V30 4249 H 414.003 0.433611 -4.82957 0
M  V30 4250 N 415.346 1.54954 0.287554 0
M  V30 4251 C 416.595 1.74081 1.01877 0
M  V30 4252 C 416.908 0.541135 1.87966 0
M  V30 4253 O 418.114 0.614491 2.64455 0
M  V30 4254 C 416.57 3.08042 1.86113 0
M  V30 4255 C 416.178 4.35531 1.04961 0
M  V30 4256 C 417.922 3.36523 2.58752 0
M  V30 4257 C 415.829 5.60538 1.88551 0
M  V30 4258 H 414.759 0.64884 0.384087 0
M  V30 4259 H 417.41 1.81426 0.275101 0
M  V30 4260 H 415.792 2.94696 2.64519 0
M  V30 4261 H 416.966 4.59751 0.31074 0
M  V30 4262 H 415.281 4.14085 0.43843 0
M  V30 4263 H 417.878 4.27122 3.21668 0
M  V30 4264 H 418.221 2.56 3.28283 0
M  V30 4265 H 418.754 3.50901 1.87386 0
M  V30 4266 H 415.493 6.43767 1.23466 0
M  V30 4267 H 415.013 5.40483 2.60074 0
M  V30 4268 H 416.692 5.98297 2.46273 0
M  V30 4269 N 416.824 -0.551391 1.4764 0
M  V30 4270 C 417.787 -1.64007 1.60107 0
M  V30 4271 C 418.787 -1.53601 0.47576 0
M  V30 4272 O 419.977 -1.57655 0.740988 0
M  V30 4273 C 417.109 -3.03569 1.55108 0
M  V30 4274 H 418.302 -1.543 2.57161 0
M  V30 4275 H 415.855 -0.771776 1.35917 0
M  V30 4276 H 416.59 -3.18804 0.594519 0
M  V30 4277 H 416.375 -3.12532 2.36783 0
M  V30 4278 H 417.865 -3.82762 1.66982 0
M  V30 4279 N 418.302 -1.35869 -0.798587 0
M  V30 4280 C 419.265 -1.29307 -1.89242 0
M  V30 4281 C 420.265 -0.202747 -1.59517 0
M  V30 4282 O 421.455 -0.456957 -1.681 0
M  V30 4283 C 418.587 -1.00229 -3.25833 0
M  V30 4284 H 419.78 -2.26576 -1.96478 0
M  V30 4285 H 417.333 -1.20509 -0.995358 0
M  V30 4286 H 418.068 -0.033801 -3.24282 0
M  V30 4287 H 417.853 -1.79121 -3.48795 0
M  V30 4288 H 419.343 -0.98219 -4.05885 0
M  V30 4289 N 419.78 1.02168 -1.19998 0
M  V30 4290 C 421.028 1.75338 -1.00504 0
M  V30 4291 C 421.349 1.89387 0.464506 0
M  V30 4292 O 420.619 1.43268 1.33608 0
M  V30 4293 H 419.199 0.649564 -0.368885 0
M  V30 4294 H 421.861 1.23205 -1.51018 0
M  V30 4295 H 420.957 2.75892 -1.45912 0
M  V30 4296 N 421.258 1.00505 1.21394 0
M  V30 4297 C 422.221 0.570459 2.21987 0
M  V30 4298 C 423.221 -0.353211 1.56873 0
M  V30 4299 O 424.411 -0.14349 1.73608 0
M  V30 4300 C 421.543 -0.168555 3.40483 0
M  V30 4301 H 422.736 1.46021 2.6195 0
M  V30 4302 H 420.289 0.793565 1.34656 0
M  V30 4303 H 421.024 -1.07374 3.06009 0
M  V30 4304 H 420.809 0.494823 3.88965 0
M  V30 4305 H 422.299 -0.460362 4.15055 0
M  V30 4306 N 422.737 -1.36956 0.779787 0
M  V30 4307 C 423.983 -1.99787 0.348281 0
M  V30 4308 C 424.316 -1.61756 -1.07465 0
M  V30 4309 O 423.591 -0.867639 -1.74075 0
M  V30 4310 C 423.874 -3.56597 0.50104 0
M  V30 4311 C 423.727 -4.04513 1.96697 0
M  V30 4312 C 425.046 -4.40008 -0.0898097 0
M  V30 4313 H 422.165 -0.725796 0.128022 0
M  V30 4314 H 424.807 -1.62514 0.984331 0
M  V30 4315 H 422.957 -3.88479 -0.0404347 0
M  V30 4316 H 424.629 -3.83161 2.56876 0
M  V30 4317 H 422.872 -3.56408 2.47297 0
M  V30 4318 H 423.543 -5.1352 2.02486 0
M  V30 4319 H 426.019 -4.14431 0.372293 0
M  V30 4320 H 424.895 -5.4888 0.0471605 0
M  V30 4321 H 425.156 -4.26035 -1.18096 0
M  V30 4322 N 424.215 -0.530993 -1.48385 0
M  V30 4323 C 425.178 0.220497 -2.28137 0
M  V30 4324 C 426.178 0.866851 -1.35434 0
M  V30 4325 O 427.368 0.726746 -1.58316 0
M  V30 4326 C 424.5 1.31921 -3.1434 0
M  V30 4327 H 425.693 -0.479714 -2.96038 0
M  V30 4328 H 423.246 -0.286968 -1.53643 0
M  V30 4329 H 423.981 2.05264 -2.51072 0
M  V30 4330 H 423.766 0.86085 -3.82533 0
M  V30 4331 H 425.256 1.84776 -3.74497 0
M  V30 4332 N 425.693 1.55336 -0.266172 0
M  V30 4333 C 426.623 2.25146 0.618981 0
M  V30 4334 C 427.604 1.23845 1.16604 0
M  V30 4335 O 428.789 1.52544 1.20183 0
M  V30 4336 C 425.919 2.96572 1.80728 0
M  V30 4337 C 424.873 4.04726 1.39215 0
M  V30 4338 C 424.199 4.63678 2.66283 0
M  V30 4339 C 425.499 5.19407 0.548942 0
M  V30 4340 H 427.193 2.99377 0.0368116 0
M  V30 4341 H 424.739 1.43991 0.0162651 0
M  V30 4342 H 426.692 3.44116 2.43232 0
M  V30 4343 H 425.416 2.19861 2.41514 0
M  V30 4344 H 424.075 3.57979 0.790351 0
M  V30 4345 H 423.723 3.83646 3.25308 0
M  V30 4346 H 423.423 5.367 2.39222 0
M  V30 4347 H 424.947 5.13967 3.29651 0
M  V30 4348 H 426.361 5.63059 1.07876 0
M  V30 4349 H 424.758 5.98936 0.373593 0
M  V30 4350 H 425.828 4.8295 -0.434394 0
M  V30 4351 N 427.171 -0.0066808 1.57599 0
M  V30 4352 C 428.134 -0.985035 2.06953 0
M  V30 4353 C 429.134 -1.27663 0.977687 0
M  V30 4354 O 430.324 -1.22293 1.24057 0
M  V30 4355 C 427.456 -2.3118 2.50536 0
M  V30 4356 H 428.649 -0.558255 2.94658 0
M  V30 4357 H 426.202 -0.254011 1.54222 0
M  V30 4358 H 426.937 -2.78561 1.66054 0
M  V30 4359 H 426.722 -2.11338 3.3027 0
M  V30 4360 H 428.212 -3.01377 2.8907 0
M  V30 4361 N 428.649 -1.55105 -0.279332 0
M  V30 4362 C 429.612 -1.86783 -1.32834 0
M  V30 4363 C 430.612 -0.74199 -1.42657 0
M  V30 4364 O 431.802 -1.0102 -1.41918 0
M  V30 4365 C 428.934 -2.06746 -2.71052 0
M  V30 4366 H 430.127 -2.8055 -1.05979 0
M  V30 4367 H 427.68 -1.47499 -0.517087 0
M  V30 4368 H 428.415 -1.15339 -3.03097 0
M  V30 4369 H 428.2 -2.88711 -2.65309 0
M  V30 4370 H 429.69 -2.32549 -3.46858 0
M  V30 4371 N 430.127 0.543554 -1.4793 0
M  V30 4372 C 431.376 1.29649 -1.54512 0
M  V30 4373 C 431.689 1.94382 -0.217973 0
M  V30 4374 O 432.895 2.71017 -0.161908 0
M  V30 4375 C 431.351 2.35175 -2.72435 0
M  V30 4376 C 430.959 1.76572 -4.11736 0
M  V30 4377 C 432.703 3.11564 -2.8832 0
M  V30 4378 C 430.61 2.79958 -5.20939 0
M  V30 4379 H 429.54 0.487541 -0.57517 0
M  V30 4380 H 432.191 0.575708 -1.74235 0
M  V30 4381 H 430.573 3.10229 -2.46118 0
M  V30 4382 H 431.747 1.07799 -4.48013 0
M  V30 4383 H 430.062 1.12722 -4.00852 0
M  V30 4384 H 432.659 3.88794 -3.67074 0
M  V30 4385 H 433.002 3.66594 -1.97268 0
M  V30 4386 H 433.535 2.43623 -3.14472 0
M  V30 4387 H 430.274 2.29766 -6.13912 0
M  V30 4388 H 429.794 3.47101 -4.89164 0
M  V30 4389 H 431.473 3.43198 -5.48474 0
M  V30 4390 N 431.605 1.3629 0.791371 0
M  V30 4391 C 433.016 1.27225 1.36641 0
M  V30 4392 C 433.367 -0.0887968 1.95999 0
M  V30 4393 O 432.492 -0.990207 1.92416 0
M  V30 4394 C 433.087 2.30375 2.48421 0
M  V30 4395 C 431.646 2.25004 3.01746 0
M  V30 4396 C 430.793 2.15259 1.7481 0
M  V30 4397 H 433.744 1.47198 0.593173 0
M  V30 4398 H 433.765 1.93905 3.27385 0
M  V30 4399 H 433.277 3.29422 2.05189 0
M  V30 4400 H 431.378 1.29417 3.49403 0
M  V30 4401 H 431.491 3.1761 3.58693 0
M  V30 4402 H 429.855 1.61482 1.96966 0
M  V30 4403 H 430.638 3.16191 1.33709 0
M  V30 4404 N 433.083 -1.0153 1.20538 0
M  V30 4405 C 434.313 -1.78487 1.04048 0
M  V30 4406 C 434.721 -1.84631 -0.413292 0
M  V30 4407 O 434.064 -1.29919 -1.29872 0
M  V30 4408 C 434.126 -3.24367 1.55003 0
M  V30 4409 C 433.79 -3.41827 3.0332 0
M  V30 4410 C 434.787 -3.30941 4.00966 0
M  V30 4411 C 432.472 -3.67602 3.42307 0
M  V30 4412 C 434.466 -3.45577 5.35589 0
M  V30 4413 C 432.153 -3.81881 4.77085 0
M  V30 4414 C 433.151 -3.70874 5.73534 0
M  V30 4415 O 432.839 -3.84714 7.05868 0
M  V30 4416 H 432.571 -0.568108 0.366373 0
M  V30 4417 H 435.125 -1.28677 1.60098 0
M  V30 4418 H 433.355 -3.75266 0.933397 0
M  V30 4419 H 435.044 -3.82963 1.34514 0
M  V30 4420 H 435.81 -3.10964 3.72191 0
M  V30 4421 H 431.689 -3.75256 2.67776 0
M  V30 4422 H 435.233 -3.36902 6.10854 0
M  V30 4423 H 431.13 -4.01359 5.0555 0
M  V30 4424 H 431.898 -4.01724 7.13134 0
M  V30 4425 N 434.561 -1.01147 -1.20859 0
M  V30 4426 C 435.808 -0.697865 -1.90095 0
M  V30 4427 C 436.136 0.772014 -1.78522 0
M  V30 4428 O 435.391 1.57595 -1.16027 0
M  V30 4429 C 435.69 -1.0727 -3.40922 0
M  V30 4430 C 435.356 -2.53792 -3.72693 0
M  V30 4431 C 434.018 -2.93829 -3.81075 0
M  V30 4432 C 436.37 -3.48674 -3.87397 0
M  V30 4433 C 433.698 -4.27696 -4.01613 0
M  V30 4434 C 436.05 -4.82223 -4.09444 0
M  V30 4435 C 434.714 -5.21973 -4.16054 0
M  V30 4436 H 433.984 -0.255367 -0.695607 0
M  V30 4437 H 436.631 -1.27111 -1.43231 0
M  V30 4438 H 434.936 -0.417799 -3.89566 0
M  V30 4439 H 436.633 -0.807818 -3.92779 0
M  V30 4440 H 433.223 -2.21768 -3.66765 0
M  V30 4441 H 437.407 -3.18904 -3.80281 0
M  V30 4442 H 432.663 -4.58055 -4.04964 0
M  V30 4443 H 436.837 -5.55672 -4.19763 0
M  V30 4444 H 434.464 -6.25717 -4.31721 0
M  V30 4445 N 436.039 1.36541 -0.78704 0
M  V30 4446 C 437.286 1.99304 -0.358341 0
M  V30 4447 C 437.614 1.62467 1.06933 0
M  V30 4448 O 436.869 0.870019 1.75297 0
M  V30 4449 C 437.168 3.54343 -0.466485 0
M  V30 4450 C 436.834 4.10993 -1.85461 0
M  V30 4451 C 435.496 4.26177 -2.23443 0
M  V30 4452 C 437.848 4.41895 -2.76366 0
M  V30 4453 C 435.176 4.69573 -3.51736 0
M  V30 4454 C 437.528 4.86722 -4.04084 0
M  V30 4455 C 436.192 5.00112 -4.42091 0
M  V30 4456 H 435.462 0.729306 -0.131126 0
M  V30 4457 H 438.109 1.63068 -1.00404 0
M  V30 4458 H 436.414 3.90918 0.262719 0
M  V30 4459 H 438.111 4.00833 -0.115854 0
M  V30 4460 H 434.701 3.99612 -1.54946 0
M  V30 4461 H 438.885 4.29735 -2.48277 0
M  V30 4462 H 434.141 4.78127 -3.81057 0
M  V30 4463 H 438.315 5.09598 -4.7464 0
M  V30 4464 H 435.942 5.33498 -5.41557 0
M  V30 4465 N 437.518 0.538854 1.48102 0
M  V30 4466 C 438.765 0.0080018 2.02498 0
M  V30 4467 C 439.093 -1.33437 1.41509 0
M  V30 4468 O 438.348 -1.87709 0.553507 0
M  V30 4469 C 438.647 -0.153808 3.57069 0
M  V30 4470 C 438.313 1.11533 4.36888 0
M  V30 4471 C 436.975 1.46314 4.58417 0
M  V30 4472 C 439.327 1.95718 4.83057 0
M  V30 4473 C 436.655 2.6516 5.23361 0
M  V30 4474 C 439.007 3.13751 5.49312 0
M  V30 4475 C 437.671 3.48866 5.69077 0
M  V30 4476 H 436.941 0.00292807 0.740994 0
M  V30 4477 H 439.588 0.706668 1.77984 0
M  V30 4478 H 437.893 -0.935309 3.80472 0
M  V30 4479 H 439.59 -0.579607 3.96789 0
M  V30 4480 H 436.18 0.834484 4.20398 0
M  V30 4481 H 440.364 1.70158 4.66219 0
M  V30 4482 H 435.62 2.92558 5.36861 0
M  V30 4483 H 439.794 3.79282 5.84053 0
M  V30 4484 H 437.421 4.41054 6.19173 0
M  V30 4485 N 438.996 -1.55193 0.274407 0
M  V30 4486 C 440.407 -1.85358 -0.223488 0
M  V30 4487 C 440.758 -1.19642 -1.555 0
M  V30 4488 O 439.883 -0.484498 -2.10907 0
M  V30 4489 C 440.478 -3.36282 -0.412285 0
M  V30 4490 C 439.037 -3.66574 -0.854413 0
M  V30 4491 C 438.184 -2.7725 0.0527056 0
M  V30 4492 H 441.135 -1.50743 0.496215 0
M  V30 4493 H 441.156 -3.59349 -1.25094 0
M  V30 4494 H 440.668 -3.84083 0.556965 0
M  V30 4495 H 438.769 -3.24273 -1.83516 0
M  V30 4496 H 438.882 -4.74073 -0.692226 0
M  V30 4497 H 437.246 -2.50447 -0.463484 0
M  V30 4498 H 438.029 -3.27865 1.01783 0
M  V30 4499 N 440.474 -0.00167713 -1.576 0
M  V30 4500 C 441.421 0.989195 -2.08527 0
M  V30 4501 C 442.391 1.34031 -0.981065 0
M  V30 4502 O 443.576 1.43839 -1.2536 0
M  V30 4503 C 440.716 2.27537 -2.59463 0
M  V30 4504 C 439.829 1.98314 -3.83791 0
M  V30 4505 C 438.964 3.21025 -4.23222 0
M  V30 4506 C 438.003 2.87495 -5.40382 0
M  V30 4507 N 437.14 4.02749 -5.75098 0
M  V30 4508 H 441.98 0.547973 -2.92919 0
M  V30 4509 H 439.517 0.258917 -1.44803 0
M  V30 4510 H 441.475 3.02729 -2.87073 0
M  V30 4511 H 440.105 2.69325 -1.77943 0
M  V30 4512 H 439.157 1.13482 -3.63078 0
M  V30 4513 H 440.469 1.69601 -4.69081 0
M  V30 4514 H 439.623 4.04561 -4.52123 0
M  V30 4515 H 438.362 3.52877 -3.36644 0
M  V30 4516 H 437.367 2.02367 -5.11202 0
M  V30 4517 H 438.592 2.56889 -6.28637 0
M  V30 4518 H 436.538 4.34494 -4.91478 0
M  V30 4519 H 436.455 3.77566 -6.54966 0
M  V30 4520 H 437.723 4.87068 -6.08592 0
M  V30 4521 N 441.952 1.55251 0.271103 0
M  V30 4522 C 442.862 1.9136 1.35714 0
M  V30 4523 C 443.878 0.811075 1.5394 0
M  V30 4524 O 445.054 1.11031 1.6803 0
M  V30 4525 C 442.119 2.1798 2.69603 0
M  V30 4526 C 441.18 3.4153 2.60107 0
M  V30 4527 C 440.413 3.66871 3.8761 0
M  V30 4528 O 440.636 2.94689 4.8838 0
M  V30 4529 O 439.57 4.60405 3.87699 0
M  V30 4530 H 443.396 2.83815 1.08088 0
M  V30 4531 H 440.981 1.41821 0.469792 0
M  V30 4532 H 442.863 2.36518 3.48765 0
M  V30 4533 H 441.538 1.28708 2.97012 0
M  V30 4534 H 440.445 3.28325 1.79314 0
M  V30 4535 H 441.778 4.31027 2.37647 0
M  V30 4536 N 443.43 -0.535701 1.48216 0
M  V30 4537 C 444.363 -1.65726 1.56876 0
M  V30 4538 C 445.341 -1.57094 0.419542 0
M  V30 4539 O 446.525 -1.77648 0.630352 0
M  V30 4540 C 443.652 -3.04096 1.49142 0
M  V30 4541 C 442.698 -3.31105 2.68834 0
M  V30 4542 S 443.531 -3.18001 4.30854 0
M  V30 4543 C 444.687 -4.58828 4.25709 0
M  V30 4544 H 444.92 -1.58129 2.51759 0
M  V30 4545 H 442.453 -0.718218 1.36678 0
M  V30 4546 H 444.411 -3.839 1.45366 0
M  V30 4547 H 443.072 -3.09139 0.556067 0
M  V30 4548 H 442.265 -4.32033 2.59545 0
M  V30 4549 H 441.867 -2.58961 2.69843 0
M  V30 4550 H 444.159 -5.5023 3.95289 0
M  V30 4551 H 445.102 -4.73172 5.26796 0
M  V30 4552 H 445.51 -4.37883 3.56257 0
M  V30 4553 N 444.908 -1.36708 -0.784132 0
M  V30 4554 C 446.319 -1.27947 -1.35965 0
M  V30 4555 C 446.67 0.0784013 -1.96043 0
M  V30 4556 O 445.795 0.979989 -1.92938 0
M  V30 4557 C 446.39 -2.31689 -2.47195 0
M  V30 4558 C 444.949 -2.26601 -3.00548 0
M  V30 4559 C 444.096 -2.16184 -1.73666 0
M  V30 4560 H 447.047 -1.4751 -0.585358 0
M  V30 4561 H 447.068 -1.95638 -3.26352 0
M  V30 4562 H 446.58 -3.30506 -2.03439 0
M  V30 4563 H 444.681 -1.31268 -3.48711 0
M  V30 4564 H 444.794 -3.19508 -3.57004 0
M  V30 4565 H 443.158 -1.62524 -1.96107 0
M  V30 4566 H 443.941 -3.16896 -1.32031 0
M  V30 4567 N 446.386 1.0089 -1.21074 0
M  V30 4568 C 447.333 2.09588 -0.966512 0
M  V30 4569 C 448.303 1.65761 0.106089 0
M  V30 4570 O 449.488 1.90758 -0.0402287 0
M  V30 4571 C 446.628 3.40958 -0.533058 0
M  V30 4572 C 445.741 3.9822 -1.67467 0
M  V30 4573 C 444.876 5.17682 -1.19076 0
M  V30 4574 C 443.915 5.67043 -2.30496 0
M  V30 4575 N 443.052 6.77759 -1.83267 0
M  V30 4576 H 447.892 2.29815 -1.89708 0
M  V30 4577 H 445.429 1.12689 -0.945489 0
M  V30 4578 H 447.387 4.1637 -0.263019 0
M  V30 4579 H 446.017 3.20781 0.360505 0
M  V30 4580 H 445.069 3.1983 -2.05944 0
M  V30 4581 H 446.381 4.3085 -2.51336 0
M  V30 4582 H 445.535 6.00326 -0.877151 0
M  V30 4583 H 444.274 4.86635 -0.322066 0
M  V30 4584 H 443.279 4.82999 -2.62664 0
M  V30 4585 H 444.504 6.00121 -3.17855 0
M  V30 4586 H 442.45 6.48527 -0.987356 0
M  V30 4587 H 442.367 7.09624 -2.60711 0
M  V30 4588 H 443.635 7.63949 -1.54928 0
M  V30 4589 N 447.864 1.01787 1.20321 0
M  V30 4590 C 448.774 0.598898 2.26827 0
M  V30 4591 C 449.79 -0.36418 1.70146 0
M  V30 4592 O 450.966 -0.224812 2.00141 0
M  V30 4593 C 448.031 -0.0549769 3.46656 0
M  V30 4594 C 447.092 0.954205 4.18561 0
M  V30 4595 C 446.325 0.331439 5.3267 0
M  V30 4596 O 446.548 -0.86851 5.63749 0
M  V30 4597 O 445.482 1.0488 5.92692 0
M  V30 4598 H 449.308 1.48562 2.64883 0
M  V30 4599 H 446.893 0.787434 1.26964 0
M  V30 4600 H 448.775 -0.420102 4.19301 0
M  V30 4601 H 447.45 -0.915876 3.10473 0
M  V30 4602 H 446.357 1.37072 3.48083 0
M  V30 4603 H 447.69 1.78511 4.58688 0
M  V30 4604 N 449.342 -1.36122 0.79427 0
M  V30 4605 C 450.289 -2.29982 0.194101 0
M  V30 4606 C 451.259 -1.52214 -0.664833 0
M  V30 4607 O 452.444 -1.80702 -0.612498 0
M  V30 4608 C 449.584 -3.38706 -0.661244 0
M  V30 4609 C 448.697 -4.31456 0.216766 0
M  V30 4610 C 447.832 -5.27265 -0.645411 0
M  V30 4611 C 446.871 -6.11653 0.233756 0
M  V30 4612 N 446.008 -6.99636 -0.587682 0
M  V30 4613 H 450.848 -2.80722 0.999965 0
M  V30 4614 H 448.385 -1.38172 0.504677 0
M  V30 4615 H 450.343 -4.00394 -1.17219 0
M  V30 4616 H 448.973 -2.89274 -1.43249 0
M  V30 4617 H 448.025 -3.7088 0.845724 0
M  V30 4618 H 449.337 -4.90724 0.893973 0
M  V30 4619 H 448.491 -5.94266 -1.22198 0
M  V30 4620 H 447.23 -4.68463 -1.35623 0
M  V30 4621 H 446.235 -5.4361 0.82269 0
M  V30 4622 H 447.46 -6.72531 0.942247 0
M  V30 4623 H 445.406 -6.43337 -1.2827 0
M  V30 4624 H 445.323 -7.55993 0.0317402 0
M  V30 4625 H 446.591 -7.71001 -1.14792 0
M  V30 4626 N 450.82 -0.546701 -1.47814 0
M  V30 4627 C 452.236 -0.205717 -1.58269 0
M  V30 4628 C 452.436 1.29153 -1.54667 0
M  V30 4629 O 451.492 2.07098 -1.44453 0
M  V30 4630 C 452.805 -0.823065 -2.89216 0
M  V30 4631 C 454.353 -0.793328 -3.02779 0
M  V30 4632 C 454.828 -1.38955 -4.36412 0
M  V30 4633 N 456.319 -1.35227 -4.43021 0
M  V30 4634 C 457.054 -1.78333 -5.44963 0
M  V30 4635 N 456.55 -2.29246 -6.53772 0
M  V30 4636 N 458.343 -1.69467 -5.35945 0
M  V30 4637 H 450.494 -1.5196 -1.48398 0
M  V30 4638 H 452.757 -0.633078 -0.705632 0
M  V30 4639 H 452.463 -1.8749 -2.97558 0
M  V30 4640 H 452.337 -0.309915 -3.75925 0
M  V30 4641 H 454.724 0.249784 -2.94041 0
M  V30 4642 H 454.805 -1.34412 -2.17639 0
M  V30 4643 H 454.449 -2.43168 -4.45906 0
M  V30 4644 H 454.379 -0.814291 -5.20266 0
M  V30 4645 H 456.87 -0.979739 -3.64979 0
M  V30 4646 H 457.183 -2.60089 -7.27718 0
M  V30 4647 H 455.528 -2.3325 -6.5469 0
M  V30 4648 H 458.719 -1.29477 -4.49837 0
M  V30 4649 H 458.892 -2.03381 -6.15256 0
M  V30 4650 N 452.299 1.55045 -0.282633 0
M  V30 4651 C 453.209 2.26491 0.61147 0
M  V30 4652 C 454.225 1.29348 1.16384 0
M  V30 4653 O 455.401 1.62298 1.19253 0
M  V30 4654 C 452.466 2.97779 1.77563 0
M  V30 4655 C 451.527 4.10418 1.25919 0
M  V30 4656 C 450.76 4.78297 2.36786 0
M  V30 4657 O 450.983 4.45426 3.56303 0
M  V30 4658 O 449.917 5.66089 2.04517 0
M  V30 4659 H 453.743 3.03683 0.0324615 0
M  V30 4660 H 451.328 1.49317 -0.0497576 0
M  V30 4661 H 453.21 3.42554 2.45427 0
M  V30 4662 H 451.885 2.23498 2.34159 0
M  V30 4663 H 450.792 3.70082 0.546797 0
M  V30 4664 H 452.125 4.86622 0.738887 0
M  V30 4665 N 453.777 0.010035 1.57597 0
M  V30 4666 C 454.707 -0.976857 2.12084 0
M  V30 4667 C 455.688 -1.35191 1.03235 0
M  V30 4668 O 456.873 -1.43389 1.3097 0
M  V30 4669 C 454.003 -2.26548 2.63236 0
M  V30 4670 C 452.957 -2.03175 3.76701 0
M  V30 4671 C 452.283 -3.38138 4.14206 0
M  V30 4672 C 453.583 -1.38625 5.03568 0
M  V30 4673 H 455.277 -0.523145 2.94794 0
M  V30 4674 H 452.823 -0.250195 1.4181 0
M  V30 4675 H 454.776 -2.95952 2.99984 0
M  V30 4676 H 453.5 -2.74051 1.77661 0
M  V30 4677 H 452.159 -1.36195 3.40362 0
M  V30 4678 H 451.807 -3.83363 3.25641 0
M  V30 4679 H 451.507 -3.23312 4.90656 0
M  V30 4680 H 453.031 -4.08841 4.53521 0
M  V30 4681 H 454.445 -1.98 5.38023 0
M  V30 4682 H 452.842 -1.34256 5.84889 0
M  V30 4683 H 453.912 -0.356722 4.83586 0
M  V30 4684 N 455.255 -1.55392 -0.262866 0
M  V30 4685 C 456.187 -1.85392 -1.34768 0
M  V30 4686 C 457.2 -0.739069 -1.45057 0
M  V30 4687 O 458.389 -1.01703 -1.46693 0
M  V30 4688 C 455.489 -2.01088 -2.72795 0
M  V30 4689 C 454.662 -3.31828 -2.84972 0
M  V30 4690 C 453.721 -3.37464 -4.03738 0
M  V30 4691 O 452.747 -4.10778 -3.94018 0
M  V30 4692 N 453.949 -2.65599 -5.16176 0
M  V30 4693 H 456.714 -2.79029 -1.09375 0
M  V30 4694 H 454.275 -1.55434 -0.452981 0
M  V30 4695 H 456.267 -2.02217 -3.50557 0
M  V30 4696 H 454.837 -1.1427 -2.90966 0
M  V30 4697 H 454.057 -3.43152 -1.94012 0
M  V30 4698 H 455.345 -4.18032 -2.90045 0
M  V30 4699 H 454.743 -2.05736 -5.26962 0
M  V30 4700 H 453.3 -2.72439 -5.92132 0
M  V30 4701 N 456.733 0.527833 -1.48498 0
M  V30 4702 C 457.98 1.28354 -1.56625 0
M  V30 4703 C 458.308 1.93 -0.241096 0
M  V30 4704 O 457.563 1.79967 0.768798 0
M  V30 4705 C 457.862 2.39275 -2.65485 0
M  V30 4706 C 457.528 1.92268 -4.07853 0
M  V30 4707 C 456.19 1.79166 -4.46602 0
M  V30 4708 C 458.542 1.56771 -4.97064 0
M  V30 4709 C 455.87 1.28905 -5.72364 0
M  V30 4710 C 458.222 1.07972 -6.23318 0
M  V30 4711 C 456.886 0.934887 -6.60921 0
M  V30 4712 H 456.156 0.469682 -0.573131 0
M  V30 4713 H 458.803 0.588781 -1.82224 0
M  V30 4714 H 457.108 3.1443 -2.33754 0
M  V30 4715 H 458.805 2.974 -2.68988 0
M  V30 4716 H 455.395 2.03417 -3.77252 0
M  V30 4717 H 459.579 1.65753 -4.67803 0
M  V30 4718 H 454.835 1.16381 -6.00221 0
M  V30 4719 H 459.009 0.795775 -6.91838 0
M  V30 4720 H 456.636 0.543231 -7.58257 0
M  V30 4721 N 458.211 1.37122 0.776871 0
M  V30 4722 C 459.627 1.1781 1.07671 0
M  V30 4723 C 459.827 0.0107454 2.01497 0
M  V30 4724 O 458.883 -0.650756 2.4397 0
M  V30 4725 C 460.196 2.49451 1.67913 0
M  V30 4726 C 461.744 2.55927 1.80195 0
M  V30 4727 C 462.219 3.87686 2.43851 0
M  V30 4728 N 463.71 3.891 2.51307 0
M  V30 4729 C 464.445 4.87797 3.014 0
M  V30 4730 N 463.941 5.96888 3.51705 0
M  V30 4731 N 465.734 4.75205 3.00227 0
M  V30 4732 H 457.885 2.11843 0.153778 0
M  V30 4733 H 460.148 0.938927 0.130844 0
M  V30 4734 H 459.854 3.35207 1.06439 0
M  V30 4735 H 459.728 2.66169 2.67271 0
M  V30 4736 H 462.115 1.70582 2.40803 0
M  V30 4737 H 462.196 2.43097 0.796069 0
M  V30 4738 H 461.84 4.73444 1.83884 0
M  V30 4739 H 461.77 3.97817 3.45035 0
M  V30 4740 H 464.261 3.10293 2.157 0
M  V30 4741 H 464.574 6.68155 3.88316 0
M  V30 4742 H 462.919 6.0054 3.49824 0
M  V30 4743 H 466.11 3.89103 2.60224 0
M  V30 4744 H 466.283 5.52279 3.38957 0
M  V30 4745 N 459.689 -1.00246 1.21608 0
M  V30 4746 C 461.105 -1.26435 0.973975 0
M  V30 4747 C 461.305 -1.98642 -0.338143 0
M  V30 4748 O 460.361 -2.29026 -1.06317 0
M  V30 4749 C 461.674 -2.08551 2.16626 0
M  V30 4750 C 463.222 -2.21769 2.20879 0
M  V30 4751 C 463.697 -3.07267 3.39633 0
M  V30 4752 N 465.188 -3.14855 3.39736 0
M  V30 4753 C 465.923 -3.81274 4.28273 0
M  V30 4754 N 465.419 -4.497 5.27012 0
M  V30 4755 N 467.212 -3.7794 4.16074 0
M  V30 4756 H 459.363 -0.518089 2.05984 0
M  V30 4757 H 461.626 -0.291368 0.902113 0
M  V30 4758 H 461.332 -1.62847 3.11727 0
M  V30 4759 H 461.206 -3.09303 2.15897 0
M  V30 4760 H 463.593 -2.66691 1.26332 0
M  V30 4761 H 463.674 -1.20478 2.25652 0
M  V30 4762 H 463.318 -2.63047 4.34475 0
M  V30 4763 H 463.248 -4.08678 3.321 0
M  V30 4764 H 465.739 -2.66147 2.6828 0
M  V30 4765 H 466.052 -4.98092 5.90867 0
M  V30 4766 H 464.397 -4.48479 5.30935 0
M  V30 4767 H 467.588 -3.23638 3.38195 0
M  V30 4768 H 467.761 -4.29424 4.85282 0
M  V30 4769 N 461.167 -1.02423 -1.1978 0
M  V30 4770 C 462.114 -0.601023 -2.22837 0
M  V30 4771 C 463.084 0.382801 -1.61629 0
M  V30 4772 O 464.269 0.280514 -1.88727 0
M  V30 4773 C 461.409 0.0467755 -3.45068 0
M  V30 4774 C 460.522 -0.98253 -4.20678 0
M  V30 4775 C 459.657 -0.304982 -5.30324 0
M  V30 4776 C 458.696 -1.32052 -5.97686 0
M  V30 4777 N 457.833 -0.669105 -6.98904 0
M  V30 4778 H 462.673 -1.48444 -2.58396 0
M  V30 4779 H 460.21 -0.742936 -1.2696 0
M  V30 4780 H 462.168 0.439556 -4.14878 0
M  V30 4781 H 460.798 0.893796 -3.10179 0
M  V30 4782 H 459.85 -1.49341 -3.49859 0
M  V30 4783 H 461.162 -1.75455 -4.66923 0
M  V30 4784 H 460.316 0.142893 -6.06532 0
M  V30 4785 H 459.055 0.499283 -4.85138 0
M  V30 4786 H 458.06 -1.7787 -5.20233 0
M  V30 4787 H 459.285 -2.1262 -6.44957 0
M  V30 4788 H 457.231 0.115152 -6.55899 0
M  V30 4789 H 457.148 -1.37908 -7.43315 0
M  V30 4790 H 458.416 -0.245076 -7.79115 0
M  V30 4791 N 462.645 1.35699 -0.801477 0
M  V30 4792 C 463.891 1.99208 -0.380022 0
M  V30 4793 C 464.224 1.63445 1.04878 0
M  V30 4794 O 463.499 0.895223 1.72673 0
M  V30 4795 C 463.782 3.55755 -0.557708 0
M  V30 4796 C 463.635 4.01332 -2.03107 0
M  V30 4797 C 464.954 4.40096 0.0197968 0
M  V30 4798 H 462.073 0.723667 -0.139552 0
M  V30 4799 H 464.715 1.60928 -1.01006 0
M  V30 4800 H 462.865 3.88494 -0.0213741 0
M  V30 4801 H 464.537 3.79026 -2.62939 0
M  V30 4802 H 462.78 3.52429 -2.52936 0
M  V30 4803 H 463.451 5.10234 -2.1063 0
M  V30 4804 H 465.927 4.13786 -0.438179 0
M  V30 4805 H 464.803 5.48735 -0.134477 0
M  V30 4806 H 465.064 4.2786 1.11303 0
M  V30 4807 N 464.123 0.554532 1.47522 0
M  V30 4808 C 465.053 -0.182974 2.32782 0
M  V30 4809 C 466.034 -0.911377 1.43624 0
M  V30 4810 O 467.219 -0.892366 1.72483 0
M  V30 4811 C 464.349 -1.21513 3.25349 0
M  V30 4812 C 463.303 -0.603355 4.23726 0
M  V30 4813 C 462.629 -1.73995 5.05598 0
M  V30 4814 C 463.929 0.441121 5.20434 0
M  V30 4815 H 465.623 0.52882 2.94693 0
M  V30 4816 H 463.169 0.255759 1.41711 0
M  V30 4817 H 465.122 -1.73922 3.83835 0
M  V30 4818 H 463.846 -1.95683 2.61487 0
M  V30 4819 H 462.505 -0.10059 3.66462 0
M  V30 4820 H 462.153 -2.47063 4.38143 0
M  V30 4821 H 461.853 -1.3364 5.72201 0
M  V30 4822 H 463.377 -2.26735 5.66942 0
M  V30 4823 H 464.791 0.00319931 5.733 0
M  V30 4824 H 463.188 0.763402 5.95224 0
M  V30 4825 H 464.258 1.33799 4.66075 0
M  V30 4826 N 465.601 -1.54893 0.290851 0
M  V30 4827 C 466.564 -2.21824 -0.576784 0
M  V30 4828 C 467.564 -1.20104 -1.06919 0
M  V30 4829 O 468.754 -1.44906 -0.966843 0
M  V30 4830 C 465.886 -2.89662 -1.79747 0
M  V30 4831 H 467.079 -2.99899 0.00784051 0
M  V30 4832 H 464.632 -1.56245 0.0415934 0
M  V30 4833 H 465.367 -2.15639 -2.42219 0
M  V30 4834 H 465.152 -3.64219 -1.45214 0
M  V30 4835 H 466.642 -3.4075 -2.4141 0
M  V30 4836 N 467.08 -0.0183926 -1.57589 0
M  V30 4837 C 468.326 0.663543 -1.91638 0
M  V30 4838 C 468.659 1.72392 -0.894134 0
M  V30 4839 O 467.934 1.94316 0.0846449 0
M  V30 4840 C 468.217 1.28984 -3.36207 0
M  V30 4841 C 468.07 0.239761 -4.49161 0
M  V30 4842 C 469.389 2.2109 -3.80536 0
M  V30 4843 H 466.508 0.239746 -0.696915 0
M  V30 4844 H 469.15 -0.073456 -1.89858 0
M  V30 4845 H 467.3 1.91799 -3.37854 0
M  V30 4846 H 468.972 -0.390119 -4.59647 0
M  V30 4847 H 467.215 -0.435972 -4.31604 0
M  V30 4848 H 467.886 0.717383 -5.47319 0
M  V30 4849 H 470.362 1.68273 -3.80557 0
M  V30 4850 H 469.238 2.61869 -4.82406 0
M  V30 4851 H 469.499 3.09764 -3.15434 0
M  V30 4852 N 468.558 1.5553 0.254621 0
M  V30 4853 C 469.786 1.81046 1.00149 0
M  V30 4854 C 470.201 0.593047 1.79244 0
M  V30 4855 O 469.558 -0.438196 1.77161 0
M  V30 4856 C 469.609 3.04684 1.94551 0
M  V30 4857 O 469.33 4.21725 1.18658 0
M  V30 4858 C 470.831 3.42943 2.80901 0
M  V30 4859 H 468.051 0.602653 0.295044 0
M  V30 4860 H 470.595 2.02576 0.279842 0
M  V30 4861 H 468.75 2.85226 2.62154 0
M  V30 4862 H 469.164 4.91746 1.82445 0
M  V30 4863 H 470.638 4.32576 3.42902 0
M  V30 4864 H 471.115 2.63176 3.51617 0
M  V30 4865 H 471.721 3.64724 2.18762 0
M  V30 4866 N 470.036 -0.519951 1.48776 0
M  V30 4867 C 471.313 -1.28123 1.47797 0
M  V30 4868 C 471.693 -2.10196 0.195157 0
M  V30 4869 O 471.041 -2.13167 -0.822925 0
M  V30 4870 C 471.251 -2.15413 2.74587 0
M  V30 4871 C 472.599 -2.75225 3.23321 0
M  V30 4872 O 473.623 -2.25694 2.75574 0
M  V30 4873 O 472.482 -3.65346 4.06429 0
M  V30 4874 H 469.576 -0.578793 0.590701 0
M  V30 4875 H 472.122 -0.535779 1.6102 0
M  V30 4876 H 470.894 -1.54617 3.59457 0
M  V30 4877 H 470.517 -2.97186 2.64132 0
M  V30 4878 N 471.514 -1.37532 -0.769588 0
M  V30 4879 C 472.739 -1.36231 -1.56384 0
M  V30 4880 C 473.164 0.0495849 -1.88035 0
M  V30 4881 O 472.522 1.02723 -1.49391 0
M  V30 4882 C 472.57 -2.20986 -2.84952 0
M  V30 4883 O 471.674 -1.61597 -3.79421 0
M  V30 4884 H 471.015 -0.465387 -0.473615 0
M  V30 4885 H 473.545 -1.81085 -0.952342 0
M  V30 4886 H 473.555 -2.34277 -3.34034 0
M  V30 4887 H 472.23 -3.23612 -2.61243 0
M  V30 4888 H 470.807 -1.57359 -3.38072 0
M  V30 4889 N 472.992 0.995999 -1.22138 0
M  V30 4890 C 474.403 1.54961 -1.04135 0
M  V30 4891 C 474.754 1.92159 0.396147 0
M  V30 4892 O 473.879 1.74435 1.28069 0
M  V30 4893 C 474.474 2.81581 -1.88408 0
M  V30 4894 C 473.033 3.33396 -1.74712 0
M  V30 4895 C 472.18 2.06509 -1.85066 0
M  V30 4896 H 475.131 0.817436 -1.36028 0
M  V30 4897 H 475.152 3.53822 -1.39966 0
M  V30 4898 H 474.664 2.54476 -2.93025 0
M  V30 4899 H 472.765 3.65416 -0.728159 0
M  V30 4900 H 472.878 4.04208 -2.57202 0
M  V30 4901 H 471.242 2.19925 -1.28472 0
M  V30 4902 H 472.025 1.81804 -2.91208 0
M  V30 4903 N 474.47 1.03057 1.19235 0
M  V30 4904 C 475.433 0.617418 2.20727 0
M  V30 4905 C 476.433 -0.319856 1.57587 0
M  V30 4906 O 477.623 -0.106633 1.73873 0
M  V30 4907 C 474.755 -0.096296 3.40764 0
M  V30 4908 H 475.948 1.51544 2.58794 0
M  V30 4909 H 473.501 0.821949 1.32942 0
M  V30 4910 H 474.236 -1.00859 3.08217 0
M  V30 4911 H 474.021 0.577217 3.87828 0
M  V30 4912 H 475.511 -0.372219 4.15938 0
M  V30 4913 N 475.948 -1.35272 0.808662 0
M  V30 4914 C 477.364 -1.51806 0.492653 0
M  V30 4915 C 477.564 -1.7574 -0.985778 0
M  V30 4916 O 476.62 -1.80003 -1.77074 0
M  V30 4917 C 477.933 -2.69202 1.33981 0
M  V30 4918 C 479.481 -2.8308 1.33547 0
M  V30 4919 C 479.956 -4.03502 2.16679 0
M  V30 4920 N 481.447 -4.10684 2.14227 0
M  V30 4921 C 482.182 -5.02984 2.75308 0
M  V30 4922 N 481.678 -6.00603 3.45323 0
M  V30 4923 N 483.471 -4.95746 2.64938 0
M  V30 4924 H 475.622 -1.17993 1.76611 0
M  V30 4925 H 477.885 -0.577476 0.751814 0
M  V30 4926 H 477.591 -2.581 2.38909 0
M  V30 4927 H 477.465 -3.63854 0.994491 0
M  V30 4928 H 479.852 -2.93631 0.294036 0
M  V30 4929 H 479.933 -1.89278 1.72068 0
M  V30 4930 H 479.577 -3.93711 3.20864 0
M  V30 4931 H 479.507 -4.96489 1.75517 0
M  V30 4932 H 481.998 -3.40802 1.63285 0
M  V30 4933 H 482.311 -6.67633 3.89212 0
M  V30 4934 H 480.656 -6.0077 3.49428 0
M  V30 4935 H 483.847 -4.18439 2.09825 0
M  V30 4936 H 484.02 -5.67487 3.12829 0
M  V30 4937 N 477.426 -0.562348 -1.47226 0
M  V30 4938 C 478.373 0.182461 -2.30078 0
M  V30 4939 C 479.343 0.903503 -1.39377 0
M  V30 4940 O 480.528 0.898188 -1.68337 0
M  V30 4941 C 477.668 1.20322 -3.23445 0
M  V30 4942 C 476.781 0.487717 -4.29238 0
M  V30 4943 C 475.916 1.49422 -5.09752 0
M  V30 4944 C 474.955 0.763976 -6.07314 0
M  V30 4945 N 474.092 1.71755 -6.80768 0
M  V30 4946 H 478.932 -0.530169 -2.93246 0
M  V30 4947 H 476.469 -0.273276 -1.44539 0
M  V30 4948 H 478.427 1.80768 -3.76004 0
M  V30 4949 H 477.057 1.88382 -2.6213 0
M  V30 4950 H 476.109 -0.231374 -3.79696 0
M  V30 4951 H 477.421 -0.0841003 -4.98729 0
M  V30 4952 H 476.575 2.17206 -5.66486 0
M  V30 4953 H 475.314 2.09995 -4.40174 0
M  V30 4954 H 474.319 0.0722344 -5.49753 0
M  V30 4955 H 475.544 0.16391 -6.78902 0
M  V30 4956 H 473.49 2.31177 -6.13916 0
M  V30 4957 H 473.407 1.19802 -7.46447 0
M  V30 4958 H 474.675 2.38638 -7.42073 0
M  V30 4959 N 478.904 1.54736 -0.299062 0
M  V30 4960 C 480.152 1.99706 0.31017 0
M  V30 4961 C 480.473 1.18896 1.54559 0
M  V30 4962 O 479.743 0.284445 1.93824 0
M  V30 4963 H 478.323 0.737686 0.117596 0
M  V30 4964 H 480.985 1.9054 -0.409943 0
M  V30 4965 H 480.081 3.06596 0.58355 0
M  V30 4966 N 480.382 0.0267497 1.57577 0
M  V30 4967 C 481.329 -0.955894 2.10075 0
M  V30 4968 C 482.299 -1.32453 1.00226 0
M  V30 4969 O 483.484 -1.41826 1.27632 0
M  V30 4970 C 480.624 -2.2338 2.6305 0
M  V30 4971 C 479.737 -1.92183 3.86898 0
M  V30 4972 C 478.872 -3.14251 4.28275 0
M  V30 4973 C 477.911 -2.78862 5.44888 0
M  V30 4974 N 477.048 -3.93548 5.81433 0
M  V30 4975 H 481.888 -0.501303 2.93753 0
M  V30 4976 H 479.425 -0.235847 1.45197 0
M  V30 4977 H 481.383 -2.98124 2.91853 0
M  V30 4978 H 480.013 -2.6646 1.82205 0
M  V30 4979 H 479.065 -1.07692 3.64838 0
M  V30 4980 H 480.377 -1.62117 4.7172 0
M  V30 4981 H 479.531 -3.97317 4.58502 0
M  V30 4982 H 478.27 -3.47476 3.42215 0
M  V30 4983 H 477.275 -1.94208 5.14357 0
M  V30 4984 H 478.5 -2.46855 6.32645 0
M  V30 4985 H 476.446 -4.2662 4.98328 0
M  V30 4986 H 476.363 -3.67098 6.6089 0
M  V30 4987 H 477.631 -4.77325 6.16264 0
M  V30 4988 N 481.861 -1.55662 -0.24637 0
M  V30 4989 C 483.138 -1.68272 -0.997198 0
M  V30 4990 C 483.518 -0.566785 -2.03349 0
M  V30 4991 O 482.866 0.429688 -2.24424 0
M  V30 4992 C 483.076 -3.08594 -1.63006 0
M  V30 4993 C 484.424 -3.6721 -2.13171 0
M  V30 4994 O 485.448 -3.11397 -1.72946 0
M  V30 4995 O 484.307 -4.65054 -2.87031 0
M  V30 4996 H 481.401 -0.684429 -0.464205 0
M  V30 4997 H 483.947 -1.67993 -0.240114 0
M  V30 4998 H 482.719 -3.81264 -0.880527 0
M  V30 4999 H 482.342 -3.12886 -2.45333 0
M  V30 5000 N 483.339 0.512053 -1.4905 0
M  V30 5001 C 484.564 1.2959 -1.6193 0
M  V30 5002 C 484.989 1.85906 -0.286454 0
M  V30 5003 O 484.347 1.65312 0.744426 0
M  V30 5004 C 484.395 2.40987 -2.68249 0
M  V30 5005 O 483.499 3.44531 -2.26654 0
M  V30 5006 H 482.84 0.383053 -0.542371 0
M  V30 5007 H 485.37 0.614231 -1.95162 0
M  V30 5008 H 485.38 2.86913 -2.90078 0
M  V30 5009 H 484.055 1.99361 -3.65004 0
M  V30 5010 H 482.632 3.046 -2.15112 0
M  V30 5011 N 484.817 1.37938 0.762283 0
M  V30 5012 C 486.228 1.30094 1.33912 0
M  V30 5013 C 486.579 -0.0472026 1.96143 0
M  V30 5014 O 485.704 -0.94917 1.94473 0
M  V30 5015 C 486.299 2.35592 2.43478 0
M  V30 5016 C 484.858 2.31353 2.96905 0
M  V30 5017 C 484.005 2.18919 1.70205 0
M  V30 5018 H 486.956 1.48423 0.561816 0
M  V30 5019 H 486.977 2.00806 3.23199 0
M  V30 5020 H 486.489 3.33701 1.98155 0
M  V30 5021 H 484.59 1.36799 3.46579 0
M  V30 5022 H 484.703 3.25147 3.51875 0
M  V30 5023 H 483.067 1.65624 1.93496 0
M  V30 5024 H 483.85 3.18956 1.26973 0
M  V30 5025 N 486.295 -0.989507 1.22664 0
M  V30 5026 C 487.52 -1.77031 1.08051 0
M  V30 5027 C 487.945 -1.84535 -0.364483 0
M  V30 5028 O 487.303 -1.3003 -1.2634 0
M  V30 5029 C 487.351 -3.18 1.70024 0
M  V30 5030 O 486.455 -4.01161 0.956216 0
M  V30 5031 H 485.796 -0.545008 0.379292 0
M  V30 5032 H 488.326 -1.24277 1.62531 0
M  V30 5033 H 488.336 -3.68616 1.74888 0
M  V30 5034 H 487.011 -3.11853 2.75174 0
M  V30 5035 H 485.588 -3.59687 0.98384 0
M  V30 5036 N 487.773 -1.03688 -1.18687 0
M  V30 5037 C 488.72 -0.624624 -2.22187 0
M  V30 5038 C 489.69 0.365636 -1.62026 0
M  V30 5039 O 490.875 0.260481 -1.89014 0
M  V30 5040 C 488.015 0.0101738 -3.45099 0
M  V30 5041 C 487.128 -1.02709 -4.19613 0
M  V30 5042 C 486.263 -0.361213 -5.2997 0
M  V30 5043 C 485.302 -1.38384 -5.96252 0
M  V30 5044 N 484.439 -0.743196 -6.98155 0
M  V30 5045 H 489.279 -1.51176 -2.56807 0
M  V30 5046 H 486.816 -0.75636 -1.26165 0
M  V30 5047 H 488.774 0.395528 -4.15321 0
M  V30 5048 H 487.404 0.860848 -3.1111 0
M  V30 5049 H 486.456 -1.53043 -3.48256 0
M  V30 5050 H 487.768 -1.80398 -4.65036 0
M  V30 5051 H 486.922 0.0785537 -6.06649 0
M  V30 5052 H 485.661 0.447799 -4.8564 0
M  V30 5053 H 484.666 -1.83378 -5.18317 0
M  V30 5054 H 485.891 -2.19448 -6.42666 0
M  V30 5055 H 483.837 0.0455789 -6.55984 0
M  V30 5056 H 483.754 -1.45784 -7.41811 0
M  V30 5057 H 485.022 -0.327698 -7.78811 0
M  V30 5058 N 489.251 1.34841 -0.815825 0
M  V30 5059 C 490.183 2.28409 -0.190265 0
M  V30 5060 C 491.196 1.50705 0.615771 0
M  V30 5061 O 492.385 1.72822 0.446616 0
M  V30 5062 C 489.485 3.30441 0.752446 0
M  V30 5063 C 488.658 4.37399 -0.00922152 0
M  V30 5064 C 487.717 5.19234 0.853351 0
M  V30 5065 O 486.743 5.68404 0.300919 0
M  V30 5066 N 487.945 5.38248 2.17416 0
M  V30 5067 H 490.71 2.82732 -0.994114 0
M  V30 5068 H 488.271 1.47289 -0.672129 0
M  V30 5069 H 490.263 3.82084 1.33394 0
M  V30 5070 H 488.833 2.76565 1.45707 0
M  V30 5071 H 488.053 3.86567 -0.771979 0
M  V30 5072 H 489.341 5.05992 -0.533807 0
M  V30 5073 H 488.739 4.99961 2.6468 0
M  V30 5074 H 487.296 5.93035 2.70467 0
M  V30 5075 N 490.729 0.570148 1.46925 0
M  V30 5076 C 491.954 0.0542592 2.07329 0
M  V30 5077 C 492.379 -1.23582 1.41806 0
M  V30 5078 O 491.737 -1.74341 0.497479 0
M  V30 5079 C 491.785 -0.111175 3.60429 0
M  V30 5080 O 490.889 -1.17071 3.95434 0
M  V30 5081 H 490.23 0.0571425 0.661537 0
M  V30 5082 H 492.76 0.789516 1.88753 0
M  V30 5083 H 492.77 -0.321315 4.06733 0
M  V30 5084 H 491.445 0.831012 4.07513 0
M  V30 5085 H 490.022 -0.940029 3.60857 0
M  V30 5086 N 492.207 -1.54576 0.307264 0
M  V30 5087 C 493.618 -1.8579 -0.184121 0
M  V30 5088 C 493.969 -1.22914 -1.52927 0
M  V30 5089 O 493.094 -0.529126 -2.09831 0
M  V30 5090 C 493.689 -3.37081 -0.340862 0
M  V30 5091 C 492.248 -3.68304 -0.776465 0
M  V30 5092 C 491.395 -2.77076 0.111503 0
M  V30 5093 H 494.346 -1.49656 0.528078 0
M  V30 5094 H 494.367 -3.61922 -1.17443 0
M  V30 5095 H 493.879 -3.82815 0.638309 0
M  V30 5096 H 491.98 -3.28092 -1.76596 0
M  V30 5097 H 492.093 -4.75434 -0.591512 0
M  V30 5098 H 490.457 -2.51374 -0.410256 0
M  V30 5099 H 491.24 -3.25632 1.08714 0
M  V30 5100 N 493.685 -0.035106 -1.57561 0
M  V30 5101 C 494.933 0.64096 -1.91667 0
M  V30 5102 C 495.254 1.72323 -0.912681 0
M  V30 5103 O 494.524 1.95849 0.0449089 0
M  V30 5104 H 493.104 0.239743 -0.707483 0
M  V30 5105 H 495.766 -0.084321 -1.94718 0
M  V30 5106 H 494.862 1.08987 -2.92452 0
M  V30 5107 N 495.163 1.55791 0.238111 0
M  V30 5108 C 496.073 1.94196 1.31625 0
M  V30 5109 C 497.089 0.843545 1.52185 0
M  V30 5110 O 498.265 1.1457 1.65637 0
M  V30 5111 C 495.33 2.2365 2.64918 0
M  V30 5112 C 494.391 3.46971 2.52804 0
M  V30 5113 C 493.624 3.7501 3.79741 0
M  V30 5114 O 493.847 3.04982 4.82019 0
M  V30 5115 O 492.781 4.68525 3.77846 0
M  V30 5116 H 496.607 2.86044 1.02043 0
M  V30 5117 H 494.192 1.42786 0.439603 0
M  V30 5118 H 496.074 2.43863 3.4367 0
M  V30 5119 H 494.749 1.34979 2.94215 0
M  V30 5120 H 493.656 3.32055 1.72309 0
M  V30 5121 H 494.989 4.35971 2.28451 0
M  V30 5122 N 496.642 -0.504142 1.49319 0
M  V30 5123 C 497.867 -1.28729 1.62615 0
M  V30 5124 C 498.292 -1.85752 0.296309 0
M  V30 5125 O 497.65 -1.65704 -0.735649 0
M  V30 5126 C 497.698 -2.39561 2.69524 0
M  V30 5127 O 496.802 -3.43324 2.28478 0
M  V30 5128 H 496.143 -0.380172 0.544395 0
M  V30 5129 H 498.673 -0.603872 1.95485 0
M  V30 5130 H 498.683 -2.8537 2.91595 0
M  V30 5131 H 497.358 -1.97423 3.66056 0
M  V30 5132 H 495.935 -3.03455 2.16725 0
M  V30 5133 N 498.12 -1.38341 -0.754957 0
M  V30 5134 C 499.348 -1.37704 -1.54419 0
M  V30 5135 C 499.763 0.0335243 -1.8877 0
M  V30 5136 O 499.12 0.999773 -1.52679 0
M  V30 5137 C 499.171 -2.23136 -2.84416 0
M  V30 5138 O 498.892 -3.58697 -2.51531 0
M  V30 5139 C 500.393 -2.30664 -3.78562 0
M  V30 5140 H 497.613 -0.471061 -0.477852 0
M  V30 5141 H 500.157 -1.81902 -0.934446 0
M  V30 5142 H 498.312 -1.82403 -3.41772 0
M  V30 5143 H 498.726 -4.03665 -3.34896 0
M  V30 5144 H 500.2 -2.9473 -4.66732 0
M  V30 5145 H 500.677 -1.3199 -4.18898 0
M  V30 5146 H 501.283 -2.71781 -3.27131 0
M  V30 5147 N 499.598 0.982988 -1.23187 0
M  V30 5148 C 500.545 2.07491 -1.01075 0
M  V30 5149 C 501.515 1.65949 0.070905 0
M  V30 5150 O 502.7 1.90629 -0.0806822 0
M  V30 5151 C 499.84 3.39751 -0.605261 0
M  V30 5152 C 498.953 3.94578 -1.75876 0
M  V30 5153 C 498.088 5.15039 -1.3003 0
M  V30 5154 C 497.127 5.62027 -2.42472 0
M  V30 5155 N 496.264 6.73719 -1.97602 0
M  V30 5156 H 501.104 2.25739 -1.9454 0
M  V30 5157 H 498.641 1.10659 -0.969179 0
M  V30 5158 H 500.599 4.15719 -0.351279 0
M  V30 5159 H 499.229 3.21473 0.292382 0
M  V30 5160 H 498.281 3.1539 -2.12681 0
M  V30 5161 H 499.593 4.25422 -2.60418 0
M  V30 5162 H 498.747 5.9833 -1.00429 0
M  V30 5163 H 497.486 4.85843 -0.425216 0
M  V30 5164 H 496.491 4.77318 -2.7285 0
M  V30 5165 H 497.716 5.93244 -3.30512 0
M  V30 5166 H 495.662 6.46287 -1.1247 0
M  V30 5167 H 495.579 7.03934 -2.75705 0
M  V30 5168 H 496.847 7.6049 -1.71098 0
M  V30 5169 N 501.076 1.04316 1.18135 0
M  V30 5170 C 502.023 0.636398 2.21853 0
M  V30 5171 C 502.993 -0.357039 1.62217 0
M  V30 5172 O 504.178 -0.250453 1.89149 0
M  V30 5173 C 501.318 0.00812779 3.45099 0
M  V30 5174 C 500.431 1.04933 4.19062 0
M  V30 5175 C 499.566 0.389313 5.29771 0
M  V30 5176 C 498.605 1.41544 5.9551 0
M  V30 5177 N 497.742 0.78021 6.97751 0
M  V30 5178 H 502.582 1.52536 2.56002 0
M  V30 5179 H 500.119 0.76304 1.25762 0
M  V30 5180 H 502.077 -0.373497 4.15525 0
M  V30 5181 H 500.707 -0.844336 3.11562 0
M  V30 5182 H 499.759 1.54888 3.47439 0
M  V30 5183 H 501.071 1.82862 4.64072 0
M  V30 5184 H 500.225 -0.0463805 6.06682 0
M  V30 5185 H 498.964 -0.422038 4.8587 0
M  V30 5186 H 497.969 1.86124 5.17337 0
M  V30 5187 H 499.194 2.22854 6.41493 0
M  V30 5188 H 497.14 -0.0107899 6.55999 0
M  V30 5189 H 497.057 1.49716 7.41027 0
M  V30 5190 H 498.325 0.368996 7.78626 0
M  V30 5191 N 502.554 -1.34406 0.822964 0
M  V30 5192 C 503.486 -2.28305 0.202375 0
M  V30 5193 C 504.499 -1.5103 -0.60777 0
M  V30 5194 O 505.688 -1.73057 -0.437444 0
M  V30 5195 C 502.788 -3.30836 -0.734911 0
M  V30 5196 C 501.961 -4.37388 0.0324177 0
M  V30 5197 C 501.02 -5.1968 -0.825803 0
M  V30 5198 O 500.046 -5.68556 -0.270771 0
M  V30 5199 N 501.248 -5.39393 -2.14558 0
M  V30 5200 H 504.013 -2.82201 1.00909 0
M  V30 5201 H 501.574 -1.4693 0.67993 0
M  V30 5202 H 503.566 -3.82786 -1.31365 0
M  V30 5203 H 502.136 -2.77334 -1.44238 0
M  V30 5204 H 501.356 -3.86152 0.792469 0
M  V30 5205 H 502.644 -5.05702 0.560633 0
M  V30 5206 H 502.042 -5.01357 -2.62025 0
M  V30 5207 H 500.599 -5.94461 -2.67318 0
M  V30 5208 N 504.032 -0.577932 -1.46621 0
M  V30 5209 C 505.309 0.00495287 -1.95599 0
M  V30 5210 C 505.689 1.46428 -1.5206 0
M  V30 5211 O 505.037 2.1517 -0.769046 0
M  V30 5212 C 505.247 -0.162114 -3.48623 0
M  V30 5213 C 506.595 -0.0274623 -4.24591 0
M  V30 5214 O 507.619 -0.0907067 -3.56084 0
M  V30 5215 O 506.478 0.1122 -5.46385 0
M  V30 5216 H 503.572 0.0525057 -0.825332 0
M  V30 5217 H 506.118 -0.645914 -1.56927 0
M  V30 5218 H 504.89 -1.17679 -3.73185 0
M  V30 5219 H 504.513 0.525407 -3.94113 0
M  V30 5220 N 505.51 1.54411 -0.315457 0
M  V30 5221 C 506.758 2.00023 0.288971 0
M  V30 5222 C 507.079 1.20529 1.5329 0
M  V30 5223 O 506.349 0.304986 1.93511 0
M  V30 5224 H 504.929 0.738891 0.109766 0
M  V30 5225 H 507.591 1.90094 -0.430129 0
M  V30 5226 H 506.687 3.07198 0.550999 0
M  V30 5227 N 506.988 0.0434614 1.5754 0
M  V30 5228 C 507.918 -0.931651 2.14109 0
M  V30 5229 C 508.899 -1.32971 1.06079 0
M  V30 5230 O 510.084 -1.40579 1.33982 0
M  V30 5231 C 507.214 -2.20914 2.67982 0
M  V30 5232 C 506.168 -1.95139 3.80926 0
M  V30 5233 C 505.494 -3.29276 4.21285 0
M  V30 5234 C 506.794 -1.27913 5.06395 0
M  V30 5235 H 508.488 -0.460497 2.95837 0
M  V30 5236 H 506.034 -0.220058 1.42309 0
M  V30 5237 H 507.987 -2.89522 3.06194 0
M  V30 5238 H 506.711 -2.70221 1.83434 0
M  V30 5239 H 505.37 -1.28945 3.43175 0
M  V30 5240 H 505.018 -3.76369 3.33699 0
M  V30 5241 H 504.718 -3.12831 4.97404 0
M  V30 5242 H 506.242 -3.99129 4.62091 0
M  V30 5243 H 507.656 -1.86544 5.42102 0
M  V30 5244 H 506.053 -1.2182 5.87605 0
M  V30 5245 H 507.123 -0.254066 4.84234 0
M  V30 5246 N 508.466 -1.55915 -0.229846 0
M  V30 5247 C 509.712 -1.78807 -0.956868 0
M  V30 5248 C 510.045 -0.611687 -1.84315 0
M  V30 5249 O 509.32 0.389398 -1.90562 0
M  V30 5250 C 509.603 -3.11718 -1.80288 0
M  V30 5251 C 509.456 -4.3979 -0.943649 0
M  V30 5252 C 510.775 -3.40999 -2.78222 0
M  V30 5253 H 507.894 -0.6505 -0.346437 0
M  V30 5254 H 510.536 -1.88648 -0.226252 0
M  V30 5255 H 508.686 -3.03459 -2.42579 0
M  V30 5256 H 510.358 -4.60059 -0.338121 0
M  V30 5257 H 508.601 -4.33086 -0.248705 0
M  V30 5258 H 509.272 -5.29208 -1.5698 0
M  V30 5259 H 511.748 -3.49332 -2.26067 0
M  V30 5260 H 510.624 -4.35183 -3.34526 0
M  V30 5261 H 510.885 -2.62754 -3.55546 0
M  V30 5262 N 509.944 0.496216 -1.49584 0
M  V30 5263 C 510.876 1.61404 -1.62731 0
M  V30 5264 C 511.889 1.54613 -0.50978 0
M  V30 5265 O 513.078 1.60458 -0.782017 0
M  V30 5266 C 510.178 3.00212 -1.57245 0
M  V30 5267 C 509.351 3.32138 -2.84611 0
M  V30 5268 C 508.41 4.5038 -2.72112 0
M  V30 5269 O 507.436 4.51926 -3.46051 0
M  V30 5270 N 508.638 5.50575 -1.83977 0
M  V30 5271 H 511.403 1.50552 -2.59141 0
M  V30 5272 H 508.964 0.684182 -1.46733 0
M  V30 5273 H 510.956 3.77241 -1.4653 0
M  V30 5274 H 509.526 3.04964 -0.686729 0
M  V30 5275 H 508.746 2.4396 -3.09641 0
M  V30 5276 H 510.034 3.50268 -3.69039 0
M  V30 5277 H 509.432 5.52128 -1.23171 0
M  V30 5278 H 507.989 6.26687 -1.79182 0
M  V30 5279 N 511.423 1.38739 0.74761 0
M  V30 5280 C 512.672 1.3459 1.50228 0
M  V30 5281 C 512.985 -0.0595592 1.95509 0
M  V30 5282 O 514.191 -0.22361 2.70578 0
M  V30 5283 C 512.647 2.36377 2.71393 0
M  V30 5284 C 512.255 3.82573 2.33113 0
M  V30 5285 C 513.999 2.41281 3.49262 0
M  V30 5286 C 511.906 4.76032 3.50924 0
M  V30 5287 H 510.836 0.500312 0.564096 0
M  V30 5288 H 513.487 1.64324 0.8167 0
M  V30 5289 H 511.869 1.99694 3.41962 0
M  V30 5290 H 513.043 4.28227 1.70171 0
M  V30 5291 H 511.358 3.80844 1.68365 0
M  V30 5292 H 513.955 3.08301 4.36869 0
M  V30 5293 H 514.298 1.43353 3.9084 0
M  V30 5294 H 514.831 2.76793 2.85711 0
M  V30 5295 H 511.57 5.75177 3.14408 0
M  V30 5296 H 511.09 4.35066 4.12889 0
M  V30 5297 H 512.769 4.94331 4.17427 0
M  V30 5298 N 512.901 -0.976442 1.23707 0
M  V30 5299 C 513.864 -2.0511 1.02287 0
M  V30 5300 C 514.864 -1.60791 -0.0167195 0
M  V30 5301 O 516.054 -1.72761 0.223408 0
M  V30 5302 C 513.186 -3.36458 0.548507 0
M  V30 5303 H 514.379 -2.25545 1.9766 0
M  V30 5304 H 511.932 -1.15042 1.05806 0
M  V30 5305 H 512.667 -3.21713 -0.408818 0
M  V30 5306 H 512.452 -3.69967 1.29874 0
M  V30 5307 H 513.942 -4.15489 0.419406 0
M  V30 5308 N 514.379 -1.04941 -1.1758 0
M  V30 5309 C 515.79 -0.784501 -1.69418 0
M  V30 5310 C 516.141 0.693625 -1.8353 0
M  V30 5311 O 515.266 1.53925 -1.52106 0
M  V30 5312 C 515.861 -1.41746 -3.07723 0
M  V30 5313 C 514.42 -1.20066 -3.56737 0
M  V30 5314 C 513.567 -1.5026 -2.33061 0
M  V30 5315 H 516.518 -1.21469 -1.02133 0
M  V30 5316 H 516.539 -0.825381 -3.7144 0
M  V30 5317 H 516.051 -2.49325 -2.9742 0
M  V30 5318 H 514.152 -0.144006 -3.72322 0
M  V30 5319 H 514.265 -1.90384 -4.39648 0
M  V30 5320 H 512.629 -0.922598 -2.37403 0
M  V30 5321 H 513.412 -2.58967 -2.25368 0
M  V30 5322 N 515.857 1.33968 -0.830081 0
M  V30 5323 C 516.805 2.31301 -0.245435 0
M  V30 5324 C 517.799 1.57734 0.617762 0
M  V30 5325 O 519.005 1.72674 0.508303 0
M  V30 5326 H 515.38 0.749552 -0.0606316 0
M  V30 5327 H 517.351 2.78129 -1.08105 0
M  V30 5328 C 516.1 3.42961 0.572084 0
M  V30 5329 H 515.423 3.99714 -0.0828118 0
M  V30 5330 H 516.863 4.13286 0.94715 0
M  V30 5331 C 515.322 2.88043 1.74737 0
M  V30 5332 O 515.852 2.83508 2.8458 0
M  V30 5333 N 514.058 2.44768 1.56642 0
M  V30 5334 H 513.605 2.48656 0.672901 0
M  V30 5335 H 513.563 2.08375 2.3543 0
M  V30 5336 N 517.335 0.585699 1.46312 0
M  V30 5337 C 518.265 -0.133556 2.33118 0
M  V30 5338 C 519.246 -0.880707 1.45525 0
M  V30 5339 O 520.431 -0.855579 1.74337 0
M  V30 5340 C 517.561 -1.14585 3.27853 0
M  V30 5341 C 516.515 -0.513341 4.2491 0
M  V30 5342 C 515.841 -1.63231 5.09175 0
M  V30 5343 C 517.141 0.551413 5.19381 0
M  V30 5344 H 518.835 0.59121 2.93505 0
M  V30 5345 H 516.381 0.285761 1.41136 0
M  V30 5346 H 518.334 -1.65741 3.87438 0
M  V30 5347 H 517.058 -1.90093 2.65579 0
M  V30 5348 H 515.717 -0.0228349 3.66593 0
M  V30 5349 H 515.365 -2.37713 4.43285 0
M  V30 5350 H 515.065 -1.21473 5.74907 0
M  V30 5351 H 516.589 -2.14658 5.71624 0
M  V30 5352 H 518.003 0.124804 5.73164 0
M  V30 5353 H 516.4 0.889486 5.93471 0
M  V30 5354 H 517.47 1.43655 4.63132 0
M  V30 5355 N 518.813 -1.54241 0.323641 0
M  V30 5356 C 520.041 -2.04985 -0.280871 0
M  V30 5357 C 520.456 -1.19978 -1.45777 0
M  V30 5358 O 519.813 -0.230471 -1.81039 0
M  V30 5359 C 519.864 -3.54353 -0.715258 0
M  V30 5360 O 519.585 -4.36132 0.414817 0
M  V30 5361 C 521.086 -4.21189 -1.38257 0
M  V30 5362 H 518.306 -0.66851 -0.0577502 0
M  V30 5363 H 520.85 -1.99029 0.469852 0
M  V30 5364 H 519.005 -3.60596 -1.41596 0
M  V30 5365 H 519.419 -5.2445 0.0725227 0
M  V30 5366 H 520.893 -5.27154 -1.63745 0
M  V30 5367 H 521.37 -3.72307 -2.32989 0
M  V30 5368 H 521.976 -4.19085 -0.724447 0
M  V30 5369 N 520.291 -0.0518155 -1.57515 0
M  V30 5370 C 521.537 0.622745 -1.93002 0
M  V30 5371 C 521.87 1.70456 -0.930499 0
M  V30 5372 O 521.145 1.94452 0.0434086 0
M  V30 5373 C 521.428 1.21824 -3.38867 0
M  V30 5374 C 521.281 0.144434 -4.49568 0
M  V30 5375 C 522.6 2.12968 -3.8514 0
M  V30 5376 H 519.719 0.22491 -0.701844 0
M  V30 5377 H 522.361 -0.113711 -1.89659 0
M  V30 5378 H 520.511 1.8459 -3.41846 0
M  V30 5379 H 522.183 -0.48753 -4.58717 0
M  V30 5380 H 520.426 -0.527424 -4.30582 0
M  V30 5381 H 521.097 0.601127 -5.48717 0
M  V30 5382 H 523.573 1.60163 -3.8404 0
M  V30 5383 H 522.449 2.51578 -4.87852 0
M  V30 5384 H 522.71 3.03004 -3.21934 0
M  V30 5385 N 521.769 1.56035 0.221574 0
M  V30 5386 C 523.018 1.78245 0.944016 0
M  V30 5387 C 523.331 0.620371 1.85501 0
M  V30 5388 O 524.537 0.726103 2.6161 0
M  V30 5389 C 522.993 3.15659 1.7288 0
M  V30 5390 C 522.601 4.39591 0.863942 0
M  V30 5391 C 524.345 3.47195 2.44246 0
M  V30 5392 C 522.252 5.6803 1.64607 0
M  V30 5393 H 521.182 0.664547 0.356222 0
M  V30 5394 H 523.833 1.8243 0.197904 0
M  V30 5395 H 522.215 3.0565 2.51781 0
M  V30 5396 H 523.389 4.60655 0.115464 0
M  V30 5397 H 521.704 4.15572 0.262407 0
M  V30 5398 H 524.301 4.40381 3.03263 0
M  V30 5399 H 524.644 2.69693 3.1713 0
M  V30 5400 H 525.177 3.58533 1.72334 0
M  V30 5401 H 521.916 6.48425 0.960507 0
M  V30 5402 H 521.436 5.51027 2.36917 0
M  V30 5403 H 523.115 6.08203 2.20675 0
M  V30 5404 N 523.247 -0.488276 1.49845 0
M  V30 5405 C 524.179 -1.60539 1.63584 0
M  V30 5406 C 525.192 -1.5434 0.517972 0
M  V30 5407 O 526.381 -1.60041 0.790516 0
M  V30 5408 C 523.481 -2.99374 1.58835 0
M  V30 5409 C 522.654 -3.30624 2.86368 0
M  V30 5410 C 521.713 -4.4893 2.74496 0
M  V30 5411 O 520.739 -4.50085 3.48443 0
M  V30 5412 N 521.941 -5.49591 1.86894 0
M  V30 5413 H 524.706 -1.49176 2.59936 0
M  V30 5414 H 522.267 -0.67639 1.47094 0
M  V30 5415 H 524.259 -3.76459 1.48529 0
M  V30 5416 H 522.829 -3.04595 0.702892 0
M  V30 5417 H 522.049 -2.42314 3.1093 0
M  V30 5418 H 523.337 -3.48305 3.70892 0
M  V30 5419 H 522.735 -5.51467 1.26097 0
M  V30 5420 H 521.292 -6.25728 1.82503 0
M  V30 5421 N 524.725 -1.39134 -0.740242 0
M  V30 5422 C 525.972 -1.36071 -1.49969 0
M  V30 5423 C 526.3 0.0450245 -1.94448 0
M  V30 5424 O 525.555 1.02482 -1.66721 0
M  V30 5425 C 525.854 -2.27457 -2.75678 0
M  V30 5426 C 525.52 -3.75185 -2.50094 0
M  V30 5427 C 524.182 -4.15439 -2.42825 0
M  V30 5428 C 526.534 -4.68643 -2.28086 0
M  V30 5429 C 523.862 -5.4722 -2.11584 0
M  V30 5430 C 526.214 -6.00695 -1.98363 0
M  V30 5431 C 524.878 -6.40018 -1.8956 0
M  V30 5432 H 524.148 -0.497921 -0.548777 0
M  V30 5433 H 526.795 -1.71599 -0.85007 0
M  V30 5434 H 525.1 -1.8503 -3.45356 0
M  V30 5435 H 526.797 -2.22384 -3.33686 0
M  V30 5436 H 523.387 -3.43279 -2.56627 0
M  V30 5437 H 527.571 -4.3838 -2.32672 0
M  V30 5438 H 522.827 -5.76615 -2.03287 0
M  V30 5439 H 527.001 -6.72644 -1.80341 0
M  V30 5440 H 524.628 -7.42051 -1.65117 0
M  V30 5441 N 526.204 0.969867 -1.24223 0
M  V30 5442 C 527.453 1.70687 -1.07466 0
M  V30 5443 C 527.766 1.91736 0.386861 0
M  V30 5444 O 528.972 2.62986 0.674581 0
M  V30 5445 C 527.428 3.07217 -1.87472 0
M  V30 5446 C 527.036 2.94018 -3.3802 0
M  V30 5447 C 528.78 3.84804 -1.79237 0
M  V30 5448 C 526.687 4.25844 -4.10379 0
M  V30 5449 H 525.617 0.640067 -0.398536 0
M  V30 5450 H 528.268 1.08092 -1.48285 0
M  V30 5451 H 526.65 3.70628 -1.39466 0
M  V30 5452 H 527.824 2.39632 -3.9359 0
M  V30 5453 H 526.139 2.29898 -3.47183 0
M  V30 5454 H 528.736 4.82417 -2.30603 0
M  V30 5455 H 529.079 4.09356 -0.757197 0
M  V30 5456 H 529.612 3.28115 -2.24912 0
M  V30 5457 H 526.351 4.06486 -5.14246 0
M  V30 5458 H 525.871 4.80054 -3.59594 0
M  V30 5459 H 527.55 4.94475 -4.17257 0
M  V30 5460 N 527.682 1.05563 1.17022 0
M  V30 5461 C 528.629 0.659893 2.21165 0
M  V30 5462 C 529.599 -0.339813 1.62587 0
M  V30 5463 O 530.784 -0.230378 1.89404 0
M  V30 5464 C 527.924 0.0447297 3.45071 0
M  V30 5465 C 527.037 1.09372 4.17926 0
M  V30 5466 C 526.172 0.445481 5.29329 0
M  V30 5467 C 525.211 1.47852 5.93975 0
M  V30 5468 N 524.348 0.854172 6.96885 0
M  V30 5469 H 529.188 1.55243 2.54369 0
M  V30 5470 H 526.725 0.776336 1.24946 0
M  V30 5471 H 528.683 -0.329404 4.15898 0
M  V30 5472 H 527.313 -0.811244 3.1244 0
M  V30 5473 H 526.365 1.58564 3.45777 0
M  V30 5474 H 527.677 1.87773 4.62107 0
M  V30 5475 H 526.831 0.0179688 6.06697 0
M  V30 5476 H 525.57 -0.370481 4.86291 0
M  V30 5477 H 524.575 1.91601 5.15334 0
M  V30 5478 H 525.8 2.29645 6.39093 0
M  V30 5479 H 523.746 0.0587882 6.55974 0
M  V30 5480 H 523.663 1.57567 7.39397 0
M  V30 5481 H 524.931 0.451559 7.78191 0
M  V30 5482 N 529.16 -1.33526 0.837174 0
M  V30 5483 C 530.406 -1.9813 0.432704 0
M  V30 5484 C 530.739 -1.66168 -1.00508 0
M  V30 5485 O 530.014 -0.94069 -1.70239 0
M  V30 5486 C 530.297 -3.54151 0.651834 0
M  V30 5487 C 530.15 -3.95806 2.13676 0
M  V30 5488 C 531.469 -4.39993 0.0968937 0
M  V30 5489 H 528.588 -0.719713 0.15869 0
M  V30 5490 H 531.23 -1.58193 1.05237 0
M  V30 5491 H 529.38 -3.88301 0.124369 0
M  V30 5492 H 531.052 -3.71921 2.72896 0
M  V30 5493 H 529.295 -3.45599 2.62191 0
M  V30 5494 H 529.966 -5.0447 2.24084 0
M  V30 5495 H 532.442 -4.12479 0.547733 0
M  V30 5496 H 531.318 -5.48186 0.279917 0
M  V30 5497 H 531.579 -4.3066 -0.9992 0
M  V30 5498 N 530.638 -0.59345 -1.46 0
M  V30 5499 C 531.885 -0.0831523 -2.02329 0
M  V30 5500 C 532.213 1.28093 -1.46364 0
M  V30 5501 O 531.468 1.85526 -0.622793 0
M  V30 5502 C 531.767 0.021178 -3.57394 0
M  V30 5503 C 531.433 -1.27671 -4.32448 0
M  V30 5504 C 530.095 -1.63227 -4.5267 0
M  V30 5505 C 532.447 -2.13511 -4.7546 0
M  V30 5506 C 529.775 -2.84401 -5.1316 0
M  V30 5507 C 532.127 -3.33922 -5.37289 0
M  V30 5508 C 530.791 -3.69747 -5.55737 0
M  V30 5509 H 530.061 -0.0304276 -0.740375 0
M  V30 5510 H 532.708 -0.772239 -1.75239 0
M  V30 5511 H 531.013 0.793454 -3.83682 0
M  V30 5512 H 532.71 0.431942 -3.98667 0
M  V30 5513 H 529.3 -0.989937 -4.17011 0
M  V30 5514 H 533.484 -1.87344 -4.59582 0
M  V30 5515 H 528.74 -3.12282 -5.25633 0
M  V30 5516 H 532.914 -4.00698 -5.69574 0
M  V30 5517 H 530.541 -4.6373 -6.02377 0
M  V30 5518 N 532.116 1.54067 -0.331816 0
M  V30 5519 C 533.527 1.86059 0.15454 0
M  V30 5520 C 533.878 1.25331 1.50952 0
M  V30 5521 O 533.003 0.562441 2.08963 0
M  V30 5522 C 533.598 3.37581 0.287192 0
M  V30 5523 C 532.157 3.69493 0.717773 0
M  V30 5524 C 531.304 2.76863 -0.155569 0
M  V30 5525 H 534.255 1.48797 -0.55182 0
M  V30 5526 H 534.276 3.63744 1.11671 0
M  V30 5527 H 533.788 3.81751 -0.699131 0
M  V30 5528 H 531.889 3.3086 1.71354 0
M  V30 5529 H 532.002 4.76315 0.5158 0
M  V30 5530 H 530.366 2.51995 0.370213 0
M  V30 5531 H 531.149 3.23861 -1.13881 0
M  V30 5532 N 533.594 0.0601682 1.57485 0
M  V30 5533 C 535.01 -0.296422 1.56823 0
M  V30 5534 C 535.21 -1.70831 1.0686 0
M  V30 5535 O 534.266 -2.4174 0.729245 0
M  V30 5536 C 535.579 -0.116681 3.00474 0
M  V30 5537 C 537.127 -0.187103 3.1244 0
M  V30 5538 C 537.602 -0.035783 4.57986 0
M  V30 5539 N 539.093 -0.0917676 4.63109 0
M  V30 5540 C 539.828 0.00107251 5.734 0
M  V30 5541 N 539.324 0.146773 6.92645 0
M  V30 5542 N 541.117 -0.0551577 5.62073 0
M  V30 5543 H 533.268 0.983055 1.88281 0
M  V30 5544 H 535.531 0.382386 0.867459 0
M  V30 5545 H 535.237 0.85712 3.41096 0
M  V30 5546 H 535.111 -0.873929 3.66936 0
M  V30 5547 H 537.498 -1.15138 2.71712 0
M  V30 5548 H 537.579 0.601052 2.48638 0
M  V30 5549 H 537.223 0.925212 4.99402 0
M  V30 5550 H 537.153 -0.843196 5.19806 0
M  V30 5551 H 539.644 -0.203261 3.77353 0
M  V30 5552 H 539.957 0.210076 7.72514 0
M  V30 5553 H 538.302 0.181979 6.94762 0
M  V30 5554 H 541.493 -0.167605 4.678 0
M  V30 5555 H 541.666 0.020652 6.47997 0
M  V30 5556 N 535.072 -1.5615 -0.213296 0
M  V30 5557 C 536.318 -1.79812 -0.937849 0
M  V30 5558 C 536.651 -0.631201 -1.83656 0
M  V30 5559 O 535.926 0.369165 -1.90964 0
M  V30 5560 C 536.209 -3.13613 -1.76972 0
M  V30 5561 C 536.062 -4.40766 -0.89695 0
M  V30 5562 C 537.381 -3.43931 -2.7459 0
M  V30 5563 H 534.5 -0.654138 -0.339518 0
M  V30 5564 H 537.142 -1.88877 -0.20623 0
M  V30 5565 H 535.292 -3.06015 -2.39347 0
M  V30 5566 H 536.964 -4.60392 -0.289306 0
M  V30 5567 H 535.207 -4.33326 -0.202756 0
M  V30 5568 H 535.878 -5.30843 -1.51358 0
M  V30 5569 H 538.354 -3.5171 -2.22349 0
M  V30 5570 H 537.23 -4.38706 -3.29891 0
M  V30 5571 H 537.491 -2.6651 -3.52739 0
M  V30 5572 N 536.55 0.480323 -1.50102 0
M  V30 5573 C 537.48 1.58769 -1.71215 0
M  V30 5574 C 538.461 1.60583 -0.560997 0
M  V30 5575 O 539.646 1.76996 -0.799127 0
M  V30 5576 C 536.776 2.97148 -1.79778 0
M  V30 5577 C 535.73 3.10201 -2.94888 0
M  V30 5578 C 535.056 4.50137 -2.88584 0
M  V30 5579 C 536.356 2.88283 -4.35534 0
M  V30 5580 H 538.05 1.41354 -2.6393 0
M  V30 5581 H 535.596 0.678591 -1.27008 0
M  V30 5582 H 537.549 3.74536 -1.93133 0
M  V30 5583 H 536.273 3.15699 -0.836772 0
M  V30 5584 H 534.932 2.35244 -2.81169 0
M  V30 5585 H 534.58 4.65593 -1.90349 0
M  V30 5586 H 534.28 4.59808 -3.65856 0
M  V30 5587 H 535.804 5.29558 -3.03976 0
M  V30 5588 H 537.218 3.55427 -4.49827 0
M  V30 5589 H 535.615 3.09408 -5.14186 0
M  V30 5590 H 536.685 1.84219 -4.48544 0
M  V30 5591 N 538.028 1.39524 0.732853 0
M  V30 5592 C 538.958 1.41153 1.86005 0
M  V30 5593 C 539.939 0.274614 1.67869 0
M  V30 5594 O 541.124 0.480745 1.88155 0
M  V30 5595 C 538.254 1.25638 3.23778 0
M  V30 5596 C 537.208 2.36752 3.56556 0
M  V30 5597 C 536.534 2.06326 4.93289 0
M  V30 5598 C 537.834 3.79069 3.5931 0
M  V30 5599 H 539.528 2.35484 1.84899 0
M  V30 5600 H 537.074 1.13348 0.888162 0
M  V30 5601 H 539.027 1.25398 4.0231 0
M  V30 5602 H 537.751 0.277772 3.25417 0
M  V30 5603 H 536.41 2.36213 2.80355 0
M  V30 5604 H 536.058 1.06897 4.9151 0
M  V30 5605 H 535.758 2.80757 5.16187 0
M  V30 5606 H 537.282 2.07739 5.74175 0
M  V30 5607 H 538.696 3.81526 4.27914 0
M  V30 5608 H 537.093 4.52878 3.93728 0
M  V30 5609 H 538.163 4.09893 2.59068 0
M  V30 5610 N 539.506 -0.963266 1.24736 0
M  V30 5611 C 540.438 -2.06162 1.0015 0
M  V30 5612 C 541.451 -1.62771 -0.0305905 0
M  V30 5613 O 542.64 -1.77296 0.206966 0
M  V30 5614 C 539.74 -3.35333 0.490385 0
M  V30 5615 C 538.913 -4.07609 1.58663 0
M  V30 5616 C 537.972 -5.15052 1.0774 0
M  V30 5617 O 536.998 -5.4098 1.77002 0
M  V30 5618 N 538.2 -5.80436 -0.0858605 0
M  V30 5619 H 540.965 -2.27825 1.94719 0
M  V30 5620 H 538.526 -1.13121 1.15825 0
M  V30 5621 H 540.518 -4.04477 0.134371 0
M  V30 5622 H 539.088 -3.10507 -0.361155 0
M  V30 5623 H 538.308 -3.32681 2.11463 0
M  V30 5624 H 539.596 -4.52656 2.32336 0
M  V30 5625 H 538.994 -5.6178 -0.664806 0
M  V30 5626 H 537.551 -6.50674 -0.382981 0
M  V30 5627 N 540.985 -1.06182 -1.16461 0
M  V30 5628 C 542.213 -0.798583 -1.90867 0
M  V30 5629 C 542.628 0.646921 -1.77371 0
M  V30 5630 O 541.985 1.44279 -1.11758 0
M  V30 5631 C 542.036 -1.18258 -3.4161 0
M  V30 5632 O 541.757 -2.57135 -3.54701 0
M  V30 5633 C 543.258 -0.946917 -4.33069 0
M  V30 5634 H 540.478 -0.289603 -0.605286 0
M  V30 5635 H 543.022 -1.41515 -1.47627 0
M  V30 5636 H 541.177 -0.610562 -3.82558 0
M  V30 5637 H 541.591 -2.72477 -4.4817 0
M  V30 5638 H 543.065 -1.26523 -5.37304 0
M  V30 5639 H 543.542 0.117406 -4.39043 0
M  V30 5640 H 544.148 -1.50326 -3.97847 0
M  V30 5641 N 542.463 1.3308 -0.844243 0
M  V30 5642 C 543.393 2.3161 -0.296493 0
M  V30 5643 C 544.374 1.59215 0.598707 0
M  V30 5644 O 545.559 1.87077 0.521134 0
M  V30 5645 C 542.689 3.43313 0.524762 0
M  V30 5646 C 541.643 4.27115 -0.275106 0
M  V30 5647 C 540.969 5.30483 0.670236 0
M  V30 5648 C 542.269 5.00443 -1.49514 0
M  V30 5649 H 543.963 2.77672 -1.11976 0
M  V30 5650 H 541.509 1.33496 -0.539899 0
M  V30 5651 H 543.462 4.11273 0.918298 0
M  V30 5652 H 542.186 2.95952 1.3813 0
M  V30 5653 H 540.845 3.60787 -0.650267 0
M  V30 5654 H 540.493 4.79379 1.52332 0
M  V30 5655 H 540.193 5.87435 0.139123 0
M  V30 5656 H 541.717 6.01308 1.06117 0
M  V30 5657 H 543.131 5.61141 -1.17447 0
M  V30 5658 H 541.528 5.67071 -1.96343 0
M  V30 5659 H 542.598 4.28906 -2.26202 0
M  V30 5660 N 543.941 0.601185 1.45683 0
M  V30 5661 C 545.357 0.264315 1.57396 0
M  V30 5662 C 545.557 -1.23324 1.59353 0
M  V30 5663 O 544.613 -2.01594 1.52039 0
M  V30 5664 C 545.926 0.929839 2.85962 0
M  V30 5665 C 547.474 0.905156 2.99626 0
M  V30 5666 C 547.949 1.55057 4.30954 0
M  V30 5667 N 549.44 1.51576 4.37697 0
M  V30 5668 C 550.175 1.98436 5.37969 0
M  V30 5669 N 549.671 2.53352 6.44813 0
M  V30 5670 N 551.464 1.89242 5.29286 0
M  V30 5671 H 543.615 1.57363 1.42656 0
M  V30 5672 H 545.878 0.658831 0.681649 0
M  V30 5673 H 545.584 1.98404 2.90394 0
M  V30 5674 H 545.458 0.449224 3.74515 0
M  V30 5675 H 547.845 -0.14048 2.94765 0
M  V30 5676 H 547.926 1.42397 2.12501 0
M  V30 5677 H 547.57 2.5955 4.36573 0
M  V30 5678 H 547.5 1.00682 5.16886 0
M  V30 5679 H 549.991 1.11452 3.61091 0
M  V30 5680 H 550.304 2.86918 7.17564 0
M  V30 5681 H 548.649 2.57388 6.45582 0
M  V30 5682 H 551.84 1.46083 4.44722 0
M  V30 5683 H 552.013 2.26075 6.07284 0
M  V30 5684 N 545.419 -1.53889 0.339982 0
M  V30 5685 C 546.369 -2.2165 -0.534354 0
M  V30 5686 C 547.353 -1.20266 -1.06887 0
M  V30 5687 O 548.545 -1.45827 -1.00316 0
M  V30 5688 C 545.674 -2.99014 -1.68659 0
M  V30 5689 C 544.76 -4.07751 -1.16618 0
M  V30 5690 N 545.151 -5.04469 -0.366717 0
M  V30 5691 C 543.449 -4.21998 -1.4434 0
M  V30 5692 C 544.15 -5.81638 -0.0847275 0
M  V30 5693 N 543.126 -5.39388 -0.675391 0
M  V30 5694 H 546.928 -2.93781 0.0835562 0
M  V30 5695 H 544.442 -1.61736 0.146665 0
M  V30 5696 H 546.439 -3.46056 -2.32489 0
M  V30 5697 H 545.099 -2.28408 -2.30781 0
M  V30 5698 H 546.11 -5.17899 -0.00811038 0
M  V30 5699 H 542.787 -3.62612 -2.06928 0
M  V30 5700 H 544.177 -6.69563 0.559943 0
M  V30 5701 N 546.897 -0.0685191 -1.57451 0
M  V30 5702 C 548.308 0.464634 -1.80826 0
M  V30 5703 C 548.659 1.69847 -0.982169 0
M  V30 5704 O 547.784 2.15439 -0.203734 0
M  V30 5705 C 548.379 0.849721 -3.27971 0
M  V30 5706 C 546.938 1.32776 -3.52204 0
M  V30 5707 C 546.085 0.311332 -2.75547 0
M  V30 5708 H 549.036 -0.294248 -1.55948 0
M  V30 5709 H 549.057 1.71138 -3.39841 0
M  V30 5710 H 548.569 -0.0484736 -3.8807 0
M  V30 5711 H 546.67 2.24456 -2.97406 0
M  V30 5712 H 546.783 1.30794 -4.60901 0
M  V30 5713 H 545.147 0.787915 -2.42206 0
M  V30 5714 H 545.93 -0.579078 -3.38381 0
M  V30 5715 N 548.375 1.56261 0.205012 0
M  V30 5716 C 549.624 1.79236 0.925058 0
M  V30 5717 C 549.937 0.640011 1.84833 0
M  V30 5718 O 551.143 0.753809 2.60826 0
M  V30 5719 C 549.599 3.17475 1.69522 0
M  V30 5720 C 549.207 4.40482 0.817269 0
M  V30 5721 C 550.951 3.49766 2.4055 0
M  V30 5722 C 548.858 5.69744 1.58573 0
M  V30 5723 H 547.788 0.668287 0.349153 0
M  V30 5724 H 550.439 1.82629 0.178544 0
M  V30 5725 H 548.821 3.08304 2.48526 0
M  V30 5726 H 549.995 4.60752 0.0665988 0
M  V30 5727 H 548.31 4.15827 0.218316 0
M  V30 5728 H 550.907 4.43573 2.98575 0
M  V30 5729 H 551.25 2.73041 3.14252 0
M  V30 5730 H 551.783 3.60341 1.68522 0
M  V30 5731 H 548.522 6.49407 0.891679 0
M  V30 5732 H 548.042 5.53509 2.31059 0
M  V30 5733 H 549.721 6.1051 2.14212 0
M  V30 5734 N 549.853 -0.472356 1.50355 0
M  V30 5735 C 551.1 -1.22453 1.61281 0
M  V30 5736 C 551.428 -1.91972 0.31256 0
M  V30 5737 O 550.683 -1.82696 -0.701475 0
M  V30 5738 C 550.982 -2.29257 2.74182 0
M  V30 5739 C 550.648 -1.76999 4.14708 0
M  V30 5740 C 549.31 -1.62467 4.52944 0
M  V30 5741 C 551.662 -1.38215 5.0254 0
M  V30 5742 C 548.99 -1.07574 5.76754 0
M  V30 5743 C 551.342 -0.847638 6.26895 0
M  V30 5744 C 550.006 -0.688946 6.63935 0
M  V30 5745 H 549.276 -0.448087 0.590168 0
M  V30 5746 H 551.923 -0.520744 1.84284 0
M  V30 5747 H 550.228 -3.05538 2.45263 0
M  V30 5748 H 551.925 -2.87212 2.7984 0
M  V30 5749 H 548.515 -1.89276 3.84542 0
M  V30 5750 H 552.699 -1.48276 4.73633 0
M  V30 5751 H 547.955 -0.940237 6.04127 0
M  V30 5752 H 552.129 -0.538455 6.94315 0
M  V30 5753 H 549.756 -0.261435 7.5975 0
M  V30 5754 N 551.331 -1.39911 -0.725443 0
M  V30 5755 C 552.261 -1.42138 -1.85254 0
M  V30 5756 C 553.242 -0.283513 -1.67721 0
M  V30 5757 O 554.427 -0.490717 -1.87898 0
M  V30 5758 C 551.557 -1.27354 -3.23107 0
M  V30 5759 C 550.511 -2.3864 -3.55296 0
M  V30 5760 C 549.837 -2.08939 -4.92188 0
M  V30 5761 C 551.137 -3.8097 -3.57295 0
M  V30 5762 H 552.831 -2.36461 -1.83648 0
M  V30 5763 H 550.377 -1.13817 -0.882138 0
M  V30 5764 H 552.33 -1.2753 -4.01639 0
M  V30 5765 H 551.054 -0.295025 -3.25265 0
M  V30 5766 H 549.713 -2.37696 -2.79099 0
M  V30 5767 H 549.361 -1.09502 -4.90936 0
M  V30 5768 H 549.061 -2.83491 -5.14691 0
M  V30 5769 H 550.585 -2.10781 -5.73065 0
M  V30 5770 H 551.999 -3.8379 -4.25885 0
M  V30 5771 H 550.396 -4.5496 -3.9132 0
M  V30 5772 H 551.466 -4.11261 -2.5689 0
M  V30 5773 N 552.809 0.956637 -1.25245 0
M  V30 5774 C 553.739 2.07058 -1.07931 0
M  V30 5775 C 554.72 1.70096 0.0110361 0
M  V30 5776 O 555.905 1.93555 -0.158121 0
M  V30 5777 C 553.035 3.40272 -0.695124 0
M  V30 5778 C 551.989 3.91235 -1.73549 0
M  V30 5779 C 551.315 5.20921 -1.20604 0
M  V30 5780 C 552.615 4.17837 -3.13385 0
M  V30 5781 H 554.309 2.218 -2.01109 0
M  V30 5782 H 551.855 1.06581 -0.968326 0
M  V30 5783 H 553.808 4.1765 -0.560949 0
M  V30 5784 H 552.532 3.25462 0.272355 0
M  V30 5785 H 551.191 3.16025 -1.85807 0
M  V30 5786 H 550.839 5.02479 -0.228846 0
M  V30 5787 H 550.539 5.55987 -1.90136 0
M  V30 5788 H 552.063 6.00897 -1.08421 0
M  V30 5789 H 553.477 4.8588 -3.04292 0
M  V30 5790 H 551.874 4.64154 -3.80369 0
M  V30 5791 H 552.944 3.2419 -3.60595 0
M  V30 5792 N 554.287 1.06798 1.15896 0
M  V30 5793 C 555.533 0.788934 1.86825 0
M  V30 5794 C 555.866 -0.683084 1.8179 0
M  V30 5795 O 555.141 -1.50086 1.23711 0
M  V30 5796 C 555.424 1.29065 3.36176 0
M  V30 5797 C 555.277 2.8268 3.49874 0
M  V30 5798 C 556.596 0.902655 4.30744 0
M  V30 5799 H 553.715 0.288066 0.678371 0
M  V30 5800 H 556.357 1.32479 1.36195 0
M  V30 5801 H 554.507 0.834806 3.79425 0
M  V30 5802 H 556.179 3.36511 3.15528 0
M  V30 5803 H 554.422 3.21157 2.91617 0
M  V30 5804 H 555.093 3.12852 4.54783 0
M  V30 5805 H 557.569 1.29535 3.95424 0
M  V30 5806 H 556.445 1.28111 5.3374 0
M  V30 5807 H 556.706 -0.191951 4.41683 0
M  V30 5808 N 555.766 -1.3263 0.851289 0
M  V30 5809 C 557.012 -1.9766 0.453694 0
M  V30 5810 C 557.345 -1.67225 -0.987396 0
M  V30 5811 O 556.62 -0.958693 -1.69232 0
M  V30 5812 C 556.903 -3.5344 0.68936 0
M  V30 5813 C 556.756 -3.93517 2.17862 0
M  V30 5814 C 558.075 -4.39866 0.143555 0
M  V30 5815 H 555.194 -0.717989 0.166314 0
M  V30 5816 H 557.836 -1.57068 1.06909 0
M  V30 5817 H 555.986 -3.88147 0.165546 0
M  V30 5818 H 557.658 -3.69006 2.76826 0
M  V30 5819 H 555.901 -3.42798 2.65841 0
M  V30 5820 H 556.572 -5.02065 2.29422 0
M  V30 5821 H 559.048 -4.11875 0.591451 0
M  V30 5822 H 557.924 -5.47858 0.338043 0
M  V30 5823 H 558.185 -4.31696 -0.953466 0
M  V30 5824 N 557.244 -0.608902 -1.45362 0
M  V30 5825 C 558.174 0.0964526 -2.33301 0
M  V30 5826 C 559.155 0.857444 -1.46908 0
M  V30 5827 O 560.34 0.827735 -1.75676 0
M  V30 5828 C 557.47 1.09354 -3.29635 0
M  V30 5829 C 556.424 0.445676 -4.25673 0
M  V30 5830 C 555.75 1.5511 -5.11708 0
M  V30 5831 C 557.05 -0.633972 -5.18438 0
M  V30 5832 H 558.744 -0.637829 -2.92527 0
M  V30 5833 H 556.29 -0.308178 -1.40664 0
M  V30 5834 H 558.243 1.59556 -3.90025 0
M  V30 5835 H 556.967 1.85843 -2.6857 0
M  V30 5836 H 555.626 -0.0354897 -3.66583 0
M  V30 5837 H 555.274 2.30631 -4.4701 0
M  V30 5838 H 554.974 1.12311 -5.76767 0
M  V30 5839 H 556.498 2.05537 -5.74967 0
M  V30 5840 H 557.912 -0.215974 -5.72893 0
M  V30 5841 H 556.309 -0.983789 -5.91981 0
M  V30 5842 H 557.379 -1.51005 -4.60788 0
M  V30 5843 N 558.722 1.53707 -0.348139 0
M  V30 5844 C 559.947 2.05877 0.250883 0
M  V30 5845 C 560.372 1.22115 1.43072 0
M  V30 5846 O 559.73 0.235986 1.79758 0
M  V30 5847 C 559.778 3.54886 0.639416 0
M  V30 5848 O 558.882 3.73948 1.73888 0
M  V30 5849 H 558.223 0.662754 0.040653 0
M  V30 5850 H 560.753 1.98303 -0.503685 0
M  V30 5851 H 560.763 3.97601 0.915295 0
M  V30 5852 H 559.438 4.153 -0.223386 0
M  V30 5853 H 558.015 3.43134 1.45991 0
M  V30 5854 N 560.2 0.0768682 1.57412 0
M  V30 5855 C 561.132 -0.918248 2.10002 0
M  V30 5856 C 562.145 -1.25808 1.03325 0
M  V30 5857 O 563.334 -1.21438 1.30824 0
M  V30 5858 C 560.434 -2.23263 2.54964 0
M  V30 5859 C 559.607 -2.07088 3.8527 0
M  V30 5860 C 558.666 -3.21876 4.16272 0
M  V30 5861 O 557.692 -2.96643 4.8579 0
M  V30 5862 N 558.894 -4.4712 3.70221 0
M  V30 5863 H 561.659 -0.469209 2.96004 0
M  V30 5864 H 559.22 -0.108725 1.61535 0
M  V30 5865 H 561.212 -2.9897 2.72762 0
M  V30 5866 H 559.782 -2.59649 1.74072 0
M  V30 5867 H 559.002 -1.15818 3.76802 0
M  V30 5868 H 560.29 -1.93537 4.70554 0
M  V30 5869 H 559.688 -4.70506 3.1407 0
M  V30 5870 H 558.245 -5.19837 3.93209 0
M  V30 5871 N 561.678 -1.56367 -0.196722 0
M  V30 5872 C 562.924 -1.80796 -0.918725 0
M  V30 5873 C 563.257 -0.650645 -1.82976 0
M  V30 5874 O 562.532 0.348889 -1.91345 0
M  V30 5875 C 562.815 -3.15472 -1.73636 0
M  V30 5876 C 562.668 -4.41693 -0.85015 0
M  V30 5877 C 563.987 -3.46824 -2.70927 0
M  V30 5878 H 561.106 -0.657702 -0.332561 0
M  V30 5879 H 563.748 -1.89086 -0.186186 0
M  V30 5880 H 561.898 -3.08536 -2.36088 0
M  V30 5881 H 563.57 -4.60673 -0.240459 0
M  V30 5882 H 561.813 -4.33517 -0.156785 0
M  V30 5883 H 562.484 -5.32419 -1.45719 0
M  V30 5884 H 564.96 -3.54049 -2.18607 0
M  V30 5885 H 563.836 -4.4218 -3.25219 0
M  V30 5886 H 564.097 -2.70236 -3.49893 0
M  V30 5887 N 563.156 0.464375 -1.50603 0
M  V30 5888 C 564.396 1.22573 -1.6357 0
M  V30 5889 C 564.76 1.89111 -0.331834 0
M  V30 5890 O 565.961 2.66679 -0.336999 0
M  V30 5891 C 564.232 2.23643 -2.7878 0
M  V30 5892 S 565.791 3.08628 -3.1192 0
M  V30 5893 H 562.609 0.416058 -0.576556 0
M  V30 5894 H 565.211 0.521637 -1.88412 0
M  V30 5895 H 563.915 1.73354 -3.7199 0
M  V30 5896 H 563.446 2.98672 -2.56044 0
M  V30 5897 H 565.461 4.24904 -2.56264 0
M  V30 5898 N 564.634 1.40294 0.718013 0
M  V30 5899 C 565.564 1.43118 1.84498 0
M  V30 5900 C 566.545 0.292403 1.67568 0
M  V30 5901 O 567.73 0.500675 1.87635 0
M  V30 5902 C 564.86 1.29065 3.22427 0
M  V30 5903 C 563.814 2.40521 3.54025 0
M  V30 5904 C 563.14 2.11546 4.91073 0
M  V30 5905 C 564.44 3.82859 3.55269 0
M  V30 5906 H 566.134 2.37432 1.82391 0
M  V30 5907 H 563.68 1.14283 0.87609 0
M  V30 5908 H 565.633 1.29658 4.00957 0
M  V30 5909 H 564.357 0.312271 3.25104 0
M  V30 5910 H 563.016 2.39173 2.77834 0
M  V30 5911 H 562.664 1.12104 4.90348 0
M  V30 5912 H 562.364 2.86216 5.1318 0
M  V30 5913 H 563.888 2.13817 5.71939 0
M  V30 5914 H 565.302 3.86044 4.23843 0
M  V30 5915 H 563.699 4.57029 3.88902 0
M  V30 5916 H 564.769 4.12617 2.54706 0
M  V30 5917 N 566.112 -0.949982 1.2575 0
M  V30 5918 C 567.337 -1.73503 1.13628 0
M  V30 5919 C 567.762 -1.85601 -0.30559 0
M  V30 5920 O 567.12 -1.33984 -1.22139 0
M  V30 5921 C 567.168 -3.1243 1.80055 0
M  V30 5922 O 566.272 -3.97916 1.08336 0
M  V30 5923 H 565.613 -0.532665 0.396439 0
M  V30 5924 H 568.143 -1.19043 1.66403 0
M  V30 5925 H 568.153 -3.62866 1.86527 0
M  V30 5926 H 566.828 -3.02941 2.84956 0
M  V30 5927 H 565.405 -3.56375 1.09777 0
M  V30 5928 N 567.59 -1.07411 -1.15328 0
M  V30 5929 C 568.815 -0.818856 -1.90551 0
M  V30 5930 C 569.24 0.622194 -1.77512 0
M  V30 5931 O 568.598 1.43484 -1.10824 0
M  V30 5932 C 568.646 -1.23267 -3.38877 0
M  V30 5933 O 567.75 -0.378345 -4.10661 0
M  V30 5934 H 567.091 -0.29827 -0.593238 0
M  V30 5935 H 569.621 -1.43289 -1.46046 0
M  V30 5936 H 569.631 -1.20912 -3.89672 0
M  V30 5937 H 568.306 -2.28226 -3.47686 0
M  V30 5938 H 566.883 -0.464437 -3.69996 0
M  V30 5939 N 569.068 1.32177 -0.85831 0
M  V30 5940 C 570.001 2.26823 -0.25035 0
M  V30 5941 C 570.979 1.50571 0.61378 0
M  V30 5942 O 572.163 1.79682 0.569777 0
M  V30 5943 C 569.29 3.32472 0.646556 0
M  V30 5944 C 568.336 4.26255 -0.144675 0
M  V30 5945 S 569.169 5.13608 -1.5155 0
M  V30 5946 C 570.325 6.22778 -0.624408 0
M  V30 5947 H 570.558 2.7804 -1.05267 0
M  V30 5948 H 568.091 1.39764 -0.656152 0
M  V30 5949 H 570.049 3.93817 1.15837 0
M  V30 5950 H 568.71 2.80031 1.42272 0
M  V30 5951 H 567.903 5.01114 0.538613 0
M  V30 5952 H 567.505 3.69346 -0.588198 0
M  V30 5953 H 569.797 6.77287 0.169846 0
M  V30 5954 H 570.74 6.95233 -1.34376 0
M  V30 5955 H 571.148 5.64156 -0.197128 0
M  V30 5956 N 570.547 0.616602 1.45037 0
M  V30 5957 C 571.51 -0.0871112 2.29034 0
M  V30 5958 C 572.51 -0.786414 1.40258 0
M  V30 5959 O 573.7 -0.633207 1.62284 0
M  V30 5960 C 570.832 -1.13369 3.21497 0
M  V30 5961 H 572.025 0.651497 2.92738 0
M  V30 5962 H 569.578 0.376058 1.51709 0
M  V30 5963 H 570.313 -1.90277 2.62612 0
M  V30 5964 H 570.098 -0.636358 3.86902 0
M  V30 5965 H 571.588 -1.62627 3.84633 0
M  V30 5966 N 572.025 -1.5352 0.356285 0
M  V30 5967 C 572.988 -2.24071 -0.482182 0
M  V30 5968 C 573.988 -1.24531 -1.01729 0
M  V30 5969 O 575.178 -1.48876 -0.904513 0
M  V30 5970 C 572.31 -2.97025 -1.67299 0
M  V30 5971 H 573.503 -2.99596 0.135031 0
M  V30 5972 H 571.056 -1.55928 0.107825 0
M  V30 5973 H 571.791 -2.25719 -2.32855 0
M  V30 5974 H 571.576 -3.7005 -1.29636 0
M  V30 5975 H 573.066 -3.50683 -2.26741 0
M  V30 5976 N 573.503 -0.0852151 -1.57369 0
M  V30 5977 C 574.751 0.579658 -1.93609 0
M  V30 5978 C 575.072 1.69332 -0.967043 0
M  V30 5979 O 574.342 1.95892 -0.0174215 0
M  V30 5980 H 572.922 0.217113 -0.714752 0
M  V30 5981 H 575.584 -0.146226 -1.94351 0
M  V30 5982 H 574.68 0.996276 -2.95771 0
M  V30 5983 N 574.981 1.5647 0.188427 0
M  V30 5984 C 575.914 1.90146 1.26173 0
M  V30 5985 C 576.892 0.762294 1.43624 0
M  V30 5986 O 578.076 1.01395 1.58907 0
M  V30 5987 C 575.203 2.13748 2.62735 0
M  V30 5988 C 574.249 3.36448 2.62116 0
M  V30 5989 S 575.082 4.91364 2.12889 0
M  V30 5990 C 576.238 5.18041 3.51261 0
M  V30 5991 H 576.471 2.80886 0.974192 0
M  V30 5992 H 574.004 1.49335 0.392226 0
M  V30 5993 H 575.962 2.28028 3.41341 0
M  V30 5994 H 574.623 1.23747 2.88696 0
M  V30 5995 H 573.816 3.50109 3.62546 0
M  V30 5996 H 573.418 3.21196 1.91596 0
M  V30 5997 H 575.71 5.0897 4.47164 0
M  V30 5998 H 576.653 6.19764 3.42489 0
M  V30 5999 H 577.061 4.45657 3.46482 0
M  V30 6000 N 576.459 -0.456382 1.50847 0
M  V30 6001 C 577.422 -1.53493 1.70213 0
M  V30 6002 C 578.422 -1.50264 0.572481 0
M  V30 6003 O 579.612 -1.52623 0.839751 0
M  V30 6004 C 576.744 -2.93091 1.741 0
M  V30 6005 H 577.937 -1.37633 2.66453 0
M  V30 6006 H 575.49 -0.683776 1.4055 0
M  V30 6007 H 576.225 -3.14378 0.796063 0
M  V30 6008 H 576.01 -2.9684 2.5618 0
M  V30 6009 H 577.5 -3.71368 1.90987 0
M  V30 6010 N 577.937 -1.40673 -0.710563 0
M  V30 6011 C 579.186 -1.38525 -1.46607 0
M  V30 6012 C 579.499 0.0077024 -1.95598 0
M  V30 6013 O 580.705 0.151792 -2.71075 0
M  V30 6014 C 579.161 -2.43489 -2.6503 0
M  V30 6015 C 578.769 -3.88619 -2.22888 0
M  V30 6016 C 580.513 -2.50456 -3.42742 0
M  V30 6017 C 578.42 -4.85168 -3.3818 0
M  V30 6018 H 577.35 -0.515092 -0.550632 0
M  V30 6019 H 580.001 -1.66431 -0.772846 0
M  V30 6020 H 578.383 -2.0869 -3.36548 0
M  V30 6021 H 579.557 -4.32588 -1.58758 0
M  V30 6022 H 577.872 -3.85174 -1.58208 0
M  V30 6023 H 580.469 -3.19776 -4.28541 0
M  V30 6024 H 580.812 -1.53665 -3.86902 0
M  V30 6025 H 581.345 -2.84271 -2.78271 0
M  V30 6026 H 578.084 -5.8331 -2.99047 0
M  V30 6027 H 577.604 -4.4586 -4.01209 0
M  V30 6028 H 579.283 -5.05225 -4.04174 0
M  V30 6029 N 579.415 0.9433 -1.26252 0
M  V30 6030 C 580.662 1.68925 -1.11672 0
M  V30 6031 C 580.99 1.91499 0.340329 0
M  V30 6032 O 580.245 1.49189 1.26653 0
M  V30 6033 C 580.544 3.07073 -1.82868 0
M  V30 6034 C 580.21 3.04262 -3.32769 0
M  V30 6035 C 578.872 3.03203 -3.7366 0
M  V30 6036 C 581.224 2.96729 -4.28487 0
M  V30 6037 C 578.552 2.92373 -5.0866 0
M  V30 6038 C 580.904 2.87442 -5.63525 0
M  V30 6039 C 579.568 2.84724 -6.03729 0
M  V30 6040 H 578.838 0.618141 -0.408635 0
M  V30 6041 H 581.485 1.10124 -1.56668 0
M  V30 6042 H 579.79 3.69486 -1.30335 0
M  V30 6043 H 581.487 3.63635 -1.69029 0
M  V30 6044 H 578.077 3.05865 -3.00241 0
M  V30 6045 H 582.261 2.96658 -3.97879 0
M  V30 6046 H 577.517 2.88645 -5.38975 0
M  V30 6047 H 581.691 2.80576 -6.37377 0
M  V30 6048 H 579.318 2.76089 -7.08293 0
M  V30 6049 N 580.893 1.08022 1.14757 0
M  V30 6050 C 581.823 0.728248 2.21853 0
M  V30 6051 C 582.804 -0.287486 1.67653 0
M  V30 6052 O 583.989 -0.158727 1.9355 0
M  V30 6053 C 581.119 0.132549 3.47047 0
M  V30 6054 C 580.073 1.07619 4.14249 0
M  V30 6055 C 579.399 0.342907 5.33599 0
M  V30 6056 C 580.699 2.41268 4.63235 0
M  V30 6057 H 582.393 1.62365 2.51551 0
M  V30 6058 H 579.939 0.782125 1.20908 0
M  V30 6059 H 581.892 -0.125665 4.21213 0
M  V30 6060 H 580.616 -0.797971 3.16702 0
M  V30 6061 H 579.275 1.31944 3.42033 0
M  V30 6062 H 578.923 -0.59129 4.99513 0
M  V30 6063 H 578.623 0.971955 5.79506 0
M  V30 6064 H 580.147 0.0926538 6.1053 0
M  V30 6065 H 581.561 2.21232 5.28894 0
M  V30 6066 H 579.958 2.9983 5.19829 0
M  V30 6067 H 581.028 3.03079 3.78512 0
M  V30 6068 N 582.371 -1.3172 0.865308 0
M  V30 6069 C 583.782 -1.79104 0.527126 0
M  V30 6070 C 584.133 -1.7135 -0.955695 0
M  V30 6071 O 583.258 -1.27845 -1.74598 0
M  V30 6072 C 583.853 -3.25207 0.950061 0
M  V30 6073 C 582.412 -3.70504 0.663611 0
M  V30 6074 C 581.559 -2.52605 1.14395 0
M  V30 6075 H 584.51 -1.18868 1.05148 0
M  V30 6076 H 584.531 -3.79535 0.270805 0
M  V30 6077 H 584.043 -3.30818 2.02931 0
M  V30 6078 H 582.144 -3.70398 -0.404474 0
M  V30 6079 H 582.257 -4.62845 1.23737 0
M  V30 6080 H 580.621 -2.4838 0.563859 0
M  V30 6081 H 581.404 -2.60964 2.23053 0
M  V30 6082 N 583.85 -0.624285 -1.44708 0
M  V30 6083 C 584.797 0.0847135 -2.30644 0
M  V30 6084 C 585.767 0.843575 -1.43084 0
M  V30 6085 O 586.952 0.825982 -1.71995 0
M  V30 6086 C 584.091 1.06495 -3.28257 0
M  V30 6087 C 583.205 0.305224 -4.3092 0
M  V30 6088 C 582.34 1.27667 -5.1563 0
M  V30 6089 C 581.379 0.505706 -6.10007 0
M  V30 6090 N 580.516 1.42727 -6.8744 0
M  V30 6091 H 585.356 -0.654068 -2.90733 0
M  V30 6092 H 582.893 -0.334334 -1.4325 0
M  V30 6093 H 584.851 1.64658 -3.83332 0
M  V30 6094 H 583.481 1.77094 -2.69884 0
M  V30 6095 H 582.533 -0.392207 -3.78373 0
M  V30 6096 H 583.845 -0.295553 -4.97924 0
M  V30 6097 H 582.999 1.92984 -5.75189 0
M  V30 6098 H 581.738 1.91137 -4.48685 0
M  V30 6099 H 580.743 -0.160999 -5.49564 0
M  V30 6100 H 581.968 -0.124183 -6.78986 0
M  V30 6101 H 579.913 2.04931 -6.23169 0
M  V30 6102 H 579.831 0.880345 -7.50857 0
M  V30 6103 H 581.099 2.0695 -7.51526 0
M  V30 6104 N 585.328 1.53329 -0.364422 0
M  V30 6105 C 586.575 2.01239 0.225634 0
M  V30 6106 C 586.903 1.25172 1.48869 0
M  V30 6107 O 586.158 0.333289 1.92841 0
M  V30 6108 C 586.457 3.52911 0.564661 0
M  V30 6109 C 586.123 4.46837 -0.603936 0
M  V30 6110 C 584.785 4.72234 -0.924585 0
M  V30 6111 C 587.137 5.02409 -1.38691 0
M  V30 6112 C 584.465 5.50454 -2.0302 0
M  V30 6113 C 586.817 5.81836 -2.48293 0
M  V30 6114 C 585.481 6.0552 -2.80894 0
M  V30 6115 H 584.751 0.736386 0.0825654 0
M  V30 6116 H 587.398 1.84948 -0.496645 0
M  V30 6117 H 585.703 3.67144 1.36794 0
M  V30 6118 H 587.4 3.87455 1.03344 0
M  V30 6119 H 583.99 4.27217 -0.343983 0
M  V30 6120 H 588.174 4.82735 -1.15243 0
M  V30 6121 H 583.43 5.67024 -2.28678 0
M  V30 6122 H 587.604 6.23905 -3.0938 0
M  V30 6123 H 585.231 6.65916 -3.66688 0
M  V30 6124 N 586.806 0.0935595 1.57322 0
M  V30 6125 C 587.736 -0.863062 2.16964 0
M  V30 6126 C 588.717 -1.29528 1.10256 0
M  V30 6127 O 589.902 -1.36245 1.38387 0
M  V30 6128 C 587.032 -2.12276 2.74875 0
M  V30 6129 C 585.986 -1.82921 3.86942 0
M  V30 6130 C 585.312 -3.15707 4.31548 0
M  V30 6131 C 586.612 -1.11737 5.10208 0
M  V30 6132 H 588.306 -0.366145 2.97153 0
M  V30 6133 H 585.852 -0.174673 1.42937 0
M  V30 6134 H 587.805 -2.79634 3.1525 0
M  V30 6135 H 586.529 -2.64248 1.91938 0
M  V30 6136 H 585.188 -1.17961 3.47103 0
M  V30 6137 H 584.836 -3.65563 3.45504 0
M  V30 6138 H 584.536 -2.96849 5.07104 0
M  V30 6139 H 586.06 -3.84226 4.74555 0
M  V30 6140 H 587.474 -1.69203 5.47762 0
M  V30 6141 H 585.871 -1.03064 5.91183 0
M  V30 6142 H 586.941 -0.0998818 4.84797 0
M  V30 6143 N 588.284 -1.56567 -0.180126 0
M  V30 6144 C 589.194 -1.98947 -1.24327 0
M  V30 6145 C 590.21 -0.899446 -1.4895 0
M  V30 6146 O 591.386 -1.20639 -1.61271 0
M  V30 6147 C 588.451 -2.33328 -2.56435 0
M  V30 6148 C 587.512 -3.56114 -2.39752 0
M  V30 6149 C 586.745 -3.88845 -3.65561 0
M  V30 6150 O 586.968 -3.22662 -4.70368 0
M  V30 6151 O 585.902 -4.82226 -3.60197 0
M  V30 6152 H 589.728 -2.89634 -0.913565 0
M  V30 6153 H 587.313 -1.44319 -0.386306 0
M  V30 6154 H 589.195 -2.5645 -3.34382 0
M  V30 6155 H 587.87 -1.45806 -2.89002 0
M  V30 6156 H 586.777 -3.38221 -1.59866 0
M  V30 6157 H 588.11 -4.4415 -2.12113 0
M  V30 6158 N 589.762 0.448376 -1.51087 0
M  V30 6159 C 591.178 0.783984 -1.39017 0
M  V30 6160 C 591.378 1.96087 -0.463904 0
M  V30 6161 O 590.434 2.52357 0.0850534 0
M  V30 6162 C 591.747 1.07471 -2.80839 0
M  V30 6163 C 593.295 1.17981 -2.89913 0
M  V30 6164 C 593.77 1.50354 -4.32617 0
M  V30 6165 N 595.261 1.57301 -4.35673 0
M  V30 6166 C 595.996 1.839 -5.4311 0
M  V30 6167 N 595.492 2.08365 -6.60724 0
M  V30 6168 N 597.285 1.8559 -5.30578 0
M  V30 6169 H 589.436 -0.326881 -2.0987 0
M  V30 6170 H 591.699 -0.0838006 -0.944289 0
M  V30 6171 H 591.405 0.282768 -3.50561 0
M  V30 6172 H 591.279 2.00519 -3.19487 0
M  V30 6173 H 593.666 1.9624 -2.20395 0
M  V30 6174 H 593.747 0.228603 -2.54776 0
M  V30 6175 H 593.391 0.726273 -5.0268 0
M  V30 6176 H 593.321 2.46663 -4.65258 0
M  V30 6177 H 595.812 1.40342 -3.50874 0
M  V30 6178 H 596.125 2.27999 -7.38401 0
M  V30 6179 H 594.47 2.0571 -6.63859 0
M  V30 6180 H 597.661 1.65989 -4.37682 0
M  V30 6181 H 597.834 2.05983 -6.1439 0
M  V30 6182 N 591.24 1.41047 0.703093 0
M  V30 6183 C 592.172 1.38228 1.82827 0
M  V30 6184 C 593.185 0.285637 1.60275 0
M  V30 6185 O 594.374 0.54685 1.69917 0
M  V30 6186 C 591.474 1.13136 3.19458 0
M  V30 6187 C 590.647 2.34695 3.69103 0
M  V30 6188 C 589.706 2.05574 4.84382 0
M  V30 6189 O 588.732 2.78549 4.96386 0
M  V30 6190 N 589.934 1.04135 5.71083 0
M  V30 6191 H 592.699 2.35203 1.85741 0
M  V30 6192 H 590.26 1.35562 0.885125 0
M  V30 6193 H 592.252 0.916183 3.94193 0
M  V30 6194 H 590.822 0.247836 3.11616 0
M  V30 6195 H 590.042 2.71963 2.85359 0
M  V30 6196 H 591.33 3.15705 3.99009 0
M  V30 6197 H 590.728 0.43722 5.64008 0
M  V30 6198 H 589.285 0.886078 6.45749 0
M  V30 6199 N 592.718 -0.936591 1.26751 0
M  V30 6200 C 593.965 -1.68331 1.12566 0
M  V30 6201 C 594.293 -1.91677 -0.330168 0
M  V30 6202 O 593.548 -1.49859 -1.2586 0
M  V30 6203 C 593.847 -3.06099 1.84494 0
M  V30 6204 C 593.513 -3.02493 3.34378 0
M  V30 6205 C 592.175 -3.01217 3.75262 0
M  V30 6206 C 594.527 -2.94453 4.30055 0
M  V30 6207 C 591.855 -2.89672 5.10203 0
M  V30 6208 C 594.207 -2.84449 5.65041 0
M  V30 6209 C 592.871 -2.81518 6.0523 0
M  V30 6210 H 592.141 -0.615965 0.411907 0
M  V30 6211 H 594.788 -1.09292 1.5725 0
M  V30 6212 H 593.093 -3.6879 1.32292 0
M  V30 6213 H 594.79 -3.62733 1.70955 0
M  V30 6214 H 591.38 -3.04269 3.01858 0
M  V30 6215 H 595.564 -2.94544 3.99447 0
M  V30 6216 H 590.82 -2.85783 5.40498 0
M  V30 6217 H 594.994 -2.77192 6.38856 0
M  V30 6218 H 592.621 -2.72329 7.09747 0
M  V30 6219 N 594.196 -1.08629 -1.14182 0
M  V30 6220 C 595.421 -0.83902 -1.89671 0
M  V30 6221 C 595.846 0.603332 -1.78161 0
M  V30 6222 O 595.204 1.42301 -1.12339 0
M  V30 6223 C 595.252 -1.26854 -3.37551 0
M  V30 6224 O 594.356 -0.42188 -4.10236 0
M  V30 6225 H 593.697 -0.304545 -0.590041 0
M  V30 6226 H 596.227 -1.4483 -1.44518 0
M  V30 6227 H 596.237 -1.25038 -3.88368 0
M  V30 6228 H 594.912 -2.31901 -3.45246 0
M  V30 6229 H 593.489 -0.503654 -3.69483 0
M  V30 6230 N 595.674 1.31259 -0.872281 0
M  V30 6231 C 596.923 1.95893 -0.480493 0
M  V30 6232 C 597.236 1.697 0.972688 0
M  V30 6233 O 598.442 2.28214 1.47073 0
M  V30 6234 C 596.898 3.50705 -0.808342 0
M  V30 6235 C 596.506 3.85735 -2.27844 0
M  V30 6236 C 598.25 4.21719 -0.485136 0
M  V30 6237 C 596.157 5.33668 -2.54858 0
M  V30 6238 H 595.087 0.733182 -0.175955 0
M  V30 6239 H 597.738 1.49396 -1.0655 0
M  V30 6240 H 596.12 3.95706 -0.152558 0
M  V30 6241 H 597.294 3.51686 -2.97748 0
M  V30 6242 H 595.609 3.27792 -2.56791 0
M  V30 6243 H 598.206 5.30559 -0.664166 0
M  V30 6244 H 598.549 4.12316 0.574592 0
M  V30 6245 H 599.082 3.82359 -1.09756 0
M  V30 6246 H 595.821 5.48109 -3.59523 0
M  V30 6247 H 595.341 5.69061 -1.8955 0
M  V30 6248 H 597.02 6.00958 -2.39706 0
M  V30 6249 N 597.152 0.631951 1.44375 0
M  V30 6250 C 598.38 0.143867 2.06399 0
M  V30 6251 C 598.795 -1.18188 1.47231 0
M  V30 6252 O 598.152 -1.72511 0.595498 0
M  V30 6253 C 598.203 0.0238253 3.61492 0
M  V30 6254 O 597.924 1.29715 4.18456 0
M  V30 6255 C 599.425 -0.492856 4.40552 0
M  V30 6256 H 596.645 0.0800542 0.666207 0
M  V30 6257 H 599.189 0.866586 1.85231 0
M  V30 6258 H 597.344 -0.649338 3.81919 0
M  V30 6259 H 597.758 1.14252 5.11905 0
M  V30 6260 H 599.232 -0.525861 5.49489 0
M  V30 6261 H 599.709 -1.52006 4.12057 0
M  V30 6262 H 600.315 0.147085 4.25046 0
M  V30 6263 N 598.631 -1.53133 0.372548 0
M  V30 6264 C 599.594 -2.24569 -0.458389 0
M  V30 6265 C 600.594 -1.25603 -1.00402 0
M  V30 6266 O 601.784 -1.49827 -0.888672 0
M  V30 6267 C 598.916 -2.98783 -1.6414 0
M  V30 6268 H 600.109 -2.99436 0.166799 0
M  V30 6269 H 597.662 -1.55805 0.124357 0
M  V30 6270 H 598.397 -2.28176 -2.30448 0
M  V30 6271 H 598.182 -3.71404 -1.25704 0
M  V30 6272 H 599.672 -3.53068 -2.23008 0
M  V30 6273 N 600.109 -0.101901 -1.5727 0
M  V30 6274 C 601.334 0.571759 -1.99363 0
M  V30 6275 C 601.759 1.60507 -0.980768 0
M  V30 6276 O 601.117 1.81231 0.0498517 0
M  V30 6277 C 601.165 1.18996 -3.404 0
M  V30 6278 O 600.269 2.30572 -3.41922 0
M  V30 6279 H 599.61 0.144449 -0.648098 0
M  V30 6280 H 602.14 -0.185325 -2.03759 0
M  V30 6281 H 602.15 1.52962 -3.78241 0
M  V30 6282 H 600.825 0.432984 -4.1364 0
M  V30 6283 H 599.402 1.98173 -3.15883 0
M  V30 6284 N 601.587 1.56661 0.17182 0
M  V30 6285 C 602.817 1.85831 0.902804 0
M  V30 6286 C 603.225 0.685157 1.76358 0
M  V30 6287 O 602.568 -0.354947 1.80238 0
M  V30 6288 C 602.63 3.09406 1.83053 0
M  V30 6289 C 602.294 4.4231 1.1494 0
M  V30 6290 C 603.291 5.17342 0.515104 0
M  V30 6291 C 600.976 4.89045 1.14631 0
M  V30 6292 C 602.97 6.37299 -0.113194 0
M  V30 6293 C 600.657 6.08933 0.514184 0
M  V30 6294 C 601.655 6.82904 -0.114463 0
M  V30 6295 O 601.343 8.00518 -0.736622 0
M  V30 6296 H 601.075 0.620715 0.267748 0
M  V30 6297 H 603.629 2.04637 0.176918 0
M  V30 6298 H 601.859 2.86544 2.59672 0
M  V30 6299 H 603.548 3.25027 2.4313 0
M  V30 6300 H 604.314 4.82317 0.509474 0
M  V30 6301 H 600.193 4.31409 1.62502 0
M  V30 6302 H 603.737 6.94976 -0.604477 0
M  V30 6303 H 599.634 6.43423 0.517395 0
M  V30 6304 H 600.402 8.16027 -0.635822 0
M  V30 6305 N 603.065 -0.440357 1.51323 0
M  V30 6306 C 604.028 -1.51679 1.71832 0
M  V30 6307 C 605.028 -1.49648 0.588386 0
M  V30 6308 O 606.218 -1.51724 0.855891 0
M  V30 6309 C 603.35 -2.91228 1.77199 0
M  V30 6310 H 604.543 -1.34799 2.67898 0
M  V30 6311 H 602.096 -0.66883 1.41267 0
M  V30 6312 H 602.831 -3.13516 0.829363 0
M  V30 6313 H 602.616 -2.94107 2.59314 0
M  V30 6314 H 604.106 -3.69321 1.94915 0
M  V30 6315 N 604.543 -1.41418 -0.695603 0
M  V30 6316 C 605.491 -1.43467 -1.83084 0
M  V30 6317 C 606.485 -0.312719 -1.66489 0
M  V30 6318 O 607.691 -0.484744 -1.7335 0
M  V30 6319 H 604.066 -0.448891 -0.603325 0
M  V30 6320 H 606.037 -2.39144 -1.78473 0
M  V30 6321 C 604.786 -1.3337 -3.21104 0
M  V30 6322 H 604.109 -2.18989 -3.3449 0
M  V30 6323 H 605.549 -1.38865 -4.00615 0
M  V30 6324 C 604.008 -0.0460484 -3.36869 0
M  V30 6325 O 604.538 0.909258 -3.91274 0
M  V30 6326 N 602.744 0.0300222 -2.90584 0
M  V30 6327 H 602.291 -0.748129 -2.46497 0
M  V30 6328 H 602.249 0.890991 -3.01511 0
M  V30 6329 N 606.021 0.929856 -1.27246 0
M  V30 6330 C 606.951 2.04722 -1.12299 0
M  V30 6331 C 607.932 1.70082 -0.0250464 0
M  V30 6332 O 609.117 1.93176 -0.199141 0
M  V30 6333 C 606.247 3.38721 -0.767145 0
M  V30 6334 C 605.201 3.87466 -1.81808 0
M  V30 6335 C 604.527 5.18246 -1.31626 0
M  V30 6336 C 605.827 4.11095 -3.22177 0
M  V30 6337 H 607.521 2.17485 -2.05769 0
M  V30 6338 H 605.067 1.04503 -0.990715 0
M  V30 6339 H 607.02 4.16366 -0.649413 0
M  V30 6340 H 605.744 3.25967 0.203259 0
M  V30 6341 H 604.403 3.12012 -1.92468 0
M  V30 6342 H 604.051 5.01881 -0.335378 0
M  V30 6343 H 603.751 5.51829 -2.01887 0
M  V30 6344 H 605.275 5.98462 -1.21143 0
M  V30 6345 H 606.689 4.79316 -3.1453 0
M  V30 6346 H 605.086 4.55982 -3.90129 0
M  V30 6347 H 606.156 3.16468 -3.67391 0
M  V30 6348 N 607.499 1.09233 1.13605 0
M  V30 6349 C 608.429 0.751738 2.21068 0
M  V30 6350 C 609.41 -0.269688 1.67948 0
M  V30 6351 O 610.595 -0.13819 1.93708 0
M  V30 6352 C 607.725 0.16935 3.46887 0
M  V30 6353 C 606.679 1.12007 4.13084 0
M  V30 6354 C 606.005 0.399483 5.33206 0
M  V30 6355 C 607.305 2.46168 4.6065 0
M  V30 6356 H 608.999 1.65024 2.49815 0
M  V30 6357 H 606.545 0.794905 1.20072 0
M  V30 6358 H 608.498 -0.0809824 4.21322 0
M  V30 6359 H 607.222 -0.764335 3.1753 0
M  V30 6360 H 605.881 1.35564 3.40614 0
M  V30 6361 H 605.529 -0.538277 5.00112 0
M  V30 6362 H 605.229 1.03337 5.78442 0
M  V30 6363 H 606.753 0.157403 6.10397 0
M  V30 6364 H 608.167 2.26829 5.26518 0
M  V30 6365 H 606.564 3.05326 5.1662 0
M  V30 6366 H 607.634 3.07076 3.75276 0
M  V30 6367 N 608.977 -1.30795 0.87923 0
M  V30 6368 C 610.226 -1.95636 0.490875 0
M  V30 6369 C 610.539 -1.70214 -0.963674 0
M  V30 6370 O 611.745 -2.28991 -1.45861 0
M  V30 6371 C 610.201 -3.50271 0.826929 0
M  V30 6372 C 609.809 -3.84521 2.29886 0
M  V30 6373 C 611.553 -4.21456 0.507494 0
M  V30 6374 C 609.46 -5.32309 2.57685 0
M  V30 6375 H 608.39 -0.732238 0.179841 0
M  V30 6376 H 611.041 -1.48829 1.07341 0
M  V30 6377 H 609.423 -3.9562 0.173542 0
M  V30 6378 H 610.597 -3.50102 2.99609 0
M  V30 6379 H 608.912 -3.26425 2.58526 0
M  V30 6380 H 611.509 -5.30199 0.692293 0
M  V30 6381 H 611.852 -4.12614 -0.552718 0
M  V30 6382 H 612.385 -3.81772 1.11782 0
M  V30 6383 H 609.124 -5.46195 3.62424 0
M  V30 6384 H 608.644 -5.68048 1.92566 0
M  V30 6385 H 610.323 -5.99678 2.42889 0
M  V30 6386 N 610.455 -0.639598 -1.44038 0
M  V30 6387 C 611.703 -0.147188 -2.01563 0
M  V30 6388 C 612.024 1.2384 -1.50628 0
M  V30 6389 O 611.294 1.82452 -0.713316 0
M  V30 6390 H 609.874 -0.0514231 -0.745228 0
M  V30 6391 H 612.536 -0.828205 -1.76428 0
M  V30 6392 H 611.632 -0.121358 -3.11864 0
M  V30 6393 N 611.933 1.52934 -0.380664 0
M  V30 6394 C 613.173 2.03378 0.204161 0
M  V30 6395 C 613.537 1.26132 1.44758 0
M  V30 6396 O 614.738 1.66657 2.109 0
M  V30 6397 C 613.009 3.54241 0.474118 0
M  V30 6398 S 614.568 4.26529 1.03046 0
M  V30 6399 H 611.386 0.708608 0.0582719 0
M  V30 6400 H 613.988 1.88263 -0.527017 0
M  V30 6401 H 612.692 4.08055 -0.438088 0
M  V30 6402 H 612.223 3.73547 1.23396 0
M  V30 6403 H 614.238 4.38964 2.31354 0
M  V30 6404 N 613.412 0.11024 1.57214 0
M  V30 6405 C 614.342 -0.840002 2.17867 0
M  V30 6406 C 615.323 -1.28352 1.11624 0
M  V30 6407 O 616.508 -1.3477 1.39824 0
M  V30 6408 C 613.638 -2.09349 2.77111 0
M  V30 6409 C 612.592 -1.78807 3.8886 0
M  V30 6410 C 611.918 -3.11112 4.34872 0
M  V30 6411 C 613.218 -1.0632 5.11364 0
M  V30 6412 H 614.912 -0.334608 2.97524 0
M  V30 6413 H 612.458 -0.159502 1.43114 0
M  V30 6414 H 614.411 -2.76275 3.18198 0
M  V30 6415 H 613.135 -2.62198 1.9473 0
M  V30 6416 H 611.794 -1.14273 3.48335 0
M  V30 6417 H 611.442 -3.61877 3.49362 0
M  V30 6418 H 611.142 -2.91453 5.10224 0
M  V30 6419 H 612.666 -3.79171 4.78604 0
M  V30 6420 H 614.08 -1.63383 5.49526 0
M  V30 6421 H 612.477 -0.967876 5.92243 0
M  V30 6422 H 613.547 -0.0484569 4.84876 0
M  V30 6423 N 614.89 -1.56749 -0.16351 0
M  V30 6424 C 616.115 -1.86938 -0.898264 0
M  V30 6425 C 616.54 -0.697456 -1.74692 0
M  V30 6426 O 615.898 0.353327 -1.77824 0
M  V30 6427 C 615.946 -3.15599 -1.74441 0
M  V30 6428 O 615.05 -2.98371 -2.8469 0
M  V30 6429 H 614.391 -0.614659 -0.251178 0
M  V30 6430 H 616.921 -2.03979 -0.159298 0
M  V30 6431 H 616.931 -3.47202 -2.14277 0
M  V30 6432 H 615.606 -4.00505 -1.1211 0
M  V30 6433 H 614.183 -2.7814 -2.4838 0
M  V30 6434 N 616.368 0.432326 -1.51554 0
M  V30 6435 C 617.615 1.18134 -1.64471 0
M  V30 6436 C 617.943 1.91076 -0.363349 0
M  V30 6437 O 617.198 1.84492 0.65279 0
M  V30 6438 C 617.497 2.21907 -2.80164 0
M  V30 6439 C 617.163 1.65941 -4.19255 0
M  V30 6440 C 615.825 1.50401 -4.57092 0
M  V30 6441 C 618.177 1.24843 -5.06027 0
M  V30 6442 C 615.505 0.922443 -5.79403 0
M  V30 6443 C 617.857 0.68113 -6.28922 0
M  V30 6444 C 616.521 0.512673 -6.65528 0
M  V30 6445 H 615.791 0.432283 -0.601841 0
M  V30 6446 H 618.438 0.471701 -1.856 0
M  V30 6447 H 616.743 2.98928 -2.53277 0
M  V30 6448 H 618.44 2.79691 -2.87357 0
M  V30 6449 H 615.03 1.79014 -3.89425 0
M  V30 6450 H 619.214 1.35667 -4.77397 0
M  V30 6451 H 614.47 0.779733 -6.06408 0
M  V30 6452 H 618.644 0.35418 -6.95499 0
M  V30 6453 H 616.271 0.0599084 -7.60176 0
M  V30 6454 N 617.846 1.41785 0.688094 0
M  V30 6455 C 619.257 1.3701 1.26828 0
M  V30 6456 C 619.608 0.056835 1.96118 0
M  V30 6457 O 618.733 -0.84475 1.99231 0
M  V30 6458 C 619.328 2.48168 2.30648 0
M  V30 6459 C 617.887 2.46766 2.84224 0
M  V30 6460 C 617.034 2.27633 1.58361 0
M  V30 6461 H 619.985 1.51192 0.482351 0
M  V30 6462 H 620.006 2.17655 3.121 0
M  V30 6463 H 619.518 3.43735 1.80188 0
M  V30 6464 H 617.619 1.54978 3.3884 0
M  V30 6465 H 617.732 3.43342 3.34145 0
M  V30 6466 H 616.096 1.75648 1.84445 0
M  V30 6467 H 616.879 3.25238 1.09887 0
M  V30 6468 N 619.324 -0.923095 1.27737 0
M  V30 6469 C 620.549 -1.71054 1.17283 0
M  V30 6470 C 620.974 -1.86208 -0.266153 0
M  V30 6471 O 620.332 -1.36545 -1.1927 0
M  V30 6472 C 620.38 -3.0854 1.86642 0
M  V30 6473 O 619.484 -3.95528 1.16752 0
M  V30 6474 H 618.825 -0.524136 0.407649 0
M  V30 6475 H 621.355 -1.15487 1.6889 0
M  V30 6476 H 621.365 -3.58828 1.94182 0
M  V30 6477 H 620.04 -2.96828 2.91317 0
M  V30 6478 H 618.617 -3.53967 1.17312 0
M  V30 6479 N 620.802 -1.09834 -1.13024 0
M  V30 6480 C 622.048 -0.83819 -1.84668 0
M  V30 6481 C 622.381 0.634645 -1.83537 0
M  V30 6482 O 621.656 1.46753 -1.27647 0
M  V30 6483 C 621.939 -1.37933 -3.32636 0
M  V30 6484 C 621.792 -2.91857 -3.42257 0
M  V30 6485 C 623.111 -1.01654 -4.28199 0
M  V30 6486 H 620.23 -0.30595 -0.670495 0
M  V30 6487 H 622.872 -1.36044 -1.32635 0
M  V30 6488 H 621.022 -0.935111 -3.77078 0
M  V30 6489 H 622.694 -3.44759 -3.06495 0
M  V30 6490 H 620.937 -3.28776 -2.83 0
M  V30 6491 H 621.608 -3.24799 -4.46329 0
M  V30 6492 H 624.084 -1.39973 -3.9185 0
M  V30 6493 H 622.96 -1.42217 -5.30156 0
M  V30 6494 H 623.221 0.0747794 -4.42037 0
M  V30 6495 N 622.28 1.30327 -0.886154 0
M  V30 6496 C 623.529 1.95373 -0.501243 0
M  V30 6497 C 623.842 1.70722 0.954634 0
M  V30 6498 O 625.048 2.29761 1.44644 0
M  V30 6499 C 623.504 3.49828 -0.845493 0
M  V30 6500 C 623.112 3.83296 -2.31922 0
M  V30 6501 C 624.856 4.2118 -0.529838 0
M  V30 6502 C 622.763 5.30935 -2.60504 0
M  V30 6503 H 621.693 0.731274 -0.183722 0
M  V30 6504 H 624.344 1.48258 -1.08129 0
M  V30 6505 H 622.726 3.95522 -0.19452 0
M  V30 6506 H 623.9 3.48508 -3.01461 0
M  V30 6507 H 622.215 3.2505 -2.60253 0
M  V30 6508 H 624.812 5.29825 -0.720401 0
M  V30 6509 H 625.155 4.12902 0.530828 0
M  V30 6510 H 625.688 3.81173 -1.13806 0
M  V30 6511 H 622.427 5.44265 -3.65316 0
M  V30 6512 H 621.947 5.67019 -1.95575 0
M  V30 6513 H 623.626 5.98381 -2.46066 0
M  V30 6514 N 623.758 0.647228 1.43697 0
M  V30 6515 C 625.004 0.158422 2.0218 0
M  V30 6516 C 625.337 -1.22233 1.50907 0
M  V30 6517 O 624.612 -1.81478 0.699702 0
M  V30 6518 C 624.895 0.1627 3.59732 0
M  V30 6519 C 624.748 1.57694 4.21251 0
M  V30 6520 C 626.067 -0.504138 4.37203 0
M  V30 6521 H 623.186 0.059042 0.734631 0
M  V30 6522 H 625.828 0.826772 1.71069 0
M  V30 6523 H 623.978 -0.406414 3.86368 0
M  V30 6524 H 625.65 2.19618 4.05667 0
M  V30 6525 H 623.893 2.12603 3.7813 0
M  V30 6526 H 624.564 1.53183 5.3032 0
M  V30 6527 H 627.04 -0.0199841 4.16095 0
M  V30 6528 H 625.916 -0.470394 5.46881 0
M  V30 6529 H 626.177 -1.57726 4.13007 0
M  V30 6530 N 625.236 -1.5273 0.388769 0
M  V30 6531 C 626.484 -2.01174 -0.193208 0
M  V30 6532 C 626.805 -1.27705 -1.47365 0
M  V30 6533 O 626.075 -0.396966 -1.91836 0
M  V30 6534 H 624.655 -0.743287 -0.0743871 0
M  V30 6535 H 627.317 -1.87826 0.520336 0
M  V30 6536 H 626.413 -3.09477 -0.403803 0
M  V30 6537 N 626.714 -0.118576 -1.57153 0
M  V30 6538 C 627.963 0.539339 -1.94355 0
M  V30 6539 C 628.276 1.67858 -1.00415 0
M  V30 6540 O 629.482 2.39922 -1.27081 0
M  V30 6541 C 627.938 1.01082 -3.45414 0
M  V30 6542 C 627.546 -0.0999402 -4.47889 0
M  V30 6543 C 629.29 1.64013 -3.91535 0
M  V30 6544 C 627.197 0.388212 -5.90124 0
M  V30 6545 H 626.127 0.205247 -0.725527 0
M  V30 6546 H 628.778 -0.19836 -1.82425 0
M  V30 6547 H 627.16 1.80292 -3.52577 0
M  V30 6548 H 628.334 -0.876189 -4.52393 0
M  V30 6549 H 626.649 -0.635885 -4.11516 0
M  V30 6550 H 629.246 2.01649 -4.95219 0
M  V30 6551 H 629.589 2.51836 -3.31488 0
M  V30 6552 H 630.122 0.913439 -3.87171 0
M  V30 6553 H 626.861 -0.453963 -6.53926 0
M  V30 6554 H 626.381 1.13095 -5.89041 0
M  V30 6555 H 628.06 0.849574 -6.41398 0
M  V30 6556 N 628.193 1.56834 0.155195 0
M  V30 6557 C 629.439 1.83169 0.870467 0
M  V30 6558 C 629.772 0.698929 1.81187 0
M  V30 6559 O 629.047 -0.298035 1.92203 0
M  V30 6560 C 629.33 3.19965 1.65211 0
M  V30 6561 C 629.183 4.43792 0.732744 0
M  V30 6562 C 630.502 3.53885 2.61636 0
M  V30 6563 H 627.621 0.666288 0.315006 0
M  V30 6564 H 630.263 1.89513 0.135988 0
M  V30 6565 H 628.413 3.14687 2.27825 0
M  V30 6566 H 630.085 4.61148 0.118236 0
M  V30 6567 H 628.328 4.3378 0.0417906 0
M  V30 6568 H 628.999 5.36095 1.31552 0
M  V30 6569 H 631.475 3.5972 2.09143 0
M  V30 6570 H 630.351 4.50648 3.13381 0
M  V30 6571 H 630.612 2.79418 3.42605 0
M  V30 6572 N 629.671 -0.424282 1.51781 0
M  V30 6573 C 630.917 -1.17434 1.6534 0
M  V30 6574 C 631.25 -1.90549 0.374806 0
M  V30 6575 O 630.525 -1.84145 -0.626179 0
M  V30 6576 C 630.808 -2.18093 2.86544 0
M  V30 6577 C 630.661 -1.48975 4.24413 0
M  V30 6578 C 631.98 -3.18934 3.03264 0
M  V30 6579 H 629.099 -0.425566 0.601716 0
M  V30 6580 H 631.741 -0.461921 1.84299 0
M  V30 6581 H 629.891 -2.78849 2.7051 0
M  V30 6582 H 631.563 -0.914551 4.52143 0
M  V30 6583 H 629.806 -0.791893 4.26511 0
M  V30 6584 H 630.477 -2.22347 5.05238 0
M  V30 6585 H 632.953 -2.68243 3.18096 0
M  V30 6586 H 631.829 -3.86645 3.89611 0
M  V30 6587 H 632.09 -3.85793 2.15908 0
M  V30 6588 N 631.149 -1.42148 -0.680565 0
M  V30 6589 C 632.397 -1.42029 -1.43779 0
M  V30 6590 C 632.718 -0.0356347 -1.94967 0
M  V30 6591 O 631.988 0.924936 -1.7269 0
M  V30 6592 H 630.568 -0.522835 -0.533529 0
M  V30 6593 H 633.23 -1.7752 -0.804538 0
M  V30 6594 H 632.326 -2.11658 -2.29363 0
M  V30 6595 N 632.627 0.916307 -1.28225 0
M  V30 6596 C 633.875 1.6619 -1.15002 0
M  V30 6597 C 634.196 1.92642 0.302329 0
M  V30 6598 O 633.466 1.54076 1.20985 0
M  V30 6599 H 632.046 0.615964 -0.422608 0
M  V30 6600 H 634.708 1.09963 -1.60917 0
M  V30 6601 H 633.804 2.62533 -1.68769 0
M  V30 6602 N 634.105 1.10431 1.1244 0
M  V30 6603 C 635.351 0.847972 1.84221 0
M  V30 6604 C 635.684 -0.624903 1.83871 0
M  V30 6605 O 634.959 -1.46074 1.28423 0
M  V30 6606 C 635.242 1.39695 3.319 0
M  V30 6607 C 635.095 2.93668 3.40704 0
M  V30 6608 C 636.414 1.03924 4.27654 0
M  V30 6609 H 633.533 0.309502 0.668863 0
M  V30 6610 H 636.175 1.36745 1.31912 0
M  V30 6611 H 634.325 0.955095 3.76577 0
M  V30 6612 H 635.997 3.46379 3.04662 0
M  V30 6613 H 634.24 3.30272 2.81252 0
M  V30 6614 H 634.911 3.27162 4.446 0
M  V30 6615 H 637.387 1.42049 3.91102 0
M  V30 6616 H 636.263 1.45027 5.29394 0
M  V30 6617 H 636.524 -0.051336 4.4207 0
M  V30 6618 N 635.583 -1.29855 0.893053 0
M  V30 6619 C 636.513 -2.3035 0.382249 0
M  V30 6620 C 637.494 -1.61328 -0.539203 0
M  V30 6621 O 638.679 -1.88882 -0.451342 0
M  V30 6622 C 635.809 -3.45024 -0.396983 0
M  V30 6623 C 634.763 -4.258 0.433437 0
M  V30 6624 C 634.089 -5.32605 -0.472889 0
M  V30 6625 C 635.389 -4.94549 1.67984 0
M  V30 6626 H 637.083 -2.73325 1.22205 0
M  V30 6627 H 634.629 -1.314 0.589073 0
M  V30 6628 H 636.582 -4.14398 -0.765024 0
M  V30 6629 H 635.306 -3.00875 -1.2705 0
M  V30 6630 H 633.965 -3.58125 0.783723 0
M  V30 6631 H 633.613 -4.84702 -1.34435 0
M  V30 6632 H 633.313 -5.87547 0.0789958 0
M  V30 6633 H 634.837 -6.04832 -0.837269 0
M  V30 6634 H 636.251 -5.56395 1.38192 0
M  V30 6635 H 634.648 -5.59393 2.17254 0
M  V30 6636 H 635.718 -4.20215 2.41965 0
M  V30 6637 N 637.061 -0.65484 -1.43351 0
M  V30 6638 C 638.307 -0.169142 -2.02093 0
M  V30 6639 C 638.64 1.21431 -1.51553 0
M  V30 6640 O 637.915 1.81105 -0.709317 0
M  V30 6641 C 638.198 -0.181775 -3.59641 0
M  V30 6642 C 638.051 -1.59926 -4.20409 0
M  V30 6643 C 639.37 0.480945 -4.37464 0
M  V30 6644 H 636.489 -0.0629371 -0.734308 0
M  V30 6645 H 639.131 -0.835833 -1.70628 0
M  V30 6646 H 637.281 0.385918 -3.86578 0
M  V30 6647 H 638.953 -2.21766 -4.04497 0
M  V30 6648 H 637.196 -2.14605 -3.76998 0
M  V30 6649 H 637.867 -1.55994 -5.295 0
M  V30 6650 H 640.343 -0.00208273 -4.161 0
M  V30 6651 H 639.219 0.441384 -5.47122 0
M  V30 6652 H 639.48 1.55533 -4.13838 0
M  V30 6653 N 638.539 1.52521 -0.396863 0
M  V30 6654 C 639.486 2.26671 0.434624 0
M  V30 6655 C 640.456 1.28584 1.05144 0
M  V30 6656 O 641.641 1.57426 1.07804 0
M  V30 6657 C 638.781 3.08234 1.55196 0
M  V30 6658 C 637.894 4.21261 0.957262 0
M  V30 6659 C 637.029 4.90205 2.04627 0
M  V30 6660 C 636.068 5.95213 1.42787 0
M  V30 6661 N 635.205 6.57723 2.45651 0
M  V30 6662 H 640.045 2.973 -0.204139 0
M  V30 6663 H 637.582 1.46669 -0.112505 0
M  V30 6664 H 639.54 3.53819 2.2106 0
M  V30 6665 H 638.17 2.398 2.16092 0
M  V30 6666 H 637.222 3.79935 0.188005 0
M  V30 6667 H 638.534 4.96624 0.465416 0
M  V30 6668 H 637.688 5.39133 2.78246 0
M  V30 6669 H 636.427 4.14383 2.57174 0
M  V30 6670 H 635.432 5.45616 0.676968 0
M  V30 6671 H 636.657 6.72972 0.910255 0
M  V30 6672 H 634.603 5.84737 2.97353 0
M  V30 6673 H 634.52 7.28723 2.01243 0
M  V30 6674 H 635.788 7.11293 3.18876 0
M  V30 6675 N 640.017 0.126909 1.57088 0
M  V30 6676 C 641.433 -0.229641 1.57939 0
M  V30 6677 C 641.633 -1.66145 1.1401 0
M  V30 6678 O 640.689 -2.3843 0.831119 0
M  V30 6679 C 642.002 0.0108648 3.00698 0
M  V30 6680 C 643.55 -0.054418 3.12953 0
M  V30 6681 C 644.025 0.158497 4.57726 0
M  V30 6682 N 645.516 0.104735 4.63082 0
M  V30 6683 C 646.251 0.24427 5.72879 0
M  V30 6684 N 645.747 0.440415 6.91399 0
M  V30 6685 N 647.54 0.183286 5.61801 0
M  V30 6686 H 639.691 1.06203 1.83942 0
M  V30 6687 H 641.954 0.418834 0.85046 0
M  V30 6688 H 641.66 1.00102 3.37154 0
M  V30 6689 H 641.534 -0.717512 3.70313 0
M  V30 6690 H 643.921 -1.0351 2.7635 0
M  V30 6691 H 644.002 0.705967 2.45865 0
M  V30 6692 H 643.646 1.13619 4.95028 0
M  V30 6693 H 643.576 -0.62197 5.22914 0
M  V30 6694 H 646.067 -0.0430298 3.77876 0
M  V30 6695 H 646.38 0.537536 7.70928 0
M  V30 6696 H 644.725 0.476488 6.93365 0
M  V30 6697 H 647.916 0.0309561 4.6809 0
M  V30 6698 H 648.089 0.295471 6.47326 0
M  V30 6699 N 641.495 -1.56914 -0.146875 0
M  V30 6700 C 642.425 -2.01308 -1.1831 0
M  V30 6701 C 643.406 -0.892664 -1.44795 0
M  V30 6702 O 644.591 -1.16048 -1.55713 0
M  V30 6703 C 641.721 -2.3938 -2.51624 0
M  V30 6704 C 640.675 -3.54608 -2.3966 0
M  V30 6705 C 640.001 -3.78493 -3.77686 0
M  V30 6706 C 641.301 -4.87269 -1.88058 0
M  V30 6707 H 642.995 -2.88123 -0.813964 0
M  V30 6708 H 640.541 -1.38615 -0.3901 0
M  V30 6709 H 642.494 -2.69037 -3.24341 0
M  V30 6710 H 641.218 -1.49502 -2.90373 0
M  V30 6711 H 639.877 -3.25116 -1.69396 0
M  V30 6712 H 639.525 -2.85866 -4.13871 0
M  V30 6713 H 639.225 -4.56039 -3.70543 0
M  V30 6714 H 640.749 -4.10576 -4.51951 0
M  V30 6715 H 642.163 -5.15644 -2.50568 0
M  V30 6716 H 640.56 -5.68622 -1.91805 0
M  V30 6717 H 641.63 -4.77634 -0.836277 0
M  V30 6718 N 642.974 0.416227 -1.52004 0
M  V30 6719 C 643.924 1.50558 -1.7122 0
M  V30 6720 C 644.908 1.50613 -0.56609 0
M  V30 6721 O 646.1 1.56709 -0.822874 0
M  V30 6722 C 643.229 2.88556 -1.85984 0
M  V30 6723 C 642.315 2.93177 -3.06445 0
M  V30 6724 N 642.706 2.67505 -4.29272 0
M  V30 6725 C 641.004 3.24343 -3.06133 0
M  V30 6726 C 641.705 2.78511 -5.10692 0
M  V30 6727 N 640.681 3.11087 -4.45787 0
M  V30 6728 H 644.483 1.29494 -2.63834 0
M  V30 6729 H 641.997 0.62384 -1.4994 0
M  V30 6730 H 643.994 3.66954 -1.97865 0
M  V30 6731 H 642.654 3.10624 -0.945654 0
M  V30 6732 H 643.665 2.42033 -4.57865 0
M  V30 6733 H 640.342 3.52051 -2.24425 0
M  V30 6734 H 641.732 2.62438 -6.18527 0
M  V30 6735 N 644.452 1.42507 0.673017 0
M  V30 6736 C 645.382 1.48916 1.79851 0
M  V30 6737 C 646.363 0.345566 1.66553 0
M  V30 6738 O 647.548 0.560116 1.85947 0
M  V30 6739 C 644.678 1.39258 3.18158 0
M  V30 6740 C 643.632 2.51662 3.46194 0
M  V30 6741 C 642.958 2.27062 4.84094 0
M  V30 6742 C 644.258 3.93968 3.42909 0
M  V30 6743 H 645.952 2.43114 1.74745 0
M  V30 6744 H 643.498 1.17013 0.839288 0
M  V30 6745 H 645.451 1.42349 3.96629 0
M  V30 6746 H 644.175 0.415542 3.23946 0
M  V30 6747 H 642.834 2.47891 2.70084 0
M  V30 6748 H 642.482 1.27648 4.86534 0
M  V30 6749 H 642.182 3.02398 5.03815 0
M  V30 6750 H 643.706 2.31905 5.64847 0
M  V30 6751 H 645.12 3.99332 4.11347 0
M  V30 6752 H 643.517 4.6917 3.74165 0
M  V30 6753 H 644.587 4.20512 2.41449 0
M  V30 6754 N 645.93 -0.909495 1.28709 0
M  V30 6755 C 647.178 -1.65577 1.15882 0
M  V30 6756 C 647.499 -1.928 -0.292108 0
M  V30 6757 O 646.769 -1.54716 -1.20166 0
M  V30 6758 H 645.349 -0.613714 0.425869 0
M  V30 6759 H 648.011 -1.09108 1.61498 0
M  V30 6760 H 647.107 -2.61634 1.70159 0
M  V30 6761 N 647.408 -1.11026 -1.11852 0
M  V30 6762 C 648.819 -0.873203 -1.65021 0
M  V30 6763 C 649.17 0.595364 -1.86949 0
M  V30 6764 O 648.295 1.45645 -1.60051 0
M  V30 6765 C 648.89 -1.57859 -2.99777 0
M  V30 6766 C 647.449 -1.38807 -3.49871 0
M  V30 6767 C 646.596 -1.62403 -2.24768 0
M  V30 6768 H 649.547 -1.26712 -0.955503 0
M  V30 6769 H 649.568 -1.02111 -3.66543 0
M  V30 6770 H 649.08 -2.6474 -2.83786 0
M  V30 6771 H 647.181 -0.341163 -3.71035 0
M  V30 6772 H 647.294 -2.13421 -4.28938 0
M  V30 6773 H 645.658 -1.04714 -2.32179 0
M  V30 6774 H 646.441 -2.70549 -2.11324 0
M  V30 6775 N 648.886 1.2938 -0.899927 0
M  V30 6776 C 650.132 1.9584 -0.526742 0
M  V30 6777 C 650.465 1.70774 0.924651 0
M  V30 6778 O 649.74 1.02084 1.65557 0
M  V30 6779 C 650.023 3.50638 -0.820062 0
M  V30 6780 C 649.876 3.85161 -2.32317 0
M  V30 6781 C 651.195 4.3903 -0.30671 0
M  V30 6782 H 648.314 0.711322 -0.192848 0
M  V30 6783 H 650.956 1.52992 -1.12665 0
M  V30 6784 H 649.106 3.87265 -0.309491 0
M  V30 6785 H 650.778 3.58477 -2.9033 0
M  V30 6786 H 649.021 3.32696 -2.78381 0
M  V30 6787 H 649.692 4.93204 -2.47898 0
M  V30 6788 H 652.168 4.09396 -0.743908 0
M  V30 6789 H 651.044 5.46226 -0.541144 0
M  V30 6790 H 651.305 4.34937 0.792588 0
M  V30 6791 N 650.364 0.662433 1.43002 0
M  V30 6792 C 651.612 0.179237 2.01304 0
M  V30 6793 C 651.933 -1.21428 1.52579 0
M  V30 6794 O 651.203 -1.81294 0.742252 0
M  V30 6795 H 649.783 0.0632725 0.744316 0
M  V30 6796 H 652.445 0.856169 1.75088 0
M  V30 6797 H 651.541 0.170957 3.11631 0
M  V30 6798 N 651.842 -1.52309 0.404946 0
M  V30 6799 C 653.082 -2.03677 -0.171779 0
M  V30 6800 C 653.446 -1.28419 -1.42733 0
M  V30 6801 O 654.647 -1.69991 -2.08222 0
M  V30 6802 C 652.918 -3.54951 -0.417701 0
M  V30 6803 S 654.477 -4.28114 -0.962472 0
M  V30 6804 H 651.295 -0.709445 -0.0469912 0
M  V30 6805 H 653.897 -1.874 0.556901 0
M  V30 6806 H 652.601 -4.07306 0.50295 0
M  V30 6807 H 652.132 -3.75462 -1.17437 0
M  V30 6808 H 654.147 -4.42589 -2.24342 0
M  V30 6809 N 653.32 -0.135238 -1.57019 0
M  V30 6810 C 654.568 0.51777 -1.95355 0
M  V30 6811 C 654.889 1.6617 -1.02042 0
M  V30 6812 O 654.159 1.95738 -0.0797343 0
M  V30 6813 H 652.739 0.194264 -0.721298 0
M  V30 6814 H 655.401 -0.207983 -1.93787 0
M  V30 6815 H 654.497 0.901675 -2.98791 0
M  V30 6816 N 654.798 1.5699 0.138552 0
M  V30 6817 C 655.761 1.97984 1.15478 0
M  V30 6818 C 656.761 0.867416 1.35398 0
M  V30 6819 O 657.951 1.13387 1.32246 0
M  V30 6820 C 655.083 2.3031 2.51337 0
M  V30 6821 H 656.276 2.88953 0.802896 0
M  V30 6822 H 653.829 1.51555 0.382189 0
M  V30 6823 H 654.564 1.42159 2.91481 0
M  V30 6824 H 654.349 3.11425 2.38237 0
M  V30 6825 H 655.839 2.62834 3.24512 0
M  V30 6826 N 656.276 -0.40816 1.52223 0
M  V30 6827 C 657.206 -1.5042 1.78595 0
M  V30 6828 C 658.187 -1.57723 0.636974 0
M  V30 6829 O 659.372 -1.72982 0.882664 0
M  V30 6830 C 656.502 -2.88232 1.93751 0
M  V30 6831 C 655.456 -2.95779 3.09352 0
M  V30 6832 C 654.782 -4.35855 3.09732 0
M  V30 6833 C 656.082 -2.67175 4.48793 0
M  V30 6834 H 657.776 -1.28601 2.70374 0
M  V30 6835 H 655.322 -0.617221 1.30101 0
M  V30 6836 H 657.275 -3.64895 2.10783 0
M  V30 6837 H 655.999 -3.11347 0.986443 0
M  V30 6838 H 654.658 -2.21561 2.92072 0
M  V30 6839 H 654.306 -4.55981 2.12346 0
M  V30 6840 H 654.006 -4.41829 3.87377 0
M  V30 6841 H 655.53 -5.14451 3.28895 0
M  V30 6842 H 656.944 -3.3356 4.66273 0
M  V30 6843 H 655.341 -2.84523 5.28362 0
M  V30 6844 H 656.411 -1.62609 4.56822 0
M  V30 6845 N 657.755 -1.42862 -0.66545 0
M  V30 6846 C 658.995 -1.45323 -1.43738 0
M  V30 6847 C 659.359 -0.0707969 -1.91869 0
M  V30 6848 O 660.56 0.0298852 -2.68783 0
M  V30 6849 C 658.831 -2.45671 -2.59577 0
M  V30 6850 S 660.39 -2.6691 -3.48288 0
M  V30 6851 H 657.208 -0.51442 -0.490809 0
M  V30 6852 H 659.81 -1.79537 -0.773745 0
M  V30 6853 H 658.514 -3.44869 -2.22471 0
M  V30 6854 H 658.045 -2.12914 -3.30804 0
M  V30 6855 H 660.06 -1.95914 -4.55886 0
M  V30 6856 N 659.233 0.902656 -1.29189 0
M  V30 6857 C 660.163 2.02294 -1.16616 0
M  V30 6858 C 661.144 1.6999 -0.0611175 0
M  V30 6859 O 662.329 1.9271 -0.240072 0
M  V30 6860 C 659.459 3.37018 -0.83882 0
M  V30 6861 C 658.413 3.83522 -1.89986 0
M  V30 6862 C 657.739 5.15337 -1.42589 0
M  V30 6863 C 659.039 4.04169 -3.30824 0
M  V30 6864 H 660.733 2.13071 -2.10336 0
M  V30 6865 H 658.279 1.02378 -1.01266 0
M  V30 6866 H 660.232 4.14895 -0.737584 0
M  V30 6867 H 658.956 3.26325 0.134071 0
M  V30 6868 H 657.615 3.07859 -1.99043 0
M  V30 6869 H 657.263 5.01056 -0.441759 0
M  V30 6870 H 656.963 5.47423 -2.13547 0
M  V30 6871 H 658.487 5.95758 -1.3381 0
M  V30 6872 H 659.901 4.72537 -3.24626 0
M  V30 6873 H 658.298 4.47604 -3.99713 0
M  V30 6874 H 659.368 3.08604 -3.74021 0
M  V30 6875 N 660.711 1.11618 1.11262 0
M  V30 6876 C 661.641 0.79846 2.19424 0
M  V30 6877 C 662.622 -0.234003 1.68483 0
M  V30 6878 O 663.807 -0.0970704 1.93957 0
M  V30 6879 C 660.937 0.242892 3.4645 0
M  V30 6880 C 659.891 1.20744 4.10615 0
M  V30 6881 C 659.217 0.512494 5.32238 0
M  V30 6882 C 660.517 2.55884 4.55325 0
M  V30 6883 H 662.211 1.70286 2.46258 0
M  V30 6884 H 659.757 0.820195 1.18359 0
M  V30 6885 H 661.71 0.00840447 4.21399 0
M  V30 6886 H 660.434 -0.696811 3.1908 0
M  V30 6887 H 659.093 1.42759 3.37662 0
M  V30 6888 H 658.741 -0.432075 5.01141 0
M  V30 6889 H 658.441 1.15583 5.7612 0
M  V30 6890 H 659.965 0.286842 6.09926 0
M  V30 6891 H 661.379 2.37946 5.21588 0
M  V30 6892 H 659.776 3.16216 5.10027 0
M  V30 6893 H 660.846 3.14968 3.68678 0
M  V30 6894 N 662.189 -1.289 0.906776 0
M  V30 6895 C 663.437 -1.94883 0.535266 0
M  V30 6896 C 663.758 -1.71784 -0.922791 0
M  V30 6897 O 663.028 -1.05359 -1.65156 0
M  V30 6898 H 661.608 -0.721109 0.194962 0
M  V30 6899 H 664.27 -1.57018 1.15461 0
M  V30 6900 H 663.366 -3.03591 0.723821 0
M  V30 6901 N 663.667 -0.670007 -1.42649 0
M  V30 6902 C 664.6 0.0613623 -2.28117 0
M  V30 6903 C 665.578 0.813414 -1.40792 0
M  V30 6904 O 666.762 0.809529 -1.70232 0
M  V30 6905 C 663.889 1.09399 -3.20546 0
M  V30 6906 C 662.935 0.438064 -4.24244 0
M  V30 6907 S 663.768 -0.800808 -5.29478 0
M  V30 6908 C 664.924 0.23086 -6.25474 0
M  V30 6909 H 665.157 -0.663606 -2.89799 0
M  V30 6910 H 662.69 -0.45939 -1.47407 0
M  V30 6911 H 664.648 1.68469 -3.74337 0
M  V30 6912 H 663.309 1.79137 -2.58009 0
M  V30 6913 H 662.502 1.21707 -4.89084 0
M  V30 6914 H 662.104 -0.0789346 -3.73917 0
M  V30 6915 H 664.396 1.09204 -6.68641 0
M  V30 6916 H 665.339 -0.382945 -7.07064 0
M  V30 6917 H 665.747 0.574191 -5.61572 0
M  V30 6918 N 665.145 1.52092 -0.413018 0
M  V30 6919 C 666.075 2.30021 0.401567 0
M  V30 6920 C 667.056 1.34395 1.04269 0
M  V30 6921 O 668.241 1.63304 1.05097 0
M  V30 6922 C 665.371 3.12447 1.51638 0
M  V30 6923 C 664.325 4.16153 1.00005 0
M  V30 6924 C 663.651 4.86948 2.20875 0
M  V30 6925 C 664.951 5.22275 0.0513757 0
M  V30 6926 H 666.645 2.98365 -0.248704 0
M  V30 6927 H 664.191 1.4349 -0.121052 0
M  V30 6928 H 666.144 3.65733 2.09326 0
M  V30 6929 H 664.868 2.41879 2.19458 0
M  V30 6930 H 663.527 3.63882 0.445549 0
M  V30 6931 H 663.175 4.12905 2.8726 0
M  V30 6932 H 662.875 5.57057 1.86978 0
M  V30 6933 H 664.399 5.43048 2.79162 0
M  V30 6934 H 665.813 5.70778 0.537176 0
M  V30 6935 H 664.21 5.9977 -0.198977 0
M  V30 6936 H 665.28 4.76611 -0.892736 0
M  V30 6937 N 666.623 0.143563 1.56945 0
M  V30 6938 C 667.553 -0.7936 2.196 0
M  V30 6939 C 668.534 -1.25955 1.14321 0
M  V30 6940 O 669.719 -1.31773 1.42651 0
M  V30 6941 C 666.849 -2.03424 2.81489 0
M  V30 6942 C 665.803 -1.70519 3.92565 0
M  V30 6943 C 665.129 -3.01817 4.41373 0
M  V30 6944 C 666.429 -0.95449 5.13504 0
M  V30 6945 H 668.123 -0.271423 2.98167 0
M  V30 6946 H 665.669 -0.12911 1.4342 0
M  V30 6947 H 667.622 -2.69463 3.23987 0
M  V30 6948 H 666.346 -2.58008 2.00248 0
M  V30 6949 H 665.005 -1.06859 3.5068 0
M  V30 6950 H 664.653 -3.54386 3.56959 0
M  V30 6951 H 664.353 -2.80565 5.16292 0
M  V30 6952 H 665.877 -3.68934 4.86539 0
M  V30 6953 H 667.291 -1.5169 5.52868 0
M  V30 6954 H 665.688 -0.842035 5.94163 0
M  V30 6955 H 666.758 0.0544033 4.84869 0
M  V30 6956 N 668.101 -1.57061 -0.130224 0
M  V30 6957 C 669.341 -1.86071 -0.845993 0
M  V30 6958 C 669.705 -0.73009 -1.77577 0
M  V30 6959 O 670.906 -0.901663 -2.53226 0
M  V30 6960 C 669.177 -3.20293 -1.58579 0
M  V30 6961 S 670.736 -3.70905 -2.34467 0
M  V30 6962 H 667.554 -0.652434 -0.282579 0
M  V30 6963 H 670.156 -1.95218 -0.10498 0
M  V30 6964 H 668.86 -4.00533 -0.894509 0
M  V30 6965 H 668.391 -3.14195 -2.36739 0
M  V30 6966 H 670.406 -3.41509 -3.59981 0
M  V30 6967 N 669.579 0.400081 -1.52437 0
M  V30 6968 C 670.509 1.4947 -1.7939 0
M  V30 6969 C 671.49 1.57383 -0.645329 0
M  V30 6970 O 672.675 1.72511 -0.891826 0
M  V30 6971 C 669.805 2.87201 -1.95276 0
M  V30 6972 C 668.759 2.94134 -3.10917 0
M  V30 6973 C 668.085 4.34207 -3.1204 0
M  V30 6974 C 669.385 2.64791 -4.50203 0
M  V30 6975 H 671.079 1.27165 -2.71052 0
M  V30 6976 H 668.625 0.610312 -1.30427 0
M  V30 6977 H 670.578 3.63772 -2.12715 0
M  V30 6978 H 669.302 3.10819 -1.00294 0
M  V30 6979 H 667.961 2.20009 -2.93243 0
M  V30 6980 H 667.609 4.54848 -2.14761 0
M  V30 6981 H 667.309 4.39768 -3.89715 0
M  V30 6982 H 668.833 5.127 -3.31619 0
M  V30 6983 H 670.247 3.31083 -4.68035 0
M  V30 6984 H 668.644 2.81717 -5.29864 0
M  V30 6985 H 669.714 1.60184 -4.57678 0
M  V30 6986 N 671.057 1.43213 0.657864 0
M  V30 6987 C 672.304 1.44584 1.41781 0
M  V30 6988 C 672.632 0.0684208 1.9438 0
M  V30 6989 O 671.887 -0.925872 1.72413 0
M  V30 6990 C 672.186 2.43143 2.61947 0
M  V30 6991 C 671.852 3.89128 2.27794 0
M  V30 6992 C 670.514 4.28889 2.18191 0
M  V30 6993 C 672.866 4.81144 2.00375 0
M  V30 6994 C 670.194 5.58625 1.79319 0
M  V30 6995 C 672.546 6.11239 1.63003 0
M  V30 6996 C 671.21 6.49981 1.51922 0
M  V30 6997 H 670.48 0.529069 0.518813 0
M  V30 6998 H 673.127 1.76263 0.748577 0
M  V30 6999 H 671.432 2.04851 3.33981 0
M  V30 7000 H 673.129 2.4146 3.20153 0
M  V30 7001 H 669.719 3.57657 2.36176 0
M  V30 7002 H 673.903 4.512 2.06718 0
M  V30 7003 H 669.159 5.87486 1.69323 0
M  V30 7004 H 673.333 6.82014 1.40817 0
M  V30 7005 H 670.96 7.50416 1.21572 0
M  V30 7006 N 672.536 -0.895792 1.29666 0
M  V30 7007 C 673.783 -1.64664 1.17864 0
M  V30 7008 C 674.111 -1.92631 -0.26902 0
M  V30 7009 O 673.366 -1.53787 -1.21029 0
M  V30 7010 C 673.665 -3.00075 1.94139 0
M  V30 7011 C 673.331 -2.91702 3.43833 0
M  V30 7012 C 671.993 -2.89126 3.84656 0
M  V30 7013 C 674.345 -2.80622 4.39205 0
M  V30 7014 C 671.673 -2.73293 5.1916 0
M  V30 7015 C 674.025 -2.66329 5.73805 0
M  V30 7016 C 672.689 -2.62121 6.1388 0
M  V30 7017 H 671.959 -0.602549 0.431295 0
M  V30 7018 H 674.606 -1.04234 1.60648 0
M  V30 7019 H 672.911 -3.64394 1.43958 0
M  V30 7020 H 674.608 -3.57111 1.82408 0
M  V30 7021 H 671.198 -2.94511 3.11386 0
M  V30 7022 H 675.382 -2.81686 4.08615 0
M  V30 7023 H 670.638 -2.68443 5.49316 0
M  V30 7024 H 674.812 -2.56727 6.47352 0
M  V30 7025 H 672.439 -2.49611 7.18052 0
M  V30 7026 N 674.014 -1.12206 -1.10668 0
M  V30 7027 C 675.239 -0.898938 -1.86906 0
M  V30 7028 C 675.664 0.546346 -1.79991 0
M  V30 7029 O 675.022 1.38655 -1.1681 0
M  V30 7030 C 675.07 -1.37529 -3.33344 0
M  V30 7031 O 674.174 -0.55218 -4.08687 0
M  V30 7032 H 673.515 -0.323163 -0.580053 0
M  V30 7033 H 676.045 -1.49355 -1.39837 0
M  V30 7034 H 676.055 -1.3733 -3.84193 0
M  V30 7035 H 674.73 -2.42767 -3.37693 0
M  V30 7036 H 673.307 -0.620947 -3.67694 0
M  V30 7037 N 675.492 1.28418 -0.913599 0
M  V30 7038 C 676.422 2.29713 -0.418847 0
M  V30 7039 C 677.403 1.62165 0.513469 0
M  V30 7040 O 678.588 1.89576 0.421235 0
M  V30 7041 C 675.718 3.45612 0.342042 0
M  V30 7042 C 674.672 4.25056 -0.501123 0
M  V30 7043 C 673.998 5.3329 0.388097 0
M  V30 7044 C 675.298 4.91814 -1.75831 0
M  V30 7045 H 676.992 2.71346 -1.26538 0
M  V30 7046 H 674.538 1.30446 -0.609903 0
M  V30 7047 H 676.491 4.15562 0.699 0
M  V30 7048 H 675.215 3.02858 1.22248 0
M  V30 7049 H 673.874 3.56833 -0.840598 0
M  V30 7050 H 673.522 4.8678 1.26707 0
M  V30 7051 H 673.222 5.87347 -0.172459 0
M  V30 7052 H 674.746 6.06088 0.74094 0
M  V30 7053 H 676.16 5.54126 -1.47026 0
M  V30 7054 H 674.557 5.55866 -2.26126 0
M  V30 7055 H 675.627 4.16313 -2.4862 0
M  V30 7056 N 676.97 0.677563 1.42291 0
M  V30 7057 C 678.381 0.277912 1.8462 0
M  V30 7058 C 678.732 -1.18048 1.56714 0
M  V30 7059 O 677.857 -1.90404 1.02836 0
M  V30 7060 C 678.452 0.497619 3.35126 0
M  V30 7061 C 677.011 0.152063 3.76093 0
M  V30 7062 C 676.158 0.78872 2.65847 0
M  V30 7063 H 679.109 0.879527 1.32098 0
M  V30 7064 H 679.13 -0.24939 3.79682 0
M  V30 7065 H 678.642 1.55913 3.55405 0
M  V30 7066 H 676.743 -0.905896 3.6142 0
M  V30 7067 H 676.856 0.594514 4.75397 0
M  V30 7068 H 675.22 0.219813 2.5375 0
M  V30 7069 H 676.003 1.85374 2.88949 0
M  V30 7070 N 678.448 -1.51871 0.421078 0
M  V30 7071 C 679.378 -2.30231 -0.389363 0
M  V30 7072 C 680.359 -1.34946 -1.03555 0
M  V30 7073 O 681.544 -1.63859 -1.04229 0
M  V30 7074 C 678.674 -3.13247 -1.49979 0
M  V30 7075 C 677.628 -4.16677 -0.977966 0
M  V30 7076 C 676.954 -4.88112 -2.1829 0
M  V30 7077 C 678.254 -5.22295 -0.0236775 0
M  V30 7078 H 679.948 -2.98229 0.264524 0
M  V30 7079 H 677.494 -1.43424 0.12866 0
M  V30 7080 H 679.447 -3.66838 -2.07383 0
M  V30 7081 H 678.171 -2.4304 -2.18173 0
M  V30 7082 H 676.83 -3.64114 -0.426245 0
M  V30 7083 H 676.478 -4.14423 -2.85066 0
M  V30 7084 H 676.178 -5.58041 -1.84021 0
M  V30 7085 H 677.702 -5.44521 -2.76278 0
M  V30 7086 H 679.116 -5.71055 -0.506899 0
M  V30 7087 H 677.513 -5.99656 0.230782 0
M  V30 7088 H 678.583 -4.76131 0.917999 0
M  V30 7089 N 679.926 -0.151884 -1.56866 0
M  V30 7090 C 681.173 0.498004 -1.96281 0
M  V30 7091 C 681.501 1.64551 -1.03698 0
M  V30 7092 O 680.756 1.95585 -0.0671497 0
M  V30 7093 C 681.055 1.04074 -3.41911 0
M  V30 7094 C 680.721 0.0111688 -4.50899 0
M  V30 7095 C 679.383 -0.271844 -4.80432 0
M  V30 7096 C 681.735 -0.68869 -5.1663 0
M  V30 7097 C 679.063 -1.26044 -5.73001 0
M  V30 7098 C 681.415 -1.66613 -6.10264 0
M  V30 7099 C 680.079 -1.9568 -6.38174 0
M  V30 7100 H 679.349 0.182233 -0.718242 0
M  V30 7101 H 681.996 -0.239746 -1.89993 0
M  V30 7102 H 680.301 1.85592 -3.45055 0
M  V30 7103 H 681.998 1.55224 -3.69738 0
M  V30 7104 H 678.588 0.241932 -4.27917 0
M  V30 7105 H 682.772 -0.48324 -4.93942 0
M  V30 7106 H 678.028 -1.49202 -5.92915 0
M  V30 7107 H 682.202 -2.21392 -6.60272 0
M  V30 7108 H 679.829 -2.72434 -7.09707 0
M  V30 7109 N 681.404 1.57128 0.121893 0
M  V30 7110 C 682.651 1.847 0.830188 0
M  V30 7111 C 682.979 0.736543 1.80015 0
M  V30 7112 O 682.234 -0.272358 1.93796 0
M  V30 7113 C 682.533 3.1874 1.61677 0
M  V30 7114 C 682.199 4.43901 0.791361 0
M  V30 7115 C 680.861 4.77887 0.563731 0
M  V30 7116 C 683.213 5.20753 0.215823 0
M  V30 7117 C 680.541 5.86168 -0.249737 0
M  V30 7118 C 682.893 6.29891 -0.584821 0
M  V30 7119 C 681.557 6.6241 -0.822794 0
M  V30 7120 H 680.827 0.675866 0.303787 0
M  V30 7121 H 683.474 1.91276 0.0926894 0
M  V30 7122 H 681.779 3.07728 2.42509 0
M  V30 7123 H 683.476 3.37295 2.16872 0
M  V30 7124 H 680.066 4.17272 0.978867 0
M  V30 7125 H 684.25 4.94851 0.378907 0
M  V30 7126 H 679.506 6.0979 -0.44336 0
M  V30 7127 H 683.68 6.88624 -1.03779 0
M  V30 7128 H 681.307 7.46147 -1.45496 0
M  V30 7129 N 682.882 -0.391992 1.52647 0
M  V30 7130 C 684.131 -1.13449 1.6677 0
M  V30 7131 C 684.444 -1.91203 0.412399 0
M  V30 7132 O 685.65 -2.68013 0.433707 0
M  V30 7133 C 684.106 -2.06577 2.9471 0
M  V30 7134 C 683.714 -1.3426 4.27409 0
M  V30 7135 C 685.458 -2.80981 3.18198 0
M  V30 7136 C 683.365 -2.26136 5.46458 0
M  V30 7137 H 682.295 -0.427211 0.621295 0
M  V30 7138 H 684.946 -0.397522 1.79142 0
M  V30 7139 H 683.328 -2.83898 2.76076 0
M  V30 7140 H 684.502 -0.621856 4.56585 0
M  V30 7141 H 682.817 -0.718279 4.10158 0
M  V30 7142 H 685.414 -3.49898 4.04321 0
M  V30 7143 H 685.757 -3.44891 2.33144 0
M  V30 7144 H 686.29 -2.10754 3.37383 0
M  V30 7145 H 683.029 -1.66846 6.33911 0
M  V30 7146 H 682.549 -2.96134 5.21598 0
M  V30 7147 H 684.228 -2.86286 5.80215 0
M  V30 7148 N 684.36 -1.4356 -0.65026 0
M  V30 7149 C 685.608 -1.45046 -1.40734 0
M  V30 7150 C 685.929 -0.0769822 -1.94848 0
M  V30 7151 O 685.199 0.888098 -1.74613 0
M  V30 7152 H 683.779 -0.534034 -0.522318 0
M  V30 7153 H 686.441 -1.79186 -0.766703 0
M  V30 7154 H 685.537 -2.16476 -2.24822 0
M  V30 7155 N 685.838 0.888903 -1.30139 0
M  V30 7156 C 687.078 1.65456 -1.20015 0
M  V30 7157 C 687.442 1.90467 0.242148 0
M  V30 7158 O 688.643 2.6472 0.466561 0
M  V30 7159 C 686.914 2.96071 -2.00191 0
M  V30 7160 S 688.473 3.87055 -2.06721 0
M  V30 7161 H 685.291 0.567927 -0.427761 0
M  V30 7162 H 687.893 1.05539 -1.64565 0
M  V30 7163 H 686.597 2.7559 -3.04103 0
M  V30 7164 H 686.128 3.61023 -1.56288 0
M  V30 7165 H 688.143 4.81676 -1.19174 0
M  V30 7166 N 687.317 1.12792 1.10072 0
M  V30 7167 C 688.542 0.908838 1.86427 0
M  V30 7168 C 688.967 -0.536793 1.80278 0
M  V30 7169 O 688.325 -1.38033 1.17543 0
M  V30 7170 C 688.373 1.39295 3.3261 0
M  V30 7171 O 687.477 0.573846 4.08388 0
M  V30 7172 H 686.818 0.326234 0.578331 0
M  V30 7173 H 689.348 1.50094 1.39043 0
M  V30 7174 H 689.358 1.39366 3.83459 0
M  V30 7175 H 688.033 2.44555 3.36401 0
M  V30 7176 H 686.61 0.640438 3.67359 0
M  V30 7177 N 688.795 -1.27931 0.920396 0
M  V30 7178 C 690.02 -1.99343 0.572478 0
M  V30 7179 C 690.445 -1.68267 -0.840696 0
M  V30 7180 O 689.803 -0.918805 -1.56294 0
M  V30 7181 C 689.851 -3.51698 0.796284 0
M  V30 7182 O 688.955 -4.12157 -0.141602 0
M  V30 7183 H 688.296 -0.626065 0.221221 0
M  V30 7184 H 690.826 -1.62921 1.23765 0
M  V30 7185 H 690.836 -4.01793 0.708984 0
M  V30 7186 H 689.511 -3.73649 1.82644 0
M  V30 7187 H 688.088 -3.729 -0.005007 0
M  V30 7188 N 690.273 -0.685099 -1.4193 0
M  V30 7189 C 691.223 0.00977295 -2.27998 0
M  V30 7190 C 692.207 0.763315 -1.41641 0
M  V30 7191 O 693.399 0.640532 -1.65004 0
M  V30 7192 C 690.528 0.952972 -3.29808 0
M  V30 7193 C 689.614 0.196231 -4.23646 0
M  V30 7194 N 690.005 -0.804401 -4.99363 0
M  V30 7195 C 688.303 0.433213 -4.43891 0
M  V30 7196 C 689.004 -1.25646 -5.67968 0
M  V30 7197 N 687.98 -0.5844 -5.4045 0
M  V30 7198 H 691.782 -0.757586 -2.83968 0
M  V30 7199 H 689.296 -0.515037 -1.54017 0
M  V30 7200 H 691.293 1.46585 -3.9028 0
M  V30 7201 H 689.953 1.72004 -2.75399 0
M  V30 7202 H 690.964 -1.18429 -5.04177 0
M  V30 7203 H 687.641 1.17899 -4.00507 0
M  V30 7204 H 689.031 -2.08622 -6.38691 0
M  V30 7205 N 691.751 1.51645 -0.429126 0
M  V30 7206 C 692.683 2.25279 0.422124 0
M  V30 7207 C 693.696 1.28986 0.993299 0
M  V30 7208 O 694.885 1.54797 0.888836 0
M  V30 7209 C 691.985 2.98666 1.60162 0
M  V30 7210 C 691.158 4.2199 1.15078 0
M  V30 7211 C 690.217 4.78028 2.19946 0
M  V30 7212 O 689.243 5.40084 1.79716 0
M  V30 7213 N 690.445 4.61342 3.5234 0
M  V30 7214 H 693.21 2.98971 -0.208931 0
M  V30 7215 H 690.771 1.59838 -0.257568 0
M  V30 7216 H 692.763 3.33044 2.29922 0
M  V30 7217 H 691.333 2.28036 2.13818 0
M  V30 7218 H 690.553 3.932 0.280552 0
M  V30 7219 H 691.841 5.02037 0.826831 0
M  V30 7220 H 691.239 4.11894 3.87763 0
M  V30 7221 H 689.796 5.00104 4.18019 0
M  V30 7222 N 693.229 0.160201 1.56784 0
M  V30 7223 C 694.478 -0.487619 1.95717 0
M  V30 7224 C 694.791 -1.65136 1.0483 0
M  V30 7225 O 695.997 -2.36468 1.33398 0
M  V30 7226 C 694.453 -0.91888 3.47972 0
M  V30 7227 C 694.061 0.218655 4.47466 0
M  V30 7228 C 695.805 -1.53575 3.95746 0
M  V30 7229 C 693.712 -0.231614 5.90946 0
M  V30 7230 H 692.642 -0.185939 0.730714 0
M  V30 7231 H 695.293 0.246657 1.81835 0
M  V30 7232 H 693.675 -1.70881 3.57234 0
M  V30 7233 H 694.849 0.995825 4.49911 0
M  V30 7234 H 693.164 0.744767 4.09685 0
M  V30 7235 H 695.761 -1.88448 5.00391 0
M  V30 7236 H 696.104 -2.42959 3.38048 0
M  V30 7237 H 696.637 -0.810467 3.89456 0
M  V30 7238 H 693.376 0.62718 6.52493 0
M  V30 7239 H 692.896 -0.974379 5.91833 0
M  V30 7240 H 694.575 -0.67922 6.43425 0
M  V30 7241 N 694.707 -1.5719 -0.113559 0
M  V30 7242 C 695.67 -1.99796 -1.12314 0
M  V30 7243 C 696.67 -0.888847 -1.34001 0
M  V30 7244 O 697.86 -1.15476 -1.30426 0
M  V30 7245 C 694.992 -2.34279 -2.47641 0
M  V30 7246 H 696.185 -2.90193 -0.756825 0
M  V30 7247 H 693.738 -1.52144 -0.358029 0
M  V30 7248 H 694.473 -1.46778 -2.89183 0
M  V30 7249 H 694.258 -3.15175 -2.33253 0
M  V30 7250 H 695.748 -2.67963 -3.2029 0
M  V30 7251 N 696.185 0.383891 -1.52853 0
M  V30 7252 C 697.433 1.12619 -1.67814 0
M  V30 7253 C 697.754 1.90354 -0.423141 0
M  V30 7254 O 697.024 1.87649 0.562554 0
M  V30 7255 H 695.604 0.418738 -0.618601 0
M  V30 7256 H 698.266 0.43495 -1.89985 0
M  V30 7257 H 697.362 1.82624 -2.5309 0
M  V30 7258 N 697.663 1.43903 0.642637 0
M  V30 7259 C 698.912 1.45362 1.39831 0
M  V30 7260 C 699.225 0.0856289 1.95412 0
M  V30 7261 O 700.431 -0.0222856 2.71491 0
M  V30 7262 C 698.887 2.55857 2.53111 0
M  V30 7263 C 698.495 3.98811 2.04092 0
M  V30 7264 C 700.239 2.66524 3.30402 0
M  V30 7265 C 698.146 5.00751 3.14647 0
M  V30 7266 H 697.076 0.540777 0.52543 0
M  V30 7267 H 699.727 1.69929 0.692559 0
M  V30 7268 H 698.109 2.2451 3.26207 0
M  V30 7269 H 699.283 4.3967 1.37938 0
M  V30 7270 H 697.598 3.92284 1.39651 0
M  V30 7271 H 700.195 3.39858 4.12796 0
M  V30 7272 H 700.538 1.71949 3.79129 0
M  V30 7273 H 701.071 2.97224 2.64392 0
M  V30 7274 H 697.81 5.96914 2.70876 0
M  V30 7275 H 697.33 4.64495 3.79479 0
M  V30 7276 H 699.009 5.23933 3.79609 0
M  V30 7277 N 699.141 -0.881989 1.30609 0
M  V30 7278 C 700.369 -1.66711 1.22536 0
M  V30 7279 C 700.784 -1.87614 -0.2113 0
M  V30 7280 O 700.141 -1.42576 -1.13923 0
M  V30 7281 C 700.192 -3.04182 1.95335 0
M  V30 7282 O 699.913 -2.8422 3.33393 0
M  V30 7283 C 701.414 -3.98617 1.93956 0
M  V30 7284 H 698.634 -0.520124 0.423925 0
M  V30 7285 H 701.178 -1.10174 1.72285 0
M  V30 7286 H 699.333 -3.57442 1.49378 0
M  V30 7287 H 699.747 -3.71452 3.70302 0
M  V30 7288 H 701.221 -4.92433 2.49426 0
M  V30 7289 H 701.698 -4.29473 0.919198 0
M  V30 7290 H 702.304 -3.51292 2.39738 0
M  V30 7291 N 700.619 -1.13374 -1.09472 0
M  V30 7292 C 701.569 -0.77946 -2.14263 0
M  V30 7293 C 702.553 0.226271 -1.59301 0
M  V30 7294 O 703.745 0.0302581 -1.76974 0
M  V30 7295 C 700.874 -0.246635 -3.42413 0
M  V30 7296 C 699.96 -1.28124 -4.04283 0
M  V30 7297 N 700.351 -2.48201 -4.40715 0
M  V30 7298 C 698.649 -1.12892 -4.31476 0
M  V30 7299 C 699.35 -3.14347 -4.8945 0
M  V30 7300 N 698.326 -2.41771 -4.86876 0
M  V30 7301 H 702.128 -1.69305 -2.40235 0
M  V30 7302 H 699.642 -1.01598 -1.26695 0
M  V30 7303 H 701.639 0.0254131 -4.16892 0
M  V30 7304 H 700.299 0.661287 -3.17895 0
M  V30 7305 H 701.31 -2.85511 -4.32093 0
M  V30 7306 H 697.987 -0.279117 -4.16566 0
M  V30 7307 H 699.377 -4.16663 -5.27107 0
M  V30 7308 N 702.098 1.27442 -0.927168 0
M  V30 7309 C 703.03 2.25975 -0.383158 0
M  V30 7310 C 704.043 1.55382 0.485832 0
M  V30 7311 O 705.232 1.75986 0.298541 0
M  V30 7312 C 702.332 3.35629 0.469688 0
M  V30 7313 C 701.505 4.35747 -0.379886 0
M  V30 7314 C 700.564 5.24598 0.410227 0
M  V30 7315 O 699.59 5.68909 -0.181888 0
M  V30 7316 N 700.792 5.54737 1.71017 0
M  V30 7317 H 703.557 2.7329 -1.23015 0
M  V30 7318 H 701.118 1.41063 -0.794539 0
M  V30 7319 H 703.11 3.92015 1.00532 0
M  V30 7320 H 701.68 2.87919 1.21744 0
M  V30 7321 H 700.9 3.78634 -1.09682 0
M  V30 7322 H 702.188 4.99648 -0.960717 0
M  V30 7323 H 701.586 5.20594 2.21356 0
M  V30 7324 H 700.143 6.13824 2.19234 0
M  V30 7325 N 703.576 0.692616 1.41565 0
M  V30 7326 C 704.804 0.231279 2.05603 0
M  V30 7327 C 705.219 -1.11837 1.52111 0
M  V30 7328 O 704.576 -1.6983 0.66813 0
M  V30 7329 C 704.627 0.177125 3.61066 0
M  V30 7330 O 704.348 1.47346 4.12578 0
M  V30 7331 C 705.849 -0.30556 4.42246 0
M  V30 7332 H 703.069 0.108238 0.662213 0
M  V30 7333 H 705.613 0.944369 1.81389 0
M  V30 7334 H 703.768 -0.486769 3.8433 0
M  V30 7335 H 704.182 1.35861 5.06599 0
M  V30 7336 H 705.656 -0.29233 5.51225 0
M  V30 7337 H 706.133 -1.34393 4.18133 0
M  V30 7338 H 706.739 0.327229 4.24039 0
M  V30 7339 N 705.054 -1.51416 0.437162 0
M  V30 7340 C 706.279 -2.0699 -0.130424 0
M  V30 7341 C 706.704 -1.30249 -1.35709 0
M  V30 7342 O 706.062 -0.340388 -1.78076 0
M  V30 7343 C 706.11 -3.5801 -0.43142 0
M  V30 7344 O 705.214 -3.8345 -1.5179 0
M  V30 7345 H 704.555 -0.663997 -0.00194339 0
M  V30 7346 H 707.085 -1.95029 0.618445 0
M  V30 7347 H 707.095 -4.02261 -0.681926 0
M  V30 7348 H 705.77 -4.13291 0.465137 0
M  V30 7349 H 704.347 -3.51062 -1.25737 0
M  V30 7350 N 706.532 -0.168513 -1.56696 0
M  V30 7351 C 707.495 0.748928 -2.16619 0
M  V30 7352 C 708.495 1.16007 -1.11351 0
M  V30 7353 O 709.685 1.07748 -1.3688 0
M  V30 7354 C 706.817 2.01904 -2.74677 0
M  V30 7355 H 708.01 0.227317 -2.99037 0
M  V30 7356 H 705.563 0.0810372 -1.5609 0
M  V30 7357 H 706.298 2.58381 -1.95985 0
M  V30 7358 H 706.083 1.73323 -3.51712 0
M  V30 7359 H 707.573 2.67383 -3.20774 0
M  V30 7360 N 708.01 1.57248 0.105221 0
M  V30 7361 C 708.96 1.9777 1.1345 0
M  V30 7362 C 709.944 0.854654 1.36325 0
M  V30 7363 O 711.136 1.11844 1.37186 0
M  V30 7364 C 708.265 2.39717 2.45745 0
M  V30 7365 C 707.351 3.58686 2.26286 0
M  V30 7366 N 707.742 4.73942 1.76671 0
M  V30 7367 C 706.04 3.64586 2.56891 0
M  V30 7368 C 706.741 5.55923 1.71245 0
M  V30 7369 N 705.717 4.98803 2.16093 0
M  V30 7370 H 709.519 2.84336 0.743664 0
M  V30 7371 H 707.033 1.59359 0.312787 0
M  V30 7372 H 709.03 2.66971 3.20206 0
M  V30 7373 H 707.69 1.54523 2.85574 0
M  V30 7374 H 708.701 4.9689 1.46016 0
M  V30 7375 H 705.378 2.90031 3.00314 0
M  V30 7376 H 706.768 6.58398 1.34022 0
M  V30 7377 N 709.488 -0.375779 1.53054 0
M  V30 7378 C 710.899 -0.95309 1.6054 0
M  V30 7379 C 711.25 -1.90575 0.466446 0
M  V30 7380 O 710.375 -2.12507 -0.408609 0
M  V30 7381 C 710.97 -1.73537 2.90982 0
M  V30 7382 C 709.529 -2.26218 3.00836 0
M  V30 7383 C 708.676 -1.07157 2.55759 0
M  V30 7384 H 711.627 -0.154895 1.57942 0
M  V30 7385 H 711.648 -2.59574 2.78211 0
M  V30 7386 H 711.16 -1.04176 3.73857 0
M  V30 7387 H 709.261 -2.98852 2.22527 0
M  V30 7388 H 709.374 -2.54799 4.05727 0
M  V30 7389 H 707.738 -1.43553 2.10391 0
M  V30 7390 H 708.521 -0.393099 3.41042 0
M  V30 7391 N 710.966 -1.44241 -0.634997 0
M  V30 7392 C 712.214 -1.46531 -1.39187 0
M  V30 7393 C 712.535 -0.0976441 -1.94755 0
M  V30 7394 O 711.805 0.869528 -1.75545 0
M  V30 7395 H 710.385 -0.539544 -0.516625 0
M  V30 7396 H 713.047 -1.79989 -0.747655 0
M  V30 7397 H 712.143 -2.18848 -2.22513 0
M  V30 7398 N 712.444 0.87505 -1.31075 0
M  V30 7399 C 713.374 1.99775 -1.20881 0
M  V30 7400 C 714.355 1.69822 -0.0971612 0
M  V30 7401 O 715.54 1.92158 -0.280895 0
M  V30 7402 C 712.67 3.35163 -0.910118 0
M  V30 7403 C 711.624 3.79406 -1.98078 0
M  V30 7404 C 710.95 5.12197 -1.53488 0
M  V30 7405 C 712.25 3.97061 -3.39323 0
M  V30 7406 H 713.944 2.08562 -2.14808 0
M  V30 7407 H 711.49 1.00207 -1.03415 0
M  V30 7408 H 713.443 4.13237 -0.825423 0
M  V30 7409 H 712.167 3.26536 0.064822 0
M  V30 7410 H 710.826 3.03568 -2.05528 0
M  V30 7411 H 710.474 5.00007 -0.547941 0
M  V30 7412 H 710.174 5.4277 -2.2511 0
M  V30 7413 H 711.698 5.92785 -1.46417 0
M  V30 7414 H 713.112 4.65545 -3.34576 0
M  V30 7415 H 711.509 4.39025 -4.09118 0
M  V30 7416 H 712.579 3.00601 -3.80483 0
M  V30 7417 N 713.922 1.13953 1.08869 0
M  V30 7418 C 714.832 0.835666 2.19212 0
M  V30 7419 C 715.848 -0.182005 1.73045 0
M  V30 7420 O 717.024 -0.0116661 2.01397 0
M  V30 7421 C 714.089 0.312325 3.4529 0
M  V30 7422 C 713.15 1.39196 4.06107 0
M  V30 7423 C 712.383 0.893496 5.26168 0
M  V30 7424 O 712.606 -0.266807 5.69776 0
M  V30 7425 O 711.54 1.67037 5.78258 0
M  V30 7426 H 715.366 1.75769 2.47667 0
M  V30 7427 H 712.951 0.917421 1.17914 0
M  V30 7428 H 714.833 0.0261582 4.21392 0
M  V30 7429 H 713.508 -0.582042 3.18424 0
M  V30 7430 H 712.415 1.73152 3.31616 0
M  V30 7431 H 713.748 2.26068 4.37212 0
M  V30 7432 N 715.4 -1.26948 0.933913 0
M  V30 7433 C 716.33 -2.29017 0.45534 0
M  V30 7434 C 717.311 -1.62961 -0.487605 0
M  V30 7435 O 718.496 -1.90223 -0.391022 0
M  V30 7436 C 715.626 -3.46112 -0.287015 0
M  V30 7437 C 714.58 -4.24205 0.568682 0
M  V30 7438 C 713.906 -5.3384 -0.303206 0
M  V30 7439 C 715.206 -4.88954 1.83633 0
M  V30 7440 H 716.9 -2.69298 1.30839 0
M  V30 7441 H 714.446 -1.29459 0.630579 0
M  V30 7442 H 716.399 -4.16622 -0.6328 0
M  V30 7443 H 715.123 -3.04765 -1.17414 0
M  V30 7444 H 713.782 -3.5545 0.897261 0
M  V30 7445 H 713.43 -4.88734 -1.18947 0
M  V30 7446 H 713.13 -5.86998 0.265879 0
M  V30 7447 H 714.654 -6.0719 -0.644423 0
M  V30 7448 H 716.068 -5.51717 1.55823 0
M  V30 7449 H 714.465 -5.52198 2.34941 0
M  V30 7450 H 715.535 -4.12305 2.55211 0
M  V30 7451 N 716.879 -0.700114 -1.41195 0
M  V30 7452 C 718.104 -0.240704 -2.05998 0
M  V30 7453 C 718.529 1.10313 -1.52357 0
M  V30 7454 O 717.887 1.69154 -0.652424 0
M  V30 7455 C 717.935 -0.213783 -3.59966 0
M  V30 7456 O 717.039 0.809933 -4.04368 0
M  V30 7457 H 716.38 -0.116471 -0.653705 0
M  V30 7458 H 718.91 -0.956251 -1.80878 0
M  V30 7459 H 718.92 -0.0461852 -4.07974 0
M  V30 7460 H 717.595 -1.19454 -3.98376 0
M  V30 7461 H 716.172 0.611319 -3.67855 0
M  V30 7462 N 718.357 1.51182 -0.445186 0
M  V30 7463 C 719.768 1.86693 0.0160999 0
M  V30 7464 C 720.119 1.36183 1.4124 0
M  V30 7465 O 719.244 0.715895 2.04215 0
M  V30 7466 C 719.839 3.38781 0.0359918 0
M  V30 7467 C 718.398 3.73799 0.441715 0
M  V30 7468 C 717.545 2.74947 -0.360511 0
M  V30 7469 H 720.496 1.44294 -0.660674 0
M  V30 7470 H 720.517 3.71026 0.843813 0
M  V30 7471 H 720.029 3.75513 -0.980378 0
M  V30 7472 H 718.13 3.42659 1.4634 0
M  V30 7473 H 718.243 4.78829 0.16106 0
M  V30 7474 H 716.607 2.54047 0.182269 0
M  V30 7475 H 717.39 3.14521 -1.3759 0
M  V30 7476 N 719.835 0.176821 1.56605 0
M  V30 7477 C 721.06 -0.47599 2.01864 0
M  V30 7478 C 721.485 -1.55645 1.05623 0
M  V30 7479 O 720.843 -1.81263 0.0366729 0
M  V30 7480 C 720.891 -1.02619 3.4569 0
M  V30 7481 O 719.995 -2.13996 3.52533 0
M  V30 7482 H 719.336 -0.113363 0.654251 0
M  V30 7483 H 721.866 0.28233 2.02643 0
M  V30 7484 H 721.876 -1.34742 3.85109 0
M  V30 7485 H 720.551 -0.235138 4.15235 0
M  V30 7486 H 719.128 -1.82876 3.24978 0
M  V30 7487 N 721.313 -1.57302 -0.09688 0
M  V30 7488 C 722.553 -1.87823 -0.806334 0
M  V30 7489 C 722.917 -0.767593 -1.75989 0
M  V30 7490 O 724.118 -0.955173 -2.51257 0
M  V30 7491 C 722.389 -3.23585 -1.51749 0
M  V30 7492 S 723.948 -3.75795 -2.26547 0
M  V30 7493 H 720.766 -0.658281 -0.268676 0
M  V30 7494 H 723.368 -1.95397 -0.0635476 0
M  V30 7495 H 722.072 -4.0234 -0.809348 0
M  V30 7496 H 721.603 -3.19145 -2.30021 0
M  V30 7497 H 723.618 -3.49068 -3.52656 0
M  V30 7498 N 722.791 0.367657 -1.53252 0
M  V30 7499 C 723.724 1.47264 -1.74323 0
M  V30 7500 C 724.702 1.51458 -0.591535 0
M  V30 7501 O 725.886 1.69542 -0.823883 0
M  V30 7502 C 723.013 2.85637 -1.82015 0
M  V30 7503 C 722.059 2.99176 -3.03967 0
M  V30 7504 S 722.892 2.68147 -4.63527 0
M  V30 7505 C 724.048 4.08673 -4.74065 0
M  V30 7506 H 724.281 1.29169 -2.67773 0
M  V30 7507 H 721.814 0.561866 -1.43814 0
M  V30 7508 H 723.772 3.65365 -1.87132 0
M  V30 7509 H 722.433 3.01043 -0.896195 0
M  V30 7510 H 721.626 4.00511 -3.05953 0
M  V30 7511 H 721.228 2.27367 -2.96952 0
M  V30 7512 H 723.52 5.02889 -4.53992 0
M  V30 7513 H 724.463 4.11693 -5.7612 0
M  V30 7514 H 724.871 3.95576 -4.02716 0
M  V30 7515 N 724.269 1.44576 0.627338 0
M  V30 7516 C 725.179 1.54232 1.76776 0
M  V30 7517 C 726.195 0.427782 1.6866 0
M  V30 7518 O 727.371 0.685671 1.89369 0
M  V30 7519 C 724.436 1.48738 3.13174 0
M  V30 7520 C 723.497 2.71074 3.32893 0
M  V30 7521 C 722.73 2.65832 4.62784 0
M  V30 7522 O 722.953 1.72048 5.43834 0
M  V30 7523 O 721.887 3.56742 4.84787 0
M  V30 7524 H 725.713 2.50586 1.71582 0
M  V30 7525 H 723.298 1.26865 0.789028 0
M  V30 7526 H 725.18 1.48211 3.94476 0
M  V30 7527 H 723.855 0.555292 3.18902 0
M  V30 7528 H 722.762 2.77168 2.51254 0
M  V30 7529 H 724.095 3.63342 3.32029 0
M  V30 7530 N 725.747 -0.868086 1.31537 0
M  V30 7531 C 726.71 -1.95703 1.19302 0
M  V30 7532 C 727.71 -1.60355 0.119612 0
M  V30 7533 O 728.9 -1.70247 0.36902 0
M  V30 7534 C 726.032 -3.30599 0.831684 0
M  V30 7535 H 727.225 -2.07982 2.16064 0
M  V30 7536 H 724.778 -1.05661 1.15176 0
M  V30 7537 H 725.513 -3.2402 -0.134694 0
M  V30 7538 H 725.298 -3.57629 1.60761 0
M  V30 7539 H 726.788 -4.10439 0.770026 0
M  V30 7540 N 727.225 -1.14528 -1.08264 0
M  V30 7541 C 728.465 -0.924808 -1.82282 0
M  V30 7542 C 728.829 0.538881 -1.84283 0
M  V30 7543 O 730.03 0.877355 -2.54079 0
M  V30 7544 C 728.301 -1.51102 -3.23887 0
M  V30 7545 S 729.86 -1.43232 -4.14765 0
M  V30 7546 H 726.678 -0.333052 -0.62817 0
M  V30 7547 H 729.28 -1.45905 -1.30123 0
M  V30 7548 H 727.984 -2.56942 -3.20014 0
M  V30 7549 H 727.515 -0.975234 -3.8112 0
M  V30 7550 H 729.53 -0.418843 -4.94429 0
M  V30 7551 N 728.703 1.26451 -0.940633 0
M  V30 7552 C 729.928 1.98407 -0.60412 0
M  V30 7553 C 730.353 1.69584 0.81382 0
M  V30 7554 O 729.711 0.943553 1.54812 0
M  V30 7555 C 729.759 3.50387 -0.852136 0
M  V30 7556 O 728.863 4.1233 0.076013 0
M  V30 7557 H 728.204 0.622466 -0.231153 0
M  V30 7558 H 730.734 1.60932 -1.26342 0
M  V30 7559 H 730.744 4.00614 -0.772816 0
M  V30 7560 H 729.419 3.70696 -1.88566 0
M  V30 7561 H 727.996 3.7286 -0.0543187 0
M  V30 7562 N 730.181 0.707592 1.40822 0
M  V30 7563 C 731.421 0.247986 2.0289 0
M  V30 7564 C 731.785 -1.13484 1.54872 0
M  V30 7565 O 732.986 -1.69098 2.08948 0
M  V30 7566 C 731.257 0.316326 3.55997 0
M  V30 7567 S 732.816 -0.0674698 4.38748 0
M  V30 7568 H 729.634 0.09895 0.704081 0
M  V30 7569 H 732.236 0.928039 1.72069 0
M  V30 7570 H 730.94 1.32453 3.88438 0
M  V30 7571 H 730.471 -0.382474 3.91536 0
M  V30 7572 H 732.486 -1.29182 4.79089 0
M  V30 7573 N 731.66 -1.50943 0.453197 0
M  V30 7574 C 733.071 -1.86699 -0.00619892 0
M  V30 7575 C 733.422 -1.3693 -1.40515 0
M  V30 7576 O 732.547 -0.726715 -2.03833 0
M  V30 7577 C 733.142 -3.38795 -0.018025 0
M  V30 7578 C 731.701 -3.74028 -0.421885 0
M  V30 7579 C 730.848 -2.74752 0.375087 0
M  V30 7580 H 733.799 -1.43942 0.668317 0
M  V30 7581 H 733.82 -3.71468 -0.824125 0
M  V30 7582 H 733.332 -3.74988 1.00028 0
M  V30 7583 H 731.433 -3.43431 -1.44521 0
M  V30 7584 H 731.546 -4.78908 -0.135664 0
M  V30 7585 H 729.91 -2.5414 -0.168794 0
M  V30 7586 H 730.693 -3.13787 1.39256 0
M  V30 7587 N 733.138 -0.185124 -1.56509 0
M  V30 7588 C 734.068 0.735098 -2.21627 0
M  V30 7589 C 735.049 1.2288 -1.1762 0
M  V30 7590 O 736.234 1.27945 -1.46095 0
M  V30 7591 C 733.364 1.95889 -2.86783 0
M  V30 7592 C 732.318 1.6005 -3.96948 0
M  V30 7593 C 731.644 2.90009 -4.4922 0
M  V30 7594 C 732.944 0.818008 -5.15855 0
M  V30 7595 H 734.638 0.192274 -2.98782 0
M  V30 7596 H 732.184 0.0910393 -1.43712 0
M  V30 7597 H 734.137 2.60779 -3.31017 0
M  V30 7598 H 732.861 2.52608 -2.07018 0
M  V30 7599 H 731.52 0.975237 -3.5339 0
M  V30 7600 H 731.168 3.44797 -3.6623 0
M  V30 7601 H 730.868 2.66778 -5.23549 0
M  V30 7602 H 732.392 3.55904 -4.9615 0
M  V30 7603 H 733.806 1.36979 -5.56695 0
M  V30 7604 H 732.203 0.684207 -5.96187 0
M  V30 7605 H 733.273 -0.182939 -4.84555 0
M  V30 7606 N 734.616 1.57351 0.0885366 0
M  V30 7607 C 735.893 1.77449 0.822873 0
M  V30 7608 C 736.273 0.768463 1.96616 0
M  V30 7609 O 735.621 -0.201757 2.27608 0
M  V30 7610 C 735.831 3.23425 1.31137 0
M  V30 7611 C 737.179 3.86791 1.75152 0
M  V30 7612 O 738.203 3.27215 1.40745 0
M  V30 7613 O 737.062 4.91568 2.38794 0
M  V30 7614 H 734.156 0.727653 0.393002 0
M  V30 7615 H 736.702 1.69556 0.0699095 0
M  V30 7616 H 735.474 3.88188 0.49254 0
M  V30 7617 H 735.097 3.35977 2.12615 0
M  V30 7618 N 736.094 -0.359525 1.53444 0
M  V30 7619 C 737.342 -1.09935 1.69584 0
M  V30 7620 C 737.663 -1.89656 0.453371 0
M  V30 7621 O 736.933 -1.8852 -0.53263 0
M  V30 7622 H 735.513 -0.408843 0.625185 0
M  V30 7623 H 738.175 -0.40467 1.90653 0
M  V30 7624 H 737.271 -1.78575 2.55964 0
M  V30 7625 N 737.572 -1.44907 -0.619662 0
M  V30 7626 C 738.819 -1.48292 -1.37898 0
M  V30 7627 C 739.147 -0.119933 -1.9413 0
M  V30 7628 O 738.402 0.879834 -1.74807 0
M  V30 7629 C 738.701 -2.50002 -2.55409 0
M  V30 7630 C 738.367 -3.95031 -2.17397 0
M  V30 7631 C 737.029 -4.34524 -2.06743 0
M  V30 7632 C 739.381 -4.86287 -1.87548 0
M  V30 7633 C 736.709 -5.63183 -1.64445 0
M  V30 7634 C 739.061 -6.15346 -1.4674 0
M  V30 7635 C 737.725 -6.53781 -1.34636 0
M  V30 7636 H 736.995 -0.542638 -0.504603 0
M  V30 7637 H 739.642 -1.78186 -0.701581 0
M  V30 7638 H 737.947 -2.13634 -3.28433 0
M  V30 7639 H 739.644 -2.49864 -3.13639 0
M  V30 7640 H 736.234 -3.63793 -2.26611 0
M  V30 7641 H 740.418 -4.56522 -1.94682 0
M  V30 7642 H 735.674 -5.91769 -1.53687 0
M  V30 7643 H 739.848 -6.85508 -1.22685 0
M  V30 7644 H 737.475 -7.53375 -1.01634 0
M  V30 7645 N 739.05 0.861098 -1.31996 0
M  V30 7646 C 739.998 1.99052 -1.20337 0
M  V30 7647 C 740.992 1.69045 -0.109623 0
M  V30 7648 O 742.198 1.77931 -0.272117 0
M  V30 7649 H 738.573 0.653064 -0.372843 0
M  V30 7650 H 740.544 2.06015 -2.15872 0
M  V30 7651 C 739.293 3.34846 -0.936663 0
M  V30 7652 H 738.616 3.58462 -1.77045 0
M  V30 7653 H 740.056 4.1444 -0.895302 0
M  V30 7654 C 738.515 3.34965 0.360607 0
M  V30 7655 O 739.045 3.7745 1.37456 0
M  V30 7656 N 737.251 2.88101 0.380296 0
M  V30 7657 H 736.798 2.53721 -0.445351 0
M  V30 7658 H 736.756 2.88563 1.24816 0
M  V30 7659 N 740.528 1.15101 1.07655 0
M  V30 7660 C 741.939 0.933848 1.61667 0
M  V30 7661 C 742.29 -0.525569 1.8903 0
M  V30 7662 O 741.415 -1.39605 1.65346 0
M  V30 7663 C 742.01 1.68876 2.93711 0
M  V30 7664 C 740.569 1.51697 3.44478 0
M  V30 7665 C 739.716 1.70633 2.18586 0
M  V30 7666 H 742.667 1.30171 0.907816 0
M  V30 7667 H 742.688 1.15645 3.625 0
M  V30 7668 H 742.2 2.7509 2.73764 0
M  V30 7669 H 740.301 0.478635 3.69513 0
M  V30 7670 H 740.414 2.29194 4.20722 0
M  V30 7671 H 738.778 1.13259 2.28132 0
M  V30 7672 H 739.561 2.78206 2.01137 0
M  V30 7673 N 742.006 -1.2595 0.947325 0
M  V30 7674 C 743.252 -1.9375 0.599064 0
M  V30 7675 C 743.585 -1.74088 -0.860632 0
M  V30 7676 O 742.86 -1.08158 -1.61654 0
M  V30 7677 C 743.143 -3.47353 0.949634 0
M  V30 7678 C 742.996 -3.76273 2.46452 0
M  V30 7679 C 744.315 -4.37589 0.469442 0
M  V30 7680 H 741.434 -0.703674 0.219115 0
M  V30 7681 H 744.076 -1.48705 1.18266 0
M  V30 7682 H 742.226 -3.8585 0.453008 0
M  V30 7683 H 743.898 -3.47455 3.03435 0
M  V30 7684 H 742.141 -3.22135 2.90537 0
M  V30 7685 H 742.812 -4.83664 2.66032 0
M  V30 7686 H 745.288 -4.06353 0.89534 0
M  V30 7687 H 744.164 -5.43841 0.7435 0
M  V30 7688 H 744.425 -4.37579 -0.630618 0
M  V30 7689 N 743.484 -0.715051 -1.40445 0
M  V30 7690 C 744.724 -0.258742 -2.02756 0
M  V30 7691 C 745.088 1.12661 -1.55472 0
M  V30 7692 O 746.289 1.67988 -2.09842 0
M  V30 7693 C 744.56 -0.335201 -3.55825 0
M  V30 7694 S 746.119 0.044201 -4.38778 0
M  V30 7695 H 742.937 -0.102683 -0.703546 0
M  V30 7696 H 745.539 -0.937151 -1.71574 0
M  V30 7697 H 744.243 -1.34511 -3.87731 0
M  V30 7698 H 743.774 0.361705 -3.91734 0
M  V30 7699 H 745.789 1.26639 -4.79768 0
M  V30 7700 N 744.962 1.50701 -0.461195 0
M  V30 7701 C 746.239 1.94958 0.158296 0
M  V30 7702 C 746.619 1.40111 1.57899 0
M  V30 7703 O 745.967 0.597976 2.20537 0
M  V30 7704 C 746.177 3.48821 0.11172 0
M  V30 7705 C 747.525 4.23499 0.30552 0
M  V30 7706 O 748.549 3.557 0.188758 0
M  V30 7707 O 747.408 5.43823 0.540244 0
M  V30 7708 H 744.502 0.818674 0.117054 0
M  V30 7709 H 747.048 1.61508 -0.520888 0
M  V30 7710 H 745.82 3.81263 -0.880577 0
M  V30 7711 H 745.443 3.88781 0.832791 0
M  V30 7712 N 746.441 0.193421 1.56409 0
M  V30 7713 C 747.852 -0.319471 1.83946 0
M  V30 7714 C 748.203 -1.61505 1.11403 0
M  V30 7715 O 747.328 -2.13139 0.374289 0
M  V30 7716 C 747.923 -0.586411 3.33686 0
M  V30 7717 C 746.482 -1.04368 3.61641 0
M  V30 7718 C 745.629 -0.0913834 2.77149 0
M  V30 7719 H 748.58 0.417242 1.53117 0
M  V30 7720 H 748.601 -1.43591 3.52366 0
M  V30 7721 H 748.113 0.356701 3.86457 0
M  V30 7722 H 746.214 -2.00113 3.14302 0
M  V30 7723 H 746.327 -0.937549 4.69837 0
M  V30 7724 H 744.691 -0.592954 2.47702 0
M  V30 7725 H 745.474 0.846142 3.32709 0
M  V30 7726 N 747.919 -1.57396 -0.0801906 0
M  V30 7727 C 749.144 -1.91437 -0.797909 0
M  V30 7728 C 749.569 -0.789075 -1.70749 0
M  V30 7729 O 748.927 0.25857 -1.79447 0
M  V30 7730 C 748.975 -3.24402 -1.57467 0
M  V30 7731 O 748.079 -3.13043 -2.68473 0
M  V30 7732 H 747.42 -0.627109 -0.218243 0
M  V30 7733 H 749.95 -2.04537 -0.050949 0
M  V30 7734 H 749.96 -3.58072 -1.95571 0
M  V30 7735 H 748.635 -4.05884 -0.907229 0
M  V30 7736 H 747.212 -2.90915 -2.33287 0
M  V30 7737 N 749.397 0.351382 -1.53633 0
M  V30 7738 C 750.625 1.11275 -1.74429 0
M  V30 7739 C 751.04 1.82602 -0.479798 0
M  V30 7740 O 750.397 1.74074 0.548125 0
M  V30 7741 C 750.448 2.13223 -2.91921 0
M  V30 7742 O 750.169 1.44798 -4.13479 0
M  V30 7743 C 751.67 3.01797 -3.24706 0
M  V30 7744 H 748.89 0.332153 -0.583023 0
M  V30 7745 H 751.434 0.405974 -2.0043 0
M  V30 7746 H 749.589 2.79477 -2.68274 0
M  V30 7747 H 750.003 2.12839 -4.79374 0
M  V30 7748 H 751.477 3.69282 -4.10286 0
M  V30 7749 H 751.954 3.67387 -2.40673 0
M  V30 7750 H 752.56 2.41141 -3.5033 0
M  V30 7751 N 750.875 1.45233 0.611969 0
M  V30 7752 C 752.291 1.29542 0.932251 0
M  V30 7753 C 752.491 0.24523 2.00002 0
M  V30 7754 O 751.547 -0.362333 2.49887 0
M  V30 7755 C 752.86 2.67301 1.37733 0
M  V30 7756 C 754.408 2.75163 1.49178 0
M  V30 7757 C 754.883 4.13437 1.97064 0
M  V30 7758 N 756.374 4.15709 2.04304 0
M  V30 7759 C 757.109 5.19566 2.42568 0
M  V30 7760 N 756.605 6.33771 2.79832 0
M  V30 7761 N 758.398 5.06923 2.42869 0
M  V30 7762 H 750.549 2.12192 -0.0938679 0
M  V30 7763 H 752.812 0.947775 0.0206569 0
M  V30 7764 H 752.518 3.45318 0.666951 0
M  V30 7765 H 752.392 2.95472 2.3447 0
M  V30 7766 H 754.779 1.97453 2.19309 0
M  V30 7767 H 754.86 2.50712 0.507674 0
M  V30 7768 H 754.504 4.91631 1.27521 0
M  V30 7769 H 754.434 4.35277 2.9638 0
M  V30 7770 H 756.925 3.33293 1.78113 0
M  V30 7771 H 757.238 7.08815 3.07898 0
M  V30 7772 H 755.583 6.37179 2.77538 0
M  V30 7773 H 758.774 4.1675 2.1316 0
M  V30 7774 H 758.947 5.87981 2.72364 0
M  V30 7775 N 752.353 -0.854086 1.3245 0
M  V30 7776 C 753.599 -1.61069 1.23225 0
M  V30 7777 C 753.932 -1.93111 -0.205349 0
M  V30 7778 O 753.207 -1.57397 -1.14265 0
M  V30 7779 C 753.49 -2.93065 2.09249 0
M  V30 7780 C 753.343 -2.67801 3.6139 0
M  V30 7781 C 754.662 -3.94341 1.95406 0
M  V30 7782 H 751.781 -0.584449 0.448986 0
M  V30 7783 H 754.423 -0.986189 1.62402 0
M  V30 7784 H 752.573 -3.46364 1.75967 0
M  V30 7785 H 754.245 -2.21052 4.04887 0
M  V30 7786 H 752.488 -2.01756 3.84027 0
M  V30 7787 H 753.159 -3.6179 4.16907 0
M  V30 7788 H 755.635 -3.50301 2.24562 0
M  V30 7789 H 754.511 -4.84555 2.57872 0
M  V30 7790 H 754.772 -4.32382 0.921865 0
M  V30 7791 N 753.831 -1.1567 -1.07043 0
M  V30 7792 C 754.741 -0.870435 -2.17855 0
M  V30 7793 C 755.757 0.154452 -1.73313 0
M  V30 7794 O 756.933 -0.0203759 -2.0139 0
M  V30 7795 C 753.998 -0.367219 -3.4475 0
M  V30 7796 C 753.059 -1.45639 -4.03841 0
M  V30 7797 C 752.292 -0.977092 -5.2468 0
M  V30 7798 O 752.515 0.176127 -5.70128 0
M  V30 7799 O 751.449 -1.76215 -5.75527 0
M  V30 7800 H 755.275 -1.79687 -2.44839 0
M  V30 7801 H 752.86 -0.936064 -1.1644 0
M  V30 7802 H 754.742 -0.0931947 -4.21297 0
M  V30 7803 H 753.417 0.53131 -3.1931 0
M  V30 7804 H 752.324 -1.78406 -3.28819 0
M  V30 7805 H 753.657 -2.32995 -4.3356 0
M  V30 7806 N 755.309 1.25446 -0.953992 0
M  V30 7807 C 756.539 1.96929 -0.624688 0
M  V30 7808 C 756.947 1.71112 0.807292 0
M  V30 7809 O 756.29 0.983512 1.55154 0
M  V30 7810 C 756.352 3.50425 -0.802676 0
M  V30 7811 C 756.016 3.99916 -2.21169 0
M  V30 7812 C 757.013 4.10662 -3.18831 0
M  V30 7813 C 754.698 4.33598 -2.53571 0
M  V30 7814 C 756.692 4.54401 -4.46988 0
M  V30 7815 C 754.379 4.77024 -3.81958 0
M  V30 7816 C 755.377 4.87388 -4.78478 0
M  V30 7817 O 755.065 5.29851 -6.04577 0
M  V30 7818 H 754.797 0.634511 -0.233179 0
M  V30 7819 H 757.351 1.60591 -1.28061 0
M  V30 7820 H 755.581 3.86596 -0.0896044 0
M  V30 7821 H 757.27 4.03117 -0.47452 0
M  V30 7822 H 758.036 3.84872 -2.95124 0
M  V30 7823 H 753.915 4.24757 -1.79171 0
M  V30 7824 H 757.459 4.62406 -5.22328 0
M  V30 7825 H 753.356 5.02258 -4.05471 0
M  V30 7826 H 754.124 5.48039 -6.07944 0
M  V30 7827 N 756.787 0.722489 1.40064 0
M  V30 7828 C 758.036 0.261932 1.99992 0
M  V30 7829 C 758.349 -1.15358 1.57961 0
M  V30 7830 O 759.555 -1.71301 2.10637 0
M  V30 7831 C 758.011 0.41737 3.57472 0
M  V30 7832 C 757.619 1.83997 4.08472 0
M  V30 7833 C 759.363 0.0179561 4.24496 0
M  V30 7834 C 757.27 1.94563 5.5848 0
M  V30 7835 H 756.2 0.0941768 0.748095 0
M  V30 7836 H 758.851 0.894572 1.60218 0
M  V30 7837 H 757.233 -0.283965 3.94981 0
M  V30 7838 H 758.407 2.57224 3.82325 0
M  V30 7839 H 756.722 2.19147 3.54067 0
M  V30 7840 H 759.319 0.076085 5.34646 0
M  V30 7841 H 759.662 -1.02498 4.03485 0
M  V30 7842 H 760.195 0.669988 3.92117 0
M  V30 7843 H 756.934 2.97001 5.84355 0
M  V30 7844 H 756.454 1.25756 5.86469 0
M  V30 7845 H 758.133 1.72095 6.23692 0
M  V30 7846 N 758.265 -1.50454 0.469181 0
M  V30 7847 C 759.493 -2.06729 -0.0842134 0
M  V30 7848 C 759.908 -1.33326 -1.33677 0
M  V30 7849 O 759.265 -0.401977 -1.78018 0
M  V30 7850 C 759.316 -3.59557 -0.374253 0
M  V30 7851 O 759.037 -4.30192 0.828622 0
M  V30 7852 C 760.538 -4.32449 -0.974824 0
M  V30 7853 H 757.758 -0.670971 0.006231 0
M  V30 7854 H 760.302 -1.93645 0.657415 0
M  V30 7855 H 758.457 -3.7245 -1.06581 0
M  V30 7856 H 758.871 -5.21371 0.572066 0
M  V30 7857 H 760.345 -5.40361 -1.12755 0
M  V30 7858 H 760.822 -3.92819 -1.96442 0
M  V30 7859 H 761.428 -4.24082 -0.321703 0
M  V30 7860 N 759.743 -0.201713 -1.56304 0
M  V30 7861 C 761.154 0.309711 -1.84113 0
M  V30 7862 C 761.505 1.60912 -1.12258 0
M  V30 7863 O 760.63 2.12937 -0.385587 0
M  V30 7864 C 761.225 0.568706 -3.33993 0
M  V30 7865 C 759.784 1.02448 -3.6219 0
M  V30 7866 C 758.931 0.0766842 -2.77194 0
M  V30 7867 H 761.882 -0.425356 -1.52893 0
M  V30 7868 H 761.903 1.41721 -3.53122 0
M  V30 7869 H 761.415 -0.37719 -3.86263 0
M  V30 7870 H 759.516 1.98443 -3.15359 0
M  V30 7871 H 759.629 0.912619 -4.70328 0
M  V30 7872 H 757.993 0.579809 -2.48013 0
M  V30 7873 H 758.776 -0.863774 -3.32256 0
M  V30 7874 N 761.222 1.57436 0.0718424 0
M  V30 7875 C 762.462 1.89082 0.776351 0
M  V30 7876 C 762.826 0.795494 1.74745 0
M  V30 7877 O 764.027 0.995025 2.49705 0
M  V30 7878 C 762.298 3.25958 1.46582 0
M  V30 7879 S 763.857 3.79352 2.2054 0
M  V30 7880 H 760.675 0.662472 0.25817 0
M  V30 7881 H 763.277 1.95473 0.0324536 0
M  V30 7882 H 761.981 4.03577 0.745237 0
M  V30 7883 H 761.512 3.22764 2.24915 0
M  V30 7884 H 763.527 3.54634 3.47058 0
M  V30 7885 N 762.7 -0.34323 1.53817 0
M  V30 7886 C 763.65 -1.42217 1.78208 0
M  V30 7887 C 764.634 -1.4774 0.637304 0
M  V30 7888 O 765.826 -1.52605 0.896705 0
M  V30 7889 C 762.955 -2.79354 1.9954 0
M  V30 7890 C 762.041 -2.78222 3.20084 0
M  V30 7891 N 762.432 -2.46719 4.41547 0
M  V30 7892 C 760.73 -3.09368 3.21259 0
M  V30 7893 C 761.431 -2.53828 5.23399 0
M  V30 7894 N 760.407 -2.89464 4.60121 0
M  V30 7895 H 764.209 -1.16759 2.69712 0
M  V30 7896 H 761.723 -0.551592 1.52746 0
M  V30 7897 H 763.72 -3.57095 2.15148 0
M  V30 7898 H 762.38 -3.05759 1.09278 0
M  V30 7899 H 763.391 -2.19912 4.68891 0
M  V30 7900 H 760.068 -3.40942 2.40966 0
M  V30 7901 H 761.458 -2.32629 6.30344 0
M  V30 7902 N 764.178 -1.45556 -0.604258 0
M  V30 7903 C 765.141 -1.54091 -1.69672 0
M  V30 7904 C 766.141 -0.420076 -1.55216 0
M  V30 7905 O 767.331 -0.683671 -1.60224 0
M  V30 7906 C 764.463 -1.44063 -3.08964 0
M  V30 7907 H 765.656 -2.51431 -1.6347 0
M  V30 7908 H 763.209 -1.33046 -0.820273 0
M  V30 7909 H 763.944 -0.479201 -3.2074 0
M  V30 7910 H 763.729 -2.25362 -3.20865 0
M  V30 7911 H 765.219 -1.53075 -3.88533 0
M  V30 7912 N 765.656 0.84705 -1.32902 0
M  V30 7913 C 766.904 1.5986 -1.2365 0
M  V30 7914 C 767.225 1.93974 0.199789 0
M  V30 7915 O 766.495 1.60273 1.12648 0
M  V30 7916 H 765.075 0.592696 -0.454665 0
M  V30 7917 H 767.737 1.01278 -1.66519 0
M  V30 7918 H 766.833 2.53218 -1.82448 0
M  V30 7919 N 767.134 1.16236 1.06428 0
M  V30 7920 C 768.374 0.95369 1.80787 0
M  V30 7921 C 768.738 -0.509495 1.85117 0
M  V30 7922 O 769.939 -0.836822 2.55442 0
M  V30 7923 C 768.21 1.56235 3.21443 0
M  V30 7924 S 769.769 1.49812 4.12434 0
M  V30 7925 H 766.587 0.343004 0.622792 0
M  V30 7926 H 769.189 1.47957 1.27785 0
M  V30 7927 H 767.893 2.62 3.15886 0
M  V30 7928 H 767.424 1.03574 3.79521 0
M  V30 7929 H 769.439 0.49745 4.937 0
M  V30 7930 N 768.612 -1.24939 0.960631 0
M  V30 7931 C 769.837 -1.9742 0.635608 0
M  V30 7932 C 770.262 -1.70857 -0.786737 0
M  V30 7933 O 769.62 -0.968063 -1.53291 0
M  V30 7934 C 769.668 -3.48987 0.907771 0
M  V30 7935 O 768.772 -4.12399 -0.0104053 0
M  V30 7936 H 768.113 -0.61871 0.241027 0
M  V30 7937 H 770.643 -1.58901 1.28886 0
M  V30 7938 H 770.653 -3.99334 0.836453 0
M  V30 7939 H 769.328 -3.6765 1.94439 0
M  V30 7940 H 767.905 -3.72727 0.113631 0
M  V30 7941 N 770.09 -0.729906 -1.39679 0
M  V30 7942 C 771.315 -0.284345 -2.05442 0
M  V30 7943 C 771.74 1.07056 -1.54663 0
M  V30 7944 O 771.098 1.67732 -0.688157 0
M  V30 7945 C 771.146 -0.290089 -3.59431 0
M  V30 7946 O 770.25 0.723978 -4.05995 0
M  V30 7947 H 769.591 -0.130311 -0.651088 0
M  V30 7948 H 772.121 -0.994403 -1.78809 0
M  V30 7949 H 772.131 -0.132712 -4.07784 0
M  V30 7950 H 770.806 -1.27877 -3.95753 0
M  V30 7951 H 769.383 0.533154 -3.69069 0
M  V30 7952 N 771.568 1.50203 -0.477153 0
M  V30 7953 C 772.814 2.03286 0.0679442 0
M  V30 7954 C 773.169 1.35227 1.36863 0
M  V30 7955 O 772.462 0.471029 1.8572 0
M  V30 7956 C 772.656 3.56127 0.301325 0
M  V30 7957 C 772.485 4.38999 -0.975188 0
M  V30 7958 C 771.255 4.81889 -1.52022 0
M  V30 7959 C 773.453 4.79013 -1.8722 0
M  V30 7960 N 771.435 5.49105 -2.74513 0
M  V30 7961 C 772.806 5.45701 -2.94296 0
M  V30 7962 C 774.861 4.60967 -1.88185 0
M  V30 7963 C 773.564 5.96255 -4.02333 0
M  V30 7964 C 775.59 5.12466 -2.95183 0
M  V30 7965 C 774.952 5.79134 -4.00977 0
M  V30 7966 H 771.051 0.78185 -0.015318 0
M  V30 7967 H 773.635 1.83646 -0.64671 0
M  V30 7968 H 771.806 3.75702 0.985021 0
M  V30 7969 H 773.538 3.95859 0.841304 0
M  V30 7970 H 770.293 4.61387 -1.06858 0
M  V30 7971 H 770.717 5.87315 -3.36734 0
M  V30 7972 H 775.359 4.0885 -1.07708 0
M  V30 7973 H 773.077 6.47406 -4.83623 0
M  V30 7974 H 776.663 5.00329 -2.96921 0
M  V30 7975 H 775.543 6.18265 -4.82409 0
M  V30 7976 N 773.046 0.209999 1.56195 0
M  V30 7977 C 774.292 -0.425442 1.98287 0
M  V30 7978 C 774.625 -1.60232 1.09724 0
M  V30 7979 O 773.9 -1.93902 0.152414 0
M  V30 7980 C 774.183 -0.871189 3.49403 0
M  V30 7981 C 774.036 0.308527 4.48741 0
M  V30 7982 C 775.355 -1.73146 4.04609 0
M  V30 7983 H 772.474 -0.153169 0.720908 0
M  V30 7984 H 775.116 0.303916 1.87554 0
M  V30 7985 H 773.266 -1.49266 3.58681 0
M  V30 7986 H 774.938 0.946487 4.51486 0
M  V30 7987 H 773.181 0.957878 4.23092 0
M  V30 7988 H 773.852 -0.0461143 5.51981 0
M  V30 7989 H 776.328 -1.2072 3.98203 0
M  V30 7990 H 775.204 -2.01228 5.10684 0
M  V30 7991 H 775.465 -2.69083 3.5078 0
M  V30 7992 N 774.524 -1.57472 -0.0634922 0
M  V30 7993 C 775.77 -1.87932 -0.762194 0
M  V30 7994 C 776.103 -0.803377 -1.76804 0
M  V30 7995 O 775.378 0.185468 -1.93614 0
M  V30 7996 C 775.661 -3.29053 -1.46275 0
M  V30 7997 C 775.514 -4.47309 -0.472755 0
M  V30 7998 C 776.833 -3.68537 -2.40558 0
M  V30 7999 H 773.952 -0.683521 -0.275624 0
M  V30 8000 H 776.594 -1.89983 -0.0252651 0
M  V30 8001 H 774.744 -3.27435 -2.0909 0
M  V30 8002 H 776.416 -4.61053 0.150828 0
M  V30 8003 H 774.659 -4.33286 0.211187 0
M  V30 8004 H 775.33 -5.42853 -1.00072 0
M  V30 8005 H 777.806 -3.71302 -1.87814 0
M  V30 8006 H 776.682 -4.68152 -2.86574 0
M  V30 8007 H 776.943 -2.98917 -3.25731 0
M  V30 8008 N 776.003 0.335068 -1.53997 0
M  V30 8009 C 776.935 1.4327 -1.78903 0
M  V30 8010 C 777.948 1.48347 -0.670598 0
M  V30 8011 O 779.137 1.51277 -0.947494 0
M  V30 8012 C 776.237 2.81878 -1.88144 0
M  V30 8013 C 775.41 3.00141 -3.18174 0
M  V30 8014 C 774.469 4.19041 -3.18263 0
M  V30 8015 O 773.495 4.12751 -3.9195 0
M  V30 8016 N 774.697 5.28004 -2.41231 0
M  V30 8017 H 777.462 1.22272 -2.73623 0
M  V30 8018 H 775.023 0.524996 -1.53152 0
M  V30 8019 H 777.015 3.59609 -1.85644 0
M  V30 8020 H 775.585 2.9598 -1.00572 0
M  V30 8021 H 774.805 2.09808 -3.33728 0
M  V30 8022 H 776.093 3.0923 -4.04047 0
M  V30 8023 H 775.491 5.35986 -1.8093 0
M  V30 8024 H 774.048 6.04196 -2.44521 0
M  V30 8025 N 777.481 1.45874 0.596531 0
M  V30 8026 C 778.758 1.40942 1.35627 0
M  V30 8027 C 779.138 0.0857066 2.10926 0
M  V30 8028 O 778.486 -0.932544 2.08605 0
M  V30 8029 C 778.696 2.63027 2.29386 0
M  V30 8030 C 780.044 3.08588 2.91649 0
M  V30 8031 O 781.068 2.63478 2.39704 0
M  V30 8032 O 779.927 3.86902 3.85965 0
M  V30 8033 H 777.021 0.559838 0.608696 0
M  V30 8034 H 779.567 1.5802 0.618698 0
M  V30 8035 H 778.339 3.5094 1.7308 0
M  V30 8036 H 777.962 2.48338 3.10506 0
M  V30 8037 N 778.959 -0.83999 1.33349 0
M  V30 8038 C 779.922 -1.93128 1.23426 0
M  V30 8039 C 780.922 -1.60065 0.153599 0
M  V30 8040 O 782.112 -1.69425 0.405049 0
M  V30 8041 C 779.244 -3.28761 0.901622 0
M  V30 8042 H 780.437 -2.03352 2.20427 0
M  V30 8043 H 777.99 -1.03194 1.17391 0
M  V30 8044 H 778.725 -3.24233 -0.0659337 0
M  V30 8045 H 778.51 -3.54138 1.68311 0
M  V30 8046 H 780 -4.08714 0.856913 0
M  V30 8047 N 780.437 -1.16799 -1.0581 0
M  V30 8048 C 781.367 -0.902241 -2.15364 0
M  V30 8049 C 782.348 0.153351 -1.69407 0
M  V30 8050 O 783.533 0.00442032 -1.94199 0
M  V30 8051 C 780.663 -0.407911 -3.44896 0
M  V30 8052 C 779.617 -1.40197 -4.04387 0
M  V30 8053 C 778.943 -0.765848 -5.29187 0
M  V30 8054 C 780.243 -2.77316 -4.42598 0
M  V30 8055 H 781.937 -1.81841 -2.37853 0
M  V30 8056 H 779.483 -0.875731 -1.14311 0
M  V30 8057 H 781.436 -0.20945 -4.20879 0
M  V30 8058 H 780.16 0.54378 -3.22041 0
M  V30 8059 H 778.819 -1.58707 -3.30466 0
M  V30 8060 H 778.467 0.192482 -5.02632 0
M  V30 8061 H 778.167 -1.42939 -5.69949 0
M  V30 8062 H 779.691 -0.577519 -6.07863 0
M  V30 8063 H 781.105 -2.62561 -5.09642 0
M  V30 8064 H 779.502 -3.4019 -4.94359 0
M  V30 8065 H 780.572 -3.32199 -3.53231 0
M  V30 8066 N 781.915 1.24427 -0.967243 0
M  V30 8067 C 783.192 1.87831 -0.545776 0
M  V30 8068 C 783.572 1.87126 0.977099 0
M  V30 8069 O 782.92 1.34357 1.84826 0
M  V30 8070 C 783.13 3.29967 -1.13679 0
M  V30 8071 C 784.478 4.06654 -1.22139 0
M  V30 8072 O 785.502 3.39136 -1.08926 0
M  V30 8073 O 784.361 5.27455 -1.43017 0
M  V30 8074 H 781.455 0.806745 -0.181912 0
M  V30 8075 H 784.001 1.32403 -1.06148 0
M  V30 8076 H 782.773 3.24977 -2.17958 0
M  V30 8077 H 782.396 3.92969 -0.605093 0
M  V30 8078 N 783.393 0.737304 1.3929 0
M  V30 8079 C 784.341 0.0879867 2.32434 0
M  V30 8080 C 785.335 -0.723324 1.53181 0
M  V30 8081 O 786.541 -0.624251 1.68829 0
M  V30 8082 H 782.916 0.00965277 0.751938 0
M  V30 8083 H 784.887 0.889915 2.84821 0
M  V30 8084 C 783.636 -0.803384 3.38291 0
M  V30 8085 H 782.959 -0.18849 3.99355 0
M  V30 8086 H 784.399 -1.22528 4.0591 0
M  V30 8087 C 782.858 -1.93872 2.75527 0
M  V30 8088 O 783.388 -3.03154 2.63553 0
M  V30 8089 N 781.594 -1.72883 2.3358 0
M  V30 8090 H 781.141 -0.840005 2.43519 0
M  V30 8091 H 781.099 -2.49021 1.91927 0
M  V30 8092 N 784.871 -1.49948 0.485112 0
M  V30 8093 C 786.096 -2.073 -0.0645059 0
M  V30 8094 C 786.521 -1.345 -1.31497 0
M  V30 8095 O 785.879 -0.39687 -1.76903 0
M  V30 8096 C 785.927 -3.59201 -0.317304 0
M  V30 8097 O 785.031 -3.88085 -1.39514 0
M  V30 8098 H 784.372 -0.663723 0.0191822 0
M  V30 8099 H 786.902 -1.92963 0.680179 0
M  V30 8100 H 786.912 -4.04227 -0.553604 0
M  V30 8101 H 785.587 -4.11602 0.596387 0
M  V30 8102 H 784.164 -3.54885 -1.14504 0
M  V30 8103 N 786.349 -0.21828 -1.56081 0
M  V30 8104 C 787.281 0.725447 -2.17416 0
M  V30 8105 C 788.294 1.15995 -1.14233 0
M  V30 8106 O 789.483 1.09166 -1.41227 0
M  V30 8107 C 786.583 1.99401 -2.7403 0
M  V30 8108 C 785.756 1.7156 -4.02351 0
M  V30 8109 C 784.815 2.8309 -4.43561 0
M  V30 8110 O 783.841 2.51701 -5.10525 0
M  V30 8111 N 785.043 4.11972 -4.08973 0
M  V30 8112 H 787.808 0.200801 -2.99027 0
M  V30 8113 H 785.369 -0.0371514 -1.61857 0
M  V30 8114 H 787.361 2.73198 -2.98571 0
M  V30 8115 H 785.931 2.42923 -1.96742 0
M  V30 8116 H 785.151 0.814233 -3.85699 0
M  V30 8117 H 786.439 1.50385 -4.86068 0
M  V30 8118 H 785.837 4.40319 -3.55156 0
M  V30 8119 H 784.394 4.82323 -4.38415 0
M  V30 8120 N 787.827 1.57504 0.0551401 0
M  V30 8121 C 789.073 1.88334 0.752216 0
M  V30 8122 C 789.406 0.812742 1.76375 0
M  V30 8123 O 788.681 -0.175198 1.93709 0
M  V30 8124 C 788.964 3.29824 1.44528 0
M  V30 8125 C 788.817 4.47553 0.449026 0
M  V30 8126 C 790.136 3.69808 2.38601 0
M  V30 8127 H 787.255 0.684973 0.271995 0
M  V30 8128 H 789.897 1.89994 0.0151895 0
M  V30 8129 H 788.047 3.28539 2.07351 0
M  V30 8130 H 789.719 4.60967 -0.175277 0
M  V30 8131 H 787.962 4.33168 -0.234162 0
M  V30 8132 H 788.633 5.43376 0.971917 0
M  V30 8133 H 791.109 3.72293 1.85842 0
M  V30 8134 H 789.985 4.69665 2.84088 0
M  V30 8135 H 790.246 3.00641 3.24141 0
M  V30 8136 N 789.305 -0.326896 1.54172 0
M  V30 8137 C 790.552 -1.06523 1.72218 0
M  V30 8138 C 790.88 -1.88119 0.494114 0
M  V30 8139 O 790.135 -1.8855 -0.524147 0
M  V30 8140 C 790.434 -2.0208 2.94785 0
M  V30 8141 C 790.1 -1.36665 4.2969 0
M  V30 8142 C 788.762 -1.18556 4.66367 0
M  V30 8143 C 791.114 -0.896868 5.13425 0
M  V30 8144 C 788.442 -0.521113 5.84381 0
M  V30 8145 C 790.794 -0.246261 6.3212 0
M  V30 8146 C 789.458 -0.052987 6.67479 0
M  V30 8147 H 788.728 -0.389796 0.63019 0
M  V30 8148 H 791.375 -0.342725 1.88408 0
M  V30 8149 H 789.68 -2.8077 2.73268 0
M  V30 8150 H 791.377 -2.59231 3.05941 0
M  V30 8151 H 787.967 -1.51762 4.00832 0
M  V30 8152 H 792.151 -1.02458 4.85609 0
M  V30 8153 H 787.407 -0.36014 6.10338 0
M  V30 8154 H 791.581 0.125775 6.96286 0
M  V30 8155 H 789.208 0.463903 7.58783 0
M  V30 8156 N 790.784 -1.46188 -0.588786 0
M  V30 8157 C 792.014 -1.54519 -1.3714 0
M  V30 8158 C 792.422 -0.183075 -1.88312 0
M  V30 8159 O 791.765 0.828815 -1.6394 0
M  V30 8160 C 791.827 -2.48426 -2.59856 0
M  V30 8161 C 791.491 -3.94791 -2.30193 0
M  V30 8162 C 792.488 -4.84173 -1.894 0
M  V30 8163 C 790.173 -4.39872 -2.42525 0
M  V30 8164 C 792.167 -6.16647 -1.61325 0
M  V30 8165 C 789.854 -5.72381 -2.14063 0
M  V30 8166 C 790.852 -6.60589 -1.73527 0
M  V30 8167 O 790.54 -7.9064 -1.4541 0
M  V30 8168 H 790.272 -0.525264 -0.425527 0
M  V30 8169 H 792.826 -1.92242 -0.723344 0
M  V30 8170 H 791.056 -2.05709 -3.27446 0
M  V30 8171 H 792.745 -2.4723 -3.21919 0
M  V30 8172 H 793.511 -4.50603 -1.79393 0
M  V30 8173 H 789.39 -3.71444 -2.7304 0
M  V30 8174 H 792.934 -6.85454 -1.29611 0
M  V30 8175 H 788.831 -6.05501 -2.23693 0
M  V30 8176 H 789.599 -8.02847 -1.59306 0
M  V30 8177 N 792.262 0.832906 -1.33792 0
M  V30 8178 C 793.49 1.62048 -1.28639 0
M  V30 8179 C 793.905 1.88269 0.141522 0
M  V30 8180 O 793.262 1.46706 1.08553 0
M  V30 8181 C 793.313 2.96722 -2.0649 0
M  V30 8182 O 793.034 2.7165 -3.43712 0
M  V30 8183 C 794.535 3.91144 -2.08617 0
M  V30 8184 H 791.755 0.504032 -0.442937 0
M  V30 8185 H 794.299 1.03704 -1.76255 0
M  V30 8186 H 792.454 3.51652 -1.62541 0
M  V30 8187 H 792.868 3.57453 -3.83833 0
M  V30 8188 H 794.342 4.82837 -2.67531 0
M  V30 8189 H 794.819 4.25766 -1.07796 0
M  V30 8190 H 795.425 3.42152 -2.52611 0
M  V30 8191 N 793.74 1.17359 1.05189 0
M  V30 8192 C 794.688 0.886527 2.15043 0
M  V30 8193 C 795.682 -0.148834 1.68745 0
M  V30 8194 O 796.888 -0.00175123 1.8 0
M  V30 8195 H 793.263 0.269147 0.702185 0
M  V30 8196 H 795.234 1.82016 2.36459 0
M  V30 8197 C 793.983 0.416333 3.45198 0
M  V30 8198 H 793.306 1.20449 3.81225 0
M  V30 8199 H 794.746 0.254362 4.23236 0
M  V30 8200 C 793.205 -0.866016 3.25579 0
M  V30 8201 O 793.735 -1.9328 3.52144 0
M  V30 8202 N 791.941 -0.814179 2.78961 0
M  V30 8203 H 791.488 0.0541618 2.57543 0
M  V30 8204 H 791.446 -1.67264 2.66214 0
M  V30 8205 N 795.218 -1.23913 0.973828 0
M  V30 8206 C 796.458 -1.93889 0.647015 0
M  V30 8207 C 796.822 -1.74368 -0.803735 0
M  V30 8208 O 798.023 -2.38435 -1.24106 0
M  V30 8209 C 796.294 -3.4257 1.01885 0
M  V30 8210 S 797.853 -4.31306 0.807517 0
M  V30 8211 H 794.671 -0.670279 0.237165 0
M  V30 8212 H 797.273 -1.50144 1.25208 0
M  V30 8213 H 795.977 -3.54286 2.07146 0
M  V30 8214 H 795.508 -3.91312 0.404812 0
M  V30 8215 H 797.523 -4.95218 -0.311986 0
M  V30 8216 N 796.696 -0.74468 -1.38897 0
M  V30 8217 C 797.921 -0.306119 -2.05128 0
M  V30 8218 C 798.346 1.0541 -1.55789 0
M  V30 8219 O 797.704 1.66993 -0.705909 0
M  V30 8220 C 797.752 -0.328195 -3.59103 0
M  V30 8221 O 796.856 0.680876 -4.06741 0
M  V30 8222 H 796.197 -0.137209 -0.649669 0
M  V30 8223 H 798.727 -1.01331 -1.77745 0
M  V30 8224 H 798.737 -0.175956 -4.0762 0
M  V30 8225 H 797.412 -1.32067 -3.94374 0
M  V30 8226 H 795.989 0.49398 -3.69614 0
M  V30 8227 N 798.174 1.49689 -0.493057 0
M  V30 8228 C 799.414 2.04332 0.0527374 0
M  V30 8229 C 799.778 1.36522 1.35003 0
M  V30 8230 O 800.979 1.81842 1.97957 0
M  V30 8231 C 799.25 3.56782 0.210044 0
M  V30 8232 S 800.809 4.32998 0.711232 0
M  V30 8233 H 797.627 0.710978 0.00554853 0
M  V30 8234 H 800.229 1.83835 -0.665213 0
M  V30 8235 H 798.933 4.03681 -0.739566 0
M  V30 8236 H 798.464 3.81671 0.953468 0
M  V30 8237 H 800.479 4.54916 1.98156 0
M  V30 8238 N 799.652 0.226554 1.55963 0
M  V30 8239 C 800.898 -0.404387 1.98727 0
M  V30 8240 C 801.231 -1.59059 1.11418 0
M  V30 8241 O 800.506 -1.93729 0.172971 0
M  V30 8242 C 800.789 -0.834081 3.50307 0
M  V30 8243 C 800.642 0.356104 4.48388 0
M  V30 8244 C 801.961 -1.68845 4.06423 0
M  V30 8245 H 799.08 -0.145515 0.722492 0
M  V30 8246 H 801.722 0.323791 1.87221 0
M  V30 8247 H 799.872 -1.45454 3.60244 0
M  V30 8248 H 801.544 0.99432 4.50456 0
M  V30 8249 H 799.787 1.0027 4.22053 0
M  V30 8250 H 800.458 0.0124333 5.51999 0
M  V30 8251 H 802.934 -1.16489 3.99461 0
M  V30 8252 H 801.81 -1.958 5.1279 0
M  V30 8253 H 802.071 -2.65347 3.53615 0
M  V30 8254 N 801.13 -1.57531 -0.0467866 0
M  V30 8255 C 802.376 -1.8873 -0.742218 0
M  V30 8256 C 802.709 -0.822084 -1.75941 0
M  V30 8257 O 801.984 0.164922 -1.938 0
M  V30 8258 C 802.267 -3.30586 -1.42776 0
M  V30 8259 C 802.12 -4.47785 -0.425285 0
M  V30 8260 C 803.439 -3.71068 -2.36636 0
M  V30 8261 H 800.558 -0.686406 -0.268359 0
M  V30 8262 H 803.2 -1.89999 -0.00511341 0
M  V30 8263 H 801.35 -3.29634 -2.05605 0
M  V30 8264 H 803.022 -4.60867 0.199721 0
M  V30 8265 H 801.265 -4.33037 0.25713 0
M  V30 8266 H 801.936 -5.43884 -0.943086 0
M  V30 8267 H 804.412 -3.73273 -1.83866 0
M  V30 8268 H 803.288 -4.71165 -2.81593 0
M  V30 8269 H 803.549 -3.02355 -3.22542 0
M  V30 8270 N 802.608 0.318715 -1.54344 0
M  V30 8271 C 803.518 1.41535 -1.87097 0
M  V30 8272 C 804.534 1.56361 -0.763353 0
M  V30 8273 O 805.71 1.71365 -1.05811 0
M  V30 8274 C 802.775 2.76178 -2.09587 0
M  V30 8275 C 801.836 2.70486 -3.3337 0
M  V30 8276 C 801.069 3.98708 -3.54778 0
M  V30 8277 O 801.292 4.9721 -2.79532 0
M  V30 8278 O 800.226 4.01674 -4.48266 0
M  V30 8279 H 804.052 1.16764 -2.80357 0
M  V30 8280 H 801.637 0.51318 -1.4031 0
M  V30 8281 H 803.519 3.55873 -2.25682 0
M  V30 8282 H 802.194 3.00829 -1.19514 0
M  V30 8283 H 801.101 1.89325 -3.22656 0
M  V30 8284 H 802.434 2.50789 -4.23516 0
M  V30 8285 N 804.086 1.46499 0.581025 0
M  V30 8286 C 805.334 1.51596 1.33653 0
M  V30 8287 C 805.655 0.169859 1.94259 0
M  V30 8288 O 804.925 -0.803776 1.78651 0
M  V30 8289 H 803.505 0.558346 0.496244 0
M  V30 8290 H 806.167 1.8264 0.680338 0
M  V30 8291 H 805.263 2.26956 2.14237 0
M  V30 8292 N 805.565 -0.825799 1.34232 0
M  V30 8293 C 806.513 -1.95792 1.25572 0
M  V30 8294 C 807.507 -1.68695 0.154404 0
M  V30 8295 O 808.713 -1.77147 0.319196 0
M  V30 8296 H 805.088 -0.642949 0.390027 0
M  V30 8297 H 807.059 -2.00219 2.21258 0
M  V30 8298 C 805.808 -3.32245 1.02511 0
M  V30 8299 H 805.131 -3.53642 1.86487 0
M  V30 8300 H 806.571 -4.1192 1.00487 0
M  V30 8301 C 805.03 -3.35803 -0.27167 0
M  V30 8302 O 805.56 -3.80962 -1.274 0
M  V30 8303 N 803.766 -2.89008 -0.303778 0
M  V30 8304 H 803.313 -2.52451 0.512464 0
M  V30 8305 H 803.271 -2.9177 -1.17121 0
M  V30 8306 N 807.043 -1.17915 -1.04565 0
M  V30 8307 C 808.454 -0.976383 -1.59134 0
M  V30 8308 C 808.805 0.475267 -1.90357 0
M  V30 8309 O 807.93 1.35172 -1.6899 0
M  V30 8310 C 808.525 -1.76604 -2.89131 0
M  V30 8311 C 807.084 -1.60777 -3.40335 0
M  V30 8312 C 806.231 -1.76369 -2.13985 0
M  V30 8313 H 809.182 -1.32532 -0.872985 0
M  V30 8314 H 809.203 -1.25215 -3.59307 0
M  V30 8315 H 808.715 -2.82252 -2.66375 0
M  V30 8316 H 806.816 -0.576436 -3.68114 0
M  V30 8317 H 806.929 -2.40268 -4.14497 0
M  V30 8318 H 805.293 -1.19268 -2.25049 0
M  V30 8319 H 806.076 -2.83441 -1.9369 0
M  V30 8320 N 808.521 1.23394 -0.980386 0
M  V30 8321 C 809.767 1.92094 -0.650223 0
M  V30 8322 C 810.1 1.76309 0.814173 0
M  V30 8323 O 809.375 1.12406 1.5873 0
M  V30 8324 C 809.658 3.44713 -1.04139 0
M  V30 8325 C 809.511 3.69606 -2.56342 0
M  V30 8326 C 810.83 4.36191 -0.585296 0
M  V30 8327 H 807.949 0.697618 -0.237695 0
M  V30 8328 H 810.591 1.45517 -1.22167 0
M  V30 8329 H 808.741 3.84513 -0.55515 0
M  V30 8330 H 810.413 3.39288 -3.1254 0
M  V30 8331 H 808.656 3.14318 -2.98976 0
M  V30 8332 H 809.327 4.76441 -2.78762 0
M  V30 8333 H 811.803 4.03836 -1.00276 0
M  V30 8334 H 810.679 5.41679 -0.887428 0
M  V30 8335 H 810.94 4.39097 0.51438 0
M  V30 8336 N 809.999 0.752036 1.385 0
M  V30 8337 C 810.929 0.138718 2.33088 0
M  V30 8338 C 811.91 -0.705318 1.54788 0
M  V30 8339 O 813.095 -0.646821 1.83112 0
M  V30 8340 C 810.225 -0.75641 3.38963 0
M  V30 8341 C 809.179 -0.0152239 4.27997 0
M  V30 8342 C 808.505 -1.0285 5.24715 0
M  V30 8343 C 809.805 1.15226 5.09431 0
M  V30 8344 H 811.499 0.928852 2.84627 0
M  V30 8345 H 809.045 0.448111 1.3685 0
M  V30 8346 H 810.998 -1.19513 4.04097 0
M  V30 8347 H 809.722 -1.57885 2.85902 0
M  V30 8348 H 808.381 0.404061 3.64366 0
M  V30 8349 H 808.029 -1.84496 4.67943 0
M  V30 8350 H 807.729 -0.537238 5.85139 0
M  V30 8351 H 809.253 -1.46657 5.92726 0
M  V30 8352 H 810.667 0.791161 5.67815 0
M  V30 8353 H 809.064 1.57428 5.79082 0
M  V30 8354 H 810.134 1.9659 4.43261 0
M  V30 8355 N 811.477 -1.49425 0.500989 0
M  V30 8356 C 812.44 -2.27646 -0.266416 0
M  V30 8357 C 813.44 -1.3366 -0.893961 0
M  V30 8358 O 814.63 -1.5682 -0.758495 0
M  V30 8359 C 811.762 -3.11618 -1.38227 0
M  V30 8360 H 812.955 -2.96945 0.419973 0
M  V30 8361 H 810.508 -1.5419 0.255954 0
M  V30 8362 H 811.243 -2.46885 -2.10281 0
M  V30 8363 H 811.028 -3.80721 -0.937746 0
M  V30 8364 H 812.518 -3.70698 -1.92283 0
M  V30 8365 N 812.955 -0.234822 -1.55841 0
M  V30 8366 C 814.203 0.392483 -1.98252 0
M  V30 8367 C 814.524 1.59344 -1.12404 0
M  V30 8368 O 813.794 1.94834 -0.204055 0
M  V30 8369 H 812.374 0.147999 -0.732192 0
M  V30 8370 H 815.036 -0.330804 -1.92072 0
M  V30 8371 H 814.132 0.709829 -3.03921 0
M  V30 8372 N 814.433 1.57553 0.0384317 0
M  V30 8373 C 815.658 1.93485 0.746872 0
M  V30 8374 C 816.083 0.834069 1.68597 0
M  V30 8375 O 815.441 -0.210902 1.80069 0
M  V30 8376 C 815.489 3.28463 1.4881 0
M  V30 8377 O 814.593 3.20051 2.60079 0
M  V30 8378 H 813.934 0.632675 0.201539 0
M  V30 8379 H 816.464 2.046 -0.00329815 0
M  V30 8380 H 816.474 3.63132 1.86009 0
M  V30 8381 H 815.149 4.08147 0.799297 0
M  V30 8382 H 813.726 2.96998 2.25492 0
M  V30 8383 N 815.911 -0.310526 1.54511 0
M  V30 8384 C 817.151 -1.05498 1.7507 0
M  V30 8385 C 817.515 -1.84814 0.520381 0
M  V30 8386 O 818.716 -2.61937 0.603547 0
M  V30 8387 C 816.987 -1.94466 2.99863 0
M  V30 8388 S 818.546 -2.75686 3.41383 0
M  V30 8389 H 815.364 -0.355951 0.615483 0
M  V30 8390 H 817.966 -0.329464 1.92704 0
M  V30 8391 H 816.67 -1.35055 3.87541 0
M  V30 8392 H 816.201 -2.71401 2.84789 0
M  V30 8393 H 818.216 -3.96971 2.97706 0
M  V30 8394 N 817.389 -1.46805 -0.573248 0
M  V30 8395 C 818.666 -1.43082 -1.33368 0
M  V30 8396 C 819.046 -0.119252 -2.10763 0
M  V30 8397 O 818.394 0.899239 -2.10062 0
M  V30 8398 C 818.604 -2.66643 -2.25172 0
M  V30 8399 C 819.952 -3.13188 -2.86702 0
M  V30 8400 O 820.976 -2.67258 -2.35482 0
M  V30 8401 O 819.835 -3.92994 -3.79761 0
M  V30 8402 H 816.929 -0.569451 -0.599712 0
M  V30 8403 H 819.475 -1.58984 -0.59348 0
M  V30 8404 H 818.247 -3.53649 -1.67475 0
M  V30 8405 H 817.87 -2.53247 -3.06516 0
M  V30 8406 N 818.867 0.818669 -1.34668 0
M  V30 8407 C 820.092 1.61193 -1.30505 0
M  V30 8408 C 820.517 1.87734 0.117341 0
M  V30 8409 O 819.875 1.45591 1.08042 0
M  V30 8410 C 819.923 2.92733 -2.1057 0
M  V30 8411 O 819.027 3.85 -1.47813 0
M  V30 8412 H 818.368 0.490085 -0.44801 0
M  V30 8413 H 820.898 1.01701 -1.77534 0
M  V30 8414 H 820.908 3.42262 -2.22082 0
M  V30 8415 H 819.583 2.7274 -3.13984 0
M  V30 8416 H 818.16 3.43525 -1.45069 0
M  V30 8417 N 820.346 1.18468 1.03938 0
M  V30 8418 C 821.574 1.00576 1.80809 0
M  V30 8419 C 821.989 -0.445786 1.83462 0
M  V30 8420 O 821.346 -1.30964 1.27101 0
M  V30 8421 C 821.397 1.55491 3.26351 0
M  V30 8422 O 821.118 2.94963 3.23926 0
M  V30 8423 C 822.619 1.42236 4.19862 0
M  V30 8424 H 819.839 0.35508 0.56935 0
M  V30 8425 H 822.383 1.57046 1.30984 0
M  V30 8426 H 820.538 1.03195 3.73403 0
M  V30 8427 H 820.952 3.20598 4.15111 0
M  V30 8428 H 822.426 1.85455 5.19914 0
M  V30 8429 H 822.903 0.371267 4.37628 0
M  V30 8430 H 823.509 1.9361 3.78675 0
M  V30 8431 N 821.824 -1.22873 0.986916 0
M  V30 8432 C 823.064 -1.93192 0.667543 0
M  V30 8433 C 823.428 -1.7521 -0.785196 0
M  V30 8434 O 824.629 -2.39737 -1.2157 0
M  V30 8435 C 822.9 -3.4147 1.05513 0
M  V30 8436 S 824.459 -4.30425 0.853218 0
M  V30 8437 H 821.277 -0.667726 0.244261 0
M  V30 8438 H 823.879 -1.48808 1.26793 0
M  V30 8439 H 822.583 -3.52069 2.10892 0
M  V30 8440 H 822.114 -3.9086 0.446293 0
M  V30 8441 H 824.129 -4.95521 -0.259444 0
M  V30 8442 N 823.302 -0.75937 -1.38099 0
M  V30 8443 C 824.527 -0.327859 -2.04792 0
M  V30 8444 C 824.952 1.03752 -1.56899 0
M  V30 8445 O 824.31 1.66235 -0.723581 0
M  V30 8446 C 824.358 -0.366264 -3.58735 0
M  V30 8447 O 823.462 0.637697 -4.0744 0
M  V30 8448 H 822.803 -0.144092 -0.648177 0
M  V30 8449 H 825.333 -1.03211 -1.7666 0
M  V30 8450 H 825.343 -0.219179 -4.07411 0
M  V30 8451 H 824.018 -1.36243 -3.92951 0
M  V30 8452 H 822.595 0.454749 -3.70117 0
M  V30 8453 N 824.78 1.49157 -0.508906 0
M  V30 8454 C 825.73 2.26215 0.284705 0
M  V30 8455 C 826.714 1.31401 0.928586 0
M  V30 8456 O 827.906 1.56073 0.834877 0
M  V30 8457 C 825.035 3.15906 1.34382 0
M  V30 8458 C 824.121 4.18186 0.705785 0
M  V30 8459 N 824.512 5.05419 -0.196214 0
M  V30 8460 C 822.81 4.35425 0.965457 0
M  V30 8461 C 823.511 5.78977 -0.562222 0
M  V30 8462 N 822.487 5.43553 0.0717389 0
M  V30 8463 H 826.289 2.91033 -0.409543 0
M  V30 8464 H 823.803 1.59104 -0.325508 0
M  V30 8465 H 825.8 3.6975 1.92589 0
M  V30 8466 H 824.46 2.52642 2.03966 0
M  V30 8467 H 825.471 5.14781 -0.567526 0
M  V30 8468 H 822.148 3.83363 1.65346 0
M  V30 8469 H 823.538 6.59192 -1.30062 0
M  V30 8470 N 826.258 0.243083 1.55714 0
M  V30 8471 C 827.188 -0.652336 2.24203 0
M  V30 8472 C 828.169 -1.1843 1.221 0
M  V30 8473 O 829.354 -1.22435 1.50743 0
M  V30 8474 C 826.484 -1.85111 2.93856 0
M  V30 8475 C 825.438 -1.45208 4.02615 0
M  V30 8476 C 824.764 -2.73137 4.59674 0
M  V30 8477 C 826.064 -0.625988 5.18535 0
M  V30 8478 H 827.758 -0.0812504 2.9929 0
M  V30 8479 H 825.304 -0.0376388 1.43951 0
M  V30 8480 H 827.257 -2.48314 3.40468 0
M  V30 8481 H 825.981 -2.44751 2.16251 0
M  V30 8482 H 824.64 -0.843406 3.56766 0
M  V30 8483 H 824.288 -3.30967 3.78774 0
M  V30 8484 H 823.988 -2.47163 5.33089 0
M  V30 8485 H 825.512 -3.37245 5.09017 0
M  V30 8486 H 826.926 -1.16223 5.61396 0
M  V30 8487 H 825.323 -0.462465 5.98315 0
M  V30 8488 H 826.393 0.362652 4.83542 0
M  V30 8489 N 827.736 -1.57571 -0.0300757 0
M  V30 8490 C 828.982 -1.89506 -0.722159 0
M  V30 8491 C 829.315 -0.840699 -1.7506 0
M  V30 8492 O 828.59 0.144358 -1.93964 0
M  V30 8493 C 828.873 -3.32081 -1.39262 0
M  V30 8494 C 828.726 -4.48211 -0.377768 0
M  V30 8495 C 830.045 -3.73557 -2.32687 0
M  V30 8496 H 827.164 -0.689213 -0.261064 0
M  V30 8497 H 829.806 -1.89994 0.0150388 0
M  V30 8498 H 827.956 -3.31796 -2.02098 0
M  V30 8499 H 829.628 -4.6063 0.248591 0
M  V30 8500 H 827.871 -4.3274 0.303045 0
M  V30 8501 H 828.542 -5.44854 -0.885347 0
M  V30 8502 H 831.018 -3.75202 -1.79896 0
M  V30 8503 H 829.894 -4.74125 -2.7658 0
M  V30 8504 H 830.155 -3.05759 -3.19317 0
M  V30 8505 N 829.214 0.302327 -1.54673 0
M  V30 8506 C 830.46 1.03924 -1.74149 0
M  V30 8507 C 830.793 1.86968 -0.525041 0
M  V30 8508 O 830.068 1.88538 0.477868 0
M  V30 8509 C 830.351 1.94633 -3.02969 0
M  V30 8510 C 830.204 1.14778 -4.34909 0
M  V30 8511 C 831.523 2.93826 -3.27649 0
M  V30 8512 H 828.642 0.376405 -0.633631 0
M  V30 8513 H 831.284 0.314007 -1.87387 0
M  V30 8514 H 829.434 2.56471 -2.91813 0
M  V30 8515 H 831.106 0.552363 -4.57981 0
M  V30 8516 H 829.349 0.450462 -4.31455 0
M  V30 8517 H 830.02 1.81495 -5.21309 0
M  V30 8518 H 832.496 2.42117 -3.38406 0
M  V30 8519 H 831.372 3.54462 -4.19104 0
M  V30 8520 H 831.633 3.67416 -2.45882 0
M  V30 8521 N 830.692 1.47107 0.565454 0
M  V30 8522 C 832.103 1.47266 1.1476 0
M  V30 8523 C 832.454 0.222841 1.9493 0
M  V30 8524 O 831.579 -0.672862 2.05673 0
M  V30 8525 C 832.174 2.66822 2.08785 0
M  V30 8526 C 830.733 2.69967 2.62288 0
M  V30 8527 C 829.88 2.40236 1.38499 0
M  V30 8528 H 832.831 1.54736 0.352479 0
M  V30 8529 H 832.852 2.43323 2.92531 0
M  V30 8530 H 832.364 3.5777 1.50408 0
M  V30 8531 H 830.465 1.83137 3.24487 0
M  V30 8532 H 830.578 3.70426 3.03845 0
M  V30 8533 H 828.942 1.90648 1.68895 0
M  V30 8534 H 829.725 3.33381 0.819274 0
M  V30 8535 N 832.17 -0.811516 1.35101 0
M  V30 8536 C 833.417 -1.56835 1.28098 0
M  V30 8537 C 833.745 -1.93951 -0.14597 0
M  V30 8538 O 833 -1.61173 -1.11004 0
M  V30 8539 C 833.299 -2.87121 2.1283 0
M  V30 8540 C 832.965 -2.69245 3.61688 0
M  V30 8541 C 831.627 -2.64078 4.02264 0
M  V30 8542 C 833.979 -2.52122 4.56162 0
M  V30 8543 C 831.307 -2.39724 5.3549 0
M  V30 8544 C 833.659 -2.29298 5.89581 0
M  V30 8545 C 832.323 -2.2255 6.29307 0
M  V30 8546 H 831.593 -0.5739 0.468742 0
M  V30 8547 H 834.24 -0.93806 1.66951 0
M  V30 8548 H 832.545 -3.54502 1.66841 0
M  V30 8549 H 834.242 -3.44788 2.0475 0
M  V30 8550 H 830.832 -2.74112 3.29485 0
M  V30 8551 H 835.016 -2.5513 4.25702 0
M  V30 8552 H 830.272 -2.32965 5.65276 0
M  V30 8553 H 834.446 -2.15038 6.62368 0
M  V30 8554 H 832.073 -2.0344 7.32473 0
M  V30 8555 N 833.648 -1.19017 -1.03309 0
M  V30 8556 C 834.578 -0.94772 -2.13402 0
M  V30 8557 C 835.559 0.117383 -1.69694 0
M  V30 8558 O 836.744 -0.0367733 -1.94165 0
M  V30 8559 C 833.874 -0.480977 -3.43953 0
M  V30 8560 C 832.828 -1.48743 -4.01322 0
M  V30 8561 C 832.154 -0.877924 -5.27443 0
M  V30 8562 C 833.454 -2.86642 -4.36616 0
M  V30 8563 H 835.148 -1.86846 -2.33942 0
M  V30 8564 H 832.694 -0.899781 -1.12427 0
M  V30 8565 H 834.647 -0.298677 -4.2034 0
M  V30 8566 H 833.371 0.475348 -3.23122 0
M  V30 8567 H 832.03 -1.65681 -3.27025 0
M  V30 8568 H 831.678 0.0858232 -5.02927 0
M  V30 8569 H 831.378 -1.54996 -5.66789 0
M  V30 8570 H 832.902 -0.706326 -6.06501 0
M  V30 8571 H 834.316 -2.73312 -5.03958 0
M  V30 8572 H 832.713 -3.50599 -4.87032 0
M  V30 8573 H 833.783 -3.39617 -3.46105 0
M  V30 8574 N 835.127 1.22348 -0.993418 0
M  V30 8575 C 836.057 2.26584 -0.564088 0
M  V30 8576 C 837.038 1.65102 0.409298 0
M  V30 8577 O 838.223 1.91872 0.299819 0
M  V30 8578 C 835.353 3.47087 0.121554 0
M  V30 8579 C 834.307 4.21009 -0.770429 0
M  V30 8580 C 833.633 5.34678 0.0481586 0
M  V30 8581 C 834.933 4.79636 -2.06752 0
M  V30 8582 H 836.627 2.62749 -1.43538 0
M  V30 8583 H 834.173 1.26303 -0.691628 0
M  V30 8584 H 836.126 4.19166 0.433303 0
M  V30 8585 H 834.85 3.1002 1.0274 0
M  V30 8586 H 833.509 3.50764 -1.06583 0
M  V30 8587 H 833.157 4.93852 0.954933 0
M  V30 8588 H 832.857 5.85061 -0.545641 0
M  V30 8589 H 834.381 6.09573 0.353991 0
M  V30 8590 H 835.795 5.43654 -1.81969 0
M  V30 8591 H 834.192 5.4036 -2.61019 0
M  V30 8592 H 835.262 3.99659 -2.74592 0
M  V30 8593 N 836.605 0.766683 1.37694 0
M  V30 8594 C 837.535 0.163432 2.32927 0
M  V30 8595 C 838.516 -0.688861 1.55527 0
M  V30 8596 O 839.701 -0.627363 1.83787 0
M  V30 8597 C 836.831 -0.720416 3.39746 0
M  V30 8598 C 835.785 0.0301718 4.27989 0
M  V30 8599 C 835.111 -0.972788 5.25776 0
M  V30 8600 C 836.411 1.20623 5.0818 0
M  V30 8601 H 838.105 0.958988 2.83626 0
M  V30 8602 H 835.651 0.462601 1.36367 0
M  V30 8603 H 837.604 -1.15221 4.05342 0
M  V30 8604 H 836.328 -1.54844 2.8756 0
M  V30 8605 H 834.987 0.442685 3.63917 0
M  V30 8606 H 834.635 -1.79522 4.69873 0
M  V30 8607 H 834.335 -0.475145 5.85676 0
M  V30 8608 H 835.859 -1.40362 5.94248 0
M  V30 8609 H 837.273 0.851341 5.66944 0
M  V30 8610 H 835.67 1.63561 5.7738 0
M  V30 8611 H 836.74 2.01281 4.41151 0
M  V30 8612 N 838.083 -1.48885 0.516809 0
M  V30 8613 C 839.329 -2.02788 -0.0220928 0
M  V30 8614 C 839.662 -1.39433 -1.35175 0
M  V30 8615 O 838.937 -0.535459 -1.86984 0
M  V30 8616 C 839.22 -3.59753 -0.158012 0
M  V30 8617 C 839.073 -4.33611 1.19588 0
M  V30 8618 C 840.392 -4.30984 -0.891133 0
M  V30 8619 H 837.511 -0.736971 -0.00655488 0
M  V30 8620 H 840.153 -1.77746 0.671287 0
M  V30 8621 H 838.303 -3.8122 -0.748568 0
M  V30 8622 H 839.975 -4.23598 1.82653 0
M  V30 8623 H 838.218 -3.95547 1.78116 0
M  V30 8624 H 838.889 -5.41846 1.05391 0
M  V30 8625 H 841.365 -4.14267 -0.39012 0
M  V30 8626 H 840.241 -5.40527 -0.955107 0
M  V30 8627 H 840.502 -3.97336 -1.93847 0
M  V30 8628 N 839.561 -0.251338 -1.55583 0
M  V30 8629 C 840.786 0.379136 -2.03905 0
M  V30 8630 C 841.211 1.50428 -1.12929 0
M  V30 8631 O 840.569 1.80882 -0.123114 0
M  V30 8632 C 840.617 0.86009 -3.50193 0
M  V30 8633 O 839.721 1.96932 -3.62342 0
M  V30 8634 H 839.062 0.0820183 -0.658915 0
M  V30 8635 H 841.592 -0.378692 -2.01065 0
M  V30 8636 H 841.602 1.16214 -3.91099 0
M  V30 8637 H 840.277 0.0367559 -4.15884 0
M  V30 8638 H 838.854 1.67163 -3.33333 0
M  V30 8639 N 841.039 1.57585 0.0217189 0
M  V30 8640 C 841.969 2.10073 1.01939 0
M  V30 8641 C 842.95 1.0049 1.37243 0
M  V30 8642 O 844.135 1.28055 1.45999 0
M  V30 8643 C 841.265 2.58618 2.31806 0
M  V30 8644 C 840.219 3.72531 2.10724 0
M  V30 8645 C 839.545 4.07309 3.46415 0
M  V30 8646 C 840.845 5.00672 1.48743 0
M  V30 8647 H 842.539 2.9368 0.582432 0
M  V30 8648 H 840.085 1.41277 0.278715 0
M  V30 8649 H 842.038 2.9396 3.01936 0
M  V30 8650 H 840.762 1.72104 2.77575 0
M  V30 8651 H 839.421 3.37549 1.43025 0
M  V30 8652 H 839.069 3.17851 3.89846 0
M  V30 8653 H 838.769 4.84042 3.33132 0
M  V30 8654 H 840.293 4.45192 4.17895 0
M  V30 8655 H 841.707 5.33925 2.088 0
M  V30 8656 H 840.104 5.82065 1.46013 0
M  V30 8657 H 841.174 4.82769 0.45408 0
M  V30 8658 N 842.517 -0.29412 1.54831 0
M  V30 8659 C 843.765 -1.02643 1.74094 0
M  V30 8660 C 844.086 -1.87563 0.533402 0
M  V30 8661 O 843.356 -1.9061 -0.452192 0
M  V30 8662 H 841.936 -0.381959 0.641963 0
M  V30 8663 H 844.598 -0.323444 1.92197 0
M  V30 8664 H 843.694 -1.67558 2.63307 0
M  V30 8665 N 843.995 -1.47404 -0.557645 0
M  V30 8666 C 845.22 -1.57868 -1.34508 0
M  V30 8667 C 845.645 -0.229151 -1.86699 0
M  V30 8668 O 845.003 0.794908 -1.62944 0
M  V30 8669 C 845.051 -2.60712 -2.49122 0
M  V30 8670 O 844.155 -2.15952 -3.51338 0
M  V30 8671 H 843.496 -0.530335 -0.399551 0
M  V30 8672 H 846.026 -1.93181 -0.673954 0
M  V30 8673 H 846.036 -2.81118 -2.95697 0
M  V30 8674 H 844.711 -3.58701 -2.10491 0
M  V30 8675 H 843.288 -2.05644 -3.11071 0
M  V30 8676 N 845.473 0.80434 -1.35529 0
M  V30 8677 C 846.436 1.89788 -1.28503 0
M  V30 8678 C 847.436 1.59601 -0.195983 0
M  V30 8679 O 848.626 1.68292 -0.449827 0
M  V30 8680 C 845.758 3.26255 -0.98847 0
M  V30 8681 H 846.951 1.97436 -2.25741 0
M  V30 8682 H 844.504 1.00046 -1.20086 0
M  V30 8683 H 845.239 3.24294 -0.0200541 0
M  V30 8684 H 845.024 3.49551 -1.77641 0
M  V30 8685 H 846.514 4.06298 -0.964975 0
M  V30 8686 N 846.951 1.19563 1.02676 0
M  V30 8687 C 847.881 0.959024 2.12897 0
M  V30 8688 C 848.862 -0.108382 1.69754 0
M  V30 8689 O 850.047 0.0470698 1.94143 0
M  V30 8690 C 847.177 0.499211 3.43693 0
M  V30 8691 C 846.131 1.5087 4.00528 0
M  V30 8692 C 845.457 0.905884 5.2697 0
M  V30 8693 C 846.757 2.88954 4.3509 0
M  V30 8694 H 848.451 1.88084 2.32948 0
M  V30 8695 H 845.997 0.905731 1.11949 0
M  V30 8696 H 847.95 0.320965 4.20176 0
M  V30 8697 H 846.674 -0.458205 3.2337 0
M  V30 8698 H 845.333 1.67413 3.26142 0
M  V30 8699 H 844.981 -0.0591506 5.02965 0
M  V30 8700 H 844.681 1.58 5.65959 0
M  V30 8701 H 846.205 0.73848 6.06118 0
M  V30 8702 H 847.619 2.75981 5.02501 0
M  V30 8703 H 846.016 3.53177 4.85166 0
M  V30 8704 H 847.086 3.41447 3.44299 0
M  V30 8705 N 848.429 -1.21819 0.999893 0
M  V30 8706 C 849.392 -2.22227 0.561044 0
M  V30 8707 C 850.392 -1.56722 -0.359858 0
M  V30 8708 O 851.582 -1.73546 -0.150848 0
M  V30 8709 C 848.714 -3.40409 -0.182987 0
M  V30 8710 H 849.907 -2.62567 1.44909 0
M  V30 8711 H 847.46 -1.34991 0.78785 0
M  V30 8712 H 848.195 -3.05551 -1.08671 0
M  V30 8713 H 847.98 -3.89171 0.47833 0
M  V30 8714 H 849.47 -4.14856 -0.477952 0
M  V30 8715 N 849.908 -0.773975 -1.37286 0
M  V30 8716 C 851.148 -0.344505 -2.01476 0
M  V30 8717 C 851.512 1.05966 -1.6011 0
M  V30 8718 O 852.713 1.58937 -2.16778 0
M  V30 8719 C 850.984 -0.485816 -3.54083 0
M  V30 8720 S 852.543 -0.141939 -4.3857 0
M  V30 8721 H 849.361 -0.13243 -0.698558 0
M  V30 8722 H 851.963 -1.00908 -1.67445 0
M  V30 8723 H 850.667 -1.50835 -3.81677 0
M  V30 8724 H 850.198 0.195232 -3.92915 0
M  V30 8725 H 852.213 1.06177 -4.84707 0
M  V30 8726 N 851.386 1.48609 -0.524698 0
M  V30 8727 C 852.316 2.32366 0.229837 0
M  V30 8728 C 853.297 1.41759 0.940129 0
M  V30 8729 O 854.482 1.7065 0.926936 0
M  V30 8730 C 851.612 3.22835 1.28043 0
M  V30 8731 C 850.566 4.22424 0.688603 0
M  V30 8732 C 849.892 5.0199 1.84146 0
M  V30 8733 C 851.192 5.21217 -0.336176 0
M  V30 8734 H 852.886 2.95698 -0.469339 0
M  V30 8735 H 850.432 1.42197 -0.227156 0
M  V30 8736 H 852.385 3.80253 1.8162 0
M  V30 8737 H 851.109 2.57492 2.00912 0
M  V30 8738 H 849.768 3.66185 0.174402 0
M  V30 8739 H 849.416 4.33076 2.5584 0
M  V30 8740 H 849.116 5.69392 1.45142 0
M  V30 8741 H 850.64 5.62259 2.38111 0
M  V30 8742 H 852.054 5.7319 0.112307 0
M  V30 8743 H 850.451 5.96642 -0.643324 0
M  V30 8744 H 851.521 4.68676 -1.24381 0
M  V30 8745 N 852.864 0.259585 1.55447 0
M  V30 8746 C 854.092 -0.365392 2.03648 0
M  V30 8747 C 854.507 -1.50613 1.13847 0
M  V30 8748 O 853.864 -1.81837 0.155414 0
M  V30 8749 C 853.915 -0.861172 3.51093 0
M  V30 8750 O 853.636 0.234121 4.37474 0
M  V30 8751 C 855.137 -1.55555 4.15111 0
M  V30 8752 H 852.357 -0.0853439 0.66555 0
M  V30 8753 H 854.901 0.387151 2.00802 0
M  V30 8754 H 853.056 -1.56385 3.54433 0
M  V30 8755 H 853.47 -0.1444 5.24301 0
M  V30 8756 H 854.944 -1.85403 5.19932 0
M  V30 8757 H 855.421 -2.48185 3.62355 0
M  V30 8758 H 856.027 -0.89712 4.15731 0
M  V30 8759 N 854.342 -1.57594 -0.0133615 0
M  V30 8760 C 855.292 -2.04048 -1.01726 0
M  V30 8761 C 856.276 -0.932682 -1.3111 0
M  V30 8762 O 857.468 -1.19652 -1.30432 0
M  V30 8763 C 854.597 -2.53637 -2.31351 0
M  V30 8764 C 853.683 -3.71269 -2.04989 0
M  V30 8765 N 854.074 -4.83436 -1.48739 0
M  V30 8766 C 852.372 -3.78943 -2.35198 0
M  V30 8767 C 853.073 -5.64961 -1.38542 0
M  V30 8768 N 852.049 -5.10554 -1.86643 0
M  V30 8769 H 855.851 -2.88188 -0.576623 0
M  V30 8770 H 853.365 -1.60912 -0.219344 0
M  V30 8771 H 855.362 -2.85186 -3.04096 0
M  V30 8772 H 854.022 -1.7091 -2.76079 0
M  V30 8773 H 855.033 -5.04558 -1.16798 0
M  V30 8774 H 851.71 -3.07047 -2.82893 0
M  V30 8775 H 853.1 -6.65092 -0.954075 0
M  V30 8776 N 855.82 0.285905 -1.54985 0
M  V30 8777 C 857.048 1.03776 -1.78992 0
M  V30 8778 C 857.463 1.80402 -0.556814 0
M  V30 8779 O 856.82 1.76242 0.473801 0
M  V30 8780 C 856.871 2.0065 -3.00702 0
M  V30 8781 O 856.592 1.27131 -4.19249 0
M  V30 8782 C 858.093 2.87753 -3.37214 0
M  V30 8783 H 855.313 0.307126 -0.596586 0
M  V30 8784 H 857.857 0.3206 -2.01971 0
M  V30 8785 H 856.012 2.67847 -2.79887 0
M  V30 8786 H 856.426 1.92316 -4.8797 0
M  V30 8787 H 857.9 3.51548 -4.2558 0
M  V30 8788 H 858.377 3.56848 -2.56039 0
M  V30 8789 H 858.983 2.26065 -3.60242 0
M  V30 8790 N 857.298 1.47698 0.54982 0
M  V30 8791 C 858.709 1.48474 1.13191 0
M  V30 8792 C 859.06 0.243504 1.94683 0
M  V30 8793 O 858.185 -0.651009 2.06375 0
M  V30 8794 C 858.78 2.69022 2.05944 0
M  V30 8795 C 857.339 2.72733 2.5941 0
M  V30 8796 C 856.486 2.41691 1.35944 0
M  V30 8797 H 859.437 1.55101 0.336048 0
M  V30 8798 H 859.458 2.46412 2.89934 0
M  V30 8799 H 858.97 3.59345 1.46605 0
M  V30 8800 H 857.071 1.86568 3.22526 0
M  V30 8801 H 857.184 3.73628 2.99899 0
M  V30 8802 H 855.548 1.92428 1.66864 0
M  V30 8803 H 856.331 3.34231 0.783869 0
M  V30 8804 N 858.776 -0.797141 1.35954 0
M  V30 8805 C 860.001 -1.59097 1.33053 0
M  V30 8806 C 860.426 -1.87897 -0.0874592 0
M  V30 8807 O 859.784 -1.47291 -1.05712 0
M  V30 8808 C 859.832 -2.89346 2.152 0
M  V30 8809 O 858.936 -3.826 1.5392 0
M  V30 8810 H 858.277 -0.482895 0.45575 0
M  V30 8811 H 860.807 -0.988633 1.79129 0
M  V30 8812 H 860.817 -3.38686 2.27499 0
M  V30 8813 H 859.492 -2.6771 3.18283 0
M  V30 8814 H 858.069 -3.41174 1.50516 0
M  V30 8815 N 860.254 -1.20106 -1.0204 0
M  V30 8816 C 861.501 -1.00889 -1.75578 0
M  V30 8817 C 861.829 0.459415 -1.88996 0
M  V30 8818 O 861.084 1.35735 -1.40977 0
M  V30 8819 C 861.383 -1.63308 -3.17908 0
M  V30 8820 C 861.049 -3.13091 -3.24476 0
M  V30 8821 C 859.711 -3.53968 -3.25976 0
M  V30 8822 C 862.063 -4.09093 -3.22944 0
M  V30 8823 C 859.391 -4.89381 -3.2361 0
M  V30 8824 C 861.743 -5.44447 -3.22119 0
M  V30 8825 C 860.407 -5.84742 -3.2192 0
M  V30 8826 H 859.677 -0.36918 -0.642485 0
M  V30 8827 H 862.324 -1.49475 -1.19706 0
M  V30 8828 H 860.629 -1.06974 -3.76914 0
M  V30 8829 H 862.326 -1.45958 -3.73493 0
M  V30 8830 H 858.916 -2.80526 -3.24042 0
M  V30 8831 H 863.1 -3.78549 -3.20958 0
M  V30 8832 H 858.356 -5.1987 -3.21785 0
M  V30 8833 H 862.53 -6.18584 -3.19885 0
M  V30 8834 H 860.157 -6.89642 -3.19841 0
M  V30 8835 N 861.732 1.21287 -1.00634 0
M  V30 8836 C 862.665 2.22366 -0.512687 0
M  V30 8837 C 863.643 1.56692 0.434332 0
M  V30 8838 O 864.827 1.85094 0.35674 0
M  V30 8839 C 861.954 3.37738 0.255139 0
M  V30 8840 C 861 4.21673 -0.639883 0
M  V30 8841 S 861.833 4.92474 -2.10308 0
M  V30 8842 C 862.989 6.11275 -1.34512 0
M  V30 8843 H 863.222 2.63896 -1.36918 0
M  V30 8844 H 860.755 1.31176 -0.814387 0
M  V30 8845 H 862.713 4.04624 0.692067 0
M  V30 8846 H 861.374 2.94689 1.08707 0
M  V30 8847 H 860.567 5.03977 -0.0483821 0
M  V30 8848 H 860.169 3.59988 -1.01414 0
M  V30 8849 H 862.461 6.7466 -0.619721 0
M  V30 8850 H 863.404 6.74864 -2.14393 0
M  V30 8851 H 863.812 5.58026 -0.852506 0
M  V30 8852 N 863.21 0.781244 1.36873 0
M  V30 8853 C 864.14 0.188128 2.32741 0
M  V30 8854 C 865.121 -0.672326 1.56249 0
M  V30 8855 O 866.306 -0.607835 1.84442 0
M  V30 8856 C 863.436 -0.684341 3.40491 0
M  V30 8857 C 862.39 0.0755641 4.27933 0
M  V30 8858 C 861.716 -0.916968 5.26779 0
M  V30 8859 C 863.016 1.26006 5.06873 0
M  V30 8860 H 864.71 0.989016 2.82593 0
M  V30 8861 H 862.256 0.477038 1.35869 0
M  V30 8862 H 864.209 -1.10915 4.06541 0
M  V30 8863 H 862.933 -1.51785 2.89187 0
M  V30 8864 H 861.592 0.481258 3.63427 0
M  V30 8865 H 861.24 -1.74528 4.71751 0
M  V30 8866 H 860.94 -0.413 5.86147 0
M  V30 8867 H 862.464 -1.34052 5.95703 0
M  V30 8868 H 863.878 0.911425 5.66009 0
M  V30 8869 H 862.275 1.69676 5.75613 0
M  V30 8870 H 863.345 2.05948 4.38991 0
M  V30 8871 N 864.689 -1.48329 0.532571 0
M  V30 8872 C 865.938 -2.017 -0.00259705 0
M  V30 8873 C 866.251 -1.41469 -1.35077 0
M  V30 8874 O 867.457 -1.86354 -1.97445 0
M  V30 8875 C 865.913 -3.59858 -0.0550179 0
M  V30 8876 C 865.521 -4.29073 1.28842 0
M  V30 8877 C 867.265 -4.21066 -0.538878 0
M  V30 8878 C 865.172 -5.79171 1.19644 0
M  V30 8879 H 864.102 -0.753985 -0.00474081 0
M  V30 8880 H 866.753 -1.70565 0.676739 0
M  V30 8881 H 865.135 -3.87846 -0.799486 0
M  V30 8882 H 866.309 -4.12755 2.04865 0
M  V30 8883 H 864.624 -3.79748 1.70822 0
M  V30 8884 H 867.221 -5.31026 -0.6257 0
M  V30 8885 H 867.564 -3.86559 -1.54525 0
M  V30 8886 H 868.097 -3.97517 0.149984 0
M  V30 8887 H 864.836 -6.18257 2.17805 0
M  V30 8888 H 864.356 -5.97895 0.477609 0
M  V30 8889 H 866.035 -6.40875 0.888186 0
M  V30 8890 N 866.167 -0.267825 -1.55308 0
M  V30 8891 C 867.097 0.616585 -2.25212 0
M  V30 8892 C 868.078 1.16472 -1.23969 0
M  V30 8893 O 869.263 1.20021 -1.52672 0
M  V30 8894 C 866.393 1.80412 -2.96764 0
M  V30 8895 C 865.347 1.38784 -4.04874 0
M  V30 8896 C 864.673 2.65789 -4.63961 0
M  V30 8897 C 865.973 0.543415 -5.19465 0
M  V30 8898 H 867.667 0.0336257 -2.99381 0
M  V30 8899 H 865.213 0.0147328 -1.43992 0
M  V30 8900 H 867.166 2.42866 -3.44375 0
M  V30 8901 H 865.89 2.4128 -2.20118 0
M  V30 8902 H 864.549 0.786541 -3.58063 0
M  V30 8903 H 864.197 3.24899 -3.83992 0
M  V30 8904 H 863.897 2.38651 -5.36954 0
M  V30 8905 H 865.421 3.29104 -5.14318 0
M  V30 8906 H 866.835 1.07277 -5.63174 0
M  V30 8907 H 865.232 0.367219 -5.98975 0
M  V30 8908 H 866.302 -0.439534 -4.82904 0
M  V30 8909 N 867.645 1.57599 0.00500368 0
M  V30 8910 C 869.061 1.55463 0.361015 0
M  V30 8911 C 869.261 0.997051 1.75103 0
M  V30 8912 O 868.317 0.628661 2.44549 0
M  V30 8913 C 869.63 2.99734 0.240828 0
M  V30 8914 C 871.178 3.11399 0.316138 0
M  V30 8915 C 871.653 4.57446 0.22513 0
M  V30 8916 N 873.144 4.62334 0.283186 0
M  V30 8917 C 873.879 5.72914 0.23603 0
M  V30 8918 N 873.375 6.92659 0.139762 0
M  V30 8919 N 875.168 5.61364 0.287529 0
M  V30 8920 H 867.319 1.92185 -0.904359 0
M  V30 8921 H 869.582 0.882529 -0.34619 0
M  V30 8922 H 869.288 3.44348 -0.715343 0
M  V30 8923 H 869.162 3.63009 1.02491 0
M  V30 8924 H 871.549 2.66718 1.26275 0
M  V30 8925 H 871.63 2.50911 -0.497725 0
M  V30 8926 H 871.274 5.02801 -0.717917 0
M  V30 8927 H 871.204 5.15874 1.05742 0
M  V30 8928 H 873.695 3.7619 0.359123 0
M  V30 8929 H 874.008 7.72722 0.10954 0
M  V30 8930 H 872.353 6.9492 0.105462 0
M  V30 8931 H 875.544 4.66707 0.360897 0
M  V30 8932 H 875.717 6.47528 0.247313 0
M  V30 8933 N 869.123 -0.277682 1.55134 0
M  V30 8934 C 870.371 -1.00791 1.75173 0
M  V30 8935 C 870.692 -1.86987 0.553266 0
M  V30 8936 O 869.962 -1.91079 -0.43195 0
M  V30 8937 H 868.542 -0.375129 0.645978 0
M  V30 8938 H 871.204 -0.303041 1.9253 0
M  V30 8939 H 870.3 -1.64756 2.6507 0
M  V30 8940 N 870.601 -1.47988 -0.541979 0
M  V30 8941 C 871.847 -1.55623 -1.30036 0
M  V30 8942 C 872.18 -0.224254 -1.92901 0
M  V30 8943 O 871.455 0.768629 -1.78668 0
M  V30 8944 C 871.738 -2.68562 -2.39888 0
M  V30 8945 C 871.591 -4.11426 -1.81792 0
M  V30 8946 C 872.91 -2.77325 -3.41729 0
M  V30 8947 H 870.029 -0.566498 -0.471433 0
M  V30 8948 H 872.671 -1.8011 -0.604998 0
M  V30 8949 H 870.821 -2.47814 -2.992 0
M  V30 8950 H 872.493 -4.43581 -1.26624 0
M  V30 8951 H 870.736 -4.18989 -1.12386 0
M  V30 8952 H 871.407 -4.8625 -2.61276 0
M  V30 8953 H 873.883 -2.96085 -2.92357 0
M  V30 8954 H 872.759 -3.58097 -4.16002 0
M  V30 8955 H 873.02 -1.84995 -4.01534 0
M  V30 8956 N 872.079 0.78992 -1.36375 0
M  V30 8957 C 873.026 1.90254 -1.3066 0
M  V30 8958 C 873.996 1.65171 -0.17539 0
M  V30 8959 O 875.181 1.87338 -0.361824 0
M  V30 8960 C 872.321 3.27057 -1.10125 0
M  V30 8961 C 871.434 3.64215 -2.32317 0
M  V30 8962 C 870.569 4.90134 -2.04798 0
M  V30 8963 C 869.608 5.19969 -3.22953 0
M  V30 8964 N 868.745 6.37071 -2.95102 0
M  V30 8965 H 873.585 1.94474 -2.25796 0
M  V30 8966 H 871.122 0.951022 -1.12223 0
M  V30 8967 H 873.08 4.05947 -0.962453 0
M  V30 8968 H 871.71 3.22261 -0.186444 0
M  V30 8969 H 870.762 2.80454 -2.57002 0
M  V30 8970 H 872.074 3.82212 -3.20492 0
M  V30 8971 H 871.228 5.76888 -1.87845 0
M  V30 8972 H 869.967 4.74205 -1.13932 0
M  V30 8973 H 868.972 4.31699 -3.40465 0
M  V30 8974 H 870.197 5.37817 -4.14644 0
M  V30 8975 H 868.143 6.22535 -2.06848 0
M  V30 8976 H 868.06 6.55398 -3.76815 0
M  V30 8977 H 869.328 7.26808 -2.81727 0
M  V30 8978 N 873.557 1.20646 1.01402 0
M  V30 8979 C 874.504 0.957618 2.09996 0
M  V30 8980 C 875.474 -0.113115 1.65714 0
M  V30 8981 O 876.659 0.032142 1.90773 0
M  V30 8982 C 873.799 0.5186 3.41181 0
M  V30 8983 C 872.912 1.65777 3.98926 0
M  V30 8984 C 872.047 1.16881 5.18182 0
M  V30 8985 C 871.086 2.2809 5.68015 0
M  V30 8986 N 870.223 1.80392 6.7853 0
M  V30 8987 H 875.063 1.88732 2.30617 0
M  V30 8988 H 872.6 0.940703 1.13089 0
M  V30 8989 H 874.558 0.245367 4.16478 0
M  V30 8990 H 873.188 -0.3741 3.20625 0
M  V30 8991 H 872.24 2.04586 3.207 0
M  V30 8992 H 873.552 2.49507 4.31912 0
M  V30 8993 H 872.706 0.851694 6.00692 0
M  V30 8994 H 871.445 0.301434 4.86768 0
M  V30 8995 H 870.45 2.60614 4.84108 0
M  V30 8996 H 871.675 3.15308 6.01463 0
M  V30 8997 H 869.621 0.959856 6.4894 0
M  V30 8998 H 869.538 2.57701 7.10722 0
M  V30 8999 H 870.806 1.51688 7.64598 0
M  V30 9000 N 875.035 -1.20752 1.01276 0
M  V30 9001 C 875.945 -2.27079 0.589277 0
M  V30 9002 C 876.961 -1.6999 -0.371389 0
M  V30 9003 O 878.137 -2.00044 -0.233294 0
M  V30 9004 C 875.202 -3.4663 -0.0696715 0
M  V30 9005 C 874.263 -4.18962 0.936454 0
M  V30 9006 C 873.496 -5.32806 0.308856 0
M  V30 9007 O 873.719 -5.63376 -0.8924 0
M  V30 9008 O 872.653 -5.93131 1.02367 0
M  V30 9009 H 876.479 -2.6551 1.47438 0
M  V30 9010 H 874.064 -1.27297 0.782045 0
M  V30 9011 H 875.946 -4.19119 -0.437873 0
M  V30 9012 H 874.621 -3.10082 -0.929029 0
M  V30 9013 H 873.528 -3.48661 1.35595 0
M  V30 9014 H 874.861 -4.59441 1.76565 0
M  V30 9015 N 876.513 -0.788492 -1.36457 0
M  V30 9016 C 877.79 -0.284484 -1.9352 0
M  V30 9017 C 878.17 1.2232 -1.7205 0
M  V30 9018 O 877.518 2.01424 -1.07892 0
M  V30 9019 C 877.728 -0.676106 -3.42388 0
M  V30 9020 C 879.076 -0.655327 -4.19512 0
M  V30 9021 O 880.1 -0.616523 -3.50824 0
M  V30 9022 O 878.959 -0.697391 -5.42032 0
M  V30 9023 H 876.053 -0.0701769 -0.824017 0
M  V30 9024 H 878.599 -0.870974 -1.45644 0
M  V30 9025 H 877.371 -1.71596 -3.51668 0
M  V30 9026 H 876.994 -0.0634517 -3.97549 0
M  V30 9027 N 877.991 1.48044 -0.54043 0
M  V30 9028 C 878.938 2.29781 0.216597 0
M  V30 9029 C 879.908 1.38021 0.924094 0
M  V30 9030 O 881.093 1.66985 0.923078 0
M  V30 9031 C 878.233 3.21623 1.2511 0
M  V30 9032 C 877.346 4.28467 0.551384 0
M  V30 9033 C 876.481 5.07477 1.56972 0
M  V30 9034 C 875.52 6.06113 0.854048 0
M  V30 9035 N 874.657 6.78143 1.81842 0
M  V30 9036 H 879.497 2.94001 -0.486578 0
M  V30 9037 H 877.034 1.44929 -0.251789 0
M  V30 9038 H 878.992 3.73279 1.8633 0
M  V30 9039 H 877.622 2.59305 1.92252 0
M  V30 9040 H 876.674 3.79997 -0.174982 0
M  V30 9041 H 877.986 4.98799 -0.0100542 0
M  V30 9042 H 877.14 5.63199 2.25592 0
M  V30 9043 H 875.879 4.37008 2.16507 0
M  V30 9044 H 874.884 5.49585 0.153838 0
M  V30 9045 H 876.109 6.78584 0.264675 0
M  V30 9046 H 874.055 6.10417 2.40265 0
M  V30 9047 H 873.972 7.44587 1.3087 0
M  V30 9048 H 875.24 7.38448 2.49628 0
M  V30 9049 N 879.47 0.276058 1.55163 0
M  V30 9050 C 880.698 -0.343772 2.04024 0
M  V30 9051 C 881.113 -1.49397 1.15438 0
M  V30 9052 O 880.47 -1.81662 0.174692 0
M  V30 9053 C 880.521 -0.823885 3.51986 0
M  V30 9054 O 880.242 0.280507 4.37201 0
M  V30 9055 C 881.743 -1.51143 4.16738 0
M  V30 9056 H 878.963 -0.07828 0.666418 0
M  V30 9057 H 881.507 0.408427 2.0038 0
M  V30 9058 H 879.662 -1.52617 3.56071 0
M  V30 9059 H 880.076 -0.0887831 5.24425 0
M  V30 9060 H 881.55 -1.79878 5.2187 0
M  V30 9061 H 882.027 -2.44327 3.64967 0
M  V30 9062 H 882.633 -0.852975 4.16659 0
M  V30 9063 N 880.948 -1.576 0.00335426 0
M  V30 9064 C 881.878 -2.11668 -0.985839 0
M  V30 9065 C 882.859 -1.02661 -1.35627 0
M  V30 9066 O 884.044 -1.30361 -1.43943 0
M  V30 9067 C 881.174 -2.62273 -2.27662 0
M  V30 9068 C 880.128 -3.75837 -2.0477 0
M  V30 9069 C 879.454 -4.12769 -3.39891 0
M  V30 9070 C 880.754 -5.02975 -1.40759 0
M  V30 9071 H 882.448 -2.9457 -0.535637 0
M  V30 9072 H 879.994 -1.41702 -0.256204 0
M  V30 9073 H 881.947 -2.98727 -2.97221 0
M  V30 9074 H 880.671 -1.76498 -2.74802 0
M  V30 9075 H 879.33 -3.39782 -1.37636 0
M  V30 9076 H 878.978 -3.24013 -3.8474 0
M  V30 9077 H 878.678 -4.89281 -3.25389 0
M  V30 9078 H 880.202 -4.51784 -4.1076 0
M  V30 9079 H 881.616 -5.37179 -2.00279 0
M  V30 9080 H 880.013 -5.84315 -1.36734 0
M  V30 9081 H 881.083 -4.83431 -0.377218 0
M  V30 9082 N 882.426 0.269451 -1.5528 0
M  V30 9083 C 883.389 1.31642 -1.87625 0
M  V30 9084 C 884.389 1.42182 -0.751058 0
M  V30 9085 O 885.579 1.41272 -1.01921 0
M  V30 9086 C 882.711 2.6973 -2.08467 0
M  V30 9087 H 883.904 1.0419 -2.81219 0
M  V30 9088 H 881.457 0.507685 -1.47825 0
M  V30 9089 H 882.192 3.02356 -1.17266 0
M  V30 9090 H 881.977 2.63465 -2.90394 0
M  V30 9091 H 883.467 3.4537 -2.34753 0
M  V30 9092 N 883.904 1.48273 0.534124 0
M  V30 9093 C 885.15 1.56311 1.29208 0
M  V30 9094 C 885.483 0.234481 1.92779 0
M  V30 9095 O 884.758 -0.759143 1.79073 0
M  V30 9096 C 885.041 2.69831 2.3846 0
M  V30 9097 C 884.894 4.12385 1.79608 0
M  V30 9098 C 886.213 2.79133 3.40254 0
M  V30 9099 H 883.332 0.56899 0.468422 0
M  V30 9100 H 885.974 1.80429 0.595438 0
M  V30 9101 H 884.124 2.49397 2.97881 0
M  V30 9102 H 885.796 4.44246 1.24269 0
M  V30 9103 H 884.039 4.19579 1.10162 0
M  V30 9104 H 884.71 4.87629 2.58693 0
M  V30 9105 H 887.186 2.97632 2.90783 0
M  V30 9106 H 886.062 3.60298 4.14097 0
M  V30 9107 H 886.323 1.87122 4.00547 0
M  V30 9108 N 885.382 -0.782676 1.36792 0
M  V30 9109 C 886.63 -1.53778 1.31136 0
M  V30 9110 C 886.951 -1.94706 -0.107014 0
M  V30 9111 O 886.221 -1.65465 -1.04872 0
M  V30 9112 H 884.801 -0.570328 0.482426 0
M  V30 9113 H 887.463 -0.932181 1.71162 0
M  V30 9114 H 886.559 -2.44224 1.94321 0
M  V30 9115 N 886.86 -1.21182 -1.00761 0
M  V30 9116 C 888.109 -1.02166 -1.73911 0
M  V30 9117 C 888.422 0.445638 -1.90456 0
M  V30 9118 O 889.628 0.755132 -2.60787 0
M  V30 9119 C 888.084 -1.77936 -3.12837 0
M  V30 9120 C 887.692 -3.28819 -3.04273 0
M  V30 9121 C 889.436 -1.67319 -3.90134 0
M  V30 9122 C 887.343 -3.97089 -4.38262 0
M  V30 9123 H 886.273 -0.378665 -0.652019 0
M  V30 9124 H 888.924 -1.44891 -1.12601 0
M  V30 9125 H 887.306 -1.28003 -3.74742 0
M  V30 9126 H 888.48 -3.86035 -2.51622 0
M  V30 9127 H 886.795 -3.39949 -2.40465 0
M  V30 9128 H 889.392 -2.15659 -4.8928 0
M  V30 9129 H 889.735 -0.630959 -4.11491 0
M  V30 9130 H 890.268 -2.14716 -3.34876 0
M  V30 9131 H 887.007 -5.01503 -4.22107 0
M  V30 9132 H 886.527 -3.44662 -4.90885 0
M  V30 9133 H 888.206 -4.01854 -5.07072 0
M  V30 9134 N 888.338 1.20213 -1.01915 0
M  V30 9135 C 889.27 2.2251 -0.549725 0
M  V30 9136 C 890.283 1.58558 0.369235 0
M  V30 9137 O 891.472 1.77715 0.167176 0
M  V30 9138 C 888.572 3.38189 0.219432 0
M  V30 9139 C 887.745 4.31729 -0.702066 0
M  V30 9140 C 886.804 5.26196 0.0199624 0
M  V30 9141 O 885.83 5.65993 -0.60339 0
M  V30 9142 N 887.032 5.65895 1.29397 0
M  V30 9143 H 889.797 2.63412 -1.42948 0
M  V30 9144 H 887.358 1.3478 -0.896987 0
M  V30 9145 H 889.35 3.98392 0.711763 0
M  V30 9146 H 887.92 2.96156 1.00051 0
M  V30 9147 H 887.14 3.69455 -1.37466 0
M  V30 9148 H 888.428 4.91145 -1.3287 0
M  V30 9149 H 887.826 5.35579 1.8213 0
M  V30 9150 H 886.383 6.28395 1.73098 0
M  V30 9151 N 889.816 0.795718 1.36037 0
M  V30 9152 C 891.063 0.371024 1.99072 0
M  V30 9153 C 891.391 -1.05896 1.63145 0
M  V30 9154 O 890.646 -1.7474 0.881163 0
M  V30 9155 C 890.945 0.489038 3.54038 0
M  V30 9156 C 890.611 1.88075 4.09803 0
M  V30 9157 C 889.273 2.26152 4.24745 0
M  V30 9158 C 891.625 2.79174 4.40126 0
M  V30 9159 C 888.953 3.54718 4.67324 0
M  V30 9160 C 891.305 4.07175 4.8414 0
M  V30 9161 C 889.969 4.45266 4.97287 0
M  V30 9162 H 889.239 0.135767 0.728456 0
M  V30 9163 H 891.886 1.0144 1.62426 0
M  V30 9164 H 890.191 -0.237823 3.91078 0
M  V30 9165 H 891.888 0.141374 4.00751 0
M  V30 9166 H 888.478 1.57488 3.98617 0
M  V30 9167 H 892.662 2.51009 4.28145 0
M  V30 9168 H 887.918 3.84093 4.75691 0
M  V30 9169 H 892.092 4.77875 5.06565 0
M  V30 9170 H 889.719 5.44943 5.30038 0
M  V30 9171 N 891.294 -1.47756 0.548274 0
M  V30 9172 C 892.227 -2.26804 -0.252059 0
M  V30 9173 C 893.205 -1.3349 -0.928389 0
M  V30 9174 O 894.389 -1.6286 -0.949156 0
M  V30 9175 C 891.516 -3.10266 -1.35841 0
M  V30 9176 C 890.562 -4.1909 -0.791578 0
M  V30 9177 S 891.395 -5.34323 0.354878 0
M  V30 9178 C 892.551 -6.21348 -0.753511 0
M  V30 9179 H 892.784 -2.94336 0.418744 0
M  V30 9180 H 890.317 -1.50735 0.334413 0
M  V30 9181 H 892.275 -3.58925 -1.99207 0
M  V30 9182 H 890.936 -2.42112 -2.00101 0
M  V30 9183 H 890.129 -4.77183 -1.62212 0
M  V30 9184 H 889.731 -3.73266 -0.234274 0
M  V30 9185 H 892.023 -6.57156 -1.6478 0
M  V30 9186 H 892.966 -7.07788 -0.210141 0
M  V30 9187 H 893.374 -5.54797 -1.04216 0
M  V30 9188 N 892.772 -0.284283 -1.55015 0
M  V30 9189 C 894.019 0.329864 -1.99795 0
M  V30 9190 C 894.347 1.55171 -1.1727 0
M  V30 9191 O 893.602 1.94312 -0.232667 0
M  V30 9192 C 893.901 0.747219 -3.49502 0
M  V30 9193 C 893.567 -0.37101 -4.49371 0
M  V30 9194 C 892.229 -0.678034 -4.76399 0
M  V30 9195 C 894.581 -1.12406 -5.08935 0
M  V30 9196 C 891.909 -1.74152 -5.60257 0
M  V30 9197 C 894.261 -2.17734 -5.93948 0
M  V30 9198 C 892.925 -2.49061 -6.19294 0
M  V30 9199 H 892.195 0.120706 -0.731103 0
M  V30 9200 H 894.842 -0.399904 -1.87278 0
M  V30 9201 H 893.147 1.55681 -3.59542 0
M  V30 9202 H 894.844 1.2333 -3.81563 0
M  V30 9203 H 891.434 -0.1216 -4.28427 0
M  V30 9204 H 895.618 -0.900119 -4.88069 0
M  V30 9205 H 890.874 -1.98915 -5.78137 0
M  V30 9206 H 895.048 -2.76553 -6.39133 0
M  V30 9207 H 892.675 -3.31602 -6.84064 0
M  V30 9208 N 894.251 1.57596 -0.0117121 0
M  V30 9209 C 895.181 2.12188 0.9746 0
M  V30 9210 C 896.162 1.03379 1.35081 0
M  V30 9211 O 897.347 1.31123 1.4325 0
M  V30 9212 C 894.477 2.63477 2.26268 0
M  V30 9213 C 893.431 3.76917 2.02774 0
M  V30 9214 C 892.757 4.14566 3.37697 0
M  V30 9215 C 894.057 5.03715 1.38089 0
M  V30 9216 H 895.751 2.9485 0.520007 0
M  V30 9217 H 893.297 1.41836 0.248685 0
M  V30 9218 H 895.25 3.00299 2.95633 0
M  V30 9219 H 893.974 1.77953 2.73862 0
M  V30 9220 H 892.633 3.40507 1.35832 0
M  V30 9221 H 892.281 3.26048 3.83016 0
M  V30 9222 H 891.981 4.91 3.22789 0
M  V30 9223 H 893.505 4.53956 4.08358 0
M  V30 9224 H 894.919 5.38233 1.97428 0
M  V30 9225 H 893.316 5.85032 1.33634 0
M  V30 9226 H 894.386 4.83624 0.351575 0
M  V30 9227 N 895.729 -0.261212 1.5542 0
M  V30 9228 C 897.145 -0.609012 1.47524 0
M  V30 9229 C 897.345 -1.88986 0.699042 0
M  V30 9230 O 896.401 -2.51517 0.222628 0
M  V30 9231 C 897.714 -0.725025 2.91828 0
M  V30 9232 C 899.262 -0.818302 3.02114 0
M  V30 9233 C 899.737 -0.965996 4.47697 0
M  V30 9234 N 901.228 -1.03123 4.51575 0
M  V30 9235 C 901.963 -1.16451 5.6145 0
M  V30 9236 N 901.459 -1.26425 6.81167 0
M  V30 9237 N 903.252 -1.19655 5.49217 0
M  V30 9238 H 895.403 0.579807 2.04333 0
M  V30 9239 H 897.666 0.198072 0.927077 0
M  V30 9240 H 897.372 0.145871 3.51397 0
M  V30 9241 H 897.246 -1.60156 3.41511 0
M  V30 9242 H 899.633 -1.67966 2.42634 0
M  V30 9243 H 899.714 0.0830895 2.55665 0
M  V30 9244 H 899.358 -0.109251 5.07782 0
M  V30 9245 H 899.288 -1.88221 4.91813 0
M  V30 9246 H 901.779 -0.966072 3.65343 0
M  V30 9247 H 902.092 -1.36462 7.60656 0
M  V30 9248 H 900.437 -1.23408 6.83956 0
M  V30 9249 H 903.628 -1.11501 4.54626 0
M  V30 9250 H 903.801 -1.29698 6.34888 0
M  V30 9251 N 897.207 -1.48554 -0.526253 0
M  V30 9252 C 898.456 -1.56014 -1.27837 0
M  V30 9253 C 898.769 -0.240643 -1.94114 0
M  V30 9254 O 899.975 -0.193525 -2.70809 0
M  V30 9255 C 898.431 -2.75161 -2.31979 0
M  V30 9256 C 898.039 -4.13768 -1.71755 0
M  V30 9257 C 899.783 -2.91936 -3.08178 0
M  V30 9258 C 897.69 -5.24171 -2.7386 0
M  V30 9259 H 896.62 -0.58082 -0.480795 0
M  V30 9260 H 899.271 -1.74895 -0.555335 0
M  V30 9261 H 897.653 -2.49722 -3.07335 0
M  V30 9262 H 898.827 -4.49241 -1.02563 0
M  V30 9263 H 897.142 -4.02141 -1.08036 0
M  V30 9264 H 899.739 -3.71586 -3.84484 0
M  V30 9265 H 900.082 -2.01533 -3.64267 0
M  V30 9266 H 900.615 -3.17294 -2.39937 0
M  V30 9267 H 897.354 -6.16552 -2.22586 0
M  V30 9268 H 896.874 -4.93181 -3.41368 0
M  V30 9269 H 898.553 -5.52442 -3.36774 0
M  V30 9270 N 898.685 0.775411 -1.37205 0
M  V30 9271 C 899.615 1.90258 -1.35367 0
M  V30 9272 C 900.596 1.68634 -0.222864 0
M  V30 9273 O 901.781 1.89545 -0.422659 0
M  V30 9274 C 898.911 3.27488 -1.15623 0
M  V30 9275 C 897.865 3.63668 -2.25676 0
M  V30 9276 C 897.191 4.994 -1.91059 0
M  V30 9277 C 898.491 3.70797 -3.67841 0
M  V30 9278 H 900.185 1.92053 -2.29687 0
M  V30 9279 H 897.731 0.922597 -1.10563 0
M  V30 9280 H 899.684 4.05976 -1.12968 0
M  V30 9281 H 898.408 3.26117 -0.177573 0
M  V30 9282 H 897.067 2.87486 -2.2748 0
M  V30 9283 H 896.715 4.94565 -0.917324 0
M  V30 9284 H 896.415 5.24576 -2.64751 0
M  V30 9285 H 897.939 5.80291 -1.89985 0
M  V30 9286 H 899.353 4.39444 -3.68187 0
M  V30 9287 H 897.75 4.07468 -4.40556 0
M  V30 9288 H 898.82 2.71549 -4.01732 0
M  V30 9289 N 900.163 1.21714 1.00117 0
M  V30 9290 C 901.126 0.981338 2.07129 0
M  V30 9291 C 902.126 -0.0491116 1.60725 0
M  V30 9292 O 903.316 0.188555 1.73177 0
M  V30 9293 C 900.448 0.480608 3.37495 0
M  V30 9294 H 901.641 1.93075 2.29482 0
M  V30 9295 H 899.194 1.03467 1.17151 0
M  V30 9296 H 899.929 -0.473552 3.20824 0
M  V30 9297 H 899.714 1.22393 3.72508 0
M  V30 9298 H 901.204 0.33561 4.16249 0
M  V30 9299 N 901.641 -1.19671 1.02551 0
M  V30 9300 C 902.887 -1.89818 0.730801 0
M  V30 9301 C 903.242 -1.77917 -0.732355 0
M  V30 9302 O 902.535 -1.15848 -1.5261 0
M  V30 9303 C 902.729 -3.39647 1.11241 0
M  V30 9304 C 902.558 -3.66129 2.61112 0
M  V30 9305 C 901.328 -3.84348 3.28032 0
M  V30 9306 C 903.526 -3.67963 3.59316 0
M  V30 9307 N 901.508 -3.98429 4.67041 0
M  V30 9308 C 902.879 -3.87575 4.83927 0
M  V30 9309 C 904.934 -3.50971 3.53162 0
M  V30 9310 C 903.637 -3.91957 6.03127 0
M  V30 9311 C 905.663 -3.56629 4.71773 0
M  V30 9312 C 905.025 -3.76722 5.95197 0
M  V30 9313 H 901.124 -0.713873 0.319232 0
M  V30 9314 H 903.708 -1.43844 1.31213 0
M  V30 9315 H 901.879 -3.84352 0.559324 0
M  V30 9316 H 903.611 -3.97301 0.77031 0
M  V30 9317 H 900.366 -3.83097 2.78448 0
M  V30 9318 H 900.79 -4.09327 5.39241 0
M  V30 9319 H 905.432 -3.34395 2.58728 0
M  V30 9320 H 903.15 -4.07326 6.97933 0
M  V30 9321 H 906.736 -3.44777 4.68637 0
M  V30 9322 H 905.616 -3.8097 6.85442 0
M  V30 9323 N 903.119 -0.802921 -1.35613 0
M  V30 9324 C 904.052 -0.156345 -2.27664 0
M  V30 9325 C 905.03 0.675517 -1.47904 0
M  V30 9326 O 906.214 0.643589 -1.77173 0
M  V30 9327 C 903.341 0.78348 -3.29514 0
M  V30 9328 C 902.387 0.0317062 -4.26488 0
M  V30 9329 S 903.22 -1.30183 -5.19435 0
M  V30 9330 C 904.376 -0.366354 -6.24827 0
M  V30 9331 H 904.609 -0.936803 -2.82155 0
M  V30 9332 H 902.142 -0.597799 -1.42358 0
M  V30 9333 H 904.1 1.32023 -3.8869 0
M  V30 9334 H 902.761 1.53729 -2.73909 0
M  V30 9335 H 901.954 0.745364 -4.98458 0
M  V30 9336 H 901.556 -0.43497 -3.71462 0
M  V30 9337 H 903.848 0.44976 -6.76005 0
M  V30 9338 H 904.791 -1.05513 -7.00195 0
M  V30 9339 H 905.199 0.0363203 -5.64488 0
M  V30 9340 N 904.597 1.47463 -0.556102 0
M  V30 9341 C 906.008 1.86298 -0.122429 0
M  V30 9342 C 906.359 1.46285 1.30749 0
M  V30 9343 O 905.484 0.865405 1.98342 0
M  V30 9344 C 906.079 3.38115 -0.215407 0
M  V30 9345 C 904.638 3.76046 0.163223 0
M  V30 9346 C 903.785 2.71515 -0.563466 0
M  V30 9347 H 906.736 1.38996 -0.765888 0
M  V30 9348 H 906.757 3.76263 0.566271 0
M  V30 9349 H 906.269 3.67207 -1.25622 0
M  V30 9350 H 904.37 3.5257 1.20519 0
M  V30 9351 H 904.483 4.78705 -0.194568 0
M  V30 9352 H 902.847 2.54699 -0.00667879 0
M  V30 9353 H 903.63 3.03449 -1.60542 0
M  V30 9354 N 906.075 0.2925 1.54862 0
M  V30 9355 C 907.3 -0.32494 2.04839 0
M  V30 9356 C 907.725 -1.47381 1.16877 0
M  V30 9357 O 907.083 -1.80492 0.171028 0
M  V30 9358 C 907.131 -0.76694 3.5235 0
M  V30 9359 O 906.235 -1.87256 3.67436 0
M  V30 9360 H 905.576 -0.0645195 0.660858 0
M  V30 9361 H 908.106 0.431867 1.9999 0
M  V30 9362 H 908.116 -1.05804 3.94043 0
M  V30 9363 H 906.791 0.0735212 4.15835 0
M  V30 9364 H 905.368 -1.58266 3.37648 0
M  V30 9365 N 907.553 -1.57587 0.0200696 0
M  V30 9366 C 908.964 -1.79312 -0.520019 0
M  V30 9367 C 909.315 -0.929475 -1.72787 0
M  V30 9368 O 908.44 -0.137389 -2.15963 0
M  V30 9369 C 909.035 -3.25203 -0.950172 0
M  V30 9370 C 907.594 -3.47954 -1.43543 0
M  V30 9371 C 906.741 -2.74459 -0.395917 0
M  V30 9372 H 909.692 -1.56779 0.246153 0
M  V30 9373 H 909.713 -3.34418 -1.81508 0
M  V30 9374 H 909.225 -3.88035 -0.070883 0
M  V30 9375 H 907.326 -2.90363 -2.33495 0
M  V30 9376 H 907.439 -4.56661 -1.44905 0
M  V30 9377 H 905.803 -2.39669 -0.862022 0
M  V30 9378 H 906.586 -3.40001 0.47475 0
M  V30 9379 N 909.032 0.252966 -1.55557 0
M  V30 9380 C 910.278 0.983306 -1.77367 0
M  V30 9381 C 910.611 1.85203 -0.584258 0
M  V30 9382 O 909.886 1.89963 0.417644 0
M  V30 9383 C 910.169 1.84896 -3.09007 0
M  V30 9384 C 910.022 1.00883 -4.38341 0
M  V30 9385 C 911.341 2.83254 -3.36831 0
M  V30 9386 H 908.46 0.356056 -0.645286 0
M  V30 9387 H 911.102 0.254232 -1.88291 0
M  V30 9388 H 909.252 2.47058 -2.99825 0
M  V30 9389 H 910.924 0.40638 -4.59507 0
M  V30 9390 H 909.167 0.31297 -4.3267 0
M  V30 9391 H 909.838 1.64818 -5.2682 0
M  V30 9392 H 912.314 2.31228 -3.45937 0
M  V30 9393 H 911.19 3.40949 -4.30169 0
M  V30 9394 H 911.451 3.59407 -2.57447 0
M  V30 9395 N 910.51 1.48831 0.518367 0
M  V30 9396 C 911.759 1.5669 1.27008 0
M  V30 9397 C 912.072 0.250934 1.93984 0
M  V30 9398 O 913.278 0.207884 2.70703 0
M  V30 9399 C 911.734 2.76387 2.30517 0
M  V30 9400 C 911.342 4.14673 1.69559 0
M  V30 9401 C 913.086 2.93566 3.06625 0
M  V30 9402 C 910.993 5.25616 2.71076 0
M  V30 9403 H 909.923 0.583362 0.477708 0
M  V30 9404 H 912.574 1.75187 0.546052 0
M  V30 9405 H 910.956 2.51348 3.06006 0
M  V30 9406 H 912.13 4.49779 1.00179 0
M  V30 9407 H 910.445 4.02708 1.05902 0
M  V30 9408 H 913.042 3.7362 3.82508 0
M  V30 9409 H 913.385 2.03462 3.63193 0
M  V30 9410 H 913.918 3.18562 2.38251 0
M  V30 9411 H 910.657 6.17723 2.19313 0
M  V30 9412 H 910.177 4.94985 3.38748 0
M  V30 9413 H 911.856 5.5422 3.3384 0
M  V30 9414 N 911.988 -0.768124 1.37614 0
M  V30 9415 C 912.938 -1.8718 1.30184 0
M  V30 9416 C 913.922 -1.59787 0.188943 0
M  V30 9417 O 915.114 -1.71855 0.423656 0
M  V30 9418 C 912.243 -3.24698 1.11471 0
M  V30 9419 C 911.329 -3.58031 2.27321 0
M  V30 9420 N 911.72 -3.6252 3.52722 0
M  V30 9421 C 910.018 -3.88216 2.19554 0
M  V30 9422 C 910.719 -3.92704 4.29137 0
M  V30 9423 N 909.695 -4.08789 3.58319 0
M  V30 9424 H 913.497 -1.88907 2.25147 0
M  V30 9425 H 911.011 -0.964753 1.30638 0
M  V30 9426 H 913.008 -4.0366 1.04233 0
M  V30 9427 H 911.668 -3.24232 0.174281 0
M  V30 9428 H 912.679 -3.44636 3.86583 0
M  V30 9429 H 909.356 -3.95551 1.33588 0
M  V30 9430 H 910.746 -4.02922 5.37683 0
M  V30 9431 N 913.466 -1.22244 -0.994698 0
M  V30 9432 C 914.714 -1.04384 -1.73056 0
M  V30 9433 C 915.035 0.422204 -1.90374 0
M  V30 9434 O 914.305 1.30383 -1.46209 0
M  V30 9435 H 912.885 -0.383263 -0.641185 0
M  V30 9436 H 915.547 -1.53725 -1.1981 0
M  V30 9437 H 914.643 -1.52021 -2.72573 0
M  V30 9438 N 914.944 1.19125 -1.03184 0
M  V30 9439 C 916.169 1.93379 -0.749628 0
M  V30 9440 C 916.594 1.75153 0.685785 0
M  V30 9441 O 915.952 1.05579 1.47386 0
M  V30 9442 C 916 3.43101 -1.1097 0
M  V30 9443 O 915.104 4.11758 -0.230053 0
M  V30 9444 H 914.445 0.603605 -0.276689 0
M  V30 9445 H 916.975 1.51116 -1.37931 0
M  V30 9446 H 916.985 3.93778 -1.06785 0
M  V30 9447 H 915.66 3.55688 -2.15544 0
M  V30 9448 H 914.237 3.7143 -0.330748 0
M  V30 9449 N 916.422 0.810101 1.35185 0
M  V30 9450 C 917.385 0.22852 2.28058 0
M  V30 9451 C 918.385 -0.586168 1.49735 0
M  V30 9452 O 919.575 -0.40414 1.69447 0
M  V30 9453 C 916.707 -0.681041 3.34028 0
M  V30 9454 H 917.9 1.04768 2.81005 0
M  V30 9455 H 915.453 0.58101 1.451 0
M  V30 9456 H 916.188 -1.52375 2.86273 0
M  V30 9457 H 915.973 -0.0985276 3.91976 0
M  V30 9458 H 917.463 -1.08217 4.03335 0
M  V30 9459 N 917.9 -1.47166 0.563914 0
M  V30 9460 C 919.149 -2.0166 0.0401871 0
M  V30 9461 C 919.462 -1.44303 -1.32046 0
M  V30 9462 O 920.668 -1.905 -1.93448 0
M  V30 9463 C 919.124 -3.59894 0.0213257 0
M  V30 9464 C 918.732 -4.26244 1.37914 0
M  V30 9465 C 920.476 -4.22114 -0.449442 0
M  V30 9466 C 918.383 -5.76503 1.31902 0
M  V30 9467 H 917.313 -0.753916 0.0112534 0
M  V30 9468 H 919.964 -1.69091 0.712766 0
M  V30 9469 H 918.346 -3.89454 -0.717038 0
M  V30 9470 H 919.52 -4.08317 2.13574 0
M  V30 9471 H 917.835 -3.76039 1.78839 0
M  V30 9472 H 920.432 -5.32234 -0.51292 0
M  V30 9473 H 920.775 -3.89749 -1.46291 0
M  V30 9474 H 921.308 -3.9711 0.23427 0
M  V30 9475 H 918.047 -6.13498 2.3087 0
M  V30 9476 H 917.567 -5.96748 0.604324 0
M  V30 9477 H 919.246 -6.38846 1.02392 0
M  V30 9478 N 919.378 -0.300708 -1.54705 0
M  V30 9479 C 920.655 0.361757 -1.92226 0
M  V30 9480 C 921.035 1.71714 -1.2279 0
M  V30 9481 O 920.383 2.2559 -0.363542 0
M  V30 9482 C 920.593 0.476699 -3.45729 0
M  V30 9483 C 921.941 0.7477 -4.17965 0
M  V30 9484 O 922.965 0.560521 -3.51762 0
M  V30 9485 O 921.824 1.10724 -5.35166 0
M  V30 9486 H 918.918 0.202213 -0.801897 0
M  V30 9487 H 921.464 -0.348746 -1.66078 0
M  V30 9488 H 920.236 -0.476132 -3.88392 0
M  V30 9489 H 919.859 1.23568 -3.77911 0
M  V30 9490 N 920.856 1.57574 -0.0284266 0
M  V30 9491 C 922.084 1.96071 0.660575 0
M  V30 9492 C 922.499 0.904881 1.65703 0
M  V30 9493 O 921.856 -0.113379 1.82147 0
M  V30 9494 C 921.907 3.34634 1.36756 0
M  V30 9495 O 921.628 4.36167 0.411041 0
M  V30 9496 C 923.129 3.87758 2.14845 0
M  V30 9497 H 920.349 0.645794 0.182183 0
M  V30 9498 H 922.893 2.04311 -0.0879858 0
M  V30 9499 H 921.048 3.27616 2.06753 0
M  V30 9500 H 921.462 5.16493 0.913 0
M  V30 9501 H 922.936 4.87058 2.59767 0
M  V30 9502 H 923.413 3.21967 2.9872 0
M  V30 9503 H 924.019 3.98043 1.49807 0
M  V30 9504 N 922.334 -0.244713 1.55689 0
M  V30 9505 C 923.562 -0.989944 1.8168 0
M  V30 9506 C 923.977 -1.78863 0.604449 0
M  V30 9507 O 923.334 -1.77437 -0.426907 0
M  V30 9508 C 923.385 -1.92607 3.05916 0
M  V30 9509 O 923.106 -1.1597 4.22472 0
M  V30 9510 C 924.607 -2.78711 3.44724 0
M  V30 9511 H 921.827 -0.2912 0.604519 0
M  V30 9512 H 924.371 -0.266938 2.0275 0
M  V30 9513 H 922.526 -2.60333 2.8689 0
M  V30 9514 H 922.94 -1.79311 4.92898 0
M  V30 9515 H 924.414 -3.40141 4.34751 0
M  V30 9516 H 924.891 -3.49935 2.6541 0
M  V30 9517 H 925.497 -2.16435 3.66109 0
M  V30 9518 N 923.813 -1.49104 -0.510467 0
M  V30 9519 C 925.053 -1.59723 -1.27545 0
M  V30 9520 C 925.417 -0.273525 -1.90042 0
M  V30 9521 O 926.618 -0.254835 -2.67589 0
M  V30 9522 C 924.889 -2.71771 -2.3211 0
M  V30 9523 S 926.448 -3.02282 -3.18074 0
M  V30 9524 H 923.266 -0.563489 -0.433591 0
M  V30 9525 H 925.868 -1.86719 -0.579328 0
M  V30 9526 H 924.572 -3.66483 -1.84711 0
M  V30 9527 H 924.103 -2.46739 -3.06404 0
M  V30 9528 H 926.118 -2.43076 -4.32583 0
M  V30 9529 N 925.291 0.760815 -1.38019 0
M  V30 9530 C 926.537 1.52198 -1.34028 0
M  V30 9531 C 926.87 1.94067 0.0718309 0
M  V30 9532 O 926.145 1.64895 1.0315 0
M  V30 9533 C 926.428 2.77954 -2.2894 0
M  V30 9534 C 926.281 2.42269 -3.7898 0
M  V30 9535 C 927.6 3.79943 -2.22107 0
M  V30 9536 H 924.719 0.552131 -0.488181 0
M  V30 9537 H 927.361 0.871971 -1.6881 0
M  V30 9538 H 925.511 3.33419 -1.9941 0
M  V30 9539 H 927.183 1.92635 -4.19153 0
M  V30 9540 H 925.426 1.74822 -3.97014 0
M  V30 9541 H 926.097 3.32211 -4.4084 0
M  V30 9542 H 928.573 3.34 -2.4816 0
M  V30 9543 H 927.449 4.6564 -2.90639 0
M  V30 9544 H 927.71 4.25004 -1.21753 0
M  V30 9545 N 926.769 1.22769 0.988202 0
M  V30 9546 C 927.719 0.969202 2.06375 0
M  V30 9547 C 928.703 -0.0819274 1.60691 0
M  V30 9548 O 929.895 0.129201 1.76528 0
M  V30 9549 C 927.024 0.553919 3.38802 0
M  V30 9550 C 926.11 1.64003 3.91106 0
M  V30 9551 N 926.501 2.86872 4.16579 0
M  V30 9552 C 924.799 1.5128 4.1956 0
M  V30 9553 C 925.5 3.57137 4.5916 0
M  V30 9554 N 924.476 2.84624 4.63131 0
M  V30 9555 H 928.278 1.90247 2.24017 0
M  V30 9556 H 925.792 1.12592 1.17033 0
M  V30 9557 H 927.789 0.350033 4.15428 0
M  V30 9558 H 926.449 -0.37239 3.22558 0
M  V30 9559 H 927.46 3.23254 4.04632 0
M  V30 9560 H 924.137 0.653032 4.12361 0
M  V30 9561 H 925.527 4.62428 4.87452 0
M  V30 9562 N 928.247 -1.18576 1.03814 0
M  V30 9563 C 929.493 -1.89032 0.750892 0
M  V30 9564 C 929.848 -1.78683 -0.713444 0
M  V30 9565 O 929.141 -1.1746 -1.51373 0
M  V30 9566 C 929.335 -3.38448 1.14837 0
M  V30 9567 C 929.164 -3.63339 2.64981 0
M  V30 9568 C 927.934 -3.80847 3.3209 0
M  V30 9569 C 930.132 -3.64131 3.63198 0
M  V30 9570 N 928.114 -3.93453 4.71241 0
M  V30 9571 C 929.485 -3.82421 4.88011 0
M  V30 9572 C 931.54 -3.47206 3.56865 0
M  V30 9573 C 930.243 -3.85538 6.0725 0
M  V30 9574 C 932.269 -3.51605 4.75529 0
M  V30 9575 C 931.631 -3.70388 5.99159 0
M  V30 9576 H 927.73 -0.710447 0.326786 0
M  V30 9577 H 930.314 -1.42444 1.32732 0
M  V30 9578 H 928.485 -3.83737 0.600058 0
M  V30 9579 H 930.217 -3.96462 0.812406 0
M  V30 9580 H 926.972 -3.80122 2.82496 0
M  V30 9581 H 927.396 -4.03584 5.43552 0
M  V30 9582 H 932.038 -3.31632 2.6226 0
M  V30 9583 H 929.756 -3.99901 7.02214 0
M  V30 9584 H 933.342 -3.39787 4.72267 0
M  V30 9585 H 932.222 -3.73679 6.89445 0
M  V30 9586 N 929.725 -0.817259 -1.34754 0
M  V30 9587 C 930.688 -0.240611 -2.27934 0
M  V30 9588 C 931.688 0.578219 -1.50044 0
M  V30 9589 O 932.878 0.395148 -1.69659 0
M  V30 9590 C 930.01 0.663318 -3.34384 0
M  V30 9591 H 931.203 -1.06257 -2.80445 0
M  V30 9592 H 928.756 -0.588697 -1.4479 0
M  V30 9593 H 929.491 1.50855 -2.87077 0
M  V30 9594 H 929.276 0.0777388 -3.92023 0
M  V30 9595 H 930.766 1.06076 -4.03903 0
M  V30 9596 N 931.203 1.46865 -0.571711 0
M  V30 9597 C 932.133 2.3298 0.155795 0
M  V30 9598 C 933.114 1.44678 0.894553 0
M  V30 9599 O 934.299 1.73513 0.872176 0
M  V30 9600 C 931.429 3.26745 1.17708 0
M  V30 9601 C 930.383 4.24401 0.553863 0
M  V30 9602 C 929.709 5.07595 1.68083 0
M  V30 9603 C 931.009 5.19884 -0.501827 0
M  V30 9604 H 932.703 2.94056 -0.563176 0
M  V30 9605 H 930.249 1.41402 -0.27228 0
M  V30 9606 H 932.202 3.85838 1.6943 0
M  V30 9607 H 930.926 2.63753 1.92618 0
M  V30 9608 H 929.585 3.66554 0.057815 0
M  V30 9609 H 929.233 4.40996 2.41933 0
M  V30 9610 H 928.933 5.73722 1.26953 0
M  V30 9611 H 930.457 5.6955 2.20103 0
M  V30 9612 H 931.871 5.73257 -0.0701057 0
M  V30 9613 H 930.268 5.94293 -0.832815 0
M  V30 9614 H 931.338 4.64482 -1.39229 0
M  V30 9615 N 932.681 0.308908 1.54543 0
M  V30 9616 C 933.906 -0.303196 2.05172 0
M  V30 9617 C 934.331 -1.46133 1.18434 0
M  V30 9618 O 933.689 -1.803 0.190162 0
M  V30 9619 C 933.737 -0.729526 3.53143 0
M  V30 9620 O 932.841 -1.83348 3.69401 0
M  V30 9621 H 932.182 -0.0575066 0.661505 0
M  V30 9622 H 934.712 0.453055 1.99521 0
M  V30 9623 H 934.722 -1.01619 3.95143 0
M  V30 9624 H 933.397 0.117622 4.15734 0
M  V30 9625 H 931.974 -1.54676 3.39308 0
M  V30 9626 N 934.159 -1.57557 0.0367827 0
M  V30 9627 C 935.399 -1.93981 -0.644252 0
M  V30 9628 C 935.763 -0.913982 -1.6885 0
M  V30 9629 O 936.964 -1.16468 -2.42257 0
M  V30 9630 C 935.235 -3.35281 -1.23779 0
M  V30 9631 S 936.794 -3.93643 -1.93883 0
M  V30 9632 H 933.612 -0.678683 -0.21192 0
M  V30 9633 H 936.214 -1.95232 0.102281 0
M  V30 9634 H 934.918 -4.07752 -0.465451 0
M  V30 9635 H 934.449 -3.37492 -2.02146 0
M  V30 9636 H 936.464 -3.777 -3.21803 0
M  V30 9637 N 935.637 0.236453 -1.55816 0
M  V30 9638 C 936.885 0.96111 -1.77784 0
M  V30 9639 C 937.206 1.85454 -0.602648 0
M  V30 9640 O 936.476 1.92157 0.381137 0
M  V30 9641 H 935.056 0.35787 -0.655697 0
M  V30 9642 H 937.718 0.251888 -1.93265 0
M  V30 9643 H 936.814 1.5767 -2.69345 0
M  V30 9644 N 937.115 1.49373 0.502552 0
M  V30 9645 C 938.531 1.36101 0.833591 0
M  V30 9646 C 938.731 0.392911 1.97632 0
M  V30 9647 O 937.787 -0.175975 2.51886 0
M  V30 9648 C 939.1 2.76782 1.17526 0
M  V30 9649 C 940.648 2.85471 1.28356 0
M  V30 9650 C 941.123 4.26915 1.65853 0
M  V30 9651 N 942.614 4.29719 1.72905 0
M  V30 9652 C 943.349 5.36127 2.0336 0
M  V30 9653 N 942.845 6.52782 2.32049 0
M  V30 9654 N 944.638 5.23542 2.04598 0
M  V30 9655 H 936.789 2.10912 -0.251008 0
M  V30 9656 H 939.052 0.946696 -0.0497037 0
M  V30 9657 H 938.758 3.49314 0.408965 0
M  V30 9658 H 938.632 3.1205 2.11907 0
M  V30 9659 H 941.019 2.13177 2.04058 0
M  V30 9660 H 941.1 2.53787 0.320304 0
M  V30 9661 H 940.744 4.99735 0.907022 0
M  V30 9662 H 940.674 4.56063 2.63276 0
M  V30 9663 H 943.165 3.45586 1.529 0
M  V30 9664 H 943.478 7.29701 2.54471 0
M  V30 9665 H 941.823 6.56011 2.29509 0
M  V30 9666 H 945.014 4.31413 1.8166 0
M  V30 9667 H 945.187 6.06565 2.27998 0
M  V30 9668 N 938.594 -0.753485 1.38421 0
M  V30 9669 C 940.01 -1.05656 1.1962 0
M  V30 9670 C 940.21 -2.0145 0.0449443 0
M  V30 9671 O 939.266 -2.45039 -0.609253 0
M  V30 9672 C 940.579 -1.63655 2.52265 0
M  V30 9673 C 942.127 -1.75825 2.58949 0
M  V30 9674 C 942.602 -2.37236 3.91769 0
M  V30 9675 N 944.093 -2.44666 3.9331 0
M  V30 9676 C 944.828 -2.93077 4.92842 0
M  V30 9677 N 944.324 -3.41523 6.02772 0
M  V30 9678 N 946.117 -2.92118 4.80232 0
M  V30 9679 H 938.268 -0.117799 2.12073 0
M  V30 9680 H 940.531 -0.114889 0.941012 0
M  V30 9681 H 940.237 -1.00734 3.36965 0
M  V30 9682 H 940.111 -2.62715 2.70667 0
M  V30 9683 H 942.498 -2.37873 1.74644 0
M  V30 9684 H 942.579 -0.754693 2.44414 0
M  V30 9685 H 942.223 -1.75822 4.76497 0
M  V30 9686 H 942.153 -3.38233 4.03616 0
M  V30 9687 H 944.644 -2.10403 3.1391 0
M  V30 9688 H 944.957 -3.76919 6.74649 0
M  V30 9689 H 943.302 -3.3958 6.06391 0
M  V30 9690 H 946.493 -2.53582 3.93464 0
M  V30 9691 H 946.666 -3.29535 5.57952 0
M  V30 9692 N 940.072 -1.23292 -0.981677 0
M  V30 9693 C 941.035 -1.01417 -2.05542 0
M  V30 9694 C 942.035 0.0235354 -1.60783 0
M  V30 9695 O 943.225 -0.216082 -1.72855 0
M  V30 9696 C 940.357 -0.534239 -3.36688 0
M  V30 9697 H 941.55 -1.96702 -2.26381 0
M  V30 9698 H 939.103 -1.05318 -1.1549 0
M  V30 9699 H 939.838 0.422452 -3.21537 0
M  V30 9700 H 939.623 -1.28304 -3.70514 0
M  V30 9701 H 941.113 -0.40179 -4.15663 0
M  V30 9702 N 941.55 1.18024 -1.04442 0
M  V30 9703 C 942.796 1.88377 -0.751133 0
M  V30 9704 C 943.129 1.80377 0.719571 0
M  V30 9705 O 942.404 1.20662 1.52548 0
M  V30 9706 C 942.687 3.38708 -1.22265 0
M  V30 9707 C 942.54 3.55499 -2.75574 0
M  V30 9708 C 943.859 4.32475 -0.815688 0
M  V30 9709 H 940.978 0.684037 -0.27434 0
M  V30 9710 H 943.62 1.38837 -1.29709 0
M  V30 9711 H 941.77 3.8103 -0.758192 0
M  V30 9712 H 943.442 3.22244 -3.30086 0
M  V30 9713 H 941.685 2.98028 -3.15217 0
M  V30 9714 H 942.356 4.60994 -3.03625 0
M  V30 9715 H 944.832 3.97953 -1.21542 0
M  V30 9716 H 943.708 5.36213 -1.17331 0
M  V30 9717 H 943.969 4.41207 0.280901 0
M  V30 9718 N 943.028 0.824394 1.34319 0
M  V30 9719 C 944.268 0.419044 2.00058 0
M  V30 9720 C 944.632 -0.999504 1.63933 0
M  V30 9721 O 945.833 -1.50781 2.22527 0
M  V30 9722 C 944.104 0.616897 3.52036 0
M  V30 9723 S 945.663 0.304614 4.37741 0
M  V30 9724 H 942.481 0.158265 0.693162 0
M  V30 9725 H 945.083 1.07053 1.63585 0
M  V30 9726 H 943.787 1.64896 3.75816 0
M  V30 9727 H 943.318 -0.0492693 3.93369 0
M  V30 9728 H 945.333 -0.88114 4.88314 0
M  V30 9729 N 944.506 -1.46559 0.579492 0
M  V30 9730 C 945.922 -1.57771 0.240921 0
M  V30 9731 C 946.122 -1.57505 -1.25676 0
M  V30 9732 O 945.178 -1.4903 -2.03829 0
M  V30 9733 C 946.491 -2.87311 0.887285 0
M  V30 9734 C 948.039 -3.00937 0.860576 0
M  V30 9735 C 948.514 -4.33208 1.48642 0
M  V30 9736 N 950.005 -4.39899 1.45062 0
M  V30 9737 C 950.74 -5.40856 1.90428 0
M  V30 9738 N 950.236 -6.48503 2.43752 0
M  V30 9739 N 952.029 -5.32037 1.81364 0
M  V30 9740 H 944.18 -1.44976 1.55228 0
M  V30 9741 H 946.443 -0.691354 0.648639 0
M  V30 9742 H 946.149 -2.93307 1.94071 0
M  V30 9743 H 946.023 -3.75141 0.393577 0
M  V30 9744 H 948.41 -2.94524 -0.184223 0
M  V30 9745 H 948.491 -2.14591 1.39227 0
M  V30 9746 H 948.135 -4.40378 2.5304 0
M  V30 9747 H 948.065 -5.18323 0.92998 0
M  V30 9748 H 950.556 -3.62706 1.0608 0
M  V30 9749 H 950.869 -7.21744 2.76234 0
M  V30 9750 H 949.214 -6.49332 2.47776 0
M  V30 9751 H 952.405 -4.46841 1.39465 0
M  V30 9752 H 952.578 -6.10573 2.17035 0
M  V30 9753 N 945.984 -0.3171 -1.54377 0
M  V30 9754 C 947.214 0.289138 -2.04567 0
M  V30 9755 C 947.622 1.46833 -1.19318 0
M  V30 9756 O 946.965 1.82436 -0.215141 0
M  V30 9757 C 947.027 0.792994 -3.50645 0
M  V30 9758 C 946.691 -0.263033 -4.56242 0
M  V30 9759 C 947.688 -1.09694 -5.08196 0
M  V30 9760 C 945.373 -0.409364 -5.00629 0
M  V30 9761 C 947.367 -2.06297 -6.03092 0
M  V30 9762 C 945.054 -1.37882 -5.95342 0
M  V30 9763 C 946.052 -2.20409 -6.46459 0
M  V30 9764 O 945.74 -3.15708 -7.39313 0
M  V30 9765 H 945.472 0.0644005 -0.672925 0
M  V30 9766 H 948.026 -0.459438 -2.00196 0
M  V30 9767 H 946.256 1.59237 -3.52392 0
M  V30 9768 H 947.945 1.31687 -3.83944 0
M  V30 9769 H 948.711 -0.994842 -4.74687 0
M  V30 9770 H 944.59 0.223091 -4.6046 0
M  V30 9771 H 948.134 -2.70751 -6.42915 0
M  V30 9772 H 944.031 -1.48158 -6.28267 0
M  V30 9773 H 944.799 -3.10873 -7.57166 0
M  V30 9774 N 947.462 1.57535 -0.0451378 0
M  V30 9775 C 948.692 1.96476 0.638814 0
M  V30 9776 C 949.1 0.921056 1.65267 0
M  V30 9777 O 948.443 -0.103843 1.83406 0
M  V30 9778 C 948.505 3.31629 1.38788 0
M  V30 9779 C 948.169 4.5391 0.530545 0
M  V30 9780 C 949.166 5.19512 -0.200864 0
M  V30 9781 C 946.851 5.00159 0.463242 0
M  V30 9782 C 948.845 6.29695 -0.988078 0
M  V30 9783 C 946.532 6.10221 -0.327665 0
M  V30 9784 C 947.53 6.74849 -1.05202 0
M  V30 9785 O 947.218 7.82795 -1.82993 0
M  V30 9786 H 946.95 0.651625 0.17989 0
M  V30 9787 H 949.504 2.05126 -0.106031 0
M  V30 9788 H 947.734 3.19516 2.17822 0
M  V30 9789 H 949.423 3.5536 1.96148 0
M  V30 9790 H 950.189 4.84742 -0.158299 0
M  V30 9791 H 946.068 4.49651 1.01663 0
M  V30 9792 H 949.612 6.80072 -1.55397 0
M  V30 9793 H 945.509 6.44428 -0.37189 0
M  V30 9794 H 946.277 7.99542 -1.7514 0
M  V30 9795 N 948.94 -0.228186 1.55939 0
M  V30 9796 C 949.888 -1.30239 1.92719 0
M  V30 9797 C 950.882 -1.48865 0.808424 0
M  V30 9798 O 952.088 -1.50118 0.993204 0
M  V30 9799 H 948.463 -0.436509 0.612343 0
M  V30 9800 H 950.434 -0.964965 2.82367 0
M  V30 9801 C 949.183 -2.647 2.25453 0
M  V30 9802 H 948.506 -2.51173 3.1105 0
M  V30 9803 H 949.946 -3.38691 2.55077 0
M  V30 9804 C 948.405 -3.1921 1.07734 0
M  V30 9805 O 948.935 -4.00301 0.335019 0
M  V30 9806 N 947.141 -2.77492 0.862938 0
M  V30 9807 H 946.688 -2.11657 1.4683 0
M  V30 9808 H 946.646 -3.14306 0.0770119 0
M  V30 9809 N 950.418 -1.49637 -0.494624 0
M  V30 9810 C 951.366 -1.6727 -1.61627 0
M  V30 9811 C 952.36 -0.538587 -1.6061 0
M  V30 9812 O 953.566 -0.718411 -1.65042 0
M  V30 9813 H 949.941 -0.527557 -0.535899 0
M  V30 9814 H 951.912 -2.61405 -1.43909 0
M  V30 9815 C 950.661 -1.7624 -2.99725 0
M  V30 9816 H 949.984 -2.62886 -3.01216 0
M  V30 9817 H 951.424 -1.92611 -3.77726 0
M  V30 9818 C 949.883 -0.508632 -3.33038 0
M  V30 9819 O 950.413 0.362828 -4.00058 0
M  V30 9820 N 948.619 -0.369667 -2.88239 0
M  V30 9821 H 948.166 -1.07984 -2.33875 0
M  V30 9822 H 948.124 0.468112 -3.10896 0
M  V30 9823 N 951.896 0.746133 -1.38819 0
M  V30 9824 C 953.173 1.49652 -1.25951 0
M  V30 9825 C 953.553 2.10663 0.135833 0
M  V30 9826 O 952.901 1.97682 1.14604 0
M  V30 9827 C 953.111 2.5569 -2.37537 0
M  V30 9828 C 954.459 3.22385 -2.76321 0
M  V30 9829 O 955.483 2.65998 -2.36904 0
M  V30 9830 O 954.342 4.2439 -3.44319 0
M  V30 9831 H 951.436 0.664019 -0.492958 0
M  V30 9832 H 953.982 0.780908 -1.50665 0
M  V30 9833 H 952.754 2.08908 -3.30867 0
M  V30 9834 H 952.377 3.34823 -2.14427 0
M  V30 9835 N 953.375 1.23811 0.975125 0
M  V30 9836 C 954.305 1.04846 2.08638 0
M  V30 9837 C 955.286 -0.0362859 1.70061 0
M  V30 9838 O 956.471 0.12937 1.93769 0
M  V30 9839 C 953.601 0.644534 3.41267 0
M  V30 9840 C 952.555 1.67722 3.93768 0
M  V30 9841 C 951.881 1.12857 5.22654 0
M  V30 9842 C 953.181 3.07147 4.22443 0
M  V30 9843 H 954.875 1.97795 2.24761 0
M  V30 9844 H 952.421 0.952397 1.08006 0
M  V30 9845 H 954.374 0.498887 4.18436 0
M  V30 9846 H 953.098 -0.320641 3.25022 0
M  V30 9847 H 951.757 1.81095 3.18748 0
M  V30 9848 H 951.405 0.154227 5.02764 0
M  V30 9849 H 951.105 1.81862 5.58749 0
M  V30 9850 H 952.629 0.994891 6.0244 0
M  V30 9851 H 954.043 2.97045 4.90344 0
M  V30 9852 H 952.44 3.73437 4.6975 0
M  V30 9853 H 953.51 3.55743 3.29507 0
M  V30 9854 N 954.853 -1.17469 1.05066 0
M  V30 9855 C 955.783 -2.23635 0.671552 0
M  V30 9856 C 956.764 -1.66867 -0.33006 0
M  V30 9857 O 957.949 -1.93084 -0.207933 0
M  V30 9858 C 955.079 -3.47272 0.0441845 0
M  V30 9859 C 954.033 -4.16854 0.97042 0
M  V30 9860 C 953.359 -5.34299 0.206998 0
M  V30 9861 C 954.659 -4.69225 2.29401 0
M  V30 9862 H 956.353 -2.55602 1.55911 0
M  V30 9863 H 953.899 -1.2286 0.751101 0
M  V30 9864 H 955.852 -4.20756 -0.23282 0
M  V30 9865 H 954.576 -3.14568 -0.878311 0
M  V30 9866 H 953.235 -3.4528 1.23197 0
M  V30 9867 H 952.883 -4.97846 -0.718222 0
M  V30 9868 H 952.583 -5.81792 0.82416 0
M  V30 9869 H 954.107 -6.10568 -0.0627525 0
M  V30 9870 H 955.521 -5.34353 2.077 0
M  V30 9871 H 953.918 -5.27291 2.86503 0
M  V30 9872 H 954.988 -3.86102 2.93348 0
M  V30 9873 N 956.331 -0.831506 -1.3388 0
M  V30 9874 C 957.747 -0.518349 -1.50948 0
M  V30 9875 C 957.947 0.955807 -1.77388 0
M  V30 9876 O 957.003 1.73993 -1.82983 0
M  V30 9877 C 958.316 -1.38531 -2.66889 0
M  V30 9878 C 959.864 -1.38332 -2.80772 0
M  V30 9879 C 960.339 -2.23497 -3.99766 0
M  V30 9880 N 961.83 -2.21167 -4.06988 0
M  V30 9881 C 962.565 -2.83805 -4.98239 0
M  V30 9882 N 962.061 -3.55468 -5.94655 0
M  V30 9883 N 963.854 -2.73314 -4.91178 0
M  V30 9884 H 956.005 -1.78588 -1.14978 0
M  V30 9885 H 958.268 -0.761508 -0.564633 0
M  V30 9886 H 957.974 -2.43255 -2.54007 0
M  V30 9887 H 957.848 -1.05611 -3.62114 0
M  V30 9888 H 960.235 -0.343832 -2.9309 0
M  V30 9889 H 960.316 -1.75256 -1.86331 0
M  V30 9890 H 959.96 -3.27501 -3.88208 0
M  V30 9891 H 959.89 -1.83919 -4.93438 0
M  V30 9892 H 962.381 -1.69046 -3.37982 0
M  V30 9893 H 962.694 -4.00487 -6.60931 0
M  V30 9894 H 961.039 -3.59575 -5.94753 0
M  V30 9895 H 964.23 -2.16897 -4.14817 0
M  V30 9896 H 964.403 -3.22416 -5.62096 0
M  V30 9897 N 957.809 1.4625 -0.587256 0
M  V30 9898 C 958.757 2.32076 0.156108 0
M  V30 9899 C 959.751 1.44756 0.879887 0
M  V30 9900 O 960.957 1.61356 0.797759 0
M  V30 9901 H 957.332 0.748808 0.0692098 0
M  V30 9902 H 959.303 2.9258 -0.586497 0
M  V30 9903 C 958.052 3.28008 1.15352 0
M  V30 9904 H 957.375 3.9518 0.60601 0
M  V30 9905 H 958.815 3.90832 1.64396 0
M  V30 9906 C 957.274 2.53691 2.21681 0
M  V30 9907 O 957.804 2.30329 3.29107 0
M  V30 9908 N 956.01 2.14174 1.96412 0
M  V30 9909 H 955.557 2.33374 1.09061 0
M  V30 9910 H 955.515 1.6477 2.67765 0
M  V30 9911 N 959.287 0.325282 1.54207 0
M  V30 9912 C 960.703 -0.0273036 1.59577 0
M  V30 9913 C 960.903 -1.50329 1.34177 0
M  V30 9914 O 959.959 -2.25951 1.12705 0
M  V30 9915 C 961.272 0.392468 2.98128 0
M  V30 9916 C 962.82 0.343269 3.11112 0
M  V30 9917 C 963.295 0.738229 4.52011 0
M  V30 9918 N 964.786 0.691701 4.58006 0
M  V30 9919 C 965.521 0.969479 5.65145 0
M  V30 9920 N 965.017 1.31448 6.80216 0
M  V30 9921 N 966.81 0.894926 5.5493 0
M  V30 9922 H 958.961 1.28692 1.68974 0
M  V30 9923 H 961.224 0.523399 0.790416 0
M  V30 9924 H 960.93 1.42089 3.2172 0
M  V30 9925 H 960.804 -0.241651 3.76425 0
M  V30 9926 H 963.191 -0.675946 2.87254 0
M  V30 9927 H 963.272 1.01235 2.34915 0
M  V30 9928 H 962.916 1.75537 4.76602 0
M  V30 9929 H 962.846 0.0468226 5.26579 0
M  V30 9930 H 965.337 0.436975 3.75365 0
M  V30 9931 H 965.65 1.51177 7.57869 0
M  V30 9932 H 963.995 1.35276 6.81708 0
M  V30 9933 H 967.186 0.624876 4.6391 0
M  V30 9934 H 967.359 1.11476 6.38339 0
M  V30 9935 N 960.765 -1.57509 0.0534917 0
M  V30 9936 C 962.012 -1.92782 -0.619772 0
M  V30 9937 C 962.34 -0.932046 -1.70714 0
M  V30 9938 O 961.595 0.0552891 -1.95622 0
M  V30 9939 C 961.894 -3.34734 -1.25251 0
M  V30 9940 C 961.56 -4.49946 -0.293113 0
M  V30 9941 C 960.222 -4.81191 -0.0291223 0
M  V30 9942 C 962.574 -5.19925 0.364271 0
M  V30 9943 C 959.902 -5.79761 0.899649 0
M  V30 9944 C 962.254 -6.19489 1.28125 0
M  V30 9945 C 960.918 -6.49161 1.55389 0
M  V30 9946 H 960.188 -0.705441 -0.226791 0
M  V30 9947 H 962.835 -1.91121 0.120466 0
M  V30 9948 H 961.14 -3.32774 -2.06807 0
M  V30 9949 H 962.837 -3.59308 -1.78042 0
M  V30 9950 H 959.427 -4.25566 -0.509053 0
M  V30 9951 H 963.611 -4.95997 0.173411 0
M  V30 9952 H 958.867 -6.01085 1.11833 0
M  V30 9953 H 963.041 -6.72824 1.79669 0
M  V30 9954 H 960.668 -7.25354 2.2752 0
M  V30 9955 N 962.243 0.219913 -1.56058 0
M  V30 9956 C 963.492 0.942119 -1.78345 0
M  V30 9957 C 963.805 1.85435 -0.622344 0
M  V30 9958 O 965.011 2.61533 -0.728886 0
M  V30 9959 C 963.467 1.72544 -3.15843 0
M  V30 9960 C 963.075 0.859263 -4.39682 0
M  V30 9961 C 964.819 2.43876 -3.47455 0
M  V30 9962 C 962.726 1.64003 -5.68205 0
M  V30 9963 H 961.656 0.355514 -0.664925 0
M  V30 9964 H 964.307 0.195963 -1.82451 0
M  V30 9965 H 962.689 2.51456 -3.05918 0
M  V30 9966 H 963.863 0.110562 -4.60667 0
M  V30 9967 H 962.178 0.257985 -4.156 0
M  V30 9968 H 964.775 3.02794 -4.40704 0
M  V30 9969 H 965.118 3.16843 -2.7003 0
M  V30 9970 H 965.651 1.71952 -3.58716 0
M  V30 9971 H 962.39 0.953606 -6.48526 0
M  V30 9972 H 961.91 2.3633 -5.51279 0
M  V30 9973 H 963.589 2.20028 -6.08438 0
M  V30 9974 N 963.721 1.49897 0.486681 0
M  V30 9975 C 964.969 1.59789 1.23742 0
M  V30 9976 C 965.29 0.293056 1.92785 0
M  V30 9977 O 964.56 -0.688534 1.83401 0
M  V30 9978 H 963.14 0.588775 0.459731 0
M  V30 9979 H 965.802 1.86597 0.562808 0
M  V30 9980 H 964.898 2.40121 1.9937 0
M  V30 9981 N 965.199 -0.738761 1.39212 0
M  V30 9982 C 966.129 -1.86602 1.40364 0
M  V30 9983 C 967.11 -1.67984 0.267495 0
M  V30 9984 O 968.295 -1.88358 0.472765 0
M  V30 9985 C 965.425 -3.24308 1.24265 0
M  V30 9986 C 964.379 -3.57557 2.35239 0
M  V30 9987 C 963.705 -4.94159 2.04233 0
M  V30 9988 C 965.005 -3.60914 3.77543 0
M  V30 9989 H 966.699 -1.85896 2.34698 0
M  V30 9990 H 964.245 -0.892959 1.1297 0
M  V30 9991 H 966.198 -4.02838 1.23692 0
M  V30 9992 H 964.922 -3.25531 0.263974 0
M  V30 9993 H 963.581 -2.81354 2.35022 0
M  V30 9994 H 963.229 -4.91959 1.04813 0
M  V30 9995 H 962.929 -5.17373 2.78567 0
M  V30 9996 H 964.453 -5.7505 2.05303 0
M  V30 9997 H 965.867 -4.29528 3.79709 0
M  V30 9998 H 964.264 -3.95644 4.51205 0
M  V30 9999 H 965.334 -2.60803 4.08791 0
M  V30 10000 N 966.677 -1.24326 -0.968545 0
M  V30 10001 C 967.609 -0.992749 -2.06584 0
M  V30 10002 C 968.622 0.0374902 -1.62757 0
M  V30 10003 O 969.811 -0.199448 -1.77382 0
M  V30 10004 C 966.911 -0.476165 -3.35538 0
M  V30 10005 C 966.084 -1.56934 -4.08277 0
M  V30 10006 C 965.143 -1.05555 -5.15504 0
M  V30 10007 O 964.169 -1.74707 -5.41725 0
M  V30 10008 N 965.371 0.110465 -5.80395 0
M  V30 10009 H 968.136 -1.93752 -2.28649 0
M  V30 10010 H 965.697 -1.15344 -1.13611 0
M  V30 10011 H 967.689 -0.117223 -4.0453 0
M  V30 10012 H 966.259 0.374315 -3.10351 0
M  V30 10013 H 965.479 -2.10051 -3.33575 0
M  V30 10014 H 966.767 -2.30415 -4.53637 0
M  V30 10015 H 966.165 0.688614 -5.61493 0
M  V30 10016 H 964.722 0.41056 -6.50506 0
M  V30 10017 N 968.156 1.1691 -1.05688 0
M  V30 10018 C 969.403 1.87292 -0.76993 0
M  V30 10019 C 969.731 1.81339 0.703295 0
M  V30 10020 O 968.986 1.21959 1.5305 0
M  V30 10021 C 969.285 3.36578 -1.20207 0
M  V30 10022 C 968.951 3.62732 -2.67836 0
M  V30 10023 C 967.613 3.69579 -3.08163 0
M  V30 10024 C 969.965 3.73803 -3.63209 0
M  V30 10025 C 967.293 3.84992 -4.42717 0
M  V30 10026 C 969.645 3.90735 -4.97503 0
M  V30 10027 C 968.309 3.95823 -5.37476 0
M  V30 10028 H 967.579 0.68535 -0.281737 0
M  V30 10029 H 970.226 1.38274 -1.32486 0
M  V30 10030 H 968.531 3.87687 -0.566222 0
M  V30 10031 H 970.228 3.89409 -0.957183 0
M  V30 10032 H 966.818 3.58031 -2.35609 0
M  V30 10033 H 971.002 3.67829 -3.3319 0
M  V30 10034 H 966.258 3.87181 -4.73182 0
M  V30 10035 H 970.432 3.98243 -5.71293 0
M  V30 10036 H 968.059 4.07518 -6.41742 0
M  V30 10037 N 969.634 0.838594 1.33437 0
M  V30 10038 C 970.881 0.434169 1.97791 0
M  V30 10039 C 971.209 -1.00652 1.66431 0
M  V30 10040 O 970.464 -1.71848 0.936309 0
M  V30 10041 C 970.763 0.601425 3.52303 0
M  V30 10042 C 970.429 2.01017 4.03612 0
M  V30 10043 C 969.091 2.39551 4.17336 0
M  V30 10044 C 971.443 2.93035 4.31022 0
M  V30 10045 C 968.771 3.69406 4.55802 0
M  V30 10046 C 971.123 4.22372 4.7094 0
M  V30 10047 C 969.787 4.60862 4.82869 0
M  V30 10048 H 969.057 0.158874 0.723768 0
M  V30 10049 H 971.704 1.06556 1.59116 0
M  V30 10050 H 970.009 -0.113284 3.91636 0
M  V30 10051 H 971.706 0.268798 4.00098 0
M  V30 10052 H 968.296 1.7009 3.93405 0
M  V30 10053 H 972.48 2.64503 4.19943 0
M  V30 10054 H 967.736 3.99033 4.63231 0
M  V30 10055 H 971.91 4.93749 4.91106 0
M  V30 10056 H 969.537 5.6153 5.12433 0
M  V30 10057 N 971.112 -1.45937 0.595003 0
M  V30 10058 C 972.359 -2.0232 0.0853053 0
M  V30 10059 C 972.687 -1.465 -1.27937 0
M  V30 10060 O 971.942 -0.624767 -1.85459 0
M  V30 10061 C 972.241 -3.57396 -0.0173747 0
M  V30 10062 C 971.907 -4.32311 1.28131 0
M  V30 10063 C 970.569 -4.52496 1.63708 0
M  V30 10064 C 972.921 -4.75233 2.14017 0
M  V30 10065 C 970.249 -5.12857 2.84947 0
M  V30 10066 C 972.601 -5.36933 3.34493 0
M  V30 10067 C 971.265 -5.55343 3.70338 0
M  V30 10068 H 970.535 -0.740342 0.0312154 0
M  V30 10069 H 973.182 -1.75157 0.774103 0
M  V30 10070 H 971.487 -3.83766 -0.789371 0
M  V30 10071 H 973.184 -3.98713 -0.427699 0
M  V30 10072 H 969.774 -4.16905 0.994374 0
M  V30 10073 H 973.958 -4.59383 1.87833 0
M  V30 10074 H 969.214 -5.253 3.12841 0
M  V30 10075 H 973.388 -5.69147 4.01304 0
M  V30 10076 H 971.015 -6.01883 4.64371 0
M  V30 10077 N 972.59 -0.333456 -1.54032 0
M  V30 10078 C 973.537 0.527981 -2.2468 0
M  V30 10079 C 974.507 1.10371 -1.24127 0
M  V30 10080 O 975.692 1.14221 -1.52834 0
M  V30 10081 C 972.832 1.67808 -3.01553 0
M  V30 10082 C 971.945 1.13064 -4.16942 0
M  V30 10083 C 971.08 2.24722 -4.81325 0
M  V30 10084 C 970.119 1.67277 -5.88799 0
M  V30 10085 N 969.256 2.72638 -6.47003 0
M  V30 10086 H 974.096 -0.0810308 -2.9789 0
M  V30 10087 H 971.633 -0.051761 -1.47009 0
M  V30 10088 H 973.591 2.35502 -3.44376 0
M  V30 10089 H 972.221 2.25823 -2.30659 0
M  V30 10090 H 971.273 0.344948 -3.78833 0
M  V30 10091 H 972.585 0.670373 -4.94275 0
M  V30 10092 H 971.739 3.00301 -5.27166 0
M  V30 10093 H 970.478 2.74089 -4.03394 0
M  V30 10094 H 969.483 0.902002 -5.4235 0
M  V30 10095 H 970.708 1.18775 -6.68632 0
M  V30 10096 H 968.654 3.21277 -5.71941 0
M  V30 10097 H 968.571 2.31204 -7.19778 0
M  V30 10098 H 969.839 3.48015 -6.97499 0
M  V30 10099 N 974.068 1.57479 -0.061844 0
M  V30 10100 C 975.296 1.97429 0.618837 0
M  V30 10101 C 975.711 0.939826 1.63746 0
M  V30 10102 O 975.068 -0.0747173 1.82347 0
M  V30 10103 C 975.119 3.3746 1.29628 0
M  V30 10104 O 974.84 4.36941 0.318431 0
M  V30 10105 C 976.341 3.92228 2.06572 0
M  V30 10106 H 973.561 0.649513 0.168444 0
M  V30 10107 H 976.105 2.04078 -0.131303 0
M  V30 10108 H 974.26 3.31928 1.99757 0
M  V30 10109 H 974.674 5.18313 0.803239 0
M  V30 10110 H 976.148 4.92458 2.49377 0
M  V30 10111 H 976.625 3.28231 2.91824 0
M  V30 10112 H 977.231 4.01131 1.4133 0
M  V30 10113 N 975.546 -0.211634 1.56173 0
M  V30 10114 C 976.794 -0.932704 1.7929 0
M  V30 10115 C 977.115 -1.84472 0.632076 0
M  V30 10116 O 976.385 -1.92739 -0.350519 0
M  V30 10117 H 974.965 -0.347393 0.661307 0
M  V30 10118 H 977.627 -0.22111 1.93642 0
M  V30 10119 H 976.723 -1.53365 2.71819 0
M  V30 10120 N 977.024 -1.50153 -0.478725 0
M  V30 10121 C 978.249 -1.64776 -1.2595 0
M  V30 10122 C 978.674 -0.327794 -1.85222 0
M  V30 10123 O 978.032 0.707418 -1.66929 0
M  V30 10124 C 978.08 -2.73551 -2.34952 0
M  V30 10125 O 977.184 -2.34273 -3.39397 0
M  V30 10126 H 976.525 -0.550769 -0.370877 0
M  V30 10127 H 979.055 -1.96482 -0.570605 0
M  V30 10128 H 979.065 -2.96397 -2.8038 0
M  V30 10129 H 977.74 -3.69354 -1.91181 0
M  V30 10130 H 976.317 -2.21844 -2.99733 0
M  V30 10131 N 978.502 0.731368 -1.39602 0
M  V30 10132 C 979.748 1.49321 -1.37227 0
M  V30 10133 C 980.081 1.94176 0.0306502 0
M  V30 10134 O 979.356 1.67046 0.996294 0
M  V30 10135 C 979.639 2.73035 -2.34784 0
M  V30 10136 C 979.492 2.34176 -3.84033 0
M  V30 10137 C 980.811 3.75146 -2.30116 0
M  V30 10138 H 977.93 0.541652 -0.499783 0
M  V30 10139 H 980.572 0.835968 -1.70621 0
M  V30 10140 H 978.722 3.29114 -2.06437 0
M  V30 10141 H 980.394 1.83701 -4.23145 0
M  V30 10142 H 978.637 1.66361 -4.00633 0
M  V30 10143 H 979.308 3.22786 -4.47787 0
M  V30 10144 H 981.784 3.28661 -2.55189 0
M  V30 10145 H 980.66 4.5937 -3.00451 0
M  V30 10146 H 980.921 4.22326 -1.30741 0
M  V30 10147 N 979.98 1.24838 0.961938 0
M  V30 10148 C 981.229 1.0855 1.69999 0
M  V30 10149 C 981.542 -0.374645 1.91979 0
M  V30 10150 O 982.748 -0.657822 2.6341 0
M  V30 10151 C 981.204 1.89424 3.06017 0
M  V30 10152 C 980.812 3.39885 2.9186 0
M  V30 10153 C 982.556 1.81684 3.83655 0
M  V30 10154 C 980.463 4.13082 4.23223 0
M  V30 10155 H 979.393 0.402603 0.637516 0
M  V30 10156 H 982.044 1.4897 1.07146 0
M  V30 10157 H 980.426 1.41823 3.69733 0
M  V30 10158 H 981.6 3.95108 2.37121 0
M  V30 10159 H 979.915 3.4864 2.27683 0
M  V30 10160 H 982.512 2.3367 4.80939 0
M  V30 10161 H 982.855 0.783247 4.08865 0
M  V30 10162 H 983.388 2.26997 3.26676 0
M  V30 10163 H 980.127 5.16824 4.03204 0
M  V30 10164 H 979.647 3.62644 4.77755 0
M  V30 10165 H 981.326 4.20397 4.91808 0
M  V30 10166 N 981.458 -1.16348 1.06306 0
M  V30 10167 C 982.698 -1.88556 0.789055 0
M  V30 10168 C 983.062 -1.79849 -0.672179 0
M  V30 10169 O 984.263 -2.46984 -1.06078 0
M  V30 10170 C 982.534 -3.34069 1.27016 0
M  V30 10171 S 984.093 -4.24128 1.12522 0
M  V30 10172 H 980.911 -0.65084 0.286232 0
M  V30 10173 H 983.513 -1.40443 1.36 0
M  V30 10174 H 982.217 -3.37944 2.32856 0
M  V30 10175 H 981.748 -3.87231 0.693963 0
M  V30 10176 H 983.763 -4.96168 0.0562142 0
M  V30 10177 N 982.937 -0.845659 -1.3299 0
M  V30 10178 C 984.184 -0.444653 -1.97558 0
M  V30 10179 C 984.512 0.997682 -1.66963 0
M  V30 10180 O 983.767 1.71349 -0.94541 0
M  V30 10181 C 984.066 -0.6201 -3.51979 0
M  V30 10182 C 983.732 -2.03155 -4.02541 0
M  V30 10183 C 982.394 -2.4176 -4.16059 0
M  V30 10184 C 984.746 -2.95317 -4.29462 0
M  V30 10185 C 982.074 -3.71818 -4.53837 0
M  V30 10186 C 984.426 -4.24863 -4.68694 0
M  V30 10187 C 983.09 -4.63416 -4.80419 0
M  V30 10188 H 982.36 -0.16271 -0.722915 0
M  V30 10189 H 985.007 -1.07399 -1.58549 0
M  V30 10190 H 983.312 0.092513 -3.91691 0
M  V30 10191 H 985.009 -0.290012 -3.9995 0
M  V30 10192 H 981.599 -1.72174 -3.92497 0
M  V30 10193 H 985.783 -2.66726 -4.18534 0
M  V30 10194 H 981.039 -4.01484 -4.61108 0
M  V30 10195 H 985.213 -4.96347 -4.8848 0
M  V30 10196 H 982.84 -5.6424 -5.09448 0
M  V30 10197 N 984.415 1.45619 -0.602734 0
M  V30 10198 C 985.378 2.28941 0.108962 0
M  V30 10199 C 986.378 1.39501 0.799762 0
M  V30 10200 O 987.568 1.61673 0.648663 0
M  V30 10201 C 984.7 3.204 1.16432 0
M  V30 10202 H 985.893 2.93346 -0.623534 0
M  V30 10203 H 983.446 1.52061 -0.361565 0
M  V30 10204 H 984.181 2.60785 1.92774 0
M  V30 10205 H 983.966 3.86277 0.673248 0
M  V30 10206 H 985.456 3.83063 1.6629 0
M  V30 10207 N 985.893 0.34162 1.53853 0
M  V30 10208 C 986.823 -0.508431 2.27897 0
M  V30 10209 C 987.804 -1.10425 1.29384 0
M  V30 10210 O 988.989 -1.126 1.58224 0
M  V30 10211 C 986.119 -1.66048 3.05034 0
M  V30 10212 C 985.073 -1.19309 4.11035 0
M  V30 10213 C 984.399 -2.4335 4.76114 0
M  V30 10214 C 985.699 -0.294952 5.21467 0
M  V30 10215 H 987.393 0.109251 2.99201 0
M  V30 10216 H 984.939 0.0539847 1.43899 0
M  V30 10217 H 986.892 -2.26158 3.5557 0
M  V30 10218 H 985.616 -2.30503 2.31379 0
M  V30 10219 H 984.275 -0.614809 3.61408 0
M  V30 10220 H 983.923 -3.06208 3.99056 0
M  V30 10221 H 983.623 -2.1276 5.47729 0
M  V30 10222 H 985.147 -3.0419 5.29434 0
M  V30 10223 H 986.561 -0.80285 5.67651 0
M  V30 10224 H 984.958 -0.0810221 6.00045 0
M  V30 10225 H 986.028 0.669433 4.80257 0
M  V30 10226 N 987.371 -1.57444 0.0701946 0
M  V30 10227 C 988.617 -1.93716 -0.600178 0
M  V30 10228 C 988.95 -0.950329 -1.69359 0
M  V30 10229 O 988.225 0.0207123 -1.94489 0
M  V30 10230 C 988.508 -3.40266 -1.17861 0
M  V30 10231 C 988.361 -4.49706 -0.0919575 0
M  V30 10232 C 989.68 -3.87599 -2.08459 0
M  V30 10233 H 986.799 -0.704421 -0.216704 0
M  V30 10234 H 989.441 -1.89514 0.135838 0
M  V30 10235 H 987.591 -3.43977 -1.80587 0
M  V30 10236 H 989.263 -4.58116 0.541031 0
M  V30 10237 H 987.506 -4.29937 0.577639 0
M  V30 10238 H 988.177 -5.49381 -0.537048 0
M  V30 10239 H 990.653 -3.85883 -1.5567 0
M  V30 10240 H 989.529 -4.90755 -2.45867 0
M  V30 10241 H 989.79 -3.25448 -2.99226 0
M  V30 10242 N 988.849 0.203349 -1.56283 0
M  V30 10243 C 989.779 1.2549 -1.96912 0
M  V30 10244 C 990.76 1.47919 -0.839884 0
M  V30 10245 O 991.945 1.59795 -1.10359 0
M  V30 10246 C 989.075 2.6009 -2.30153 0
M  V30 10247 C 988.029 2.52289 -3.45738 0
M  V30 10248 C 987.355 3.91086 -3.64632 0
M  V30 10249 C 988.655 2.05503 -4.80173 0
M  V30 10250 H 990.349 0.917306 -2.85002 0
M  V30 10251 H 987.895 0.439818 -1.37119 0
M  V30 10252 H 989.848 3.33829 -2.5717 0
M  V30 10253 H 988.572 2.95574 -1.38937 0
M  V30 10254 H 987.231 1.81006 -3.18798 0
M  V30 10255 H 986.879 4.23908 -2.7076 0
M  V30 10256 H 986.579 3.86742 -4.42385 0
M  V30 10257 H 988.103 4.66459 -3.94016 0
M  V30 10258 H 989.517 2.68995 -5.06275 0
M  V30 10259 H 987.914 2.1218 -5.61337 0
M  V30 10260 H 988.984 1.00793 -4.74309 0
M  V30 10261 N 990.327 1.50405 0.470755 0
M  V30 10262 C 991.29 1.68741 1.5511 0
M  V30 10263 C 992.29 0.558116 1.50804 0
M  V30 10264 O 993.48 0.825149 1.53418 0
M  V30 10265 C 990.612 1.71295 2.94739 0
M  V30 10266 H 991.805 2.65127 1.40169 0
M  V30 10267 H 989.358 1.39891 0.697156 0
M  V30 10268 H 990.093 0.766029 3.15123 0
M  V30 10269 H 989.878 2.53336 2.99271 0
M  V30 10270 H 991.368 1.87434 3.73173 0
M  V30 10271 N 991.805 -0.723954 1.39988 0
M  V30 10272 C 993.051 -1.48591 1.38017 0
M  V30 10273 C 993.384 -1.94189 -0.0203522 0
M  V30 10274 O 992.659 -1.67572 -0.987422 0
M  V30 10275 C 992.942 -2.71786 2.36229 0
M  V30 10276 C 992.795 -2.32136 3.8527 0
M  V30 10277 C 994.114 -3.73921 2.32102 0
M  V30 10278 H 991.233 -0.538993 0.502648 0
M  V30 10279 H 993.875 -0.826908 1.71062 0
M  V30 10280 H 992.025 -3.28015 2.0818 0
M  V30 10281 H 993.697 -1.81454 4.24113 0
M  V30 10282 H 991.94 -1.64234 4.01509 0
M  V30 10283 H 992.611 -3.20406 4.49493 0
M  V30 10284 H 995.087 -3.27303 2.56928 0
M  V30 10285 H 993.963 -4.5777 3.02882 0
M  V30 10286 H 994.224 -4.21627 1.32979 0
M  V30 10287 N 993.283 -1.25346 -0.955304 0
M  V30 10288 C 994.213 -1.08152 -2.06943 0
M  V30 10289 C 995.194 0.00922598 -1.70097 0
M  V30 10290 O 996.379 -0.160181 -1.93538 0
M  V30 10291 C 993.509 -0.698745 -3.40198 0
M  V30 10292 C 992.463 -1.73965 -3.9105 0
M  V30 10293 C 991.789 -1.21158 -5.20792 0
M  V30 10294 C 993.089 -3.13829 -4.17503 0
M  V30 10295 H 994.783 -2.01345 -2.21586 0
M  V30 10296 H 992.329 -0.969459 -1.06478 0
M  V30 10297 H 994.282 -0.565394 -4.1759 0
M  V30 10298 H 993.006 0.268892 -3.25491 0
M  V30 10299 H 991.665 -1.86143 -3.15827 0
M  V30 10300 H 991.313 -0.234193 -5.02455 0
M  V30 10301 H 991.013 -1.90728 -5.55785 0
M  V30 10302 H 992.537 -1.09061 -6.00781 0
M  V30 10303 H 993.951 -3.04809 -4.85556 0
M  V30 10304 H 992.348 -3.80863 -4.63749 0
M  V30 10305 H 993.418 -3.6094 -3.23806 0
M  V30 10306 N 994.761 1.15782 -1.06922 0
M  V30 10307 C 996.177 1.38454 -0.793896 0
M  V30 10308 C 996.377 1.92238 0.603875 0
M  V30 10309 O 995.433 2.1253 1.36335 0
M  V30 10310 C 996.746 2.3595 -1.86408 0
M  V30 10311 C 998.294 2.49622 -1.88833 0
M  V30 10312 C 998.769 3.50406 -2.94923 0
M  V30 10313 N 1000.26 3.57938 -2.93997 0
M  V30 10314 C 1001 4.35728 -3.72731 0
M  V30 10315 N 1000.49 5.16888 -4.61301 0
M  V30 10316 N 1002.28 4.30774 -3.61096 0
M  V30 10317 H 994.435 0.792101 -1.97077 0
M  V30 10318 H 996.698 0.410779 -0.85438 0
M  V30 10319 H 996.404 2.03537 -2.86819 0
M  V30 10320 H 996.278 3.35677 -1.72049 0
M  V30 10321 H 998.665 2.81335 -0.890759 0
M  V30 10322 H 998.746 1.49909 -2.0727 0
M  V30 10323 H 998.39 3.19429 -3.94877 0
M  V30 10324 H 998.32 4.49864 -2.73734 0
M  V30 10325 H 1000.81 3.00007 -2.29791 0
M  V30 10326 H 1001.12 5.73477 -5.18019 0
M  V30 10327 H 999.469 5.16209 -4.65353 0
M  V30 10328 H 1002.66 3.66432 -2.91282 0
M  V30 10329 H 1002.83 4.91151 -4.22699 0
M  V30 10330 N 996.239 0.8527 1.3254 0
M  V30 10331 C 997.171 0.253181 2.27797 0
M  V30 10332 C 998.184 -0.573977 1.52346 0
M  V30 10333 O 999.373 -0.398786 1.73988 0
M  V30 10334 C 996.473 -0.661034 3.32391 0
M  V30 10335 C 995.646 0.12984 4.37207 0
M  V30 10336 C 994.705 -0.709837 5.2139 0
M  V30 10337 O 993.731 -0.144056 5.69018 0
M  V30 10338 N 994.933 -2.0249 5.44039 0
M  V30 10339 H 997.698 1.07171 2.79883 0
M  V30 10340 H 995.259 0.712491 1.45379 0
M  V30 10341 H 997.251 -1.22806 3.85617 0
M  V30 10342 H 995.821 -1.38025 2.80478 0
M  V30 10343 H 995.041 0.878289 3.84291 0
M  V30 10344 H 996.329 0.673141 5.04328 0
M  V30 10345 H 995.727 -2.50792 5.0707 0
M  V30 10346 H 994.284 -2.5401 6.00269 0
M  V30 10347 N 997.718 -1.45297 0.610449 0
M  V30 10348 C 998.65 -2.28742 -0.144884 0
M  V30 10349 C 999.663 -1.40114 -0.828977 0
M  V30 10350 O 1000.85 -1.64461 -0.693887 0
M  V30 10351 C 997.952 -3.15934 -1.22632 0
M  V30 10352 C 997.125 -4.32857 -0.628785 0
M  V30 10353 C 996.184 -5.01237 -1.60148 0
M  V30 10354 O 995.21 -5.57938 -1.12667 0
M  V30 10355 N 996.412 -5.00785 -2.9359 0
M  V30 10356 H 999.177 -2.94207 0.571145 0
M  V30 10357 H 996.738 -1.55517 0.450134 0
M  V30 10358 H 998.73 -3.58545 -1.87691 0
M  V30 10359 H 997.3 -2.52358 -1.84483 0
M  V30 10360 H 996.52 -3.93693 0.199951 0
M  V30 10361 H 997.808 -5.08367 -0.209845 0
M  V30 10362 H 997.206 -4.56014 -3.34765 0
M  V30 10363 H 995.763 -5.4725 -3.54064 0
M  V30 10364 N 999.196 -0.349774 -1.5367 0
M  V30 10365 C 1000.47 0.300419 -1.93279 0
M  V30 10366 C 1000.85 1.67721 -1.28191 0
M  V30 10367 O 1000.2 2.24319 -0.435127 0
M  V30 10368 C 1000.41 0.366466 -3.47071 0
M  V30 10369 C 1001.76 0.614349 -4.20132 0
M  V30 10370 O 1002.78 0.448327 -3.53367 0
M  V30 10371 O 1001.64 0.936421 -5.38417 0
M  V30 10372 H 998.736 0.176599 -0.807924 0
M  V30 10373 H 1001.28 -0.401405 -1.64884 0
M  V30 10374 H 1000.05 -0.599455 -3.86681 0
M  V30 10375 H 999.677 1.11482 -3.81651 0
M  V30 10376 N 1000.67 1.57404 -0.0785433 0
M  V30 10377 C 1001.62 2.13104 0.88631 0
M  V30 10378 C 1002.59 1.04527 1.29086 0
M  V30 10379 O 1003.78 1.32226 1.37553 0
M  V30 10380 C 1000.92 2.70252 2.14611 0
M  V30 10381 C 1000.03 3.93007 1.79358 0
M  V30 10382 C 999.164 4.38376 3 0
M  V30 10383 C 998.203 5.53761 2.60796 0
M  V30 10384 N 997.34 5.94058 3.74219 0
M  V30 10385 H 1002.18 2.95243 0.404452 0
M  V30 10386 H 999.717 1.45894 0.187982 0
M  V30 10387 H 1001.67 3.01497 2.88367 0
M  V30 10388 H 1000.3 1.90868 2.60326 0
M  V30 10389 H 999.357 3.68181 0.956384 0
M  V30 10390 H 1000.67 4.76795 1.4652 0
M  V30 10391 H 999.823 4.71317 3.82027 0
M  V30 10392 H 998.562 3.53455 3.36037 0
M  V30 10393 H 997.567 5.20464 1.77192 0
M  V30 10394 H 998.792 6.40419 2.25922 0
M  V30 10395 H 996.738 5.12085 4.10005 0
M  V30 10396 H 996.655 6.72602 3.45171 0
M  V30 10397 H 997.923 6.31624 4.56805 0
M  V30 10398 N 1002.15 -0.195058 1.56388 0
M  V30 10399 C 1003.06 -1.26219 1.97752 0
M  V30 10400 C 1004.08 -1.49801 0.885192 0
M  V30 10401 O 1005.25 -1.62415 1.19094 0
M  V30 10402 C 1002.32 -2.5865 2.3087 0
M  V30 10403 C 1001.38 -2.4314 3.5381 0
M  V30 10404 C 1000.61 -3.69255 3.85339 0
M  V30 10405 O 1000.84 -4.73425 3.18159 0
M  V30 10406 O 999.77 -3.64782 4.78767 0
M  V30 10407 H 1003.6 -0.941161 2.88749 0
M  V30 10408 H 1001.18 -0.40006 1.43944 0
M  V30 10409 H 1003.06 -3.36814 2.53247 0
M  V30 10410 H 1001.74 -2.9038 1.43042 0
M  V30 10411 H 1000.64 -1.63086 3.3668 0
M  V30 10412 H 1001.98 -2.16341 4.42105 0
M  V30 10413 N 1003.63 -1.50653 -0.462772 0
M  V30 10414 C 1004.59 -1.69561 -1.54213 0
M  V30 10415 C 1005.59 -0.566106 -1.50505 0
M  V30 10416 O 1006.78 -0.833273 -1.52978 0
M  V30 10417 C 1003.91 -1.72856 -2.93826 0
M  V30 10418 H 1005.11 -2.65867 -1.38761 0
M  V30 10419 H 1002.66 -1.40259 -0.689728 0
M  V30 10420 H 1003.4 -0.78273 -3.14712 0
M  V30 10421 H 1003.18 -2.54919 -2.97924 0
M  V30 10422 H 1004.67 -1.89411 -3.72174 0
M  V30 10423 N 1005.11 0.71652 -1.4037 0
M  V30 10424 C 1006.52 1.02447 -1.22379 0
M  V30 10425 C 1006.72 2.0126 -0.0983394 0
M  V30 10426 O 1005.78 2.46569 0.544071 0
M  V30 10427 C 1007.09 1.56909 -2.56515 0
M  V30 10428 C 1008.64 1.68898 -2.6352 0
M  V30 10429 C 1009.12 2.26765 -3.97922 0
M  V30 10430 N 1010.61 2.34152 -3.99658 0
M  V30 10431 C 1011.34 2.79907 -5.00439 0
M  V30 10432 N 1010.84 3.25422 -6.11615 0
M  V30 10433 N 1012.63 2.79283 -4.87809 0
M  V30 10434 H 1004.78 0.0615306 -2.12311 0
M  V30 10435 H 1007.05 0.0898994 -0.943728 0
M  V30 10436 H 1006.75 0.917649 -3.39517 0
M  V30 10437 H 1006.63 2.55446 -2.77538 0
M  V30 10438 H 1009.01 2.33159 -1.8089 0
M  V30 10439 H 1009.09 0.689626 -2.46329 0
M  V30 10440 H 1008.74 1.63126 -4.80991 0
M  V30 10441 H 1008.67 3.27413 -4.12442 0
M  V30 10442 H 1011.16 2.02006 -3.19378 0
M  V30 10443 H 1011.47 3.58899 -6.84406 0
M  V30 10444 H 1009.82 3.23383 -6.15181 0
M  V30 10445 H 1013.01 2.43061 -4.00049 0
M  V30 10446 H 1013.18 3.14626 -5.66493 0
M  V30 10447 N 1006.59 1.25851 0.948643 0
M  V30 10448 C 1007.81 1.13711 1.72851 0
M  V30 10449 C 1008.23 -0.308471 1.86263 0
M  V30 10450 O 1007.59 -1.21175 1.36465 0
M  V30 10451 C 1007.64 1.79271 3.13918 0
M  V30 10452 O 1007.36 3.18179 3.01154 0
M  V30 10453 C 1008.86 1.72988 4.08154 0
M  V30 10454 H 1006.08 0.396334 0.541443 0
M  V30 10455 H 1008.62 1.66329 1.18974 0
M  V30 10456 H 1006.78 1.30609 3.64719 0
M  V30 10457 H 1007.19 3.50507 3.90186 0
M  V30 10458 H 1008.67 2.2351 5.04725 0
M  V30 10459 H 1009.14 0.694866 4.33668 0
M  V30 10460 H 1009.75 2.21166 3.63271 0
M  V30 10461 N 1008.06 -1.15214 1.07534 0
M  V30 10462 C 1009.01 -2.20013 0.697337 0
M  V30 10463 C 1009.98 -1.6314 -0.312168 0
M  V30 10464 O 1011.17 -1.89768 -0.198196 0
M  V30 10465 C 1008.31 -3.44945 0.103293 0
M  V30 10466 C 1007.42 -4.16009 1.1645 0
M  V30 10467 C 1006.55 -5.28496 0.535261 0
M  V30 10468 C 1005.59 -5.9138 1.57912 0
M  V30 10469 N 1004.73 -6.95335 0.972332 0
M  V30 10470 H 1009.57 -2.51698 1.59538 0
M  V30 10471 H 1007.11 -1.2361 0.797431 0
M  V30 10472 H 1009.07 -4.16397 -0.258766 0
M  V30 10473 H 1007.7 -3.13772 -0.758096 0
M  V30 10474 H 1006.75 -3.43035 1.64411 0
M  V30 10475 H 1008.06 -4.58853 1.9559 0
M  V30 10476 H 1007.21 -6.06579 0.120942 0
M  V30 10477 H 1005.95 -4.8685 -0.287889 0
M  V30 10478 H 1004.96 -5.12008 2.0032 0
M  V30 10479 H 1006.18 -6.35103 2.40459 0
M  V30 10480 H 1004.13 -6.55779 0.170119 0
M  V30 10481 H 1004.05 -7.36616 1.70095 0
M  V30 10482 H 1005.31 -7.77312 0.583577 0
M  V30 10483 N 1009.54 -0.859717 -1.32086 0
M  V30 10484 C 1010.45 -0.31108 -2.32528 0
M  V30 10485 C 1011.47 0.573714 -1.6427 0
M  V30 10486 O 1012.64 0.472878 -1.9577 0
M  V30 10487 C 1009.71 0.487256 -3.43259 0
M  V30 10488 C 1008.77 -0.424279 -4.27198 0
M  V30 10489 C 1008 0.336051 -5.32641 0
M  V30 10490 O 1008.23 1.56541 -5.48499 0
M  V30 10491 O 1007.16 -0.300777 -6.01148 0
M  V30 10492 H 1010.99 -1.14336 -2.81355 0
M  V30 10493 H 1008.57 -0.622794 -1.358 0
M  V30 10494 H 1010.45 0.940203 -4.10777 0
M  V30 10495 H 1009.13 1.29626 -2.96612 0
M  V30 10496 H 1008.04 -0.925509 -3.62471 0
M  V30 10497 H 1009.37 -1.1986 -4.77383 0
M  V30 10498 N 1011.02 1.44971 -0.618145 0
M  V30 10499 C 1012.25 2.07039 -0.122395 0
M  V30 10500 C 1012.67 1.45793 1.18853 0
M  V30 10501 O 1012.03 0.55453 1.72611 0
M  V30 10502 C 1012.08 3.60599 -0.0073864 0
M  V30 10503 O 1011.18 3.99069 1.04007 0
M  V30 10504 H 1010.52 0.6593 -0.0788615 0
M  V30 10505 H 1013.05 1.86055 -0.851147 0
M  V30 10506 H 1013.06 4.07569 0.187417 0
M  V30 10507 H 1011.74 4.04561 -0.964544 0
M  V30 10508 H 1010.31 3.63753 0.820879 0
M  V30 10509 N 1012.5 0.357919 1.53482 0
M  V30 10510 C 1013.91 0.00655107 1.59599 0
M  V30 10511 C 1014.11 -1.47449 1.37336 0
M  V30 10512 O 1013.17 -2.2351 1.17472 0
M  V30 10513 C 1014.48 0.455617 2.97228 0
M  V30 10514 C 1016.03 0.409183 3.10314 0
M  V30 10515 C 1016.51 0.833941 4.50344 0
M  V30 10516 N 1018 0.788695 4.56436 0
M  V30 10517 C 1018.73 1.08914 5.62961 0
M  V30 10518 N 1018.23 1.45847 6.77274 0
M  V30 10519 N 1020.02 1.01243 5.52907 0
M  V30 10520 H 1012.17 1.32248 1.66206 0
M  V30 10521 H 1014.44 0.540047 0.779136 0
M  V30 10522 H 1014.14 1.48881 3.18634 0
M  V30 10523 H 1014.02 -0.161751 3.76853 0
M  V30 10524 H 1016.4 -0.614863 2.88623 0
M  V30 10525 H 1016.48 1.06195 2.32715 0
M  V30 10526 H 1016.13 1.85607 4.72771 0
M  V30 10527 H 1016.06 0.158507 5.26361 0
M  V30 10528 H 1018.55 0.516497 3.74354 0
M  V30 10529 H 1018.86 1.67218 7.54492 0
M  V30 10530 H 1017.21 1.49705 6.78685 0
M  V30 10531 H 1020.4 0.723137 4.62481 0
M  V30 10532 H 1020.57 1.24991 6.35831 0
M  V30 10533 N 1013.98 -1.5736 0.0868897 0
M  V30 10534 C 1015.2 -1.98809 -0.590757 0
M  V30 10535 C 1015.63 -0.965407 -1.61436 0
M  V30 10536 O 1014.98 0.067143 -1.81176 0
M  V30 10537 C 1015.03 -3.39249 -1.22238 0
M  V30 10538 O 1014.14 -3.39706 -2.33824 0
M  V30 10539 H 1013.48 -0.64669 -0.150626 0
M  V30 10540 H 1016.01 -2.03927 0.165873 0
M  V30 10541 H 1016.02 -3.76765 -1.56564 0
M  V30 10542 H 1014.69 -4.13208 -0.472434 0
M  V30 10543 H 1013.27 -3.13977 -2.01178 0
M  V30 10544 N 1015.45 0.186762 -1.56489 0
M  V30 10545 C 1016.68 0.925916 -1.85584 0
M  V30 10546 C 1017.1 1.75708 -0.671446 0
M  V30 10547 O 1016.46 1.7728 0.379687 0
M  V30 10548 C 1016.51 1.79107 -3.12975 0
M  V30 10549 O 1015.61 2.89088 -2.94112 0
M  V30 10550 H 1014.96 0.260275 -0.610863 0
M  V30 10551 H 1017.49 0.189561 -2.0372 0
M  V30 10552 H 1017.5 2.19408 -3.43983 0
M  V30 10553 H 1016.17 1.18044 -3.98796 0
M  V30 10554 H 1014.75 2.52482 -2.74422 0
M  V30 10555 N 1016.93 1.50896 0.454776 0
M  V30 10556 C 1018.34 1.55372 1.0352 0
M  V30 10557 C 1018.69 0.366822 1.9274 0
M  V30 10558 O 1017.82 -0.518444 2.10098 0
M  V30 10559 C 1018.41 2.81574 1.88418 0
M  V30 10560 C 1016.97 2.88679 2.4154 0
M  V30 10561 C 1016.12 2.49847 1.20298 0
M  V30 10562 H 1019.07 1.56924 0.236729 0
M  V30 10563 H 1019.09 2.64352 2.73676 0
M  V30 10564 H 1018.6 3.67941 1.23455 0
M  V30 10565 H 1016.71 2.06702 3.10008 0
M  V30 10566 H 1016.82 3.91944 2.7553 0
M  V30 10567 H 1015.18 2.02651 1.54288 0
M  V30 10568 H 1015.97 3.3854 0.569723 0
M  V30 10569 N 1018.41 -0.709066 1.40748 0
M  V30 10570 C 1019.37 -1.80485 1.41272 0
M  V30 10571 C 1020.37 -1.57872 0.305463 0
M  V30 10572 O 1021.56 -1.64793 0.564691 0
M  V30 10573 C 1018.7 -3.1867 1.21087 0
M  V30 10574 H 1019.89 -1.81417 2.38805 0
M  V30 10575 H 1017.44 -0.915356 1.26692 0
M  V30 10576 H 1018.18 -3.23385 0.243406 0
M  V30 10577 H 1017.96 -3.36484 2.01299 0
M  V30 10578 H 1019.45 -3.98685 1.24257 0
M  V30 10579 N 1019.89 -1.26353 -0.941956 0
M  V30 10580 C 1021.14 -1.12017 -1.69056 0
M  V30 10581 C 1021.47 0.335856 -1.91274 0
M  V30 10582 O 1020.74 1.24677 -1.49285 0
M  V30 10583 C 1021.03 -1.88889 -3.06583 0
M  V30 10584 C 1020.88 -3.42394 -2.91696 0
M  V30 10585 C 1022.2 -1.68209 -4.06686 0
M  V30 10586 H 1019.32 -0.408311 -0.613556 0
M  V30 10587 H 1021.96 -1.55339 -1.09407 0
M  V30 10588 H 1020.11 -1.5207 -3.57501 0
M  V30 10589 H 1021.78 -3.88962 -2.48005 0
M  V30 10590 H 1020.02 -3.69459 -2.27338 0
M  V30 10591 H 1020.7 -3.91408 -3.89235 0
M  V30 10592 H 1023.17 -2.00286 -3.64726 0
M  V30 10593 H 1022.05 -2.24412 -5.00929 0
M  V30 10594 H 1022.31 -0.626474 -4.37639 0
M  V30 10595 N 1021.37 1.14642 -1.08144 0
M  V30 10596 C 1022.28 2.23257 -0.720668 0
M  V30 10597 C 1023.29 1.71866 0.271648 0
M  V30 10598 O 1024.47 2.01064 0.116266 0
M  V30 10599 C 1021.53 3.46447 -0.132542 0
M  V30 10600 C 1020.6 4.12789 -1.17913 0
M  V30 10601 C 1019.83 5.30099 -0.618971 0
M  V30 10602 O 1020.05 5.6762 0.562418 0
M  V30 10603 O 1018.99 5.86154 -1.36774 0
M  V30 10604 H 1022.81 2.56463 -1.62667 0
M  V30 10605 H 1020.4 1.22521 -0.854932 0
M  V30 10606 H 1022.28 4.20959 0.19277 0
M  V30 10607 H 1020.95 3.14971 0.746662 0
M  V30 10608 H 1019.86 3.40163 -1.55693 0
M  V30 10609 H 1021.19 4.48365 -2.03051 0
M  V30 10610 N 1022.85 0.866709 1.31628 0
M  V30 10611 C 1023.78 0.277328 2.27516 0
M  V30 10612 C 1024.79 -0.557786 1.52946 0
M  V30 10613 O 1025.98 -0.38031 1.74402 0
M  V30 10614 C 1023.08 -0.625742 3.33073 0
M  V30 10615 C 1022.25 0.176204 4.37045 0
M  V30 10616 C 1021.31 -0.654497 5.22114 0
M  V30 10617 O 1020.34 -0.0836961 5.69138 0
M  V30 10618 N 1021.54 -1.96708 5.46156 0
M  V30 10619 H 1024.3 1.10133 2.78731 0
M  V30 10620 H 1021.87 0.72787 1.44616 0
M  V30 10621 H 1023.86 -1.18709 3.86898 0
M  V30 10622 H 1022.43 -1.35042 2.81926 0
M  V30 10623 H 1021.65 0.918999 3.83338 0
M  V30 10624 H 1022.94 0.726594 5.03585 0
M  V30 10625 H 1022.33 -2.454 5.09701 0
M  V30 10626 H 1020.89 -2.47629 6.02929 0
M  V30 10627 N 1024.32 -1.44642 0.625825 0
M  V30 10628 C 1025.26 -2.28882 -0.120614 0
M  V30 10629 C 1026.27 -1.40985 -0.81407 0
M  V30 10630 O 1027.46 -1.65188 -0.676404 0
M  V30 10631 C 1024.56 -3.17217 -1.19274 0
M  V30 10632 C 1023.73 -4.33499 -0.582839 0
M  V30 10633 C 1022.79 -5.02908 -1.54823 0
M  V30 10634 O 1021.82 -5.59102 -1.06743 0
M  V30 10635 N 1023.02 -5.0387 -2.88262 0
M  V30 10636 H 1025.78 -2.93585 0.602318 0
M  V30 10637 H 1023.34 -1.5503 0.466604 0
M  V30 10638 H 1025.34 -3.60515 -1.83878 0
M  V30 10639 H 1023.91 -2.54301 -1.81797 0
M  V30 10640 H 1023.13 -3.93458 0.241696 0
M  V30 10641 H 1024.41 -5.08561 -0.155914 0
M  V30 10642 H 1023.81 -4.59539 -3.2991 0
M  V30 10643 H 1022.37 -5.50974 -3.4824 0
M  V30 10644 N 1025.8 -0.366053 -1.5329 0
M  V30 10645 C 1026.73 0.47211 -2.28677 0
M  V30 10646 C 1027.71 1.08353 -1.31125 0
M  V30 10647 O 1028.9 1.10069 -1.59995 0
M  V30 10648 C 1026.03 1.61174 -3.07637 0
M  V30 10649 C 1024.98 1.12755 -4.12881 0
M  V30 10650 C 1024.31 2.35745 -4.79925 0
M  V30 10651 C 1025.61 0.211954 -5.2187 0
M  V30 10652 H 1027.3 -0.156838 -2.98989 0
M  V30 10653 H 1024.85 -0.0768709 -1.43795 0
M  V30 10654 H 1026.8 2.20473 -3.59123 0
M  V30 10655 H 1025.52 2.26793 -2.35016 0
M  V30 10656 H 1024.18 0.557234 -3.6234 0
M  V30 10657 H 1023.83 2.99821 -4.03877 0
M  V30 10658 H 1023.53 2.04019 -5.51044 0
M  V30 10659 H 1025.06 2.95729 -5.34207 0
M  V30 10660 H 1026.47 0.71244 -5.68856 0
M  V30 10661 H 1024.87 -0.0144501 -6.00098 0
M  V30 10662 H 1025.94 -0.745753 -4.79131 0
M  V30 10663 N 1027.28 1.57312 -0.0952337 0
M  V30 10664 C 1028.21 2.17056 0.860753 0
M  V30 10665 C 1029.19 1.10394 1.29411 0
M  V30 10666 O 1030.38 1.38532 1.36098 0
M  V30 10667 C 1027.51 2.751 2.11984 0
M  V30 10668 C 1026.46 3.87136 1.8251 0
M  V30 10669 C 1025.79 4.31883 3.15247 0
M  V30 10670 C 1027.09 5.10326 1.11194 0
M  V30 10671 H 1028.78 2.97192 0.362983 0
M  V30 10672 H 1026.33 1.42955 0.173151 0
M  V30 10673 H 1028.28 3.15547 2.79299 0
M  V30 10674 H 1027 1.92219 2.64044 0
M  V30 10675 H 1025.66 3.47229 1.17592 0
M  V30 10676 H 1025.31 3.45893 3.65195 0
M  V30 10677 H 1025.01 5.0742 2.96309 0
M  V30 10678 H 1026.53 4.74964 3.83721 0
M  V30 10679 H 1027.95 5.47942 1.6862 0
M  V30 10680 H 1026.34 5.91293 1.02435 0
M  V30 10681 H 1027.41 4.84807 0.0947227 0
M  V30 10682 N 1028.76 -0.17846 1.56586 0
M  V30 10683 C 1030 -0.897562 1.81856 0
M  V30 10684 C 1030.34 -1.82204 0.671955 0
M  V30 10685 O 1029.61 -1.91739 -0.326535 0
M  V30 10686 C 1029.89 -1.69942 3.17477 0
M  V30 10687 C 1029.75 -0.798545 4.42655 0
M  V30 10688 C 1031.07 -2.66861 3.49962 0
M  V30 10689 H 1028.19 -0.324863 0.661539 0
M  V30 10690 H 1030.83 -0.164106 1.8929 0
M  V30 10691 H 1028.98 -2.32471 3.11271 0
M  V30 10692 H 1030.65 -0.18668 4.60922 0
M  V30 10693 H 1028.89 -0.106181 4.3367 0
M  V30 10694 H 1029.56 -1.39496 5.34083 0
M  V30 10695 H 1032.04 -2.1446 3.56576 0
M  V30 10696 H 1030.92 -3.20037 4.45946 0
M  V30 10697 H 1031.18 -3.46715 2.74301 0
M  V30 10698 N 1030.24 -1.51135 -0.446768 0
M  V30 10699 C 1031.46 -1.67411 -1.22427 0
M  V30 10700 C 1031.89 -0.367009 -1.84485 0
M  V30 10701 O 1031.24 0.67185 -1.68392 0
M  V30 10702 C 1031.29 -2.78473 -2.29096 0
M  V30 10703 O 1030.4 -2.41419 -3.34351 0
M  V30 10704 H 1029.74 -0.558512 -0.359111 0
M  V30 10705 H 1032.27 -1.97648 -0.5288 0
M  V30 10706 H 1032.28 -3.02277 -2.7403 0
M  V30 10707 H 1030.95 -3.73326 -1.83304 0
M  V30 10708 H 1029.53 -2.28152 -2.9496 0
M  V30 10709 N 1031.71 0.701592 -1.41122 0
M  V30 10710 C 1032.96 1.45871 -1.39879 0
M  V30 10711 C 1033.28 1.94999 -0.00668769 0
M  V30 10712 O 1032.55 1.71298 0.95047 0
M  V30 10713 H 1031.13 0.541231 -0.514857 0
M  V30 10714 H 1033.79 0.830803 -1.76306 0
M  V30 10715 H 1032.89 2.32479 -2.0823 0
M  V30 10716 N 1033.19 1.2685 0.935242 0
M  V30 10717 C 1034.6 1.11569 1.49697 0
M  V30 10718 C 1034.95 -0.301952 1.93863 0
M  V30 10719 O 1034.08 -1.19408 1.80473 0
M  V30 10720 C 1034.67 2.01918 2.72056 0
M  V30 10721 C 1033.23 1.90765 3.24477 0
M  V30 10722 C 1032.38 1.94918 1.97237 0
M  V30 10723 H 1035.33 1.39853 0.750116 0
M  V30 10724 H 1035.35 1.57056 3.46574 0
M  V30 10725 H 1034.86 3.05088 2.39881 0
M  V30 10726 H 1032.96 0.905521 3.61429 0
M  V30 10727 H 1033.08 2.76611 3.91182 0
M  V30 10728 H 1031.44 1.39046 2.13397 0
M  V30 10729 H 1032.22 2.99729 1.67385 0
M  V30 10730 N 1034.67 -1.14067 1.0875 0
M  V30 10731 C 1035.92 -1.84819 0.817698 0
M  V30 10732 C 1036.24 -1.83545 -0.658488 0
M  V30 10733 O 1035.51 -1.28633 -1.47751 0
M  V30 10734 H 1034.09 -0.68433 0.299502 0
M  V30 10735 H 1036.75 -1.38208 1.37421 0
M  V30 10736 H 1035.85 -2.89541 1.16501 0
M  V30 10737 N 1036.15 -0.873678 -1.31166 0
M  V30 10738 C 1037.1 -0.330288 -2.28424 0
M  V30 10739 C 1038.07 0.573299 -1.55893 0
M  V30 10740 O 1039.25 0.504143 -1.84019 0
M  V30 10741 C 1036.39 0.459004 -3.42034 0
M  V30 10742 C 1035.5 -0.472519 -4.29408 0
M  V30 10743 C 1034.64 0.331261 -5.30166 0
M  V30 10744 C 1033.68 -0.596453 -6.09187 0
M  V30 10745 N 1032.81 0.171305 -7.01891 0
M  V30 10746 H 1037.65 -1.16485 -2.7429 0
M  V30 10747 H 1035.19 -0.585813 -1.34932 0
M  V30 10748 H 1037.15 0.932432 -4.06647 0
M  V30 10749 H 1035.78 1.25824 -2.97268 0
M  V30 10750 H 1034.83 -1.06441 -3.65205 0
M  V30 10751 H 1036.14 -1.18372 -4.84551 0
M  V30 10752 H 1035.3 0.867038 -6.00473 0
M  V30 10753 H 1034.04 1.07573 -4.75688 0
M  V30 10754 H 1033.04 -1.14395 -5.37767 0
M  V30 10755 H 1034.27 -1.33983 -6.65752 0
M  V30 10756 H 1032.21 0.89852 -6.49817 0
M  V30 10757 H 1032.13 -0.480481 -7.54472 0
M  V30 10758 H 1033.4 0.688192 -7.76456 0
M  V30 10759 N 1037.63 1.44308 -0.633487 0
M  V30 10760 C 1038.57 2.30694 0.0700257 0
M  V30 10761 C 1039.54 1.43618 0.834447 0
M  V30 10762 O 1040.73 1.72517 0.815014 0
M  V30 10763 C 1037.87 3.28929 1.04403 0
M  V30 10764 C 1036.98 4.31106 0.277779 0
M  V30 10765 C 1036.12 5.16433 1.24381 0
M  V30 10766 C 1035.16 6.10317 0.466855 0
M  V30 10767 N 1034.29 6.88335 1.38347 0
M  V30 10768 H 1039.13 2.90311 -0.672567 0
M  V30 10769 H 1036.67 1.43034 -0.343449 0
M  V30 10770 H 1038.63 3.84373 1.62214 0
M  V30 10771 H 1037.26 2.71006 1.75372 0
M  V30 10772 H 1036.31 3.78115 -0.416292 0
M  V30 10773 H 1037.62 4.97725 -0.327251 0
M  V30 10774 H 1036.78 5.76406 1.89318 0
M  V30 10775 H 1035.51 4.49893 1.88276 0
M  V30 10776 H 1034.52 5.49451 -0.195989 0
M  V30 10777 H 1035.74 6.78894 -0.167414 0
M  V30 10778 H 1033.69 6.24461 2.00959 0
M  V30 10779 H 1033.61 7.51402 0.832517 0
M  V30 10780 H 1034.88 7.52829 2.0216 0
M  V30 10781 N 1039.1 0.374177 1.53094 0
M  V30 10782 C 1040.52 -0.103172 1.86415 0
M  V30 10783 C 1040.87 -1.47439 1.29446 0
M  V30 10784 O 1039.99 -2.07333 0.619853 0
M  V30 10785 C 1040.59 -0.193988 3.38244 0
M  V30 10786 C 1039.15 -0.615605 3.71332 0
M  V30 10787 C 1038.29 0.23186 2.76329 0
M  V30 10788 H 1041.24 0.592644 1.47219 0
M  V30 10789 H 1041.26 -1.01597 3.66686 0
M  V30 10790 H 1040.78 0.80414 3.79678 0
M  V30 10791 H 1038.88 -1.62165 3.3546 0
M  V30 10792 H 1038.99 -0.38425 4.77557 0
M  V30 10793 H 1037.35 -0.300579 2.5292 0
M  V30 10794 H 1038.14 1.22769 3.20597 0
M  V30 10795 N 1040.58 -1.57259 0.103575 0
M  V30 10796 C 1041.49 -2.18018 -0.866327 0
M  V30 10797 C 1042.51 -1.15198 -1.30404 0
M  V30 10798 O 1043.68 -1.47605 -1.37021 0
M  V30 10799 C 1040.75 -2.75533 -2.10434 0
M  V30 10800 C 1039.81 -3.93337 -1.72002 0
M  V30 10801 C 1039.04 -4.481 -2.89901 0
M  V30 10802 O 1039.27 -4.01784 -4.04877 0
M  V30 10803 O 1038.2 -5.39004 -2.67877 0
M  V30 10804 H 1042.03 -3.01322 -0.379338 0
M  V30 10805 H 1039.61 -1.48907 -0.121228 0
M  V30 10806 H 1041.49 -3.12259 -2.8297 0
M  V30 10807 H 1040.17 -1.9527 -2.58169 0
M  V30 10808 H 1039.08 -3.61408 -0.966193 0
M  V30 10809 H 1040.41 -4.74989 -1.29022 0
M  V30 10810 N 1042.06 0.170153 -1.56679 0
M  V30 10811 C 1043.34 0.913938 -1.72935 0
M  V30 10812 C 1043.72 2.00342 -0.665293 0
M  V30 10813 O 1043.07 2.26252 0.319715 0
M  V30 10814 C 1043.28 1.47761 -3.16177 0
M  V30 10815 C 1044.62 1.95007 -3.7717 0
M  V30 10816 O 1045.65 1.57552 -3.19462 0
M  V30 10817 O 1044.51 2.64007 -4.78501 0
M  V30 10818 H 1041.6 0.43027 -0.706256 0
M  V30 10819 H 1044.15 0.157891 -1.68964 0
M  V30 10820 H 1042.92 0.69352 -3.85105 0
M  V30 10821 H 1042.54 2.2978 -3.24479 0
M  V30 10822 N 1043.54 1.5137 0.438746 0
M  V30 10823 C 1044.76 1.68058 1.21537 0
M  V30 10824 C 1045.19 0.376787 1.84288 0
M  V30 10825 O 1044.55 -0.662911 1.68746 0
M  V30 10826 C 1044.59 2.79684 2.27616 0
M  V30 10827 O 1043.7 2.43189 3.33066 0
M  V30 10828 H 1043.04 0.560408 0.356144 0
M  V30 10829 H 1045.57 1.97926 0.518311 0
M  V30 10830 H 1045.58 3.03726 2.72423 0
M  V30 10831 H 1044.25 3.74293 1.81321 0
M  V30 10832 H 1042.83 2.29713 2.93746 0
M  V30 10833 N 1045.02 -0.694098 1.41492 0
M  V30 10834 C 1046.43 -1.00487 1.23994 0
M  V30 10835 C 1046.63 -2.01078 0.130346 0
M  V30 10836 O 1045.69 -2.47403 -0.504775 0
M  V30 10837 C 1047 -1.52808 2.58979 0
M  V30 10838 C 1048.55 -1.64684 2.66173 0
M  V30 10839 C 1049.02 -2.20406 4.01479 0
M  V30 10840 N 1050.52 -2.27765 4.03333 0
M  V30 10841 C 1051.25 -2.7191 5.04829 0
M  V30 10842 N 1050.75 -3.1565 6.16714 0
M  V30 10843 N 1052.54 -2.71487 4.9219 0
M  V30 10844 H 1044.69 -0.027746 2.12382 0
M  V30 10845 H 1046.95 -0.0748741 0.945039 0
M  V30 10846 H 1046.66 -0.863519 3.40934 0
M  V30 10847 H 1046.53 -2.50998 2.81566 0
M  V30 10848 H 1048.92 -2.30251 1.84576 0
M  V30 10849 H 1049 -0.65035 2.47395 0
M  V30 10850 H 1048.65 -1.55454 4.83525 0
M  V30 10851 H 1048.58 -3.2081 4.17599 0
M  V30 10852 H 1051.07 -1.96899 3.22551 0
M  V30 10853 H 1051.38 -3.47966 6.90029 0
M  V30 10854 H 1049.72 -3.13555 6.20248 0
M  V30 10855 H 1052.92 -2.36666 4.03865 0
M  V30 10856 H 1053.09 -3.05573 5.71427 0
M  V30 10857 N 1046.49 -1.27344 -0.928501 0
M  V30 10858 C 1047.74 -1.13804 -1.67859 0
M  V30 10859 C 1048.07 0.31555 -1.91619 0
M  V30 10860 O 1047.35 1.23087 -1.50599 0
M  V30 10861 C 1047.63 -1.9213 -3.04562 0
M  V30 10862 C 1047.48 -3.45468 -2.88048 0
M  V30 10863 C 1048.8 -1.72513 -4.04879 0
M  V30 10864 H 1045.92 -0.414796 -0.609191 0
M  V30 10865 H 1048.56 -1.5649 -1.07753 0
M  V30 10866 H 1046.71 -1.55853 -3.55868 0
M  V30 10867 H 1048.39 -3.9157 -2.43865 0
M  V30 10868 H 1046.63 -3.71849 -2.23407 0
M  V30 10869 H 1047.3 -3.95515 -3.85061 0
M  V30 10870 H 1049.78 -2.04143 -3.62581 0
M  V30 10871 H 1048.65 -2.29713 -4.98521 0
M  V30 10872 H 1048.91 -0.672856 -4.3695 0
M  V30 10873 O 1048.01 1.06273 -1.21607 0
M  V30 10874 H 1048.7 1.67264 -0.976853 0
M  V30 END ATOM
M  V30 BEGIN BOND
M  V30 END BOND
M  V30 END CTAB
M  END
$$$$
