drugbank_drug|DB06285 Parathyroid hormone precursor - Homo sapiens (1-34)
 OpenBabel12092119133D

581586  0  0  0  0  0  0  0  0999 V2000
   -0.9080    1.9825   -0.1171 H   0  0  0  0  0 15  0  0  0  0  0  0
    0.0000    1.5760    0.0000 N   0  0  0  0  0 15  0  0  0  0  0  0
    1.2250    1.9525    0.6995 C   0  0  0  0  0 15  0  0  0  0  0  0
    1.6500    0.8749    1.6651 C   0  0  0  0  0 15  0  0  0  0  0  0
    1.0080   -0.1669    1.8053 O   0  0  0  0  0 15  0  0  0  0  0  0
    1.0560    3.3199    1.4076 C   0  0  0  0  0 15  0  0  0  0  0  0
    0.1600    3.2630    2.5220 O   0  0  0  0  0 15  0  0  0  0  0  0
   -0.4990    0.6374    0.1861 H   0  0  0  0  0 15  0  0  0  0  0  0
    2.0310    2.0453   -0.0532 H   0  0  0  0  0 15  0  0  0  0  0  0
    2.0410    3.6756    1.7710 H   0  0  0  0  0 15  0  0  0  0  0  0
    0.7160    4.0997    0.6995 H   0  0  0  0  0 15  0  0  0  0  0  0
   -0.7070    3.0241    2.1818 H   0  0  0  0  0 15  0  0  0  0  0  0
    1.4781   -0.2728    1.5522 N   0  0  0  0  0 15  0  0  0  0  0  0
    2.7241   -1.0058    1.7610 C   0  0  0  0  0 15  0  0  0  0  0  0
    3.0571   -1.8593    0.5606 C   0  0  0  0  0 15  0  0  0  0  0  0
    2.3321   -1.8942   -0.4418 O   0  0  0  0  0 15  0  0  0  0  0  0
    2.6151   -1.8882    3.0663 C   0  0  0  0  0 15  0  0  0  0  0  0
    2.4681   -1.0646    4.3702 C   0  0  0  0  0 15  0  0  0  0  0  0
    3.7871   -2.8752    3.3320 C   0  0  0  0  0 15  0  0  0  0  0  0
    0.9061   -0.3642    0.6407 H   0  0  0  0  0 15  0  0  0  0  0  0
    3.5481   -0.2782    1.8795 H   0  0  0  0  0 15  0  0  0  0  0  0
    1.6981   -2.5086    2.9665 H   0  0  0  0  0 15  0  0  0  0  0  0
    3.3701   -0.4649    4.5895 H   0  0  0  0  0 15  0  0  0  0  0  0
    1.6131   -0.3680    4.3224 H   0  0  0  0  0 15  0  0  0  0  0  0
    2.2841   -1.7151    5.2468 H   0  0  0  0  0 15  0  0  0  0  0  0
    4.7601   -2.3561    3.4296 H   0  0  0  0  0 15  0  0  0  0  0  0
    3.6361   -3.4640    4.2579 H   0  0  0  0  0 15  0  0  0  0  0  0
    3.8971   -3.6266    2.5285 H   0  0  0  0  0 15  0  0  0  0  0  0
    2.9562   -1.4816   -0.5373 N   0  0  0  0  0 15  0  0  0  0  0  0
    4.1812   -1.5971   -1.3232 C   0  0  0  0  0 15  0  0  0  0  0  0
    4.6062   -0.2549   -1.8637 C   0  0  0  0  0 15  0  0  0  0  0  0
    3.9642    0.7724   -1.6402 O   0  0  0  0  0 15  0  0  0  0  0  0
    4.0122   -2.6412   -2.4551 C   0  0  0  0  0 15  0  0  0  0  0  0
    3.1162   -2.2077   -3.4833 O   0  0  0  0  0 15  0  0  0  0  0  0
    2.4572   -0.5358   -0.3922 H   0  0  0  0  0 15  0  0  0  0  0  0
    4.9872   -1.9409   -0.6473 H   0  0  0  0  0 15  0  0  0  0  0  0
    4.9972   -2.8517   -2.9180 H   0  0  0  0  0 15  0  0  0  0  0  0
    3.6722   -3.6157   -2.0553 H   0  0  0  0  0 15  0  0  0  0  0  0
    2.2492   -2.0991   -3.0821 H   0  0  0  0  0 15  0  0  0  0  0  0
    4.4343    0.7856   -1.3662 N   0  0  0  0  0 15  0  0  0  0  0  0
    5.3443    1.9296   -1.3342 C   0  0  0  0  0 15  0  0  0  0  0  0
    6.3603    1.7239   -0.2359 C   0  0  0  0  0 15  0  0  0  0  0  0
    7.5363    1.9587   -0.4689 O   0  0  0  0  0 15  0  0  0  0  0  0
    4.6013    3.2788   -1.1266 C   0  0  0  0  0 15  0  0  0  0  0  0
    3.6623    3.6120   -2.3201 C   0  0  0  0  0 15  0  0  0  0  0  0
    2.8953    4.8969   -2.1223 C   0  0  0  0  0 15  0  0  0  0  0  0
    3.1183    5.5970   -1.0995 O   0  0  0  0  0 15  0  0  0  0  0  0
    2.0523    5.2175   -3.0010 O   0  0  0  0  0 15  0  0  0  0  0  0
    5.8783    1.9861   -2.2975 H   0  0  0  0  0 15  0  0  0  0  0  0
    3.4633    0.9264   -1.1721 H   0  0  0  0  0 15  0  0  0  0  0  0
    5.3453    4.0861   -1.0302 H   0  0  0  0  0 15  0  0  0  0  0  0
    4.0203    3.2312   -0.1940 H   0  0  0  0  0 15  0  0  0  0  0  0
    2.9273    2.8077   -2.4723 H   0  0  0  0  0 15  0  0  0  0  0  0
    4.2603    3.7070   -3.2380 H   0  0  0  0  0 15  0  0  0  0  0  0
    5.9124    1.2097    1.0102 N   0  0  0  0  0 15  0  0  0  0  0  0
    7.1614    1.0180    1.7413 C   0  0  0  0  0 15  0  0  0  0  0  0
    7.4744   -0.4497    1.9036 C   0  0  0  0  0 15  0  0  0  0  0  0
    8.6804   -0.7607    2.6063 O   0  0  0  0  0 15  0  0  0  0  0  0
    7.1364    1.7727    3.1321 C   0  0  0  0  0 15  0  0  0  0  0  0
    6.7444    3.2817    3.0497 C   0  0  0  0  0 15  0  0  0  0  0  0
    8.4884    1.6649    3.9049 C   0  0  0  0  0 15  0  0  0  0  0  0
    6.3954    3.9616    4.3911 C   0  0  0  0  0 15  0  0  0  0  0  0
    5.3254    0.3773    0.6528 H   0  0  0  0  0 15  0  0  0  0  0  0
    7.9764    1.4465    1.1291 H   0  0  0  0  0 15  0  0  0  0  0  0
    6.3584    1.2720    3.7501 H   0  0  0  0  0 15  0  0  0  0  0  0
    7.5324    3.8550    2.5244 H   0  0  0  0  0 15  0  0  0  0  0  0
    5.8474    3.3944    2.4119 H   0  0  0  0  0 15  0  0  0  0  0  0
    8.4444    2.1462    4.8974 H   0  0  0  0  0 15  0  0  0  0  0  0
    8.7874    0.6222    4.1162 H   0  0  0  0  0 15  0  0  0  0  0  0
    9.3204    2.1400    3.3533 H   0  0  0  0  0 15  0  0  0  0  0  0
    6.0594    5.0060    4.2317 H   0  0  0  0  0 15  0  0  0  0  0  0
    5.5794    3.4362    4.9162 H   0  0  0  0  0 15  0  0  0  0  0  0
    7.2584    4.0077    5.0793 H   0  0  0  0  0 15  0  0  0  0  0  0
    7.3905   -1.2043    1.0166 N   0  0  0  0  0 15  0  0  0  0  0  0
    8.3225   -2.2263    0.5450 C   0  0  0  0  0 15  0  0  0  0  0  0
    9.3355   -1.5848   -0.3726 C   0  0  0  0  0 15  0  0  0  0  0  0
   10.5245   -1.7768   -0.1710 O   0  0  0  0  0 15  0  0  0  0  0  0
    7.6245   -3.3814   -0.2266 C   0  0  0  0  0 15  0  0  0  0  0  0
    6.7975   -4.3188    0.6929 C   0  0  0  0  0 15  0  0  0  0  0  0
    5.8565   -5.2619   -0.0312 C   0  0  0  0  0 15  0  0  0  0  0  0
    4.8825   -5.6612    0.5913 O   0  0  0  0  0 15  0  0  0  0  0  0
    6.0845   -5.6562   -1.3060 N   0  0  0  0  0 15  0  0  0  0  0  0
    8.8495   -2.6372    1.4239 H   0  0  0  0  0 15  0  0  0  0  0  0
    6.4105   -1.3497    0.8941 H   0  0  0  0  0 15  0  0  0  0  0  0
    8.4025   -3.9824   -0.7202 H   0  0  0  0  0 15  0  0  0  0  0  0
    6.9725   -2.9594   -1.0068 H   0  0  0  0  0 15  0  0  0  0  0  0
    6.1925   -3.6975    1.3668 H   0  0  0  0  0 15  0  0  0  0  0  0
    7.4805   -4.9143    1.3182 H   0  0  0  0  0 15  0  0  0  0  0  0
    6.8785   -5.3519   -1.8327 H   0  0  0  0  0 15  0  0  0  0  0  0
    5.4355   -6.2803   -1.7443 H   0  0  0  0  0 15  0  0  0  0  0  0
    8.8686   -0.7928   -1.3621 N   0  0  0  0  0 15  0  0  0  0  0  0
    9.7986   -0.2079   -2.3257 C   0  0  0  0  0 15  0  0  0  0  0  0
   10.7796    0.6591   -1.5681 C   0  0  0  0  0 15  0  0  0  0  0  0
   11.9646    0.5922   -1.8495 O   0  0  0  0  0 15  0  0  0  0  0  0
    9.0946    0.6554   -3.4106 C   0  0  0  0  0 15  0  0  0  0  0  0
    8.0486   -0.1118   -4.2785 C   0  0  0  0  0 15  0  0  0  0  0  0
    7.3746    0.8723   -5.2754 C   0  0  0  0  0 15  0  0  0  0  0  0
    8.6746   -1.3030   -5.0579 C   0  0  0  0  0 15  0  0  0  0  0  0
   10.3686   -1.0129   -2.8174 H   0  0  0  0  0 15  0  0  0  0  0  0
    7.9146   -0.4885   -1.3546 H   0  0  0  0  0 15  0  0  0  0  0  0
    9.8676    1.0746   -4.0747 H   0  0  0  0  0 15  0  0  0  0  0  0
    8.5916    1.4933   -2.9046 H   0  0  0  0  0 15  0  0  0  0  0  0
    7.2506   -0.5121   -3.6301 H   0  0  0  0  0 15  0  0  0  0  0  0
    6.8986    1.7052   -4.7321 H   0  0  0  0  0 15  0  0  0  0  0  0
    6.5986    0.3633   -5.8648 H   0  0  0  0  0 15  0  0  0  0  0  0
    8.1226    1.2900   -5.9682 H   0  0  0  0  0 15  0  0  0  0  0  0
    9.5366   -0.9594   -5.6522 H   0  0  0  0  0 15  0  0  0  0  0  0
    7.9336   -1.7455   -5.7415 H   0  0  0  0  0 15  0  0  0  0  0  0
    9.0036   -2.0966   -4.3723 H   0  0  0  0  0 15  0  0  0  0  0  0
   10.3467    1.4787   -0.5451 N   0  0  0  0  0 15  0  0  0  0  0  0
   11.2797    2.2675    0.2569 C   0  0  0  0  0 15  0  0  0  0  0  0
   12.2577    1.3329    0.9312 C   0  0  0  0  0 15  0  0  0  0  0  0
   13.4417    1.6266    0.9526 O   0  0  0  0  0 15  0  0  0  0  0  0
   10.5687    3.0998    1.3650 C   0  0  0  0  0 15  0  0  0  0  0  0
    9.6147    4.1892    0.8005 C   0  0  0  0  0 15  0  0  0  0  0  0
   10.4477    5.3440   -0.3435 S   0  0  0  0  0 15  0  0  0  0  0  0
   11.6037    6.2119    0.7667 C   0  0  0  0  0 15  0  0  0  0  0  0
   11.8367    2.9442   -0.4125 H   0  0  0  0  0 15  0  0  0  0  0  0
    9.3697    1.5081   -0.3312 H   0  0  0  0  0 15  0  0  0  0  0  0
   11.3277    3.5850    1.9997 H   0  0  0  0  0 15  0  0  0  0  0  0
    9.9887    2.4169    2.0062 H   0  0  0  0  0 15  0  0  0  0  0  0
    9.1817    4.7684    1.6323 H   0  0  0  0  0 15  0  0  0  0  0  0
    8.7837    3.7321    0.2422 H   0  0  0  0  0 15  0  0  0  0  0  0
   11.0757    6.5680    1.6618 H   0  0  0  0  0 15  0  0  0  0  0  0
   12.0187    7.0774    0.2252 H   0  0  0  0  0 15  0  0  0  0  0  0
   12.4267    5.5457    1.0540 H   0  0  0  0  0 15  0  0  0  0  0  0
   11.8248    0.2810    1.5507 N   0  0  0  0  0 15  0  0  0  0  0  0
   12.7748   -0.6186    2.1945 C   0  0  0  0  0 15  0  0  0  0  0  0
   13.7588   -1.1140    1.1610 C   0  0  0  0  0 15  0  0  0  0  0  0
   14.9508   -1.0581    1.4189 O   0  0  0  0  0 15  0  0  0  0  0  0
   12.0798   -1.7995    2.9236 C   0  0  0  0  0 15  0  0  0  0  0  0
   11.1658   -1.3210    4.0300 C   0  0  0  0  0 15  0  0  0  0  0  0
   11.5568   -0.5590    5.0270 N   0  0  0  0  0 15  0  0  0  0  0  0
    9.8548   -1.6035    4.1618 C   0  0  0  0  0 15  0  0  0  0  0  0
   10.5558   -0.3067    5.8089 C   0  0  0  0  0 15  0  0  0  0  0  0
    9.5318   -0.8808    5.3642 N   0  0  0  0  0 15  0  0  0  0  0  0
   13.3338   -0.0287    2.9389 H   0  0  0  0  0 15  0  0  0  0  0  0
   10.8478    0.0848    1.6218 H   0  0  0  0  0 15  0  0  0  0  0  0
   12.8448   -2.4553    3.3693 H   0  0  0  0  0 15  0  0  0  0  0  0
   11.5048   -2.3933    2.1943 H   0  0  0  0  0 15  0  0  0  0  0  0
   12.5158   -0.2058    5.1749 H   0  0  0  0  0 15  0  0  0  0  0  0
    9.1928   -2.2062    3.5445 H   0  0  0  0  0 15  0  0  0  0  0  0
   10.5828    0.3039    6.7121 H   0  0  0  0  0 15  0  0  0  0  0  0
   13.3029   -1.5760    0.0084 N   0  0  0  0  0 15  0  0  0  0  0  0
   14.2509   -2.1008   -0.9985 C   0  0  0  0  0 15  0  0  0  0  0  0
   15.2449   -1.0226   -1.3505 C   0  0  0  0  0 15  0  0  0  0  0  0
   16.4509   -1.2072   -1.3352 O   0  0  0  0  0 15  0  0  0  0  0  0
   12.8259   -0.6709   -0.3397 H   0  0  0  0  0 15  0  0  0  0  0  0
   14.7969   -2.9365   -0.5304 H   0  0  0  0  0 15  0  0  0  0  0  0
   13.5459   -2.6262   -2.2788 C   0  0  0  0  0 15  0  0  0  0  0  0
   12.8689   -3.4521   -2.0166 H   0  0  0  0  0 15  0  0  0  0  0  0
   14.3089   -3.0300   -2.9659 H   0  0  0  0  0 15  0  0  0  0  0  0
   12.7679   -1.5441   -2.9943 C   0  0  0  0  0 15  0  0  0  0  0  0
   13.2979   -0.9318   -3.9074 O   0  0  0  0  0 15  0  0  0  0  0  0
   11.5039   -1.2695   -2.6140 N   0  0  0  0  0 15  0  0  0  0  0  0
   11.0509   -1.7692   -1.8723 H   0  0  0  0  0 15  0  0  0  0  0  0
   11.0089   -0.5477   -3.0959 H   0  0  0  0  0 15  0  0  0  0  0  0
   14.7810    0.2645   -1.5536 N   0  0  0  0  0 15  0  0  0  0  0  0
   15.7110    1.3312   -1.9184 C   0  0  0  0  0 15  0  0  0  0  0  0
   16.6920    1.5110   -0.7812 C   0  0  0  0  0 15  0  0  0  0  0  0
   17.8770    1.6400   -1.0400 O   0  0  0  0  0 15  0  0  0  0  0  0
   15.0070    2.6892   -2.1977 C   0  0  0  0  0 15  0  0  0  0  0  0
   13.9610    2.6566   -3.3557 C   0  0  0  0  0 15  0  0  0  0  0  0
   13.2870    4.0509   -3.4900 C   0  0  0  0  0 15  0  0  0  0  0  0
   14.5870    2.2419   -4.7174 C   0  0  0  0  0 15  0  0  0  0  0  0
   16.2810    1.0284   -2.8118 H   0  0  0  0  0 15  0  0  0  0  0  0
   13.8270    0.4933   -1.3529 H   0  0  0  0  0 15  0  0  0  0  0  0
   15.7800    3.4366   -2.4387 H   0  0  0  0  0 15  0  0  0  0  0  0
   14.5040    3.0080   -1.2723 H   0  0  0  0  0 15  0  0  0  0  0  0
   13.1630    1.9338   -3.1145 H   0  0  0  0  0 15  0  0  0  0  0  0
   12.8110    4.3421   -2.5392 H   0  0  0  0  0 15  0  0  0  0  0  0
   12.5110    4.0380   -4.2687 H   0  0  0  0  0 15  0  0  0  0  0  0
   14.0350    4.8156   -3.7541 H   0  0  0  0  0 15  0  0  0  0  0  0
   15.4490    2.8865   -4.9533 H   0  0  0  0  0 15  0  0  0  0  0  0
   13.8460    2.3404   -5.5258 H   0  0  0  0  0 15  0  0  0  0  0  0
   14.9160    1.1933   -4.6999 H   0  0  0  0  0 15  0  0  0  0  0  0
   16.2591    1.4844    0.5294 N   0  0  0  0  0 15  0  0  0  0  0  0
   17.5071    1.5618    1.2827 C   0  0  0  0  0 15  0  0  0  0  0  0
   17.8281    0.2377    1.9355 C   0  0  0  0  0 15  0  0  0  0  0  0
   17.0981   -0.7408    1.8135 O   0  0  0  0  0 15  0  0  0  0  0  0
   15.6781    0.5754    0.4764 H   0  0  0  0  0 15  0  0  0  0  0  0
   18.3401    1.8491    0.6160 H   0  0  0  0  0 15  0  0  0  0  0  0
   17.4361    2.3431    2.0617 H   0  0  0  0  0 15  0  0  0  0  0  0
   17.7372   -0.7783    1.3704 N   0  0  0  0  0 15  0  0  0  0  0  0
   18.6842   -1.8914    1.3227 C   0  0  0  0  0 15  0  0  0  0  0  0
   19.6542   -1.6502    0.1894 C   0  0  0  0  0 15  0  0  0  0  0  0
   20.8392   -1.8702    0.3777 O   0  0  0  0  0 15  0  0  0  0  0  0
   17.9792   -3.2611    1.1289 C   0  0  0  0  0 15  0  0  0  0  0  0
   17.0922   -3.6223    2.3540 C   0  0  0  0  0 15  0  0  0  0  0  0
   16.2272   -4.8838    2.0895 C   0  0  0  0  0 15  0  0  0  0  0  0
   15.2662   -5.1721    3.2735 C   0  0  0  0  0 15  0  0  0  0  0  0
   14.4032   -6.3455    3.0049 N   0  0  0  0  0 15  0  0  0  0  0  0
   19.2432   -1.9255    2.2744 H   0  0  0  0  0 15  0  0  0  0  0  0
   16.7802   -0.9415    1.1303 H   0  0  0  0  0 15  0  0  0  0  0  0
   18.7382   -4.0512    0.9968 H   0  0  0  0  0 15  0  0  0  0  0  0
   17.3682   -3.2209    0.2138 H   0  0  0  0  0 15  0  0  0  0  0  0
   16.4202   -2.7826    2.5937 H   0  0  0  0  0 15  0  0  0  0  0  0
   17.7322   -3.7948    3.2372 H   0  0  0  0  0 15  0  0  0  0  0  0
   16.8862   -5.7527    1.9273 H   0  0  0  0  0 15  0  0  0  0  0  0
   15.6252   -4.7322    1.1795 H   0  0  0  0  0 15  0  0  0  0  0  0
   14.6302   -4.2880    3.4411 H   0  0  0  0  0 15  0  0  0  0  0  0
   15.8552   -5.3428    4.1919 H   0  0  0  0  0 15  0  0  0  0  0  0
   13.8012   -6.2076    2.1212 H   0  0  0  0  0 15  0  0  0  0  0  0
   13.7182   -6.5218    3.8236 H   0  0  0  0  0 15  0  0  0  0  0  0
   14.9862   -7.2439    2.8788 H   0  0  0  0  0 15  0  0  0  0  0  0
   19.2153   -1.2150   -1.0038 N   0  0  0  0  0 15  0  0  0  0  0  0
   20.1653   -0.9428   -2.0759 C   0  0  0  0  0 15  0  0  0  0  0  0
   21.1493    0.1024   -1.6057 C   0  0  0  0  0 15  0  0  0  0  0  0
   22.3413   -0.1067   -1.7668 O   0  0  0  0  0 15  0  0  0  0  0  0
   19.4703   -0.5107   -3.3948 C   0  0  0  0  0 15  0  0  0  0  0  0
   18.5563   -1.5901   -3.9316 C   0  0  0  0  0 15  0  0  0  0  0  0
   18.9473   -2.8154   -4.2020 N   0  0  0  0  0 15  0  0  0  0  0  0
   17.2453   -1.4593   -4.2145 C   0  0  0  0  0 15  0  0  0  0  0  0
   17.9463   -3.5126   -4.6367 C   0  0  0  0  0 15  0  0  0  0  0  0
   16.9223   -2.7870   -4.6672 N   0  0  0  0  0 15  0  0  0  0  0  0
   20.7243   -1.8738   -2.2642 H   0  0  0  0  0 15  0  0  0  0  0  0
   18.2383   -1.1109   -1.1846 H   0  0  0  0  0 15  0  0  0  0  0  0
   20.2353   -0.2971   -4.1584 H   0  0  0  0  0 15  0  0  0  0  0  0
   18.8953    0.4134   -3.2206 H   0  0  0  0  0 15  0  0  0  0  0  0
   19.9063   -3.1808   -4.0872 H   0  0  0  0  0 15  0  0  0  0  0  0
   16.5833   -0.6005   -4.1316 H   0  0  0  0  0 15  0  0  0  0  0  0
   17.9733   -4.5618   -4.9330 H   0  0  0  0  0 15  0  0  0  0  0  0
   20.6934    1.1989   -1.0230 N   0  0  0  0  0 15  0  0  0  0  0  0
   21.6234    2.2514   -0.6192 C   0  0  0  0  0 15  0  0  0  0  0  0
   22.6044    1.6605    0.3689 C   0  0  0  0  0 15  0  0  0  0  0  0
   23.7894    1.9255    0.2529 O   0  0  0  0  0 15  0  0  0  0  0  0
   20.9194    3.4728    0.0369 C   0  0  0  0  0 15  0  0  0  0  0  0
   19.8734    4.1900   -0.8729 C   0  0  0  0  0 15  0  0  0  0  0  0
   19.1994    5.3464   -0.0822 C   0  0  0  0  0 15  0  0  0  0  0  0
   20.4994    4.7445   -2.1839 C   0  0  0  0  0 15  0  0  0  0  0  0
   22.1934    2.5917   -1.4990 H   0  0  0  0  0 15  0  0  0  0  0  0
   19.7394    1.2458   -0.7222 H   0  0  0  0  0 15  0  0  0  0  0  0
   21.6924    4.2010    0.3310 H   0  0  0  0  0 15  0  0  0  0  0  0
   20.4164    3.1243    0.9515 H   0  0  0  0  0 15  0  0  0  0  0  0
   19.0754    3.4806   -1.1510 H   0  0  0  0  0 15  0  0  0  0  0  0
   18.7234    4.9603    0.8342 H   0  0  0  0  0 15  0  0  0  0  0  0
   18.4234    5.8356   -0.6881 H   0  0  0  0  0 15  0  0  0  0  0  0
   19.9474    6.1025    0.2052 H   0  0  0  0  0 15  0  0  0  0  0  0
   21.3614    5.3906   -1.9517 H   0  0  0  0  0 15  0  0  0  0  0  0
   19.7584    5.3383   -2.7412 H   0  0  0  0  0 15  0  0  0  0  0  0
   20.8284    3.9284   -2.8426 H   0  0  0  0  0 15  0  0  0  0  0  0
   22.1715    0.8000    1.3578 N   0  0  0  0  0 15  0  0  0  0  0  0
   23.1195    0.1939    2.3179 C   0  0  0  0  0 15  0  0  0  0  0  0
   24.1135   -0.6527    1.5632 C   0  0  0  0  0 15  0  0  0  0  0  0
   25.3195   -0.5466    1.7150 O   0  0  0  0  0 15  0  0  0  0  0  0
   21.6945    0.0439    0.7507 H   0  0  0  0  0 15  0  0  0  0  0  0
   23.6655    1.0188    2.8047 H   0  0  0  0  0 15  0  0  0  0  0  0
   22.4145   -0.6483    3.4160 C   0  0  0  0  0 15  0  0  0  0  0  0
   21.7375   -0.0062    3.9980 H   0  0  0  0  0 15  0  0  0  0  0  0
   23.1775   -1.0390    4.1107 H   0  0  0  0  0 15  0  0  0  0  0  0
   21.6365   -1.8111    2.8408 C   0  0  0  0  0 15  0  0  0  0  0  0
   22.1665   -2.9082    2.7710 O   0  0  0  0  0 15  0  0  0  0  0  0
   20.3725   -1.6206    2.4122 N   0  0  0  0  0 15  0  0  0  0  0  0
   19.9195   -0.7281    2.4710 H   0  0  0  0  0 15  0  0  0  0  0  0
   19.8775   -2.4001    2.0308 H   0  0  0  0  0 15  0  0  0  0  0  0
   23.6496   -1.4758    0.5530 N   0  0  0  0  0 15  0  0  0  0  0  0
   24.8746   -2.0738    0.0301 C   0  0  0  0  0 15  0  0  0  0  0  0
   25.2996   -1.4035   -1.2523 C   0  0  0  0  0 15  0  0  0  0  0  0
   24.6576   -0.4771   -1.7491 O   0  0  0  0  0 15  0  0  0  0  0  0
   24.7056   -3.6027   -0.1532 C   0  0  0  0  0 15  0  0  0  0  0  0
   23.8096   -3.9404   -1.2168 O   0  0  0  0  0 15  0  0  0  0  0  0
   23.1506   -0.6622    0.0494 H   0  0  0  0  0 15  0  0  0  0  0  0
   25.6806   -1.8966    0.7674 H   0  0  0  0  0 15  0  0  0  0  0  0
   25.6906   -4.0633   -0.3688 H   0  0  0  0  0 15  0  0  0  0  0  0
   24.3656   -4.0846    0.7834 H   0  0  0  0  0 15  0  0  0  0  0  0
   22.9426   -3.5974   -0.9821 H   0  0  0  0  0 15  0  0  0  0  0  0
   25.1277   -0.2892   -1.5492 N   0  0  0  0  0 15  0  0  0  0  0  0
   26.0607    0.6338   -2.1922 C   0  0  0  0  0 15  0  0  0  0  0  0
   27.0387    1.1417   -1.1577 C   0  0  0  0  0 15  0  0  0  0  0  0
   28.2227    1.2121   -1.4436 O   0  0  0  0  0 15  0  0  0  0  0  0
   25.3497    1.8659   -2.8267 C   0  0  0  0  0 15  0  0  0  0  0  0
   24.3957    1.4923   -3.9954 C   0  0  0  0  0 15  0  0  0  0  0  0
   25.2287    0.5583   -5.3258 S   0  0  0  0  0 15  0  0  0  0  0  0
   26.3847    1.7985   -5.9950 C   0  0  0  0  0 15  0  0  0  0  0  0
   26.6177    0.0875   -2.9717 H   0  0  0  0  0 15  0  0  0  0  0  0
   24.1507   -0.0734   -1.5423 H   0  0  0  0  0 15  0  0  0  0  0  0
   26.1087    2.5730   -3.1985 H   0  0  0  0  0 15  0  0  0  0  0  0
   24.7697    2.3834   -2.0459 H   0  0  0  0  0 15  0  0  0  0  0  0
   23.9627    2.4094   -4.4268 H   0  0  0  0  0 15  0  0  0  0  0  0
   23.5647    0.8652   -3.6385 H   0  0  0  0  0 15  0  0  0  0  0  0
   25.8567    2.7406   -6.1959 H   0  0  0  0  0 15  0  0  0  0  0  0
   26.7997    1.4099   -6.9392 H   0  0  0  0  0 15  0  0  0  0  0  0
   27.2077    1.9698   -5.2902 H   0  0  0  0  0 15  0  0  0  0  0  0
   26.6058    1.5759   -0.0167 N   0  0  0  0  0 15  0  0  0  0  0  0
   27.5158    2.1291    0.9852 C   0  0  0  0  0 15  0  0  0  0  0  0
   28.5318    1.0783    1.3656 C   0  0  0  0  0 15  0  0  0  0  0  0
   29.7078    1.3983    1.4495 O   0  0  0  0  0 15  0  0  0  0  0  0
   26.7728    2.6351    2.2530 C   0  0  0  0  0 15  0  0  0  0  0  0
   25.8338    3.8326    1.9343 C   0  0  0  0  0 15  0  0  0  0  0  0
   25.0668    4.3143    3.1416 C   0  0  0  0  0 15  0  0  0  0  0  0
   25.2898    3.7885    4.2641 O   0  0  0  0  0 15  0  0  0  0  0  0
   24.2238    5.2342    2.9719 O   0  0  0  0  0 15  0  0  0  0  0  0
   28.0498    2.9877    0.5449 H   0  0  0  0  0 15  0  0  0  0  0  0
   25.6348    1.4801    0.2031 H   0  0  0  0  0 15  0  0  0  0  0  0
   27.5168    2.9618    2.9976 H   0  0  0  0  0 15  0  0  0  0  0  0
   26.1918    1.8074    2.6854 H   0  0  0  0  0 15  0  0  0  0  0  0
   25.0988    3.5553    1.1640 H   0  0  0  0  0 15  0  0  0  0  0  0
   26.4318    4.6715    1.5501 H   0  0  0  0  0 15  0  0  0  0  0  0
   28.0839   -0.2563    1.5550 N   0  0  0  0  0 15  0  0  0  0  0  0
   29.4999   -0.6043    1.4772 C   0  0  0  0  0 15  0  0  0  0  0  0
   29.6999   -1.8876    0.7050 C   0  0  0  0  0 15  0  0  0  0  0  0
   28.7559   -2.5144    0.2306 O   0  0  0  0  0 15  0  0  0  0  0  0
   30.0689   -0.7158    2.9206 C   0  0  0  0  0 15  0  0  0  0  0  0
   31.6169   -0.8087    3.0237 C   0  0  0  0  0 15  0  0  0  0  0  0
   32.0919   -0.9518    4.4800 C   0  0  0  0  0 15  0  0  0  0  0  0
   33.5829   -1.0169    4.5190 N   0  0  0  0  0 15  0  0  0  0  0  0
   34.3179   -1.1467    5.6182 C   0  0  0  0  0 15  0  0  0  0  0  0
   33.8139   -1.2426    6.8157 N   0  0  0  0  0 15  0  0  0  0  0  0
   35.6069   -1.1791    5.4959 N   0  0  0  0  0 15  0  0  0  0  0  0
   27.7579    0.5863    2.0415 H   0  0  0  0  0 15  0  0  0  0  0  0
   30.0209    0.2010    0.9264 H   0  0  0  0  0 15  0  0  0  0  0  0
   29.7269    0.1570    3.5135 H   0  0  0  0  0 15  0  0  0  0  0  0
   29.6009   -1.5907    3.4202 H   0  0  0  0  0 15  0  0  0  0  0  0
   31.9879   -1.6719    2.4317 H   0  0  0  0  0 15  0  0  0  0  0  0
   32.0689    0.0912    2.5564 H   0  0  0  0  0 15  0  0  0  0  0  0
   31.7129   -0.0931    5.0781 H   0  0  0  0  0 15  0  0  0  0  0  0
   31.6429   -1.8666    4.9241 H   0  0  0  0  0 15  0  0  0  0  0  0
   34.1339   -0.9545    3.6565 H   0  0  0  0  0 15  0  0  0  0  0  0
   34.4469   -1.3405    7.6109 H   0  0  0  0  0 15  0  0  0  0  0  0
   32.7919   -1.2124    6.8434 H   0  0  0  0  0 15  0  0  0  0  0  0
   35.9829   -1.1006    4.5498 H   0  0  0  0  0 15  0  0  0  0  0  0
   36.1559   -1.2768    6.3530 H   0  0  0  0  0 15  0  0  0  0  0  0
   29.5620   -1.4872   -0.5215 N   0  0  0  0  0 15  0  0  0  0  0  0
   30.8080   -1.5740   -1.2788 C   0  0  0  0  0 15  0  0  0  0  0  0
   31.1410   -0.2508   -1.9257 C   0  0  0  0  0 15  0  0  0  0  0  0
   30.4160    0.7439   -1.7971 O   0  0  0  0  0 15  0  0  0  0  0  0
   30.6990   -2.7184   -2.3616 C   0  0  0  0  0 15  0  0  0  0  0  0
   30.5520   -4.1389   -1.7610 C   0  0  0  0  0 15  0  0  0  0  0  0
   31.8710   -2.8201   -3.3788 C   0  0  0  0  0 15  0  0  0  0  0  0
   28.9900   -0.5729   -0.4636 H   0  0  0  0  0 15  0  0  0  0  0  0
   31.6320   -1.8093   -0.5801 H   0  0  0  0  0 15  0  0  0  0  0  0
   29.7820   -2.5191   -2.9576 H   0  0  0  0  0 15  0  0  0  0  0  0
   31.4540   -4.4528   -1.2050 H   0  0  0  0  0 15  0  0  0  0  0  0
   29.6970   -4.2050   -1.0660 H   0  0  0  0  0 15  0  0  0  0  0  0
   30.3680   -4.8980   -2.5455 H   0  0  0  0  0 15  0  0  0  0  0  0
   32.8440   -3.0009   -2.8825 H   0  0  0  0  0 15  0  0  0  0  0  0
   31.7200   -3.6380   -4.1103 H   0  0  0  0  0 15  0  0  0  0  0  0
   31.9810   -1.9051   -3.9895 H   0  0  0  0  0 15  0  0  0  0  0  0
   31.0401    0.7711   -1.3745 N   0  0  0  0  0 15  0  0  0  0  0  0
   31.9501    1.9154   -1.3546 C   0  0  0  0  0 15  0  0  0  0  0  0
   32.9661    1.7213   -0.2541 C   0  0  0  0  0 15  0  0  0  0  0  0
   34.1421    1.9536   -0.4896 O   0  0  0  0  0 15  0  0  0  0  0  0
   31.2071    3.2667   -1.1613 C   0  0  0  0  0 15  0  0  0  0  0  0
   30.2681    3.5872   -2.3583 C   0  0  0  0  0 15  0  0  0  0  0  0
   29.5011    4.8741   -2.1741 C   0  0  0  0  0 15  0  0  0  0  0  0
   29.7241    5.5851   -1.1588 O   0  0  0  0  0 15  0  0  0  0  0  0
   28.6581    5.1854   -3.0562 O   0  0  0  0  0 15  0  0  0  0  0  0
   32.4841    1.9617   -2.3185 H   0  0  0  0  0 15  0  0  0  0  0  0
   30.0691    0.9139   -1.1819 H   0  0  0  0  0 15  0  0  0  0  0  0
   31.9511    4.0750   -1.0734 H   0  0  0  0  0 15  0  0  0  0  0  0
   30.6261    3.2289   -0.2283 H   0  0  0  0  0 15  0  0  0  0  0  0
   29.5331    2.7813   -2.5019 H   0  0  0  0  0 15  0  0  0  0  0  0
   30.8661    3.6724   -3.2771 H   0  0  0  0  0 15  0  0  0  0  0  0
   32.5182    1.2203    0.9973 N   0  0  0  0  0 15  0  0  0  0  0  0
   33.7642    1.0538    1.7397 C   0  0  0  0  0 15  0  0  0  0  0  0
   34.1192   -0.4074    1.8804 C   0  0  0  0  0 15  0  0  0  0  0  0
   33.4122   -1.2981    1.4092 O   0  0  0  0  0 15  0  0  0  0  0  0
   33.6062    1.6934    3.1473 C   0  0  0  0  0 15  0  0  0  0  0  0
   33.4352    3.2154    3.1439 C   0  0  0  0  0 15  0  0  0  0  0  0
   32.2052    3.9062    3.2054 C   0  0  0  0  0 15  0  0  0  0  0  0
   34.4032    4.1853    2.9890 C   0  0  0  0  0 15  0  0  0  0  0  0
   32.3852    5.2994    3.0991 N   0  0  0  0  0 15  0  0  0  0  0  0
   33.7562    5.4464    2.9625 C   0  0  0  0  0 15  0  0  0  0  0  0
   35.8112    4.0948    2.8326 C   0  0  0  0  0 15  0  0  0  0  0  0
   34.5142    6.6275    2.7956 C   0  0  0  0  0 15  0  0  0  0  0  0
   36.5402    5.2723    2.6793 C   0  0  0  0  0 15  0  0  0  0  0  0
   35.9022    6.5226    2.6596 C   0  0  0  0  0 15  0  0  0  0  0  0
   32.0012    0.4400    0.6465 H   0  0  0  0  0 15  0  0  0  0  0  0
   34.5852    1.5451    1.1847 H   0  0  0  0  0 15  0  0  0  0  0  0
   32.7562    1.2278    3.6848 H   0  0  0  0  0 15  0  0  0  0  0  0
   34.4882    1.4583    3.7751 H   0  0  0  0  0 15  0  0  0  0  0  0
   31.2432    3.4159    3.2804 H   0  0  0  0  0 15  0  0  0  0  0  0
   31.6672    6.0293    3.0791 H   0  0  0  0  0 15  0  0  0  0  0  0
   36.3092    3.1360    2.8358 H   0  0  0  0  0 15  0  0  0  0  0  0
   34.0272    7.5878    2.7798 H   0  0  0  0  0 15  0  0  0  0  0  0
   37.6132    5.2205    2.5681 H   0  0  0  0  0 15  0  0  0  0  0  0
   36.4932    7.4184    2.5424 H   0  0  0  0  0 15  0  0  0  0  0  0
   33.9963   -1.1934    1.0293 N   0  0  0  0  0 15  0  0  0  0  0  0
   34.9263   -2.2481    0.6311 C   0  0  0  0  0 15  0  0  0  0  0  0
   35.9073   -1.6624   -0.3601 C   0  0  0  0  0 15  0  0  0  0  0  0
   37.0923   -1.9268   -0.2427 O   0  0  0  0  0 15  0  0  0  0  0  0
   34.2223   -3.4730   -0.0185 C   0  0  0  0  0 15  0  0  0  0  0  0
   33.1763   -4.1854    0.8951 C   0  0  0  0  0 15  0  0  0  0  0  0
   32.5023   -5.3459    0.1106 C   0  0  0  0  0 15  0  0  0  0  0  0
   33.8023   -4.7329    2.2090 C   0  0  0  0  0 15  0  0  0  0  0  0
   35.4963   -2.5837    1.5128 H   0  0  0  0  0 15  0  0  0  0  0  0
   33.0423   -1.2419    0.7288 H   0  0  0  0  0 15  0  0  0  0  0  0
   34.9953   -4.2027   -0.3087 H   0  0  0  0  0 15  0  0  0  0  0  0
   33.7193   -3.1293   -0.9349 H   0  0  0  0  0 15  0  0  0  0  0  0
   32.3783   -3.4745    1.1695 H   0  0  0  0  0 15  0  0  0  0  0  0
   32.0263   -4.9647   -0.8079 H   0  0  0  0  0 15  0  0  0  0  0  0
   31.7263   -5.8318    0.7191 H   0  0  0  0  0 15  0  0  0  0  0  0
   33.2503   -6.1036   -0.1729 H   0  0  0  0  0 15  0  0  0  0  0  0
   34.6643   -5.3801    1.9803 H   0  0  0  0  0 15  0  0  0  0  0  0
   33.0613   -5.3237    2.7695 H   0  0  0  0  0 15  0  0  0  0  0  0
   34.1313   -3.9133    2.8634 H   0  0  0  0  0 15  0  0  0  0  0  0
   35.4744   -0.8072   -1.3536 N   0  0  0  0  0 15  0  0  0  0  0  0
   36.8904   -0.4910   -1.5186 C   0  0  0  0  0 15  0  0  0  0  0  0
   37.0904    0.9876   -1.7564 C   0  0  0  0  0 15  0  0  0  0  0  0
   36.1464    1.7727   -1.7981 O   0  0  0  0  0 15  0  0  0  0  0  0
   37.4594   -1.3369   -2.6934 C   0  0  0  0  0 15  0  0  0  0  0  0
   39.0074   -1.3325   -2.8322 C   0  0  0  0  0 15  0  0  0  0  0  0
   39.4824   -2.1625   -4.0373 C   0  0  0  0  0 15  0  0  0  0  0  0
   40.9734   -2.1379   -4.1091 N   0  0  0  0  0 15  0  0  0  0  0  0
   41.7084   -2.7477   -5.0328 C   0  0  0  0  0 15  0  0  0  0  0  0
   41.2044   -3.4468   -6.0097 N   0  0  0  0  0 15  0  0  0  0  0  0
   42.9974   -2.6441   -4.9603 N   0  0  0  0  0 15  0  0  0  0  0  0
   35.1484   -1.7649   -1.1818 H   0  0  0  0  0 15  0  0  0  0  0  0
   37.4114   -0.7512   -0.5783 H   0  0  0  0  0 15  0  0  0  0  0  0
   37.1174   -2.3863   -2.5835 H   0  0  0  0  0 15  0  0  0  0  0  0
   36.9914   -0.9906   -3.6396 H   0  0  0  0  0 15  0  0  0  0  0  0
   39.3784   -0.2909   -2.9366 H   0  0  0  0  0 15  0  0  0  0  0  0
   39.4594   -1.7187   -1.8946 H   0  0  0  0  0 15  0  0  0  0  0  0
   39.1034   -3.2045   -3.9405 H   0  0  0  0  0 15  0  0  0  0  0  0
   39.0334   -1.7499   -4.9668 H   0  0  0  0  0 15  0  0  0  0  0  0
   41.5244   -1.6292   -3.4098 H   0  0  0  0  0 15  0  0  0  0  0  0
   41.8374   -3.8850   -6.6805 H   0  0  0  0  0 15  0  0  0  0  0  0
   40.1824   -3.4879   -6.0114 H   0  0  0  0  0 15  0  0  0  0  0  0
   43.3734   -2.0938   -4.1866 H   0  0  0  0  0 15  0  0  0  0  0  0
   43.5464   -3.1223   -5.6782 H   0  0  0  0  0 15  0  0  0  0  0  0
   36.9525    1.4729   -0.5608 N   0  0  0  0  0 15  0  0  0  0  0  0
   37.8995    2.3006    0.1849 C   0  0  0  0  0 15  0  0  0  0  0  0
   38.8695    1.3928    0.9050 C   0  0  0  0  0 15  0  0  0  0  0  0
   40.0545    1.6824    0.9000 O   0  0  0  0  0 15  0  0  0  0  0  0
   37.1945    3.2332    1.2067 C   0  0  0  0  0 15  0  0  0  0  0  0
   36.3075    4.2919    0.4923 C   0  0  0  0  0 15  0  0  0  0  0  0
   35.4425    5.0959    1.4996 C   0  0  0  0  0 15  0  0  0  0  0  0
   34.4815    6.0723    0.7704 C   0  0  0  0  0 15  0  0  0  0  0  0
   33.6185    6.8058    1.7248 N   0  0  0  0  0 15  0  0  0  0  0  0
   38.4585    2.9330   -0.5270 H   0  0  0  0  0 15  0  0  0  0  0  0
   35.9955    1.4457   -0.2717 H   0  0  0  0  0 15  0  0  0  0  0  0
   37.9535    3.7581    1.8117 H   0  0  0  0  0 15  0  0  0  0  0  0
   36.5835    2.6193    1.8866 H   0  0  0  0  0 15  0  0  0  0  0  0
   35.6355    3.7972   -0.2273 H   0  0  0  0  0 15  0  0  0  0  0  0
   36.9475    4.9874   -0.0788 H   0  0  0  0  0 15  0  0  0  0  0  0
   36.1015    5.6625    2.1781 H   0  0  0  0  0 15  0  0  0  0  0  0
   34.8405    4.3995    2.1046 H   0  0  0  0  0 15  0  0  0  0  0  0
   33.8455    5.4974    0.0781 H   0  0  0  0  0 15  0  0  0  0  0  0
   35.0705    6.7888    0.1711 H   0  0  0  0  0 15  0  0  0  0  0  0
   33.0165    6.1367    2.3183 H   0  0  0  0  0 15  0  0  0  0  0  0
   32.9335    7.4632    1.2060 H   0  0  0  0  0 15  0  0  0  0  0  0
   34.2015    7.4182    2.3943 H   0  0  0  0  0 15  0  0  0  0  0  0
   38.4306    0.2974    1.5477 N   0  0  0  0  0 15  0  0  0  0  0  0
   39.3776   -0.5803    2.2339 C   0  0  0  0  0 15  0  0  0  0  0  0
   40.3476   -1.1324    1.2152 C   0  0  0  0  0 15  0  0  0  0  0  0
   41.5326   -1.1776    1.5013 O   0  0  0  0  0 15  0  0  0  0  0  0
   38.6726   -1.7480    2.9755 C   0  0  0  0  0 15  0  0  0  0  0  0
   37.7856   -1.2276    4.1419 C   0  0  0  0  0 15  0  0  0  0  0  0
   36.9206   -2.3589    4.7595 C   0  0  0  0  0 15  0  0  0  0  0  0
   35.9596   -1.8097    5.8473 C   0  0  0  0  0 15  0  0  0  0  0  0
   35.0966   -2.8766    6.4046 N   0  0  0  0  0 15  0  0  0  0  0  0
   39.9366    0.0115    2.9800 H   0  0  0  0  0 15  0  0  0  0  0  0
   37.4736    0.0174    1.4709 H   0  0  0  0  0 15  0  0  0  0  0  0
   39.4316   -2.4348    3.3879 H   0  0  0  0  0 15  0  0  0  0  0  0
   38.0616   -2.3115    2.2533 H   0  0  0  0  0 15  0  0  0  0  0  0
   37.1136   -0.4333    3.7792 H   0  0  0  0  0 15  0  0  0  0  0  0
   38.4256   -0.7856    4.9258 H   0  0  0  0  0 15  0  0  0  0  0  0
   37.5796   -3.1252    5.2001 H   0  0  0  0  0 15  0  0  0  0  0  0
   36.3186   -2.8343    3.9689 H   0  0  0  0  0 15  0  0  0  0  0  0
   35.3236   -1.0283    5.4010 H   0  0  0  0  0 15  0  0  0  0  0  0
   36.5486   -1.3435    6.6568 H   0  0  0  0  0 15  0  0  0  0  0  0
   34.4946   -3.3454    5.6429 H   0  0  0  0  0 15  0  0  0  0  0  0
   34.4116   -2.4794    7.1419 H   0  0  0  0  0 15  0  0  0  0  0  0
   35.6796   -3.6420    6.8919 H   0  0  0  0  0 15  0  0  0  0  0  0
   39.9087   -1.5758    0.0251 N   0  0  0  0  0 15  0  0  0  0  0  0
   40.8387   -2.1301   -0.9566 C   0  0  0  0  0 15  0  0  0  0  0  0
   41.8197   -1.0452   -1.3420 C   0  0  0  0  0 15  0  0  0  0  0  0
   43.0047   -1.3233   -1.4213 O   0  0  0  0  0 15  0  0  0  0  0  0
   40.1347   -2.6539   -2.2403 C   0  0  0  0  0 15  0  0  0  0  0  0
   39.0887   -3.7862   -1.9957 C   0  0  0  0  0 15  0  0  0  0  0  0
   38.4147   -4.1741   -3.3417 C   0  0  0  0  0 15  0  0  0  0  0  0
   39.7147   -5.0487   -1.3381 C   0  0  0  0  0 15  0  0  0  0  0  0
   41.4087   -2.9528   -0.4950 H   0  0  0  0  0 15  0  0  0  0  0  0
   38.9547   -1.4204   -0.2367 H   0  0  0  0  0 15  0  0  0  0  0  0
   40.9077   -3.0279   -2.9308 H   0  0  0  0  0 15  0  0  0  0  0  0
   39.6317   -1.8027   -2.7234 H   0  0  0  0  0 15  0  0  0  0  0  0
   38.2907   -3.4165   -1.3294 H   0  0  0  0  0 15  0  0  0  0  0  0
   37.9387   -3.2928   -3.8024 H   0  0  0  0  0 15  0  0  0  0  0  0
   37.6387   -4.9372   -3.1861 H   0  0  0  0  0 15  0  0  0  0  0  0
   39.1627   -4.5740   -4.0449 H   0  0  0  0  0 15  0  0  0  0  0  0
   40.5767   -5.3989   -1.9286 H   0  0  0  0  0 15  0  0  0  0  0  0
   38.9737   -5.8614   -1.2867 H   0  0  0  0  0 15  0  0  0  0  0  0
   40.0437   -4.8390   -0.3106 H   0  0  0  0  0 15  0  0  0  0  0  0
   41.3868    0.2480   -1.5564 N   0  0  0  0  0 15  0  0  0  0  0  0
   42.3188    1.3299   -1.8667 C   0  0  0  0  0 15  0  0  0  0  0  0
   43.3318    1.4435   -0.7529 C   0  0  0  0  0 15  0  0  0  0  0  0
   44.5208    1.4572   -1.0310 O   0  0  0  0  0 15  0  0  0  0  0  0
   41.6208    2.7086   -2.0368 C   0  0  0  0  0 15  0  0  0  0  0  0
   40.7938    2.8179   -3.3453 C   0  0  0  0  0 15  0  0  0  0  0  0
   39.8528    4.0050   -3.4130 C   0  0  0  0  0 15  0  0  0  0  0  0
   38.8788    3.9008   -4.1452 O   0  0  0  0  0 15  0  0  0  0  0  0
   40.0808    5.1362   -2.7051 N   0  0  0  0  0 15  0  0  0  0  0  0
   42.8458    1.0671   -2.8006 H   0  0  0  0  0 15  0  0  0  0  0  0
   40.4068    0.4381   -1.5586 H   0  0  0  0  0 15  0  0  0  0  0  0
   42.3988    3.4861   -2.0555 H   0  0  0  0  0 15  0  0  0  0  0  0
   40.9688    2.8986   -1.1704 H   0  0  0  0  0 15  0  0  0  0  0  0
   40.1888    1.9073   -3.4499 H   0  0  0  0  0 15  0  0  0  0  0  0
   41.4768    2.8604   -4.2078 H   0  0  0  0  0 15  0  0  0  0  0  0
   40.8748    5.2497   -2.1076 H   0  0  0  0  0 15  0  0  0  0  0  0
   39.4318    5.8951   -2.7808 H   0  0  0  0  0 15  0  0  0  0  0  0
   42.8649    1.4899    0.5136 N   0  0  0  0  0 15  0  0  0  0  0  0
   44.1419    1.4834    1.2750 C   0  0  0  0  0 15  0  0  0  0  0  0
   44.5219    0.2041    2.1011 C   0  0  0  0  0 15  0  0  0  0  0  0
   43.8699   -0.8139    2.1351 O   0  0  0  0  0 15  0  0  0  0  0  0
   44.0799    2.7550    2.1425 C   0  0  0  0  0 15  0  0  0  0  0  0
   45.4279    3.2448    2.7385 C   0  0  0  0  0 15  0  0  0  0  0  0
   46.4519    2.7653    2.2452 O   0  0  0  0  0 15  0  0  0  0  0  0
   45.3109    4.0797    3.6362 O   0  0  0  0  0 15  0  0  0  0  0  0
   42.4049    0.5931    0.5763 H   0  0  0  0  0 15  0  0  0  0  0  0
   44.9509    1.6125    0.5289 H   0  0  0  0  0 15  0  0  0  0  0  0
   43.7229    3.6011    1.5309 H   0  0  0  0  0 15  0  0  0  0  0  0
   43.3459    2.6539    2.9606 H   0  0  0  0  0 15  0  0  0  0  0  0
   44.3430   -0.7638    1.3786 N   0  0  0  0  0 15  0  0  0  0  0  0
   45.5890   -1.5248    1.3370 C   0  0  0  0  0 15  0  0  0  0  0  0
   45.9220   -1.9405   -0.0760 C   0  0  0  0  0 15  0  0  0  0  0  0
   45.1970   -1.6467   -1.0350 O   0  0  0  0  0 15  0  0  0  0  0  0
   45.4800   -2.7844    2.2835 C   0  0  0  0  0 15  0  0  0  0  0  0
   45.3330   -2.4308    3.7846 C   0  0  0  0  0 15  0  0  0  0  0  0
   46.6520   -3.8041    2.2130 C   0  0  0  0  0 15  0  0  0  0  0  0
   43.7710   -0.5532    0.4870 H   0  0  0  0  0 15  0  0  0  0  0  0
   46.4130   -0.8756    1.6862 H   0  0  0  0  0 15  0  0  0  0  0  0
   44.5630   -3.3384    1.9870 H   0  0  0  0  0 15  0  0  0  0  0  0
   46.2350   -1.9353    4.1874 H   0  0  0  0  0 15  0  0  0  0  0  0
   44.4780   -1.7567    3.9664 H   0  0  0  0  0 15  0  0  0  0  0  0
   45.1490   -3.3315    4.4013 H   0  0  0  0  0 15  0  0  0  0  0  0
   47.6250   -3.3453    2.4745 H   0  0  0  0  0 15  0  0  0  0  0  0
   46.5010   -4.6626    2.8965 H   0  0  0  0  0 15  0  0  0  0  0  0
   46.7620   -4.2526    1.2085 H   0  0  0  0  0 15  0  0  0  0  0  0
   45.8211   -1.2256   -0.9908 N   0  0  0  0  0 15  0  0  0  0  0  0
   46.7711   -0.9648   -2.0658 C   0  0  0  0  0 15  0  0  0  0  0  0
   47.7551    0.0853   -1.6067 C   0  0  0  0  0 15  0  0  0  0  0  0
   48.9471   -0.1254   -1.7655 O   0  0  0  0  0 15  0  0  0  0  0  0
   46.0761   -0.5467   -3.3892 C   0  0  0  0  0 15  0  0  0  0  0  0
   45.1621   -1.6317   -3.9145 C   0  0  0  0  0 15  0  0  0  0  0  0
   45.5531   -2.8598   -4.1719 N   0  0  0  0  0 15  0  0  0  0  0  0
   43.8511   -1.5039   -4.1988 C   0  0  0  0  0 15  0  0  0  0  0  0
   44.5521   -3.5616   -4.5992 C   0  0  0  0  0 15  0  0  0  0  0  0
   43.5281   -2.8364   -4.6374 N   0  0  0  0  0 15  0  0  0  0  0  0
   47.3301   -1.8977   -2.2442 H   0  0  0  0  0 15  0  0  0  0  0  0
   44.8441   -1.1234   -1.1727 H   0  0  0  0  0 15  0  0  0  0  0  0
   46.8411   -0.3412   -4.1550 H   0  0  0  0  0 15  0  0  0  0  0  0
   45.5011    0.3793   -3.2248 H   0  0  0  0  0 15  0  0  0  0  0  0
   46.5121   -3.2239   -4.0532 H   0  0  0  0  0 15  0  0  0  0  0  0
   43.1891   -0.6443   -4.1250 H   0  0  0  0  0 15  0  0  0  0  0  0
   44.5791   -4.6139   -4.8844 H   0  0  0  0  0 15  0  0  0  0  0  0
   47.2992    1.1880   -1.0356 N   0  0  0  0  0 15  0  0  0  0  0  0
   48.2472    2.2430   -0.6159 C   0  0  0  0  0 15  0  0  0  0  0  0
   49.2412    1.6564    0.3548 C   0  0  0  0  0 15  0  0  0  0  0  0
   50.4472    1.7862    0.2227 O   0  0  0  0  0 15  0  0  0  0  0  0
   46.8222    0.7299   -0.1809 H   0  0  0  0  0 15  0  0  0  0  0  0
   48.7932    2.5701   -1.5162 H   0  0  0  0  0 15  0  0  0  0  0  0
   47.5422    3.4770    0.0105 C   0  0  0  0  0 15  0  0  0  0  0  0
   46.8652    3.9313   -0.7275 H   0  0  0  0  0 15  0  0  0  0  0  0
   48.3052    4.2316    0.2670 H   0  0  0  0  0 15  0  0  0  0  0  0
   46.7642    3.1249    1.2590 C   0  0  0  0  0 15  0  0  0  0  0  0
   47.2942    3.2576    2.3504 O   0  0  0  0  0 15  0  0  0  0  0  0
   45.5002    2.6686    1.1504 N   0  0  0  0  0 15  0  0  0  0  0  0
   45.0472    2.5626    0.2623 H   0  0  0  0  0 15  0  0  0  0  0  0
   45.0052    2.4367    1.9867 H   0  0  0  0  0 15  0  0  0  0  0  0
   48.7773    0.8144    1.3493 N   0  0  0  0  0 15  0  0  0  0  0  0
   50.0243    0.3984    1.9854 C   0  0  0  0  0 15  0  0  0  0  0  0
   50.3523   -1.0364    1.6459 C   0  0  0  0  0 15  0  0  0  0  0  0
   49.6073   -1.7351    0.9052 O   0  0  0  0  0 15  0  0  0  0  0  0
   49.9063    0.5378    3.5333 C   0  0  0  0  0 15  0  0  0  0  0  0
   49.5723    1.9370    4.0717 C   0  0  0  0  0 15  0  0  0  0  0  0
   48.2343    2.3198    4.2159 C   0  0  0  0  0 15  0  0  0  0  0  0
   50.5863    2.8521    4.3624 C   0  0  0  0  0 15  0  0  0  0  0  0
   47.9143    3.6112    4.6239 C   0  0  0  0  0 15  0  0  0  0  0  0
   50.2663    4.1381    4.7848 C   0  0  0  0  0 15  0  0  0  0  0  0
   48.9303    4.5208    4.9110 C   0  0  0  0  0 15  0  0  0  0  0  0
   48.2003    0.1458    0.7265 H   0  0  0  0  0 15  0  0  0  0  0  0
   50.8473    1.0367    1.6101 H   0  0  0  0  0 15  0  0  0  0  0  0
   49.1523   -0.1839    3.9137 H   0  0  0  0  0 15  0  0  0  0  0  0
   50.8493    0.1966    4.0052 H   0  0  0  0  0 15  0  0  0  0  0  0
   47.4393    1.6297    3.9641 H   0  0  0  0  0 15  0  0  0  0  0  0
   51.6233    2.5689    4.2465 H   0  0  0  0  0 15  0  0  0  0  0  0
   46.8793    3.9061    4.7035 H   0  0  0  0  0 15  0  0  0  0  0  0
   51.0533    4.8481    4.9993 H   0  0  0  0  0 15  0  0  0  0  0  0
   48.6803    5.5220    5.2248 H   0  0  0  0  0 15  0  0  0  0  0  0
   50.2943   -1.4508    0.7095 O   0  0  0  0  0 15  0  0  0  0  0  0
   50.9853   -1.9204    0.2527 H   0  0  0  0  0 15  0  0  0  0  0  0
M  END
$$$$
