drugbank_target|P12429 Annexin A3 (DB00591; DB03994; DB09095)
 OpenBabel12092120283D

  0  0  0     0  0            999 V3000
M  V30 BEGIN CTAB
M  V30 COUNTS 5121 5160 0 0 0
M  V30 BEGIN ATOM
M  V30 1 H -0.908 1.98254 -0.117106 0
M  V30 2 N 0 1.576 0 0
M  V30 3 C 0.933 2.03868 1.02534 0
M  V30 4 C 1.911 0.928543 1.3348 0
M  V30 5 O 3.095 1.19667 1.45644 0
M  V30 6 C 0.222 2.43627 2.35294 0
M  V30 7 C -0.732 3.65373 2.2001 0
M  V30 8 S 0.101 5.13292 1.52614 0
M  V30 9 C 1.257 5.56322 2.86805 0
M  V30 10 H 1.49 2.90518 0.631377 0
M  V30 11 H -0.977 1.52953 0.210867 0
M  V30 12 H 0.981 2.67203 3.11629 0
M  V30 13 H -0.358 1.57376 2.7183 0
M  V30 14 H -1.165 3.90944 3.18086 0
M  V30 15 H -1.563 3.418 1.51819 0
M  V30 16 H 0.729 5.58782 3.83104 0
M  V30 17 H 1.672 6.56266 2.65933 0
M  V30 18 H 2.08 4.83886 2.90714 0
M  V30 19 N 1.4781 -0.272755 1.55222 0
M  V30 20 C 2.4411 -1.32041 1.87344 0
M  V30 21 C 3.4411 -1.42342 0.74803 0
M  V30 22 O 4.6311 -1.41488 1.0162 0
M  V30 23 C 1.7631 -2.70173 2.07893 0
M  V30 24 H 2.9561 -1.04789 2.80997 0
M  V30 25 H 0.5091 -0.51083 1.47717 0
M  V30 26 H 1.2441 -3.02605 1.16622 0
M  V30 27 H 1.0291 -2.64082 2.89833 0
M  V30 28 H 2.5191 -3.45869 2.34017 0
M  V30 29 N 2.9562 -1.48159 -0.537278 0
M  V30 30 C 4.1812 -1.59707 -1.32319 0
M  V30 31 C 4.6062 -0.254859 -1.86365 0
M  V30 32 O 3.9642 0.772378 -1.64024 0
M  V30 33 C 4.0122 -2.6412 -2.45505 0
M  V30 34 O 3.1162 -2.20774 -3.48328 0
M  V30 35 H 2.4572 -0.535791 -0.392204 0
M  V30 36 H 4.9872 -1.94092 -0.647268 0
M  V30 37 H 4.9972 -2.85166 -2.91795 0
M  V30 38 H 3.6722 -3.61567 -2.05528 0
M  V30 39 H 2.2492 -2.09911 -3.08207 0
M  V30 40 N 4.4343 0.785586 -1.36625 0
M  V30 41 C 5.6833 1.53883 -1.30396 0
M  V30 42 C 5.9963 1.95271 0.113452 0
M  V30 43 O 7.2023 2.69858 0.298142 0
M  V30 44 C 5.6583 2.77808 -2.28802 0
M  V30 45 C 5.2663 2.43574 -3.75999 0
M  V30 46 C 7.0103 3.55783 -2.31558 0
M  V30 47 C 4.9173 3.63919 -4.66173 0
M  V30 48 H 3.8473 0.577678 -0.484566 0
M  V30 49 H 6.4983 0.861705 -1.62009 0
M  V30 50 H 4.8803 3.47339 -1.90188 0
M  V30 51 H 6.0543 1.81916 -4.23371 0
M  V30 52 H 4.3693 1.78803 -3.76056 0
M  V30 53 H 6.9663 4.45205 -2.96137 0
M  V30 54 H 7.3093 3.94644 -1.3252 0
M  V30 55 H 7.8423 2.93235 -2.68809 0
M  V30 56 H 4.5813 3.3015 -5.66287 0
M  V30 57 H 4.1013 4.2473 -4.23515 0
M  V30 58 H 5.7803 4.30901 -4.82632 0
M  V30 59 N 5.9124 1.20967 1.01018 0
M  V30 60 C 7.1584 1.0353 1.7508 0
M  V30 61 C 7.5134 -0.42734 1.87594 0
M  V30 62 O 6.8064 -1.31298 1.3954 0
M  V30 63 C 7.0004 1.65997 3.16512 0
M  V30 64 C 6.8294 3.18184 3.17788 0
M  V30 65 C 5.5994 3.87198 3.24662 0
M  V30 66 C 7.7974 4.15334 3.03319 0
M  V30 67 N 5.7794 5.26618 3.15509 0
M  V30 68 C 7.1504 5.41472 3.02007 0
M  V30 69 C 9.2054 4.06449 2.87583 0
M  V30 70 C 7.9084 6.5975 2.86571 0
M  V30 71 C 9.9344 5.24357 2.73503 0
M  V30 72 C 9.2964 6.49404 2.72862 0
M  V30 73 H 5.3954 0.433137 0.651089 0
M  V30 74 H 7.9794 1.5324 1.20107 0
M  V30 75 H 6.1504 1.18863 3.69765 0
M  V30 76 H 7.8824 1.41816 3.79039 0
M  V30 77 H 4.6374 3.38093 3.31648 0
M  V30 78 H 5.0614 5.99626 3.14289 0
M  V30 79 H 9.7034 3.10573 2.86887 0
M  V30 80 H 7.4214 7.55792 2.86015 0
M  V30 81 H 11.0074 5.19299 2.62334 0
M  V30 82 H 9.8874 7.39105 2.62093 0
M  V30 83 N 7.3905 -1.2043 1.01659 0
M  V30 84 C 8.6365 -1.90079 0.706963 0
M  V30 85 C 8.9695 -1.78648 -0.761474 0
M  V30 86 O 8.2445 -1.17069 -1.55323 0
M  V30 87 C 8.5275 -3.41469 1.14327 0
M  V30 88 C 8.3805 -3.61833 2.67201 0
M  V30 89 C 9.6995 -4.34261 0.714529 0
M  V30 90 H 6.8185 -0.690254 0.2583 0
M  V30 91 H 9.4605 -1.41826 1.26433 0
M  V30 92 H 7.6105 -3.82696 0.669056 0
M  V30 93 H 9.2825 -3.2986 3.22475 0
M  V30 94 H 7.5255 -3.05304 3.08175 0
M  V30 95 H 8.1965 -4.67955 2.92783 0
M  V30 96 H 10.6725 -4.00682 1.12221 0
M  V30 97 H 9.5485 -5.38806 1.04784 0
M  V30 98 H 9.8095 -4.40431 -0.383799 0
M  V30 99 N 8.8686 -0.792821 -1.36206 0
M  V30 100 C 10.1166 -0.366062 -1.98757 0
M  V30 101 C 10.4376 1.0668 -1.63231 0
M  V30 102 O 9.7076 1.73587 -0.907978 0
M  V30 103 H 8.2876 -0.132364 -0.735179 0
M  V30 104 H 10.9496 -1.01562 -1.66347 0
M  V30 105 H 10.0456 -0.460638 -3.08682 0
M  V30 106 N 10.3467 1.47872 -0.545128 0
M  V30 107 C 11.2967 2.26842 0.229456 0
M  V30 108 C 12.2807 1.33626 0.896267 0
M  V30 109 O 13.4727 1.58063 0.79657 0
M  V30 110 C 10.6017 3.19089 1.26638 0
M  V30 111 C 9.6877 4.19783 0.603598 0
M  V30 112 N 10.0787 5.0479 -0.319405 0
M  V30 113 C 8.3767 4.3765 0.858989 0
M  V30 114 C 9.0777 5.77433 -0.703241 0
M  V30 115 N 8.0537 5.43566 -0.0608309 0
M  V30 116 H 11.8557 2.89947 -0.480391 0
M  V30 117 H 9.3697 1.58263 -0.364209 0
M  V30 118 H 11.3667 3.74337 1.83515 0
M  V30 119 H 10.0267 2.5754 1.97745 0
M  V30 120 H 11.0377 5.13244 -0.692889 0
M  V30 121 H 7.7147 3.87281 1.55948 0
M  V30 122 H 9.1047 6.55824 -1.46098 0
M  V30 123 N 11.8248 0.280983 1.55075 0
M  V30 124 C 13.2408 -0.0729964 1.59433 0
M  V30 125 C 13.4408 -1.5411 1.29817 0
M  V30 126 O 12.4968 -2.29086 1.06187 0
M  V30 127 C 13.8098 0.306921 2.9913 0
M  V30 128 C 15.3578 0.254023 3.11968 0
M  V30 129 C 15.8328 0.608467 4.5394 0
M  V30 130 N 17.3238 0.560241 4.59799 0
M  V30 131 C 18.0588 0.80722 5.6769 0
M  V30 132 N 17.5548 1.11912 6.83701 0
M  V30 133 N 19.3478 0.735623 5.57266 0
M  V30 134 H 11.4988 1.238 1.7259 0
M  V30 135 H 13.7618 0.500547 0.805082 0
M  V30 136 H 13.4678 1.32816 3.25657 0
M  V30 137 H 13.3418 -0.349363 3.75579 0
M  V30 138 H 15.7288 -0.75794 2.852 0
M  V30 139 H 15.8098 0.944649 2.37718 0
M  V30 140 H 15.4538 1.61814 4.81434 0
M  V30 141 H 15.3838 -0.104013 5.26497 0
M  V30 142 H 17.8748 0.329288 3.76463 0
M  V30 143 H 18.1878 1.29409 7.61888 0
M  V30 144 H 16.5328 1.15695 6.85303 0
M  V30 145 H 19.7238 0.491752 4.6551 0
M  V30 146 H 19.8968 0.931482 6.4127 0
M  V30 147 N 13.3029 -1.57598 0.00835791 0
M  V30 148 C 14.5509 -1.90551 -0.6734 0
M  V30 149 C 14.8719 -0.883301 -1.73847 0
M  V30 150 O 14.1419 0.0781442 -1.95744 0
M  V30 151 H 12.7219 -0.703312 -0.251717 0
M  V30 152 H 15.3839 -1.94833 0.0512592 0
M  V30 153 H 14.4799 -2.9056 -1.13935 0
M  V30 154 N 14.781 0.264519 -1.55364 0
M  V30 155 C 16.009 1.013 -1.80405 0
M  V30 156 C 16.424 1.79618 -0.581622 0
M  V30 157 O 15.781 1.76879 0.449468 0
M  V30 158 C 15.832 1.96487 -3.03439 0
M  V30 159 O 15.553 1.21341 -4.20961 0
M  V30 160 C 17.054 2.83079 -3.41147 0
M  V30 161 H 14.274 0.298875 -0.600762 0
M  V30 162 H 16.818 0.292736 -2.02394 0
M  V30 163 H 14.973 2.63965 -2.83551 0
M  V30 164 H 15.387 1.85573 -4.90574 0
M  V30 165 H 16.861 3.4565 -4.30384 0
M  V30 166 H 17.338 3.53286 -2.60932 0
M  V30 167 H 17.944 2.2108 -3.63323 0
M  V30 168 N 16.2591 1.48442 0.529413 0
M  V30 169 C 17.5051 1.5672 1.28711 0
M  V30 170 C 17.8381 0.2406 1.92704 0
M  V30 171 O 17.1131 -0.753454 1.79313 0
M  V30 172 C 17.3961 2.70587 2.37603 0
M  V30 173 C 17.2491 4.12953 1.78297 0
M  V30 174 C 18.5681 2.80212 3.39366 0
M  V30 175 H 15.6871 0.570474 0.466613 0
M  V30 176 H 18.3291 1.80617 0.589706 0
M  V30 177 H 16.4791 2.50342 2.97088 0
M  V30 178 H 18.1511 4.44639 1.22858 0
M  V30 179 H 16.3941 4.19927 1.0883 0
M  V30 180 H 17.0651 4.88448 2.57144 0
M  V30 181 H 19.5411 2.98553 2.89836 0
M  V30 182 H 18.4171 3.61611 4.12951 0
M  V30 183 H 18.6781 1.88393 3.99951 0
M  V30 184 N 17.7372 -0.778329 1.37039 0
M  V30 185 C 19.1532 -1.07796 1.17695 0
M  V30 186 C 19.3532 -2.01498 0.00860115 0
M  V30 187 O 18.4092 -2.43901 -0.653352 0
M  V30 188 C 19.7222 -1.68178 2.49272 0
M  V30 189 C 21.2702 -1.80467 2.55735 0
M  V30 190 C 21.7452 -2.44263 3.87427 0
M  V30 191 N 23.2362 -2.51721 3.88833 0
M  V30 192 C 23.9712 -3.01919 4.87476 0
M  V30 193 N 23.4672 -3.5234 5.96513 0
M  V30 194 N 25.2602 -3.00733 4.74885 0
M  V30 195 H 17.4112 -0.156032 2.11826 0
M  V30 196 H 19.6742 -0.131844 0.938787 0
M  V30 197 H 19.3802 -1.06796 3.35093 0
M  V30 198 H 19.2542 -2.67554 2.65885 0
M  V30 199 H 21.6412 -2.40984 1.70325 0
M  V30 200 H 21.7222 -0.798656 2.43013 0
M  V30 201 H 21.3662 -1.84388 4.73248 0
M  V30 202 H 21.2962 -3.45458 3.9745 0
M  V30 203 H 23.7872 -2.1603 3.10063 0
M  V30 204 H 24.1002 -3.89027 6.67741 0
M  V30 205 H 22.4452 -3.50462 6.00168 0
M  V30 206 H 25.6362 -2.60638 3.88826 0
M  V30 207 H 25.8092 -3.39545 5.51918 0
M  V30 208 N 19.2153 -1.21501 -1.00376 0
M  V30 209 C 20.4923 -0.941745 -1.71437 0
M  V30 210 C 20.8723 0.546114 -2.03914 0
M  V30 211 O 20.2203 1.51128 -1.71384 0
M  V30 212 C 20.4303 -1.82812 -2.97289 0
M  V30 213 C 21.7783 -2.07771 -3.70292 0
M  V30 214 O 22.8023 -1.80171 -3.07273 0
M  V30 215 O 21.6613 -2.54456 -4.83647 0
M  V30 216 H 18.7553 -0.353243 -0.747762 0
M  V30 217 H 21.3013 -1.32436 -1.06108 0
M  V30 218 H 20.0733 -2.83501 -2.69709 0
M  V30 219 H 19.6963 -1.4464 -3.70358 0
M  V30 220 N 20.6934 1.19889 -1.02296 0
M  V30 221 C 21.9234 1.93109 -0.734332 0
M  V30 222 C 22.3314 1.75377 0.709889 0
M  V30 223 O 21.6744 1.06912 1.49384 0
M  V30 224 C 21.7364 3.45362 -0.99827 0
M  V30 225 C 21.4004 3.8686 -2.43287 0
M  V30 226 C 22.3974 3.92102 -3.41397 0
M  V30 227 C 20.0824 4.18668 -2.77529 0
M  V30 228 C 22.0764 4.28573 -4.71809 0
M  V30 229 C 19.7634 4.54813 -4.08153 0
M  V30 230 C 20.7614 4.59739 -5.05103 0
M  V30 231 O 20.4494 4.95051 -6.33388 0
M  V30 232 H 20.1814 0.620409 -0.268456 0
M  V30 233 H 22.7354 1.53144 -1.3688 0
M  V30 234 H 20.9654 3.85482 -0.306645 0
M  V30 235 H 22.6544 3.99814 -0.700234 0
M  V30 236 H 23.4204 3.67685 -3.1628 0
M  V30 237 H 19.2994 4.14021 -2.0275 0
M  V30 238 H 22.8434 4.32333 -5.4748 0
M  V30 239 H 18.7404 4.78687 -4.33047 0
M  V30 240 H 19.5084 5.1302 -6.37772 0
M  V30 241 N 22.1715 0.800033 1.35784 0
M  V30 242 C 23.5825 0.439142 1.81462 0
M  V30 243 C 23.9335 -1.03813 1.66485 0
M  V30 244 O 23.0585 -1.80626 1.19177 0
M  V30 245 C 23.6535 0.790314 3.29453 0
M  V30 246 C 22.2125 0.482111 3.733 0
M  V30 247 C 21.3595 1.01938 2.57883 0
M  V30 248 H 24.3105 0.992254 1.23855 0
M  V30 249 H 24.3315 0.0853677 3.80404 0
M  V30 250 H 23.8435 1.86554 3.40322 0
M  V30 251 H 21.9445 -0.584652 3.67984 0
M  V30 252 H 22.0575 1.01015 4.6833 0
M  V30 253 H 20.4215 0.442043 2.50835 0
M  V30 254 H 21.2045 2.10059 2.71533 0
M  V30 255 N 23.6496 -1.47581 0.552962 0
M  V30 256 C 24.9266 -1.95563 -0.0381515 0
M  V30 257 C 25.3066 -1.49552 -1.48988 0
M  V30 258 O 24.6546 -0.732414 -2.16444 0
M  V30 259 C 24.8646 -3.48848 0.102919 0
M  V30 260 C 26.2126 -4.24577 -0.0446082 0
M  V30 261 O 27.2366 -3.56187 0.0302548 0
M  V30 262 O 26.0956 -5.46116 -0.204923 0
M  V30 263 H 23.1896 -0.824321 -0.0665067 0
M  V30 264 H 25.7356 -1.58001 0.619186 0
M  V30 265 H 24.5076 -3.75129 1.11328 0
M  V30 266 H 24.1306 -3.93165 -0.592224 0
M  V30 267 N 25.1277 -0.289203 -1.54924 0
M  V30 268 C 26.3747 0.323519 -1.99899 0
M  V30 269 C 26.7027 1.54797 -1.17762 0
M  V30 270 O 25.9577 1.94237 -0.238835 0
M  V30 271 C 26.2567 0.736119 -3.49737 0
M  V30 272 C 25.9227 -0.385276 -4.49251 0
M  V30 273 C 24.5847 -0.693156 -4.76181 0
M  V30 274 C 26.9367 -1.14021 -5.08575 0
M  V30 275 C 24.2647 -1.7593 -5.59701 0
M  V30 276 C 26.6167 -2.19619 -5.93254 0
M  V30 277 C 25.2807 -2.51026 -6.185 0
M  V30 278 H 24.5507 0.118384 -0.731482 0
M  V30 279 H 27.1977 -0.405847 -1.8715 0
M  V30 280 H 25.5027 1.54539 -3.60035 0
M  V30 281 H 27.1997 1.22118 -3.81953 0
M  V30 282 H 23.7897 -0.135202 -4.28387 0
M  V30 283 H 27.9737 -0.915611 -4.87781 0
M  V30 284 H 23.2297 -2.0075 -5.77503 0
M  V30 285 H 27.4037 -2.78581 -6.38252 0
M  V30 286 H 25.0307 -3.33772 -6.83008 0
M  V30 287 N 26.6058 1.57591 -0.0167156 0
M  V30 288 C 27.8308 1.9598 0.67872 0
M  V30 289 C 28.2558 0.892546 1.65575 0
M  V30 290 O 27.6138 -0.147772 1.80697 0
M  V30 291 C 27.6618 3.33468 1.37227 0
M  V30 292 O 26.7658 3.28954 2.48722 0
M  V30 293 H 26.1068 0.639339 0.17928 0
M  V30 294 H 28.6368 2.04463 -0.0748802 0
M  V30 295 H 28.6468 3.69417 1.7319 0
M  V30 296 H 27.3218 4.10694 0.656007 0
M  V30 297 H 25.8988 3.04705 2.14963 0
M  V30 298 N 28.0839 -0.256276 1.55502 0
M  V30 299 C 29.4949 -0.826068 1.67431 0
M  V30 300 C 29.8459 -1.86396 0.612446 0
M  V30 301 O 28.9709 -2.15031 -0.243025 0
M  V30 302 C 29.5659 -1.50512 3.03532 0
M  V30 303 C 28.1249 -2.02273 3.17431 0
M  V30 304 C 27.2719 -0.870548 2.63281 0
M  V30 305 H 30.2229 -0.0322728 1.58667 0
M  V30 306 H 30.2439 -2.37279 2.97454 0
M  V30 307 H 29.7559 -0.749484 3.80794 0
M  V30 308 H 27.8569 -2.80746 2.44974 0
M  V30 309 H 27.9699 -2.22655 4.24219 0
M  V30 310 H 26.3339 -1.26851 2.20864 0
M  V30 311 H 27.1169 -0.128149 3.43061 0
M  V30 312 N 29.562 -1.4872 -0.521534 0
M  V30 313 C 30.787 -1.61101 -1.30618 0
M  V30 314 C 31.212 -0.274611 -1.86085 0
M  V30 315 O 30.57 0.754937 -1.64834 0
M  V30 316 C 30.618 -2.66709 -2.4269 0
M  V30 317 O 29.722 -2.24456 -3.45967 0
M  V30 318 H 29.063 -0.539921 -0.386499 0
M  V30 319 H 31.593 -1.94767 -0.626645 0
M  V30 320 H 31.603 -2.88245 -2.88754 0
M  V30 321 H 30.278 -3.63727 -2.01682 0
M  V30 322 H 28.855 -2.13168 -3.05964 0
M  V30 323 N 31.0401 0.771051 -1.3745 0
M  V30 324 C 32.2861 1.5319 -1.32894 0
M  V30 325 C 32.6191 1.94008 0.0862511 0
M  V30 326 O 31.8941 1.64124 1.04373 0
M  V30 327 C 32.1771 2.79648 -2.26868 0
M  V30 328 C 32.0301 2.45079 -3.77169 0
M  V30 329 C 33.3491 3.81583 -2.19277 0
M  V30 330 H 30.4681 0.555744 -0.484064 0
M  V30 331 H 33.1101 0.884492 -1.68157 0
M  V30 332 H 31.2601 3.34891 -1.96926 0
M  V30 333 H 32.9321 1.95745 -4.1771 0
M  V30 334 H 31.1751 1.77767 -3.95704 0
M  V30 335 H 31.8461 3.35478 -4.38359 0
M  V30 336 H 34.3221 3.35835 -2.45671 0
M  V30 337 H 33.1981 4.67787 -2.87171 0
M  V30 338 H 33.4591 4.25897 -1.18592 0
M  V30 339 N 32.5182 1.22032 0.997298 0
M  V30 340 C 33.7952 0.950823 1.70935 0
M  V30 341 C 34.1752 -0.535292 2.042 0
M  V30 342 O 33.5232 -1.50217 1.72183 0
M  V30 343 C 33.7332 1.84386 2.96315 0
M  V30 344 C 35.0812 2.09732 3.69185 0
M  V30 345 O 36.1052 1.81798 3.06314 0
M  V30 346 O 34.9642 2.57018 4.82291 0
M  V30 347 H 32.0582 0.357204 0.745878 0
M  V30 348 H 34.6042 1.32997 1.05404 0
M  V30 349 H 33.3762 2.84928 2.68201 0
M  V30 350 H 32.9992 1.46602 3.69586 0
M  V30 351 N 33.9963 -1.19345 1.0293 0
M  V30 352 C 34.9593 -2.20793 0.615069 0
M  V30 353 C 35.9593 -1.57553 -0.321533 0
M  V30 354 O 37.1493 -1.73862 -0.108483 0
M  V30 355 C 34.2813 -3.40754 -0.0999222 0
M  V30 356 H 35.4743 -2.58955 1.51269 0
M  V30 357 H 33.0273 -1.3303 0.820534 0
M  V30 358 H 33.7623 -3.0811 -1.01187 0
M  V30 359 H 33.5473 -3.87889 0.57309 0
M  V30 360 H 35.0373 -4.15898 -0.376645 0
M  V30 361 N 35.4744 -0.807222 -1.35358 0
M  V30 362 C 36.3844 -0.219594 -2.3357 0
M  V30 363 C 37.4004 0.637734 -1.61892 0
M  V30 364 O 38.5764 0.549336 -1.93763 0
M  V30 365 C 35.6414 0.62158 -3.41083 0
M  V30 366 C 34.7024 -0.256315 -4.28534 0
M  V30 367 C 33.9354 0.544807 -5.30912 0
M  V30 368 O 34.1584 1.77944 -5.41934 0
M  V30 369 O 33.0924 -0.0646478 -6.01865 0
M  V30 370 H 36.9184 -1.03208 -2.85625 0
M  V30 371 H 34.5034 -0.569025 -1.38139 0
M  V30 372 H 36.3854 1.10067 -4.06772 0
M  V30 373 H 35.0604 1.41165 -2.91297 0
M  V30 374 H 33.9674 -0.782559 -3.65823 0
M  V30 375 H 35.3004 -1.01034 -4.81719 0
M  V30 376 N 36.9525 1.47285 -0.560781 0
M  V30 377 C 37.9155 2.28535 0.174488 0
M  V30 378 C 38.9155 1.37153 0.839388 0
M  V30 379 O 40.1055 1.59748 0.694702 0
M  V30 380 C 37.2375 3.16934 1.25561 0
M  V30 381 H 38.4305 2.95012 -0.539262 0
M  V30 382 H 35.9835 1.53034 -0.317865 0
M  V30 383 H 36.7185 2.55157 2.00164 0
M  V30 384 H 36.5035 3.8419 0.783604 0
M  V30 385 H 37.9935 3.78143 1.77193 0
M  V30 386 N 38.4306 0.297415 1.54768 0
M  V30 387 C 39.6796 -0.313669 1.99246 0
M  V30 388 C 39.9926 -1.55281 1.18942 0
M  V30 389 O 41.1986 -2.23825 1.5367 0
M  V30 390 C 39.6546 -0.609407 3.54703 0
M  V30 391 C 39.2626 0.611192 4.43811 0
M  V30 392 C 41.0066 -1.18188 4.07715 0
M  V30 393 C 38.9136 0.288805 5.90694 0
M  V30 394 H 37.8436 -0.120979 0.744231 0
M  V30 395 H 40.4946 0.40556 1.78962 0
M  V30 396 H 38.8766 -1.38813 3.70873 0
M  V30 397 H 40.0506 1.3875 4.39414 0
M  V30 398 H 38.3656 1.10205 4.01552 0
M  V30 399 H 40.9626 -1.43727 5.15021 0
M  V30 400 H 41.3056 -2.12299 3.58099 0
M  V30 401 H 41.8386 -0.464944 3.95074 0
M  V30 402 H 38.5776 1.19838 6.44453 0
M  V30 403 H 38.0976 -0.450305 5.98107 0
M  V30 404 H 39.7766 -0.110933 6.46905 0
M  V30 405 N 39.9087 -1.5758 0.0250728 0
M  V30 406 C 40.8407 -2.06869 -0.986796 0
M  V30 407 C 41.8537 -0.991332 -1.29137 0
M  V30 408 O 43.0427 -1.26761 -1.25674 0
M  V30 409 C 40.1427 -2.47486 -2.31525 0
M  V30 410 C 39.3157 -3.78253 -2.19643 0
M  V30 411 C 38.3747 -4.05464 -3.35388 0
M  V30 412 O 37.4007 -4.75774 -3.12454 0
M  V30 413 N 38.6027 -3.55321 -4.59051 0
M  V30 414 H 41.3677 -2.94302 -0.566276 0
M  V30 415 H 38.9287 -1.6109 -0.161776 0
M  V30 416 H 40.9207 -2.62785 -3.07776 0
M  V30 417 H 39.4907 -1.65441 -2.65232 0
M  V30 418 H 38.7107 -3.7279 -1.28144 0
M  V30 419 H 39.9987 -4.63936 -2.08903 0
M  V30 420 H 39.3967 -2.98431 -4.80578 0
M  V30 421 H 37.9537 -3.75905 -5.32483 0
M  V30 422 N 41.3868 0.248026 -1.55636 0
M  V30 423 C 42.3338 1.30707 -1.90222 0
M  V30 424 C 43.3038 1.47881 -0.756332 0
M  V30 425 O 44.4888 1.61883 -1.00988 0
M  V30 426 C 41.6288 2.65769 -2.20138 0
M  V30 427 C 40.7418 2.56612 -3.47526 0
M  V30 428 C 39.8768 3.8402 -3.67017 0
M  V30 429 C 38.9158 3.69476 -4.8801 0
M  V30 430 N 38.0528 4.88774 -5.04029 0
M  V30 431 H 42.8928 1.00512 -2.80538 0
M  V30 432 H 40.4298 0.485055 -1.38873 0
M  V30 433 H 42.3878 3.44386 -2.35487 0
M  V30 434 H 41.0178 2.94115 -1.33027 0
M  V30 435 H 40.0698 1.69571 -3.40514 0
M  V30 436 H 41.3818 2.41774 -4.36287 0
M  V30 437 H 40.5358 4.7108 -3.8232 0
M  V30 438 H 39.2748 4.01754 -2.76487 0
M  V30 439 H 38.2798 2.80799 -4.72686 0
M  V30 440 H 39.5048 3.53238 -5.8 0
M  V30 441 H 37.4508 5.0687 -4.16435 0
M  V30 442 H 37.3678 4.76562 -5.86877 0
M  V30 443 H 38.6358 5.77335 -5.23741 0
M  V30 444 N 42.8649 1.48995 0.513639 0
M  V30 445 C 43.8279 1.64229 1.59879 0
M  V30 446 C 44.8279 0.514696 1.5234 0
M  V30 447 O 46.0179 0.78087 1.55718 0
M  V30 448 C 43.1499 1.62783 2.99524 0
M  V30 449 H 44.3429 2.61004 1.47705 0
M  V30 450 H 41.8959 1.37837 0.736936 0
M  V30 451 H 42.6309 0.675461 3.17188 0
M  V30 452 H 42.4159 2.4466 3.06404 0
M  V30 453 H 43.9059 1.76669 3.78388 0
M  V30 454 N 44.343 -0.763751 1.37857 0
M  V30 455 C 45.592 -1.51789 1.32827 0
M  V30 456 C 45.905 -1.95426 -0.0823719 0
M  V30 457 O 47.111 -2.70298 -0.255172 0
M  V30 458 C 45.567 -2.74133 2.33193 0
M  V30 459 C 45.175 -2.37562 3.79827 0
M  V30 460 C 46.919 -3.52054 2.37188 0
M  V30 461 C 44.826 -3.56456 4.71904 0
M  V30 462 H 43.756 -0.569896 0.493695 0
M  V30 463 H 46.407 -0.835822 1.63359 0
M  V30 464 H 44.789 -3.4427 1.9569 0
M  V30 465 H 45.963 -1.75157 4.26212 0
M  V30 466 H 44.278 -1.72798 3.78853 0
M  V30 467 H 46.875 -4.40437 3.03182 0
M  V30 468 H 47.218 -3.92486 1.38782 0
M  V30 469 H 47.751 -2.88921 2.7344 0
M  V30 470 H 44.49 -3.21099 5.71468 0
M  V30 471 H 44.01 -4.17938 4.30218 0
M  V30 472 H 45.689 -4.23168 4.89426 0
M  V30 473 N 45.8211 -1.22559 -0.990812 0
M  V30 474 C 47.2371 -0.985996 -1.255 0
M  V30 475 C 47.4371 0.319173 -1.98956 0
M  V30 476 O 46.4931 1.04127 -2.3003 0
M  V30 477 C 47.8061 -2.18607 -2.06474 0
M  V30 478 C 49.3541 -2.22985 -2.19651 0
M  V30 479 C 49.8291 -3.4255 -3.04012 0
M  V30 480 N 51.3201 -3.42725 -3.11599 0
M  V30 481 C 52.0551 -4.31892 -3.7717 0
M  V30 482 N 51.5511 -5.31279 -4.44651 0
M  V30 483 N 53.3441 -4.19662 -3.73952 0
M  V30 484 H 45.4951 -2.06469 -0.49841 0
M  V30 485 H 47.7581 -0.904853 -0.282747 0
M  V30 486 H 47.4641 -3.13267 -1.59865 0
M  V30 487 H 47.3381 -2.18838 -3.07229 0
M  V30 488 H 49.7251 -1.28871 -2.65474 0
M  V30 489 H 49.8061 -2.26791 -1.18319 0
M  V30 490 H 49.4501 -4.36965 -2.58889 0
M  V30 491 H 49.3801 -3.35984 -4.0549 0
M  V30 492 H 51.8711 -2.70807 -2.63575 0
M  V30 493 H 52.1841 -5.95593 -4.92431 0
M  V30 494 H 50.5291 -5.3519 -4.43392 0
M  V30 495 H 53.7201 -3.41268 -3.20396 0
M  V30 496 H 53.8931 -4.89358 -4.24774 0
M  V30 497 N 47.2992 1.18797 -1.03562 0
M  V30 498 C 48.5472 1.88278 -0.734569 0
M  V30 499 C 48.8682 1.8043 0.739586 0
M  V30 500 O 48.1382 1.21925 1.53333 0
M  V30 501 H 46.7182 0.696991 -0.268725 0
M  V30 502 H 49.3802 1.44192 -1.31129 0
M  V30 503 H 48.4762 2.94443 -1.03489 0
M  V30 504 N 48.7773 0.814389 1.34928 0
M  V30 505 C 50.0263 0.394871 1.97797 0
M  V30 506 C 50.3393 -1.04555 1.65311 0
M  V30 507 O 51.5453 -1.56856 2.21604 0
M  V30 508 C 50.0013 0.655103 3.53888 0
M  V30 509 C 49.6093 2.10858 3.95276 0
M  V30 510 C 51.3533 0.301329 4.23429 0
M  V30 511 C 49.2603 2.31415 5.44244 0
M  V30 512 H 48.1903 0.143913 0.740139 0
M  V30 513 H 50.8413 0.999544 1.53888 0
M  V30 514 H 49.2233 -0.0196253 3.95995 0
M  V30 515 H 50.3973 2.82176 3.64298 0
M  V30 516 H 48.7123 2.42297 3.38646 0
M  V30 517 H 51.3093 0.432869 5.32945 0
M  V30 518 H 51.6523 -0.75331 4.09428 0
M  V30 519 H 52.1853 0.930288 3.86769 0
M  V30 520 H 48.9243 3.35353 5.63222 0
M  V30 521 H 48.4443 1.6463 5.76764 0
M  V30 522 H 50.1233 2.13352 6.10811 0
M  V30 523 N 50.2554 -1.46986 0.568584 0
M  V30 524 C 51.5034 -2.02041 0.0487022 0
M  V30 525 C 51.8244 -1.44408 -1.31039 0
M  V30 526 O 51.0944 -0.623477 -1.85714 0
M  V30 527 H 49.6744 -0.746849 0.015014 0
M  V30 528 H 52.3364 -1.80257 0.741168 0
M  V30 529 H 51.4324 -3.12085 -0.0308961 0
M  V30 530 N 51.7335 -0.305618 -1.54608 0
M  V30 531 C 52.9615 0.304775 -2.04643 0
M  V30 532 C 53.3765 1.47167 -1.18268 0
M  V30 533 O 52.7335 1.81296 -0.209328 0
M  V30 534 C 52.7845 0.756564 -3.53495 0
M  V30 535 O 52.5055 -0.36389 -4.36586 0
M  V30 536 C 54.0065 1.43163 -4.19546 0
M  V30 537 H 51.2265 0.0655481 -0.667791 0
M  V30 538 H 53.7705 -0.446592 -1.99564 0
M  V30 539 H 51.9255 1.45794 -3.58919 0
M  V30 540 H 52.3395 -0.0113121 -5.24499 0
M  V30 541 H 53.8135 1.69886 -5.25207 0
M  V30 542 H 54.2905 2.37318 -3.69563 0
M  V30 543 H 54.8965 0.773307 -4.18211 0
M  V30 544 N 53.2116 1.57565 -0.0334293 0
M  V30 545 C 54.4886 1.83282 0.683163 0
M  V30 546 C 54.8686 0.91823 1.90084 0
M  V30 547 O 54.2166 -0.025113 2.28486 0
M  V30 548 C 54.4266 3.32599 1.0573 0
M  V30 549 C 55.7746 3.99179 1.44711 0
M  V30 550 O 56.7986 3.3712 1.15015 0
M  V30 551 O 55.6576 5.08565 2.0006 0
M  V30 552 H 52.7516 0.755869 0.335546 0
M  V30 553 H 55.2976 1.69589 -0.0614402 0
M  V30 554 H 54.0696 3.90834 0.190828 0
M  V30 555 H 53.6926 3.51415 1.85993 0
M  V30 556 N 54.6897 -0.239769 1.55765 0
M  V30 557 C 55.5997 -1.31831 1.94056 0
M  V30 558 C 56.6157 -1.52275 0.841925 0
M  V30 559 O 57.7917 -1.65759 1.14394 0
M  V30 560 C 54.8567 -2.65156 2.23368 0
M  V30 561 C 53.9177 -2.53173 3.46701 0
M  V30 562 C 53.1507 -3.8014 3.74606 0
M  V30 563 O 53.3737 -4.82343 3.04469 0
M  V30 564 O 52.3077 -3.78344 4.68123 0
M  V30 565 H 56.1337 -1.02347 2.85935 0
M  V30 566 H 53.7187 -0.441123 1.42739 0
M  V30 567 H 55.6007 -3.43929 2.43497 0
M  V30 568 H 54.2757 -2.94358 1.34666 0
M  V30 569 H 53.1827 -1.72662 3.31871 0
M  V30 570 H 54.5157 -2.28915 4.35728 0
M  V30 571 N 56.1678 -1.49265 -0.50573 0
M  V30 572 C 57.1148 -1.65585 -1.6078 0
M  V30 573 C 58.0848 -0.497396 -1.58478 0
M  V30 574 O 59.2698 -0.72385 -1.76536 0
M  V30 575 C 56.4098 -1.72408 -2.98948 0
M  V30 576 C 55.5228 -2.99525 -3.11301 0
M  V30 577 C 54.6578 -2.97356 -4.40174 0
M  V30 578 C 53.6968 -4.19074 -4.46143 0
M  V30 579 N 52.8338 -4.14841 -5.66437 0
M  V30 580 H 57.6738 -2.59688 -1.46172 0
M  V30 581 H 55.2108 -1.28761 -0.711261 0
M  V30 582 H 57.1688 -1.74344 -3.79025 0
M  V30 583 H 55.7988 -0.817753 -3.1227 0
M  V30 584 H 54.8508 -3.07222 -2.24318 0
M  V30 585 H 56.1628 -3.89518 -3.11572 0
M  V30 586 H 55.3168 -2.97829 -5.28567 0
M  V30 587 H 54.0558 -2.05133 -4.42461 0
M  V30 588 H 53.0608 -4.1885 -3.56153 0
M  V30 589 H 54.2858 -5.12483 -4.45575 0
M  V30 590 H 52.2318 -3.25453 -5.69575 0
M  V30 591 H 52.1488 -4.98564 -5.68304 0
M  V30 592 H 53.4168 -4.1941 -6.57051 0
M  V30 593 N 57.6459 0.756429 -1.3826 0
M  V30 594 C 58.5789 1.87802 -1.29637 0
M  V30 595 C 59.5569 1.61667 -0.173939 0
M  V30 596 O 60.7409 1.85208 -0.350775 0
M  V30 597 C 57.8679 3.23354 -1.00797 0
M  V30 598 C 56.9139 3.68379 -2.14939 0
M  V30 599 S 57.7469 3.8025 -3.77054 0
M  V30 600 C 58.9029 5.18626 -3.50396 0
M  V30 601 H 59.1359 1.94829 -2.24564 0
M  V30 602 H 56.6689 0.919117 -1.24063 0
M  V30 603 H 58.6269 4.01637 -0.848413 0
M  V30 604 H 57.2879 3.14008 -0.0759369 0
M  V30 605 H 56.4809 4.66693 -1.90299 0
M  V30 606 H 56.0829 2.97242 -2.26988 0
M  V30 607 H 58.3749 6.04289 -3.06334 0
M  V30 608 H 59.3179 5.48286 -4.48094 0
M  V30 609 H 59.7259 4.87289 -2.84973 0
M  V30 610 N 59.124 1.23083 0.984299 0
M  V30 611 C 60.054 1.03292 2.09411 0
M  V30 612 C 61.035 -0.048923 1.7003 0
M  V30 613 O 62.22 0.114967 1.93859 0
M  V30 614 C 59.35 0.619155 3.41736 0
M  V30 615 C 58.304 1.64791 3.95004 0
M  V30 616 C 57.63 1.0897 5.23478 0
M  V30 617 C 58.93 3.03999 4.24714 0
M  V30 618 H 60.624 1.96119 2.26225 0
M  V30 619 H 58.17 0.944344 1.08711 0
M  V30 620 H 60.123 0.467777 4.18796 0
M  V30 621 H 58.847 -0.344786 3.24775 0
M  V30 622 H 57.506 1.78721 3.20085 0
M  V30 623 H 57.154 0.11686 5.02864 0
M  V30 624 H 56.854 1.77704 5.60085 0
M  V30 625 H 58.378 0.950093 6.03163 0
M  V30 626 H 59.792 2.93393 4.92538 0
M  V30 627 H 58.189 3.69936 4.72512 0
M  V30 628 H 59.259 3.53285 3.32142 0
M  V30 629 N 60.6021 -1.18246 1.0419 0
M  V30 630 C 61.8511 -1.87588 0.741194 0
M  V30 631 C 62.1641 -1.81303 -0.734066 0
M  V30 632 O 63.3701 -2.46019 -1.14834 0
M  V30 633 C 61.8261 -3.36538 1.27555 0
M  V30 634 C 61.4341 -3.51349 2.77953 0
M  V30 635 C 63.1781 -4.11273 1.05143 0
M  V30 636 C 61.0851 -4.94265 3.2474 0
M  V30 637 H 60.0151 -0.702622 0.273565 0
M  V30 638 H 62.6661 -1.33601 1.25789 0
M  V30 639 H 61.0481 -3.9 0.686703 0
M  V30 640 H 62.2221 -3.08153 3.42605 0
M  V30 641 H 60.5371 -2.90022 2.98791 0
M  V30 642 H 63.1341 -5.16689 1.37611 0
M  V30 643 H 63.4771 -4.16298 -0.0112774 0
M  V30 644 H 64.0101 -3.63987 1.60495 0
M  V30 645 H 60.7491 -4.94408 4.30396 0
M  V30 646 H 60.2691 -5.38172 2.64823 0
M  V30 647 H 61.9481 -5.62987 3.18834 0
M  V30 648 N 62.0802 -0.821533 -1.34494 0
M  V30 649 C 63.3052 -0.420873 -2.03085 0
M  V30 650 C 63.7302 0.964915 -1.61465 0
M  V30 651 O 63.0882 1.62763 -0.798607 0
M  V30 652 C 63.1362 -0.529414 -3.56693 0
M  V30 653 O 62.2402 0.451302 -4.09923 0
M  V30 654 H 61.5812 -0.173489 -0.640935 0
M  V30 655 H 64.1112 -1.11157 -1.71771 0
M  V30 656 H 64.1212 -0.404671 -4.05988 0
M  V30 657 H 62.7962 -1.54014 -3.86332 0
M  V30 658 H 61.3732 0.285558 -3.71805 0
M  V30 659 N 63.5583 1.46682 -0.576371 0
M  V30 660 C 64.8073 2.01619 -0.0572825 0
M  V30 661 C 65.1203 1.45417 1.30818 0
M  V30 662 O 66.3263 1.92133 1.91825 0
M  V30 663 C 64.7823 3.59863 -0.0518371 0
M  V30 664 C 64.3903 4.25059 -1.41523 0
M  V30 665 C 66.1343 4.2248 0.413639 0
M  V30 666 C 64.0413 5.75364 -1.36785 0
M  V30 667 H 62.9713 0.753794 -0.0176448 0
M  V30 668 H 65.6223 1.68481 -0.727076 0
M  V30 669 H 64.0043 3.90048 0.683994 0
M  V30 670 H 65.1783 4.06491 -2.17029 0
M  V30 671 H 63.4933 3.7451 -1.8202 0
M  V30 672 H 66.0903 5.3265 0.467779 0
M  V30 673 H 66.4333 3.90976 1.42982 0
M  V30 674 H 66.9663 3.96897 -0.267929 0
M  V30 675 H 63.7053 6.11518 -2.36063 0
M  V30 676 H 63.2253 5.96214 -0.654895 0
M  V30 677 H 64.9043 6.37955 -1.07805 0
M  V30 678 N 65.0364 0.313813 1.54444 0
M  V30 679 C 65.9664 -0.549454 2.26943 0
M  V30 680 C 66.9474 -1.12741 1.27372 0
M  V30 681 O 68.1324 -1.15436 1.56167 0
M  V30 682 C 65.2624 -1.71523 3.01989 0
M  V30 683 C 64.2164 -1.26703 4.08816 0
M  V30 684 C 63.5424 -2.51898 4.71647 0
M  V30 685 C 64.8424 -0.388962 5.2085 0
M  V30 686 H 66.5364 0.0552661 2.99349 0
M  V30 687 H 64.0824 0.0280207 1.43973 0
M  V30 688 H 66.0354 -2.32535 3.51433 0
M  V30 689 H 64.7594 -2.34639 2.27183 0
M  V30 690 H 63.4184 -0.679896 3.6024 0
M  V30 691 H 63.0664 -3.13356 3.93468 0
M  V30 692 H 62.7664 -2.22605 5.43802 0
M  V30 693 H 64.2904 -3.1369 5.23861 0
M  V30 694 H 65.7044 -0.905107 5.6611 0
M  V30 695 H 64.1014 -0.18924 5.99802 0
M  V30 696 H 65.1714 0.582699 4.81386 0
M  V30 697 N 66.5145 -1.57545 0.0417849 0
M  V30 698 C 67.7425 -1.96624 -0.643928 0
M  V30 699 C 68.1575 -0.918897 -1.64929 0
M  V30 700 O 67.5145 0.0979323 -1.82237 0
M  V30 701 C 67.5655 -3.35781 -1.33914 0
M  V30 702 O 67.2865 -4.365 -0.374048 0
M  V30 703 C 68.7875 -3.89566 -2.1155 0
M  V30 704 H 66.0075 -0.647316 -0.176702 0
M  V30 705 H 68.5515 -2.04229 0.105304 0
M  V30 706 H 66.7065 -3.29357 -2.03968 0
M  V30 707 H 67.1205 -5.17248 -0.869179 0
M  V30 708 H 68.5945 -4.89242 -2.55628 0
M  V30 709 H 69.0715 -3.24488 -2.9598 0
M  V30 710 H 69.6775 -3.99298 -1.46427 0
M  V30 711 N 67.9926 0.231505 -1.5589 0
M  V30 712 C 68.9026 1.308 -1.94752 0
M  V30 713 C 69.9186 1.51826 -0.849989 0
M  V30 714 O 71.0946 1.6515 -1.15271 0
M  V30 715 C 68.1596 2.63968 -2.24771 0
M  V30 716 C 67.2206 2.51331 -3.48039 0
M  V30 717 C 66.4536 3.78148 -3.76616 0
M  V30 718 O 66.6766 4.80722 -3.07022 0
M  V30 719 O 65.6106 3.75857 -4.70123 0
M  V30 720 H 69.4366 1.0083 -2.86474 0
M  V30 721 H 67.0216 0.433547 -1.42971 0
M  V30 722 H 68.9036 3.42633 -2.45318 0
M  V30 723 H 67.5786 2.9364 -1.36225 0
M  V30 724 H 66.4856 1.709 -3.32782 0
M  V30 725 H 67.8186 2.26601 -4.36936 0
M  V30 726 N 69.4707 1.49531 0.497807 0
M  V30 727 C 70.8867 1.36365 0.829266 0
M  V30 728 C 71.0867 0.399184 1.97506 0
M  V30 729 O 70.1427 -0.167977 2.51941 0
M  V30 730 C 71.4557 2.77153 1.16647 0
M  V30 731 C 73.0037 2.85877 1.27449 0
M  V30 732 C 73.4787 4.2744 1.64497 0
M  V30 733 N 74.9697 4.30265 1.7154 0
M  V30 734 C 75.7047 5.3677 2.01656 0
M  V30 735 N 75.2007 6.53516 2.29976 0
M  V30 736 N 76.9937 5.24189 2.02934 0
M  V30 737 H 69.1447 2.10831 -0.257703 0
M  V30 738 H 71.4077 0.946534 -0.0527091 0
M  V30 739 H 71.1137 3.49442 0.397872 0
M  V30 740 H 70.9877 3.12722 2.10915 0
M  V30 741 H 73.3747 2.13824 2.0338 0
M  V30 742 H 73.4557 2.53887 0.312244 0
M  V30 743 H 73.0997 5.00021 0.891151 0
M  V30 744 H 73.0297 4.56896 2.61827 0
M  V30 745 H 75.5207 3.4607 1.51802 0
M  V30 746 H 75.8337 7.30506 2.52153 0
M  V30 747 H 74.1787 6.56737 2.27425 0
M  V30 748 H 77.3697 4.31988 1.80289 0
M  V30 749 H 77.5427 6.07286 2.26071 0
M  V30 750 N 70.9488 -0.749086 1.3866 0
M  V30 751 C 72.1738 -1.54344 1.38538 0
M  V30 752 C 72.5988 -1.88088 -0.0216655 0
M  V30 753 O 71.9568 -1.50899 -1.00494 0
M  V30 754 C 72.0048 -2.8164 2.25192 0
M  V30 755 O 71.1088 -3.7698 1.67212 0
M  V30 756 H 70.4498 -0.466654 0.472367 0
M  V30 757 H 72.9798 -0.925355 1.82478 0
M  V30 758 H 72.9898 -3.30519 2.3921 0
M  V30 759 H 71.6648 -2.56411 3.27454 0
M  V30 760 H 70.2418 -3.35699 1.6236 0
M  V30 761 N 72.4269 -1.23603 -0.977757 0
M  V30 762 C 73.3749 -1.01704 -2.09187 0
M  V30 763 C 74.3689 0.0448214 -1.69341 0
M  V30 764 O 75.5749 -0.108902 -1.7967 0
M  V30 765 H 71.9499 -0.311803 -0.684312 0
M  V30 766 H 73.9209 -1.96207 -2.24823 0
M  V30 767 C 72.6699 -0.627746 -3.41986 0
M  V30 768 H 71.9929 -1.43656 -3.73099 0
M  V30 769 H 73.4329 -0.514053 -4.20872 0
M  V30 770 C 71.8919 0.664238 -3.30287 0
M  V30 771 O 72.4219 1.71268 -3.6336 0
M  V30 772 N 70.6279 0.641156 -2.83439 0
M  V30 773 H 70.1749 -0.212376 -2.56723 0
M  V30 774 H 70.1329 1.50583 -2.75993 0
M  V30 775 N 73.905 1.17692 -1.04816 0
M  V30 776 C 74.868 2.19787 -0.650117 0
M  V30 777 C 75.868 1.58044 0.296427 0
M  V30 778 O 77.058 1.74012 0.0808097 0
M  V30 779 C 74.19 3.40869 0.0456987 0
M  V30 780 H 75.383 2.56516 -1.5537 0
M  V30 781 H 72.936 1.31708 -0.841594 0
M  V30 782 H 73.671 3.09681 0.962726 0
M  V30 783 H 73.456 3.86928 -0.634727 0
M  V30 784 H 74.946 4.16445 0.310432 0
M  V30 785 N 75.3831 0.828654 1.34056 0
M  V30 786 C 76.3151 0.212052 2.28217 0
M  V30 787 C 77.3281 -0.601362 1.51286 0
M  V30 788 O 78.5171 -0.430104 1.73241 0
M  V30 789 C 75.6171 -0.72088 3.31144 0
M  V30 790 C 74.7901 0.0509587 4.3737 0
M  V30 791 C 73.8491 -0.803766 5.20025 0
M  V30 792 O 72.8751 -0.246667 5.68665 0
M  V30 793 N 74.0771 -2.1227 5.40298 0
M  V30 794 H 76.8421 1.02105 2.81771 0
M  V30 795 H 74.4031 0.686153 1.46641 0
M  V30 796 H 76.3951 -1.29742 3.8334 0
M  V30 797 H 74.9651 -1.43061 2.77943 0
M  V30 798 H 74.1851 0.808831 3.85813 0
M  V30 799 H 75.4731 0.582065 5.0546 0
M  V30 800 H 74.8711 -2.59898 5.02464 0
M  V30 801 H 73.4281 -2.64796 5.95589 0
M  V30 802 N 76.8612 -1.46375 0.584142 0
M  V30 803 C 78.2772 -1.57694 0.245929 0
M  V30 804 C 78.4772 -1.57903 -1.25175 0
M  V30 805 O 77.5332 -1.49676 -2.03355 0
M  V30 806 C 78.8462 -2.87028 0.896402 0
M  V30 807 C 80.3942 -3.00662 0.870127 0
M  V30 808 C 80.8692 -4.32734 1.50017 0
M  V30 809 N 82.3602 -4.39436 1.46458 0
M  V30 810 C 83.0952 -5.40248 1.92144 0
M  V30 811 N 82.5912 -6.47726 2.4581 0
M  V30 812 N 84.3842 -5.31459 1.83052 0
M  V30 813 H 76.5352 -1.44483 1.55687 0
M  V30 814 H 78.7982 -0.689291 0.650831 0
M  V30 815 H 78.5042 -2.9269 1.95002 0
M  V30 816 H 78.3782 -3.75014 0.405486 0
M  V30 817 H 80.7652 -2.94581 -0.174871 0
M  V30 818 H 80.8462 -2.14148 1.39908 0
M  V30 819 H 80.4902 -4.39573 2.54437 0
M  V30 820 H 80.4202 -5.18025 0.946432 0
M  V30 821 H 82.9112 -3.62367 1.07231 0
M  V30 822 H 83.2242 -7.20863 2.78525 0
M  V30 823 H 81.5692 -6.48542 2.49836 0
M  V30 824 H 84.7602 -4.46396 1.40883 0
M  V30 825 H 84.9332 -6.09881 2.18973 0
M  V30 826 N 78.3393 -0.321999 -1.54275 0
M  V30 827 C 79.2713 0.578671 -2.21775 0
M  V30 828 C 80.2843 1.08109 -1.21722 0
M  V30 829 O 81.4733 0.994938 -1.482 0
M  V30 830 C 78.5733 1.80661 -2.86731 0
M  V30 831 C 77.7463 1.44314 -4.12907 0
M  V30 832 C 76.8053 2.52845 -4.61472 0
M  V30 833 O 75.8313 2.17054 -5.2619 0
M  V30 834 N 77.0333 3.83748 -4.35566 0
M  V30 835 H 79.7983 0.000709447 -2.997 0
M  V30 836 H 77.3593 -0.145132 -1.61248 0
M  V30 837 H 79.3513 2.52655 -3.16145 0
M  V30 838 H 77.9213 2.29245 -2.12521 0
M  V30 839 H 77.1413 0.554906 -3.90275 0
M  V30 840 H 78.4293 1.17598 -4.95023 0
M  V30 841 H 77.8273 4.15625 -3.83761 0
M  V30 842 H 76.3843 4.51977 -4.69638 0
M  V30 843 N 79.8174 1.5752 -0.0501392 0
M  V30 844 C 80.7474 2.14502 0.922566 0
M  V30 845 C 81.7284 1.06642 1.3252 0
M  V30 846 O 82.9134 1.34577 1.4001 0
M  V30 847 C 80.0434 2.68916 2.19776 0
M  V30 848 C 78.9974 3.8175 1.93523 0
M  V30 849 C 78.3234 4.22677 3.27487 0
M  V30 850 C 79.6234 5.06932 1.25765 0
M  V30 851 H 81.3174 2.9603 0.447952 0
M  V30 852 H 78.8634 1.42401 0.214024 0
M  V30 853 H 80.8164 3.07419 2.88222 0
M  V30 854 H 79.5404 1.84578 2.69441 0
M  V30 855 H 78.1994 3.43718 1.27489 0
M  V30 856 H 77.8474 3.35291 3.74952 0
M  V30 857 H 77.5474 4.98725 3.1072 0
M  V30 858 H 79.0714 4.63779 3.97166 0
M  V30 859 H 80.4854 5.42888 1.84244 0
M  V30 860 H 78.8824 5.88116 1.19328 0
M  V30 861 H 79.9524 4.84337 0.233536 0
M  V30 862 N 81.2955 -0.223234 1.56011 0
M  V30 863 C 82.5445 -0.945912 1.78144 0
M  V30 864 C 82.8575 -1.85567 0.618396 0
M  V30 865 O 84.0635 -2.61688 0.723318 0
M  V30 866 C 82.5195 -1.73216 3.15475 0
M  V30 867 C 82.1275 -0.868619 4.39499 0
M  V30 868 C 83.8715 -2.44615 3.46935 0
M  V30 869 C 81.7785 -1.65212 5.67855 0
M  V30 870 H 80.7085 -0.356929 0.664167 0
M  V30 871 H 83.3595 -0.199845 1.82409 0
M  V30 872 H 81.7415 -2.52107 3.05382 0
M  V30 873 H 82.9155 -0.120366 4.60643 0
M  V30 874 H 81.2305 -0.26683 4.15544 0
M  V30 875 H 83.8275 -3.03732 4.40058 0
M  V30 876 H 84.1705 -3.17417 2.69355 0
M  V30 877 H 84.7035 -1.72715 3.58349 0
M  V30 878 H 81.4425 -0.967407 6.48322 0
M  V30 879 H 80.9625 -2.37503 5.50774 0
M  V30 880 H 82.6415 -2.21322 6.07968 0
M  V30 881 N 82.7736 -1.49793 -0.48987 0
M  V30 882 C 84.0196 -1.60078 -1.24511 0
M  V30 883 C 84.3526 -0.291608 -1.91998 0
M  V30 884 O 83.6276 0.705647 -1.81248 0
M  V30 885 C 83.9106 -2.76791 -2.30345 0
M  V30 886 C 83.7636 -4.17535 -1.67286 0
M  V30 887 C 85.0826 -2.89111 -3.31817 0
M  V30 888 H 82.2016 -0.582645 -0.451324 0
M  V30 889 H 84.8436 -1.82117 -0.541612 0
M  V30 890 H 82.9936 -2.5813 -2.90346 0
M  V30 891 H 84.6656 -4.4774 -1.11026 0
M  V30 892 H 82.9086 -4.22665 -0.976577 0
M  V30 893 H 83.5796 -4.95094 -2.44103 0
M  V30 894 H 86.0556 -3.06133 -2.81819 0
M  V30 895 H 84.9316 -3.72433 -4.03219 0
M  V30 896 H 85.1926 -1.9893 -3.94815 0
M  V30 897 N 84.2517 0.741722 -1.39055 0
M  V30 898 C 85.1987 1.85566 -1.37237 0
M  V30 899 C 86.1687 1.64457 -0.233072 0
M  V30 900 O 87.3537 1.85957 -0.427147 0
M  V30 901 C 84.4937 3.23004 -1.215 0
M  V30 902 C 83.6067 3.55864 -2.44918 0
M  V30 903 C 82.7417 4.82669 -2.21821 0
M  V30 904 C 81.7807 5.08351 -3.40948 0
M  V30 905 N 80.9177 6.26356 -3.17211 0
M  V30 906 H 85.7577 1.86455 -2.32462 0
M  V30 907 H 83.2947 0.911176 -1.15482 0
M  V30 908 H 85.2527 4.02331 -1.10389 0
M  V30 909 H 83.8827 3.21411 -0.29908 0
M  V30 910 H 82.9347 2.7129 -2.66657 0
M  V30 911 H 84.2467 3.70765 -3.33668 0
M  V30 912 H 83.4007 5.69962 -2.07914 0
M  V30 913 H 82.1397 4.69929 -1.30454 0
M  V30 914 H 81.1447 4.19522 -3.55361 0
M  V30 915 H 82.3697 5.22981 -4.33207 0
M  V30 916 H 80.3157 6.14917 -2.28502 0
M  V30 917 H 80.2327 6.41813 -3.99515 0
M  V30 918 H 81.5007 7.16506 -3.06984 0
M  V30 919 N 85.7298 1.2412 0.971189 0
M  V30 920 C 86.6398 1.04747 2.09917 0
M  V30 921 C 87.6558 -0.0107162 1.73997 0
M  V30 922 O 88.8318 0.186714 2.00533 0
M  V30 923 C 85.8968 0.650828 3.40537 0
M  V30 924 C 84.9578 1.7851 3.90426 0
M  V30 925 C 84.1908 1.40729 5.14812 0
M  V30 926 O 84.4138 0.29557 5.69634 0
M  V30 927 O 83.3478 2.23168 5.58999 0
M  V30 928 H 87.1738 1.99304 2.29154 0
M  V30 929 H 84.7588 1.02908 1.08307 0
M  V30 930 H 86.6408 0.440992 4.19086 0
M  V30 931 H 85.3158 -0.265649 3.22608 0
M  V30 932 H 84.2228 2.04966 3.12953 0
M  V30 933 H 85.5558 2.68023 4.12825 0
M  V30 934 N 87.2079 -1.17134 1.05439 0
M  V30 935 C 88.4379 -1.91094 0.785274 0
M  V30 936 C 88.8459 -1.77198 -0.663142 0
M  V30 937 O 88.1889 -1.10835 -1.46497 0
M  V30 938 C 88.2509 -3.42594 1.08949 0
M  V30 939 C 87.9149 -3.80274 2.53458 0
M  V30 940 C 88.9119 -3.82912 3.51673 0
M  V30 941 C 86.5969 -4.11162 2.88532 0
M  V30 942 C 88.5909 -4.15913 4.83006 0
M  V30 943 C 86.2779 -4.43831 4.20068 0
M  V30 944 C 87.2759 -4.46185 5.17115 0
M  V30 945 O 86.9639 -4.78083 6.46291 0
M  V30 946 H 86.6959 -0.613073 0.284811 0
M  V30 947 H 89.2499 -1.49461 1.40893 0
M  V30 948 H 87.4799 -3.84534 0.408741 0
M  V30 949 H 89.1689 -3.97817 0.805991 0
M  V30 950 H 89.9349 -3.5917 3.25917 0
M  V30 951 H 85.8139 -4.085 2.13656 0
M  V30 952 H 89.3579 -4.17665 5.5875 0
M  V30 953 H 85.2549 -4.67037 4.45586 0
M  V30 954 H 86.0229 -4.9593 6.51149 0
M  V30 955 N 88.686 -0.835752 -1.33615 0
M  V30 956 C 89.618 -0.224151 -2.28101 0
M  V30 957 C 90.631 0.593331 -1.51603 0
M  V30 958 O 91.82 0.420911 -1.73466 0
M  V30 959 C 88.92 0.703309 -3.31522 0
M  V30 960 C 88.093 -0.0741528 -4.37337 0
M  V30 961 C 87.152 0.776176 -5.20444 0
M  V30 962 O 86.178 0.216506 -5.68788 0
M  V30 963 N 87.38 2.09401 -5.41416 0
M  V30 964 H 90.145 -1.03598 -2.81225 0
M  V30 965 H 87.706 -0.69392 -1.46275 0
M  V30 966 H 89.698 1.27707 -3.84022 0
M  V30 967 H 88.268 1.41585 -2.78698 0
M  V30 968 H 87.488 -0.82928 -3.85378 0
M  V30 969 H 88.776 -0.608863 -5.05144 0
M  V30 970 H 88.174 2.57229 -5.03835 0
M  V30 971 H 86.731 2.61633 -5.96985 0
M  V30 972 N 90.1641 1.46063 -0.591896 0
M  V30 973 C 91.1271 2.28854 0.125973 0
M  V30 974 C 92.1271 1.38903 0.810107 0
M  V30 975 O 93.3171 1.61186 0.66066 0
M  V30 976 C 90.4491 3.19526 1.1881 0
M  V30 977 H 91.6421 2.93802 -0.601717 0
M  V30 978 H 89.1951 1.52325 -0.350254 0
M  V30 979 H 89.9301 2.59345 1.94707 0
M  V30 980 H 89.7151 3.85766 0.701936 0
M  V30 981 H 91.2051 3.81817 1.69132 0
M  V30 982 N 91.6422 0.330177 1.54103 0
M  V30 983 C 92.6052 -0.520144 2.2322 0
M  V30 984 C 93.6052 -1.03828 1.22786 0
M  V30 985 O 94.7952 -0.929652 1.4732 0
M  V30 986 C 91.9272 -1.72317 2.94142 0
M  V30 987 H 93.1202 0.0841605 2.99782 0
M  V30 988 H 90.6732 0.0813433 1.56088 0
M  V30 989 H 91.4082 -2.36653 2.21734 0
M  V30 990 H 91.1932 -1.35898 3.67796 0
M  V30 991 H 92.6832 -2.3266 3.46784 0
M  V30 992 N 93.1203 -1.57491 0.0584922 0
M  V30 993 C 94.3503 -1.9701 -0.622134 0
M  V30 994 C 94.7583 -0.935034 -1.6448 0
M  V30 995 O 94.1013 0.0882904 -1.83488 0
M  V30 996 C 94.1633 -3.32794 -1.35972 0
M  V30 997 C 93.8273 -4.54343 -0.492043 0
M  V30 998 C 94.8243 -5.19323 0.244901 0
M  V30 999 C 92.5093 -5.00534 -0.420821 0
M  V30 1000 C 94.5033 -6.28835 1.04143 0
M  V30 1001 C 92.1903 -6.09921 0.379389 0
M  V30 1002 C 93.1883 -6.73933 1.10919 0
M  V30 1003 O 92.8763 -7.81216 1.89623 0
M  V30 1004 H 92.6083 -0.653127 -0.174359 0
M  V30 1005 H 95.1623 -2.05029 0.123418 0
M  V30 1006 H 93.3923 -3.21351 -2.15105 0
M  V30 1007 H 95.0813 -3.5701 -1.93129 0
M  V30 1008 H 95.8473 -4.8459 0.19939 0
M  V30 1009 H 91.7263 -4.50496 -0.978474 0
M  V30 1010 H 95.2703 -6.7873 1.61157 0
M  V30 1011 H 91.1673 -6.44089 0.426512 0
M  V30 1012 H 91.9353 -7.98029 1.81913 0
M  V30 1013 N 94.5984 0.214957 -1.56127 0
M  V30 1014 C 95.8464 0.936518 -1.79091 0
M  V30 1015 C 96.1674 1.84606 -0.628148 0
M  V30 1016 O 95.4374 1.92664 0.35462 0
M  V30 1017 H 94.0174 0.3488 -0.660566 0
M  V30 1018 H 96.6794 0.22523 -1.93594 0
M  V30 1019 H 95.7754 1.53943 -2.71492 0
M  V30 1020 N 96.0765 1.50051 0.48192 0
M  V30 1021 C 97.0235 1.68122 1.58125 0
M  V30 1022 C 97.9935 0.522545 1.57666 0
M  V30 1023 O 99.1785 0.751844 1.75362 0
M  V30 1024 C 96.3185 1.77142 2.96167 0
M  V30 1025 C 95.4315 3.0444 3.06497 0
M  V30 1026 C 94.5665 3.04321 4.35387 0
M  V30 1027 C 93.6055 4.26118 4.3942 0
M  V30 1028 N 92.7425 4.238 5.59766 0
M  V30 1029 H 97.5825 2.6198 1.42022 0
M  V30 1030 H 95.1195 1.29877 0.690687 0
M  V30 1031 H 97.0775 1.80352 3.76203 0
M  V30 1032 H 95.7075 0.867329 3.1093 0
M  V30 1033 H 94.7595 3.10752 2.19402 0
M  V30 1034 H 96.0715 3.94426 3.05336 0
M  V30 1035 H 95.2255 3.062 5.23762 0
M  V30 1036 H 93.9645 2.12147 4.39141 0
M  V30 1037 H 92.9695 4.24463 3.49444 0
M  V30 1038 H 94.1945 5.19507 4.37366 0
M  V30 1039 H 92.1405 3.34474 5.64326 0
M  V30 1040 H 92.0575 5.07542 5.60301 0
M  V30 1041 H 93.3255 4.2981 6.50295 0
M  V30 1042 N 97.5546 -0.734337 1.39446 0
M  V30 1043 C 98.4646 -1.87879 1.40495 0
M  V30 1044 C 99.4806 -1.714 0.299672 0
M  V30 1045 O 100.657 -1.93991 0.541249 0
M  V30 1046 C 97.7216 -3.23477 1.24754 0
M  V30 1047 C 96.7826 -3.52344 2.45259 0
M  V30 1048 C 96.0156 -4.81473 2.30259 0
M  V30 1049 O 96.2386 -5.55237 1.30643 0
M  V30 1050 O 95.1726 -5.10254 3.19256 0
M  V30 1051 H 98.9986 -1.89949 2.36966 0
M  V30 1052 H 96.5836 -0.882243 1.20569 0
M  V30 1053 H 98.4656 -4.04509 1.18111 0
M  V30 1054 H 97.1406 -3.22176 0.313781 0
M  V30 1055 H 96.0476 -2.71396 2.57478 0
M  V30 1056 H 97.3806 -3.58426 3.37331 0
M  V30 1057 N 99.0327 -1.24633 -0.964593 0
M  V30 1058 C 99.9627 -1.06611 -2.07741 0
M  V30 1059 C 100.944 0.0218666 -1.70086 0
M  V30 1060 O 102.129 -0.145793 -1.93652 0
M  V30 1061 C 99.2587 -0.673444 -3.40708 0
M  V30 1062 C 98.2127 -1.71054 -3.92332 0
M  V30 1063 C 97.5387 -1.17285 -5.21678 0
M  V30 1064 C 98.8387 -3.10718 -4.19824 0
M  V30 1065 H 100.533 -1.99693 -2.23076 0
M  V30 1066 H 98.0787 -0.96152 -1.07195 0
M  V30 1067 H 100.032 -0.534345 -4.17998 0
M  V30 1068 H 98.7557 0.293073 -3.25282 0
M  V30 1069 H 97.4147 -1.83791 -3.17201 0
M  V30 1070 H 97.0627 -0.196847 -5.02615 0
M  V30 1071 H 96.7627 -1.86592 -5.57187 0
M  V30 1072 H 98.2867 -1.04593 -6.01575 0
M  V30 1073 H 99.7007 -3.01192 -4.87808 0
M  V30 1074 H 98.0977 -3.77406 -4.66567 0
M  V30 1075 H 99.1677 -3.58524 -3.26479 0
M  V30 1076 N 100.511 1.16574 -1.06058 0
M  V30 1077 C 101.458 2.20883 -0.669263 0
M  V30 1078 C 102.428 1.62729 0.332918 0
M  V30 1079 O 103.613 1.895 0.222346 0
M  V30 1080 C 100.753 3.45049 -0.0593572 0
M  V30 1081 C 99.8658 4.17458 -1.11143 0
M  V30 1082 C 99.0008 5.29135 -0.467916 0
M  V30 1083 C 98.0398 5.93343 -1.50369 0
M  V30 1084 N 97.1768 6.96516 -0.883706 0
M  V30 1085 H 102.017 2.53709 -1.5632 0
M  V30 1086 H 99.5538 1.24616 -0.781625 0
M  V30 1087 H 101.512 4.16033 0.311771 0
M  V30 1088 H 100.142 3.12781 0.797992 0
M  V30 1089 H 99.1938 3.45101 -1.60029 0
M  V30 1090 H 100.506 4.61307 -1.89731 0
M  V30 1091 H 99.6598 6.06684 -0.0436871 0
M  V30 1092 H 98.3988 4.86443 0.349864 0
M  V30 1093 H 97.4038 5.14517 -1.93784 0
M  V30 1094 H 98.6288 6.38114 -2.32352 0
M  V30 1095 H 96.5748 6.55943 -0.086595 0
M  V30 1096 H 96.4918 7.38723 -1.607 0
M  V30 1097 H 97.7598 7.77993 -0.484543 0
M  V30 1098 N 101.989 0.842826 1.3317 0
M  V30 1099 C 103.266 0.362216 1.92217 0
M  V30 1100 C 103.646 -1.15289 1.76838 0
M  V30 1101 O 102.994 -1.96914 1.15919 0
M  V30 1102 C 103.204 0.813495 3.39387 0
M  V30 1103 C 104.552 0.823804 4.16532 0
M  V30 1104 O 105.576 0.757358 3.48055 0
M  V30 1105 O 104.435 0.915193 5.38782 0
M  V30 1106 H 101.529 0.103317 0.820521 0
M  V30 1107 H 104.075 0.928942 1.42017 0
M  V30 1108 H 102.847 1.85624 3.4447 0
M  V30 1109 H 102.47 0.223561 3.96971 0
M  V30 1110 N 103.467 -1.45747 0.599634 0
M  V30 1111 C 104.744 -1.95585 0.0240846 0
M  V30 1112 C 105.124 -1.54217 -1.44154 0
M  V30 1113 O 104.472 -0.800903 -2.14004 0
M  V30 1114 C 104.682 -3.48344 0.21385 0
M  V30 1115 C 106.03 -4.24504 0.0904902 0
M  V30 1116 O 107.054 -3.55911 0.143558 0
M  V30 1117 O 105.913 -5.46491 -0.0310766 0
M  V30 1118 H 103.007 -0.82602 -0.0402478 0
M  V30 1119 H 105.553 -1.55951 0.669139 0
M  V30 1120 H 104.325 -3.71397 1.23206 0
M  V30 1121 H 103.948 -3.9485 -0.466842 0
M  V30 1122 N 104.945 -0.338344 -1.53925 0
M  V30 1123 C 105.875 0.51328 -2.27789 0
M  V30 1124 C 106.856 1.107 -1.29149 0
M  V30 1125 O 108.041 1.12937 -1.57984 0
M  V30 1126 C 105.171 1.66697 -3.04679 0
M  V30 1127 C 104.125 1.20183 -4.1078 0
M  V30 1128 C 103.451 2.44363 -4.75595 0
M  V30 1129 C 104.751 0.30605 -5.21403 0
M  V30 1130 H 106.445 -0.102883 -2.99223 0
M  V30 1131 H 103.991 -0.0509219 -1.4391 0
M  V30 1132 H 105.944 2.26915 -3.55088 0
M  V30 1133 H 104.668 2.30995 -2.30887 0
M  V30 1134 H 103.327 0.622499 -3.61276 0
M  V30 1135 H 102.975 3.07057 -3.98403 0
M  V30 1136 H 102.675 2.13925 -5.47275 0
M  V30 1137 H 104.199 3.05317 -5.28786 0
M  V30 1138 H 105.613 0.814929 -5.67478 0
M  V30 1139 H 104.01 0.0937929 -6.00027 0
M  V30 1140 H 105.08 -0.65921 -4.80398 0
M  V30 1141 N 106.423 1.57458 -0.0668435 0
M  V30 1142 C 107.37 2.12439 0.902122 0
M  V30 1143 C 108.34 1.03565 1.2986 0
M  V30 1144 O 109.525 1.312 1.38532 0
M  V30 1145 C 106.665 2.6865 2.16614 0
M  V30 1146 C 105.778 3.91663 1.82274 0
M  V30 1147 C 104.913 4.36134 3.0325 0
M  V30 1148 C 103.952 5.51808 2.64904 0
M  V30 1149 N 103.089 5.9126 3.78624 0
M  V30 1150 H 107.929 2.94934 0.426382 0
M  V30 1151 H 105.466 1.4575 0.198819 0
M  V30 1152 H 107.424 2.99346 2.90599 0
M  V30 1153 H 106.054 1.88928 2.61737 0
M  V30 1154 H 105.106 3.6746 0.983719 0
M  V30 1155 H 106.418 4.75693 1.50059 0
M  V30 1156 H 105.572 4.68465 3.85519 0
M  V30 1157 H 104.311 3.50948 3.38655 0
M  V30 1158 H 103.316 5.19133 1.81055 0
M  V30 1159 H 104.541 6.38722 2.30675 0
M  V30 1160 H 102.487 5.09024 4.138 0
M  V30 1161 H 102.404 6.70018 3.5016 0
M  V30 1162 H 103.672 6.28212 4.61486 0
M  V30 1163 N 107.901 -0.206675 1.56239 0
M  V30 1164 C 109.149 -0.927007 1.79586 0
M  V30 1165 C 109.47 -1.8427 0.637929 0
M  V30 1166 O 108.74 -1.92849 -0.344398 0
M  V30 1167 H 107.32 -0.345292 0.662407 0
M  V30 1168 H 109.982 -0.21496 1.93711 0
M  V30 1169 H 109.078 -1.52501 2.72305 0
M  V30 1170 N 109.379 -1.50304 -0.473955 0
M  V30 1171 C 110.656 -1.51667 -1.23518 0
M  V30 1172 C 111.036 -0.259701 -2.09496 0
M  V30 1173 O 110.384 0.756986 -2.15597 0
M  V30 1174 C 110.594 -2.81082 -2.06868 0
M  V30 1175 C 111.942 -3.31631 -2.65153 0
M  V30 1176 O 112.966 -2.82384 -2.17113 0
M  V30 1177 O 111.825 -4.17471 -3.52675 0
M  V30 1178 H 108.919 -0.60822 -0.560355 0
M  V30 1179 H 111.465 -1.62592 -0.486011 0
M  V30 1180 H 110.237 -3.64041 -1.4349 0
M  V30 1181 H 109.86 -2.73146 -2.88924 0
M  V30 1182 N 110.857 0.726932 -1.39834 0
M  V30 1183 C 111.787 1.85405 -1.41941 0
M  V30 1184 C 112.768 1.67751 -0.281728 0
M  V30 1185 O 113.953 1.8795 -0.488717 0
M  V30 1186 C 111.083 3.23243 -1.2701 0
M  V30 1187 C 110.037 3.55549 -2.38262 0
M  V30 1188 C 109.363 4.9241 -2.08415 0
M  V30 1189 C 110.663 3.577 -3.80589 0
M  V30 1190 H 112.357 1.83899 -2.36266 0
M  V30 1191 H 109.903 0.883349 -1.13723 0
M  V30 1192 H 111.856 4.01775 -1.27103 0
M  V30 1193 H 110.58 3.25296 -0.291564 0
M  V30 1194 H 109.239 2.79351 -2.37399 0
M  V30 1195 H 108.887 4.91052 -1.0898 0
M  V30 1196 H 108.587 5.14992 -2.82943 0
M  V30 1197 H 110.111 5.73289 -2.10171 0
M  V30 1198 H 111.525 4.26293 -3.83337 0
M  V30 1199 H 109.922 3.91804 -4.54543 0
M  V30 1200 H 110.992 2.57328 -4.10987 0
M  V30 1201 N 112.336 1.25143 0.95797 0
M  V30 1202 C 113.561 1.12521 1.74223 0
M  V30 1203 C 113.986 -0.317402 1.85403 0
M  V30 1204 O 113.344 -1.2299 1.33204 0
M  V30 1205 C 113.392 1.78062 3.1357 0
M  V30 1206 O 112.496 1.058 3.98598 0
M  V30 1207 H 111.837 0.39304 0.535178 0
M  V30 1208 H 114.367 1.65641 1.201 0
M  V30 1209 H 114.377 1.84213 3.64046 0
M  V30 1210 H 113.052 2.83021 3.04749 0
M  V30 1211 H 111.629 1.07506 3.57067 0
M  V30 1212 N 113.814 -1.1601 1.06675 0
M  V30 1213 C 115.062 -1.86264 0.784229 0
M  V30 1214 C 115.383 -1.82328 -0.691488 0
M  V30 1215 O 114.653 -1.25947 -1.50047 0
M  V30 1216 H 113.233 -0.689621 0.28711 0
M  V30 1217 H 115.895 -1.40664 1.34906 0
M  V30 1218 H 114.991 -2.91595 1.11259 0
M  V30 1219 N 115.292 -0.849877 -1.32721 0
M  V30 1220 C 116.242 -0.262892 -2.26479 0
M  V30 1221 C 117.226 0.588493 -1.49752 0
M  V30 1222 O 118.418 0.438659 -1.71478 0
M  V30 1223 C 115.547 0.551818 -3.38836 0
M  V30 1224 C 114.633 -0.311689 -4.22953 0
M  V30 1225 N 115.024 -1.39567 -4.86163 0
M  V30 1226 C 113.322 -0.100611 -4.45887 0
M  V30 1227 C 114.023 -1.92651 -5.48872 0
M  V30 1228 N 112.999 -1.22637 -5.29586 0
M  V30 1229 H 116.801 -1.09166 -2.72873 0
M  V30 1230 H 114.315 -0.695486 -1.46754 0
M  V30 1231 H 116.312 0.988713 -4.05006 0
M  V30 1232 H 114.972 1.37844 -2.93988 0
M  V30 1233 H 115.983 -1.77859 -4.86402 0
M  V30 1234 H 112.66 0.691681 -4.11731 0
M  V30 1235 H 114.05 -2.83487 -6.09167 0
M  V30 1236 N 116.77 1.45427 -0.607355 0
M  V30 1237 C 118.017 2.02241 -0.102455 0
M  V30 1238 C 118.345 1.4758 1.26691 0
M  V30 1239 O 117.6 0.640468 1.84923 0
M  V30 1240 C 117.899 3.57398 -0.0129263 0
M  V30 1241 C 117.565 4.3121 -1.31792 0
M  V30 1242 C 116.227 4.51092 -1.67539 0
M  V30 1243 C 118.579 4.73401 -2.18039 0
M  V30 1244 C 115.907 5.10422 -2.89285 0
M  V30 1245 C 118.259 5.34078 -3.39034 0
M  V30 1246 C 116.923 5.52184 -3.75033 0
M  V30 1247 H 116.193 0.740051 -0.037491 0
M  V30 1248 H 118.84 1.74494 -0.788926 0
M  V30 1249 H 117.145 3.84421 0.756806 0
M  V30 1250 H 118.842 3.99061 0.393881 0
M  V30 1251 H 115.432 4.16047 -1.02968 0
M  V30 1252 H 119.616 4.57774 -1.91721 0
M  V30 1253 H 114.872 5.22629 -3.17283 0
M  V30 1254 H 119.046 5.65724 -4.06115 0
M  V30 1255 H 116.673 5.97925 -4.69457 0
M  V30 1256 N 118.248 0.346503 1.53744 0
M  V30 1257 C 119.158 -0.517293 2.28826 0
M  V30 1258 C 120.174 -1.10935 1.3405 0
M  V30 1259 O 121.35 -1.1244 1.6709 0
M  V30 1260 C 118.415 -1.65098 3.04866 0
M  V30 1261 C 117.476 -1.0884 4.15274 0
M  V30 1262 C 116.709 -2.16806 4.87679 0
M  V30 1263 O 116.932 -3.3758 4.59778 0
M  V30 1264 O 115.866 -1.80934 5.74061 0
M  V30 1265 H 119.692 0.0931396 3.03557 0
M  V30 1266 H 117.277 0.111458 1.48984 0
M  V30 1267 H 119.159 -2.31053 3.5241 0
M  V30 1268 H 117.834 -2.24717 2.32989 0
M  V30 1269 H 116.741 -0.3933 3.72027 0
M  V30 1270 H 118.074 -0.537036 4.89261 0
M  V30 1271 N 119.726 -1.57421 0.075193 0
M  V30 1272 C 120.676 -2.09441 -0.901025 0
M  V30 1273 C 121.66 -1.00486 -1.25663 0
M  V30 1274 O 122.852 -1.2679 -1.23504 0
M  V30 1275 C 119.981 -2.66233 -2.16737 0
M  V30 1276 C 119.067 -3.82198 -1.83808 0
M  V30 1277 N 119.458 -4.91028 -1.21345 0
M  V30 1278 C 117.756 -3.91558 -2.13538 0
M  V30 1279 C 118.457 -5.71852 -1.06585 0
M  V30 1280 N 117.433 -5.20233 -1.57667 0
M  V30 1281 H 121.235 -2.90972 -0.413815 0
M  V30 1282 H 118.749 -1.6189 -0.128601 0
M  V30 1283 H 120.746 -3.01819 -2.87595 0
M  V30 1284 H 119.406 -1.8615 -2.66042 0
M  V30 1285 H 120.417 -5.10323 -0.88268 0
M  V30 1286 H 117.094 -3.22454 -2.65197 0
M  V30 1287 H 118.484 -6.69401 -0.578933 0
M  V30 1288 N 121.204 0.198386 -1.56346 0
M  V30 1289 C 122.134 1.24865 -1.9731 0
M  V30 1290 C 123.115 1.47651 -0.844576 0
M  V30 1291 O 124.3 1.59444 -1.10866 0
M  V30 1292 C 121.43 2.59358 -2.30977 0
M  V30 1293 C 120.384 2.5119 -3.46537 0
M  V30 1294 C 119.71 3.89926 -3.65871 0
M  V30 1295 C 121.01 2.03977 -4.80823 0
M  V30 1296 H 122.704 0.908252 -2.85291 0
M  V30 1297 H 120.25 0.435462 -1.37258 0
M  V30 1298 H 122.203 3.33011 -2.58228 0
M  V30 1299 H 120.927 2.95132 -1.39874 0
M  V30 1300 H 119.586 1.79993 -3.19371 0
M  V30 1301 H 119.234 4.23046 -2.72105 0
M  V30 1302 H 118.934 3.85336 -4.4361 0
M  V30 1303 H 120.458 4.65205 -3.95495 0
M  V30 1304 H 121.872 2.67386 -5.07127 0
M  V30 1305 H 120.269 2.10397 -5.62008 0
M  V30 1306 H 121.339 0.992861 -4.74626 0
M  V30 1307 N 122.682 1.50554 0.465978 0
M  V30 1308 C 123.615 1.64436 1.58227 0
M  V30 1309 C 124.593 0.492367 1.54966 0
M  V30 1310 O 125.777 0.712536 1.74514 0
M  V30 1311 C 122.904 1.63165 2.96808 0
M  V30 1312 C 121.95 2.83987 3.18204 0
M  V30 1313 S 122.783 4.45219 2.97557 0
M  V30 1314 C 123.939 4.46649 4.3847 0
M  V30 1315 H 124.172 2.58861 1.46213 0
M  V30 1316 H 121.705 1.3988 0.653678 0
M  V30 1317 H 123.663 1.63116 3.76701 0
M  V30 1318 H 122.324 0.69967 3.06208 0
M  V30 1319 H 121.517 2.79416 4.19455 0
M  V30 1320 H 121.119 2.81629 2.46092 0
M  V30 1321 H 123.411 4.20526 5.31191 0
M  V30 1322 H 124.354 5.48295 4.48082 0
M  V30 1323 H 124.762 3.76296 4.20787 0
M  V30 1324 N 124.16 -0.719506 1.40217 0
M  V30 1325 C 125.406 -1.48152 1.38488 0
M  V30 1326 C 125.739 -1.94195 -0.0141867 0
M  V30 1327 O 125.014 -1.67884 -0.982096 0
M  V30 1328 C 125.297 -2.71035 2.37091 0
M  V30 1329 C 125.15 -2.30912 3.86005 0
M  V30 1330 C 126.469 -3.73182 2.33288 0
M  V30 1331 H 123.588 -0.537395 0.504357 0
M  V30 1332 H 126.23 -0.821472 1.71324 0
M  V30 1333 H 124.38 -3.27352 2.0922 0
M  V30 1334 H 126.052 -1.80107 4.24687 0
M  V30 1335 H 124.295 -1.62958 4.02029 0
M  V30 1336 H 124.966 -3.18978 4.50508 0
M  V30 1337 H 127.442 -3.26485 2.57966 0
M  V30 1338 H 126.318 -4.56806 3.04334 0
M  V30 1339 H 126.579 -4.21202 1.34317 0
M  V30 1340 N 125.638 -1.25649 -0.95132 0
M  V30 1341 C 126.601 -1.06399 -2.03007 0
M  V30 1342 C 127.601 -0.0156794 -1.60792 0
M  V30 1343 O 128.791 -0.25817 -1.72276 0
M  V30 1344 C 125.923 -0.616184 -3.35285 0
M  V30 1345 H 127.116 -2.02164 -2.21517 0
M  V30 1346 H 124.669 -1.08103 -1.12887 0
M  V30 1347 H 125.404 0.343917 -3.22471 0
M  V30 1348 H 125.189 -1.37301 -3.67275 0
M  V30 1349 H 126.679 -0.503032 -4.14559 0
M  V30 1350 N 127.117 1.15442 -1.07289 0
M  V30 1351 C 128.047 2.22312 -0.714107 0
M  V30 1352 C 129.028 1.67467 0.298155 0
M  V30 1353 O 130.213 1.93445 0.171048 0
M  V30 1354 C 127.343 3.47124 -0.110448 0
M  V30 1355 C 126.297 4.14926 -1.04979 0
M  V30 1356 C 125.623 5.33807 -0.308924 0
M  V30 1357 C 126.923 4.64762 -2.38314 0
M  V30 1358 H 128.617 2.5258 -1.6076 0
M  V30 1359 H 126.163 1.21404 -0.77441 0
M  V30 1360 H 128.116 4.21124 0.152482 0
M  V30 1361 H 126.84 3.16187 0.81812 0
M  V30 1362 H 125.499 3.42866 -1.29764 0
M  V30 1363 H 125.147 4.99126 0.623084 0
M  V30 1364 H 124.847 5.80113 -0.935036 0
M  V30 1365 H 126.371 6.10576 -0.0537771 0
M  V30 1366 H 127.785 5.30292 -2.1786 0
M  V30 1367 H 126.182 5.21728 -2.96514 0
M  V30 1368 H 127.252 3.80434 -3.00663 0
M  V30 1369 N 128.595 0.856903 1.32268 0
M  V30 1370 C 129.841 0.462069 1.97466 0
M  V30 1371 C 130.174 -0.980298 1.67642 0
M  V30 1372 O 129.449 -1.68824 0.965858 0
M  V30 1373 C 129.732 0.704336 3.53145 0
M  V30 1374 C 129.585 2.19529 3.9259 0
M  V30 1375 C 130.904 0.1622 4.39801 0
M  V30 1376 H 128.023 0.169357 0.717278 0
M  V30 1377 H 130.665 1.07574 1.56614 0
M  V30 1378 H 128.815 0.181999 3.88073 0
M  V30 1379 H 130.487 2.78387 3.67829 0
M  V30 1380 H 128.73 2.67292 3.41668 0
M  V30 1381 H 129.401 2.31549 5.01088 0
M  V30 1382 H 131.877 0.608905 4.11621 0
M  V30 1383 H 130.753 0.361265 5.4771 0
M  V30 1384 H 131.014 -0.935158 4.32096 0
M  V30 1385 N 130.073 -1.45103 0.615059 0
M  V30 1386 C 131.301 -2.06553 0.11977 0
M  V30 1387 C 131.716 -1.45842 -1.19898 0
M  V30 1388 O 131.073 -0.575325 -1.73194 0
M  V30 1389 C 131.124 -3.61495 -0.018364 0
M  V30 1390 O 130.845 -4.19942 1.24822 0
M  V30 1391 C 132.346 -4.39947 -0.544237 0
M  V30 1392 H 129.566 -0.667096 0.0722739 0
M  V30 1393 H 132.11 -1.8623 0.84491 0
M  V30 1394 H 130.265 -3.81135 -0.693865 0
M  V30 1395 H 130.679 -5.13204 1.0827 0
M  V30 1396 H 132.153 -5.48838 -0.589953 0
M  V30 1397 H 132.63 -4.10255 -1.56805 0
M  V30 1398 H 133.236 -4.25188 0.0974703 0
M  V30 1399 N 131.551 -0.354651 -1.53558 0
M  V30 1400 C 132.962 0.126902 -1.86268 0
M  V30 1401 C 133.313 1.49075 -1.27558 0
M  V30 1402 O 132.438 2.08105 -0.5934 0
M  V30 1403 C 133.033 0.237046 -3.3797 0
M  V30 1404 C 131.592 0.662842 -3.70518 0
M  V30 1405 C 130.739 -0.196652 -2.76602 0
M  V30 1406 H 133.69 -0.573849 -1.47962 0
M  V30 1407 H 133.711 1.06259 -3.65362 0
M  V30 1408 H 133.223 -0.755725 -3.80671 0
M  V30 1409 H 131.324 1.66424 -3.33367 0
M  V30 1410 H 131.437 0.445034 -4.77029 0
M  V30 1411 H 129.801 0.332763 -2.52517 0
M  V30 1412 H 130.584 -1.18676 -3.22135 0
M  V30 1413 N 133.029 1.57378 -0.0835403 0
M  V30 1414 C 134.44 1.81261 0.447358 0
M  V30 1415 C 134.791 0.998331 1.68902 0
M  V30 1416 O 133.916 0.224282 2.15235 0
M  V30 1417 C 134.511 3.28767 0.818386 0
M  V30 1418 C 133.07 3.53455 1.29409 0
M  V30 1419 C 132.217 2.75831 0.285024 0
M  V30 1420 H 135.168 1.5566 -0.309115 0
M  V30 1421 H 135.189 3.41459 1.67887 0
M  V30 1422 H 134.701 3.88006 -0.0855019 0
M  V30 1423 H 132.802 2.99534 2.21608 0
M  V30 1424 H 132.915 4.62128 1.2639 0
M  V30 1425 H 131.279 2.42947 0.764767 0
M  V30 1426 H 132.062 3.37813 -0.611341 0
M  V30 1427 N 134.507 -0.190092 1.56449 0
M  V30 1428 C 135.47 -1.21925 1.9408 0
M  V30 1429 C 136.47 -1.38176 0.822431 0
M  V30 1430 O 137.66 -1.35903 1.08977 0
M  V30 1431 C 134.792 -2.58773 2.21922 0
M  V30 1432 H 135.985 -0.897464 2.86157 0
M  V30 1433 H 133.538 -0.43181 1.50217 0
M  V30 1434 H 134.273 -2.95998 1.32499 0
M  V30 1435 H 134.058 -2.48348 3.03424 0
M  V30 1436 H 135.548 -3.32978 2.52022 0
M  V30 1437 N 135.985 -1.50799 -0.457987 0
M  V30 1438 C 137.231 -1.62683 -1.21088 0
M  V30 1439 C 137.564 -0.332268 -1.91336 0
M  V30 1440 O 136.839 0.667043 -1.82704 0
M  V30 1441 C 137.122 -2.81615 -2.24422 0
M  V30 1442 C 136.975 -4.20989 -1.58392 0
M  V30 1443 C 138.294 -2.96085 -3.2561 0
M  V30 1444 H 135.413 -0.592087 -0.438864 0
M  V30 1445 H 138.055 -1.83225 -0.50286 0
M  V30 1446 H 136.205 -2.64231 -2.84806 0
M  V30 1447 H 137.877 -4.49994 -1.01504 0
M  V30 1448 H 136.12 -4.24641 -0.886704 0
M  V30 1449 H 136.791 -5.0016 -2.33547 0
M  V30 1450 H 139.267 -3.12042 -2.75262 0
M  V30 1451 H 138.143 -3.80902 -3.95228 0
M  V30 1452 H 138.404 -2.0726 -3.90507 0
M  V30 1453 N 137.463 0.71206 -1.40597 0
M  V30 1454 C 138.71 1.47197 -1.39065 0
M  V30 1455 C 139.038 1.94499 0.00583891 0
M  V30 1456 O 138.293 1.68752 0.99102 0
M  V30 1457 C 138.592 2.71039 -2.32965 0
M  V30 1458 C 138.258 2.42484 -3.80148 0
M  V30 1459 C 136.92 2.34406 -4.20247 0
M  V30 1460 C 139.272 2.18598 -4.73143 0
M  V30 1461 C 136.6 2.00516 -5.51371 0
M  V30 1462 C 138.952 1.8622 -6.0457 0
M  V30 1463 C 137.616 1.76626 -6.43708 0
M  V30 1464 H 136.886 0.538634 -0.508876 0
M  V30 1465 H 139.533 0.815325 -1.73276 0
M  V30 1466 H 137.838 3.41558 -1.91951 0
M  V30 1467 H 139.535 3.29138 -2.29061 0
M  V30 1468 H 136.125 2.49659 -3.4838 0
M  V30 1469 H 140.309 2.23793 -4.42979 0
M  V30 1470 H 135.565 1.91628 -5.80593 0
M  V30 1471 H 139.739 1.66752 -6.76141 0
M  V30 1472 H 137.366 1.50133 -7.45228 0
M  V30 1473 N 138.941 1.26152 0.944643 0
M  V30 1474 C 140.218 1.02247 1.66748 0
M  V30 1475 C 140.598 -0.448202 2.06287 0
M  V30 1476 O 139.946 -1.42779 1.78399 0
M  V30 1477 C 140.156 1.96788 2.88228 0
M  V30 1478 C 141.504 2.25201 3.59958 0
M  V30 1479 O 142.528 1.94626 2.98327 0
M  V30 1480 O 141.387 2.77242 4.70956 0
M  V30 1481 H 138.481 0.388517 0.730057 0
M  V30 1482 H 141.027 1.37348 0.99668 0
M  V30 1483 H 139.799 2.96047 2.55875 0
M  V30 1484 H 139.422 1.62145 3.63035 0
M  V30 1485 N 140.419 -1.14872 1.07899 0
M  V30 1486 C 141.382 -2.17986 0.708161 0
M  V30 1487 C 142.382 -1.58775 -0.25442 0
M  V30 1488 O 143.572 -1.74166 -0.034645 0
M  V30 1489 C 140.704 -3.40871 0.0446929 0
M  V30 1490 H 141.897 -2.52306 1.62116 0
M  V30 1491 H 139.45 -1.2943 0.876218 0
M  V30 1492 H 140.185 -3.12124 -0.880281 0
M  V30 1493 H 139.97 -3.8511 0.737091 0
M  V30 1494 H 141.46 -4.17121 -0.19991 0
M  V30 1495 N 141.898 -0.863906 -1.31812 0
M  V30 1496 C 142.845 -0.313303 -2.28664 0
M  V30 1497 C 143.815 0.584868 -1.55462 0
M  V30 1498 O 145 0.517805 -1.83639 0
M  V30 1499 C 142.14 0.48441 -3.41683 0
M  V30 1500 C 141.253 -0.440594 -4.29747 0
M  V30 1501 C 140.388 0.370652 -5.29905 0
M  V30 1502 C 139.427 -0.551164 -6.09613 0
M  V30 1503 N 138.564 0.223462 -7.01744 0
M  V30 1504 H 143.404 -1.14444 -2.75148 0
M  V30 1505 H 140.941 -0.575769 -1.35364 0
M  V30 1506 H 142.899 0.962627 -4.05943 0
M  V30 1507 H 141.529 1.28029 -2.96325 0
M  V30 1508 H 140.581 -1.03724 -3.65986 0
M  V30 1509 H 141.893 -1.14767 -4.85417 0
M  V30 1510 H 141.047 0.911638 -5.99812 0
M  V30 1511 H 139.786 1.11105 -4.74876 0
M  V30 1512 H 138.791 -1.10396 -5.38603 0
M  V30 1513 H 140.016 -1.29032 -6.66729 0
M  V30 1514 H 137.962 0.946787 -6.49132 0
M  V30 1515 H 137.879 -0.424399 -7.54808 0
M  V30 1516 H 139.147 0.745876 -7.75923 0
M  V30 1517 N 143.376 1.44774 -0.622745 0
M  V30 1518 C 144.308 2.28856 0.125485 0
M  V30 1519 C 145.321 1.40811 0.817069 0
M  V30 1520 O 146.51 1.65044 0.679918 0
M  V30 1521 C 143.61 3.16963 1.19949 0
M  V30 1522 C 142.783 4.33374 0.592064 0
M  V30 1523 C 141.842 5.02577 1.55893 0
M  V30 1524 O 140.868 5.58873 1.07933 0
M  V30 1525 N 142.07 5.03256 2.89334 0
M  V30 1526 H 144.835 2.93713 -0.596068 0
M  V30 1527 H 142.396 1.55129 -0.463303 0
M  V30 1528 H 144.388 3.60123 1.84644 0
M  V30 1529 H 142.958 2.53913 1.82337 0
M  V30 1530 H 142.178 3.93509 -0.233322 0
M  V30 1531 H 143.466 5.08527 0.166738 0
M  V30 1532 H 142.864 4.58836 3.30887 0
M  V30 1533 H 141.421 5.50232 3.49412 0
M  V30 1534 N 144.854 0.36279 1.53368 0
M  V30 1535 C 145.784 -0.476976 2.28576 0
M  V30 1536 C 146.765 -1.08631 1.30894 0
M  V30 1537 O 147.95 -1.10409 1.59761 0
M  V30 1538 C 145.08 -1.61828 3.07293 0
M  V30 1539 C 144.034 -1.13633 4.1264 0
M  V30 1540 C 143.36 -2.36766 4.79423 0
M  V30 1541 C 144.66 -0.223061 5.21823 0
M  V30 1542 H 146.354 0.150474 2.99022 0
M  V30 1543 H 143.9 0.0738103 1.43811 0
M  V30 1544 H 145.853 -2.21237 3.58653 0
M  V30 1545 H 144.577 -2.27292 2.34533 0
M  V30 1546 H 143.236 -0.564945 3.62221 0
M  V30 1547 H 142.884 -3.0068 4.03238 0
M  V30 1548 H 142.584 -2.05192 5.50609 0
M  V30 1549 H 144.108 -2.96865 5.33576 0
M  V30 1550 H 145.522 -0.724545 5.68703 0
M  V30 1551 H 143.919 0.001678 6.001 0
M  V30 1552 H 144.989 0.735553 4.79289 0
M  V30 1553 N 146.332 -1.57332 0.0918853 0
M  V30 1554 C 147.279 -2.13847 -0.868211 0
M  V30 1555 C 148.249 -1.05618 -1.28196 0
M  V30 1556 O 149.434 -1.33387 -1.36427 0
M  V30 1557 C 146.574 -2.72062 -2.12312 0
M  V30 1558 C 145.687 -3.94514 -1.7602 0
M  V30 1559 C 144.822 -4.40903 -2.96273 0
M  V30 1560 C 143.861 -5.55953 -2.56092 0
M  V30 1561 N 142.998 -5.97209 -3.69169 0
M  V30 1562 H 147.838 -2.95575 -0.379406 0
M  V30 1563 H 145.375 -1.46048 -0.175606 0
M  V30 1564 H 147.333 -3.03931 -2.858 0
M  V30 1565 H 145.963 -1.93068 -2.58698 0
M  V30 1566 H 145.015 -3.68979 -0.925135 0
M  V30 1567 H 146.327 -4.7802 -1.42472 0
M  V30 1568 H 145.481 -4.74539 -3.78018 0
M  V30 1569 H 144.22 -3.56291 -3.33029 0
M  V30 1570 H 143.225 -5.21948 -1.72773 0
M  V30 1571 H 144.45 -6.42311 -2.20484 0
M  V30 1572 H 142.396 -5.15543 -4.05649 0
M  V30 1573 H 142.313 -6.75504 -3.39456 0
M  V30 1574 H 143.581 -6.35475 -4.51434 0
M  V30 1575 N 147.81 0.181792 -1.56548 0
M  V30 1576 C 148.757 1.22521 -1.95595 0
M  V30 1577 C 149.727 1.4454 -0.818373 0
M  V30 1578 O 150.912 1.57454 -1.07763 0
M  V30 1579 C 148.052 2.56193 -2.31212 0
M  V30 1580 C 147.165 2.41641 -3.58097 0
M  V30 1581 C 146.3 3.68108 -3.82975 0
M  V30 1582 C 145.339 3.48445 -5.03242 0
M  V30 1583 N 144.476 4.66956 -5.24306 0
M  V30 1584 H 149.316 0.885226 -2.84548 0
M  V30 1585 H 146.853 0.425718 -1.40805 0
M  V30 1586 H 148.811 3.34088 -2.49882 0
M  V30 1587 H 147.441 2.88208 -1.45382 0
M  V30 1588 H 146.493 1.54976 -3.474 0
M  V30 1589 H 147.805 2.23052 -4.46149 0
M  V30 1590 H 146.959 4.54441 -4.01956 0
M  V30 1591 H 145.698 3.89666 -2.93278 0
M  V30 1592 H 144.703 2.60499 -4.8417 0
M  V30 1593 H 145.928 3.2832 -5.9446 0
M  V30 1594 H 143.874 4.88752 -4.37559 0
M  V30 1595 H 143.791 4.51242 -6.06561 0
M  V30 1596 H 145.059 5.54602 -5.47756 0
M  V30 1597 N 149.288 1.51039 0.449983 0
M  V30 1598 C 150.513 1.6715 1.22783 0
M  V30 1599 C 150.938 0.363081 1.84563 0
M  V30 1600 O 150.296 -0.675433 1.68249 0
M  V30 1601 C 150.344 2.77985 2.29689 0
M  V30 1602 O 149.448 2.40707 3.34864 0
M  V30 1603 H 148.789 0.557746 0.360299 0
M  V30 1604 H 151.319 1.97535 0.533005 0
M  V30 1605 H 151.329 3.01693 2.74673 0
M  V30 1606 H 150.004 3.72935 1.84098 0
M  V30 1607 H 148.581 2.27523 2.95445 0
M  V30 1608 N 150.766 -0.704594 1.40972 0
M  V30 1609 C 151.699 -1.82861 1.36518 0
M  V30 1610 C 152.677 -1.6091 0.23382 0
M  V30 1611 O 153.861 -1.83778 0.419271 0
M  V30 1612 C 150.988 -3.1939 1.12729 0
M  V30 1613 C 150.034 -3.60148 2.28463 0
M  V30 1614 S 150.867 -3.65994 3.90907 0
M  V30 1615 C 152.023 -5.05264 3.69403 0
M  V30 1616 H 152.256 -1.86361 2.3164 0
M  V30 1617 H 149.789 -0.872439 1.27389 0
M  V30 1618 H 151.747 -3.98211 0.996893 0
M  V30 1619 H 150.408 -3.1351 0.192427 0
M  V30 1620 H 149.601 -4.59309 2.07489 0
M  V30 1621 H 149.203 -2.88612 2.37863 0
M  V30 1622 H 151.495 -5.92504 3.28551 0
M  V30 1623 H 152.438 -5.31278 4.68134 0
M  V30 1624 H 152.846 -4.76377 3.02862 0
M  V30 1625 N 152.244 -1.26651 -0.937939 0
M  V30 1626 C 153.191 -1.0849 -2.03712 0
M  V30 1627 C 154.161 0.011033 -1.66096 0
M  V30 1628 O 155.346 -0.149353 -1.90215 0
M  V30 1629 C 152.486 -0.72735 -3.37348 0
M  V30 1630 C 151.599 -1.89986 -3.87981 0
M  V30 1631 C 150.734 -1.48513 -5.10017 0
M  V30 1632 C 149.773 -2.62575 -5.5292 0
M  V30 1633 N 148.91 -2.21762 -6.66158 0
M  V30 1634 H 153.75 -2.02551 -2.18579 0
M  V30 1635 H 151.287 -1.00844 -1.07093 0
M  V30 1636 H 153.245 -0.50092 -4.14182 0
M  V30 1637 H 151.875 0.176298 -3.22318 0
M  V30 1638 H 150.927 -2.23913 -3.07518 0
M  V30 1639 H 152.239 -2.75586 -4.15757 0
M  V30 1640 H 151.393 -1.21934 -5.94321 0
M  V30 1641 H 150.132 -0.60009 -4.83994 0
M  V30 1642 H 149.137 -2.8988 -4.67172 0
M  V30 1643 H 150.362 -3.51685 -5.80943 0
M  V30 1644 H 148.308 -1.35696 -6.41812 0
M  V30 1645 H 148.225 -3.00903 -6.93537 0
M  V30 1646 H 149.493 -1.98403 -7.53828 0
M  V30 1647 N 153.722 1.14298 -1.08507 0
M  V30 1648 C 154.97 1.84993 -0.813763 0
M  V30 1649 C 155.291 1.83405 0.662393 0
M  V30 1650 O 154.561 1.28319 1.48024 0
M  V30 1651 H 153.141 0.684966 -0.298045 0
M  V30 1652 H 155.803 1.385 -1.37126 0
M  V30 1653 H 154.899 2.89788 -1.15884 0
M  V30 1654 N 155.201 0.870884 1.31352 0
M  V30 1655 C 156.164 0.332243 2.26779 0
M  V30 1656 C 157.164 -0.517302 1.52252 0
M  V30 1657 O 158.354 -0.326477 1.71113 0
M  V30 1658 C 155.486 -0.528066 3.36785 0
M  V30 1659 H 156.679 1.17469 2.75937 0
M  V30 1660 H 154.232 0.64655 1.423 0
M  V30 1661 H 154.967 -1.39167 2.92922 0
M  V30 1662 H 154.752 0.0802582 3.92018 0
M  V30 1663 H 156.242 -0.897179 4.07849 0
M  V30 1664 N 156.679 -1.44442 0.630414 0
M  V30 1665 C 157.927 -2.01653 0.134351 0
M  V30 1666 C 158.248 -1.49836 -1.24796 0
M  V30 1667 O 157.518 -0.701684 -1.82902 0
M  V30 1668 H 156.098 -0.74554 0.0466769 0
M  V30 1669 H 158.76 -1.76952 0.816955 0
M  V30 1670 H 157.856 -3.11935 0.101498 0
M  V30 1671 N 158.157 -0.370918 -1.53173 0
M  V30 1672 C 159.385 0.217704 -2.05751 0
M  V30 1673 C 159.8 1.42018 -1.24404 0
M  V30 1674 O 159.157 1.80245 -0.286033 0
M  V30 1675 C 159.208 0.605954 -3.56385 0
M  V30 1676 O 158.929 -0.548734 -4.3465 0
M  V30 1677 C 160.43 1.2524 -4.25241 0
M  V30 1678 H 157.65 0.0371659 -0.66997 0
M  V30 1679 H 160.194 -0.530832 -1.9749 0
M  V30 1680 H 158.349 1.3044 -3.6478 0
M  V30 1681 H 158.763 -0.23376 -5.23979 0
M  V30 1682 H 160.237 1.47458 -5.3194 0
M  V30 1683 H 160.714 2.2143 -3.79296 0
M  V30 1684 H 161.32 0.595233 -4.21114 0
M  V30 1685 N 159.635 1.57281 -0.100228 0
M  V30 1686 C 160.583 2.15542 0.874328 0
M  V30 1687 C 161.577 1.09962 1.28859 0
M  V30 1688 O 162.783 1.28298 1.26252 0
M  V30 1689 H 159.158 0.689567 0.300003 0
M  V30 1690 H 161.129 2.96241 0.35829 0
M  V30 1691 C 159.878 2.75454 2.1218 0
M  V30 1692 H 159.201 3.56384 1.81193 0
M  V30 1693 H 160.641 3.19781 2.78417 0
M  V30 1694 C 159.1 1.71602 2.89921 0
M  V30 1695 O 159.63 1.15804 3.84646 0
M  V30 1696 N 157.836 1.41975 2.53558 0
M  V30 1697 H 157.383 1.87539 1.76598 0
M  V30 1698 H 157.341 0.727274 3.05873 0
M  V30 1699 N 161.113 -0.173488 1.56642 0
M  V30 1700 C 162.023 -1.23482 1.99473 0
M  V30 1701 C 163.039 -1.48567 0.905752 0
M  V30 1702 O 164.215 -1.60758 1.21321 0
M  V30 1703 C 161.28 -2.55444 2.34413 0
M  V30 1704 C 160.341 -2.38241 3.57127 0
M  V30 1705 C 159.574 -3.63909 3.90392 0
M  V30 1706 O 159.797 -4.68996 3.24653 0
M  V30 1707 O 158.731 -3.58149 4.83749 0
M  V30 1708 H 162.557 -0.901279 2.90018 0
M  V30 1709 H 160.142 -0.380185 1.44482 0
M  V30 1710 H 162.024 -3.33292 2.57865 0
M  V30 1711 H 160.699 -2.88382 1.4703 0
M  V30 1712 H 159.606 -1.58431 3.38896 0
M  V30 1713 H 160.939 -2.10228 4.45045 0
M  V30 1714 N 162.591 -1.51276 -0.441967 0
M  V30 1715 C 163.868 -1.54252 -1.20273 0
M  V30 1716 C 164.248 -0.30408 -2.08898 0
M  V30 1717 O 163.596 0.711084 -2.17154 0
M  V30 1718 C 163.806 -2.85406 -2.00859 0
M  V30 1719 C 165.154 -3.37181 -2.58059 0
M  V30 1720 O 166.178 -2.86925 -2.11074 0
M  V30 1721 O 165.037 -4.24858 -3.43741 0
M  V30 1722 H 162.131 -0.619969 -0.547328 0
M  V30 1723 H 164.677 -1.63586 -0.451413 0
M  V30 1724 H 163.449 -3.67003 -1.35736 0
M  V30 1725 H 163.072 -2.79213 -2.83065 0
M  V30 1726 N 164.069 0.697108 -1.41344 0
M  V30 1727 C 165.032 1.79281 -1.42797 0
M  V30 1728 C 166.032 1.57607 -0.318837 0
M  V30 1729 O 167.222 1.64309 -0.578642 0
M  V30 1730 C 164.354 3.17632 -1.23785 0
M  V30 1731 H 165.547 1.79385 -2.40335 0
M  V30 1732 H 163.1 0.904582 -1.27464 0
M  V30 1733 H 163.835 3.23167 -0.270814 0
M  V30 1734 H 163.62 3.34765 -2.04144 0
M  V30 1735 H 165.11 3.97617 -1.27633 0
M  V30 1736 N 165.547 1.27147 0.931209 0
M  V30 1737 C 166.477 1.12081 2.04842 0
M  V30 1738 C 167.458 0.0232364 1.70084 0
M  V30 1739 O 168.643 0.197085 1.93197 0
M  V30 1740 C 165.773 0.76354 3.38803 0
M  V30 1741 C 164.727 1.81396 3.87659 0
M  V30 1742 C 164.053 1.31075 5.18385 0
M  V30 1743 C 165.353 3.21739 4.11438 0
M  V30 1744 H 167.047 2.05537 2.17703 0
M  V30 1745 H 164.593 0.989603 1.04608 0
M  V30 1746 H 166.546 0.644982 4.16435 0
M  V30 1747 H 165.27 -0.206727 3.25945 0
M  V30 1748 H 163.929 1.92136 3.12217 0
M  V30 1749 H 163.577 0.330037 5.01916 0
M  V30 1750 H 163.277 2.013 5.52044 0
M  V30 1751 H 164.801 1.20506 5.98591 0
M  V30 1752 H 166.215 3.14019 4.79651 0
M  V30 1753 H 164.612 3.89644 4.56397 0
M  V30 1754 H 165.682 3.67054 3.16859 0
M  V30 1755 N 167.025 -1.13721 1.09112 0
M  V30 1756 C 168.274 -1.84275 0.82009 0
M  V30 1757 C 168.587 -1.84253 -0.656509 0
M  V30 1758 O 169.793 -2.50668 -1.04296 0
M  V30 1759 C 168.249 -3.30825 1.41714 0
M  V30 1760 C 167.857 -3.39244 2.92605 0
M  V30 1761 C 169.601 -4.06443 1.22492 0
M  V30 1762 C 167.508 -4.80047 3.45411 0
M  V30 1763 H 166.438 -0.690387 0.30312 0
M  V30 1764 H 169.089 -1.28146 1.31343 0
M  V30 1765 H 167.471 -3.86737 0.851498 0
M  V30 1766 H 168.645 -2.93344 3.55367 0
M  V30 1767 H 166.96 -2.77088 3.10823 0
M  V30 1768 H 169.557 -5.10387 1.59402 0
M  V30 1769 H 169.9 -4.15972 0.165299 0
M  V30 1770 H 170.433 -3.56852 1.75788 0
M  V30 1771 H 167.172 -4.75709 4.50978 0
M  V30 1772 H 166.692 -5.26455 2.87411 0
M  V30 1773 H 168.371 -5.48957 3.42425 0
M  V30 1774 N 168.503 -0.877838 -1.30888 0
M  V30 1775 C 169.413 -0.343096 -2.32078 0
M  V30 1776 C 170.429 0.551022 -1.65045 0
M  V30 1777 O 171.605 0.445854 -1.96403 0
M  V30 1778 C 168.67 0.439905 -3.43898 0
M  V30 1779 C 167.731 -0.483111 -4.26573 0
M  V30 1780 C 166.964 0.262616 -5.33053 0
M  V30 1781 O 167.187 1.48967 -5.50604 0
M  V30 1782 O 166.121 -0.383593 -6.00676 0
M  V30 1783 H 169.947 -1.18203 -2.79753 0
M  V30 1784 H 167.532 -0.64145 -1.34929 0
M  V30 1785 H 169.414 0.883504 -4.12034 0
M  V30 1786 H 168.089 1.25526 -2.98371 0
M  V30 1787 H 166.996 -0.975374 -3.61161 0
M  V30 1788 H 168.329 -1.26427 -4.75686 0
M  V30 1789 N 169.982 1.44106 -0.638065 0
M  V30 1790 C 171.231 2.01194 -0.142744 0
M  V30 1791 C 171.544 1.50835 1.24532 0
M  V30 1792 O 172.75 2.00096 1.83504 0
M  V30 1793 C 171.206 3.59319 -0.20442 0
M  V30 1794 C 170.814 4.18674 -1.59423 0
M  V30 1795 C 172.558 4.23854 0.234079 0
M  V30 1796 C 170.465 5.69045 -1.61065 0
M  V30 1797 H 169.395 0.752367 -0.0495998 0
M  V30 1798 H 172.046 1.65246 -0.797881 0
M  V30 1799 H 170.428 3.92598 0.517946 0
M  V30 1800 H 171.602 3.96921 -2.34074 0
M  V30 1801 H 169.917 3.66453 -1.97741 0
M  V30 1802 H 172.514 5.34155 0.241443 0
M  V30 1803 H 172.857 3.96688 1.2627 0
M  V30 1804 H 173.39 3.95403 -0.436025 0
M  V30 1805 H 170.129 6.00956 -2.61787 0
M  V30 1806 H 169.649 5.929 -0.90718 0
M  V30 1807 H 171.328 6.32809 -1.34766 0
M  V30 1808 N 171.46 0.379036 1.52974 0
M  V30 1809 C 172.39 -0.452706 2.29069 0
M  V30 1810 C 173.371 -1.07237 1.32039 0
M  V30 1811 O 174.556 -1.08708 1.60923 0
M  V30 1812 C 171.686 -1.5856 3.08992 0
M  V30 1813 C 170.64 -1.0925 4.13822 0
M  V30 1814 C 169.966 -2.31668 4.81907 0
M  V30 1815 C 171.266 -0.167702 5.22031 0
M  V30 1816 H 172.96 0.182181 2.98845 0
M  V30 1817 H 170.506 0.0890592 1.43724 0
M  V30 1818 H 172.459 -2.1742 3.6098 0
M  V30 1819 H 171.183 -2.24792 2.36931 0
M  V30 1820 H 169.842 -0.526494 3.628 0
M  V30 1821 H 169.49 -2.96386 4.06404 0
M  V30 1822 H 169.19 -1.9934 5.52754 0
M  V30 1823 H 170.714 -2.91189 5.36695 0
M  V30 1824 H 172.128 -0.664186 5.6944 0
M  V30 1825 H 170.525 0.0653265 6.00064 0
M  V30 1826 H 171.595 0.786347 4.78482 0
M  V30 1827 N 172.938 -1.57226 0.108567 0
M  V30 1828 C 174.166 -1.99179 -0.559954 0
M  V30 1829 C 174.581 -0.988022 -1.60884 0
M  V30 1830 O 173.938 0.0205512 -1.82488 0
M  V30 1831 C 173.989 -3.41159 -1.19552 0
M  V30 1832 O 173.71 -4.37694 -0.188577 0
M  V30 1833 C 175.211 -3.98188 -1.94837 0
M  V30 1834 H 172.431 -0.654228 -0.149088 0
M  V30 1835 H 174.975 -2.03598 0.19183 0
M  V30 1836 H 173.13 -3.37711 -1.89815 0
M  V30 1837 H 173.544 -5.20469 -0.649014 0
M  V30 1838 H 175.018 -4.99644 -2.34648 0
M  V30 1839 H 175.495 -3.3675 -2.81951 0
M  V30 1840 H 176.101 -4.0515 -1.2936 0
M  V30 1841 N 174.416 0.165178 -1.56732 0
M  V30 1842 C 175.644 0.896218 -1.86482 0
M  V30 1843 C 176.059 1.75555 -0.694675 0
M  V30 1844 O 175.416 1.79379 0.33607 0
M  V30 1845 C 175.467 1.76792 -3.1532 0
M  V30 1846 O 175.188 0.943239 -4.27825 0
M  V30 1847 C 176.689 2.6081 -3.58459 0
M  V30 1848 H 173.909 0.260064 -0.618553 0
M  V30 1849 H 176.453 0.163428 -2.03846 0
M  V30 1850 H 174.608 2.45398 -2.99764 0
M  V30 1851 H 175.022 1.53998 -5.01383 0
M  V30 1852 H 176.496 3.17579 -4.51495 0
M  V30 1853 H 176.973 3.35977 -2.82872 0
M  V30 1854 H 177.579 1.97526 -3.76648 0
M  V30 1855 N 175.894 1.51508 0.433938 0
M  V30 1856 C 177.31 1.39759 0.770682 0
M  V30 1857 C 177.51 0.482594 1.95636 0
M  V30 1858 O 176.566 -0.0609691 2.52426 0
M  V30 1859 C 177.879 2.81851 1.04787 0
M  V30 1860 C 179.427 2.91025 1.1521 0
M  V30 1861 C 179.902 4.34032 1.46219 0
M  V30 1862 N 181.393 4.37154 1.53136 0
M  V30 1863 C 182.128 5.4484 1.78709 0
M  V30 1864 N 181.624 6.62682 2.02051 0
M  V30 1865 N 183.417 5.32324 1.80519 0
M  V30 1866 H 175.568 2.09548 -0.346892 0
M  V30 1867 H 177.831 0.943446 -0.0928074 0
M  V30 1868 H 177.537 3.50815 0.249304 0
M  V30 1869 H 177.411 3.21386 1.97461 0
M  V30 1870 H 179.798 2.22257 1.94128 0
M  V30 1871 H 179.879 2.54983 0.204281 0
M  V30 1872 H 179.523 5.03351 0.678274 0
M  V30 1873 H 179.453 4.6759 2.42212 0
M  V30 1874 H 181.944 3.52197 1.36987 0
M  V30 1875 H 182.257 7.40543 2.20943 0
M  V30 1876 H 180.602 6.65791 1.99366 0
M  V30 1877 H 183.793 4.39246 1.61805 0
M  V30 1878 H 183.966 6.16328 2.00111 0
M  V30 1879 N 177.372 -0.689602 1.41712 0
M  V30 1880 C 178.6 -1.47827 1.44758 0
M  V30 1881 C 179.015 -1.88721 0.0545703 0
M  V30 1882 O 178.372 -1.57176 -0.927463 0
M  V30 1883 C 178.423 -2.73698 2.3616 0
M  V30 1884 O 178.144 -2.34524 3.7004 0
M  V30 1885 C 179.645 -3.67389 2.48072 0
M  V30 1886 H 176.865 -0.455357 0.49284 0
M  V30 1887 H 179.409 -0.848574 1.86063 0
M  V30 1888 H 177.564 -3.32891 1.98148 0
M  V30 1889 H 177.978 -3.15701 4.18847 0
M  V30 1890 H 179.452 -4.52475 3.16181 0
M  V30 1891 H 179.929 -4.12284 1.51388 0
M  V30 1892 H 180.535 -3.14097 2.86746 0
M  V30 1893 N 178.85 -1.27639 -0.924453 0
M  V30 1894 C 180.075 -1.17101 -1.71179 0
M  V30 1895 C 180.5 0.268134 -1.86179 0
M  V30 1896 O 179.858 1.19415 -1.36418 0
M  V30 1897 C 179.906 -1.86313 -3.08739 0
M  V30 1898 O 179.01 -1.16331 -3.95652 0
M  V30 1899 H 178.351 -0.407091 -0.524569 0
M  V30 1900 H 180.881 -1.68767 -1.15666 0
M  V30 1901 H 180.891 -1.938 -3.59034 0
M  V30 1902 H 179.566 -2.91001 -2.97138 0
M  V30 1903 H 178.143 -1.16935 -3.54091 0
M  V30 1904 N 180.328 1.1314 -1.09713 0
M  V30 1905 C 181.744 1.36477 -0.827423 0
M  V30 1906 C 181.944 1.93654 0.556817 0
M  V30 1907 O 181 2.15791 1.31112 0
M  V30 1908 C 182.313 2.31334 -1.92106 0
M  V30 1909 C 183.861 2.44943 -1.94864 0
M  V30 1910 C 184.336 3.4311 -3.0338 0
M  V30 1911 N 185.827 3.50662 -3.02639 0
M  V30 1912 C 186.562 4.2651 -3.83246 0
M  V30 1913 N 186.058 5.05485 -4.73768 0
M  V30 1914 N 187.851 4.2184 -3.71493 0
M  V30 1915 H 180.002 0.743807 -1.9895 0
M  V30 1916 H 182.265 0.389823 -0.864143 0
M  V30 1917 H 181.971 1.96483 -2.91698 0
M  V30 1918 H 181.845 3.31381 -1.80184 0
M  V30 1919 H 184.232 2.79079 -0.959099 0
M  V30 1920 H 184.313 1.4481 -2.10864 0
M  V30 1921 H 183.957 3.09704 -4.02549 0
M  V30 1922 H 183.887 4.43055 -2.84622 0
M  V30 1923 H 186.378 2.94315 -2.37039 0
M  V30 1924 H 186.691 5.60675 -5.3185 0
M  V30 1925 H 185.036 5.04708 -4.77802 0
M  V30 1926 H 188.227 3.5922 -3.00131 0
M  V30 1927 H 188.4 4.80697 -4.3455 0
M  V30 1928 N 181.806 0.884767 1.30421 0
M  V30 1929 C 182.738 0.308655 2.27112 0
M  V30 1930 C 183.751 -0.536655 1.53701 0
M  V30 1931 O 184.94 -0.35624 1.74909 0
M  V30 1932 C 182.04 -0.579782 3.33904 0
M  V30 1933 C 181.213 0.236417 4.36761 0
M  V30 1934 C 180.272 -0.582482 5.22966 0
M  V30 1935 O 179.298 -0.00525502 5.692 0
M  V30 1936 N 180.5 -1.89163 5.48815 0
M  V30 1937 H 183.265 1.13964 2.77186 0
M  V30 1938 H 180.826 0.747731 1.43599 0
M  V30 1939 H 182.818 -1.13366 3.88497 0
M  V30 1940 H 181.388 -1.31144 2.83761 0
M  V30 1941 H 180.608 0.97174 3.82035 0
M  V30 1942 H 181.896 0.795924 5.02536 0
M  V30 1943 H 181.294 -2.38352 5.13035 0
M  V30 1944 H 179.851 -2.39296 6.06284 0
M  V30 1945 N 183.284 -1.43765 0.645699 0
M  V30 1946 C 184.217 -2.2798 -0.100072 0
M  V30 1947 C 185.195 -1.39391 -0.837194 0
M  V30 1948 O 186.379 -1.68833 -0.838306 0
M  V30 1949 C 183.506 -3.18643 -1.14823 0
M  V30 1950 C 182.552 -4.2344 -0.510009 0
M  V30 1951 S 183.385 -5.30761 0.710824 0
M  V30 1952 C 184.541 -6.24992 -0.33699 0
M  V30 1953 H 184.774 -2.90884 0.614322 0
M  V30 1954 H 182.307 -1.48166 0.434304 0
M  V30 1955 H 184.265 -3.71424 -1.74799 0
M  V30 1956 H 182.926 -2.54932 -1.8349 0
M  V30 1957 H 182.119 -4.86948 -1.29991 0
M  V30 1958 H 181.721 -3.73997 0.0154577 0
M  V30 1959 H 184.013 -6.66691 -1.20537 0
M  V30 1960 H 184.956 -7.07612 0.262879 0
M  V30 1961 H 185.364 -5.60517 -0.669425 0
M  V30 1962 N 184.763 -0.387143 -1.52771 0
M  V30 1963 C 185.71 0.449048 -2.26389 0
M  V30 1964 C 186.68 1.05961 -1.27912 0
M  V30 1965 O 187.865 1.08804 -1.56737 0
M  V30 1966 C 185.005 1.57155 -3.0724 0
M  V30 1967 C 184.118 0.984066 -4.20643 0
M  V30 1968 C 183.253 2.07745 -4.88892 0
M  V30 1969 C 182.292 1.46574 -5.94292 0
M  V30 1970 N 181.429 2.49834 -6.56146 0
M  V30 1971 H 186.269 -0.185205 -2.97424 0
M  V30 1972 H 183.806 -0.103164 -1.46738 0
M  V30 1973 H 185.764 2.23309 -3.52405 0
M  V30 1974 H 184.394 2.17615 -2.38419 0
M  V30 1975 H 183.446 0.212193 -3.79808 0
M  V30 1976 H 184.758 0.497029 -4.96318 0
M  V30 1977 H 183.912 2.81673 -5.3735 0
M  V30 1978 H 182.651 2.59807 -4.12737 0
M  V30 1979 H 181.656 0.711696 -5.45174 0
M  V30 1980 H 182.881 0.953088 -6.72379 0
M  V30 1981 H 180.827 3.0107 -5.82832 0
M  V30 1982 H 180.744 2.05879 -7.27427 0
M  V30 1983 H 182.012 3.23399 -7.09249 0
M  V30 1984 N 186.241 1.57166 -0.116904 0
M  V30 1985 C 187.518 1.86645 0.585049 0
M  V30 1986 C 187.898 1.0177 1.84949 0
M  V30 1987 O 187.246 0.0960379 2.28298 0
M  V30 1988 C 187.456 3.37736 0.879507 0
M  V30 1989 C 188.804 4.06289 1.23348 0
M  V30 1990 O 189.828 3.42743 0.969836 0
M  V30 1991 O 188.687 5.18455 1.7282 0
M  V30 1992 H 185.781 0.772593 0.295007 0
M  V30 1993 H 188.327 1.69025 -0.151249 0
M  V30 1994 H 187.099 3.91296 -0.0166136 0
M  V30 1995 H 186.722 3.6078 1.67103 0
M  V30 1996 N 187.719 -0.156864 1.56817 0
M  V30 1997 C 188.968 -0.869504 1.81996 0
M  V30 1998 C 189.281 -1.82777 0.696545 0
M  V30 1999 O 190.487 -2.58384 0.833658 0
M  V30 2000 C 188.943 -1.59679 3.22538 0
M  V30 2001 C 188.551 -0.681431 4.42787 0
M  V30 2002 C 190.295 -2.2968 3.56997 0
M  V30 2003 C 188.202 -1.40978 5.74351 0
M  V30 2004 H 187.132 -0.328438 0.678708 0
M  V30 2005 H 189.783 -0.1223 1.83092 0
M  V30 2006 H 188.165 -2.38927 3.158 0
M  V30 2007 H 189.339 0.0751166 4.60739 0
M  V30 2008 H 187.654 -0.0903431 4.16302 0
M  V30 2009 H 190.251 -2.84794 4.52544 0
M  V30 2010 H 190.594 -3.05707 2.82576 0
M  V30 2011 H 191.127 -1.57361 3.65352 0
M  V30 2012 H 187.866 -0.691561 6.51842 0
M  V30 2013 H 187.386 -2.13929 5.60352 0
M  V30 2014 H 189.065 -1.95337 6.16808 0
M  V30 2015 N 189.197 -1.51736 -0.425897 0
M  V30 2016 C 190.422 -1.69082 -1.20108 0
M  V30 2017 C 190.847 -0.392398 -1.83962 0
M  V30 2018 O 190.205 0.64858 -1.69302 0
M  V30 2019 C 190.253 -2.81604 -2.25237 0
M  V30 2020 O 189.357 -2.46004 -3.30992 0
M  V30 2021 H 188.698 -0.563408 -0.35138 0
M  V30 2022 H 191.228 -1.98358 -0.501512 0
M  V30 2023 H 191.238 -3.06025 -2.69838 0
M  V30 2024 H 189.913 -3.75817 -1.78142 0
M  V30 2025 H 188.49 -2.32195 -2.91787 0
M  V30 2026 N 190.675 0.682077 -1.42076 0
M  V30 2027 C 191.607 1.80755 -1.40926 0
M  V30 2028 C 192.62 1.59833 -0.309398 0
M  V30 2029 O 193.809 1.69087 -0.572014 0
M  V30 2030 C 190.909 3.17744 -1.17865 0
M  V30 2031 C 190.082 3.65578 -2.40149 0
M  V30 2032 C 189.141 4.81277 -2.12742 0
M  V30 2033 O 188.167 4.92197 -2.85887 0
M  V30 2034 N 189.369 5.69474 -1.12602 0
M  V30 2035 H 192.134 1.82229 -2.37935 0
M  V30 2036 H 189.695 0.864903 -1.36861 0
M  V30 2037 H 191.687 3.9279 -0.9746 0
M  V30 2038 H 190.257 3.11214 -0.294068 0
M  V30 2039 H 189.477 2.81291 -2.76169 0
M  V30 2040 H 190.765 3.94278 -3.21593 0
M  V30 2041 H 190.163 5.63297 -0.520899 0
M  V30 2042 H 188.72 6.44363 -0.981842 0
M  V30 2043 N 192.153 1.28127 0.917671 0
M  V30 2044 C 193.116 1.11744 2.00115 0
M  V30 2045 C 194.116 0.0583052 1.60694 0
M  V30 2046 O 195.306 0.303755 1.71531 0
M  V30 2047 C 192.438 0.704862 3.33533 0
M  V30 2048 H 193.631 2.07966 2.16079 0
M  V30 2049 H 191.184 1.11058 1.09981 0
M  V30 2050 H 191.919 -0.258299 3.2327 0
M  V30 2051 H 191.704 1.4699 3.63505 0
M  V30 2052 H 193.194 0.612768 4.1308 0
M  V30 2053 N 193.631 -1.12557 1.10312 0
M  V30 2054 C 194.861 -1.87592 0.865617 0
M  V30 2055 C 195.269 -1.79851 -0.587389 0
M  V30 2056 O 194.612 -1.16949 -1.41664 0
M  V30 2057 C 194.674 -3.37665 1.23381 0
M  V30 2058 C 194.338 -3.69181 2.69359 0
M  V30 2059 C 195.335 -3.67652 3.67597 0
M  V30 2060 C 193.02 -3.98555 3.05711 0
M  V30 2061 C 195.014 -3.95053 5.00212 0
M  V30 2062 C 192.701 -4.25616 4.38514 0
M  V30 2063 C 193.699 -4.23851 5.35574 0
M  V30 2064 O 193.387 -4.50242 6.65986 0
M  V30 2065 H 193.119 -0.600442 0.310557 0
M  V30 2066 H 195.673 -1.4335 1.47105 0
M  V30 2067 H 193.903 -3.82454 0.571467 0
M  V30 2068 H 195.592 -3.94041 0.973994 0
M  V30 2069 H 196.358 -3.45024 3.40857 0
M  V30 2070 H 192.237 -3.99071 2.30789 0
M  V30 2071 H 195.781 -3.93591 5.75962 0
M  V30 2072 H 191.678 -4.47718 4.64994 0
M  V30 2073 H 192.446 -4.67867 6.71597 0
M  V30 2074 N 195.109 -0.891671 -1.2995 0
M  V30 2075 C 196.339 -0.527893 -1.99742 0
M  V30 2076 C 196.747 0.88979 -1.66971 0
M  V30 2077 O 196.09 1.59766 -0.906667 0
M  V30 2078 C 196.152 -0.630804 -3.53922 0
M  V30 2079 C 195.816 -2.01401 -4.10228 0
M  V30 2080 C 196.813 -2.98422 -4.25724 0
M  V30 2081 C 194.498 -2.32121 -4.45449 0
M  V30 2082 C 196.492 -4.24293 -4.75662 0
M  V30 2083 C 194.179 -3.58237 -4.95086 0
M  V30 2084 C 195.177 -4.54137 -5.10146 0
M  V30 2085 O 194.865 -5.78014 -5.58708 0
M  V30 2086 H 194.597 -0.201953 -0.645129 0
M  V30 2087 H 197.151 -1.20076 -1.66646 0
M  V30 2088 H 195.381 0.0990616 -3.86573 0
M  V30 2089 H 197.07 -0.277338 -4.04951 0
M  V30 2090 H 197.836 -2.76001 -3.98809 0
M  V30 2091 H 193.715 -1.5824 -4.32991 0
M  V30 2092 H 197.259 -4.99153 -4.87332 0
M  V30 2093 H 193.156 -3.80491 -5.21437 0
M  V30 2094 H 193.924 -5.8049 -5.77039 0
M  V30 2095 N 196.587 1.43421 -0.653314 0
M  V30 2096 C 197.815 2.06163 -0.174491 0
M  V30 2097 C 198.23 1.48969 1.1599 0
M  V30 2098 O 197.587 0.621042 1.71608 0
M  V30 2099 C 197.638 3.61417 -0.0774865 0
M  V30 2100 O 197.359 4.16485 -1.35912 0
M  V30 2101 C 198.86 4.41235 0.427402 0
M  V30 2102 H 196.08 0.664946 -0.0899353 0
M  V30 2103 H 198.624 1.83924 -0.893988 0
M  V30 2104 H 196.779 3.82841 0.59257 0
M  V30 2105 H 197.193 5.10153 -1.21839 0
M  V30 2106 H 198.667 5.5021 0.44423 0
M  V30 2107 H 199.144 4.14268 1.45873 0
M  V30 2108 H 199.75 4.2478 -0.210167 0
M  V30 2109 N 198.065 0.39524 1.52563 0
M  V30 2110 C 199.311 -0.185318 2.01952 0
M  V30 2111 C 199.644 -1.45964 1.28095 0
M  V30 2112 O 198.919 -1.90689 0.38315 0
M  V30 2113 C 199.202 -0.447193 3.57312 0
M  V30 2114 C 199.055 0.842828 4.41833 0
M  V30 2115 C 200.374 -1.23529 4.22408 0
M  V30 2116 H 197.493 -0.0658788 0.73405 0
M  V30 2117 H 200.135 0.525975 1.82575 0
M  V30 2118 H 198.285 -1.05312 3.73954 0
M  V30 2119 H 199.957 1.4795 4.36931 0
M  V30 2120 H 198.2 1.45686 4.08605 0
M  V30 2121 H 198.871 0.614165 5.48573 0
M  V30 2122 H 201.347 -0.722445 4.0978 0
M  V30 2123 H 200.223 -1.38727 5.3108 0
M  V30 2124 H 200.484 -2.25213 3.80436 0
M  V30 2125 N 199.544 -1.57102 0.125237 0
M  V30 2126 C 200.774 -1.99472 -0.538015 0
M  V30 2127 C 201.182 -1.00395 -1.60366 0
M  V30 2128 O 200.525 0.0103875 -1.83697 0
M  V30 2129 C 200.587 -3.38262 -1.21734 0
M  V30 2130 C 200.251 -4.56021 -0.298897 0
M  V30 2131 C 201.248 -5.17817 0.464943 0
M  V30 2132 C 198.933 -5.01869 -0.208149 0
M  V30 2133 C 200.927 -6.23852 1.3072 0
M  V30 2134 C 198.614 -6.07763 0.637736 0
M  V30 2135 C 199.612 -6.68622 1.39403 0
M  V30 2136 O 199.3 -7.7247 2.22586 0
M  V30 2137 H 199.032 -0.659934 -0.146501 0
M  V30 2138 H 201.586 -2.04321 0.210267 0
M  V30 2139 H 199.816 -3.30185 -2.01282 0
M  V30 2140 H 201.505 -3.6488 -1.77813 0
M  V30 2141 H 202.271 -4.83308 0.404741 0
M  V30 2142 H 198.15 -4.54241 -0.786522 0
M  V30 2143 H 201.694 -6.71284 1.898 0
M  V30 2144 H 197.591 -6.41701 0.699309 0
M  V30 2145 H 198.359 -7.89595 2.15596 0
M  V30 2146 N 201.022 0.148545 -1.56898 0
M  V30 2147 C 201.969 1.18345 -1.98149 0
M  V30 2148 C 202.939 1.42772 -0.848848 0
M  V30 2149 O 204.124 1.55132 -1.11079 0
M  V30 2150 C 201.264 2.51231 -2.36594 0
M  V30 2151 C 200.377 2.33991 -3.63142 0
M  V30 2152 C 199.512 3.59902 -3.90697 0
M  V30 2153 C 198.551 3.37692 -5.1052 0
M  V30 2154 N 197.688 4.5573 -5.34092 0
M  V30 2155 H 202.528 0.82467 -2.86362 0
M  V30 2156 H 200.065 0.395756 -1.41676 0
M  V30 2157 H 202.023 3.28713 -2.56912 0
M  V30 2158 H 200.653 2.85059 -1.51463 0
M  V30 2159 H 199.705 1.47572 -3.50609 0
M  V30 2160 H 201.017 2.13539 -4.5078 0
M  V30 2161 H 200.171 4.45813 -4.11505 0
M  V30 2162 H 198.91 3.83357 -3.01477 0
M  V30 2163 H 197.915 2.5017 -4.89587 0
M  V30 2164 H 199.14 3.15637 -6.0129 0
M  V30 2165 H 197.086 4.79361 -4.47827 0
M  V30 2166 H 197.003 4.38274 -6.15996 0
M  V30 2167 H 198.271 5.42858 -5.59397 0
M  V30 2168 N 202.5 1.5196 0.417844 0
M  V30 2169 C 203.447 1.74678 1.50852 0
M  V30 2170 C 204.417 0.588947 1.55308 0
M  V30 2171 O 205.602 0.825544 1.72016 0
M  V30 2172 C 202.742 1.89544 2.88387 0
M  V30 2173 C 201.855 3.17166 2.93309 0
M  V30 2174 C 200.99 3.22513 4.22088 0
M  V30 2175 C 200.029 4.44372 4.20951 0
M  V30 2176 N 199.166 4.47161 5.41287 0
M  V30 2177 H 204.006 2.67768 1.30783 0
M  V30 2178 H 201.543 1.32689 0.63498 0
M  V30 2179 H 203.501 1.96146 3.68216 0
M  V30 2180 H 202.131 0.998424 3.06971 0
M  V30 2181 H 201.183 3.19778 2.06024 0
M  V30 2182 H 202.495 4.07021 2.88332 0
M  V30 2183 H 201.649 3.28139 5.10303 0
M  V30 2184 H 200.388 2.30581 4.29748 0
M  V30 2185 H 199.393 4.38902 3.31127 0
M  V30 2186 H 200.618 5.3759 4.14938 0
M  V30 2187 H 198.564 3.58108 5.49632 0
M  V30 2188 H 198.481 5.3085 5.3827 0
M  V30 2189 H 199.749 4.57005 6.3148 0
M  V30 2190 N 203.978 -0.674533 1.42435 0
M  V30 2191 C 205.203 -1.46784 1.46524 0
M  V30 2192 C 205.628 -1.87938 0.078066 0
M  V30 2193 O 204.986 -1.56014 -0.92354 0
M  V30 2194 C 205.034 -2.69307 2.39805 0
M  V30 2195 O 204.138 -3.67587 1.86959 0
M  V30 2196 H 203.479 -0.440959 0.496439 0
M  V30 2197 H 206.009 -0.827326 1.87127 0
M  V30 2198 H 206.019 -3.17374 2.56393 0
M  V30 2199 H 204.694 -2.38692 3.40586 0
M  V30 2200 H 203.271 -3.2662 1.79927 0
M  V30 2201 N 205.456 -1.28612 -0.910864 0
M  V30 2202 C 206.386 -1.15326 -2.03032 0
M  V30 2203 C 207.367 -0.0502924 -1.70026 0
M  V30 2204 O 208.552 -0.227797 -1.92859 0
M  V30 2205 C 205.682 -0.817343 -3.37545 0
M  V30 2206 C 204.636 -1.8754 -3.84724 0
M  V30 2207 C 203.962 -1.39305 -5.16235 0
M  V30 2208 C 205.262 -3.28244 -4.06267 0
M  V30 2209 H 206.956 -2.08975 -2.14406 0
M  V30 2210 H 204.502 -1.00612 -1.03021 0
M  V30 2211 H 206.455 -0.711151 -4.15356 0
M  V30 2212 H 205.179 0.154846 -3.26233 0
M  V30 2213 H 203.838 -1.97079 -3.09121 0
M  V30 2214 H 203.486 -0.409846 -5.01328 0
M  V30 2215 H 203.186 -2.10057 -5.48771 0
M  V30 2216 H 204.71 -1.30014 -5.96598 0
M  V30 2217 H 206.124 -3.21611 -4.74594 0
M  V30 2218 H 204.521 -3.96855 -4.5014 0
M  V30 2219 H 205.591 -3.72048 -3.10979 0
M  V30 2220 N 206.934 1.1197 -1.10907 0
M  V30 2221 C 208.182 1.83225 -0.852819 0
M  V30 2222 C 208.503 1.84769 0.623341 0
M  V30 2223 O 207.773 1.3143 1.45269 0
M  V30 2224 H 206.353 0.67849 -0.312507 0
M  V30 2225 H 209.015 1.3556 -1.40033 0
M  V30 2226 H 208.111 2.87265 -1.22005 0
M  V30 2227 N 208.412 0.89855 1.29475 0
M  V30 2228 C 209.689 0.443416 1.90508 0
M  V30 2229 C 210.069 -1.07685 1.81569 0
M  V30 2230 O 209.417 -1.9182 1.24166 0
M  V30 2231 C 209.627 0.956708 3.35631 0
M  V30 2232 C 210.975 0.999728 4.12663 0
M  V30 2233 O 211.999 0.904299 3.4453 0
M  V30 2234 O 210.858 1.14289 5.34416 0
M  V30 2235 H 207.952 0.138025 0.815401 0
M  V30 2236 H 210.498 0.98834 1.37949 0
M  V30 2237 H 209.27 2.00067 3.36287 0
M  V30 2238 H 208.893 0.391728 3.95666 0
M  V30 2239 N 209.89 -1.43072 0.660911 0
M  V30 2240 C 211.167 -1.95307 0.107017 0
M  V30 2241 C 211.547 -1.60192 -1.37484 0
M  V30 2242 O 210.895 -0.890949 -2.10415 0
M  V30 2243 C 211.105 -3.47124 0.361402 0
M  V30 2244 C 212.453 -4.23738 0.270455 0
M  V30 2245 O 213.477 -3.54981 0.294382 0
M  V30 2246 O 212.336 -5.46131 0.200737 0
M  V30 2247 H 209.43 -0.826984 -0.00517729 0
M  V30 2248 H 211.976 -1.52972 0.734681 0
M  V30 2249 H 210.748 -3.65837 1.38848 0
M  V30 2250 H 210.371 -3.96475 -0.298953 0
M  V30 2251 N 211.368 -0.403325 -1.52352 0
M  V30 2252 C 212.617 0.175668 -2.00934 0
M  V30 2253 C 212.93 1.46718 -1.29356 0
M  V30 2254 O 214.136 2.12708 -1.68724 0
M  V30 2255 C 212.592 0.363612 -3.58058 0
M  V30 2256 C 212.2 -0.915472 -4.38547 0
M  V30 2257 C 213.944 0.89821 -4.14888 0
M  V30 2258 C 211.851 -0.695035 -5.87302 0
M  V30 2259 H 210.781 0.0694234 -0.750797 0
M  V30 2260 H 213.432 -0.527879 -1.75743 0
M  V30 2261 H 211.814 1.12935 -3.79555 0
M  V30 2262 H 212.988 -1.68691 -4.28812 0
M  V30 2263 H 211.303 -1.37606 -3.93006 0
M  V30 2264 H 213.9 1.07907 -5.23699 0
M  V30 2265 H 214.243 1.87126 -3.71873 0
M  V30 2266 H 214.776 0.191681 -3.97338 0
M  V30 2267 H 211.515 -1.63948 -6.34666 0
M  V30 2268 H 211.035 0.0372116 -5.99788 0
M  V30 2269 H 212.714 -0.33497 -6.46132 0
M  V30 2270 N 212.846 1.57033 -0.133567 0
M  V30 2271 C 214.071 2.00475 0.531477 0
M  V30 2272 C 214.496 1.01291 1.58499 0
M  V30 2273 O 213.854 -0.0133279 1.81295 0
M  V30 2274 C 213.902 3.42729 1.12113 0
M  V30 2275 O 213.006 3.46498 2.23636 0
M  V30 2276 H 212.347 0.650876 0.131362 0
M  V30 2277 H 214.877 2.03344 -0.22634 0
M  V30 2278 H 214.887 3.81246 1.4531 0
M  V30 2279 H 213.562 4.14428 0.349557 0
M  V30 2280 H 212.139 3.19811 1.91769 0
M  V30 2281 N 214.325 -0.140222 1.56975 0
M  V30 2282 C 215.55 -0.870414 1.88251 0
M  V30 2283 C 215.975 -1.73637 0.723312 0
M  V30 2284 O 215.333 -1.78329 -0.32689 0
M  V30 2285 C 215.381 -1.69737 3.18154 0
M  V30 2286 O 214.485 -2.80229 3.02565 0
M  V30 2287 H 213.826 -0.242025 0.61832 0
M  V30 2288 H 216.356 -0.128999 2.04193 0
M  V30 2289 H 216.366 -2.09099 3.50345 0
M  V30 2290 H 215.041 -1.06152 4.02125 0
M  V30 2291 H 213.618 -2.44224 2.81796 0
M  V30 2292 N 215.803 -1.52179 -0.40978 0
M  V30 2293 C 216.713 -1.78364 -1.52392 0
M  V30 2294 C 217.729 -0.669183 -1.60617 0
M  V30 2295 O 218.905 -0.954518 -1.77344 0
M  V30 2296 C 215.97 -1.92822 -2.88133 0
M  V30 2297 C 215.031 -3.16725 -2.898 0
M  V30 2298 C 214.264 -3.30483 -4.19067 0
M  V30 2299 O 214.487 -2.49522 -5.12928 0
M  V30 2300 O 213.421 -4.2363 -4.27576 0
M  V30 2301 H 217.247 -2.72931 -1.33201 0
M  V30 2302 H 214.832 -1.37016 -0.59557 0
M  V30 2303 H 216.714 -2.04157 -3.68643 0
M  V30 2304 H 215.389 -1.01444 -3.07393 0
M  V30 2305 H 214.296 -3.10848 -2.08146 0
M  V30 2306 H 215.629 -4.07881 -2.75489 0
M  V30 2307 N 217.281 0.66697 -1.42791 0
M  V30 2308 C 218.509 1.45505 -1.47091 0
M  V30 2309 C 218.924 1.8861 -0.0845873 0
M  V30 2310 O 218.281 1.58632 0.90234 0
M  V30 2311 C 218.332 2.69906 -2.40485 0
M  V30 2312 O 218.053 2.28608 -3.73725 0
M  V30 2313 C 219.554 3.63396 -2.53886 0
M  V30 2314 H 216.774 0.447459 -0.500022 0
M  V30 2315 H 219.318 0.818866 -1.8739 0
M  V30 2316 H 217.473 3.29696 -2.03419 0
M  V30 2317 H 217.887 3.08997 -4.23817 0
M  V30 2318 H 219.361 4.47387 -3.2334 0
M  V30 2319 H 219.838 4.09824 -1.57927 0
M  V30 2320 H 220.444 3.09495 -2.91706 0
M  V30 2321 N 218.759 1.29093 0.90403 0
M  V30 2322 C 219.984 1.19809 1.69294 0
M  V30 2323 C 220.409 -0.238481 1.86582 0
M  V30 2324 O 219.767 -1.1723 1.383 0
M  V30 2325 C 219.815 1.91202 3.05736 0
M  V30 2326 O 218.919 1.22611 3.93752 0
M  V30 2327 H 218.26 0.415385 0.518027 0
M  V30 2328 H 220.79 1.70586 1.12967 0
M  V30 2329 H 220.8 1.99487 3.55906 0
M  V30 2330 H 219.475 2.95692 2.92471 0
M  V30 2331 H 218.052 1.22554 3.52186 0
M  V30 2332 N 220.237 -1.11381 1.11499 0
M  V30 2333 C 221.485 -1.8277 0.862524 0
M  V30 2334 C 221.806 -1.85097 -0.613534 0
M  V30 2335 O 221.076 -1.32198 -1.4457 0
M  V30 2336 H 219.656 -0.676823 0.316101 0
M  V30 2337 H 222.318 -1.34816 1.4075 0
M  V30 2338 H 221.414 -2.86614 1.23527 0
M  V30 2339 N 221.715 -0.905404 -1.28997 0
M  V30 2340 C 222.992 -0.453513 -1.9027 0
M  V30 2341 C 223.372 1.06721 -1.82137 0
M  V30 2342 O 222.72 1.91159 -1.25182 0
M  V30 2343 C 222.93 -0.974494 -3.35119 0
M  V30 2344 C 224.278 -1.0216 -4.12127 0
M  V30 2345 O 225.302 -0.922557 -3.44046 0
M  V30 2346 O 224.161 -1.17121 -5.33802 0
M  V30 2347 H 221.255 -0.142347 -0.814657 0
M  V30 2348 H 223.801 -0.995642 -1.37423 0
M  V30 2349 H 222.573 -2.01848 -3.35221 0
M  V30 2350 H 222.196 -0.412706 -3.95452 0
M  V30 2351 N 223.193 1.4272 -0.668489 0
M  V30 2352 C 224.44 2.01624 -0.18814 0
M  V30 2353 C 224.768 1.5282 1.20317 0
M  V30 2354 O 224.023 0.718323 1.8204 0
M  V30 2355 C 224.322 3.57021 -0.164499 0
M  V30 2356 C 223.988 4.25232 -1.49962 0
M  V30 2357 C 222.65 4.4358 -1.8652 0
M  V30 2358 C 225.002 4.63727 -2.37921 0
M  V30 2359 C 222.33 4.97694 -3.10674 0
M  V30 2360 C 224.682 5.19218 -3.6138 0
M  V30 2361 C 223.346 5.3578 -3.98115 0
M  V30 2362 H 222.616 0.737795 -0.0688454 0
M  V30 2363 H 225.263 1.70991 -0.862225 0
M  V30 2364 H 223.568 3.87285 0.593079 0
M  V30 2365 H 225.265 4.00372 0.224271 0
M  V30 2366 H 221.855 4.11306 -1.20522 0
M  V30 2367 H 226.039 4.4923 -2.10964 0
M  V30 2368 H 221.295 5.08702 -3.39164 0
M  V30 2369 H 225.469 5.4799 -4.29743 0
M  V30 2370 H 223.096 5.77475 -4.94395 0
M  V30 2371 N 224.671 0.411399 1.52136 0
M  V30 2372 C 226.087 0.0623865 1.59478 0
M  V30 2373 C 226.287 -1.42554 1.4241 0
M  V30 2374 O 225.343 -2.19263 1.2522 0
M  V30 2375 C 226.656 0.559331 2.95452 0
M  V30 2376 C 228.204 0.517503 3.08692 0
M  V30 2377 C 228.679 0.990994 4.4715 0
M  V30 2378 N 230.17 0.947908 4.53397 0
M  V30 2379 C 230.905 1.28544 5.58806 0
M  V30 2380 N 230.401 1.69454 6.71757 0
M  V30 2381 N 232.194 1.20526 5.49026 0
M  V30 2382 H 224.345 1.37982 1.61477 0
M  V30 2383 H 226.608 0.566977 0.759764 0
M  V30 2384 H 226.314 1.59938 3.1323 0
M  V30 2385 H 226.188 -0.0298014 3.77188 0
M  V30 2386 H 228.575 -0.513505 2.90598 0
M  V30 2387 H 228.656 1.14272 2.28857 0
M  V30 2388 H 228.3 2.02034 4.65988 0
M  V30 2389 H 228.23 0.34257 5.25485 0
M  V30 2390 H 230.721 0.647157 3.72317 0
M  V30 2391 H 231.034 1.93513 7.48179 0
M  V30 2392 H 229.379 1.73359 6.73032 0
M  V30 2393 H 232.57 0.884505 4.59667 0
M  V30 2394 H 232.743 1.47161 6.31069 0
M  V30 2395 N 226.149 -1.5696 0.141893 0
M  V30 2396 C 227.096 -2.16501 -0.799737 0
M  V30 2397 C 228.066 -1.09643 -1.24771 0
M  V30 2398 O 229.251 -1.3766 -1.32115 0
M  V30 2399 C 226.391 -2.78679 -2.03549 0
M  V30 2400 C 225.504 -3.99914 -1.6338 0
M  V30 2401 C 224.639 -4.50106 -2.82096 0
M  V30 2402 C 223.678 -5.63819 -2.38275 0
M  V30 2403 N 222.815 -6.08651 -3.49983 0
M  V30 2404 H 227.655 -2.96632 -0.285179 0
M  V30 2405 H 225.192 -1.46533 -0.129053 0
M  V30 2406 H 227.15 -3.1287 -2.75986 0
M  V30 2407 H 225.78 -2.012 -2.52425 0
M  V30 2408 H 224.832 -3.71735 -0.807279 0
M  V30 2409 H 226.144 -4.82311 -1.27192 0
M  V30 2410 H 225.298 -4.86325 -3.62729 0
M  V30 2411 H 224.037 -3.66706 -3.21525 0
M  V30 2412 H 223.042 -5.2718 -1.56081 0
M  V30 2413 H 224.267 -6.49 -1.99938 0
M  V30 2414 H 222.213 -5.28188 -3.89042 0
M  V30 2415 H 222.13 -6.85961 -3.17794 0
M  V30 2416 H 223.398 -6.49515 -4.30988 0
M  V30 2417 N 227.627 0.131896 -1.57047 0
M  V30 2418 C 228.59 1.14638 -1.98471 0
M  V30 2419 C 229.59 1.35029 -0.873148 0
M  V30 2420 O 230.78 1.31764 -1.13946 0
M  V30 2421 C 227.912 2.50358 -2.31373 0
M  V30 2422 H 229.105 0.79064 -2.8929 0
M  V30 2423 H 226.658 0.375761 -1.51716 0
M  V30 2424 H 227.393 2.90876 -1.43393 0
M  V30 2425 H 227.178 2.36915 -3.12432 0
M  V30 2426 H 228.668 3.23395 -2.64207 0
M  V30 2427 N 229.106 1.52395 0.401703 0
M  V30 2428 C 230.036 1.79231 1.49661 0
M  V30 2429 C 231.017 0.643654 1.57452 0
M  V30 2430 O 232.202 0.889989 1.72606 0
M  V30 2431 C 229.332 1.94971 2.87409 0
M  V30 2432 C 228.286 3.10604 2.94465 0
M  V30 2433 C 227.612 3.11577 4.34538 0
M  V30 2434 C 228.912 4.49921 2.6527 0
M  V30 2435 H 230.606 2.70917 1.27454 0
M  V30 2436 H 228.152 1.30362 0.6117 0
M  V30 2437 H 230.105 2.12328 3.63999 0
M  V30 2438 H 228.829 0.999632 3.10926 0
M  V30 2439 H 227.488 2.93009 2.20321 0
M  V30 2440 H 227.136 2.14277 4.55076 0
M  V30 2441 H 226.836 3.89247 4.40183 0
M  V30 2442 H 228.36 3.31073 5.13053 0
M  V30 2443 H 229.774 4.67683 3.31581 0
M  V30 2444 H 228.171 5.29564 2.82281 0
M  V30 2445 H 229.241 4.57507 1.60671 0
M  V30 2446 N 230.584 -0.659388 1.43143 0
M  V30 2447 C 231.514 -1.78422 1.50625 0
M  V30 2448 C 232.495 -1.66216 0.361443 0
M  V30 2449 O 233.68 -1.85404 0.577834 0
M  V30 2450 C 230.81 -3.16815 1.42287 0
M  V30 2451 C 229.764 -3.43777 2.54954 0
M  V30 2452 C 229.09 -4.81905 2.31671 0
M  V30 2453 C 230.39 -3.39134 3.97222 0
M  V30 2454 H 232.084 -1.72417 2.44771 0
M  V30 2455 H 229.63 -0.828084 1.17808 0
M  V30 2456 H 231.583 -3.95253 1.46127 0
M  V30 2457 H 230.307 -3.23534 0.446435 0
M  V30 2458 H 228.966 -2.67707 2.50457 0
M  V30 2459 H 228.614 -4.85294 1.32284 0
M  V30 2460 H 228.314 -5.00906 3.07192 0
M  V30 2461 H 229.838 -5.62609 2.37284 0
M  V30 2462 H 231.252 -4.07518 4.03239 0
M  V30 2463 H 229.649 -3.69671 4.72719 0
M  V30 2464 H 230.719 -2.37426 4.22797 0
M  V30 2465 N 232.062 -1.29571 -0.897171 0
M  V30 2466 C 233.29 -1.20583 -1.68129 0
M  V30 2467 C 233.705 0.233181 -1.87354 0
M  V30 2468 O 233.062 1.15579 -1.41236 0
M  V30 2469 C 233.113 -1.91772 -3.06441 0
M  V30 2470 O 232.834 -3.30053 -2.88091 0
M  V30 2471 C 234.335 -1.89291 -4.00854 0
M  V30 2472 H 231.555 -0.417826 -0.525036 0
M  V30 2473 H 234.099 -1.70987 -1.12177 0
M  V30 2474 H 232.254 -1.45196 -3.59161 0
M  V30 2475 H 232.668 -3.65942 -3.75748 0
M  V30 2476 H 234.142 -2.43662 -4.95311 0
M  V30 2477 H 234.619 -0.869014 -4.30517 0
M  V30 2478 H 235.225 -2.35622 -3.54066 0
M  V30 2479 N 233.54 1.10788 -1.12088 0
M  V30 2480 C 234.47 2.19083 -0.807755 0
M  V30 2481 C 235.451 1.6858 0.226859 0
M  V30 2482 O 236.636 1.93997 0.0888475 0
M  V30 2483 C 233.766 3.46344 -0.257576 0
M  V30 2484 C 232.72 4.101 -1.22483 0
M  V30 2485 C 232.046 5.32016 -0.535052 0
M  V30 2486 C 233.346 4.54236 -2.57811 0
M  V30 2487 H 235.04 2.45534 -1.71328 0
M  V30 2488 H 232.586 1.1801 -0.825205 0
M  V30 2489 H 234.539 4.21392 -0.0262679 0
M  V30 2490 H 233.263 3.19373 0.683278 0
M  V30 2491 H 231.922 3.37054 -1.44189 0
M  V30 2492 H 231.57 5.01319 0.410827 0
M  V30 2493 H 231.27 5.75625 -1.18024 0
M  V30 2494 H 232.794 6.09799 -0.312695 0
M  V30 2495 H 234.208 5.20575 -2.40155 0
M  V30 2496 H 232.605 5.08682 -3.18375 0
M  V30 2497 H 233.675 3.6734 -3.16528 0
M  V30 2498 N 235.018 0.912232 1.28515 0
M  V30 2499 C 235.981 0.404223 2.25607 0
M  V30 2500 C 236.981 -0.468602 1.53821 0
M  V30 2501 O 238.171 -0.271873 1.72065 0
M  V30 2502 C 235.303 -0.420653 3.38295 0
M  V30 2503 H 236.496 1.26188 2.7206 0
M  V30 2504 H 234.049 0.691495 1.40171 0
M  V30 2505 H 234.784 -1.29777 2.97201 0
M  V30 2506 H 234.569 0.204935 3.91564 0
M  V30 2507 H 236.059 -0.766971 4.10496 0
M  V30 2508 N 236.496 -1.42363 0.676048 0
M  V30 2509 C 237.773 -1.95183 0.127726 0
M  V30 2510 C 238.153 -1.61641 -1.35777 0
M  V30 2511 O 237.501 -0.913216 -2.09458 0
M  V30 2512 C 237.711 -3.46721 0.398199 0
M  V30 2513 C 239.059 -4.23427 0.315383 0
M  V30 2514 O 240.083 -3.54649 0.332016 0
M  V30 2515 O 238.942 -5.45888 0.25865 0
M  V30 2516 H 236.036 -0.826992 0.00359427 0
M  V30 2517 H 238.582 -1.52184 0.750864 0
M  V30 2518 H 237.354 -3.64344 1.4272 0
M  V30 2519 H 236.977 -3.96769 -0.256885 0
M  V30 2520 N 237.974 -0.419461 -1.51915 0
M  V30 2521 C 239.222 0.152637 -2.01523 0
M  V30 2522 C 239.543 1.44762 -1.30649 0
M  V30 2523 O 238.813 1.90997 -0.435535 0
M  V30 2524 H 237.393 0.0593966 -0.744635 0
M  V30 2525 H 240.055 -0.558073 -1.86739 0
M  V30 2526 H 239.151 0.341369 -3.10227 0
M  V30 2527 N 239.452 1.56882 -0.150215 0
M  V30 2528 C 240.868 1.58263 0.20617 0
M  V30 2529 C 241.068 1.16464 1.64434 0
M  V30 2530 O 240.124 0.866422 2.3717 0
M  V30 2531 C 241.437 3.00649 -0.0555025 0
M  V30 2532 C 242.985 3.12999 0.00795388 0
M  V30 2533 C 243.46 4.5744 -0.226429 0
M  V30 2534 N 244.951 4.62875 -0.173469 0
M  V30 2535 C 245.686 5.72454 -0.329288 0
M  V30 2536 N 245.182 6.90669 -0.543005 0
M  V30 2537 N 246.975 5.61467 -0.266666 0
M  V30 2538 H 239.126 1.82345 -1.08922 0
M  V30 2539 H 241.389 0.844149 -0.431413 0
M  V30 2540 H 241.095 3.3563 -1.05096 0
M  V30 2541 H 240.969 3.71337 0.66246 0
M  V30 2542 H 243.356 2.77857 0.993966 0
M  V30 2543 H 243.437 2.4479 -0.742388 0
M  V30 2544 H 243.081 4.93287 -1.20956 0
M  V30 2545 H 243.011 5.2378 0.544274 0
M  V30 2546 H 245.502 3.77898 -0.0130709 0
M  V30 2547 H 245.815 7.70045 -0.651922 0
M  V30 2548 H 244.16 6.92581 -0.579366 0
M  V30 2549 H 247.351 4.67992 -0.100441 0
M  V30 2550 H 247.524 6.46816 -0.391535 0
M  V30 2551 N 240.93 -0.123565 1.57115 0
M  V30 2552 C 242.346 -0.476961 1.52306 0
M  V30 2553 C 242.546 -1.82109 0.86248 0
M  V30 2554 O 241.602 -2.48586 0.442884 0
M  V30 2555 C 242.915 -0.465661 2.97073 0
M  V30 2556 C 244.463 -0.549534 3.08138 0
M  V30 2557 C 244.938 -0.568669 4.54456 0
M  V30 2558 N 246.429 -0.630237 4.58892 0
M  V30 2559 C 247.164 -0.666415 5.69514 0
M  V30 2560 N 246.66 -0.660514 6.89644 0
M  V30 2561 N 248.453 -0.709077 5.5761 0
M  V30 2562 H 240.604 0.757198 1.98445 0
M  V30 2563 H 242.867 0.278808 0.906074 0
M  V30 2564 H 242.573 0.454232 3.48754 0
M  V30 2565 H 242.447 -1.29513 3.54269 0
M  V30 2566 H 244.834 -1.45985 2.56461 0
M  V30 2567 H 244.915 0.307532 2.53945 0
M  V30 2568 H 244.559 0.337581 5.06777 0
M  V30 2569 H 244.489 -1.44256 5.06456 0
M  V30 2570 H 246.98 -0.641146 3.72421 0
M  V30 2571 H 247.293 -0.690616 7.69708 0
M  V30 2572 H 245.638 -0.628012 6.92157 0
M  V30 2573 H 248.829 -0.711019 4.62668 0
M  V30 2574 H 249.002 -0.733804 6.43832 0
M  V30 2575 N 242.408 -1.52605 -0.393616 0
M  V30 2576 C 243.685 -1.58001 -1.15304 0
M  V30 2577 C 244.065 -0.370385 -2.07825 0
M  V30 2578 O 243.413 0.641638 -2.19306 0
M  V30 2579 C 243.623 -2.91652 -1.91677 0
M  V30 2580 C 244.971 -3.4522 -2.47201 0
M  V30 2581 O 245.995 -2.93495 -2.01839 0
M  V30 2582 O 244.854 -4.35579 -3.3005 0
M  V30 2583 H 241.948 -0.637068 -0.527327 0
M  V30 2584 H 244.494 -1.64939 -0.399141 0
M  V30 2585 H 243.266 -3.71136 -1.23992 0
M  V30 2586 H 242.889 -2.88077 -2.74039 0
M  V30 2587 N 243.887 0.651787 -1.4349 0
M  V30 2588 C 244.797 1.79368 -1.5121 0
M  V30 2589 C 245.813 1.69361 -0.399093 0
M  V30 2590 O 246.989 1.90505 -0.653431 0
M  V30 2591 C 244.054 3.15653 -1.43401 0
M  V30 2592 C 243.115 3.37446 -2.65384 0
M  V30 2593 C 242.348 4.67229 -2.57939 0
M  V30 2594 O 242.571 5.46676 -1.62792 0
M  V30 2595 O 241.505 4.90773 -3.48462 0
M  V30 2596 H 245.331 1.7581 -2.47638 0
M  V30 2597 H 242.916 0.810447 -1.25507 0
M  V30 2598 H 244.798 3.96935 -1.41494 0
M  V30 2599 H 243.473 3.19798 -0.501085 0
M  V30 2600 H 242.38 2.55923 -2.72863 0
M  V30 2601 H 243.713 3.38148 -3.57654 0
M  V30 2602 N 245.365 1.30045 0.890287 0
M  V30 2603 C 246.59 1.21598 1.68014 0
M  V30 2604 C 247.015 -0.218678 1.86825 0
M  V30 2605 O 246.373 -1.15756 1.39536 0
M  V30 2606 C 246.421 1.94434 3.03691 0
M  V30 2607 O 245.525 1.2678 3.92429 0
M  V30 2608 H 244.866 0.420856 0.513592 0
M  V30 2609 H 247.396 1.71775 1.11151 0
M  V30 2610 H 247.406 2.03251 3.5377 0
M  V30 2611 H 246.081 2.98777 2.89318 0
M  V30 2612 H 244.658 1.26282 3.50866 0
M  V30 2613 N 246.843 -1.10192 1.12674 0
M  V30 2614 C 247.773 -2.18652 0.819362 0
M  V30 2615 C 248.754 -1.68698 -0.217915 0
M  V30 2616 O 249.939 -1.94041 -0.0785581 0
M  V30 2617 C 247.069 -3.46202 0.27594 0
M  V30 2618 C 246.023 -4.09444 1.24656 0
M  V30 2619 C 245.349 -5.31725 0.563258 0
M  V30 2620 C 246.649 -4.52863 2.60217 0
M  V30 2621 H 248.343 -2.44622 1.72628 0
M  V30 2622 H 245.889 -1.17571 0.831451 0
M  V30 2623 H 247.842 -4.21372 0.0486149 0
M  V30 2624 H 246.566 -3.1973 -0.666331 0
M  V30 2625 H 245.225 -3.36284 1.45974 0
M  V30 2626 H 244.873 -5.0153 -0.384235 0
M  V30 2627 H 244.573 -5.74991 1.21075 0
M  V30 2628 H 246.097 -6.09624 0.34503 0
M  V30 2629 H 247.511 -5.19294 2.42913 0
M  V30 2630 H 245.908 -5.06986 3.21068 0
M  V30 2631 H 246.978 -3.65656 3.18471 0
M  V30 2632 N 248.321 -0.919034 -1.28029 0
M  V30 2633 C 249.268 -0.410005 -2.27129 0
M  V30 2634 C 250.238 0.518405 -1.57803 0
M  V30 2635 O 251.423 0.439451 -1.8567 0
M  V30 2636 C 248.563 0.339054 -3.4343 0
M  V30 2637 C 247.676 -0.622468 -4.27492 0
M  V30 2638 C 246.811 0.145567 -5.31001 0
M  V30 2639 C 245.85 -0.809226 -6.06727 0
M  V30 2640 N 244.987 -0.0743728 -7.02061 0
M  V30 2641 H 249.827 -1.26011 -2.70047 0
M  V30 2642 H 247.364 -0.632663 -1.328 0
M  V30 2643 H 249.322 0.789586 -4.0966 0
M  V30 2644 H 247.952 1.15346 -3.01488 0
M  V30 2645 H 247.004 -1.19153 -3.61257 0
M  V30 2646 H 248.316 -1.35252 -4.80113 0
M  V30 2647 H 247.47 0.656417 -6.03139 0
M  V30 2648 H 246.209 0.908643 -4.79161 0
M  V30 2649 H 245.214 -1.3314 -5.33436 0
M  V30 2650 H 246.439 -1.57194 -6.60656 0
M  V30 2651 H 244.385 0.670616 -6.52563 0
M  V30 2652 H 244.302 -0.744157 -7.52329 0
M  V30 2653 H 245.57 0.416109 -7.78389 0
M  V30 2654 N 249.799 1.42003 -0.683588 0
M  V30 2655 C 251.045 2.01712 -0.209825 0
M  V30 2656 C 251.378 1.53968 1.18353 0
M  V30 2657 O 250.653 0.745661 1.79639 0
M  V30 2658 C 250.936 3.59202 -0.254197 0
M  V30 2659 C 250.789 4.17102 -1.68363 0
M  V30 2660 C 252.108 4.38344 0.392709 0
M  V30 2661 H 249.227 0.732891 -0.0777189 0
M  V30 2662 H 251.869 1.68909 -0.87004 0
M  V30 2663 H 250.019 3.87278 0.307954 0
M  V30 2664 H 251.691 3.99946 -2.29871 0
M  V30 2665 H 249.934 3.72597 -2.22157 0
M  V30 2666 H 250.605 5.26249 -1.6663 0
M  V30 2667 H 253.081 4.16011 -0.0859162 0
M  V30 2668 H 251.957 5.47901 0.331063 0
M  V30 2669 H 252.218 4.16887 1.47164 0
M  V30 2670 N 251.277 0.427512 1.51691 0
M  V30 2671 C 252.554 -0.201684 1.94557 0
M  V30 2672 C 252.934 -1.60981 1.36559 0
M  V30 2673 O 252.282 -2.21814 0.548702 0
M  V30 2674 C 252.492 -0.189394 3.48486 0
M  V30 2675 C 253.84 -0.39978 4.22714 0
M  V30 2676 O 254.864 -0.267945 3.55191 0
M  V30 2677 O 253.723 -0.661249 5.42485 0
M  V30 2678 H 250.817 -0.135261 0.815864 0
M  V30 2679 H 253.363 0.484782 1.62628 0
M  V30 2680 H 252.135 0.795431 3.8313 0
M  V30 2681 H 251.758 -0.919187 3.86829 0
M  V30 2682 N 252.755 -1.56801 0.158532 0
M  V30 2683 C 253.665 -2.20916 -0.789518 0
M  V30 2684 C 254.681 -1.1969 -1.26294 0
M  V30 2685 O 255.857 -1.52308 -1.31773 0
M  V30 2686 C 252.922 -2.82727 -2.00665 0
M  V30 2687 C 251.983 -3.99114 -1.58134 0
M  V30 2688 C 251.216 -4.57968 -2.74045 0
M  V30 2689 O 251.439 -4.15704 -3.90572 0
M  V30 2690 O 250.373 -5.48047 -2.48855 0
M  V30 2691 H 254.199 -3.02464 -0.273681 0
M  V30 2692 H 251.784 -1.4924 -0.0690548 0
M  V30 2693 H 253.666 -3.21968 -2.71872 0
M  V30 2694 H 252.341 -2.04184 -2.51179 0
M  V30 2695 H 251.248 -3.64567 -0.839155 0
M  V30 2696 H 252.581 -4.79212 -1.12325 0
M  V30 2697 N 254.233 0.115231 -1.57178 0
M  V30 2698 C 255.183 1.14707 -1.97044 0
M  V30 2699 C 256.167 1.36866 -0.845957 0
M  V30 2700 O 257.359 1.37895 -1.10968 0
M  V30 2701 C 254.488 2.47266 -2.38148 0
M  V30 2702 C 253.574 2.28566 -3.57237 0
M  V30 2703 N 253.965 1.79685 -4.72807 0
M  V30 2704 C 252.263 2.59208 -3.62943 0
M  V30 2705 C 252.964 1.74781 -5.54821 0
M  V30 2706 N 251.94 2.19264 -4.97417 0
M  V30 2707 H 255.742 0.761754 -2.83857 0
M  V30 2708 H 253.256 0.322928 -1.59157 0
M  V30 2709 H 255.253 3.219 -2.64927 0
M  V30 2710 H 253.913 2.86552 -1.52702 0
M  V30 2711 H 254.924 1.49177 -4.9595 0
M  V30 2712 H 251.601 3.02154 -2.88113 0
M  V30 2713 H 252.991 1.38212 -6.57531 0
M  V30 2714 N 255.711 1.52812 0.385517 0
M  V30 2715 C 256.641 1.80808 1.47752 0
M  V30 2716 C 257.622 0.660318 1.5676 0
M  V30 2717 O 258.807 0.908246 1.71652 0
M  V30 2718 C 255.937 1.98008 2.85324 0
M  V30 2719 C 254.891 3.13709 2.91154 0
M  V30 2720 C 254.217 3.16169 4.31209 0
M  V30 2721 C 255.517 4.52709 2.60483 0
M  V30 2722 H 257.211 2.72253 1.24573 0
M  V30 2723 H 254.757 1.31003 0.597839 0
M  V30 2724 H 256.71 2.16176 3.61726 0
M  V30 2725 H 255.434 1.03255 3.09848 0
M  V30 2726 H 254.093 2.95329 2.17201 0
M  V30 2727 H 253.741 2.19092 4.52778 0
M  V30 2728 H 253.441 3.93894 4.36029 0
M  V30 2729 H 254.965 3.36496 5.09512 0
M  V30 2730 H 256.379 4.71173 3.26602 0
M  V30 2731 H 254.776 5.32528 2.76648 0
M  V30 2732 H 255.846 4.59186 1.55809 0
M  V30 2733 N 257.189 -0.644168 1.43834 0
M  V30 2734 C 258.152 -1.73857 1.49353 0
M  V30 2735 C 259.152 -1.56315 0.377112 0
M  V30 2736 O 260.342 -1.62048 0.639226 0
M  V30 2737 C 257.474 -3.12819 1.35488 0
M  V30 2738 H 258.667 -1.70342 2.46827 0
M  V30 2739 H 256.22 -0.856652 1.30733 0
M  V30 2740 H 256.955 -3.2194 0.390569 0
M  V30 2741 H 256.74 -3.26958 2.16428 0
M  V30 2742 H 258.23 -3.92606 1.42302 0
M  V30 2743 N 258.668 -1.30515 -0.883378 0
M  V30 2744 C 259.615 -1.17032 -1.98927 0
M  V30 2745 C 260.585 -0.0594241 -1.65994 0
M  V30 2746 O 261.77 -0.229895 -1.8941 0
M  V30 2747 C 258.91 -0.869777 -3.33959 0
M  V30 2748 C 258.023 -2.06271 -3.79574 0
M  V30 2749 C 257.158 -1.70011 -5.03259 0
M  V30 2750 C 256.197 -2.8579 -5.41286 0
M  V30 2751 N 255.334 -2.49816 -6.56153 0
M  V30 2752 H 260.174 -2.1164 -2.09792 0
M  V30 2753 H 257.711 -1.05296 -1.02719 0
M  V30 2754 H 259.669 -0.676138 -4.11685 0
M  V30 2755 H 258.299 0.0394332 -3.22776 0
M  V30 2756 H 257.351 -2.36755 -2.97744 0
M  V30 2757 H 258.663 -2.92971 -4.03694 0
M  V30 2758 H 257.817 -1.47032 -5.88614 0
M  V30 2759 H 256.556 -0.804829 -4.81013 0
M  V30 2760 H 255.561 -3.09434 -4.54456 0
M  V30 2761 H 256.786 -3.76008 -5.65504 0
M  V30 2762 H 254.732 -1.62795 -6.35479 0
M  V30 2763 H 254.649 -3.30048 -6.8015 0
M  V30 2764 H 255.917 -2.30197 -7.44735 0
M  V30 2765 N 260.146 1.09593 -1.13257 0
M  V30 2766 C 261.078 2.16015 -0.766167 0
M  V30 2767 C 262.091 1.61423 0.211303 0
M  V30 2768 O 263.28 1.78498 -0.00863946 0
M  V30 2769 C 260.38 3.38706 -0.114662 0
M  V30 2770 C 259.553 4.22717 -1.12379 0
M  V30 2771 C 258.612 5.23835 -0.498301 0
M  V30 2772 O 257.638 5.573 -1.15781 0
M  V30 2773 N 258.84 5.75886 0.730417 0
M  V30 2774 H 261.605 2.48055 -1.68193 0
M  V30 2775 H 259.166 1.25292 -1.02535 0
M  V30 2776 H 261.158 4.03464 0.315991 0
M  V30 2777 H 259.728 3.04569 0.704011 0
M  V30 2778 H 258.948 3.54122 -1.73179 0
M  V30 2779 H 260.236 4.75673 -1.80589 0
M  V30 2780 H 259.634 5.50911 1.28504 0
M  V30 2781 H 258.191 6.42387 1.10376 0
M  V30 2782 N 261.624 0.925811 1.2754 0
M  V30 2783 C 262.901 0.483726 1.89524 0
M  V30 2784 C 263.281 -1.03809 1.83812 0
M  V30 2785 O 262.629 -1.89143 1.28207 0
M  V30 2786 C 262.839 1.02769 3.33526 0
M  V30 2787 C 264.187 1.08703 4.10449 0
M  V30 2788 O 265.211 0.977175 3.42534 0
M  V30 2789 O 264.07 1.25599 5.31871 0
M  V30 2790 H 261.164 0.15529 0.812289 0
M  V30 2791 H 263.71 1.01738 1.35822 0
M  V30 2792 H 262.482 2.07155 3.31967 0
M  V30 2793 H 262.105 0.475567 3.94746 0
M  V30 2794 N 263.102 -1.41638 0.69111 0
M  V30 2795 C 264.065 -2.29178 0.0319786 0
M  V30 2796 C 265.065 -1.44153 -0.712496 0
M  V30 2797 O 266.255 -1.65354 -0.548053 0
M  V30 2798 C 263.387 -3.26952 -0.965161 0
M  V30 2799 H 264.58 -2.88959 0.802681 0
M  V30 2800 H 262.133 -1.4955 0.454356 0
M  V30 2801 H 262.868 -2.72142 -1.76378 0
M  V30 2802 H 262.653 -3.89685 -0.434522 0
M  V30 2803 H 264.143 -3.92561 -1.42428 0
M  V30 2804 N 264.58 -0.43555 -1.51462 0
M  V30 2805 C 265.512 0.41257 -2.25456 0
M  V30 2806 C 266.525 0.987822 -1.29406 0
M  V30 2807 O 267.714 0.882266 -1.55172 0
M  V30 2808 C 264.814 1.58894 -2.99342 0
M  V30 2809 C 263.987 1.13288 -4.22474 0
M  V30 2810 C 263.046 2.17917 -4.78956 0
M  V30 2811 O 262.072 1.77425 -5.40841 0
M  V30 2812 N 263.274 3.50382 -4.62832 0
M  V30 2813 H 266.039 -0.221603 -2.9888 0
M  V30 2814 H 263.6 -0.264342 -1.59727 0
M  V30 2815 H 265.592 2.28508 -3.34015 0
M  V30 2816 H 264.162 2.12849 -2.28941 0
M  V30 2817 H 263.382 0.263881 -3.93316 0
M  V30 2818 H 264.67 0.805542 -5.02383 0
M  V30 2819 H 264.068 3.86013 -4.13534 0
M  V30 2820 H 262.625 4.15895 -5.01871 0
M  V30 2821 N 266.058 1.56714 -0.166846 0
M  V30 2822 C 267.307 1.95922 0.479318 0
M  V30 2823 C 267.62 1.05529 1.6469 0
M  V30 2824 O 268.826 1.34399 2.35901 0
M  V30 2825 C 267.282 3.48359 0.90412 0
M  V30 2826 C 266.89 4.47369 -0.237621 0
M  V30 2827 C 268.634 3.96394 1.51896 0
M  V30 2828 C 266.541 5.91039 0.206561 0
M  V30 2829 H 265.471 0.731495 0.18284 0
M  V30 2830 H 268.122 1.81728 -0.254363 0
M  V30 2831 H 266.504 3.57955 1.69365 0
M  V30 2832 H 267.678 4.49485 -1.01489 0
M  V30 2833 H 265.993 4.09366 -0.762128 0
M  V30 2834 H 268.59 5.01186 1.86325 0
M  V30 2835 H 268.933 3.39075 2.41524 0
M  V30 2836 H 269.466 3.89796 0.79395 0
M  V30 2837 H 266.205 6.52221 -0.654834 0
M  V30 2838 H 265.725 5.9224 0.949282 0
M  V30 2839 H 267.404 6.43707 0.651939 0
M  V30 2840 N 267.536 -0.106894 1.57237 0
M  V30 2841 C 268.466 -1.13148 2.04254 0
M  V30 2842 C 269.447 -1.42476 0.929224 0
M  V30 2843 O 270.632 -1.52709 1.19973 0
M  V30 2844 C 267.762 -2.4545 2.45706 0
M  V30 2845 C 266.716 -2.30558 3.60592 0
M  V30 2846 C 266.042 -3.67931 3.87983 0
M  V30 2847 C 267.342 -1.75597 4.91897 0
M  V30 2848 H 269.036 -0.740374 2.90101 0
M  V30 2849 H 266.582 -0.354696 1.39563 0
M  V30 2850 H 268.535 -3.17389 2.77205 0
M  V30 2851 H 267.259 -2.86475 1.56843 0
M  V30 2852 H 265.918 -1.61067 3.29322 0
M  V30 2853 H 265.566 -4.06462 2.96306 0
M  V30 2854 H 265.266 -3.58817 4.65322 0
M  V30 2855 H 266.79 -4.41356 4.21945 0
M  V30 2856 H 268.204 -2.37364 5.21854 0
M  V30 2857 H 266.601 -1.77272 5.73319 0
M  V30 2858 H 267.671 -0.714451 4.79608 0
M  V30 2859 N 269.014 -1.53014 -0.377408 0
M  V30 2860 C 270.244 -1.72265 -1.14054 0
M  V30 2861 C 270.652 -0.44601 -1.83868 0
M  V30 2862 O 269.995 0.590095 -1.73964 0
M  V30 2863 C 270.057 -2.82492 -2.22348 0
M  V30 2864 C 269.721 -4.23233 -1.72402 0
M  V30 2865 C 270.718 -5.05992 -1.19448 0
M  V30 2866 C 268.403 -4.696 -1.78273 0
M  V30 2867 C 270.397 -6.33203 -0.730268 0
M  V30 2868 C 268.084 -5.96792 -1.31464 0
M  V30 2869 C 269.082 -6.78424 -0.789297 0
M  V30 2870 O 268.77 -8.0323 -0.328077 0
M  V30 2871 H 268.502 -0.579873 -0.347453 0
M  V30 2872 H 271.056 -2.00502 -0.445882 0
M  V30 2873 H 269.286 -2.49702 -2.95272 0
M  V30 2874 H 270.975 -2.90034 -2.83963 0
M  V30 2875 H 271.741 -4.71349 -1.14259 0
M  V30 2876 H 267.62 -4.06142 -2.18106 0
M  V30 2877 H 271.164 -6.96868 -0.319542 0
M  V30 2878 H 267.061 -6.30937 -1.36342 0
M  V30 2879 H 267.829 -8.1727 -0.448493 0
M  V30 2880 N 270.492 0.636531 -1.44174 0
M  V30 2881 C 271.439 1.74875 -1.50624 0
M  V30 2882 C 272.409 1.62275 -0.35442 0
M  V30 2883 O 273.594 1.82276 -0.563908 0
M  V30 2884 C 270.734 3.13102 -1.45125 0
M  V30 2885 C 269.847 3.36717 -2.7064 0
M  V30 2886 C 268.982 4.64885 -2.57013 0
M  V30 2887 C 268.021 4.8166 -3.77717 0
M  V30 2888 N 267.158 6.01101 -3.62798 0
M  V30 2889 H 271.998 1.68697 -2.45653 0
M  V30 2890 H 269.535 0.823004 -1.21922 0
M  V30 2891 H 271.493 3.93034 -1.39929 0
M  V30 2892 H 270.123 3.18308 -0.536671 0
M  V30 2893 H 269.175 2.50763 -2.86046 0
M  V30 2894 H 270.487 3.44993 -3.60252 0
M  V30 2895 H 269.641 5.52969 -2.49619 0
M  V30 2896 H 268.38 4.58957 -1.64953 0
M  V30 2897 H 267.385 3.92007 -3.85501 0
M  V30 2898 H 268.61 4.89406 -4.70807 0
M  V30 2899 H 266.556 5.96273 -2.73486 0
M  V30 2900 H 266.473 6.10409 -4.46023 0
M  V30 2901 H 267.741 6.91761 -3.59286 0
M  V30 2902 N 271.97 1.30982 0.876444 0
M  V30 2903 C 272.933 1.18054 1.96459 0
M  V30 2904 C 273.933 0.109399 1.60427 0
M  V30 2905 O 275.123 0.358173 1.70478 0
M  V30 2906 C 272.255 0.810616 3.31122 0
M  V30 2907 H 273.448 2.14735 2.09354 0
M  V30 2908 H 271.001 1.145 1.06392 0
M  V30 2909 H 271.736 -0.155322 3.23928 0
M  V30 2910 H 271.521 1.58481 3.58645 0
M  V30 2911 H 273.011 0.743876 4.10921 0
M  V30 2912 N 273.449 -1.08991 1.13837 0
M  V30 2913 C 274.697 -1.80899 0.901098 0
M  V30 2914 C 275.018 -1.86356 -0.574134 0
M  V30 2915 O 274.288 -1.35235 -1.41733 0
M  V30 2916 H 272.868 -0.669966 0.330386 0
M  V30 2917 H 275.53 -1.318 1.43578 0
M  V30 2918 H 274.626 -2.83929 1.29578 0
M  V30 2919 N 274.927 -0.932562 -1.27047 0
M  V30 2920 C 275.837 -0.441219 -2.30414 0
M  V30 2921 C 276.853 0.480525 -1.67233 0
M  V30 2922 O 278.029 0.362151 -1.98117 0
M  V30 2923 C 275.094 0.293651 -3.45454 0
M  V30 2924 C 274.155 -0.663601 -4.2414 0
M  V30 2925 C 273.388 0.0362932 -5.33688 0
M  V30 2926 O 273.611 1.2548 -5.56427 0
M  V30 2927 O 272.545 -0.638015 -5.98509 0
M  V30 2928 H 276.371 -1.29962 -2.74488 0
M  V30 2929 H 273.956 -0.6981 -1.32087 0
M  V30 2930 H 275.838 0.707951 -4.15411 0
M  V30 2931 H 274.513 1.12758 -3.03426 0
M  V30 2932 H 273.42 -1.12768 -3.56699 0
M  V30 2933 H 274.753 -1.46489 -4.69896 0
M  V30 2934 N 276.405 1.4127 -0.698611 0
M  V30 2935 C 277.353 2.32588 -0.023855 0
M  V30 2936 C 278.347 1.51128 0.765292 0
M  V30 2937 O 279.553 1.67043 0.670571 0
M  V30 2938 H 275.928 0.751918 0.0110871 0
M  V30 2939 H 277.899 2.87167 -0.811031 0
M  V30 2940 C 276.648 3.35947 0.896369 0
M  V30 2941 H 275.971 3.98684 0.298548 0
M  V30 2942 H 277.411 4.02376 1.33676 0
M  V30 2943 C 275.87 2.70076 2.01396 0
M  V30 2944 O 276.4 2.55093 3.10307 0
M  V30 2945 N 274.606 2.28724 1.79259 0
M  V30 2946 H 274.153 2.4111 0.906841 0
M  V30 2947 H 274.111 1.84986 2.54219 0
M  V30 2948 N 277.883 0.443576 1.51229 0
M  V30 2949 C 279.299 0.0962001 1.5931 0
M  V30 2950 C 279.499 -1.39501 1.45402 0
M  V30 2951 O 278.555 -2.16557 1.29843 0
M  V30 2952 C 279.868 0.621875 2.94199 0
M  V30 2953 C 281.416 0.582865 3.07525 0
M  V30 2954 C 281.891 1.08562 4.44948 0
M  V30 2955 N 283.382 1.04387 4.51284 0
M  V30 2956 C 284.117 1.40368 5.55954 0
M  V30 2957 N 283.613 1.83664 6.68011 0
M  V30 2958 N 285.406 1.32145 5.46346 0
M  V30 2959 H 277.557 1.41376 1.58514 0
M  V30 2960 H 279.82 0.582965 0.747567 0
M  V30 2961 H 279.526 1.66546 3.09767 0
M  V30 2962 H 279.4 0.0502125 3.77167 0
M  V30 2963 H 281.787 -0.451749 2.91622 0
M  V30 2964 H 281.868 1.191 2.26382 0
M  V30 2965 H 281.512 2.11873 4.61598 0
M  V30 2966 H 281.442 0.453956 5.2464 0
M  V30 2967 H 283.933 0.725986 3.70861 0
M  V30 2968 H 284.246 2.0934 7.43906 0
M  V30 2969 H 282.591 1.87596 6.69203 0
M  V30 2970 H 285.782 0.981808 4.57688 0
M  V30 2971 H 285.955 1.60514 6.27805 0
M  V30 2972 N 279.361 -1.56624 0.175154 0
M  V30 2973 C 280.607 -1.98061 -0.462976 0
M  V30 2974 C 280.962 -1.05949 -1.60601 0
M  V30 2975 O 280.255 -0.0999027 -1.91339 0
M  V30 2976 C 280.449 -3.43419 -0.989864 0
M  V30 2977 C 280.278 -4.49587 0.100583 0
M  V30 2978 C 279.048 -5.02281 0.551539 0
M  V30 2979 C 281.246 -5.06322 0.902369 0
M  V30 2980 N 279.228 -5.92088 1.62189 0
M  V30 2981 C 280.599 -5.92607 1.82256 0
M  V30 2982 C 282.654 -4.88811 0.947019 0
M  V30 2983 C 281.357 -6.63254 2.78364 0
M  V30 2984 C 283.383 -5.60182 1.89606 0
M  V30 2985 C 282.745 -6.46197 2.80372 0
M  V30 2986 H 278.844 -0.769833 -0.137409 0
M  V30 2987 H 281.428 -1.9273 0.276256 0
M  V30 2988 H 279.599 -3.49288 -1.6986 0
M  V30 2989 H 281.331 -3.7186 -1.59694 0
M  V30 2990 H 278.086 -4.73367 0.148537 0
M  V30 2991 H 278.51 -6.41696 2.15767 0
M  V30 2992 H 283.152 -4.22004 0.259304 0
M  V30 2993 H 280.87 -7.29271 3.48122 0
M  V30 2994 H 284.456 -5.48617 1.93676 0
M  V30 2995 H 283.336 -7.00453 3.52612 0
M  V30 2996 N 280.839 0.0985539 -1.57292 0
M  V30 2997 C 282.087 0.801092 -1.85545 0
M  V30 2998 C 282.408 1.79438 -0.763353 0
M  V30 2999 O 281.678 1.94763 0.21073 0
M  V30 3000 H 280.258 0.29884 -0.684619 0
M  V30 3001 H 282.92 0.0810064 -1.94732 0
M  V30 3002 H 282.016 1.3338 -2.82163 0
M  V30 3003 N 282.317 1.53212 0.369288 0
M  V30 3004 C 283.545 1.73119 1.13303 0
M  V30 3005 C 283.96 0.458455 1.83149 0
M  V30 3006 O 283.317 -0.568403 1.73423 0
M  V30 3007 C 283.368 2.89413 2.16616 0
M  V30 3008 O 283.089 4.11761 1.49614 0
M  V30 3009 C 284.59 3.21161 3.05566 0
M  V30 3010 H 281.81 0.579107 0.338934 0
M  V30 3011 H 284.354 1.99942 0.429338 0
M  V30 3012 H 282.509 2.64994 2.82589 0
M  V30 3013 H 282.923 4.76858 2.18419 0
M  V30 3014 H 284.397 4.05949 3.74045 0
M  V30 3015 H 284.874 2.36369 3.70171 0
M  V30 3016 H 285.48 3.47492 2.45213 0
M  V30 3017 N 283.795 -0.628877 1.44509 0
M  V30 3018 C 285.072 -1.38733 1.37886 0
M  V30 3019 C 285.452 -2.11065 0.0387008 0
M  V30 3020 O 284.8 -2.06476 -0.97878 0
M  V30 3021 C 285.01 -2.35188 2.57852 0
M  V30 3022 C 286.358 -2.9845 3.02014 0
M  V30 3023 O 287.382 -2.45513 2.58073 0
M  V30 3024 O 286.241 -3.94487 3.78209 0
M  V30 3025 H 283.335 -0.621015 0.54614 0
M  V30 3026 H 285.881 -0.653744 1.56602 0
M  V30 3027 H 284.653 -1.80855 3.46998 0
M  V30 3028 H 284.276 -3.1596 2.4136 0
M  V30 3029 N 285.273 -1.31445 -0.869486 0
M  V30 3030 C 286.183 -1.21097 -2.0093 0
M  V30 3031 C 287.199 -0.127584 -1.73532 0
M  V30 3032 O 288.375 -0.345477 -1.98415 0
M  V30 3033 C 285.44 -0.919378 -3.34288 0
M  V30 3034 C 284.501 -2.08971 -3.75006 0
M  V30 3035 C 283.734 -1.81194 -5.02001 0
M  V30 3036 O 283.957 -0.747296 -5.65484 0
M  V30 3037 O 282.891 -2.66883 -5.39497 0
M  V30 3038 H 286.717 -2.16883 -2.12592 0
M  V30 3039 H 284.302 -1.11189 -0.997868 0
M  V30 3040 H 286.184 -0.772625 -4.14257 0
M  V30 3041 H 284.859 0.00844772 -3.23699 0
M  V30 3042 H 283.766 -2.29187 -2.95676 0
M  V30 3043 H 285.099 -2.9998 -3.90221 0
M  V30 3044 N 286.751 1.08385 -1.14413 0
M  V30 3045 C 288.028 1.77429 -0.823297 0
M  V30 3046 C 288.408 1.9974 0.683163 0
M  V30 3047 O 287.756 1.60739 1.62405 0
M  V30 3048 C 287.966 3.09004 -1.62227 0
M  V30 3049 C 289.314 3.83532 -1.82177 0
M  V30 3050 O 290.338 3.18786 -1.58915 0
M  V30 3051 O 289.197 4.99792 -2.21067 0
M  V30 3052 H 286.291 0.769999 -0.301712 0
M  V30 3053 H 288.837 1.14846 -1.24934 0
M  V30 3054 H 287.609 2.88316 -2.64555 0
M  V30 3055 H 287.232 3.79316 -1.19187 0
M  V30 3056 N 288.23 0.939286 1.26551 0
M  V30 3057 C 289.177 0.446088 2.26448 0
M  V30 3058 C 290.147 -0.493234 1.58608 0
M  V30 3059 O 291.332 -0.409857 1.86346 0
M  V30 3060 C 288.472 -0.284375 3.43926 0
M  V30 3061 C 287.585 0.690399 4.26448 0
M  V30 3062 C 286.72 -0.0610712 5.31165 0
M  V30 3063 C 285.759 0.905649 6.05363 0
M  V30 3064 N 284.896 0.186055 7.01853 0
M  V30 3065 H 289.736 1.30291 2.68008 0
M  V30 3066 H 287.273 0.65371 1.31776 0
M  V30 3067 H 289.231 -0.724313 4.10864 0
M  V30 3068 H 287.861 -1.10535 3.03285 0
M  V30 3069 H 286.913 1.24885 3.59316 0
M  V30 3070 H 288.225 1.42873 4.779 0
M  V30 3071 H 287.379 -0.56038 6.04106 0
M  V30 3072 H 286.118 -0.832297 4.80546 0
M  V30 3073 H 285.123 1.4161 5.3125 0
M  V30 3074 H 286.348 1.67685 6.58072 0
M  V30 3075 H 284.294 -0.566714 6.53548 0
M  V30 3076 H 284.211 0.863752 7.51049 0
M  V30 3077 H 285.479 -0.292221 7.78952 0
M  V30 3078 N 289.708 -1.40897 0.706093 0
M  V30 3079 C 290.955 -2.01054 0.241531 0
M  V30 3080 C 291.283 -1.55956 -1.16223 0
M  V30 3081 O 290.538 -0.766336 -1.80072 0
M  V30 3082 C 290.837 -3.5646 0.259099 0
M  V30 3083 C 290.503 -4.21106 1.61184 0
M  V30 3084 C 289.165 -4.38479 1.98216 0
M  V30 3085 C 291.517 -4.57256 2.50132 0
M  V30 3086 C 288.845 -4.89282 3.2376 0
M  V30 3087 C 291.197 -5.09454 3.7502 0
M  V30 3088 C 289.861 -5.25037 4.12181 0
M  V30 3089 H 289.131 -0.73571 0.0883825 0
M  V30 3090 H 291.778 -1.68645 0.907257 0
M  V30 3091 H 290.083 -3.88721 -0.490189 0
M  V30 3092 H 291.78 -4.00826 -0.11804 0
M  V30 3093 H 288.37 -4.07966 1.31384 0
M  V30 3094 H 292.554 -4.43479 2.228 0
M  V30 3095 H 287.81 -4.99531 3.52532 0
M  V30 3096 H 291.984 -5.36404 4.44121 0
M  V30 3097 H 289.611 -5.64164 5.09532 0
M  V30 3098 N 291.186 -0.45159 -1.50991 0
M  V30 3099 C 292.414 0.108334 -2.06616 0
M  V30 3100 C 292.829 1.35224 -1.31757 0
M  V30 3101 O 292.186 1.78475 -0.381174 0
M  V30 3102 C 292.237 0.41619 -3.59096 0
M  V30 3103 O 291.958 -0.778361 -4.3113 0
M  V30 3104 C 293.459 1.02523 -4.31282 0
M  V30 3105 H 290.679 0.00159995 -0.670998 0
M  V30 3106 H 293.223 -0.634771 -1.94399 0
M  V30 3107 H 291.378 1.10921 -3.71181 0
M  V30 3108 H 291.792 -0.511181 -5.22003 0
M  V30 3109 H 293.266 1.19053 -5.39009 0
M  V30 3110 H 293.743 2.01013 -3.905 0
M  V30 3111 H 294.349 0.371173 -4.23677 0
M  V30 3112 N 292.664 1.56529 -0.183458 0
M  V30 3113 C 293.574 2.22144 0.754272 0
M  V30 3114 C 294.59 1.21684 1.24374 0
M  V30 3115 O 295.766 1.54385 1.29333 0
M  V30 3116 C 292.831 2.85884 1.96141 0
M  V30 3117 C 291.892 4.01579 1.51765 0
M  V30 3118 C 291.125 4.6227 2.66725 0
M  V30 3119 O 291.348 4.21865 3.83909 0
M  V30 3120 O 290.282 5.51936 2.40104 0
M  V30 3121 H 294.108 3.02861 0.225527 0
M  V30 3122 H 291.693 1.49331 0.0453032 0
M  V30 3123 H 293.575 3.26253 2.66715 0
M  V30 3124 H 292.25 2.08154 2.47899 0
M  V30 3125 H 291.157 3.65856 0.781049 0
M  V30 3126 H 292.49 4.80938 1.04686 0
M  V30 3127 N 294.142 -0.090211 1.57342 0
M  V30 3128 C 295.391 -0.791531 1.8552 0
M  V30 3129 C 295.704 -1.79659 0.773441 0
M  V30 3130 O 296.91 -2.54616 0.942497 0
M  V30 3131 C 295.366 -1.45856 3.2902 0
M  V30 3132 C 294.974 -0.493017 4.45279 0
M  V30 3133 C 296.718 -2.14332 3.66418 0
M  V30 3134 C 294.625 -1.16491 5.79814 0
M  V30 3135 H 293.555 -0.299356 0.692027 0
M  V30 3136 H 296.206 -0.0445343 1.83446 0
M  V30 3137 H 294.588 -2.25318 3.2565 0
M  V30 3138 H 295.762 0.270464 4.60006 0
M  V30 3139 H 294.077 0.0863061 4.16311 0
M  V30 3140 H 296.674 -2.65344 4.64216 0
M  V30 3141 H 297.017 -2.93447 2.95287 0
M  V30 3142 H 297.55 -1.41724 3.71698 0
M  V30 3143 H 294.289 -0.41447 6.54188 0
M  V30 3144 H 293.809 -1.8997 5.68921 0
M  V30 3145 H 295.488 -1.69001 6.24538 0
M  V30 3146 N 295.62 -1.53406 -0.361157 0
M  V30 3147 C 296.55 -1.83136 -1.44857 0
M  V30 3148 C 297.531 -0.685174 -1.5569 0
M  V30 3149 O 298.716 -0.93544 -1.70186 0
M  V30 3150 C 295.846 -2.02522 -2.82138 0
M  V30 3151 C 294.8 -3.18302 -2.86126 0
M  V30 3152 C 294.126 -3.22989 -4.26125 0
M  V30 3153 C 295.426 -4.56796 -2.53248 0
M  V30 3154 H 297.12 -2.74201 -1.20226 0
M  V30 3155 H 294.666 -1.31938 -0.576922 0
M  V30 3156 H 296.619 -2.21904 -3.58241 0
M  V30 3157 H 295.343 -1.08172 -3.08166 0
M  V30 3158 H 294.002 -2.98747 -2.12475 0
M  V30 3159 H 293.65 -2.26267 -4.49235 0
M  V30 3160 H 293.35 -4.00781 -4.29708 0
M  V30 3161 H 294.874 -3.44559 -5.04094 0
M  V30 3162 H 296.288 -4.7631 -3.19064 0
M  V30 3163 H 294.685 -5.36862 -2.68141 0
M  V30 3164 H 295.755 -4.61606 -1.48484 0
M  V30 3165 N 297.098 0.621204 -1.44841 0
M  V30 3166 C 298.338 1.39201 -1.49674 0
M  V30 3167 C 298.702 1.91561 -0.129764 0
M  V30 3168 O 299.903 2.68748 -0.0527814 0
M  V30 3169 C 298.174 2.519 -2.53537 0
M  V30 3170 S 299.733 3.39916 -2.77494 0
M  V30 3171 H 296.551 0.474758 -0.529269 0
M  V30 3172 H 299.153 0.718171 -1.81831 0
M  V30 3173 H 297.857 2.11761 -3.51547 0
M  V30 3174 H 297.388 3.241 -2.22986 0
M  V30 3175 H 299.403 4.49646 -2.0984 0
M  V30 3176 N 298.576 1.31904 0.862503 0
M  V30 3177 C 299.506 1.22782 1.98612 0
M  V30 3178 C 300.487 0.113362 1.69722 0
M  V30 3179 O 301.672 0.299218 1.91881 0
M  V30 3180 C 298.802 0.942058 3.34279 0
M  V30 3181 C 297.756 2.0169 3.77499 0
M  V30 3182 C 297.082 1.58369 5.10709 0
M  V30 3183 C 298.382 3.43096 3.93805 0
M  V30 3184 H 300.076 2.16788 2.06502 0
M  V30 3185 H 297.622 1.04366 0.992154 0
M  V30 3186 H 299.575 0.864818 4.1243 0
M  V30 3187 H 298.299 -0.0336603 3.26583 0
M  V30 3188 H 296.958 2.08416 3.01593 0
M  V30 3189 H 296.606 0.595628 4.99461 0
M  V30 3190 H 296.306 2.30279 5.40597 0
M  V30 3191 H 297.83 1.52067 5.91361 0
M  V30 3192 H 299.244 3.39003 4.62331 0
M  V30 3193 H 297.641 4.13288 4.35101 0
M  V30 3194 H 298.711 3.83334 2.96957 0
M  V30 3195 N 300.054 -1.07777 1.14986 0
M  V30 3196 C 301.47 -1.32373 0.891596 0
M  V30 3197 C 301.67 -1.9609 -0.463788 0
M  V30 3198 O 300.726 -2.21801 -1.20667 0
M  V30 3199 C 302.039 -2.21905 2.02925 0
M  V30 3200 C 303.587 -2.35367 2.06329 0
M  V30 3201 C 304.062 -3.28245 3.19405 0
M  V30 3202 N 305.553 -3.35824 3.19024 0
M  V30 3203 C 306.288 -4.07739 4.03158 0
M  V30 3204 N 305.784 -4.82306 4.97346 0
M  V30 3205 N 307.577 -4.03635 3.91197 0
M  V30 3206 H 299.728 -0.648039 2.02273 0
M  V30 3207 H 301.991 -0.348149 0.881757 0
M  V30 3208 H 301.697 -1.82342 3.0074 0
M  V30 3209 H 301.571 -3.22407 1.95789 0
M  V30 3210 H 303.958 -2.74186 1.09116 0
M  V30 3211 H 304.039 -1.34585 2.17533 0
M  V30 3212 H 303.683 -2.90146 4.16867 0
M  V30 3213 H 303.613 -4.28971 3.05437 0
M  V30 3214 H 306.104 -2.8267 2.50811 0
M  V30 3215 H 306.417 -5.34661 5.57994 0
M  V30 3216 H 304.762 -4.81337 5.01338 0
M  V30 3217 H 307.953 -3.44491 3.16928 0
M  V30 3218 H 308.126 -4.59417 4.5699 0
M  V30 3219 N 301.532 -0.945985 -1.26051 0
M  V30 3220 C 302.757 -0.612525 -1.98149 0
M  V30 3221 C 303.182 0.806623 -1.69927 0
M  V30 3222 O 302.54 1.54411 -0.950108 0
M  V30 3223 C 302.588 -0.866981 -3.50023 0
M  V30 3224 O 301.692 0.0585333 -4.12358 0
M  V30 3225 H 301.033 -0.23379 -0.621481 0
M  V30 3226 H 303.563 -1.27023 -1.60395 0
M  V30 3227 H 303.573 -0.789792 -4.00283 0
M  V30 3228 H 302.248 -1.90135 -3.69894 0
M  V30 3229 H 300.825 -0.0701241 -3.72834 0
M  V30 3230 N 303.011 1.40521 -0.713556 0
M  V30 3231 C 304.258 2.00923 -0.25219 0
M  V30 3232 C 304.586 1.56571 1.15395 0
M  V30 3233 O 303.841 0.775874 1.79663 0
M  V30 3234 C 304.14 3.56317 -0.278 0
M  V30 3235 C 303.806 4.20246 -1.63415 0
M  V30 3236 C 302.468 4.37422 -2.00538 0
M  V30 3237 C 304.82 4.55923 -2.52554 0
M  V30 3238 C 302.148 4.87558 -3.2635 0
M  V30 3239 C 304.5 5.07458 -3.77716 0
M  V30 3240 C 303.164 5.22843 -4.14959 0
M  V30 3241 H 302.434 0.735231 -0.0922829 0
M  V30 3242 H 305.081 1.68161 -0.916188 0
M  V30 3243 H 303.386 3.88976 0.469567 0
M  V30 3244 H 305.083 4.00883 0.0967819 0
M  V30 3245 H 301.673 4.07263 -1.33546 0
M  V30 3246 H 305.857 4.42291 -2.25149 0
M  V30 3247 H 301.113 4.97654 -3.55176 0
M  V30 3248 H 305.287 5.34041 -4.4696 0
M  V30 3249 H 302.914 5.61454 -5.12516 0
M  V30 3250 N 304.489 0.459591 1.5075 0
M  V30 3251 C 305.9 0.00171547 1.867 0
M  V30 3252 C 306.251 -1.39934 1.37525 0
M  V30 3253 O 305.376 -2.03523 0.735349 0
M  V30 3254 C 305.971 -0.00366298 3.388 0
M  V30 3255 C 304.53 -0.406026 3.74204 0
M  V30 3256 C 303.677 0.38673 2.7459 0
M  V30 3257 H 306.628 0.674413 1.43657 0
M  V30 3258 H 306.649 -0.808371 3.71814 0
M  V30 3259 H 306.161 1.01617 3.74561 0
M  V30 3260 H 304.262 -1.43063 3.4404 0
M  V30 3261 H 304.375 -0.115362 4.78961 0
M  V30 3262 H 302.739 -0.158019 2.54209 0
M  V30 3263 H 303.522 1.40585 3.13194 0
M  V30 3264 N 305.967 -1.56429 0.191757 0
M  V30 3265 C 306.899 -2.16154 -0.762245 0
M  V30 3266 C 307.912 -1.12247 -1.17917 0
M  V30 3267 O 309.101 -1.39353 -1.11548 0
M  V30 3268 C 306.201 -2.70606 -2.04024 0
M  V30 3269 C 305.374 -3.99381 -1.78364 0
M  V30 3270 C 304.433 -4.38692 -2.90578 0
M  V30 3271 O 303.459 -5.06179 -2.6033 0
M  V30 3272 N 304.661 -4.01922 -4.18854 0
M  V30 3273 H 307.426 -2.98643 -0.251526 0
M  V30 3274 H 304.987 -1.61897 0.00967373 0
M  V30 3275 H 306.979 -2.93891 -2.78227 0
M  V30 3276 H 305.549 -1.9259 -2.46227 0
M  V30 3277 H 304.769 -3.84262 -0.879581 0
M  V30 3278 H 306.057 -4.83445 -1.58614 0
M  V30 3279 H 305.455 -3.47631 -4.46283 0
M  V30 3280 H 304.012 -4.30165 -4.89695 0
M  V30 3281 N 307.445 0.0818655 -1.57387 0
M  V30 3282 C 308.375 1.09885 -2.06028 0
M  V30 3283 C 309.356 1.4098 -0.951774 0
M  V30 3284 O 310.541 1.50781 -1.22387 0
M  V30 3285 C 307.671 2.4151 -2.4958 0
M  V30 3286 C 306.625 2.24792 -3.64215 0
M  V30 3287 C 305.951 3.61712 -3.93787 0
M  V30 3288 C 307.251 1.67749 -4.94629 0
M  V30 3289 H 308.945 0.694128 -2.91243 0
M  V30 3290 H 306.491 0.332448 -1.4011 0
M  V30 3291 H 308.444 3.12939 -2.82219 0
M  V30 3292 H 307.168 2.83943 -1.61381 0
M  V30 3293 H 305.827 1.55807 -3.31843 0
M  V30 3294 H 305.475 4.01697 -3.02735 0
M  V30 3295 H 305.175 3.51368 -4.70971 0
M  V30 3296 H 306.699 4.34587 -4.28913 0
M  V30 3297 H 308.113 2.29032 -5.25564 0
M  V30 3298 H 306.51 1.68128 -5.76067 0
M  V30 3299 H 307.58 0.638059 -4.80684 0
M  V30 3300 N 308.923 1.53595 0.353017 0
M  V30 3301 C 309.87 1.80919 1.43308 0
M  V30 3302 C 310.84 0.654288 1.5267 0
M  V30 3303 O 312.025 0.897759 1.6836 0
M  V30 3304 C 309.165 2.01605 2.80089 0
M  V30 3305 C 308.278 3.29321 2.79593 0
M  V30 3306 C 307.413 3.40125 4.0803 0
M  V30 3307 C 306.452 4.61826 4.01725 0
M  V30 3308 N 305.589 4.69716 5.21834 0
M  V30 3309 H 310.429 2.73074 1.19308 0
M  V30 3310 H 307.966 1.35263 0.578131 0
M  V30 3311 H 309.924 2.11586 3.59565 0
M  V30 3312 H 308.554 1.12772 3.0246 0
M  V30 3313 H 307.606 3.28229 1.92276 0
M  V30 3314 H 308.918 4.18884 2.70809 0
M  V30 3315 H 308.072 3.49488 4.95927 0
M  V30 3316 H 306.811 2.48601 4.19582 0
M  V30 3317 H 305.816 4.52552 3.12213 0
M  V30 3318 H 307.041 5.54705 3.91764 0
M  V30 3319 H 304.987 3.81097 5.33948 0
M  V30 3320 H 304.904 5.53202 5.1527 0
M  V30 3321 H 306.172 4.83376 6.11529 0
M  V30 3322 N 310.401 -0.613514 1.45168 0
M  V30 3323 C 311.331 -1.7354 1.56225 0
M  V30 3324 C 312.312 -1.64981 0.41414 0
M  V30 3325 O 313.497 -1.83472 0.636526 0
M  V30 3326 C 310.627 -3.12128 1.52295 0
M  V30 3327 C 309.581 -3.35491 2.65762 0
M  V30 3328 C 308.907 -4.74291 2.46885 0
M  V30 3329 C 310.207 -3.26325 4.0781 0
M  V30 3330 H 311.901 -1.64543 2.50132 0
M  V30 3331 H 309.447 -0.790185 1.20383 0
M  V30 3332 H 311.4 -3.90404 1.58628 0
M  V30 3333 H 310.124 -3.2195 0.549139 0
M  V30 3334 H 308.783 -2.59603 2.58847 0
M  V30 3335 H 308.431 -4.80839 1.47657 0
M  V30 3336 H 308.131 -4.9088 3.22972 0
M  V30 3337 H 309.655 -5.54775 2.55063 0
M  V30 3338 H 311.069 -3.94483 4.16 0
M  V30 3339 H 309.466 -3.54445 4.8424 0
M  V30 3340 H 310.536 -2.23855 4.30136 0
M  V30 3341 N 311.879 -1.3236 -0.855495 0
M  V30 3342 C 313.107 -1.2587 -1.64208 0
M  V30 3343 C 313.522 0.173457 -1.88002 0
M  V30 3344 O 312.879 1.11027 -1.44842 0
M  V30 3345 C 312.93 -2.01424 -3.00184 0
M  V30 3346 O 312.651 -3.39051 -2.77445 0
M  V30 3347 C 314.152 -2.01948 -3.94629 0
M  V30 3348 H 311.372 -0.434318 -0.511477 0
M  V30 3349 H 313.916 -1.74469 -1.0668 0
M  V30 3350 H 312.071 -1.56549 -3.5436 0
M  V30 3351 H 312.485 -3.77711 -3.63916 0
M  V30 3352 H 313.959 -2.59297 -4.87308 0
M  V30 3353 H 314.436 -1.00554 -4.27534 0
M  V30 3354 H 315.042 -2.46767 -3.4639 0
M  V30 3355 N 313.357 1.07166 -1.15556 0
M  V30 3356 C 314.604 1.79798 -0.931604 0
M  V30 3357 C 314.932 1.8682 0.54115 0
M  V30 3358 O 314.187 1.34942 1.41736 0
M  V30 3359 C 314.486 3.24707 -1.49332 0
M  V30 3360 C 314.152 3.37781 -2.98688 0
M  V30 3361 C 312.814 3.41057 -3.39461 0
M  V30 3362 C 315.166 3.40424 -3.94665 0
M  V30 3363 C 312.494 3.4458 -4.74849 0
M  V30 3364 C 314.846 3.45485 -5.29927 0
M  V30 3365 C 313.51 3.47039 -5.70193 0
M  V30 3366 H 312.78 0.657928 -0.340898 0
M  V30 3367 H 315.427 1.26091 -1.44129 0
M  V30 3368 H 313.732 3.81208 -0.904859 0
M  V30 3369 H 315.429 3.79486 -1.29582 0
M  V30 3370 H 312.019 3.35932 -2.66172 0
M  V30 3371 H 316.203 3.37113 -3.64237 0
M  V30 3372 H 311.459 3.44083 -5.05388 0
M  V30 3373 H 315.633 3.46476 -6.04092 0
M  V30 3374 H 313.26 3.49522 -6.75084 0
M  V30 3375 N 314.835 0.952656 1.25548 0
M  V30 3376 C 316.112 0.523818 1.88456 0
M  V30 3377 C 316.492 -0.998871 1.85973 0
M  V30 3378 O 315.84 -1.86381 1.3219 0
M  V30 3379 C 316.05 1.0982 3.31271 0
M  V30 3380 C 317.398 1.17385 4.08051 0
M  V30 3381 O 318.422 1.04961 3.40384 0
M  V30 3382 O 317.281 1.36852 5.29088 0
M  V30 3383 H 314.375 0.172485 0.808813 0
M  V30 3384 H 316.921 1.04596 1.33633 0
M  V30 3385 H 315.693 2.1415 3.27499 0
M  V30 3386 H 315.316 0.559191 3.93648 0
M  V30 3387 N 316.313 -1.40141 0.720998 0
M  V30 3388 C 317.223 -2.34486 0.0731031 0
M  V30 3389 C 318.239 -1.57587 -0.737723 0
M  V30 3390 O 319.415 -1.89949 -0.669429 0
M  V30 3391 C 316.48 -3.36528 -0.833656 0
M  V30 3392 C 315.541 -4.29298 -0.0121673 0
M  V30 3393 C 314.774 -5.26466 -0.875742 0
M  V30 3394 O 314.997 -5.29745 -2.11485 0
M  V30 3395 O 313.931 -6.01092 -0.31185 0
M  V30 3396 H 317.757 -2.9152 0.851444 0
M  V30 3397 H 315.342 -1.41427 0.481527 0
M  V30 3398 H 317.224 -3.99093 -1.35289 0
M  V30 3399 H 315.899 -2.81899 -1.59105 0
M  V30 3400 H 314.806 -3.70001 0.552262 0
M  V30 3401 H 316.139 -4.87094 0.707129 0
M  V30 3402 N 317.792 -0.46758 -1.50504 0
M  V30 3403 C 319.022 0.086288 -2.0642 0
M  V30 3404 C 319.43 1.34369 -1.33197 0
M  V30 3405 O 318.773 1.79431 -0.393747 0
M  V30 3406 C 318.835 0.443846 -3.5675 0
M  V30 3407 C 318.499 -0.711035 -4.51435 0
M  V30 3408 C 319.496 -1.59205 -4.94924 0
M  V30 3409 C 317.181 -0.900363 -4.94165 0
M  V30 3410 C 319.175 -2.64683 -5.79846 0
M  V30 3411 C 316.862 -1.95837 -5.7887 0
M  V30 3412 C 317.86 -2.82997 -6.21612 0
M  V30 3413 O 317.548 -3.86977 -7.0463 0
M  V30 3414 H 317.28 -0.00217814 -0.675996 0
M  V30 3415 H 319.834 -0.654346 -1.94698 0
M  V30 3416 H 318.064 1.23762 -3.6636 0
M  V30 3417 H 319.753 0.932386 -3.95046 0
M  V30 3418 H 320.519 -1.45745 -4.62583 0
M  V30 3419 H 316.398 -0.231427 -4.60419 0
M  V30 3420 H 319.942 -3.32745 -6.13128 0
M  V30 3421 H 315.839 -2.09305 -6.10624 0
M  V30 3422 H 316.607 -3.83923 -7.22873 0
M  V30 3423 N 319.27 1.56325 -0.20005 0
M  V30 3424 C 320.686 1.58839 0.155716 0
M  V30 3425 C 320.886 1.21636 1.60645 0
M  V30 3426 O 319.942 0.941437 2.34293 0
M  V30 3427 C 321.255 3.0032 -0.151124 0
M  V30 3428 C 322.803 3.12866 -0.0916284 0
M  V30 3429 C 323.278 4.56488 -0.371845 0
M  V30 3430 N 324.769 4.62089 -0.320641 0
M  V30 3431 C 325.504 5.71116 -0.511243 0
M  V30 3432 N 325 6.88592 -0.762461 0
M  V30 3433 N 326.793 5.60335 -0.445157 0
M  V30 3434 H 318.944 1.78788 -1.14668 0
M  V30 3435 H 321.207 0.829996 -0.458051 0
M  V30 3436 H 320.913 3.32117 -1.15721 0
M  V30 3437 H 320.787 3.73257 0.543986 0
M  V30 3438 H 323.174 2.80878 0.905065 0
M  V30 3439 H 323.255 2.42304 -0.81989 0
M  V30 3440 H 322.899 4.89189 -1.36588 0
M  V30 3441 H 322.829 5.25246 0.377362 0
M  V30 3442 H 325.32 3.77665 -0.13329 0
M  V30 3443 H 325.633 7.67581 -0.896576 0
M  V30 3444 H 323.978 6.90387 -0.799412 0
M  V30 3445 H 327.169 4.67436 -0.249278 0
M  V30 3446 H 327.342 6.45243 -0.597116 0
M  V30 3447 N 320.748 -0.0735177 1.57428 0
M  V30 3448 C 321.696 -1.10628 2.04607 0
M  V30 3449 C 322.69 -1.40181 0.951088 0
M  V30 3450 O 323.896 -1.39608 1.1362 0
M  V30 3451 H 320.271 -0.374088 0.652351 0
M  V30 3452 H 322.242 -0.682218 2.90497 0
M  V30 3453 C 320.991 -2.41212 2.50423 0
M  V30 3454 H 320.314 -2.19322 3.34272 0
M  V30 3455 H 321.754 -3.11927 2.87189 0
M  V30 3456 C 320.213 -3.0705 1.38644 0
M  V30 3457 O 320.743 -3.95056 0.727582 0
M  V30 3458 N 318.949 -2.67645 1.132 0
M  V30 3459 H 318.496 -1.96169 1.66959 0
M  V30 3460 H 318.454 -3.1202 0.386147 0
M  V30 3461 N 322.226 -1.5378 -0.344866 0
M  V30 3462 C 323.475 -1.7018 -1.08267 0
M  V30 3463 C 323.788 -0.471 -1.89845 0
M  V30 3464 O 324.994 -0.515917 -2.66553 0
M  V30 3465 C 323.45 -3.00923 -1.97417 0
M  V30 3466 C 323.058 -4.31335 -1.21053 0
M  V30 3467 C 324.802 -3.26688 -2.71063 0
M  V30 3468 C 322.709 -5.53153 -2.09225 0
M  V30 3469 H 321.639 -0.634138 -0.407903 0
M  V30 3470 H 324.29 -1.8028 -0.342246 0
M  V30 3471 H 322.672 -2.84676 -2.75274 0
M  V30 3472 H 323.846 -4.58281 -0.481159 0
M  V30 3473 H 322.161 -4.12173 -0.591813 0
M  V30 3474 H 324.758 -4.1489 -3.37299 0
M  V30 3475 H 325.101 -2.43639 -3.37558 0
M  V30 3476 H 325.634 -3.43705 -2.0028 0
M  V30 3477 H 322.373 -6.38741 -1.47274 0
M  V30 3478 H 321.893 -5.30458 -2.79955 0
M  V30 3479 H 323.572 -5.88744 -2.68308 0
M  V30 3480 N 323.704 0.605807 -1.45491 0
M  V30 3481 C 324.929 1.39625 -1.53361 0
M  V30 3482 C 325.354 1.87351 -0.167645 0
M  V30 3483 O 324.712 1.60243 0.848051 0
M  V30 3484 C 324.76 2.57559 -2.5238 0
M  V30 3485 O 323.864 3.58248 -2.04285 0
M  V30 3486 H 323.205 0.416771 -0.516912 0
M  V30 3487 H 325.735 0.737103 -1.90861 0
M  V30 3488 H 325.745 3.0478 -2.71244 0
M  V30 3489 H 324.42 2.22171 -3.51586 0
M  V30 3490 H 322.997 3.17664 -1.95305 0
M  V30 3491 N 325.182 1.32811 0.848464 0
M  V30 3492 C 326.114 1.18095 1.96433 0
M  V30 3493 C 327.127 0.114354 1.62398 0
M  V30 3494 O 328.316 0.363892 1.74751 0
M  V30 3495 C 325.416 0.786798 3.2964 0
M  V30 3496 C 324.589 1.943 3.91875 0
M  V30 3497 C 323.648 1.53138 5.03423 0
M  V30 3498 O 322.674 2.24432 5.23086 0
M  V30 3499 N 323.876 0.430915 5.78898 0
M  V30 3500 H 326.641 2.14218 2.09597 0
M  V30 3501 H 324.202 1.2543 1.02367 0
M  V30 3502 H 326.194 0.493715 4.01677 0
M  V30 3503 H 324.764 -0.0834541 3.12489 0
M  V30 3504 H 323.984 2.40224 3.12547 0
M  V30 3505 H 325.272 2.71689 4.30189 0
M  V30 3506 H 324.67 -0.162333 5.65467 0
M  V30 3507 H 323.227 0.197466 6.51501 0
M  V30 3508 N 326.66 -1.06551 1.16123 0
M  V30 3509 C 327.607 -2.13961 0.865414 0
M  V30 3510 C 328.577 -1.65066 -0.185055 0
M  V30 3511 O 329.762 -1.90732 -0.05083 0
M  V30 3512 C 326.902 -3.43113 0.369776 0
M  V30 3513 C 326.015 -4.05756 1.48276 0
M  V30 3514 C 325.15 -5.22773 0.942414 0
M  V30 3515 C 324.189 -5.77395 2.03179 0
M  V30 3516 N 323.326 -6.85731 1.50721 0
M  V30 3517 H 328.166 -2.38605 1.78527 0
M  V30 3518 H 325.703 -1.17072 0.890646 0
M  V30 3519 H 327.661 -4.17151 0.0640643 0
M  V30 3520 H 326.291 -3.18695 -0.513143 0
M  V30 3521 H 325.343 -3.29292 1.9045 0
M  V30 3522 H 326.655 -4.42351 2.30493 0
M  V30 3523 H 325.809 -6.03827 0.589729 0
M  V30 3524 H 324.548 -4.87618 0.0895191 0
M  V30 3525 H 323.553 -4.94981 2.3932 0
M  V30 3526 H 324.778 -6.14603 2.8886 0
M  V30 3527 H 322.724 -6.52499 0.676811 0
M  V30 3528 H 322.641 -7.21254 2.26557 0
M  V30 3529 H 323.909 -7.7047 1.18303 0
M  V30 3530 N 328.138 -0.959301 -1.25041 0
M  V30 3531 C 329.415 -0.533805 -1.88175 0
M  V30 3532 C 329.795 0.988994 -1.865 0
M  V30 3533 O 329.143 1.85677 -1.33177 0
M  V30 3534 C 329.353 -1.11575 -3.30684 0
M  V30 3535 C 330.701 -1.19548 -4.07423 0
M  V30 3536 O 331.725 -1.06765 -3.39823 0
M  V30 3537 O 330.584 -1.39656 -5.28354 0
M  V30 3538 H 327.678 -0.176772 -0.807887 0
M  V30 3539 H 330.224 -1.05303 -1.33076 0
M  V30 3540 H 328.996 -2.15884 -3.26358 0
M  V30 3541 H 328.619 -0.580059 -3.93346 0
M  V30 3542 N 329.616 1.39756 -0.72842 0
M  V30 3543 C 330.865 1.99879 -0.270407 0
M  V30 3544 C 331.178 1.58449 1.14688 0
M  V30 3545 O 332.384 2.11362 1.70407 0
M  V30 3546 C 330.84 3.57292 -0.43252 0
M  V30 3547 C 330.448 4.07688 -1.85727 0
M  V30 3548 C 332.192 4.24485 -0.0359507 0
M  V30 3549 C 330.099 5.5765 -1.96928 0
M  V30 3550 H 329.029 0.747689 -0.0973472 0
M  V30 3551 H 331.68 1.59837 -0.901355 0
M  V30 3552 H 330.062 3.95097 0.267219 0
M  V30 3553 H 331.236 3.81231 -2.58843 0
M  V30 3554 H 329.551 3.53135 -2.20646 0
M  V30 3555 H 332.148 5.34609 -0.0987484 0
M  V30 3556 H 332.491 4.03915 1.00787 0
M  V30 3557 H 333.024 3.9183 -0.686604 0
M  V30 3558 H 329.763 5.8309 -2.99476 0
M  V30 3559 H 329.283 5.8593 -1.28241 0
M  V30 3560 H 330.962 6.22957 -1.74737 0
M  V30 3561 N 331.094 0.475555 1.50254 0
M  V30 3562 C 332.34 -0.0780073 2.0265 0
M  V30 3563 C 332.673 -1.38968 1.35652 0
M  V30 3564 O 331.948 -1.8839 0.483691 0
M  V30 3565 C 332.231 -0.257161 3.59181 0
M  V30 3566 C 332.084 1.07585 4.36744 0
M  V30 3567 C 333.403 -1.00965 4.28362 0
M  V30 3568 H 330.522 -0.0268758 0.73651 0
M  V30 3569 H 333.164 0.622015 1.7953 0
M  V30 3570 H 331.314 -0.853412 3.79011 0
M  V30 3571 H 332.986 1.70902 4.28474 0
M  V30 3572 H 331.229 1.6714 4.00308 0
M  V30 3573 H 331.9 0.904088 5.44546 0
M  V30 3574 H 334.376 -0.504214 4.13034 0
M  V30 3575 H 333.252 -1.10381 5.37687 0
M  V30 3576 H 333.513 -2.04731 3.91839 0
M  V30 3577 N 332.573 -1.56217 0.208337 0
M  V30 3578 C 333.85 -1.89739 -0.475234 0
M  V30 3579 C 334.23 -1.1238 -1.78701 0
M  V30 3580 O 333.578 -0.228979 -2.2735 0
M  V30 3581 C 333.788 -3.42289 -0.681101 0
M  V30 3582 C 335.136 -4.12789 -0.994507 0
M  V30 3583 O 336.16 -3.47814 -0.768357 0
M  V30 3584 O 335.019 -5.27649 -1.42299 0
M  V30 3585 H 332.113 -0.788478 -0.249461 0
M  V30 3586 H 334.659 -1.67855 0.249538 0
M  V30 3587 H 333.431 -3.90534 0.244722 0
M  V30 3588 H 333.054 -3.69909 -1.45785 0
M  V30 3589 N 334.051 0.0651679 -1.57465 0
M  V30 3590 C 335.276 0.779605 -1.9219 0
M  V30 3591 C 335.701 1.69988 -0.805333 0
M  V30 3592 O 335.059 1.79685 0.241435 0
M  V30 3593 C 335.107 1.54364 -3.2589 0
M  V30 3594 O 334.211 2.65474 -3.1559 0
M  V30 3595 H 333.552 0.212249 -0.629163 0
M  V30 3596 H 336.082 0.0314294 -2.04576 0
M  V30 3597 H 336.092 1.92146 -3.59922 0
M  V30 3598 H 334.767 0.868457 -4.06732 0
M  V30 3599 H 333.344 2.30501 -2.93128 0
M  V30 3600 N 335.529 1.53961 0.336706 0
M  V30 3601 C 336.778 1.70751 1.07363 0
M  V30 3602 C 337.091 0.481061 1.89592 0
M  V30 3603 O 338.297 0.530046 2.66276 0
M  V30 3604 C 336.753 3.01965 1.95818 0
M  V30 3605 C 336.361 4.31971 1.18764 0
M  V30 3606 C 338.105 3.28121 2.69327 0
M  V30 3607 C 336.012 5.54255 2.06289 0
M  V30 3608 H 334.942 0.636292 0.404535 0
M  V30 3609 H 337.593 1.80459 0.332681 0
M  V30 3610 H 335.975 2.86132 2.7376 0
M  V30 3611 H 337.149 4.5853 0.456849 0
M  V30 3612 H 335.464 4.12481 0.569946 0
M  V30 3613 H 338.061 4.16673 3.35094 0
M  V30 3614 H 338.404 2.45426 3.36261 0
M  V30 3615 H 338.937 3.44762 1.98454 0
M  V30 3616 H 335.676 6.39513 1.43885 0
M  V30 3617 H 335.196 5.31935 2.77138 0
M  V30 3618 H 336.875 5.90159 2.65182 0
M  V30 3619 N 337.007 -0.598083 1.45811 0
M  V30 3620 C 337.954 -1.7082 1.55207 0
M  V30 3621 C 338.924 -1.61278 0.39732 0
M  V30 3622 O 340.109 -1.80717 0.612038 0
M  V30 3623 C 337.249 -3.09144 1.53376 0
M  V30 3624 C 336.362 -3.29423 2.79472 0
M  V30 3625 C 335.497 -4.57907 2.69248 0
M  V30 3626 C 334.536 -4.71476 3.90354 0
M  V30 3627 N 333.673 -5.9127 3.78608 0
M  V30 3628 H 338.513 -1.62125 2.50039 0
M  V30 3629 H 336.05 -0.790389 1.24062 0
M  V30 3630 H 338.008 -3.89186 1.50301 0
M  V30 3631 H 336.638 -3.16773 0.620876 0
M  V30 3632 H 335.69 -2.43091 2.92594 0
M  V30 3633 H 337.002 -3.3532 3.69272 0
M  V30 3634 H 336.156 -5.46157 2.64192 0
M  V30 3635 H 334.895 -4.54423 1.77063 0
M  V30 3636 H 333.9 -3.81648 3.95759 0
M  V30 3637 H 335.125 -4.76751 4.83617 0
M  V30 3638 H 333.071 -5.88813 2.89199 0
M  V30 3639 H 332.988 -5.98369 4.6205 0
M  V30 3640 H 334.256 -6.81992 3.77501 0
M  V30 3641 N 338.485 -1.33259 -0.841409 0
M  V30 3642 C 339.733 -1.24326 -1.59334 0
M  V30 3643 C 340.054 0.191564 -1.94057 0
M  V30 3644 O 339.324 1.11967 -1.60749 0
M  V30 3645 H 337.904 -0.457174 -0.590763 0
M  V30 3646 H 340.566 -1.66947 -1.00571 0
M  V30 3647 H 339.662 -1.8352 -2.52442 0
M  V30 3648 N 339.963 1.05934 -1.16686 0
M  V30 3649 C 340.873 2.17014 -0.891183 0
M  V30 3650 C 341.889 1.73453 0.137907 0
M  V30 3651 O 343.065 2.01361 -0.039592 0
M  V30 3652 C 340.13 3.44384 -0.400099 0
M  V30 3653 C 339.191 4.02433 -1.49486 0
M  V30 3654 C 338.424 5.23723 -1.02711 0
M  V30 3655 O 338.647 5.7027 0.121716 0
M  V30 3656 O 337.581 5.7382 -1.81699 0
M  V30 3657 H 341.407 2.43113 -1.82015 0
M  V30 3658 H 338.992 1.15541 -0.947132 0
M  V30 3659 H 340.874 4.21189 -0.133392 0
M  V30 3660 H 339.549 3.19802 0.500817 0
M  V30 3661 H 338.456 3.27102 -1.81535 0
M  V30 3662 H 339.789 4.31317 -2.37121 0
M  V30 3663 N 341.441 0.965919 1.2453 0
M  V30 3664 C 342.371 0.513476 2.27784 0
M  V30 3665 C 343.352 -0.445974 1.6415 0
M  V30 3666 O 344.537 -0.342485 1.91156 0
M  V30 3667 C 341.667 -0.198839 3.4673 0
M  V30 3668 C 340.621 0.676456 4.2262 0
M  V30 3669 C 339.947 -0.167248 5.34438 0
M  V30 3670 C 341.247 1.96017 4.84123 0
M  V30 3671 H 342.941 1.3765 2.65881 0
M  V30 3672 H 340.487 0.663321 1.27813 0
M  V30 3673 H 342.44 -0.526567 4.18097 0
M  V30 3674 H 341.164 -1.0962 3.07654 0
M  V30 3675 H 339.823 0.98743 3.53052 0
M  V30 3676 H 339.471 -1.0647 4.91603 0
M  V30 3677 H 339.171 0.415181 5.86131 0
M  V30 3678 H 340.695 -0.489688 6.08633 0
M  V30 3679 H 342.109 1.69814 5.47573 0
M  V30 3680 H 340.506 2.48918 5.4604 0
M  V30 3681 H 341.576 2.65622 4.05676 0
M  V30 3682 N 342.919 -1.39368 0.735821 0
M  V30 3683 C 344.144 -2.05319 0.293052 0
M  V30 3684 C 344.569 -1.55115 -1.064 0
M  V30 3685 O 343.927 -0.695261 -1.67439 0
M  V30 3686 C 343.975 -3.59305 0.305323 0
M  V30 3687 O 343.079 -4.06299 -0.706761 0
M  V30 3688 H 342.42 -0.650529 0.13307 0
M  V30 3689 H 344.95 -1.78386 1.00197 0
M  V30 3690 H 344.96 -4.07724 0.149997 0
M  V30 3691 H 343.635 -3.95207 1.29553 0
M  V30 3692 H 342.212 -3.69292 -0.517504 0
M  V30 3693 N 344.397 -0.483516 -1.5 0
M  V30 3694 C 345.645 0.067027 -2.01989 0
M  V30 3695 C 345.966 1.3909 -1.36671 0
M  V30 3696 O 345.236 1.88978 -0.516152 0
M  V30 3697 H 343.816 0.0277606 -0.746484 0
M  V30 3698 H 346.478 -0.636773 -1.84204 0
M  V30 3699 H 345.574 0.209484 -3.11396 0
M  V30 3700 N 345.875 1.56104 -0.216619 0
M  V30 3701 C 346.825 2.16703 0.708798 0
M  V30 3702 C 347.809 1.11392 1.16106 0
M  V30 3703 O 349.001 1.37395 1.11587 0
M  V30 3704 C 346.13 2.84666 1.91886 0
M  V30 3705 C 345.216 3.97195 1.48651 0
M  V30 3706 N 345.607 4.99959 0.766434 0
M  V30 3707 C 343.905 4.09193 1.77418 0
M  V30 3708 C 344.606 5.79126 0.546659 0
M  V30 3709 N 343.582 5.32315 1.10188 0
M  V30 3710 H 347.384 2.93516 0.150162 0
M  V30 3711 H 344.898 1.6239 -0.0176768 0
M  V30 3712 H 346.895 3.26486 2.59253 0
M  V30 3713 H 345.555 2.09347 2.48202 0
M  V30 3714 H 346.566 5.16197 0.419634 0
M  V30 3715 H 343.243 3.45021 2.35088 0
M  V30 3716 H 344.633 6.71895 -0.026103 0
M  V30 3717 N 347.353 -0.0568162 1.57498 0
M  V30 3718 C 348.6 -0.753104 1.87975 0
M  V30 3719 C 348.928 -1.76815 0.81035 0
M  V30 3720 O 348.183 -1.94756 -0.19199 0
M  V30 3721 C 348.482 -1.48359 3.25153 0
M  V30 3722 C 348.148 -0.60713 4.46794 0
M  V30 3723 C 346.81 -0.365642 4.79809 0
M  V30 3724 C 349.162 -0.000305978 5.212 0
M  V30 3725 C 346.49 0.491905 5.84634 0
M  V30 3726 C 348.842 0.844781 6.26934 0
M  V30 3727 C 347.506 1.096 6.58441 0
M  V30 3728 H 346.776 -0.27558 0.687849 0
M  V30 3729 H 349.423 -0.0135173 1.91495 0
M  V30 3730 H 347.728 -2.29577 3.17492 0
M  V30 3731 H 349.425 -2.02739 3.45974 0
M  V30 3732 H 346.015 -0.805487 4.20963 0
M  V30 3733 H 350.199 -0.173961 4.95995 0
M  V30 3734 H 345.455 0.695131 6.07436 0
M  V30 3735 H 349.629 1.32165 6.83744 0
M  V30 3736 H 347.256 1.76224 7.39492 0
M  V30 3737 N 348.832 -1.54138 -0.328536 0
M  V30 3738 C 349.742 -1.86192 -1.42723 0
M  V30 3739 C 350.758 -0.753382 -1.56844 0
M  V30 3740 O 351.934 -1.04718 -1.72035 0
M  V30 3741 C 348.999 -2.07824 -2.77507 0
M  V30 3742 C 348.06 -3.31641 -2.72603 0
M  V30 3743 C 347.293 -3.52232 -4.00959 0
M  V30 3744 O 347.516 -2.7636 -4.9898 0
M  V30 3745 O 346.45 -4.45699 -4.0452 0
M  V30 3746 H 350.276 -2.79608 -1.18547 0
M  V30 3747 H 347.861 -1.3998 -0.522104 0
M  V30 3748 H 349.743 -2.23411 -3.57303 0
M  V30 3749 H 348.418 -1.17596 -3.01584 0
M  V30 3750 H 347.325 -3.21444 -1.91376 0
M  V30 3751 H 348.658 -4.2191 -2.53481 0
M  V30 3752 N 350.31 0.590341 -1.46126 0
M  V30 3753 C 351.587 1.35029 -1.41515 0
M  V30 3754 C 351.967 2.10888 -0.0946472 0
M  V30 3755 O 351.315 2.08998 0.923693 0
M  V30 3756 C 351.525 2.28269 -2.63997 0
M  V30 3757 C 352.873 2.90338 -3.09821 0
M  V30 3758 O 353.897 2.38585 -2.64492 0
M  V30 3759 O 352.756 3.84321 -3.88535 0
M  V30 3760 H 349.85 0.606317 -0.562413 0
M  V30 3761 H 352.396 0.611994 -1.58281 0
M  V30 3762 H 351.168 1.71591 -3.51671 0
M  V30 3763 H 350.791 3.0945 -2.49652 0
M  V30 3764 N 351.788 1.33704 0.83433 0
M  V30 3765 C 352.718 1.26967 1.95963 0
M  V30 3766 C 353.699 0.149337 1.69443 0
M  V30 3767 O 354.884 0.339852 1.91203 0
M  V30 3768 C 352.014 1.01275 3.32206 0
M  V30 3769 C 350.968 2.09652 3.73136 0
M  V30 3770 C 350.294 1.69166 5.07235 0
M  V30 3771 C 351.594 3.51372 3.86439 0
M  V30 3772 H 353.288 2.2112 2.01857 0
M  V30 3773 H 350.834 1.06447 0.969793 0
M  V30 3774 H 352.787 0.952106 4.10503 0
M  V30 3775 H 351.511 0.0356203 3.26581 0
M  V30 3776 H 350.17 2.14766 2.97104 0
M  V30 3777 H 349.818 0.701437 4.98085 0
M  V30 3778 H 349.518 2.41694 5.35591 0
M  V30 3779 H 351.042 1.64576 5.88003 0
M  V30 3780 H 352.456 3.48734 4.55036 0
M  V30 3781 H 350.853 4.22425 4.26236 0
M  V30 3782 H 351.923 3.89546 2.88759 0
M  V30 3783 N 353.266 -1.05314 1.17247 0
M  V30 3784 C 354.196 -2.1498 0.911362 0
M  V30 3785 C 355.177 -1.69471 -0.146169 0
M  V30 3786 O 356.362 -1.942 0.003812 0
M  V30 3787 C 353.492 -3.4472 0.422528 0
M  V30 3788 C 352.446 -4.03789 1.4191 0
M  V30 3789 C 351.772 -5.28858 0.788274 0
M  V30 3790 C 353.072 -4.41418 2.7919 0
M  V30 3791 H 354.766 -2.3708 1.82848 0
M  V30 3792 H 352.312 -1.13938 0.880569 0
M  V30 3793 H 354.265 -4.20787 0.227289 0
M  V30 3794 H 352.989 -3.22269 -0.530123 0
M  V30 3795 H 351.648 -3.2979 1.60106 0
M  V30 3796 H 351.296 -5.02709 -0.171173 0
M  V30 3797 H 350.996 -5.69338 1.45353 0
M  V30 3798 H 352.52 -6.07612 0.603282 0
M  V30 3799 H 353.934 -5.08524 2.64719 0
M  V30 3800 H 352.331 -4.92913 3.42282 0
M  V30 3801 H 353.401 -3.51819 3.33693 0
M  V30 3802 N 354.744 -0.972509 -1.24016 0
M  V30 3803 C 355.674 -0.525548 -2.27509 0
M  V30 3804 C 356.655 0.437262 -1.64384 0
M  V30 3805 O 357.84 0.332343 -1.91335 0
M  V30 3806 C 354.97 0.180448 -3.46831 0
M  V30 3807 C 353.924 -0.698859 -4.22256 0
M  V30 3808 C 353.25 0.138903 -5.3452 0
M  V30 3809 C 354.55 -1.98582 -4.83076 0
M  V30 3810 H 356.244 -1.39058 -2.65148 0
M  V30 3811 H 353.79 -0.67009 -1.27459 0
M  V30 3812 H 355.743 0.504387 -4.18371 0
M  V30 3813 H 354.467 1.07987 -3.08231 0
M  V30 3814 H 353.126 -1.00614 -3.52523 0
M  V30 3815 H 352.774 1.03862 -4.9216 0
M  V30 3816 H 352.474 -0.446259 -5.85903 0
M  V30 3817 H 353.998 0.457404 -6.08884 0
M  V30 3818 H 355.412 -1.72715 -5.46665 0
M  V30 3819 H 353.809 -2.5181 -5.44713 0
M  V30 3820 H 354.879 -2.67769 -4.04262 0
M  V30 3821 N 356.222 1.38976 -0.743202 0
M  V30 3822 C 357.185 2.28901 -0.117014 0
M  V30 3823 C 358.185 1.46698 0.658503 0
M  V30 3824 O 359.375 1.67274 0.486305 0
M  V30 3825 C 356.507 3.30309 0.84315 0
M  V30 3826 H 357.7 2.8578 -0.909373 0
M  V30 3827 H 355.253 1.47761 -0.509547 0
M  V30 3828 H 355.988 2.785 1.66157 0
M  V30 3829 H 355.773 3.91029 0.289594 0
M  V30 3830 H 357.263 3.97577 1.2776 0
M  V30 3831 N 357.7 0.491464 1.49741 0
M  V30 3832 C 358.949 -0.0582189 2.01616 0
M  V30 3833 C 359.262 -1.38927 1.3769 0
M  V30 3834 O 360.468 -2.02509 1.80838 0
M  V30 3835 C 358.924 -0.154235 3.59569 0
M  V30 3836 C 358.532 1.1696 4.32463 0
M  V30 3837 C 360.276 -0.65479 4.1942 0
M  V30 3838 C 358.183 1.03627 5.8225 0
M  V30 3839 H 357.113 -0.0255317 0.753568 0
M  V30 3840 H 359.764 0.629445 1.72367 0
M  V30 3841 H 358.146 -0.906138 3.85493 0
M  V30 3842 H 359.32 1.93405 4.18248 0
M  V30 3843 H 357.635 1.60285 3.84315 0
M  V30 3844 H 360.232 -0.771903 5.29099 0
M  V30 3845 H 360.575 -1.65127 3.8215 0
M  V30 3846 H 361.108 0.040304 3.9778 0
M  V30 3847 H 357.847 2.00672 6.24028 0
M  V30 3848 H 357.367 0.312546 5.98985 0
M  V30 3849 H 359.046 0.711114 6.4308 0
M  V30 3850 N 359.178 -1.55987 0.224894 0
M  V30 3851 C 360.424 -1.98684 -0.406502 0
M  V30 3852 C 360.757 -1.11248 -1.59177 0
M  V30 3853 O 360.032 -0.170909 -1.93748 0
M  V30 3854 C 360.315 -3.50218 -0.837808 0
M  V30 3855 C 360.168 -4.48426 0.351332 0
M  V30 3856 C 361.487 -4.06243 -1.69278 0
M  V30 3857 H 358.606 -0.722337 -0.146283 0
M  V30 3858 H 361.248 -1.87255 0.321799 0
M  V30 3859 H 359.398 -3.60089 -1.45837 0
M  V30 3860 H 361.07 -4.50562 0.989526 0
M  V30 3861 H 359.313 -4.22159 0.998207 0
M  V30 3862 H 359.984 -5.52 0.00655905 0
M  V30 3863 H 362.46 -3.99337 -1.16914 0
M  V30 3864 H 361.336 -5.12581 -1.96346 0
M  V30 3865 H 361.597 -3.53332 -2.65723 0
M  V30 3866 N 360.656 0.0484629 -1.57525 0
M  V30 3867 C 361.604 1.07359 -2.06341 0
M  V30 3868 C 362.598 1.3865 -0.973269 0
M  V30 3869 O 363.804 1.37783 -1.15827 0
M  V30 3870 H 360.179 0.363662 -0.65822 0
M  V30 3871 H 362.15 0.635916 -2.91545 0
M  V30 3872 C 360.899 2.37198 -2.54229 0
M  V30 3873 H 360.222 2.13977 -3.37719 0
M  V30 3874 H 361.662 3.07319 -2.92115 0
M  V30 3875 C 360.121 3.04805 -1.43511 0
M  V30 3876 O 360.651 3.93848 -0.79034 0
M  V30 3877 N 358.857 2.65811 -1.17444 0
M  V30 3878 H 358.404 1.93488 -1.70059 0
M  V30 3879 H 358.362 3.11366 -0.435737 0
M  V30 3880 N 362.134 1.5431 0.320358 0
M  V30 3881 C 363.374 1.74395 1.0661 0
M  V30 3882 C 363.738 0.508602 1.85141 0
M  V30 3883 O 364.939 0.586856 2.62316 0
M  V30 3884 C 363.21 2.98619 1.96371 0
M  V30 3885 S 364.769 3.39621 2.77854 0
M  V30 3886 H 361.587 0.613204 0.359863 0
M  V30 3887 H 364.189 1.9249 0.341727 0
M  V30 3888 H 362.893 3.86673 1.3752 0
M  V30 3889 H 362.424 2.83055 2.73209 0
M  V30 3890 H 364.439 2.95172 3.98858 0
M  V30 3891 N 363.613 -0.582584 1.46437 0
M  V30 3892 C 364.859 -1.34278 1.51978 0
M  V30 3893 C 365.192 -1.93446 0.170973 0
M  V30 3894 O 364.467 -1.76481 -0.817608 0
M  V30 3895 C 364.75 -2.47203 2.61845 0
M  V30 3896 C 364.603 -1.93069 4.06257 0
M  V30 3897 C 365.922 -3.49247 2.67795 0
M  V30 3898 H 363.041 -0.486876 0.553282 0
M  V30 3899 H 365.683 -0.654437 1.78374 0
M  V30 3900 H 363.833 -3.0592 2.39469 0
M  V30 3901 H 365.505 -1.38808 4.3992 0
M  V30 3902 H 363.748 -1.23898 4.1573 0
M  V30 3903 H 364.419 -2.74586 4.7886 0
M  V30 3904 H 366.895 -3.00411 2.8791 0
M  V30 3905 H 365.771 -4.25719 3.46489 0
M  V30 3906 H 366.032 -4.06482 1.73852 0
M  V30 3907 N 365.091 -1.34144 -0.827227 0
M  V30 3908 C 366.507 -1.13732 -1.11969 0
M  V30 3909 C 366.707 0.0640463 -2.01398 0
M  V30 3910 O 365.763 0.740856 -2.41387 0
M  V30 3911 C 367.076 -2.43047 -1.77055 0
M  V30 3912 C 368.624 -2.49063 -1.89569 0
M  V30 3913 C 369.099 -3.78369 -2.58072 0
M  V30 3914 N 370.59 -3.79505 -2.65575 0
M  V30 3915 C 371.325 -4.76274 -3.19297 0
M  V30 3916 N 370.821 -5.83424 -3.73616 0
M  V30 3917 N 372.614 -4.63735 -3.17658 0
M  V30 3918 H 364.765 -2.11126 -0.232296 0
M  V30 3919 H 367.028 -0.933424 -0.165602 0
M  V30 3920 H 366.734 -3.31025 -1.18807 0
M  V30 3921 H 366.608 -2.56066 -2.76966 0
M  V30 3922 H 368.995 -1.61527 -2.46968 0
M  V30 3923 H 369.076 -2.39975 -0.885745 0
M  V30 3924 H 368.72 -4.66293 -2.01329 0
M  V30 3925 H 368.65 -3.84737 -3.59562 0
M  V30 3926 H 371.141 -3.02074 -2.27068 0
M  V30 3927 H 371.454 -6.53282 -4.12846 0
M  V30 3928 H 369.799 -5.87143 -3.71871 0
M  V30 3929 H 372.99 -3.79177 -2.74486 0
M  V30 3930 H 373.163 -5.39318 -3.59221 0
M  V30 3931 N 366.569 1.04691 -1.17803 0
M  V30 3932 C 367.517 2.14665 -0.895635 0
M  V30 3933 C 368.511 1.68806 0.141679 0
M  V30 3934 O 369.717 1.79999 -0.00587914 0
M  V30 3935 H 366.092 0.701038 -0.272121 0
M  V30 3936 H 368.063 2.35685 -1.83017 0
M  V30 3937 C 366.812 3.45019 -0.430962 0
M  V30 3938 H 366.135 3.8071 -1.22064 0
M  V30 3939 H 367.575 4.23125 -0.272301 0
M  V30 3940 C 366.034 3.25943 0.852207 0
M  V30 3941 O 366.564 3.5296 1.91786 0
M  V30 3942 N 364.77 2.79304 0.802346 0
M  V30 3943 H 364.317 2.57518 -0.0650788 0
M  V30 3944 H 364.275 2.66921 1.66134 0
M  V30 3945 N 368.047 0.979072 1.23499 0
M  V30 3946 C 369.275 0.665202 1.95915 0
M  V30 3947 C 369.69 -0.767571 1.72493 0
M  V30 3948 O 369.047 -1.51635 1.01554 0
M  V30 3949 C 369.098 0.944438 3.48945 0
M  V30 3950 O 368.819 2.3209 3.71572 0
M  V30 3951 C 370.32 0.646336 4.38563 0
M  V30 3952 H 367.54 0.247218 0.623798 0
M  V30 3953 H 370.084 1.31009 1.57025 0
M  V30 3954 H 368.239 0.345575 3.85856 0
M  V30 3955 H 368.653 2.40957 4.65876 0
M  V30 3956 H 370.127 0.892091 5.44744 0
M  V30 3957 H 370.604 -0.419575 4.37191 0
M  V30 3958 H 371.21 1.22562 4.07258 0
M  V30 3959 N 369.525 -1.3858 0.750561 0
M  V30 3960 C 370.936 -1.82927 0.373438 0
M  V30 3961 C 371.287 -1.62634 -1.09748 0
M  V30 3962 O 370.412 -1.12588 -1.84805 0
M  V30 3963 C 371.007 -3.32088 0.671029 0
M  V30 3964 C 369.566 -3.74795 0.34722 0
M  V30 3965 C 368.713 -2.61391 0.92575 0
M  V30 3966 H 371.664 -1.27351 0.946958 0
M  V30 3967 H 371.685 -3.80465 -0.0518269 0
M  V30 3968 H 371.197 -3.46826 1.74164 0
M  V30 3969 H 369.298 -3.65638 -0.716933 0
M  V30 3970 H 369.411 -4.71667 0.840656 0
M  V30 3971 H 367.775 -2.52265 0.351327 0
M  V30 3972 H 368.558 -2.78929 2.00133 0
M  V30 3973 N 371.003 -0.499398 -1.49478 0
M  V30 3974 C 371.966 0.268838 -2.27618 0
M  V30 3975 C 372.966 0.895383 -1.33565 0
M  V30 3976 O 374.156 0.760164 -1.56739 0
M  V30 3977 C 371.288 1.38559 -3.11471 0
M  V30 3978 H 372.481 -0.416812 -2.96989 0
M  V30 3979 H 370.034 -0.254313 -1.54217 0
M  V30 3980 H 370.769 2.10544 -2.46661 0
M  V30 3981 H 370.554 0.941797 -3.80621 0
M  V30 3982 H 372.044 1.92678 -3.70493 0
M  V30 3983 N 372.481 1.55866 -0.233164 0
M  V30 3984 C 373.728 1.98603 0.395374 0
M  V30 3985 C 374.056 1.12105 1.58942 0
M  V30 3986 O 373.311 0.168656 1.94972 0
M  V30 3987 C 373.61 3.46856 0.861724 0
M  V30 3988 C 373.276 4.50348 -0.223066 0
M  V30 3989 C 371.938 4.78371 -0.521038 0
M  V30 3990 C 374.29 5.12355 -0.956124 0
M  V30 3991 C 371.618 5.6568 -1.55638 0
M  V30 3992 C 373.97 6.00786 -1.98089 0
M  V30 3993 C 372.634 6.27148 -2.28565 0
M  V30 3994 H 371.904 0.726739 0.144677 0
M  V30 3995 H 374.551 1.88491 -0.338114 0
M  V30 3996 H 372.856 3.5423 1.67418 0
M  V30 3997 H 374.553 3.77302 1.35809 0
M  V30 3998 H 371.143 4.28596 0.0193234 0
M  V30 3999 H 375.327 4.90765 -0.739166 0
M  V30 4000 H 370.583 5.84365 -1.798 0
M  V30 4001 H 374.757 6.4788 -2.55391 0
M  V30 4002 H 372.384 6.94597 -3.08932 0
M  V30 4003 N 373.959 -0.0401083 1.57549 0
M  V30 4004 C 374.889 -1.04384 2.08869 0
M  V30 4005 C 375.87 -1.38407 0.988817 0
M  V30 4006 O 377.055 -1.47483 1.26342 0
M  V30 4007 C 374.185 -2.34808 2.55895 0
M  V30 4008 C 373.139 -2.15057 3.70047 0
M  V30 4009 C 372.465 -3.51145 4.03239 0
M  V30 4010 C 373.765 -1.54576 4.98902 0
M  V30 4011 H 375.459 -0.616666 2.92981 0
M  V30 4012 H 373.005 -0.295184 1.40942 0
M  V30 4013 H 374.958 -3.05346 2.90417 0
M  V30 4014 H 373.682 -2.79565 1.68853 0
M  V30 4015 H 372.341 -1.46954 3.35857 0
M  V30 4016 H 371.989 -3.93529 3.13279 0
M  V30 4017 H 371.689 -3.38758 4.80122 0
M  V30 4018 H 373.213 -4.23062 4.40285 0
M  V30 4019 H 374.627 -2.15017 5.31451 0
M  V30 4020 H 373.024 -1.52796 5.80322 0
M  V30 4021 H 374.094 -0.51039 4.82206 0
M  V30 4022 N 375.437 -1.54477 -0.31217 0
M  V30 4023 C 376.4 -1.83923 -1.36766 0
M  V30 4024 C 377.4 -0.711563 -1.44199 0
M  V30 4025 O 378.59 -0.979866 -1.44029 0
M  V30 4026 C 375.722 -2.0095 -2.75376 0
M  V30 4027 H 376.915 -2.78239 -1.11906 0
M  V30 4028 H 374.468 -1.46369 -0.548257 0
M  V30 4029 H 375.203 -1.08883 -3.05475 0
M  V30 4030 H 374.988 -2.83018 -2.71373 0
M  V30 4031 H 376.478 -2.2514 -3.51713 0
M  V30 4032 N 376.915 0.57481 -1.46744 0
M  V30 4033 C 377.825 1.711 -1.60505 0
M  V30 4034 C 378.841 1.67008 -0.488307 0
M  V30 4035 O 380.017 1.86774 -0.753495 0
M  V30 4036 C 377.082 3.07608 -1.59932 0
M  V30 4037 C 376.143 3.22904 -2.82898 0
M  V30 4038 C 375.376 4.529 -2.82343 0
M  V30 4039 O 375.599 5.37278 -1.91542 0
M  V30 4040 O 374.533 4.71611 -3.73987 0
M  V30 4041 H 378.359 1.62436 -2.56609 0
M  V30 4042 H 375.944 0.742779 -1.29627 0
M  V30 4043 H 377.826 3.88877 -1.62336 0
M  V30 4044 H 376.501 3.16692 -0.669898 0
M  V30 4045 H 375.408 2.41099 -2.86046 0
M  V30 4046 H 376.741 3.18715 -3.75076 0
M  V30 4047 N 378.394 1.34581 0.820102 0
M  V30 4048 C 379.81 1.14325 1.11364 0
M  V30 4049 C 380.01 -0.0533648 2.01429 0
M  V30 4050 O 379.066 -0.728044 2.41776 0
M  V30 4051 C 380.379 2.43983 1.75764 0
M  V30 4052 C 381.927 2.50065 1.88246 0
M  V30 4053 C 382.402 3.79732 2.56061 0
M  V30 4054 N 383.893 3.80908 2.63558 0
M  V30 4055 C 384.628 4.77961 3.16766 0
M  V30 4056 N 384.124 5.85397 3.70517 0
M  V30 4057 N 385.917 4.65413 3.15194 0
M  V30 4058 H 378.068 2.11246 0.221096 0
M  V30 4059 H 380.331 0.934289 0.160649 0
M  V30 4060 H 380.037 3.31651 1.1705 0
M  V30 4061 H 379.911 2.57531 2.75604 0
M  V30 4062 H 382.298 1.62834 2.46108 0
M  V30 4063 H 382.379 2.40442 0.873006 0
M  V30 4064 H 382.023 4.67354 1.98853 0
M  V30 4065 H 381.953 3.86639 3.57516 0
M  V30 4066 H 384.444 3.03274 2.25463 0
M  V30 4067 H 384.757 6.55463 4.09376 0
M  V30 4068 H 383.102 5.89107 3.68752 0
M  V30 4069 H 386.293 3.80627 2.72471 0
M  V30 4070 H 386.466 5.41216 3.56356 0
M  V30 4071 N 379.872 -1.04064 1.18357 0
M  V30 4072 C 380.802 -2.14001 0.934113 0
M  V30 4073 C 381.783 -1.69616 -0.128186 0
M  V30 4074 O 382.968 -1.94185 0.0244093 0
M  V30 4075 C 380.098 -3.44253 0.459066 0
M  V30 4076 C 379.052 -4.02261 1.46185 0
M  V30 4077 C 378.378 -5.27992 0.844322 0
M  V30 4078 C 379.678 -4.38432 2.83856 0
M  V30 4079 H 381.372 -2.35127 1.85352 0
M  V30 4080 H 378.918 -1.12998 0.892604 0
M  V30 4081 H 380.871 -4.20522 0.271907 0
M  V30 4082 H 379.595 -3.22813 -0.495912 0
M  V30 4083 H 378.254 -3.28074 1.63595 0
M  V30 4084 H 377.902 -5.02862 -0.117845 0
M  V30 4085 H 377.602 -5.67765 1.51384 0
M  V30 4086 H 379.126 -6.06938 0.667693 0
M  V30 4087 H 380.54 -5.05688 2.70098 0
M  V30 4088 H 378.937 -4.89254 3.47491 0
M  V30 4089 H 380.007 -3.4826 3.37406 0
M  V30 4090 N 381.35 -0.985608 -1.22978 0
M  V30 4091 C 382.3 -0.50118 -2.22423 0
M  V30 4092 C 383.284 0.426649 -1.5514 0
M  V30 4093 O 384.476 0.254656 -1.75159 0
M  V30 4094 C 381.605 0.190003 -3.42774 0
M  V30 4095 C 380.691 -0.757703 -4.17276 0
M  V30 4096 N 381.082 -1.90251 -4.68656 0
M  V30 4097 C 379.38 -0.57209 -4.42316 0
M  V30 4098 C 380.081 -2.49676 -5.25392 0
M  V30 4099 N 379.057 -1.78013 -5.13627 0
M  V30 4100 H 382.859 -1.37441 -2.59783 0
M  V30 4101 H 380.373 -0.846941 -1.38567 0
M  V30 4102 H 382.37 0.55439 -4.13197 0
M  V30 4103 H 381.03 1.05946 -3.06929 0
M  V30 4104 H 382.041 -2.28354 -4.64839 0
M  V30 4105 H 378.718 0.251909 -4.16739 0
M  V30 4106 H 380.108 -3.46384 -5.75732 0
M  V30 4107 N 382.828 1.3818 -0.7579 0
M  V30 4108 C 384.244 1.5353 -0.435972 0
M  V30 4109 C 384.444 1.71961 1.05032 0
M  V30 4110 O 383.5 1.73307 1.83633 0
M  V30 4111 C 384.813 2.73989 -1.23898 0
M  V30 4112 C 386.361 2.87841 -1.22949 0
M  V30 4113 C 386.836 4.11266 -2.01554 0
M  V30 4114 N 388.327 4.18352 -1.98837 0
M  V30 4115 C 389.062 5.12856 -2.5645 0
M  V30 4116 N 388.558 6.13005 -3.22794 0
M  V30 4117 N 390.351 5.05238 -2.46356 0
M  V30 4118 H 382.502 1.24467 -1.7211 0
M  V30 4119 H 384.765 0.604982 -0.729864 0
M  V30 4120 H 384.471 2.66789 -2.29165 0
M  V30 4121 H 384.345 3.67294 -0.858764 0
M  V30 4122 H 386.732 2.9452 -0.184854 0
M  V30 4123 H 386.813 1.95534 -1.64924 0
M  V30 4124 H 386.457 4.05349 -3.06031 0
M  V30 4125 H 386.387 5.02661 -1.5697 0
M  V30 4126 H 388.878 3.46628 -1.50524 0
M  V30 4127 H 389.191 6.81619 -3.64165 0
M  V30 4128 H 387.536 6.13325 -3.2689 0
M  V30 4129 H 390.727 4.25938 -1.9415 0
M  V30 4130 H 390.9 5.78707 -2.91552 0
M  V30 4131 N 384.306 0.507319 1.49211 0
M  V30 4132 C 385.269 -0.256763 2.27757 0
M  V30 4133 C 386.269 -0.888287 1.34038 0
M  V30 4134 O 387.459 -0.751841 1.5714 0
M  V30 4135 C 384.591 -1.36905 3.12202 0
M  V30 4136 H 385.784 0.432557 2.96764 0
M  V30 4137 H 383.337 0.262488 1.5408 0
M  V30 4138 H 384.072 -2.09233 2.47775 0
M  V30 4139 H 383.857 -0.921599 3.81115 0
M  V30 4140 H 385.347 -1.9071 3.7151 0
M  V30 4141 N 385.784 -1.5574 0.241426 0
M  V30 4142 C 386.714 -2.24133 -0.654722 0
M  V30 4143 C 387.695 -1.21974 -1.1856 0
M  V30 4144 O 388.88 -1.50612 -1.22595 0
M  V30 4145 C 386.01 -2.93659 -1.85423 0
M  V30 4146 C 384.964 -4.0246 -1.45636 0
M  V30 4147 C 384.29 -4.59383 -2.73626 0
M  V30 4148 C 385.59 -5.18468 -0.631506 0
M  V30 4149 H 387.284 -2.99281 -0.0844353 0
M  V30 4150 H 384.83 -1.43947 -0.0391707 0
M  V30 4151 H 386.783 -3.40203 -2.48676 0
M  V30 4152 H 385.507 -2.15991 -2.44981 0
M  V30 4153 H 384.166 -3.56676 -0.847202 0
M  V30 4154 H 383.814 -3.78422 -3.3137 0
M  V30 4155 H 383.514 -5.32826 -2.4773 0
M  V30 4156 H 385.038 -5.08658 -3.37786 0
M  V30 4157 H 386.452 -5.61272 -1.1682 0
M  V30 4158 H 384.849 -5.98266 -0.468831 0
M  V30 4159 H 385.919 -4.8358 0.357506 0
M  V30 4160 N 387.262 0.0317525 -1.57568 0
M  V30 4161 C 388.209 1.0332 -2.06382 0
M  V30 4162 C 389.179 1.36082 -0.952414 0
M  V30 4163 O 390.364 1.46466 -1.2228 0
M  V30 4164 C 387.504 2.32989 -2.54578 0
M  V30 4165 C 386.617 2.0641 -3.79498 0
M  V30 4166 C 385.752 3.2993 -4.16317 0
M  V30 4167 C 384.791 2.98893 -5.34162 0
M  V30 4168 N 383.928 4.14857 -5.66426 0
M  V30 4169 H 388.768 0.609982 -2.9169 0
M  V30 4170 H 386.305 0.289573 -1.44222 0
M  V30 4171 H 388.263 3.0875 -2.80587 0
M  V30 4172 H 386.893 2.73039 -1.7219 0
M  V30 4173 H 385.945 1.21158 -3.6059 0
M  V30 4174 H 387.257 1.79513 -4.65378 0
M  V30 4175 H 386.411 4.1406 -4.4344 0
M  V30 4176 H 385.15 3.59938 -3.29083 0
M  V30 4177 H 384.155 2.13164 -5.06795 0
M  V30 4178 H 385.38 2.70165 -6.23047 0
M  V30 4179 H 383.326 4.44821 -4.82151 0
M  V30 4180 H 383.243 3.91374 -6.4681 0
M  V30 4181 H 384.511 4.99868 -5.98124 0
M  V30 4182 N 388.74 1.54641 0.303973 0
M  V30 4183 C 389.988 1.73437 1.0375 0
M  V30 4184 C 390.309 0.521449 1.87899 0
M  V30 4185 O 389.579 -0.46432 1.90318 0
M  V30 4186 H 388.159 0.639518 0.386039 0
M  V30 4187 H 390.821 1.91988 0.335675 0
M  V30 4188 H 389.917 2.62235 1.69231 0
M  V30 4189 N 390.218 -0.567019 1.47046 0
M  V30 4190 C 391.467 -1.32091 1.5243 0
M  V30 4191 C 391.78 -1.94704 0.187021 0
M  V30 4192 O 392.986 -2.7124 0.118771 0
M  V30 4193 C 391.442 -2.39479 2.68659 0
M  V30 4194 C 391.05 -1.831 4.08874 0
M  V30 4195 C 392.794 -3.16111 2.83327 0
M  V30 4196 C 390.701 -2.8821 5.16419 0
M  V30 4197 H 389.631 -0.496629 0.56734 0
M  V30 4198 H 392.282 -0.603354 1.73297 0
M  V30 4199 H 390.664 -3.14105 2.41152 0
M  V30 4200 H 391.838 -1.14913 4.46242 0
M  V30 4201 H 390.153 -1.19085 3.99008 0
M  V30 4202 H 392.75 -3.94585 3.60842 0
M  V30 4203 H 393.093 -3.69686 1.91411 0
M  V30 4204 H 393.626 -2.48595 3.10556 0
M  V30 4205 H 390.365 -2.39504 6.10179 0
M  V30 4206 H 389.885 -3.54839 4.8358 0
M  V30 4207 H 391.564 -3.51881 5.42945 0
M  V30 4208 N 391.696 -1.35014 -0.812953 0
M  V30 4209 C 392.944 -1.27678 -1.56661 0
M  V30 4210 C 393.265 0.150359 -1.94419 0
M  V30 4211 O 392.535 1.08532 -1.63088 0
M  V30 4212 H 391.115 -0.469602 -0.580933 0
M  V30 4213 H 393.777 -1.69043 -0.970076 0
M  V30 4214 H 392.873 -1.88833 -2.48492 0
M  V30 4215 N 393.175 1.03435 -1.18907 0
M  V30 4216 C 394.403 1.80381 -1.01342 0
M  V30 4217 C 394.818 1.83649 0.438005 0
M  V30 4218 O 394.175 1.27655 1.30424 0
M  V30 4219 C 394.226 3.25689 -1.56873 0
M  V30 4220 O 393.947 3.22673 -2.96334 0
M  V30 4221 C 395.448 4.19255 -1.44014 0
M  V30 4222 H 392.668 0.56784 -0.35749 0
M  V30 4223 H 395.212 1.30317 -1.576 0
M  V30 4224 H 393.367 3.72962 -1.04777 0
M  V30 4225 H 393.781 4.13748 -3.22355 0
M  V30 4226 H 395.255 5.19123 -1.87657 0
M  V30 4227 H 395.732 4.37467 -0.389815 0
M  V30 4228 H 396.338 3.77851 -1.95214 0
M  V30 4229 N 394.653 0.992116 1.22453 0
M  V30 4230 C 395.93 0.583508 1.86694 0
M  V30 4231 C 396.31 -0.9392 1.89056 0
M  V30 4232 O 395.658 -1.82081 1.38053 0
M  V30 4233 C 395.868 1.20304 3.2761 0
M  V30 4234 C 397.216 1.30308 4.0411 0
M  V30 4235 O 398.24 1.15737 3.36873 0
M  V30 4236 O 397.099 1.53615 5.24466 0
M  V30 4237 H 394.193 0.198129 0.802916 0
M  V30 4238 H 396.739 1.08794 1.30238 0
M  V30 4239 H 395.511 2.24461 3.2052 0
M  V30 4240 H 395.134 0.684144 3.9167 0
M  V30 4241 N 396.131 -1.37776 0.765217 0
M  V30 4242 C 397.041 -2.34135 0.147666 0
M  V30 4243 C 398.057 -1.59854 -0.687215 0
M  V30 4244 O 399.233 -1.91983 -0.608659 0
M  V30 4245 C 396.298 -3.3901 -0.72617 0
M  V30 4246 C 395.359 -4.2912 0.124417 0
M  V30 4247 C 394.592 -5.28986 -0.707807 0
M  V30 4248 O 394.815 -5.36205 -1.94525 0
M  V30 4249 O 393.749 -6.01779 -0.12046 0
M  V30 4250 H 397.575 -2.88664 0.943758 0
M  V30 4251 H 395.16 -1.39824 0.526277 0
M  V30 4252 H 397.042 -4.03195 -1.22524 0
M  V30 4253 H 395.717 -2.86819 -1.50056 0
M  V30 4254 H 394.624 -3.68057 0.669696 0
M  V30 4255 H 395.957 -4.84598 0.861736 0
M  V30 4256 N 397.609 -0.515225 -1.4894 0
M  V30 4257 C 398.856 0.024215 -2.02486 0
M  V30 4258 C 399.184 1.35671 -1.39368 0
M  V30 4259 O 398.439 1.88566 -0.523574 0
M  V30 4260 C 398.738 0.210595 -3.56779 0
M  V30 4261 C 398.404 -1.04569 -4.38607 0
M  V30 4262 C 397.066 -1.39002 -4.60686 0
M  V30 4263 C 399.418 -1.88008 -4.86109 0
M  V30 4264 C 396.746 -2.568 -5.27514 0
M  V30 4265 C 399.098 -3.04972 -5.54234 0
M  V30 4266 C 397.762 -3.39768 -5.74555 0
M  V30 4267 H 397.032 0.00886088 -0.740947 0
M  V30 4268 H 399.679 -0.678263 -1.79086 0
M  V30 4269 H 397.984 0.99572 -3.78936 0
M  V30 4270 H 399.681 0.642659 -3.95817 0
M  V30 4271 H 396.271 -0.767497 -4.21672 0
M  V30 4272 H 400.455 -1.62719 -4.68867 0
M  V30 4273 H 395.711 -2.8398 -5.41447 0
M  V30 4274 H 399.885 -3.69943 -5.90013 0
M  V30 4275 H 397.512 -4.31148 -6.26112 0
M  V30 4276 N 399.087 1.5561 -0.249682 0
M  V30 4277 C 400.315 2.03411 0.378352 0
M  V30 4278 C 400.73 1.12886 1.51335 0
M  V30 4279 O 400.087 0.143833 1.81932 0
M  V30 4280 C 400.138 3.50537 0.88351 0
M  V30 4281 O 399.859 4.37614 -0.20626 0
M  V30 4282 C 401.36 4.14113 1.58195 0
M  V30 4283 H 398.58 0.664994 0.08958 0
M  V30 4284 H 401.124 2.01044 -0.374357 0
M  V30 4285 H 399.279 3.5343 1.58639 0
M  V30 4286 H 399.693 5.24199 0.177782 0
M  V30 4287 H 401.167 5.18741 1.8871 0
M  V30 4288 H 401.644 3.60767 2.50487 0
M  V30 4289 H 402.25 4.15151 0.923573 0
M  V30 4290 N 400.565 -0.0233959 1.57583 0
M  V30 4291 C 401.495 -1.02162 2.09965 0
M  V30 4292 C 402.476 -1.3735 1.00344 0
M  V30 4293 O 403.661 -1.46135 1.27899 0
M  V30 4294 C 400.791 -2.32081 2.58371 0
M  V30 4295 C 399.745 -2.1112 3.72307 0
M  V30 4296 C 399.071 -3.46848 4.06941 0
M  V30 4297 C 400.371 -1.49276 5.00514 0
M  V30 4298 H 402.065 -0.585557 2.93618 0
M  V30 4299 H 399.611 -0.280218 1.41247 0
M  V30 4300 H 401.564 -3.02249 2.93639 0
M  V30 4301 H 400.288 -2.77758 1.71808 0
M  V30 4302 H 398.947 -1.43384 3.37397 0
M  V30 4303 H 398.595 -3.90184 3.17436 0
M  V30 4304 H 398.295 -3.33646 4.83688 0
M  V30 4305 H 399.819 -4.18369 4.44747 0
M  V30 4306 H 401.233 -2.09368 5.33702 0
M  V30 4307 H 399.63 -1.46632 5.8191 0
M  V30 4308 H 400.7 -0.459217 4.82721 0
M  V30 4309 N 402.043 -1.548 -0.295768 0
M  V30 4310 C 402.991 -1.86874 -1.38495 0
M  V30 4311 C 403.985 -0.742938 -1.52239 0
M  V30 4312 O 405.191 -0.926999 -1.54294 0
M  V30 4313 H 401.566 -0.592786 -0.462719 0
M  V30 4314 H 403.537 -2.77904 -1.08682 0
M  V30 4315 C 402.286 -2.13732 -2.74252 0
M  V30 4316 H 401.609 -2.99835 -2.64459 0
M  V30 4317 H 403.049 -2.4011 -3.49461 0
M  V30 4318 C 401.508 -0.937539 -3.23592 0
M  V30 4319 O 402.038 -0.160665 -4.01379 0
M  V30 4320 N 400.244 -0.741478 -2.80981 0
M  V30 4321 H 399.791 -1.37489 -2.1784 0
M  V30 4322 H 399.749 0.0597103 -3.14343 0
M  V30 4323 N 403.521 0.559213 -1.47345 0
M  V30 4324 C 404.937 0.884943 -1.32819 0
M  V30 4325 C 405.137 1.98988 -0.317173 0
M  V30 4326 O 404.193 2.51031 0.272011 0
M  V30 4327 C 405.506 1.28007 -2.72093 0
M  V30 4328 C 407.054 1.39161 -2.80363 0
M  V30 4329 C 407.529 1.82031 -4.20272 0
M  V30 4330 N 409.02 1.89185 -4.22804 0
M  V30 4331 C 409.755 2.2368 -5.27973 0
M  V30 4332 N 409.251 2.56802 -6.43447 0
M  V30 4333 N 411.044 2.24436 -5.15349 0
M  V30 4334 H 403.195 -0.170304 -2.11716 0
M  V30 4335 H 405.458 -0.0135247 -0.947904 0
M  V30 4336 H 405.164 0.542027 -3.47498 0
M  V30 4337 H 405.038 2.23665 -3.03733 0
M  V30 4338 H 407.425 2.12048 -2.05231 0
M  V30 4339 H 407.506 0.41696 -2.52379 0
M  V30 4340 H 407.15 1.09715 -4.95908 0
M  V30 4341 H 407.08 2.80495 -4.45679 0
M  V30 4342 H 409.571 1.65982 -3.39497 0
M  V30 4343 H 409.884 2.82144 -7.19454 0
M  V30 4344 H 408.229 2.54387 -6.46771 0
M  V30 4345 H 411.42 1.97998 -4.24163 0
M  V30 4346 H 411.593 2.50989 -5.97418 0
M  V30 4347 N 404.999 1.35443 0.805782 0
M  V30 4348 C 406.248 1.28097 1.55801 0
M  V30 4349 C 406.561 -0.142428 1.95081 0
M  V30 4350 O 407.767 -0.33817 2.69386 0
M  V30 4351 C 406.223 2.24653 2.81174 0
M  V30 4352 C 405.831 3.72342 2.49129 0
M  V30 4353 C 407.575 2.2625 3.59181 0
M  V30 4354 C 405.482 4.60719 3.70799 0
M  V30 4355 H 404.412 0.475937 0.584808 0
M  V30 4356 H 407.063 1.60712 0.885661 0
M  V30 4357 H 405.445 1.85011 3.50124 0
M  V30 4358 H 406.619 4.20624 1.88181 0
M  V30 4359 H 404.934 3.73361 1.84366 0
M  V30 4360 H 407.531 2.89495 4.49552 0
M  V30 4361 H 407.874 1.26647 3.96568 0
M  V30 4362 H 408.407 2.64426 2.97193 0
M  V30 4363 H 405.146 5.61324 3.3852 0
M  V30 4364 H 404.666 4.17163 4.3097 0
M  V30 4365 H 406.345 4.76182 4.38018 0
M  V30 4366 N 406.477 -1.02803 1.19454 0
M  V30 4367 C 407.41 -2.107 0.876396 0
M  V30 4368 C 408.388 -1.61741 -0.166897 0
M  V30 4369 O 409.572 -1.88451 -0.0430195 0
M  V30 4370 C 406.699 -3.37262 0.311758 0
M  V30 4371 C 405.745 -4.05093 1.33424 0
M  V30 4372 S 406.578 -4.50498 2.89503 0
M  V30 4373 C 407.734 -5.80277 2.34584 0
M  V30 4374 H 407.967 -2.37362 1.79016 0
M  V30 4375 H 405.5 -1.15755 1.02177 0
M  V30 4376 H 407.458 -4.10499 -0.00748752 0
M  V30 4377 H 406.119 -3.08693 -0.58032 0
M  V30 4378 H 405.312 -4.9611 0.888302 0
M  V30 4379 H 404.914 -3.3803 1.60037 0
M  V30 4380 H 407.206 -6.54873 1.73633 0
M  V30 4381 H 408.149 -6.29651 3.23952 0
M  V30 4382 H 408.557 -5.3599 1.77131 0
M  V30 4383 N 407.956 -0.998596 -1.21925 0
M  V30 4384 C 409.202 -0.678667 -1.91107 0
M  V30 4385 C 409.535 0.78791 -1.77498 0
M  V30 4386 O 408.81 1.57043 -1.1475 0
M  V30 4387 C 409.093 -1.09245 -3.43129 0
M  V30 4388 C 408.946 -2.61801 -3.6576 0
M  V30 4389 C 410.265 -0.649984 -4.35274 0
M  V30 4390 H 407.384 -0.248025 -0.694012 0
M  V30 4391 H 410.026 -1.24314 -1.43688 0
M  V30 4392 H 408.176 -0.612171 -3.83647 0
M  V30 4393 H 409.848 -3.17543 -3.34611 0
M  V30 4394 H 408.091 -3.03609 -3.09845 0
M  V30 4395 H 408.762 -2.85804 -4.7225 0
M  V30 4396 H 411.238 -1.0626 -4.02303 0
M  V30 4397 H 410.114 -0.967743 -5.40302 0
M  V30 4398 H 410.375 0.449139 -4.39813 0
M  V30 4399 N 409.434 1.37368 -0.772513 0
M  V30 4400 C 410.659 2.0447 -0.347386 0
M  V30 4401 C 411.084 1.57882 1.0225 0
M  V30 4402 O 410.442 0.73941 1.65537 0
M  V30 4403 C 410.49 3.58369 -0.400479 0
M  V30 4404 O 409.594 4.0803 0.598789 0
M  V30 4405 H 408.935 0.646773 -0.15027 0
M  V30 4406 H 411.465 1.75667 -1.04892 0
M  V30 4407 H 411.475 4.07183 -0.258045 0
M  V30 4408 H 410.15 3.91633 -1.39986 0
M  V30 4409 H 408.727 3.70534 0.419411 0
M  V30 4410 N 410.912 0.523116 1.48665 0
M  V30 4411 C 412.328 0.180511 1.58576 0
M  V30 4412 C 412.528 -1.31597 1.52592 0
M  V30 4413 O 411.584 -2.0937 1.4114 0
M  V30 4414 C 412.897 0.776949 2.90489 0
M  V30 4415 C 414.445 0.745058 3.04003 0
M  V30 4416 C 414.92 1.31995 4.38567 0
M  V30 4417 N 416.411 1.28162 4.45117 0
M  V30 4418 C 417.146 1.6964 5.47731 0
M  V30 4419 N 416.642 2.18816 6.57337 0
M  V30 4420 N 418.435 1.6092 5.38573 0
M  V30 4421 H 410.586 1.4958 1.50797 0
M  V30 4422 H 412.849 0.621772 0.715614 0
M  V30 4423 H 412.555 1.82732 3.00503 0
M  V30 4424 H 412.429 0.25007 3.7637 0
M  V30 4425 H 414.816 -0.296532 2.93606 0
M  V30 4426 H 414.897 1.30933 2.1975 0
M  V30 4427 H 414.541 2.36043 4.49718 0
M  V30 4428 H 414.471 0.731418 5.21496 0
M  V30 4429 H 416.962 0.92155 3.66491 0
M  V30 4430 H 417.275 2.48478 7.31764 0
M  V30 4431 H 415.62 2.22805 6.58318 0
M  V30 4432 H 418.811 1.22304 4.5184 0
M  V30 4433 H 418.984 1.93567 6.18414 0
M  V30 4434 N 412.39 -1.55475 0.257931 0
M  V30 4435 C 413.615 -2.04064 -0.370488 0
M  V30 4436 C 414.04 -1.13565 -1.49948 0
M  V30 4437 O 413.398 -0.130781 -1.80828 0
M  V30 4438 C 413.446 -3.50554 -0.845237 0
M  V30 4439 O 412.55 -3.63173 -1.95394 0
M  V30 4440 H 411.891 -0.659257 -0.0792243 0
M  V30 4441 H 414.421 -2.00903 0.387212 0
M  V30 4442 H 414.431 -3.91588 -1.14555 0
M  V30 4443 H 413.106 -4.15896 -0.0191259 0
M  V30 4444 H 411.683 -3.34039 -1.65748 0
M  V30 4445 N 413.868 0.0150385 -1.57593 0
M  V30 4446 C 414.778 1.02791 -2.10882 0
M  V30 4447 C 415.794 1.38702 -1.0506 0
M  V30 4448 O 416.97 1.47739 -1.36877 0
M  V30 4449 C 414.035 2.30568 -2.58919 0
M  V30 4450 C 413.096 2.01108 -3.79281 0
M  V30 4451 C 412.329 3.22794 -4.25018 0
M  V30 4452 O 412.552 4.33959 -3.70183 0
M  V30 4453 O 411.486 3.07672 -5.17322 0
M  V30 4454 H 415.312 0.604973 -2.97613 0
M  V30 4455 H 412.897 0.23292 -1.47573 0
M  V30 4456 H 414.779 3.05662 -2.90084 0
M  V30 4457 H 413.454 2.72129 -1.75293 0
M  V30 4458 H 412.361 1.23537 -3.53114 0
M  V30 4459 H 413.694 1.64394 -4.63935 0
M  V30 4460 N 415.346 1.54954 0.287554 0
M  V30 4461 C 416.595 1.74081 1.01877 0
M  V30 4462 C 416.908 0.541135 1.87966 0
M  V30 4463 O 418.114 0.614491 2.64455 0
M  V30 4464 C 416.57 3.08042 1.86113 0
M  V30 4465 C 416.178 4.35531 1.04961 0
M  V30 4466 C 417.922 3.36523 2.58752 0
M  V30 4467 C 415.829 5.60538 1.88551 0
M  V30 4468 H 414.759 0.64884 0.384087 0
M  V30 4469 H 417.41 1.81426 0.275101 0
M  V30 4470 H 415.792 2.94696 2.64519 0
M  V30 4471 H 416.966 4.59751 0.31074 0
M  V30 4472 H 415.281 4.14085 0.43843 0
M  V30 4473 H 417.878 4.27122 3.21668 0
M  V30 4474 H 418.221 2.56 3.28283 0
M  V30 4475 H 418.754 3.50901 1.87386 0
M  V30 4476 H 415.493 6.43767 1.23466 0
M  V30 4477 H 415.013 5.40483 2.60074 0
M  V30 4478 H 416.692 5.98297 2.46273 0
M  V30 4479 N 416.824 -0.551391 1.4764 0
M  V30 4480 C 418.101 -1.31229 1.45046 0
M  V30 4481 C 418.481 -2.10563 0.150527 0
M  V30 4482 O 417.829 -2.11374 -0.867956 0
M  V30 4483 C 418.039 -2.21189 2.69956 0
M  V30 4484 C 419.387 -2.82021 3.1741 0
M  V30 4485 O 420.411 -2.31488 2.70724 0
M  V30 4486 O 419.27 -3.73885 3.98588 0
M  V30 4487 H 416.364 -0.591193 0.578291 0
M  V30 4488 H 418.91 -0.569813 1.59847 0
M  V30 4489 H 417.682 -1.62207 3.56096 0
M  V30 4490 H 417.305 -3.02722 2.57769 0
M  V30 4491 N 418.302 -1.35869 -0.798587 0
M  V30 4492 C 419.232 -1.32118 -1.92528 0
M  V30 4493 C 420.213 -0.194209 -1.68988 0
M  V30 4494 O 421.398 -0.390426 -1.90235 0
M  V30 4495 C 418.528 -1.10047 -3.29404 0
M  V30 4496 C 417.482 -2.19471 -3.67446 0
M  V30 4497 C 416.808 -1.82555 -5.02571 0
M  V30 4498 C 418.108 -3.61495 -3.76987 0
M  V30 4499 H 419.802 -2.26394 -1.95924 0
M  V30 4500 H 417.348 -1.08981 -0.94123 0
M  V30 4501 H 419.301 -1.06061 -4.07835 0
M  V30 4502 H 418.025 -0.122195 -3.26371 0
M  V30 4503 H 416.684 -2.22568 -2.91306 0
M  V30 4504 H 416.332 -0.833249 -4.9605 0
M  V30 4505 H 416.032 -2.5581 -5.28995 0
M  V30 4506 H 417.556 -1.80108 -5.83432 0
M  V30 4507 H 418.97 -3.60676 -4.4563 0
M  V30 4508 H 417.367 -4.33577 -4.14887 0
M  V30 4509 H 418.437 -3.97065 -2.78329 0
M  V30 4510 N 419.78 1.02168 -1.19998 0
M  V30 4511 C 420.71 2.12488 -0.96804 0
M  V30 4512 C 421.691 1.69799 0.101185 0
M  V30 4513 O 422.876 1.94121 -0.0552993 0
M  V30 4514 C 420.006 3.43479 -0.513776 0
M  V30 4515 C 418.96 3.99884 -1.52566 0
M  V30 4516 C 418.286 5.26582 -0.928214 0
M  V30 4517 C 419.586 4.33861 -2.90795 0
M  V30 4518 H 421.28 2.32149 -1.89069 0
M  V30 4519 H 418.826 1.11564 -0.910468 0
M  V30 4520 H 420.779 4.20036 -0.338774 0
M  V30 4521 H 419.503 3.23561 0.444493 0
M  V30 4522 H 418.162 3.25429 -1.68794 0
M  V30 4523 H 417.81 5.02986 0.0378289 0
M  V30 4524 H 417.51 5.65284 -1.60397 0
M  V30 4525 H 419.034 6.05799 -0.764167 0
M  V30 4526 H 420.448 5.01327 -2.78109 0
M  V30 4527 H 418.845 4.83664 -3.55231 0
M  V30 4528 H 419.915 3.42848 -3.42904 0
M  V30 4529 N 421.258 1.00505 1.21394 0
M  V30 4530 C 422.535 0.603277 1.86064 0
M  V30 4531 C 422.915 -0.919095 1.90042 0
M  V30 4532 O 422.263 -1.80607 1.39977 0
M  V30 4533 C 422.473 1.23772 3.26315 0
M  V30 4534 C 423.821 1.34586 4.02705 0
M  V30 4535 O 424.845 1.19304 3.35626 0
M  V30 4536 O 423.704 1.59169 5.22807 0
M  V30 4537 H 420.798 0.206634 0.800769 0
M  V30 4538 H 423.344 1.1017 1.29076 0
M  V30 4539 H 422.116 2.27848 3.18121 0
M  V30 4540 H 421.739 0.725648 3.90922 0
M  V30 4541 N 422.737 -1.36956 0.779787 0
M  V30 4542 C 423.986 -1.98738 0.344405 0
M  V30 4543 C 424.299 -1.62596 -1.08728 0
M  V30 4544 O 425.505 -2.1754 -1.62445 0
M  V30 4545 C 423.961 -3.5544 0.564829 0
M  V30 4546 C 423.569 -4.00514 2.0073 0
M  V30 4547 C 425.313 -4.24059 0.193471 0
M  V30 4548 C 423.22 -5.49957 2.17489 0
M  V30 4549 H 422.15 -0.743561 0.12503 0
M  V30 4550 H 424.801 -1.56381 0.960057 0
M  V30 4551 H 423.183 -3.95817 -0.120397 0
M  V30 4552 H 424.357 -3.71362 2.72814 0
M  V30 4553 H 422.672 -3.44703 2.336 0
M  V30 4554 H 425.269 -5.33874 0.297097 0
M  V30 4555 H 425.612 -4.07378 -0.857263 0
M  V30 4556 H 426.145 -3.89012 0.831556 0
M  V30 4557 H 422.884 -5.71574 3.2091 0
M  V30 4558 H 422.404 -5.80767 1.49899 0
M  V30 4559 H 424.083 -6.16043 1.97738 0
M  V30 4560 N 424.215 -0.530993 -1.48385 0
M  V30 4561 C 425.631 -0.188919 -1.58478 0
M  V30 4562 C 425.831 1.30786 -1.53288 0
M  V30 4563 O 424.887 2.08619 -1.42248 0
M  V30 4564 C 426.2 -0.792343 -2.90073 0
M  V30 4565 C 427.748 -0.76117 -3.03604 0
M  V30 4566 C 428.223 -1.34319 -4.37861 0
M  V30 4567 N 429.714 -1.3052 -4.44431 0
M  V30 4568 C 430.449 -1.72543 -5.46824 0
M  V30 4569 N 429.945 -2.22299 -6.56167 0
M  V30 4570 N 431.738 -1.63773 -5.37712 0
M  V30 4571 H 423.889 -1.50377 -1.50002 0
M  V30 4572 H 426.152 -0.625559 -0.712306 0
M  V30 4573 H 425.858 -1.84323 -2.99529 0
M  V30 4574 H 425.732 -0.270026 -3.76232 0
M  V30 4575 H 428.119 0.280957 -2.93759 0
M  V30 4576 H 428.2 -1.32097 -2.19053 0
M  V30 4577 H 427.844 -2.38425 -4.4846 0
M  V30 4578 H 427.774 -0.759064 -5.21101 0
M  V30 4579 H 430.265 -0.940973 -3.65997 0
M  V30 4580 H 430.578 -2.52356 -7.30436 0
M  V30 4581 H 428.923 -2.26293 -6.57127 0
M  V30 4582 H 432.114 -1.24698 -4.51185 0
M  V30 4583 H 432.287 -1.96844 -6.17379 0
M  V30 4584 N 425.693 1.55336 -0.266172 0
M  V30 4585 C 426.921 2.03801 0.356756 0
M  V30 4586 C 427.336 1.14485 1.50129 0
M  V30 4587 O 426.693 0.163121 1.8177 0
M  V30 4588 C 426.744 3.51455 0.846281 0
M  V30 4589 O 426.465 4.37371 -0.252663 0
M  V30 4590 C 427.966 4.15767 1.53794 0
M  V30 4591 H 425.186 0.665906 0.0825218 0
M  V30 4592 H 427.73 2.00636 -0.39566 0
M  V30 4593 H 425.885 3.55092 1.54881 0
M  V30 4594 H 426.299 5.24358 0.122173 0
M  V30 4595 H 427.773 5.20714 1.83198 0
M  V30 4596 H 428.25 3.63404 2.46646 0
M  V30 4597 H 428.856 4.16107 0.879488 0
M  V30 4598 N 427.171 -0.0066808 1.57599 0
M  V30 4599 C 428.081 -1.01671 2.11424 0
M  V30 4600 C 429.097 -1.38143 1.05795 0
M  V30 4601 O 430.273 -1.47011 1.37658 0
M  V30 4602 C 427.338 -2.29192 2.60139 0
M  V30 4603 C 426.399 -1.99094 3.80342 0
M  V30 4604 C 425.632 -3.20535 4.26724 0
M  V30 4605 O 425.855 -4.3199 3.72479 0
M  V30 4606 O 424.789 -3.04924 5.18946 0
M  V30 4607 H 428.615 -0.589181 2.9793 0
M  V30 4608 H 426.2 -0.225091 1.47695 0
M  V30 4609 H 428.082 -3.0412 2.917 0
M  V30 4610 H 426.757 -2.71195 1.76733 0
M  V30 4611 H 425.664 -1.21663 3.53764 0
M  V30 4612 H 426.997 -1.61931 4.648 0
M  V30 4613 N 428.649 -1.55105 -0.279332 0
M  V30 4614 C 429.896 -1.75412 -1.01177 0
M  V30 4615 C 430.224 -0.551728 -1.86511 0
M  V30 4616 O 429.479 0.465919 -1.90073 0
M  V30 4617 C 429.778 -3.0086 -1.92919 0
M  V30 4618 C 429.444 -4.33689 -1.23387 0
M  V30 4619 C 428.106 -4.69792 -1.04159 0
M  V30 4620 C 430.458 -5.15941 -0.738562 0
M  V30 4621 C 427.786 -5.85707 -0.341166 0
M  V30 4622 C 430.138 -6.32579 -0.0517636 0
M  V30 4623 C 428.802 -6.67326 0.152292 0
M  V30 4624 H 428.072 -0.641879 -0.370233 0
M  V30 4625 H 430.719 -1.89373 -0.284627 0
M  V30 4626 H 429.024 -2.81773 -2.72234 0
M  V30 4627 H 430.721 -3.13768 -2.49701 0
M  V30 4628 H 427.311 -4.05309 -1.39364 0
M  V30 4629 H 431.495 -4.8853 -0.874764 0
M  V30 4630 H 426.751 -6.11157 -0.172287 0
M  V30 4631 H 430.925 -6.9557 0.339828 0
M  V30 4632 H 428.552 -7.56998 0.697014 0
M  V30 4633 N 430.127 0.543554 -1.4793 0
M  V30 4634 C 431.074 1.64942 -1.6144 0
M  V30 4635 C 432.044 1.59692 -0.456903 0
M  V30 4636 O 433.229 1.78321 -0.678688 0
M  V30 4637 C 430.369 3.03238 -1.64744 0
M  V30 4638 C 429.482 3.18823 -2.91506 0
M  V30 4639 C 428.617 4.47599 -2.86057 0
M  V30 4640 C 427.656 4.56664 -4.07584 0
M  V30 4641 N 426.793 5.76811 -4.00292 0
M  V30 4642 H 431.633 1.52733 -2.55884 0
M  V30 4643 H 429.17 0.7438 -1.2691 0
M  V30 4644 H 431.128 3.83339 -1.64641 0
M  V30 4645 H 429.758 3.1425 -0.738017 0
M  V30 4646 H 428.81 2.32064 -3.01414 0
M  V30 4647 H 430.122 3.21384 -3.81463 0
M  V30 4648 H 429.276 5.35975 -2.84281 0
M  V30 4649 H 428.015 4.47538 -1.93807 0
M  V30 4650 H 427.02 3.66697 -4.09651 0
M  V30 4651 H 428.245 4.58474 -5.00978 0
M  V30 4652 H 426.191 5.77673 -3.10853 0
M  V30 4653 H 426.108 5.80808 -4.8394 0
M  V30 4654 H 427.376 6.67512 -4.02553 0
M  V30 4655 N 431.605 1.3629 0.791371 0
M  V30 4656 C 432.552 1.30458 1.90393 0
M  V30 4657 C 433.522 0.173632 1.6519 0
M  V30 4658 O 434.707 0.35983 1.87376 0
M  V30 4659 C 431.847 1.09777 3.27174 0
M  V30 4660 C 430.96 2.31929 3.64462 0
M  V30 4661 C 430.095 2.04276 4.90352 0
M  V30 4662 C 429.134 3.224 5.20312 0
M  V30 4663 N 428.271 2.94424 6.37385 0
M  V30 4664 H 433.111 2.25589 1.94714 0
M  V30 4665 H 430.648 1.12122 0.952216 0
M  V30 4666 H 432.606 0.958133 4.06049 0
M  V30 4667 H 431.236 0.183014 3.22281 0
M  V30 4668 H 430.288 2.56703 2.80727 0
M  V30 4669 H 431.6 3.20085 3.82553 0
M  V30 4670 H 430.754 1.87231 5.77087 0
M  V30 4671 H 429.493 1.13428 4.74326 0
M  V30 4672 H 428.498 3.40005 4.32061 0
M  V30 4673 H 429.723 4.14071 5.38258 0
M  V30 4674 H 427.669 2.06185 6.22755 0
M  V30 4675 H 427.586 3.76118 6.55798 0
M  V30 4676 H 428.854 2.80953 7.27108 0
M  V30 4677 N 433.083 -1.0153 1.20538 0
M  V30 4678 C 434.033 -2.08482 0.922991 0
M  V30 4679 C 435.017 -1.60469 -0.117702 0
M  V30 4680 O 436.209 -1.76772 0.0898465 0
M  V30 4681 C 433.338 -3.39952 0.478312 0
M  V30 4682 C 432.424 -3.94662 1.5525 0
M  V30 4683 N 432.815 -4.22866 2.77521 0
M  V30 4684 C 431.113 -4.22825 1.41897 0
M  V30 4685 C 431.814 -4.67002 3.4682 0
M  V30 4686 N 430.79 -4.69356 2.74237 0
M  V30 4687 H 434.592 -2.28199 1.85209 0
M  V30 4688 H 432.106 -1.19512 1.09957 0
M  V30 4689 H 434.103 -4.16105 0.257408 0
M  V30 4690 H 432.763 -3.21648 -0.444148 0
M  V30 4691 H 433.774 -4.11732 3.1416 0
M  V30 4692 H 430.451 -4.13714 0.561015 0
M  V30 4693 H 431.841 -4.97632 4.51455 0
M  V30 4694 N 434.561 -1.01147 -1.20859 0
M  V30 4695 C 435.791 -0.715872 -1.93801 0
M  V30 4696 C 436.199 0.726592 -1.74692 0
M  V30 4697 O 435.542 1.50397 -1.05482 0
M  V30 4698 C 435.604 -0.965269 -3.46299 0
M  V30 4699 C 435.268 -2.39584 -3.89164 0
M  V30 4700 C 436.265 -3.3764 -3.95342 0
M  V30 4701 C 433.95 -2.73522 -4.21297 0
M  V30 4702 C 435.944 -4.67698 -4.33056 0
M  V30 4703 C 433.631 -4.03794 -4.58687 0
M  V30 4704 C 434.629 -5.00693 -4.64538 0
M  V30 4705 O 434.317 -6.28635 -5.01072 0
M  V30 4706 H 434.049 -0.262524 -0.622942 0
M  V30 4707 H 436.603 -1.35413 -1.54443 0
M  V30 4708 H 434.833 -0.269847 -3.85757 0
M  V30 4709 H 436.522 -0.662051 -4.00464 0
M  V30 4710 H 437.288 -3.12757 -3.70686 0
M  V30 4711 H 433.167 -1.9879 -4.15937 0
M  V30 4712 H 436.711 -5.4333 -4.37537 0
M  V30 4713 H 432.608 -4.28459 -4.82797 0
M  V30 4714 H 433.376 -6.32847 -5.19083 0
M  V30 4715 N 436.039 1.36541 -0.78704 0
M  V30 4716 C 437.287 1.98911 -0.357633 0
M  V30 4717 C 437.608 1.62778 1.07371 0
M  V30 4718 O 436.878 0.900612 1.73971 0
M  V30 4719 H 435.458 0.735734 -0.129246 0
M  V30 4720 H 438.12 1.66776 -1.00855 0
M  V30 4721 H 437.216 3.08874 -0.447549 0
M  V30 4722 N 437.518 0.538854 1.48102 0
M  V30 4723 C 438.748 0.0122958 2.06596 0
M  V30 4724 C 439.156 -1.27861 1.39457 0
M  V30 4725 O 438.499 -1.77348 0.478907 0
M  V30 4726 C 438.561 -0.273131 3.58461 0
M  V30 4727 C 438.225 0.92561 4.47528 0
M  V30 4728 C 439.222 1.82637 4.86765 0
M  V30 4729 C 436.907 1.13511 4.89306 0
M  V30 4730 C 438.901 2.92047 5.66558 0
M  V30 4731 C 436.588 2.23233 5.68868 0
M  V30 4732 C 437.586 3.12333 6.07402 0
M  V30 4733 O 437.274 4.20155 6.85365 0
M  V30 4734 H 437.006 0.0344283 0.675123 0
M  V30 4735 H 439.56 0.746494 1.91355 0
M  V30 4736 H 437.79 -1.06141 3.71848 0
M  V30 4737 H 439.479 -0.742842 3.99045 0
M  V30 4738 H 440.245 1.67649 4.55103 0
M  V30 4739 H 436.124 0.450835 4.5879 0
M  V30 4740 H 439.668 3.6162 5.96554 0
M  V30 4741 H 435.565 2.38201 5.99942 0
M  V30 4742 H 436.333 4.17975 7.03732 0
M  V30 4743 N 438.996 -1.55193 0.274407 0
M  V30 4744 C 440.221 -2.04446 -0.348824 0
M  V30 4745 C 440.646 -1.15149 -1.48735 0
M  V30 4746 O 440.004 -0.149952 -1.80679 0
M  V30 4747 C 440.052 -3.51431 -0.808009 0
M  V30 4748 O 439.156 -3.65225 -1.91531 0
M  V30 4749 H 438.497 -0.66006 -0.0722276 0
M  V30 4750 H 441.027 -2.00481 0.408498 0
M  V30 4751 H 441.037 -3.92781 -1.10395 0
M  V30 4752 H 439.712 -4.15892 0.0249865 0
M  V30 4753 H 438.289 -3.35778 -1.62196 0
M  V30 4754 N 440.474 -0.00167713 -1.576 0
M  V30 4755 C 441.404 0.988091 -2.11563 0
M  V30 4756 C 442.385 1.35736 -1.02517 0
M  V30 4757 O 443.57 1.44082 -1.30208 0
M  V30 4758 C 440.7 2.27941 -2.62031 0
M  V30 4759 C 439.654 2.0517 -3.75619 0
M  V30 4760 C 438.98 3.4033 -4.12407 0
M  V30 4761 C 440.28 1.41294 -5.02825 0
M  V30 4762 H 441.974 0.538771 -2.94513 0
M  V30 4763 H 439.52 0.257712 -1.41675 0
M  V30 4764 H 441.473 2.97539 -2.9841 0
M  V30 4765 H 440.197 2.74989 -1.76205 0
M  V30 4766 H 438.856 1.37998 -3.39635 0
M  V30 4767 H 438.504 3.85085 -3.23603 0
M  V30 4768 H 438.204 3.25909 -4.88935 0
M  V30 4769 H 439.728 4.1124 -4.51347 0
M  V30 4770 H 441.142 2.00851 -5.36965 0
M  V30 4771 H 439.539 1.37356 -5.84169 0
M  V30 4772 H 440.609 0.382362 -4.8339 0
M  V30 4773 N 441.952 1.55251 0.271103 0
M  V30 4774 C 443.182 1.79713 1.01916 0
M  V30 4775 C 443.59 0.571613 1.80359 0
M  V30 4776 O 442.933 -0.468853 1.77616 0
M  V30 4777 C 442.995 2.97138 2.02359 0
M  V30 4778 C 442.659 4.34104 1.42837 0
M  V30 4779 C 443.656 5.13019 0.843071 0
M  V30 4780 C 441.341 4.80765 1.455 0
M  V30 4781 C 443.335 6.36729 0.292333 0
M  V30 4782 C 441.022 6.0443 0.900402 0
M  V30 4783 C 442.02 6.8225 0.32007 0
M  V30 4784 O 441.708 8.03582 -0.226031 0
M  V30 4785 H 441.44 0.602431 0.306681 0
M  V30 4786 H 443.994 2.03097 0.306701 0
M  V30 4787 H 442.224 2.6945 2.77369 0
M  V30 4788 H 443.913 3.08907 2.63309 0
M  V30 4789 H 444.679 4.781 0.815178 0
M  V30 4790 H 440.558 4.20202 1.89609 0
M  V30 4791 H 444.102 6.97414 -0.161274 0
M  V30 4792 H 439.999 6.3883 0.925541 0
M  V30 4793 H 440.767 8.18418 -0.115572 0
M  V30 4794 N 443.43 -0.535701 1.48216 0
M  V30 4795 C 444.655 -1.32149 1.59848 0
M  V30 4796 C 445.08 -1.86338 0.256842 0
M  V30 4797 O 444.438 -1.64107 -0.770632 0
M  V30 4798 C 444.486 -2.45224 2.64381 0
M  V30 4799 O 443.59 -3.48093 2.21144 0
M  V30 4800 H 442.931 -0.391634 0.536208 0
M  V30 4801 H 445.461 -0.645202 1.94161 0
M  V30 4802 H 445.471 -2.91491 2.85476 0
M  V30 4803 H 444.146 -2.05143 3.61786 0
M  V30 4804 H 442.723 -3.07984 2.10239 0
M  V30 4805 N 444.908 -1.36708 -0.784132 0
M  V30 4806 C 445.871 -1.31307 -1.87859 0
M  V30 4807 C 446.871 -0.219654 -1.59293 0
M  V30 4808 O 448.061 -0.47476 -1.67606 0
M  V30 4809 C 445.193 -1.03679 -3.24751 0
M  V30 4810 H 446.386 -2.28647 -1.94064 0
M  V30 4811 H 443.939 -1.21558 -0.98252 0
M  V30 4812 H 444.674 -0.0681936 -3.24228 0
M  V30 4813 H 444.459 -1.82811 -3.46876 0
M  V30 4814 H 445.949 -1.02518 -4.04821 0
M  V30 4815 N 446.386 1.0089 -1.21074 0
M  V30 4816 C 447.635 1.74019 -1.01981 0
M  V30 4817 C 447.948 1.90408 0.447665 0
M  V30 4818 O 449.154 2.60707 0.757906 0
M  V30 4819 C 447.61 3.13026 -1.77603 0
M  V30 4820 C 447.218 3.04623 -3.28495 0
M  V30 4821 C 448.962 3.90312 -1.66904 0
M  V30 4822 C 446.869 4.38685 -3.96623 0
M  V30 4823 H 445.799 0.652422 -0.377971 0
M  V30 4824 H 448.45 1.12755 -1.44771 0
M  V30 4825 H 446.832 3.74878 -1.27604 0
M  V30 4826 H 448.006 2.52032 -3.85767 0
M  V30 4827 H 446.321 2.40827 -3.39693 0
M  V30 4828 H 448.918 4.8951 -2.15138 0
M  V30 4829 H 449.261 4.11558 -0.62658 0
M  V30 4830 H 449.794 3.35104 -2.14359 0
M  V30 4831 H 446.533 4.22641 -5.01054 0
M  V30 4832 H 446.053 4.91252 -3.4414 0
M  V30 4833 H 447.732 5.075 -4.01314 0
M  V30 4834 N 447.864 1.01787 1.20321 0
M  V30 4835 C 448.811 0.589197 2.23153 0
M  V30 4836 C 449.781 -0.391367 1.61423 0
M  V30 4837 O 450.966 -0.290518 1.88575 0
M  V30 4838 C 448.106 -0.0650747 3.45039 0
M  V30 4839 C 447.219 0.960207 4.21194 0
M  V30 4840 C 446.354 0.276854 5.30478 0
M  V30 4841 C 445.393 1.2888 5.98378 0
M  V30 4842 N 444.53 0.632031 6.99249 0
M  V30 4843 H 449.37 1.47071 2.59179 0
M  V30 4844 H 446.907 0.736192 1.27352 0
M  V30 4845 H 448.865 -0.461552 4.14639 0
M  V30 4846 H 447.495 -0.910233 3.09701 0
M  V30 4847 H 446.547 1.47484 3.50646 0
M  V30 4848 H 447.859 1.72977 4.67847 0
M  V30 4849 H 447.013 -0.175056 6.06447 0
M  V30 4850 H 445.752 -0.525004 4.84866 0
M  V30 4851 H 444.757 1.75109 5.21169 0
M  V30 4852 H 445.982 2.09196 6.46076 0
M  V30 4853 H 443.928 -0.149935 6.55829 0
M  V30 4854 H 443.845 1.33964 7.44036 0
M  V30 4855 H 445.113 0.203755 7.79234 0
M  V30 4856 N 449.342 -1.36122 0.79427 0
M  V30 4857 C 450.567 -2.03891 0.379871 0
M  V30 4858 C 450.992 -1.59488 -0.997251 0
M  V30 4859 O 450.35 -0.765652 -1.64339 0
M  V30 4860 C 450.398 -3.57687 0.457442 0
M  V30 4861 O 449.502 -4.08931 -0.5338 0
M  V30 4862 H 448.843 -0.6443 0.160541 0
M  V30 4863 H 451.373 -1.73976 1.07673 0
M  V30 4864 H 451.383 -4.06721 0.322792 0
M  V30 4865 H 450.058 -3.89357 1.46199 0
M  V30 4866 H 448.635 -3.71154 -0.360409 0
M  V30 4867 N 450.82 -0.546701 -1.47814 0
M  V30 4868 C 452.097 0.0464413 -1.95545 0
M  V30 4869 C 452.477 1.4962 -1.48919 0
M  V30 4870 O 451.825 2.16752 -0.723232 0
M  V30 4871 C 452.035 -0.0881298 -3.48889 0
M  V30 4872 C 453.383 0.0626059 -4.24554 0
M  V30 4873 O 454.407 -0.0151555 -3.56197 0
M  V30 4874 O 453.266 0.228071 -5.46024 0
M  V30 4875 H 450.36 0.0700004 -0.824032 0
M  V30 4876 H 452.906 -0.612482 -1.58262 0
M  V30 4877 H 451.678 -1.09737 -3.75597 0
M  V30 4878 H 451.301 0.608886 -3.9291 0
M  V30 4879 N 452.299 1.55045 -0.282633 0
M  V30 4880 C 453.527 2.04168 0.33512 0
M  V30 4881 C 453.942 1.16071 1.48906 0
M  V30 4882 O 453.299 0.182391 1.81586 0
M  V30 4883 C 453.35 3.52332 0.808957 0
M  V30 4884 O 453.071 4.37078 -0.299038 0
M  V30 4885 C 454.572 4.17375 1.49375 0
M  V30 4886 H 451.792 0.666744 0.0754543 0
M  V30 4887 H 454.336 2.00205 -0.416918 0
M  V30 4888 H 452.491 3.56715 1.51106 0
M  V30 4889 H 452.905 5.24458 0.0665514 0
M  V30 4890 H 454.379 5.22627 1.77664 0
M  V30 4891 H 454.856 3.65999 2.42778 0
M  V30 4892 H 455.462 4.17016 0.835305 0
M  V30 4893 N 453.777 0.010035 1.57597 0
M  V30 4894 C 455.002 -0.687021 1.95691 0
M  V30 4895 C 455.427 -1.65952 0.885519 0
M  V30 4896 O 454.785 -1.80633 -0.15543 0
M  V30 4897 C 454.833 -1.3864 3.32884 0
M  V30 4898 O 453.937 -2.50115 3.27897 0
M  V30 4899 H 453.278 -0.181989 0.638573 0
M  V30 4900 H 455.808 0.0662122 2.04493 0
M  V30 4901 H 455.818 -1.74754 3.6868 0
M  V30 4902 H 454.493 -0.673411 4.10412 0
M  V30 4903 H 453.07 -2.16253 3.03791 0
M  V30 4904 N 455.255 -1.55392 -0.262866 0
M  V30 4905 C 456.503 -1.76127 -0.991147 0
M  V30 4906 C 456.824 -0.571083 -1.8645 0
M  V30 4907 O 456.094 0.413698 -1.91482 0
M  V30 4908 H 454.674 -0.649528 -0.368948 0
M  V30 4909 H 457.336 -1.9281 -0.284655 0
M  V30 4910 H 456.432 -2.6663 -1.62219 0
M  V30 4911 N 456.733 0.527833 -1.48498 0
M  V30 4912 C 458.01 1.28905 -1.47115 0
M  V30 4913 C 458.39 2.10297 -0.184007 0
M  V30 4914 O 457.738 2.12728 0.834218 0
M  V30 4915 C 457.948 2.16866 -2.73441 0
M  V30 4916 C 459.296 2.76936 -3.21857 0
M  V30 4917 O 460.32 2.27152 -2.74373 0
M  V30 4918 O 459.179 3.67496 -4.04486 0
M  V30 4919 H 456.273 0.581918 -0.587623 0
M  V30 4920 H 458.819 0.544311 -1.60734 0
M  V30 4921 H 457.591 1.56521 -3.58632 0
M  V30 4922 H 457.214 2.98583 -2.62553 0
M  V30 4923 N 458.211 1.37122 0.776871 0
M  V30 4924 C 459.441 1.35034 1.56363 0
M  V30 4925 C 459.849 -0.0674681 1.8908 0
M  V30 4926 O 459.192 -1.03826 1.51545 0
M  V30 4927 C 459.254 2.11894 2.90415 0
M  V30 4928 C 458.918 3.60897 2.80362 0
M  V30 4929 C 459.915 4.54887 2.51742 0
M  V30 4930 C 457.6 4.03951 2.98545 0
M  V30 4931 C 459.594 5.89909 2.41426 0
M  V30 4932 C 457.281 5.3906 2.87849 0
M  V30 4933 C 458.279 6.31852 2.5933 0
M  V30 4934 O 457.967 7.64479 2.48651 0
M  V30 4935 H 457.699 0.464402 0.49123 0
M  V30 4936 H 460.253 1.80992 0.971127 0
M  V30 4937 H 458.483 1.60618 3.51765 0
M  V30 4938 H 460.172 2.02505 3.51776 0
M  V30 4939 H 460.938 4.22934 2.37385 0
M  V30 4940 H 456.817 3.3209 3.19746 0
M  V30 4941 H 460.361 6.62304 2.19086 0
M  V30 4942 H 456.258 5.70617 3.01773 0
M  V30 4943 H 457.026 7.74742 2.64039 0
M  V30 4944 N 459.689 -1.00246 1.21608 0
M  V30 4945 C 460.599 -2.12515 0.993709 0
M  V30 4946 C 461.615 -1.73913 -0.0549939 0
M  V30 4947 O 462.791 -2.00943 0.135619 0
M  V30 4948 C 459.856 -3.42083 0.563953 0
M  V30 4949 C 458.917 -3.94843 1.68516 0
M  V30 4950 C 458.15 -5.18226 1.27582 0
M  V30 4951 O 458.373 -5.70201 0.150506 0
M  V30 4952 O 457.307 -5.64497 2.0887 0
M  V30 4953 H 461.133 -2.34152 1.93407 0
M  V30 4954 H 458.718 -1.10891 1.00118 0
M  V30 4955 H 460.6 -4.20073 0.334194 0
M  V30 4956 H 459.275 -3.21828 -0.347665 0
M  V30 4957 H 458.182 -3.18068 1.96935 0
M  V30 4958 H 459.515 -4.19512 2.5743 0
M  V30 4959 N 461.167 -1.02423 -1.1978 0
M  V30 4960 C 462.416 -0.713265 -1.88667 0
M  V30 4961 C 462.729 0.7609 -1.80193 0
M  V30 4962 O 463.935 1.18473 -2.44288 0
M  V30 4963 C 462.391 -1.22545 -3.38394 0
M  V30 4964 C 461.999 -2.72706 -3.55437 0
M  V30 4965 C 463.743 -0.990257 -4.12788 0
M  V30 4966 C 461.65 -3.17367 -4.99031 0
M  V30 4967 H 460.58 -0.263105 -0.706606 0
M  V30 4968 H 463.231 -1.23792 -1.35454 0
M  V30 4969 H 461.613 -0.628732 -3.90977 0
M  V30 4970 H 462.787 -3.37993 -3.13205 0
M  V30 4971 H 461.102 -2.94453 -2.94425 0
M  V30 4972 H 463.699 -1.29926 -5.18675 0
M  V30 4973 H 464.042 0.0730761 -4.16236 0
M  V30 4974 H 464.575 -1.55074 -3.66329 0
M  V30 4975 H 461.314 -4.23009 -5.00743 0
M  V30 4976 H 460.834 -2.56805 -5.42044 0
M  V30 4977 H 462.513 -3.10441 -5.67658 0
M  V30 4978 N 462.645 1.35699 -0.801477 0
M  V30 4979 C 463.873 2.03157 -0.391768 0
M  V30 4980 C 464.288 1.60412 0.995668 0
M  V30 4981 O 463.645 0.799228 1.64069 0
M  V30 4982 C 463.696 3.58566 -0.459671 0
M  V30 4983 O 463.417 3.99756 -1.7924 0
M  V30 4984 C 464.918 4.4328 -0.0421205 0
M  V30 4985 H 462.138 0.651688 -0.159825 0
M  V30 4986 H 464.682 1.73426 -1.08368 0
M  V30 4987 H 462.837 3.86963 0.183939 0
M  V30 4988 H 463.251 4.94387 -1.75162 0
M  V30 4989 H 464.725 5.51821 -0.140754 0
M  V30 4990 H 465.202 4.27383 1.01196 0
M  V30 4991 H 465.808 4.20168 -0.658687 0
M  V30 4992 N 464.123 0.554532 1.47522 0
M  V30 4993 C 465.053 -0.182974 2.32782 0
M  V30 4994 C 466.034 -0.911377 1.43624 0
M  V30 4995 O 467.219 -0.892366 1.72483 0
M  V30 4996 C 464.349 -1.21513 3.25349 0
M  V30 4997 C 463.303 -0.603355 4.23726 0
M  V30 4998 C 462.629 -1.73995 5.05598 0
M  V30 4999 C 463.929 0.441121 5.20434 0
M  V30 5000 H 465.623 0.52882 2.94693 0
M  V30 5001 H 463.169 0.255759 1.41711 0
M  V30 5002 H 465.122 -1.73922 3.83835 0
M  V30 5003 H 463.846 -1.95683 2.61487 0
M  V30 5004 H 462.505 -0.10059 3.66462 0
M  V30 5005 H 462.153 -2.47063 4.38143 0
M  V30 5006 H 461.853 -1.3364 5.72201 0
M  V30 5007 H 463.377 -2.26735 5.66942 0
M  V30 5008 H 464.791 0.00319931 5.733 0
M  V30 5009 H 463.188 0.763402 5.95224 0
M  V30 5010 H 464.258 1.33799 4.66075 0
M  V30 5011 N 465.601 -1.54893 0.290851 0
M  V30 5012 C 466.531 -2.26103 -0.583084 0
M  V30 5013 C 467.512 -1.25684 -1.14619 0
M  V30 5014 O 468.697 -1.54436 -1.17741 0
M  V30 5015 C 465.827 -2.99409 -1.75987 0
M  V30 5016 C 464.781 -4.0689 -1.32758 0
M  V30 5017 C 464.107 -4.67856 -2.58872 0
M  V30 5018 C 465.407 -5.20215 -0.46624 0
M  V30 5019 H 467.101 -2.99398 0.0108214 0
M  V30 5020 H 464.647 -1.43998 0.00664468 0
M  V30 5021 H 466.6 -3.47943 -2.37727 0
M  V30 5022 H 465.324 -2.23675 -2.37985 0
M  V30 5023 H 463.983 -3.59191 -0.733299 0
M  V30 5024 H 463.631 -3.88772 -3.19163 0
M  V30 5025 H 463.331 -5.40438 -2.30653 0
M  V30 5026 H 464.855 -5.19147 -3.21433 0
M  V30 5027 H 466.269 -5.64704 -0.989047 0
M  V30 5028 H 464.666 -5.99455 -0.27826 0
M  V30 5029 H 465.736 -4.82198 0.511173 0
M  V30 5030 N 467.08 -0.0183926 -1.57589 0
M  V30 5031 C 468.027 0.967022 -2.09565 0
M  V30 5032 C 468.997 1.32983 -0.995225 0
M  V30 5033 O 470.182 1.42501 -1.26878 0
M  V30 5034 C 467.322 2.24772 -2.61861 0
M  V30 5035 C 466.435 1.94232 -3.85873 0
M  V30 5036 C 465.57 3.16518 -4.26603 0
M  V30 5037 C 464.609 2.81748 -5.43401 0
M  V30 5038 N 463.746 3.96626 -5.79338 0
M  V30 5039 H 468.586 0.516874 -2.93483 0
M  V30 5040 H 466.123 0.243544 -1.4507 0
M  V30 5041 H 468.081 2.99667 -2.90268 0
M  V30 5042 H 466.711 2.67423 -1.8079 0
M  V30 5043 H 465.763 1.09625 -3.64262 0
M  V30 5044 H 467.075 1.64616 -4.70853 0
M  V30 5045 H 466.229 3.99743 -4.56389 0
M  V30 5046 H 464.968 3.49286 -3.40368 0
M  V30 5047 H 463.973 1.96933 -5.1332 0
M  V30 5048 H 465.198 2.50207 -6.31327 0
M  V30 5049 H 463.144 4.29257 -4.96059 0
M  V30 5050 H 463.061 3.70598 -6.58933 0
M  V30 5051 H 464.329 4.80586 -6.13724 0
M  V30 5052 N 468.558 1.5553 0.254621 0
M  V30 5053 C 469.807 1.76202 0.981612 0
M  V30 5054 C 470.12 0.580883 1.86776 0
M  V30 5055 O 471.326 0.670448 2.63092 0
M  V30 5056 C 469.782 3.11921 1.79537 0
M  V30 5057 C 469.39 4.37659 0.956991 0
M  V30 5058 C 471.134 3.41936 2.51555 0
M  V30 5059 C 469.041 5.64411 1.76619 0
M  V30 5060 H 467.971 0.656841 0.370237 0
M  V30 5061 H 470.622 1.81969 0.236556 0
M  V30 5062 H 469.004 3.00241 2.58208 0
M  V30 5063 H 470.178 4.60307 0.21315 0
M  V30 5064 H 468.493 4.14922 0.350497 0
M  V30 5065 H 471.09 4.33849 3.12536 0
M  V30 5066 H 471.433 2.62905 3.22779 0
M  V30 5067 H 471.966 3.54797 1.799 0
M  V30 5068 H 468.705 6.46241 1.09783 0
M  V30 5069 H 468.225 5.45877 2.48551 0
M  V30 5070 H 469.904 6.03386 2.33527 0
M  V30 5071 N 470.036 -0.519951 1.48776 0
M  V30 5072 C 471.276 -1.2856 1.58908 0
M  V30 5073 C 471.64 -1.90212 0.261418 0
M  V30 5074 O 472.841 -2.67746 0.237791 0
M  V30 5075 C 471.112 -2.33836 2.70288 0
M  V30 5076 S 472.671 -3.19992 3.0025 0
M  V30 5077 H 469.489 -0.43717 0.560717 0
M  V30 5078 H 472.091 -0.591205 1.86346 0
M  V30 5079 H 470.795 -1.87041 3.653 0
M  V30 5080 H 470.326 -3.07969 2.44783 0
M  V30 5081 H 472.341 -4.34122 2.40317 0
M  V30 5082 N 471.514 -1.37532 -0.769588 0
M  V30 5083 C 472.762 -1.32597 -1.5252 0
M  V30 5084 C 473.083 0.0884294 -1.94799 0
M  V30 5085 O 472.353 1.03289 -1.66458 0
M  V30 5086 H 470.933 -0.487846 -0.565699 0
M  V30 5087 H 473.595 -1.72044 -0.915806 0
M  V30 5088 H 472.691 -1.96643 -2.42359 0
M  V30 5089 N 472.992 0.995999 -1.22138 0
M  V30 5090 C 474.24 1.73167 -1.042 0
M  V30 5091 C 474.561 1.90329 0.42423 0
M  V30 5092 O 473.831 1.4607 1.30539 0
M  V30 5093 H 472.411 0.641593 -0.38258 0
M  V30 5094 H 475.073 1.19974 -1.53598 0
M  V30 5095 H 474.169 2.72734 -1.51731 0
M  V30 5096 N 474.47 1.03057 1.19235 0
M  V30 5097 C 475.747 0.642608 1.84743 0
M  V30 5098 C 476.127 -0.878577 1.91948 0
M  V30 5099 O 475.475 -1.77597 1.43776 0
M  V30 5100 C 475.685 1.30665 3.23616 0
M  V30 5101 C 477.033 1.43098 3.9976 0
M  V30 5102 O 478.057 1.26396 3.3302 0
M  V30 5103 O 476.916 1.70223 5.19313 0
M  V30 5104 H 474.01 0.223573 0.796206 0
M  V30 5105 H 476.556 1.12883 1.26711 0
M  V30 5106 H 475.328 2.34544 3.13217 0
M  V30 5107 H 474.951 0.808405 3.89295 0
M  V30 5108 N 475.948 -1.35272 0.808662 0
M  V30 5109 C 477.225 -1.93077 0.313181 0
M  V30 5110 C 477.605 -1.73847 -1.19752 0
M  V30 5111 O 476.953 -1.1087 -1.998 0
M  V30 5112 C 477.163 -3.41347 0.726859 0
M  V30 5113 C 478.511 -4.18493 0.717532 0
M  V30 5114 O 479.535 -3.4987 0.668535 0
M  V30 5115 O 478.394 -5.40937 0.777779 0
M  V30 5116 H 475.488 -0.822885 0.0824018 0
M  V30 5117 H 478.034 -1.44335 0.892499 0
M  V30 5118 H 476.806 -3.49082 1.76797 0
M  V30 5119 H 476.429 -3.97411 0.122461 0
M  V30 5120 O 477.465 -0.703344 -1.4538 0
M  V30 5121 H 478.156 -0.244572 -1.9215 0
M  V30 END ATOM
M  V30 BEGIN BOND
M  V30 END BOND
M  V30 END CTAB
M  END
$$$$
