drugbank_target|P19021 Peptidyl-glycine alpha-amidating monooxygenase (DB00126; DB02598; DB04150)
 OpenBabel12092120073D

  0  0  0     0  0            999 V3000
M  V30 BEGIN CTAB
M  V30 COUNTS 15103 15298 0 0 0
M  V30 BEGIN ATOM
M  V30 1 H -0.908 1.98254 -0.117106 0
M  V30 2 N 0 1.576 0 0
M  V30 3 C 0.933 2.03868 1.02534 0
M  V30 4 C 1.911 0.928543 1.3348 0
M  V30 5 O 3.095 1.19667 1.45644 0
M  V30 6 C 0.222 2.43627 2.35294 0
M  V30 7 C -0.732 3.65373 2.2001 0
M  V30 8 S 0.101 5.13292 1.52614 0
M  V30 9 C 1.257 5.56322 2.86805 0
M  V30 10 H 1.49 2.90518 0.631377 0
M  V30 11 H -0.977 1.52953 0.210867 0
M  V30 12 H 0.981 2.67203 3.11629 0
M  V30 13 H -0.358 1.57376 2.7183 0
M  V30 14 H -1.165 3.90944 3.18086 0
M  V30 15 H -1.563 3.418 1.51819 0
M  V30 16 H 0.729 5.58782 3.83104 0
M  V30 17 H 1.672 6.56266 2.65933 0
M  V30 18 H 2.08 4.83886 2.90714 0
M  V30 19 N 1.4781 -0.272755 1.55222 0
M  V30 20 C 2.4411 -1.32041 1.87344 0
M  V30 21 C 3.4411 -1.42342 0.74803 0
M  V30 22 O 4.6311 -1.41488 1.0162 0
M  V30 23 C 1.7631 -2.70173 2.07893 0
M  V30 24 H 2.9561 -1.04789 2.80997 0
M  V30 25 H 0.5091 -0.51083 1.47717 0
M  V30 26 H 1.2441 -3.02605 1.16622 0
M  V30 27 H 1.0291 -2.64082 2.89833 0
M  V30 28 H 2.5191 -3.45869 2.34017 0
M  V30 29 N 2.9562 -1.48159 -0.537278 0
M  V30 30 C 4.2042 -1.55497 -1.29094 0
M  V30 31 C 4.5252 -0.227454 -1.93669 0
M  V30 32 O 3.7952 0.750386 -1.80959 0
M  V30 33 H 2.3752 -0.572832 -0.47945 0
M  V30 34 H 5.0372 -1.84579 -0.625818 0
M  V30 35 H 4.1332 -2.33216 -2.07405 0
M  V30 36 N 4.4343 0.785586 -1.36625 0
M  V30 37 C 5.8503 1.08419 -1.17122 0
M  V30 38 C 6.0503 2.015 0.00208491 0
M  V30 39 O 5.1063 2.43551 0.666278 0
M  V30 40 C 6.4193 1.69498 -2.48377 0
M  V30 41 C 7.9673 1.81821 -2.54775 0
M  V30 42 C 8.4423 2.46315 -3.86126 0
M  V30 43 N 9.9333 2.53779 -3.87492 0
M  V30 44 C 10.6683 3.045 -4.85868 0
M  V30 45 N 10.1643 3.55499 -5.94637 0
M  V30 46 N 11.9573 3.03247 -4.73284 0
M  V30 47 H 4.1083 0.167264 -2.1174 0
M  V30 48 H 6.3713 0.13682 -0.938075 0
M  V30 49 H 6.0773 1.08571 -3.34522 0
M  V30 50 H 5.9513 2.6896 -2.64462 0
M  V30 51 H 8.3383 2.41884 -1.69045 0
M  V30 52 H 8.4193 0.811532 -2.42586 0
M  V30 53 H 8.0633 1.86895 -4.72263 0
M  V30 54 H 7.9933 3.47561 -3.95612 0
M  V30 55 H 10.4843 2.17672 -3.08913 0
M  V30 56 H 10.7973 3.92562 -6.65669 0
M  V30 57 H 9.1423 3.5364 -5.98301 0
M  V30 58 H 12.3333 2.62696 -3.87438 0
M  V30 59 H 12.5063 3.42467 -5.50109 0
M  V30 60 N 5.9124 1.20967 1.01018 0
M  V30 61 C 7.1584 1.02526 1.74975 0
M  V30 62 C 7.4914 -0.4408 1.89131 0
M  V30 63 O 6.7664 -1.32718 1.42184 0
M  V30 64 C 7.0494 1.71699 3.1653 0
M  V30 65 C 6.9024 3.25791 3.10129 0
M  V30 66 C 8.2214 1.45531 4.15342 0
M  V30 67 H 5.3404 0.373863 0.635134 0
M  V30 68 H 7.9824 1.49071 1.17805 0
M  V30 69 H 6.1324 1.32128 3.65341 0
M  V30 70 H 7.8044 3.74697 2.69072 0
M  V30 71 H 6.0474 3.56363 2.47362 0
M  V30 72 H 6.7184 3.69353 4.10222 0
M  V30 73 H 9.1944 1.79872 3.75213 0
M  V30 74 H 8.0704 1.96453 5.1254 0
M  V30 75 H 8.3314 0.384237 4.40427 0
M  V30 76 N 7.3905 -1.2043 1.01659 0
M  V30 77 C 8.8015 -1.71517 0.737482 0
M  V30 78 C 9.1525 -1.81547 -0.743973 0
M  V30 79 O 8.2775 -1.47803 -1.58061 0
M  V30 80 C 8.8725 -3.11515 1.33206 0
M  V30 81 C 7.4315 -3.59912 1.10183 0
M  V30 82 C 6.5785 -2.37116 1.43776 0
M  V30 83 H 9.5295 -1.05444 1.18606 0
M  V30 84 H 9.5505 -3.73575 0.722636 0
M  V30 85 H 9.0625 -3.04182 2.41028 0
M  V30 86 H 7.1635 -3.72577 0.0412756 0
M  V30 87 H 7.2765 -4.44731 1.78188 0
M  V30 88 H 5.6405 -2.39857 0.856778 0
M  V30 89 H 6.4235 -2.32424 2.52654 0
M  V30 90 N 8.8686 -0.792821 -1.36206 0
M  V30 91 C 10.0936 -0.377701 -2.03932 0
M  V30 92 C 10.5186 0.998947 -1.59382 0
M  V30 93 O 9.8766 1.64421 -0.763903 0
M  V30 94 C 9.9246 -0.453635 -3.57735 0
M  V30 95 O 9.0286 0.538151 -4.08874 0
M  V30 96 H 8.3696 -0.159855 -0.644471 0
M  V30 97 H 10.8996 -1.07488 -1.7409 0
M  V30 98 H 10.9096 -0.318464 -4.06755 0
M  V30 99 H 9.5846 -1.45784 -3.89512 0
M  V30 100 H 8.1616 0.364359 -3.71116 0
M  V30 101 N 10.3467 1.47872 -0.545128 0
M  V30 102 C 11.2767 2.32661 0.197793 0
M  V30 103 C 12.2577 1.43041 0.920504 0
M  V30 104 O 13.4427 1.71912 0.90333 0
M  V30 105 C 10.5727 3.24569 1.23582 0
M  V30 106 C 9.5267 4.23333 0.630323 0
M  V30 107 C 8.8527 5.0448 1.77211 0
M  V30 108 C 10.1527 5.20704 -0.407974 0
M  V30 109 H 11.8467 2.95024 -0.510045 0
M  V30 110 H 9.3927 1.4187 -0.246731 0
M  V30 111 H 11.3457 3.8272 1.76362 0
M  V30 112 H 10.0697 2.60236 1.97344 0
M  V30 113 H 8.7287 3.6639 0.123922 0
M  V30 114 H 8.3767 4.36561 2.49847 0
M  V30 115 H 8.0767 5.71339 1.37281 0
M  V30 116 H 9.6007 5.65487 2.3034 0
M  V30 117 H 11.0147 5.7329 0.033305 0
M  V30 118 H 9.4117 5.95699 -0.725486 0
M  V30 119 H 10.4817 4.66917 -1.30828 0
M  V30 120 N 11.8248 0.280983 1.55075 0
M  V30 121 C 12.7548 -0.597469 2.25727 0
M  V30 122 C 13.7358 -1.15417 1.24952 0
M  V30 123 O 14.9208 -1.18722 1.53684 0
M  V30 124 C 12.0508 -1.7789 2.98283 0
M  V30 125 C 11.0048 -1.35347 4.06036 0
M  V30 126 C 10.3308 -2.61846 4.66198 0
M  V30 127 C 11.6308 -0.499354 5.19907 0
M  V30 128 H 13.3248 -0.00824265 2.99399 0
M  V30 129 H 10.8708 -0.0025244 1.44 0
M  V30 130 H 12.8238 -2.39937 3.46422 0
M  V30 131 H 11.5478 -2.39405 2.22155 0
M  V30 132 H 10.2068 -0.756156 3.58717 0
M  V30 133 H 9.8548 -3.21632 3.86732 0
M  V30 134 H 9.5548 -2.3409 5.38958 0
M  V30 135 H 11.0788 -3.24732 5.1709 0
M  V30 136 H 12.4928 -1.02498 5.64063 0
M  V30 137 H 10.8898 -0.316424 5.99265 0
M  V30 138 H 11.9598 0.480459 4.82514 0
M  V30 139 N 13.3029 -1.57598 0.00835791 0
M  V30 140 C 14.5489 -1.91211 -0.675732 0
M  V30 141 C 14.8819 -0.883139 -1.72958 0
M  V30 142 O 14.1569 0.097016 -1.94258 0
M  V30 143 C 14.4399 -3.35379 -1.31123 0
M  V30 144 C 14.2929 -4.48999 -0.268356 0
M  V30 145 C 15.6119 -3.7912 -2.23508 0
M  V30 146 H 12.7309 -0.695374 -0.244179 0
M  V30 147 H 15.3729 -1.89901 0.0613655 0
M  V30 148 H 13.5229 -3.36626 -1.93946 0
M  V30 149 H 15.1949 -4.59887 0.360844 0
M  V30 150 H 13.4379 -4.31873 0.408482 0
M  V30 151 H 14.1089 -5.46851 -0.752218 0
M  V30 152 H 16.5849 -3.79477 -1.70693 0
M  V30 153 H 15.4609 -4.80729 -2.64936 0
M  V30 154 H 15.7219 -3.13455 -3.11766 0
M  V30 155 N 14.781 0.264519 -1.55364 0
M  V30 156 C 15.711 1.33121 -1.91836 0
M  V30 157 C 16.692 1.51101 -0.781192 0
M  V30 158 O 17.877 1.64003 -1.04003 0
M  V30 159 C 15.007 2.68921 -2.19769 0
M  V30 160 C 13.961 2.65661 -3.35571 0
M  V30 161 C 13.287 4.05093 -3.49004 0
M  V30 162 C 14.587 2.24187 -4.71739 0
M  V30 163 H 16.281 1.02844 -2.81182 0
M  V30 164 H 13.827 0.493286 -1.35287 0
M  V30 165 H 15.78 3.43663 -2.43872 0
M  V30 166 H 14.504 3.00799 -1.27231 0
M  V30 167 H 13.163 1.93377 -3.1145 0
M  V30 168 H 12.811 4.34206 -2.53917 0
M  V30 169 H 12.511 4.03804 -4.26868 0
M  V30 170 H 14.035 4.81561 -3.75408 0
M  V30 171 H 15.449 2.88654 -4.9533 0
M  V30 172 H 13.846 2.34044 -5.52579 0
M  V30 173 H 14.916 1.19327 -4.69988 0
M  V30 174 N 16.2591 1.48442 0.529413 0
M  V30 175 C 17.1891 1.65902 1.64313 0
M  V30 176 C 18.1701 0.507897 1.6234 0
M  V30 177 O 19.3551 0.740503 1.79528 0
M  V30 178 C 16.4851 1.69911 3.02898 0
M  V30 179 C 15.4391 2.8453 3.19729 0
M  V30 180 C 14.7651 2.73629 4.59381 0
M  V30 181 C 16.0651 4.25821 3.02447 0
M  V30 182 H 17.7591 2.5914 1.49955 0
M  V30 183 H 15.3051 1.24709 0.719982 0
M  V30 184 H 17.2581 1.80715 3.80684 0
M  V30 185 H 15.9821 0.732524 3.18279 0
M  V30 186 H 14.6411 2.73283 2.44361 0
M  V30 187 H 14.2891 1.74938 4.71599 0
M  V30 188 H 13.9891 3.50541 4.71588 0
M  V30 189 H 15.5131 2.86401 5.39265 0
M  V30 190 H 16.9271 4.37898 3.70024 0
M  V30 191 H 15.3241 5.03735 3.26146 0
M  V30 192 H 16.3941 4.42244 1.98867 0
M  V30 193 N 17.7372 -0.778329 1.37039 0
M  V30 194 C 18.9832 -1.53892 1.32079 0
M  V30 195 C 19.3162 -1.9396 -0.0965386 0
M  V30 196 O 18.5912 -1.63568 -1.05242 0
M  V30 197 C 18.8742 -2.80847 2.25382 0
M  V30 198 C 18.7272 -2.47076 3.75864 0
M  V30 199 C 20.0462 -3.82741 2.1725 0
M  V30 200 H 17.1652 -0.558303 0.48111 0
M  V30 201 H 19.8072 -0.893397 1.67685 0
M  V30 202 H 17.9572 -3.35931 1.95148 0
M  V30 203 H 19.6292 -1.97957 4.16666 0
M  V30 204 H 17.8722 -1.79863 3.94755 0
M  V30 205 H 18.5432 -3.37798 4.36574 0
M  V30 206 H 21.0192 -3.37133 2.43887 0
M  V30 207 H 19.8952 -4.69303 2.84686 0
M  V30 208 H 20.1562 -4.2652 1.16331 0
M  V30 209 N 19.2153 -1.21501 -1.00376 0
M  V30 210 C 20.4623 -1.03299 -1.74171 0
M  V30 211 C 20.7903 0.433326 -1.89612 0
M  V30 212 O 20.0453 1.33779 -1.42834 0
M  V30 213 C 20.3443 -1.67673 -3.15627 0
M  V30 214 C 20.0103 -3.17533 -3.2013 0
M  V30 215 C 18.6723 -3.58427 -3.21067 0
M  V30 216 C 21.0243 -4.13504 -3.17275 0
M  V30 217 C 18.3523 -4.93794 -3.16835 0
M  V30 218 C 20.7043 -5.48834 -3.14585 0
M  V30 219 C 19.3683 -5.89123 -3.13831 0
M  V30 220 H 18.6383 -0.377999 -0.637336 0
M  V30 221 H 21.2853 -1.51111 -1.17634 0
M  V30 222 H 19.5903 -1.12158 -3.75404 0
M  V30 223 H 21.2873 -1.51091 -3.71446 0
M  V30 224 H 17.8773 -2.84965 -3.20145 0
M  V30 225 H 22.0613 -3.82936 -3.15711 0
M  V30 226 H 17.3173 -5.24255 -3.1459 0
M  V30 227 H 21.4913 -6.22934 -3.1133 0
M  V30 228 H 19.1183 -6.93984 -3.10307 0
M  V30 229 N 20.6934 1.19889 -1.02296 0
M  V30 230 C 22.1044 1.71124 -0.746568 0
M  V30 231 C 22.4554 1.81939 0.734335 0
M  V30 232 O 21.5804 1.48639 1.57275 0
M  V30 233 C 22.1754 3.10804 -1.34857 0
M  V30 234 C 20.7344 3.59323 -1.1209 0
M  V30 235 C 19.8814 2.3635 -1.45031 0
M  V30 236 H 22.8324 1.04813 -1.19163 0
M  V30 237 H 22.8534 3.73186 -0.742437 0
M  V30 238 H 22.3654 3.029 -2.42638 0
M  V30 239 H 20.4664 3.7255 -0.0610337 0
M  V30 240 H 20.5794 4.4378 -1.80544 0
M  V30 241 H 18.9434 2.39399 -0.869487 0
M  V30 242 H 19.7264 2.31081 -2.53883 0
M  V30 243 N 22.1715 0.800033 1.35784 0
M  V30 244 C 23.3965 0.388511 2.03729 0
M  V30 245 C 23.8215 -0.990481 1.5991 0
M  V30 246 O 23.1795 -1.64013 0.772612 0
M  V30 247 C 23.2275 0.4726 3.5749 0
M  V30 248 O 22.3315 -0.51646 4.09153 0
M  V30 249 H 21.6725 0.163271 0.643614 0
M  V30 250 H 24.2025 1.0841 1.73518 0
M  V30 251 H 24.2125 0.34003 4.06581 0
M  V30 252 H 22.8875 1.47848 3.88734 0
M  V30 253 H 21.4645 -0.344673 3.71304 0
M  V30 254 N 23.6496 -1.47581 0.552962 0
M  V30 255 C 24.8746 -2.07378 0.0300593 0
M  V30 256 C 25.2996 -1.40355 -1.25229 0
M  V30 257 O 24.6576 -0.477099 -1.7491 0
M  V30 258 C 24.7056 -3.60274 -0.153231 0
M  V30 259 O 23.8096 -3.94041 -1.21678 0
M  V30 260 H 23.1506 -0.662158 0.0494182 0
M  V30 261 H 25.6806 -1.89662 0.767434 0
M  V30 262 H 25.6906 -4.0633 -0.368761 0
M  V30 263 H 24.3656 -4.08455 0.783397 0
M  V30 264 H 22.9426 -3.59735 -0.982079 0
M  V30 265 N 25.1277 -0.289203 -1.54924 0
M  V30 266 C 26.3677 0.324536 -2.01807 0
M  V30 267 C 26.7317 1.5199 -1.17316 0
M  V30 268 O 27.9327 2.20422 -1.53843 0
M  V30 269 C 26.2037 0.683578 -3.50802 0
M  V30 270 S 27.7627 1.28185 -4.19659 0
M  V30 271 H 24.5807 0.100236 -0.703899 0
M  V30 272 H 27.1827 -0.414325 -1.91059 0
M  V30 273 H 25.8867 -0.195073 -4.09936 0
M  V30 274 H 25.4177 1.45354 -3.65562 0
M  V30 275 H 27.4327 2.57006 -4.24456 0
M  V30 276 N 26.6058 1.57591 -0.0167156 0
M  V30 277 C 27.5358 2.12496 0.967858 0
M  V30 278 C 28.5168 1.03807 1.34752 0
M  V30 279 O 29.7018 1.31577 1.42833 0
M  V30 280 C 26.8318 2.64194 2.25431 0
M  V30 281 C 25.7858 3.77559 2.01576 0
M  V30 282 C 25.1118 4.15636 3.36379 0
M  V30 283 C 26.4118 5.04151 1.36489 0
M  V30 284 H 28.1058 2.95013 0.510643 0
M  V30 285 H 25.6518 1.41915 0.244181 0
M  V30 286 H 27.6048 3.01236 2.94678 0
M  V30 287 H 26.3288 1.78821 2.73296 0
M  V30 288 H 24.9878 3.40937 1.34751 0
M  V30 289 H 24.6358 3.27263 3.81979 0
M  V30 290 H 24.3358 4.92022 3.21229 0
M  V30 291 H 25.8598 4.5525 4.06915 0
M  V30 292 H 27.2738 5.38857 1.95718 0
M  V30 293 H 25.6708 5.85453 1.31776 0
M  V30 294 H 26.7408 4.83733 0.336219 0
M  V30 295 N 28.0839 -0.256276 1.55502 0
M  V30 296 C 29.0469 -1.30047 1.88734 0
M  V30 297 C 30.0469 -1.4154 0.763086 0
M  V30 298 O 31.2369 -1.40403 1.03115 0
M  V30 299 C 28.3689 -2.67953 2.10747 0
M  V30 300 H 29.5619 -1.01802 2.82093 0
M  V30 301 H 27.1149 -0.495134 1.4825 0
M  V30 302 H 27.8499 -3.01351 1.19825 0
M  V30 303 H 27.6349 -2.60993 2.92617 0
M  V30 304 H 29.1249 -3.43368 2.37673 0
M  V30 305 N 29.562 -1.4872 -0.521534 0
M  V30 306 C 30.809 -1.57168 -1.27689 0
M  V30 307 C 31.137 -0.249275 -1.92896 0
M  V30 308 O 30.392 0.761162 -1.80291 0
M  V30 309 C 30.691 -2.66497 -2.38148 0
M  V30 310 C 30.357 -4.08664 -1.90538 0
M  V30 311 C 29.019 -4.47357 -1.77271 0
M  V30 312 C 31.371 -4.97724 -1.54663 0
M  V30 313 C 28.699 -5.72905 -1.26478 0
M  V30 314 C 31.051 -6.2377 -1.05329 0
M  V30 315 C 29.715 -6.61311 -0.906861 0
M  V30 316 H 28.985 -0.575117 -0.467249 0
M  V30 317 H 31.632 -1.82472 -0.581051 0
M  V30 318 H 29.937 -2.35085 -3.13437 0
M  V30 319 H 31.634 -2.70246 -2.96257 0
M  V30 320 H 28.224 -3.78111 -2.01816 0
M  V30 321 H 32.408 -4.68501 -1.63768 0
M  V30 322 H 27.664 -6.00709 -1.13835 0
M  V30 323 H 31.838 -6.9217 -0.76644 0
M  V30 324 H 29.465 -7.5848 -0.511083 0
M  V30 325 N 31.0401 0.771051 -1.3745 0
M  V30 326 C 32.4561 1.07171 -1.18265 0
M  V30 327 C 32.6561 2.01491 -0.019287 0
M  V30 328 O 31.7121 2.44244 0.640408 0
M  V30 329 C 33.0251 1.66854 -2.50161 0
M  V30 330 C 34.5731 1.79109 -2.56689 0
M  V30 331 C 35.0481 2.42205 -3.88717 0
M  V30 332 N 36.5391 2.49655 -3.90162 0
M  V30 333 C 37.2741 2.9933 -4.8907 0
M  V30 334 N 36.7701 3.49172 -5.98374 0
M  V30 335 N 38.5631 2.9821 -4.76474 0
M  V30 336 H 30.7141 0.144796 -2.11906 0
M  V30 337 H 32.9771 0.126863 -0.939473 0
M  V30 338 H 32.6831 1.05017 -3.35655 0
M  V30 339 H 32.5571 2.6614 -2.673 0
M  V30 340 H 34.9441 2.40077 -1.71601 0
M  V30 341 H 35.0251 0.785757 -2.43433 0
M  V30 342 H 34.6691 1.81875 -4.74219 0
M  V30 343 H 34.5991 3.43345 -3.99276 0
M  V30 344 H 37.0901 2.14383 -3.11205 0
M  V30 345 H 37.4031 3.8548 -6.69795 0
M  V30 346 H 35.7481 3.47275 -6.02018 0
M  V30 347 H 38.9391 2.58572 -3.90203 0
M  V30 348 H 39.1121 3.36613 -5.53711 0
M  V30 349 N 32.5182 1.22032 0.997298 0
M  V30 350 C 33.7432 1.06921 1.77715 0
M  V30 351 C 34.1682 -0.376226 1.84299 0
M  V30 352 O 33.5262 -1.27165 1.29223 0
M  V30 353 C 33.5742 1.67996 3.19076 0
M  V30 354 O 32.6782 0.930653 4.01762 0
M  V30 355 H 32.0192 0.375814 0.547412 0
M  V30 356 H 34.5492 1.61737 1.25309 0
M  V30 357 H 34.5592 1.72538 3.69723 0
M  V30 358 H 33.2342 2.73182 3.13599 0
M  V30 359 H 31.8112 0.960917 3.60307 0
M  V30 360 N 33.9963 -1.19345 1.0293 0
M  V30 361 C 35.4073 -1.70725 0.755633 0
M  V30 362 C 35.7583 -1.82326 -0.724676 0
M  V30 363 O 34.8833 -1.49471 -1.56484 0
M  V30 364 C 35.4783 -3.10084 1.36503 0
M  V30 365 C 34.0373 -3.58723 1.13994 0
M  V30 366 C 33.1843 -2.35577 1.46283 0
M  V30 367 H 36.1353 -1.0418 1.19718 0
M  V30 368 H 36.1563 -3.72787 0.762217 0
M  V30 369 H 35.6683 -3.01609 2.44241 0
M  V30 370 H 33.7693 -3.72512 0.0807901 0
M  V30 371 H 33.8823 -4.42816 1.82894 0
M  V30 372 H 32.2463 -2.38935 0.88217 0
M  V30 373 H 33.0293 -2.29731 2.55105 0
M  V30 374 N 35.4744 -0.807222 -1.35358 0
M  V30 375 C 36.4044 -0.232509 -2.3234 0
M  V30 376 C 37.3854 0.642386 -1.57504 0
M  V30 377 O 38.5704 0.572526 -1.85569 0
M  V30 378 C 35.7004 0.619238 -3.41735 0
M  V30 379 C 34.6544 -0.157215 -4.27711 0
M  V30 380 C 33.9804 0.816273 -5.28433 0
M  V30 381 C 35.2804 -1.35656 -5.04376 0
M  V30 382 H 36.9744 -1.04276 -2.80654 0
M  V30 383 H 34.5204 -0.50288 -1.34934 0
M  V30 384 H 36.4734 1.03137 -4.08584 0
M  V30 385 H 35.1974 1.46239 -2.92031 0
M  V30 386 H 33.8564 -0.550525 -3.62443 0
M  V30 387 H 33.5044 1.65494 -4.74996 0
M  V30 388 H 33.2044 0.301067 -5.86828 0
M  V30 389 H 34.7284 1.22659 -5.98153 0
M  V30 390 H 36.1424 -1.01927 -5.64166 0
M  V30 391 H 34.5394 -1.8063 -5.7227 0
M  V30 392 H 35.6094 -2.14288 -4.34981 0
M  V30 393 N 36.9525 1.47285 -0.560781 0
M  V30 394 C 38.1775 2.07359 -0.0410566 0
M  V30 395 C 38.6025 1.41017 1.24483 0
M  V30 396 O 37.9605 0.486368 1.74654 0
M  V30 397 C 38.0085 3.6035 0.134123 0
M  V30 398 O 37.1125 3.94681 1.19587 0
M  V30 399 H 36.4535 0.661887 -0.0529291 0
M  V30 400 H 38.9835 1.89252 -0.777482 0
M  V30 401 H 38.9935 4.0652 0.347207 0
M  V30 402 H 37.6685 4.08034 -0.805047 0
M  V30 403 H 36.2455 3.60251 0.962987 0
M  V30 404 N 38.4306 0.297415 1.54768 0
M  V30 405 C 39.6766 -0.313376 2.00364 0
M  V30 406 C 40.0096 -1.53815 1.18553 0
M  V30 407 O 39.2846 -1.92739 0.261103 0
M  V30 408 C 39.5676 -0.673525 3.53745 0
M  V30 409 C 39.4206 0.560133 4.46299 0
M  V30 410 C 40.7396 -1.50143 4.13697 0
M  V30 411 H 37.8586 -0.112428 0.728374 0
M  V30 412 H 40.5006 0.4088 1.8555 0
M  V30 413 H 38.6506 -1.28881 3.665 0
M  V30 414 H 40.3226 1.19863 4.45455 0
M  V30 415 H 38.5656 1.19405 4.17043 0
M  V30 416 H 39.2366 0.26405 5.51368 0
M  V30 417 H 41.7126 -0.981588 4.04356 0
M  V30 418 H 40.5886 -1.72221 5.21182 0
M  V30 419 H 40.8496 -2.48952 3.65343 0
M  V30 420 N 39.9087 -1.5758 0.0250728 0
M  V30 421 C 41.1557 -1.91633 -0.654444 0
M  V30 422 C 41.4837 -0.901103 -1.72367 0
M  V30 423 O 40.7387 0.0905647 -1.9549 0
M  V30 424 C 41.0377 -3.32421 -1.31268 0
M  V30 425 C 40.7037 -4.49344 -0.374223 0
M  V30 426 C 39.3657 -4.8106 -0.115911 0
M  V30 427 C 41.7177 -5.20498 0.270432 0
M  V30 428 C 39.0457 -5.8129 0.79493 0
M  V30 429 C 41.3977 -6.21699 1.1693 0
M  V30 430 C 40.0617 -6.51859 1.43655 0
M  V30 431 H 39.3317 -0.701236 -0.239478 0
M  V30 432 H 41.9787 -1.91307 0.0859734 0
M  V30 433 H 40.2837 -3.28989 -2.12775 0
M  V30 434 H 41.9807 -3.56038 -1.84494 0
M  V30 435 H 38.5707 -4.24579 -0.58573 0
M  V30 436 H 42.7547 -4.96229 0.0839194 0
M  V30 437 H 38.0107 -6.03005 1.00973 0
M  V30 438 H 42.1847 -6.75955 1.67504 0
M  V30 439 H 39.8117 -7.2934 2.144 0
M  V30 440 N 41.3868 0.248026 -1.55636 0
M  V30 441 C 42.3338 1.30707 -1.90222 0
M  V30 442 C 43.3038 1.47881 -0.756332 0
M  V30 443 O 44.4888 1.61883 -1.00988 0
M  V30 444 C 41.6288 2.65769 -2.20138 0
M  V30 445 C 40.7418 2.56612 -3.47526 0
M  V30 446 C 39.8768 3.8402 -3.67017 0
M  V30 447 C 38.9158 3.69476 -4.8801 0
M  V30 448 N 38.0528 4.88774 -5.04029 0
M  V30 449 H 42.8928 1.00512 -2.80538 0
M  V30 450 H 40.4298 0.485055 -1.38873 0
M  V30 451 H 42.3878 3.44386 -2.35487 0
M  V30 452 H 41.0178 2.94115 -1.33027 0
M  V30 453 H 40.0698 1.69571 -3.40514 0
M  V30 454 H 41.3818 2.41774 -4.36287 0
M  V30 455 H 40.5358 4.7108 -3.8232 0
M  V30 456 H 39.2748 4.01754 -2.76487 0
M  V30 457 H 38.2798 2.80799 -4.72686 0
M  V30 458 H 39.5048 3.53238 -5.8 0
M  V30 459 H 37.4508 5.0687 -4.16435 0
M  V30 460 H 37.3678 4.76562 -5.86877 0
M  V30 461 H 38.6358 5.77335 -5.23741 0
M  V30 462 N 42.8649 1.48995 0.513639 0
M  V30 463 C 44.2809 1.35478 0.843682 0
M  V30 464 C 44.4809 0.378213 1.97919 0
M  V30 465 O 43.5369 -0.194689 2.51748 0
M  V30 466 C 44.8499 2.75901 1.1958 0
M  V30 467 C 46.3979 2.84509 1.30474 0
M  V30 468 C 46.8729 4.25671 1.69021 0
M  V30 469 N 48.3639 4.28422 1.76094 0
M  V30 470 C 49.0989 5.34601 2.07338 0
M  V30 471 N 48.5949 6.5104 2.36894 0
M  V30 472 N 50.3879 5.22007 2.08483 0
M  V30 473 H 42.5389 2.11092 -0.235328 0
M  V30 474 H 44.8019 0.947039 -0.0426669 0
M  V30 475 H 44.5079 3.49001 0.434913 0
M  V30 476 H 44.3819 3.10467 2.1422 0
M  V30 477 H 46.7689 2.11655 2.05637 0
M  V30 478 H 46.8499 2.53542 0.339155 0
M  V30 479 H 46.4939 4.99048 0.944135 0
M  V30 480 H 46.4239 4.54094 2.66658 0
M  V30 481 H 48.9149 3.44441 1.55464 0
M  V30 482 H 49.2279 7.2779 2.59887 0
M  V30 483 H 47.5729 6.54287 2.34378 0
M  V30 484 H 50.7639 4.30051 1.84861 0
M  V30 485 H 50.9369 6.04854 2.325 0
M  V30 486 N 44.343 -0.763751 1.37857 0
M  V30 487 C 45.59 -1.52257 1.33506 0
M  V30 488 C 45.918 -1.94343 -0.078022 0
M  V30 489 O 45.173 -1.64958 -1.05297 0
M  V30 490 C 45.472 -2.79499 2.22745 0
M  V30 491 C 45.138 -2.56426 3.70886 0
M  V30 492 C 43.8 -2.49842 4.11257 0
M  V30 493 C 46.152 -2.36008 4.64704 0
M  V30 494 C 43.48 -2.20841 5.43549 0
M  V30 495 C 45.832 -2.0853 5.97242 0
M  V30 496 C 44.496 -2.00396 6.36709 0
M  V30 497 H 43.766 -0.557149 0.488534 0
M  V30 498 H 46.413 -0.879073 1.70131 0
M  V30 499 H 44.718 -3.48447 1.79142 0
M  V30 500 H 46.415 -3.37413 2.16688 0
M  V30 501 H 43.005 -2.62416 3.38874 0
M  V30 502 H 47.189 -2.40079 4.34368 0
M  V30 503 H 42.445 -2.13045 5.73081 0
M  V30 504 H 46.619 -1.91732 6.69486 0
M  V30 505 H 44.246 -1.77688 7.39142 0
M  V30 506 N 45.8211 -1.22559 -0.990812 0
M  V30 507 C 46.7681 -0.997519 -2.0813 0
M  V30 508 C 47.7381 0.0814702 -1.659 0
M  V30 509 O 48.9231 -0.0685424 -1.90677 0
M  V30 510 C 46.0631 -0.583615 -3.40129 0
M  V30 511 C 45.1761 -1.7336 -3.9569 0
M  V30 512 C 44.3111 -1.26748 -5.15857 0
M  V30 513 C 43.3501 -2.38888 -5.63559 0
M  V30 514 N 42.4871 -1.93308 -6.74964 0
M  V30 515 H 47.3271 -1.93099 -2.26973 0
M  V30 516 H 44.8641 -0.962114 -1.11273 0
M  V30 517 H 46.8221 -0.324801 -4.15934 0
M  V30 518 H 45.4521 0.312845 -3.2128 0
M  V30 519 H 44.5041 -2.10669 -3.16738 0
M  V30 520 H 45.8161 -2.57704 -4.27071 0
M  V30 521 H 44.9701 -0.966173 -5.98957 0
M  V30 522 H 43.7091 -0.394272 -4.86104 0
M  V30 523 H 42.7141 -2.69805 -4.79046 0
M  V30 524 H 43.9391 -3.26728 -5.95336 0
M  V30 525 H 41.8851 -1.08352 -6.4699 0
M  V30 526 H 41.8021 -2.71217 -7.05675 0
M  V30 527 H 43.0701 -1.66252 -7.61564 0
M  V30 528 N 47.2992 1.18797 -1.03562 0
M  V30 529 C 48.2092 2.25913 -0.632505 0
M  V30 530 C 49.2252 1.70668 0.338882 0
M  V30 531 O 50.4012 2.00453 0.195076 0
M  V30 532 C 47.4662 3.467 0.00350942 0
M  V30 533 C 46.5272 4.17098 -1.01624 0
M  V30 534 C 45.7602 5.32119 -0.410478 0
M  V30 535 O 45.9832 5.64976 0.784725 0
M  V30 536 O 44.9172 5.9107 -1.13667 0
M  V30 537 H 48.7432 2.62648 -1.52478 0
M  V30 538 H 46.3282 1.25781 -0.806195 0
M  V30 539 H 48.2102 4.19878 0.35781 0
M  V30 540 H 46.8852 3.11798 0.869686 0
M  V30 541 H 45.7922 3.4601 -1.42224 0
M  V30 542 H 47.1252 4.55987 -1.85301 0
M  V30 543 N 48.7773 0.814389 1.34928 0
M  V30 544 C 50.0053 0.411136 2.02774 0
M  V30 545 C 50.4203 -0.980316 1.61354 0
M  V30 546 O 49.7773 -1.63299 0.814847 0
M  V30 547 C 49.8283 0.493865 3.58111 0
M  V30 548 O 49.5493 1.83047 3.98027 0
M  V30 549 C 51.0503 0.0844174 4.4322 0
M  V30 550 H 48.2703 0.166037 0.650133 0
M  V30 551 H 50.8143 1.10018 1.72384 0
M  V30 552 H 48.9693 -0.147006 3.87121 0
M  V30 553 H 49.3833 1.79872 4.92693 0
M  V30 554 H 50.8573 0.193404 5.51661 0
M  V30 555 H 51.3343 -0.97113 4.28329 0
M  V30 556 H 51.9403 0.69875 4.19521 0
M  V30 557 N 50.2554 -1.46986 0.568584 0
M  V30 558 C 51.4834 -2.0683 0.0539956 0
M  V30 559 C 51.8984 -1.41953 -1.24478 0
M  V30 560 O 51.2554 -0.519933 -1.74937 0
M  V30 561 C 51.3064 -3.61254 -0.133362 0
M  V30 562 O 51.0274 -4.237 1.11399 0
M  V30 563 C 52.5284 -4.37992 -0.683927 0
M  V30 564 H 49.7484 -0.669058 0.0510141 0
M  V30 565 H 52.2924 -1.88824 0.785234 0
M  V30 566 H 50.4474 -3.78735 -0.81477 0
M  V30 567 H 50.8614 -5.16388 0.91888 0
M  V30 568 H 52.3354 -5.46684 -0.764263 0
M  V30 569 H 52.8124 -4.05058 -1.69778 0
M  V30 570 H 53.4184 -4.25283 -0.0378494 0
M  V30 571 N 51.7335 -0.305618 -1.54608 0
M  V30 572 C 53.1495 0.0476228 -1.59529 0
M  V30 573 C 53.3495 1.52025 -1.32252 0
M  V30 574 O 52.4055 2.27368 -1.09818 0
M  V30 575 C 53.7185 -0.354471 -2.98603 0
M  V30 576 C 55.2665 -0.303622 -3.11524 0
M  V30 577 C 55.7415 -0.680608 -4.52915 0
M  V30 578 N 57.2325 -0.63332 -4.5885 0
M  V30 579 C 57.9675 -0.897432 -5.66334 0
M  V30 580 N 57.4635 -1.22775 -6.81834 0
M  V30 581 N 59.2565 -0.824186 -5.56025 0
M  V30 582 H 51.4075 -1.2653 -1.70599 0
M  V30 583 H 53.6705 -0.513291 -0.797017 0
M  V30 584 H 53.3765 -1.3798 -3.23503 0
M  V30 585 H 53.2505 0.289568 -3.76087 0
M  V30 586 H 55.6375 0.712472 -2.8637 0
M  V30 587 H 55.7185 -0.982348 -2.36185 0
M  V30 588 H 55.3625 -1.69453 -4.78799 0
M  V30 589 H 55.2925 0.0202385 -5.26596 0
M  V30 590 H 57.7835 -0.389138 -3.75891 0
M  V30 591 H 58.0965 -1.41513 -7.59733 0
M  V30 592 H 56.4415 -1.26583 -6.83375 0
M  V30 593 H 59.6325 -0.565748 -4.64669 0
M  V30 594 H 59.8055 -1.03338 -6.39707 0
M  V30 595 N 53.2116 1.57565 -0.0334293 0
M  V30 596 C 54.6226 1.79746 0.504798 0
M  V30 597 C 54.9736 0.944091 1.71992 0
M  V30 598 O 54.0986 0.155694 2.15839 0
M  V30 599 C 54.6936 3.25997 0.922567 0
M  V30 600 C 53.2526 3.49159 1.40588 0
M  V30 601 C 52.3996 2.74785 0.372633 0
M  V30 602 H 55.3506 1.56565 -0.259436 0
M  V30 603 H 55.3716 3.35945 1.78666 0
M  V30 604 H 54.8836 3.88081 0.0379825 0
M  V30 605 H 52.9846 2.92332 2.31025 0
M  V30 606 H 53.0976 4.57873 1.41028 0
M  V30 607 H 51.4616 2.40391 0.841672 0
M  V30 608 H 52.2446 3.39587 -0.503559 0
M  V30 609 N 54.6897 -0.239769 1.55765 0
M  V30 610 C 55.9367 -0.966801 1.7793 0
M  V30 611 C 56.2647 -1.85046 0.599015 0
M  V30 612 O 55.5197 -1.91197 -0.417395 0
M  V30 613 C 55.8187 -1.852 3.05672 0
M  V30 614 C 55.4847 -1.1231 4.36689 0
M  V30 615 C 54.1467 -0.921689 4.72291 0
M  V30 616 C 56.4987 -0.607019 5.17653 0
M  V30 617 C 53.8267 -0.191996 5.86386 0
M  V30 618 C 56.1787 0.109241 6.32506 0
M  V30 619 C 54.8427 0.322073 6.66723 0
M  V30 620 H 54.1127 -0.353778 0.651093 0
M  V30 621 H 56.7597 -0.23634 1.90036 0
M  V30 622 H 55.0647 -2.64975 2.8861 0
M  V30 623 H 56.7617 -2.41635 3.20021 0
M  V30 624 H 53.3517 -1.29004 4.08725 0
M  V30 625 H 57.5357 -0.750153 4.90598 0
M  V30 626 H 52.7917 -0.0166949 6.11398 0
M  V30 627 H 56.9657 0.516737 6.9448 0
M  V30 628 H 54.5927 0.88944 7.54979 0
M  V30 629 N 56.1678 -1.49265 -0.50573 0
M  V30 630 C 57.3928 -1.62478 -1.28902 0
M  V30 631 C 57.8178 -0.294332 -1.85783 0
M  V30 632 O 57.1758 0.737412 -1.65626 0
M  V30 633 C 57.2238 -2.69268 -2.39848 0
M  V30 634 O 56.3278 -2.28113 -3.43567 0
M  V30 635 H 55.6688 -0.54399 -0.380751 0
M  V30 636 H 58.1988 -1.95421 -0.605952 0
M  V30 637 H 58.2088 -2.91291 -2.85681 0
M  V30 638 H 56.8838 -3.65846 -1.97812 0
M  V30 639 H 55.4608 -2.16401 -3.03685 0
M  V30 640 N 57.6459 0.756429 -1.3826 0
M  V30 641 C 58.5939 1.89149 -1.35372 0
M  V30 642 C 59.5879 1.67691 -0.24004 0
M  V30 643 O 60.7939 1.75294 -0.408919 0
M  V30 644 H 57.1689 0.622271 -0.422236 0
M  V30 645 H 59.1399 1.88701 -2.31159 0
M  V30 646 C 57.8889 3.26599 -1.19284 0
M  V30 647 H 57.2119 3.43695 -2.0424 0
M  V30 648 H 58.6519 4.06274 -1.21316 0
M  V30 649 C 57.1109 3.3675 0.100454 0
M  V30 650 O 57.6409 3.86951 1.07851 0
M  V30 651 N 55.8469 2.90179 0.15633 0
M  V30 652 H 55.3939 2.49517 -0.640253 0
M  V30 653 H 55.3519 2.97352 1.02123 0
M  V30 654 N 59.124 1.23083 0.984299 0
M  V30 655 C 60.034 1.02515 2.11016 0
M  V30 656 C 61.05 -0.0291702 1.73976 0
M  V30 657 O 62.226 0.165434 2.00719 0
M  V30 658 C 59.291 0.614673 3.41208 0
M  V30 659 C 58.352 1.74359 3.92297 0
M  V30 660 C 57.585 1.35261 5.16275 0
M  V30 661 O 57.808 0.235136 5.69915 0
M  V30 662 O 56.742 2.17227 5.61334 0
M  V30 663 H 60.568 1.96862 2.31255 0
M  V30 664 H 58.153 1.01753 1.09392 0
M  V30 665 H 60.035 0.396518 4.1953 0
M  V30 666 H 58.71 -0.299851 3.22308 0
M  V30 667 H 57.617 2.01635 3.1511 0
M  V30 668 H 58.95 2.63629 4.15645 0
M  V30 669 N 60.6021 -1.18246 1.0419 0
M  V30 670 C 61.8421 -1.89948 0.754916 0
M  V30 671 C 62.2061 -1.78608 -0.70451 0
M  V30 672 O 63.4071 -2.4503 -1.10516 0
M  V30 673 C 61.6781 -3.36305 1.20969 0
M  V30 674 S 63.2371 -4.26088 1.04854 0
M  V30 675 H 60.0551 -0.655897 0.274446 0
M  V30 676 H 62.6571 -1.42873 1.33445 0
M  V30 677 H 61.3611 -3.42089 2.26722 0
M  V30 678 H 60.8921 -3.8842 0.624004 0
M  V30 679 H 62.9071 -4.96189 -0.0332896 0
M  V30 680 N 62.0802 -0.821533 -1.34494 0
M  V30 681 C 63.0102 -0.257138 -2.3208 0
M  V30 682 C 63.9912 0.625645 -1.58176 0
M  V30 683 O 65.1762 0.552811 -1.86166 0
M  V30 684 C 62.3062 0.582958 -3.42372 0
M  V30 685 C 61.2602 -0.202571 -4.2752 0
M  V30 686 C 60.5862 0.760179 -5.29269 0
M  V30 687 C 61.8862 -1.40998 -5.02908 0
M  V30 688 H 63.5802 -1.07247 -2.79532 0
M  V30 689 H 61.1262 -0.517163 -1.34393 0
M  V30 690 H 63.0792 0.987972 -4.09655 0
M  V30 691 H 61.8032 1.43133 -2.93565 0
M  V30 692 H 60.4622 -0.588936 -3.61838 0
M  V30 693 H 60.1102 1.60447 -4.76724 0
M  V30 694 H 59.8102 0.238809 -5.87115 0
M  V30 695 H 61.3342 1.16308 -5.9942 0
M  V30 696 H 62.7482 -1.07905 -5.63054 0
M  V30 697 H 61.1452 -1.86689 -5.70322 0
M  V30 698 H 62.2152 -2.1889 -4.32684 0
M  V30 699 N 63.5583 1.46682 -0.576371 0
M  V30 700 C 64.8063 2.02013 -0.0594163 0
M  V30 701 C 65.1273 1.45101 1.30271 0
M  V30 702 O 64.3973 0.633317 1.8538 0
M  V30 703 H 62.9773 0.746759 -0.0189745 0
M  V30 704 H 65.6393 1.79862 -0.750717 0
M  V30 705 H 64.7353 3.12097 0.014345 0
M  V30 706 N 65.0364 0.313813 1.54444 0
M  V30 707 C 66.2644 -0.293918 2.04802 0
M  V30 708 C 66.6794 -1.46537 1.19047 0
M  V30 709 O 66.0364 -1.81182 0.218939 0
M  V30 710 C 66.0874 -0.737806 3.53891 0
M  V30 711 O 65.8084 0.387038 4.36387 0
M  V30 712 C 67.3094 -1.40936 4.203 0
M  V30 713 H 64.5294 -0.0620057 0.668129 0
M  V30 714 H 67.0734 0.457169 1.99324 0
M  V30 715 H 65.2284 -1.43889 3.59687 0
M  V30 716 H 65.6424 0.0391274 5.24485 0
M  V30 717 H 67.1164 -1.67099 5.26101 0
M  V30 718 H 67.5934 -2.35355 3.70816 0
M  V30 719 H 68.1994 -0.751117 4.18615 0
M  V30 720 N 66.5145 -1.57545 0.0417849 0
M  V30 721 C 67.7425 -1.96624 -0.643928 0
M  V30 722 C 68.1575 -0.918897 -1.64929 0
M  V30 723 O 67.5145 0.0979323 -1.82237 0
M  V30 724 C 67.5655 -3.35781 -1.33914 0
M  V30 725 O 67.2865 -4.365 -0.374048 0
M  V30 726 C 68.7875 -3.89566 -2.1155 0
M  V30 727 H 66.0075 -0.647316 -0.176702 0
M  V30 728 H 68.5515 -2.04229 0.105304 0
M  V30 729 H 66.7065 -3.29357 -2.03968 0
M  V30 730 H 67.1205 -5.17248 -0.869179 0
M  V30 731 H 68.5945 -4.89242 -2.55628 0
M  V30 732 H 69.0715 -3.24488 -2.9598 0
M  V30 733 H 69.6775 -3.99298 -1.46427 0
M  V30 734 N 67.9926 0.231505 -1.5589 0
M  V30 735 C 69.4086 0.580748 -1.48659 0
M  V30 736 C 69.6086 1.87617 -0.73498 0
M  V30 737 O 68.6646 2.51046 -0.270586 0
M  V30 738 C 69.9776 0.669202 -2.93159 0
M  V30 739 C 71.5256 0.760499 -3.03621 0
M  V30 740 C 72.0006 0.880383 -4.49459 0
M  V30 741 N 73.4916 0.944861 -4.53461 0
M  V30 742 C 74.2266 1.05716 -5.63571 0
M  V30 743 N 73.7226 1.13403 -6.83456 0
M  V30 744 N 75.5156 1.09152 -5.514 0
M  V30 745 H 67.6666 -0.618695 -2.03189 0
M  V30 746 H 69.9296 -0.215728 -0.923128 0
M  V30 747 H 69.6356 -0.212904 -3.51055 0
M  V30 748 H 69.5096 1.5361 -3.44505 0
M  V30 749 H 71.8966 1.63305 -2.45796 0
M  V30 750 H 71.9776 -0.131864 -2.5546 0
M  V30 751 H 71.6216 0.0123284 -5.07899 0
M  V30 752 H 71.5516 1.78802 -4.95316 0
M  V30 753 H 74.0426 0.896176 -3.6712 0
M  V30 754 H 74.3556 1.21921 -7.63122 0
M  V30 755 H 72.7006 1.10333 -6.86186 0
M  V30 756 H 75.8916 1.02805 -4.56671 0
M  V30 757 H 76.0646 1.17558 -6.37247 0
M  V30 758 N 69.4707 1.49531 0.497807 0
M  V30 759 C 70.8817 1.52344 1.07927 0
M  V30 760 C 71.2327 0.311469 1.93712 0
M  V30 761 O 70.3577 -0.578405 2.08527 0
M  V30 762 C 70.9527 2.76062 1.96405 0
M  V30 763 C 69.5117 2.81643 2.49709 0
M  V30 764 C 68.6587 2.46299 1.27404 0
M  V30 765 H 71.6097 1.56182 0.281576 0
M  V30 766 H 71.6307 2.56405 2.81135 0
M  V30 767 H 71.1427 3.64254 1.33943 0
M  V30 768 H 69.2437 1.97739 3.15801 0
M  V30 769 H 69.3567 3.83891 2.86643 0
M  V30 770 H 67.7207 1.98148 1.60029 0
M  V30 771 H 68.5037 3.36769 0.66645 0
M  V30 772 N 70.9488 -0.749086 1.3866 0
M  V30 773 C 72.1948 -1.51056 1.35314 0
M  V30 774 C 72.5278 -1.94121 -0.0553751 0
M  V30 775 O 71.8028 -1.65763 -1.01749 0
M  V30 776 C 72.0858 -2.76003 2.31288 0
M  V30 777 C 71.9388 -2.39047 3.8102 0
M  V30 778 C 73.2578 -3.78046 2.2532 0
M  V30 779 H 70.3768 -0.547972 0.492844 0
M  V30 780 H 73.0188 -0.857628 1.69543 0
M  V30 781 H 71.1688 -3.31716 2.02229 0
M  V30 782 H 72.8408 -1.89074 4.20771 0
M  V30 783 H 71.0838 -1.71449 3.98482 0
M  V30 784 H 71.7548 -3.28462 4.4364 0
M  V30 785 H 74.2308 -3.31884 2.50983 0
M  V30 786 H 73.1068 -4.63159 2.94576 0
M  V30 787 H 73.3678 -4.23957 1.25352 0
M  V30 788 N 72.4269 -1.23603 -0.977757 0
M  V30 789 C 73.6729 -1.07129 -1.72195 0
M  V30 790 C 74.0059 0.390501 -1.90233 0
M  V30 791 O 73.2809 1.28902 -1.45653 0
M  V30 792 C 73.5639 -1.80031 -3.11867 0
M  V30 793 C 73.4169 -3.33899 -3.01383 0
M  V30 794 C 74.7359 -1.56492 -4.11337 0
M  V30 795 H 71.8549 -0.390571 -0.624999 0
M  V30 796 H 74.4969 -1.52142 -1.13811 0
M  V30 797 H 72.6469 -1.41768 -3.6171 0
M  V30 798 H 74.3189 -3.81699 -2.59043 0
M  V30 799 H 72.5619 -3.62796 -2.37827 0
M  V30 800 H 73.2329 -3.801 -4.00285 0
M  V30 801 H 75.7089 -1.89757 -3.70313 0
M  V30 802 H 74.5849 -2.09973 -5.07151 0
M  V30 803 H 74.8459 -0.500874 -4.39254 0
M  V30 804 N 73.905 1.17692 -1.04816 0
M  V30 805 C 75.316 1.69501 -0.782698 0
M  V30 806 C 75.667 1.83456 0.695577 0
M  V30 807 O 74.792 1.51942 1.54086 0
M  V30 808 C 75.387 3.07874 -1.41419 0
M  V30 809 C 73.946 3.56864 -1.19686 0
M  V30 810 C 73.093 2.3322 -1.50012 0
M  V30 811 H 76.044 1.02262 -1.2136 0
M  V30 812 H 76.065 3.71528 -0.821428 0
M  V30 813 H 75.577 2.97685 -2.49009 0
M  V30 814 H 73.678 3.72337 -0.140043 0
M  V30 815 H 73.791 4.39851 -1.89916 0
M  V30 816 H 72.155 2.37501 -0.920071 0
M  V30 817 H 72.938 2.25644 -2.58727 0
M  V30 818 N 75.3831 0.828654 1.34056 0
M  V30 819 C 76.6321 0.415828 1.97367 0
M  V30 820 C 76.9451 -1.02796 1.6641 0
M  V30 821 O 78.1511 -1.54497 2.23255 0
M  V30 822 C 76.6071 0.692601 3.53173 0
M  V30 823 C 76.2151 2.15038 3.93017 0
M  V30 824 C 77.9591 0.346222 4.23086 0
M  V30 825 C 75.8661 2.37174 5.41758 0
M  V30 826 H 74.7961 0.151755 0.738571 0
M  V30 827 H 77.4471 1.01581 1.52819 0
M  V30 828 H 75.8291 0.0223764 3.95994 0
M  V30 829 H 77.0031 2.86024 3.61285 0
M  V30 830 H 75.3181 2.45875 3.36057 0
M  V30 831 H 77.9151 0.48937 5.32456 0
M  V30 832 H 78.2581 -0.709842 4.10204 0
M  V30 833 H 78.7911 0.971258 3.85761 0
M  V30 834 H 75.5301 3.41308 5.59633 0
M  V30 835 H 75.0501 1.70738 5.74986 0
M  V30 836 H 76.7291 2.19818 6.08514 0
M  V30 837 N 76.8612 -1.46375 0.584142 0
M  V30 838 C 78.1382 -1.956 0.0033388 0
M  V30 839 C 78.5182 -1.52679 -1.45782 0
M  V30 840 O 77.8662 -0.77816 -2.14842 0
M  V30 841 C 78.0762 -3.48551 0.176891 0
M  V30 842 C 79.4242 -4.24576 0.0454609 0
M  V30 843 O 80.4482 -3.56043 0.105801 0
M  V30 844 O 79.3072 -5.46427 -0.0890376 0
M  V30 845 H 76.4012 -0.825547 -0.0490066 0
M  V30 846 H 78.9472 -1.56652 0.65256 0
M  V30 847 H 77.7192 -3.72683 1.1926 0
M  V30 848 H 77.3422 -3.94332 -0.508695 0
M  V30 849 N 78.3393 -0.321999 -1.54275 0
M  V30 850 C 79.5643 0.285791 -2.05422 0
M  V30 851 C 79.9893 1.45124 -1.19669 0
M  V30 852 O 79.3473 1.80132 -0.205441 0
M  V30 853 C 79.3953 0.69956 -3.53749 0
M  V30 854 O 78.4993 1.8021 -3.70942 0
M  V30 855 H 77.8403 0.0518962 -0.661969 0
M  V30 856 H 80.3703 -0.469954 -1.9913 0
M  V30 857 H 80.3803 0.982649 -3.9599 0
M  V30 858 H 79.0553 -0.152864 -4.15619 0
M  V30 859 H 77.6323 1.51794 -3.40607 0
M  V30 860 N 79.8174 1.5752 -0.0501392 0
M  V30 861 C 81.0424 1.97376 0.636997 0
M  V30 862 C 81.4674 0.927466 1.63645 0
M  V30 863 O 80.8254 -0.10941 1.8097 0
M  V30 864 C 80.8734 3.36304 1.30123 0
M  V30 865 O 79.9774 3.34156 2.41689 0
M  V30 866 H 79.3184 0.642998 0.165679 0
M  V30 867 H 81.8484 2.04258 -0.118233 0
M  V30 868 H 81.8584 3.73008 1.65315 0
M  V30 869 H 80.5334 4.11993 0.568746 0
M  V30 870 H 79.1104 3.09196 2.08451 0
M  V30 871 N 81.2955 -0.223234 1.56011 0
M  V30 872 C 82.5725 -0.972108 1.69733 0
M  V30 873 C 82.9525 -2.02485 0.59691 0
M  V30 874 O 82.3005 -2.25037 -0.396324 0
M  V30 875 C 82.5105 -1.58407 3.10979 0
M  V30 876 C 83.8585 -2.07696 3.70334 0
M  V30 877 O 84.8825 -1.68304 3.1393 0
M  V30 878 O 83.7415 -2.80096 4.69264 0
M  V30 879 H 80.8355 -0.453993 0.691245 0
M  V30 880 H 83.3815 -0.215149 1.68331 0
M  V30 881 H 82.1535 -0.823831 3.82529 0
M  V30 882 H 81.7765 -2.40661 3.16493 0
M  V30 883 N 82.7736 -1.49793 -0.48987 0
M  V30 884 C 84.0206 -1.59841 -1.24327 0
M  V30 885 C 84.3486 -0.290135 -1.92324 0
M  V30 886 O 83.6036 0.722749 -1.81865 0
M  V30 887 C 83.9026 -2.71488 -2.32441 0
M  V30 888 C 83.5686 -4.12614 -1.81826 0
M  V30 889 C 82.2306 -4.51017 -1.67742 0
M  V30 890 C 84.5826 -5.00892 -1.4407 0
M  V30 891 C 81.9106 -5.75459 -1.14297 0
M  V30 892 C 84.2626 -6.25863 -0.920742 0
M  V30 893 C 82.9266 -6.63086 -0.766383 0
M  V30 894 H 82.1966 -0.584899 -0.454944 0
M  V30 895 H 84.8436 -1.83663 -0.542215 0
M  V30 896 H 83.1486 -2.4168 -3.0838 0
M  V30 897 H 84.8456 -2.76469 -2.90458 0
M  V30 898 H 81.4356 -3.82307 -1.93751 0
M  V30 899 H 85.6196 -4.7187 -1.53794 0
M  V30 900 H 80.8756 -6.02989 -1.01068 0
M  V30 901 H 85.0496 -6.9364 -0.619448 0
M  V30 902 H 82.6766 -7.59393 -0.350083 0
M  V30 903 N 84.2517 0.741722 -1.39055 0
M  V30 904 C 85.2147 1.83733 -1.37021 0
M  V30 905 C 86.2147 1.58542 -0.268534 0
M  V30 906 O 87.4047 1.66067 -0.526076 0
M  V30 907 C 84.5367 3.2141 -1.13617 0
M  V30 908 H 85.7297 1.86941 -2.34506 0
M  V30 909 H 83.2827 0.944676 -1.24521 0
M  V30 910 H 84.0177 3.23865 -0.167863 0
M  V30 911 H 83.8027 3.4109 -1.93391 0
M  V30 912 H 85.2927 4.01477 -1.14918 0
M  V30 913 N 85.7298 1.2412 0.971189 0
M  V30 914 C 86.6598 1.05508 2.08304 0
M  V30 915 C 87.6408 -0.0308864 1.70072 0
M  V30 916 O 88.8258 0.135521 1.93727 0
M  V30 917 C 85.9558 0.655365 3.4106 0
M  V30 918 C 84.9098 1.68971 3.93234 0
M  V30 919 C 84.2358 1.14516 5.22293 0
M  V30 920 C 85.5358 3.08487 4.21465 0
M  V30 921 H 87.2298 1.98507 2.24132 0
M  V30 922 H 84.7758 0.955821 1.07704 0
M  V30 923 H 86.7288 0.51217 4.18276 0
M  V30 924 H 85.4528 -0.31032 3.25122 0
M  V30 925 H 84.1118 1.82106 3.18171 0
M  V30 926 H 83.7598 0.170189 5.02712 0
M  V30 927 H 83.4598 1.83635 5.58168 0
M  V30 928 H 84.9838 1.01401 6.02121 0
M  V30 929 H 86.3978 2.98601 4.89398 0
M  V30 930 H 84.7948 3.74926 4.68562 0
M  V30 931 H 85.8648 3.56787 3.28376 0
M  V30 932 N 87.2079 -1.17134 1.05439 0
M  V30 933 C 88.4849 -1.83411 0.679699 0
M  V30 934 C 88.8649 -1.9368 -0.839726 0
M  V30 935 O 88.2129 -1.47325 -1.74664 0
M  V30 936 C 88.4229 -3.20918 1.37159 0
M  V30 937 C 89.7709 -3.96796 1.51123 0
M  V30 938 O 90.7949 -3.30406 1.3308 0
M  V30 939 O 89.6539 -5.15778 1.80651 0
M  V30 940 H 86.7479 -0.79154 0.239569 0
M  V30 941 H 89.2939 -1.24411 1.15413 0
M  V30 942 H 88.0659 -3.08428 2.40807 0
M  V30 943 H 87.6889 -3.87587 0.886674 0
M  V30 944 N 88.686 -0.835752 -1.33615 0
M  V30 945 C 89.935 -0.426289 -1.97144 0
M  V30 946 C 90.248 1.01912 -1.66953 0
M  V30 947 O 91.454 1.53311 -2.24072 0
M  V30 948 C 89.91 -0.711321 -3.52801 0
M  V30 949 C 89.518 -2.1712 -3.91871 0
M  V30 950 C 91.262 -0.368654 -4.22896 0
M  V30 951 C 89.169 -2.40044 -5.40493 0
M  V30 952 H 88.099 -0.15567 -0.737755 0
M  V30 953 H 90.75 -1.0239 -1.52278 0
M  V30 954 H 89.132 -0.0433766 -3.95976 0
M  V30 955 H 90.306 -2.87936 -3.59763 0
M  V30 956 H 88.621 -2.47654 -3.34749 0
M  V30 957 H 91.218 -0.517601 -5.32189 0
M  V30 958 H 91.561 0.688078 -4.10574 0
M  V30 959 H 92.094 -0.991702 -3.8524 0
M  V30 960 H 88.833 -3.44271 -5.57815 0
M  V30 961 H 88.353 -1.73785 -5.74072 0
M  V30 962 H 90.032 -2.23042 -6.0734 0
M  V30 963 N 90.1641 1.46063 -0.591896 0
M  V30 964 C 91.5801 1.57561 -0.254288 0
M  V30 965 C 91.7801 1.58565 1.24336 0
M  V30 966 O 90.8361 1.50753 2.02558 0
M  V30 967 C 92.1491 2.86549 -0.911611 0
M  V30 968 C 93.6971 3.00197 -0.886059 0
M  V30 969 C 94.1721 4.31933 -1.5231 0
M  V30 970 N 95.6631 4.38654 -1.48786 0
M  V30 971 C 96.3981 5.39222 -1.95006 0
M  V30 972 N 95.8941 6.46414 -2.49241 0
M  V30 973 N 97.6871 5.3048 -1.85868 0
M  V30 974 H 89.8381 1.43655 -1.56451 0
M  V30 975 H 92.1011 0.68583 -0.654478 0
M  V30 976 H 91.8071 2.91651 -1.96551 0
M  V30 977 H 91.6811 3.74794 -0.425368 0
M  V30 978 H 94.0681 2.9467 0.159246 0
M  V30 979 H 94.1491 2.13403 -1.41041 0
M  V30 980 H 93.7931 4.38217 -2.56765 0
M  V30 981 H 93.7231 5.17516 -0.973891 0
M  V30 982 H 96.2141 3.61793 -1.09151 0
M  V30 983 H 96.5271 7.19376 -2.82344 0
M  V30 984 H 94.8721 6.47208 -2.53272 0
M  V30 985 H 98.0631 4.45643 -1.43248 0
M  V30 986 H 98.2361 6.08711 -2.22204 0
M  V30 987 N 91.6422 0.330177 1.54103 0
M  V30 988 C 92.5752 -0.575477 2.20825 0
M  V30 989 C 93.5532 -1.11064 1.18758 0
M  V30 990 O 94.7372 -1.17341 1.47524 0
M  V30 991 C 91.8642 -1.79032 2.87516 0
M  V30 992 C 90.9102 -1.38581 4.03358 0
M  V30 993 S 91.7432 -0.416911 5.33875 0
M  V30 994 C 92.8992 -1.63889 6.04062 0
M  V30 995 H 93.1322 -0.00872114 2.97299 0
M  V30 996 H 90.6652 0.114254 1.53977 0
M  V30 997 H 92.6232 -2.48734 3.2656 0
M  V30 998 H 91.2842 -2.32827 2.10832 0
M  V30 999 H 90.4772 -2.29123 4.48908 0
M  V30 1000 H 90.0792 -0.768419 3.66021 0
M  V30 1001 H 92.3712 -2.57536 6.26643 0
M  V30 1002 H 93.3142 -1.22542 6.97416 0
M  V30 1003 H 93.7222 -1.82887 5.34053 0
M  V30 1004 N 93.1203 -1.57491 0.0584922 0
M  V30 1005 C 94.5313 -1.80526 -0.476138 0
M  V30 1006 C 94.8823 -0.971334 -1.70469 0
M  V30 1007 O 94.0073 -0.190012 -2.15564 0
M  V30 1008 C 94.6023 -3.27424 -0.870587 0
M  V30 1009 C 93.1613 -3.51351 -1.35015 0
M  V30 1010 C 92.3083 -2.75343 -0.32887 0
M  V30 1011 H 95.2593 -1.56133 0.284312 0
M  V30 1012 H 95.2803 -3.38745 -1.73299 0
M  V30 1013 H 94.7923 -3.88093 0.0237627 0
M  V30 1014 H 92.8933 -2.95971 -2.26345 0
M  V30 1015 H 93.0063 -4.60059 -1.33726 0
M  V30 1016 H 91.3703 -2.417 -0.803321 0
M  V30 1017 H 92.1533 -3.38743 0.557521 0
M  V30 1018 N 94.5984 0.214957 -1.56127 0
M  V30 1019 C 95.8464 0.936518 -1.79091 0
M  V30 1020 C 96.1674 1.84606 -0.628148 0
M  V30 1021 O 95.4374 1.92664 0.35462 0
M  V30 1022 H 94.0174 0.3488 -0.660566 0
M  V30 1023 H 96.6794 0.22523 -1.93594 0
M  V30 1024 H 95.7754 1.53943 -2.71492 0
M  V30 1025 N 96.0765 1.50051 0.48192 0
M  V30 1026 C 97.3225 1.60736 1.2366 0
M  V30 1027 C 97.6555 0.301786 1.91841 0
M  V30 1028 O 96.9305 -0.696025 1.8162 0
M  V30 1029 C 97.2135 2.78009 2.28874 0
M  V30 1030 C 97.0665 4.18416 1.65069 0
M  V30 1031 C 98.3855 2.90867 3.30279 0
M  V30 1032 H 95.5045 0.585031 0.448228 0
M  V30 1033 H 98.1465 1.82402 0.531946 0
M  V30 1034 H 96.2965 2.59667 2.88973 0
M  V30 1035 H 97.9685 4.48322 1.0865 0
M  V30 1036 H 96.2115 4.23177 0.954148 0
M  V30 1037 H 96.8825 4.96381 2.41474 0
M  V30 1038 H 99.3585 3.07623 2.80191 0
M  V30 1039 H 98.2345 3.74566 4.01238 0
M  V30 1040 H 98.4955 2.01021 3.93755 0
M  V30 1041 N 97.5546 -0.734337 1.39446 0
M  V30 1042 C 98.7826 -1.52358 1.39981 0
M  V30 1043 C 99.1976 -1.88799 -0.0054975 0
M  V30 1044 O 98.5546 -1.54146 -0.976998 0
M  V30 1045 C 98.6056 -2.81072 2.27333 0
M  V30 1046 O 98.3266 -2.46178 3.62392 0
M  V30 1047 C 99.8276 -3.75096 2.36259 0
M  V30 1048 H 97.0476 -0.470806 0.478103 0
M  V30 1049 H 99.5916 -0.907339 1.83269 0
M  V30 1050 H 97.7466 -3.39026 1.87457 0
M  V30 1051 H 98.1606 -3.28866 4.08592 0
M  V30 1052 H 99.6346 -4.62305 3.01626 0
M  V30 1053 H 100.112 -4.16892 1.38194 0
M  V30 1054 H 100.718 -3.23061 2.76608 0
M  V30 1055 N 99.0327 -1.24633 -0.964593 0
M  V30 1056 C 100.444 -1.08045 -1.5226 0
M  V30 1057 C 100.795 0.347116 -1.93105 0
M  V30 1058 O 99.9197 1.23588 -1.77637 0
M  V30 1059 C 100.515 -1.95514 -2.76695 0
M  V30 1060 C 99.0737 -1.8314 -3.28841 0
M  V30 1061 C 98.2207 -1.90262 -2.01732 0
M  V30 1062 H 101.172 -1.38064 -0.782553 0
M  V30 1063 H 101.193 -1.48925 -3.50145 0
M  V30 1064 H 100.705 -2.99407 -2.46936 0
M  V30 1065 H 98.8057 -0.82092 -3.63444 0
M  V30 1066 H 98.9187 -2.67406 -3.97531 0
M  V30 1067 H 97.2827 -1.34027 -2.16584 0
M  V30 1068 H 98.0657 -2.9574 -1.74334 0
M  V30 1069 N 100.511 1.16574 -1.06058 0
M  V30 1070 C 101.458 2.20883 -0.669263 0
M  V30 1071 C 102.428 1.62729 0.332918 0
M  V30 1072 O 103.613 1.895 0.222346 0
M  V30 1073 C 100.753 3.45049 -0.0593572 0
M  V30 1074 C 99.8658 4.17458 -1.11143 0
M  V30 1075 C 99.0008 5.29135 -0.467916 0
M  V30 1076 C 98.0398 5.93343 -1.50369 0
M  V30 1077 N 97.1768 6.96516 -0.883706 0
M  V30 1078 H 102.017 2.53709 -1.5632 0
M  V30 1079 H 99.5538 1.24616 -0.781625 0
M  V30 1080 H 101.512 4.16033 0.311771 0
M  V30 1081 H 100.142 3.12781 0.797992 0
M  V30 1082 H 99.1938 3.45101 -1.60029 0
M  V30 1083 H 100.506 4.61307 -1.89731 0
M  V30 1084 H 99.6598 6.06684 -0.0436871 0
M  V30 1085 H 98.3988 4.86443 0.349864 0
M  V30 1086 H 97.4038 5.14517 -1.93784 0
M  V30 1087 H 98.6288 6.38114 -2.32352 0
M  V30 1088 H 96.5748 6.55943 -0.086595 0
M  V30 1089 H 96.4918 7.38723 -1.607 0
M  V30 1090 H 97.7598 7.77993 -0.484543 0
M  V30 1091 N 101.989 0.842826 1.3317 0
M  V30 1092 C 102.921 0.236245 2.27979 0
M  V30 1093 C 103.934 -0.585282 1.51915 0
M  V30 1094 O 105.123 -0.411705 1.73687 0
M  V30 1095 C 102.223 -0.685717 3.3189 0
M  V30 1096 C 101.396 0.0973448 4.37292 0
M  V30 1097 C 100.455 -0.748565 5.20848 0
M  V30 1098 O 99.4809 -0.186339 5.68895 0
M  V30 1099 N 100.683 -2.06527 5.42519 0
M  V30 1100 H 103.448 1.05088 2.80672 0
M  V30 1101 H 101.009 0.701667 1.45905 0
M  V30 1102 H 103.001 -1.25669 3.84694 0
M  V30 1103 H 101.571 -1.40105 2.79445 0
M  V30 1104 H 100.791 0.849706 3.84933 0
M  V30 1105 H 102.079 0.635643 5.04814 0
M  V30 1106 H 101.477 -2.54554 5.05192 0
M  V30 1107 H 100.034 -2.58464 5.98364 0
M  V30 1108 N 103.467 -1.45747 0.599634 0
M  V30 1109 C 104.692 -2.07178 0.0960198 0
M  V30 1110 C 105.117 -1.44268 -1.207 0
M  V30 1111 O 104.475 -0.532503 -1.73303 0
M  V30 1112 C 104.523 -3.60579 -0.0385348 0
M  V30 1113 O 103.627 -3.97713 -1.0908 0
M  V30 1114 H 102.968 -0.660251 0.0704593 0
M  V30 1115 H 105.498 -1.87124 0.827385 0
M  V30 1116 H 105.508 -4.07298 -0.239304 0
M  V30 1117 H 104.183 -4.05756 0.912947 0
M  V30 1118 H 102.76 -3.62678 -0.867135 0
M  V30 1119 N 104.945 -0.338344 -1.53925 0
M  V30 1120 C 106.222 0.314774 -1.93051 0
M  V30 1121 C 106.602 1.68669 -1.26941 0
M  V30 1122 O 105.95 2.24636 -0.418445 0
M  V30 1123 C 106.16 0.392249 -3.46789 0
M  V30 1124 C 107.508 0.645554 -4.19664 0
M  V30 1125 O 108.532 0.474575 -3.53024 0
M  V30 1126 O 107.391 0.976408 -5.37707 0
M  V30 1127 H 104.485 0.182598 -0.80659 0
M  V30 1128 H 107.031 -0.389141 -1.65178 0
M  V30 1129 H 105.803 -0.570702 -3.87116 0
M  V30 1130 H 105.426 1.14316 -3.80812 0
M  V30 1131 N 106.423 1.57458 -0.0668435 0
M  V30 1132 C 107.651 1.97624 0.612565 0
M  V30 1133 C 108.066 0.94502 1.63447 0
M  V30 1134 O 107.423 -0.0689276 1.8237 0
M  V30 1135 C 107.474 3.37869 1.28555 0
M  V30 1136 O 107.195 4.3704 0.304557 0
M  V30 1137 C 108.696 3.92882 2.05325 0
M  V30 1138 H 105.916 0.650045 0.166381 0
M  V30 1139 H 108.46 2.04035 -0.137782 0
M  V30 1140 H 106.615 3.3256 1.98702 0
M  V30 1141 H 107.029 5.18565 0.786779 0
M  V30 1142 H 108.503 4.93247 2.47812 0
M  V30 1143 H 108.98 3.29156 2.9078 0
M  V30 1144 H 109.586 4.01577 1.40056 0
M  V30 1145 N 107.901 -0.206675 1.56239 0
M  V30 1146 C 109.131 -0.943975 1.83773 0
M  V30 1147 C 109.539 -1.77841 0.645703 0
M  V30 1148 O 108.882 -1.79403 -0.395008 0
M  V30 1149 C 108.944 -1.899 3.05251 0
M  V30 1150 C 108.608 -1.24764 4.39639 0
M  V30 1151 C 109.605 -0.630216 5.16066 0
M  V30 1152 C 107.29 -1.25496 4.8637 0
M  V30 1153 C 109.284 -0.0287946 6.37393 0
M  V30 1154 C 106.971 -0.649698 6.07637 0
M  V30 1155 C 107.969 -0.0376845 6.8299 0
M  V30 1156 O 107.657 0.55812 8.0196 0
M  V30 1157 H 107.389 -0.281508 0.614597 0
M  V30 1158 H 109.943 -0.222458 2.04192 0
M  V30 1159 H 108.173 -2.6599 2.80689 0
M  V30 1160 H 109.862 -2.5031 3.1953 0
M  V30 1161 H 110.628 -0.616785 4.81062 0
M  V30 1162 H 106.507 -1.72072 4.27683 0
M  V30 1163 H 110.051 0.449518 6.9615 0
M  V30 1164 H 105.948 -0.660592 6.42111 0
M  V30 1165 H 106.716 0.453891 8.17241 0
M  V30 1166 N 109.379 -1.50304 -0.473955 0
M  V30 1167 C 110.626 -1.6115 -1.22625 0
M  V30 1168 C 110.954 -0.310517 -1.92005 0
M  V30 1169 O 110.209 0.703419 -1.82621 0
M  V30 1170 C 110.508 -2.73938 -2.29549 0
M  V30 1171 C 110.174 -4.14519 -1.7744 0
M  V30 1172 C 108.836 -4.5277 -1.62949 0
M  V30 1173 C 111.188 -5.02392 -1.3875 0
M  V30 1174 C 108.516 -5.76639 -1.08187 0
M  V30 1175 C 110.868 -6.26805 -0.854309 0
M  V30 1176 C 109.532 -6.63861 -0.696011 0
M  V30 1177 H 108.802 -0.589691 -0.448715 0
M  V30 1178 H 111.449 -1.84228 -0.522705 0
M  V30 1179 H 109.754 -2.44937 -3.05799 0
M  V30 1180 H 111.451 -2.79534 -2.87509 0
M  V30 1181 H 108.041 -3.8434 -1.89685 0
M  V30 1182 H 112.225 -4.73474 -1.4878 0
M  V30 1183 H 107.481 -6.04027 -0.946666 0
M  V30 1184 H 111.655 -6.94258 -0.545843 0
M  V30 1185 H 109.282 -7.59722 -0.26952 0
M  V30 1186 N 110.857 0.726932 -1.39834 0
M  V30 1187 C 112.097 1.4992 -1.38936 0
M  V30 1188 C 112.461 1.91996 0.0126883 0
M  V30 1189 O 113.662 2.68399 0.146715 0
M  V30 1190 C 111.933 2.70013 -2.34153 0
M  V30 1191 S 113.492 3.59563 -2.51515 0
M  V30 1192 H 110.31 0.51271 -0.492595 0
M  V30 1193 H 112.912 0.85107 -1.76003 0
M  V30 1194 H 111.616 2.37254 -3.34871 0
M  V30 1195 H 111.147 3.39748 -1.98331 0
M  V30 1196 H 113.162 4.63973 -1.75909 0
M  V30 1197 N 112.336 1.25143 0.95797 0
M  V30 1198 C 113.269 0.995565 2.05338 0
M  V30 1199 C 114.247 -0.0740423 1.62431 0
M  V30 1200 O 115.431 0.0649212 1.88388 0
M  V30 1201 C 112.558 0.504298 3.34925 0
M  V30 1202 C 111.604 1.56393 3.96792 0
M  V30 1203 S 112.437 3.14815 4.33188 0
M  V30 1204 C 113.593 2.67415 5.65898 0
M  V30 1205 H 113.826 1.92309 2.26726 0
M  V30 1206 H 111.359 1.08635 1.09716 0
M  V30 1207 H 113.317 0.227497 4.09869 0
M  V30 1208 H 111.978 -0.402671 3.11508 0
M  V30 1209 H 111.171 1.17082 4.90212 0
M  V30 1210 H 110.773 1.79124 3.28315 0
M  V30 1211 H 113.065 2.10833 6.4386 0
M  V30 1212 H 114.008 3.59463 6.10076 0
M  V30 1213 H 114.416 2.07521 5.24972 0
M  V30 1214 N 113.814 -1.1601 1.06675 0
M  V30 1215 C 115.039 -1.91068 0.806706 0
M  V30 1216 C 115.464 -1.77112 -0.633485 0
M  V30 1217 O 114.822 -1.09908 -1.44187 0
M  V30 1218 C 114.87 -3.39655 1.21106 0
M  V30 1219 O 113.974 -4.10893 0.352189 0
M  V30 1220 H 113.315 -0.595125 0.294486 0
M  V30 1221 H 115.845 -1.46955 1.42356 0
M  V30 1222 H 115.855 -3.90434 1.18428 0
M  V30 1223 H 114.53 -3.49132 2.26008 0
M  V30 1224 H 113.107 -3.70285 0.440868 0
M  V30 1225 N 115.292 -0.849877 -1.32721 0
M  V30 1226 C 116.225 -0.235903 -2.26977 0
M  V30 1227 C 117.203 0.623355 -1.50177 0
M  V30 1228 O 118.387 0.581207 -1.79316 0
M  V30 1229 C 115.514 0.667712 -3.32053 0
M  V30 1230 C 114.56 -0.11753 -4.26338 0
M  V30 1231 S 115.393 -1.48277 -5.14562 0
M  V30 1232 C 116.549 -0.584741 -6.23163 0
M  V30 1233 H 116.782 -1.03495 -2.78704 0
M  V30 1234 H 114.315 -0.64724 -1.40179 0
M  V30 1235 H 116.273 1.18343 -3.93072 0
M  V30 1236 H 114.934 1.44052 -2.7912 0
M  V30 1237 H 114.127 0.57051 -5.00761 0
M  V30 1238 H 113.729 -0.564668 -3.69713 0
M  V30 1239 H 116.021 0.212968 -6.77165 0
M  V30 1240 H 116.964 -1.29947 -6.96074 0
M  V30 1241 H 117.372 -0.161202 -5.6427 0
M  V30 1242 N 116.77 1.45427 -0.607355 0
M  V30 1243 C 118.186 1.57283 -0.270985 0
M  V30 1244 C 118.386 1.59875 1.22647 0
M  V30 1245 O 117.442 1.52893 2.00948 0
M  V30 1246 C 118.755 2.85566 -0.941952 0
M  V30 1247 C 120.303 2.9924 -0.917849 0
M  V30 1248 C 120.778 4.30293 -1.56882 0
M  V30 1249 N 122.269 4.37051 -1.5343 0
M  V30 1250 C 123.004 5.37123 -2.00715 0
M  V30 1251 N 122.5 6.43734 -2.56084 0
M  V30 1252 N 124.293 5.28479 -1.91484 0
M  V30 1253 H 116.444 1.41988 -1.57966 0
M  V30 1254 H 118.707 0.67885 -0.661715 0
M  V30 1255 H 118.413 2.8955 -1.99633 0
M  V30 1256 H 118.287 3.74322 -0.465096 0
M  V30 1257 H 120.674 2.94822 0.127984 0
M  V30 1258 H 120.755 2.11895 -1.43297 0
M  V30 1259 H 120.399 4.35469 -2.61398 0
M  V30 1260 H 120.329 5.16454 -1.02873 0
M  V30 1261 H 122.82 3.60615 -1.12982 0
M  V30 1262 H 123.133 7.16341 -2.89958 0
M  V30 1263 H 121.478 6.44485 -2.60122 0
M  V30 1264 H 124.669 4.44098 -1.47967 0
M  V30 1265 H 124.842 6.0632 -2.28648 0
M  V30 1266 N 118.248 0.346503 1.53744 0
M  V30 1267 C 119.497 -0.250122 2.00143 0
M  V30 1268 C 119.81 -1.51418 1.23822 0
M  V30 1269 O 121.016 -2.18823 1.60713 0
M  V30 1270 C 119.472 -0.496252 3.56462 0
M  V30 1271 C 119.08 0.752077 4.41642 0
M  V30 1272 C 120.824 -1.05157 4.11269 0
M  V30 1273 C 118.731 0.476583 5.89477 0
M  V30 1274 H 117.661 -0.0972409 0.747703 0
M  V30 1275 H 120.312 0.46229 1.77581 0
M  V30 1276 H 118.694 -1.26944 3.75102 0
M  V30 1277 H 119.868 1.5266 4.34778 0
M  V30 1278 H 118.183 1.22925 3.97842 0
M  V30 1279 H 120.78 -1.27269 5.19333 0
M  V30 1280 H 121.123 -2.00799 3.64672 0
M  V30 1281 H 121.656 -0.339019 3.96353 0
M  V30 1282 H 118.395 1.4028 6.40314 0
M  V30 1283 H 117.915 -0.259794 5.99237 0
M  V30 1284 H 119.594 0.0949315 6.4693 0
M  V30 1285 N 119.726 -1.57421 0.075193 0
M  V30 1286 C 121.137 -1.81021 -0.456964 0
M  V30 1287 C 121.488 -0.98936 -1.69429 0
M  V30 1288 O 120.613 -0.212865 -2.15351 0
M  V30 1289 C 121.208 -3.28329 -0.83581 0
M  V30 1290 C 119.767 -3.52764 -1.31281 0
M  V30 1291 C 118.914 -2.75676 -0.299648 0
M  V30 1292 H 121.865 -1.55822 0.300856 0
M  V30 1293 H 121.886 -3.40564 -1.69696 0
M  V30 1294 H 121.398 -3.88046 0.0649238 0
M  V30 1295 H 119.499 -2.98355 -2.23193 0
M  V30 1296 H 119.612 -4.61451 -1.28839 0
M  V30 1297 H 117.976 -2.42538 -0.777641 0
M  V30 1298 H 118.759 -3.38132 0.593417 0
M  V30 1299 N 121.204 0.198386 -1.56346 0
M  V30 1300 C 122.45 0.920648 -1.80698 0
M  V30 1301 C 122.783 1.83045 -0.648697 0
M  V30 1302 O 122.058 1.91308 0.350925 0
M  V30 1303 C 122.341 1.73971 -3.15287 0
M  V30 1304 C 122.194 0.85485 -4.41602 0
M  V30 1305 C 123.513 2.71296 -3.46535 0
M  V30 1306 H 120.632 0.333261 -0.657348 0
M  V30 1307 H 123.274 0.188198 -1.89066 0
M  V30 1308 H 121.424 2.36416 -3.08285 0
M  V30 1309 H 123.096 0.245362 -4.60647 0
M  V30 1310 H 121.339 0.161398 -4.335 0
M  V30 1311 H 122.01 1.46286 -5.32264 0
M  V30 1312 H 124.486 2.18983 -3.53816 0
M  V30 1313 H 123.362 3.2569 -4.41834 0
M  V30 1314 H 123.623 3.5018 -2.69864 0
M  V30 1315 N 122.682 1.50554 0.465978 0
M  V30 1316 C 123.959 1.5232 1.22712 0
M  V30 1317 C 124.339 0.270807 2.09356 0
M  V30 1318 O 123.687 -0.745541 2.15995 0
M  V30 1319 C 123.897 2.82175 2.05374 0
M  V30 1320 C 125.245 3.33033 2.6339 0
M  V30 1321 O 126.269 2.83531 2.15612 0
M  V30 1322 O 125.128 4.19336 3.50456 0
M  V30 1323 H 122.222 0.611183 0.557122 0
M  V30 1324 H 124.768 1.62847 0.477381 0
M  V30 1325 H 123.54 3.64797 1.41558 0
M  V30 1326 H 123.163 2.74675 2.87471 0
M  V30 1327 N 124.16 -0.719506 1.40217 0
M  V30 1328 C 125.07 -1.86378 1.42479 0
M  V30 1329 C 126.086 -1.71073 0.317834 0
M  V30 1330 O 127.262 -1.93406 0.561794 0
M  V30 1331 C 124.327 -3.22136 1.28178 0
M  V30 1332 C 123.388 -3.49723 2.48982 0
M  V30 1333 C 122.621 -4.79004 2.35353 0
M  V30 1334 O 122.844 -5.53821 1.36524 0
M  V30 1335 O 121.778 -5.06839 3.2465 0
M  V30 1336 H 125.604 -1.87425 2.38968 0
M  V30 1337 H 123.189 -0.869405 1.21498 0
M  V30 1338 H 125.071 -4.03234 1.22395 0
M  V30 1339 H 123.746 -3.21825 0.347934 0
M  V30 1340 H 122.653 -2.6865 2.60342 0
M  V30 1341 H 123.986 -3.54828 3.41113 0
M  V30 1342 N 125.638 -1.25649 -0.95132 0
M  V30 1343 C 126.548 -1.08073 -2.08224 0
M  V30 1344 C 127.564 -0.0169666 -1.73992 0
M  V30 1345 O 128.74 -0.218593 -2.0021 0
M  V30 1346 C 125.805 -0.704922 -3.39458 0
M  V30 1347 C 124.866 -1.84699 -3.87537 0
M  V30 1348 C 124.099 -1.48902 -5.12508 0
M  V30 1349 O 124.322 -0.386156 -5.69091 0
M  V30 1350 O 123.256 -2.32033 -5.55378 0
M  V30 1351 H 127.082 -2.02924 -2.25954 0
M  V30 1352 H 124.667 -1.04618 -1.06656 0
M  V30 1353 H 126.549 -0.507609 -4.18332 0
M  V30 1354 H 125.224 0.214291 -3.2299 0
M  V30 1355 H 124.131 -2.09919 -3.09653 0
M  V30 1356 H 125.464 -2.74557 -4.08509 0
M  V30 1357 N 127.117 1.15442 -1.07289 0
M  V30 1358 C 128.08 2.18358 -0.696591 0
M  V30 1359 C 129.08 1.58637 0.262837 0
M  V30 1360 O 130.27 1.74145 0.0438809 0
M  V30 1361 C 127.402 3.4089 -0.0266151 0
M  V30 1362 H 128.595 2.53162 -1.60776 0
M  V30 1363 H 126.148 1.29893 -0.869342 0
M  V30 1364 H 126.883 3.11653 0.896822 0
M  V30 1365 H 126.668 3.85495 -0.716657 0
M  V30 1366 H 128.158 4.17009 0.222028 0
M  V30 1367 N 128.595 0.856903 1.32268 0
M  V30 1368 C 129.842 0.461386 1.97174 0
M  V30 1369 C 130.17 -0.983491 1.67803 0
M  V30 1370 O 129.425 -1.70541 0.959903 0
M  V30 1371 C 129.724 0.649919 3.51441 0
M  V30 1372 C 129.39 2.0656 4.00804 0
M  V30 1373 C 128.052 2.45279 4.13995 0
M  V30 1374 C 130.404 2.98947 4.26943 0
M  V30 1375 C 127.732 3.75653 4.50668 0
M  V30 1376 C 130.084 4.28822 4.65075 0
M  V30 1377 C 128.748 4.67472 4.76472 0
M  V30 1378 H 128.018 0.168833 0.72151 0
M  V30 1379 H 130.665 1.08739 1.57633 0
M  V30 1380 H 128.97 -0.0593018 3.91755 0
M  V30 1381 H 130.667 0.32391 3.9969 0
M  V30 1382 H 127.257 1.75495 3.91024 0
M  V30 1383 H 131.441 2.70265 4.16258 0
M  V30 1384 H 126.697 4.05379 4.57688 0
M  V30 1385 H 130.871 5.0047 4.84255 0
M  V30 1386 H 128.498 5.68539 5.04646 0
M  V30 1387 N 130.073 -1.45103 0.615059 0
M  V30 1388 C 131.319 -2.02483 0.113347 0
M  V30 1389 C 131.652 -1.48146 -1.25564 0
M  V30 1390 O 130.927 -0.659104 -1.82992 0
M  V30 1391 C 131.21 -3.60005 0.0825278 0
M  V30 1392 C 131.063 -4.2466 1.48271 0
M  V30 1393 C 132.382 -4.35972 -0.601401 0
M  V30 1394 H 129.501 -0.735764 0.0426632 0
M  V30 1395 H 132.143 -1.72868 0.788461 0
M  V30 1396 H 130.293 -3.85367 -0.492378 0
M  V30 1397 H 131.965 -4.10458 2.10527 0
M  V30 1398 H 130.208 -3.82772 2.04127 0
M  V30 1399 H 130.879 -5.336 1.41332 0
M  V30 1400 H 133.355 -4.15947 -0.112666 0
M  V30 1401 H 132.231 -5.45697 -0.592097 0
M  V30 1402 H 132.492 -4.09391 -1.66887 0
M  V30 1403 N 131.551 -0.354651 -1.53558 0
M  V30 1404 C 132.8 0.239504 -2.00273 0
M  V30 1405 C 133.113 1.50759 -1.24623 0
M  V30 1406 O 134.319 2.17968 -1.61871 0
M  V30 1407 C 132.775 0.477341 -3.5672 0
M  V30 1408 C 132.383 -0.775488 -4.41237 0
M  V30 1409 C 134.127 1.02975 -4.11821 0
M  V30 1410 C 132.034 -0.507838 -5.89216 0
M  V30 1411 H 130.964 0.0932743 -0.748208 0
M  V30 1412 H 133.615 -0.471701 -1.77334 0
M  V30 1413 H 131.997 1.24953 -3.7577 0
M  V30 1414 H 133.171 -1.54963 -4.33962 0
M  V30 1415 H 131.486 -1.25033 -3.97185 0
M  V30 1416 H 134.083 1.24513 -5.2 0
M  V30 1417 H 134.426 1.98862 -3.65731 0
M  V30 1418 H 134.959 0.317994 -3.96527 0
M  V30 1419 H 131.698 -1.43674 -6.39561 0
M  V30 1420 H 131.218 0.228011 -5.99366 0
M  V30 1421 H 132.897 -0.129238 -6.46871 0
M  V30 1422 N 133.029 1.57378 -0.0835403 0
M  V30 1423 C 134.306 1.85363 0.624507 0
M  V30 1424 C 134.686 0.978239 1.87066 0
M  V30 1425 O 134.034 0.0475908 2.2845 0
M  V30 1426 C 134.244 3.35795 0.950947 0
M  V30 1427 C 135.592 4.03581 1.31939 0
M  V30 1428 O 136.616 3.40609 1.04232 0
M  V30 1429 O 135.475 5.14672 1.83779 0
M  V30 1430 H 132.569 0.766162 0.311329 0
M  V30 1431 H 135.115 1.69307 -0.115362 0
M  V30 1432 H 133.887 3.91244 0.0663899 0
M  V30 1433 H 133.51 3.57154 1.74719 0
M  V30 1434 N 134.507 -0.190092 1.56449 0
M  V30 1435 C 135.754 -0.909705 1.80916 0
M  V30 1436 C 136.082 -1.83047 0.657583 0
M  V30 1437 O 135.337 -1.92428 -0.356356 0
M  V30 1438 C 135.636 -1.75382 3.1141 0
M  V30 1439 C 135.302 -0.983606 4.40041 0
M  V30 1440 C 133.964 -0.770967 4.74984 0
M  V30 1441 C 136.316 -0.442024 5.19322 0
M  V30 1442 C 133.644 -0.0053448 5.867 0
M  V30 1443 C 135.996 0.310412 6.31838 0
M  V30 1444 C 134.66 0.534023 6.6536 0
M  V30 1445 H 133.93 -0.332885 0.662019 0
M  V30 1446 H 136.577 -0.175762 1.90692 0
M  V30 1447 H 134.882 -2.55659 2.96893 0
M  V30 1448 H 136.579 -2.31331 3.27547 0
M  V30 1449 H 133.169 -1.15936 4.12622 0
M  V30 1450 H 137.353 -0.593693 4.92736 0
M  V30 1451 H 132.609 0.177825 6.11141 0
M  V30 1452 H 136.783 0.737419 6.92485 0
M  V30 1453 H 134.41 1.12918 7.51767 0
M  V30 1454 N 135.985 -1.50799 -0.457987 0
M  V30 1455 C 136.932 -1.70617 -1.5543 0
M  V30 1456 C 137.902 -0.547562 -1.56815 0
M  V30 1457 O 139.087 -0.779647 -1.74144 0
M  V30 1458 C 136.227 -1.81831 -2.93311 0
M  V30 1459 C 135.34 -3.09278 -3.01615 0
M  V30 1460 C 134.475 -3.11209 -4.30491 0
M  V30 1461 C 133.514 -4.33055 -4.32585 0
M  V30 1462 N 132.651 -4.32652 -5.52952 0
M  V30 1463 H 137.491 -2.64207 -1.37836 0
M  V30 1464 H 135.028 -1.30959 -0.669937 0
M  V30 1465 H 136.986 -1.86314 -3.73287 0
M  V30 1466 H 135.616 -0.916685 -3.0951 0
M  V30 1467 H 134.668 -3.14203 -2.1443 0
M  V30 1468 H 135.98 -3.99233 -2.99022 0
M  V30 1469 H 135.134 -3.14494 -5.18824 0
M  V30 1470 H 133.873 -2.19106 -4.35711 0
M  V30 1471 H 132.878 -4.29969 -3.42647 0
M  V30 1472 H 134.103 -5.264 -4.29046 0
M  V30 1473 H 132.049 -3.43409 -5.58933 0
M  V30 1474 H 131.966 -5.16392 -5.52155 0
M  V30 1475 H 133.234 -4.40101 -6.43375 0
M  V30 1476 N 137.463 0.71206 -1.40597 0
M  V30 1477 C 138.874 1.29135 -1.34837 0
M  V30 1478 C 139.225 1.96186 -0.0235395 0
M  V30 1479 O 138.35 1.97768 0.878444 0
M  V30 1480 C 138.945 2.34827 -2.44217 0
M  V30 1481 C 137.504 2.88371 -2.41907 0
M  V30 1482 C 136.651 1.62202 -2.24913 0
M  V30 1483 H 139.602 0.507944 -1.50352 0
M  V30 1484 H 139.623 3.15749 -2.12327 0
M  V30 1485 H 139.135 1.85996 -3.40627 0
M  V30 1486 H 137.236 3.41422 -1.49204 0
M  V30 1487 H 137.349 3.39925 -3.37621 0
M  V30 1488 H 135.713 1.874 -1.72492 0
M  V30 1489 H 136.496 1.15391 -3.23326 0
M  V30 1490 N 138.941 1.26152 0.944643 0
M  V30 1491 C 140.357 1.03189 1.21754 0
M  V30 1492 C 140.557 -0.245112 2.00004 0
M  V30 1493 O 139.613 -0.955176 2.33736 0
M  V30 1494 C 140.926 2.26119 1.98219 0
M  V30 1495 C 142.474 2.30984 2.11224 0
M  V30 1496 C 142.949 3.53597 2.91089 0
M  V30 1497 N 144.44 3.54053 2.98664 0
M  V30 1498 C 145.175 4.45593 3.60881 0
M  V30 1499 N 144.671 5.47416 4.24626 0
M  V30 1500 N 146.464 4.33252 3.58119 0
M  V30 1501 H 138.615 2.08177 0.421437 0
M  V30 1502 H 140.878 0.914723 0.248969 0
M  V30 1503 H 140.584 3.18984 1.48128 0
M  V30 1504 H 140.458 2.3009 2.98895 0
M  V30 1505 H 142.845 1.38635 2.60508 0
M  V30 1506 H 142.926 2.31026 1.09821 0
M  V30 1507 H 142.57 4.46273 2.42493 0
M  V30 1508 H 142.5 3.50802 3.92741 0
M  V30 1509 H 144.991 2.80403 2.53343 0
M  V30 1510 H 145.304 6.13459 4.69987 0
M  V30 1511 H 143.649 5.51278 4.23223 0
M  V30 1512 H 146.84 3.52924 3.0751 0
M  V30 1513 H 147.013 5.04786 4.06319 0
M  V30 1514 N 140.419 -1.14872 1.07899 0
M  V30 1515 C 141.382 -2.17986 0.708161 0
M  V30 1516 C 142.382 -1.58775 -0.25442 0
M  V30 1517 O 143.572 -1.74166 -0.034645 0
M  V30 1518 C 140.704 -3.40871 0.0446929 0
M  V30 1519 H 141.897 -2.52306 1.62116 0
M  V30 1520 H 139.45 -1.2943 0.876218 0
M  V30 1521 H 140.185 -3.12124 -0.880281 0
M  V30 1522 H 139.97 -3.8511 0.737091 0
M  V30 1523 H 141.46 -4.17121 -0.19991 0
M  V30 1524 N 141.898 -0.863906 -1.31812 0
M  V30 1525 C 143.123 -0.48527 -2.01643 0
M  V30 1526 C 143.548 0.913058 -1.64453 0
M  V30 1527 O 142.906 1.6014 -0.849985 0
M  V30 1528 C 142.954 -0.642625 -3.54828 0
M  V30 1529 O 142.058 0.320659 -4.11151 0
M  V30 1530 H 141.399 -0.193793 -0.635091 0
M  V30 1531 H 143.929 -1.16565 -1.68148 0
M  V30 1532 H 143.939 -0.533628 -4.04495 0
M  V30 1533 H 142.614 -1.66227 -3.81237 0
M  V30 1534 H 141.191 0.167126 -3.72525 0
M  V30 1535 N 143.376 1.44774 -0.622745 0
M  V30 1536 C 144.309 2.27792 0.136329 0
M  V30 1537 C 145.287 1.38041 0.859264 0
M  V30 1538 O 146.471 1.67478 0.86506 0
M  V30 1539 C 143.598 3.16776 1.19878 0
M  V30 1540 C 142.644 4.22575 0.57731 0
M  V30 1541 S 143.477 5.31825 -0.626294 0
M  V30 1542 C 144.633 6.24377 0.436378 0
M  V30 1543 H 144.866 2.91824 -0.567967 0
M  V30 1544 H 142.399 1.48838 -0.410677 0
M  V30 1545 H 144.357 3.68596 1.80686 0
M  V30 1546 H 143.018 2.5198 1.87523 0
M  V30 1547 H 142.211 4.84818 1.37721 0
M  V30 1548 H 141.813 3.73974 0.0440439 0
M  V30 1549 H 144.105 6.64689 1.31128 0
M  V30 1550 H 145.048 7.07941 -0.150271 0
M  V30 1551 H 145.456 5.59381 0.758513 0
M  V30 1552 N 144.854 0.36279 1.53368 0
M  V30 1553 C 146.131 -0.284021 1.93527 0
M  V30 1554 C 146.511 -1.66628 1.29608 0
M  V30 1555 O 145.859 -2.23942 0.45413 0
M  V30 1556 C 146.069 -0.337028 3.47369 0
M  V30 1557 C 147.417 -0.578708 4.20638 0
M  V30 1558 O 148.441 -0.418352 3.53735 0
M  V30 1559 O 147.3 -0.89074 5.39192 0
M  V30 1560 H 144.394 -0.169743 0.809393 0
M  V30 1561 H 146.94 0.41537 1.64538 0
M  V30 1562 H 145.712 0.632217 3.86159 0
M  V30 1563 H 145.335 -1.08243 3.82582 0
M  V30 1564 N 146.332 -1.57332 0.0918853 0
M  V30 1565 C 147.56 -1.98574 -0.581048 0
M  V30 1566 C 147.975 -0.970903 -1.61923 0
M  V30 1567 O 147.332 0.0399054 -1.82456 0
M  V30 1568 C 147.383 -3.39872 -1.23164 0
M  V30 1569 O 147.104 -4.37469 -0.234989 0
M  V30 1570 C 148.605 -3.96099 -1.99049 0
M  V30 1571 H 145.825 -0.65261 -0.156018 0
M  V30 1572 H 148.369 -2.0379 0.170225 0
M  V30 1573 H 146.524 -3.35679 -1.93386 0
M  V30 1574 H 146.938 -5.19751 -0.70418 0
M  V30 1575 H 148.412 -4.97127 -2.39934 0
M  V30 1576 H 148.889 -3.3374 -2.85507 0
M  V30 1577 H 149.495 -4.03755 -1.3365 0
M  V30 1578 N 147.81 0.181792 -1.56548 0
M  V30 1579 C 149.056 0.901431 -1.81665 0
M  V30 1580 C 149.389 1.82347 -0.668075 0
M  V30 1581 O 148.664 1.91669 0.330615 0
M  V30 1582 C 148.947 1.70618 -3.17115 0
M  V30 1583 C 148.8 0.807964 -4.42484 0
M  V30 1584 C 150.119 2.67605 -3.49393 0
M  V30 1585 H 147.238 0.32627 -0.660846 0
M  V30 1586 H 149.88 0.168134 -1.89255 0
M  V30 1587 H 148.03 2.33133 -3.10775 0
M  V30 1588 H 149.702 0.19649 -4.60881 0
M  V30 1589 H 147.945 0.115411 -4.33646 0
M  V30 1590 H 148.616 1.40632 -5.33785 0
M  V30 1591 H 151.092 2.15218 -3.56118 0
M  V30 1592 H 149.968 3.20985 -4.45264 0
M  V30 1593 H 150.229 3.47298 -2.73563 0
M  V30 1594 N 149.288 1.51039 0.449983 0
M  V30 1595 C 150.238 1.67824 1.54335 0
M  V30 1596 C 151.222 0.5324 1.51836 0
M  V30 1597 O 152.414 0.787762 1.58503 0
M  V30 1598 C 149.543 1.7951 2.92628 0
M  V30 1599 C 148.629 2.99838 2.9993 0
M  V30 1600 N 149.02 4.23207 2.77001 0
M  V30 1601 C 147.318 2.98832 3.31082 0
M  V30 1602 C 148.019 5.04361 2.89818 0
M  V30 1603 N 146.995 4.38746 3.2094 0
M  V30 1604 H 150.797 2.60884 1.35339 0
M  V30 1605 H 148.311 1.48513 0.657085 0
M  V30 1606 H 150.308 1.89642 3.7127 0
M  V30 1607 H 148.968 0.876227 3.12654 0
M  V30 1608 H 149.979 4.5236 2.52172 0
M  V30 1609 H 146.656 2.16527 3.56963 0
M  V30 1610 H 148.046 6.12528 2.76151 0
M  V30 1611 N 150.766 -0.704594 1.40972 0
M  V30 1612 C 151.716 -1.81051 1.38581 0
M  V30 1613 C 152.7 -1.58759 0.261585 0
M  V30 1614 O 153.892 -1.69745 0.501556 0
M  V30 1615 C 151.021 -3.19279 1.26157 0
M  V30 1616 C 150.107 -3.47296 2.43405 0
M  V30 1617 N 150.498 -3.46064 3.68881 0
M  V30 1618 C 148.796 -3.77804 2.37023 0
M  V30 1619 C 149.497 -3.72733 4.46592 0
M  V30 1620 N 148.473 -3.9203 3.76581 0
M  V30 1621 H 152.275 -1.78448 2.33525 0
M  V30 1622 H 149.789 -0.904198 1.349 0
M  V30 1623 H 151.786 -3.98488 1.22526 0
M  V30 1624 H 150.446 -3.231 0.321902 0
M  V30 1625 H 151.457 -3.26656 4.01891 0
M  V30 1626 H 148.134 -3.8905 1.51481 0
M  V30 1627 H 149.524 -3.77993 5.55492 0
M  V30 1628 N 152.244 -1.26651 -0.937939 0
M  V30 1629 C 153.177 -1.02811 -2.03728 0
M  V30 1630 C 154.155 0.0481915 -1.62529 0
M  V30 1631 O 155.339 -0.0948839 -1.88261 0
M  V30 1632 C 152.466 -0.557517 -3.3408 0
M  V30 1633 C 151.512 -1.62686 -3.94253 0
M  V30 1634 S 152.345 -3.21667 -4.28125 0
M  V30 1635 C 153.501 -2.76384 -5.61572 0
M  V30 1636 H 153.734 -1.95891 -2.23638 0
M  V30 1637 H 151.267 -1.10367 -1.07974 0
M  V30 1638 H 153.225 -0.292674 -4.09455 0
M  V30 1639 H 151.886 0.353062 -3.12109 0
M  V30 1640 H 151.079 -1.24866 -4.88287 0
M  V30 1641 H 150.681 -1.84324 -3.25424 0
M  V30 1642 H 152.973 -2.2105 -6.40424 0
M  V30 1643 H 153.916 -3.69123 -6.0428 0
M  V30 1644 H 154.324 -2.15847 -5.21604 0
M  V30 1645 N 153.722 1.14298 -1.08507 0
M  V30 1646 C 154.652 2.21542 -0.737646 0
M  V30 1647 C 155.633 1.67773 0.280377 0
M  V30 1648 O 156.818 1.93616 0.150521 0
M  V30 1649 C 153.948 3.46988 -0.147259 0
M  V30 1650 C 152.902 4.13789 -1.09374 0
M  V30 1651 C 152.228 5.33449 -0.365524 0
M  V30 1652 C 153.528 4.62208 -2.4323 0
M  V30 1653 H 155.222 2.5086 -1.6343 0
M  V30 1654 H 152.768 1.20576 -0.787243 0
M  V30 1655 H 154.721 4.21262 0.107808 0
M  V30 1656 H 153.445 3.17037 0.784538 0
M  V30 1657 H 152.104 3.4147 -1.33393 0
M  V30 1658 H 151.752 4.99759 0.57011 0
M  V30 1659 H 151.452 5.79088 -0.996512 0
M  V30 1660 H 152.976 6.10485 -0.118534 0
M  V30 1661 H 154.39 5.27952 -2.23472 0
M  V30 1662 H 152.787 5.18553 -3.02031 0
M  V30 1663 H 153.857 3.77224 -3.04681 0
M  V30 1664 N 155.201 0.870884 1.31352 0
M  V30 1665 C 156.131 0.343096 2.30966 0
M  V30 1666 C 157.112 -0.566507 1.60389 0
M  V30 1667 O 158.297 -0.483336 1.88089 0
M  V30 1668 C 155.427 -0.455487 3.443 0
M  V30 1669 C 154.381 0.361103 4.26474 0
M  V30 1670 C 153.707 -0.563221 5.31725 0
M  V30 1671 C 155.007 1.59566 4.97329 0
M  V30 1672 H 156.701 1.17548 2.75359 0
M  V30 1673 H 154.247 0.566686 1.32381 0
M  V30 1674 H 156.2 -0.83525 4.13039 0
M  V30 1675 H 154.924 -1.32139 2.98675 0
M  V30 1676 H 153.583 0.722825 3.59403 0
M  V30 1677 H 153.231 -1.42643 4.82351 0
M  V30 1678 H 152.931 -0.0207409 5.87596 0
M  V30 1679 H 154.455 -0.939808 6.03324 0
M  V30 1680 H 155.869 1.28728 5.58661 0
M  V30 1681 H 154.266 2.07728 5.63 0
M  V30 1682 H 155.336 2.34798 4.24262 0
M  V30 1683 N 156.679 -1.44442 0.630414 0
M  V30 1684 C 157.926 -2.02052 0.134617 0
M  V30 1685 C 158.254 -1.49576 -1.24327 0
M  V30 1686 O 157.509 -0.669806 -1.83881 0
M  V30 1687 C 157.808 -3.57332 0.0697835 0
M  V30 1688 C 157.474 -4.29058 1.38635 0
M  V30 1689 C 156.136 -4.4837 1.74694 0
M  V30 1690 C 158.488 -4.69872 2.25543 0
M  V30 1691 C 155.816 -5.05756 2.97369 0
M  V30 1692 C 158.168 -5.28616 3.47487 0
M  V30 1693 C 156.832 -5.46147 3.8377 0
M  V30 1694 H 156.102 -0.739361 0.0492598 0
M  V30 1695 H 158.749 -1.73217 0.816586 0
M  V30 1696 H 157.054 -3.85577 -0.695553 0
M  V30 1697 H 158.751 -3.99637 -0.330344 0
M  V30 1698 H 155.341 -4.14357 1.09574 0
M  V30 1699 H 159.525 -4.54666 1.98979 0
M  V30 1700 H 154.781 -5.17515 3.25558 0
M  V30 1701 H 158.955 -5.59192 4.15063 0
M  V30 1702 H 156.582 -5.9038 4.7891 0
M  V30 1703 N 158.157 -0.370918 -1.53173 0
M  V30 1704 C 159.405 0.216673 -2.00935 0
M  V30 1705 C 159.726 1.48845 -1.25977 0
M  V30 1706 O 158.996 1.92286 -0.374551 0
M  V30 1707 H 157.576 0.0830565 -0.742368 0
M  V30 1708 H 160.238 -0.49838 -1.8842 0
M  V30 1709 H 159.334 0.439893 -3.08984 0
M  V30 1710 N 159.635 1.57281 -0.100228 0
M  V30 1711 C 160.875 1.96419 0.56558 0
M  V30 1712 C 161.239 0.981265 1.65031 0
M  V30 1713 O 162.44 1.26133 2.37369 0
M  V30 1714 C 160.711 3.39996 1.10171 0
M  V30 1715 S 162.27 4.01134 1.77867 0
M  V30 1716 H 159.088 0.68667 0.184406 0
M  V30 1717 H 161.69 1.94662 -0.180851 0
M  V30 1718 H 160.394 4.09296 0.300803 0
M  V30 1719 H 159.925 3.45361 1.88385 0
M  V30 1720 H 161.94 3.90358 3.06326 0
M  V30 1721 N 161.113 -0.173488 1.56642 0
M  V30 1722 C 162.061 -1.23417 1.97157 0
M  V30 1723 C 163.055 -1.45946 0.860013 0
M  V30 1724 O 164.261 -1.46551 1.04512 0
M  V30 1725 H 160.636 -0.414818 0.62724 0
M  V30 1726 H 162.607 -0.865582 2.8557 0
M  V30 1727 C 161.356 -2.5665 2.34576 0
M  V30 1728 H 160.679 -2.40137 3.19647 0
M  V30 1729 H 162.119 -3.2956 2.6677 0
M  V30 1730 C 160.578 -3.15245 1.18836 0
M  V30 1731 O 161.108 -3.98883 0.474869 0
M  V30 1732 N 159.314 -2.74303 0.959497 0
M  V30 1733 H 158.861 -2.0639 1.54146 0
M  V30 1734 H 158.819 -3.13844 0.186932 0
M  V30 1735 N 162.591 -1.51276 -0.441967 0
M  V30 1736 C 163.524 -1.66933 -1.55591 0
M  V30 1737 C 164.502 -0.516958 -1.54163 0
M  V30 1738 O 165.686 -0.740209 -1.73358 0
M  V30 1739 C 162.813 -1.67866 -2.94174 0
M  V30 1740 C 161.859 -2.89013 -3.13646 0
M  V30 1741 S 162.692 -4.49897 -2.90436 0
M  V30 1742 C 163.848 -4.53568 -4.31308 0
M  V30 1743 H 164.081 -2.61155 -1.42076 0
M  V30 1744 H 161.614 -1.40902 -0.631341 0
M  V30 1745 H 163.572 -1.69089 -3.74058 0
M  V30 1746 H 162.233 -0.748296 -3.05056 0
M  V30 1747 H 161.426 -2.86054 -4.14957 0
M  V30 1748 H 161.028 -2.85509 -2.4158 0
M  V30 1749 H 163.32 -4.28924 -5.24434 0
M  V30 1750 H 164.263 -5.55355 -4.39303 0
M  V30 1751 H 164.671 -3.82943 -4.14747 0
M  V30 1752 N 164.069 0.697108 -1.41344 0
M  V30 1753 C 165.48 1.27697 -1.36199 0
M  V30 1754 C 165.831 1.9615 -0.0443463 0
M  V30 1755 O 164.956 1.98689 0.857419 0
M  V30 1756 C 165.551 2.32223 -2.46694 0
M  V30 1757 C 164.11 2.8579 -2.44952 0
M  V30 1758 C 163.257 1.59807 -2.26621 0
M  V30 1759 H 166.208 0.491968 -1.50882 0
M  V30 1760 H 166.229 3.1348 -2.15664 0
M  V30 1761 H 165.741 1.82373 -3.42581 0
M  V30 1762 H 163.842 3.3982 -1.52817 0
M  V30 1763 H 163.955 3.36325 -3.41207 0
M  V30 1764 H 162.319 1.8556 -1.7447 0
M  V30 1765 H 163.102 1.11956 -3.24532 0
M  V30 1766 N 165.547 1.27147 0.931209 0
M  V30 1767 C 166.772 1.16191 1.71797 0
M  V30 1768 C 167.197 -0.278004 1.86034 0
M  V30 1769 O 166.555 -1.20137 1.35782 0
M  V30 1770 C 166.603 1.84673 3.09723 0
M  V30 1771 O 165.707 1.14231 3.96264 0
M  V30 1772 H 165.048 0.404303 0.526721 0
M  V30 1773 H 167.578 1.68152 1.1656 0
M  V30 1774 H 167.588 1.91893 3.60057 0
M  V30 1775 H 166.263 2.89421 2.98677 0
M  V30 1776 H 164.84 1.15056 3.54706 0
M  V30 1777 N 167.025 -1.13721 1.09112 0
M  V30 1778 C 168.25 -1.89314 0.847053 0
M  V30 1779 C 168.675 -1.78416 -0.595774 0
M  V30 1780 O 168.033 -1.12942 -1.41823 0
M  V30 1781 C 168.081 -3.3701 1.28284 0
M  V30 1782 O 167.185 -4.10054 0.439267 0
M  V30 1783 H 166.526 -0.588745 0.307044 0
M  V30 1784 H 169.056 -1.43902 1.45442 0
M  V30 1785 H 169.066 -3.87834 1.26683 0
M  V30 1786 H 167.741 -3.4426 2.33363 0
M  V30 1787 H 166.318 -3.69266 0.519312 0
M  V30 1788 N 168.503 -0.877838 -1.30888 0
M  V30 1789 C 169.731 -0.507414 -2.00581 0
M  V30 1790 C 170.146 0.902216 -1.65848 0
M  V30 1791 O 169.503 1.59225 -0.891831 0
M  V30 1792 C 169.554 -0.664162 -3.55347 0
M  V30 1793 O 169.275 -2.01829 -3.8884 0
M  V30 1794 C 170.776 -0.295787 -4.42312 0
M  V30 1795 H 167.996 -0.196866 -0.641471 0
M  V30 1796 H 170.54 -1.18117 -1.66939 0
M  V30 1797 H 168.695 -0.0378619 -3.87381 0
M  V30 1798 H 169.109 -2.03174 -4.8355 0
M  V30 1799 H 170.583 -0.456388 -5.5011 0
M  V30 1800 H 171.06 0.765663 -4.32475 0
M  V30 1801 H 171.666 -0.898113 -4.15709 0
M  V30 1802 N 169.982 1.44106 -0.638065 0
M  V30 1803 C 171.23 2.01579 -0.145043 0
M  V30 1804 C 171.551 1.50496 1.24 0
M  V30 1805 O 170.821 0.711374 1.82527 0
M  V30 1806 H 169.401 0.745282 -0.05063 0
M  V30 1807 H 172.063 1.76516 -0.826327 0
M  V30 1808 H 171.159 3.11877 -0.118039 0
M  V30 1809 N 171.46 0.379036 1.52974 0
M  V30 1810 C 172.685 -0.209353 2.06341 0
M  V30 1811 C 173.11 -1.40583 1.24972 0
M  V30 1812 O 172.468 -1.79246 0.272155 0
M  V30 1813 C 172.516 -0.567786 3.56102 0
M  V30 1814 O 171.62 -1.66318 3.77375 0
M  V30 1815 H 170.961 -0.0272919 0.663439 0
M  V30 1816 H 173.491 0.543536 1.97248 0
M  V30 1817 H 173.501 -0.835003 3.99364 0
M  V30 1818 H 172.176 0.307013 4.14765 0
M  V30 1819 H 170.753 -1.39048 3.46006 0
M  V30 1820 N 172.938 -1.57226 0.108567 0
M  V30 1821 C 174.168 -1.9889 -0.559142 0
M  V30 1822 C 174.576 -0.986889 -1.61422 0
M  V30 1823 O 173.919 0.0298705 -1.83676 0
M  V30 1824 C 173.981 -3.36952 -1.25315 0
M  V30 1825 C 173.645 -4.55679 -0.347248 0
M  V30 1826 C 174.642 -5.18281 0.409996 0
M  V30 1827 C 172.327 -5.0162 -0.261367 0
M  V30 1828 C 174.321 -6.25203 1.24096 0
M  V30 1829 C 172.008 -6.08405 0.573238 0
M  V30 1830 C 173.006 -6.70063 1.32304 0
M  V30 1831 O 172.694 -7.74788 2.14381 0
M  V30 1832 H 172.426 -0.658343 -0.153492 0
M  V30 1833 H 174.98 -2.04532 0.188584 0
M  V30 1834 H 173.21 -3.28032 -2.04773 0
M  V30 1835 H 174.899 -3.62974 -1.81673 0
M  V30 1836 H 175.665 -4.8371 0.353457 0
M  V30 1837 H 171.544 -4.53381 -0.834656 0
M  V30 1838 H 175.088 -6.73259 1.82669 0
M  V30 1839 H 170.985 -6.42406 0.631208 0
M  V30 1840 H 171.753 -7.91837 2.07209 0
M  V30 1841 N 174.416 0.165178 -1.56732 0
M  V30 1842 C 175.662 0.877389 -1.83503 0
M  V30 1843 C 176.017 1.79602 -0.689996 0
M  V30 1844 O 175.31 1.89023 0.313205 0
M  V30 1845 C 175.504 1.70405 -3.1416 0
M  V30 1846 C 175.333 0.866961 -4.41264 0
M  V30 1847 C 174.103 0.539646 -5.0241 0
M  V30 1848 C 176.301 0.205671 -5.13889 0
M  V30 1849 N 174.283 -0.312946 -6.13102 0
M  V30 1850 C 175.654 -0.507823 -6.17917 0
M  V30 1851 C 177.709 0.124468 -4.97744 0
M  V30 1852 C 176.412 -1.29483 -7.0755 0
M  V30 1853 C 178.438 -0.649222 -5.87826 0
M  V30 1854 C 177.8 -1.35106 -6.91322 0
M  V30 1855 H 173.899 0.299477 -0.722383 0
M  V30 1856 H 176.483 0.143949 -1.94167 0
M  V30 1857 H 174.654 2.40887 -3.04677 0
M  V30 1858 H 176.386 2.35804 -3.28905 0
M  V30 1859 H 173.141 0.871176 -4.65519 0
M  V30 1860 H 173.565 -0.729731 -6.73056 0
M  V30 1861 H 178.207 0.652724 -4.17731 0
M  V30 1862 H 175.925 -1.83441 -7.87004 0
M  V30 1863 H 179.511 -0.713804 -5.77405 0
M  V30 1864 H 178.391 -1.94013 -7.59821 0
M  V30 1865 N 175.894 1.51508 0.433938 0
M  V30 1866 C 177.141 1.64345 1.18309 0
M  V30 1867 C 177.469 0.361315 1.91115 0
M  V30 1868 O 176.724 -0.654753 1.84422 0
M  V30 1869 C 177.023 2.79928 2.22205 0
M  V30 1870 C 176.689 4.19078 1.66387 0
M  V30 1871 C 175.351 4.56932 1.50887 0
M  V30 1872 C 177.703 5.05894 1.25381 0
M  V30 1873 C 175.031 5.79305 0.928608 0
M  V30 1874 C 177.383 6.2885 0.687823 0
M  V30 1875 C 176.047 6.65473 0.519755 0
M  V30 1876 H 175.317 0.601381 0.432923 0
M  V30 1877 H 177.964 1.85549 0.473676 0
M  V30 1878 H 176.269 2.52959 2.99197 0
M  V30 1879 H 177.966 2.87059 2.79997 0
M  V30 1880 H 174.556 3.89234 1.79428 0
M  V30 1881 H 178.74 4.77253 1.36175 0
M  V30 1882 H 173.996 6.06324 0.786186 0
M  V30 1883 H 178.17 6.95461 0.361581 0
M  V30 1884 H 175.797 7.6017 0.0679979 0
M  V30 1885 N 177.372 -0.689602 1.41712 0
M  V30 1886 C 178.612 -1.46184 1.42862 0
M  V30 1887 C 178.976 -1.91962 0.0382204 0
M  V30 1888 O 180.177 -2.68694 -0.0755019 0
M  V30 1889 C 178.448 -2.6371 2.4123 0
M  V30 1890 S 180.007 -3.52768 2.6096 0
M  V30 1891 H 176.825 -0.49947 0.506015 0
M  V30 1892 H 179.427 -0.804107 1.78198 0
M  V30 1893 H 178.131 -2.28293 3.41044 0
M  V30 1894 H 177.662 -3.3437 2.07269 0
M  V30 1895 H 179.677 -4.59146 1.88148 0
M  V30 1896 N 178.85 -1.27639 -0.924453 0
M  V30 1897 C 180.127 -1.04887 -1.651 0
M  V30 1898 C 180.507 0.415327 -2.06974 0
M  V30 1899 O 179.855 1.39923 -1.80648 0
M  V30 1900 C 180.065 -2.01348 -2.85061 0
M  V30 1901 C 181.413 -2.30899 -3.56329 0
M  V30 1902 O 182.437 -1.99348 -2.95193 0
M  V30 1903 O 181.296 -2.84699 -4.66485 0
M  V30 1904 H 178.39 -0.400083 -0.723784 0
M  V30 1905 H 180.936 -1.38916 -0.974703 0
M  V30 1906 H 179.708 -3.0008 -2.51133 0
M  V30 1907 H 179.331 -1.679 -3.6041 0
M  V30 1908 N 180.328 1.1314 -1.09713 0
M  V30 1909 C 181.238 2.22242 -0.751367 0
M  V30 1910 C 182.254 1.72224 0.247938 0
M  V30 1911 O 183.43 2.01205 0.0885463 0
M  V30 1912 C 180.495 3.46231 -0.180274 0
M  V30 1913 C 179.556 4.11125 -1.2359 0
M  V30 1914 C 178.789 5.29195 -0.691966 0
M  V30 1915 O 179.012 5.68342 0.48414 0
M  V30 1916 O 177.946 5.84214 -1.44838 0
M  V30 1917 H 181.772 2.54197 -1.66186 0
M  V30 1918 H 179.357 1.21331 -0.871735 0
M  V30 1919 H 181.239 4.21185 0.134739 0
M  V30 1920 H 179.914 3.1597 0.703185 0
M  V30 1921 H 178.821 3.37985 -1.60366 0
M  V30 1922 H 180.154 4.45524 -2.09211 0
M  V30 1923 N 181.806 0.884767 1.30421 0
M  V30 1924 C 183.054 0.502112 1.95763 0
M  V30 1925 C 183.375 -0.951815 1.70192 0
M  V30 1926 O 182.645 -1.6692 1.0254 0
M  V30 1927 H 181.225 0.182694 0.724315 0
M  V30 1928 H 183.887 1.1278 1.58955 0
M  V30 1929 H 182.983 0.672188 3.04775 0
M  V30 1930 N 183.284 -1.43765 0.645699 0
M  V30 1931 C 184.512 -2.06253 0.163556 0
M  V30 1932 C 184.927 -1.48352 -1.16778 0
M  V30 1933 O 184.284 -0.611932 -1.71935 0
M  V30 1934 C 184.335 -3.61453 0.0583186 0
M  V30 1935 O 184.056 -4.172 1.33702 0
M  V30 1936 C 185.557 -4.41002 -0.450795 0
M  V30 1937 H 182.777 -0.665413 0.0864077 0
M  V30 1938 H 185.321 -1.84396 0.884222 0
M  V30 1939 H 183.476 -3.82522 -0.612865 0
M  V30 1940 H 183.89 -5.10791 1.19131 0
M  V30 1941 H 185.364 -5.49966 -0.473403 0
M  V30 1942 H 185.841 -4.13488 -1.48068 0
M  V30 1943 H 186.447 -4.24886 0.187637 0
M  V30 1944 N 184.763 -0.387143 -1.52771 0
M  V30 1945 C 186.003 0.195537 -2.03463 0
M  V30 1946 C 186.367 1.44222 -1.26744 0
M  V30 1947 O 187.568 2.10192 -1.67549 0
M  V30 1948 C 185.839 0.459097 -3.54439 0
M  V30 1949 S 187.398 1.01237 -4.26962 0
M  V30 1950 H 184.216 0.0552675 -0.708849 0
M  V30 1951 H 186.818 -0.534992 -1.88037 0
M  V30 1952 H 185.522 -0.455382 -4.07866 0
M  V30 1953 H 185.053 1.21811 -3.74066 0
M  V30 1954 H 187.068 2.29492 -4.39941 0
M  V30 1955 N 186.241 1.57166 -0.116904 0
M  V30 1956 C 187.469 1.99473 0.549383 0
M  V30 1957 C 187.884 0.996541 1.60357 0
M  V30 1958 O 187.241 -0.0108731 1.82497 0
M  V30 1959 C 187.292 3.41788 1.17741 0
M  V30 1960 O 187.013 4.37788 0.165362 0
M  V30 1961 C 188.514 3.99216 1.92722 0
M  V30 1962 H 185.734 0.655009 0.145616 0
M  V30 1963 H 188.278 2.03494 -0.202625 0
M  V30 1964 H 186.433 3.38713 1.88021 0
M  V30 1965 H 186.847 5.20806 0.621403 0
M  V30 1966 H 188.321 5.00882 2.31995 0
M  V30 1967 H 188.798 3.3824 2.80161 0
M  V30 1968 H 189.404 4.0583 1.27209 0
M  V30 1969 N 187.719 -0.156864 1.56817 0
M  V30 1970 C 188.996 -0.899244 1.73704 0
M  V30 1971 C 189.376 -1.99771 0.682254 0
M  V30 1972 O 188.724 -2.26515 -0.300522 0
M  V30 1973 C 188.934 -1.45075 3.17418 0
M  V30 1974 C 190.282 -1.91802 3.7881 0
M  V30 1975 O 191.306 -1.54838 3.20786 0
M  V30 1976 O 190.165 -2.5994 4.80722 0
M  V30 1977 H 187.259 -0.424267 0.709878 0
M  V30 1978 H 189.805 -0.143561 1.69092 0
M  V30 1979 H 188.577 -0.660846 3.85679 0
M  V30 1980 H 188.2 -2.27021 3.26416 0
M  V30 1981 N 189.197 -1.51736 -0.425897 0
M  V30 1982 C 190.144 -1.73875 -1.51776 0
M  V30 1983 C 191.114 -0.580702 -1.55618 0
M  V30 1984 O 192.299 -0.81641 -1.72451 0
M  V30 1985 C 189.439 -1.88012 -2.89388 0
M  V30 1986 C 188.552 -3.15606 -2.94986 0
M  V30 1987 C 187.687 -3.20271 -4.23793 0
M  V30 1988 C 186.726 -4.42134 -4.23302 0
M  V30 1989 N 185.863 -4.44284 -5.43651 0
M  V30 1990 H 190.703 -2.67071 -1.32201 0
M  V30 1991 H 188.24 -1.32351 -0.642008 0
M  V30 1992 H 190.198 -1.9419 -3.69251 0
M  V30 1993 H 188.828 -0.98213 -3.07496 0
M  V30 1994 H 187.88 -3.18681 -2.07717 0
M  V30 1995 H 189.192 -4.05486 -2.90486 0
M  V30 1996 H 188.346 -3.25428 -5.12036 0
M  V30 1997 H 187.085 -2.28299 -4.30965 0
M  V30 1998 H 186.09 -4.3714 -3.3345 0
M  V30 1999 H 187.315 -5.35382 -4.17783 0
M  V30 2000 H 185.261 -3.55188 -5.51523 0
M  V30 2001 H 185.178 -5.27988 -5.41078 0
M  V30 2002 H 186.446 -4.53649 -6.33895 0
M  V30 2003 N 190.675 0.682077 -1.42076 0
M  V30 2004 C 191.638 1.77756 -1.44691 0
M  V30 2005 C 192.638 1.5726 -0.335535 0
M  V30 2006 O 193.828 1.63686 -0.596037 0
M  V30 2007 C 190.96 3.16301 -1.27146 0
M  V30 2008 H 192.153 1.76826 -2.42224 0
M  V30 2009 H 189.706 0.891012 -1.28416 0
M  V30 2010 H 190.441 3.22862 -0.305075 0
M  V30 2011 H 190.226 3.32581 -2.07683 0
M  V30 2012 H 191.716 3.96241 -1.31843 0
M  V30 2013 N 192.153 1.28127 0.917671 0
M  V30 2014 C 193.101 1.11569 2.04096 0
M  V30 2015 C 194.095 0.0360242 1.69362 0
M  V30 2016 O 195.301 0.194501 1.78946 0
M  V30 2017 H 191.676 0.344097 0.668656 0
M  V30 2018 H 193.647 2.06711 2.15205 0
M  V30 2019 C 192.396 0.790197 3.38602 0
M  V30 2020 H 191.719 1.61293 3.6582 0
M  V30 2021 H 193.159 0.714271 4.1794 0
M  V30 2022 C 191.618 -0.505897 3.3308 0
M  V30 2023 O 192.148 -1.53736 3.71117 0
M  V30 2024 N 190.354 -0.505193 2.86175 0
M  V30 2025 H 189.901 0.334621 2.55417 0
M  V30 2026 H 189.859 -1.37243 2.82863 0
M  V30 2027 N 193.631 -1.12557 1.10312 0
M  V30 2028 C 194.88 -1.83395 0.839588 0
M  V30 2029 C 195.193 -1.84939 -0.636929 0
M  V30 2030 O 196.399 -2.51761 -1.01631 0
M  V30 2031 C 194.855 -3.29303 1.45215 0
M  V30 2032 C 194.463 -3.36122 2.96186 0
M  V30 2033 C 196.207 -4.05121 1.26796 0
M  V30 2034 C 194.114 -4.76357 3.50483 0
M  V30 2035 H 193.044 -0.687133 0.310425 0
M  V30 2036 H 195.695 -1.26746 1.32694 0
M  V30 2037 H 194.077 -3.85812 0.892469 0
M  V30 2038 H 195.251 -2.89559 3.58458 0
M  V30 2039 H 193.566 -2.73776 3.13745 0
M  V30 2040 H 196.163 -5.08668 1.64806 0
M  V30 2041 H 196.506 -4.15773 0.209409 0
M  V30 2042 H 197.039 -3.54967 1.79563 0
M  V30 2043 H 193.778 -4.70899 4.55998 0
M  V30 2044 H 193.298 -5.23377 2.92978 0
M  V30 2045 H 194.977 -5.45294 3.48228 0
M  V30 2046 N 195.109 -0.891671 -1.2995 0
M  V30 2047 C 196.039 -0.379797 -2.30391 0
M  V30 2048 C 197.02 0.540919 -1.6127 0
M  V30 2049 O 198.205 0.453352 -1.88834 0
M  V30 2050 C 195.335 0.400654 -3.44981 0
M  V30 2051 C 194.289 -0.428905 -4.25846 0
M  V30 2052 C 193.615 0.478557 -5.32554 0
M  V30 2053 C 194.915 -1.67458 -4.94727 0
M  V30 2054 H 196.609 -1.21914 -2.73454 0
M  V30 2055 H 194.155 -0.587675 -1.31462 0
M  V30 2056 H 196.108 0.769434 -4.14316 0
M  V30 2057 H 194.832 1.27371 -3.0074 0
M  V30 2058 H 193.491 -0.779911 -3.58208 0
M  V30 2059 H 193.139 1.34951 -4.84559 0
M  V30 2060 H 192.839 -0.0727433 -5.87555 0
M  V30 2061 H 194.363 0.843705 -6.04743 0
M  V30 2062 H 195.777 -1.376 -5.56542 0
M  V30 2063 H 194.174 -2.16659 -5.59624 0
M  V30 2064 H 195.244 -2.41518 -4.20473 0
M  V30 2065 N 196.587 1.43421 -0.653314 0
M  V30 2066 C 197.817 2.05864 -0.174238 0
M  V30 2067 C 198.225 1.49052 1.16534 0
M  V30 2068 O 197.568 0.616481 1.73047 0
M  V30 2069 C 197.63 3.59499 -0.00875873 0
M  V30 2070 C 197.294 4.38893 -1.27364 0
M  V30 2071 C 198.291 4.70947 -2.20239 0
M  V30 2072 C 195.976 4.789 -1.51525 0
M  V30 2073 C 197.97 5.41916 -3.35568 0
M  V30 2074 C 195.657 5.49614 -2.67147 0
M  V30 2075 C 196.655 5.81044 -3.58994 0
M  V30 2076 O 196.343 6.50313 -4.72597 0
M  V30 2077 H 196.075 0.670345 -0.0872549 0
M  V30 2078 H 198.629 1.84913 -0.894226 0
M  V30 2079 H 196.859 3.79025 0.7666 0
M  V30 2080 H 198.548 4.0364 0.427687 0
M  V30 2081 H 199.314 4.40558 -2.02815 0
M  V30 2082 H 195.193 4.53843 -0.809158 0
M  V30 2083 H 198.737 5.66365 -4.07279 0
M  V30 2084 H 194.634 5.79419 -2.84505 0
M  V30 2085 H 195.402 6.68795 -4.71864 0
M  V30 2086 N 198.065 0.39524 1.52563 0
M  V30 2087 C 199.028 -0.425001 2.25225 0
M  V30 2088 C 200.028 -0.985266 1.27079 0
M  V30 2089 O 201.218 -0.866332 1.5113 0
M  V30 2090 C 198.35 -1.59686 3.01186 0
M  V30 2091 H 199.543 0.211233 2.99155 0
M  V30 2092 H 197.096 0.147472 1.55603 0
M  V30 2093 H 197.831 -2.27035 2.31572 0
M  V30 2094 H 197.616 -1.20176 3.73229 0
M  V30 2095 H 199.106 -2.17743 3.5634 0
M  V30 2096 N 199.544 -1.57102 0.125237 0
M  V30 2097 C 200.79 -1.96488 -0.525753 0
M  V30 2098 C 201.145 -1.00786 -1.6389 0
M  V30 2099 O 200.438 -0.038979 -1.9156 0
M  V30 2100 C 200.632 -3.40096 -1.09862 0
M  V30 2101 C 200.461 -4.4968 -0.0425004 0
M  V30 2102 C 199.231 -5.03781 0.391463 0
M  V30 2103 C 201.429 -5.08936 0.740829 0
M  V30 2104 N 199.411 -5.96948 1.4327 0
M  V30 2105 C 200.782 -5.98105 1.6331 0
M  V30 2106 C 202.837 -4.91576 0.791029 0
M  V30 2107 C 201.54 -6.71774 2.57122 0
M  V30 2108 C 203.566 -5.6593 1.71688 0
M  V30 2109 C 202.928 -6.5479 2.59672 0
M  V30 2110 H 199.027 -0.765072 -0.161831 0
M  V30 2111 H 201.611 -1.93511 0.214801 0
M  V30 2112 H 199.782 -3.43707 -1.80887 0
M  V30 2113 H 201.514 -3.66591 -1.71444 0
M  V30 2114 H 198.269 -4.736 -0.00213584 0
M  V30 2115 H 198.693 -6.48236 1.95243 0
M  V30 2116 H 203.335 -4.22615 0.124915 0
M  V30 2117 H 201.053 -7.39977 3.24744 0
M  V30 2118 H 204.639 -5.54501 1.76125 0
M  V30 2119 H 203.519 -7.11316 3.30149 0
M  V30 2120 N 201.022 0.148545 -1.56898 0
M  V30 2121 C 201.985 1.16736 -1.97244 0
M  V30 2122 C 202.985 1.35947 -0.858777 0
M  V30 2123 O 204.175 1.32966 -1.12542 0
M  V30 2124 C 201.307 2.52798 -2.28705 0
M  V30 2125 H 202.5 0.821279 -2.88435 0
M  V30 2126 H 200.053 0.391831 -1.51309 0
M  V30 2127 H 200.788 2.92381 -1.403 0
M  V30 2128 H 200.573 2.40216 -3.09901 0
M  V30 2129 H 202.063 3.26179 -2.60762 0
M  V30 2130 N 202.5 1.5196 0.417844 0
M  V30 2131 C 203.916 1.40569 0.755816 0
M  V30 2132 C 204.116 0.503316 1.95113 0
M  V30 2133 O 203.172 -0.0341925 2.52477 0
M  V30 2134 C 204.485 2.82947 1.01791 0
M  V30 2135 C 206.033 2.92231 1.12116 0
M  V30 2136 C 206.508 4.35559 1.41608 0
M  V30 2137 N 207.999 4.38753 1.48491 0
M  V30 2138 C 208.734 5.46705 1.7292 0
M  V30 2139 N 208.23 6.64788 1.95011 0
M  V30 2140 N 210.023 5.34209 1.74863 0
M  V30 2141 H 202.174 2.09168 -0.369098 0
M  V30 2142 H 204.437 0.942409 -0.102809 0
M  V30 2143 H 204.143 3.5106 0.212081 0
M  V30 2144 H 204.017 3.23462 1.94042 0
M  V30 2145 H 206.404 2.24304 1.9176 0
M  V30 2146 H 206.485 2.55185 0.177225 0
M  V30 2147 H 206.129 5.04042 0.624848 0
M  V30 2148 H 206.059 4.70133 2.37239 0
M  V30 2149 H 208.55 3.5363 1.33244 0
M  V30 2150 H 208.863 7.42845 2.13076 0
M  V30 2151 H 207.208 6.67869 1.92293 0
M  V30 2152 H 210.399 4.40937 1.57137 0
M  V30 2153 H 210.572 6.18415 1.93563 0
M  V30 2154 N 203.978 -0.674533 1.42435 0
M  V30 2155 C 204.926 -1.80934 1.46169 0
M  V30 2156 C 205.92 -1.66006 0.3374 0
M  V30 2157 O 207.126 -1.72611 0.510425 0
M  V30 2158 H 203.501 -0.596594 0.457798 0
M  V30 2159 H 205.472 -1.74903 2.41767 0
M  V30 2160 C 204.221 -3.19088 1.38123 0
M  V30 2161 H 203.544 -3.31203 2.23931 0
M  V30 2162 H 204.984 -3.9851 1.44797 0
M  V30 2163 C 203.443 -3.36763 0.0960517 0
M  V30 2164 O 203.973 -3.92581 -0.851073 0
M  V30 2165 N 202.179 -2.90597 0.0131186 0
M  V30 2166 H 201.726 -2.45359 0.784639 0
M  V30 2167 H 201.684 -3.028 -0.846133 0
M  V30 2168 N 205.456 -1.28612 -0.910864 0
M  V30 2169 C 206.419 -1.12803 -1.9952 0
M  V30 2170 C 207.419 -0.0668264 -1.60661 0
M  V30 2171 O 208.609 -0.312847 -1.71368 0
M  V30 2172 C 205.741 -0.72254 -3.33155 0
M  V30 2173 H 206.934 -2.09109 -2.14973 0
M  V30 2174 H 204.487 -1.11639 -1.09391 0
M  V30 2175 H 205.222 0.241152 -3.23402 0
M  V30 2176 H 205.007 -1.48916 -3.62721 0
M  V30 2177 H 206.497 -0.634666 -4.12749 0
M  V30 2178 N 206.934 1.1197 -1.10907 0
M  V30 2179 C 208.345 1.65114 -0.871446 0
M  V30 2180 C 208.696 1.86885 0.597353 0
M  V30 2181 O 207.821 1.59896 1.45816 0
M  V30 2182 C 208.416 2.99944 -1.5754 0
M  V30 2183 C 206.975 3.50018 -1.38435 0
M  V30 2184 C 206.122 2.24941 -1.62164 0
M  V30 2185 H 209.073 0.956851 -1.2661 0
M  V30 2186 H 209.094 3.66651 -1.01721 0
M  V30 2187 H 208.606 2.84067 -2.64438 0
M  V30 2188 H 206.707 3.71071 -0.337214 0
M  V30 2189 H 206.82 4.29165 -2.12965 0
M  V30 2190 H 205.184 2.3229 -1.04467 0
M  V30 2191 H 205.967 2.11612 -2.70324 0
M  V30 2192 N 208.412 0.89855 1.29475 0
M  V30 2193 C 209.823 0.572537 1.77705 0
M  V30 2194 C 210.174 -0.911778 1.73727 0
M  V30 2195 O 209.299 -1.71288 1.32247 0
M  V30 2196 C 209.894 1.03252 3.22683 0
M  V30 2197 C 208.453 0.757687 3.68695 0
M  V30 2198 C 207.6 1.20787 2.49612 0
M  V30 2199 H 210.551 1.08139 1.16153 0
M  V30 2200 H 210.572 0.367307 3.78723 0
M  V30 2201 H 210.084 2.11285 3.25546 0
M  V30 2202 H 208.185 -0.310079 3.71308 0
M  V30 2203 H 208.298 1.35476 4.59547 0
M  V30 2204 H 206.662 0.626888 2.46865 0
M  V30 2205 H 207.445 2.29622 2.55203 0
M  V30 2206 N 209.89 -1.43072 0.660911 0
M  V30 2207 C 211.118 -2.06067 0.185422 0
M  V30 2208 C 211.533 -1.49582 -1.15198 0
M  V30 2209 O 210.89 -0.630134 -1.71276 0
M  V30 2210 C 210.941 -3.61371 0.0966523 0
M  V30 2211 O 210.662 -4.15758 1.38119 0
M  V30 2212 C 212.163 -4.41455 -0.403996 0
M  V30 2213 H 209.383 -0.664459 0.0934604 0
M  V30 2214 H 211.927 -1.83447 0.90373 0
M  V30 2215 H 210.082 -3.8315 -0.572259 0
M  V30 2216 H 210.496 -5.09499 1.24542 0
M  V30 2217 H 211.97 -5.50437 -0.415045 0
M  V30 2218 H 212.447 -4.15036 -1.43674 0
M  V30 2219 H 213.053 -4.24663 0.232691 0
M  V30 2220 N 211.368 -0.403325 -1.52352 0
M  V30 2221 C 212.784 -0.0539281 -1.59509 0
M  V30 2222 C 212.984 1.43307 -1.41652 0
M  V30 2223 O 212.04 2.19924 -1.24056 0
M  V30 2224 C 213.353 -0.543654 -2.95745 0
M  V30 2225 C 214.901 -0.501125 -3.08962 0
M  V30 2226 C 215.376 -0.967267 -4.47669 0
M  V30 2227 N 216.867 -0.923849 -4.53893 0
M  V30 2228 C 217.602 -1.25578 -5.5948 0
M  V30 2229 N 217.098 -1.65889 -6.72646 0
M  V30 2230 N 218.891 -1.17613 -5.49658 0
M  V30 2231 H 211.042 -1.37123 -1.62206 0
M  V30 2232 H 213.305 -0.56294 -0.76276 0
M  V30 2233 H 213.011 -1.58275 -3.14073 0
M  V30 2234 H 212.885 0.0498042 -3.77167 0
M  V30 2235 H 215.272 0.528909 -2.90321 0
M  V30 2236 H 215.353 -1.13056 -2.2946 0
M  V30 2237 H 214.997 -1.9956 -4.67053 0
M  V30 2238 H 214.927 -0.314698 -5.25659 0
M  V30 2239 H 217.418 -0.627403 -3.72655 0
M  V30 2240 H 217.731 -1.89543 -7.49195 0
M  V30 2241 H 216.076 -1.69787 -6.73942 0
M  V30 2242 H 219.267 -0.860115 -4.6013 0
M  V30 2243 H 219.44 -1.43812 -6.3184 0
M  V30 2244 N 212.846 1.57033 -0.133567 0
M  V30 2245 C 213.776 2.1909 0.807567 0
M  V30 2246 C 214.757 1.13517 1.26681 0
M  V30 2247 O 215.942 1.41809 1.32679 0
M  V30 2248 C 213.072 2.80188 2.05212 0
M  V30 2249 C 212.026 3.91471 1.73015 0
M  V30 2250 C 211.352 4.39443 3.04622 0
M  V30 2251 C 212.652 5.12886 0.987168 0
M  V30 2252 H 214.346 2.97988 0.290403 0
M  V30 2253 H 211.892 1.43335 0.138239 0
M  V30 2254 H 213.845 3.22264 2.71521 0
M  V30 2255 H 212.569 1.98601 2.59278 0
M  V30 2256 H 211.228 3.49993 1.0909 0
M  V30 2257 H 210.876 3.54695 3.56651 0
M  V30 2258 H 210.576 5.14495 2.83847 0
M  V30 2259 H 212.1 4.8418 3.72024 0
M  V30 2260 H 213.514 5.51891 1.55208 0
M  V30 2261 H 211.911 5.93615 0.87985 0
M  V30 2262 H 212.981 4.84894 -0.0235286 0
M  V30 2263 N 214.325 -0.140222 1.56975 0
M  V30 2264 C 215.736 -0.699596 1.73097 0
M  V30 2265 C 216.087 -1.8134 0.749022 0
M  V30 2266 O 215.212 -2.16241 -0.0828503 0
M  V30 2267 C 215.807 -1.27582 3.1386 0
M  V30 2268 C 214.366 -1.78169 3.31561 0
M  V30 2269 C 213.513 -0.672855 2.69013 0
M  V30 2270 H 216.464 0.0855115 1.58469 0
M  V30 2271 H 216.485 -2.14561 3.14235 0
M  V30 2272 H 215.997 -0.464955 3.85305 0
M  V30 2273 H 214.098 -2.61801 2.65124 0
M  V30 2274 H 214.211 -1.90574 4.39566 0
M  V30 2275 H 212.575 -1.10118 2.29665 0
M  V30 2276 H 213.358 0.126679 3.43066 0
M  V30 2277 N 215.803 -1.52179 -0.40978 0
M  V30 2278 C 216.75 -1.75475 -1.49924 0
M  V30 2279 C 217.72 -0.597175 -1.54994 0
M  V30 2280 O 218.905 -0.834655 -1.71575 0
M  V30 2281 C 216.045 -1.9107 -2.87378 0
M  V30 2282 C 215.158 -3.18717 -2.91622 0
M  V30 2283 C 214.293 -3.24747 -4.20372 0
M  V30 2284 C 213.332 -4.46598 -4.18588 0
M  V30 2285 N 212.469 -4.50025 -5.38908 0
M  V30 2286 H 217.309 -2.68458 -1.29361 0
M  V30 2287 H 214.846 -1.33024 -0.627934 0
M  V30 2288 H 216.804 -1.98096 -3.6717 0
M  V30 2289 H 215.434 -1.01469 -3.06437 0
M  V30 2290 H 214.486 -3.20866 -2.04326 0
M  V30 2291 H 215.798 -4.08544 -2.86169 0
M  V30 2292 H 214.952 -3.30841 -5.08556 0
M  V30 2293 H 213.691 -2.32857 -4.28519 0
M  V30 2294 H 212.696 -4.40652 -3.28794 0
M  V30 2295 H 213.921 -5.39783 -4.12081 0
M  V30 2296 H 211.867 -3.61017 -5.47725 0
M  V30 2297 H 211.784 -5.33697 -5.35447 0
M  V30 2298 H 213.052 -4.60347 -6.29048 0
M  V30 2299 N 217.281 0.66697 -1.42791 0
M  V30 2300 C 218.529 1.42417 -1.43394 0
M  V30 2301 C 218.85 1.94925 -0.0542373 0
M  V30 2302 O 218.12 1.73564 0.908415 0
M  V30 2303 H 216.7 0.528515 -0.527902 0
M  V30 2304 H 219.362 0.787562 -1.78279 0
M  V30 2305 H 218.458 2.27333 -2.13837 0
M  V30 2306 N 218.759 1.29093 0.90403 0
M  V30 2307 C 220.005 1.16986 1.65656 0
M  V30 2308 C 220.338 -0.278925 1.92186 0
M  V30 2309 O 219.613 -1.2019 1.5292 0
M  V30 2310 C 219.896 1.97908 3.0084 0
M  V30 2311 C 219.749 3.50903 2.81403 0
M  V30 2312 C 221.068 1.80208 4.01513 0
M  V30 2313 H 218.187 0.426346 0.601164 0
M  V30 2314 H 220.829 1.58518 1.04747 0
M  V30 2315 H 218.979 1.62616 3.52829 0
M  V30 2316 H 220.651 3.96153 2.36348 0
M  V30 2317 H 218.894 3.76045 2.1627 0
M  V30 2318 H 219.565 4.02791 3.77443 0
M  V30 2319 H 222.041 2.11025 3.58619 0
M  V30 2320 H 220.917 2.39184 4.94047 0
M  V30 2321 H 221.178 0.756119 4.35586 0
M  V30 2322 N 220.237 -1.11381 1.11499 0
M  V30 2323 C 221.485 -1.8277 0.862524 0
M  V30 2324 C 221.806 -1.85097 -0.613534 0
M  V30 2325 O 221.076 -1.32198 -1.4457 0
M  V30 2326 H 219.656 -0.676823 0.316101 0
M  V30 2327 H 222.318 -1.34816 1.4075 0
M  V30 2328 H 221.414 -2.86614 1.23527 0
M  V30 2329 N 221.715 -0.905404 -1.28997 0
M  V30 2330 C 222.962 -0.534248 -1.95325 0
M  V30 2331 C 223.29 0.920535 -1.71337 0
M  V30 2332 O 222.545 1.66861 -1.02254 0
M  V30 2333 C 222.844 -0.779906 -3.48787 0
M  V30 2334 C 222.51 -2.21293 -3.92861 0
M  V30 2335 C 221.172 -2.60475 -4.04606 0
M  V30 2336 C 223.524 -3.14587 -4.15553 0
M  V30 2337 C 220.852 -3.9212 -4.36416 0
M  V30 2338 C 223.204 -4.45787 -4.48839 0
M  V30 2339 C 221.868 -4.84834 -4.58794 0
M  V30 2340 H 221.138 -0.195495 -0.714747 0
M  V30 2341 H 223.785 -1.14514 -1.53488 0
M  V30 2342 H 222.09 -0.0861365 -3.91705 0
M  V30 2343 H 223.787 -0.472029 -3.98212 0
M  V30 2344 H 220.377 -1.89887 -3.84241 0
M  V30 2345 H 224.561 -2.85528 -4.0594 0
M  V30 2346 H 219.817 -4.22086 -4.42327 0
M  V30 2347 H 223.991 -5.18098 -4.65346 0
M  V30 2348 H 221.618 -5.86877 -4.83197 0
M  V30 2349 N 223.193 1.4272 -0.668489 0
M  V30 2350 C 224.609 1.55992 -0.33745 0
M  V30 2351 C 224.809 1.64933 1.15756 0
M  V30 2352 O 223.865 1.61278 1.94282 0
M  V30 2353 C 225.178 2.81314 -1.06222 0
M  V30 2354 C 226.726 2.95078 -1.04394 0
M  V30 2355 C 227.201 4.23252 -1.74991 0
M  V30 2356 N 228.692 4.3015 -1.71829 0
M  V30 2357 C 229.427 5.28127 -2.23315 0
M  V30 2358 N 228.923 6.32293 -2.83156 0
M  V30 2359 N 230.716 5.19882 -2.13726 0
M  V30 2360 H 222.867 1.3516 -1.63846 0
M  V30 2361 H 225.13 0.650174 -0.689912 0
M  V30 2362 H 224.836 2.80823 -2.11734 0
M  V30 2363 H 224.71 3.72012 -0.62344 0
M  V30 2364 H 227.097 2.951 0.0028244 0
M  V30 2365 H 227.178 2.05627 -1.52155 0
M  V30 2366 H 226.822 4.2399 -2.79633 0
M  V30 2367 H 226.752 5.11626 -1.24685 0
M  V30 2368 H 229.243 3.55499 -1.28175 0
M  V30 2369 H 229.556 7.03398 -3.20079 0
M  V30 2370 H 227.901 6.32873 -2.87223 0
M  V30 2371 H 231.092 4.37423 -1.66669 0
M  V30 2372 H 231.265 5.96077 -2.54158 0
M  V30 2373 N 224.671 0.411399 1.52136 0
M  V30 2374 C 225.917 -0.163888 2.02137 0
M  V30 2375 C 226.25 -1.44597 1.29636 0
M  V30 2376 O 225.525 -1.90272 0.403353 0
M  V30 2377 C 225.808 -0.40927 3.57767 0
M  V30 2378 C 225.661 0.889643 4.40914 0
M  V30 2379 C 226.98 -1.19042 4.23694 0
M  V30 2380 H 224.099 -0.0580896 0.734707 0
M  V30 2381 H 226.741 0.54531 1.82007 0
M  V30 2382 H 224.891 -1.0134 3.7505 0
M  V30 2383 H 226.563 1.52575 4.35337 0
M  V30 2384 H 224.806 1.50011 4.07037 0
M  V30 2385 H 225.477 0.672314 5.4789 0
M  V30 2386 H 227.953 -0.678942 4.10524 0
M  V30 2387 H 226.829 -1.33086 5.32522 0
M  V30 2388 H 227.09 -2.21166 3.82803 0
M  V30 2389 N 226.149 -1.5696 0.141893 0
M  V30 2390 C 227.397 -1.95573 -0.509484 0
M  V30 2391 C 227.718 -1.02746 -1.65736 0
M  V30 2392 O 226.988 -0.0880311 -1.95702 0
M  V30 2393 H 225.568 -0.722115 -0.191205 0
M  V30 2394 H 228.23 -1.93697 0.216196 0
M  V30 2395 H 227.326 -2.99171 -0.889 0
M  V30 2396 N 227.627 0.131896 -1.57047 0
M  V30 2397 C 228.875 0.840269 -1.83804 0
M  V30 2398 C 229.196 1.81017 -0.72512 0
M  V30 2399 O 228.466 1.94272 0.251995 0
M  V30 2400 H 227.046 0.313294 -0.678127 0
M  V30 2401 H 229.708 0.122294 -1.94516 0
M  V30 2402 H 228.804 1.39335 -2.79271 0
M  V30 2403 N 229.106 1.52395 0.401703 0
M  V30 2404 C 230.016 1.7917 1.51444 0
M  V30 2405 C 231.032 0.677691 1.6026 0
M  V30 2406 O 232.208 0.963909 1.76835 0
M  V30 2407 C 229.273 1.94347 2.87107 0
M  V30 2408 C 228.334 3.18257 2.88116 0
M  V30 2409 C 227.567 3.32701 4.17308 0
M  V30 2410 O 227.79 2.52238 5.11598 0
M  V30 2411 O 226.724 4.25891 4.25324 0
M  V30 2412 H 230.55 2.73633 1.31752 0
M  V30 2413 H 228.135 1.3733 0.588296 0
M  V30 2414 H 230.017 2.06109 3.67555 0
M  V30 2415 H 228.692 1.03073 3.06851 0
M  V30 2416 H 227.599 3.11947 2.06494 0
M  V30 2417 H 228.932 4.09336 2.73322 0
M  V30 2418 N 230.584 -0.659388 1.43143 0
M  V30 2419 C 231.812 -1.44723 1.47861 0
M  V30 2420 C 232.227 -1.88563 0.0945886 0
M  V30 2421 O 231.584 -1.59108 -0.893915 0
M  V30 2422 C 231.635 -2.68627 2.41913 0
M  V30 2423 O 231.356 -2.26623 3.74932 0
M  V30 2424 C 232.857 -3.62045 2.55809 0
M  V30 2425 H 230.077 -0.444801 0.502387 0
M  V30 2426 H 232.621 -0.808916 1.87821 0
M  V30 2427 H 230.776 -3.28613 2.05164 0
M  V30 2428 H 231.19 -3.06745 4.2545 0
M  V30 2429 H 232.664 -4.45666 3.25708 0
M  V30 2430 H 233.141 -4.08981 1.60099 0
M  V30 2431 H 233.747 -3.07944 2.93344 0
M  V30 2432 N 232.062 -1.29571 -0.897171 0
M  V30 2433 C 233.31 -1.17456 -1.64464 0
M  V30 2434 C 233.631 0.273698 -1.9307 0
M  V30 2435 O 232.901 1.18684 -1.55855 0
M  V30 2436 H 231.481 -0.431706 -0.609622 0
M  V30 2437 H 234.143 -1.62531 -1.07562 0
M  V30 2438 H 233.239 -1.72648 -2.59998 0
M  V30 2439 N 233.54 1.10788 -1.12088 0
M  V30 2440 C 234.765 1.87002 -0.896949 0
M  V30 2441 C 235.19 1.79933 0.548261 0
M  V30 2442 O 234.548 1.16662 1.38779 0
M  V30 2443 C 234.596 3.3349 -1.37174 0
M  V30 2444 O 233.7 4.08745 -0.547831 0
M  V30 2445 H 233.041 0.580397 -0.322545 0
M  V30 2446 H 235.571 1.39996 -1.49206 0
M  V30 2447 H 235.581 3.84339 -1.36922 0
M  V30 2448 H 234.256 3.37951 -2.42408 0
M  V30 2449 H 232.833 3.6776 -0.617034 0
M  V30 2450 N 235.018 0.912232 1.28515 0
M  V30 2451 C 235.965 0.397954 2.27343 0
M  V30 2452 C 236.935 -0.526766 1.57526 0
M  V30 2453 O 238.12 -0.449292 1.85435 0
M  V30 2454 C 235.26 -0.357263 3.43246 0
M  V30 2455 C 234.373 0.599788 4.27816 0
M  V30 2456 C 233.508 -0.173725 5.30916 0
M  V30 2457 C 232.547 0.777039 6.07148 0
M  V30 2458 N 231.684 0.0371398 7.0209 0
M  V30 2459 H 236.524 1.24577 2.70711 0
M  V30 2460 H 234.061 0.625612 1.33133 0
M  V30 2461 H 236.019 -0.8113 4.09236 0
M  V30 2462 H 234.649 -1.16943 3.00872 0
M  V30 2463 H 233.701 1.17235 3.61884 0
M  V30 2464 H 235.013 1.32704 4.80823 0
M  V30 2465 H 234.167 -0.688394 6.02782 0
M  V30 2466 H 232.906 -0.934041 4.78672 0
M  V30 2467 H 231.911 1.3031 5.34134 0
M  V30 2468 H 233.136 1.53689 6.61481 0
M  V30 2469 H 231.082 -0.705213 6.52198 0
M  V30 2470 H 230.999 0.704249 7.52713 0
M  V30 2471 H 232.267 -0.457383 7.78157 0
M  V30 2472 N 236.496 -1.42363 0.676048 0
M  V30 2473 C 237.726 -2.05561 0.206967 0
M  V30 2474 C 238.134 -1.50887 -1.14148 0
M  V30 2475 O 237.477 -0.643933 -1.72044 0
M  V30 2476 C 237.539 -3.5944 0.0659508 0
M  V30 2477 C 237.203 -4.36812 1.34331 0
M  V30 2478 C 238.2 -4.67383 2.27704 0
M  V30 2479 C 235.885 -4.76429 1.59125 0
M  V30 2480 C 237.879 -5.36509 3.44147 0
M  V30 2481 C 235.566 -5.45294 2.75857 0
M  V30 2482 C 236.564 -5.75259 3.68193 0
M  V30 2483 O 236.252 -6.42712 4.82883 0
M  V30 2484 H 235.984 -0.668872 0.0979084 0
M  V30 2485 H 238.538 -1.83467 0.923531 0
M  V30 2486 H 236.768 -3.80197 -0.706204 0
M  V30 2487 H 238.457 -4.0427 -0.363418 0
M  V30 2488 H 239.223 -4.37275 2.09799 0
M  V30 2489 H 235.102 -4.52498 0.881258 0
M  V30 2490 H 238.646 -5.59814 4.16238 0
M  V30 2491 H 234.543 -5.7482 2.93688 0
M  V30 2492 H 235.311 -6.61204 4.82444 0
M  V30 2493 N 237.974 -0.419461 -1.51915 0
M  V30 2494 C 239.221 0.152939 -2.01922 0
M  V30 2495 C 239.549 1.4426 -1.30458 0
M  V30 2496 O 238.804 1.91514 -0.402593 0
M  V30 2497 C 239.103 0.437067 -3.54717 0
M  V30 2498 C 238.769 -0.764632 -4.44369 0
M  V30 2499 C 237.431 -1.09423 -4.68594 0
M  V30 2500 C 239.783 -1.56713 -4.97082 0
M  V30 2501 C 237.111 -2.22732 -5.42777 0
M  V30 2502 C 239.463 -2.69107 -5.72507 0
M  V30 2503 C 238.127 -3.02541 -5.95 0
M  V30 2504 H 237.397 0.0559644 -0.738884 0
M  V30 2505 H 240.044 -0.562998 -1.83037 0
M  V30 2506 H 238.349 1.23469 -3.71837 0
M  V30 2507 H 240.046 0.893083 -3.90928 0
M  V30 2508 H 236.636 -0.497775 -4.257 0
M  V30 2509 H 240.82 -1.32571 -4.78266 0
M  V30 2510 H 236.076 -2.48971 -5.58411 0
M  V30 2511 H 240.25 -3.31671 -6.12346 0
M  V30 2512 H 237.877 -3.90457 -6.52264 0
M  V30 2513 N 239.452 1.56882 -0.150215 0
M  V30 2514 C 240.698 1.96518 0.500834 0
M  V30 2515 C 241.031 1.03527 1.64304 0
M  V30 2516 O 240.306 0.0782751 1.94342 0
M  V30 2517 C 240.589 3.45822 1.00395 0
M  V30 2518 C 240.442 4.49591 -0.136983 0
M  V30 2519 C 241.761 3.97704 1.88467 0
M  V30 2520 H 238.88 0.714535 0.18058 0
M  V30 2521 H 241.522 1.88577 -0.232091 0
M  V30 2522 H 239.672 3.5272 1.62851 0
M  V30 2523 H 241.344 4.5477 -0.77343 0
M  V30 2524 H 239.587 4.26441 -0.795652 0
M  V30 2525 H 240.258 5.51402 0.256815 0
M  V30 2526 H 242.734 3.93304 1.35834 0
M  V30 2527 H 241.61 5.0263 2.20578 0
M  V30 2528 H 241.871 3.40252 2.82279 0
M  V30 2529 N 240.93 -0.123565 1.57115 0
M  V30 2530 C 241.86 -1.15309 2.03042 0
M  V30 2531 C 242.841 -1.43454 0.914061 0
M  V30 2532 O 244.026 -1.53973 1.18347 0
M  V30 2533 C 241.156 -2.48043 2.43089 0
M  V30 2534 C 240.11 -2.3437 3.58127 0
M  V30 2535 C 239.436 -3.72026 3.84059 0
M  V30 2536 C 240.736 -1.80804 4.90007 0
M  V30 2537 H 242.43 -0.771102 2.893 0
M  V30 2538 H 239.976 -0.369479 1.39179 0
M  V30 2539 H 241.929 -3.20311 2.73823 0
M  V30 2540 H 240.653 -2.88122 1.53796 0
M  V30 2541 H 239.312 -1.64551 3.27595 0
M  V30 2542 H 238.96 -4.09582 2.91979 0
M  V30 2543 H 238.66 -3.63732 4.6149 0
M  V30 2544 H 240.184 -4.45806 4.1724 0
M  V30 2545 H 241.598 -2.42886 5.19307 0
M  V30 2546 H 239.995 -1.83343 5.71407 0
M  V30 2547 H 241.065 -0.76528 4.78823 0
M  V30 2548 N 242.408 -1.52605 -0.393616 0
M  V30 2549 C 243.34 -1.73303 -1.49995 0
M  V30 2550 C 244.353 -0.613473 -1.50799 0
M  V30 2551 O 245.542 -0.889049 -1.54784 0
M  V30 2552 C 242.642 -1.77245 -2.88855 0
M  V30 2553 C 241.815 -3.06483 -3.12069 0
M  V30 2554 C 240.874 -3.02033 -4.30886 0
M  V30 2555 O 239.9 -3.75907 -4.27414 0
M  V30 2556 N 241.102 -2.20897 -5.36828 0
M  V30 2557 H 243.867 -2.68756 -1.32629 0
M  V30 2558 H 241.428 -1.51036 -0.583083 0
M  V30 2559 H 243.42 -1.7178 -3.66434 0
M  V30 2560 H 241.99 -0.891993 -2.99603 0
M  V30 2561 H 241.21 -3.25474 -2.22396 0
M  V30 2562 H 242.498 -3.91947 -3.2443 0
M  V30 2563 H 241.896 -1.60336 -5.42502 0
M  V30 2564 H 240.453 -2.21275 -6.13091 0
M  V30 2565 N 243.887 0.651787 -1.4349 0
M  V30 2566 C 245.133 1.41376 -1.45398 0
M  V30 2567 C 245.466 1.94041 -0.0784823 0
M  V30 2568 O 244.741 1.72379 0.900878 0
M  V30 2569 C 245.024 2.59414 -2.49752 0
M  V30 2570 C 244.877 2.12232 -3.96582 0
M  V30 2571 C 246.196 3.61626 -2.50827 0
M  V30 2572 H 243.315 0.512719 -0.529422 0
M  V30 2573 H 245.957 0.738796 -1.75048 0
M  V30 2574 H 244.107 3.16997 -2.246 0
M  V30 2575 H 245.779 1.59639 -4.32797 0
M  V30 2576 H 244.022 1.43592 -4.09346 0
M  V30 2577 H 244.693 2.9712 -4.65214 0
M  V30 2578 H 247.169 3.13805 -2.7325 0
M  V30 2579 H 246.045 4.41766 -3.25783 0
M  V30 2580 H 246.306 4.14314 -1.5426 0
M  V30 2581 N 245.365 1.30045 0.890287 0
M  V30 2582 C 246.315 1.12592 1.9826 0
M  V30 2583 C 247.299 0.0426021 1.60844 0
M  V30 2584 O 248.491 0.265346 1.75 0
M  V30 2585 C 245.62 0.814301 3.33503 0
M  V30 2586 C 244.706 1.93761 3.7725 0
M  V30 2587 N 245.097 3.18232 3.93143 0
M  V30 2588 C 243.395 1.83277 4.06602 0
M  V30 2589 C 244.096 3.9158 4.30163 0
M  V30 2590 N 243.072 3.19591 4.3973 0
M  V30 2591 H 246.874 2.07003 2.08631 0
M  V30 2592 H 244.388 1.21307 1.07974 0
M  V30 2593 H 246.385 0.67029 4.11476 0
M  V30 2594 H 245.045 -0.121797 3.24471 0
M  V30 2595 H 246.056 3.53581 3.78419 0
M  V30 2596 H 242.733 0.97001 4.06075 0
M  V30 2597 H 244.123 4.98744 4.50226 0
M  V30 2598 N 246.843 -1.10192 1.12674 0
M  V30 2599 C 248.073 -1.85713 0.905213 0
M  V30 2600 C 248.481 -1.81056 -0.549108 0
M  V30 2601 O 247.824 -1.19927 -1.39151 0
M  V30 2602 C 247.886 -3.34972 1.30516 0
M  V30 2603 C 247.55 -3.63385 2.77129 0
M  V30 2604 C 248.547 -3.59772 3.75313 0
M  V30 2605 C 246.232 -3.91981 3.14096 0
M  V30 2606 C 248.226 -3.84354 5.08479 0
M  V30 2607 C 245.913 -4.16218 4.47443 0
M  V30 2608 C 246.911 -4.12395 5.44444 0
M  V30 2609 O 246.599 -4.36014 6.75387 0
M  V30 2610 H 246.331 -0.593719 0.323223 0
M  V30 2611 H 248.885 -1.40198 1.50112 0
M  V30 2612 H 247.115 -3.81156 0.652463 0
M  V30 2613 H 248.804 -3.91886 1.05736 0
M  V30 2614 H 249.57 -3.37716 3.48099 0
M  V30 2615 H 245.449 -3.94085 2.39202 0
M  V30 2616 H 248.993 -3.81285 5.84181 0
M  V30 2617 H 244.89 -4.37754 4.74386 0
M  V30 2618 H 245.658 -4.53516 6.8137 0
M  V30 2619 N 248.321 -0.919034 -1.28029 0
M  V30 2620 C 249.569 -0.553838 -1.94363 0
M  V30 2621 C 249.89 0.906357 -1.72656 0
M  V30 2622 O 249.16 1.64143 -1.0693 0
M  V30 2623 H 247.74 -0.201834 -0.719216 0
M  V30 2624 H 250.402 -1.16954 -1.55909 0
M  V30 2625 H 249.498 -0.752758 -3.02886 0
M  V30 2626 N 249.799 1.42003 -0.683588 0
M  V30 2627 C 251.076 1.95112 -0.138075 0
M  V30 2628 C 251.456 1.62359 1.34918 0
M  V30 2629 O 250.804 0.924311 2.08971 0
M  V30 2630 C 251.014 3.46505 -0.416581 0
M  V30 2631 C 252.362 4.23254 -0.337834 0
M  V30 2632 O 253.386 3.54468 -0.35082 0
M  V30 2633 O 252.245 5.45743 -0.287596 0
M  V30 2634 H 249.339 0.826961 -0.00797996 0
M  V30 2635 H 251.885 1.51784 -0.758924 0
M  V30 2636 H 250.657 3.63582 -1.4465 0
M  V30 2637 H 250.28 3.969 0.235839 0
M  V30 2638 N 251.277 0.427512 1.51691 0
M  V30 2639 C 252.526 -0.143679 2.01188 0
M  V30 2640 C 252.839 -1.44642 1.31674 0
M  V30 2641 O 254.045 -2.09997 1.72086 0
M  V30 2642 C 252.501 -0.306602 3.58592 0
M  V30 2643 C 252.109 0.985125 4.37035 0
M  V30 2644 C 253.853 -0.832091 4.16265 0
M  V30 2645 C 251.76 0.788382 5.86122 0
M  V30 2646 H 250.69 -0.0574701 0.751807 0
M  V30 2647 H 253.341 0.555772 1.74881 0
M  V30 2648 H 251.723 -1.06882 3.81303 0
M  V30 2649 H 252.897 1.75492 4.26074 0
M  V30 2650 H 251.212 1.4384 3.90767 0
M  V30 2651 H 253.809 -0.995617 5.25349 0
M  V30 2652 H 254.152 -1.81186 3.74803 0
M  V30 2653 H 254.685 -0.128444 3.97593 0
M  V30 2654 H 251.424 1.74025 6.31978 0
M  V30 2655 H 250.944 0.0582143 5.99772 0
M  V30 2656 H 252.623 0.437722 6.45518 0
M  V30 2657 N 252.755 -1.56801 0.158532 0
M  V30 2658 C 253.98 -2.01295 -0.499516 0
M  V30 2659 C 254.405 -1.03799 -1.56867 0
M  V30 2660 O 253.763 -0.0155162 -1.81293 0
M  V30 2661 C 253.811 -3.44469 -1.06647 0
M  V30 2662 O 252.915 -3.50012 -2.18095 0
M  V30 2663 H 252.256 -0.652884 -0.12099 0
M  V30 2664 H 254.786 -2.02958 0.258661 0
M  V30 2665 H 254.796 -3.8351 -1.39227 0
M  V30 2666 H 253.471 -4.14932 -0.283581 0
M  V30 2667 H 252.048 -3.22822 -1.86656 0
M  V30 2668 N 254.233 0.115231 -1.57178 0
M  V30 2669 C 255.196 1.12526 -1.99676 0
M  V30 2670 C 256.196 1.34095 -0.88742 0
M  V30 2671 O 257.386 1.30548 -1.15337 0
M  V30 2672 C 254.518 2.4789 -2.34015 0
M  V30 2673 H 255.711 0.759912 -2.90113 0
M  V30 2674 H 253.264 0.359648 -1.52106 0
M  V30 2675 H 253.999 2.89339 -1.4647 0
M  V30 2676 H 253.784 2.33588 -3.14927 0
M  V30 2677 H 255.274 3.20575 -2.67622 0
M  V30 2678 N 255.711 1.52812 0.385517 0
M  V30 2679 C 256.958 1.68026 1.1302 0
M  V30 2680 C 257.286 0.421934 1.89868 0
M  V30 2681 O 256.541 -0.595749 1.86412 0
M  V30 2682 C 256.84 2.86856 2.13187 0
M  V30 2683 C 256.506 4.24159 1.5297 0
M  V30 2684 C 255.168 4.61501 1.36274 0
M  V30 2685 C 257.52 5.09627 1.09223 0
M  V30 2686 C 254.848 5.81966 0.743837 0
M  V30 2687 C 257.2 6.30719 0.487411 0
M  V30 2688 C 255.864 6.6679 0.307777 0
M  V30 2689 H 255.134 0.614849 0.413571 0
M  V30 2690 H 257.781 1.86962 0.414405 0
M  V30 2691 H 256.086 2.6235 2.90998 0
M  V30 2692 H 257.783 2.95821 2.70722 0
M  V30 2693 H 254.373 3.94746 1.66954 0
M  V30 2694 H 258.557 4.81343 1.20922 0
M  V30 2695 H 253.813 6.08519 0.592891 0
M  V30 2696 H 257.987 6.96259 0.140143 0
M  V30 2697 H 255.614 7.60001 -0.173879 0
M  V30 2698 N 257.189 -0.644168 1.43834 0
M  V30 2699 C 258.605 -0.960875 1.27434 0
M  V30 2700 C 258.805 -2.00499 0.200618 0
M  V30 2701 O 257.861 -2.49018 -0.417906 0
M  V30 2702 C 259.174 -1.43653 2.64167 0
M  V30 2703 C 260.722 -1.55271 2.71772 0
M  V30 2704 C 261.197 -2.06224 4.08944 0
M  V30 2705 N 262.688 -2.13513 4.11055 0
M  V30 2706 C 263.423 -2.54081 5.14033 0
M  V30 2707 N 262.919 -2.9388 6.27381 0
M  V30 2708 N 264.712 -2.54101 5.01387 0
M  V30 2709 H 256.863 0.0465779 2.12349 0
M  V30 2710 H 259.126 -0.0417638 0.94708 0
M  V30 2711 H 258.832 -0.743706 3.43747 0
M  V30 2712 H 258.706 -2.40993 2.90176 0
M  V30 2713 H 261.093 -2.23653 1.92519 0
M  V30 2714 H 261.174 -0.563395 2.49519 0
M  V30 2715 H 260.818 -1.38441 4.88668 0
M  V30 2716 H 260.748 -3.06003 4.28567 0
M  V30 2717 H 263.239 -1.85493 3.29242 0
M  V30 2718 H 263.552 -3.2361 7.01781 0
M  V30 2719 H 261.897 -2.91663 6.30839 0
M  V30 2720 H 265.088 -2.22391 4.11898 0
M  V30 2721 H 265.261 -2.85394 5.81768 0
M  V30 2722 N 258.668 -1.30515 -0.883378 0
M  V30 2723 C 259.945 -1.10086 -1.6168 0
M  V30 2724 C 260.325 0.349269 -2.08191 0
M  V30 2725 O 259.673 1.34105 -1.85008 0
M  V30 2726 C 259.883 -2.10315 -2.78511 0
M  V30 2727 C 261.231 -2.42119 -3.48803 0
M  V30 2728 O 262.255 -2.08638 -2.88702 0
M  V30 2729 O 261.114 -2.99396 -4.57192 0
M  V30 2730 H 258.208 -0.422907 -0.710689 0
M  V30 2731 H 260.754 -1.41947 -0.930015 0
M  V30 2732 H 259.526 -3.07917 -2.41459 0
M  V30 2733 H 259.149 -1.79282 -3.54886 0
M  V30 2734 N 260.146 1.09593 -1.13257 0
M  V30 2735 C 261.094 2.18271 -0.803783 0
M  V30 2736 C 262.088 1.68054 0.213148 0
M  V30 2737 O 263.294 1.79862 0.0704699 0
M  V30 2738 H 259.669 0.711949 -0.242143 0
M  V30 2739 H 261.64 2.43235 -1.72856 0
M  V30 2740 C 260.389 3.46536 -0.28424 0
M  V30 2741 H 259.712 3.85545 -1.05807 0
M  V30 2742 H 261.152 4.23899 -0.0925945 0
M  V30 2743 C 259.611 3.22036 0.989684 0
M  V30 2744 O 260.141 3.44509 2.06584 0
M  V30 2745 N 258.347 2.7565 0.920086 0
M  V30 2746 H 257.894 2.57562 0.0442019 0
M  V30 2747 H 257.852 2.59635 1.77306 0
M  V30 2748 N 261.624 0.925811 1.2754 0
M  V30 2749 C 262.572 0.413897 2.28888 0
M  V30 2750 C 263.566 -0.500779 1.61829 0
M  V30 2751 O 264.772 -0.38069 1.75928 0
M  V30 2752 H 261.147 0.115274 0.743112 0
M  V30 2753 H 263.118 1.28151 2.69481 0
M  V30 2754 C 261.867 -0.319792 3.46226 0
M  V30 2755 H 261.19 0.374846 3.98039 0
M  V30 2756 H 262.63 -0.642435 4.19105 0
M  V30 2757 C 261.089 -1.53209 3.00048 0
M  V30 2758 O 261.619 -2.6309 3.03557 0
M  V30 2759 N 259.825 -1.38326 2.55566 0
M  V30 2760 H 259.372 -0.489292 2.5291 0
M  V30 2761 H 259.33 -2.19564 2.25031 0
M  V30 2762 N 263.102 -1.41638 0.69111 0
M  V30 2763 C 264.049 -2.30789 0.0229705 0
M  V30 2764 C 265.019 -1.46863 -0.775911 0
M  V30 2765 O 266.204 -1.75661 -0.74485 0
M  V30 2766 C 263.344 -3.32868 -0.910666 0
M  V30 2767 C 262.457 -4.31875 -0.103874 0
M  V30 2768 C 261.592 -5.21024 -1.03475 0
M  V30 2769 C 260.631 -6.11702 -0.220598 0
M  V30 2770 N 259.768 -6.93349 -1.10504 0
M  V30 2771 H 264.608 -2.87366 0.788978 0
M  V30 2772 H 262.145 -1.41535 0.400794 0
M  V30 2773 H 264.103 -3.90596 -1.46597 0
M  V30 2774 H 262.733 -2.77851 -1.64312 0
M  V30 2775 H 261.785 -3.76131 0.568285 0
M  V30 2776 H 263.097 -4.96003 0.527504 0
M  V30 2777 H 262.251 -5.83565 -1.65943 0
M  V30 2778 H 260.99 -4.57112 -1.69999 0
M  V30 2779 H 259.995 -5.48215 0.417187 0
M  V30 2780 H 261.22 -6.77668 0.440784 0
M  V30 2781 H 259.166 -6.3205 -1.75638 0
M  V30 2782 H 259.083 -7.54146 -0.529125 0
M  V30 2783 H 260.351 -7.60362 -1.71667 0
M  V30 2784 N 264.58 -0.43555 -1.51462 0
M  V30 2785 C 265.857 0.191364 -1.94662 0
M  V30 2786 C 266.237 1.60254 -1.37411 0
M  V30 2787 O 265.585 2.2152 -0.560458 0
M  V30 2788 C 265.795 0.17091 -3.48581 0
M  V30 2789 C 267.143 0.377357 -4.2292 0
M  V30 2790 O 268.167 0.249104 -3.55328 0
M  V30 2791 O 267.026 0.63247 -5.42828 0
M  V30 2792 H 264.12 0.130932 -0.816569 0
M  V30 2793 H 266.666 -0.4934 -1.62369 0
M  V30 2794 H 265.438 -0.815738 -3.82703 0
M  V30 2795 H 265.061 0.898659 -3.87311 0
M  V30 2796 N 266.058 1.56714 -0.166846 0
M  V30 2797 C 267.298 1.98641 0.481763 0
M  V30 2798 C 267.662 1.05038 1.6072 0
M  V30 2799 O 268.863 1.36087 2.31805 0
M  V30 2800 C 267.134 3.44362 0.956517 0
M  V30 2801 S 268.693 4.08317 1.60694 0
M  V30 2802 H 265.511 0.693873 0.155116 0
M  V30 2803 H 268.113 1.93719 -0.263251 0
M  V30 2804 H 266.817 4.10204 0.126936 0
M  V30 2805 H 266.348 3.53041 1.73568 0
M  V30 2806 H 268.363 4.02999 2.89494 0
M  V30 2807 N 267.536 -0.106894 1.57237 0
M  V30 2808 C 268.761 -0.830287 1.90055 0
M  V30 2809 C 269.186 -1.72064 0.75998 0
M  V30 2810 O 268.544 -1.78982 -0.288991 0
M  V30 2811 C 268.592 -1.6295 3.21683 0
M  V30 2812 O 267.696 -2.73748 3.08441 0
M  V30 2813 H 267.037 -0.228855 0.623315 0
M  V30 2814 H 269.567 -0.085658 2.04421 0
M  V30 2815 H 269.577 -2.01621 3.54701 0
M  V30 2816 H 268.252 -0.975989 4.04286 0
M  V30 2817 H 266.829 -2.38192 2.86913 0
M  V30 2818 N 269.014 -1.53014 -0.377408 0
M  V30 2819 C 270.262 -1.6829 -1.11906 0
M  V30 2820 C 270.583 -0.431206 -1.90173 0
M  V30 2821 O 269.853 0.554595 -1.87886 0
M  V30 2822 H 268.433 -0.620371 -0.416112 0
M  V30 2823 H 271.095 -1.90167 -0.426893 0
M  V30 2824 H 270.191 -2.53862 -1.8155 0
M  V30 2825 N 270.492 0.636531 -1.44174 0
M  V30 2826 C 271.738 1.39826 -1.4689 0
M  V30 2827 C 272.071 1.93947 -0.0990585 0
M  V30 2828 O 271.346 1.73325 0.882544 0
M  V30 2829 C 271.629 2.56751 -2.5249 0
M  V30 2830 C 271.482 2.08014 -3.98811 0
M  V30 2831 C 272.801 3.58946 -2.54649 0
M  V30 2832 H 269.92 0.507075 -0.53483 0
M  V30 2833 H 272.562 0.720188 -1.75822 0
M  V30 2834 H 270.712 3.14597 -2.2795 0
M  V30 2835 H 272.384 1.5504 -4.34466 0
M  V30 2836 H 270.627 1.39242 -4.10846 0
M  V30 2837 H 271.298 2.92169 -4.68339 0
M  V30 2838 H 273.774 3.1089 -2.76563 0
M  V30 2839 H 272.65 4.38286 -3.3045 0
M  V30 2840 H 272.911 4.12655 -1.58646 0
M  V30 2841 N 271.97 1.30982 0.876444 0
M  V30 2842 C 273.195 1.23373 1.66715 0
M  V30 2843 C 273.62 -0.19885 1.87046 0
M  V30 2844 O 272.978 -1.1427 1.40756 0
M  V30 2845 C 273.026 1.97644 3.01611 0
M  V30 2846 O 272.13 1.30935 3.91062 0
M  V30 2847 H 271.471 0.426279 0.509099 0
M  V30 2848 H 274.001 1.72944 1.09323 0
M  V30 2849 H 274.011 2.06992 3.51594 0
M  V30 2850 H 272.686 3.01829 2.86133 0
M  V30 2851 H 271.263 1.29996 3.49507 0
M  V30 2852 N 273.449 -1.08991 1.13837 0
M  V30 2853 C 274.379 -2.17771 0.842507 0
M  V30 2854 C 275.36 -1.6892 -0.20001 0
M  V30 2855 O 276.545 -1.94113 -0.0579731 0
M  V30 2856 C 273.675 -3.4589 0.312644 0
M  V30 2857 C 272.629 -4.08099 1.28992 0
M  V30 2858 C 271.955 -5.31098 0.619623 0
M  V30 2859 C 273.255 -4.50077 2.65005 0
M  V30 2860 H 274.949 -2.42777 1.75213 0
M  V30 2861 H 272.495 -1.16682 0.843875 0
M  V30 2862 H 274.448 -4.21297 0.0933043 0
M  V30 2863 H 273.172 -3.20419 -0.632382 0
M  V30 2864 H 271.831 -3.34717 1.49533 0
M  V30 2865 H 271.479 -5.0191 -0.33102 0
M  V30 2866 H 271.179 -5.73674 1.27167 0
M  V30 2867 H 272.703 -6.09224 0.409669 0
M  V30 2868 H 274.117 -5.16688 2.48407 0
M  V30 2869 H 272.514 -5.03553 3.26427 0
M  V30 2870 H 273.584 -3.62257 3.22332 0
M  V30 2871 N 274.927 -0.932562 -1.27047 0
M  V30 2872 C 275.877 -0.406392 -2.24349 0
M  V30 2873 C 276.861 0.492066 -1.53191 0
M  V30 2874 O 278.053 0.328717 -1.73921 0
M  V30 2875 C 275.182 0.335214 -3.41659 0
M  V30 2876 C 274.268 -0.58004 -4.20115 0
M  V30 2877 N 274.659 -1.70203 -4.76303 0
M  V30 2878 C 272.957 -0.383974 -4.44344 0
M  V30 2879 C 273.658 -2.27167 -5.35509 0
M  V30 2880 N 272.634 -1.56068 -5.20715 0
M  V30 2881 H 276.436 -1.26299 -2.65378 0
M  V30 2882 H 273.95 -0.787408 -1.42034 0
M  V30 2883 H 275.947 0.729142 -4.10474 0
M  V30 2884 H 274.607 1.18868 -3.0216 0
M  V30 2885 H 275.618 -2.08433 -4.74106 0
M  V30 2886 H 272.295 0.428436 -4.15296 0
M  V30 2887 H 273.685 -3.21654 -5.89905 0
M  V30 2888 N 276.405 1.4127 -0.698611 0
M  V30 2889 C 277.335 2.33447 -0.049629 0
M  V30 2890 C 278.316 1.51982 0.763898 0
M  V30 2891 O 279.501 1.80509 0.716257 0
M  V30 2892 C 276.631 3.35828 0.885267 0
M  V30 2893 C 275.585 4.27627 0.178613 0
M  V30 2894 C 274.911 5.20406 1.22807 0
M  V30 2895 C 276.211 5.13459 -0.956933 0
M  V30 2896 H 277.905 2.87966 -0.81951 0
M  V30 2897 H 275.451 1.38461 -0.395538 0
M  V30 2898 H 277.404 3.9924 1.34854 0
M  V30 2899 H 276.128 2.79666 1.68685 0
M  V30 2900 H 274.787 3.65643 -0.26466 0
M  V30 2901 H 274.435 4.60558 2.02226 0
M  V30 2902 H 274.135 5.82661 0.760239 0
M  V30 2903 H 275.659 5.86695 1.69179 0
M  V30 2904 H 277.073 5.70421 -0.573805 0
M  V30 2905 H 275.47 5.8467 -1.35205 0
M  V30 2906 H 276.54 4.50443 -1.79524 0
M  V30 2907 N 277.883 0.443576 1.51229 0
M  V30 2908 C 279.111 -0.11929 2.06556 0
M  V30 2909 C 279.526 -1.35921 1.31038 0
M  V30 2910 O 278.883 -1.78675 0.371704 0
M  V30 2911 C 278.934 -0.435228 3.5887 0
M  V30 2912 O 278.655 0.755486 4.31537 0
M  V30 2913 C 280.156 -1.04808 4.30732 0
M  V30 2914 H 277.376 -0.0051584 0.67098 0
M  V30 2915 H 279.92 0.624453 1.94733 0
M  V30 2916 H 278.075 -1.12887 3.70588 0
M  V30 2917 H 278.489 0.483491 5.22267 0
M  V30 2918 H 279.963 -1.2191 5.3837 0
M  V30 2919 H 280.44 -2.03081 3.89429 0
M  V30 2920 H 281.046 -0.393637 4.23474 0
M  V30 2921 N 279.361 -1.56624 0.175154 0
M  V30 2922 C 280.777 -1.58571 -0.180966 0
M  V30 2923 C 280.977 -1.19065 -1.6256 0
M  V30 2924 O 280.033 -0.904044 -2.35761 0
M  V30 2925 C 281.346 -3.00522 0.103326 0
M  V30 2926 C 282.894 -3.12972 0.0418426 0
M  V30 2927 C 283.369 -4.57022 0.299175 0
M  V30 2928 N 284.86 -4.62541 0.247086 0
M  V30 2929 C 285.595 -5.71857 0.420318 0
M  V30 2930 N 285.091 -6.89717 0.652816 0
M  V30 2931 N 286.884 -5.60972 0.355957 0
M  V30 2932 H 279.035 -1.80589 1.11809 0
M  V30 2933 H 281.298 -0.837178 0.444788 0
M  V30 2934 H 281.004 -3.33916 1.10422 0
M  V30 2935 H 280.878 -3.72344 -0.603299 0
M  V30 2936 H 283.265 -2.79403 -0.949636 0
M  V30 2937 H 283.346 -2.43578 0.781238 0
M  V30 2938 H 282.99 -4.913 1.28788 0
M  V30 2939 H 282.92 -5.24579 -0.460876 0
M  V30 2940 H 285.411 -3.77829 0.0731895 0
M  V30 2941 H 285.724 -7.68911 0.774347 0
M  V30 2942 H 284.069 -6.91572 0.689476 0
M  V30 2943 H 287.26 -4.67773 0.174882 0
M  V30 2944 H 287.433 -6.46111 0.494388 0
M  V30 2945 N 280.839 0.0985539 -1.57292 0
M  V30 2946 C 281.769 1.12064 -2.04851 0
M  V30 2947 C 282.75 1.41981 -0.936767 0
M  V30 2948 O 283.935 1.52071 -1.20781 0
M  V30 2949 C 281.065 2.44144 -2.47004 0
M  V30 2950 C 280.019 2.28643 -3.6181 0
M  V30 2951 C 279.345 3.65869 -3.89929 0
M  V30 2952 C 280.645 1.72986 -4.92822 0
M  V30 2953 H 282.339 0.724979 -2.9049 0
M  V30 2954 H 279.885 0.34729 -1.39749 0
M  V30 2955 H 281.838 3.15914 -2.78884 0
M  V30 2956 H 280.562 2.85639 -1.5836 0
M  V30 2957 H 279.221 1.59318 -3.30172 0
M  V30 2958 H 278.869 4.04885 -2.98458 0
M  V30 2959 H 278.569 3.56344 -4.67218 0
M  V30 2960 H 280.093 4.39112 -4.2428 0
M  V30 2961 H 281.507 2.34593 -5.23105 0
M  V30 2962 H 279.904 1.74229 -5.74251 0
M  V30 2963 H 280.974 0.689007 -4.7998 0
M  V30 2964 N 282.317 1.53212 0.369288 0
M  V30 2965 C 283.728 1.60943 0.946276 0
M  V30 2966 C 284.079 0.47452 1.90375 0
M  V30 2967 O 283.204 -0.399597 2.12679 0
M  V30 2968 C 283.799 2.91715 1.72302 0
M  V30 2969 C 282.358 3.01792 2.24941 0
M  V30 2970 C 281.505 2.56211 1.06072 0
M  V30 2971 H 284.456 1.58007 0.148198 0
M  V30 2972 H 284.477 2.79309 2.58393 0
M  V30 2973 H 283.989 3.74295 1.0259 0
M  V30 2974 H 282.09 2.23791 2.97906 0
M  V30 2975 H 282.203 4.06803 2.53077 0
M  V30 2976 H 280.567 2.10998 1.4266 0
M  V30 2977 H 281.35 3.41206 0.378639 0
M  V30 2978 N 283.795 -0.628877 1.44509 0
M  V30 2979 C 284.727 -1.754 1.47538 0
M  V30 2980 C 285.74 -1.58575 0.368506 0
M  V30 2981 O 286.929 -1.66847 0.634376 0
M  V30 2982 C 284.029 -3.1315 1.29577 0
M  V30 2983 C 283.202 -3.56413 2.53551 0
M  V30 2984 C 282.261 -4.7305 2.30457 0
M  V30 2985 O 281.287 -4.81247 3.03957 0
M  V30 2986 N 282.489 -5.64903 1.3366 0
M  V30 2987 H 285.254 -1.73272 2.44534 0
M  V30 2988 H 282.815 -0.813512 1.39977 0
M  V30 2989 H 284.807 -3.88902 1.11971 0
M  V30 2990 H 283.377 -3.09908 0.409371 0
M  V30 2991 H 282.597 -2.70847 2.86419 0
M  V30 2992 H 283.885 -3.82071 3.36005 0
M  V30 2993 H 283.283 -5.60975 0.729604 0
M  V30 2994 H 281.84 -6.40275 1.22032 0
M  V30 2995 N 285.273 -1.31445 -0.869486 0
M  V30 2996 C 286.684 -1.19042 -1.43826 0
M  V30 2997 C 287.035 0.202919 -1.95148 0
M  V30 2998 O 286.16 1.10071 -1.86315 0
M  V30 2999 C 286.755 -2.15499 -2.6143 0
M  V30 3000 C 285.314 -2.07028 -3.14351 0
M  V30 3001 C 284.461 -2.04701 -1.87063 0
M  V30 3002 H 287.412 -1.43489 -0.677984 0
M  V30 3003 H 287.433 -1.74488 -3.38134 0
M  V30 3004 H 286.945 -3.16899 -2.24046 0
M  V30 3005 H 285.046 -1.08825 -3.56354 0
M  V30 3006 H 285.159 -2.96157 -3.766 0
M  V30 3007 H 283.523 -1.49724 -2.06046 0
M  V30 3008 H 284.306 -3.07857 -1.51917 0
M  V30 3009 N 286.751 1.08385 -1.14413 0
M  V30 3010 C 287.681 2.17321 -0.854044 0
M  V30 3011 C 288.662 1.69024 0.191049 0
M  V30 3012 O 289.847 1.94141 0.0476779 0
M  V30 3013 C 286.977 3.45719 -0.330983 0
M  V30 3014 C 285.931 4.07409 -1.31155 0
M  V30 3015 C 285.257 5.30762 -0.64778 0
M  V30 3016 C 286.557 4.48665 -2.67388 0
M  V30 3017 H 288.251 2.41845 -1.76498 0
M  V30 3018 H 285.797 1.16233 -0.850051 0
M  V30 3019 H 287.75 4.21241 -0.115645 0
M  V30 3020 H 286.474 3.2075 0.615381 0
M  V30 3021 H 285.133 3.33919 -1.51306 0
M  V30 3022 H 284.781 5.02078 0.304398 0
M  V30 3023 H 284.481 5.72992 -1.30207 0
M  V30 3024 H 286.005 6.08998 -0.441972 0
M  V30 3025 H 287.419 5.15364 -2.51143 0
M  V30 3026 H 285.816 5.01814 -3.29093 0
M  V30 3027 H 286.886 3.60543 -3.24248 0
M  V30 3028 N 288.23 0.939286 1.26551 0
M  V30 3029 C 289.479 0.581601 1.93133 0
M  V30 3030 C 289.792 -0.883224 1.74524 0
M  V30 3031 O 290.998 -1.3502 2.35546 0
M  V30 3032 C 289.454 0.989425 3.46032 0
M  V30 3033 C 289.062 2.47573 3.73379 0
M  V30 3034 C 290.806 0.703544 4.18629 0
M  V30 3035 C 288.713 2.82235 5.19709 0
M  V30 3036 H 287.643 0.213803 0.723052 0
M  V30 3037 H 290.294 1.14167 1.4366 0
M  V30 3038 H 288.676 0.357902 3.94379 0
M  V30 3039 H 289.85 3.15614 3.35744 0
M  V30 3040 H 288.165 2.73471 3.1401 0
M  V30 3041 H 290.762 0.938869 5.26393 0
M  V30 3042 H 291.105 -0.359639 4.14744 0
M  V30 3043 H 291.638 1.2947 3.76141 0
M  V30 3044 H 288.377 3.87509 5.28694 0
M  V30 3045 H 287.897 2.18854 5.58447 0
M  V30 3046 H 289.576 2.70599 5.87695 0
M  V30 3047 N 289.708 -1.40897 0.706093 0
M  V30 3048 C 290.671 -2.29131 0.0562841 0
M  V30 3049 C 291.671 -1.44901 -0.697166 0
M  V30 3050 O 292.861 -1.65926 -0.530484 0
M  V30 3051 C 289.993 -3.27957 -0.93043 0
M  V30 3052 H 291.186 -2.88091 0.833284 0
M  V30 3053 H 288.739 -1.4906 0.470192 0
M  V30 3054 H 289.474 -2.73997 -1.73482 0
M  V30 3055 H 289.259 -3.90124 -0.393166 0
M  V30 3056 H 290.749 -3.94049 -1.38256 0
M  V30 3057 N 291.186 -0.45159 -1.50991 0
M  V30 3058 C 292.434 0.109857 -2.01801 0
M  V30 3059 C 292.755 1.41958 -1.3369 0
M  V30 3060 O 292.025 1.9003 -0.475951 0
M  V30 3061 H 290.605 0.0435884 -0.745727 0
M  V30 3062 H 293.267 -0.597557 -1.85514 0
M  V30 3063 H 292.363 0.275489 -3.10882 0
M  V30 3064 N 292.664 1.56529 -0.183458 0
M  V30 3065 C 293.597 2.14417 0.781052 0
M  V30 3066 C 294.575 1.07761 1.21763 0
M  V30 3067 O 295.759 1.35807 1.30724 0
M  V30 3068 C 292.886 2.69361 2.05335 0
M  V30 3069 C 291.932 3.885 1.75982 0
M  V30 3070 S 292.765 5.27568 0.918256 0
M  V30 3071 C 293.921 5.85926 2.20095 0
M  V30 3072 H 294.154 2.95893 0.2889 0
M  V30 3073 H 291.687 1.54368 0.0313844 0
M  V30 3074 H 293.645 3.01662 2.78406 0
M  V30 3075 H 292.306 1.87949 2.51663 0
M  V30 3076 H 291.499 4.25314 2.70415 0
M  V30 3077 H 291.101 3.57149 1.10999 0
M  V30 3078 H 293.393 5.99579 3.15453 0
M  V30 3079 H 294.336 6.82761 1.87731 0
M  V30 3080 H 294.744 5.14438 2.32409 0
M  V30 3081 N 294.142 -0.090211 1.57342 0
M  V30 3082 C 295.372 -0.805055 1.90269 0
M  V30 3083 C 295.78 -1.72561 0.775842 0
M  V30 3084 O 295.123 -1.81839 -0.260843 0
M  V30 3085 C 295.185 -1.66734 3.18497 0
M  V30 3086 C 294.849 -0.918092 4.47683 0
M  V30 3087 C 295.846 -0.245674 5.19319 0
M  V30 3088 C 293.531 -0.890724 4.94339 0
M  V30 3089 C 295.525 0.444088 6.35851 0
M  V30 3090 C 293.212 -0.197179 6.10782 0
M  V30 3091 C 294.21 0.469044 6.81388 0
M  V30 3092 O 293.898 1.15146 7.95611 0
M  V30 3093 H 293.63 -0.235143 0.633785 0
M  V30 3094 H 296.184 -0.0703805 2.05279 0
M  V30 3095 H 294.414 -2.44437 2.99646 0
M  V30 3096 H 296.103 -2.25919 3.37217 0
M  V30 3097 H 296.869 -0.258246 4.84312 0
M  V30 3098 H 292.748 -1.39873 4.39268 0
M  V30 3099 H 296.292 0.964667 6.90898 0
M  V30 3100 H 292.189 -0.18247 6.45242 0
M  V30 3101 H 292.957 1.05885 8.11622 0
M  V30 3102 N 295.62 -1.53406 -0.361157 0
M  V30 3103 C 296.55 -1.83136 -1.44857 0
M  V30 3104 C 297.531 -0.685174 -1.5569 0
M  V30 3105 O 298.716 -0.93544 -1.70186 0
M  V30 3106 C 295.846 -2.02522 -2.82138 0
M  V30 3107 C 294.8 -3.18302 -2.86126 0
M  V30 3108 C 294.126 -3.22989 -4.26125 0
M  V30 3109 C 295.426 -4.56796 -2.53248 0
M  V30 3110 H 297.12 -2.74201 -1.20226 0
M  V30 3111 H 294.666 -1.31938 -0.576922 0
M  V30 3112 H 296.619 -2.21904 -3.58241 0
M  V30 3113 H 295.343 -1.08172 -3.08166 0
M  V30 3114 H 294.002 -2.98747 -2.12475 0
M  V30 3115 H 293.65 -2.26267 -4.49235 0
M  V30 3116 H 293.35 -4.00781 -4.29708 0
M  V30 3117 H 294.874 -3.44559 -5.04094 0
M  V30 3118 H 296.288 -4.7631 -3.19064 0
M  V30 3119 H 294.685 -5.36862 -2.68141 0
M  V30 3120 H 295.755 -4.61606 -1.48484 0
M  V30 3121 N 297.098 0.621204 -1.44841 0
M  V30 3122 C 298.031 1.7459 -1.46947 0
M  V30 3123 C 299.009 1.59273 -0.327238 0
M  V30 3124 O 300.193 1.81021 -0.525706 0
M  V30 3125 C 297.32 3.12274 -1.31159 0
M  V30 3126 C 296.366 3.46216 -2.49072 0
M  V30 3127 S 297.199 3.4258 -4.11581 0
M  V30 3128 C 298.355 4.82867 -3.98233 0
M  V30 3129 H 298.588 1.72538 -2.42111 0
M  V30 3130 H 296.121 0.796683 -1.32259 0
M  V30 3131 H 298.079 3.91722 -1.22737 0
M  V30 3132 H 296.74 3.11855 -0.374885 0
M  V30 3133 H 295.933 4.4643 -2.33915 0
M  V30 3134 H 295.535 2.74253 -2.54286 0
M  V30 3135 H 297.827 5.7234 -3.62537 0
M  V30 3136 H 298.77 5.0308 -4.98313 0
M  V30 3137 H 299.178 4.57908 -3.30121 0
M  V30 3138 N 298.576 1.31904 0.862503 0
M  V30 3139 C 299.509 1.14514 1.97388 0
M  V30 3140 C 300.487 0.0466493 1.62533 0
M  V30 3141 O 301.671 0.204484 1.87388 0
M  V30 3142 C 298.798 0.751347 3.30261 0
M  V30 3143 C 297.844 1.85395 3.84098 0
M  V30 3144 S 298.677 3.46081 4.08642 0
M  V30 3145 C 299.833 3.08655 5.44502 0
M  V30 3146 H 300.066 2.08597 2.11836 0
M  V30 3147 H 297.599 1.16475 1.01356 0
M  V30 3148 H 299.557 0.530901 4.07052 0
M  V30 3149 H 298.218 -0.170493 3.13637 0
M  V30 3150 H 297.411 1.53122 4.80177 0
M  V30 3151 H 297.013 2.02984 3.14123 0
M  V30 3152 H 299.305 2.58012 6.26447 0
M  V30 3153 H 300.248 4.03726 5.81731 0
M  V30 3154 H 300.656 2.45891 5.08132 0
M  V30 3155 N 300.054 -1.07777 1.14986 0
M  V30 3156 C 301.279 -1.84558 0.946213 0
M  V30 3157 C 301.704 -1.81323 -0.500362 0
M  V30 3158 O 301.062 -1.20301 -1.35637 0
M  V30 3159 C 301.11 -3.29736 1.45968 0
M  V30 3160 O 300.214 -4.07149 0.65601 0
M  V30 3161 H 299.555 -0.571641 0.33782 0
M  V30 3162 H 302.085 -1.35991 1.52865 0
M  V30 3163 H 302.095 -3.80574 1.47063 0
M  V30 3164 H 300.77 -3.31406 2.51283 0
M  V30 3165 H 299.347 -3.65994 0.714322 0
M  V30 3166 N 301.532 -0.945985 -1.26051 0
M  V30 3167 C 302.778 -0.597002 -1.93814 0
M  V30 3168 C 303.111 0.862484 -1.73997 0
M  V30 3169 O 302.386 1.61769 -1.07986 0
M  V30 3170 C 302.669 -0.945937 -3.47454 0
M  V30 3171 C 302.522 -2.46052 -3.76535 0
M  V30 3172 C 303.841 -0.464785 -4.37639 0
M  V30 3173 H 300.96 -0.218366 -0.703907 0
M  V30 3174 H 303.602 -1.18107 -1.48831 0
M  V30 3175 H 301.752 -0.448902 -3.85898 0
M  V30 3176 H 303.424 -3.03065 -3.47778 0
M  V30 3177 H 301.667 -2.90194 -3.22444 0
M  V30 3178 H 302.338 -2.65517 -4.83947 0
M  V30 3179 H 304.814 -0.891016 -4.06448 0
M  V30 3180 H 303.69 -0.737712 -5.4392 0
M  V30 3181 H 303.951 0.635274 -4.37512 0
M  V30 3182 N 303.011 1.40521 -0.713556 0
M  V30 3183 C 304.288 1.94775 -0.17943 0
M  V30 3184 C 304.668 1.65184 1.31444 0
M  V30 3185 O 304.016 0.968429 2.06963 0
M  V30 3186 C 304.226 3.45543 -0.489986 0
M  V30 3187 C 305.574 4.22442 -0.427536 0
M  V30 3188 O 306.598 3.53644 -0.425929 0
M  V30 3189 O 305.457 5.4501 -0.403292 0
M  V30 3190 H 302.551 0.826606 -0.0255192 0
M  V30 3191 H 305.097 1.5014 -0.790949 0
M  V30 3192 H 303.869 3.60432 -1.5233 0
M  V30 3193 H 303.492 3.97311 0.151598 0
M  V30 3194 N 304.489 0.459591 1.5075 0
M  V30 3195 C 305.717 -0.0973749 2.06671 0
M  V30 3196 C 306.132 -1.34524 1.32472 0
M  V30 3197 O 305.489 -1.7827 0.390634 0
M  V30 3198 C 305.54 -0.39714 3.59312 0
M  V30 3199 O 305.261 0.801214 4.30711 0
M  V30 3200 C 306.762 -1.00234 4.31819 0
M  V30 3201 H 303.982 0.00195854 0.670997 0
M  V30 3202 H 306.526 0.645072 1.94059 0
M  V30 3203 H 304.681 -1.08951 3.71764 0
M  V30 3204 H 305.095 0.538857 5.21725 0
M  V30 3205 H 306.569 -1.16193 5.39632 0
M  V30 3206 H 307.046 -1.98939 3.91561 0
M  V30 3207 H 307.652 -0.348699 4.23868 0
M  V30 3208 N 305.967 -1.56429 0.191757 0
M  V30 3209 C 307.213 -1.97777 -0.448554 0
M  V30 3210 C 307.546 -1.07847 -1.61501 0
M  V30 3211 O 306.821 -0.129774 -1.94067 0
M  V30 3212 C 307.104 -3.48362 -0.911906 0
M  V30 3213 C 306.957 -4.4907 0.256136 0
M  V30 3214 C 308.276 -4.02561 -1.77857 0
M  V30 3215 H 305.395 -0.719071 -0.161572 0
M  V30 3216 H 308.037 -1.87896 0.282007 0
M  V30 3217 H 306.187 -3.56914 -1.53442 0
M  V30 3218 H 307.859 -4.5256 0.893733 0
M  V30 3219 H 306.102 -4.24181 0.908436 0
M  V30 3220 H 306.773 -5.51889 -0.11053 0
M  V30 3221 H 309.249 -3.96767 -1.25359 0
M  V30 3222 H 308.125 -5.08301 -2.07174 0
M  V30 3223 H 308.386 -3.47616 -2.73158 0
M  V30 3224 N 307.445 0.0818655 -1.57387 0
M  V30 3225 C 308.694 0.781681 -1.85937 0
M  V30 3226 C 309.007 1.79246 -0.782957 0
M  V30 3227 O 310.213 2.54112 -0.955987 0
M  V30 3228 C 308.669 1.44109 -3.29789 0
M  V30 3229 C 308.277 0.469396 -4.45534 0
M  V30 3230 C 310.021 2.12386 -3.67549 0
M  V30 3231 C 307.928 1.13415 -5.80423 0
M  V30 3232 H 306.858 0.295682 -0.693605 0
M  V30 3233 H 309.509 0.0348051 -1.83467 0
M  V30 3234 H 307.891 2.23588 -3.2684 0
M  V30 3235 H 309.065 -0.294856 -4.59856 0
M  V30 3236 H 307.38 -0.108383 -4.16259 0
M  V30 3237 H 309.977 2.62878 -4.65617 0
M  V30 3238 H 310.32 2.91877 -2.96839 0
M  V30 3239 H 310.853 1.39751 -3.72444 0
M  V30 3240 H 307.592 0.379771 -6.54399 0
M  V30 3241 H 307.112 1.8695 -5.69921 0
M  V30 3242 H 308.791 1.65686 -6.25426 0
M  V30 3243 N 308.923 1.53595 0.353017 0
M  V30 3244 C 310.334 1.61937 0.929153 0
M  V30 3245 C 310.685 0.494686 1.89861 0
M  V30 3246 O 309.81 -0.377017 2.1309 0
M  V30 3247 C 310.405 2.93526 1.69199 0
M  V30 3248 C 308.964 3.04161 2.21727 0
M  V30 3249 C 308.111 2.57322 1.03348 0
M  V30 3250 H 311.062 1.58155 0.131431 0
M  V30 3251 H 311.083 2.82034 2.55416 0
M  V30 3252 H 310.595 3.75362 0.986144 0
M  V30 3253 H 308.696 2.26938 2.95516 0
M  V30 3254 H 308.809 4.09465 2.48748 0
M  V30 3255 H 307.173 2.12499 1.40414 0
M  V30 3256 H 307.956 3.41588 0.342428 0
M  V30 3257 N 310.401 -0.613514 1.45168 0
M  V30 3258 C 311.364 -1.7065 1.53007 0
M  V30 3259 C 312.364 -1.5548 0.410184 0
M  V30 3260 O 313.554 -1.60656 0.673455 0
M  V30 3261 C 310.686 -3.09875 1.42093 0
M  V30 3262 H 311.879 -1.65068 2.50385 0
M  V30 3263 H 309.432 -0.828728 1.32521 0
M  V30 3264 H 310.167 -3.21039 0.458769 0
M  V30 3265 H 309.952 -3.22293 2.23315 0
M  V30 3266 H 311.442 -3.895 1.50598 0
M  V30 3267 N 311.879 -1.3236 -0.855495 0
M  V30 3268 C 313.127 -1.22629 -1.60644 0
M  V30 3269 C 313.448 0.212136 -1.93843 0
M  V30 3270 O 312.718 1.13666 -1.59552 0
M  V30 3271 H 311.298 -0.450882 -0.595579 0
M  V30 3272 H 313.96 -1.65871 -1.02337 0
M  V30 3273 H 313.056 -1.80832 -2.54374 0
M  V30 3274 N 313.357 1.07166 -1.15556 0
M  V30 3275 C 314.267 2.17947 -0.868116 0
M  V30 3276 C 315.283 1.73297 0.156297 0
M  V30 3277 O 316.459 2.01392 -0.0182327 0
M  V30 3278 C 313.524 3.44789 -0.36355 0
M  V30 3279 C 312.585 4.03996 -1.45209 0
M  V30 3280 C 311.818 5.24783 -0.971508 0
M  V30 3281 O 312.041 5.70109 0.182194 0
M  V30 3282 O 310.975 5.75715 -1.75603 0
M  V30 3283 H 314.801 2.4503 -1.79427 0
M  V30 3284 H 312.386 1.16539 -0.934824 0
M  V30 3285 H 314.268 4.21307 -0.0887113 0
M  V30 3286 H 312.943 3.19253 0.534708 0
M  V30 3287 H 311.85 3.29009 -1.78056 0
M  V30 3288 H 313.183 4.33808 -2.32533 0
M  V30 3289 N 314.835 0.952656 1.25548 0
M  V30 3290 C 315.782 0.47008 2.25962 0
M  V30 3291 C 316.752 -0.476384 1.59122 0
M  V30 3292 O 317.937 -0.39007 1.8677 0
M  V30 3293 C 315.077 -0.247881 3.44209 0
M  V30 3294 C 314.19 0.735591 4.25691 0
M  V30 3295 C 313.325 -0.0047306 5.312 0
M  V30 3296 C 312.364 0.969805 6.04368 0
M  V30 3297 N 311.501 0.260486 7.01617 0
M  V30 3298 H 316.341 1.33126 2.66611 0
M  V30 3299 H 313.878 0.66765 1.31076 0
M  V30 3300 H 315.836 -0.680695 4.1161 0
M  V30 3301 H 314.466 -1.07312 3.0444 0
M  V30 3302 H 313.518 1.28689 3.57971 0
M  V30 3303 H 314.83 1.47934 4.76358 0
M  V30 3304 H 313.984 -0.496275 6.04667 0
M  V30 3305 H 312.723 -0.781282 4.81401 0
M  V30 3306 H 311.728 1.47237 5.29718 0
M  V30 3307 H 312.953 1.74655 6.56256 0
M  V30 3308 H 310.899 -0.497364 6.54112 0
M  V30 3309 H 310.816 0.943362 7.50091 0
M  V30 3310 H 312.084 -0.209587 7.79218 0
M  V30 3311 N 316.313 -1.40141 0.720998 0
M  V30 3312 C 317.559 -2.01084 0.263231 0
M  V30 3313 C 317.892 -1.57052 -1.14229 0
M  V30 3314 O 317.167 -0.793027 -1.77599 0
M  V30 3315 C 317.45 -3.58401 0.349344 0
M  V30 3316 C 317.303 -4.12491 1.79363 0
M  V30 3317 C 318.622 -4.39231 -0.276351 0
M  V30 3318 H 315.741 -0.730572 0.0971228 0
M  V30 3319 H 318.383 -1.66543 0.914518 0
M  V30 3320 H 316.533 -3.87958 -0.205165 0
M  V30 3321 H 318.205 -3.93711 2.40394 0
M  V30 3322 H 316.448 -3.66576 2.31958 0
M  V30 3323 H 317.119 -5.21646 1.80524 0
M  V30 3324 H 319.595 -4.15637 0.196184 0
M  V30 3325 H 318.471 -5.48586 -0.185681 0
M  V30 3326 H 318.732 -4.20643 -1.36059 0
M  V30 3327 N 317.792 -0.46758 -1.50504 0
M  V30 3328 C 319.038 0.0887532 -2.02606 0
M  V30 3329 C 319.371 1.39686 -1.34913 0
M  V30 3330 O 318.646 1.88644 -0.473694 0
M  V30 3331 C 318.929 0.276206 -3.59039 0
M  V30 3332 C 318.782 -1.05267 -4.37309 0
M  V30 3333 C 320.101 1.03235 -4.27821 0
M  V30 3334 H 317.22 0.0307814 -0.736357 0
M  V30 3335 H 319.862 -0.612485 -1.79857 0
M  V30 3336 H 318.012 0.8735 -3.78553 0
M  V30 3337 H 319.684 -1.68628 -4.29374 0
M  V30 3338 H 317.927 -1.65015 -4.01189 0
M  V30 3339 H 318.598 -0.875197 -5.45018 0
M  V30 3340 H 321.074 0.526111 -4.12761 0
M  V30 3341 H 319.95 1.1323 -5.37094 0
M  V30 3342 H 320.211 2.06806 -3.90748 0
M  V30 3343 N 319.27 1.56325 -0.20005 0
M  V30 3344 C 320.218 2.20666 0.735482 0
M  V30 3345 C 321.212 1.17934 1.21605 0
M  V30 3346 O 322.418 1.36068 1.17837 0
M  V30 3347 H 318.793 0.70725 0.255542 0
M  V30 3348 H 320.764 2.9792 0.169166 0
M  V30 3349 C 319.513 2.88391 1.94232 0
M  V30 3350 H 318.836 3.67185 1.58161 0
M  V30 3351 H 320.276 3.3684 2.57517 0
M  V30 3352 C 318.735 1.89692 2.78421 0
M  V30 3353 O 319.265 1.40032 3.76502 0
M  V30 3354 N 317.471 1.57813 2.44015 0
M  V30 3355 H 317.018 1.9839 1.64314 0
M  V30 3356 H 316.976 0.920325 3.00628 0
M  V30 3357 N 320.748 -0.0735177 1.57428 0
M  V30 3358 C 321.973 -0.789787 1.91774 0
M  V30 3359 C 322.398 -1.70413 0.796306 0
M  V30 3360 O 321.756 -1.79555 -0.250961 0
M  V30 3361 C 321.804 -1.5609 3.25067 0
M  V30 3362 O 320.908 -2.67144 3.14178 0
M  V30 3363 H 320.249 -0.215582 0.628029 0
M  V30 3364 H 322.779 -0.0422781 2.04556 0
M  V30 3365 H 322.789 -1.94052 3.58898 0
M  V30 3366 H 321.464 -0.890015 4.06265 0
M  V30 3367 H 320.041 -2.32052 2.91901 0
M  V30 3368 N 322.226 -1.5378 -0.344866 0
M  V30 3369 C 323.503 -1.61589 -1.10219 0
M  V30 3370 C 323.883 -0.436316 -2.06542 0
M  V30 3371 O 323.231 0.571543 -2.21237 0
M  V30 3372 C 323.441 -2.97602 -1.82301 0
M  V30 3373 C 324.789 -3.5291 -2.36093 0
M  V30 3374 O 325.813 -2.99768 -1.924 0
M  V30 3375 O 324.672 -4.45859 -3.16026 0
M  V30 3376 H 321.766 -0.653522 -0.506792 0
M  V30 3377 H 324.312 -1.66126 -0.346465 0
M  V30 3378 H 323.084 -3.74893 -1.12121 0
M  V30 3379 H 322.707 -2.9665 -2.64735 0
M  V30 3380 N 323.704 0.605807 -1.45491 0
M  V30 3381 C 324.953 1.36086 -1.48874 0
M  V30 3382 C 325.266 1.95131 -0.135333 0
M  V30 3383 O 326.472 2.7146 -0.0468144 0
M  V30 3384 C 324.928 2.46518 -2.62215 0
M  V30 3385 C 324.536 1.93877 -4.03876 0
M  V30 3386 C 326.28 3.23512 -2.74846 0
M  V30 3387 C 324.187 3.01801 -5.08596 0
M  V30 3388 H 323.117 0.511497 -0.553974 0
M  V30 3389 H 325.768 0.649089 -1.71636 0
M  V30 3390 H 324.15 3.20388 -2.32739 0
M  V30 3391 H 325.324 1.26704 -4.43038 0
M  V30 3392 H 323.639 1.29622 -3.95711 0
M  V30 3393 H 326.236 4.04013 -3.50253 0
M  V30 3394 H 326.579 3.74631 -1.81542 0
M  V30 3395 H 327.112 2.56742 -3.03856 0
M  V30 3396 H 323.851 2.55597 -6.03614 0
M  V30 3397 H 323.371 3.67535 -4.74002 0
M  V30 3398 H 325.05 3.66152 -5.33424 0
M  V30 3399 N 325.182 1.32811 0.848464 0
M  V30 3400 C 326.407 1.26882 1.6406 0
M  V30 3401 C 326.832 -0.15913 1.87426 0
M  V30 3402 O 326.19 -1.11258 1.43148 0
M  V30 3403 C 326.238 2.03997 2.97351 0
M  V30 3404 O 325.342 1.39201 3.88197 0
M  V30 3405 H 324.683 0.436982 0.499943 0
M  V30 3406 H 327.213 1.75224 1.0563 0
M  V30 3407 H 327.223 2.14403 3.47124 0
M  V30 3408 H 325.898 3.0783 2.79666 0
M  V30 3409 H 324.475 1.37381 3.46671 0
M  V30 3410 N 326.66 -1.06551 1.16123 0
M  V30 3411 C 327.9 -1.80889 0.951766 0
M  V30 3412 C 328.264 -1.85062 -0.511465 0
M  V30 3413 O 329.465 -2.55353 -0.83954 0
M  V30 3414 C 327.736 -3.21609 1.55893 0
M  V30 3415 S 329.295 -4.12593 1.49373 0
M  V30 3416 H 326.113 -0.623156 0.342341 0
M  V30 3417 H 328.715 -1.27943 1.47821 0
M  V30 3418 H 327.419 -3.16165 2.61664 0
M  V30 3419 H 326.95 -3.79631 1.0317 0
M  V30 3420 H 328.965 -4.93753 0.492196 0
M  V30 3421 N 328.138 -0.959301 -1.25041 0
M  V30 3422 C 329.088 -0.453888 -2.23436 0
M  V30 3423 C 330.072 0.459461 -1.542 0
M  V30 3424 O 331.264 0.291752 -1.74579 0
M  V30 3425 C 328.393 0.262667 -3.42294 0
M  V30 3426 C 327.479 -0.669022 -4.1879 0
M  V30 3427 N 327.87 -1.80267 -4.72586 0
M  V30 3428 C 326.168 -0.47814 -4.4343 0
M  V30 3429 C 326.869 -2.38475 -5.3057 0
M  V30 3430 N 325.845 -1.67078 -5.17287 0
M  V30 3431 H 329.647 -1.319 -2.6264 0
M  V30 3432 H 327.161 -0.817358 -1.40332 0
M  V30 3433 H 329.158 0.641911 -4.11929 0
M  V30 3434 H 327.818 1.12432 -3.04613 0
M  V30 3435 H 328.829 -2.18442 -4.69578 0
M  V30 3436 H 325.506 0.340249 -4.16111 0
M  V30 3437 H 326.896 -3.34094 -5.8295 0
M  V30 3438 N 329.616 1.39756 -0.72842 0
M  V30 3439 C 330.846 2.04651 -0.283117 0
M  V30 3440 C 331.254 1.5502 1.08469 0
M  V30 3441 O 330.597 0.707343 1.69536 0
M  V30 3442 C 330.659 3.58947 -0.199309 0
M  V30 3443 C 330.323 4.31525 -1.5045 0
M  V30 3444 C 331.32 4.5861 -2.44894 0
M  V30 3445 C 329.005 4.70195 -1.76698 0
M  V30 3446 C 330.999 5.23366 -3.63822 0
M  V30 3447 C 328.686 5.3468 -2.95906 0
M  V30 3448 C 329.684 5.61198 -3.89289 0
M  V30 3449 O 329.372 6.24347 -5.06404 0
M  V30 3450 H 329.104 0.664777 -0.122666 0
M  V30 3451 H 331.658 1.79913 -0.990987 0
M  V30 3452 H 329.888 3.82556 0.56461 0
M  V30 3453 H 331.577 4.0534 0.213125 0
M  V30 3454 H 332.343 4.29187 -2.25883 0
M  V30 3455 H 328.222 4.48916 -1.04859 0
M  V30 3456 H 331.766 5.4398 -4.36728 0
M  V30 3457 H 327.663 5.63524 -3.14819 0
M  V30 3458 H 328.431 6.42842 -5.06652 0
M  V30 3459 N 331.094 0.475555 1.50254 0
M  V30 3460 C 332.041 -0.316293 2.28622 0
M  V30 3461 C 333.011 -0.983227 1.33873 0
M  V30 3462 O 334.196 -0.994805 1.62814 0
M  V30 3463 C 331.336 -1.38975 3.1588 0
M  V30 3464 C 330.449 -0.737146 4.25664 0
M  V30 3465 C 329.584 -1.78887 5.00173 0
M  V30 3466 C 328.623 -1.11676 6.01826 0
M  V30 3467 N 327.76 -2.11154 6.69596 0
M  V30 3468 H 332.6 0.358297 2.95838 0
M  V30 3469 H 330.137 0.188541 1.45887 0
M  V30 3470 H 332.095 -2.02383 3.64825 0
M  V30 3471 H 330.725 -2.03344 2.50701 0
M  V30 3472 H 329.777 0.0096065 3.80399 0
M  V30 3473 H 331.089 -0.206816 4.98371 0
M  V30 3474 H 330.243 -2.49865 5.52859 0
M  V30 3475 H 328.982 -2.35302 4.27182 0
M  V30 3476 H 327.987 -0.392633 5.48396 0
M  V30 3477 H 329.212 -0.55945 6.76792 0
M  V30 3478 H 327.158 -2.66577 5.99394 0
M  V30 3479 H 327.075 -1.63118 7.38193 0
M  V30 3480 H 328.343 -2.81497 7.26897 0
M  V30 3481 N 332.573 -1.56217 0.208337 0
M  V30 3482 C 333.521 -2.21053 -0.723769 0
M  V30 3483 C 334.515 -1.18578 -1.20978 0
M  V30 3484 O 335.721 -1.36691 -1.17114 0
M  V30 3485 H 332.096 -0.708595 -0.251788 0
M  V30 3486 H 334.067 -2.98006 -0.153365 0
M  V30 3487 C 332.816 -2.89417 -1.927 0
M  V30 3488 H 332.139 -3.68019 -1.56212 0
M  V30 3489 H 333.579 -3.38201 -2.55727 0
M  V30 3490 C 332.038 -1.91166 -2.77411 0
M  V30 3491 O 332.568 -1.42026 -3.75754 0
M  V30 3492 N 330.774 -1.59105 -2.43175 0
M  V30 3493 H 330.321 -1.99259 -1.63259 0
M  V30 3494 H 330.279 -0.936255 -3.00136 0
M  V30 3495 N 334.051 0.0651679 -1.57465 0
M  V30 3496 C 335.281 0.774683 -1.91526 0
M  V30 3497 C 335.689 1.71305 -0.803196 0
M  V30 3498 O 335.032 1.82231 0.231881 0
M  V30 3499 C 335.094 1.61645 -3.21109 0
M  V30 3500 C 334.758 0.846753 -4.49087 0
M  V30 3501 C 335.755 0.163024 -5.19644 0
M  V30 3502 C 333.44 0.811966 -4.95694 0
M  V30 3503 C 335.434 -0.54519 -6.35064 0
M  V30 3504 C 333.121 0.0999836 -6.11018 0
M  V30 3505 C 334.119 -0.577388 -6.80555 0
M  V30 3506 O 333.807 -1.27789 -7.93678 0
M  V30 3507 H 333.539 0.225031 -0.637446 0
M  V30 3508 H 336.093 0.0377134 -2.05365 0
M  V30 3509 H 334.323 2.39638 -3.03497 0
M  V30 3510 H 336.012 2.20525 -3.40769 0
M  V30 3511 H 336.778 0.181163 -4.84662 0
M  V30 3512 H 332.657 1.32867 -4.41438 0
M  V30 3513 H 336.201 -1.07446 -6.89276 0
M  V30 3514 H 332.098 0.0797945 -6.45451 0
M  V30 3515 H 332.866 -1.18784 -8.09835 0
M  V30 3516 N 335.529 1.53961 0.336706 0
M  V30 3517 C 336.94 1.62914 0.911925 0
M  V30 3518 C 337.291 0.514795 1.89326 0
M  V30 3519 O 336.416 -0.354395 2.13478 0
M  V30 3520 C 337.011 2.95304 1.66076 0
M  V30 3521 C 335.57 3.06496 2.18489 0
M  V30 3522 C 334.717 2.58403 1.00613 0
M  V30 3523 H 337.668 1.58285 0.114649 0
M  V30 3524 H 337.689 2.84727 2.5241 0
M  V30 3525 H 337.201 3.76387 0.946276 0
M  V30 3526 H 335.302 2.3006 2.93092 0
M  V30 3527 H 335.415 4.1208 2.44391 0
M  V30 3528 H 333.779 2.13977 1.38152 0
M  V30 3529 H 334.562 3.41932 0.306179 0
M  V30 3530 N 337.007 -0.598083 1.45811 0
M  V30 3531 C 337.94 -1.7223 1.49706 0
M  V30 3532 C 338.918 -1.58732 0.352535 0
M  V30 3533 O 340.102 -1.80162 0.554438 0
M  V30 3534 C 337.229 -3.10148 1.3611 0
M  V30 3535 C 336.275 -3.42209 2.54549 0
M  V30 3536 S 337.108 -3.35989 4.16979 0
M  V30 3537 C 338.264 -4.76471 4.05865 0
M  V30 3538 H 338.497 -1.68665 2.44826 0
M  V30 3539 H 336.03 -0.775541 1.33509 0
M  V30 3540 H 337.988 -3.8972 1.28953 0
M  V30 3541 H 336.649 -3.11219 0.424451 0
M  V30 3542 H 335.842 -4.42652 2.40988 0
M  V30 3543 H 335.444 -2.70173 2.58617 0
M  V30 3544 H 337.736 -5.665 3.71596 0
M  V30 3545 H 338.679 -4.95089 5.06253 0
M  V30 3546 H 339.087 -4.52599 3.37364 0
M  V30 3547 N 338.485 -1.33259 -0.841409 0
M  V30 3548 C 339.435 -1.19872 -1.93945 0
M  V30 3549 C 340.419 -0.102269 -1.60575 0
M  V30 3550 O 341.611 -0.330114 -1.73894 0
M  V30 3551 C 338.74 -0.937517 -3.30251 0
M  V30 3552 C 337.826 -2.07629 -3.69799 0
M  V30 3553 N 338.217 -3.32604 -3.81062 0
M  V30 3554 C 336.515 -1.98242 -3.9952 0
M  V30 3555 C 337.216 -4.07275 -4.15333 0
M  V30 3556 N 336.192 -3.35691 -4.27566 0
M  V30 3557 H 339.994 -2.14604 -2.00805 0
M  V30 3558 H 337.508 -1.2523 -1.03398 0
M  V30 3559 H 339.505 -0.822545 -4.08705 0
M  V30 3560 H 338.165 0.00128798 -3.247 0
M  V30 3561 H 339.176 -3.67382 -3.65035 0
M  V30 3562 H 335.853 -1.12005 -4.02195 0
M  V30 3563 H 337.243 -5.1511 -4.31406 0
M  V30 3564 N 339.963 1.05934 -1.16686 0
M  V30 3565 C 341.209 1.79065 -0.95203 0
M  V30 3566 C 341.542 1.87147 0.518629 0
M  V30 3567 O 340.817 1.36574 1.38484 0
M  V30 3568 C 341.1 3.23359 -1.58464 0
M  V30 3569 C 340.953 3.23336 -3.12689 0
M  V30 3570 C 342.272 4.21004 -1.28232 0
M  V30 3571 H 339.391 0.65005 -0.34728 0
M  V30 3572 H 342.033 1.23868 -1.44072 0
M  V30 3573 H 340.183 3.70493 -1.16908 0
M  V30 3574 H 341.855 2.84336 -3.6325 0
M  V30 3575 H 340.098 2.61886 -3.4583 0
M  V30 3576 H 340.769 4.25144 -3.52075 0
M  V30 3577 H 343.245 3.8233 -1.64203 0
M  V30 3578 H 342.121 5.20225 -1.75092 0
M  V30 3579 H 342.382 4.41639 -0.201791 0
M  V30 3580 N 341.441 0.965919 1.2453 0
M  V30 3581 C 342.688 0.626831 1.92554 0
M  V30 3582 C 343.016 -0.837739 1.75534 0
M  V30 3583 O 342.271 -1.61793 1.10098 0
M  V30 3584 C 342.57 0.945428 3.44669 0
M  V30 3585 C 342.236 2.39785 3.81856 0
M  V30 3586 C 340.898 2.79483 3.91718 0
M  V30 3587 C 343.25 3.34055 4.00071 0
M  V30 3588 C 340.578 4.12496 4.1721 0
M  V30 3589 C 342.93 4.66694 4.27059 0
M  V30 3590 C 341.594 5.06172 4.3514 0
M  V30 3591 H 340.864 0.229374 0.704605 0
M  V30 3592 H 343.511 1.21707 1.4785 0
M  V30 3593 H 341.816 0.272926 3.90848 0
M  V30 3594 H 343.513 0.661484 3.95507 0
M  V30 3595 H 340.103 2.08003 3.74743 0
M  V30 3596 H 344.287 3.04571 3.91855 0
M  V30 3597 H 339.543 4.42709 4.21685 0
M  V30 3598 H 343.717 5.3971 4.40097 0
M  V30 3599 H 341.344 6.09262 4.54646 0
M  V30 3600 N 342.919 -1.39368 0.735821 0
M  V30 3601 C 343.882 -2.2896 0.104874 0
M  V30 3602 C 344.882 -1.46347 -0.666274 0
M  V30 3603 O 346.072 -1.67014 -0.49517 0
M  V30 3604 C 343.204 -3.29857 -0.860656 0
M  V30 3605 H 344.397 -2.86259 0.894205 0
M  V30 3606 H 341.95 -1.48029 0.501704 0
M  V30 3607 H 342.685 -2.77615 -1.67631 0
M  V30 3608 H 342.47 -3.9087 -0.310327 0
M  V30 3609 H 343.96 -3.96893 -1.29867 0
M  V30 3610 N 344.397 -0.483516 -1.5 0
M  V30 3611 C 345.627 0.0643896 -2.065 0
M  V30 3612 C 346.035 1.32949 -1.34615 0
M  V30 3613 O 345.378 1.79003 -0.412756 0
M  V30 3614 C 345.44 0.405983 -3.572 0
M  V30 3615 C 345.104 -0.758875 -4.50655 0
M  V30 3616 C 346.101 -1.64445 -4.93208 0
M  V30 3617 C 343.786 -0.952725 -4.93182 0
M  V30 3618 C 345.78 -2.70818 -5.77006 0
M  V30 3619 C 343.467 -2.01966 -5.76761 0
M  V30 3620 C 344.465 -2.89574 -6.18576 0
M  V30 3621 O 344.153 -3.94429 -7.00486 0
M  V30 3622 H 343.885 -0.00934786 -0.675935 0
M  V30 3623 H 346.439 -0.674959 -1.93993 0
M  V30 3624 H 344.669 1.19869 -3.67652 0
M  V30 3625 H 346.358 0.890433 -3.96013 0
M  V30 3626 H 347.124 -1.50643 -4.61012 0
M  V30 3627 H 343.003 -0.280247 -4.60147 0
M  V30 3628 H 346.547 -3.3923 -6.09565 0
M  V30 3629 H 342.444 -2.1577 -6.0837 0
M  V30 3630 H 343.212 -3.91568 -7.1876 0
M  V30 3631 N 345.875 1.56104 -0.216619 0
M  V30 3632 C 347.291 1.58995 0.13886 0
M  V30 3633 C 347.491 1.23333 1.59346 0
M  V30 3634 O 346.547 0.966234 2.33281 0
M  V30 3635 C 347.86 3.00143 -0.182968 0
M  V30 3636 C 349.408 3.12751 -0.124807 0
M  V30 3637 C 349.883 4.56068 -0.420241 0
M  V30 3638 N 351.374 4.61723 -0.369634 0
M  V30 3639 C 352.109 5.70542 -0.571789 0
M  V30 3640 N 351.605 6.87744 -0.835453 0
M  V30 3641 N 353.398 5.59831 -0.504563 0
M  V30 3642 H 345.549 1.77562 -1.16557 0
M  V30 3643 H 347.812 0.825091 -0.466828 0
M  V30 3644 H 347.518 3.30871 -1.19237 0
M  V30 3645 H 347.392 3.73813 0.504367 0
M  V30 3646 H 349.779 2.81822 0.875223 0
M  V30 3647 H 349.86 2.41421 -0.845544 0
M  V30 3648 H 349.504 4.87713 -1.41769 0
M  V30 3649 H 349.434 5.25617 0.321631 0
M  V30 3650 H 351.925 3.77502 -0.173338 0
M  V30 3651 H 352.238 7.66587 -0.977938 0
M  V30 3652 H 350.583 6.895 -0.872592 0
M  V30 3653 H 353.774 4.67145 -0.298842 0
M  V30 3654 H 353.947 6.44573 -0.665519 0
M  V30 3655 N 347.353 -0.0568162 1.57498 0
M  V30 3656 C 348.599 -0.75422 1.88253 0
M  V30 3657 C 348.932 -1.76461 0.810865 0
M  V30 3658 O 348.207 -1.93691 -0.177259 0
M  V30 3659 C 348.49 -1.44878 3.2967 0
M  V30 3660 C 348.343 -0.453789 4.47505 0
M  V30 3661 C 349.662 -2.38994 3.69554 0
M  V30 3662 H 346.781 -0.272724 0.684683 0
M  V30 3663 H 349.423 -0.0172113 1.89992 0
M  V30 3664 H 347.573 -2.077 3.28318 0
M  V30 3665 H 349.245 0.170371 4.60985 0
M  V30 3666 H 347.488 0.229552 4.33192 0
M  V30 3667 H 348.159 -0.977699 5.43273 0
M  V30 3668 H 350.635 -1.86239 3.72095 0
M  V30 3669 H 349.511 -2.84587 4.69363 0
M  V30 3670 H 349.772 -3.24461 3.00296 0
M  V30 3671 N 348.832 -1.54138 -0.328536 0
M  V30 3672 C 349.782 -1.79557 -1.4051 0
M  V30 3673 C 350.766 -0.651373 -1.47126 0
M  V30 3674 O 351.958 -0.911226 -1.51742 0
M  V30 3675 C 349.087 -2.02196 -2.77438 0
M  V30 3676 C 348.173 -3.22724 -2.75155 0
M  V30 3677 N 348.564 -4.43881 -2.42494 0
M  V30 3678 C 346.862 -3.24196 -3.06289 0
M  V30 3679 C 347.563 -5.25797 -2.48822 0
M  V30 3680 N 346.539 -4.62862 -2.8506 0
M  V30 3681 H 350.341 -2.70814 -1.1418 0
M  V30 3682 H 347.855 -1.53265 -0.536991 0
M  V30 3683 H 349.852 -2.18546 -3.55026 0
M  V30 3684 H 348.512 -1.12191 -3.04702 0
M  V30 3685 H 349.523 -4.70969 -2.15428 0
M  V30 3686 H 346.2 -2.44208 -3.38627 0
M  V30 3687 H 347.59 -6.32535 -2.26603 0
M  V30 3688 N 350.31 0.590341 -1.46126 0
M  V30 3689 C 351.538 1.37504 -1.54597 0
M  V30 3690 C 351.953 1.87897 -0.184447 0
M  V30 3691 O 351.31 1.63192 0.816984 0
M  V30 3692 C 351.361 2.56779 -2.54454 0
M  V30 3693 O 351.082 2.08476 -3.85317 0
M  V30 3694 C 352.583 3.49427 -2.72792 0
M  V30 3695 H 349.803 0.420325 -0.523037 0
M  V30 3696 H 352.347 0.718383 -1.91467 0
M  V30 3697 H 350.502 3.1845 -2.20609 0
M  V30 3698 H 350.916 2.86097 -4.396 0
M  V30 3699 H 352.39 4.29619 -3.466 0
M  V30 3700 H 352.867 4.00876 -1.79429 0
M  V30 3701 H 353.473 2.93598 -3.07702 0
M  V30 3702 N 351.788 1.33704 0.83433 0
M  V30 3703 C 352.738 1.20899 1.93306 0
M  V30 3704 C 353.722 0.110783 1.60518 0
M  V30 3705 O 354.914 0.339331 1.73717 0
M  V30 3706 C 352.043 0.955018 3.29749 0
M  V30 3707 C 351.129 2.09587 3.68692 0
M  V30 3708 N 351.52 3.34621 3.79292 0
M  V30 3709 C 349.818 2.00358 3.98463 0
M  V30 3710 C 350.519 4.09472 4.13167 0
M  V30 3711 N 349.495 3.37954 4.25779 0
M  V30 3712 H 353.297 2.15665 1.99664 0
M  V30 3713 H 350.811 1.25777 1.02732 0
M  V30 3714 H 352.808 0.844208 4.08263 0
M  V30 3715 H 351.468 0.0159317 3.24696 0
M  V30 3716 H 352.479 3.69313 3.63082 0
M  V30 3717 H 349.156 1.14137 4.01596 0
M  V30 3718 H 350.546 5.17391 4.28668 0
M  V30 3719 N 353.266 -1.05314 1.17247 0
M  V30 3720 C 354.216 -2.11313 0.856196 0
M  V30 3721 C 355.2 -1.60013 -0.168694 0
M  V30 3722 O 356.392 -1.76968 0.0335624 0
M  V30 3723 C 353.521 -3.41301 0.369917 0
M  V30 3724 C 352.607 -3.99401 1.42616 0
M  V30 3725 N 352.998 -4.31481 2.63928 0
M  V30 3726 C 351.296 -4.27126 1.28373 0
M  V30 3727 C 351.997 -4.77799 3.31787 0
M  V30 3728 N 350.973 -4.77843 2.59166 0
M  V30 3729 H 354.775 -2.33976 1.77856 0
M  V30 3730 H 352.289 -1.2295 1.06099 0
M  V30 3731 H 354.286 -4.16713 0.124897 0
M  V30 3732 H 352.946 -3.20072 -0.546253 0
M  V30 3733 H 353.957 -4.21519 3.00902 0
M  V30 3734 H 350.634 -4.15289 0.429111 0
M  V30 3735 H 352.024 -5.11743 4.35395 0
M  V30 3736 N 354.744 -0.972509 -1.24016 0
M  V30 3737 C 355.674 -0.525548 -2.27509 0
M  V30 3738 C 356.655 0.437262 -1.64384 0
M  V30 3739 O 357.84 0.332343 -1.91335 0
M  V30 3740 C 354.97 0.180448 -3.46831 0
M  V30 3741 C 353.924 -0.698859 -4.22256 0
M  V30 3742 C 353.25 0.138903 -5.3452 0
M  V30 3743 C 354.55 -1.98582 -4.83076 0
M  V30 3744 H 356.244 -1.39058 -2.65148 0
M  V30 3745 H 353.79 -0.67009 -1.27459 0
M  V30 3746 H 355.743 0.504387 -4.18371 0
M  V30 3747 H 354.467 1.07987 -3.08231 0
M  V30 3748 H 353.126 -1.00614 -3.52523 0
M  V30 3749 H 352.774 1.03862 -4.9216 0
M  V30 3750 H 352.474 -0.446259 -5.85903 0
M  V30 3751 H 353.998 0.457404 -6.08884 0
M  V30 3752 H 355.412 -1.72715 -5.46665 0
M  V30 3753 H 353.809 -2.5181 -5.44713 0
M  V30 3754 H 354.879 -2.67769 -4.04262 0
M  V30 3755 N 356.222 1.38976 -0.743202 0
M  V30 3756 C 357.47 1.99948 -0.29417 0
M  V30 3757 C 357.791 1.59279 1.12495 0
M  V30 3758 O 357.061 0.844808 1.76748 0
M  V30 3759 H 355.641 0.739473 -0.105774 0
M  V30 3760 H 358.303 1.699 -0.954986 0
M  V30 3761 H 357.399 3.10142 -0.349056 0
M  V30 3762 N 357.7 0.491464 1.49741 0
M  V30 3763 C 358.647 -0.292027 2.28945 0
M  V30 3764 C 359.617 -0.968973 1.34908 0
M  V30 3765 O 360.802 -0.97748 1.6386 0
M  V30 3766 C 357.942 -1.35617 3.17336 0
M  V30 3767 C 357.055 -0.691957 4.26422 0
M  V30 3768 C 356.19 -1.73572 5.02042 0
M  V30 3769 C 355.229 -1.05286 6.02977 0
M  V30 3770 N 354.366 -2.0404 6.71798 0
M  V30 3771 H 359.206 0.389654 2.95442 0
M  V30 3772 H 356.743 0.204003 1.45679 0
M  V30 3773 H 358.701 -1.98502 3.66951 0
M  V30 3774 H 357.331 -2.00674 2.52844 0
M  V30 3775 H 356.383 0.0499523 3.80367 0
M  V30 3776 H 357.695 -0.153946 4.98562 0
M  V30 3777 H 356.849 -2.43987 5.55478 0
M  V30 3778 H 355.588 -2.30757 4.29654 0
M  V30 3779 H 354.593 -0.334446 5.48782 0
M  V30 3780 H 355.818 -0.487636 6.77347 0
M  V30 3781 H 353.764 -2.60205 6.02187 0
M  V30 3782 H 353.681 -1.55279 7.39881 0
M  V30 3783 H 354.949 -2.73772 7.29842 0
M  V30 3784 N 359.178 -1.55987 0.224894 0
M  V30 3785 C 360.424 -1.98684 -0.406502 0
M  V30 3786 C 360.757 -1.11248 -1.59177 0
M  V30 3787 O 360.032 -0.170909 -1.93748 0
M  V30 3788 C 360.315 -3.50218 -0.837808 0
M  V30 3789 C 360.168 -4.48426 0.351332 0
M  V30 3790 C 361.487 -4.06243 -1.69278 0
M  V30 3791 H 358.606 -0.722337 -0.146283 0
M  V30 3792 H 361.248 -1.87255 0.321799 0
M  V30 3793 H 359.398 -3.60089 -1.45837 0
M  V30 3794 H 361.07 -4.50562 0.989526 0
M  V30 3795 H 359.313 -4.22159 0.998207 0
M  V30 3796 H 359.984 -5.52 0.00655905 0
M  V30 3797 H 362.46 -3.99337 -1.16914 0
M  V30 3798 H 361.336 -5.12581 -1.96346 0
M  V30 3799 H 361.597 -3.53332 -2.65723 0
M  V30 3800 N 360.656 0.0484629 -1.57525 0
M  V30 3801 C 361.902 0.744226 -1.88651 0
M  V30 3802 C 362.235 1.76029 -0.820212 0
M  V30 3803 O 361.51 1.93782 0.166985 0
M  V30 3804 C 361.793 1.43128 -3.30434 0
M  V30 3805 C 361.646 0.43005 -4.47739 0
M  V30 3806 C 362.965 2.37031 -3.70816 0
M  V30 3807 H 360.084 0.269089 -0.68612 0
M  V30 3808 H 362.726 0.00713532 -1.89999 0
M  V30 3809 H 360.876 2.05956 -3.29415 0
M  V30 3810 H 362.548 -0.194816 -4.60888 0
M  V30 3811 H 360.791 -0.252522 -4.33064 0
M  V30 3812 H 361.462 0.948874 -5.43783 0
M  V30 3813 H 363.938 1.84263 -3.73077 0
M  V30 3814 H 362.814 2.82094 -4.70865 0
M  V30 3815 H 363.075 3.22864 -3.02012 0
M  V30 3816 N 362.134 1.5431 0.320358 0
M  V30 3817 C 363.359 1.76954 1.08175 0
M  V30 3818 C 363.784 0.518193 1.80821 0
M  V30 3819 O 363.142 -0.530411 1.73368 0
M  V30 3820 C 363.19 2.96451 2.05303 0
M  V30 3821 O 362.294 2.68221 3.13259 0
M  V30 3822 H 361.635 0.586275 0.311733 0
M  V30 3823 H 364.165 2.01342 0.363676 0
M  V30 3824 H 364.175 3.23887 2.48116 0
M  V30 3825 H 362.85 3.87196 1.51829 0
M  V30 3826 H 361.427 2.51744 2.75099 0
M  V30 3827 N 363.613 -0.582584 1.46437 0
M  V30 3828 C 364.861 -1.33814 1.51453 0
M  V30 3829 C 365.182 -1.94277 0.167792 0
M  V30 3830 O 364.452 -1.78566 -0.805677 0
M  V30 3831 H 363.032 -0.496838 0.557818 0
M  V30 3832 H 365.694 -0.682281 1.82568 0
M  V30 3833 H 364.79 -2.14479 2.26728 0
M  V30 3834 N 365.091 -1.34144 -0.827227 0
M  V30 3835 C 366.321 -1.29138 -1.61267 0
M  V30 3836 C 366.729 0.137597 -1.88699 0
M  V30 3837 O 366.072 1.09379 -1.47587 0
M  V30 3838 C 366.134 -2.0097 -2.9808 0
M  V30 3839 C 365.798 -3.50242 -2.93563 0
M  V30 3840 C 366.795 -4.4523 -2.68452 0
M  V30 3841 C 364.48 -3.92592 -3.13331 0
M  V30 3842 C 366.474 -5.80542 -2.63154 0
M  V30 3843 C 364.161 -5.28005 -3.07658 0
M  V30 3844 C 365.159 -6.21792 -2.82602 0
M  V30 3845 O 364.847 -7.54723 -2.76853 0
M  V30 3846 H 364.579 -0.445851 -0.508127 0
M  V30 3847 H 367.133 -1.77263 -1.03763 0
M  V30 3848 H 365.363 -1.47451 -3.57484 0
M  V30 3849 H 367.052 -1.89309 -3.5905 0
M  V30 3850 H 367.818 -4.13832 -2.52919 0
M  V30 3851 H 363.697 -3.19994 -3.31851 0
M  V30 3852 H 367.241 -6.53717 -2.43516 0
M  V30 3853 H 363.138 -5.59023 -3.22743 0
M  V30 3854 H 363.906 -7.64409 -2.92611 0
M  V30 3855 N 366.569 1.04691 -1.17803 0
M  V30 3856 C 367.985 1.29963 -0.926379 0
M  V30 3857 C 368.185 1.97251 0.411635 0
M  V30 3858 O 367.241 2.24922 1.14744 0
M  V30 3859 C 368.554 2.16447 -2.08737 0
M  V30 3860 C 370.102 2.29814 -2.12496 0
M  V30 3861 C 370.577 3.19661 -3.27995 0
M  V30 3862 N 372.068 3.27247 -3.27816 0
M  V30 3863 C 372.803 3.96906 -4.13827 0
M  V30 3864 N 372.299 4.6895 -5.09959 0
M  V30 3865 N 374.092 3.93122 -4.01761 0
M  V30 3866 H 366.243 0.594182 -2.0392 0
M  V30 3867 H 368.506 0.324649 -0.890678 0
M  V30 3868 H 368.212 1.74304 -3.05469 0
M  V30 3869 H 368.086 3.17103 -2.04268 0
M  V30 3870 H 370.473 2.71196 -1.16347 0
M  V30 3871 H 370.554 1.2877 -2.21025 0
M  V30 3872 H 370.198 2.78991 -4.24413 0
M  V30 3873 H 370.128 4.20722 -3.16703 0
M  V30 3874 H 372.619 2.75921 -2.58217 0
M  V30 3875 H 372.932 5.19679 -5.71974 0
M  V30 3876 H 371.277 4.67875 -5.13924 0
M  V30 3877 H 374.468 3.35967 -3.2595 0
M  V30 3878 H 374.641 4.47139 -4.6901 0
M  V30 3879 N 368.047 0.979072 1.23499 0
M  V30 3880 C 369.293 0.648178 1.92163 0
M  V30 3881 C 369.626 -0.816049 1.76222 0
M  V30 3882 O 368.901 -1.58849 1.12237 0
M  V30 3883 C 369.184 1.03773 3.44824 0
M  V30 3884 C 369.037 2.55948 3.69879 0
M  V30 3885 C 370.356 0.580653 4.36253 0
M  V30 3886 H 367.475 0.236952 0.69787 0
M  V30 3887 H 370.117 1.22012 1.45647 0
M  V30 3888 H 368.267 0.551058 3.84572 0
M  V30 3889 H 369.939 3.12179 3.3962 0
M  V30 3890 H 368.182 2.98641 3.14636 0
M  V30 3891 H 368.853 2.78255 4.76737 0
M  V30 3892 H 371.329 0.998465 4.03943 0
M  V30 3893 H 370.205 0.881663 5.41773 0
M  V30 3894 H 370.466 -0.519052 4.39042 0
M  V30 3895 N 369.525 -1.3858 0.750561 0
M  V30 3896 C 370.941 -1.53759 0.427824 0
M  V30 3897 C 371.141 -1.71401 -1.05943 0
M  V30 3898 O 370.197 -1.72331 -1.84549 0
M  V30 3899 C 371.51 -2.74642 1.22443 0
M  V30 3900 C 373.058 -2.88489 1.2142 0
M  V30 3901 C 373.533 -4.12329 1.9937 0
M  V30 3902 N 375.024 -4.194 1.96616 0
M  V30 3903 C 375.759 -5.14209 2.53727 0
M  V30 3904 N 375.255 -6.14709 3.19539 0
M  V30 3905 N 377.048 -5.06537 2.43673 0
M  V30 3906 H 369.199 -1.25377 1.71447 0
M  V30 3907 H 371.462 -0.608844 0.726645 0
M  V30 3908 H 371.168 -2.68 2.27747 0
M  V30 3909 H 371.042 -3.67745 0.839273 0
M  V30 3910 H 373.429 -2.94614 0.169232 0
M  V30 3911 H 373.51 -1.96406 1.63885 0
M  V30 3912 H 373.154 -4.06966 3.03877 0
M  V30 3913 H 373.084 -5.03486 1.54302 0
M  V30 3914 H 375.575 -3.47421 1.48684 0
M  V30 3915 H 375.888 -6.8354 3.60545 0
M  V30 3916 H 374.233 -6.1505 3.23633 0
M  V30 3917 H 377.424 -4.26962 1.91889 0
M  V30 3918 H 377.597 -5.80245 2.88479 0
M  V30 3919 N 371.003 -0.499398 -1.49478 0
M  V30 3920 C 371.951 0.293604 -2.3074 0
M  V30 3921 C 372.945 0.96427 -1.39277 0
M  V30 3922 O 374.151 0.892141 -1.56336 0
M  V30 3923 H 370.526 0.113541 -0.743379 0
M  V30 3924 H 372.497 -0.411772 -2.95545 0
M  V30 3925 C 371.246 1.3462 -3.20582 0
M  V30 3926 H 370.569 0.83954 -3.90886 0
M  V30 3927 H 372.009 1.87308 -3.80384 0
M  V30 3928 C 370.468 2.36351 -2.40083 0
M  V30 3929 O 370.998 3.422 -2.10385 0
M  V30 3930 N 369.204 2.0878 -2.02137 0
M  V30 3931 H 368.751 1.22723 -2.26488 0
M  V30 3932 H 368.709 2.77075 -1.48583 0
M  V30 3933 N 372.481 1.55866 -0.233164 0
M  V30 3934 C 373.729 1.9821 0.394593 0
M  V30 3935 C 374.05 1.12234 1.59463 0
M  V30 3936 O 373.32 0.201981 1.94856 0
M  V30 3937 H 371.9 0.732034 0.148778 0
M  V30 3938 H 374.562 1.92107 -0.32876 0
M  V30 3939 H 373.658 3.03845 0.713063 0
M  V30 3940 N 373.959 -0.0401083 1.57549 0
M  V30 3941 C 374.891 -1.07149 2.02612 0
M  V30 3942 C 375.904 -1.33126 0.937085 0
M  V30 3943 O 377.093 -1.30808 1.21456 0
M  V30 3944 C 374.193 -2.41561 2.37701 0
M  V30 3945 C 373.366 -2.35096 3.68848 0
M  V30 3946 C 372.425 -3.51867 3.91249 0
M  V30 3947 O 371.451 -3.3186 4.62447 0
M  V30 3948 N 372.653 -4.73351 3.36035 0
M  V30 3949 H 375.418 -0.687485 2.91708 0
M  V30 3950 H 372.979 -0.228248 1.60283 0
M  V30 3951 H 374.971 -3.18379 2.49833 0
M  V30 3952 H 373.541 -2.71846 1.54332 0
M  V30 3953 H 372.761 -1.4345 3.67173 0
M  V30 3954 H 374.049 -2.27908 4.54901 0
M  V30 3955 H 373.447 -4.92507 2.78304 0
M  V30 3956 H 372.004 -5.47572 3.53565 0
M  V30 3957 N 375.437 -1.54477 -0.31217 0
M  V30 3958 C 376.683 -1.74417 -1.04644 0
M  V30 3959 C 377.038 -0.517641 -1.85306 0
M  V30 3960 O 376.331 0.489973 -1.85229 0
M  V30 3961 C 376.525 -2.967 -1.99258 0
M  V30 3962 C 376.354 -4.31128 -1.27901 0
M  V30 3963 C 375.124 -4.95087 -1.01079 0
M  V30 3964 C 377.322 -5.09662 -0.689119 0
M  V30 3965 N 375.304 -6.13322 -0.266323 0
M  V30 3966 C 376.675 -6.19952 -0.0768523 0
M  V30 3967 C 378.73 -4.94355 -0.593061 0
M  V30 3968 C 377.433 -7.16604 0.622165 0
M  V30 3969 C 379.459 -5.91328 0.0922792 0
M  V30 3970 C 378.821 -7.00978 0.693443 0
M  V30 3971 H 374.92 -0.69094 -0.366231 0
M  V30 3972 H 377.504 -1.91946 -0.326319 0
M  V30 3973 H 375.675 -2.80616 -2.68532 0
M  V30 3974 H 377.407 -3.05216 -2.65755 0
M  V30 3975 H 374.162 -4.55235 -1.30607 0
M  V30 3976 H 374.586 -6.76937 0.0920973 0
M  V30 3977 H 379.228 -4.09719 -1.04355 0
M  V30 3978 H 376.946 -8.0079 1.08445 0
M  V30 3979 H 380.532 -5.81562 0.166396 0
M  V30 3980 H 379.412 -7.74725 1.21533 0
M  V30 3981 N 376.915 0.57481 -1.46744 0
M  V30 3982 C 378.143 1.35856 -1.56047 0
M  V30 3983 C 378.558 1.87691 -0.204365 0
M  V30 3984 O 377.915 1.64049 0.79963 0
M  V30 3985 C 377.966 2.54066 -2.57163 0
M  V30 3986 O 377.687 2.04377 -3.87507 0
M  V30 3987 C 379.188 3.46514 -2.76483 0
M  V30 3988 H 376.408 0.414754 -0.527466 0
M  V30 3989 H 378.952 0.698035 -1.92218 0
M  V30 3990 H 377.107 3.16092 -2.23974 0
M  V30 3991 H 377.521 2.81419 -4.4261 0
M  V30 3992 H 378.995 4.25919 -3.51137 0
M  V30 3993 H 379.472 3.98951 -1.83671 0
M  V30 3994 H 380.078 2.90318 -3.10799 0
M  V30 3995 N 378.394 1.34581 0.820102 0
M  V30 3996 C 379.324 1.29038 1.94606 0
M  V30 3997 C 380.305 0.1673 1.69275 0
M  V30 3998 O 381.49 0.360112 1.90832 0
M  V30 3999 C 378.62 1.04793 3.31113 0
M  V30 4000 C 377.574 2.13597 3.70891 0
M  V30 4001 C 376.9 1.74537 5.05412 0
M  V30 4002 C 378.2 3.55451 3.8269 0
M  V30 4003 H 379.894 2.23248 1.99501 0
M  V30 4004 H 377.44 1.0747 0.958449 0
M  V30 4005 H 379.393 0.995592 4.0947 0
M  V30 4006 H 378.117 0.0702565 3.26524 0
M  V30 4007 H 376.776 2.17905 2.9481 0
M  V30 4008 H 376.424 0.754226 4.97313 0
M  V30 4009 H 376.124 2.47361 5.32997 0
M  V30 4010 H 377.648 1.70803 5.86224 0
M  V30 4011 H 379.062 3.5354 4.51312 0
M  V30 4012 H 377.459 4.26922 4.21732 0
M  V30 4013 H 378.529 3.92587 2.84611 0
M  V30 4014 N 379.872 -1.04064 1.18357 0
M  V30 4015 C 381.121 -1.76662 0.973313 0
M  V30 4016 C 381.434 -1.89154 -0.497991 0
M  V30 4017 O 382.64 -2.58606 -0.826762 0
M  V30 4018 C 381.096 -3.17624 1.69242 0
M  V30 4019 C 380.704 -3.13225 3.20303 0
M  V30 4020 C 382.448 -3.946 1.56497 0
M  V30 4021 C 380.355 -4.49046 3.84853 0
M  V30 4022 H 379.285 -0.662214 0.36054 0
M  V30 4023 H 381.936 -1.16553 1.41731 0
M  V30 4024 H 380.318 -3.78129 1.1762 0
M  V30 4025 H 381.492 -2.62172 3.78949 0
M  V30 4026 H 379.807 -2.49749 3.33189 0
M  V30 4027 H 382.404 -4.95042 2.02084 0
M  V30 4028 H 382.747 -4.13074 0.517243 0
M  V30 4029 H 383.28 -3.4067 2.05399 0
M  V30 4030 H 380.019 -4.35777 4.89672 0
M  V30 4031 H 379.539 -5.00203 3.30994 0
M  V30 4032 H 381.218 -5.17961 3.87718 0
M  V30 4033 N 381.35 -0.985608 -1.22978 0
M  V30 4034 C 382.598 -0.656087 -1.91154 0
M  V30 4035 C 382.919 0.813561 -1.77218 0
M  V30 4036 O 382.189 1.58244 -1.1548 0
M  V30 4037 H 380.769 -0.239674 -0.707506 0
M  V30 4038 H 383.431 -1.25054 -1.49491 0
M  V30 4039 H 382.527 -0.912253 -2.9847 0
M  V30 4040 N 382.828 1.3818 -0.7579 0
M  V30 4041 C 384.244 1.5353 -0.435972 0
M  V30 4042 C 384.444 1.71961 1.05032 0
M  V30 4043 O 383.5 1.73307 1.83633 0
M  V30 4044 C 384.813 2.73989 -1.23898 0
M  V30 4045 C 386.361 2.87841 -1.22949 0
M  V30 4046 C 386.836 4.11266 -2.01554 0
M  V30 4047 N 388.327 4.18352 -1.98837 0
M  V30 4048 C 389.062 5.12856 -2.5645 0
M  V30 4049 N 388.558 6.13005 -3.22794 0
M  V30 4050 N 390.351 5.05238 -2.46356 0
M  V30 4051 H 382.502 1.24467 -1.7211 0
M  V30 4052 H 384.765 0.604982 -0.729864 0
M  V30 4053 H 384.471 2.66789 -2.29165 0
M  V30 4054 H 384.345 3.67294 -0.858764 0
M  V30 4055 H 386.732 2.9452 -0.184854 0
M  V30 4056 H 386.813 1.95534 -1.64924 0
M  V30 4057 H 386.457 4.05349 -3.06031 0
M  V30 4058 H 386.387 5.02661 -1.5697 0
M  V30 4059 H 388.878 3.46628 -1.50524 0
M  V30 4060 H 389.191 6.81619 -3.64165 0
M  V30 4061 H 387.536 6.13325 -3.2689 0
M  V30 4062 H 390.727 4.25938 -1.9415 0
M  V30 4063 H 390.9 5.78707 -2.91552 0
M  V30 4064 N 384.306 0.507319 1.49211 0
M  V30 4065 C 385.238 -0.304532 2.27168 0
M  V30 4066 C 386.251 -0.924956 1.33972 0
M  V30 4067 O 387.44 -0.807227 1.59205 0
M  V30 4068 C 384.54 -1.44431 3.06583 0
M  V30 4069 C 383.713 -0.930026 4.27398 0
M  V30 4070 C 382.772 -1.94817 4.88807 0
M  V30 4071 O 381.798 -1.51418 5.4869 0
M  V30 4072 N 383 -3.279 4.79022 0
M  V30 4073 H 385.765 0.36395 2.97482 0
M  V30 4074 H 383.326 0.340249 1.58284 0
M  V30 4075 H 385.318 -2.12311 3.44537 0
M  V30 4076 H 383.888 -2.01684 2.38835 0
M  V30 4077 H 383.108 -0.0759244 3.94127 0
M  V30 4078 H 384.396 -0.564932 5.05654 0
M  V30 4079 H 383.794 -3.65843 4.3148 0
M  V30 4080 H 382.351 -3.91476 5.21142 0
M  V30 4081 N 385.784 -1.5574 0.241426 0
M  V30 4082 C 387.009 -2.0366 -0.392111 0
M  V30 4083 C 387.434 -1.11969 -1.51144 0
M  V30 4084 O 386.792 -0.111594 -1.80956 0
M  V30 4085 C 386.84 -3.49638 -0.882371 0
M  V30 4086 O 385.944 -3.6108 -1.99235 0
M  V30 4087 H 385.285 -0.658379 -0.0862122 0
M  V30 4088 H 387.815 -2.01302 0.365881 0
M  V30 4089 H 387.825 -3.90351 -1.18702 0
M  V30 4090 H 386.5 -4.15852 -0.0632361 0
M  V30 4091 H 385.077 -3.32262 -1.69282 0
M  V30 4092 N 387.262 0.0317525 -1.57568 0
M  V30 4093 C 388.673 0.578692 -1.77505 0
M  V30 4094 C 389.024 1.75749 -0.872164 0
M  V30 4095 O 388.149 2.16298 -0.0663106 0
M  V30 4096 C 388.744 1.05658 -3.21904 0
M  V30 4097 C 387.303 1.54906 -3.43047 0
M  V30 4098 C 386.45 0.485939 -2.73009 0
M  V30 4099 H 389.401 -0.194475 -1.57504 0
M  V30 4100 H 389.422 1.92404 -3.28269 0
M  V30 4101 H 388.934 0.198422 -3.87592 0
M  V30 4102 H 387.035 2.42915 -2.82529 0
M  V30 4103 H 387.148 1.59841 -4.5165 0
M  V30 4104 H 385.512 0.940354 -2.36705 0
M  V30 4105 H 386.295 -0.362709 -3.41379 0
M  V30 4106 N 388.74 1.54641 0.303973 0
M  V30 4107 C 389.672 1.81754 1.39636 0
M  V30 4108 C 390.685 0.70035 1.46966 0
M  V30 4109 O 391.874 0.97778 1.49338 0
M  V30 4110 C 388.974 1.93785 2.7803 0
M  V30 4111 C 388.147 3.24156 2.93669 0
M  V30 4112 C 387.206 3.26641 4.12544 0
M  V30 4113 O 386.232 4.00187 4.04771 0
M  V30 4114 N 387.434 2.5182 5.23036 0
M  V30 4115 H 390.199 2.76031 1.16734 0
M  V30 4116 H 387.76 1.54178 0.494033 0
M  V30 4117 H 389.752 1.92852 3.55795 0
M  V30 4118 H 388.322 1.06515 2.93893 0
M  V30 4119 H 387.542 3.37887 2.03042 0
M  V30 4120 H 388.83 4.10195 3.01027 0
M  V30 4121 H 388.228 1.91692 5.32232 0
M  V30 4122 H 386.785 2.56644 5.99147 0
M  V30 4123 N 390.218 -0.567019 1.47046 0
M  V30 4124 C 391.148 -1.68482 1.61667 0
M  V30 4125 C 392.129 -1.6358 0.466418 0
M  V30 4126 O 393.314 -1.81354 0.694574 0
M  V30 4127 C 390.444 -3.07124 1.62148 0
M  V30 4128 C 389.398 -3.26867 2.76301 0
M  V30 4129 C 388.724 -4.66196 2.61849 0
M  V30 4130 C 390.024 -3.13186 4.17986 0
M  V30 4131 H 391.718 -1.56502 2.5524 0
M  V30 4132 H 389.264 -0.751486 1.22836 0
M  V30 4133 H 391.217 -3.8516 1.70968 0
M  V30 4134 H 389.941 -3.2004 0.651287 0
M  V30 4135 H 388.6 -2.51237 2.66975 0
M  V30 4136 H 388.248 -4.75898 1.62879 0
M  V30 4137 H 387.948 -4.80356 3.38425 0
M  V30 4138 H 389.472 -5.46379 2.72584 0
M  V30 4139 H 390.886 -3.81049 4.2834 0
M  V30 4140 H 389.283 -3.3886 4.95272 0
M  V30 4141 H 390.353 -2.10057 4.3704 0
M  V30 4142 N 391.696 -1.35014 -0.812953 0
M  V30 4143 C 393.107 -1.25035 -1.38648 0
M  V30 4144 C 393.458 0.119967 -1.95833 0
M  V30 4145 O 392.583 1.02069 -1.90816 0
M  V30 4146 C 393.178 -2.26394 -2.52054 0
M  V30 4147 C 391.737 -2.20175 -3.05287 0
M  V30 4148 C 390.884 -2.12451 -1.78213 0
M  V30 4149 H 393.835 -1.46235 -0.616516 0
M  V30 4150 H 393.856 -1.88672 -3.30429 0
M  V30 4151 H 393.368 -3.26116 -2.10404 0
M  V30 4152 H 391.469 -1.23841 -3.51417 0
M  V30 4153 H 391.582 -3.11863 -3.63701 0
M  V30 4154 H 389.946 -1.58328 -1.9951 0
M  V30 4155 H 390.729 -3.14024 -1.38723 0
M  V30 4156 N 393.175 1.03435 -1.18907 0
M  V30 4157 C 394.107 2.1165 -0.879595 0
M  V30 4158 C 395.12 1.62316 0.125439 0
M  V30 4159 O 396.309 1.78201 -0.103245 0
M  V30 4160 C 393.409 3.37622 -0.294042 0
M  V30 4161 C 392.582 4.16166 -1.34629 0
M  V30 4162 C 391.641 5.20457 -0.775274 0
M  V30 4163 O 390.667 5.50379 -1.4516 0
M  V30 4164 N 391.869 5.78949 0.424126 0
M  V30 4165 H 394.634 2.38791 -1.81105 0
M  V30 4166 H 392.195 1.19681 -1.09032 0
M  V30 4167 H 394.187 4.04572 0.101679 0
M  V30 4168 H 392.757 3.07873 0.541575 0
M  V30 4169 H 391.977 3.44444 -1.91707 0
M  V30 4170 H 393.265 4.65432 -2.05549 0
M  V30 4171 H 392.663 5.56948 0.991209 0
M  V30 4172 H 391.22 6.47334 0.761691 0
M  V30 4173 N 394.653 0.992116 1.22453 0
M  V30 4174 C 395.616 0.546883 2.2258 0
M  V30 4175 C 396.616 -0.369829 1.56489 0
M  V30 4176 O 397.806 -0.161896 1.73446 0
M  V30 4177 C 394.938 -0.204659 3.40285 0
M  V30 4178 H 396.131 1.43234 2.63484 0
M  V30 4179 H 393.684 0.779239 1.3549 0
M  V30 4180 H 394.419 -1.10614 3.04853 0
M  V30 4181 H 394.204 0.45354 3.89468 0
M  V30 4182 H 395.694 -0.504358 4.14543 0
M  V30 4183 N 396.131 -1.37776 0.765217 0
M  V30 4184 C 397.378 -1.99849 0.326588 0
M  V30 4185 C 397.706 -1.60746 -1.09504 0
M  V30 4186 O 396.961 -0.84202 -1.76659 0
M  V30 4187 C 397.26 -3.5504 0.410053 0
M  V30 4188 C 396.926 -4.13891 1.78899 0
M  V30 4189 C 395.588 -4.29678 2.16635 0
M  V30 4190 C 397.94 -4.46236 2.69301 0
M  V30 4191 C 395.268 -4.7511 3.44221 0
M  V30 4192 C 397.62 -4.93089 3.9629 0
M  V30 4193 C 396.284 -5.07082 4.34078 0
M  V30 4194 H 395.554 -0.7313 0.119507 0
M  V30 4195 H 398.201 -1.64645 0.977968 0
M  V30 4196 H 396.506 -3.90451 -0.324878 0
M  V30 4197 H 398.203 -4.00966 0.0520699 0
M  V30 4198 H 394.793 -4.02026 1.48569 0
M  V30 4199 H 398.977 -4.3363 2.41409 0
M  V30 4200 H 394.233 -4.84129 3.73402 0
M  V30 4201 H 398.407 -5.17084 4.66472 0
M  V30 4202 H 396.034 -5.42046 5.33001 0
M  V30 4203 N 397.609 -0.515225 -1.4894 0
M  V30 4204 C 398.839 0.0205735 -2.0659 0
M  V30 4205 C 399.247 1.30064 -1.37405 0
M  V30 4206 O 398.59 1.78087 -0.450632 0
M  V30 4207 C 398.652 0.330124 -3.57981 0
M  V30 4208 C 398.316 -0.854295 -4.48944 0
M  V30 4209 C 399.313 -1.7487 -4.89609 0
M  V30 4210 C 396.998 -1.05712 -4.9105 0
M  V30 4211 C 398.992 -2.82996 -5.71132 0
M  V30 4212 C 396.679 -2.14154 -5.72347 0
M  V30 4213 C 397.677 -3.0263 -6.12294 0
M  V30 4214 O 397.365 -4.09198 -6.91962 0
M  V30 4215 H 397.097 -0.0236833 -0.675585 0
M  V30 4216 H 399.651 -0.715956 -1.92518 0
M  V30 4217 H 397.881 1.12044 -3.70112 0
M  V30 4218 H 399.57 0.806233 -3.97812 0
M  V30 4219 H 400.336 -1.60388 -4.57712 0
M  V30 4220 H 396.215 -0.377788 -4.59449 0
M  V30 4221 H 399.759 -3.52083 -6.02232 0
M  V30 4222 H 395.656 -2.28626 -6.03656 0
M  V30 4223 H 396.424 -4.06726 -7.10293 0
M  V30 4224 N 399.087 1.5561 -0.249682 0
M  V30 4225 C 400.498 1.84979 0.252949 0
M  V30 4226 C 400.849 1.17153 1.57384 0
M  V30 4227 O 399.974 0.450884 2.11651 0
M  V30 4228 C 400.569 3.35584 0.465732 0
M  V30 4229 C 399.128 3.65169 0.912624 0
M  V30 4230 C 398.275 2.77299 -0.00859085 0
M  V30 4231 H 401.226 1.51513 -0.47217 0
M  V30 4232 H 401.247 3.57313 1.30795 0
M  V30 4233 H 400.759 3.8492 -0.49579 0
M  V30 4234 H 398.86 3.21312 1.88652 0
M  V30 4235 H 398.973 4.72912 0.767559 0
M  V30 4236 H 397.337 2.49678 0.50327 0
M  V30 4237 H 398.12 3.29442 -0.965537 0
M  V30 4238 N 400.565 -0.0233959 1.57583 0
M  V30 4239 C 401.811 -0.714119 1.89811 0
M  V30 4240 C 402.144 -1.74702 0.848113 0
M  V30 4241 O 401.419 -1.94023 -0.136135 0
M  V30 4242 C 401.702 -1.37853 3.32669 0
M  V30 4243 C 401.555 -0.358764 4.48367 0
M  V30 4244 C 402.874 -2.31101 3.7454 0
M  V30 4245 H 399.993 -0.25814 0.690314 0
M  V30 4246 H 402.635 0.0230927 1.89986 0
M  V30 4247 H 400.785 -2.00689 3.3265 0
M  V30 4248 H 402.457 0.268115 4.6052 0
M  V30 4249 H 400.7 0.321387 4.32608 0
M  V30 4250 H 401.371 -0.862242 5.45224 0
M  V30 4251 H 403.847 -1.78304 3.75961 0
M  V30 4252 H 402.723 -2.74567 4.75294 0
M  V30 4253 H 402.984 -3.18018 3.0711 0
M  V30 4254 N 402.043 -1.548 -0.295768 0
M  V30 4255 C 403.291 -1.73985 -1.02828 0
M  V30 4256 C 403.612 -0.531406 -1.87619 0
M  V30 4257 O 402.882 0.454221 -1.90561 0
M  V30 4258 H 401.462 -0.641556 -0.382642 0
M  V30 4259 H 404.124 -1.92163 -0.325489 0
M  V30 4260 H 403.22 -2.63129 -1.67838 0
M  V30 4261 N 403.521 0.559213 -1.47345 0
M  V30 4262 C 404.471 1.66192 -1.5609 0
M  V30 4263 C 405.455 1.55323 -0.419957 0
M  V30 4264 O 406.647 1.63839 -0.669762 0
M  V30 4265 C 403.776 3.0497 -1.57634 0
M  V30 4266 C 402.862 3.2105 -2.77106 0
M  V30 4267 N 403.253 3.07203 -4.01821 0
M  V30 4268 C 401.551 3.52046 -2.73825 0
M  V30 4269 C 402.252 3.25919 -4.81821 0
M  V30 4270 N 401.228 3.52161 -4.14106 0
M  V30 4271 H 405.03 1.54052 -2.5029 0
M  V30 4272 H 402.544 0.763914 -1.43311 0
M  V30 4273 H 404.541 3.84142 -1.61989 0
M  V30 4274 H 403.201 3.18224 -0.645281 0
M  V30 4275 H 404.212 2.84572 -4.32711 0
M  V30 4276 H 400.889 3.71839 -1.89848 0
M  V30 4277 H 402.279 3.20198 -5.90697 0
M  V30 4278 N 404.999 1.35443 0.805782 0
M  V30 4279 C 406.41 1.25768 1.37983 0
M  V30 4280 C 406.761 -0.10958 1.95894 0
M  V30 4281 O 405.886 -1.01056 1.91355 0
M  V30 4282 C 406.481 2.27727 2.5085 0
M  V30 4283 C 405.04 2.2179 3.04115 0
M  V30 4284 C 404.187 2.13393 1.77084 0
M  V30 4285 H 407.138 1.4656 0.608752 0
M  V30 4286 H 407.159 1.90422 3.29424 0
M  V30 4287 H 406.671 3.27227 2.08671 0
M  V30 4288 H 404.772 1.25703 3.50756 0
M  V30 4289 H 404.885 3.13788 3.62042 0
M  V30 4290 H 403.249 1.59384 1.98668 0
M  V30 4291 H 404.032 3.14755 1.37056 0
M  V30 4292 N 406.477 -1.02803 1.19454 0
M  V30 4293 C 407.723 -1.76478 0.999171 0
M  V30 4294 C 408.056 -1.88456 -0.468828 0
M  V30 4295 O 407.331 -1.40198 -1.34814 0
M  V30 4296 C 407.614 -3.19044 1.66981 0
M  V30 4297 C 407.467 -3.14932 3.21151 0
M  V30 4298 C 408.786 -4.17456 1.39349 0
M  V30 4299 H 405.905 -0.640614 0.364393 0
M  V30 4300 H 408.547 -1.20005 1.47305 0
M  V30 4301 H 406.697 -3.67263 1.2669 0
M  V30 4302 H 408.369 -2.74605 3.70661 0
M  V30 4303 H 406.612 -2.52625 3.52652 0
M  V30 4304 H 407.283 -4.1566 3.63223 0
M  V30 4305 H 409.759 -3.77842 1.74283 0
M  V30 4306 H 408.635 -5.154 1.88823 0
M  V30 4307 H 408.896 -4.40949 0.318813 0
M  V30 4308 N 407.956 -0.998596 -1.21925 0
M  V30 4309 C 409.233 -0.593401 -1.86382 0
M  V30 4310 C 409.613 0.92916 -1.89552 0
M  V30 4311 O 408.961 1.81347 -1.39017 0
M  V30 4312 C 409.171 -1.22039 -3.26967 0
M  V30 4313 C 410.519 -1.32449 -4.03413 0
M  V30 4314 O 411.543 -1.17522 -3.36254 0
M  V30 4315 O 410.402 -1.56395 -5.23644 0
M  V30 4316 H 407.496 -0.202385 -0.801854 0
M  V30 4317 H 410.042 -1.09484 -1.29659 0
M  V30 4318 H 408.814 -2.26158 -3.19325 0
M  V30 4319 H 408.437 -0.704906 -3.91301 0
M  V30 4320 N 409.434 1.37368 -0.772513 0
M  V30 4321 C 410.68 1.99969 -0.337681 0
M  V30 4322 C 411.013 1.61184 1.08321 0
M  V30 4323 O 410.288 0.858395 1.74533 0
M  V30 4324 C 410.571 3.56858 -0.482121 0
M  V30 4325 C 410.424 4.0555 -1.94549 0
M  V30 4326 C 411.743 4.39955 0.113143 0
M  V30 4327 H 408.862 0.726464 -0.124171 0
M  V30 4328 H 411.504 1.63034 -0.975699 0
M  V30 4329 H 409.654 3.88452 0.0610361 0
M  V30 4330 H 411.326 3.84518 -2.54841 0
M  V30 4331 H 409.569 3.57715 -2.45403 0
M  V30 4332 H 410.24 5.14587 -1.9976 0
M  V30 4333 H 412.716 4.14623 -0.35031 0
M  V30 4334 H 411.592 5.48897 -0.0180514 0
M  V30 4335 H 411.853 4.25403 1.20354 0
M  V30 4336 N 410.912 0.523116 1.48665 0
M  V30 4337 C 412.137 -0.0117284 2.07397 0
M  V30 4338 C 412.562 -1.28031 1.37803 0
M  V30 4339 O 411.92 -1.75836 0.441762 0
M  V30 4340 C 411.968 -0.225786 3.59892 0
M  V30 4341 O 411.072 -1.29592 3.91509 0
M  V30 4342 H 410.413 0.0360673 0.66302 0
M  V30 4343 H 412.943 0.729066 1.9117 0
M  V30 4344 H 412.953 -0.450552 4.05505 0
M  V30 4345 H 411.628 0.700944 4.09951 0
M  V30 4346 H 410.205 -1.05436 3.57684 0
M  V30 4347 N 412.39 -1.55475 0.257931 0
M  V30 4348 C 413.637 -1.99207 -0.363728 0
M  V30 4349 C 413.965 -1.1462 -1.57139 0
M  V30 4350 O 413.22 -0.199653 -1.94679 0
M  V30 4351 C 413.519 -3.48183 -0.806433 0
M  V30 4352 C 413.185 -4.49936 0.294684 0
M  V30 4353 C 411.847 -4.77481 0.597076 0
M  V30 4354 C 414.199 -5.10769 1.03751 0
M  V30 4355 C 411.527 -5.63132 1.64618 0
M  V30 4356 C 413.879 -5.97558 2.07622 0
M  V30 4357 C 412.543 -6.23432 2.38514 0
M  V30 4358 H 411.813 -0.728949 -0.133097 0
M  V30 4359 H 414.46 -1.8793 0.368059 0
M  V30 4360 H 412.765 -3.56848 -1.61761 0
M  V30 4361 H 414.462 -3.79415 -1.29789 0
M  V30 4362 H 411.052 -4.28572 0.0488649 0
M  V30 4363 H 415.236 -4.89527 0.817149 0
M  V30 4364 H 410.492 -5.8143 1.89074 0
M  V30 4365 H 414.666 -6.43735 2.65666 0
M  V30 4366 H 412.293 -6.89594 3.19943 0
M  V30 4367 N 413.868 0.0150385 -1.57593 0
M  V30 4368 C 415.116 0.701613 -1.8953 0
M  V30 4369 C 415.437 1.75139 -0.857396 0
M  V30 4370 O 414.707 1.95607 0.107194 0
M  V30 4371 H 413.287 0.26213 -0.699498 0
M  V30 4372 H 415.949 -0.0223304 -1.94887 0
M  V30 4373 H 415.045 1.18236 -2.88837 0
M  V30 4374 N 415.346 1.54954 0.287554 0
M  V30 4375 C 416.623 1.65569 1.04146 0
M  V30 4376 C 417.003 0.512672 2.0478 0
M  V30 4377 O 416.351 -0.489038 2.23205 0
M  V30 4378 C 416.561 3.04163 1.71131 0
M  V30 4379 C 417.909 3.61429 2.22832 0
M  V30 4380 O 418.933 3.06702 1.81141 0
M  V30 4381 O 417.792 4.57281 2.9926 0
M  V30 4382 H 414.886 0.671881 0.482188 0
M  V30 4383 H 417.432 1.67297 0.28457 0
M  V30 4384 H 416.204 3.78796 0.981303 0
M  V30 4385 H 415.827 3.06271 2.53543 0
M  V30 4386 N 416.824 -0.551391 1.4764 0
M  V30 4387 C 417.754 -1.66757 1.63445 0
M  V30 4388 C 418.735 -1.63077 0.483742 0
M  V30 4389 O 419.92 -1.80607 0.71377 0
M  V30 4390 C 417.05 -3.05387 1.65396 0
M  V30 4391 C 416.004 -3.23918 2.79752 0
M  V30 4392 C 415.33 -4.63393 2.66779 0
M  V30 4393 C 416.63 -3.08735 4.21284 0
M  V30 4394 H 418.324 -1.53786 2.56886 0
M  V30 4395 H 415.87 -0.738415 1.23626 0
M  V30 4396 H 417.823 -3.83325 1.75043 0
M  V30 4397 H 416.547 -3.19332 0.685195 0
M  V30 4398 H 415.206 -2.48391 2.69625 0
M  V30 4399 H 414.854 -4.74144 1.67918 0
M  V30 4400 H 414.554 -4.7674 3.43501 0
M  V30 4401 H 416.078 -5.43458 2.78364 0
M  V30 4402 H 417.492 -3.76484 4.32357 0
M  V30 4403 H 415.889 -3.33588 4.98838 0
M  V30 4404 H 416.959 -2.0541 4.39243 0
M  V30 4405 N 418.302 -1.35869 -0.798587 0
M  V30 4406 C 419.232 -1.32118 -1.92528 0
M  V30 4407 C 420.213 -0.194209 -1.68988 0
M  V30 4408 O 421.398 -0.390426 -1.90235 0
M  V30 4409 C 418.528 -1.10047 -3.29404 0
M  V30 4410 C 417.482 -2.19471 -3.67446 0
M  V30 4411 C 416.808 -1.82555 -5.02571 0
M  V30 4412 C 418.108 -3.61495 -3.76987 0
M  V30 4413 H 419.802 -2.26394 -1.95924 0
M  V30 4414 H 417.348 -1.08981 -0.94123 0
M  V30 4415 H 419.301 -1.06061 -4.07835 0
M  V30 4416 H 418.025 -0.122195 -3.26371 0
M  V30 4417 H 416.684 -2.22568 -2.91306 0
M  V30 4418 H 416.332 -0.833249 -4.9605 0
M  V30 4419 H 416.032 -2.5581 -5.28995 0
M  V30 4420 H 417.556 -1.80108 -5.83432 0
M  V30 4421 H 418.97 -3.60676 -4.4563 0
M  V30 4422 H 417.367 -4.33577 -4.14887 0
M  V30 4423 H 418.437 -3.97065 -2.78329 0
M  V30 4424 N 419.78 1.02168 -1.19998 0
M  V30 4425 C 420.743 2.08765 -0.94604 0
M  V30 4426 C 421.743 1.60618 0.0763846 0
M  V30 4427 O 422.933 1.73472 -0.159135 0
M  V30 4428 C 420.065 3.38262 -0.423255 0
M  V30 4429 H 421.258 2.32726 -1.89153 0
M  V30 4430 H 418.811 1.1889 -1.01464 0
M  V30 4431 H 419.546 3.19974 0.527938 0
M  V30 4432 H 419.331 3.74532 -1.16053 0
M  V30 4433 H 420.821 4.16759 -0.264911 0
M  V30 4434 N 421.258 1.00505 1.21394 0
M  V30 4435 C 422.221 0.570459 2.21987 0
M  V30 4436 C 423.221 -0.353211 1.56873 0
M  V30 4437 O 424.411 -0.14349 1.73608 0
M  V30 4438 C 421.543 -0.168555 3.40483 0
M  V30 4439 H 422.736 1.46021 2.6195 0
M  V30 4440 H 420.289 0.793565 1.34656 0
M  V30 4441 H 421.024 -1.07374 3.06009 0
M  V30 4442 H 420.809 0.494823 3.88965 0
M  V30 4443 H 422.299 -0.460362 4.15055 0
M  V30 4444 N 422.737 -1.36956 0.779787 0
M  V30 4445 C 424.153 -1.52817 0.460342 0
M  V30 4446 C 424.353 -1.7361 -1.02283 0
M  V30 4447 O 423.409 -1.76207 -1.80852 0
M  V30 4448 C 424.722 -2.71983 1.28241 0
M  V30 4449 C 426.27 -2.85849 1.27512 0
M  V30 4450 C 426.745 -4.08008 2.08072 0
M  V30 4451 N 428.236 -4.15135 2.05467 0
M  V30 4452 C 428.971 -5.08711 2.64577 0
M  V30 4453 N 428.467 -6.07792 3.32506 0
M  V30 4454 N 430.26 -5.01254 2.54363 0
M  V30 4455 H 422.411 -1.21713 1.74068 0
M  V30 4456 H 424.674 -0.593294 0.739396 0
M  V30 4457 H 424.38 -2.63109 2.33381 0
M  V30 4458 H 424.254 -3.65882 0.917088 0
M  V30 4459 H 426.641 -2.94189 0.231686 0
M  V30 4460 H 426.722 -1.92886 1.68014 0
M  V30 4461 H 426.366 -4.00429 3.12441 0
M  V30 4462 H 426.296 -5.001 1.64947 0
M  V30 4463 H 428.787 -3.44189 1.5602 0
M  V30 4464 H 429.1 -6.75739 3.74963 0
M  V30 4465 H 427.445 -6.08047 3.36606 0
M  V30 4466 H 430.636 -4.22795 2.00902 0
M  V30 4467 H 430.809 -5.73995 3.00722 0
M  V30 4468 N 424.215 -0.530993 -1.48385 0
M  V30 4469 C 425.455 0.000718982 -2.044 0
M  V30 4470 C 425.819 1.31485 -1.39913 0
M  V30 4471 O 427.02 1.93265 -1.86821 0
M  V30 4472 C 425.291 0.119177 -3.57201 0
M  V30 4473 S 426.85 0.600806 -4.34667 0
M  V30 4474 H 423.668 -0.0125473 -0.710889 0
M  V30 4475 H 426.27 -0.711783 -1.82082 0
M  V30 4476 H 424.974 -0.842061 -4.01668 0
M  V30 4477 H 424.505 0.856026 -3.83974 0
M  V30 4478 H 426.52 1.86514 -4.59812 0
M  V30 4479 N 425.693 1.55336 -0.266172 0
M  V30 4480 C 426.939 1.99692 0.353681 0
M  V30 4481 C 427.272 1.1543 1.56172 0
M  V30 4482 O 426.547 0.222218 1.93226 0
M  V30 4483 C 426.83 3.52316 0.74466 0
M  V30 4484 C 426.683 4.47337 -0.470101 0
M  V30 4485 C 428.002 4.10588 1.58447 0
M  V30 4486 H 425.121 0.725961 0.12708 0
M  V30 4487 H 427.763 1.86336 -0.371333 0
M  V30 4488 H 425.913 3.63829 1.36239 0
M  V30 4489 H 427.585 4.4778 -1.10864 0
M  V30 4490 H 425.828 4.19364 -1.10978 0
M  V30 4491 H 426.499 5.51788 -0.15291 0
M  V30 4492 H 428.975 4.02297 1.06286 0
M  V30 4493 H 427.851 5.17607 1.82686 0
M  V30 4494 H 428.112 3.60253 2.56262 0
M  V30 4495 N 427.171 -0.0066808 1.57599 0
M  V30 4496 C 428.418 -0.69292 1.90276 0
M  V30 4497 C 428.746 -1.74148 0.866192 0
M  V30 4498 O 428.001 -1.95268 -0.129933 0
M  V30 4499 C 428.3 -1.37939 3.29708 0
M  V30 4500 C 427.966 -0.464679 4.48499 0
M  V30 4501 C 426.628 -0.212809 4.80729 0
M  V30 4502 C 428.98 0.16551 5.20937 0
M  V30 4503 C 426.308 0.677653 5.82773 0
M  V30 4504 C 428.66 1.04381 6.23929 0
M  V30 4505 C 427.324 1.30492 6.54621 0
M  V30 4506 H 426.594 -0.253558 0.696268 0
M  V30 4507 H 429.241 0.0474123 1.91441 0
M  V30 4508 H 427.546 -2.1936 3.24636 0
M  V30 4509 H 429.243 -1.9163 3.52249 0
M  V30 4510 H 425.833 -0.671153 4.23313 0
M  V30 4511 H 430.017 -0.0160756 4.96297 0
M  V30 4512 H 425.273 0.88803 6.04917 0
M  V30 4513 H 429.447 1.53851 6.79193 0
M  V30 4514 H 427.074 1.99662 7.33512 0
M  V30 4515 N 428.649 -1.55105 -0.279332 0
M  V30 4516 C 429.877 -1.7943 -1.03017 0
M  V30 4517 C 430.292 -0.564456 -1.80165 0
M  V30 4518 O 429.649 0.466326 -1.76442 0
M  V30 4519 C 429.7 -3.0155 -1.99374 0
M  V30 4520 O 429.421 -4.19784 -1.25352 0
M  V30 4521 C 430.922 -3.3843 -2.86321 0
M  V30 4522 H 428.142 -0.597882 -0.304594 0
M  V30 4523 H 430.686 -2.02105 -0.312035 0
M  V30 4524 H 428.841 -2.81019 -2.66659 0
M  V30 4525 H 429.255 -4.88781 -1.90246 0
M  V30 4526 H 430.729 -4.27066 -3.49741 0
M  V30 4527 H 431.206 -2.57549 -3.5576 0
M  V30 4528 H 431.812 -3.61197 -2.24536 0
M  V30 4529 N 430.127 0.543554 -1.4793 0
M  V30 4530 C 431.375 1.29752 -1.54948 0
M  V30 4531 C 431.696 1.93764 -0.219242 0
M  V30 4532 O 430.966 1.80639 0.75805 0
M  V30 4533 H 429.546 0.481874 -0.570795 0
M  V30 4534 H 432.208 0.633636 -1.84312 0
M  V30 4535 H 431.304 2.08392 -2.32334 0
M  V30 4536 N 431.605 1.3629 0.791371 0
M  V30 4537 C 432.515 1.32606 1.93527 0
M  V30 4538 C 433.531 0.228541 1.72493 0
M  V30 4539 O 434.707 0.460571 1.96063 0
M  V30 4540 C 431.772 1.11271 3.28359 0
M  V30 4541 C 430.833 2.3048 3.62185 0
M  V30 4542 C 430.066 2.10154 4.90583 0
M  V30 4543 O 430.289 1.07572 5.60165 0
M  V30 4544 O 429.223 2.97884 5.23019 0
M  V30 4545 H 433.049 2.28909 1.99585 0
M  V30 4546 H 430.634 1.16818 0.931344 0
M  V30 4547 H 432.516 1.01283 4.09047 0
M  V30 4548 H 431.191 0.180292 3.23198 0
M  V30 4549 H 430.098 2.46036 2.81811 0
M  V30 4550 H 431.431 3.22221 3.72068 0
M  V30 4551 N 433.083 -1.0153 1.20538 0
M  V30 4552 C 434.331 -1.74803 1.01432 0
M  V30 4553 C 434.652 -1.8963 -0.454456 0
M  V30 4554 O 433.922 -1.43975 -1.32846 0
M  V30 4555 H 432.502 -0.647598 0.372324 0
M  V30 4556 H 435.164 -1.22402 1.5167 0
M  V30 4557 H 434.26 -2.75114 1.47373 0
M  V30 4558 N 434.561 -1.01147 -1.20859 0
M  V30 4559 C 435.977 -0.725422 -1.42161 0
M  V30 4560 C 436.177 0.696919 -1.89064 0
M  V30 4561 O 435.233 1.46539 -2.05627 0
M  V30 4562 C 436.546 -1.74678 -2.44761 0
M  V30 4563 C 438.094 -1.76433 -2.58535 0
M  V30 4564 C 438.569 -2.77481 -3.64374 0
M  V30 4565 N 440.06 -2.76189 -3.71852 0
M  V30 4566 C 440.795 -3.51035 -4.53389 0
M  V30 4567 N 440.291 -4.35541 -5.38773 0
M  V30 4568 N 442.084 -3.39655 -4.47873 0
M  V30 4569 H 434.235 -1.92979 -0.887282 0
M  V30 4570 H 436.498 -0.833327 -0.451962 0
M  V30 4571 H 436.204 -2.76551 -2.17285 0
M  V30 4572 H 436.078 -1.55472 -3.43669 0
M  V30 4573 H 438.465 -0.75248 -2.85345 0
M  V30 4574 H 438.546 -1.99712 -1.5984 0
M  V30 4575 H 438.19 -3.78827 -3.38308 0
M  V30 4576 H 438.12 -2.51466 -4.6268 0
M  V30 4577 H 440.611 -2.14885 -3.10858 0
M  V30 4578 H 440.924 -4.89432 -5.98061 0
M  V30 4579 H 439.269 -4.39621 -5.38292 0
M  V30 4580 H 442.46 -2.73063 -3.80203 0
M  V30 4581 H 442.633 -3.9824 -5.11184 0
M  V30 4582 N 436.039 1.36541 -0.78704 0
M  V30 4583 C 437.267 2.03561 -0.370199 0
M  V30 4584 C 437.682 1.59347 1.01263 0
M  V30 4585 O 437.039 0.781781 1.64907 0
M  V30 4586 C 437.09 3.59033 -0.421614 0
M  V30 4587 O 436.811 4.01634 -1.7499 0
M  V30 4588 C 438.312 4.433 0.00489763 0
M  V30 4589 H 435.532 0.653346 -0.152904 0
M  V30 4590 H 438.076 1.74566 -1.06522 0
M  V30 4591 H 436.231 3.86746 0.224971 0
M  V30 4592 H 436.645 4.96217 -1.69909 0
M  V30 4593 H 438.119 5.51939 -0.0822184 0
M  V30 4594 H 438.596 4.26285 1.05723 0
M  V30 4595 H 439.202 4.20843 -0.614085 0
M  V30 4596 N 437.518 0.538854 1.48102 0
M  V30 4597 C 438.428 -0.222648 2.33541 0
M  V30 4598 C 439.444 -0.930225 1.47047 0
M  V30 4599 O 440.62 -0.903211 1.80011 0
M  V30 4600 C 437.685 -1.25064 3.23357 0
M  V30 4601 C 436.746 -0.552469 4.2573 0
M  V30 4602 C 435.979 -1.53149 5.11254 0
M  V30 4603 O 436.202 -2.76487 4.9891 0
M  V30 4604 O 435.136 -1.06602 5.92385 0
M  V30 4605 H 438.962 0.477707 2.99919 0
M  V30 4606 H 436.547 0.299669 1.46364 0
M  V30 4607 H 438.429 -1.8445 3.78888 0
M  V30 4608 H 437.104 -1.93325 2.59629 0
M  V30 4609 H 436.011 0.082114 3.7401 0
M  V30 4610 H 437.344 0.0883526 4.92121 0
M  V30 4611 N 438.996 -1.55193 0.274407 0
M  V30 4612 C 439.959 -2.212 -0.600279 0
M  V30 4613 C 440.959 -1.18963 -1.08187 0
M  V30 4614 O 442.149 -1.43873 -0.982158 0
M  V30 4615 C 439.281 -2.87739 -1.82809 0
M  V30 4616 H 440.474 -2.9989 -0.0239682 0
M  V30 4617 H 438.027 -1.5628 0.0250192 0
M  V30 4618 H 438.762 -2.13058 -2.44493 0
M  V30 4619 H 438.547 -3.62658 -1.49069 0
M  V30 4620 H 440.037 -3.38171 -2.45011 0
M  V30 4621 N 440.474 -0.00167713 -1.576 0
M  V30 4622 C 441.702 0.693759 -1.94922 0
M  V30 4623 C 442.117 1.67215 -0.876626 0
M  V30 4624 O 441.474 1.81929 0.144279 0
M  V30 4625 C 441.525 1.42416 -3.32265 0
M  V30 4626 O 441.246 0.485014 -4.35407 0
M  V30 4627 C 442.747 2.21395 -3.84056 0
M  V30 4628 H 439.967 0.193118 -0.642609 0
M  V30 4629 H 442.511 -0.0532952 -2.04431 0
M  V30 4630 H 440.666 2.12284 -3.24059 0
M  V30 4631 H 441.08 1.00053 -5.14868 0
M  V30 4632 H 442.554 2.67996 -4.82578 0
M  V30 4633 H 443.031 3.04142 -3.16851 0
M  V30 4634 H 443.637 1.56542 -3.95443 0
M  V30 4635 N 441.952 1.55251 0.271103 0
M  V30 4636 C 442.902 1.84649 1.33749 0
M  V30 4637 C 443.886 0.705529 1.44607 0
M  V30 4638 O 445.078 0.966916 1.48256 0
M  V30 4639 C 442.207 2.12354 2.69742 0
M  V30 4640 C 441.293 3.32714 2.62988 0
M  V30 4641 N 441.684 4.52575 2.25853 0
M  V30 4642 C 439.982 3.35341 2.94045 0
M  V30 4643 C 440.683 5.34669 2.29136 0
M  V30 4644 N 439.659 4.73123 2.67685 0
M  V30 4645 H 443.461 2.74865 1.0405 0
M  V30 4646 H 440.975 1.55152 0.479738 0
M  V30 4647 H 442.972 2.31572 3.4667 0
M  V30 4648 H 441.632 1.23422 3.00328 0
M  V30 4649 H 442.643 4.78639 1.978 0
M  V30 4650 H 439.32 2.56608 3.2933 0
M  V30 4651 H 440.71 6.40509 2.02971 0
M  V30 4652 N 443.43 -0.535701 1.48216 0
M  V30 4653 C 444.679 -1.28828 1.55197 0
M  V30 4654 C 444.992 -1.94263 0.228278 0
M  V30 4655 O 446.198 -2.70927 0.176278 0
M  V30 4656 C 444.654 -2.33727 2.73678 0
M  V30 4657 C 444.262 -1.74386 4.12666 0
M  V30 4658 C 446.006 -3.1003 2.89968 0
M  V30 4659 C 443.913 -2.77192 5.22416 0
M  V30 4660 H 442.843 -0.484484 0.577747 0
M  V30 4661 H 445.494 -0.56646 1.74538 0
M  V30 4662 H 443.876 -3.08919 2.4776 0
M  V30 4663 H 445.05 -1.05421 4.48579 0
M  V30 4664 H 443.365 -1.10595 4.01445 0
M  V30 4665 H 445.962 -3.86842 3.6913 0
M  V30 4666 H 446.305 -3.65542 1.9921 0
M  V30 4667 H 446.838 -2.41952 3.15759 0
M  V30 4668 H 443.577 -2.26507 6.15122 0
M  V30 4669 H 443.097 -3.44502 4.90998 0
M  V30 4670 H 444.776 -3.40285 5.50286 0
M  V30 4671 N 444.908 -1.36708 -0.784132 0
M  V30 4672 C 446.156 -1.30972 -1.53918 0
M  V30 4673 C 446.477 0.109086 -1.94695 0
M  V30 4674 O 445.747 1.05048 -1.65353 0
M  V30 4675 H 444.327 -0.481819 -0.570841 0
M  V30 4676 H 446.989 -1.71063 -0.934002 0
M  V30 4677 H 446.085 -1.94061 -2.44431 0
M  V30 4678 N 446.386 1.0089 -1.21074 0
M  V30 4679 C 447.634 1.74262 -1.02358 0
M  V30 4680 C 447.955 1.89869 0.444393 0
M  V30 4681 O 447.225 1.44677 1.32081 0
M  V30 4682 H 445.805 0.645615 -0.375754 0
M  V30 4683 H 448.467 1.21596 -1.52317 0
M  V30 4684 H 447.563 2.74328 -1.4883 0
M  V30 4685 N 447.864 1.01787 1.20321 0
M  V30 4686 C 449.092 0.727194 1.937 0
M  V30 4687 C 449.507 -0.712305 1.74848 0
M  V30 4688 O 448.864 -1.48327 1.06327 0
M  V30 4689 C 448.915 1.05497 3.45764 0
M  V30 4690 O 448.636 2.43794 3.64 0
M  V30 4691 C 450.137 0.785534 4.36285 0
M  V30 4692 H 447.357 0.266939 0.615617 0
M  V30 4693 H 449.901 1.35939 1.52777 0
M  V30 4694 H 448.056 0.468158 3.84561 0
M  V30 4695 H 448.47 2.55656 4.57974 0
M  V30 4696 H 449.944 1.06495 5.4163 0
M  V30 4697 H 450.421 -0.280273 4.38305 0
M  V30 4698 H 451.027 1.35456 4.03152 0
M  V30 4699 N 449.342 -1.36122 0.79427 0
M  V30 4700 C 450.567 -2.03891 0.379871 0
M  V30 4701 C 450.992 -1.59488 -0.997251 0
M  V30 4702 O 450.35 -0.765652 -1.64339 0
M  V30 4703 C 450.398 -3.57687 0.457442 0
M  V30 4704 O 449.502 -4.08931 -0.5338 0
M  V30 4705 H 448.843 -0.6443 0.160541 0
M  V30 4706 H 451.373 -1.73976 1.07673 0
M  V30 4707 H 451.383 -4.06721 0.322792 0
M  V30 4708 H 450.058 -3.89357 1.46199 0
M  V30 4709 H 448.635 -3.71154 -0.360409 0
M  V30 4710 N 450.82 -0.546701 -1.47814 0
M  V30 4711 C 452.045 -0.021268 -2.07389 0
M  V30 4712 C 452.47 1.25822 -1.39822 0
M  V30 4713 O 451.828 1.75111 -0.46968 0
M  V30 4714 C 451.876 0.168502 -3.60206 0
M  V30 4715 O 450.98 1.23347 -3.93522 0
M  V30 4716 H 450.321 -0.0466108 -0.662362 0
M  V30 4717 H 452.851 -0.759387 -1.89985 0
M  V30 4718 H 452.861 0.385982 -4.0617 0
M  V30 4719 H 451.536 -0.766075 -4.08784 0
M  V30 4720 H 450.113 0.997319 -3.59316 0
M  V30 4721 N 452.299 1.55045 -0.282633 0
M  V30 4722 C 453.576 1.9179 0.384166 0
M  V30 4723 C 453.956 1.20778 1.73136 0
M  V30 4724 O 453.304 0.33719 2.25998 0
M  V30 4725 C 453.514 3.45149 0.517014 0
M  V30 4726 C 454.862 4.17064 0.796427 0
M  V30 4727 O 455.886 3.51084 0.601535 0
M  V30 4728 O 454.745 5.33837 1.16962 0
M  V30 4729 H 451.839 0.799483 0.211558 0
M  V30 4730 H 454.385 1.66474 -0.32934 0
M  V30 4731 H 453.157 3.88922 -0.430772 0
M  V30 4732 H 452.78 3.76443 1.2797 0
M  V30 4733 N 453.777 0.010035 1.57597 0
M  V30 4734 C 454.687 -0.994226 2.12491 0
M  V30 4735 C 455.703 -1.37013 1.07254 0
M  V30 4736 O 456.879 -1.45542 1.3921 0
M  V30 4737 C 453.944 -2.2642 2.62555 0
M  V30 4738 C 453.005 -1.95049 3.82432 0
M  V30 4739 C 452.238 -3.15991 4.30099 0
M  V30 4740 O 452.461 -4.28015 3.7704 0
M  V30 4741 O 451.395 -2.99403 5.22151 0
M  V30 4742 H 455.221 -0.557549 2.98538 0
M  V30 4743 H 452.806 -0.209413 1.47925 0
M  V30 4744 H 454.688 -3.01009 2.9491 0
M  V30 4745 H 453.363 -2.69306 1.796 0
M  V30 4746 H 452.27 -1.17904 3.55034 0
M  V30 4747 H 453.603 -1.56992 4.66491 0
M  V30 4748 N 455.255 -1.55392 -0.262866 0
M  V30 4749 C 456.188 -1.8391 -1.35101 0
M  V30 4750 C 457.166 -0.692901 -1.47097 0
M  V30 4751 O 458.35 -0.936979 -1.63563 0
M  V30 4752 C 455.477 -2.00969 -2.72634 0
M  V30 4753 C 454.523 -3.23559 -2.7787 0
M  V30 4754 S 455.356 -4.80647 -2.3609 0
M  V30 4755 C 456.512 -5.00692 -3.75578 0
M  V30 4756 H 456.745 -2.75918 -1.1071 0
M  V30 4757 H 454.278 -1.47294 -0.463029 0
M  V30 4758 H 456.236 -2.11482 -3.51832 0
M  V30 4759 H 454.897 -1.09832 -2.94272 0
M  V30 4760 H 454.09 -3.32413 -3.78837 0
M  V30 4761 H 453.692 -3.11689 -2.06702 0
M  V30 4762 H 455.984 -4.87055 -4.70939 0
M  V30 4763 H 456.927 -6.02717 -3.71669 0
M  V30 4764 H 457.335 -4.28619 -3.6735 0
M  V30 4765 N 456.733 0.527833 -1.48498 0
M  V30 4766 C 457.973 1.29401 -1.58224 0
M  V30 4767 C 458.337 1.90348 -0.251327 0
M  V30 4768 O 459.538 2.67868 -0.223588 0
M  V30 4769 C 457.809 2.35266 -2.69044 0
M  V30 4770 S 459.368 3.2158 -2.98549 0
M  V30 4771 H 456.186 0.440138 -0.558391 0
M  V30 4772 H 458.788 0.601079 -1.8603 0
M  V30 4773 H 457.492 1.88975 -3.64303 0
M  V30 4774 H 457.023 3.09263 -2.43146 0
M  V30 4775 H 459.038 4.35391 -2.38011 0
M  V30 4776 N 458.211 1.37122 0.776871 0
M  V30 4777 C 459.159 1.32549 1.91138 0
M  V30 4778 C 460.153 0.215119 1.68029 0
M  V30 4779 O 461.359 0.382852 1.75881 0
M  V30 4780 H 457.734 0.412952 0.62847 0
M  V30 4781 H 459.705 2.28332 1.92112 0
M  V30 4782 C 458.454 1.14422 3.28333 0
M  V30 4783 H 457.777 1.99115 3.46689 0
M  V30 4784 H 459.217 1.15272 4.0803 0
M  V30 4785 C 457.676 -0.150434 3.36564 0
M  V30 4786 O 458.206 -1.13584 3.85307 0
M  V30 4787 N 456.412 -0.19939 2.89915 0
M  V30 4788 H 455.959 0.603142 2.5044 0
M  V30 4789 H 455.917 -1.06526 2.95803 0
M  V30 4790 N 459.689 -1.00246 1.21608 0
M  V30 4791 C 460.619 -2.10921 1.00172 0
M  V30 4792 C 461.6 -1.69938 -0.0741587 0
M  V30 4793 O 462.785 -1.94009 0.0861753 0
M  V30 4794 C 459.915 -3.42618 0.568355 0
M  V30 4795 C 458.869 -3.97407 1.58909 0
M  V30 4796 C 458.195 -5.25038 1.01187 0
M  V30 4797 C 459.495 -4.2918 2.97661 0
M  V30 4798 H 461.189 -2.29112 1.92739 0
M  V30 4799 H 458.735 -1.10101 0.928102 0
M  V30 4800 H 460.688 -4.19444 0.405555 0
M  V30 4801 H 459.412 -3.24227 -0.392961 0
M  V30 4802 H 458.071 -3.22703 1.73949 0
M  V30 4803 H 457.719 -5.02982 0.0421965 0
M  V30 4804 H 457.419 -5.62661 1.6937 0
M  V30 4805 H 458.943 -6.04507 0.860448 0
M  V30 4806 H 460.357 -4.96839 2.86049 0
M  V30 4807 H 458.754 -4.77952 3.6288 0
M  V30 4808 H 459.824 -3.3735 3.48315 0
M  V30 4809 N 461.167 -1.02423 -1.1978 0
M  V30 4810 C 462.397 -0.736387 -1.93031 0
M  V30 4811 C 462.805 0.708023 -1.75453 0
M  V30 4812 O 462.148 1.4927 -1.07071 0
M  V30 4813 C 462.21 -1.00194 -3.45255 0
M  V30 4814 C 461.874 -2.43698 -3.86601 0
M  V30 4815 C 462.871 -3.41814 -3.91738 0
M  V30 4816 C 460.556 -2.77975 -4.18372 0
M  V30 4817 C 462.55 -4.72265 -4.28071 0
M  V30 4818 C 460.237 -4.08636 -4.54378 0
M  V30 4819 C 461.235 -5.05592 -4.59201 0
M  V30 4820 O 460.923 -6.33914 -4.94376 0
M  V30 4821 H 460.655 -0.269116 -0.620123 0
M  V30 4822 H 463.209 -1.37043 -1.52998 0
M  V30 4823 H 461.439 -0.310747 -3.85449 0
M  V30 4824 H 463.128 -0.704488 -3.9974 0
M  V30 4825 H 463.894 -3.16671 -3.67348 0
M  V30 4826 H 459.773 -2.0319 -4.13805 0
M  V30 4827 H 463.317 -5.4794 -4.3175 0
M  V30 4828 H 459.214 -4.33556 -4.78226 0
M  V30 4829 H 459.982 -6.38317 -5.12341 0
M  V30 4830 N 462.645 1.35699 -0.801477 0
M  V30 4831 C 463.894 1.98165 -0.375979 0
M  V30 4832 C 464.207 1.64306 1.06127 0
M  V30 4833 O 465.413 2.20097 1.58964 0
M  V30 4834 C 463.869 3.54497 -0.621305 0
M  V30 4835 C 463.477 3.9727 -2.07076 0
M  V30 4836 C 465.221 4.23697 -0.26091 0
M  V30 4837 C 463.128 5.46427 -2.26211 0
M  V30 4838 H 462.058 0.741478 -0.136844 0
M  V30 4839 H 464.709 1.54834 -0.984814 0
M  V30 4840 H 463.091 3.95958 0.0574112 0
M  V30 4841 H 464.265 3.66974 -2.78687 0
M  V30 4842 H 462.58 3.40943 -2.39054 0
M  V30 4843 H 465.177 5.33334 -0.381994 0
M  V30 4844 H 465.52 4.0869 0.792344 0
M  V30 4845 H 466.053 3.87639 -0.893339 0
M  V30 4846 H 462.792 5.66396 -3.29963 0
M  V30 4847 H 462.312 5.78309 -1.59119 0
M  V30 4848 H 463.991 6.12819 -2.07513 0
M  V30 4849 N 464.123 0.554532 1.47522 0
M  V30 4850 C 465.056 -0.242442 2.26908 0
M  V30 4851 C 466.034 -0.922722 1.33883 0
M  V30 4852 O 467.218 -0.942244 1.63261 0
M  V30 4853 C 464.345 -1.34525 3.10839 0
M  V30 4854 C 463.391 -0.773805 4.19422 0
M  V30 4855 S 464.224 0.377525 5.34168 0
M  V30 4856 C 465.38 -0.727164 6.21662 0
M  V30 4857 H 465.613 0.431218 2.94156 0
M  V30 4858 H 463.146 0.3408 1.50592 0
M  V30 4859 H 465.104 -1.97683 3.59766 0
M  V30 4860 H 463.765 -1.99073 2.42958 0
M  V30 4861 H 462.958 -1.60187 4.77866 0
M  V30 4862 H 462.56 -0.218448 3.73361 0
M  V30 4863 H 464.852 -1.61992 6.57849 0
M  V30 4864 H 465.795 -0.180135 7.07871 0
M  V30 4865 H 466.203 -1.01863 5.55233 0
M  V30 4866 N 465.601 -1.54893 0.290851 0
M  V30 4867 C 466.831 -2.04047 -0.323818 0
M  V30 4868 C 467.239 -1.16809 -1.48837 0
M  V30 4869 O 466.582 -0.184145 -1.82775 0
M  V30 4870 C 466.644 -3.49248 -0.852395 0
M  V30 4871 C 466.308 -4.56623 0.185557 0
M  V30 4872 C 467.305 -5.09985 1.01053 0
M  V30 4873 C 464.99 -5.01252 0.324332 0
M  V30 4874 C 466.984 -6.06507 1.96031 0
M  V30 4875 C 464.671 -5.97596 1.27757 0
M  V30 4876 C 465.669 -6.50107 2.09405 0
M  V30 4877 O 465.357 -7.44565 3.03114 0
M  V30 4878 H 465.089 -0.671735 -0.0758129 0
M  V30 4879 H 467.643 -2.00947 0.425393 0
M  V30 4880 H 465.873 -3.49639 -1.65195 0
M  V30 4881 H 467.562 -3.81654 -1.38185 0
M  V30 4882 H 468.328 -4.76307 0.914129 0
M  V30 4883 H 464.207 -4.60015 -0.301213 0
M  V30 4884 H 467.751 -6.47418 2.598 0
M  V30 4885 H 463.648 -6.30691 1.37473 0
M  V30 4886 H 464.416 -7.62334 2.97976 0
M  V30 4887 N 467.08 -0.0183926 -1.57589 0
M  V30 4888 C 468.31 0.67207 -1.95363 0
M  V30 4889 C 468.718 1.66807 -0.892872 0
M  V30 4890 O 468.061 1.83204 0.134958 0
M  V30 4891 C 468.123 1.44397 -3.29226 0
M  V30 4892 C 467.787 0.607511 -4.52944 0
M  V30 4893 C 468.784 -0.112657 -5.19778 0
M  V30 4894 C 466.469 0.548068 -4.99301 0
M  V30 4895 C 468.463 -0.881057 -6.31281 0
M  V30 4896 C 466.15 -0.224044 -6.10689 0
M  V30 4897 C 467.148 -0.937323 -6.76538 0
M  V30 4898 O 466.836 -1.6968 -7.85789 0
M  V30 4899 H 466.568 0.190925 -0.648478 0
M  V30 4900 H 469.122 -0.0711994 -2.05277 0
M  V30 4901 H 467.352 2.23214 -3.15773 0
M  V30 4902 H 469.041 2.02152 -3.51979 0
M  V30 4903 H 469.807 -0.0759998 -4.8494 0
M  V30 4904 H 465.686 1.09281 -4.4786 0
M  V30 4905 H 469.23 -1.43832 -6.82611 0
M  V30 4906 H 465.127 -0.262457 -6.44966 0
M  V30 4907 H 465.895 -1.61544 -8.024 0
M  V30 4908 N 468.558 1.5553 0.254621 0
M  V30 4909 C 469.491 1.84624 1.34124 0
M  V30 4910 C 470.469 0.700693 1.46728 0
M  V30 4911 O 471.653 0.94564 1.63064 0
M  V30 4912 C 468.78 2.02412 2.71564 0
M  V30 4913 C 467.826 3.25028 2.7615 0
M  V30 4914 S 468.659 4.81893 2.33538 0
M  V30 4915 C 469.815 5.02677 3.72917 0
M  V30 4916 H 470.048 2.76501 1.09245 0
M  V30 4917 H 467.581 1.47537 0.455211 0
M  V30 4918 H 469.539 2.13345 3.50705 0
M  V30 4919 H 468.2 1.11391 2.93685 0
M  V30 4920 H 467.393 3.34418 3.77069 0
M  V30 4921 H 466.995 3.12781 2.05046 0
M  V30 4922 H 469.287 4.89546 4.68349 0
M  V30 4923 H 470.23 6.0468 3.68467 0
M  V30 4924 H 470.638 4.30561 3.65072 0
M  V30 4925 N 470.036 -0.519951 1.48776 0
M  V30 4926 C 470.946 -1.65025 1.66745 0
M  V30 4927 C 471.962 -1.6508 0.549954 0
M  V30 4928 O 473.138 -1.83848 0.822295 0
M  V30 4929 C 470.203 -3.0146 1.71238 0
M  V30 4930 C 469.264 -3.12182 2.94688 0
M  V30 4931 C 468.497 -4.42109 2.98958 0
M  V30 4932 O 468.72 -5.29799 2.1135 0
M  V30 4933 O 467.654 -4.57406 3.91233 0
M  V30 4934 H 471.48 -1.52801 2.62461 0
M  V30 4935 H 469.065 -0.694157 1.32294 0
M  V30 4936 H 470.947 -3.82584 1.76657 0
M  V30 4937 H 469.622 -3.13988 0.786975 0
M  V30 4938 H 468.529 -2.30316 2.94797 0
M  V30 4939 H 469.862 -3.04574 3.86646 0
M  V30 4940 N 471.514 -1.37532 -0.769588 0
M  V30 4941 C 472.477 -1.33292 -1.86456 0
M  V30 4942 C 473.477 -0.236537 -1.59051 0
M  V30 4943 O 474.667 -0.492511 -1.67093 0
M  V30 4944 C 471.799 -1.07118 -3.23633 0
M  V30 4945 H 472.992 -2.30692 -1.91628 0
M  V30 4946 H 470.545 -1.22593 -0.969572 0
M  V30 4947 H 471.28 -0.102578 -3.24138 0
M  V30 4948 H 471.065 -1.86479 -3.44917 0
M  V30 4949 H 472.555 -1.06806 -4.03711 0
M  V30 4950 N 472.992 0.995999 -1.22138 0
M  V30 4951 C 473.939 2.08551 -0.988687 0
M  V30 4952 C 474.909 1.65864 0.0885021 0
M  V30 4953 O 476.094 1.90704 -0.0604589 0
M  V30 4954 C 473.234 3.40374 -0.569191 0
M  V30 4955 C 472.347 3.96421 -1.71681 0
M  V30 4956 C 471.482 5.1639 -1.2456 0
M  V30 4957 C 470.521 5.64567 -2.36497 0
M  V30 4958 N 469.658 6.75777 -1.90445 0
M  V30 4959 H 474.498 2.2779 -1.92135 0
M  V30 4960 H 472.035 1.1168 -0.957388 0
M  V30 4961 H 473.993 4.16068 -0.307166 0
M  V30 4962 H 472.623 3.21145 0.326462 0
M  V30 4963 H 471.675 3.17628 -2.09324 0
M  V30 4964 H 472.987 4.2816 -2.55891 0
M  V30 4965 H 472.141 5.99362 -0.940774 0
M  V30 4966 H 470.88 4.86266 -0.373662 0
M  V30 4967 H 469.885 4.80185 -2.67772 0
M  V30 4968 H 471.11 5.96716 -3.24202 0
M  V30 4969 H 469.056 6.47443 -1.05609 0
M  V30 4970 H 468.973 7.06818 -2.68223 0
M  V30 4971 H 470.241 7.62262 -1.63022 0
M  V30 4972 N 474.47 1.03057 1.19235 0
M  V30 4973 C 475.42 0.583386 2.2041 0
M  V30 4974 C 476.404 -0.368776 1.56617 0
M  V30 4975 O 477.596 -0.189471 1.75983 0
M  V30 4976 C 474.725 -0.0626534 3.43243 0
M  V30 4977 C 473.811 0.91205 4.14177 0
M  V30 4978 N 474.202 2.07514 4.61272 0
M  V30 4979 C 472.5 0.735859 4.39888 0
M  V30 4980 C 473.201 2.69003 5.15764 0
M  V30 4981 N 472.177 1.96954 5.06666 0
M  V30 4982 H 475.979 1.46988 2.54503 0
M  V30 4983 H 473.493 0.897785 1.35328 0
M  V30 4984 H 475.49 -0.400653 4.1497 0
M  V30 4985 H 474.15 -0.944813 3.1065 0
M  V30 4986 H 475.161 2.45448 4.56043 0
M  V30 4987 H 471.838 -0.0970656 4.17387 0
M  V30 4988 H 473.228 3.67514 5.6248 0
M  V30 4989 N 475.948 -1.35272 0.808662 0
M  V30 4990 C 476.911 -2.28082 0.226093 0
M  V30 4991 C 477.911 -1.49673 -0.587762 0
M  V30 4992 O 479.101 -1.69404 -0.405943 0
M  V30 4993 C 476.233 -3.33955 -0.684596 0
M  V30 4994 H 477.426 -2.81116 1.04469 0
M  V30 4995 H 474.979 -1.45162 0.579466 0
M  V30 4996 H 475.714 -2.86111 -1.5268 0
M  V30 4997 H 475.499 -3.91965 -0.102699 0
M  V30 4998 H 476.989 -4.03219 -1.08646 0
M  V30 4999 N 477.426 -0.562348 -1.47226 0
M  V30 5000 C 478.672 -0.0402761 -2.0276 0
M  V30 5001 C 479.005 1.30823 -1.43523 0
M  V30 5002 O 478.28 1.85249 -0.592705 0
M  V30 5003 C 478.563 0.047311 -3.60069 0
M  V30 5004 C 478.416 -1.32865 -4.29729 0
M  V30 5005 C 479.735 0.758182 -4.3352 0
M  V30 5006 H 476.854 -0.0161105 -0.736824 0
M  V30 5007 H 479.496 -0.725628 -1.75598 0
M  V30 5008 H 477.646 0.630986 -3.83342 0
M  V30 5009 H 479.318 -1.95593 -4.17781 0
M  V30 5010 H 477.561 -1.90195 -3.89882 0
M  V30 5011 H 478.232 -1.22004 -5.38349 0
M  V30 5012 H 480.708 0.262546 -4.15271 0
M  V30 5013 H 479.584 0.78844 -5.43208 0
M  V30 5014 H 479.845 1.81537 -4.03109 0
M  V30 5015 N 478.904 1.54736 -0.299062 0
M  V30 5016 C 480.129 2.04975 0.316254 0
M  V30 5017 C 480.554 1.17501 1.46885 0
M  V30 5018 O 479.912 0.178678 1.80417 0
M  V30 5019 C 479.96 3.52672 0.751997 0
M  V30 5020 O 479.064 3.68226 1.85697 0
M  V30 5021 H 478.405 0.661126 0.0617175 0
M  V30 5022 H 480.935 1.99805 -0.440341 0
M  V30 5023 H 480.945 3.94488 1.04133 0
M  V30 5024 H 479.62 4.158 -0.0911482 0
M  V30 5025 H 478.197 3.38316 1.56834 0
M  V30 5026 N 480.382 0.0267497 1.57577 0
M  V30 5027 C 481.629 -0.652404 1.91703 0
M  V30 5028 C 481.957 -1.72271 0.902936 0
M  V30 5029 O 481.212 -1.955 -0.0884843 0
M  V30 5030 C 481.511 -1.30914 3.3256 0
M  V30 5031 C 481.177 -0.369441 4.49384 0
M  V30 5032 C 479.839 -0.110791 4.81072 0
M  V30 5033 C 482.191 0.275971 5.20469 0
M  V30 5034 C 479.519 0.801116 5.81205 0
M  V30 5035 C 481.871 1.17592 6.21575 0
M  V30 5036 C 480.535 1.44348 6.51705 0
M  V30 5037 H 479.805 -0.238732 0.70149 0
M  V30 5038 H 482.452 0.0880091 1.91298 0
M  V30 5039 H 480.757 -2.12425 3.29216 0
M  V30 5040 H 482.454 -1.84115 3.56234 0
M  V30 5041 H 479.044 -0.581211 4.24641 0
M  V30 5042 H 483.228 0.0892 4.9622 0
M  V30 5043 H 478.484 1.01614 6.02897 0
M  V30 5044 H 482.658 1.68223 6.75777 0
M  V30 5045 H 480.285 2.15176 7.29111 0
M  V30 5046 N 481.861 -1.55662 -0.24637 0
M  V30 5047 C 482.794 -1.85332 -1.33143 0
M  V30 5048 C 483.772 -0.708464 -1.46354 0
M  V30 5049 O 484.956 -0.954274 -1.6256 0
M  V30 5050 C 482.083 -2.0385 -2.70487 0
M  V30 5051 C 481.129 -3.26488 -2.74423 0
M  V30 5052 S 481.962 -4.83124 -2.30979 0
M  V30 5053 C 483.118 -5.04647 -3.70246 0
M  V30 5054 H 483.351 -2.77077 -1.07777 0
M  V30 5055 H 480.884 -1.47776 -0.44738 0
M  V30 5056 H 482.842 -2.15202 -3.49569 0
M  V30 5057 H 481.503 -1.12947 -2.9309 0
M  V30 5058 H 480.696 -3.36413 -3.7529 0
M  V30 5059 H 480.298 -3.13864 -2.03385 0
M  V30 5060 H 482.59 -4.92023 -4.65746 0
M  V30 5061 H 483.533 -6.06625 -3.65255 0
M  V30 5062 H 483.941 -4.32491 -3.62784 0
M  V30 5063 N 483.339 0.512053 -1.4905 0
M  V30 5064 C 484.567 1.29116 -1.61669 0
M  V30 5065 C 484.982 1.86655 -0.283787 0
M  V30 5066 O 484.339 1.67293 0.729331 0
M  V30 5067 C 484.39 2.4293 -2.67707 0
M  V30 5068 O 484.111 1.87758 -3.95826 0
M  V30 5069 C 485.612 3.34476 -2.90931 0
M  V30 5070 H 482.832 0.392009 -0.544583 0
M  V30 5071 H 485.376 0.615881 -1.95006 0
M  V30 5072 H 483.531 3.06308 -2.37179 0
M  V30 5073 H 483.945 2.62393 -4.54148 0
M  V30 5074 H 485.419 4.10642 -3.68886 0
M  V30 5075 H 485.896 3.90801 -2.00427 0
M  V30 5076 H 486.502 2.76874 -3.22832 0
M  V30 5077 N 484.817 1.37938 0.762283 0
M  V30 5078 C 486.057 1.35076 1.53407 0
M  V30 5079 C 486.421 -0.061546 1.91901 0
M  V30 5080 O 487.622 -0.214973 2.67939 0
M  V30 5081 C 485.893 2.27206 2.75884 0
M  V30 5082 S 487.452 2.42283 3.65848 0
M  V30 5083 H 484.27 0.479387 0.52508 0
M  V30 5084 H 486.872 1.7378 0.895586 0
M  V30 5085 H 485.576 3.28724 2.457 0
M  V30 5086 H 485.107 1.8962 3.44685 0
M  V30 5087 H 487.122 1.64044 4.68299 0
M  V30 5088 N 486.295 -0.989507 1.22664 0
M  V30 5089 C 487.523 -1.76496 1.07967 0
M  V30 5090 C 487.938 -1.85148 -0.369543 0
M  V30 5091 O 487.295 -1.32408 -1.25596 0
M  V30 5092 C 487.346 -3.19642 1.68853 0
M  V30 5093 O 487.067 -3.11453 3.08105 0
M  V30 5094 C 488.568 -4.13621 1.59475 0
M  V30 5095 H 485.788 -0.55418 0.378319 0
M  V30 5096 H 488.332 -1.24378 1.62328 0
M  V30 5097 H 486.487 -3.68816 1.18547 0
M  V30 5098 H 486.901 -4.01499 3.37489 0
M  V30 5099 H 488.375 -5.11801 2.06795 0
M  V30 5100 H 488.852 -4.35718 0.55191 0
M  V30 5101 H 489.458 -3.70346 2.09103 0
M  V30 5102 N 487.773 -1.03688 -1.18687 0
M  V30 5103 C 488.705 -0.582696 -2.21669 0
M  V30 5104 C 489.718 0.345656 -1.59088 0
M  V30 5105 O 490.907 0.140776 -1.77944 0
M  V30 5106 C 488.007 0.169204 -3.38477 0
M  V30 5107 C 487.18 -0.766079 -4.30639 0
M  V30 5108 C 486.239 -0.0581541 -5.26168 0
M  V30 5109 O 485.265 -0.687346 -5.65035 0
M  V30 5110 N 486.467 1.20981 -5.67753 0
M  V30 5111 H 489.232 -1.46843 -2.61261 0
M  V30 5112 H 486.793 -0.916896 -1.33434 0
M  V30 5113 H 488.785 0.652543 -3.99405 0
M  V30 5114 H 487.355 0.956435 -2.97609 0
M  V30 5115 H 486.575 -1.42935 -3.67373 0
M  V30 5116 H 487.863 -1.40146 -4.89118 0
M  V30 5117 H 487.261 1.74159 -5.38224 0
M  V30 5118 H 485.818 1.6375 -6.30896 0
M  V30 5119 N 489.251 1.34841 -0.815825 0
M  V30 5120 C 490.199 2.31549 -0.220888 0
M  V30 5121 C 491.193 1.5707 0.634457 0
M  V30 5122 O 492.399 1.72125 0.526589 0
M  V30 5123 H 488.774 0.750153 -0.0526782 0
M  V30 5124 H 490.745 2.7926 -1.05149 0
M  V30 5125 C 489.494 3.42335 0.608427 0
M  V30 5126 H 488.817 3.9978 -0.0404121 0
M  V30 5127 H 490.257 4.12258 0.990931 0
M  V30 5128 C 488.716 2.86173 1.77782 0
M  V30 5129 O 489.246 2.80474 2.87571 0
M  V30 5130 N 487.452 2.43093 1.59229 0
M  V30 5131 H 486.999 2.47928 0.699237 0
M  V30 5132 H 486.957 2.05866 2.37627 0
M  V30 5133 N 490.729 0.570148 1.46925 0
M  V30 5134 C 491.975 0.0510284 2.02736 0
M  V30 5135 C 492.308 -1.3006 1.44215 0
M  V30 5136 O 491.583 -1.84932 0.602521 0
M  V30 5137 C 491.866 -0.028215 3.60089 0
M  V30 5138 C 491.719 1.35142 4.29018 0
M  V30 5139 C 493.038 -0.735181 4.33916 0
M  V30 5140 H 490.157 0.0200178 0.736728 0
M  V30 5141 H 492.799 0.73493 1.75211 0
M  V30 5142 H 490.949 -0.610648 3.83671 0
M  V30 5143 H 492.621 1.97806 4.16738 0
M  V30 5144 H 490.864 1.9226 3.88868 0
M  V30 5145 H 491.535 1.24857 5.37694 0
M  V30 5146 H 494.011 -0.240519 4.15404 0
M  V30 5147 H 492.887 -0.759622 5.43618 0
M  V30 5148 H 493.148 -1.79397 4.04066 0
M  V30 5149 N 492.207 -1.54576 0.307264 0
M  V30 5150 C 493.17 -2.22423 -0.553224 0
M  V30 5151 C 494.17 -1.21231 -1.05639 0
M  V30 5152 O 495.36 -1.45923 -0.951419 0
M  V30 5153 C 492.492 -2.91552 -1.76664 0
M  V30 5154 H 493.685 -2.99874 0.0396484 0
M  V30 5155 H 491.238 -1.56192 0.0581629 0
M  V30 5156 H 491.973 -2.18196 -2.39918 0
M  V30 5157 H 491.758 -3.65738 -1.41343 0
M  V30 5158 H 493.248 -3.43292 -2.37783 0
M  V30 5159 N 493.685 -0.035106 -1.57561 0
M  V30 5160 C 495.096 0.502885 -1.798 0
M  V30 5161 C 495.447 1.71892 -0.945921 0
M  V30 5162 O 494.572 2.15822 -0.157991 0
M  V30 5163 C 495.167 0.919097 -3.26095 0
M  V30 5164 C 493.726 1.40216 -3.49308 0
M  V30 5165 C 492.873 0.369709 -2.74824 0
M  V30 5166 H 495.824 -0.261102 -1.56537 0
M  V30 5167 H 495.845 1.78308 -3.36135 0
M  V30 5168 H 495.357 0.0338526 -3.88085 0
M  V30 5169 H 493.458 2.30714 -2.92578 0
M  V30 5170 H 493.571 1.40541 -4.58023 0
M  V30 5171 H 491.935 0.839113 -2.40481 0
M  V30 5172 H 492.718 -0.507173 -3.39533 0
M  V30 5173 N 495.163 1.55791 0.238111 0
M  V30 5174 C 496.44 1.68798 0.98826 0
M  V30 5175 C 496.82 0.577562 2.03045 0
M  V30 5176 O 496.168 -0.41778 2.24648 0
M  V30 5177 C 496.378 3.09454 1.61367 0
M  V30 5178 C 497.726 3.68335 2.11221 0
M  V30 5179 O 498.75 3.1231 1.71292 0
M  V30 5180 O 497.609 4.6657 2.84561 0
M  V30 5181 H 494.703 0.686881 0.460568 0
M  V30 5182 H 497.249 1.68118 0.231202 0
M  V30 5183 H 496.021 3.81726 0.860295 0
M  V30 5184 H 495.644 3.14182 2.4367 0
M  V30 5185 N 496.642 -0.504142 1.49319 0
M  V30 5186 C 497.575 -1.62361 1.60356 0
M  V30 5187 C 498.553 -1.56169 0.45277 0
M  V30 5188 O 499.737 -1.76271 0.667892 0
M  V30 5189 C 496.864 -3.00864 1.55559 0
M  V30 5190 C 495.91 -3.25328 2.75797 0
M  V30 5191 S 496.743 -3.08791 4.37503 0
M  V30 5192 C 497.899 -4.49695 4.35345 0
M  V30 5193 H 498.132 -1.52753 2.55056 0
M  V30 5194 H 495.665 -0.689065 1.38171 0
M  V30 5195 H 497.623 -3.8073 1.53477 0
M  V30 5196 H 496.284 -3.0789 0.621515 0
M  V30 5197 H 495.477 -4.2643 2.68651 0
M  V30 5198 H 495.079 -2.53179 2.75275 0
M  V30 5199 H 497.371 -5.41721 4.06871 0
M  V30 5200 H 498.314 -4.61891 5.36714 0
M  V30 5201 H 498.722 -4.30227 3.65465 0
M  V30 5202 N 498.12 -1.38341 -0.754957 0
M  V30 5203 C 499.367 -1.34473 -1.51404 0
M  V30 5204 C 499.695 0.0656458 -1.94389 0
M  V30 5205 O 498.95 1.04244 -1.65625 0
M  V30 5206 C 499.249 -2.2452 -2.78075 0
M  V30 5207 C 498.915 -3.72512 -2.54059 0
M  V30 5208 C 497.577 -4.1284 -2.47218 0
M  V30 5209 C 499.929 -4.66197 -2.33044 0
M  V30 5210 C 497.257 -5.44945 -2.17376 0
M  V30 5211 C 499.609 -5.98558 -2.04723 0
M  V30 5212 C 498.273 -6.37972 -1.96337 0
M  V30 5213 H 497.543 -0.492072 -0.554027 0
M  V30 5214 H 500.19 -1.70687 -0.868223 0
M  V30 5215 H 498.495 -1.81357 -3.473 0
M  V30 5216 H 500.192 -2.18832 -3.36026 0
M  V30 5217 H 496.782 -3.40538 -2.60253 0
M  V30 5218 H 500.966 -4.35888 -2.37309 0
M  V30 5219 H 496.222 -5.74426 -2.09391 0
M  V30 5220 H 500.396 -6.70693 -1.87465 0
M  V30 5221 H 498.023 -7.40258 -1.72978 0
M  V30 5222 N 499.598 0.982988 -1.23187 0
M  V30 5223 C 501.014 1.2487 -0.993967 0
M  V30 5224 C 501.214 1.99155 0.306498 0
M  V30 5225 O 500.27 2.30688 1.0266 0
M  V30 5226 C 501.583 2.05078 -2.19917 0
M  V30 5227 C 503.131 2.18227 -2.2438 0
M  V30 5228 C 503.606 3.01825 -3.44479 0
M  V30 5229 N 505.097 3.09411 -3.44702 0
M  V30 5230 C 505.832 3.74412 -4.34285 0
M  V30 5231 N 505.328 4.41259 -5.341 0
M  V30 5232 N 507.121 3.71273 -4.22035 0
M  V30 5233 H 499.272 0.485253 -2.06783 0
M  V30 5234 H 501.535 0.276979 -0.906635 0
M  V30 5235 H 501.241 1.57867 -3.14279 0
M  V30 5236 H 501.115 3.05829 -2.2079 0
M  V30 5237 H 503.502 2.64648 -1.30559 0
M  V30 5238 H 503.583 1.16873 -2.2754 0
M  V30 5239 H 503.227 2.56102 -4.38605 0
M  V30 5240 H 503.157 4.03342 -3.38559 0
M  V30 5241 H 505.648 2.61845 -2.7248 0
M  V30 5242 H 505.961 4.88629 -5.98717 0
M  V30 5243 H 504.306 4.39975 -5.38002 0
M  V30 5244 H 507.497 3.18217 -3.43301 0
M  V30 5245 H 507.67 4.21649 -4.92053 0
M  V30 5246 N 501.076 1.04316 1.18135 0
M  V30 5247 C 502.304 0.768117 1.92113 0
M  V30 5248 C 502.719 -0.675057 1.76319 0
M  V30 5249 O 502.076 -1.46038 1.09449 0
M  V30 5250 C 502.127 1.12808 3.43448 0
M  V30 5251 O 501.848 2.5146 3.58747 0
M  V30 5252 C 503.349 0.8779 4.3452 0
M  V30 5253 H 500.569 0.279937 0.609817 0
M  V30 5254 H 503.113 1.39149 1.49859 0
M  V30 5255 H 501.268 0.549623 3.83481 0
M  V30 5256 H 501.682 2.65313 4.52448 0
M  V30 5257 H 503.156 1.17959 5.39249 0
M  V30 5258 H 503.633 -0.187239 4.38801 0
M  V30 5259 H 504.239 1.43977 4.00188 0
M  V30 5260 N 502.554 -1.34406 0.822964 0
M  V30 5261 C 503.803 -1.97542 0.407458 0
M  V30 5262 C 504.116 -1.65973 -1.035 0
M  V30 5263 O 505.322 -2.22598 -1.55442 0
M  V30 5264 C 503.778 -3.53463 0.677623 0
M  V30 5265 C 503.386 -3.93925 2.1337 0
M  V30 5266 C 505.13 -4.23229 0.328284 0
M  V30 5267 C 503.037 -5.42759 2.34876 0
M  V30 5268 H 501.967 -0.739207 0.148623 0
M  V30 5269 H 504.618 -1.53248 1.00932 0
M  V30 5270 H 503 -3.96 0.00558965 0
M  V30 5271 H 504.174 -3.62494 2.8449 0
M  V30 5272 H 502.489 -3.37097 2.44448 0
M  V30 5273 H 505.086 -5.32659 0.466794 0
M  V30 5274 H 505.429 -4.09899 -0.727224 0
M  V30 5275 H 505.962 -3.86169 0.954896 0
M  V30 5276 H 502.701 -5.61075 3.38932 0
M  V30 5277 H 502.221 -5.75704 1.68299 0
M  V30 5278 H 503.9 -6.0944 2.17236 0
M  V30 5279 N 504.032 -0.577932 -1.46621 0
M  V30 5280 C 505.443 -0.150071 -1.86096 0
M  V30 5281 C 505.794 1.28563 -1.48209 0
M  V30 5282 O 504.919 1.97036 -0.894754 0
M  V30 5283 C 505.514 -0.265576 -3.37758 0
M  V30 5284 C 504.073 0.10738 -3.76247 0
M  V30 5285 C 503.22 -0.603711 -2.70649 0
M  V30 5286 H 506.171 -0.786438 -1.37844 0
M  V30 5287 H 506.192 0.510352 -3.77062 0
M  V30 5288 H 505.704 -1.3106 -3.65301 0
M  V30 5289 H 503.805 1.15272 -3.54321 0
M  V30 5290 H 503.918 -0.26561 -4.78363 0
M  V30 5291 H 502.282 -0.0444884 -2.54661 0
M  V30 5292 H 503.065 -1.65029 -3.01032 0
M  V30 5293 N 505.51 1.54411 -0.315457 0
M  V30 5294 C 506.921 1.85885 0.174265 0
M  V30 5295 C 507.272 1.23723 1.52273 0
M  V30 5296 O 506.397 0.540246 2.09548 0
M  V30 5297 C 506.992 3.37257 0.322981 0
M  V30 5298 C 505.551 3.68711 0.756922 0
M  V30 5299 C 504.698 2.77013 -0.126195 0
M  V30 5300 H 507.649 1.49374 -0.536007 0
M  V30 5301 H 507.67 3.62539 1.15522 0
M  V30 5302 H 507.182 3.82471 -0.658602 0
M  V30 5303 H 505.283 3.29024 1.74854 0
M  V30 5304 H 505.396 4.75741 0.566291 0
M  V30 5305 H 503.76 2.51588 0.39692 0
M  V30 5306 H 504.543 3.25051 -1.1044 0
M  V30 5307 N 506.988 0.0434614 1.5754 0
M  V30 5308 C 507.898 -0.94893 2.14552 0
M  V30 5309 C 508.914 -1.34707 1.10136 0
M  V30 5310 O 510.09 -1.42557 1.42266 0
M  V30 5311 C 507.155 -2.208 2.67298 0
M  V30 5312 C 506.216 -1.86893 3.86484 0
M  V30 5313 C 505.449 -3.06797 4.36705 0
M  V30 5314 O 505.672 -4.19921 3.86034 0
M  V30 5315 O 504.606 -2.8826 5.28384 0
M  V30 5316 H 508.432 -0.494099 2.99654 0
M  V30 5317 H 506.017 -0.177989 1.48336 0
M  V30 5318 H 507.899 -2.94686 3.01228 0
M  V30 5319 H 506.574 -2.65436 1.85272 0
M  V30 5320 H 505.481 -1.10347 3.57455 0
M  V30 5321 H 506.814 -1.47062 4.69716 0
M  V30 5322 N 508.466 -1.55915 -0.229846 0
M  V30 5323 C 509.429 -1.90914 -1.26824 0
M  V30 5324 C 510.429 -0.786999 -1.40225 0
M  V30 5325 O 511.619 -1.05484 -1.38632 0
M  V30 5326 C 508.751 -2.15264 -2.64337 0
M  V30 5327 H 509.944 -2.8378 -0.969998 0
M  V30 5328 H 507.497 -1.49069 -0.4699 0
M  V30 5329 H 508.232 -1.24923 -2.99274 0
M  V30 5330 H 508.017 -2.97005 -2.55989 0
M  V30 5331 H 509.507 -2.43467 -3.39284 0
M  V30 5332 N 509.944 0.496216 -1.49584 0
M  V30 5333 C 510.892 1.61805 -1.67098 0
M  V30 5334 C 511.886 1.60667 -0.536877 0
M  V30 5335 O 513.092 1.65118 -0.716654 0
M  V30 5336 H 509.467 0.53646 -0.526986 0
M  V30 5337 H 511.438 1.44187 -2.61252 0
M  V30 5338 C 510.187 2.99912 -1.75921 0
M  V30 5339 H 509.51 3.01496 -2.62565 0
M  V30 5340 H 510.95 3.77931 -1.92209 0
M  V30 5341 C 509.409 3.33092 -0.505088 0
M  V30 5342 O 509.939 4.00019 0.367085 0
M  V30 5343 N 508.145 2.88278 -0.366599 0
M  V30 5344 H 507.692 2.33989 -1.07735 0
M  V30 5345 H 507.65 3.10846 0.47142 0
M  V30 5346 N 511.423 1.38739 0.74761 0
M  V30 5347 C 512.672 1.3459 1.50228 0
M  V30 5348 C 512.985 -0.0595592 1.95509 0
M  V30 5349 O 514.191 -0.22361 2.70578 0
M  V30 5350 C 512.647 2.36377 2.71393 0
M  V30 5351 C 512.255 3.82573 2.33113 0
M  V30 5352 C 513.999 2.41281 3.49262 0
M  V30 5353 C 511.906 4.76032 3.50924 0
M  V30 5354 H 510.836 0.500312 0.564096 0
M  V30 5355 H 513.487 1.64324 0.8167 0
M  V30 5356 H 511.869 1.99694 3.41962 0
M  V30 5357 H 513.043 4.28227 1.70171 0
M  V30 5358 H 511.358 3.80844 1.68365 0
M  V30 5359 H 513.955 3.08301 4.36869 0
M  V30 5360 H 514.298 1.43353 3.9084 0
M  V30 5361 H 514.831 2.76793 2.85711 0
M  V30 5362 H 511.57 5.75177 3.14408 0
M  V30 5363 H 511.09 4.35066 4.12889 0
M  V30 5364 H 512.769 4.94331 4.17427 0
M  V30 5365 N 512.901 -0.976442 1.23707 0
M  V30 5366 C 514.312 -1.53284 1.06587 0
M  V30 5367 C 514.663 -1.92765 -0.365526 0
M  V30 5368 O 513.788 -1.7645 -1.25277 0
M  V30 5369 C 514.383 -2.78548 1.92864 0
M  V30 5370 C 512.942 -3.30574 1.79994 0
M  V30 5371 C 512.089 -2.03538 1.88328 0
M  V30 5372 H 515.04 -0.795692 1.37311 0
M  V30 5373 H 515.061 -3.5155 1.45577 0
M  V30 5374 H 514.573 -2.49782 2.97037 0
M  V30 5375 H 512.674 -3.64211 0.786202 0
M  V30 5376 H 512.787 -4.00065 2.636 0
M  V30 5377 H 511.151 -2.17853 1.31954 0
M  V30 5378 H 511.934 -1.77149 2.94063 0
M  V30 5379 N 514.379 -1.04941 -1.1758 0
M  V30 5380 C 515.628 -0.753124 -1.87112 0
M  V30 5381 C 515.941 0.722507 -1.81767 0
M  V30 5382 O 517.147 1.13265 -2.46746 0
M  V30 5383 C 515.603 -1.29695 -3.35719 0
M  V30 5384 C 515.211 -2.80184 -3.49572 0
M  V30 5385 C 516.955 -1.07759 -4.10595 0
M  V30 5386 C 514.862 -3.2788 -4.92187 0
M  V30 5387 H 513.792 -0.278034 -0.700866 0
M  V30 5388 H 516.443 -1.26637 -1.32798 0
M  V30 5389 H 514.825 -0.711522 -3.89555 0
M  V30 5390 H 515.999 -3.44561 -3.05965 0
M  V30 5391 H 514.314 -3.00632 -2.88113 0
M  V30 5392 H 516.911 -1.40899 -5.15802 0
M  V30 5393 H 517.254 -0.0152302 -4.16297 0
M  V30 5394 H 517.787 -1.62809 -3.62957 0
M  V30 5395 H 514.526 -4.33535 -4.91658 0
M  V30 5396 H 514.046 -2.68245 -5.36475 0
M  V30 5397 H 515.725 -3.22412 -5.60945 0
M  V30 5398 N 515.857 1.33968 -0.830081 0
M  V30 5399 C 517.268 1.80439 -0.479455 0
M  V30 5400 C 517.619 1.68756 1.00079 0
M  V30 5401 O 516.744 1.23171 1.77927 0
M  V30 5402 C 517.339 3.27611 -0.863505 0
M  V30 5403 C 515.898 3.72133 -0.565145 0
M  V30 5404 C 515.045 2.55549 -1.07657 0
M  V30 5405 H 517.996 1.21614 -1.0196 0
M  V30 5406 H 518.017 3.8012 -0.170083 0
M  V30 5407 H 517.529 3.36082 -1.94089 0
M  V30 5408 H 515.63 3.69196 0.502536 0
M  V30 5409 H 515.743 4.65963 -1.11422 0
M  V30 5410 H 514.107 2.49788 -0.497807 0
M  V30 5411 H 514.89 2.66786 -2.16055 0
M  V30 5412 N 517.335 0.585699 1.46312 0
M  V30 5413 C 518.581 0.0725284 2.0267 0
M  V30 5414 C 518.914 -1.28523 1.45586 0
M  V30 5415 O 518.189 -1.84283 0.622101 0
M  V30 5416 C 518.472 0.0099788 3.60099 0
M  V30 5417 C 518.325 1.39685 4.27561 0
M  V30 5418 C 519.644 -0.689117 4.34671 0
M  V30 5419 H 516.763 0.0278307 0.736474 0
M  V30 5420 H 519.405 0.753472 1.74421 0
M  V30 5421 H 517.555 -0.56992 3.84297 0
M  V30 5422 H 519.227 2.02215 4.14617 0
M  V30 5423 H 517.47 1.96374 3.86807 0
M  V30 5424 H 518.141 1.30553 5.36339 0
M  V30 5425 H 520.617 -0.196446 4.15636 0
M  V30 5426 H 519.493 -0.701921 5.44393 0
M  V30 5427 H 519.754 -1.75101 4.05946 0
M  V30 5428 N 518.813 -1.54241 0.323641 0
M  V30 5429 C 519.76 -2.24339 -0.542277 0
M  V30 5430 C 520.73 -1.23421 -1.11159 0
M  V30 5431 O 521.915 -1.52104 -1.15192 0
M  V30 5432 C 519.055 -3.00479 -1.69725 0
M  V30 5433 C 518.168 -4.16214 -1.15716 0
M  V30 5434 C 517.303 -4.79884 -2.27783 0
M  V30 5435 C 516.342 -5.87722 -1.71023 0
M  V30 5436 N 515.479 -6.45254 -2.76752 0
M  V30 5437 H 520.319 -2.97935 0.0620613 0
M  V30 5438 H 517.856 -1.47039 0.0423993 0
M  V30 5439 H 519.814 -3.42869 -2.3769 0
M  V30 5440 H 518.444 -2.29217 -2.27288 0
M  V30 5441 H 517.496 -3.78605 -0.369063 0
M  V30 5442 H 518.808 -4.93838 -0.701832 0
M  V30 5443 H 517.962 -5.25243 -3.03651 0
M  V30 5444 H 516.701 -4.01641 -2.76652 0
M  V30 5445 H 515.706 -5.41765 -0.936518 0
M  V30 5446 H 516.931 -6.67863 -1.2303 0
M  V30 5447 H 514.877 -5.69884 -3.24912 0
M  V30 5448 H 514.794 -7.18292 -2.35782 0
M  V30 5449 H 516.062 -6.95269 -3.5245 0
M  V30 5450 N 520.291 -0.0518155 -1.57515 0
M  V30 5451 C 521.516 0.634896 -1.97443 0
M  V30 5452 C 521.941 1.63546 -0.929207 0
M  V30 5453 O 521.299 1.80981 0.107484 0
M  V30 5454 C 521.347 1.29765 -3.36442 0
M  V30 5455 O 520.451 2.41333 -3.34413 0
M  V30 5456 H 519.792 0.164994 -0.643174 0
M  V30 5457 H 522.322 -0.120407 -2.04245 0
M  V30 5458 H 522.332 1.64918 -3.73184 0
M  V30 5459 H 521.007 0.564361 -4.12053 0
M  V30 5460 H 519.584 2.08122 -3.09418 0
M  V30 5461 N 521.769 1.56035 0.221574 0
M  V30 5462 C 523.046 1.69837 0.970301 0
M  V30 5463 C 523.426 0.599065 2.02421 0
M  V30 5464 O 522.774 -0.393929 2.25079 0
M  V30 5465 C 522.984 3.11148 1.58076 0
M  V30 5466 C 524.332 3.70555 2.07302 0
M  V30 5467 O 525.356 3.14109 1.6797 0
M  V30 5468 O 524.215 4.69562 2.79596 0
M  V30 5469 H 521.309 0.691727 0.453257 0
M  V30 5470 H 523.855 1.68353 0.213358 0
M  V30 5471 H 522.627 3.82617 0.819759 0
M  V30 5472 H 522.25 3.16749 2.40324 0
M  V30 5473 N 523.247 -0.488276 1.49845 0
M  V30 5474 C 524.18 -1.60651 1.62069 0
M  V30 5475 C 525.158 -1.5568 0.469308 0
M  V30 5476 O 526.342 -1.75553 0.686551 0
M  V30 5477 C 523.469 -2.99197 1.58741 0
M  V30 5478 C 522.515 -3.22385 2.79232 0
M  V30 5479 S 523.348 -3.04133 4.40753 0
M  V30 5480 C 524.504 -4.45052 4.4009 0
M  V30 5481 H 524.737 -1.50039 2.56662 0
M  V30 5482 H 522.27 -0.674371 1.38894 0
M  V30 5483 H 524.228 -3.79081 1.57506 0
M  V30 5484 H 522.889 -3.07213 0.654136 0
M  V30 5485 H 522.082 -4.23557 2.73159 0
M  V30 5486 H 521.684 -2.50245 2.77945 0
M  V30 5487 H 523.976 -5.37375 4.12594 0
M  V30 5488 H 524.919 -4.56172 5.41583 0
M  V30 5489 H 525.327 -4.26327 3.70008 0
M  V30 5490 N 524.725 -1.39134 -0.740242 0
M  V30 5491 C 525.971 -1.36273 -1.50192 0
M  V30 5492 C 526.304 0.0430136 -1.94152 0
M  V30 5493 O 525.579 1.00691 -1.66408 0
M  V30 5494 C 525.862 -2.33041 -2.74525 0
M  V30 5495 C 525.715 -3.82535 -2.36617 0
M  V30 5496 C 527.034 -2.27723 -3.76604 0
M  V30 5497 H 524.153 -0.496323 -0.544823 0
M  V30 5498 H 526.795 -1.70085 -0.846815 0
M  V30 5499 H 524.945 -2.04337 -3.30422 0
M  V30 5500 H 526.617 -4.21967 -1.86391 0
M  V30 5501 H 524.86 -3.99565 -1.68909 0
M  V30 5502 H 525.531 -4.45723 -3.2563 0
M  V30 5503 H 528.007 -2.53091 -3.30279 0
M  V30 5504 H 526.883 -2.97519 -4.61274 0
M  V30 5505 H 527.144 -1.28049 -4.2315 0
M  V30 5506 N 526.204 0.969867 -1.24223 0
M  V30 5507 C 527.137 2.06279 -0.975926 0
M  V30 5508 C 528.115 1.62353 0.0895385 0
M  V30 5509 O 529.299 1.88442 -0.0469418 0
M  V30 5510 C 526.426 3.35391 -0.472315 0
M  V30 5511 C 525.472 3.98266 -1.526 0
M  V30 5512 S 526.305 4.36172 -3.10667 0
M  V30 5513 C 527.461 5.68423 -2.62003 0
M  V30 5514 H 527.694 2.28551 -1.90137 0
M  V30 5515 H 525.227 1.10748 -1.07584 0
M  V30 5516 H 527.185 4.10068 -0.188376 0
M  V30 5517 H 525.846 3.1111 0.432378 0
M  V30 5518 H 525.039 4.91307 -1.12399 0
M  V30 5519 H 524.641 3.30009 -1.75983 0
M  V30 5520 H 526.933 6.45842 -2.0468 0
M  V30 5521 H 527.876 6.13478 -3.53625 0
M  V30 5522 H 528.284 5.26928 -2.02502 0
M  V30 5523 N 527.682 1.05563 1.17022 0
M  V30 5524 C 528.615 0.604197 2.20056 0
M  V30 5525 C 529.593 -0.369169 1.58354 0
M  V30 5526 O 530.777 -0.279898 1.8641 0
M  V30 5527 C 527.904 -0.115265 3.38504 0
M  V30 5528 C 526.95 0.813698 4.18666 0
M  V30 5529 S 527.783 2.30492 4.83357 0
M  V30 5530 C 528.939 1.59674 6.0519 0
M  V30 5531 H 529.172 1.47713 2.58008 0
M  V30 5532 H 526.705 0.867932 1.27696 0
M  V30 5533 H 528.663 -0.524162 4.0714 0
M  V30 5534 H 527.324 -0.964284 2.98932 0
M  V30 5535 H 526.517 0.256736 5.03346 0
M  V30 5536 H 526.119 1.16213 3.55486 0
M  V30 5537 H 528.411 0.898164 6.7152 0
M  V30 5538 H 529.354 2.42115 6.65422 0
M  V30 5539 H 529.762 1.08252 5.54023 0
M  V30 5540 N 529.16 -1.33526 0.837174 0
M  V30 5541 C 530.11 -2.2672 0.241269 0
M  V30 5542 C 531.094 -1.49183 -0.602756 0
M  V30 5543 O 532.286 -1.71052 -0.455002 0
M  V30 5544 C 529.415 -3.38294 -0.584125 0
M  V30 5545 C 528.501 -4.23231 0.271315 0
M  V30 5546 N 528.892 -4.87473 1.34922 0
M  V30 5547 C 527.19 -4.45962 0.0580589 0
M  V30 5548 C 527.891 -5.50685 1.87405 0
M  V30 5549 N 526.867 -5.30732 1.17578 0
M  V30 5550 H 530.669 -2.73903 1.06558 0
M  V30 5551 H 528.183 -1.47411 0.68145 0
M  V30 5552 H 530.18 -4.04044 -1.02731 0
M  V30 5553 H 528.84 -2.9266 -1.40643 0
M  V30 5554 H 529.851 -4.88077 1.7321 0
M  V30 5555 H 526.528 -4.11052 -0.730938 0
M  V30 5556 H 527.918 -6.11845 2.77661 0
M  V30 5557 N 530.638 -0.59345 -1.46 0
M  V30 5558 C 531.548 0.135817 -2.34207 0
M  V30 5559 C 532.564 0.875008 -1.50398 0
M  V30 5560 O 533.74 0.835778 -1.83239 0
M  V30 5561 C 530.805 1.12977 -3.27776 0
M  V30 5562 C 529.866 0.394081 -4.27487 0
M  V30 5563 C 529.099 1.34068 -5.16586 0
M  V30 5564 O 529.322 2.5778 -5.08828 0
M  V30 5565 O 528.256 0.845426 -5.95933 0
M  V30 5566 H 532.082 -0.588691 -2.9794 0
M  V30 5567 H 529.667 -0.353784 -1.45151 0
M  V30 5568 H 531.549 1.70261 -3.85473 0
M  V30 5569 H 530.224 1.83556 -2.66625 0
M  V30 5570 H 529.131 -0.220869 -3.73447 0
M  V30 5571 H 530.464 -0.270939 -4.91454 0
M  V30 5572 N 532.116 1.54067 -0.331816 0
M  V30 5573 C 533.066 2.21363 0.546101 0
M  V30 5574 C 534.05 1.19698 1.07523 0
M  V30 5575 O 535.242 1.45293 1.01088 0
M  V30 5576 C 532.371 2.98115 1.70242 0
M  V30 5577 C 531.457 4.07127 1.18779 0
M  V30 5578 N 531.848 5.04267 0.393465 0
M  V30 5579 C 530.146 4.21226 1.46576 0
M  V30 5580 C 530.847 5.81585 0.115572 0
M  V30 5581 N 529.823 5.39022 0.703987 0
M  V30 5582 H 533.625 2.93821 -0.0679751 0
M  V30 5583 H 531.139 1.61812 -0.138085 0
M  V30 5584 H 533.136 3.44818 2.34321 0
M  V30 5585 H 531.796 2.27181 2.31989 0
M  V30 5586 H 532.807 5.17888 0.0355757 0
M  V30 5587 H 529.484 3.61509 2.08848 0
M  V30 5588 H 530.874 6.6985 -0.524426 0
M  V30 5589 N 533.594 0.0601682 1.57485 0
M  V30 5590 C 534.544 -0.920969 2.08572 0
M  V30 5591 C 535.528 -1.26617 0.992827 0
M  V30 5592 O 536.72 -1.24708 1.25606 0
M  V30 5593 C 533.849 -2.19267 2.64153 0
M  V30 5594 C 532.935 -1.87447 3.80427 0
M  V30 5595 N 533.326 -1.26025 4.89848 0
M  V30 5596 C 531.624 -2.17265 3.89502 0
M  V30 5597 C 532.325 -1.12036 5.70809 0
M  V30 5598 N 531.301 -1.62624 5.18705 0
M  V30 5599 H 535.103 -0.441561 2.90564 0
M  V30 5600 H 532.617 -0.144043 1.6176 0
M  V30 5601 H 534.614 -2.90462 2.99061 0
M  V30 5602 H 533.274 -2.67806 1.83603 0
M  V30 5603 H 534.285 -0.931336 5.09457 0
M  V30 5604 H 530.962 -2.68262 3.19909 0
M  V30 5605 H 532.352 -0.642783 6.68818 0
M  V30 5606 N 535.072 -1.5615 -0.213296 0
M  V30 5607 C 536.019 -1.93086 -1.26437 0
M  V30 5608 C 536.989 -0.789086 -1.4616 0
M  V30 5609 O 538.174 -1.04569 -1.59593 0
M  V30 5610 C 535.314 -2.26003 -2.608 0
M  V30 5611 C 534.427 -3.53156 -2.48807 0
M  V30 5612 C 533.562 -3.7548 -3.7575 0
M  V30 5613 C 532.601 -4.96119 -3.58514 0
M  V30 5614 N 531.738 -5.14791 -4.77425 0
M  V30 5615 H 536.578 -2.82707 -0.942376 0
M  V30 5616 H 534.115 -1.39919 -0.454001 0
M  V30 5617 H 536.073 -2.431 -3.39055 0
M  V30 5618 H 534.703 -1.39546 -2.91079 0
M  V30 5619 H 533.755 -3.44207 -1.61944 0
M  V30 5620 H 535.067 -4.41565 -2.31996 0
M  V30 5621 H 534.221 -3.92718 -4.62447 0
M  V30 5622 H 532.96 -2.85368 -3.95495 0
M  V30 5623 H 531.965 -4.78823 -2.70201 0
M  V30 5624 H 533.19 -5.87724 -3.40231 0
M  V30 5625 H 531.136 -4.27623 -4.97468 0
M  V30 5626 H 531.053 -5.97347 -4.63371 0
M  V30 5627 H 532.321 -5.36471 -5.65525 0
M  V30 5628 N 536.55 0.480323 -1.50102 0
M  V30 5629 C 537.46 1.60547 -1.71061 0
M  V30 5630 C 538.476 1.63564 -0.593529 0
M  V30 5631 O 539.652 1.81604 -0.870751 0
M  V30 5632 C 536.717 2.96814 -1.79171 0
M  V30 5633 C 535.778 3.04259 -3.02861 0
M  V30 5634 C 535.011 4.34027 -3.10574 0
M  V30 5635 O 535.234 5.24009 -2.25323 0
M  V30 5636 O 534.168 4.46873 -4.03223 0
M  V30 5637 H 537.994 1.45788 -2.6642 0
M  V30 5638 H 535.579 0.658838 -1.34088 0
M  V30 5639 H 537.461 3.77765 -1.86738 0
M  V30 5640 H 536.136 3.11791 -0.869947 0
M  V30 5641 H 535.043 2.22419 -3.008 0
M  V30 5642 H 536.376 2.94216 -3.94586 0
M  V30 5643 N 538.028 1.39524 0.732853 0
M  V30 5644 C 539.256 1.40143 1.52209 0
M  V30 5645 C 539.671 -0.00348836 1.888 0
M  V30 5646 O 539.028 -0.975357 1.5425 0
M  V30 5647 C 539.079 2.27632 2.8083 0
M  V30 5648 O 538.8 3.62654 2.45792 0
M  V30 5649 C 540.301 2.36658 3.74844 0
M  V30 5650 H 537.521 0.478604 0.470297 0
M  V30 5651 H 540.065 1.83366 0.905388 0
M  V30 5652 H 538.22 1.87818 3.38826 0
M  V30 5653 H 538.634 4.08941 3.28431 0
M  V30 5654 H 540.108 3.02118 4.61984 0
M  V30 5655 H 540.585 1.38638 4.16745 0
M  V30 5656 H 541.191 2.76951 3.22766 0
M  V30 5657 N 539.506 -0.963266 1.24736 0
M  V30 5658 C 540.416 -2.09246 1.06082 0
M  V30 5659 C 541.432 -1.74 0.000363101 0
M  V30 5660 O 542.608 -2.0041 0.199479 0
M  V30 5661 C 539.673 -3.40115 0.672498 0
M  V30 5662 C 538.734 -3.89282 1.80993 0
M  V30 5663 C 537.967 -5.13905 1.44004 0
M  V30 5664 O 538.19 -5.69434 0.331835 0
M  V30 5665 O 537.124 -5.57566 2.26723 0
M  V30 5666 H 540.95 -2.27881 2.00759 0
M  V30 5667 H 538.535 -1.07649 1.03595 0
M  V30 5668 H 540.417 -4.18797 0.467668 0
M  V30 5669 H 539.092 -3.22771 -0.245102 0
M  V30 5670 H 537.999 -3.11642 2.06955 0
M  V30 5671 H 539.332 -4.1111 2.70646 0
M  V30 5672 N 540.985 -1.06182 -1.16461 0
M  V30 5673 C 542.215 -0.797425 -1.9059 0
M  V30 5674 C 542.623 0.651845 -1.77616 0
M  V30 5675 O 541.966 1.45788 -1.11766 0
M  V30 5676 C 542.028 -1.11128 -3.41893 0
M  V30 5677 C 541.692 -2.55874 -3.78652 0
M  V30 5678 C 542.689 -3.54104 -3.80665 0
M  V30 5679 C 540.374 -2.91144 -4.09317 0
M  V30 5680 C 542.368 -4.85645 -4.12829 0
M  V30 5681 C 540.055 -4.22885 -4.41148 0
M  V30 5682 C 541.053 -5.19945 -4.42883 0
M  V30 5683 O 540.741 -6.49322 -4.73959 0
M  V30 5684 H 540.473 -0.288709 -0.611247 0
M  V30 5685 H 543.027 -1.41841 -1.4856 0
M  V30 5686 H 541.257 -0.433217 -3.84266 0
M  V30 5687 H 542.946 -0.831306 -3.97296 0
M  V30 5688 H 543.712 -3.28197 -3.57088 0
M  V30 5689 H 539.591 -2.16252 -4.07131 0
M  V30 5690 H 543.135 -5.61398 -4.14099 0
M  V30 5691 H 539.032 -4.48551 -4.6419 0
M  V30 5692 H 539.8 -6.54294 -4.91774 0
M  V30 5693 N 542.463 1.3308 -0.844243 0
M  V30 5694 C 543.41 2.29104 -0.279323 0
M  V30 5695 C 544.38 1.54577 0.607882 0
M  V30 5696 O 545.565 1.8285 0.545009 0
M  V30 5697 C 542.705 3.40927 0.53508 0
M  V30 5698 C 541.818 4.30354 -0.376749 0
M  V30 5699 C 540.953 5.29297 0.449276 0
M  V30 5700 C 539.992 6.10365 -0.460606 0
M  V30 5701 N 539.129 7.01335 0.327612 0
M  V30 5702 H 543.969 2.76817 -1.10346 0
M  V30 5703 H 541.506 1.36203 -0.555611 0
M  V30 5704 H 543.464 4.04469 1.02278 0
M  V30 5705 H 542.094 2.94391 1.32414 0
M  V30 5706 H 541.146 3.67485 -0.982791 0
M  V30 5707 H 542.458 4.87067 -1.07549 0
M  V30 5708 H 541.612 5.98392 1.00058 0
M  V30 5709 H 540.351 4.73174 1.18143 0
M  V30 5710 H 539.356 5.40182 -1.02388 0
M  V30 5711 H 540.581 6.68571 -1.1912 0
M  V30 5712 H 538.527 6.47655 1.04305 0
M  V30 5713 H 538.444 7.55355 -0.3123 0
M  V30 5714 H 539.712 7.74731 0.86098 0
M  V30 5715 N 543.941 0.601185 1.45683 0
M  V30 5716 C 545.218 0.0261659 1.95582 0
M  V30 5717 C 545.598 -1.4399 1.5437 0
M  V30 5718 O 544.946 -2.13919 0.80318 0
M  V30 5719 C 545.156 0.217557 3.48321 0
M  V30 5720 C 546.504 0.0950076 4.24494 0
M  V30 5721 O 547.528 0.147345 3.55895 0
M  V30 5722 O 546.387 -0.025261 5.46494 0
M  V30 5723 H 543.481 -0.0393688 0.826062 0
M  V30 5724 H 546.027 0.670798 1.55879 0
M  V30 5725 H 544.799 1.23601 3.71266 0
M  V30 5726 H 544.422 -0.46264 3.94899 0
M  V30 5727 N 545.419 -1.53889 0.339982 0
M  V30 5728 C 546.366 -2.24902 -0.518452 0
M  V30 5729 C 547.336 -1.24593 -1.09844 0
M  V30 5730 O 548.521 -1.53317 -1.13572 0
M  V30 5731 C 545.661 -3.02262 -1.66529 0
M  V30 5732 C 544.774 -4.17418 -1.11295 0
M  V30 5733 C 543.909 -4.82273 -2.2268 0
M  V30 5734 C 542.948 -5.89503 -1.6478 0
M  V30 5735 N 542.085 -6.48153 -2.69893 0
M  V30 5736 H 546.925 -2.97853 0.0936579 0
M  V30 5737 H 544.462 -1.46986 0.0579924 0
M  V30 5738 H 546.42 -3.45371 -2.3404 0
M  V30 5739 H 545.05 -2.31614 -2.24844 0
M  V30 5740 H 544.102 -3.78976 -0.328886 0
M  V30 5741 H 545.414 -4.94554 -0.649414 0
M  V30 5742 H 544.568 -5.28435 -2.98063 0
M  V30 5743 H 543.307 -4.04552 -2.72376 0
M  V30 5744 H 542.312 -5.42728 -0.879004 0
M  V30 5745 H 543.537 -6.6913 -1.1594 0
M  V30 5746 H 541.483 -5.73298 -3.1885 0
M  V30 5747 H 541.4 -7.20752 -2.28151 0
M  V30 5748 H 542.668 -6.98968 -3.45056 0
M  V30 5749 N 546.897 -0.0685191 -1.57451 0
M  V30 5750 C 548.146 0.600898 -1.92541 0
M  V30 5751 C 548.459 1.70967 -0.950239 0
M  V30 5752 O 549.665 2.43844 -1.19384 0
M  V30 5753 C 548.121 1.12019 -3.42023 0
M  V30 5754 C 547.729 0.0426028 -4.4798 0
M  V30 5755 C 549.473 1.76386 -3.86119 0
M  V30 5756 C 547.38 0.575759 -5.88591 0
M  V30 5757 H 546.31 0.228225 -0.71863 0
M  V30 5758 H 548.961 -0.140223 -1.82963 0
M  V30 5759 H 547.343 1.91418 -3.46663 0
M  V30 5760 H 548.517 -0.73182 -4.54952 0
M  V30 5761 H 546.832 -0.504642 -4.13331 0
M  V30 5762 H 549.429 2.17302 -4.88553 0
M  V30 5763 H 549.772 2.62255 -3.23308 0
M  V30 5764 H 550.305 1.03615 -3.84069 0
M  V30 5765 H 547.044 -0.245691 -6.55039 0
M  V30 5766 H 546.564 1.31778 -5.85145 0
M  V30 5767 H 548.243 1.0532 -6.3837 0
M  V30 5768 N 548.375 1.56261 0.205012 0
M  V30 5769 C 549.786 1.70056 0.770574 0
M  V30 5770 C 550.137 0.673398 1.84282 0
M  V30 5771 O 549.262 -0.172196 2.15714 0
M  V30 5772 C 549.857 3.08316 1.40451 0
M  V30 5773 C 548.416 3.2391 1.91727 0
M  V30 5774 C 547.563 2.66001 0.783516 0
M  V30 5775 H 550.514 1.58688 -0.019911 0
M  V30 5776 H 550.535 3.05094 2.27371 0
M  V30 5777 H 550.047 3.83053 0.623882 0
M  V30 5778 H 548.148 2.54072 2.7254 0
M  V30 5779 H 548.261 4.3131 2.08588 0
M  V30 5780 H 546.625 2.24915 1.19521 0
M  V30 5781 H 547.408 3.43297 0.0152883 0
M  V30 5782 N 549.853 -0.472356 1.50355 0
M  V30 5783 C 550.783 -1.57859 1.72055 0
M  V30 5784 C 551.764 -1.60283 0.569505 0
M  V30 5785 O 552.949 -1.7657 0.808503 0
M  V30 5786 C 550.079 -2.96191 1.81351 0
M  V30 5787 C 549.033 -3.08633 2.96529 0
M  V30 5788 C 548.359 -4.486 2.90968 0
M  V30 5789 C 549.659 -2.85969 4.37057 0
M  V30 5790 H 551.353 -1.39953 2.64676 0
M  V30 5791 H 548.899 -0.671846 1.27367 0
M  V30 5792 H 550.852 -3.73507 1.95117 0
M  V30 5793 H 549.576 -3.15251 0.853502 0
M  V30 5794 H 548.235 -2.33749 2.82413 0
M  V30 5795 H 547.883 -4.64577 1.92815 0
M  V30 5796 H 547.583 -4.57861 3.68289 0
M  V30 5797 H 549.107 -5.27938 3.0678 0
M  V30 5798 H 550.521 -3.53036 4.51706 0
M  V30 5799 H 548.918 -3.06677 5.15819 0
M  V30 5800 H 549.988 -1.81838 4.49514 0
M  V30 5801 N 551.331 -1.39911 -0.725443 0
M  V30 5802 C 552.261 -1.42138 -1.85254 0
M  V30 5803 C 553.242 -0.283513 -1.67721 0
M  V30 5804 O 554.427 -0.490717 -1.87898 0
M  V30 5805 C 551.557 -1.27354 -3.23107 0
M  V30 5806 C 550.511 -2.3864 -3.55296 0
M  V30 5807 C 549.837 -2.08939 -4.92188 0
M  V30 5808 C 551.137 -3.8097 -3.57295 0
M  V30 5809 H 552.831 -2.36461 -1.83648 0
M  V30 5810 H 550.377 -1.13817 -0.882138 0
M  V30 5811 H 552.33 -1.2753 -4.01639 0
M  V30 5812 H 551.054 -0.295025 -3.25265 0
M  V30 5813 H 549.713 -2.37696 -2.79099 0
M  V30 5814 H 549.361 -1.09502 -4.90936 0
M  V30 5815 H 549.061 -2.83491 -5.14691 0
M  V30 5816 H 550.585 -2.10781 -5.73065 0
M  V30 5817 H 551.999 -3.8379 -4.25885 0
M  V30 5818 H 550.396 -4.5496 -3.9132 0
M  V30 5819 H 551.466 -4.11261 -2.5689 0
M  V30 5820 N 552.809 0.956637 -1.25245 0
M  V30 5821 C 553.741 2.05628 -1.01242 0
M  V30 5822 C 554.754 1.62785 0.0219579 0
M  V30 5823 O 555.943 1.77184 -0.216365 0
M  V30 5824 C 553.043 3.35069 -0.508161 0
M  V30 5825 C 552.216 4.06761 -1.60823 0
M  V30 5826 C 551.275 5.14473 -1.1047 0
M  V30 5827 O 550.301 5.40033 -1.79868 0
M  V30 5828 N 551.503 5.80474 0.0550773 0
M  V30 5829 H 554.268 2.2679 -1.95925 0
M  V30 5830 H 551.829 1.12505 -1.16423 0
M  V30 5831 H 553.821 4.044 -0.155819 0
M  V30 5832 H 552.391 3.10694 0.344683 0
M  V30 5833 H 551.611 3.31555 -2.13224 0
M  V30 5834 H 552.899 4.51418 -2.34733 0
M  V30 5835 H 552.297 5.62125 0.635004 0
M  V30 5836 H 550.854 6.50868 0.348469 0
M  V30 5837 N 554.287 1.06798 1.15896 0
M  V30 5838 C 555.219 0.641263 2.20046 0
M  V30 5839 C 556.232 -0.303355 1.59949 0
M  V30 5840 O 557.421 -0.0935478 1.78255 0
M  V30 5841 C 554.521 -0.0794029 3.38807 0
M  V30 5842 C 553.694 0.879986 4.28457 0
M  V30 5843 C 552.753 0.197638 5.25829 0
M  V30 5844 O 551.779 0.836913 5.63014 0
M  V30 5845 N 552.981 -1.05886 5.70761 0
M  V30 5846 H 555.746 1.53718 2.57276 0
M  V30 5847 H 553.307 0.951951 1.30956 0
M  V30 5848 H 555.299 -0.546418 4.00994 0
M  V30 5849 H 553.869 -0.877193 3.0004 0
M  V30 5850 H 553.089 1.52625 3.63454 0
M  V30 5851 H 554.377 1.53065 4.8523 0
M  V30 5852 H 553.775 -1.59828 5.42652 0
M  V30 5853 H 552.332 -1.46965 6.35015 0
M  V30 5854 N 555.766 -1.3263 0.851289 0
M  V30 5855 C 557.177 -1.79653 0.5081 0
M  V30 5856 C 557.528 -1.70327 -0.973815 0
M  V30 5857 O 556.653 -1.25986 -1.75944 0
M  V30 5858 C 557.248 -3.26196 0.915515 0
M  V30 5859 C 555.807 -3.71187 0.624277 0
M  V30 5860 C 554.954 -2.53804 1.11709 0
M  V30 5861 H 557.905 -1.19976 1.03882 0
M  V30 5862 H 557.926 -3.79801 0.230535 0
M  V30 5863 H 557.438 -3.32952 1.99411 0
M  V30 5864 H 555.539 -3.69948 -0.443737 0
M  V30 5865 H 555.652 -4.64132 1.18821 0
M  V30 5866 H 554.016 -2.48964 0.537484 0
M  V30 5867 H 554.799 -2.63315 2.20272 0
M  V30 5868 N 557.244 -0.608902 -1.45362 0
M  V30 5869 C 558.191 0.109172 -2.30542 0
M  V30 5870 C 559.161 0.858704 -1.42181 0
M  V30 5871 O 560.346 0.844178 -1.71109 0
M  V30 5872 C 557.486 1.09971 -3.27109 0
M  V30 5873 C 556.599 0.350911 -4.30572 0
M  V30 5874 C 555.734 1.33129 -5.14247 0
M  V30 5875 C 554.773 0.570377 -6.09437 0
M  V30 5876 N 553.91 1.5001 -6.85887 0
M  V30 5877 H 558.75 -0.623195 -2.91411 0
M  V30 5878 H 556.287 -0.319122 -1.43597 0
M  V30 5879 H 558.245 1.68714 -3.81564 0
M  V30 5880 H 556.875 1.79947 -2.67991 0
M  V30 5881 H 555.927 -0.352054 -3.78767 0
M  V30 5882 H 557.239 -0.242725 -4.98209 0
M  V30 5883 H 556.393 1.99074 -5.73109 0
M  V30 5884 H 555.132 1.95885 -4.46632 0
M  V30 5885 H 554.137 -0.102702 -5.49704 0
M  V30 5886 H 555.362 -0.0521607 -6.7908 0
M  V30 5887 H 553.308 2.11529 -6.2096 0
M  V30 5888 H 553.225 0.959934 -7.49881 0
M  V30 5889 H 554.493 2.14909 -7.49289 0
M  V30 5890 N 558.722 1.53707 -0.348139 0
M  V30 5891 C 560.138 1.596 0.00361134 0
M  V30 5892 C 560.338 1.36394 1.4832 0
M  V30 5893 O 559.394 1.16046 2.24253 0
M  V30 5894 C 560.707 2.97512 -0.436682 0
M  V30 5895 C 562.255 3.10568 -0.389416 0
M  V30 5896 C 562.73 4.50866 -0.805249 0
M  V30 5897 N 564.221 4.56929 -0.759616 0
M  V30 5898 C 564.956 5.63643 -1.05327 0
M  V30 5899 N 564.452 6.78189 -1.41531 0
M  V30 5900 N 566.245 5.5354 -0.977207 0
M  V30 5901 H 558.396 1.67044 -1.31187 0
M  V30 5902 H 560.659 0.782559 -0.535075 0
M  V30 5903 H 560.365 3.19575 -1.46849 0
M  V30 5904 H 560.239 3.76742 0.185744 0
M  V30 5905 H 562.626 2.88226 0.633228 0
M  V30 5906 H 562.707 2.33387 -1.04711 0
M  V30 5907 H 562.351 4.73943 -1.82593 0
M  V30 5908 H 562.281 5.26452 -0.124989 0
M  V30 5909 H 564.772 3.74675 -0.49265 0
M  V30 5910 H 565.085 7.55541 -1.62411 0
M  V30 5911 H 563.43 6.79624 -1.45381 0
M  V30 5912 H 566.621 4.62932 -0.693675 0
M  V30 5913 H 566.794 6.36614 -1.2094 0
M  V30 5914 N 560.2 0.0768682 1.57412 0
M  V30 5915 C 561.11 -0.903207 2.16516 0
M  V30 5916 C 562.126 -1.32341 1.12968 0
M  V30 5917 O 563.302 -1.39507 1.45258 0
M  V30 5918 C 560.367 -2.1508 2.71922 0
M  V30 5919 C 559.428 -1.78653 3.90361 0
M  V30 5920 C 558.661 -2.97465 4.43114 0
M  V30 5921 O 558.884 -4.11638 3.94854 0
M  V30 5922 O 557.818 -2.76987 5.3438 0
M  V30 5923 H 561.644 -0.430427 3.00634 0
M  V30 5924 H 559.229 -0.146485 1.4868 0
M  V30 5925 H 561.111 -2.8823 3.07411 0
M  V30 5926 H 559.786 -2.61446 1.9086 0
M  V30 5927 H 558.693 -1.0274 3.59716 0
M  V30 5928 H 560.026 -1.37066 4.7273 0
M  V30 5929 N 561.678 -1.56367 -0.196722 0
M  V30 5930 C 562.588 -1.97617 -1.2643 0
M  V30 5931 C 563.604 -0.883598 -1.49895 0
M  V30 5932 O 564.78 -1.18921 -1.62541 0
M  V30 5933 C 561.845 -2.30595 -2.58895 0
M  V30 5934 C 560.906 -3.53551 -2.43516 0
M  V30 5935 C 560.139 -3.84946 -3.69665 0
M  V30 5936 O 560.362 -3.17655 -4.73763 0
M  V30 5937 O 559.296 -4.78379 -3.65291 0
M  V30 5938 H 563.122 -2.88648 -0.944233 0
M  V30 5939 H 560.707 -1.43901 -0.401592 0
M  V30 5940 H 562.589 -2.52889 -3.37083 0
M  V30 5941 H 561.264 -1.42732 -2.90533 0
M  V30 5942 H 560.171 -3.36507 -1.63445 0
M  V30 5943 H 561.504 -4.41875 -2.16812 0
M  V30 5944 N 563.156 0.464375 -1.50603 0
M  V30 5945 C 564.066 1.58723 -1.72754 0
M  V30 5946 C 565.082 1.62925 -0.610844 0
M  V30 5947 O 566.258 1.8067 -0.889963 0
M  V30 5948 C 563.323 2.94897 -1.82309 0
M  V30 5949 C 562.384 3.0103 -3.06071 0
M  V30 5950 C 561.617 4.30708 -3.1516 0
M  V30 5951 O 561.84 5.2159 -2.30868 0
M  V30 5952 O 560.774 4.42571 -4.0794 0
M  V30 5953 H 564.6 1.42954 -2.67951 0
M  V30 5954 H 562.185 0.644579 -1.3478 0
M  V30 5955 H 564.067 3.75764 -1.90735 0
M  V30 5956 H 562.742 3.10851 -0.902967 0
M  V30 5957 H 561.649 2.19217 -3.03142 0
M  V30 5958 H 562.982 2.90014 -3.97684 0
M  V30 5959 N 564.634 1.40294 0.718013 0
M  V30 5960 C 565.544 1.42678 1.86226 0
M  V30 5961 C 566.56 0.319655 1.71039 0
M  V30 5962 O 567.736 0.563852 1.93346 0
M  V30 5963 C 564.801 1.2852 3.21999 0
M  V30 5964 C 563.862 2.49354 3.49458 0
M  V30 5965 C 563.095 2.35863 4.78753 0
M  V30 5966 O 563.318 1.37114 5.53675 0
M  V30 5967 O 562.252 3.25189 5.06494 0
M  V30 5968 H 566.078 2.39167 1.87171 0
M  V30 5969 H 563.663 1.2159 0.868112 0
M  V30 5970 H 565.545 1.22824 4.03103 0
M  V30 5971 H 564.22 0.351359 3.21787 0
M  V30 5972 H 563.127 2.60628 2.68373 0
M  V30 5973 H 564.46 3.41491 3.54464 0
M  V30 5974 N 566.112 -0.949982 1.2575 0
M  V30 5975 C 567.358 -1.69766 1.10938 0
M  V30 5976 C 567.691 -1.91056 -0.348028 0
M  V30 5977 O 566.966 -1.48488 -1.25625 0
M  V30 5978 C 567.249 -3.07779 1.86933 0
M  V30 5979 C 567.102 -2.9387 3.4053 0
M  V30 5980 C 568.421 -4.07749 1.65616 0
M  V30 5981 H 565.54 -0.616144 0.404396 0
M  V30 5982 H 568.182 -1.10394 1.54639 0
M  V30 5983 H 566.332 -3.58462 1.4979 0
M  V30 5984 H 568.004 -2.50476 3.87375 0
M  V30 5985 H 566.247 -2.29686 3.68004 0
M  V30 5986 H 566.918 -3.91719 3.88922 0
M  V30 5987 H 569.394 -3.65994 1.97959 0
M  V30 5988 H 568.27 -5.02348 2.21218 0
M  V30 5989 H 568.531 -4.38029 0.598595 0
M  V30 5990 N 567.59 -1.07411 -1.15328 0
M  V30 5991 C 568.52 -0.716472 -2.22236 0
M  V30 5992 C 569.501 0.296373 -1.67498 0
M  V30 5993 O 570.686 0.168989 -1.93463 0
M  V30 5994 C 567.816 -0.114142 -3.47112 0
M  V30 5995 C 566.77 -1.05421 -4.14814 0
M  V30 5996 C 566.096 -0.314604 -5.33774 0
M  V30 5997 C 567.396 -2.38808 -4.64508 0
M  V30 5998 H 569.09 -1.61029 -2.52408 0
M  V30 5999 H 566.636 -0.775702 -1.21321 0
M  V30 6000 H 568.589 0.148001 -4.2114 0
M  V30 6001 H 567.313 0.814755 -3.16274 0
M  V30 6002 H 565.972 -1.30128 -3.42728 0
M  V30 6003 H 565.62 0.617772 -4.99192 0
M  V30 6004 H 565.32 -0.941209 -5.80013 0
M  V30 6005 H 566.844 -0.0602747 -6.1057 0
M  V30 6006 H 568.258 -2.18424 -5.3006 0
M  V30 6007 H 566.655 -2.97069 -5.21412 0
M  V30 6008 H 567.725 -3.01067 -3.80114 0
M  V30 6009 N 569.068 1.32177 -0.85831 0
M  V30 6010 C 570.345 1.91781 -0.384624 0
M  V30 6011 C 570.725 1.78171 1.13217 0
M  V30 6012 O 570.073 1.18209 1.95548 0
M  V30 6013 C 570.283 3.38414 -0.853047 0
M  V30 6014 C 571.631 4.15542 -0.872359 0
M  V30 6015 O 572.655 3.47148 -0.797926 0
M  V30 6016 O 571.514 5.37678 -0.978009 0
M  V30 6017 H 568.608 0.819259 -0.112886 0
M  V30 6018 H 571.154 1.40923 -0.945453 0
M  V30 6019 H 569.926 3.4228 -1.89632 0
M  V30 6020 H 569.549 3.96683 -0.269874 0
M  V30 6021 N 570.547 0.616602 1.45037 0
M  V30 6022 C 571.479 -0.135186 2.28801 0
M  V30 6023 C 572.492 -0.82303 1.40464 0
M  V30 6024 O 573.681 -0.686909 1.64754 0
M  V30 6025 C 570.781 -1.21292 3.16451 0
M  V30 6026 C 569.954 -0.61043 4.3312 0
M  V30 6027 C 569.013 -1.58022 5.01912 0
M  V30 6028 O 568.039 -1.10301 5.58411 0
M  V30 6029 N 569.241 -2.91464 5.02025 0
M  V30 6030 H 572.006 0.583612 2.93963 0
M  V30 6031 H 569.567 0.456723 1.55324 0
M  V30 6032 H 571.559 -1.86169 3.59337 0
M  V30 6033 H 570.129 -1.83412 2.53138 0
M  V30 6034 H 569.349 0.216638 3.93604 0
M  V30 6035 H 570.637 -0.188293 5.08451 0
M  V30 6036 H 570.035 -3.32829 4.57429 0
M  V30 6037 H 568.592 -3.51741 5.48745 0
M  V30 6038 N 572.025 -1.5352 0.356285 0
M  V30 6039 C 573.273 -2.00719 -0.235837 0
M  V30 6040 C 573.594 -1.24551 -1.5004 0
M  V30 6041 O 572.864 -0.356185 -1.92635 0
M  V30 6042 H 571.444 -0.741542 -0.0901366 0
M  V30 6043 H 574.106 -1.88887 0.480378 0
M  V30 6044 H 573.202 -3.08551 -0.469357 0
M  V30 6045 N 573.503 -0.0852151 -1.57369 0
M  V30 6046 C 574.78 0.622534 -1.85429 0
M  V30 6047 C 575.16 1.86962 -0.980229 0
M  V30 6048 O 574.508 2.28445 -0.0500219 0
M  V30 6049 C 574.718 0.947374 -3.35896 0
M  V30 6050 C 576.066 1.31509 -4.03721 0
M  V30 6051 O 577.09 1.03869 -3.40719 0
M  V30 6052 O 575.949 1.83231 -5.14868 0
M  V30 6053 H 573.043 0.310513 -0.766492 0
M  V30 6054 H 575.589 -0.117164 -1.69295 0
M  V30 6055 H 574.361 0.0622264 -3.91251 0
M  V30 6056 H 573.984 1.74338 -3.5734 0
M  V30 6057 N 574.981 1.5647 0.188427 0
M  V30 6058 C 576.228 1.81013 0.907779 0
M  V30 6059 C 576.556 0.65953 1.82977 0
M  V30 6060 O 575.811 -0.354308 1.92466 0
M  V30 6061 C 576.11 3.11596 1.7505 0
M  V30 6062 C 575.776 4.40145 0.978922 0
M  V30 6063 C 574.438 4.75066 0.765912 0
M  V30 6064 C 576.79 5.19369 0.436498 0
M  V30 6065 C 574.118 5.867 -0.00089868 0
M  V30 6066 C 576.47 6.31805 -0.317136 0
M  V30 6067 C 575.134 6.65303 -0.541103 0
M  V30 6068 H 574.404 0.662373 0.33218 0
M  V30 6069 H 577.051 1.9071 0.173732 0
M  V30 6070 H 575.356 2.97165 2.55343 0
M  V30 6071 H 577.053 3.27793 2.30983 0
M  V30 6072 H 573.643 4.12745 1.15497 0
M  V30 6073 H 577.827 4.92799 0.588449 0
M  V30 6074 H 573.083 6.11122 -0.184329 0
M  V30 6075 H 577.257 6.92406 -0.744788 0
M  V30 6076 H 574.884 7.51646 -1.13718 0
M  V30 6077 N 576.459 -0.456382 1.50847 0
M  V30 6078 C 577.689 -1.22848 1.66108 0
M  V30 6079 C 578.097 -1.85936 0.349897 0
M  V30 6080 O 577.44 -1.70664 -0.679665 0
M  V30 6081 C 577.502 -2.36722 2.70561 0
M  V30 6082 C 577.166 -1.94154 4.13707 0
M  V30 6083 C 578.163 -1.4557 4.99105 0
M  V30 6084 C 575.848 -2.02426 4.59705 0
M  V30 6085 C 577.842 -1.0582 6.28555 0
M  V30 6086 C 575.529 -1.62287 5.89157 0
M  V30 6087 C 576.527 -1.14064 6.73408 0
M  V30 6088 O 576.215 -0.744873 8.00442 0
M  V30 6089 H 575.947 -0.377105 0.561042 0
M  V30 6090 H 578.501 -0.549431 1.97915 0
M  V30 6091 H 576.731 -3.07844 2.34027 0
M  V30 6092 H 578.42 -2.98646 2.74892 0
M  V30 6093 H 579.186 -1.38589 4.64777 0
M  V30 6094 H 575.065 -2.38908 3.94264 0
M  V30 6095 H 578.609 -0.6811 6.94267 0
M  V30 6096 H 574.506 -1.68932 6.23003 0
M  V30 6097 H 575.274 -0.87242 8.13837 0
M  V30 6098 N 577.937 -1.40673 -0.710563 0
M  V30 6099 C 579.162 -1.42741 -1.50465 0
M  V30 6100 C 579.587 -0.0302116 -1.88076 0
M  V30 6101 O 578.945 0.962945 -1.53613 0
M  V30 6102 C 578.993 -2.32873 -2.75322 0
M  V30 6103 O 578.097 -1.77544 -3.72226 0
M  V30 6104 H 577.438 -0.485056 -0.45345 0
M  V30 6105 H 579.968 -1.84961 -0.874681 0
M  V30 6106 H 579.978 -2.48233 -3.23797 0
M  V30 6107 H 578.653 -3.34401 -2.47283 0
M  V30 6108 H 577.23 -1.71556 -3.31093 0
M  V30 6109 N 579.415 0.9433 -1.26252 0
M  V30 6110 C 580.345 2.05902 -1.10122 0
M  V30 6111 C 581.326 1.70099 -0.00700552 0
M  V30 6112 O 582.511 1.93377 -0.178641 0
M  V30 6113 C 579.641 3.39516 -0.731175 0
M  V30 6114 C 578.595 3.89372 -1.77688 0
M  V30 6115 C 577.921 5.19613 -1.26122 0
M  V30 6116 C 579.221 4.14489 -3.17799 0
M  V30 6117 H 580.915 2.19655 -2.03451 0
M  V30 6118 H 578.461 1.05548 -0.979576 0
M  V30 6119 H 580.414 4.17031 -0.605215 0
M  V30 6120 H 579.138 3.25733 0.23782 0
M  V30 6121 H 577.797 3.14036 -1.89148 0
M  V30 6122 H 577.445 5.02208 -0.282128 0
M  V30 6123 H 577.145 5.53939 -1.96023 0
M  V30 6124 H 578.669 5.99713 -1.14789 0
M  V30 6125 H 580.083 4.82625 -3.09428 0
M  V30 6126 H 578.48 4.60094 -3.85271 0
M  V30 6127 H 579.55 3.20347 -3.64014 0
M  V30 6128 N 580.893 1.08022 1.14757 0
M  V30 6129 C 581.823 0.728248 2.21853 0
M  V30 6130 C 582.804 -0.287486 1.67653 0
M  V30 6131 O 583.989 -0.158727 1.9355 0
M  V30 6132 C 581.119 0.132549 3.47047 0
M  V30 6133 C 580.073 1.07619 4.14249 0
M  V30 6134 C 579.399 0.342907 5.33599 0
M  V30 6135 C 580.699 2.41268 4.63235 0
M  V30 6136 H 582.393 1.62365 2.51551 0
M  V30 6137 H 579.939 0.782125 1.20908 0
M  V30 6138 H 581.892 -0.125665 4.21213 0
M  V30 6139 H 580.616 -0.797971 3.16702 0
M  V30 6140 H 579.275 1.31944 3.42033 0
M  V30 6141 H 578.923 -0.59129 4.99513 0
M  V30 6142 H 578.623 0.971955 5.79506 0
M  V30 6143 H 580.147 0.0926538 6.1053 0
M  V30 6144 H 581.561 2.21232 5.28894 0
M  V30 6145 H 579.958 2.9983 5.19829 0
M  V30 6146 H 581.028 3.03079 3.78512 0
M  V30 6147 N 582.371 -1.3172 0.865308 0
M  V30 6148 C 583.596 -2.01591 0.487415 0
M  V30 6149 C 584.021 -1.6455 -0.911307 0
M  V30 6150 O 583.379 -0.851689 -1.6005 0
M  V30 6151 C 583.427 -3.54759 0.646401 0
M  V30 6152 O 582.531 -4.11185 -0.316284 0
M  V30 6153 H 581.872 -0.634884 0.194468 0
M  V30 6154 H 584.402 -1.68024 1.16744 0
M  V30 6155 H 584.412 -4.04438 0.537932 0
M  V30 6156 H 583.087 -3.8106 1.66632 0
M  V30 6157 H 581.664 -3.72543 -0.163162 0
M  V30 6158 N 583.85 -0.624285 -1.44708 0
M  V30 6159 C 584.797 0.0847135 -2.30644 0
M  V30 6160 C 585.767 0.843575 -1.43084 0
M  V30 6161 O 586.952 0.825982 -1.71995 0
M  V30 6162 C 584.091 1.06495 -3.28257 0
M  V30 6163 C 583.205 0.305224 -4.3092 0
M  V30 6164 C 582.34 1.27667 -5.1563 0
M  V30 6165 C 581.379 0.505706 -6.10007 0
M  V30 6166 N 580.516 1.42727 -6.8744 0
M  V30 6167 H 585.356 -0.654068 -2.90733 0
M  V30 6168 H 582.893 -0.334334 -1.4325 0
M  V30 6169 H 584.851 1.64658 -3.83332 0
M  V30 6170 H 583.481 1.77094 -2.69884 0
M  V30 6171 H 582.533 -0.392207 -3.78373 0
M  V30 6172 H 583.845 -0.295553 -4.97924 0
M  V30 6173 H 582.999 1.92984 -5.75189 0
M  V30 6174 H 581.738 1.91137 -4.48685 0
M  V30 6175 H 580.743 -0.160999 -5.49564 0
M  V30 6176 H 581.968 -0.124183 -6.78986 0
M  V30 6177 H 579.913 2.04931 -6.23169 0
M  V30 6178 H 579.831 0.880345 -7.50857 0
M  V30 6179 H 581.099 2.0695 -7.51526 0
M  V30 6180 N 585.328 1.53329 -0.364422 0
M  V30 6181 C 586.258 2.28627 0.474543 0
M  V30 6182 C 587.239 1.31009 1.08492 0
M  V30 6183 O 588.424 1.59878 1.10239 0
M  V30 6184 C 585.554 3.07465 1.61501 0
M  V30 6185 C 584.508 4.1276 1.13194 0
M  V30 6186 C 583.834 4.79674 2.36255 0
M  V30 6187 C 585.134 5.21847 0.217507 0
M  V30 6188 H 586.828 2.99005 -0.153656 0
M  V30 6189 H 584.374 1.43803 -0.0753406 0
M  V30 6190 H 586.327 3.58889 2.20855 0
M  V30 6191 H 585.051 2.34775 2.27042 0
M  V30 6192 H 583.71 3.62281 0.56109 0
M  V30 6193 H 583.358 4.03557 3.00251 0
M  V30 6194 H 583.058 5.50827 2.04606 0
M  V30 6195 H 584.582 5.33892 2.96297 0
M  V30 6196 H 585.996 5.6878 0.718493 0
M  V30 6197 H 584.393 6.00099 -0.00806408 0
M  V30 6198 H 585.463 4.7921 -0.740653 0
M  V30 6199 N 586.806 0.0935595 1.57322 0
M  V30 6200 C 587.736 -0.863062 2.16964 0
M  V30 6201 C 588.717 -1.29528 1.10256 0
M  V30 6202 O 589.902 -1.36245 1.38387 0
M  V30 6203 C 587.032 -2.12276 2.74875 0
M  V30 6204 C 585.986 -1.82921 3.86942 0
M  V30 6205 C 585.312 -3.15707 4.31548 0
M  V30 6206 C 586.612 -1.11737 5.10208 0
M  V30 6207 H 588.306 -0.366145 2.97153 0
M  V30 6208 H 585.852 -0.174673 1.42937 0
M  V30 6209 H 587.805 -2.79634 3.1525 0
M  V30 6210 H 586.529 -2.64248 1.91938 0
M  V30 6211 H 585.188 -1.17961 3.47103 0
M  V30 6212 H 584.836 -3.65563 3.45504 0
M  V30 6213 H 584.536 -2.96849 5.07104 0
M  V30 6214 H 586.06 -3.84226 4.74555 0
M  V30 6215 H 587.474 -1.69203 5.47762 0
M  V30 6216 H 585.871 -1.03064 5.91183 0
M  V30 6217 H 586.941 -0.0998818 4.84797 0
M  V30 6218 N 588.284 -1.56567 -0.180126 0
M  V30 6219 C 589.532 -1.81133 -0.896392 0
M  V30 6220 C 589.853 -0.669114 -1.83161 0
M  V30 6221 O 589.123 0.311616 -1.93406 0
M  V30 6222 H 587.703 -0.668172 -0.333999 0
M  V30 6223 H 590.365 -1.94048 -0.182051 0
M  V30 6224 H 589.461 -2.74854 -1.47857 0
M  V30 6225 N 589.762 0.448376 -1.51087 0
M  V30 6226 C 590.672 1.56882 -1.74428 0
M  V30 6227 C 591.688 1.62268 -0.62809 0
M  V30 6228 O 592.864 1.79716 -0.909075 0
M  V30 6229 C 589.929 2.92947 -1.85426 0
M  V30 6230 C 588.99 2.97766 -3.09247 0
M  V30 6231 C 588.223 4.27341 -3.19711 0
M  V30 6232 O 588.446 5.19112 -2.36387 0
M  V30 6233 O 587.38 4.38219 -4.12611 0
M  V30 6234 H 591.206 1.40104 -2.69452 0
M  V30 6235 H 588.791 0.630247 -1.35456 0
M  V30 6236 H 590.673 3.73719 -1.94709 0
M  V30 6237 H 589.348 3.09876 -0.935887 0
M  V30 6238 H 588.255 2.15989 -3.0545 0
M  V30 6239 H 589.588 2.8578 -4.00738 0
M  V30 6240 N 591.24 1.41047 0.703093 0
M  V30 6241 C 592.656 1.23351 1.01275 0
M  V30 6242 C 592.856 0.11754 2.01157 0
M  V30 6243 O 591.912 -0.520518 2.47077 0
M  V30 6244 C 593.225 2.58001 1.54454 0
M  V30 6245 C 594.773 2.65119 1.66376 0
M  V30 6246 C 595.248 4.00067 2.22958 0
M  V30 6247 N 596.739 4.01875 2.30328 0
M  V30 6248 C 597.474 5.03087 2.75119 0
M  V30 6249 N 596.97 6.14692 3.19571 0
M  V30 6250 N 598.763 4.90451 2.74616 0
M  V30 6251 H 590.914 2.1236 0.0412686 0
M  V30 6252 H 593.177 0.944543 0.08089 0
M  V30 6253 H 592.883 3.40378 0.88521 0
M  V30 6254 H 592.757 2.79962 2.52786 0
M  V30 6255 H 595.144 1.83106 2.31422 0
M  V30 6256 H 595.225 2.46975 0.666089 0
M  V30 6257 H 594.869 4.82526 1.58529 0
M  V30 6258 H 594.799 4.15547 3.23462 0
M  V30 6259 H 597.29 3.21291 1.98949 0
M  V30 6260 H 597.603 6.87799 3.52352 0
M  V30 6261 H 595.948 6.18239 3.17498 0
M  V30 6262 H 599.139 4.0235 2.39233 0
M  V30 6263 H 599.312 5.6947 3.09206 0
M  V30 6264 N 592.718 -0.936591 1.26751 0
M  V30 6265 C 593.628 -2.06949 1.10496 0
M  V30 6266 C 594.644 -1.7396 0.037271 0
M  V30 6267 O 595.82 -1.99941 0.241944 0
M  V30 6268 C 592.885 -3.38612 0.744491 0
M  V30 6269 C 591.946 -3.85355 1.89209 0
M  V30 6270 C 591.179 -5.10735 1.54873 0
M  V30 6271 O 591.402 -5.68602 0.452546 0
M  V30 6272 O 590.336 -5.52632 2.38499 0
M  V30 6273 H 594.162 -2.23571 2.05547 0
M  V30 6274 H 591.747 -1.05428 1.05855 0
M  V30 6275 H 593.629 -4.17711 0.556396 0
M  V30 6276 H 592.304 -3.23218 -0.176582 0
M  V30 6277 H 591.211 -3.07182 2.13518 0
M  V30 6278 H 592.544 -4.05277 2.79305 0
M  V30 6279 N 594.196 -1.08629 -1.14182 0
M  V30 6280 C 595.473 -0.73002 -1.81466 0
M  V30 6281 C 595.853 0.785996 -1.95922 0
M  V30 6282 O 595.201 1.70535 -1.52086 0
M  V30 6283 C 595.411 -1.45957 -3.17014 0
M  V30 6284 C 596.759 -1.62008 -3.92477 0
M  V30 6285 O 597.783 -1.42141 -3.26611 0
M  V30 6286 O 596.642 -1.94806 -5.106 0
M  V30 6287 H 593.736 -0.261307 -0.784632 0
M  V30 6288 H 596.282 -1.188 -1.2118 0
M  V30 6289 H 595.054 -2.49221 -3.01669 0
M  V30 6290 H 594.677 -0.993222 -3.84995 0
M  V30 6291 N 595.674 1.31259 -0.872281 0
M  V30 6292 C 596.92 1.96913 -0.485083 0
M  V30 6293 C 597.253 1.68774 0.960667 0
M  V30 6294 O 596.528 0.985495 1.67685 0
M  V30 6295 C 596.811 3.52299 -0.745502 0
M  V30 6296 C 596.664 3.90002 -2.24095 0
M  V30 6297 C 597.983 4.39582 -0.213516 0
M  V30 6298 H 595.102 0.715252 -0.177716 0
M  V30 6299 H 597.744 1.55347 -1.09395 0
M  V30 6300 H 595.894 3.87835 -0.227276 0
M  V30 6301 H 597.566 3.64555 -2.82661 0
M  V30 6302 H 595.809 3.38526 -2.71261 0
M  V30 6303 H 596.48 4.98352 -2.37381 0
M  V30 6304 H 598.956 4.10882 -0.656902 0
M  V30 6305 H 597.832 5.47251 -0.42516 0
M  V30 6306 H 598.093 4.33158 0.884666 0
M  V30 6307 N 597.152 0.631951 1.44375 0
M  V30 6308 C 598.398 0.13697 2.02337 0
M  V30 6309 C 598.731 -1.23826 1.49602 0
M  V30 6310 O 598.006 -1.8221 0.680415 0
M  V30 6311 C 598.289 0.124536 3.59885 0
M  V30 6312 C 598.142 1.53217 4.229 0
M  V30 6313 C 599.461 -0.550481 4.36644 0
M  V30 6314 H 596.58 0.051247 0.735216 0
M  V30 6315 H 599.222 0.808581 1.71936 0
M  V30 6316 H 597.372 -0.44737 3.85916 0
M  V30 6317 H 599.044 2.15303 4.07973 0
M  V30 6318 H 597.287 2.0858 3.80364 0
M  V30 6319 H 597.958 1.4755 5.31914 0
M  V30 6320 H 600.434 -0.0641154 4.16051 0
M  V30 6321 H 599.31 -0.528371 5.46351 0
M  V30 6322 H 599.571 -1.62097 4.11311 0
M  V30 6323 N 598.631 -1.53133 0.372548 0
M  V30 6324 C 599.581 -2.22733 -0.487218 0
M  V30 6325 C 600.565 -1.22506 -1.04312 0
M  V30 6326 O 601.757 -1.47923 -0.972005 0
M  V30 6327 C 598.886 -3.02524 -1.62278 0
M  V30 6328 C 597.972 -4.10133 -1.07943 0
M  V30 6329 N 598.363 -5.05133 -0.259629 0
M  V30 6330 C 596.661 -4.24964 -1.35356 0
M  V30 6331 C 597.362 -5.81687 0.0386656 0
M  V30 6332 N 596.338 -5.40699 -0.560827 0
M  V30 6333 H 600.14 -2.93538 0.145853 0
M  V30 6334 H 597.654 -1.61389 0.180938 0
M  V30 6335 H 599.651 -3.50909 -2.25096 0
M  V30 6336 H 598.311 -2.33252 -2.25884 0
M  V30 6337 H 599.322 -5.178 0.101746 0
M  V30 6338 H 595.999 -3.66919 -1.9919 0
M  V30 6339 H 597.389 -6.68224 0.701841 0
M  V30 6340 N 600.109 -0.101901 -1.5727 0
M  V30 6341 C 601.355 0.561027 -1.94885 0
M  V30 6342 C 601.688 1.6741 -0.984258 0
M  V30 6343 O 600.963 1.94491 -0.0184767 0
M  V30 6344 C 601.246 1.10982 -3.42571 0
M  V30 6345 C 601.099 0.00133418 -4.498 0
M  V30 6346 C 602.418 2.00608 -3.9172 0
M  V30 6347 H 599.537 0.202467 -0.708644 0
M  V30 6348 H 602.179 -0.173992 -1.89202 0
M  V30 6349 H 600.329 1.73621 -3.47546 0
M  V30 6350 H 602.001 -0.63322 -4.56933 0
M  V30 6351 H 600.244 -0.664143 -4.28686 0
M  V30 6352 H 600.915 0.426253 -5.50352 0
M  V30 6353 H 603.391 1.47864 -3.88941 0
M  V30 6354 H 602.267 2.3593 -4.95609 0
M  V30 6355 H 602.528 2.92608 -3.3141 0
M  V30 6356 N 601.587 1.56661 0.17182 0
M  V30 6357 C 602.537 1.92781 1.21736 0
M  V30 6358 C 603.521 0.796065 1.39827 0
M  V30 6359 O 604.713 1.05924 1.41806 0
M  V30 6360 C 601.842 2.29079 2.55691 0
M  V30 6361 C 600.928 3.48765 2.41296 0
M  V30 6362 N 601.319 4.66022 1.96614 0
M  V30 6363 C 599.617 3.53362 2.72124 0
M  V30 6364 C 600.318 5.48159 1.94669 0
M  V30 6365 N 599.294 4.89189 2.37054 0
M  V30 6366 H 603.096 2.80926 0.863592 0
M  V30 6367 H 600.61 1.57889 0.380096 0
M  V30 6368 H 602.607 2.5315 3.31241 0
M  V30 6369 H 601.267 1.42272 2.91871 0
M  V30 6370 H 602.278 4.9025 1.66959 0
M  V30 6371 H 598.955 2.77033 3.12345 0
M  V30 6372 H 600.345 6.52121 1.61826 0
M  V30 6373 N 603.065 -0.440357 1.51323 0
M  V30 6374 C 604.012 -1.53429 1.72419 0
M  V30 6375 C 604.982 -1.56165 0.565826 0
M  V30 6376 O 606.167 -1.73222 0.799917 0
M  V30 6377 C 603.307 -2.91169 1.85242 0
M  V30 6378 C 602.42 -2.97985 3.12777 0
M  V30 6379 C 601.555 -4.26829 3.16212 0
M  V30 6380 C 600.594 -4.27501 4.38074 0
M  V30 6381 N 599.731 -5.47866 4.39076 0
M  V30 6382 H 604.571 -1.34743 2.65797 0
M  V30 6383 H 602.108 -0.654608 1.31732 0
M  V30 6384 H 604.066 -3.71087 1.90658 0
M  V30 6385 H 602.696 -3.0842 0.952744 0
M  V30 6386 H 601.748 -2.10749 3.16685 0
M  V30 6387 H 603.06 -2.94342 4.02696 0
M  V30 6388 H 602.214 -5.15118 3.20527 0
M  V30 6389 H 600.953 -4.33124 2.24176 0
M  V30 6390 H 599.958 -3.37606 4.33938 0
M  V30 6391 H 601.183 -4.22873 5.31371 0
M  V30 6392 H 599.129 -5.54887 3.49909 0
M  V30 6393 H 599.046 -5.46091 5.22801 0
M  V30 6394 H 600.314 -6.38195 4.4758 0
M  V30 6395 N 604.543 -1.41418 -0.695603 0
M  V30 6396 C 605.773 -1.43921 -1.48224 0
M  V30 6397 C 606.181 -0.0428855 -1.89151 0
M  V30 6398 O 605.524 0.948138 -1.5734 0
M  V30 6399 C 605.586 -2.28466 -2.77567 0
M  V30 6400 C 605.25 -3.76629 -2.58844 0
M  V30 6401 C 606.247 -4.6879 -2.24793 0
M  V30 6402 C 603.932 -4.2067 -2.74485 0
M  V30 6403 C 605.926 -6.02981 -2.06622 0
M  V30 6404 C 603.613 -5.54926 -2.55931 0
M  V30 6405 C 604.611 -6.45897 -2.2205 0
M  V30 6406 O 604.299 -7.77675 -2.03657 0
M  V30 6407 H 604.031 -0.492252 -0.463318 0
M  V30 6408 H 606.585 -1.86347 -0.863952 0
M  V30 6409 H 604.815 -1.80853 -3.41802 0
M  V30 6410 H 606.504 -2.2267 -3.39371 0
M  V30 6411 H 607.27 -4.36055 -2.12323 0
M  V30 6412 H 603.149 -3.50167 -2.9984 0
M  V30 6413 H 606.693 -6.73951 -1.80099 0
M  V30 6414 H 602.59 -5.8724 -2.67991 0
M  V30 6415 H 603.358 -7.88819 -2.1842 0
M  V30 6416 N 606.021 0.929856 -1.27246 0
M  V30 6417 C 606.969 2.05151 -1.09616 0
M  V30 6418 C 607.963 1.69388 -0.0198617 0
M  V30 6419 O 609.169 1.79124 -0.177417 0
M  V30 6420 H 605.544 0.671909 -0.337701 0
M  V30 6421 H 607.515 2.17168 -2.04648 0
M  V30 6422 C 606.264 3.3934 -0.757851 0
M  V30 6423 H 605.587 3.67343 -1.57795 0
M  V30 6424 H 607.027 4.18603 -0.674358 0
M  V30 6425 C 605.486 3.32582 0.537658 0
M  V30 6426 O 606.016 3.69633 1.57271 0
M  V30 6427 N 604.222 2.8568 0.532478 0
M  V30 6428 H 603.769 2.55725 -0.310233 0
M  V30 6429 H 603.727 2.81541 1.39936 0
M  V30 6430 N 607.499 1.09233 1.13605 0
M  V30 6431 C 608.91 0.846839 1.6639 0
M  V30 6432 C 609.261 -0.625031 1.85978 0
M  V30 6433 O 608.386 -1.48173 1.57714 0
M  V30 6434 C 608.981 1.5307 3.0225 0
M  V30 6435 C 607.54 1.33223 3.52035 0
M  V30 6436 C 606.687 1.58806 2.27323 0
M  V30 6437 H 609.638 1.25175 0.975541 0
M  V30 6438 H 609.659 0.96267 3.68121 0
M  V30 6439 H 609.171 2.60192 2.87961 0
M  V30 6440 H 607.272 0.282091 3.71531 0
M  V30 6441 H 607.385 2.0657 4.32279 0
M  V30 6442 H 605.749 1.01007 2.33815 0
M  V30 6443 H 606.532 2.67153 2.15602 0
M  V30 6444 N 608.977 -1.30795 0.87923 0
M  V30 6445 C 610.205 -2.00527 0.509548 0
M  V30 6446 C 610.62 -1.65944 -0.90045 0
M  V30 6447 O 609.977 -0.893525 -1.5913 0
M  V30 6448 C 610.028 -3.55276 0.667943 0
M  V30 6449 O 609.749 -3.88625 2.02242 0
M  V30 6450 C 611.25 -4.4228 0.300494 0
M  V30 6451 H 608.47 -0.641261 0.197549 0
M  V30 6452 H 611.014 -1.66813 1.18295 0
M  V30 6453 H 609.169 -3.87377 0.0419843 0
M  V30 6454 H 609.583 -4.83334 2.03688 0
M  V30 6455 H 611.057 -5.50061 0.462242 0
M  V30 6456 H 611.534 -4.32556 -0.76106 0
M  V30 6457 H 612.14 -4.15613 0.902536 0
M  V30 6458 N 610.455 -0.639598 -1.44038 0
M  V30 6459 C 611.365 0.0612377 -2.3452 0
M  V30 6460 C 612.381 0.826717 -1.53106 0
M  V30 6461 O 613.557 0.777059 -1.85806 0
M  V30 6462 C 610.622 1.02492 -3.31204 0
M  V30 6463 C 609.683 0.25788 -4.28525 0
M  V30 6464 C 608.916 1.17566 -5.2059 0
M  V30 6465 O 609.139 2.41461 -5.16771 0
M  V30 6466 O 608.073 0.655407 -5.98321 0
M  V30 6467 H 611.899 -0.68318 -2.95916 0
M  V30 6468 H 609.484 -0.399784 -1.43952 0
M  V30 6469 H 611.366 1.57911 -3.90694 0
M  V30 6470 H 610.041 1.7498 -2.7233 0
M  V30 6471 H 608.948 -0.339566 -3.72556 0
M  V30 6472 H 610.281 -0.427154 -4.90343 0
M  V30 6473 N 611.933 1.52934 -0.380664 0
M  V30 6474 C 612.88 2.26197 0.458641 0
M  V30 6475 C 613.85 1.27462 1.06502 0
M  V30 6476 O 615.035 1.56274 1.09467 0
M  V30 6477 C 612.175 3.06571 1.58456 0
M  V30 6478 C 611.288 4.20222 1.00189 0
M  V30 6479 C 610.423 4.88007 2.09815 0
M  V30 6480 C 609.462 5.93665 1.49092 0
M  V30 6481 N 608.599 6.55081 2.52613 0
M  V30 6482 H 613.439 2.975 -0.172595 0
M  V30 6483 H 610.976 1.4678 -0.0969426 0
M  V30 6484 H 612.934 3.51455 2.24801 0
M  V30 6485 H 611.564 2.37494 2.18624 0
M  V30 6486 H 610.616 3.79714 0.228292 0
M  V30 6487 H 611.928 4.96102 0.518064 0
M  V30 6488 H 611.082 5.36151 2.83948 0
M  V30 6489 H 609.821 4.11632 2.61555 0
M  V30 6490 H 608.826 5.44868 0.7348 0
M  V30 6491 H 610.051 6.71969 0.981582 0
M  V30 6492 H 607.997 5.8155 3.03538 0
M  V30 6493 H 607.914 7.26548 2.08961 0
M  V30 6494 H 609.182 7.07871 3.26402 0
M  V30 6495 N 613.412 0.11024 1.57214 0
M  V30 6496 C 614.375 -0.828808 2.1369 0
M  V30 6497 C 615.375 -1.20059 1.06969 0
M  V30 6498 O 616.565 -1.12754 1.32786 0
M  V30 6499 C 613.697 -2.11959 2.66994 0
M  V30 6500 H 614.89 -0.338146 2.97988 0
M  V30 6501 H 612.443 -0.138913 1.55681 0
M  V30 6502 H 613.178 -2.65476 1.8626 0
M  V30 6503 H 612.963 -1.86258 3.45037 0
M  V30 6504 H 614.453 -2.79105 3.10629 0
M  V30 6505 N 614.89 -1.56749 -0.16351 0
M  V30 6506 C 615.8 -2.00255 -1.2221 0
M  V30 6507 C 616.816 -0.915194 -1.47987 0
M  V30 6508 O 617.992 -1.22342 -1.59982 0
M  V30 6509 C 615.057 -2.36035 -2.53946 0
M  V30 6510 C 614.118 -3.58637 -2.35962 0
M  V30 6511 C 613.351 -3.92701 -3.61416 0
M  V30 6512 O 613.574 -3.27632 -4.66919 0
M  V30 6513 O 612.508 -4.86019 -3.55062 0
M  V30 6514 H 616.334 -2.90586 -0.882794 0
M  V30 6515 H 613.919 -1.44721 -0.370978 0
M  V30 6516 H 615.801 -2.59982 -3.31643 0
M  V30 6517 H 614.476 -1.48863 -2.8744 0
M  V30 6518 H 613.383 -3.39898 -1.5627 0
M  V30 6519 H 614.716 -4.46374 -2.0739 0
M  V30 6520 N 616.368 0.432326 -1.51554 0
M  V30 6521 C 617.593 1.20824 -1.68571 0
M  V30 6522 C 618.018 1.84126 -0.384596 0
M  V30 6523 O 617.376 1.69025 0.655751 0
M  V30 6524 C 617.424 2.26429 -2.80646 0
M  V30 6525 O 616.528 3.32032 -2.44598 0
M  V30 6526 H 615.869 0.353765 -0.561913 0
M  V30 6527 H 618.399 0.509916 -1.98144 0
M  V30 6528 H 618.409 2.71133 -3.04878 0
M  V30 6529 H 617.084 1.79733 -3.75058 0
M  V30 6530 H 615.661 2.92769 -2.30956 0
M  V30 6531 N 617.846 1.41785 0.688094 0
M  V30 6532 C 618.756 1.46596 1.83158 0
M  V30 6533 C 619.772 0.355862 1.70322 0
M  V30 6534 O 620.948 0.604737 1.92106 0
M  V30 6535 C 618.013 1.35322 3.192 0
M  V30 6536 C 617.074 2.56711 3.4409 0
M  V30 6537 C 616.307 2.45965 4.73642 0
M  V30 6538 O 616.53 1.48827 5.50642 0
M  V30 6539 O 615.464 3.35859 4.99482 0
M  V30 6540 H 619.29 2.43083 1.82056 0
M  V30 6541 H 616.875 1.23404 0.842126 0
M  V30 6542 H 618.757 1.31347 4.00407 0
M  V30 6543 H 617.432 0.419536 3.2097 0
M  V30 6544 H 616.339 2.66262 2.62784 0
M  V30 6545 H 617.672 3.48933 3.47141 0
M  V30 6546 N 619.324 -0.923095 1.27737 0
M  V30 6547 C 620.549 -1.71054 1.17283 0
M  V30 6548 C 620.974 -1.86208 -0.266153 0
M  V30 6549 O 620.332 -1.36545 -1.1927 0
M  V30 6550 C 620.38 -3.0854 1.86642 0
M  V30 6551 O 619.484 -3.95528 1.16752 0
M  V30 6552 H 618.825 -0.524136 0.407649 0
M  V30 6553 H 621.355 -1.15487 1.6889 0
M  V30 6554 H 621.365 -3.58828 1.94182 0
M  V30 6555 H 620.04 -2.96828 2.91317 0
M  V30 6556 H 618.617 -3.53967 1.17312 0
M  V30 6557 N 620.802 -1.09834 -1.13024 0
M  V30 6558 C 622.079 -0.749225 -1.80682 0
M  V30 6559 C 622.459 0.765171 -1.96744 0
M  V30 6560 O 621.807 1.68912 -1.53886 0
M  V30 6561 C 622.017 -1.49311 -3.15448 0
M  V30 6562 C 623.365 -1.66162 -3.90737 0
M  V30 6563 O 624.389 -1.45597 -3.25085 0
M  V30 6564 O 623.248 -2.00211 -5.08505 0
M  V30 6565 H 620.342 -0.269614 -0.781817 0
M  V30 6566 H 622.888 -1.20078 -1.19914 0
M  V30 6567 H 621.66 -2.52407 -2.99009 0
M  V30 6568 H 621.283 -1.034 -3.8392 0
M  V30 6569 N 622.28 1.30327 -0.886154 0
M  V30 6570 C 623.21 2.30549 -0.370028 0
M  V30 6571 C 624.191 1.61039 0.547751 0
M  V30 6572 O 625.376 1.8864 0.461353 0
M  V30 6573 C 622.506 3.44808 0.415275 0
M  V30 6574 C 621.46 4.26024 -0.41085 0
M  V30 6575 C 620.786 5.32347 0.501128 0
M  V30 6576 C 622.086 4.95433 -1.65359 0
M  V30 6577 H 623.78 2.73969 -1.20754 0
M  V30 6578 H 621.326 1.3171 -0.582097 0
M  V30 6579 H 623.279 4.13986 0.78699 0
M  V30 6580 H 622.003 3.00197 1.28644 0
M  V30 6581 H 620.662 3.58535 -0.764719 0
M  V30 6582 H 620.31 4.83982 1.37004 0
M  V30 6583 H 620.01 5.87581 -0.0478356 0
M  V30 6584 H 621.534 6.0438 0.869333 0
M  V30 6585 H 622.948 5.5712 -1.35239 0
M  V30 6586 H 621.345 5.60537 -2.14284 0
M  V30 6587 H 622.415 4.21493 -2.39733 0
M  V30 6588 N 623.758 0.647228 1.43697 0
M  V30 6589 C 625.004 0.158422 2.0218 0
M  V30 6590 C 625.337 -1.22233 1.50907 0
M  V30 6591 O 624.612 -1.81478 0.699702 0
M  V30 6592 C 624.895 0.1627 3.59732 0
M  V30 6593 C 624.748 1.57694 4.21251 0
M  V30 6594 C 626.067 -0.504138 4.37203 0
M  V30 6595 H 623.186 0.059042 0.734631 0
M  V30 6596 H 625.828 0.826772 1.71069 0
M  V30 6597 H 623.978 -0.406414 3.86368 0
M  V30 6598 H 625.65 2.19618 4.05667 0
M  V30 6599 H 623.893 2.12603 3.7813 0
M  V30 6600 H 624.564 1.53183 5.3032 0
M  V30 6601 H 627.04 -0.0199841 4.16095 0
M  V30 6602 H 625.916 -0.470394 5.46881 0
M  V30 6603 H 626.177 -1.57726 4.13007 0
M  V30 6604 N 625.236 -1.5273 0.388769 0
M  V30 6605 C 626.199 -2.25043 -0.434544 0
M  V30 6606 C 627.199 -1.26661 -0.990644 0
M  V30 6607 O 628.389 -1.50762 -0.872731 0
M  V30 6608 C 625.521 -3.00507 -1.60961 0
M  V30 6609 H 626.714 -2.99242 0.198549 0
M  V30 6610 H 624.267 -1.55664 0.140875 0
M  V30 6611 H 625.002 -2.30607 -2.28015 0
M  V30 6612 H 624.787 -3.72716 -1.21757 0
M  V30 6613 H 626.277 -3.55413 -2.19251 0
M  V30 6614 N 626.714 -0.118576 -1.57153 0
M  V30 6615 C 627.624 0.845484 -2.18835 0
M  V30 6616 C 628.64 1.29299 -1.16438 0
M  V30 6617 O 629.816 1.35607 -1.48905 0
M  V30 6618 C 626.881 2.07795 -2.77529 0
M  V30 6619 C 625.942 1.6824 -3.9496 0
M  V30 6620 C 625.175 2.85612 -4.50845 0
M  V30 6621 O 625.398 4.01025 -4.05629 0
M  V30 6622 O 624.332 2.62721 -5.41536 0
M  V30 6623 H 628.158 0.350568 -3.0167 0
M  V30 6624 H 625.743 0.107013 -1.49016 0
M  V30 6625 H 627.625 2.79978 -3.14945 0
M  V30 6626 H 626.3 2.56294 -1.97725 0
M  V30 6627 H 625.207 0.931663 -3.62313 0
M  V30 6628 H 626.54 1.24484 -4.76198 0
M  V30 6629 N 628.193 1.56834 0.155195 0
M  V30 6630 C 629.442 1.82088 0.867567 0
M  V30 6631 C 629.755 0.69849 1.82703 0
M  V30 6632 O 630.961 0.836407 2.58295 0
M  V30 6633 C 629.417 3.22707 1.59336 0
M  V30 6634 C 629.025 4.42859 0.676719 0
M  V30 6635 C 630.769 3.57242 2.293 0
M  V30 6636 C 628.676 5.74501 1.40367 0
M  V30 6637 H 627.606 0.679057 0.327715 0
M  V30 6638 H 630.257 1.83105 0.120351 0
M  V30 6639 H 628.639 3.16054 2.38591 0
M  V30 6640 H 629.813 4.60731 -0.0800196 0
M  V30 6641 H 628.128 4.16311 0.0859129 0
M  V30 6642 H 630.725 4.52847 2.84312 0
M  V30 6643 H 631.068 2.82901 3.05406 0
M  V30 6644 H 631.601 3.6552 1.56972 0
M  V30 6645 H 628.34 6.51915 0.684623 0
M  V30 6646 H 627.86 5.60579 2.13332 0
M  V30 6647 H 629.539 6.17016 1.94681 0
M  V30 6648 N 629.671 -0.424282 1.51781 0
M  V30 6649 C 630.634 -1.49848 1.73431 0
M  V30 6650 C 631.634 -1.49016 0.604225 0
M  V30 6651 O 632.824 -1.50808 0.871935 0
M  V30 6652 C 629.956 -2.89332 1.80277 0
M  V30 6653 H 631.149 -1.3195 2.69312 0
M  V30 6654 H 628.702 -0.653809 1.41968 0
M  V30 6655 H 629.437 -3.12618 0.862568 0
M  V30 6656 H 629.222 -2.9134 2.62419 0
M  V30 6657 H 630.712 -3.67233 1.98821 0
M  V30 6658 N 631.149 -1.42148 -0.680565 0
M  V30 6659 C 632.097 -1.45401 -1.81552 0
M  V30 6660 C 633.091 -0.33036 -1.66147 0
M  V30 6661 O 634.297 -0.503103 -1.72826 0
M  V30 6662 H 630.672 -0.455265 -0.59853 0
M  V30 6663 H 632.643 -2.41024 -1.75926 0
M  V30 6664 C 631.392 -1.36769 -3.19671 0
M  V30 6665 H 630.715 -2.22525 -3.32149 0
M  V30 6666 H 632.155 -1.43106 -3.9912 0
M  V30 6667 C 630.614 -0.0817752 -3.36801 0
M  V30 6668 O 631.144 0.867707 -3.92216 0
M  V30 6669 N 629.35 -0.000799811 -2.906 0
M  V30 6670 H 628.897 -0.774231 -2.4569 0
M  V30 6671 H 628.855 0.858961 -3.02439 0
M  V30 6672 N 632.627 0.916307 -1.28225 0
M  V30 6673 C 633.873 1.66765 -1.154 0
M  V30 6674 C 634.206 1.91912 0.297251 0
M  V30 6675 O 633.481 1.51766 1.21644 0
M  V30 6676 C 633.764 3.02715 -1.95028 0
M  V30 6677 C 633.617 2.84738 -3.48201 0
M  V30 6678 C 634.936 4.03215 -1.76369 0
M  V30 6679 H 632.055 0.605205 -0.42059 0
M  V30 6680 H 634.697 1.06255 -1.57512 0
M  V30 6681 H 632.847 3.54365 -1.59242 0
M  V30 6682 H 634.519 2.40118 -3.9388 0
M  V30 6683 H 632.762 2.19848 -3.73964 0
M  V30 6684 H 633.433 3.8127 -3.99171 0
M  V30 6685 H 635.909 3.60617 -2.07593 0
M  V30 6686 H 634.785 4.96306 -2.34459 0
M  V30 6687 H 635.046 4.36288 -0.71452 0
M  V30 6688 N 634.105 1.10431 1.1244 0
M  V30 6689 C 635.351 0.847972 1.84221 0
M  V30 6690 C 635.684 -0.624903 1.83871 0
M  V30 6691 O 634.959 -1.46074 1.28423 0
M  V30 6692 C 635.242 1.39695 3.319 0
M  V30 6693 C 635.095 2.93668 3.40704 0
M  V30 6694 C 636.414 1.03924 4.27654 0
M  V30 6695 H 633.533 0.309502 0.668863 0
M  V30 6696 H 636.175 1.36745 1.31912 0
M  V30 6697 H 634.325 0.955095 3.76577 0
M  V30 6698 H 635.997 3.46379 3.04662 0
M  V30 6699 H 634.24 3.30272 2.81252 0
M  V30 6700 H 634.911 3.27162 4.446 0
M  V30 6701 H 637.387 1.42049 3.91102 0
M  V30 6702 H 636.263 1.45027 5.29394 0
M  V30 6703 H 636.524 -0.051336 4.4207 0
M  V30 6704 N 635.583 -1.29855 0.893053 0
M  V30 6705 C 636.515 -2.26911 0.32311 0
M  V30 6706 C 637.528 -1.54039 -0.526858 0
M  V30 6707 O 638.717 -1.75132 -0.345095 0
M  V30 6708 C 635.817 -3.34266 -0.558509 0
M  V30 6709 C 634.99 -4.36601 0.264222 0
M  V30 6710 C 634.049 -5.23326 -0.549171 0
M  V30 6711 O 633.075 -5.69192 0.0309883 0
M  V30 6712 N 634.277 -5.50008 -1.85664 0
M  V30 6713 H 637.042 -2.76455 1.15726 0
M  V30 6714 H 634.603 -1.4312 0.756859 0
M  V30 6715 H 636.595 -3.89211 -1.1089 0
M  V30 6716 H 635.165 -2.8459 -1.29334 0
M  V30 6717 H 634.385 -3.81409 0.996046 0
M  V30 6718 H 635.673 -5.02019 0.827906 0
M  V30 6719 H 635.071 -5.14542 -2.35081 0
M  V30 6720 H 633.628 -6.07796 -2.35431 0
M  V30 6721 N 637.061 -0.65484 -1.43351 0
M  V30 6722 C 638.008 0.0357713 -2.30772 0
M  V30 6723 C 638.978 0.813035 -1.44841 0
M  V30 6724 O 640.163 0.789314 -1.73708 0
M  V30 6725 C 637.303 0.995084 -3.30442 0
M  V30 6726 C 636.416 0.21375 -4.31471 0
M  V30 6727 C 635.551 1.16701 -5.18222 0
M  V30 6728 C 634.59 0.376201 -6.10943 0
M  V30 6729 N 633.727 1.28113 -6.90313 0
M  V30 6730 H 638.567 -0.71559 -2.89281 0
M  V30 6731 H 636.104 -0.364645 -1.42509 0
M  V30 6732 H 638.062 1.5649 -3.86739 0
M  V30 6733 H 636.692 1.7133 -2.7358 0
M  V30 6734 H 635.744 -0.472377 -3.77456 0
M  V30 6735 H 637.056 -0.401103 -4.97185 0
M  V30 6736 H 636.21 1.8074 -5.79153 0
M  V30 6737 H 634.949 1.81577 -4.52638 0
M  V30 6738 H 633.954 -0.277534 -5.49099 0
M  V30 6739 H 635.179 -0.268178 -6.7857 0
M  V30 6740 H 633.125 1.91666 -6.27376 0
M  V30 6741 H 633.042 0.720879 -7.52555 0
M  V30 6742 H 634.31 1.90962 -7.55747 0
M  V30 6743 N 638.539 1.52521 -0.396863 0
M  V30 6744 C 639.486 2.26671 0.434624 0
M  V30 6745 C 640.456 1.28584 1.05144 0
M  V30 6746 O 641.641 1.57426 1.07804 0
M  V30 6747 C 638.781 3.08234 1.55196 0
M  V30 6748 C 637.894 4.21261 0.957262 0
M  V30 6749 C 637.029 4.90205 2.04627 0
M  V30 6750 C 636.068 5.95213 1.42787 0
M  V30 6751 N 635.205 6.57723 2.45651 0
M  V30 6752 H 640.045 2.973 -0.204139 0
M  V30 6753 H 637.582 1.46669 -0.112505 0
M  V30 6754 H 639.54 3.53819 2.2106 0
M  V30 6755 H 638.17 2.398 2.16092 0
M  V30 6756 H 637.222 3.79935 0.188005 0
M  V30 6757 H 638.534 4.96624 0.465416 0
M  V30 6758 H 637.688 5.39133 2.78246 0
M  V30 6759 H 636.427 4.14383 2.57174 0
M  V30 6760 H 635.432 5.45616 0.676968 0
M  V30 6761 H 636.657 6.72972 0.910255 0
M  V30 6762 H 634.603 5.84737 2.97353 0
M  V30 6763 H 634.52 7.28723 2.01243 0
M  V30 6764 H 635.788 7.11293 3.18876 0
M  V30 6765 N 640.017 0.126909 1.57088 0
M  V30 6766 C 641.294 -0.573152 1.87014 0
M  V30 6767 C 641.674 -1.84297 1.02945 0
M  V30 6768 O 641.022 -2.28232 0.110573 0
M  V30 6769 C 641.232 -0.857984 3.38289 0
M  V30 6770 C 642.58 -1.20759 4.07066 0
M  V30 6771 O 643.604 -0.947992 3.43353 0
M  V30 6772 O 642.463 -1.69516 5.19545 0
M  V30 6773 H 639.557 -0.290082 0.774456 0
M  V30 6774 H 642.103 0.162008 1.68925 0
M  V30 6775 H 640.875 0.0415286 3.91278 0
M  V30 6776 H 640.498 -1.64803 3.61837 0
M  V30 6777 N 641.495 -1.56914 -0.146875 0
M  V30 6778 C 642.425 -2.01308 -1.1831 0
M  V30 6779 C 643.406 -0.892664 -1.44795 0
M  V30 6780 O 644.591 -1.16048 -1.55713 0
M  V30 6781 C 641.721 -2.3938 -2.51624 0
M  V30 6782 C 640.675 -3.54608 -2.3966 0
M  V30 6783 C 640.001 -3.78493 -3.77686 0
M  V30 6784 C 641.301 -4.87269 -1.88058 0
M  V30 6785 H 642.995 -2.88123 -0.813964 0
M  V30 6786 H 640.541 -1.38615 -0.3901 0
M  V30 6787 H 642.494 -2.69037 -3.24341 0
M  V30 6788 H 641.218 -1.49502 -2.90373 0
M  V30 6789 H 639.877 -3.25116 -1.69396 0
M  V30 6790 H 639.525 -2.85866 -4.13871 0
M  V30 6791 H 639.225 -4.56039 -3.70543 0
M  V30 6792 H 640.749 -4.10576 -4.51951 0
M  V30 6793 H 642.163 -5.15644 -2.50568 0
M  V30 6794 H 640.56 -5.68622 -1.91805 0
M  V30 6795 H 641.63 -4.77634 -0.836277 0
M  V30 6796 N 642.974 0.416227 -1.52004 0
M  V30 6797 C 644.222 1.16153 -1.65387 0
M  V30 6798 C 644.543 1.91208 -0.382669 0
M  V30 6799 O 643.813 1.86413 0.602231 0
M  V30 6800 H 642.393 0.431765 -0.60958 0
M  V30 6801 H 645.055 0.475151 -1.89019 0
M  V30 6802 H 644.151 1.87952 -2.4916 0
M  V30 6803 N 644.452 1.42507 0.673017 0
M  V30 6804 C 645.868 1.25472 0.986355 0
M  V30 6805 C 646.068 0.160181 2.00862 0
M  V30 6806 O 645.124 -0.467993 2.48125 0
M  V30 6807 C 646.437 2.61219 1.48947 0
M  V30 6808 C 647.985 2.68589 1.60715 0
M  V30 6809 C 648.46 4.04707 2.14422 0
M  V30 6810 N 649.951 4.0667 2.21752 0
M  V30 6811 C 650.686 5.0881 2.64386 0
M  V30 6812 N 650.182 6.21332 3.0646 0
M  V30 6813 N 651.975 4.96166 2.64151 0
M  V30 6814 H 644.126 2.124 -0.00378532 0
M  V30 6815 H 646.389 0.946046 0.0608367 0
M  V30 6816 H 646.095 3.42179 0.812812 0
M  V30 6817 H 645.969 2.85261 2.46791 0
M  V30 6818 H 648.356 1.87974 2.27486 0
M  V30 6819 H 648.437 2.48333 0.613552 0
M  V30 6820 H 648.081 4.8578 1.48258 0
M  V30 6821 H 648.011 4.22315 3.14575 0
M  V30 6822 H 650.502 3.25438 1.92089 0
M  V30 6823 H 650.815 6.95118 3.37684 0
M  V30 6824 H 649.16 6.24835 3.04313 0
M  V30 6825 H 652.351 4.07334 2.30644 0
M  V30 6826 H 652.524 5.759 2.97057 0
M  V30 6827 N 645.93 -0.909495 1.28709 0
M  V30 6828 C 647.155 -1.69801 1.1909 0
M  V30 6829 C 647.58 -1.86479 -0.246388 0
M  V30 6830 O 646.938 -1.37802 -1.17815 0
M  V30 6831 C 646.986 -3.06543 1.89904 0
M  V30 6832 O 646.09 -3.94268 1.2094 0
M  V30 6833 H 645.431 -0.519783 0.413185 0
M  V30 6834 H 647.961 -1.13689 1.70106 0
M  V30 6835 H 647.971 -3.56748 1.97977 0
M  V30 6836 H 646.646 -2.93722 2.94449 0
M  V30 6837 H 645.223 -3.52702 1.2106 0
M  V30 6838 N 647.408 -1.11026 -1.11852 0
M  V30 6839 C 648.685 -0.768347 -1.79877 0
M  V30 6840 C 649.065 0.744261 -1.97545 0
M  V30 6841 O 648.413 1.67271 -1.55669 0
M  V30 6842 C 648.623 -1.52648 -3.13846 0
M  V30 6843 C 649.971 -1.70297 -3.88953 0
M  V30 6844 O 650.995 -1.49037 -3.23522 0
M  V30 6845 O 649.854 -2.05593 -5.06353 0
M  V30 6846 H 646.948 -0.277891 -0.778913 0
M  V30 6847 H 649.494 -1.21343 -1.18633 0
M  V30 6848 H 648.266 -2.55564 -2.96315 0
M  V30 6849 H 647.889 -1.07466 -3.82801 0
M  V30 6850 N 648.886 1.2938 -0.899927 0
M  V30 6851 C 649.849 2.25983 -0.382677 0
M  V30 6852 C 650.849 1.53366 0.483259 0
M  V30 6853 O 652.039 1.71798 0.28828 0
M  V30 6854 C 649.171 3.37878 0.452915 0
M  V30 6855 H 650.364 2.73252 -1.23586 0
M  V30 6856 H 647.917 1.40825 -0.678088 0
M  V30 6857 H 648.652 2.95949 1.32608 0
M  V30 6858 H 648.437 3.91742 -0.167562 0
M  V30 6859 H 649.927 4.09746 0.806107 0
M  V30 6860 N 650.364 0.662433 1.43002 0
M  V30 6861 C 651.78 0.330835 1.56133 0
M  V30 6862 C 651.98 -1.16454 1.64441 0
M  V30 6863 O 651.036 -1.94964 1.60453 0
M  V30 6864 C 652.349 1.05029 2.81761 0
M  V30 6865 C 653.897 1.03142 2.95518 0
M  V30 6866 C 654.372 1.73196 4.2399 0
M  V30 6867 N 655.863 1.70004 4.30875 0
M  V30 6868 C 656.598 2.21074 5.29069 0
M  V30 6869 N 656.094 2.80473 6.33488 0
M  V30 6870 N 657.887 2.1152 5.20784 0
M  V30 6871 H 650.038 1.63272 1.35853 0
M  V30 6872 H 652.301 0.687149 0.653092 0
M  V30 6873 H 652.007 2.10542 2.81718 0
M  V30 6874 H 651.881 0.607664 3.72273 0
M  V30 6875 H 654.268 -0.0153339 2.95096 0
M  V30 6876 H 654.349 1.51282 2.0627 0
M  V30 6877 H 653.993 2.77833 4.25172 0
M  V30 6878 H 653.923 1.22515 5.1215 0
M  V30 6879 H 656.414 1.26667 3.56039 0
M  V30 6880 H 656.727 3.17094 7.04749 0
M  V30 6881 H 655.072 2.84538 6.34085 0
M  V30 6882 H 658.263 1.64814 4.38126 0
M  V30 6883 H 658.436 2.51629 5.97149 0
M  V30 6884 N 651.842 -1.52309 0.404946 0
M  V30 6885 C 652.752 -2.30634 -0.429555 0
M  V30 6886 C 653.768 -1.38187 -1.05737 0
M  V30 6887 O 654.944 -1.71261 -1.05979 0
M  V30 6888 C 652.009 -3.10947 -1.53339 0
M  V30 6889 C 651.07 -4.19126 -0.929065 0
M  V30 6890 C 650.303 -4.95601 -1.9803 0
M  V30 6891 O 650.526 -4.72331 -3.1978 0
M  V30 6892 O 649.46 -5.80551 -1.58886 0
M  V30 6893 H 653.286 -3.0298 0.208963 0
M  V30 6894 H 650.871 -1.4845 0.168255 0
M  V30 6895 H 652.753 -3.60974 -2.1743 0
M  V30 6896 H 651.428 -2.41399 -2.15658 0
M  V30 6897 H 650.335 -3.73257 -0.250982 0
M  V30 6898 H 651.668 -4.90955 -0.349855 0
M  V30 6899 N 653.32 -0.135238 -1.57019 0
M  V30 6900 C 654.568 0.51777 -1.95355 0
M  V30 6901 C 654.889 1.6617 -1.02042 0
M  V30 6902 O 654.159 1.95738 -0.0797343 0
M  V30 6903 H 652.739 0.194264 -0.721298 0
M  V30 6904 H 655.401 -0.207983 -1.93787 0
M  V30 6905 H 654.497 0.901675 -2.98791 0
M  V30 6906 N 654.798 1.5699 0.138552 0
M  V30 6907 C 655.761 1.97984 1.15478 0
M  V30 6908 C 656.761 0.867416 1.35398 0
M  V30 6909 O 657.951 1.13387 1.32246 0
M  V30 6910 C 655.083 2.3031 2.51337 0
M  V30 6911 H 656.276 2.88953 0.802896 0
M  V30 6912 H 653.829 1.51555 0.382189 0
M  V30 6913 H 654.564 1.42159 2.91481 0
M  V30 6914 H 654.349 3.11425 2.38237 0
M  V30 6915 H 655.839 2.62834 3.24512 0
M  V30 6916 N 656.276 -0.40816 1.52223 0
M  V30 6917 C 657.186 -1.52202 1.78526 0
M  V30 6918 C 658.202 -1.60546 0.670892 0
M  V30 6919 O 659.378 -1.77242 0.956404 0
M  V30 6920 C 656.443 -2.87928 1.93128 0
M  V30 6921 C 655.504 -2.89463 3.17033 0
M  V30 6922 C 654.737 -4.18715 3.30929 0
M  V30 6923 O 654.96 -5.12662 2.50067 0
M  V30 6924 O 653.894 -4.27125 4.24084 0
M  V30 6925 H 657.72 -1.32911 2.73072 0
M  V30 6926 H 655.305 -0.594112 1.37079 0
M  V30 6927 H 657.187 -3.68426 2.04549 0
M  V30 6928 H 655.862 -3.07285 1.01772 0
M  V30 6929 H 654.769 -2.07815 3.11069 0
M  V30 6930 H 656.102 -2.75055 4.08174 0
M  V30 6931 N 657.755 -1.42862 -0.66545 0
M  V30 6932 C 658.705 -1.43521 -1.7716 0
M  V30 6933 C 659.689 -0.305267 -1.57978 0
M  V30 6934 O 660.881 -0.548176 -1.68297 0
M  V30 6935 C 658.01 -1.34914 -3.15679 0
M  V30 6936 C 657.096 -2.5289 -3.40452 0
M  V30 6937 N 657.487 -3.78284 -3.3576 0
M  V30 6938 C 655.785 -2.47351 -3.71124 0
M  V30 6939 C 656.486 -4.56701 -3.60276 0
M  V30 6940 N 655.462 -3.87249 -3.81496 0
M  V30 6941 H 659.264 -2.38357 -1.7194 0
M  V30 6942 H 656.778 -1.37342 -0.866653 0
M  V30 6943 H 658.775 -1.33468 -3.94958 0
M  V30 6944 H 657.435 -0.410881 -3.2209 0
M  V30 6945 H 658.446 -4.10746 -3.15448 0
M  V30 6946 H 655.123 -1.62152 -3.84725 0
M  V30 6947 H 656.513 -5.65704 -3.6253 0
M  V30 6948 N 659.233 0.902656 -1.29189 0
M  V30 6949 C 660.143 2.03946 -1.15944 0
M  V30 6950 C 661.159 1.738 -0.0833803 0
M  V30 6951 O 662.335 1.9923 -0.29487 0
M  V30 6952 C 659.4 3.36519 -0.834006 0
M  V30 6953 C 658.461 3.80203 -1.9936 0
M  V30 6954 C 657.694 5.06449 -1.68359 0
M  V30 6955 O 657.917 5.67202 -0.603141 0
M  V30 6956 O 656.851 5.46114 -2.53067 0
M  V30 6957 H 660.677 2.18043 -2.11403 0
M  V30 6958 H 658.262 1.02584 -1.08613 0
M  V30 6959 H 660.144 4.16089 -0.666949 0
M  V30 6960 H 658.819 3.23573 0.0908245 0
M  V30 6961 H 657.726 3.01413 -2.21588 0
M  V30 6962 H 659.059 3.97729 -2.89952 0
M  V30 6963 N 660.711 1.11618 1.11262 0
M  V30 6964 C 662.127 0.850468 1.35053 0
M  V30 6965 C 662.327 -0.523868 1.94571 0
M  V30 6966 O 661.383 -1.2743 2.17986 0
M  V30 6967 C 662.696 1.96005 2.28041 0
M  V30 6968 C 664.244 1.98993 2.416 0
M  V30 6969 C 664.719 3.0916 3.37911 0
M  V30 6970 N 666.21 3.08547 3.45475 0
M  V30 6971 C 666.945 3.9043 4.19943 0
M  V30 6972 N 666.441 4.8228 4.97371 0
M  V30 6973 N 668.234 3.786 4.15474 0
M  V30 6974 H 660.385 2.00184 0.709932 0
M  V30 6975 H 662.648 0.870635 0.375099 0
M  V30 6976 H 662.354 2.9499 1.91503 0
M  V30 6977 H 662.228 1.85782 3.28275 0
M  V30 6978 H 664.615 1.00633 2.77411 0
M  V30 6979 H 664.696 2.13292 1.4121 0
M  V30 6980 H 664.34 4.07748 3.02827 0
M  V30 6981 H 664.27 2.92102 4.3816 0
M  V30 6982 H 666.761 2.42 2.90249 0
M  V30 6983 H 667.074 5.41289 5.51567 0
M  V30 6984 H 665.419 4.863 4.96525 0
M  V30 6985 H 668.61 3.06185 3.54074 0
M  V30 6986 H 668.783 4.42647 4.73253 0
M  V30 6987 N 662.189 -1.289 0.906776 0
M  V30 6988 C 663.437 -1.94883 0.535266 0
M  V30 6989 C 663.758 -1.71784 -0.922791 0
M  V30 6990 O 663.028 -1.05359 -1.65156 0
M  V30 6991 H 661.608 -0.721109 0.194962 0
M  V30 6992 H 664.27 -1.57018 1.15461 0
M  V30 6993 H 663.366 -3.03591 0.723821 0
M  V30 6994 N 663.667 -0.670007 -1.42649 0
M  V30 6995 C 664.615 0.0230106 -2.32589 0
M  V30 6996 C 665.609 0.795585 -1.49555 0
M  V30 6997 O 666.815 0.70409 -1.65658 0
M  V30 6998 H 663.19 0.0262342 -0.751542 0
M  V30 6999 H 665.161 -0.753009 -2.88743 0
M  V30 7000 C 663.91 0.963872 -3.34073 0
M  V30 7001 H 663.233 0.378813 -3.98001 0
M  V30 7002 H 664.673 1.41755 -3.99602 0
M  V30 7003 C 663.132 2.06797 -2.65964 0
M  V30 7004 O 663.662 3.15383 -2.48789 0
M  V30 7005 N 661.868 1.83831 -2.25066 0
M  V30 7006 H 661.415 0.955235 -2.39234 0
M  V30 7007 H 661.373 2.57895 -1.79827 0
M  V30 7008 N 665.145 1.52092 -0.413018 0
M  V30 7009 C 666.108 2.25706 0.398687 0
M  V30 7010 C 667.108 1.28221 0.970368 0
M  V30 7011 O 668.298 1.52131 0.848635 0
M  V30 7012 C 665.43 3.03029 1.5616 0
M  V30 7013 H 666.623 2.98888 -0.246131 0
M  V30 7014 H 664.176 1.5542 -0.165622 0
M  V30 7015 H 664.911 2.34205 2.24317 0
M  V30 7016 H 664.696 3.74606 1.15812 0
M  V30 7017 H 666.186 3.58857 2.13569 0
M  V30 7018 N 666.623 0.143563 1.56945 0
M  V30 7019 C 667.872 -0.50835 1.95189 0
M  V30 7020 C 668.185 -1.66239 1.03073 0
M  V30 7021 O 669.391 -2.3787 1.30882 0
M  V30 7022 C 667.847 -0.955735 3.46978 0
M  V30 7023 C 667.455 0.171183 4.47673 0
M  V30 7024 C 669.199 -1.57763 3.94095 0
M  V30 7025 C 667.106 -0.294279 5.90667 0
M  V30 7026 H 666.036 -0.193679 0.728701 0
M  V30 7027 H 668.687 0.227357 1.82086 0
M  V30 7028 H 667.069 -1.7466 3.55401 0
M  V30 7029 H 668.243 0.948049 4.50942 0
M  V30 7030 H 666.558 0.701273 4.10452 0
M  V30 7031 H 669.155 -1.93745 4.98364 0
M  V30 7032 H 669.498 -2.46531 3.35452 0
M  V30 7033 H 670.031 -0.851728 3.88575 0
M  V30 7034 H 666.77 0.557939 6.53121 0
M  V30 7035 H 666.29 -1.0371 5.90766 0
M  V30 7036 H 667.969 -0.747426 6.42668 0
M  V30 7037 N 668.101 -1.57061 -0.130224 0
M  V30 7038 C 669.031 -2.02552 -1.16168 0
M  V30 7039 C 670.012 -0.907971 -1.4384 0
M  V30 7040 O 671.197 -1.17693 -1.54473 0
M  V30 7041 C 668.327 -2.42035 -2.49071 0
M  V30 7042 C 667.281 -3.5713 -2.35886 0
M  V30 7043 C 666.607 -3.82478 -3.7365 0
M  V30 7044 C 667.907 -4.89236 -1.8288 0
M  V30 7045 H 669.601 -2.8897 -0.783359 0
M  V30 7046 H 667.147 -1.39021 -0.375376 0
M  V30 7047 H 669.1 -2.72462 -3.21469 0
M  V30 7048 H 667.824 -1.52573 -2.88771 0
M  V30 7049 H 666.483 -3.26895 -1.65938 0
M  V30 7050 H 666.131 -2.9024 -4.10816 0
M  V30 7051 H 665.831 -4.59944 -3.65685 0
M  V30 7052 H 667.355 -4.15347 -4.47571 0
M  V30 7053 H 668.769 -5.18272 -2.45085 0
M  V30 7054 H 667.166 -5.70624 -1.85763 0
M  V30 7055 H 668.236 -4.78494 -0.785571 0
M  V30 7056 N 669.579 0.400081 -1.52437 0
M  V30 7057 C 670.825 1.14788 -1.67187 0
M  V30 7058 C 671.158 1.89928 -0.405074 0
M  V30 7059 O 670.433 1.85118 0.596804 0
M  V30 7060 C 670.716 2.13507 -2.89977 0
M  V30 7061 C 670.569 1.42204 -4.2673 0
M  V30 7062 C 671.888 3.14069 -3.083 0
M  V30 7063 H 669.007 0.415939 -0.608411 0
M  V30 7064 H 671.649 0.432542 -1.85011 0
M  V30 7065 H 669.799 2.7451 -2.74912 0
M  V30 7066 H 671.471 0.842503 -4.53541 0
M  V30 7067 H 669.714 0.723939 -4.27717 0
M  V30 7068 H 670.385 2.14281 -5.08712 0
M  V30 7069 H 672.861 2.63148 -3.22323 0
M  V30 7070 H 671.737 3.80398 -3.95713 0
M  V30 7071 H 671.998 3.82309 -2.22018 0
M  V30 7072 N 671.057 1.43213 0.657864 0
M  V30 7073 C 672.473 1.26511 0.972992 0
M  V30 7074 C 672.673 0.181477 2.00681 0
M  V30 7075 O 671.729 -0.441649 2.48608 0
M  V30 7076 C 673.042 2.62784 1.46168 0
M  V30 7077 C 674.59 2.70278 1.57857 0
M  V30 7078 C 675.065 4.06958 2.10117 0
M  V30 7079 N 676.556 4.08999 2.17426 0
M  V30 7080 C 677.291 5.11585 2.58975 0
M  V30 7081 N 676.787 6.24548 2.99853 0
M  V30 7082 N 678.58 4.9894 2.58873 0
M  V30 7083 H 670.731 2.12384 -0.0263129 0
M  V30 7084 H 672.994 0.946638 0.0507992 0
M  V30 7085 H 672.7 3.43022 0.776474 0
M  V30 7086 H 672.574 2.87863 2.43751 0
M  V30 7087 H 674.961 1.90376 2.25479 0
M  V30 7088 H 675.042 2.4897 0.587179 0
M  V30 7089 H 674.686 4.87325 1.43098 0
M  V30 7090 H 674.616 4.25628 3.10078 0
M  V30 7091 H 677.107 3.27457 1.88627 0
M  V30 7092 H 677.42 6.98661 3.30292 0
M  V30 7093 H 675.765 6.28027 2.97669 0
M  V30 7094 H 678.956 4.09757 2.26311 0
M  V30 7095 H 679.129 5.79019 2.90932 0
M  V30 7096 N 672.536 -0.895792 1.29666 0
M  V30 7097 C 673.813 -1.62723 1.08538 0
M  V30 7098 C 674.193 -2.07848 -0.369119 0
M  V30 7099 O 673.541 -1.8372 -1.35864 0
M  V30 7100 C 673.751 -2.80505 2.07648 0
M  V30 7101 C 675.099 -3.51098 2.3878 0
M  V30 7102 O 676.123 -2.90679 2.05874 0
M  V30 7103 O 674.982 -4.60028 2.9502 0
M  V30 7104 H 672.076 -0.714692 0.416106 0
M  V30 7105 H 674.622 -0.943517 1.41053 0
M  V30 7106 H 673.394 -2.44386 3.05599 0
M  V30 7107 H 673.017 -3.5658 1.75887 0
M  V30 7108 N 674.014 -1.12206 -1.10668 0
M  V30 7109 C 675.43 -0.857619 -1.346 0
M  V30 7110 C 675.63 0.513542 -1.94846 0
M  V30 7111 O 674.686 1.26273 -2.18658 0
M  V30 7112 C 675.999 -1.97212 -2.26998 0
M  V30 7113 C 677.547 -2.00272 -2.40542 0
M  V30 7114 C 678.022 -3.10948 -3.36267 0
M  V30 7115 N 679.513 -3.10375 -3.43834 0
M  V30 7116 C 680.248 -3.92651 -4.17867 0
M  V30 7117 N 679.744 -4.84911 -4.94807 0
M  V30 7118 N 681.537 -3.80798 -4.1346 0
M  V30 7119 H 673.688 -2.00558 -0.699306 0
M  V30 7120 H 675.951 -0.872612 -0.370477 0
M  V30 7121 H 675.657 -2.96002 -1.89936 0
M  V30 7122 H 675.531 -1.87521 -3.27286 0
M  V30 7123 H 677.918 -1.02103 -2.76874 0
M  V30 7124 H 677.999 -2.14037 -1.40077 0
M  V30 7125 H 677.643 -4.09348 -3.00661 0
M  V30 7126 H 677.573 -2.94421 -4.36605 0
M  V30 7127 H 680.064 -2.43536 -2.88961 0
M  V30 7128 H 680.377 -5.44207 -5.48688 0
M  V30 7129 H 678.722 -4.88926 -4.93939 0
M  V30 7130 H 681.913 -3.08058 -3.52445 0
M  V30 7131 H 682.086 -4.4515 -4.70898 0
M  V30 7132 N 675.492 1.28418 -0.913599 0
M  V30 7133 C 676.741 1.94265 -0.542572 0
M  V30 7134 C 677.054 1.72709 0.918207 0
M  V30 7135 O 678.26 2.32778 1.39738 0
M  V30 7136 C 676.716 3.47956 -0.919507 0
M  V30 7137 C 676.324 3.78291 -2.4 0
M  V30 7138 C 678.068 4.19962 -0.619057 0
M  V30 7139 C 675.975 5.2529 -2.71707 0
M  V30 7140 H 674.905 0.727213 -0.199192 0
M  V30 7141 H 677.556 1.45931 -1.11249 0
M  V30 7142 H 675.938 3.9502 -0.278372 0
M  V30 7143 H 677.112 3.42035 -3.08786 0
M  V30 7144 H 675.427 3.19456 -2.67089 0
M  V30 7145 H 678.024 5.28178 -0.832623 0
M  V30 7146 H 678.367 4.13935 0.443126 0
M  V30 7147 H 678.9 3.78674 -1.21865 0
M  V30 7148 H 675.639 5.36394 -3.76778 0
M  V30 7149 H 675.159 5.62743 -2.07559 0
M  V30 7150 H 676.838 5.93027 -2.58703 0
M  V30 7151 N 676.97 0.677563 1.42291 0
M  V30 7152 C 677.92 -0.0218641 2.2799 0
M  V30 7153 C 678.904 -0.770816 1.41235 0
M  V30 7154 O 680.096 -0.649273 1.64662 0
M  V30 7155 C 677.225 -0.970449 3.29298 0
M  V30 7156 C 676.311 -0.218695 4.23536 0
M  V30 7157 N 676.702 0.777908 4.99782 0
M  V30 7158 C 675 -0.456748 4.43655 0
M  V30 7159 C 675.701 1.22632 5.68627 0
M  V30 7160 N 674.677 0.55573 5.40752 0
M  V30 7161 H 678.479 0.742516 2.84366 0
M  V30 7162 H 675.993 0.506862 1.54288 0
M  V30 7163 H 677.99 -1.48652 3.89497 0
M  V30 7164 H 676.65 -1.73463 2.74483 0
M  V30 7165 H 677.661 1.15754 5.04798 0
M  V30 7166 H 674.338 -1.20021 3.99877 0
M  V30 7167 H 675.728 2.05231 6.39789 0
M  V30 7168 N 678.448 -1.51871 0.421078 0
M  V30 7169 C 679.395 -2.27334 -0.398508 0
M  V30 7170 C 680.365 -1.30241 -1.03085 0
M  V30 7171 O 681.55 -1.59121 -1.05285 0
M  V30 7172 C 678.69 -3.10664 -1.50272 0
M  V30 7173 C 677.803 -4.2273 -0.890122 0
M  V30 7174 C 676.938 -4.93399 -1.96803 0
M  V30 7175 C 675.977 -5.97409 -1.333 0
M  V30 7176 N 675.114 -6.61548 -2.35156 0
M  V30 7177 H 679.954 -2.96938 0.251411 0
M  V30 7178 H 677.491 -1.46472 0.135825 0
M  V30 7179 H 679.449 -3.57292 -2.15403 0
M  V30 7180 H 678.079 -2.43207 -2.1225 0
M  V30 7181 H 677.131 -3.80186 -0.127537 0
M  V30 7182 H 678.443 -4.97302 -0.386349 0
M  V30 7183 H 677.597 -5.43491 -2.69633 0
M  V30 7184 H 676.336 -4.18421 -2.50549 0
M  V30 7185 H 675.341 -5.46624 -0.59008 0
M  V30 7186 H 676.566 -6.74335 -0.803076 0
M  V30 7187 H 674.512 -5.89394 -2.88012 0
M  V30 7188 H 674.429 -7.31832 -1.89624 0
M  V30 7189 H 675.697 -7.16276 -3.0752 0
M  V30 7190 N 679.926 -0.151884 -1.56866 0
M  V30 7191 C 681.173 0.498004 -1.96281 0
M  V30 7192 C 681.501 1.64551 -1.03698 0
M  V30 7193 O 680.756 1.95585 -0.0671497 0
M  V30 7194 C 681.055 1.04074 -3.41911 0
M  V30 7195 C 680.721 0.0111688 -4.50899 0
M  V30 7196 C 679.383 -0.271844 -4.80432 0
M  V30 7197 C 681.735 -0.68869 -5.1663 0
M  V30 7198 C 679.063 -1.26044 -5.73001 0
M  V30 7199 C 681.415 -1.66613 -6.10264 0
M  V30 7200 C 680.079 -1.9568 -6.38174 0
M  V30 7201 H 679.349 0.182233 -0.718242 0
M  V30 7202 H 681.996 -0.239746 -1.89993 0
M  V30 7203 H 680.301 1.85592 -3.45055 0
M  V30 7204 H 681.998 1.55224 -3.69738 0
M  V30 7205 H 678.588 0.241932 -4.27917 0
M  V30 7206 H 682.772 -0.48324 -4.93942 0
M  V30 7207 H 678.028 -1.49202 -5.92915 0
M  V30 7208 H 682.202 -2.21392 -6.60272 0
M  V30 7209 H 679.829 -2.72434 -7.09707 0
M  V30 7210 N 681.404 1.57128 0.121893 0
M  V30 7211 C 682.354 1.96556 1.15541 0
M  V30 7212 C 683.338 0.840147 1.37224 0
M  V30 7213 O 684.53 1.10382 1.38365 0
M  V30 7214 C 681.659 2.37097 2.48274 0
M  V30 7215 C 680.745 3.56265 2.30078 0
M  V30 7216 N 681.136 4.72041 1.81688 0
M  V30 7217 C 679.434 3.61841 2.60744 0
M  V30 7218 C 680.135 5.54075 1.77132 0
M  V30 7219 N 679.111 4.96483 2.21371 0
M  V30 7220 H 682.913 2.83531 0.77378 0
M  V30 7221 H 680.427 1.59019 0.329672 0
M  V30 7222 H 682.424 2.6356 3.2302 0
M  V30 7223 H 681.084 1.51486 2.87197 0
M  V30 7224 H 682.095 4.95313 1.51278 0
M  V30 7225 H 678.772 2.8683 3.03373 0
M  V30 7226 H 680.162 6.56939 1.40998 0
M  V30 7227 N 682.882 -0.391992 1.52647 0
M  V30 7228 C 684.298 -0.731848 1.41831 0
M  V30 7229 C 684.498 -1.9423 0.536361 0
M  V30 7230 O 683.554 -2.52499 0.00866571 0
M  V30 7231 C 684.867 -0.969743 2.84634 0
M  V30 7232 C 686.415 -1.0714 2.94092 0
M  V30 7233 C 686.89 -1.34195 4.37899 0
M  V30 7234 N 688.381 -1.41023 4.41211 0
M  V30 7235 C 689.116 -1.63616 5.49561 0
M  V30 7236 N 688.612 -1.83699 6.68002 0
M  V30 7237 N 690.405 -1.65771 5.371 0
M  V30 7238 H 682.556 0.404547 2.08512 0
M  V30 7239 H 684.819 0.11879 0.940528 0
M  V30 7240 H 684.525 -0.152465 3.51369 0
M  V30 7241 H 684.399 -1.88523 3.26709 0
M  V30 7242 H 686.786 -1.87925 2.27526 0
M  V30 7243 H 686.867 -0.133887 2.55449 0
M  V30 7244 H 686.511 -0.539207 5.0503 0
M  V30 7245 H 686.441 -2.29226 4.74092 0
M  V30 7246 H 688.932 -1.27223 3.55841 0
M  V30 7247 H 689.245 -2.00437 7.46354 0
M  V30 7248 H 687.59 -1.8093 6.71036 0
M  V30 7249 H 690.781 -1.4963 4.43541 0
M  V30 7250 H 690.954 -1.83038 6.21612 0
M  V30 7251 N 684.36 -1.4356 -0.65026 0
M  V30 7252 C 685.29 -1.51758 -1.77459 0
M  V30 7253 C 686.271 -0.372019 -1.65982 0
M  V30 7254 O 687.456 -0.589627 -1.85033 0
M  V30 7255 C 684.586 -1.44302 -3.15902 0
M  V30 7256 C 683.54 -2.57138 -3.42146 0
M  V30 7257 C 682.866 -2.34735 -4.8042 0
M  V30 7258 C 684.166 -3.99373 -3.36598 0
M  V30 7259 H 685.86 -2.45863 -1.70855 0
M  V30 7260 H 683.406 -1.18333 -0.820566 0
M  V30 7261 H 685.359 -1.48641 -3.94314 0
M  V30 7262 H 684.083 -0.467026 -3.23244 0
M  V30 7263 H 682.742 -2.52157 -2.66106 0
M  V30 7264 H 682.39 -1.35372 -4.84441 0
M  V30 7265 H 682.09 -3.10375 -4.9894 0
M  V30 7266 H 683.614 -2.40862 -5.61086 0
M  V30 7267 H 685.028 -4.05826 -4.04942 0
M  V30 7268 H 683.425 -4.75063 -3.66654 0
M  V30 7269 H 684.495 -4.243 -2.34729 0
M  V30 7270 N 685.838 0.888903 -1.30139 0
M  V30 7271 C 687.084 1.6428 -1.18912 0
M  V30 7272 C 687.417 1.92499 0.256477 0
M  V30 7273 O 686.692 1.54312 1.18397 0
M  V30 7274 C 686.975 2.9851 -2.01405 0
M  V30 7275 C 686.828 2.77288 -3.54163 0
M  V30 7276 C 688.147 3.99383 -1.84882 0
M  V30 7277 H 685.266 0.596148 -0.433333 0
M  V30 7278 H 687.908 1.0289 -1.5973 0
M  V30 7279 H 686.058 3.50907 -1.66722 0
M  V30 7280 H 687.73 2.31709 -3.98884 0
M  V30 7281 H 685.973 2.11867 -3.78543 0
M  V30 7282 H 686.644 3.72717 -4.07168 0
M  V30 7283 H 689.12 3.56132 -2.15196 0
M  V30 7284 H 687.996 4.91222 -2.44934 0
M  V30 7285 H 688.257 4.34674 -0.806902 0
M  V30 7286 N 687.317 1.12792 1.10072 0
M  V30 7287 C 688.542 0.908838 1.86427 0
M  V30 7288 C 688.967 -0.536793 1.80278 0
M  V30 7289 O 688.325 -1.38033 1.17543 0
M  V30 7290 C 688.373 1.39295 3.3261 0
M  V30 7291 O 687.477 0.573846 4.08388 0
M  V30 7292 H 686.818 0.326234 0.578331 0
M  V30 7293 H 689.348 1.50094 1.39043 0
M  V30 7294 H 689.358 1.39366 3.83459 0
M  V30 7295 H 688.033 2.44555 3.36401 0
M  V30 7296 H 686.61 0.640438 3.67359 0
M  V30 7297 N 688.795 -1.27931 0.920396 0
M  V30 7298 C 690.023 -1.98805 0.573087 0
M  V30 7299 C 690.438 -1.68724 -0.847201 0
M  V30 7300 O 689.795 -0.943699 -1.56207 0
M  V30 7301 C 689.846 -3.52971 0.780633 0
M  V30 7302 O 689.567 -3.81994 2.14504 0
M  V30 7303 C 691.068 -4.411 0.44105 0
M  V30 7304 H 688.288 -0.634651 0.21785 0
M  V30 7305 H 690.832 -1.62965 1.23542 0
M  V30 7306 H 688.987 -3.87048 0.165204 0
M  V30 7307 H 689.401 -4.76609 2.18962 0
M  V30 7308 H 690.875 -5.48312 0.637006 0
M  V30 7309 H 691.352 -4.34758 -0.62306 0
M  V30 7310 H 691.958 -4.12532 1.0343 0
M  V30 7311 N 690.273 -0.685099 -1.4193 0
M  V30 7312 C 691.203 -0.0273506 -2.33484 0
M  V30 7313 C 692.184 0.778366 -1.51246 0
M  V30 7314 O 693.369 0.733449 -1.79817 0
M  V30 7315 C 690.499 0.917272 -3.34968 0
M  V30 7316 C 689.453 0.21941 -4.27437 0
M  V30 7317 C 688.779 1.27768 -5.1921 0
M  V30 7318 C 690.079 -0.907894 -5.14349 0
M  V30 7319 H 691.773 -0.791994 -2.88735 0
M  V30 7320 H 689.319 -0.382308 -1.38832 0
M  V30 7321 H 691.272 1.38657 -3.97935 0
M  V30 7322 H 689.996 1.71346 -2.78043 0
M  V30 7323 H 688.655 -0.229757 -3.65879 0
M  V30 7324 H 688.303 2.06612 -4.58607 0
M  V30 7325 H 688.003 0.815803 -5.81909 0
M  V30 7326 H 689.527 1.7477 -5.85054 0
M  V30 7327 H 690.941 -0.519348 -5.70943 0
M  V30 7328 H 689.338 -1.2962 -5.85934 0
M  V30 7329 H 690.408 -1.75218 -4.52136 0
M  V30 7330 N 691.751 1.51645 -0.429126 0
M  V30 7331 C 693.167 1.59394 -0.080994 0
M  V30 7332 C 693.367 1.44064 1.40882 0
M  V30 7333 O 692.423 1.27771 2.17786 0
M  V30 7334 C 693.736 2.94779 -0.593773 0
M  V30 7335 C 695.284 3.08067 -0.553494 0
M  V30 7336 C 695.759 4.45963 -1.04311 0
M  V30 7337 N 697.25 4.5226 -1.00076 0
M  V30 7338 C 697.985 5.57268 -1.35056 0
M  V30 7339 N 697.481 6.69734 -1.77282 0
M  V30 7340 N 699.274 5.47582 -1.26925 0
M  V30 7341 H 691.425 1.59856 -1.39857 0
M  V30 7342 H 693.688 0.753095 -0.575805 0
M  V30 7343 H 693.394 3.11342 -1.63583 0
M  V30 7344 H 693.268 3.77197 -0.0142202 0
M  V30 7345 H 695.655 2.91177 0.479556 0
M  V30 7346 H 695.736 2.27508 -1.16935 0
M  V30 7347 H 695.38 4.63598 -2.07459 0
M  V30 7348 H 695.31 5.25049 -0.403873 0
M  V30 7349 H 697.801 3.71537 -0.690564 0
M  V30 7350 H 698.114 7.4587 -2.02232 0
M  V30 7351 H 696.459 6.70963 -1.81202 0
M  V30 7352 H 699.65 4.58604 -0.93809 0
M  V30 7353 H 699.823 6.29308 -1.54516 0
M  V30 7354 N 693.229 0.160201 1.56784 0
M  V30 7355 C 694.64 -0.358417 1.83227 0
M  V30 7356 C 694.991 -1.63831 1.07952 0
M  V30 7357 O 694.116 -2.13885 0.328995 0
M  V30 7358 C 694.711 -0.657058 3.32368 0
M  V30 7359 C 693.27 -1.12015 3.59346 0
M  V30 7360 C 692.417 -0.15015 2.76893 0
M  V30 7361 H 695.368 0.384669 1.53967 0
M  V30 7362 H 695.389 -1.51033 3.49241 0
M  V30 7363 H 694.901 0.274647 3.87127 0
M  V30 7364 H 693.002 -2.06734 3.09987 0
M  V30 7365 H 693.115 -1.037 4.67743 0
M  V30 7366 H 691.479 -0.645361 2.46388 0
M  V30 7367 H 692.262 0.775379 3.34429 0
M  V30 7368 N 694.707 -1.5719 -0.113559 0
M  V30 7369 C 696.118 -1.74259 -0.670116 0
M  V30 7370 C 696.469 -0.779694 -1.80042 0
M  V30 7371 O 695.594 0.0461353 -2.16351 0
M  V30 7372 C 696.189 -3.15981 -1.22236 0
M  V30 7373 C 694.748 -3.34537 -1.72516 0
M  V30 7374 C 693.895 -2.70116 -0.627098 0
M  V30 7375 H 696.846 -1.58301 0.112396 0
M  V30 7376 H 696.867 -3.17832 -2.09197 0
M  V30 7377 H 696.379 -3.86038 -0.39949 0
M  V30 7378 H 694.48 -2.6953 -2.57263 0
M  V30 7379 H 694.593 -4.42737 -1.83086 0
M  V30 7380 H 692.957 -2.31501 -1.06204 0
M  V30 7381 H 693.74 -3.42802 0.184889 0
M  V30 7382 N 696.185 0.383891 -1.52853 0
M  V30 7383 C 697.095 1.49343 -1.80925 0
M  V30 7384 C 698.111 1.59458 -0.696348 0
M  V30 7385 O 699.287 1.75698 -0.984481 0
M  V30 7386 C 696.352 2.84819 -1.97684 0
M  V30 7387 C 695.413 2.84382 -3.21598 0
M  V30 7388 C 694.646 4.13397 -3.37548 0
M  V30 7389 O 694.869 5.08619 -2.58192 0
M  V30 7390 O 693.803 4.20325 -4.30826 0
M  V30 7391 H 697.629 1.2855 -2.75152 0
M  V30 7392 H 695.214 0.572229 -1.38007 0
M  V30 7393 H 697.096 3.65125 -2.10385 0
M  V30 7394 H 695.771 3.05627 -1.06647 0
M  V30 7395 H 694.678 2.0284 -3.14336 0
M  V30 7396 H 696.011 2.68526 -4.12498 0
M  V30 7397 N 697.663 1.43903 0.642637 0
M  V30 7398 C 698.888 1.49758 1.43483 0
M  V30 7399 C 699.313 0.119911 1.87717 0
M  V30 7400 O 698.671 -0.888558 1.58033 0
M  V30 7401 C 698.719 2.45744 2.63898 0
M  V30 7402 O 697.823 1.95101 3.63331 0
M  V30 7403 H 697.164 0.506138 0.429791 0
M  V30 7404 H 699.694 1.88923 0.785438 0
M  V30 7405 H 699.704 2.63399 3.11584 0
M  V30 7406 H 698.379 3.45818 2.31046 0
M  V30 7407 H 696.956 1.87158 3.22531 0
M  V30 7408 N 699.141 -0.881989 1.30609 0
M  V30 7409 C 700.557 -1.16576 1.09005 0
M  V30 7410 C 700.757 -2.00961 -0.14727 0
M  V30 7411 O 699.813 -2.38117 -0.840036 0
M  V30 7412 C 701.126 -1.86954 2.35518 0
M  V30 7413 C 702.674 -1.99706 2.41011 0
M  V30 7414 C 703.149 -2.73497 3.67374 0
M  V30 7415 N 704.64 -2.8104 3.68199 0
M  V30 7416 C 705.375 -3.38718 4.62664 0
M  V30 7417 N 704.871 -3.97421 5.67475 0
M  V30 7418 N 706.664 -3.36561 4.50203 0
M  V30 7419 H 698.815 -0.319398 2.09985 0
M  V30 7420 H 701.078 -0.204058 0.925778 0
M  V30 7421 H 700.784 -1.32393 3.2583 0
M  V30 7422 H 700.658 -2.87317 2.44395 0
M  V30 7423 H 703.045 -2.53436 1.51176 0
M  V30 7424 H 703.126 -0.984218 2.36108 0
M  V30 7425 H 702.77 -2.20438 4.57569 0
M  V30 7426 H 702.7 -3.75163 3.6954 0
M  V30 7427 H 705.191 -2.39365 2.92426 0
M  V30 7428 H 705.504 -4.39507 6.35652 0
M  V30 7429 H 703.849 -3.95832 5.71264 0
M  V30 7430 H 707.04 -2.8993 3.67503 0
M  V30 7431 H 707.213 -3.81215 5.24003 0
M  V30 7432 N 700.619 -1.13374 -1.09472 0
M  V30 7433 C 701.865 -0.896516 -1.81908 0
M  V30 7434 C 702.198 0.575933 -1.85463 0
M  V30 7435 O 701.473 1.42618 -1.32251 0
M  V30 7436 C 701.756 -1.48445 -3.28079 0
M  V30 7437 C 701.609 -3.02598 -3.32798 0
M  V30 7438 C 702.928 -1.15226 -4.24748 0
M  V30 7439 H 700.047 -0.327127 -0.660422 0
M  V30 7440 H 702.689 -1.40195 -1.2824 0
M  V30 7441 H 700.839 -1.0546 -3.73912 0
M  V30 7442 H 702.511 -3.54335 -2.95372 0
M  V30 7443 H 700.754 -3.37613 -2.72397 0
M  V30 7444 H 701.425 -3.38835 -4.3577 0
M  V30 7445 H 703.901 -1.52369 -3.87199 0
M  V30 7446 H 702.777 -1.59012 -5.25363 0
M  V30 7447 H 703.038 -0.0658891 -4.42051 0
M  V30 7448 N 702.098 1.27442 -0.927168 0
M  V30 7449 C 703.345 1.94391 -0.567324 0
M  V30 7450 C 703.673 1.72875 0.891321 0
M  V30 7451 O 702.928 1.05071 1.65102 0
M  V30 7452 C 703.227 3.47413 -0.838994 0
M  V30 7453 C 702.893 3.89049 -2.2793 0
M  V30 7454 C 701.555 4.00127 -2.67305 0
M  V30 7455 C 703.907 4.10154 -3.21595 0
M  V30 7456 C 701.235 4.29697 -3.99471 0
M  V30 7457 C 703.587 4.41208 -4.53341 0
M  V30 7458 C 702.251 4.50499 -4.92551 0
M  V30 7459 H 701.521 0.711325 -0.207598 0
M  V30 7460 H 704.168 1.51523 -1.17103 0
M  V30 7461 H 702.473 3.91503 -0.152609 0
M  V30 7462 H 704.17 3.97354 -0.53955 0
M  V30 7463 H 700.76 3.80962 -1.96381 0
M  V30 7464 H 704.944 4.01036 -2.92377 0
M  V30 7465 H 700.2 4.35099 -4.29533 0
M  V30 7466 H 704.374 4.56486 -5.25922 0
M  V30 7467 H 702.001 4.73167 -5.94994 0
M  V30 7468 N 703.576 0.692616 1.41565 0
M  V30 7469 C 704.801 0.229776 2.06123 0
M  V30 7470 C 705.226 -1.11119 1.5177 0
M  V30 7471 O 704.584 -1.69498 0.643444 0
M  V30 7472 C 704.632 0.19469 3.60074 0
M  V30 7473 O 703.736 -0.831366 4.03933 0
M  V30 7474 H 703.077 0.113002 0.654314 0
M  V30 7475 H 705.607 0.946645 1.81383 0
M  V30 7476 H 705.617 0.0245487 4.07993 0
M  V30 7477 H 704.292 1.17339 3.99004 0
M  V30 7478 H 702.869 -0.630819 3.67526 0
M  V30 7479 N 705.054 -1.51416 0.437162 0
M  V30 7480 C 705.984 -2.30631 -0.364922 0
M  V30 7481 C 706.965 -1.36037 -1.02118 0
M  V30 7482 O 708.15 -1.64956 -1.02485 0
M  V30 7483 C 705.28 -3.1482 -1.46648 0
M  V30 7484 C 704.234 -4.17691 -0.933717 0
M  V30 7485 C 703.56 -4.904 -2.13101 0
M  V30 7486 C 704.86 -5.2229 0.0317201 0
M  V30 7487 H 706.554 -2.97932 0.29614 0
M  V30 7488 H 704.1 -1.4328 0.143865 0
M  V30 7489 H 706.053 -3.69017 -2.03481 0
M  V30 7490 H 704.777 -2.4534 -2.15583 0
M  V30 7491 H 703.436 -3.64545 -0.387602 0
M  V30 7492 H 703.084 -4.17423 -2.80654 0
M  V30 7493 H 702.784 -5.59962 -1.78092 0
M  V30 7494 H 704.308 -5.4742 -2.70487 0
M  V30 7495 H 705.722 -5.7156 -0.446302 0
M  V30 7496 H 704.119 -5.99378 0.29437 0
M  V30 7497 H 705.189 -4.75131 0.968447 0
M  V30 7498 N 706.532 -0.168513 -1.56696 0
M  V30 7499 C 707.464 0.794249 -2.14998 0
M  V30 7500 C 708.477 1.1957 -1.10485 0
M  V30 7501 O 709.666 1.13604 -1.37682 0
M  V30 7502 C 706.766 2.08018 -2.67547 0
M  V30 7503 C 705.939 1.84274 -3.96689 0
M  V30 7504 C 704.998 2.97059 -4.3433 0
M  V30 7505 O 704.024 2.67815 -5.02259 0
M  V30 7506 N 705.226 4.24775 -3.9566 0
M  V30 7507 H 707.991 0.295832 -2.98236 0
M  V30 7508 H 705.552 0.0143611 -1.61894 0
M  V30 7509 H 707.544 2.82559 -2.89729 0
M  V30 7510 H 706.114 2.49059 -1.88914 0
M  V30 7511 H 705.334 0.936528 -3.82914 0
M  V30 7512 H 706.622 1.65773 -4.81037 0
M  V30 7513 H 706.02 4.51395 -3.40968 0
M  V30 7514 H 704.577 4.96027 -4.22848 0
M  V30 7515 N 708.01 1.57248 0.105221 0
M  V30 7516 C 708.942 1.98008 1.15436 0
M  V30 7517 C 709.955 0.881236 1.36887 0
M  V30 7518 O 711.144 1.15943 1.35718 0
M  V30 7519 C 708.244 2.27509 2.51183 0
M  V30 7520 C 707.417 3.58811 2.50147 0
M  V30 7521 C 706.476 3.76365 3.67745 0
M  V30 7522 O 705.502 4.48329 3.50699 0
M  V30 7523 N 706.704 3.16174 4.86841 0
M  V30 7524 H 709.469 2.88616 0.807519 0
M  V30 7525 H 707.03 1.59202 0.29433 0
M  V30 7526 H 709.022 2.36455 3.28438 0
M  V30 7527 H 707.592 1.42959 2.77995 0
M  V30 7528 H 706.812 3.60927 1.5851 0
M  V30 7529 H 708.1 4.45088 2.46524 0
M  V30 7530 H 707.498 2.57701 5.03594 0
M  V30 7531 H 706.055 3.30621 5.61723 0
M  V30 7532 N 709.488 -0.375779 1.53054 0
M  V30 7533 C 710.899 -0.95309 1.6054 0
M  V30 7534 C 711.25 -1.90575 0.466446 0
M  V30 7535 O 710.375 -2.12507 -0.408609 0
M  V30 7536 C 710.97 -1.73537 2.90982 0
M  V30 7537 C 709.529 -2.26218 3.00836 0
M  V30 7538 C 708.676 -1.07157 2.55759 0
M  V30 7539 H 711.627 -0.154895 1.57942 0
M  V30 7540 H 711.648 -2.59574 2.78211 0
M  V30 7541 H 711.16 -1.04176 3.73857 0
M  V30 7542 H 709.261 -2.98852 2.22527 0
M  V30 7543 H 709.374 -2.54799 4.05727 0
M  V30 7544 H 707.738 -1.43553 2.10391 0
M  V30 7545 H 708.521 -0.393099 3.41042 0
M  V30 7546 N 710.966 -1.44241 -0.634997 0
M  V30 7547 C 712.377 -1.41622 -1.21655 0
M  V30 7548 C 712.728 -0.129584 -1.95772 0
M  V30 7549 O 711.853 0.770225 -2.02229 0
M  V30 7550 C 712.448 -2.56557 -2.21278 0
M  V30 7551 C 711.007 -2.57145 -2.7487 0
M  V30 7552 C 710.154 -2.33354 -1.49804 0
M  V30 7553 H 713.105 -1.52878 -0.425905 0
M  V30 7554 H 713.126 -2.29089 -3.03807 0
M  V30 7555 H 712.638 -3.50186 -1.67306 0
M  V30 7556 H 710.739 -1.67447 -3.32855 0
M  V30 7557 H 710.852 -3.55507 -3.21172 0
M  V30 7558 H 709.216 -1.82372 -1.77799 0
M  V30 7559 H 709.999 -3.29092 -0.977402 0
M  V30 7560 N 712.444 0.87505 -1.31075 0
M  V30 7561 C 713.855 1.4433 -1.18431 0
M  V30 7562 C 714.206 1.9506 0.211189 0
M  V30 7563 O 713.331 1.85847 1.10859 0
M  V30 7564 C 713.926 2.62341 -2.14389 0
M  V30 7565 C 712.485 3.15225 -2.05694 0
M  V30 7566 C 711.632 1.87929 -2.03907 0
M  V30 7567 H 714.583 0.684061 -1.432 0
M  V30 7568 H 714.604 3.3887 -1.73053 0
M  V30 7569 H 714.116 2.25388 -3.15946 0
M  V30 7570 H 712.217 3.56812 -1.07314 0
M  V30 7571 H 712.33 3.77853 -2.94558 0
M  V30 7572 H 710.694 2.06679 -1.48849 0
M  V30 7573 H 711.477 1.53221 -3.07211 0
M  V30 7574 N 713.922 1.13953 1.08869 0
M  V30 7575 C 715.17 0.903023 1.80803 0
M  V30 7576 C 715.491 -0.572151 1.86417 0
M  V30 7577 O 714.761 -1.41589 1.35386 0
M  V30 7578 H 713.341 0.331099 0.669614 0
M  V30 7579 H 716.003 1.43719 1.31647 0
M  V30 7580 H 715.099 1.29881 2.83791 0
M  V30 7581 N 715.4 -1.26948 0.933913 0
M  V30 7582 C 716.31 -2.30366 0.443671 0
M  V30 7583 C 717.326 -1.67284 -0.478745 0
M  V30 7584 O 718.502 -1.98156 -0.360043 0
M  V30 7585 C 715.567 -3.45485 -0.289974 0
M  V30 7586 C 714.628 -4.24069 0.668114 0
M  V30 7587 C 713.861 -5.33691 -0.0306138 0
M  V30 7588 O 714.084 -5.5656 -1.24888 0
M  V30 7589 O 713.018 -5.98441 0.644384 0
M  V30 7590 H 716.844 -2.74349 1.30254 0
M  V30 7591 H 714.429 -1.32012 0.699506 0
M  V30 7592 H 716.311 -4.15486 -0.70353 0
M  V30 7593 H 714.986 -3.03546 -1.12435 0
M  V30 7594 H 713.893 -3.56579 1.13147 0
M  V30 7595 H 715.226 -4.69739 1.46989 0
M  V30 7596 N 716.879 -0.700114 -1.41195 0
M  V30 7597 C 718.127 -0.232546 -2.00758 0
M  V30 7598 C 718.448 1.1734 -1.55745 0
M  V30 7599 O 717.718 1.79262 -0.790058 0
M  V30 7600 H 716.298 -0.0829845 -0.742376 0
M  V30 7601 H 718.96 -0.902289 -1.72756 0
M  V30 7602 H 718.056 -0.253521 -3.11069 0
M  V30 7603 N 718.357 1.51182 -0.445186 0
M  V30 7604 C 719.585 2.06568 0.117091 0
M  V30 7605 C 720 1.31182 1.35781 0
M  V30 7606 O 719.357 0.373605 1.78635 0
M  V30 7607 C 719.408 3.58917 0.431408 0
M  V30 7608 O 719.129 4.31456 -0.760078 0
M  V30 7609 C 720.63 4.30843 1.0435 0
M  V30 7610 H 717.85 0.670985 0.00444436 0
M  V30 7611 H 720.394 1.94666 -0.626525 0
M  V30 7612 H 718.549 3.70708 1.12493 0
M  V30 7613 H 718.963 5.22215 -0.489048 0
M  V30 7614 H 720.437 5.38499 1.21337 0
M  V30 7615 H 720.914 3.89644 2.02667 0
M  V30 7616 H 721.52 4.23516 0.38913 0
M  V30 7617 N 719.835 0.176821 1.56605 0
M  V30 7618 C 721.081 -0.460868 1.9811 0
M  V30 7619 C 721.436 -1.60488 1.06119 0
M  V30 7620 O 720.729 -1.91329 0.101939 0
M  V30 7621 C 720.923 -0.986208 3.43524 0
M  V30 7622 C 720.752 0.105368 4.49577 0
M  V30 7623 C 719.522 0.556883 5.02222 0
M  V30 7624 C 721.72 0.907756 5.06226 0
M  V30 7625 N 719.702 1.62819 5.91915 0
M  V30 7626 C 721.073 1.82887 5.92412 0
M  V30 7627 C 723.128 0.952221 4.8871 0
M  V30 7628 C 721.831 2.7907 6.62957 0
M  V30 7629 C 723.857 1.90202 5.5998 0
M  V30 7630 C 723.219 2.8106 6.45898 0
M  V30 7631 H 719.318 -0.136589 0.769979 0
M  V30 7632 H 721.902 0.278307 1.92701 0
M  V30 7633 H 720.073 -1.69489 3.49468 0
M  V30 7634 H 721.805 -1.59298 3.7203 0
M  V30 7635 H 718.56 0.153575 4.73351 0
M  V30 7636 H 718.984 2.1645 6.41466 0
M  V30 7637 H 723.626 0.263794 4.21976 0
M  V30 7638 H 721.344 3.48898 7.28901 0
M  V30 7639 H 724.93 1.9426 5.48411 0
M  V30 7640 H 723.81 3.53357 7.00077 0
M  V30 7641 N 721.313 -1.57302 -0.09688 0
M  V30 7642 C 722.223 -2.05258 -1.13606 0
M  V30 7643 C 723.239 -0.977137 -1.43972 0
M  V30 7644 O 724.415 -1.29018 -1.54649 0
M  V30 7645 C 721.48 -2.46593 -2.43706 0
M  V30 7646 C 720.541 -3.68322 -2.20538 0
M  V30 7647 C 719.774 -4.07676 -3.44435 0
M  V30 7648 O 719.997 -3.47141 -4.52603 0
M  V30 7649 O 718.931 -5.00641 -3.34129 0
M  V30 7650 H 722.757 -2.94069 -0.758752 0
M  V30 7651 H 720.342 -1.46164 -0.309263 0
M  V30 7652 H 722.224 -2.73814 -3.20318 0
M  V30 7653 H 720.899 -1.6092 -2.80867 0
M  V30 7654 H 719.806 -3.4622 -1.41713 0
M  V30 7655 H 721.139 -4.54769 -1.88271 0
M  V30 7656 N 722.791 0.367657 -1.53252 0
M  V30 7657 C 724.202 0.944563 -1.61043 0
M  V30 7658 C 724.553 1.90325 -0.476546 0
M  V30 7659 O 723.678 2.12721 0.397333 0
M  V30 7660 C 724.273 1.71992 -2.91898 0
M  V30 7661 C 722.832 2.2462 -3.02031 0
M  V30 7662 C 721.979 1.05799 -2.56324 0
M  V30 7663 H 724.93 0.146516 -1.58022 0
M  V30 7664 H 724.951 2.58095 -2.79584 0
M  V30 7665 H 724.463 1.02192 -3.74404 0
M  V30 7666 H 722.564 2.97668 -2.24108 0
M  V30 7667 H 722.677 2.52644 -4.07073 0
M  V30 7668 H 721.041 1.42435 -2.1115 0
M  V30 7669 H 721.824 0.375008 -3.41246 0
M  V30 7670 N 724.269 1.44576 0.627338 0
M  V30 7671 C 725.179 1.54232 1.76776 0
M  V30 7672 C 726.195 0.427782 1.6866 0
M  V30 7673 O 727.371 0.685671 1.89369 0
M  V30 7674 C 724.436 1.48738 3.13174 0
M  V30 7675 C 723.497 2.71074 3.32893 0
M  V30 7676 C 722.73 2.65832 4.62784 0
M  V30 7677 O 722.953 1.72048 5.43834 0
M  V30 7678 O 721.887 3.56742 4.84787 0
M  V30 7679 H 725.713 2.50586 1.71582 0
M  V30 7680 H 723.298 1.26865 0.789028 0
M  V30 7681 H 725.18 1.48211 3.94476 0
M  V30 7682 H 723.855 0.555292 3.18902 0
M  V30 7683 H 722.762 2.77168 2.51254 0
M  V30 7684 H 724.095 3.63342 3.32029 0
M  V30 7685 N 725.747 -0.868086 1.31537 0
M  V30 7686 C 726.697 -1.96321 1.1594 0
M  V30 7687 C 727.681 -1.60748 0.0698962 0
M  V30 7688 O 728.873 -1.74524 0.295011 0
M  V30 7689 C 726.002 -3.32073 0.870789 0
M  V30 7690 C 725.088 -3.73907 2.00136 0
M  V30 7691 N 725.479 -3.87685 3.24859 0
M  V30 7692 C 723.777 -4.03433 1.90152 0
M  V30 7693 C 724.478 -4.23454 3.98825 0
M  V30 7694 N 723.454 -4.34242 3.27009 0
M  V30 7695 H 727.256 -2.05088 2.10514 0
M  V30 7696 H 724.77 -1.059 1.23122 0
M  V30 7697 H 726.767 -4.10279 0.740034 0
M  V30 7698 H 725.427 -3.24631 -0.0667068 0
M  V30 7699 H 726.438 -3.72363 3.59953 0
M  V30 7700 H 723.115 -4.0437 1.03879 0
M  V30 7701 H 724.505 -4.41696 5.06314 0
M  V30 7702 N 727.225 -1.14528 -1.08264 0
M  V30 7703 C 728.453 -0.937964 -1.84418 0
M  V30 7704 C 728.868 0.51357 -1.81681 0
M  V30 7705 O 728.225 1.35591 -1.22153 0
M  V30 7706 C 728.276 -1.43272 -3.31897 0
M  V30 7707 O 727.997 -2.82738 -3.34651 0
M  V30 7708 C 729.498 -1.26555 -4.24851 0
M  V30 7709 H 726.718 -0.333704 -0.582136 0
M  V30 7710 H 729.262 -1.52076 -1.36723 0
M  V30 7711 H 727.417 -0.892653 -3.76975 0
M  V30 7712 H 727.831 -3.04971 -4.26724 0
M  V30 7713 H 729.305 -1.66031 -5.26439 0
M  V30 7714 H 729.782 -0.208589 -4.38704 0
M  V30 7715 H 730.388 -1.79423 -3.856 0
M  V30 7716 N 728.703 1.26451 -0.940633 0
M  V30 7717 C 729.951 1.93395 -0.586748 0
M  V30 7718 C 730.272 1.7417 0.876921 0
M  V30 7719 O 729.542 1.097 1.62304 0
M  V30 7720 H 728.122 0.715687 -0.214012 0
M  V30 7721 H 730.784 1.53902 -1.19584 0
M  V30 7722 H 729.88 3.01565 -0.804059 0
M  V30 7723 N 730.181 0.707592 1.40822 0
M  V30 7724 C 731.458 0.171172 1.9485 0
M  V30 7725 C 731.838 -1.32143 1.64625 0
M  V30 7726 O 731.186 -2.07372 0.959647 0
M  V30 7727 C 731.396 0.475334 3.45748 0
M  V30 7728 C 732.744 0.409625 4.22619 0
M  V30 7729 O 733.768 0.410934 3.53822 0
M  V30 7730 O 732.627 0.380185 5.45176 0
M  V30 7731 H 729.721 0.022015 0.826707 0
M  V30 7732 H 732.267 0.784577 1.50474 0
M  V30 7733 H 731.039 1.50801 3.61075 0
M  V30 7734 H 730.662 -0.168439 3.97243 0
M  V30 7735 N 731.66 -1.50943 0.453197 0
M  V30 7736 C 732.907 -2.02212 -0.107922 0
M  V30 7737 C 733.235 -1.33639 -1.41318 0
M  V30 7738 O 732.49 -0.445154 -1.9057 0
M  V30 7739 C 732.789 -3.55603 -0.357944 0
M  V30 7740 C 732.455 -4.42556 0.863427 0
M  V30 7741 C 731.117 -4.6604 1.19834 0
M  V30 7742 C 733.469 -4.93468 1.67747 0
M  V30 7743 C 730.797 -5.37681 2.34768 0
M  V30 7744 C 733.149 -5.6637 2.81793 0
M  V30 7745 C 731.813 -5.88113 3.1572 0
M  V30 7746 H 731.083 -0.739947 -0.0394916 0
M  V30 7747 H 733.73 -1.81738 0.60363 0
M  V30 7748 H 732.035 -3.74495 -1.15156 0
M  V30 7749 H 733.732 -3.92821 -0.805781 0
M  V30 7750 H 730.322 -4.24485 0.592478 0
M  V30 7751 H 734.506 -4.75194 1.43192 0
M  V30 7752 H 729.762 -5.52727 2.61348 0
M  V30 7753 H 733.936 -6.04806 3.45229 0
M  V30 7754 H 731.563 -6.43404 4.04889 0
M  V30 7755 N 733.138 -0.185124 -1.56509 0
M  V30 7756 C 734.088 0.752315 -2.15231 0
M  V30 7757 C 735.072 1.18327 -1.0903 0
M  V30 7758 O 736.264 1.14333 -1.35119 0
M  V30 7759 C 733.393 1.97583 -2.80742 0
M  V30 7760 C 732.479 1.56623 -3.94119 0
M  V30 7761 N 732.87 0.867008 -4.98314 0
M  V30 7762 C 731.168 1.85626 -4.05535 0
M  V30 7763 C 731.869 0.663228 -5.77907 0
M  V30 7764 N 730.845 1.20891 -5.29987 0
M  V30 7765 H 734.647 0.209267 -2.93154 0
M  V30 7766 H 732.161 0.0150444 -1.62393 0
M  V30 7767 H 734.158 2.65779 -3.21197 0
M  V30 7768 H 732.818 2.52369 -2.04303 0
M  V30 7769 H 733.829 0.52355 -5.15247 0
M  V30 7770 H 730.506 2.41992 -3.40215 0
M  V30 7771 H 731.896 0.109273 -6.71811 0
M  V30 7772 N 734.616 1.57351 0.0885366 0
M  V30 7773 C 735.549 1.97786 1.13825 0
M  V30 7774 C 736.527 0.852091 1.38485 0
M  V30 7775 O 737.711 1.11296 1.52137 0
M  V30 7776 C 734.838 2.30024 2.48609 0
M  V30 7777 C 733.884 3.52437 2.40189 0
M  V30 7778 S 734.717 5.03908 1.81209 0
M  V30 7779 C 735.873 5.39331 3.17605 0
M  V30 7780 H 736.106 2.86513 0.793587 0
M  V30 7781 H 733.639 1.51527 0.29646 0
M  V30 7782 H 735.597 2.49274 3.26148 0
M  V30 7783 H 734.258 1.41856 2.80242 0
M  V30 7784 H 733.451 3.72457 3.39546 0
M  V30 7785 H 733.053 3.32731 1.70781 0
M  V30 7786 H 735.345 5.36378 4.13891 0
M  V30 7787 H 736.288 6.4029 3.02381 0
M  V30 7788 H 736.696 4.6679 3.17438 0
M  V30 7789 N 736.094 -0.359525 1.53444 0
M  V30 7790 C 737.004 -1.46445 1.83278 0
M  V30 7791 C 738.02 -1.5833 0.721629 0
M  V30 7792 O 739.196 -1.7411 1.01231 0
M  V30 7793 C 736.261 -2.81638 2.02191 0
M  V30 7794 C 735.322 -2.7923 3.26082 0
M  V30 7795 C 734.555 -4.07974 3.44082 0
M  V30 7796 O 734.778 -5.04447 2.66251 0
M  V30 7797 O 733.712 -4.13417 4.37458 0
M  V30 7798 H 737.538 -1.24156 2.77162 0
M  V30 7799 H 735.123 -0.550201 1.389 0
M  V30 7800 H 737.005 -3.61732 2.16167 0
M  V30 7801 H 735.68 -3.03892 1.11496 0
M  V30 7802 H 734.587 -1.97813 3.17523 0
M  V30 7803 H 735.92 -2.6193 4.16718 0
M  V30 7804 N 737.572 -1.44907 -0.619662 0
M  V30 7805 C 738.482 -1.55168 -1.75955 0
M  V30 7806 C 739.498 -0.43672 -1.6843 0
M  V30 7807 O 740.674 -0.695704 -1.89002 0
M  V30 7808 C 737.739 -1.50397 -3.12381 0
M  V30 7809 C 736.8 -2.72835 -3.31451 0
M  V30 7810 C 736.033 -2.68283 -4.61368 0
M  V30 7811 O 736.256 -1.74929 -5.42914 0
M  V30 7812 O 735.19 -3.59308 -4.82889 0
M  V30 7813 H 739.016 -2.51493 -1.7025 0
M  V30 7814 H 736.601 -1.27282 -0.782289 0
M  V30 7815 H 738.483 -1.50301 -3.93685 0
M  V30 7816 H 737.158 -0.572197 -3.18603 0
M  V30 7817 H 736.065 -2.78496 -2.49781 0
M  V30 7818 H 737.398 -3.65098 -3.30098 0
M  V30 7819 N 739.05 0.861098 -1.31996 0
M  V30 7820 C 740.013 1.95068 -1.20338 0
M  V30 7821 C 741.013 1.60289 -0.128114 0
M  V30 7822 O 742.203 1.70048 -0.378044 0
M  V30 7823 C 739.335 3.30153 -0.849205 0
M  V30 7824 H 740.528 2.06833 -2.17164 0
M  V30 7825 H 738.081 1.05049 -1.15734 0
M  V30 7826 H 738.816 3.24087 0.117508 0
M  V30 7827 H 738.601 3.56771 -1.62655 0
M  V30 7828 H 740.091 4.10025 -0.791782 0
M  V30 7829 N 740.528 1.15101 1.07655 0
M  V30 7830 C 741.458 0.867864 2.16773 0
M  V30 7831 C 742.439 -0.180283 1.69142 0
M  V30 7832 O 743.624 -0.0353152 1.94168 0
M  V30 7833 C 740.754 0.35299 3.45501 0
M  V30 7834 C 739.708 1.33746 4.06566 0
M  V30 7835 C 739.034 0.681562 5.30338 0
M  V30 7836 C 740.334 2.7024 4.46954 0
M  V30 7837 H 742.028 1.78034 2.40716 0
M  V30 7838 H 739.574 0.857435 1.15689 0
M  V30 7839 H 741.527 0.142465 4.21159 0
M  V30 7840 H 740.251 -0.594945 3.21135 0
M  V30 7841 H 738.91 1.53429 3.32949 0
M  V30 7842 H 738.558 -0.272422 5.02262 0
M  V30 7843 H 738.258 1.33853 5.72151 0
M  V30 7844 H 739.782 0.48074 6.08705 0
M  V30 7845 H 741.196 2.5442 5.13754 0
M  V30 7846 H 739.593 3.32282 4.99709 0
M  V30 7847 H 740.663 3.26537 3.58471 0
M  V30 7848 N 742.006 -1.2595 0.947325 0
M  V30 7849 C 743.283 -1.88676 0.515824 0
M  V30 7850 C 743.663 -1.85547 -1.00675 0
M  V30 7851 O 743.011 -1.31399 -1.8694 0
M  V30 7852 C 743.221 -3.31734 1.08415 0
M  V30 7853 C 744.569 -4.08545 1.15654 0
M  V30 7854 O 745.593 -3.40826 1.03517 0
M  V30 7855 O 744.452 -5.29663 1.34608 0
M  V30 7856 H 741.546 -0.809537 0.169055 0
M  V30 7857 H 744.092 -1.34075 1.04029 0
M  V30 7858 H 742.864 -3.28404 2.1276 0
M  V30 7859 H 742.487 -3.93882 0.542499 0
M  V30 7860 N 743.484 -0.715051 -1.40445 0
M  V30 7861 C 744.73 -0.263528 -2.01686 0
M  V30 7862 C 745.085 1.13052 -1.55683 0
M  V30 7863 O 744.378 1.75588 -0.766762 0
M  V30 7864 C 744.572 -0.281791 -3.56287 0
M  V30 7865 C 744.401 -1.67607 -4.17298 0
M  V30 7866 C 743.171 -2.2836 -4.50755 0
M  V30 7867 C 745.369 -2.62621 -4.42193 0
M  V30 7868 N 743.351 -3.6015 -4.97157 0
M  V30 7869 C 744.722 -3.79116 -4.90582 0
M  V30 7870 C 746.777 -2.60639 -4.24231 0
M  V30 7871 C 745.48 -4.93937 -5.22895 0
M  V30 7872 C 747.506 -3.74587 -4.57644 0
M  V30 7873 C 746.868 -4.89815 -5.06222 0
M  V30 7874 H 742.967 -0.142252 -0.768953 0
M  V30 7875 H 745.551 -0.936732 -1.70685 0
M  V30 7876 H 743.722 0.360975 -3.86719 0
M  V30 7877 H 745.454 0.186393 -4.04271 0
M  V30 7878 H 742.209 -1.80463 -4.3787 0
M  V30 7879 H 742.633 -4.27757 -5.24741 0
M  V30 7880 H 747.275 -1.72759 -3.85894 0
M  V30 7881 H 744.993 -5.82462 -5.60146 0
M  V30 7882 H 748.579 -3.74328 -4.45387 0
M  V30 7883 H 747.459 -5.76525 -5.3159 0
M  V30 7884 N 744.962 1.50701 -0.461195 0
M  V30 7885 C 746.373 1.867 -0.00370227 0
M  V30 7886 C 746.724 1.37673 1.39787 0
M  V30 7887 O 745.849 0.737515 2.03445 0
M  V30 7888 C 746.444 3.388 5.75786e-05 0
M  V30 7889 C 745.003 3.74247 0.402044 0
M  V30 7890 C 744.15 2.74549 -0.389652 0
M  V30 7891 H 747.101 1.43585 -0.675942 0
M  V30 7892 H 747.122 3.719 0.804414 0
M  V30 7893 H 746.634 3.74452 -1.02015 0
M  V30 7894 H 744.735 3.44192 1.42697 0
M  V30 7895 H 744.848 4.78973 0.110265 0
M  V30 7896 H 743.212 2.54226 0.155314 0
M  V30 7897 H 743.995 3.13044 -1.40919 0
M  V30 7898 N 746.441 0.193421 1.56409 0
M  V30 7899 C 747.689 -0.444908 1.97142 0
M  V30 7900 C 748.01 -1.62268 1.08139 0
M  V30 7901 O 747.28 -1.95307 0.152326 0
M  V30 7902 H 745.86 -0.16736 0.728011 0
M  V30 7903 H 748.522 0.279763 1.92882 0
M  V30 7904 H 747.618 -0.790159 3.01932 0
M  V30 7905 N 747.919 -1.57396 -0.0801906 0
M  V30 7906 C 749.165 -1.87113 -0.782083 0
M  V30 7907 C 749.498 -0.78458 -1.77646 0
M  V30 7908 O 748.773 0.205993 -1.93406 0
M  V30 7909 C 749.056 -3.27483 -1.49756 0
M  V30 7910 C 748.909 -4.46782 -0.520171 0
M  V30 7911 C 750.228 -3.65965 -2.44454 0
M  V30 7912 H 747.347 -0.680559 -0.282858 0
M  V30 7913 H 749.989 -1.89946 -0.0454139 0
M  V30 7914 H 748.139 -3.25199 -2.12551 0
M  V30 7915 H 749.811 -4.61187 0.101919 0
M  V30 7916 H 748.054 -4.33485 0.165219 0
M  V30 7917 H 748.725 -5.41761 -1.05824 0
M  V30 7918 H 751.201 -3.69289 -1.91742 0
M  V30 7919 H 750.077 -4.65086 -2.91524 0
M  V30 7920 H 750.338 -2.95446 -3.28883 0
M  V30 7921 N 749.397 0.351382 -1.53633 0
M  V30 7922 C 750.627 1.11113 -1.74176 0
M  V30 7923 C 751.035 1.83084 -0.477154 0
M  V30 7924 O 750.378 1.74941 0.560483 0
M  V30 7925 C 750.44 2.17521 -2.86225 0
M  V30 7926 C 750.104 1.65193 -4.26099 0
M  V30 7927 C 751.101 1.10842 -5.07947 0
M  V30 7928 C 748.786 1.70277 -4.72558 0
M  V30 7929 C 750.78 0.622689 -6.34351 0
M  V30 7930 C 748.467 1.21316 -5.98937 0
M  V30 7931 C 749.465 0.674033 -6.79666 0
M  V30 7932 O 749.153 0.191696 -8.03671 0
M  V30 7933 H 748.885 0.33756 -0.585687 0
M  V30 7934 H 751.439 0.411786 -2.0123 0
M  V30 7935 H 749.669 2.90991 -2.54678 0
M  V30 7936 H 751.358 2.78999 -2.94812 0
M  V30 7937 H 752.124 1.06243 -4.7322 0
M  V30 7938 H 748.003 2.11181 -4.09785 0
M  V30 7939 H 751.547 0.201216 -6.9731 0
M  V30 7940 H 747.444 1.25613 -6.3316 0
M  V30 7941 H 748.212 0.309712 -8.17914 0
M  V30 7942 N 750.875 1.45233 0.611969 0
M  V30 7943 C 751.805 1.5641 1.73373 0
M  V30 7944 C 752.786 0.415896 1.64937 0
M  V30 7945 O 753.971 0.638478 1.83404 0
M  V30 7946 C 751.101 1.52627 3.11965 0
M  V30 7947 C 750.055 2.66119 3.35208 0
M  V30 7948 C 749.381 2.4739 4.74028 0
M  V30 7949 C 750.681 4.08157 3.25891 0
M  V30 7950 H 752.375 2.50307 1.64277 0
M  V30 7951 H 749.921 1.20467 0.788904 0
M  V30 7952 H 751.874 1.59043 3.90235 0
M  V30 7953 H 750.598 0.552564 3.21892 0
M  V30 7954 H 749.257 2.59123 2.59327 0
M  V30 7955 H 748.905 1.48168 4.80682 0
M  V30 7956 H 748.605 3.23494 4.90536 0
M  V30 7957 H 750.129 2.55653 5.54503 0
M  V30 7958 H 751.543 4.1642 3.9404 0
M  V30 7959 H 749.94 4.84617 3.5393 0
M  V30 7960 H 751.01 4.30374 2.23397 0
M  V30 7961 N 752.353 -0.854086 1.3245 0
M  V30 7962 C 753.283 -1.97827 1.24044 0
M  V30 7963 C 754.264 -1.69646 0.124166 0
M  V30 7964 O 755.449 -1.91687 0.31143 0
M  V30 7965 C 752.579 -3.33673 0.963324 0
M  V30 7966 C 751.533 -3.76207 2.04089 0
M  V30 7967 C 750.859 -5.0969 1.61618 0
M  V30 7968 C 752.159 -3.91612 3.45597 0
M  V30 7969 H 753.853 -2.05118 2.18099 0
M  V30 7970 H 751.399 -0.985489 1.04996 0
M  V30 7971 H 753.352 -4.11871 0.891061 0
M  V30 7972 H 752.076 -3.26597 -0.0128649 0
M  V30 7973 H 750.735 -3.0026 2.10332 0
M  V30 7974 H 750.383 -4.99072 0.627418 0
M  V30 7975 H 750.083 -5.3912 2.33717 0
M  V30 7976 H 751.607 -5.90381 1.55829 0
M  V30 7977 H 753.021 -4.60163 3.4194 0
M  V30 7978 H 751.418 -4.3246 4.16051 0
M  V30 7979 H 752.488 -2.9451 3.85217 0
M  V30 7980 N 753.831 -1.1567 -1.07043 0
M  V30 7981 C 755.242 -0.942408 -1.61169 0
M  V30 7982 C 755.593 0.515537 -1.89306 0
M  V30 7983 O 754.718 1.38726 -1.66084 0
M  V30 7984 C 755.313 -1.70431 -2.92812 0
M  V30 7985 C 753.872 -1.53521 -3.43669 0
M  V30 7986 C 753.019 -1.7179 -2.17678 0
M  V30 7987 H 755.97 -1.3065 -0.9009 0
M  V30 7988 H 755.991 -1.17566 -3.61882 0
M  V30 7989 H 755.503 -2.76538 -2.72302 0
M  V30 7990 H 753.604 -0.498224 -3.69254 0
M  V30 7991 H 753.717 -2.31422 -4.19501 0
M  V30 7992 H 752.081 -1.14468 -2.27529 0
M  V30 7993 H 752.864 -2.79269 -1.99659 0
M  V30 7994 N 755.309 1.25446 -0.953992 0
M  V30 7995 C 756.557 1.92762 -0.607227 0
M  V30 7996 C 756.878 1.7509 0.858399 0
M  V30 7997 O 756.148 1.11416 1.61132 0
M  V30 7998 H 754.728 0.713377 -0.221591 0
M  V30 7999 H 757.39 1.52625 -1.21209 0
M  V30 8000 H 756.486 3.00695 -0.835998 0
M  V30 8001 N 756.787 0.722489 1.40064 0
M  V30 8002 C 757.719 0.0349057 2.29173 0
M  V30 8003 C 758.732 -0.716571 1.46182 0
M  V30 8004 O 759.921 -0.562806 1.69395 0
M  V30 8005 C 757.021 -0.974839 3.24577 0
M  V30 8006 C 756.194 -0.287471 4.36454 0
M  V30 8007 C 755.253 -1.20356 5.12251 0
M  V30 8008 O 754.279 -0.685753 5.65054 0
M  V30 8009 N 755.481 -2.53422 5.22262 0
M  V30 8010 H 758.246 0.800058 2.88824 0
M  V30 8011 H 755.807 0.57068 1.51509 0
M  V30 8012 H 757.799 -1.59002 3.72157 0
M  V30 8013 H 756.369 -1.6413 2.66046 0
M  V30 8014 H 755.589 0.508008 3.90913 0
M  V30 8015 H 756.877 0.189382 5.08447 0
M  V30 8016 H 756.275 -2.97981 4.80857 0
M  V30 8017 H 754.832 -3.10067 5.73325 0
M  V30 8018 N 758.265 -1.50454 0.469181 0
M  V30 8019 C 759.511 -2.02615 -0.0865971 0
M  V30 8020 C 759.844 -1.35062 -1.39542 0
M  V30 8021 O 759.119 -0.475701 -1.88593 0
M  V30 8022 C 759.402 -3.59068 -0.272385 0
M  V30 8023 C 759.255 -4.37196 1.05733 0
M  V30 8024 C 760.574 -4.2793 -1.0278 0
M  V30 8025 H 757.693 -0.736389 -0.0299977 0
M  V30 8026 H 760.335 -1.79792 0.614399 0
M  V30 8027 H 758.485 -3.78646 -0.869471 0
M  V30 8028 H 760.157 -4.29195 1.69084 0
M  V30 8029 H 758.4 -4.01013 1.65442 0
M  V30 8030 H 759.071 -5.44924 0.880997 0
M  V30 8031 H 761.547 -4.12816 -0.521718 0
M  V30 8032 H 760.423 -5.37214 -1.12659 0
M  V30 8033 H 760.684 -3.90968 -2.0639 0
M  V30 8034 N 759.743 -0.201713 -1.56304 0
M  V30 8035 C 760.968 0.443815 -2.02596 0
M  V30 8036 C 761.393 1.53945 -1.08086 0
M  V30 8037 O 760.751 1.81182 -0.0655056 0
M  V30 8038 C 760.799 0.971066 -3.47279 0
M  V30 8039 O 759.903 2.0836 -3.55893 0
M  V30 8040 H 759.244 0.10294 -0.655972 0
M  V30 8041 H 761.774 -0.314533 -2.02168 0
M  V30 8042 H 761.784 1.28598 -3.87204 0
M  V30 8043 H 760.459 0.169048 -4.15556 0
M  V30 8044 H 759.036 1.77683 -3.27846 0
M  V30 8045 N 761.222 1.57436 0.0718424 0
M  V30 8046 C 762.47 1.86878 0.769484 0
M  V30 8047 C 762.791 0.7937 1.78116 0
M  V30 8048 O 762.061 -0.177642 1.95093 0
M  V30 8049 H 760.641 0.689593 0.287177 0
M  V30 8050 H 763.303 1.94841 0.0479427 0
M  V30 8051 H 762.399 2.84387 1.28572 0
M  V30 8052 N 762.7 -0.34323 1.53817 0
M  V30 8053 C 763.946 -1.08504 1.71332 0
M  V30 8054 C 764.279 -1.88294 0.475285 0
M  V30 8055 O 763.554 -1.87205 -0.527688 0
M  V30 8056 C 763.837 -2.02597 2.97702 0
M  V30 8057 C 763.69 -1.26268 4.31713 0
M  V30 8058 C 765.009 -3.0241 3.19744 0
M  V30 8059 H 762.128 -0.393072 0.623429 0
M  V30 8060 H 764.77 -0.363579 1.86489 0
M  V30 8061 H 762.92 -2.64118 2.8491 0
M  V30 8062 H 764.592 -0.673594 4.56356 0
M  V30 8063 H 762.835 -0.564696 4.30109 0
M  V30 8064 H 763.506 -1.95253 5.16314 0
M  V30 8065 H 765.982 -2.51004 3.31868 0
M  V30 8066 H 764.858 -3.65449 4.09558 0
M  V30 8067 H 765.119 -3.73806 2.36054 0
M  V30 8068 N 764.178 -1.45556 -0.604258 0
M  V30 8069 C 765.141 -1.54091 -1.69672 0
M  V30 8070 C 766.141 -0.420076 -1.55216 0
M  V30 8071 O 767.331 -0.683671 -1.60224 0
M  V30 8072 C 764.463 -1.44063 -3.08964 0
M  V30 8073 H 765.656 -2.51431 -1.6347 0
M  V30 8074 H 763.209 -1.33046 -0.820273 0
M  V30 8075 H 763.944 -0.479201 -3.2074 0
M  V30 8076 H 763.729 -2.25362 -3.20865 0
M  V30 8077 H 765.219 -1.53075 -3.88533 0
M  V30 8078 N 765.656 0.84705 -1.32902 0
M  V30 8079 C 766.586 1.97166 -1.25091 0
M  V30 8080 C 767.567 1.69578 -0.133161 0
M  V30 8081 O 768.752 1.91519 -0.321591 0
M  V30 8082 C 765.882 3.33157 -0.981006 0
M  V30 8083 C 764.836 3.75119 -2.06082 0
M  V30 8084 C 764.162 5.08826 -1.64318 0
M  V30 8085 C 765.462 3.89774 -3.47669 0
M  V30 8086 H 767.156 2.03958 -2.19184 0
M  V30 8087 H 764.702 0.979907 -1.05517 0
M  V30 8088 H 766.655 4.11393 -0.912891 0
M  V30 8089 H 765.379 3.266 -0.00445559 0
M  V30 8090 H 764.038 2.9914 -2.11921 0
M  V30 8091 H 763.686 4.98732 -0.653876 0
M  V30 8092 H 763.386 5.37873 -2.36572 0
M  V30 8093 H 764.91 5.89546 -1.58958 0
M  V30 8094 H 766.324 4.58343 -3.44376 0
M  V30 8095 H 764.721 4.30248 -4.18338 0
M  V30 8096 H 765.791 2.92463 -3.86773 0
M  V30 8097 N 767.134 1.16236 1.06428 0
M  V30 8098 C 768.411 0.853294 1.76006 0
M  V30 8099 C 768.791 -0.649162 2.00871 0
M  V30 8100 O 768.139 -1.59653 1.63472 0
M  V30 8101 C 768.349 1.67448 3.06206 0
M  V30 8102 C 769.697 1.8866 3.80385 0
M  V30 8103 O 770.721 1.64303 3.16043 0
M  V30 8104 O 769.58 2.29518 4.95968 0
M  V30 8105 H 766.674 0.314737 0.764767 0
M  V30 8106 H 769.22 1.26865 1.12709 0
M  V30 8107 H 767.992 2.69411 2.83784 0
M  V30 8108 H 767.615 1.25608 3.77238 0
M  V30 8109 N 768.612 -1.24939 0.960631 0
M  V30 8110 C 770.023 -1.74701 0.658529 0
M  V30 8111 C 770.374 -1.77967 -0.825959 0
M  V30 8112 O 769.499 -1.40444 -1.64634 0
M  V30 8113 C 770.094 -3.17263 1.18867 0
M  V30 8114 C 768.653 -3.64561 0.936614 0
M  V30 8115 C 767.8 -2.43423 1.32817 0
M  V30 8116 H 770.751 -1.10741 1.13676 0
M  V30 8117 H 770.772 -3.76481 0.551589 0
M  V30 8118 H 770.284 -3.14854 2.26912 0
M  V30 8119 H 768.385 -3.72378 -0.128608 0
M  V30 8120 H 768.498 -4.52392 1.57729 0
M  V30 8121 H 766.862 -2.43513 0.746548 0
M  V30 8122 H 767.645 -2.437 2.41796 0
M  V30 8123 N 770.09 -0.729906 -1.39679 0
M  V30 8124 C 771.037 -0.0866063 -2.30637 0
M  V30 8125 C 772.007 0.735115 -1.48947 0
M  V30 8126 O 773.192 0.696125 -1.77648 0
M  V30 8127 C 770.332 0.818524 -3.35252 0
M  V30 8128 C 769.445 -0.0152635 -4.31997 0
M  V30 8129 C 768.58 0.890669 -5.2368 0
M  V30 8130 C 767.619 0.0518246 -6.12078 0
M  V30 8131 N 766.756 0.913411 -6.96133 0
M  V30 8132 H 771.596 -0.867925 -2.85081 0
M  V30 8133 H 769.133 -0.439673 -1.40376 0
M  V30 8134 H 771.091 1.3577 -3.9449 0
M  V30 8135 H 769.721 1.56587 -2.82277 0
M  V30 8136 H 768.773 -0.671794 -3.74421 0
M  V30 8137 H 770.085 -0.664086 -4.9436 0
M  V30 8138 H 769.239 1.49787 -5.87919 0
M  V30 8139 H 767.978 1.57328 -4.61627 0
M  V30 8140 H 766.983 -0.568209 -5.46856 0
M  V30 8141 H 768.208 -0.627497 -6.76195 0
M  V30 8142 H 766.154 1.58141 -6.36653 0
M  V30 8143 H 766.071 0.320952 -7.55318 0
M  V30 8144 H 767.339 1.50633 -7.64807 0
M  V30 8145 N 771.568 1.50203 -0.477153 0
M  V30 8146 C 772.516 2.30278 0.327826 0
M  V30 8147 C 773.51 1.37831 0.984839 0
M  V30 8148 O 774.716 1.54994 0.915251 0
M  V30 8149 H 771.091 0.741612 0.124564 0
M  V30 8150 H 773.062 2.96124 -0.367853 0
M  V30 8151 C 771.811 3.18548 1.39365 0
M  V30 8152 H 771.134 3.89596 0.897475 0
M  V30 8153 H 772.574 3.77561 1.92934 0
M  V30 8154 C 771.033 2.36548 2.39889 0
M  V30 8155 O 771.563 2.05282 3.45286 0
M  V30 8156 N 769.769 1.99015 2.11758 0
M  V30 8157 H 769.316 2.24641 1.26071 0
M  V30 8158 H 769.274 1.44454 2.7925 0
M  V30 8159 N 773.046 0.209999 1.56195 0
M  V30 8160 C 773.994 -0.721416 2.2113 0
M  V30 8161 C 774.988 -1.20852 1.18706 0
M  V30 8162 O 776.194 -1.16968 1.36815 0
M  V30 8163 H 772.569 -0.251033 0.708863 0
M  V30 8164 H 774.54 -0.150193 2.98022 0
M  V30 8165 C 773.289 -1.92392 2.89621 0
M  V30 8166 H 772.612 -1.5582 3.68185 0
M  V30 8167 H 774.052 -2.55367 3.38473 0
M  V30 8168 C 772.511 -2.77208 1.91461 0
M  V30 8169 O 773.041 -3.75603 1.42426 0
M  V30 8170 N 771.247 -2.43006 1.59363 0
M  V30 8171 H 770.794 -1.63047 1.99433 0
M  V30 8172 H 770.752 -3.00036 0.939449 0
M  V30 8173 N 774.524 -1.57472 -0.0634922 0
M  V30 8174 C 775.454 -2.07297 -1.07473 0
M  V30 8175 C 776.435 -0.968162 -1.39859 0
M  V30 8176 O 777.62 -1.24139 -1.49343 0
M  V30 8177 C 774.75 -2.52381 -2.38581 0
M  V30 8178 C 773.704 -3.66813 -2.20526 0
M  V30 8179 C 773.03 -3.97982 -3.57092 0
M  V30 8180 C 774.33 -4.96553 -1.61965 0
M  V30 8181 H 776.024 -2.92033 -0.660092 0
M  V30 8182 H 773.57 -1.40488 -0.316074 0
M  V30 8183 H 775.523 -2.85852 -3.09624 0
M  V30 8184 H 774.247 -1.64684 -2.8204 0
M  V30 8185 H 772.906 -3.33639 -1.51924 0
M  V30 8186 H 772.554 -3.07403 -3.98136 0
M  V30 8187 H 772.254 -4.7504 -3.45848 0
M  V30 8188 H 773.778 -4.33956 -4.29552 0
M  V30 8189 H 775.192 -5.28201 -2.22883 0
M  V30 8190 H 773.589 -5.7799 -1.61394 0
M  V30 8191 H 774.659 -4.81396 -0.581918 0
M  V30 8192 N 776.003 0.335068 -1.53997 0
M  V30 8193 C 777.249 1.07594 -1.71905 0
M  V30 8194 C 777.582 1.88039 -0.485264 0
M  V30 8195 O 776.857 1.87482 0.517752 0
M  V30 8196 C 777.14 2.01016 -2.98772 0
M  V30 8197 C 776.993 1.23977 -4.32377 0
M  V30 8198 C 778.312 3.0071 -3.21343 0
M  V30 8199 H 775.431 0.38976 -0.625505 0
M  V30 8200 H 778.073 0.353684 -1.86679 0
M  V30 8201 H 776.223 2.62603 -2.86307 0
M  V30 8202 H 777.895 0.649383 -4.56706 0
M  V30 8203 H 776.138 0.541878 -4.30402 0
M  V30 8204 H 776.809 1.92512 -5.17342 0
M  V30 8205 H 779.285 2.4924 -3.33194 0
M  V30 8206 H 778.161 3.63272 -4.11491 0
M  V30 8207 H 778.422 3.72549 -2.38033 0
M  V30 8208 N 777.481 1.45874 0.596531 0
M  V30 8209 C 778.73 1.49737 1.35135 0
M  V30 8210 C 779.043 0.147755 1.95041 0
M  V30 8211 O 780.249 0.0640984 2.71424 0
M  V30 8212 C 778.705 2.6378 2.44843 0
M  V30 8213 C 778.313 4.05102 1.91301 0
M  V30 8214 C 780.057 2.769 3.21755 0
M  V30 8215 C 777.964 5.10508 2.98557 0
M  V30 8216 H 776.894 0.557219 0.507959 0
M  V30 8217 H 779.545 1.72046 0.638147 0
M  V30 8218 H 777.927 2.34774 3.189 0
M  V30 8219 H 779.101 4.43836 1.2388 0
M  V30 8220 H 777.416 3.96528 1.271 0
M  V30 8221 H 780.013 3.52819 4.01775 0
M  V30 8222 H 780.356 1.83924 3.73467 0
M  V30 8223 H 780.889 3.05485 2.54802 0
M  V30 8224 H 777.628 6.0523 2.51749 0
M  V30 8225 H 777.148 4.76332 3.6451 0
M  V30 8226 H 778.827 5.35745 3.62748 0
M  V30 8227 N 778.959 -0.83999 1.33349 0
M  V30 8228 C 780.206 -1.59517 1.24742 0
M  V30 8229 C 780.534 -1.93598 -0.187077 0
M  V30 8230 O 779.789 -1.58782 -1.14398 0
M  V30 8231 C 780.088 -2.91571 2.06691 0
M  V30 8232 C 779.754 -2.76856 3.55895 0
M  V30 8233 C 778.416 -2.72551 3.96572 0
M  V30 8234 C 780.768 -2.61741 4.50712 0
M  V30 8235 C 778.096 -2.51028 5.30285 0
M  V30 8236 C 780.448 -2.41752 5.84584 0
M  V30 8237 C 779.112 -2.35848 6.24445 0
M  V30 8238 H 778.382 -0.583714 0.456463 0
M  V30 8239 H 781.029 -0.973261 1.64924 0
M  V30 8240 H 779.334 -3.57961 1.59284 0
M  V30 8241 H 781.031 -3.49053 1.9739 0
M  V30 8242 H 777.621 -2.81039 3.23597 0
M  V30 8243 H 781.805 -2.64102 4.20195 0
M  V30 8244 H 777.061 -2.44903 5.60208 0
M  V30 8245 H 781.235 -2.2904 6.57658 0
M  V30 8246 H 778.862 -2.18931 7.27993 0
M  V30 8247 N 780.437 -1.16799 -1.0581 0
M  V30 8248 C 781.387 -0.847231 -2.11674 0
M  V30 8249 C 782.371 0.175476 -1.5994 0
M  V30 8250 O 783.563 -0.0260602 -1.76981 0
M  V30 8251 C 780.692 -0.355446 -3.41455 0
M  V30 8252 C 779.778 -1.40922 -4.00002 0
M  V30 8253 N 780.169 -2.62096 -4.32596 0
M  V30 8254 C 778.467 -1.26562 -4.27666 0
M  V30 8255 C 779.168 -3.29759 -4.79201 0
M  V30 8256 N 778.144 -2.57138 -4.78938 0
M  V30 8257 H 781.946 -1.76862 -2.34727 0
M  V30 8258 H 779.46 -1.05577 -1.23399 0
M  V30 8259 H 781.457 -0.107231 -4.16762 0
M  V30 8260 H 780.117 0.559817 -3.19838 0
M  V30 8261 H 781.128 -2.99113 -4.22791 0
M  V30 8262 H 777.805 -0.411503 -4.15467 0
M  V30 8263 H 779.195 -4.33222 -5.13584 0
M  V30 8264 N 781.915 1.24427 -0.967243 0
M  V30 8265 C 783.331 1.44684 -0.6737 0
M  V30 8266 C 783.531 1.86429 0.764625 0
M  V30 8267 O 782.587 2.00211 1.53857 0
M  V30 8268 C 783.9 2.509 -1.6574 0
M  V30 8269 C 785.448 2.64728 -1.66998 0
M  V30 8270 C 785.923 3.7414 -2.64165 0
M  V30 8271 N 787.414 3.81567 -2.62604 0
M  V30 8272 C 788.149 4.6575 -3.34462 0
M  V30 8273 N 787.645 5.54124 -4.15835 0
M  V30 8274 N 789.438 4.59827 -3.23288 0
M  V30 8275 H 781.589 0.956276 -1.89655 0
M  V30 8276 H 783.852 0.48171 -0.816492 0
M  V30 8277 H 783.558 2.27113 -2.68538 0
M  V30 8278 H 783.432 3.4905 -1.42981 0
M  V30 8279 H 785.819 2.87872 -0.649121 0
M  V30 8280 H 785.9 1.66936 -1.93819 0
M  V30 8281 H 785.544 3.51745 -3.66384 0
M  V30 8282 H 785.474 4.71444 -2.34623 0
M  V30 8283 H 787.965 3.18403 -2.03539 0
M  V30 8284 H 788.278 6.15316 -4.67553 0
M  V30 8285 H 786.623 5.53791 -4.19929 0
M  V30 8286 H 789.814 3.898 -2.59179 0
M  V30 8287 H 789.987 5.25208 -3.79553 0
M  V30 8288 N 783.393 0.737304 1.3929 0
M  V30 8289 C 784.641 0.285691 2.00071 0
M  V30 8290 C 784.962 -1.13169 1.58801 0
M  V30 8291 O 784.232 -1.77104 0.837308 0
M  V30 8292 H 782.812 0.102638 0.739915 0
M  V30 8293 H 785.474 0.947775 1.70303 0
M  V30 8294 H 784.57 0.335906 3.10287 0
M  V30 8295 N 784.871 -1.49948 0.485112 0
M  V30 8296 C 786.148 -1.95186 -0.12726 0
M  V30 8297 C 786.528 -1.42605 -1.5565 0
M  V30 8298 O 785.876 -0.632986 -2.19558 0
M  V30 8299 C 786.086 -3.48955 -0.0562117 0
M  V30 8300 C 787.434 -4.23932 -0.238106 0
M  V30 8301 O 788.458 -3.55955 -0.132145 0
M  V30 8302 O 787.317 -5.44614 -0.453658 0
M  V30 8303 H 784.411 -0.820433 -0.104014 0
M  V30 8304 H 786.957 -1.60659 0.546517 0
M  V30 8305 H 785.729 -3.79814 0.941122 0
M  V30 8306 H 785.352 -3.90056 -0.770834 0
M  V30 8307 N 786.349 -0.21828 -1.56081 0
M  V30 8308 C 787.299 0.706492 -2.16778 0
M  V30 8309 C 788.283 1.15987 -1.11516 0
M  V30 8310 O 789.475 1.11441 -1.37513 0
M  V30 8311 C 786.604 1.91583 -2.8487 0
M  V30 8312 C 785.69 1.48228 -3.97353 0
M  V30 8313 N 786.081 0.761113 -5.00041 0
M  V30 8314 C 784.379 1.76982 -4.09382 0
M  V30 8315 C 785.08 0.540496 -5.79184 0
M  V30 8316 N 784.056 1.09622 -5.32432 0
M  V30 8317 H 787.858 0.147038 -2.93532 0
M  V30 8318 H 785.372 -0.0194049 -1.62388 0
M  V30 8319 H 787.369 2.58906 -3.26762 0
M  V30 8320 H 786.029 2.47979 -2.09611 0
M  V30 8321 H 787.04 0.414141 -5.16241 0
M  V30 8322 H 783.717 2.34721 -3.45271 0
M  V30 8323 H 785.107 -0.0332531 -6.71892 0
M  V30 8324 N 787.827 1.57504 0.0551401 0
M  V30 8325 C 789.073 1.88334 0.752216 0
M  V30 8326 C 789.406 0.812742 1.76375 0
M  V30 8327 O 788.681 -0.175198 1.93709 0
M  V30 8328 C 788.964 3.29824 1.44528 0
M  V30 8329 C 788.817 4.47553 0.449026 0
M  V30 8330 C 790.136 3.69808 2.38601 0
M  V30 8331 H 787.255 0.684973 0.271995 0
M  V30 8332 H 789.897 1.89994 0.0151895 0
M  V30 8333 H 788.047 3.28539 2.07351 0
M  V30 8334 H 789.719 4.60967 -0.175277 0
M  V30 8335 H 787.962 4.33168 -0.234162 0
M  V30 8336 H 788.633 5.43376 0.971917 0
M  V30 8337 H 791.109 3.72293 1.85842 0
M  V30 8338 H 789.985 4.69665 2.84088 0
M  V30 8339 H 790.246 3.00641 3.24141 0
M  V30 8340 N 789.305 -0.326896 1.54172 0
M  V30 8341 C 790.551 -1.06304 1.7341 0
M  V30 8342 C 790.906 -1.85791 0.499935 0
M  V30 8343 O 790.199 -1.84753 -0.507625 0
M  V30 8344 C 790.393 -2.0208 2.94785 0
M  V30 8345 C 790.222 -1.32009 4.29888 0
M  V30 8346 C 788.992 -1.05798 4.941 0
M  V30 8347 C 791.19 -0.737721 5.08982 0
M  V30 8348 N 789.172 -0.324836 6.1304 0
M  V30 8349 C 790.543 -0.136006 6.19851 0
M  V30 8350 C 792.598 -0.640206 4.93767 0
M  V30 8351 C 791.301 0.553757 7.17165 0
M  V30 8352 C 793.327 0.0358492 5.91389 0
M  V30 8353 C 792.689 0.626522 7.01608 0
M  V30 8354 H 788.788 -0.372808 0.687414 0
M  V30 8355 H 791.372 -0.34462 1.91626 0
M  V30 8356 H 789.543 -2.71197 2.78041 0
M  V30 8357 H 791.275 -2.68655 3.02666 0
M  V30 8358 H 788.03 -1.34945 4.53968 0
M  V30 8359 H 788.454 0.0274982 6.76994 0
M  V30 8360 H 793.096 -1.0826 4.08705 0
M  V30 8361 H 790.814 1.00799 8.01789 0
M  V30 8362 H 794.4 0.110895 5.81694 0
M  V30 8363 H 793.28 1.14135 7.7585 0
M  V30 8364 N 790.784 -1.46188 -0.588786 0
M  V30 8365 C 792.061 -1.41659 -1.34878 0
M  V30 8366 C 792.441 -0.0968913 -2.10878 0
M  V30 8367 O 791.789 0.921468 -2.09096 0
M  V30 8368 C 791.999 -2.6424 -2.27988 0
M  V30 8369 C 793.347 -3.1013 -2.90008 0
M  V30 8370 O 794.371 -2.64745 -2.38303 0
M  V30 8371 O 793.23 -3.88944 -3.83908 0
M  V30 8372 H 790.324 -0.563058 -0.605718 0
M  V30 8373 H 792.87 -1.58346 -0.610309 0
M  V30 8374 H 791.642 -3.51853 -1.71217 0
M  V30 8375 H 791.265 -2.49982 -3.09184 0
M  V30 8376 N 792.262 0.832906 -1.33792 0
M  V30 8377 C 793.51 1.58539 -1.25338 0
M  V30 8378 C 793.831 1.94175 0.179204 0
M  V30 8379 O 793.101 1.61458 1.10941 0
M  V30 8380 H 791.681 0.58784 -0.460926 0
M  V30 8381 H 794.343 0.995064 -1.67584 0
M  V30 8382 H 793.439 2.51268 -1.85123 0
M  V30 8383 N 793.74 1.17359 1.05189 0
M  V30 8384 C 794.688 0.886527 2.15043 0
M  V30 8385 C 795.682 -0.148834 1.68745 0
M  V30 8386 O 796.888 -0.00175123 1.8 0
M  V30 8387 H 793.263 0.269147 0.702185 0
M  V30 8388 H 795.234 1.82016 2.36459 0
M  V30 8389 C 793.983 0.416333 3.45198 0
M  V30 8390 H 793.306 1.20449 3.81225 0
M  V30 8391 H 794.746 0.254362 4.23236 0
M  V30 8392 C 793.205 -0.866016 3.25579 0
M  V30 8393 O 793.735 -1.9328 3.52144 0
M  V30 8394 N 791.941 -0.814179 2.78961 0
M  V30 8395 H 791.488 0.0541618 2.57543 0
M  V30 8396 H 791.446 -1.67264 2.66214 0
M  V30 8397 N 795.218 -1.23913 0.973828 0
M  V30 8398 C 796.443 -1.96735 0.656511 0
M  V30 8399 C 796.868 -1.71682 -0.768571 0
M  V30 8400 O 796.226 -0.984267 -1.52256 0
M  V30 8401 C 796.274 -3.48004 0.944735 0
M  V30 8402 O 795.378 -4.12387 0.0333357 0
M  V30 8403 H 794.719 -0.616119 0.247575 0
M  V30 8404 H 797.249 -1.57525 1.30564 0
M  V30 8405 H 797.259 -3.98424 0.87876 0
M  V30 8406 H 795.934 -3.65567 1.98328 0
M  V30 8407 H 794.511 -3.72585 0.153157 0
M  V30 8408 N 796.696 -0.74468 -1.38897 0
M  V30 8409 C 797.943 -0.296884 -2.00312 0
M  V30 8410 C 798.271 1.11878 -1.59102 0
M  V30 8411 O 797.526 1.7789 -0.815702 0
M  V30 8412 C 797.825 -0.357302 -3.55609 0
M  V30 8413 C 797.491 -1.72736 -4.16501 0
M  V30 8414 C 796.153 -2.10232 -4.32846 0
M  V30 8415 C 798.505 -2.62647 -4.50184 0
M  V30 8416 C 795.833 -3.3713 -4.80167 0
M  V30 8417 C 798.185 -3.88926 -4.98918 0
M  V30 8418 C 796.849 -4.26503 -5.1347 0
M  V30 8419 H 796.119 -0.108638 -0.732993 0
M  V30 8420 H 798.766 -0.953419 -1.66079 0
M  V30 8421 H 797.071 0.382805 -3.89925 0
M  V30 8422 H 798.768 0.0074596 -4.00999 0
M  V30 8423 H 795.358 -1.42585 -4.04187 0
M  V30 8424 H 799.542 -2.34945 -4.37166 0
M  V30 8425 H 794.798 -3.66174 -4.89619 0
M  V30 8426 H 798.972 -4.58745 -5.23952 0
M  V30 8427 H 796.599 -5.24896 -5.49898 0
M  V30 8428 N 798.174 1.49689 -0.493057 0
M  V30 8429 C 799.451 1.9525 0.116907 0
M  V30 8430 C 799.831 1.43429 1.54892 0
M  V30 8431 O 799.179 0.644621 2.19219 0
M  V30 8432 C 799.389 3.4898 0.037705 0
M  V30 8433 C 800.737 4.24052 0.215621 0
M  V30 8434 O 801.761 3.5602 0.113266 0
M  V30 8435 O 800.62 5.44847 0.42477 0
M  V30 8436 H 797.714 0.820973 0.099662 0
M  V30 8437 H 800.26 1.60367 -0.555029 0
M  V30 8438 H 799.032 3.79309 -0.961251 0
M  V30 8439 H 798.655 3.9046 0.750137 0
M  V30 8440 N 799.652 0.226554 1.55963 0
M  V30 8441 C 800.877 -0.411527 2.03276 0
M  V30 8442 C 801.302 -1.52206 1.10521 0
M  V30 8443 O 800.66 -1.81054 0.0943217 0
M  V30 8444 C 800.708 -0.915694 3.4878 0
M  V30 8445 O 799.812 -2.02672 3.59163 0
M  V30 8446 H 799.153 -0.0924907 0.657527 0
M  V30 8447 H 801.683 0.346656 2.01642 0
M  V30 8448 H 801.693 -1.22421 3.892 0
M  V30 8449 H 800.368 -0.102915 4.15773 0
M  V30 8450 H 798.945 -1.72445 3.30632 0
M  V30 8451 N 801.13 -1.57531 -0.0467866 0
M  V30 8452 C 802.077 -2.05387 -1.05285 0
M  V30 8453 C 803.047 -0.939385 -1.36985 0
M  V30 8454 O 804.232 -1.20877 -1.47626 0
M  V30 8455 C 801.372 -2.52343 -2.35408 0
M  V30 8456 C 800.485 -3.77512 -2.10022 0
M  V30 8457 C 799.62 -4.1315 -3.33887 0
M  V30 8458 C 798.659 -5.31286 -3.03976 0
M  V30 8459 N 797.796 -5.62441 -4.20243 0
M  V30 8460 H 802.636 -2.91095 -0.637788 0
M  V30 8461 H 800.173 -1.43939 -0.303322 0
M  V30 8462 H 802.131 -2.77628 -3.11413 0
M  V30 8463 H 800.761 -1.69577 -2.7467 0
M  V30 8464 H 799.813 -3.59417 -1.24594 0
M  V30 8465 H 801.125 -4.63644 -1.83945 0
M  V30 8466 H 800.279 -4.39469 -4.18273 0
M  V30 8467 H 799.018 -3.25634 -3.63062 0
M  V30 8468 H 798.023 -5.04738 -2.17991 0
M  V30 8469 H 799.248 -6.20441 -2.76098 0
M  V30 8470 H 797.194 -4.77885 -4.49402 0
M  V30 8471 H 797.111 -6.43046 -3.97528 0
M  V30 8472 H 798.379 -5.93327 -5.05553 0
M  V30 8473 N 802.608 0.318715 -1.54344 0
M  V30 8474 C 803.855 1.05608 -1.72781 0
M  V30 8475 C 804.183 1.87854 -0.504083 0
M  V30 8476 O 803.438 1.88826 0.51414 0
M  V30 8477 C 803.737 2.00514 -2.95853 0
M  V30 8478 C 803.403 1.34385 -4.30409 0
M  V30 8479 C 802.065 1.16081 -4.66989 0
M  V30 8480 C 804.417 0.869627 -5.13894 0
M  V30 8481 C 801.745 0.490114 -5.84649 0
M  V30 8482 C 804.097 0.212735 -6.32242 0
M  V30 8483 C 802.761 0.0175882 -6.67498 0
M  V30 8484 H 802.031 0.386449 -0.632249 0
M  V30 8485 H 804.678 0.332729 -1.88587 0
M  V30 8486 H 802.983 2.79317 -2.74753 0
M  V30 8487 H 804.68 2.57605 -3.07312 0
M  V30 8488 H 801.27 1.49634 -4.01631 0
M  V30 8489 H 805.454 0.998809 -4.86146 0
M  V30 8490 H 800.71 0.327767 -6.10521 0
M  V30 8491 H 804.884 -0.162699 -6.9621 0
M  V30 8492 H 802.511 -0.504137 -7.58527 0
M  V30 8493 N 804.086 1.46499 0.581025 0
M  V30 8494 C 805.332 1.52121 1.34116 0
M  V30 8495 C 805.665 0.173031 1.93428 0
M  V30 8496 O 804.94 -0.815729 1.76568 0
M  V30 8497 C 805.223 2.62108 2.46924 0
M  V30 8498 C 805.076 4.06462 1.92636 0
M  V30 8499 C 806.395 2.68167 3.48962 0
M  V30 8500 H 803.514 0.5538 0.486287 0
M  V30 8501 H 806.156 1.78443 0.652538 0
M  V30 8502 H 804.306 2.39794 3.05665 0
M  V30 8503 H 805.978 4.40068 1.3834 0
M  V30 8504 H 804.221 4.15862 1.23455 0
M  V30 8505 H 804.892 4.79152 2.74076 0
M  V30 8506 H 807.368 2.8823 3.00104 0
M  V30 8507 H 806.244 3.46942 4.2535 0
M  V30 8508 H 806.505 1.74284 4.06297 0
M  V30 8509 N 805.565 -0.825799 1.34232 0
M  V30 8510 C 806.795 -1.61129 1.29309 0
M  V30 8511 C 807.203 -1.88714 -0.135589 0
M  V30 8512 O 806.546 -1.47703 -1.09222 0
M  V30 8513 C 806.608 -2.97866 2.01287 0
M  V30 8514 C 806.272 -2.9319 3.50555 0
M  V30 8515 C 807.269 -2.67978 4.45515 0
M  V30 8516 C 804.954 -3.12913 3.92926 0
M  V30 8517 C 806.948 -2.62536 5.80822 0
M  V30 8518 C 804.635 -3.07096 5.28333 0
M  V30 8519 C 805.633 -2.8194 6.22092 0
M  V30 8520 O 805.321 -2.7605 7.55018 0
M  V30 8521 H 805.053 -0.507652 0.446391 0
M  V30 8522 H 807.607 -1.03575 1.77374 0
M  V30 8523 H 805.837 -3.57327 1.47832 0
M  V30 8524 H 807.526 -3.58848 1.89691 0
M  V30 8525 H 808.292 -2.52478 4.14101 0
M  V30 8526 H 804.171 -3.3151 3.20347 0
M  V30 8527 H 807.715 -2.42821 6.53975 0
M  V30 8528 H 803.612 -3.22148 5.59367 0
M  V30 8529 H 804.38 -2.91798 7.6472 0
M  V30 8530 N 807.043 -1.17915 -1.04565 0
M  V30 8531 C 807.975 -0.859359 -2.1248 0
M  V30 8532 C 808.988 0.140922 -1.62189 0
M  V30 8533 O 810.177 -0.0862361 -1.78292 0
M  V30 8534 C 807.277 -0.261811 -3.37887 0
M  V30 8535 C 806.45 -1.30651 -4.17431 0
M  V30 8536 C 805.509 -0.725575 -5.21174 0
M  V30 8537 O 804.535 -1.39901 -5.51739 0
M  V30 8538 N 805.737 0.479351 -5.78517 0
M  V30 8539 H 808.502 -1.78818 -2.40508 0
M  V30 8540 H 806.063 -1.07885 -1.20716 0
M  V30 8541 H 808.055 0.14028 -4.04457 0
M  V30 8542 H 806.625 0.570929 -3.07342 0
M  V30 8543 H 805.845 -1.88412 -3.46258 0
M  V30 8544 H 807.133 -2.01099 -4.67372 0
M  V30 8545 H 806.531 1.04431 -5.55977 0
M  V30 8546 H 805.088 0.823427 -6.46578 0
M  V30 8547 N 808.521 1.23394 -0.980386 0
M  V30 8548 C 809.453 2.24146 -0.478657 0
M  V30 8549 C 810.466 1.57303 0.419492 0
M  V30 8550 O 811.655 1.77094 0.223631 0
M  V30 8551 C 808.755 3.3732 0.326913 0
M  V30 8552 C 807.928 4.33744 -0.56436 0
M  V30 8553 C 806.987 5.25866 0.187358 0
M  V30 8554 O 806.013 5.67626 -0.423019 0
M  V30 8555 N 807.215 5.61492 1.47335 0
M  V30 8556 H 809.98 2.67826 -1.34496 0
M  V30 8557 H 807.541 1.37566 -0.853653 0
M  V30 8558 H 809.533 3.95926 0.838148 0
M  V30 8559 H 808.103 2.92823 1.09422 0
M  V30 8560 H 807.323 3.73641 -1.25642 0
M  V30 8561 H 808.611 4.95123 -1.17177 0
M  V30 8562 H 808.009 5.29514 1.99077 0
M  V30 8563 H 806.566 6.2257 1.93002 0
M  V30 8564 N 809.999 0.752036 1.385 0
M  V30 8565 C 811.248 0.304294 1.99391 0
M  V30 8566 C 811.561 -1.11982 1.60373 0
M  V30 8567 O 812.767 -1.66795 2.14223 0
M  V30 8568 C 811.223 0.493101 3.56506 0
M  V30 8569 C 810.831 1.9262 4.04477 0
M  V30 8570 C 812.575 0.107994 4.24363 0
M  V30 8571 C 810.482 2.06365 5.54227 0
M  V30 8572 H 809.412 0.110024 0.745929 0
M  V30 8573 H 812.063 0.928355 1.58284 0
M  V30 8574 H 810.445 -0.20012 3.95494 0
M  V30 8575 H 811.619 2.65276 3.76783 0
M  V30 8576 H 809.934 2.26608 3.49339 0
M  V30 8577 H 812.531 0.189474 5.34364 0
M  V30 8578 H 812.874 -0.939165 4.05568 0
M  V30 8579 H 813.407 0.753011 3.90608 0
M  V30 8580 H 810.146 3.0933 5.77923 0
M  V30 8581 H 809.666 1.38167 5.83669 0
M  V30 8582 H 811.345 1.85286 6.19902 0
M  V30 8583 N 811.477 -1.49425 0.500989 0
M  V30 8584 C 812.725 -2.02053 -0.0434495 0
M  V30 8585 C 813.046 -1.38285 -1.37486 0
M  V30 8586 O 812.316 -0.538171 -1.88363 0
M  V30 8587 H 810.896 -0.746757 -0.0190469 0
M  V30 8588 H 813.558 -1.83449 0.658227 0
M  V30 8589 H 812.654 -3.11619 -0.173129 0
M  V30 8590 N 812.955 -0.234822 -1.55841 0
M  V30 8591 C 813.885 0.664217 -2.23854 0
M  V30 8592 C 814.866 1.19076 -1.2147 0
M  V30 8593 O 816.051 1.23232 -1.50091 0
M  V30 8594 C 813.181 1.86666 -2.9287 0
M  V30 8595 C 812.135 1.47341 -4.01839 0
M  V30 8596 C 811.461 2.75571 -4.58219 0
M  V30 8597 C 812.761 0.653479 -5.18196 0
M  V30 8598 H 814.455 0.0971213 -2.99242 0
M  V30 8599 H 812.001 0.0452724 -1.43929 0
M  V30 8600 H 813.954 2.50116 -3.39146 0
M  V30 8601 H 812.678 2.45894 -2.1495 0
M  V30 8602 H 811.337 0.862314 -3.56314 0
M  V30 8603 H 810.985 3.32971 -3.77014 0
M  V30 8604 H 810.685 2.49987 -5.31771 0
M  V30 8605 H 812.209 3.39939 -5.07221 0
M  V30 8606 H 813.623 1.19198 -5.60771 0
M  V30 8607 H 812.02 0.494188 -5.98062 0
M  V30 8608 H 813.09 -0.337004 -4.83728 0
M  V30 8609 N 814.433 1.57553 0.0384317 0
M  V30 8610 C 815.681 1.88468 0.729672 0
M  V30 8611 C 816.002 0.831302 1.76393 0
M  V30 8612 O 815.272 -0.13622 1.95426 0
M  V30 8613 H 813.852 0.695529 0.272485 0
M  V30 8614 H 816.514 1.94899 0.0066032 0
M  V30 8615 H 815.61 2.8705 1.22511 0
M  V30 8616 N 815.911 -0.310526 1.54511 0
M  V30 8617 C 817.322 -0.884142 1.64438 0
M  V30 8618 C 817.673 -1.88425 0.546855 0
M  V30 8619 O 816.798 -2.14049 -0.31811 0
M  V30 8620 C 817.393 -1.6104 2.9808 0
M  V30 8621 C 815.952 -2.13255 3.1016 0
M  V30 8622 C 815.099 -0.96213 2.60074 0
M  V30 8623 H 818.05 -0.0877666 1.58457 0
M  V30 8624 H 818.071 -2.47541 2.8897 0
M  V30 8625 H 817.583 -0.882255 3.77939 0
M  V30 8626 H 815.684 -2.89145 2.35002 0
M  V30 8627 H 815.797 -2.37361 4.16169 0
M  V30 8628 H 814.161 -1.34501 2.16291 0
M  V30 8629 H 814.944 -0.248098 3.42402 0
M  V30 8630 N 817.389 -1.46805 -0.573248 0
M  V30 8631 C 818.638 -1.51868 -1.32736 0
M  V30 8632 C 818.951 -0.178765 -1.94781 0
M  V30 8633 O 820.157 -0.107272 -2.71288 0
M  V30 8634 C 818.613 -2.67641 -2.40616 0
M  V30 8635 C 818.221 -4.08094 -1.84832 0
M  V30 8636 C 819.965 -2.81984 -3.17309 0
M  V30 8637 C 817.872 -5.15193 -2.90397 0
M  V30 8638 H 816.802 -0.56523 -0.49903 0
M  V30 8639 H 819.453 -1.7304 -0.610695 0
M  V30 8640 H 817.835 -2.39818 -3.15124 0
M  V30 8641 H 819.009 -4.45751 -1.16803 0
M  V30 8642 H 817.324 -3.985 -1.20775 0
M  V30 8643 H 819.921 -3.59166 -3.96111 0
M  V30 8644 H 820.264 -1.89842 -3.70494 0
M  V30 8645 H 820.797 -3.095 -2.4991 0
M  V30 8646 H 817.536 -6.09158 -2.42088 0
M  V30 8647 H 817.056 -4.82071 -3.56886 0
M  V30 8648 H 818.735 -5.41448 -3.54179 0
M  V30 8649 N 818.867 0.818669 -1.34668 0
M  V30 8650 C 819.777 1.9616 -1.2868 0
M  V30 8651 C 820.793 1.72918 -0.193742 0
M  V30 8652 O 821.969 1.96951 -0.420975 0
M  V30 8653 C 819.034 3.30534 -1.04633 0
M  V30 8654 C 818.095 3.66755 -2.23136 0
M  V30 8655 C 817.328 4.94717 -2.00227 0
M  V30 8656 O 817.551 5.62218 -0.96264 0
M  V30 8657 O 816.485 5.28915 -2.87286 0
M  V30 8658 H 820.311 2.04157 -2.24842 0
M  V30 8659 H 817.896 0.954691 -1.14917 0
M  V30 8660 H 819.778 4.11005 -0.930216 0
M  V30 8661 H 818.453 3.23495 -0.115139 0
M  V30 8662 H 817.36 2.8671 -2.40308 0
M  V30 8663 H 818.693 3.78484 -3.1466 0
M  V30 8664 N 820.346 1.18468 1.03938 0
M  V30 8665 C 821.256 0.927889 2.1547 0
M  V30 8666 C 822.272 -0.108447 1.73662 0
M  V30 8667 O 823.448 0.0737636 2.01265 0
M  V30 8668 C 820.513 0.458494 3.43655 0
M  V30 8669 C 819.574 1.56295 3.99838 0
M  V30 8670 C 818.807 1.11586 5.21904 0
M  V30 8671 O 819.03 -0.0249057 5.70395 0
M  V30 8672 O 817.964 1.91412 5.70653 0
M  V30 8673 H 821.79 1.86116 2.39989 0
M  V30 8674 H 819.375 0.966607 1.13917 0
M  V30 8675 H 821.257 0.204861 4.20902 0
M  V30 8676 H 819.932 -0.446464 3.20606 0
M  V30 8677 H 818.839 1.87061 3.23974 0
M  V30 8678 H 820.172 2.44408 4.2723 0
M  V30 8679 N 821.824 -1.22873 0.986916 0
M  V30 8680 C 823.101 -1.86939 0.575589 0
M  V30 8681 C 823.481 -1.88656 -0.947205 0
M  V30 8682 O 822.829 -1.3728 -1.82665 0
M  V30 8683 C 823.039 -3.28117 1.18914 0
M  V30 8684 C 824.387 -4.04659 1.28593 0
M  V30 8685 O 825.411 -3.3736 1.14308 0
M  V30 8686 O 824.27 -5.25112 1.51391 0
M  V30 8687 H 821.364 -0.803748 0.194724 0
M  V30 8688 H 823.91 -1.30698 1.08241 0
M  V30 8689 H 822.682 -3.21468 2.231 0
M  V30 8690 H 822.305 -3.91956 0.667535 0
M  V30 8691 N 823.302 -0.75937 -1.38099 0
M  V30 8692 C 824.53 -0.329111 -2.04266 0
M  V30 8693 C 824.945 1.04453 -1.57274 0
M  V30 8694 O 824.302 1.66449 -0.748397 0
M  V30 8695 C 824.353 -0.349192 -3.5981 0
M  V30 8696 O 824.074 -1.66863 -4.05078 0
M  V30 8697 C 825.575 0.0942106 -4.432 0
M  V30 8698 H 822.795 -0.13971 -0.656294 0
M  V30 8699 H 825.339 -1.02984 -1.76677 0
M  V30 8700 H 823.494 0.302846 -3.86214 0
M  V30 8701 H 823.908 -1.59877 -4.9954 0
M  V30 8702 H 825.382 0.0290004 -5.51992 0
M  V30 8703 H 825.859 1.1429 -4.24069 0
M  V30 8704 H 826.465 -0.529171 -4.21995 0
M  V30 8705 N 824.78 1.49157 -0.508906 0
M  V30 8706 C 826.029 2.0167 0.0346854 0
M  V30 8707 C 826.342 1.39302 1.37311 0
M  V30 8708 O 827.548 1.83189 2.00385 0
M  V30 8709 C 826.004 3.59725 0.112261 0
M  V30 8710 C 825.612 4.31069 -1.21999 0
M  V30 8711 C 827.356 4.20155 0.605798 0
M  V30 8712 C 825.263 5.81001 -1.10415 0
M  V30 8713 H 824.193 0.753814 0.0167355 0
M  V30 8714 H 826.844 1.7162 -0.649518 0
M  V30 8715 H 825.226 3.86525 0.861087 0
M  V30 8716 H 826.4 4.15962 -1.98273 0
M  V30 8717 H 824.715 3.82418 -1.64759 0
M  V30 8718 H 827.312 5.29964 0.710102 0
M  V30 8719 H 827.655 3.84051 1.60656 0
M  V30 8720 H 828.188 3.97705 -0.0867239 0
M  V30 8721 H 824.927 6.21643 -2.07941 0
M  V30 8722 H 824.447 5.9858 -0.382428 0
M  V30 8723 H 826.126 6.42207 -0.786116 0
M  V30 8724 N 826.258 0.243083 1.55714 0
M  V30 8725 C 827.188 -0.652336 2.24203 0
M  V30 8726 C 828.169 -1.1843 1.221 0
M  V30 8727 O 829.354 -1.22435 1.50743 0
M  V30 8728 C 826.484 -1.85111 2.93856 0
M  V30 8729 C 825.438 -1.45208 4.02615 0
M  V30 8730 C 824.764 -2.73137 4.59674 0
M  V30 8731 C 826.064 -0.625988 5.18535 0
M  V30 8732 H 827.758 -0.0812504 2.9929 0
M  V30 8733 H 825.304 -0.0376388 1.43951 0
M  V30 8734 H 827.257 -2.48314 3.40468 0
M  V30 8735 H 825.981 -2.44751 2.16251 0
M  V30 8736 H 824.64 -0.843406 3.56766 0
M  V30 8737 H 824.288 -3.30967 3.78774 0
M  V30 8738 H 823.988 -2.47163 5.33089 0
M  V30 8739 H 825.512 -3.37245 5.09017 0
M  V30 8740 H 826.926 -1.16223 5.61396 0
M  V30 8741 H 825.323 -0.462465 5.98315 0
M  V30 8742 H 826.393 0.362652 4.83542 0
M  V30 8743 N 827.736 -1.57571 -0.0300757 0
M  V30 8744 C 828.982 -1.89506 -0.722159 0
M  V30 8745 C 829.315 -0.840699 -1.7506 0
M  V30 8746 O 828.59 0.144358 -1.93964 0
M  V30 8747 C 828.873 -3.32081 -1.39262 0
M  V30 8748 C 828.726 -4.48211 -0.377768 0
M  V30 8749 C 830.045 -3.73557 -2.32687 0
M  V30 8750 H 827.164 -0.689213 -0.261064 0
M  V30 8751 H 829.806 -1.89994 0.0150388 0
M  V30 8752 H 827.956 -3.31796 -2.02098 0
M  V30 8753 H 829.628 -4.6063 0.248591 0
M  V30 8754 H 827.871 -4.3274 0.303045 0
M  V30 8755 H 828.542 -5.44854 -0.885347 0
M  V30 8756 H 831.018 -3.75202 -1.79896 0
M  V30 8757 H 829.894 -4.74125 -2.7658 0
M  V30 8758 H 830.155 -3.05759 -3.19317 0
M  V30 8759 N 829.214 0.302327 -1.54673 0
M  V30 8760 C 830.463 1.03533 -1.73101 0
M  V30 8761 C 830.776 1.88473 -0.523174 0
M  V30 8762 O 831.982 2.65029 -0.589229 0
M  V30 8763 C 830.438 1.89043 -3.06252 0
M  V30 8764 C 830.046 1.09112 -4.3451 0
M  V30 8765 C 831.79 2.61951 -3.34039 0
M  V30 8766 C 829.697 1.93891 -5.58713 0
M  V30 8767 H 828.627 0.390261 -0.645145 0
M  V30 8768 H 831.278 0.2924 -1.81155 0
M  V30 8769 H 829.66 2.67319 -2.92159 0
M  V30 8770 H 830.834 0.354596 -4.59434 0
M  V30 8771 H 829.149 0.477923 -4.13648 0
M  V30 8772 H 831.746 3.25729 -4.24033 0
M  V30 8773 H 832.089 3.30711 -2.52855 0
M  V30 8774 H 832.622 1.90725 -3.49097 0
M  V30 8775 H 829.361 1.29604 -6.4256 0
M  V30 8776 H 828.881 2.6522 -5.37976 0
M  V30 8777 H 830.56 2.51971 -5.95919 0
M  V30 8778 N 830.692 1.47107 0.565454 0
M  V30 8779 C 831.969 1.43787 1.32607 0
M  V30 8780 C 832.349 0.130428 2.10697 0
M  V30 8781 O 831.697 -0.888086 2.10536 0
M  V30 8782 C 831.907 2.67833 2.23755 0
M  V30 8783 C 833.255 3.14704 2.85037 0
M  V30 8784 O 834.279 2.68503 2.34061 0
M  V30 8785 O 833.138 3.95002 3.77671 0
M  V30 8786 H 830.232 0.572623 0.596684 0
M  V30 8787 H 832.778 1.59296 0.58504 0
M  V30 8788 H 831.55 3.54532 1.65597 0
M  V30 8789 H 831.173 2.54869 3.05168 0
M  V30 8790 N 832.17 -0.811516 1.35101 0
M  V30 8791 C 833.581 -1.38515 1.25182 0
M  V30 8792 C 833.932 -1.95846 -0.117883 0
M  V30 8793 O 833.057 -1.90925 -1.01866 0
M  V30 8794 C 833.652 -2.51813 2.26662 0
M  V30 8795 C 832.211 -3.05052 2.20499 0
M  V30 8796 C 831.358 -1.77987 2.12641 0
M  V30 8797 H 834.309 -0.614959 1.46301 0
M  V30 8798 H 834.33 -3.30228 1.89023 0
M  V30 8799 H 833.842 -2.10057 3.2634 0
M  V30 8800 H 831.943 -3.51285 1.24215 0
M  V30 8801 H 832.056 -3.63368 3.1225 0
M  V30 8802 H 830.42 -1.99342 1.5854 0
M  V30 8803 H 831.203 -1.38389 3.14171 0
M  V30 8804 N 833.648 -1.19017 -1.03309 0
M  V30 8805 C 834.596 -0.920627 -2.13605 0
M  V30 8806 C 835.59 0.121969 -1.6896 0
M  V30 8807 O 836.796 -0.0268854 -1.7998 0
M  V30 8808 H 833.171 -0.280284 -0.697814 0
M  V30 8809 H 835.142 -1.85755 -2.33533 0
M  V30 8810 C 833.891 -0.471198 -3.44492 0
M  V30 8811 H 833.214 -1.26499 -3.7926 0
M  V30 8812 H 834.654 -0.321663 -4.22778 0
M  V30 8813 C 833.113 0.81411 -3.26916 0
M  V30 8814 O 833.643 1.87654 -3.55175 0
M  V30 8815 N 831.849 0.769695 -2.80221 0
M  V30 8816 H 831.396 -0.0951278 -2.57424 0
M  V30 8817 H 831.354 1.63008 -2.68842 0
M  V30 8818 N 835.127 1.22348 -0.993418 0
M  V30 8819 C 836.075 2.26315 -0.537052 0
M  V30 8820 C 837.069 1.643 0.412545 0
M  V30 8821 O 838.275 1.77729 0.285008 0
M  V30 8822 H 834.65 0.735792 -0.155286 0
M  V30 8823 H 836.621 2.62157 -1.42535 0
M  V30 8824 C 835.37 3.47449 0.132118 0
M  V30 8825 H 834.693 3.9543 -0.589519 0
M  V30 8826 H 836.133 4.21965 0.414884 0
M  V30 8827 C 834.592 3.07893 1.36761 0
M  V30 8828 O 835.122 3.17338 2.46291 0
M  V30 8829 N 833.328 2.62672 1.24305 0
M  V30 8830 H 832.875 2.55186 0.351826 0
M  V30 8831 H 832.833 2.36574 2.07076 0
M  V30 8832 N 836.605 0.766683 1.37694 0
M  V30 8833 C 837.568 0.155849 2.2867 0
M  V30 8834 C 838.568 -0.633509 1.47795 0
M  V30 8835 O 839.758 -0.457844 1.68076 0
M  V30 8836 C 836.89 -0.786965 3.31692 0
M  V30 8837 H 838.083 0.957748 2.84196 0
M  V30 8838 H 835.636 0.534554 1.46875 0
M  V30 8839 H 836.371 -1.61406 2.8128 0
M  V30 8840 H 836.156 -0.223182 3.91464 0
M  V30 8841 H 837.646 -1.20994 3.99688 0
M  V30 8842 N 838.083 -1.48885 0.516809 0
M  V30 8843 C 839.046 -2.27916 -0.242256 0
M  V30 8844 C 840.046 -1.34601 -0.879735 0
M  V30 8845 O 841.236 -1.57616 -0.74182 0
M  V30 8846 C 838.368 -3.13067 -1.34914 0
M  V30 8847 H 839.561 -2.96483 0.451444 0
M  V30 8848 H 837.114 -1.5391 0.272294 0
M  V30 8849 H 837.849 -2.49102 -2.07651 0
M  V30 8850 H 837.634 -3.81695 -0.897313 0
M  V30 8851 H 839.124 -3.72716 -1.88341 0
M  V30 8852 N 839.561 -0.251338 -1.55583 0
M  V30 8853 C 840.807 0.37272 -1.99346 0
M  V30 8854 C 841.14 1.57266 -1.13934 0
M  V30 8855 O 840.415 1.9343 -0.20377 0
M  V30 8856 C 840.698 0.778245 -3.5159 0
M  V30 8857 C 840.551 -0.427394 -4.47765 0
M  V30 8858 C 841.87 1.62358 -4.09057 0
M  V30 8859 H 838.989 0.134002 -0.724715 0
M  V30 8860 H 841.631 -0.353536 -1.86682 0
M  V30 8861 H 839.781 1.39704 -3.62512 0
M  V30 8862 H 841.453 -1.06586 -4.48818 0
M  V30 8863 H 839.696 -1.06972 -4.20404 0
M  V30 8864 H 840.367 -0.10025 -5.51909 0
M  V30 8865 H 842.843 1.1012 -4.01264 0
M  V30 8866 H 841.719 1.87617 -5.1584 0
M  V30 8867 H 841.98 2.59688 -3.57791 0
M  V30 8868 N 841.039 1.57585 0.0217189 0
M  V30 8869 C 841.969 2.10073 1.01939 0
M  V30 8870 C 842.95 1.0049 1.37243 0
M  V30 8871 O 844.135 1.28055 1.45999 0
M  V30 8872 C 841.265 2.58618 2.31806 0
M  V30 8873 C 840.219 3.72531 2.10724 0
M  V30 8874 C 839.545 4.07309 3.46415 0
M  V30 8875 C 840.845 5.00672 1.48743 0
M  V30 8876 H 842.539 2.9368 0.582432 0
M  V30 8877 H 840.085 1.41277 0.278715 0
M  V30 8878 H 842.038 2.9396 3.01936 0
M  V30 8879 H 840.762 1.72104 2.77575 0
M  V30 8880 H 839.421 3.37549 1.43025 0
M  V30 8881 H 839.069 3.17851 3.89846 0
M  V30 8882 H 838.769 4.84042 3.33132 0
M  V30 8883 H 840.293 4.45192 4.17895 0
M  V30 8884 H 841.707 5.33925 2.088 0
M  V30 8885 H 840.104 5.82065 1.46013 0
M  V30 8886 H 841.174 4.82769 0.45408 0
M  V30 8887 N 842.517 -0.29412 1.54831 0
M  V30 8888 C 843.449 -1.38476 1.82639 0
M  V30 8889 C 844.462 -1.46517 0.709694 0
M  V30 8890 O 845.651 -1.48712 0.987269 0
M  V30 8891 C 842.751 -2.76791 1.95551 0
M  V30 8892 C 841.924 -2.91599 3.26019 0
M  V30 8893 C 840.983 -4.10456 3.29261 0
M  V30 8894 O 840.009 -4.02214 4.02756 0
M  V30 8895 N 841.211 -5.21422 2.55145 0
M  V30 8896 H 843.976 -1.14974 2.76769 0
M  V30 8897 H 841.537 -0.484206 1.5449 0
M  V30 8898 H 843.529 -3.5456 1.95113 0
M  V30 8899 H 842.099 -2.93209 1.08384 0
M  V30 8900 H 841.319 -2.00886 3.39173 0
M  V30 8901 H 842.607 -2.98409 4.12104 0
M  V30 8902 H 842.005 -5.31 1.95078 0
M  V30 8903 H 840.562 -5.97501 2.60454 0
M  V30 8904 N 843.995 -1.47404 -0.557645 0
M  V30 8905 C 845.22 -1.57868 -1.34508 0
M  V30 8906 C 845.645 -0.229151 -1.86699 0
M  V30 8907 O 845.003 0.794908 -1.62944 0
M  V30 8908 C 845.051 -2.60712 -2.49122 0
M  V30 8909 O 844.155 -2.15952 -3.51338 0
M  V30 8910 H 843.496 -0.530335 -0.399551 0
M  V30 8911 H 846.026 -1.93181 -0.673954 0
M  V30 8912 H 846.036 -2.81118 -2.95697 0
M  V30 8913 H 844.711 -3.58701 -2.10491 0
M  V30 8914 H 843.288 -2.05644 -3.11071 0
M  V30 8915 N 845.473 0.80434 -1.35529 0
M  V30 8916 C 846.698 1.598 -1.32207 0
M  V30 8917 C 847.123 1.87848 0.0974226 0
M  V30 8918 O 846.481 1.46728 1.06492 0
M  V30 8919 C 846.529 2.90483 -2.13663 0
M  V30 8920 O 845.633 3.83411 -1.51888 0
M  V30 8921 H 844.974 0.485305 -0.453183 0
M  V30 8922 H 847.504 0.998119 -1.78602 0
M  V30 8923 H 847.514 3.39888 -2.257 0
M  V30 8924 H 846.189 2.69395 -3.16859 0
M  V30 8925 H 844.766 3.41967 -1.48704 0
M  V30 8926 N 846.951 1.19563 1.02676 0
M  V30 8927 C 848.199 0.997593 1.75763 0
M  V30 8928 C 848.52 -0.47253 1.89188 0
M  V30 8929 O 847.79 -1.34214 1.42701 0
M  V30 8930 H 846.37 0.366128 0.651122 0
M  V30 8931 H 849.032 1.50495 1.23844 0
M  V30 8932 H 848.128 1.44741 2.76508 0
M  V30 8933 N 848.429 -1.21819 0.999893 0
M  V30 8934 C 849.376 -2.24003 0.556005 0
M  V30 8935 C 850.346 -1.60825 -0.415287 0
M  V30 8936 O 851.531 -1.88123 -0.318481 0
M  V30 8937 C 848.671 -3.44904 -0.116289 0
M  V30 8938 C 847.784 -4.22573 0.897574 0
M  V30 8939 C 846.919 -5.30831 0.198073 0
M  V30 8940 C 845.958 -6.00225 1.19983 0
M  V30 8941 N 845.095 -7.00111 0.528157 0
M  V30 8942 H 849.935 -2.61334 1.43208 0
M  V30 8943 H 847.472 -1.28431 0.717205 0
M  V30 8944 H 849.43 -4.13908 -0.523055 0
M  V30 8945 H 848.06 -3.08315 -0.956108 0
M  V30 8946 H 847.112 -3.52797 1.42262 0
M  V30 8947 H 848.424 -4.70363 1.66013 0
M  V30 8948 H 847.578 -6.06121 -0.265065 0
M  V30 8949 H 846.317 -4.84033 -0.596924 0
M  V30 8950 H 845.322 -5.23711 1.67353 0
M  V30 8951 H 846.547 -6.4911 1.99582 0
M  V30 8952 H 844.493 -6.55534 -0.247276 0
M  V30 8953 H 844.41 -7.45943 1.22904 0
M  V30 8954 H 845.678 -7.7945 0.0880543 0
M  V30 8955 N 849.908 -0.773975 -1.37286 0
M  V30 8956 C 850.856 -0.149581 -2.32119 0
M  V30 8957 C 851.85 0.682457 -1.55045 0
M  V30 8958 O 853.056 0.579269 -1.70424 0
M  V30 8959 H 849.431 -0.0295857 -0.751418 0
M  V30 8960 H 851.402 -0.965117 -2.82362 0
M  V30 8961 C 850.151 0.713409 -3.40302 0
M  V30 8962 H 849.474 0.0825416 -3.99715 0
M  V30 8963 H 850.914 1.11723 -4.09016 0
M  V30 8964 C 849.373 1.86498 -2.80571 0
M  V30 8965 O 849.903 2.9606 -2.71498 0
M  V30 8966 N 848.109 1.66629 -2.38082 0
M  V30 8967 H 847.656 0.775145 -2.45661 0
M  V30 8968 H 847.614 2.43845 -1.98461 0
M  V30 8969 N 851.386 1.48609 -0.524698 0
M  V30 8970 C 852.316 2.32366 0.229837 0
M  V30 8971 C 853.297 1.41759 0.940129 0
M  V30 8972 O 854.482 1.7065 0.926936 0
M  V30 8973 C 851.612 3.22835 1.28043 0
M  V30 8974 C 850.566 4.22424 0.688603 0
M  V30 8975 C 849.892 5.0199 1.84146 0
M  V30 8976 C 851.192 5.21217 -0.336176 0
M  V30 8977 H 852.886 2.95698 -0.469339 0
M  V30 8978 H 850.432 1.42197 -0.227156 0
M  V30 8979 H 852.385 3.80253 1.8162 0
M  V30 8980 H 851.109 2.57492 2.00912 0
M  V30 8981 H 849.768 3.66185 0.174402 0
M  V30 8982 H 849.416 4.33076 2.5584 0
M  V30 8983 H 849.116 5.69392 1.45142 0
M  V30 8984 H 850.64 5.62259 2.38111 0
M  V30 8985 H 852.054 5.7319 0.112307 0
M  V30 8986 H 850.451 5.96642 -0.643324 0
M  V30 8987 H 851.521 4.68676 -1.24381 0
M  V30 8988 N 852.864 0.259585 1.55447 0
M  V30 8989 C 854.111 -0.361607 1.99245 0
M  V30 8990 C 854.439 -1.57017 1.14787 0
M  V30 8991 O 853.694 -1.94658 0.201724 0
M  V30 8992 C 853.993 -0.802727 3.48269 0
M  V30 8993 C 853.659 0.299472 4.49904 0
M  V30 8994 C 852.321 0.602157 4.77418 0
M  V30 8995 C 854.673 1.04295 5.10658 0
M  V30 8996 C 852.001 1.65217 5.62957 0
M  V30 8997 C 854.353 2.08257 5.97337 0
M  V30 8998 C 853.017 2.39177 6.23178 0
M  V30 8999 H 852.287 -0.132322 0.72909 0
M  V30 9000 H 854.934 0.370059 1.8789 0
M  V30 9001 H 853.239 -1.61381 3.5702 0
M  V30 9002 H 854.936 -1.29385 3.79553 0
M  V30 9003 H 851.526 0.0534256 4.28567 0
M  V30 9004 H 855.71 0.822358 4.89439 0
M  V30 9005 H 850.966 1.89692 5.81229 0
M  V30 9006 H 855.14 2.6635 6.43452 0
M  V30 9007 H 852.767 3.20677 6.89253 0
M  V30 9008 N 854.342 -1.57594 -0.0133615 0
M  V30 9009 C 855.572 -1.93969 -0.711295 0
M  V30 9010 C 855.98 -0.859084 -1.68572 0
M  V30 9011 O 855.323 0.171842 -1.82894 0
M  V30 9012 C 855.385 -3.2625 -1.51001 0
M  V30 9013 C 855.049 -4.51628 -0.698645 0
M  V30 9014 C 856.046 -5.19899 0.00791185 0
M  V30 9015 C 853.731 -4.98095 -0.648553 0
M  V30 9016 C 855.725 -6.32928 0.753691 0
M  V30 9017 C 853.412 -6.11017 0.10096 0
M  V30 9018 C 854.41 -6.78289 0.800828 0
M  V30 9019 O 854.098 -7.89048 1.53814 0
M  V30 9020 H 853.83 -0.6445 -0.203951 0
M  V30 9021 H 856.384 -2.05378 0.0298267 0
M  V30 9022 H 854.614 -3.11211 -2.29531 0
M  V30 9023 H 856.303 -3.47835 -2.09202 0
M  V30 9024 H 857.069 -4.84995 -0.0217192 0
M  V30 9025 H 852.948 -4.45568 -1.18282 0
M  V30 9026 H 856.492 -6.85371 1.3005 0
M  V30 9027 H 852.389 -6.45364 0.132459 0
M  V30 9028 H 853.157 -8.05492 1.45345 0
M  V30 9029 N 855.82 0.285905 -1.54985 0
M  V30 9030 C 856.75 1.35752 -1.89983 0
M  V30 9031 C 857.731 1.52163 -0.760295 0
M  V30 9032 O 858.916 1.65421 -1.01733 0
M  V30 9033 C 856.046 2.71925 -2.16042 0
M  V30 9034 C 855 2.70261 -3.31878 0
M  V30 9035 C 854.326 4.09864 -3.43388 0
M  V30 9036 C 855.626 2.30667 -4.68604 0
M  V30 9037 H 857.32 1.06709 -2.79738 0
M  V30 9038 H 854.866 0.511884 -1.34595 0
M  V30 9039 H 856.819 3.46992 -2.39113 0
M  V30 9040 H 855.543 3.02523 -1.23074 0
M  V30 9041 H 854.202 1.97651 -3.08755 0
M  V30 9042 H 853.85 4.37664 -2.47909 0
M  V30 9043 H 853.55 4.09648 -4.21262 0
M  V30 9044 H 855.074 4.86689 -3.68736 0
M  V30 9045 H 856.488 2.95453 -4.91305 0
M  V30 9046 H 854.885 2.41637 -5.49301 0
M  V30 9047 H 855.955 1.25793 -4.68299 0
M  V30 9048 N 857.298 1.47698 0.54982 0
M  V30 9049 C 858.709 1.48474 1.13191 0
M  V30 9050 C 859.06 0.243504 1.94683 0
M  V30 9051 O 858.185 -0.651009 2.06375 0
M  V30 9052 C 858.78 2.69022 2.05944 0
M  V30 9053 C 857.339 2.72733 2.5941 0
M  V30 9054 C 856.486 2.41691 1.35944 0
M  V30 9055 H 859.437 1.55101 0.336048 0
M  V30 9056 H 859.458 2.46412 2.89934 0
M  V30 9057 H 858.97 3.59345 1.46605 0
M  V30 9058 H 857.071 1.86568 3.22526 0
M  V30 9059 H 857.184 3.73628 2.99899 0
M  V30 9060 H 855.548 1.92428 1.66864 0
M  V30 9061 H 856.331 3.34231 0.783869 0
M  V30 9062 N 858.776 -0.797141 1.35954 0
M  V30 9063 C 859.726 -1.89899 1.26184 0
M  V30 9064 C 860.71 -1.60152 0.155007 0
M  V30 9065 O 861.902 -1.72715 0.387108 0
M  V30 9066 C 859.031 -3.2699 1.04559 0
M  V30 9067 C 858.117 -3.62772 2.19675 0
M  V30 9068 N 858.508 -3.6992 3.44953 0
M  V30 9069 C 856.806 -3.92786 2.1127 0
M  V30 9070 C 857.507 -4.01718 4.20711 0
M  V30 9071 N 856.483 -4.16298 3.49567 0
M  V30 9072 H 860.285 -1.9364 2.2109 0
M  V30 9073 H 857.799 -0.992246 1.28562 0
M  V30 9074 H 859.796 -4.0578 0.956474 0
M  V30 9075 H 858.456 -3.24529 0.105467 0
M  V30 9076 H 859.467 -3.52759 3.79185 0
M  V30 9077 H 856.144 -3.98295 1.25168 0
M  V30 9078 H 857.534 -4.14237 5.29016 0
M  V30 9079 N 860.254 -1.20106 -1.0204 0
M  V30 9080 C 861.502 -1.0069 -1.75231 0
M  V30 9081 C 861.823 0.462491 -1.89436 0
M  V30 9082 O 861.093 1.33455 -1.4341 0
M  V30 9083 H 859.673 -0.369576 -0.649171 0
M  V30 9084 H 862.335 -1.51149 -1.23044 0
M  V30 9085 H 861.431 -1.46205 -2.75736 0
M  V30 9086 N 861.732 1.21287 -1.00634 0
M  V30 9087 C 862.662 2.25973 -0.588089 0
M  V30 9088 C 863.643 1.65527 0.391764 0
M  V30 9089 O 864.828 1.92179 0.279452 0
M  V30 9090 C 861.958 3.47197 0.0847336 0
M  V30 9091 C 860.912 4.20168 -0.815039 0
M  V30 9092 C 860.238 5.34699 -0.00855393 0
M  V30 9093 C 861.538 4.77416 -2.11828 0
M  V30 9094 H 863.232 2.61212 -1.46317 0
M  V30 9095 H 860.778 1.25563 -0.704985 0
M  V30 9096 H 862.731 4.19602 0.388821 0
M  V30 9097 H 861.455 3.11092 0.994456 0
M  V30 9098 H 860.114 3.49614 -1.10297 0
M  V30 9099 H 859.762 4.94837 0.902499 0
M  V30 9100 H 859.462 5.84449 -0.607664 0
M  V30 9101 H 860.986 6.09914 0.289317 0
M  V30 9102 H 862.4 5.41694 -1.87725 0
M  V30 9103 H 860.797 5.37561 -2.66736 0
M  V30 9104 H 861.867 3.96724 -2.78816 0
M  V30 9105 N 863.21 0.781244 1.36873 0
M  V30 9106 C 864.435 0.360398 2.04245 0
M  V30 9107 C 864.86 -1.01242 1.58529 0
M  V30 9108 O 864.218 -1.65063 0.749936 0
M  V30 9109 C 864.266 0.42329 3.58107 0
M  V30 9110 O 863.37 -0.572796 4.08403 0
M  V30 9111 H 862.711 0.154386 0.645803 0
M  V30 9112 H 865.241 1.06008 1.74996 0
M  V30 9113 H 865.251 0.283967 4.07011 0
M  V30 9114 H 863.926 1.42477 3.90734 0
M  V30 9115 H 862.503 -0.395809 3.70793 0
M  V30 9116 N 864.689 -1.48329 0.532571 0
M  V30 9117 C 865.938 -2.017 -0.00259705 0
M  V30 9118 C 866.251 -1.41469 -1.35077 0
M  V30 9119 O 867.457 -1.86354 -1.97445 0
M  V30 9120 C 865.913 -3.59858 -0.0550179 0
M  V30 9121 C 865.521 -4.29073 1.28842 0
M  V30 9122 C 867.265 -4.21066 -0.538878 0
M  V30 9123 C 865.172 -5.79171 1.19644 0
M  V30 9124 H 864.102 -0.753985 -0.00474081 0
M  V30 9125 H 866.753 -1.70565 0.676739 0
M  V30 9126 H 865.135 -3.87846 -0.799486 0
M  V30 9127 H 866.309 -4.12755 2.04865 0
M  V30 9128 H 864.624 -3.79748 1.70822 0
M  V30 9129 H 867.221 -5.31026 -0.6257 0
M  V30 9130 H 867.564 -3.86559 -1.54525 0
M  V30 9131 H 868.097 -3.97517 0.149984 0
M  V30 9132 H 864.836 -6.18257 2.17805 0
M  V30 9133 H 864.356 -5.97895 0.477609 0
M  V30 9134 H 866.035 -6.40875 0.888186 0
M  V30 9135 N 866.167 -0.267825 -1.55308 0
M  V30 9136 C 867.444 0.402449 -1.91415 0
M  V30 9137 C 867.824 1.7428 -1.1912 0
M  V30 9138 O 867.172 2.2631 -0.315609 0
M  V30 9139 C 867.382 0.549926 -3.4464 0
M  V30 9140 C 868.73 0.836188 -4.16285 0
M  V30 9141 O 869.754 0.635009 -3.50494 0
M  V30 9142 O 868.613 1.22051 -5.32697 0
M  V30 9143 H 865.707 0.219177 -0.797427 0
M  V30 9144 H 868.253 -0.313439 -1.6678 0
M  V30 9145 H 867.025 -0.393641 -3.89315 0
M  V30 9146 H 866.648 1.31556 -3.75205 0
M  V30 9147 N 867.645 1.57599 0.00500368 0
M  V30 9148 C 868.592 2.08106 0.998025 0
M  V30 9149 C 869.562 0.975374 1.34446 0
M  V30 9150 O 870.747 1.24749 1.44369 0
M  V30 9151 C 867.887 2.58496 2.28635 0
M  V30 9152 C 867 3.82947 1.99939 0
M  V30 9153 C 866.135 4.21857 3.22816 0
M  V30 9154 C 865.174 5.39159 2.89783 0
M  V30 9155 N 864.311 5.73386 4.05183 0
M  V30 9156 H 869.151 2.92684 0.560385 0
M  V30 9157 H 866.688 1.44692 0.265053 0
M  V30 9158 H 868.646 2.85787 3.03943 0
M  V30 9159 H 867.276 1.768 2.70077 0
M  V30 9160 H 866.328 3.62594 1.1502 0
M  V30 9161 H 867.64 4.68358 1.71588 0
M  V30 9162 H 866.794 4.50404 4.06474 0
M  V30 9163 H 865.533 3.35145 3.54301 0
M  V30 9164 H 864.538 5.1034 2.04532 0
M  V30 9165 H 865.763 6.27543 2.59551 0
M  V30 9166 H 863.709 4.89632 4.36574 0
M  V30 9167 H 863.626 6.53359 3.80339 0
M  V30 9168 H 864.894 6.06522 4.89644 0
M  V30 9169 N 869.123 -0.277682 1.55134 0
M  V30 9170 C 870.4 -1.0309 1.66228 0
M  V30 9171 C 870.78 -2.0445 0.525701 0
M  V30 9172 O 870.128 -2.23512 -0.474816 0
M  V30 9173 C 870.338 -1.6919 3.05247 0
M  V30 9174 C 871.686 -2.20526 3.62841 0
M  V30 9175 O 872.71 -1.79185 3.07849 0
M  V30 9176 O 871.569 -2.96342 4.59177 0
M  V30 9177 H 868.663 -0.4779 0.674937 0
M  V30 9178 H 871.209 -0.273912 1.67475 0
M  V30 9179 H 869.981 -0.957163 3.79413 0
M  V30 9180 H 869.604 -2.51587 3.07879 0
M  V30 9181 N 870.601 -1.47988 -0.541979 0
M  V30 9182 C 871.849 -1.55086 -1.29587 0
M  V30 9183 C 872.17 -0.221304 -1.9374 0
M  V30 9184 O 871.44 0.756128 -1.80719 0
M  V30 9185 H 870.02 -0.571307 -0.481266 0
M  V30 9186 H 872.682 -1.8438 -0.631675 0
M  V30 9187 H 871.778 -2.32556 -2.08144 0
M  V30 9188 N 872.079 0.78992 -1.36375 0
M  V30 9189 C 873.027 1.92394 -1.30719 0
M  V30 9190 C 874.021 1.68226 -0.199076 0
M  V30 9191 O 875.227 1.76239 -0.366051 0
M  V30 9192 H 871.602 0.632382 -0.406936 0
M  V30 9193 H 873.573 1.94282 -2.26488 0
M  V30 9194 C 872.322 3.2941 -1.11284 0
M  V30 9195 H 871.645 3.48573 -1.95798 0
M  V30 9196 H 873.085 4.09111 -1.11373 0
M  V30 9197 C 871.544 3.36405 0.182543 0
M  V30 9198 O 872.074 3.84206 1.17255 0
M  V30 9199 N 870.28 2.89712 0.227046 0
M  V30 9200 H 869.827 2.51004 -0.579217 0
M  V30 9201 H 869.785 2.94773 1.09344 0
M  V30 9202 N 873.557 1.20646 1.01402 0
M  V30 9203 C 874.787 1.04238 1.78376 0
M  V30 9204 C 875.195 -0.411327 1.84675 0
M  V30 9205 O 874.538 -1.29734 1.30057 0
M  V30 9206 C 874.6 1.55349 3.24202 0
M  V30 9207 C 874.264 3.03684 3.41504 0
M  V30 9208 C 875.261 4.01318 3.30514 0
M  V30 9209 C 872.946 3.42698 3.67237 0
M  V30 9210 C 874.94 5.35956 3.45007 0
M  V30 9211 C 872.627 4.77491 3.81373 0
M  V30 9212 C 873.625 5.73929 3.70263 0
M  V30 9213 O 873.313 7.06277 3.83963 0
M  V30 9214 H 873.045 0.366978 0.567718 0
M  V30 9215 H 875.599 1.60235 1.28506 0
M  V30 9216 H 873.829 0.93739 3.75166 0
M  V30 9217 H 875.518 1.34921 3.8282 0
M  V30 9218 H 876.284 3.72522 3.10568 0
M  V30 9219 H 872.163 2.68175 3.74971 0
M  V30 9220 H 875.707 6.11212 3.36252 0
M  V30 9221 H 871.604 5.05977 4.00821 0
M  V30 9222 H 872.372 7.13561 4.00965 0
M  V30 9223 N 875.035 -1.20752 1.01276 0
M  V30 9224 C 876.281 -1.90582 0.710627 0
M  V30 9225 C 876.636 -1.7713 -0.751184 0
M  V30 9226 O 875.929 -1.14223 -1.5383 0
M  V30 9227 C 876.123 -3.40808 1.07633 0
M  V30 9228 C 875.952 -3.68878 2.57214 0
M  V30 9229 C 874.722 -3.87805 3.23937 0
M  V30 9230 C 876.92 -3.71753 3.55393 0
M  V30 9231 N 874.902 -4.0336 4.62789 0
M  V30 9232 C 876.273 -3.92686 4.79789 0
M  V30 9233 C 878.328 -3.54697 3.4942 0
M  V30 9234 C 877.031 -3.98332 5.98936 0
M  V30 9235 C 879.057 -3.61612 4.67964 0
M  V30 9236 C 878.419 -3.83014 5.91168 0
M  V30 9237 H 874.518 -0.717219 0.311643 0
M  V30 9238 H 877.102 -1.45228 1.2968 0
M  V30 9239 H 875.273 -3.84923 0.518527 0
M  V30 9240 H 877.005 -3.98096 0.728128 0
M  V30 9241 H 873.76 -3.86029 2.74369 0
M  V30 9242 H 874.184 -4.15023 5.34869 0
M  V30 9243 H 878.826 -3.3712 2.55166 0
M  V30 9244 H 876.544 -4.14706 6.93574 0
M  V30 9245 H 880.13 -3.49728 4.64954 0
M  V30 9246 H 879.01 -3.88219 6.81363 0
M  V30 9247 N 876.513 -0.788492 -1.36457 0
M  V30 9248 C 877.759 -0.360995 -1.99561 0
M  V30 9249 C 878.092 1.06433 -1.62437 0
M  V30 9250 O 877.367 1.7352 -0.878705 0
M  V30 9251 C 877.65 -0.523735 -3.56271 0
M  V30 9252 C 877.503 -1.99268 -4.03252 0
M  V30 9253 C 878.822 0.0617908 -4.40057 0
M  V30 9254 H 875.941 -0.13264 -0.724966 0
M  V30 9255 H 878.583 -0.994659 -1.61884 0
M  V30 9256 H 876.733 0.0156979 -3.88497 0
M  V30 9257 H 878.405 -2.59311 -3.81518 0
M  V30 9258 H 876.648 -2.49561 -3.54826 0
M  V30 9259 H 877.319 -2.05752 -5.12221 0
M  V30 9260 H 879.795 -0.398674 -4.14186 0
M  V30 9261 H 878.671 -0.0821089 -5.48839 0
M  V30 9262 H 878.932 1.15381 -4.26778 0
M  V30 9263 N 877.991 1.48044 -0.54043 0
M  V30 9264 C 879.219 2.06895 -0.0145153 0
M  V30 9265 C 879.634 1.39552 1.27164 0
M  V30 9266 O 878.991 0.486454 1.75897 0
M  V30 9267 C 879.042 3.60934 0.202278 0
M  V30 9268 O 878.763 4.25749 -1.03293 0
M  V30 9269 C 880.264 4.36607 0.767387 0
M  V30 9270 H 877.484 0.66991 -0.0382368 0
M  V30 9271 H 880.028 1.90288 -0.749057 0
M  V30 9272 H 878.183 3.77111 0.886897 0
M  V30 9273 H 878.597 5.18048 -0.820167 0
M  V30 9274 H 880.071 5.45126 0.86845 0
M  V30 9275 H 880.548 4.01745 1.77477 0
M  V30 9276 H 881.154 4.25133 0.119002 0
M  V30 9277 N 879.47 0.276058 1.55163 0
M  V30 9278 C 880.747 -0.392292 1.91626 0
M  V30 9279 C 881.127 -1.73646 1.20043 0
M  V30 9280 O 880.475 -2.26139 0.327606 0
M  V30 9281 C 880.685 -0.531641 3.44927 0
M  V30 9282 C 882.033 -0.8141 4.16722 0
M  V30 9283 O 883.057 -0.616413 3.50826 0
M  V30 9284 O 881.916 -1.19224 5.33337 0
M  V30 9285 H 879.01 -0.214945 0.798579 0
M  V30 9286 H 881.556 0.32228 1.66612 0
M  V30 9287 H 880.328 0.414282 3.89101 0
M  V30 9288 H 879.951 -1.29564 3.75897 0
M  V30 9289 N 880.948 -1.576 0.00335426 0
M  V30 9290 C 882.194 -1.90996 -0.681799 0
M  V30 9291 C 882.527 -0.877643 -1.73237 0
M  V30 9292 O 881.802 0.103183 -1.94226 0
M  V30 9293 C 882.085 -3.34961 -1.32187 0
M  V30 9294 C 881.938 -4.48911 -0.28261 0
M  V30 9295 C 883.257 -3.78408 -2.24711 0
M  V30 9296 H 880.376 -0.694596 -0.246386 0
M  V30 9297 H 883.018 -1.89919 0.055336 0
M  V30 9298 H 881.168 -3.36008 -1.95014 0
M  V30 9299 H 882.84 -4.59999 0.346241 0
M  V30 9300 H 881.083 -4.32 0.394768 0
M  V30 9301 H 881.754 -5.46609 -0.769576 0
M  V30 9302 H 884.23 -3.78934 -1.71897 0
M  V30 9303 H 883.106 -4.79885 -2.66461 0
M  V30 9304 H 883.367 -3.12464 -3.1276 0
M  V30 9305 N 882.426 0.269451 -1.5528 0
M  V30 9306 C 883.389 1.31642 -1.87625 0
M  V30 9307 C 884.389 1.42182 -0.751058 0
M  V30 9308 O 885.579 1.41272 -1.01921 0
M  V30 9309 C 882.711 2.6973 -2.08467 0
M  V30 9310 H 883.904 1.0419 -2.81219 0
M  V30 9311 H 881.457 0.507685 -1.47825 0
M  V30 9312 H 882.192 3.02356 -1.17266 0
M  V30 9313 H 881.977 2.63465 -2.90394 0
M  V30 9314 H 883.467 3.4537 -2.34753 0
M  V30 9315 N 883.904 1.48273 0.534124 0
M  V30 9316 C 884.834 1.6538 1.64839 0
M  V30 9317 C 885.815 0.502741 1.62501 0
M  V30 9318 O 887 0.734799 1.79762 0
M  V30 9319 C 884.13 1.68949 3.03436 0
M  V30 9320 C 883.084 2.83513 3.20631 0
M  V30 9321 C 882.41 2.72169 4.60248 0
M  V30 9322 C 883.71 4.24858 3.03797 0
M  V30 9323 H 885.404 2.58663 1.50777 0
M  V30 9324 H 882.95 1.24479 0.723937 0
M  V30 9325 H 884.903 1.79505 3.81256 0
M  V30 9326 H 883.627 0.722415 3.1851 0
M  V30 9327 H 882.286 2.72505 2.45227 0
M  V30 9328 H 881.934 1.7344 4.72152 0
M  V30 9329 H 881.634 3.49042 4.72698 0
M  V30 9330 H 883.158 2.84687 5.40172 0
M  V30 9331 H 884.572 4.36721 3.71413 0
M  V30 9332 H 882.969 5.02697 3.27743 0
M  V30 9333 H 884.039 4.41611 2.0027 0
M  V30 9334 N 885.382 -0.782676 1.36792 0
M  V30 9335 C 886.332 -1.8855 1.28191 0
M  V30 9336 C 887.316 -1.59978 0.171984 0
M  V30 9337 O 888.508 -1.72295 0.405405 0
M  V30 9338 C 885.637 -3.25862 1.08021 0
M  V30 9339 C 884.723 -3.60422 2.2351 0
M  V30 9340 N 885.114 -3.66241 3.48857 0
M  V30 9341 C 883.412 -3.90523 2.15424 0
M  V30 9342 C 884.113 -3.97233 4.24948 0
M  V30 9343 N 883.089 -4.12567 3.53963 0
M  V30 9344 H 886.891 -1.91285 2.23131 0
M  V30 9345 H 884.405 -0.978554 1.29607 0
M  V30 9346 H 886.402 -4.04742 0.999458 0
M  V30 9347 H 885.062 -3.24399 0.139882 0
M  V30 9348 H 886.073 -3.48717 3.82906 0
M  V30 9349 H 882.75 -3.96945 1.29386 0
M  V30 9350 H 884.14 -4.08602 5.33379 0
M  V30 9351 N 886.86 -1.21182 -1.00761 0
M  V30 9352 C 887.792 -0.926523 -2.09638 0
M  V30 9353 C 888.805 0.0892511 -1.62555 0
M  V30 9354 O 889.994 -0.142915 -1.77927 0
M  V30 9355 C 887.094 -0.369175 -3.36883 0
M  V30 9356 C 886.267 -1.43866 -4.13063 0
M  V30 9357 C 885.326 -0.891015 -5.18601 0
M  V30 9358 O 884.352 -1.57384 -5.47009 0
M  V30 9359 N 885.554 0.295057 -5.7975 0
M  V30 9360 H 888.319 -1.8638 -2.34697 0
M  V30 9361 H 885.88 -1.11671 -1.17223 0
M  V30 9362 H 887.872 0.011534 -4.04698 0
M  V30 9363 H 886.442 0.472861 -3.09003 0
M  V30 9364 H 885.662 -1.99332 -3.40089 0
M  V30 9365 H 886.95 -2.15866 -4.60738 0
M  V30 9366 H 886.348 0.8669 -5.59018 0
M  V30 9367 H 884.905 0.617306 -6.4887 0
M  V30 9368 N 888.338 1.20213 -1.01915 0
M  V30 9369 C 889.584 1.89928 -0.711007 0
M  V30 9370 C 889.917 1.7881 0.75767 0
M  V30 9371 O 889.192 1.17399 1.55073 0
M  V30 9372 C 889.475 3.41225 -1.15053 0
M  V30 9373 C 889.328 3.61264 -2.67971 0
M  V30 9374 C 890.647 4.34108 -0.72377 0
M  V30 9375 H 887.766 0.689702 -0.259768 0
M  V30 9376 H 890.408 1.41557 -1.26734 0
M  V30 9377 H 888.558 3.82552 -0.677199 0
M  V30 9378 H 890.23 3.29173 -3.23176 0
M  V30 9379 H 888.473 3.04647 -3.08824 0
M  V30 9380 H 889.144 4.67331 -2.93779 0
M  V30 9381 H 891.62 4.00442 -1.13073 0
M  V30 9382 H 890.496 5.38581 -1.05931 0
M  V30 9383 H 890.757 4.40512 0.374424 0
M  V30 9384 N 889.816 0.795718 1.36037 0
M  V30 9385 C 891.063 0.371024 1.99072 0
M  V30 9386 C 891.391 -1.05896 1.63145 0
M  V30 9387 O 890.646 -1.7474 0.881163 0
M  V30 9388 C 890.945 0.489038 3.54038 0
M  V30 9389 C 890.611 1.88075 4.09803 0
M  V30 9390 C 889.273 2.26152 4.24745 0
M  V30 9391 C 891.625 2.79174 4.40126 0
M  V30 9392 C 888.953 3.54718 4.67324 0
M  V30 9393 C 891.305 4.07175 4.8414 0
M  V30 9394 C 889.969 4.45266 4.97287 0
M  V30 9395 H 889.239 0.135767 0.728456 0
M  V30 9396 H 891.886 1.0144 1.62426 0
M  V30 9397 H 890.191 -0.237823 3.91078 0
M  V30 9398 H 891.888 0.141374 4.00751 0
M  V30 9399 H 888.478 1.57488 3.98617 0
M  V30 9400 H 892.662 2.51009 4.28145 0
M  V30 9401 H 887.918 3.84093 4.75691 0
M  V30 9402 H 892.092 4.77875 5.06565 0
M  V30 9403 H 889.719 5.44943 5.30038 0
M  V30 9404 N 891.294 -1.47756 0.548274 0
M  V30 9405 C 892.241 -2.29893 -0.204408 0
M  V30 9406 C 893.211 -1.38509 -0.916761 0
M  V30 9407 O 894.396 -1.67472 -0.91421 0
M  V30 9408 C 891.536 -3.22282 -1.23403 0
M  V30 9409 C 890.649 -4.28753 -0.528654 0
M  V30 9410 C 889.784 -5.08303 -1.54279 0
M  V30 9411 C 888.823 -6.06557 -0.821893 0
M  V30 9412 N 887.96 -6.79098 -1.78243 0
M  V30 9413 H 892.8 -2.93739 0.502163 0
M  V30 9414 H 890.337 -1.44793 0.259471 0
M  V30 9415 H 892.295 -3.74262 -1.84348 0
M  V30 9416 H 890.925 -2.6032 -1.90875 0
M  V30 9417 H 889.977 -3.79899 0.195132 0
M  V30 9418 H 891.289 -4.98787 0.0365066 0
M  V30 9419 H 890.443 -5.64388 -2.22602 0
M  V30 9420 H 889.182 -4.3815 -2.14186 0
M  V30 9421 H 888.187 -5.49659 -0.12469 0
M  V30 9422 H 889.412 -6.78715 -0.228685 0
M  V30 9423 H 887.358 -6.11682 -2.37025 0
M  V30 9424 H 887.275 -7.4527 -1.26919 0
M  V30 9425 H 888.543 -7.39762 -2.45709 0
M  V30 9426 N 892.772 -0.284283 -1.55015 0
M  V30 9427 C 893.702 0.592663 -2.25853 0
M  V30 9428 C 894.683 1.15151 -1.25197 0
M  V30 9429 O 895.868 1.18395 -1.53936 0
M  V30 9430 C 892.998 1.77254 -2.98661 0
M  V30 9431 C 891.952 1.34482 -4.06323 0
M  V30 9432 C 891.278 2.60853 -4.66754 0
M  V30 9433 C 892.578 0.488288 -5.20013 0
M  V30 9434 H 894.272 0.00187041 -2.994 0
M  V30 9435 H 891.818 -0.000540402 -1.44 0
M  V30 9436 H 893.771 2.39199 -3.46932 0
M  V30 9437 H 892.495 2.38931 -2.22664 0
M  V30 9438 H 891.154 0.748519 -3.58877 0
M  V30 9439 H 890.802 3.20808 -3.87416 0
M  V30 9440 H 890.502 2.32942 -5.39455 0
M  V30 9441 H 892.026 3.23631 -5.1778 0
M  V30 9442 H 893.44 1.01298 -5.6428 0
M  V30 9443 H 891.837 0.303669 -5.99331 0
M  V30 9444 H 892.907 -0.490727 -4.8241 0
M  V30 9445 N 894.251 1.57596 -0.0117121 0
M  V30 9446 C 895.528 1.82323 0.708356 0
M  V30 9447 C 895.908 0.891947 1.91331 0
M  V30 9448 O 895.256 -0.0565984 2.2843 0
M  V30 9449 C 895.466 3.31111 1.10303 0
M  V30 9450 C 896.814 3.97147 1.50199 0
M  V30 9451 O 897.838 3.35503 1.1965 0
M  V30 9452 O 896.697 5.0576 2.07049 0
M  V30 9453 H 893.791 0.751173 0.345931 0
M  V30 9454 H 896.337 1.69657 -0.0380632 0
M  V30 9455 H 895.109 3.90534 0.24467 0
M  V30 9456 H 894.732 3.48818 1.90818 0
M  V30 9457 N 895.729 -0.261212 1.5542 0
M  V30 9458 C 897.14 -0.83138 1.67167 0
M  V30 9459 C 897.491 -1.8659 0.606525 0
M  V30 9460 O 896.616 -2.14953 -0.24985 0
M  V30 9461 C 897.211 -1.51475 3.03052 0
M  V30 9462 C 895.77 -2.0328 3.16787 0
M  V30 9463 C 894.917 -0.878903 2.63003 0
M  V30 9464 H 897.868 -0.0373102 1.58656 0
M  V30 9465 H 897.889 -2.38222 2.96699 0
M  V30 9466 H 897.401 -0.76157 3.80554 0
M  V30 9467 H 895.502 -2.81523 2.44082 0
M  V30 9468 H 895.615 -2.24001 4.2351 0
M  V30 9469 H 893.979 -1.27551 2.2046 0
M  V30 9470 H 894.762 -0.13904 3.43018 0
M  V30 9471 N 897.207 -1.48554 -0.526253 0
M  V30 9472 C 898.155 -1.63804 -1.65139 0
M  V30 9473 C 899.149 -0.504398 -1.61716 0
M  V30 9474 O 900.355 -0.683241 -1.66529 0
M  V30 9475 H 896.73 -0.516071 -0.546969 0
M  V30 9476 H 898.701 -2.58294 -1.49421 0
M  V30 9477 C 897.45 -1.69843 -3.03395 0
M  V30 9478 H 896.773 -2.56438 -3.06724 0
M  V30 9479 H 898.213 -1.84555 -3.81727 0
M  V30 9480 C 896.672 -0.437875 -3.34042 0
M  V30 9481 O 897.202 0.447604 -3.99198 0
M  V30 9482 N 895.408 -0.308444 -2.88958 0
M  V30 9483 H 894.955 -1.02998 -2.36112 0
M  V30 9484 H 894.913 0.533952 -3.09833 0
M  V30 9485 N 898.685 0.775411 -1.37205 0
M  V30 9486 C 899.633 1.90996 -1.32752 0
M  V30 9487 C 900.627 1.68006 -0.216907 0
M  V30 9488 O 901.833 1.7584 -0.384723 0
M  V30 9489 H 898.208 0.62803 -0.413621 0
M  V30 9490 H 900.179 1.91869 -2.28536 0
M  V30 9491 C 898.928 3.28211 -1.14772 0
M  V30 9492 H 898.251 3.46477 -1.99484 0
M  V30 9493 H 899.691 4.07907 -1.15706 0
M  V30 9494 C 898.15 3.3658 0.146852 0
M  V30 9495 O 898.68 3.85428 1.13173 0
M  V30 9496 N 896.886 2.89936 0.196305 0
M  V30 9497 H 896.433 2.50375 -0.605807 0
M  V30 9498 H 896.391 2.95916 1.06212 0
M  V30 9499 N 900.163 1.21714 1.00117 0
M  V30 9500 C 901.11 0.979837 2.08968 0
M  V30 9501 C 902.08 -0.0955324 1.65825 0
M  V30 9502 O 903.265 0.0523742 1.90728 0
M  V30 9503 C 900.405 0.554758 3.40612 0
M  V30 9504 C 899.518 1.69999 3.97145 0
M  V30 9505 C 898.653 1.2237 5.16913 0
M  V30 9506 C 897.692 2.34101 5.65564 0
M  V30 9507 N 896.829 1.87579 6.76579 0
M  V30 9508 H 901.669 1.91167 2.28602 0
M  V30 9509 H 899.206 0.952645 1.12085 0
M  V30 9510 H 901.164 0.289526 4.16194 0
M  V30 9511 H 899.794 -0.340073 3.21004 0
M  V30 9512 H 898.846 2.07976 3.18512 0
M  V30 9513 H 900.158 2.54074 4.29241 0
M  V30 9514 H 899.312 0.915358 5.99755 0
M  V30 9515 H 898.051 0.353045 4.8642 0
M  V30 9516 H 897.056 2.65734 4.81316 0
M  V30 9517 H 898.281 3.21669 5.98085 0
M  V30 9518 H 896.227 1.02863 6.47885 0
M  V30 9519 H 896.144 2.65225 7.07949 0
M  V30 9520 H 897.412 1.5979 7.62947 0
M  V30 9521 N 901.641 -1.19671 1.02551 0
M  V30 9522 C 902.551 -2.26441 0.613329 0
M  V30 9523 C 903.567 -1.70375 -0.353339 0
M  V30 9524 O 904.743 -2.0028 -0.212064 0
M  V30 9525 C 901.808 -3.46684 -0.0329028 0
M  V30 9526 C 900.869 -4.17945 0.980837 0
M  V30 9527 C 900.102 -5.32448 0.36535 0
M  V30 9528 O 900.325 -5.64291 -0.832596 0
M  V30 9529 O 899.259 -5.92012 1.08652 0
M  V30 9530 H 903.085 -2.63932 1.50246 0
M  V30 9531 H 900.67 -1.2646 0.795502 0
M  V30 9532 H 902.552 -4.1956 -0.393395 0
M  V30 9533 H 901.227 -3.1105 -0.896089 0
M  V30 9534 H 900.134 -3.47204 1.39286 0
M  V30 9535 H 901.467 -4.57542 1.81428 0
M  V30 9536 N 903.119 -0.802921 -1.35613 0
M  V30 9537 C 904.367 -0.380822 -1.9848 0
M  V30 9538 C 904.688 1.05464 -1.6402 0
M  V30 9539 O 903.958 1.72908 -0.920854 0
M  V30 9540 H 902.538 -0.137824 -0.734176 0
M  V30 9541 H 905.2 -1.02795 -1.65587 0
M  V30 9542 H 904.296 -0.483565 -3.08331 0
M  V30 9543 N 904.597 1.47463 -0.556102 0
M  V30 9544 C 906.008 1.86298 -0.122429 0
M  V30 9545 C 906.359 1.46285 1.30749 0
M  V30 9546 O 905.484 0.865405 1.98342 0
M  V30 9547 C 906.079 3.38115 -0.215407 0
M  V30 9548 C 904.638 3.76046 0.163223 0
M  V30 9549 C 903.785 2.71515 -0.563466 0
M  V30 9550 H 906.736 1.38996 -0.765888 0
M  V30 9551 H 906.757 3.76263 0.566271 0
M  V30 9552 H 906.269 3.67207 -1.25622 0
M  V30 9553 H 904.37 3.5257 1.20519 0
M  V30 9554 H 904.483 4.78705 -0.194568 0
M  V30 9555 H 902.847 2.54699 -0.00667879 0
M  V30 9556 H 903.63 3.03449 -1.60542 0
M  V30 9557 N 906.075 0.2925 1.54862 0
M  V30 9558 C 907.321 -0.319736 2.00264 0
M  V30 9559 C 907.654 -1.5419 1.18064 0
M  V30 9560 O 906.929 -1.92821 0.254983 0
M  V30 9561 C 907.212 -0.684753 3.5353 0
M  V30 9562 C 907.065 0.545961 4.46474 0
M  V30 9563 C 908.384 -1.51456 4.13218 0
M  V30 9564 H 905.503 -0.11474 0.728014 0
M  V30 9565 H 908.145 0.402907 1.85679 0
M  V30 9566 H 906.295 -1.30044 3.66089 0
M  V30 9567 H 907.967 1.18448 4.45834 0
M  V30 9568 H 906.21 1.1808 4.1742 0
M  V30 9569 H 906.881 0.246544 5.51449 0
M  V30 9570 H 909.357 -0.994421 4.04043 0
M  V30 9571 H 908.233 -1.73875 5.20633 0
M  V30 9572 H 908.494 -2.5011 3.64551 0
M  V30 9573 N 907.553 -1.57587 0.0200696 0
M  V30 9574 C 908.483 -2.12702 -0.963333 0
M  V30 9575 C 909.464 -1.04094 -1.34531 0
M  V30 9576 O 910.649 -1.31881 -1.42552 0
M  V30 9577 C 907.779 -2.64673 -2.24868 0
M  V30 9578 C 906.733 -3.77987 -2.00772 0
M  V30 9579 C 906.059 -4.16351 -3.35494 0
M  V30 9580 C 907.359 -5.0444 -1.35416 0
M  V30 9581 H 909.053 -2.95121 -0.504363 0
M  V30 9582 H 906.599 -1.41966 -0.24116 0
M  V30 9583 H 908.552 -3.01862 -2.94036 0
M  V30 9584 H 907.276 -1.79403 -2.72914 0
M  V30 9585 H 905.935 -3.41223 -1.34025 0
M  V30 9586 H 905.583 -3.28075 -3.81282 0
M  V30 9587 H 905.283 -4.92705 -3.20181 0
M  V30 9588 H 906.807 -4.56115 -4.05945 0
M  V30 9589 H 908.221 -5.39273 -1.94571 0
M  V30 9590 H 906.618 -5.85732 -1.30529 0
M  V30 9591 H 907.688 -4.83803 -0.325923 0
M  V30 9592 N 909.032 0.252966 -1.55557 0
M  V30 9593 C 910.281 0.979736 -1.76307 0
M  V30 9594 C 910.594 1.86714 -0.582871 0
M  V30 9595 O 911.8 2.6302 -0.673247 0
M  V30 9596 C 910.256 1.79205 -3.12112 0
M  V30 9597 C 909.864 0.952333 -4.37761 0
M  V30 9598 C 911.608 2.51191 -3.42203 0
M  V30 9599 C 909.515 1.76018 -5.64599 0
M  V30 9600 H 908.445 0.369538 -0.657235 0
M  V30 9601 H 911.096 0.234619 -1.81994 0
M  V30 9602 H 909.478 2.57888 -3.00515 0
M  V30 9603 H 910.652 0.208251 -4.60329 0
M  V30 9604 H 908.967 0.346082 -4.14959 0
M  V30 9605 H 911.564 3.12074 -4.34182 0
M  V30 9606 H 911.907 3.22499 -2.63249 0
M  V30 9607 H 912.44 1.79523 -3.54988 0
M  V30 9608 H 909.179 1.09095 -6.46358 0
M  V30 9609 H 908.699 2.4797 -5.46142 0
M  V30 9610 H 910.378 2.32884 -6.03634 0
M  V30 9611 N 910.51 1.48831 0.518367 0
M  V30 9612 C 911.44 1.67119 1.63075 0
M  V30 9613 C 912.421 0.519948 1.61958 0
M  V30 9614 O 913.606 0.753824 1.78972 0
M  V30 9615 C 910.736 1.72158 3.01627 0
M  V30 9616 C 909.69 2.86898 3.17606 0
M  V30 9617 C 909.016 2.77035 4.57335 0
M  V30 9618 C 910.316 4.28057 2.99274 0
M  V30 9619 H 912.01 2.60248 1.48025 0
M  V30 9620 H 909.556 1.2524 0.710694 0
M  V30 9621 H 911.509 1.83539 3.7933 0
M  V30 9622 H 910.233 0.756157 3.17726 0
M  V30 9623 H 908.892 2.75091 2.42323 0
M  V30 9624 H 908.54 1.78438 4.70286 0
M  V30 9625 H 908.24 3.54036 4.6897 0
M  V30 9626 H 909.764 2.904 5.37122 0
M  V30 9627 H 911.178 4.40636 3.6676 0
M  V30 9628 H 909.575 5.06145 3.22393 0
M  V30 9629 H 910.645 4.4371 1.95574 0
M  V30 9630 N 911.988 -0.768124 1.37614 0
M  V30 9631 C 913.236 -1.52379 1.3276 0
M  V30 9632 C 913.557 -1.94809 -0.0863564 0
M  V30 9633 O 912.827 -1.66568 -1.03112 0
M  V30 9634 H 911.407 -0.565179 0.488448 0
M  V30 9635 H 914.069 -0.913974 1.72141 0
M  V30 9636 H 913.165 -2.4215 1.96901 0
M  V30 9637 N 913.466 -1.22244 -0.994698 0
M  V30 9638 C 914.882 -0.982006 -1.25813 0
M  V30 9639 C 915.082 0.325488 -1.98854 0
M  V30 9640 O 914.138 1.04857 -2.29698 0
M  V30 9641 C 915.451 -2.1795 -2.07167 0
M  V30 9642 C 916.999 -2.22287 -2.20358 0
M  V30 9643 C 917.474 -3.41583 -3.05098 0
M  V30 9644 N 918.965 -3.41734 -3.12686 0
M  V30 9645 C 919.7 -4.30692 -3.78539 0
M  V30 9646 N 919.196 -5.29865 -4.46335 0
M  V30 9647 N 920.989 -4.18473 -3.75283 0
M  V30 9648 H 913.14 -2.0631 -0.504963 0
M  V30 9649 H 915.403 -0.90395 -0.285618 0
M  V30 9650 H 915.109 -3.12758 -1.60858 0
M  V30 9651 H 914.983 -2.17862 -3.07922 0
M  V30 9652 H 917.37 -1.28028 -2.65881 0
M  V30 9653 H 917.451 -2.26414 -1.19039 0
M  V30 9654 H 917.095 -4.36141 -2.60275 0
M  V30 9655 H 917.025 -3.34695 -4.06555 0
M  V30 9656 H 919.516 -2.69969 -2.64433 0
M  V30 9657 H 919.829 -5.94027 -4.9432 0
M  V30 9658 H 918.174 -5.3378 -4.45089 0
M  V30 9659 H 921.365 -3.40249 -3.21478 0
M  V30 9660 H 921.538 -4.88007 -4.26326 0
M  V30 9661 N 914.944 1.19125 -1.03184 0
M  V30 9662 C 916.169 1.93379 -0.749628 0
M  V30 9663 C 916.594 1.75153 0.685785 0
M  V30 9664 O 915.952 1.05579 1.47386 0
M  V30 9665 C 916 3.43101 -1.1097 0
M  V30 9666 O 915.104 4.11758 -0.230053 0
M  V30 9667 H 914.445 0.603605 -0.276689 0
M  V30 9668 H 916.975 1.51116 -1.37931 0
M  V30 9669 H 916.985 3.93778 -1.06785 0
M  V30 9670 H 915.66 3.55688 -2.15544 0
M  V30 9671 H 914.237 3.7143 -0.330748 0
M  V30 9672 N 916.422 0.810101 1.35185 0
M  V30 9673 C 917.355 0.168416 2.27578 0
M  V30 9674 C 918.333 -0.667664 1.4826 0
M  V30 9675 O 919.517 -0.634184 1.77512 0
M  V30 9676 C 916.644 -0.765994 3.29925 0
M  V30 9677 C 915.69 -0.00908802 4.26499 0
M  V30 9678 S 916.523 1.32936 5.18737 0
M  V30 9679 C 917.679 0.399485 6.24624 0
M  V30 9680 H 917.912 0.951753 2.81654 0
M  V30 9681 H 915.445 0.60534 1.42039 0
M  V30 9682 H 917.403 -1.2996 3.89385 0
M  V30 9683 H 916.064 -1.52275 2.7472 0
M  V30 9684 H 915.257 -0.718919 4.98846 0
M  V30 9685 H 914.859 0.454663 3.71226 0
M  V30 9686 H 917.151 -0.413904 6.76234 0
M  V30 9687 H 918.094 1.09225 6.99625 0
M  V30 9688 H 918.502 -0.00638358 5.645 0
M  V30 9689 N 917.9 -1.47166 0.563914 0
M  V30 9690 C 918.832 -2.28165 -0.217583 0
M  V30 9691 C 919.845 -1.37405 -0.873134 0
M  V30 9692 O 921.034 -1.6217 -0.745857 0
M  V30 9693 C 918.134 -3.11873 -1.32621 0
M  V30 9694 C 917.307 -4.30637 -0.766177 0
M  V30 9695 C 916.366 -4.95889 -1.76014 0
M  V30 9696 O 915.392 -5.54071 -1.3036 0
M  V30 9697 N 916.594 -4.91191 -3.09373 0
M  V30 9698 H 919.359 -2.95876 0.477256 0
M  V30 9699 H 916.92 -1.5687 0.40043 0
M  V30 9700 H 918.912 -3.52392 -1.99003 0
M  V30 9701 H 917.482 -2.46361 -1.92419 0
M  V30 9702 H 916.702 -3.94129 0.0745998 0
M  V30 9703 H 917.99 -5.07442 -0.371472 0
M  V30 9704 H 917.388 -4.45133 -3.49104 0
M  V30 9705 H 915.945 -5.35708 -3.71295 0
M  V30 9706 N 919.378 -0.300708 -1.54705 0
M  V30 9707 C 920.789 0.191995 -1.8571 0
M  V30 9708 C 921.14 1.53447 -1.22264 0
M  V30 9709 O 920.265 2.10054 -0.520226 0
M  V30 9710 C 920.86 0.355148 -3.36933 0
M  V30 9711 C 919.419 0.792071 -3.67972 0
M  V30 9712 C 918.566 -0.099756 -2.77121 0
M  V30 9713 H 921.517 -0.521729 -1.49879 0
M  V30 9714 H 921.538 1.18977 -3.61421 0
M  V30 9715 H 921.05 -0.622075 -3.83082 0
M  V30 9716 H 919.151 1.77986 -3.27341 0
M  V30 9717 H 919.264 0.611661 -4.75179 0
M  V30 9718 H 917.628 0.420909 -2.51198 0
M  V30 9719 H 918.411 -1.07333 -3.2609 0
M  V30 9720 N 920.856 1.57574 -0.0284266 0
M  V30 9721 C 922.104 1.91393 0.649079 0
M  V30 9722 C 922.425 0.905368 1.72708 0
M  V30 9723 O 921.695 -0.0532107 1.95828 0
M  V30 9724 H 920.275 0.70646 0.24274 0
M  V30 9725 H 922.937 1.94752 -0.076066 0
M  V30 9726 H 922.033 2.91988 1.10226 0
M  V30 9727 N 922.334 -0.244713 1.55689 0
M  V30 9728 C 923.559 -0.994157 1.8202 0
M  V30 9729 C 923.984 -1.78079 0.60577 0
M  V30 9730 O 923.342 -1.75748 -0.445221 0
M  V30 9731 C 923.39 -1.90599 3.06111 0
M  V30 9732 O 922.494 -2.99804 2.8318 0
M  V30 9733 H 921.835 -0.282767 0.600782 0
M  V30 9734 H 924.365 -0.26504 2.02876 0
M  V30 9735 H 924.375 -2.32023 3.35603 0
M  V30 9736 H 923.05 -1.32763 3.9414 0
M  V30 9737 H 921.627 -2.62493 2.64862 0
M  V30 9738 N 923.813 -1.49104 -0.510467 0
M  V30 9739 C 925.09 -1.48609 -1.27179 0
M  V30 9740 C 925.47 -0.208537 -2.10067 0
M  V30 9741 O 924.818 0.809335 -2.13687 0
M  V30 9742 C 925.028 -2.75953 -2.1366 0
M  V30 9743 C 926.376 -3.25067 -2.73161 0
M  V30 9744 O 927.4 -2.77005 -2.23934 0
M  V30 9745 O 926.259 -4.08747 -3.62751 0
M  V30 9746 H 923.353 -0.594374 -0.57502 0
M  V30 9747 H 925.899 -1.61358 -0.525515 0
M  V30 9748 H 924.671 -3.60434 -1.52325 0
M  V30 9749 H 924.294 -2.66019 -2.95499 0
M  V30 9750 N 925.291 0.760815 -1.38019 0
M  V30 9751 C 926.223 1.88387 -1.30549 0
M  V30 9752 C 927.236 1.61319 -0.219119 0
M  V30 9753 O 928.425 1.72033 -0.476122 0
M  V30 9754 C 925.525 3.23863 -0.998291 0
M  V30 9755 C 924.698 3.78492 -2.19232 0
M  V30 9756 C 923.757 4.92468 -1.85368 0
M  V30 9757 O 922.783 5.0748 -2.57785 0
M  V30 9758 N 923.985 5.74901 -0.804319 0
M  V30 9759 H 926.75 1.95308 -2.27322 0
M  V30 9760 H 924.311 0.940423 -1.31786 0
M  V30 9761 H 926.303 3.97644 -0.7524 0
M  V30 9762 H 924.873 3.12374 -0.11877 0
M  V30 9763 H 924.093 2.96361 -2.5993 0
M  V30 9764 H 925.381 4.11722 -2.98935 0
M  V30 9765 H 924.779 5.65333 -0.203628 0
M  V30 9766 H 923.336 6.48861 -0.618301 0
M  V30 9767 N 926.769 1.22769 0.988202 0
M  V30 9768 C 927.717 0.999271 2.10041 0
M  V30 9769 C 928.711 -0.0591767 1.69297 0
M  V30 9770 O 929.917 0.0936653 1.79756 0
M  V30 9771 H 926.292 0.30599 0.686931 0
M  V30 9772 H 928.263 1.94294 2.26478 0
M  V30 9773 C 927.012 0.59873 3.42506 0
M  V30 9774 H 926.335 1.40487 3.74304 0
M  V30 9775 H 927.775 0.478353 4.21293 0
M  V30 9776 C 926.234 -0.692216 3.29712 0
M  V30 9777 O 926.764 -1.74342 3.61895 0
M  V30 9778 N 924.97 -0.665163 2.82885 0
M  V30 9779 H 924.517 0.190604 2.56894 0
M  V30 9780 H 924.475 -1.52917 2.74706 0
M  V30 9781 N 928.247 -1.18576 1.03814 0
M  V30 9782 C 929.197 -2.20034 0.597409 0
M  V30 9783 C 930.181 -1.56849 -0.358796 0
M  V30 9784 O 931.373 -1.761 -0.178262 0
M  V30 9785 C 928.502 -3.43276 -0.0407965 0
M  V30 9786 C 927.588 -4.13588 0.938404 0
M  V30 9787 N 927.979 -4.59941 2.10447 0
M  V30 9788 C 926.277 -4.3941 0.763853 0
M  V30 9789 C 926.978 -5.1404 2.72282 0
M  V30 9790 N 925.954 -5.05401 2.00176 0
M  V30 9791 H 929.756 -2.53562 1.48606 0
M  V30 9792 H 927.27 -1.34753 0.906384 0
M  V30 9793 H 929.267 -4.15217 -0.374222 0
M  V30 9794 H 927.927 -3.11245 -0.925014 0
M  V30 9795 H 928.938 -4.54471 2.48347 0
M  V30 9796 H 925.615 -4.1744 -0.0704869 0
M  V30 9797 H 927.005 -5.60128 3.71088 0
M  V30 9798 N 929.725 -0.817259 -1.34754 0
M  V30 9799 C 930.972 -0.402648 -1.98457 0
M  V30 9800 C 931.3 1.03287 -1.64809 0
M  V30 9801 O 930.555 1.73316 -0.908851 0
M  V30 9802 C 930.854 -0.5453 -3.53216 0
M  V30 9803 C 930.52 -1.9457 -4.06759 0
M  V30 9804 C 929.182 -2.32881 -4.21094 0
M  V30 9805 C 931.534 -2.86141 -4.35629 0
M  V30 9806 C 928.862 -3.62108 -4.61622 0
M  V30 9807 C 931.214 -4.14826 -4.776 0
M  V30 9808 C 929.878 -4.53121 -4.9014 0
M  V30 9809 H 929.148 -0.147339 -0.726204 0
M  V30 9810 H 931.795 -1.04011 -1.60791 0
M  V30 9811 H 930.1 0.175576 -3.91406 0
M  V30 9812 H 931.797 -0.205112 -4.00475 0
M  V30 9813 H 928.387 -1.6381 -3.96061 0
M  V30 9814 H 932.571 -2.57788 -4.24098 0
M  V30 9815 H 927.827 -3.91613 -4.69521 0
M  V30 9816 H 932.001 -4.85874 -4.98899 0
M  V30 9817 H 929.628 -5.53307 -5.21302 0
M  V30 9818 N 931.203 1.46865 -0.571711 0
M  V30 9819 C 932.443 2.04324 -0.0556487 0
M  V30 9820 C 932.807 1.43486 1.27576 0
M  V30 9821 O 934.008 1.92079 1.8804 0
M  V30 9822 C 932.279 3.57394 0.0206263 0
M  V30 9823 S 933.838 4.36159 0.480709 0
M  V30 9824 H 930.656 0.710273 -0.0321467 0
M  V30 9825 H 933.258 1.8005 -0.761725 0
M  V30 9826 H 931.962 3.99193 -0.952509 0
M  V30 9827 H 931.493 3.86188 0.749812 0
M  V30 9828 H 933.508 4.6478 1.73763 0
M  V30 9829 N 932.681 0.308908 1.54543 0
M  V30 9830 C 933.613 -0.597453 2.21276 0
M  V30 9831 C 934.626 -1.09137 1.20801 0
M  V30 9832 O 935.815 -1.00747 1.47351 0
M  V30 9833 C 932.915 -1.83085 2.85189 0
M  V30 9834 C 932.088 -1.4781 4.11669 0
M  V30 9835 C 931.147 -2.56748 4.59311 0
M  V30 9836 O 930.173 -2.21507 5.24331 0
M  V30 9837 N 931.375 -3.87427 4.32297 0
M  V30 9838 H 934.14 -0.0261183 2.99689 0
M  V30 9839 H 931.701 0.131456 1.61365 0
M  V30 9840 H 933.693 -2.55326 3.13992 0
M  V30 9841 H 932.263 -2.31039 2.1057 0
M  V30 9842 H 931.483 -0.587974 3.8979 0
M  V30 9843 H 932.771 -1.2179 4.94009 0
M  V30 9844 H 932.169 -4.18863 3.80224 0
M  V30 9845 H 930.726 -4.55942 4.6579 0
M  V30 9846 N 934.159 -1.57557 0.0367827 0
M  V30 9847 C 935.57 -1.79853 -0.500971 0
M  V30 9848 C 935.921 -0.947749 -1.71791 0
M  V30 9849 O 935.046 -0.160287 -2.15806 0
M  V30 9850 C 935.641 -3.26193 -0.915626 0
M  V30 9851 C 934.2 -3.49457 -1.39845 0
M  V30 9852 C 933.347 -2.74864 -0.366784 0
M  V30 9853 H 936.298 -1.56509 0.262768 0
M  V30 9854 H 936.319 -3.36324 -1.7795 0
M  V30 9855 H 935.831 -3.88089 -0.0297227 0
M  V30 9856 H 933.932 -2.92823 -2.30402 0
M  V30 9857 H 934.045 -4.58172 -1.40054 0
M  V30 9858 H 932.409 -2.4057 -0.836554 0
M  V30 9859 H 933.192 -3.39479 0.510785 0
M  V30 9860 N 935.637 0.236453 -1.55816 0
M  V30 9861 C 936.865 0.980295 -1.82203 0
M  V30 9862 C 937.28 1.7854 -0.613926 0
M  V30 9863 O 936.637 1.77661 0.417491 0
M  V30 9864 C 936.688 1.90982 -3.06933 0
M  V30 9865 O 936.409 1.13728 -4.23081 0
M  V30 9866 C 937.91 2.76879 -3.46198 0
M  V30 9867 H 935.13 0.28799 -0.606055 0
M  V30 9868 H 937.674 0.256182 -2.02889 0
M  V30 9869 H 935.829 2.58808 -2.88266 0
M  V30 9870 H 936.243 1.76694 -4.93842 0
M  V30 9871 H 937.717 3.37831 -4.36548 0
M  V30 9872 H 938.194 3.48522 -2.67262 0
M  V30 9873 H 938.8 2.1449 -3.67252 0
M  V30 9874 N 937.115 1.49373 0.502552 0
M  V30 9875 C 938.392 1.49282 1.26389 0
M  V30 9876 C 938.772 0.219674 2.09954 0
M  V30 9877 O 938.12 -0.797991 2.14113 0
M  V30 9878 C 938.33 2.77083 2.12194 0
M  V30 9879 C 939.678 3.26511 2.71433 0
M  V30 9880 O 940.702 2.78189 2.22462 0
M  V30 9881 O 939.561 4.10665 3.60578 0
M  V30 9882 H 936.655 0.597415 0.57186 0
M  V30 9883 H 939.201 1.61634 0.516951 0
M  V30 9884 H 937.973 3.61237 1.50411 0
M  V30 9885 H 937.596 2.67583 2.94084 0
M  V30 9886 N 938.594 -0.753485 1.38421 0
M  V30 9887 C 939.84 -1.51485 1.34834 0
M  V30 9888 C 940.173 -1.94102 -0.0615381 0
M  V30 9889 O 939.448 -1.65439 -1.02274 0
M  V30 9890 C 939.731 -2.76736 2.30411 0
M  V30 9891 C 939.584 -2.40256 3.80259 0
M  V30 9892 C 940.903 -3.7876 2.24119 0
M  V30 9893 H 938.022 -0.549534 0.491102 0
M  V30 9894 H 940.664 -0.863006 1.6927 0
M  V30 9895 H 938.814 -3.32357 2.01175 0
M  V30 9896 H 940.486 -1.90409 4.20169 0
M  V30 9897 H 938.729 -1.72714 3.97935 0
M  V30 9898 H 939.4 -3.29869 4.42595 0
M  V30 9899 H 941.876 -3.32679 2.49928 0
M  V30 9900 H 940.752 -4.64092 2.93104 0
M  V30 9901 H 941.013 -4.24352 1.24006 0
M  V30 9902 N 940.072 -1.23292 -0.981677 0
M  V30 9903 C 941.035 -1.01417 -2.05542 0
M  V30 9904 C 942.035 0.0235354 -1.60783 0
M  V30 9905 O 943.225 -0.216082 -1.72855 0
M  V30 9906 C 940.357 -0.534239 -3.36688 0
M  V30 9907 H 941.55 -1.96702 -2.26381 0
M  V30 9908 H 939.103 -1.05318 -1.1549 0
M  V30 9909 H 939.838 0.422452 -3.21537 0
M  V30 9910 H 939.623 -1.28304 -3.70514 0
M  V30 9911 H 941.113 -0.40179 -4.15663 0
M  V30 9912 N 941.55 1.18024 -1.04442 0
M  V30 9913 C 942.796 1.88377 -0.751133 0
M  V30 9914 C 943.129 1.80377 0.719571 0
M  V30 9915 O 942.404 1.20662 1.52548 0
M  V30 9916 C 942.687 3.38708 -1.22265 0
M  V30 9917 C 942.54 3.55499 -2.75574 0
M  V30 9918 C 943.859 4.32475 -0.815688 0
M  V30 9919 H 940.978 0.684037 -0.27434 0
M  V30 9920 H 943.62 1.38837 -1.29709 0
M  V30 9921 H 941.77 3.8103 -0.758192 0
M  V30 9922 H 943.442 3.22244 -3.30086 0
M  V30 9923 H 941.685 2.98028 -3.15217 0
M  V30 9924 H 942.356 4.60994 -3.03625 0
M  V30 9925 H 944.832 3.97953 -1.21542 0
M  V30 9926 H 943.708 5.36213 -1.17331 0
M  V30 9927 H 943.969 4.41207 0.280901 0
M  V30 9928 N 943.028 0.824394 1.34319 0
M  V30 9929 C 944.305 0.335692 1.92698 0
M  V30 9930 C 944.685 -1.17715 1.75232 0
M  V30 9931 O 944.033 -1.98493 1.13194 0
M  V30 9932 C 944.243 0.766647 3.40475 0
M  V30 9933 C 945.591 0.766323 4.17627 0
M  V30 9934 O 946.615 0.709321 3.49066 0
M  V30 9935 O 945.474 0.840856 5.39992 0
M  V30 9936 H 942.568 0.0919996 0.821867 0
M  V30 9937 H 945.114 0.909282 1.43283 0
M  V30 9938 H 943.886 1.80859 3.46995 0
M  V30 9939 H 943.509 0.168833 3.97241 0
M  V30 9940 N 944.506 -1.46559 0.579492 0
M  V30 9941 C 945.917 -1.8608 0.152052 0
M  V30 9942 C 946.268 -1.48346 -1.28405 0
M  V30 9943 O 945.393 -0.89685 -1.9694 0
M  V30 9944 C 945.988 -3.37729 0.269171 0
M  V30 9945 C 944.547 -3.76258 -0.103376 0
M  V30 9946 C 943.694 -2.70584 0.60659 0
M  V30 9947 H 946.645 -1.3776 0.787904 0
M  V30 9948 H 946.666 -3.77116 -0.506339 0
M  V30 9949 H 946.178 -3.65162 1.31448 0
M  V30 9950 H 944.279 -3.54443 -1.14895 0
M  V30 9951 H 944.392 -4.78335 0.270701 0
M  V30 9952 H 942.756 -2.54656 0.0471984 0
M  V30 9953 H 943.539 -3.00856 1.65349 0
M  V30 9954 N 945.984 -0.3171 -1.54377 0
M  V30 9955 C 947.232 0.286842 -2.00054 0
M  V30 9956 C 947.553 1.53161 -1.20692 0
M  V30 9957 O 946.823 1.93479 -0.307045 0
M  V30 9958 H 945.403 0.108979 -0.739008 0
M  V30 9959 H 948.065 -0.432152 -1.90049 0
M  V30 9960 H 947.161 0.547729 -3.07256 0
M  V30 9961 N 947.462 1.57535 -0.0451378 0
M  V30 9962 C 948.69 1.96761 0.639742 0
M  V30 9963 C 949.105 0.922405 1.64734 0
M  V30 9964 O 948.462 -0.0940535 1.82257 0
M  V30 9965 C 948.513 3.36066 1.33199 0
M  V30 9966 O 948.234 4.36579 0.364757 0
M  V30 9967 C 949.735 3.90015 2.1072 0
M  V30 9968 H 946.955 0.64769 0.175324 0
M  V30 9969 H 949.499 2.04206 -0.109651 0
M  V30 9970 H 947.654 3.2979 2.03266 0
M  V30 9971 H 948.068 5.17432 0.858168 0
M  V30 9972 H 949.542 4.89785 2.54586 0
M  V30 9973 H 950.019 3.25117 2.95288 0
M  V30 9974 H 950.625 3.99609 1.45577 0
M  V30 9975 N 948.94 -0.228186 1.55939 0
M  V30 9976 C 950.188 -0.951668 1.78291 0
M  V30 9977 C 950.509 -1.85132 0.612474 0
M  V30 9978 O 949.779 -1.92356 -0.370942 0
M  V30 9979 H 948.359 -0.354388 0.657585 0
M  V30 9980 H 951.021 -0.241635 1.93396 0
M  V30 9981 H 950.117 -1.56239 2.70177 0
M  V30 9982 N 950.418 -1.49637 -0.494624 0
M  V30 9983 C 951.381 -1.66252 -1.57775 0
M  V30 9984 C 952.381 -0.534054 -1.51672 0
M  V30 9985 O 953.571 -0.800637 -1.54711 0
M  V30 9986 C 950.703 -1.66584 -2.97426 0
M  V30 9987 H 951.896 -2.62864 -1.4437 0
M  V30 9988 H 949.449 -1.38764 -0.719323 0
M  V30 9989 H 950.184 -0.715798 -3.16302 0
M  V30 9990 H 949.969 -2.48543 -3.03264 0
M  V30 9991 H 951.459 -1.81474 -3.76108 0
M  V30 9992 N 951.896 0.746133 -1.38819 0
M  V30 9993 C 953.145 1.50085 -1.34749 0
M  V30 9994 C 953.458 1.95516 0.0574786 0
M  V30 9995 O 954.664 2.70601 0.22073 0
M  V30 9996 C 953.12 2.71141 -2.36665 0
M  V30 9997 C 952.728 2.32706 -3.82821 0
M  V30 9998 C 954.472 3.49005 -2.41652 0
M  V30 9999 C 952.379 3.50418 -4.76405 0
M  V30 10000 H 951.309 0.563563 -0.500912 0
M  V30 10001 H 953.96 0.814951 -1.6441 0
M  V30 10002 H 952.342 3.4175 -2.00058 0
M  V30 10003 H 953.516 1.69715 -4.28408 0
M  V30 10004 H 951.831 1.67959 -3.81023 0
M  V30 10005 H 954.428 4.36541 -3.08766 0
M  V30 10006 H 954.771 3.90687 -1.43769 0
M  V30 10007 H 955.304 2.85416 -2.77097 0
M  V30 10008 H 952.043 3.13795 -5.75511 0
M  V30 10009 H 951.563 4.12426 -4.35505 0
M  V30 10010 H 953.242 4.16901 -4.94775 0
M  V30 10011 N 953.375 1.23811 0.975125 0
M  V30 10012 C 954.605 1.0986 1.7497 0
M  V30 10013 C 955.013 -0.352366 1.8589 0
M  V30 10014 O 954.356 -1.2553 1.34119 0
M  V30 10015 C 954.418 1.65584 3.19096 0
M  V30 10016 C 954.082 3.14395 3.3167 0
M  V30 10017 C 955.079 4.1163 3.17579 0
M  V30 10018 C 952.764 3.54208 3.56149 0
M  V30 10019 C 954.758 5.46661 3.27781 0
M  V30 10020 C 952.445 4.89382 3.65989 0
M  V30 10021 C 953.443 5.85418 3.51817 0
M  V30 10022 O 953.131 7.18135 3.61299 0
M  V30 10023 H 952.863 0.384854 0.555755 0
M  V30 10024 H 955.417 1.64242 1.23343 0
M  V30 10025 H 953.647 1.05627 3.71994 0
M  V30 10026 H 955.336 1.47032 3.78334 0
M  V30 10027 H 956.102 3.82214 2.98559 0
M  V30 10028 H 951.981 2.79968 3.66249 0
M  V30 10029 H 955.525 6.21601 3.16636 0
M  V30 10030 H 951.422 5.18473 3.84521 0
M  V30 10031 H 952.19 7.25956 3.78061 0
M  V30 10032 N 954.853 -1.17469 1.05066 0
M  V30 10033 C 956.099 -1.87976 0.761113 0
M  V30 10034 C 956.432 -1.80756 -0.709995 0
M  V30 10035 O 955.707 -1.21469 -1.51906 0
M  V30 10036 C 955.99 -3.38055 1.2406 0
M  V30 10037 C 955.843 -3.54032 2.77455 0
M  V30 10038 C 957.162 -4.32036 0.838612 0
M  V30 10039 H 954.281 -0.682573 0.277963 0
M  V30 10040 H 956.923 -1.38147 1.30443 0
M  V30 10041 H 955.073 -3.80622 0.778388 0
M  V30 10042 H 956.745 -3.20489 3.3179 0
M  V30 10043 H 954.988 -2.96352 3.16793 0
M  V30 10044 H 955.659 -4.59377 3.06066 0
M  V30 10045 H 958.135 -3.97303 1.23651 0
M  V30 10046 H 957.011 -5.35583 1.20173 0
M  V30 10047 H 957.272 -4.41349 -0.257498 0
M  V30 10048 N 956.331 -0.831506 -1.3388 0
M  V30 10049 C 957.556 -0.435954 -2.02766 0
M  V30 10050 C 957.981 0.952889 -1.62178 0
M  V30 10051 O 957.339 1.62166 -0.810681 0
M  V30 10052 C 957.387 -0.555907 -3.56289 0
M  V30 10053 O 956.491 0.420826 -4.10247 0
M  V30 10054 H 955.832 -0.178248 -0.639628 0
M  V30 10055 H 958.362 -1.1243 -1.70941 0
M  V30 10056 H 958.372 -0.434831 -4.05676 0
M  V30 10057 H 957.047 -1.56881 -3.85177 0
M  V30 10058 H 955.624 0.257919 -3.72007 0
M  V30 10059 N 957.809 1.4625 -0.587256 0
M  V30 10060 C 959.086 1.95599 -0.00750181 0
M  V30 10061 C 959.466 1.52989 1.45457 0
M  V30 10062 O 958.814 0.782731 2.14676 0
M  V30 10063 C 959.024 3.48513 -0.184309 0
M  V30 10064 C 960.372 4.24565 -0.0544972 0
M  V30 10065 O 961.396 3.5602 -0.113378 0
M  V30 10066 O 960.255 5.46445 0.0774075 0
M  V30 10067 H 957.349 0.825649 0.0472495 0
M  V30 10068 H 959.895 1.56512 -0.655893 0
M  V30 10069 H 958.667 3.72428 -1.20053 0
M  V30 10070 H 958.29 3.9444 0.500301 0
M  V30 10071 N 959.287 0.325282 1.54207 0
M  V30 10072 C 960.535 -0.276229 2.00203 0
M  V30 10073 C 960.856 -1.52519 1.21503 0
M  V30 10074 O 960.126 -1.93313 0.317302 0
M  V30 10075 H 958.706 -0.105059 0.739575 0
M  V30 10076 H 961.368 0.442225 1.89817 0
M  V30 10077 H 960.464 -0.531427 3.07542 0
M  V30 10078 N 960.765 -1.57509 0.0534917 0
M  V30 10079 C 961.995 -1.96812 -0.628386 0
M  V30 10080 C 962.403 -0.929808 -1.64776 0
M  V30 10081 O 961.746 0.0941155 -1.83459 0
M  V30 10082 C 961.808 -3.32361 -1.37027 0
M  V30 10083 C 961.472 -4.54185 -0.506465 0
M  V30 10084 C 962.469 -5.19398 0.228412 0
M  V30 10085 C 960.154 -5.00398 -0.43671 0
M  V30 10086 C 962.148 -6.29162 1.02146 0
M  V30 10087 C 959.835 -6.10039 0.360022 0
M  V30 10088 C 960.833 -6.74282 1.08779 0
M  V30 10089 O 960.521 -7.81814 1.87142 0
M  V30 10090 H 960.253 -0.65257 -0.176432 0
M  V30 10091 H 962.807 -2.05067 0.116908 0
M  V30 10092 H 961.037 -3.20667 -2.16125 0
M  V30 10093 H 962.726 -3.56395 -1.94261 0
M  V30 10094 H 963.492 -4.84651 0.184003 0
M  V30 10095 H 959.371 -4.50183 -0.992772 0
M  V30 10096 H 962.915 -6.79238 1.59002 0
M  V30 10097 H 958.812 -6.44222 0.406061 0
M  V30 10098 H 959.58 -7.98602 1.79378 0
M  V30 10099 N 962.243 0.219913 -1.56058 0
M  V30 10100 C 963.483 0.951113 -1.80923 0
M  V30 10101 C 963.847 1.81465 -0.627247 0
M  V30 10102 O 965.048 2.57972 -0.755237 0
M  V30 10103 C 963.319 1.76652 -3.10691 0
M  V30 10104 S 964.878 2.55314 -3.56876 0
M  V30 10105 H 961.696 0.319461 -0.635189 0
M  V30 10106 H 964.298 0.216551 -1.94297 0
M  V30 10107 H 963.002 1.12231 -3.94756 0
M  V30 10108 H 962.533 2.54335 -3.00128 0
M  V30 10109 H 964.548 3.78938 -3.20344 0
M  V30 10110 N 963.721 1.49897 0.486681 0
M  V30 10111 C 964.669 1.68125 1.60738 0
M  V30 10112 C 965.663 0.547097 1.60322 0
M  V30 10113 O 966.869 0.727153 1.64659 0
M  V30 10114 H 963.244 0.530391 0.533094 0
M  V30 10115 H 965.215 2.62165 1.42521 0
M  V30 10116 C 963.964 1.77827 2.98786 0
M  V30 10117 H 963.287 2.6448 2.99818 0
M  V30 10118 H 964.727 1.94611 3.76699 0
M  V30 10119 C 963.186 0.526287 3.32764 0
M  V30 10120 O 963.716 -0.341607 4.00245 0
M  V30 10121 N 961.922 0.384947 2.88039 0
M  V30 10122 H 961.469 1.09222 2.33299 0
M  V30 10123 H 961.427 -0.451618 3.11139 0
M  V30 10124 N 965.199 -0.738761 1.39212 0
M  V30 10125 C 966.424 -1.5331 1.39681 0
M  V30 10126 C 966.849 -1.88098 -0.00768715 0
M  V30 10127 O 966.207 -1.51642 -0.993699 0
M  V30 10128 C 966.255 -2.79958 2.27279 0
M  V30 10129 O 965.359 -3.75727 1.70008 0
M  V30 10130 H 964.7 -0.463131 0.475821 0
M  V30 10131 H 967.23 -0.911768 1.83161 0
M  V30 10132 H 967.24 -3.28732 2.41659 0
M  V30 10133 H 965.915 -2.5397 3.29351 0
M  V30 10134 H 964.492 -3.34483 1.64851 0
M  V30 10135 N 966.677 -1.24326 -0.968545 0
M  V30 10136 C 968.093 -1.00847 -1.23701 0
M  V30 10137 C 968.293 0.283235 -1.99499 0
M  V30 10138 O 967.349 0.999607 -2.31871 0
M  V30 10139 C 968.662 -2.22295 -2.02498 0
M  V30 10140 C 970.21 -2.26911 -2.15593 0
M  V30 10141 C 970.685 -3.47978 -2.97784 0
M  V30 10142 N 972.176 -3.48289 -3.05367 0
M  V30 10143 C 972.911 -4.38625 -3.69318 0
M  V30 10144 N 972.407 -5.39213 -4.34995 0
M  V30 10145 N 974.2 -4.26339 -3.66322 0
M  V30 10146 H 966.351 -2.07335 -0.461087 0
M  V30 10147 H 968.614 -0.909805 -0.26638 0
M  V30 10148 H 968.32 -3.161 -1.54188 0
M  V30 10149 H 968.194 -2.24344 -3.03232 0
M  V30 10150 H 970.581 -1.33639 -2.63106 0
M  V30 10151 H 970.662 -2.28888 -1.14209 0
M  V30 10152 H 970.306 -4.41564 -2.50965 0
M  V30 10153 H 970.236 -3.43244 -3.99364 0
M  V30 10154 H 972.727 -2.75517 -2.58648 0
M  V30 10155 H 973.04 -6.04378 -4.81608 0
M  V30 10156 H 971.385 -5.43101 -4.33667 0
M  V30 10157 H 974.576 -3.46991 -3.14189 0
M  V30 10158 H 974.749 -4.9694 -4.15878 0
M  V30 10159 N 968.156 1.1691 -1.05688 0
M  V30 10160 C 969.405 1.86629 -0.765022 0
M  V30 10161 C 969.718 1.82223 0.710918 0
M  V30 10162 O 970.924 2.47462 1.11691 0
M  V30 10163 C 969.38 3.34886 -1.3183 0
M  V30 10164 C 968.988 3.47781 -2.82404 0
M  V30 10165 C 970.732 4.099 -1.10372 0
M  V30 10166 C 968.639 4.9009 -3.31008 0
M  V30 10167 H 967.569 0.699082 -0.282491 0
M  V30 10168 H 970.22 1.31989 -1.27481 0
M  V30 10169 H 968.602 3.89094 -0.736312 0
M  V30 10170 H 969.776 3.03765 -3.46502 0
M  V30 10171 H 968.091 2.86193 -3.02461 0
M  V30 10172 H 970.688 5.14894 -1.4418 0
M  V30 10173 H 971.031 4.16279 -0.0417372 0
M  V30 10174 H 971.564 3.61913 -1.65117 0
M  V30 10175 H 968.303 4.88887 -4.36657 0
M  V30 10176 H 967.823 5.34756 -2.71655 0
M  V30 10177 H 969.502 5.58881 -3.25977 0
M  V30 10178 N 969.634 0.838594 1.33437 0
M  V30 10179 C 970.88 0.434813 1.98084 0
M  V30 10180 C 971.213 -1.00331 1.66275 0
M  V30 10181 O 970.488 -1.70139 0.942501 0
M  V30 10182 C 970.771 0.655602 3.54082 0
M  V30 10183 C 970.624 2.14097 3.95578 0
M  V30 10184 C 971.943 0.101576 4.39983 0
M  V30 10185 H 969.062 0.159456 0.719544 0
M  V30 10186 H 971.704 1.05406 1.58081 0
M  V30 10187 H 969.854 0.128501 3.88287 0
M  V30 10188 H 971.526 2.73292 3.71631 0
M  V30 10189 H 969.769 2.62558 3.4532 0
M  V30 10190 H 970.44 2.24621 5.04231 0
M  V30 10191 H 972.916 0.552122 4.12421 0
M  V30 10192 H 971.792 0.28575 5.48156 0
M  V30 10193 H 972.053 -0.994616 4.30767 0
M  V30 10194 N 971.112 -1.45937 0.595003 0
M  V30 10195 C 972.044 -2.28575 -0.169137 0
M  V30 10196 C 973.057 -1.39226 -0.843792 0
M  V30 10197 O 974.246 -1.63716 -0.711291 0
M  V30 10198 C 971.346 -3.14616 -1.25976 0
M  V30 10199 C 970.519 -4.32166 -0.67466 0
M  V30 10200 C 969.578 -4.99511 -1.65456 0
M  V30 10201 O 968.604 -5.56712 -1.18578 0
M  V30 10202 N 969.806 -4.97643 -2.98885 0
M  V30 10203 H 972.571 -2.94797 0.539908 0
M  V30 10204 H 970.132 -1.55985 0.433614 0
M  V30 10205 H 972.124 -3.56534 -1.91483 0
M  V30 10206 H 970.694 -2.50387 -1.8715 0
M  V30 10207 H 969.914 -3.93882 0.158184 0
M  V30 10208 H 971.202 -5.08116 -0.263753 0
M  V30 10209 H 970.6 -4.52438 -3.39583 0
M  V30 10210 H 969.157 -5.43463 -3.59848 0
M  V30 10211 N 972.59 -0.333456 -1.54032 0
M  V30 10212 C 973.837 0.266133 -2.00744 0
M  V30 10213 C 974.165 1.51361 -1.22148 0
M  V30 10214 O 973.42 1.93473 -0.294368 0
M  V30 10215 C 973.719 0.63565 -3.51702 0
M  V30 10216 C 973.385 -0.513786 -4.47963 0
M  V30 10217 C 972.047 -0.829253 -4.74001 0
M  V30 10218 C 974.399 -1.2854 -5.05101 0
M  V30 10219 C 971.727 -1.91888 -5.54433 0
M  V30 10220 C 974.079 -2.3652 -5.86721 0
M  V30 10221 C 972.743 -2.68637 -6.11057 0
M  V30 10222 H 972.013 0.097385 -0.734573 0
M  V30 10223 H 974.66 -0.459282 -1.85911 0
M  V30 10224 H 972.965 1.44163 -3.64313 0
M  V30 10225 H 974.662 1.11129 -3.85294 0
M  V30 10226 H 971.252 -0.25784 -4.27824 0
M  V30 10227 H 975.436 -1.05494 -4.84958 0
M  V30 10228 H 970.692 -2.17208 -5.71516 0
M  V30 10229 H 974.866 -2.96747 -6.30011 0
M  V30 10230 H 972.493 -3.53197 -6.73169 0
M  V30 10231 N 974.068 1.57479 -0.061844 0
M  V30 10232 C 975.293 1.97843 0.622311 0
M  V30 10233 C 975.718 0.939602 1.62951 0
M  V30 10234 O 975.076 -0.095958 1.81046 0
M  V30 10235 C 975.124 3.37262 1.2762 0
M  V30 10236 O 974.228 3.35943 2.39199 0
M  V30 10237 H 973.569 0.644212 0.160896 0
M  V30 10238 H 976.099 2.04165 -0.133409 0
M  V30 10239 H 976.109 3.74226 1.62539 0
M  V30 10240 H 974.784 4.12404 0.538112 0
M  V30 10241 H 973.361 3.10737 2.06148 0
M  V30 10242 N 975.546 -0.211634 1.56173 0
M  V30 10243 C 976.957 -0.777776 1.69728 0
M  V30 10244 C 977.308 -1.84566 0.66558 0
M  V30 10245 O 976.433 -2.15639 -0.181338 0
M  V30 10246 C 977.028 -1.41757 3.07718 0
M  V30 10247 C 975.587 -1.93098 3.23094 0
M  V30 10248 C 974.734 -0.794785 2.65666 0
M  V30 10249 H 977.685 0.0131839 1.58695 0
M  V30 10250 H 977.706 -2.28662 3.04128 0
M  V30 10251 H 977.218 -0.640114 3.82785 0
M  V30 10252 H 975.319 -2.73615 2.52914 0
M  V30 10253 H 975.432 -2.10414 4.30422 0
M  V30 10254 H 973.796 -1.20473 2.24407 0
M  V30 10255 H 974.579 -0.0298408 3.43287 0
M  V30 10256 N 977.024 -1.50153 -0.478725 0
M  V30 10257 C 978.249 -1.64776 -1.2595 0
M  V30 10258 C 978.674 -0.327794 -1.85222 0
M  V30 10259 O 978.032 0.707418 -1.66929 0
M  V30 10260 C 978.08 -2.73551 -2.34952 0
M  V30 10261 O 977.184 -2.34273 -3.39397 0
M  V30 10262 H 976.525 -0.550769 -0.370877 0
M  V30 10263 H 979.055 -1.96482 -0.570605 0
M  V30 10264 H 979.065 -2.96397 -2.8038 0
M  V30 10265 H 977.74 -3.69354 -1.91181 0
M  V30 10266 H 976.317 -2.21844 -2.99733 0
M  V30 10267 N 978.502 0.731368 -1.39602 0
M  V30 10268 C 979.75 1.48805 -1.36753 0
M  V30 10269 C 980.071 1.94969 0.034676 0
M  V30 10270 O 979.341 1.69243 0.986591 0
M  V30 10271 H 977.921 0.55203 -0.503261 0
M  V30 10272 H 980.583 0.868013 -1.74504 0
M  V30 10273 H 979.679 2.36844 -2.03252 0
M  V30 10274 N 979.98 1.24838 0.961938 0
M  V30 10275 C 980.927 1.04582 2.05745 0
M  V30 10276 C 981.897 -0.0427281 1.66045 0
M  V30 10277 O 983.082 0.113026 1.90465 0
M  V30 10278 C 980.222 0.66284 3.38675 0
M  V30 10279 C 979.335 1.82548 3.91536 0
M  V30 10280 C 978.47 1.38753 5.12758 0
M  V30 10281 C 977.509 2.51976 5.5783 0
M  V30 10282 N 976.646 2.09009 6.70268 0
M  V30 10283 H 981.486 1.98343 2.22405 0
M  V30 10284 H 979.023 0.987822 1.08998 0
M  V30 10285 H 980.981 0.421788 4.15062 0
M  V30 10286 H 979.611 -0.237776 3.21923 0
M  V30 10287 H 978.663 2.18004 3.11735 0
M  V30 10288 H 979.975 2.67601 4.20941 0
M  V30 10289 H 979.129 1.1057 5.96539 0
M  V30 10290 H 977.868 0.507618 4.85051 0
M  V30 10291 H 976.873 2.80912 4.72619 0
M  V30 10292 H 978.098 3.40534 5.87549 0
M  V30 10293 H 976.044 1.23423 6.44285 0
M  V30 10294 H 975.961 2.87613 6.99153 0
M  V30 10295 H 977.229 1.83981 7.57477 0
M  V30 10296 N 981.458 -1.16348 1.06306 0
M  V30 10297 C 982.705 -1.86881 0.779852 0
M  V30 10298 C 983.033 -1.8171 -0.693668 0
M  V30 10299 O 982.288 -1.22769 -1.52401 0
M  V30 10300 C 982.587 -3.35936 1.21991 0
M  V30 10301 C 982.253 -3.61307 2.69756 0
M  V30 10302 C 980.915 -3.6794 3.10119 0
M  V30 10303 C 983.267 -3.71871 3.65187 0
M  V30 10304 C 980.595 -3.82639 4.44752 0
M  V30 10305 C 982.947 -3.88091 4.99568 0
M  V30 10306 C 981.611 -3.92967 5.39568 0
M  V30 10307 H 980.881 -0.683847 0.285368 0
M  V30 10308 H 983.528 -1.37569 1.33218 0
M  V30 10309 H 981.833 -3.87381 0.586774 0
M  V30 10310 H 983.53 -3.88895 0.977821 0
M  V30 10311 H 980.12 -3.56777 2.37504 0
M  V30 10312 H 984.304 -3.66057 3.35136 0
M  V30 10313 H 979.56 -3.84666 4.75228 0
M  V30 10314 H 983.734 -3.95207 5.73397 0
M  V30 10315 H 981.361 -4.04109 6.43895 0
M  V30 10316 N 982.937 -0.845659 -1.3299 0
M  V30 10317 C 984.186 -0.440928 -1.96822 0
M  V30 10318 C 984.499 1.00668 -1.67706 0
M  V30 10319 O 985.705 1.51641 -2.25205 0
M  V30 10320 C 984.161 -0.73752 -3.52262 0
M  V30 10321 C 983.769 -2.20026 -3.90247 0
M  V30 10322 C 985.513 -0.400072 -4.22611 0
M  V30 10323 C 983.42 -2.44054 -5.38694 0
M  V30 10324 H 982.35 -0.161148 -0.736578 0
M  V30 10325 H 985.001 -1.03519 -1.51513 0
M  V30 10326 H 983.383 -0.0728025 -3.95933 0
M  V30 10327 H 984.557 -2.90602 -3.57613 0
M  V30 10328 H 982.872 -2.50135 -3.32899 0
M  V30 10329 H 985.469 -0.557136 -5.3179 0
M  V30 10330 H 985.812 0.657547 -4.11074 0
M  V30 10331 H 986.345 -1.0203 -3.84493 0
M  V30 10332 H 983.084 -3.48407 -5.55241 0
M  V30 10333 H 982.604 -1.78047 -5.72765 0
M  V30 10334 H 984.283 -2.27549 -6.05665 0
M  V30 10335 N 984.415 1.45619 -0.602734 0
M  V30 10336 C 985.643 2.06647 -0.102253 0
M  V30 10337 C 986.058 1.4482 1.21131 0
M  V30 10338 O 985.415 0.560621 1.73676 0
M  V30 10339 C 985.466 3.61467 0.0490113 0
M  V30 10340 O 985.187 4.20985 -1.21257 0
M  V30 10341 C 986.688 4.39469 0.581517 0
M  V30 10342 H 983.908 0.667685 -0.0666155 0
M  V30 10343 H 986.452 1.86939 -0.829091 0
M  V30 10344 H 984.607 3.80534 0.726153 0
M  V30 10345 H 985.021 5.14103 -1.03915 0
M  V30 10346 H 986.495 5.48318 0.636462 0
M  V30 10347 H 986.972 4.0891 1.60277 0
M  V30 10348 H 987.578 4.25256 -0.061419 0
M  V30 10349 N 985.893 0.34162 1.53853 0
M  V30 10350 C 986.825 -0.550383 2.22494 0
M  V30 10351 C 987.838 -1.0655 1.23089 0
M  V30 10352 O 989.027 -0.975985 1.49455 0
M  V30 10353 C 986.127 -1.76995 2.89009 0
M  V30 10354 C 985.3 -1.39045 4.14711 0
M  V30 10355 C 984.359 -2.46947 4.64654 0
M  V30 10356 O 983.385 -2.10336 5.28912 0
M  V30 10357 N 984.587 -3.7817 4.40418 0
M  V30 10358 H 987.352 0.037456 2.99677 0
M  V30 10359 H 984.913 0.165654 1.6105 0
M  V30 10360 H 986.905 -2.48608 3.19337 0
M  V30 10361 H 985.475 -2.2652 2.15424 0
M  V30 10362 H 984.695 -0.505161 3.9095 0
M  V30 10363 H 985.983 -1.11284 4.96481 0
M  V30 10364 H 985.381 -4.10704 3.89023 0
M  V30 10365 H 983.938 -4.45959 4.75356 0
M  V30 10366 N 987.371 -1.57444 0.0701946 0
M  V30 10367 C 988.617 -1.94528 -0.594177 0
M  V30 10368 C 988.972 -0.949898 -1.67316 0
M  V30 10369 O 988.265 0.0280668 -1.91579 0
M  V30 10370 C 988.459 -3.36044 -1.21694 0
M  V30 10371 C 988.288 -4.49256 -0.199806 0
M  V30 10372 C 987.058 -5.04843 0.214963 0
M  V30 10373 C 989.256 -5.11217 0.562312 0
M  V30 10374 N 987.238 -6.01595 1.22297 0
M  V30 10375 C 988.609 -6.03453 1.42284 0
M  V30 10376 C 990.664 -4.94043 0.618555 0
M  V30 10377 C 989.367 -6.80359 2.33461 0
M  V30 10378 C 991.393 -5.71591 1.51783 0
M  V30 10379 C 990.755 -6.63474 2.36604 0
M  V30 10380 H 986.854 -0.758941 -0.1885 0
M  V30 10381 H 989.438 -1.94145 0.146965 0
M  V30 10382 H 987.609 -3.37168 -1.92801 0
M  V30 10383 H 989.341 -3.60368 -1.84165 0
M  V30 10384 H 986.096 -4.73303 -0.167835 0
M  V30 10385 H 986.52 -6.5467 1.72443 0
M  V30 10386 H 991.162 -4.22794 -0.0230235 0
M  V30 10387 H 988.88 -7.50886 2.98656 0
M  V30 10388 H 992.466 -5.60324 1.56616 0
M  V30 10389 H 991.346 -7.22432 3.0506 0
M  V30 10390 N 988.849 0.203349 -1.56283 0
M  V30 10391 C 990.097 0.923183 -1.79782 0
M  V30 10392 C 990.418 1.84134 -0.64185 0
M  V30 10393 O 989.688 1.92922 0.340292 0
M  V30 10394 H 988.268 0.343881 -0.66314 0
M  V30 10395 H 990.93 0.210837 -1.93756 0
M  V30 10396 H 990.026 1.51921 -2.72629 0
M  V30 10397 N 990.327 1.50405 0.470755 0
M  V30 10398 C 991.237 1.7208 1.59454 0
M  V30 10399 C 992.253 0.603932 1.63183 0
M  V30 10400 O 993.429 0.882296 1.81046 0
M  V30 10401 C 990.494 1.81057 2.95667 0
M  V30 10402 C 989.555 3.04792 3.02324 0
M  V30 10403 C 988.788 3.13332 4.3204 0
M  V30 10404 O 989.011 2.28655 5.22564 0
M  V30 10405 O 987.945 4.0606 4.44296 0
M  V30 10406 H 991.771 2.67343 1.44089 0
M  V30 10407 H 989.356 1.34505 0.650286 0
M  V30 10408 H 991.238 1.8914 3.76569 0
M  V30 10409 H 989.913 0.889782 3.11231 0
M  V30 10410 H 988.82 3.0221 2.205 0
M  V30 10411 H 990.153 3.96451 2.91698 0
M  V30 10412 N 991.805 -0.723954 1.39988 0
M  V30 10413 C 992.715 -1.86829 1.41887 0
M  V30 10414 C 993.731 -1.71173 0.312401 0
M  V30 10415 O 994.907 -1.93583 0.555651 0
M  V30 10416 C 991.972 -3.22541 1.27154 0
M  V30 10417 C 991.033 -3.50512 2.47871 0
M  V30 10418 C 990.266 -4.79749 2.33831 0
M  V30 10419 O 990.489 -5.54251 1.34765 0
M  V30 10420 O 989.423 -5.07868 3.23039 0
M  V30 10421 H 993.249 -1.88183 2.38371 0
M  V30 10422 H 990.834 -0.873259 1.21221 0
M  V30 10423 H 992.716 -4.0362 1.21114 0
M  V30 10424 H 991.391 -3.21933 0.337715 0
M  V30 10425 H 990.298 -2.69475 2.59488 0
M  V30 10426 H 991.631 -3.55909 3.39985 0
M  V30 10427 N 993.283 -1.25346 -0.955304 0
M  V30 10428 C 994.508 -1.12892 -1.73983 0
M  V30 10429 C 994.933 0.313455 -1.8547 0
M  V30 10430 O 994.291 1.22706 -1.33465 0
M  V30 10431 C 994.339 -1.78729 -3.1319 0
M  V30 10432 O 993.443 -1.06648 -3.98372 0
M  V30 10433 H 992.784 -0.394178 -0.534341 0
M  V30 10434 H 995.314 -1.65897 -1.19747 0
M  V30 10435 H 995.324 -1.84987 -3.63653 0
M  V30 10436 H 993.999 -2.83669 -3.04146 0
M  V30 10437 H 992.576 -1.08266 -3.56837 0
M  V30 10438 N 994.761 1.15782 -1.06922 0
M  V30 10439 C 995.986 1.90896 -0.810771 0
M  V30 10440 C 996.411 1.77246 0.629714 0
M  V30 10441 O 995.769 1.10215 1.43953 0
M  V30 10442 C 995.817 3.39397 -1.21829 0
M  V30 10443 O 994.921 4.10818 -0.360934 0
M  V30 10444 H 994.262 0.594497 -0.295752 0
M  V30 10445 H 996.792 1.46652 -1.42669 0
M  V30 10446 H 996.802 3.90181 -1.19259 0
M  V30 10447 H 995.477 3.4865 -2.2675 0
M  V30 10448 H 994.054 3.7019 -0.448748 0
M  V30 10449 N 996.239 0.8527 1.3254 0
M  V30 10450 C 997.487 0.454224 1.96929 0
M  V30 10451 C 997.808 -0.993034 1.67821 0
M  V30 10452 O 997.078 -1.69371 0.984393 0
M  V30 10453 H 995.658 0.164977 0.728554 0
M  V30 10454 H 998.32 1.0887 1.61658 0
M  V30 10455 H 997.416 0.597667 3.06324 0
M  V30 10456 N 997.718 -1.45297 0.610449 0
M  V30 10457 C 998.943 -2.07101 0.111414 0
M  V30 10458 C 999.368 -1.45161 -1.19625 0
M  V30 10459 O 998.726 -0.545368 -1.72903 0
M  V30 10460 C 998.774 -3.60598 -0.0117372 0
M  V30 10461 O 997.878 -3.98512 -1.06122 0
M  V30 10462 H 997.219 -0.659709 0.075364 0
M  V30 10463 H 999.749 -1.86504 0.841269 0
M  V30 10464 H 999.759 -4.07464 -0.209028 0
M  V30 10465 H 998.434 -4.05067 0.943076 0
M  V30 10466 H 997.011 -3.63312 -0.840158 0
M  V30 10467 N 999.196 -0.349774 -1.5367 0
M  V30 10468 C 1000.42 0.248692 -2.05904 0
M  V30 10469 C 1000.85 1.42942 -1.22267 0
M  V30 10470 O 1000.2 1.79732 -0.237899 0
M  V30 10471 C 1000.25 0.635639 -3.54953 0
M  V30 10472 O 999.356 1.7349 -3.74132 0
M  V30 10473 H 998.697 0.0399477 -0.662797 0
M  V30 10474 H 1001.23 -0.505795 -1.9825 0
M  V30 10475 H 1001.24 0.911064 -3.97698 0
M  V30 10476 H 999.912 -0.227805 -4.15276 0
M  V30 10477 H 998.489 1.45626 -3.43289 0
M  V30 10478 N 1000.67 1.57404 -0.0785433 0
M  V30 10479 C 1002.08 1.81118 0.45311 0
M  V30 10480 C 1002.44 0.992963 1.69218 0
M  V30 10481 O 1001.56 0.217448 2.15305 0
M  V30 10482 C 1002.16 3.28506 0.82882 0
M  V30 10483 C 1000.71 3.53042 1.3053 0
M  V30 10484 C 999.862 2.75739 0.29378 0
M  V30 10485 H 1002.81 1.55758 -0.304171 0
M  V30 10486 H 1002.83 3.40924 1.68971 0
M  V30 10487 H 1002.35 3.88031 -0.0731826 0
M  V30 10488 H 1000.45 2.98829 2.22558 0
M  V30 10489 H 1000.56 4.61724 1.27857 0
M  V30 10490 H 998.924 2.42703 0.772477 0
M  V30 10491 H 999.707 3.38005 -0.600613 0
M  V30 10492 N 1002.15 -0.195058 1.56388 0
M  V30 10493 C 1003.08 -1.24444 1.97575 0
M  V30 10494 C 1004.06 -1.47471 0.847717 0
M  V30 10495 O 1005.25 -1.59208 1.11205 0
M  V30 10496 C 1002.38 -2.58866 2.31529 0
M  V30 10497 C 1001.33 -2.50451 3.47071 0
M  V30 10498 C 1000.66 -3.89146 3.667 0
M  V30 10499 C 1001.96 -2.02953 4.81256 0
M  V30 10500 H 1003.65 -0.902178 2.85484 0
M  V30 10501 H 1001.2 -0.43254 1.3735 0
M  V30 10502 H 1003.15 -3.3246 2.58936 0
M  V30 10503 H 1001.87 -2.94833 1.40502 0
M  V30 10504 H 1000.53 -1.79313 3.19754 0
M  V30 10505 H 1000.18 -4.22466 2.73004 0
M  V30 10506 H 999.882 -3.84391 4.44429 0
M  V30 10507 H 1001.41 -4.64363 3.96484 0
M  V30 10508 H 1002.82 -2.66306 5.07695 0
M  V30 10509 H 1001.22 -2.092 5.62455 0
M  V30 10510 H 1002.29 -0.982757 4.74837 0
M  V30 10511 N 1003.63 -1.50653 -0.462772 0
M  V30 10512 C 1005.04 -1.54821 -1.04342 0
M  V30 10513 C 1005.39 -0.356595 -1.92932 0
M  V30 10514 O 1004.52 0.529579 -2.0982 0
M  V30 10515 C 1005.11 -2.80571 -1.89909 0
M  V30 10516 C 1003.67 -2.87394 -2.43067 0
M  V30 10517 C 1002.82 -2.49206 -1.21621 0
M  V30 10518 H 1005.77 -1.56797 -0.245048 0
M  V30 10519 H 1005.79 -2.62897 -2.75074 0
M  V30 10520 H 1005.3 -3.67281 -1.25405 0
M  V30 10521 H 1003.4 -2.05055 -3.111 0
M  V30 10522 H 1003.52 -3.90477 -2.77605 0
M  V30 10523 H 1001.88 -2.01829 -1.55361 0
M  V30 10524 H 1002.66 -3.38233 -0.587669 0
M  V30 10525 N 1005.11 0.71652 -1.4037 0
M  V30 10526 C 1006.36 1.47347 -1.38324 0
M  V30 10527 C 1006.68 1.94995 0.0139949 0
M  V30 10528 O 1005.95 1.7028 0.968585 0
M  V30 10529 H 1004.53 0.546662 -0.509087 0
M  V30 10530 H 1007.19 0.849455 -1.75415 0
M  V30 10531 H 1006.29 2.34675 -2.05752 0
M  V30 10532 N 1006.59 1.25851 0.948643 0
M  V30 10533 C 1007.52 1.02549 2.04979 0
M  V30 10534 C 1008.53 -0.0115923 1.62796 0
M  V30 10535 O 1009.72 0.227643 1.77042 0
M  V30 10536 C 1006.82 0.529486 3.34738 0
M  V30 10537 C 1005.99 1.6341 4.05729 0
M  V30 10538 C 1005.05 1.13743 5.1376 0
M  V30 10539 O 1004.08 1.83303 5.38877 0
M  V30 10540 N 1005.28 -0.0181151 5.80497 0
M  V30 10541 H 1008.05 1.97365 2.25537 0
M  V30 10542 H 1005.61 1.17137 1.11761 0
M  V30 10543 H 1007.6 0.181566 4.04293 0
M  V30 10544 H 1006.17 -0.324893 3.10907 0
M  V30 10545 H 1005.39 2.15331 3.30191 0
M  V30 10546 H 1006.68 2.37603 4.49914 0
M  V30 10547 H 1006.07 -0.599198 5.62518 0
M  V30 10548 H 1004.63 -0.307019 6.51077 0
M  V30 10549 N 1008.06 -1.15214 1.07534 0
M  V30 10550 C 1009.31 -1.86043 0.799629 0
M  V30 10551 C 1009.64 -1.82435 -0.674356 0
M  V30 10552 O 1008.89 -1.24379 -1.51091 0
M  V30 10553 C 1009.19 -3.34623 1.25547 0
M  V30 10554 C 1008.86 -3.58425 2.73573 0
M  V30 10555 C 1007.52 -3.6463 3.14004 0
M  V30 10556 C 1009.87 -3.67977 3.6911 0
M  V30 10557 C 1007.2 -3.779 4.48786 0
M  V30 10558 C 1009.55 -3.82771 5.03656 0
M  V30 10559 C 1008.22 -3.87222 5.43705 0
M  V30 10560 H 1007.49 -0.680781 0.292605 0
M  V30 10561 H 1010.13 -1.36149 1.34669 0
M  V30 10562 H 1008.44 -3.86737 0.627828 0
M  V30 10563 H 1010.14 -3.87836 1.01901 0
M  V30 10564 H 1006.73 -3.54238 2.41275 0
M  V30 10565 H 1010.91 -3.62482 3.39 0
M  V30 10566 H 1006.17 -3.79604 4.79281 0
M  V30 10567 H 1010.34 -3.89104 5.77556 0
M  V30 10568 H 1007.97 -3.97256 6.48145 0
M  V30 10569 N 1009.54 -0.859717 -1.32086 0
M  V30 10570 C 1010.77 -0.479724 -2.01262 0
M  V30 10571 C 1011.19 0.924985 -1.64589 0
M  V30 10572 O 1010.54 1.60439 -0.869803 0
M  V30 10573 C 1010.59 -0.615128 -3.56228 0
M  V30 10574 O 1010.31 -1.96451 -3.91585 0
M  V30 10575 C 1011.82 -0.234804 -4.42678 0
M  V30 10576 H 1009.04 -0.188007 -0.644123 0
M  V30 10577 H 1011.58 -1.15805 -1.68551 0
M  V30 10578 H 1009.73 0.0155268 -3.87397 0
M  V30 10579 H 1010.15 -1.96491 -4.86304 0
M  V30 10580 H 1011.62 -0.380534 -5.50687 0
M  V30 10581 H 1012.1 0.825189 -4.31378 0
M  V30 10582 H 1012.71 -0.840739 -4.16907 0
M  V30 10583 N 1011.02 1.44971 -0.618145 0
M  V30 10584 C 1012.27 2.02458 -0.117656 0
M  V30 10585 C 1012.6 1.48413 1.25248 0
M  V30 10586 O 1011.87 0.662997 1.82851 0
M  V30 10587 C 1012.16 3.59987 -0.0901897 0
M  V30 10588 C 1012.01 4.24343 -1.49175 0
M  V30 10589 C 1013.33 4.36099 0.592121 0
M  V30 10590 H 1010.45 0.735672 -0.0442291 0
M  V30 10591 H 1013.09 1.727 -0.792138 0
M  V30 10592 H 1011.24 3.85471 0.484175 0
M  V30 10593 H 1012.91 4.10009 -2.114 0
M  V30 10594 H 1011.16 3.82337 -2.04941 0
M  V30 10595 H 1011.83 5.33298 -1.42468 0
M  V30 10596 H 1014.3 4.1597 0.103813 0
M  V30 10597 H 1013.18 5.45822 0.580481 0
M  V30 10598 H 1013.44 4.09746 1.66015 0
M  V30 10599 N 1012.5 0.357919 1.53482 0
M  V30 10600 C 1013.91 -0.122938 1.86295 0
M  V30 10601 C 1014.26 -1.48803 1.27875 0
M  V30 10602 O 1013.39 -2.07978 0.597828 0
M  V30 10603 C 1013.98 -0.229853 3.38019 0
M  V30 10604 C 1012.54 -0.654955 3.70658 0
M  V30 10605 C 1011.69 0.202539 2.76559 0
M  V30 10606 H 1014.64 0.576997 1.47839 0
M  V30 10607 H 1014.66 -1.05481 3.65587 0
M  V30 10608 H 1014.17 0.763825 3.80509 0
M  V30 10609 H 1012.27 -1.65714 3.33721 0
M  V30 10610 H 1012.38 -0.43488 4.77122 0
M  V30 10611 H 1010.75 -0.327388 2.52587 0
M  V30 10612 H 1011.53 1.19361 3.21882 0
M  V30 10613 N 1013.98 -1.5736 0.0868897 0
M  V30 10614 C 1014.93 -2.10105 -0.885435 0
M  V30 10615 C 1015.91 -1.01417 -1.24913 0
M  V30 10616 O 1017.1 -1.27704 -1.22558 0
M  V30 10617 C 1014.23 -2.67837 -2.14752 0
M  V30 10618 C 1013.32 -3.83553 -1.80963 0
M  V30 10619 N 1013.71 -4.91917 -1.17693 0
M  V30 10620 C 1012.01 -3.93134 -2.10622 0
M  V30 10621 C 1012.71 -5.72628 -1.02332 0
M  V30 10622 N 1011.68 -5.2139 -1.53796 0
M  V30 10623 H 1015.49 -2.91272 -0.392179 0
M  V30 10624 H 1013 -1.61981 -0.116566 0
M  V30 10625 H 1015 -3.03948 -2.85344 0
M  V30 10626 H 1013.66 -1.88122 -2.64651 0
M  V30 10627 H 1014.67 -5.10964 -0.844731 0
M  V30 10628 H 1011.34 -3.24416 -2.62793 0
M  V30 10629 H 1012.73 -6.69813 -0.529171 0
M  V30 10630 N 1015.45 0.186762 -1.56489 0
M  V30 10631 C 1016.68 0.925916 -1.85584 0
M  V30 10632 C 1017.1 1.75708 -0.671446 0
M  V30 10633 O 1016.46 1.7728 0.379687 0
M  V30 10634 C 1016.51 1.79107 -3.12975 0
M  V30 10635 O 1015.61 2.89088 -2.94112 0
M  V30 10636 H 1014.96 0.260275 -0.610863 0
M  V30 10637 H 1017.49 0.189561 -2.0372 0
M  V30 10638 H 1017.5 2.19408 -3.43983 0
M  V30 10639 H 1016.17 1.18044 -3.98796 0
M  V30 10640 H 1014.75 2.52482 -2.74422 0
M  V30 10641 N 1016.93 1.50896 0.454776 0
M  V30 10642 C 1017.86 1.73885 1.5584 0
M  V30 10643 C 1018.84 0.588172 1.59607 0
M  V30 10644 O 1020.03 0.829054 1.75614 0
M  V30 10645 C 1017.16 1.84796 2.94054 0
M  V30 10646 C 1016.11 3.00111 3.05152 0
M  V30 10647 C 1015.44 2.96183 4.45174 0
M  V30 10648 C 1016.74 4.40365 2.80849 0
M  V30 10649 H 1018.43 2.66292 1.36854 0
M  V30 10650 H 1015.98 1.28142 0.656936 0
M  V30 10651 H 1017.93 1.99462 3.71204 0
M  V30 10652 H 1016.66 0.890235 3.14233 0
M  V30 10653 H 1015.31 2.85121 2.30438 0
M  V30 10654 H 1014.96 1.98224 4.62295 0
M  V30 10655 H 1014.66 3.73608 4.53532 0
M  V30 10656 H 1016.19 3.1292 5.24322 0
M  V30 10657 H 1017.6 4.55795 3.47741 0
M  V30 10658 H 1016 5.19363 3.00636 0
M  V30 10659 H 1017.07 4.51606 1.76579 0
M  V30 10660 N 1018.41 -0.709066 1.40748 0
M  V30 10661 C 1019.37 -1.80485 1.41272 0
M  V30 10662 C 1020.37 -1.57872 0.305463 0
M  V30 10663 O 1021.56 -1.64793 0.564691 0
M  V30 10664 C 1018.7 -3.1867 1.21087 0
M  V30 10665 H 1019.89 -1.81417 2.38805 0
M  V30 10666 H 1017.44 -0.915356 1.26692 0
M  V30 10667 H 1018.18 -3.23385 0.243406 0
M  V30 10668 H 1017.96 -3.36484 2.01299 0
M  V30 10669 H 1019.45 -3.98685 1.24257 0
M  V30 10670 N 1019.89 -1.26353 -0.941956 0
M  V30 10671 C 1020.82 -1.10341 -2.05784 0
M  V30 10672 C 1021.8 -0.00881565 -1.70098 0
M  V30 10673 O 1022.99 -0.180699 -1.93357 0
M  V30 10674 C 1020.12 -0.734788 -3.39438 0
M  V30 10675 C 1019.07 -1.78103 -3.89183 0
M  V30 10676 C 1018.4 -1.26675 -5.19478 0
M  V30 10677 C 1019.7 -3.1824 -4.14151 0
M  V30 10678 H 1021.39 -2.03684 -2.19438 0
M  V30 10679 H 1018.94 -0.980698 -1.05443 0
M  V30 10680 H 1020.89 -0.609653 -4.16967 0
M  V30 10681 H 1019.61 0.234354 -3.25758 0
M  V30 10682 H 1018.27 -1.89482 -3.13835 0
M  V30 10683 H 1017.92 -0.287472 -5.02178 0
M  V30 10684 H 1017.62 -1.96612 -5.53731 0
M  V30 10685 H 1019.14 -1.15427 -5.99591 0
M  V30 10686 H 1020.56 -3.09942 -4.82296 0
M  V30 10687 H 1018.95 -3.8576 -4.59684 0
M  V30 10688 H 1020.02 -3.64354 -3.19959 0
M  V30 10689 N 1021.37 1.14642 -1.08144 0
M  V30 10690 C 1022.61 1.85892 -0.810683 0
M  V30 10691 C 1022.95 1.82575 0.661821 0
M  V30 10692 O 1022.22 1.25454 1.48632 0
M  V30 10693 C 1022.5 3.34647 -1.32979 0
M  V30 10694 C 1022.36 3.46551 -2.86744 0
M  V30 10695 C 1023.68 4.29661 -0.952864 0
M  V30 10696 H 1020.8 0.674963 -0.295963 0
M  V30 10697 H 1023.44 1.3464 -1.3406 0
M  V30 10698 H 1021.59 3.78425 -0.87903 0
M  V30 10699 H 1023.26 3.11579 -3.40171 0
M  V30 10700 H 1021.5 2.87849 -3.24539 0
M  V30 10701 H 1022.17 4.51101 -3.18138 0
M  V30 10702 H 1024.65 3.93885 -1.34141 0
M  V30 10703 H 1023.53 5.32209 -1.34331 0
M  V30 10704 H 1023.79 4.41877 0.140392 0
M  V30 10705 N 1022.85 0.866709 1.31628 0
M  V30 10706 C 1024.26 0.529032 1.79048 0
M  V30 10707 C 1024.61 -0.953871 1.71452 0
M  V30 10708 O 1023.73 -1.74462 1.28031 0
M  V30 10709 C 1024.33 0.953522 3.25105 0
M  V30 10710 C 1022.89 0.667554 3.70433 0
M  V30 10711 C 1022.03 1.14664 2.52483 0
M  V30 10712 H 1024.98 1.05275 1.18756 0
M  V30 10713 H 1025.01 0.274844 3.79506 0
M  V30 10714 H 1024.52 2.03283 3.30602 0
M  V30 10715 H 1022.62 -0.400532 3.70441 0
M  V30 10716 H 1022.73 1.2423 4.62714 0
M  V30 10717 H 1021.1 0.566502 2.4832 0
M  V30 10718 H 1021.88 2.2333 2.60727 0
M  V30 10719 N 1024.32 -1.44642 0.625825 0
M  V30 10720 C 1025.25 -2.33397 -0.0692188 0
M  V30 10721 C 1026.23 -1.47898 -0.840241 0
M  V30 10722 O 1027.42 -1.7663 -0.807176 0
M  V30 10723 C 1024.55 -3.30888 -1.055 0
M  V30 10724 C 1023.5 -4.26164 -0.395968 0
M  V30 10725 C 1022.83 -5.13483 -1.49128 0
M  V30 10726 C 1024.13 -5.17663 0.694433 0
M  V30 10727 H 1025.82 -2.91763 0.671925 0
M  V30 10728 H 1023.37 -1.40294 0.324573 0
M  V30 10729 H 1025.32 -3.91861 -1.54993 0
M  V30 10730 H 1024.05 -2.7072 -1.82696 0
M  V30 10731 H 1022.71 -3.66516 0.0782691 0
M  V30 10732 H 1022.35 -4.49672 -2.25399 0
M  V30 10733 H 1022.05 -5.78038 -1.05573 0
M  V30 10734 H 1023.58 -5.77327 -1.98813 0
M  V30 10735 H 1024.99 -5.72602 0.282818 0
M  V30 10736 H 1023.39 -5.90793 1.05281 0
M  V30 10737 H 1024.46 -4.58994 1.56372 0
M  V30 10738 N 1025.8 -0.366053 -1.5329 0
M  V30 10739 C 1026.73 0.47211 -2.28677 0
M  V30 10740 C 1027.71 1.08353 -1.31125 0
M  V30 10741 O 1028.9 1.10069 -1.59995 0
M  V30 10742 C 1026.03 1.61174 -3.07637 0
M  V30 10743 C 1024.98 1.12755 -4.12881 0
M  V30 10744 C 1024.31 2.35745 -4.79925 0
M  V30 10745 C 1025.61 0.211954 -5.2187 0
M  V30 10746 H 1027.3 -0.156838 -2.98989 0
M  V30 10747 H 1024.85 -0.0768709 -1.43795 0
M  V30 10748 H 1026.8 2.20473 -3.59123 0
M  V30 10749 H 1025.52 2.26793 -2.35016 0
M  V30 10750 H 1024.18 0.557234 -3.6234 0
M  V30 10751 H 1023.83 2.99821 -4.03877 0
M  V30 10752 H 1023.53 2.04019 -5.51044 0
M  V30 10753 H 1025.06 2.95729 -5.34207 0
M  V30 10754 H 1026.47 0.71244 -5.68856 0
M  V30 10755 H 1024.87 -0.0144501 -6.00098 0
M  V30 10756 H 1025.94 -0.745753 -4.79131 0
M  V30 10757 N 1027.28 1.57312 -0.0952337 0
M  V30 10758 C 1028.53 1.93974 0.567319 0
M  V30 10759 C 1028.85 0.977805 1.68713 0
M  V30 10760 O 1028.12 0.0298944 1.95877 0
M  V30 10761 H 1026.7 0.71612 0.212558 0
M  V30 10762 H 1029.36 1.94254 -0.158598 0
M  V30 10763 H 1028.46 2.964 0.977423 0
M  V30 10764 N 1028.76 -0.17846 1.56586 0
M  V30 10765 C 1029.69 -1.24547 1.92408 0
M  V30 10766 C 1030.7 -1.40849 0.816421 0
M  V30 10767 O 1031.89 -1.40979 1.09486 0
M  V30 10768 C 1028.99 -2.61523 2.15544 0
M  V30 10769 C 1028.16 -2.66613 3.46751 0
M  V30 10770 C 1027.22 -3.84901 3.588 0
M  V30 10771 O 1026.25 -3.71231 4.31482 0
M  V30 10772 N 1027.45 -5.0106 2.9312 0
M  V30 10773 H 1030.22 -0.941275 2.84535 0
M  V30 10774 H 1027.78 -0.368275 1.57656 0
M  V30 10775 H 1029.77 -3.3911 2.20876 0
M  V30 10776 H 1028.34 -2.84362 1.29835 0
M  V30 10777 H 1027.56 -1.75174 3.5314 0
M  V30 10778 H 1028.85 -2.67018 4.33104 0
M  V30 10779 H 1028.25 -5.15067 2.33928 0
M  V30 10780 H 1026.8 -5.76535 3.04057 0
M  V30 10781 N 1030.24 -1.51135 -0.446768 0
M  V30 10782 C 1031.17 -1.74709 -1.54916 0
M  V30 10783 C 1032.15 -0.596628 -1.59293 0
M  V30 10784 O 1033.33 -0.838356 -1.75172 0
M  V30 10785 C 1030.46 -1.86353 -2.9307 0
M  V30 10786 C 1029.42 -3.01725 -3.03556 0
M  V30 10787 C 1028.74 -2.9854 -4.43597 0
M  V30 10788 C 1030.04 -4.41848 -2.7851 0
M  V30 10789 H 1031.74 -2.67014 -1.3544 0
M  V30 10790 H 1029.28 -1.28489 -0.650131 0
M  V30 10791 H 1031.23 -2.01428 -3.70141 0
M  V30 10792 H 1029.96 -0.906887 -3.13756 0
M  V30 10793 H 1028.62 -2.86339 -2.28922 0
M  V30 10794 H 1028.27 -2.00673 -4.61237 0
M  V30 10795 H 1027.97 -3.76008 -4.51544 0
M  V30 10796 H 1029.49 -3.15696 -5.22655 0
M  V30 10797 H 1030.9 -4.57633 -3.45319 0
M  V30 10798 H 1029.3 -5.2095 -2.97877 0
M  V30 10799 H 1030.37 -4.52536 -1.74182 0
M  V30 10800 N 1031.71 0.701592 -1.41122 0
M  V30 10801 C 1032.95 1.4739 -1.41618 0
M  V30 10802 C 1033.32 1.91987 -0.0219443 0
M  V30 10803 O 1034.52 2.6862 0.0982793 0
M  V30 10804 C 1032.79 2.65745 -2.38986 0
M  V30 10805 S 1034.35 3.54968 -2.5796 0
M  V30 10806 H 1031.17 0.503742 -0.501762 0
M  V30 10807 H 1033.77 0.819186 -1.77509 0
M  V30 10808 H 1032.47 2.31176 -3.39096 0
M  V30 10809 H 1032 3.36115 -2.04426 0
M  V30 10810 H 1034.02 4.60724 -1.84249 0
M  V30 10811 N 1033.19 1.2685 0.935242 0
M  V30 10812 C 1034.44 1.12912 1.6846 0
M  V30 10813 C 1034.77 -0.325708 1.91449 0
M  V30 10814 O 1034.05 -1.23884 1.49944 0
M  V30 10815 C 1034.33 1.90513 3.05576 0
M  V30 10816 C 1034.18 3.43936 2.89876 0
M  V30 10817 C 1035.5 1.70363 4.05789 0
M  V30 10818 H 1032.62 0.411559 0.611382 0
M  V30 10819 H 1035.26 1.55917 1.08582 0
M  V30 10820 H 1033.41 1.53963 3.5669 0
M  V30 10821 H 1035.08 3.90272 2.45939 0
M  V30 10822 H 1033.33 3.70659 2.25376 0
M  V30 10823 H 1034 3.93467 3.87153 0
M  V30 10824 H 1036.47 2.02217 3.63659 0
M  V30 10825 H 1035.35 2.27066 4.99732 0
M  V30 10826 H 1035.61 0.649674 4.373 0
M  V30 10827 N 1034.67 -1.14067 1.0875 0
M  V30 10828 C 1035.63 -2.17453 0.724341 0
M  V30 10829 C 1036.63 -1.58959 -0.242614 0
M  V30 10830 O 1037.82 -1.74186 -0.0217008 0
M  V30 10831 C 1034.96 -3.40828 0.0700236 0
M  V30 10832 H 1036.15 -2.51094 1.63987 0
M  V30 10833 H 1033.7 -1.28775 0.885813 0
M  V30 10834 H 1034.44 -3.1277 -0.857061 0
M  V30 10835 H 1034.22 -3.84551 0.76569 0
M  V30 10836 H 1035.71 -4.17258 -0.168905 0
M  V30 10837 N 1036.15 -0.873678 -1.31166 0
M  V30 10838 C 1037.43 -0.40698 -1.91319 0
M  V30 10839 C 1037.81 1.1113 -1.79481 0
M  V30 10840 O 1037.15 1.94155 -1.20483 0
M  V30 10841 C 1037.36 -0.892484 -3.37396 0
M  V30 10842 C 1038.71 -0.920795 -4.14496 0
M  V30 10843 O 1039.74 -0.838386 -3.46193 0
M  V30 10844 O 1038.59 -1.04069 -5.365 0
M  V30 10845 H 1035.69 -0.122439 -0.817886 0
M  V30 10846 H 1038.23 -0.961835 -1.3981 0
M  V30 10847 H 1037.01 -1.93613 -3.40044 0
M  V30 10848 H 1036.63 -0.31615 -3.96341 0
M  V30 10849 N 1037.63 1.44308 -0.633487 0
M  V30 10850 C 1039.04 1.56768 -0.29931 0
M  V30 10851 C 1039.24 1.62061 1.19743 0
M  V30 10852 O 1038.3 1.56492 1.98158 0
M  V30 10853 C 1039.61 2.8382 -0.993307 0
M  V30 10854 C 1041.16 2.97536 -0.971674 0
M  V30 10855 C 1041.63 4.27393 -1.64618 0
M  V30 10856 N 1043.13 4.34212 -1.61288 0
M  V30 10857 C 1043.86 5.33415 -2.1037 0
M  V30 10858 N 1043.36 6.3901 -2.67653 0
M  V30 10859 N 1045.15 5.24939 -2.00985 0
M  V30 10860 H 1037.3 1.39115 -1.60501 0
M  V30 10861 H 1039.56 0.666804 -0.673852 0
M  V30 10862 H 1039.27 2.85902 -2.04823 0
M  V30 10863 H 1039.14 3.73422 -0.532537 0
M  V30 10864 H 1041.53 2.95005 0.0747854 0
M  V30 10865 H 1041.61 2.09276 -1.47096 0
M  V30 10866 H 1041.26 4.30683 -2.6921 0
M  V30 10867 H 1041.19 5.14515 -1.12171 0
M  V30 10868 H 1043.68 3.58519 -1.19468 0
M  V30 10869 H 1043.99 7.10994 -3.02831 0
M  V30 10870 H 1042.33 6.39689 -2.71705 0
M  V30 10871 H 1045.53 4.41357 -1.55953 0
M  V30 10872 H 1045.7 6.02097 -2.39547 0
M  V30 10873 N 1039.1 0.374177 1.53094 0
M  V30 10874 C 1040.01 -0.475935 2.29722 0
M  V30 10875 C 1041.03 -1.085 1.36029 0
M  V30 10876 O 1042.21 -1.09408 1.69091 0
M  V30 10877 C 1039.27 -1.59572 3.07795 0
M  V30 10878 C 1038.33 -1.01332 4.17169 0
M  V30 10879 C 1037.57 -2.07975 4.9151 0
M  V30 10880 O 1037.79 -3.29232 4.65793 0
M  V30 10881 O 1036.72 -1.7055 5.77232 0
M  V30 10882 H 1040.55 0.147877 3.0334 0
M  V30 10883 H 1038.13 0.138312 1.48758 0
M  V30 10884 H 1040.02 -2.24658 3.5652 0
M  V30 10885 H 1038.69 -2.20478 2.37005 0
M  V30 10886 H 1037.6 -0.326133 3.72676 0
M  V30 10887 H 1038.93 -0.4487 4.90151 0
M  V30 10888 N 1040.58 -1.57259 0.103575 0
M  V30 10889 C 1041.53 -2.15727 -0.869739 0
M  V30 10890 C 1042.52 -1.10236 -1.28625 0
M  V30 10891 O 1043.73 -1.28567 -1.25979 0
M  V30 10892 H 1040.11 -0.690204 -0.298535 0
M  V30 10893 H 1042.08 -2.96317 -0.351984 0
M  V30 10894 C 1040.83 -2.75905 -2.11593 0
M  V30 10895 H 1040.15 -3.56768 -1.80434 0
M  V30 10896 H 1041.59 -3.20373 -2.77736 0
M  V30 10897 C 1040.05 -1.72218 -2.89556 0
M  V30 10898 O 1040.58 -1.16623 -3.84398 0
M  V30 10899 N 1038.78 -1.42514 -2.53255 0
M  V30 10900 H 1038.33 -1.87914 -1.76198 0
M  V30 10901 H 1038.29 -0.733782 -3.05717 0
M  V30 10902 N 1042.06 0.170153 -1.56679 0
M  V30 10903 C 1043.31 0.884841 -1.817 0
M  V30 10904 C 1043.63 1.82731 -0.680763 0
M  V30 10905 O 1042.9 1.936 0.299294 0
M  V30 10906 H 1041.48 0.329738 -0.670285 0
M  V30 10907 H 1044.14 0.169691 -1.9416 0
M  V30 10908 H 1043.24 1.46104 -2.7579 0
M  V30 10909 N 1043.54 1.5137 0.438746 0
M  V30 10910 C 1044.95 1.39514 0.775116 0
M  V30 10911 C 1045.15 0.47638 1.95788 0
M  V30 10912 O 1044.21 -0.0689832 2.52406 0
M  V30 10913 C 1045.52 2.81517 1.05681 0
M  V30 10914 C 1047.07 2.90658 1.16133 0
M  V30 10915 C 1047.55 4.33566 1.47597 0
M  V30 10916 N 1049.04 4.36665 1.54524 0
M  V30 10917 C 1049.77 5.4427 1.80438 0
M  V30 10918 N 1049.27 6.62037 2.04154 0
M  V30 10919 N 1051.06 5.31749 1.82208 0
M  V30 10920 H 1043.21 2.09657 -0.340237 0
M  V30 10921 H 1045.48 0.943736 -0.0898115 0
M  V30 10922 H 1045.18 3.50734 0.260441 0
M  V30 10923 H 1045.06 3.20757 1.98481 0
M  V30 10924 H 1047.44 2.2164 1.94833 0
M  V30 10925 H 1047.52 2.54917 0.212376 0
M  V30 10926 H 1047.17 5.03133 0.694251 0
M  V30 10927 H 1047.1 4.66819 2.43696 0
M  V30 10928 H 1049.59 3.51761 1.38105 0
M  V30 10929 H 1049.9 7.39838 2.23293 0
M  V30 10930 H 1048.25 6.65155 2.01479 0
M  V30 10931 H 1051.44 4.3873 1.63198 0
M  V30 10932 H 1051.61 6.15689 2.02067 0
M  V30 10933 N 1045.02 -0.694098 1.41492 0
M  V30 10934 C 1046.27 -1.4498 1.40227 0
M  V30 10935 C 1046.58 -1.95594 0.0151253 0
M  V30 10936 O 1047.78 -2.71234 -0.120146 0
M  V30 10937 C 1046.24 -2.62171 2.46565 0
M  V30 10938 C 1045.85 -2.18337 3.91194 0
M  V30 10939 C 1047.59 -3.39796 2.54439 0
M  V30 10940 C 1045.5 -3.32495 4.89082 0
M  V30 10941 H 1044.43 -0.544584 0.521483 0
M  V30 10942 H 1047.08 -0.75337 1.67322 0
M  V30 10943 H 1045.46 -3.34089 2.12604 0
M  V30 10944 H 1046.64 -1.53698 4.34412 0
M  V30 10945 H 1044.95 -1.53702 3.86994 0
M  V30 10946 H 1047.55 -4.2478 3.24755 0
M  V30 10947 H 1047.89 -3.85082 1.5817 0
M  V30 10948 H 1048.42 -2.74935 2.87499 0
M  V30 10949 H 1045.16 -2.92219 5.86761 0
M  V30 10950 H 1044.68 -3.95978 4.50512 0
M  V30 10951 H 1046.36 -3.98251 5.09907 0
M  V30 10952 N 1046.49 -1.27344 -0.928501 0
M  V30 10953 C 1047.43 -1.05797 -2.03322 0
M  V30 10954 C 1048.44 -0.0143086 -1.62794 0
M  V30 10955 O 1049.63 -0.25578 -1.76658 0
M  V30 10956 C 1046.73 -0.582673 -3.33853 0
M  V30 10957 C 1045.9 -1.69844 -4.03078 0
M  V30 10958 C 1044.96 -1.21902 -5.11885 0
M  V30 10959 O 1043.99 -1.91853 -5.35893 0
M  V30 10960 N 1045.19 -0.0742392 -5.80453 0
M  V30 10961 H 1047.95 -2.00928 -2.22369 0
M  V30 10962 H 1045.51 -1.189 -1.09883 0
M  V30 10963 H 1047.51 -0.245862 -4.03952 0
M  V30 10964 H 1046.08 0.27539 -3.11385 0
M  V30 10965 H 1045.3 -2.20557 -3.26723 0
M  V30 10966 H 1046.58 -2.4473 -4.46077 0
M  V30 10967 H 1045.98 0.509631 -5.634 0
M  V30 10968 H 1044.54 0.203399 -6.51483 0
M  V30 10969 N 1047.97 1.13488 -1.09353 0
M  V30 10970 C 1049.21 1.86397 -0.83877 0
M  V30 10971 C 1049.58 1.81568 0.624259 0
M  V30 10972 O 1050.78 2.49709 0.994923 0
M  V30 10973 C 1049.05 3.30583 -1.35828 0
M  V30 10974 S 1050.61 4.20995 -1.23728 0
M  V30 10975 H 1047.43 0.643022 -0.303387 0
M  V30 10976 H 1050.03 1.36788 -1.39676 0
M  V30 10977 H 1048.73 3.31652 -2.41734 0
M  V30 10978 H 1048.26 3.85255 -0.796386 0
M  V30 10979 H 1050.28 4.95845 -0.187745 0
M  V30 10980 N 1049.45 0.880621 1.30701 0
M  V30 10981 C 1050.7 0.496875 1.96309 0
M  V30 10982 C 1051.03 -0.953064 1.69549 0
M  V30 10983 O 1050.28 -1.68782 0.990507 0
M  V30 10984 C 1050.58 0.713203 3.50212 0
M  V30 10985 C 1050.25 2.13756 3.97013 0
M  V30 10986 C 1048.91 2.52706 4.09503 0
M  V30 10987 C 1051.26 3.066 4.21481 0
M  V30 10988 C 1048.59 3.8372 4.43819 0
M  V30 10989 C 1050.94 4.3714 4.57265 0
M  V30 10990 C 1049.6 4.7599 4.67963 0
M  V30 10991 H 1048.87 0.18182 0.718347 0
M  V30 10992 H 1051.52 1.11564 1.55646 0
M  V30 10993 H 1049.83 0.0113694 3.91798 0
M  V30 10994 H 1051.52 0.39595 3.9904 0
M  V30 10995 H 1048.11 1.8252 3.87794 0
M  V30 10996 H 1052.3 2.77729 4.11315 0
M  V30 10997 H 1047.55 4.13568 4.50301 0
M  V30 10998 H 1051.73 5.09123 4.75149 0
M  V30 10999 H 1049.35 5.77549 4.94309 0
M  V30 11000 N 1050.93 -1.4397 0.641131 0
M  V30 11001 C 1051.88 -2.30728 -0.0577905 0
M  V30 11002 C 1052.85 -1.44059 -0.826819 0
M  V30 11003 O 1054.03 -1.72947 -0.805853 0
M  V30 11004 C 1051.17 -3.29478 -1.02657 0
M  V30 11005 C 1050.28 -4.31247 -0.254913 0
M  V30 11006 C 1049.42 -5.17085 -1.2164 0
M  V30 11007 C 1048.46 -6.10556 -0.434481 0
M  V30 11008 N 1047.6 -6.89059 -1.34694 0
M  V30 11009 H 1052.44 -2.8995 0.687953 0
M  V30 11010 H 1049.97 -1.4285 0.351029 0
M  V30 11011 H 1051.93 -3.85228 -1.60173 0
M  V30 11012 H 1050.56 -2.71932 -1.73933 0
M  V30 11013 H 1049.61 -3.77889 0.436338 0
M  V30 11014 H 1050.92 -4.97545 0.353642 0
M  V30 11015 H 1050.08 -5.77402 -1.86258 0
M  V30 11016 H 1048.82 -4.50885 -1.85888 0
M  V30 11017 H 1047.82 -5.49339 0.225125 0
M  V30 11018 H 1049.05 -6.78795 0.203415 0
M  V30 11019 H 1046.99 -6.25518 -1.97644 0
M  V30 11020 H 1046.91 -7.51833 -0.792657 0
M  V30 11021 H 1048.18 -7.5389 -1.98165 0
M  V30 11022 N 1052.41 -0.382291 -1.52893 0
M  V30 11023 C 1053.64 0.202408 -2.05908 0
M  V30 11024 C 1054.05 1.4109 -1.25456 0
M  V30 11025 O 1053.41 1.80027 -0.29942 0
M  V30 11026 C 1053.46 0.579452 -3.56826 0
M  V30 11027 O 1053.18 -0.58102 -4.3423 0
M  V30 11028 C 1054.68 1.22076 -4.2616 0
M  V30 11029 H 1051.9 0.0321859 -0.670228 0
M  V30 11030 H 1054.44 -0.545494 -1.9709 0
M  V30 11031 H 1052.6 1.27726 -3.65739 0
M  V30 11032 H 1053.01 -0.272693 -5.23791 0
M  V30 11033 H 1054.49 1.435 -5.33021 0
M  V30 11034 H 1054.96 2.18605 -3.80931 0
M  V30 11035 H 1055.57 0.563922 -4.21545 0
M  V30 11036 N 1053.89 1.57202 -0.111913 0
M  V30 11037 C 1055.16 1.86459 0.590972 0
M  V30 11038 C 1055.54 1.01182 1.85271 0
M  V30 11039 O 1054.89 0.0887891 2.28327 0
M  V30 11040 C 1055.1 3.37455 0.890225 0
M  V30 11041 C 1056.45 4.05895 1.24638 0
M  V30 11042 O 1057.47 3.42433 0.980713 0
M  V30 11043 O 1056.33 5.17903 1.74466 0
M  V30 11044 H 1053.43 0.771652 0.297459 0
M  V30 11045 H 1055.97 1.69072 -0.145882 0
M  V30 11046 H 1054.74 3.913 -0.00419012 0
M  V30 11047 H 1054.37 3.60248 1.68248 0
M  V30 11048 N 1055.36 -0.161842 1.56767 0
M  V30 11049 C 1056.59 -0.892247 1.86672 0
M  V30 11050 C 1057.01 -1.75407 0.69841 0
M  V30 11051 O 1056.36 -1.7945 -0.332251 0
M  V30 11052 C 1056.41 -1.7612 3.15696 0
M  V30 11053 O 1056.14 -0.934131 4.28025 0
M  V30 11054 C 1057.64 -2.60046 3.59014 0
M  V30 11055 H 1054.86 -0.258747 0.619105 0
M  V30 11056 H 1057.4 -0.159089 2.0388 0
M  V30 11057 H 1055.56 -2.44759 3.00286 0
M  V30 11058 H 1055.97 -1.52931 5.01709 0
M  V30 11059 H 1057.44 -3.16618 4.5217 0
M  V30 11060 H 1057.92 -3.35374 2.83586 0
M  V30 11061 H 1058.53 -1.96724 3.77067 0
M  V30 11062 N 1056.84 -1.516 -0.430713 0
M  V30 11063 C 1057.79 -1.73392 -1.52328 0
M  V30 11064 C 1058.76 -0.575758 -1.55802 0
M  V30 11065 O 1059.94 -0.810931 -1.72709 0
M  V30 11066 C 1057.08 -1.87092 -2.89984 0
M  V30 11067 C 1056.2 -3.14668 -2.95987 0
M  V30 11068 C 1055.33 -3.18923 -4.24807 0
M  V30 11069 C 1054.37 -4.40787 -4.24703 0
M  V30 11070 N 1053.51 -4.42556 -5.45059 0
M  V30 11071 H 1058.35 -2.6665 -1.33048 0
M  V30 11072 H 1055.88 -1.32146 -0.646207 0
M  V30 11073 H 1057.84 -1.93017 -3.69865 0
M  V30 11074 H 1056.47 -0.972363 -3.07807 0
M  V30 11075 H 1055.52 -3.1802 -2.08728 0
M  V30 11076 H 1056.84 -4.04562 -2.91772 0
M  V30 11077 H 1055.99 -3.23801 -5.13067 0
M  V30 11078 H 1054.73 -2.2693 -4.31688 0
M  V30 11079 H 1053.73 -4.36079 -3.34836 0
M  V30 11080 H 1054.96 -5.34053 -4.19481 0
M  V30 11081 H 1052.91 -3.53435 -5.52648 0
M  V30 11082 H 1052.82 -5.26267 -5.42751 0
M  V30 11083 H 1054.09 -4.51634 -6.35332 0
M  V30 11084 N 1058.32 0.686584 -1.41858 0
M  V30 11085 C 1059.23 1.83002 -1.46791 0
M  V30 11086 C 1060.25 1.70284 -0.357675 0
M  V30 11087 O 1061.42 1.92042 -0.606781 0
M  V30 11088 C 1058.49 3.19056 -1.35661 0
M  V30 11089 C 1057.55 3.43817 -2.57077 0
M  V30 11090 C 1056.78 4.7338 -2.46469 0
M  V30 11091 O 1057 5.50483 -1.49413 0
M  V30 11092 O 1055.94 4.99124 -3.36391 0
M  V30 11093 H 1059.76 1.81797 -2.43277 0
M  V30 11094 H 1057.35 0.840812 -1.23494 0
M  V30 11095 H 1059.23 4.00267 -1.31773 0
M  V30 11096 H 1057.91 3.20925 -0.422951 0
M  V30 11097 H 1056.81 2.625 -2.66541 0
M  V30 11098 H 1058.15 3.4677 -3.49302 0
M  V30 11099 N 1059.8 1.27835 0.921735 0
M  V30 11100 C 1061.04 1.14523 1.67005 0
M  V30 11101 C 1061.37 -0.307776 1.92049 0
M  V30 11102 O 1060.63 -1.24103 1.51317 0
M  V30 11103 C 1060.93 1.88054 3.03925 0
M  V30 11104 C 1060.59 3.37886 2.9857 0
M  V30 11105 C 1059.25 3.78752 2.96817 0
M  V30 11106 C 1061.61 4.33462 2.89414 0
M  V30 11107 C 1058.93 5.13549 2.83698 0
M  V30 11108 C 1061.29 5.68322 2.77836 0
M  V30 11109 C 1059.95 6.08475 2.74436 0
M  V30 11110 H 1059.22 0.419068 0.611116 0
M  V30 11111 H 1061.87 1.58515 1.07449 0
M  V30 11112 H 1060.17 1.36587 3.67221 0
M  V30 11113 H 1061.87 1.75176 3.60714 0
M  V30 11114 H 1058.46 3.05389 3.00725 0
M  V30 11115 H 1062.64 4.02857 2.89862 0
M  V30 11116 H 1057.9 5.43796 2.79456 0
M  V30 11117 H 1062.07 6.42048 2.69717 0
M  V30 11118 H 1059.7 7.12877 2.64027 0
M  V30 11119 N 1061.28 -1.12907 1.09954 0
M  V30 11120 C 1062.52 -1.84579 0.840155 0
M  V30 11121 C 1062.85 -1.83605 -0.632692 0
M  V30 11122 O 1062.13 -1.27803 -1.46617 0
M  V30 11123 C 1062.41 -3.32489 1.38286 0
M  V30 11124 C 1062.27 -3.41946 2.92221 0
M  V30 11125 C 1063.58 -4.28091 1.0211 0
M  V30 11126 H 1060.7 -0.670169 0.306663 0
M  V30 11127 H 1063.35 -1.3249 1.36185 0
M  V30 11128 H 1061.5 -3.76978 0.939123 0
M  V30 11129 H 1063.17 -3.06128 3.45085 0
M  V30 11130 H 1061.41 -2.8265 3.29077 0
M  V30 11131 H 1062.08 -4.45983 3.25274 0
M  V30 11132 H 1064.56 -3.91701 1.4039 0
M  V30 11133 H 1063.43 -5.30005 1.42781 0
M  V30 11134 H 1063.69 -4.42044 -0.0700753 0
M  V30 11135 N 1062.75 -0.88754 -1.30232 0
M  V30 11136 C 1064.17 -0.581904 -1.48614 0
M  V30 11137 C 1064.37 0.879711 -1.81282 0
M  V30 11138 O 1063.43 1.66076 -1.90198 0
M  V30 11139 C 1064.74 -1.49726 -2.60773 0
M  V30 11140 C 1066.29 -1.50117 -2.74653 0
M  V30 11141 C 1066.76 -2.40251 -3.89927 0
M  V30 11142 N 1068.25 -2.38229 -3.97242 0
M  V30 11143 C 1068.99 -3.04682 -4.85754 0
M  V30 11144 N 1068.48 -3.80369 -5.79043 0
M  V30 11145 N 1070.28 -2.93901 -4.79144 0
M  V30 11146 H 1062.43 -1.83304 -1.073 0
M  V30 11147 H 1064.69 -0.78477 -0.531826 0
M  V30 11148 H 1064.4 -2.5381 -2.43462 0
M  V30 11149 H 1064.27 -1.20874 -3.57308 0
M  V30 11150 H 1066.66 -0.467832 -2.91368 0
M  V30 11151 H 1066.74 -1.83001 -1.7873 0
M  V30 11152 H 1066.38 -3.43671 -3.73969 0
M  V30 11153 H 1066.31 -2.04682 -4.85194 0
M  V30 11154 H 1068.8 -1.83229 -3.30508 0
M  V30 11155 H 1069.12 -4.28159 -6.4335 0
M  V30 11156 H 1067.46 -3.84477 -5.78967 0
M  V30 11157 H 1070.65 -2.34296 -4.05245 0
M  V30 11158 H 1070.83 -3.45967 -5.47915 0
M  V30 11159 N 1064.23 1.43628 -0.648757 0
M  V30 11160 C 1065.14 2.34554 0.0463037 0
M  V30 11161 C 1066.16 1.53629 0.816952 0
M  V30 11162 O 1067.33 1.86297 0.765212 0
M  V30 11163 C 1064.4 3.3185 1.00381 0
M  V30 11164 C 1063.46 4.2868 0.230589 0
M  V30 11165 C 1062.69 5.21328 1.14249 0
M  V30 11166 O 1062.92 5.18298 2.38166 0
M  V30 11167 O 1061.85 5.98726 0.617296 0
M  V30 11168 H 1065.68 2.95475 -0.702008 0
M  V30 11169 H 1063.26 1.43694 -0.408942 0
M  V30 11170 H 1065.14 3.91692 1.5542 0
M  V30 11171 H 1063.82 2.73439 1.73243 0
M  V30 11172 H 1062.73 3.72332 -0.363282 0
M  V30 11173 H 1064.06 4.90061 -0.458368 0
M  V30 11174 N 1065.71 0.390394 1.52688 0
M  V30 11175 C 1066.96 -0.192697 2.00777 0
M  V30 11176 C 1067.27 -1.4781 1.28108 0
M  V30 11177 O 1068.48 -2.1413 1.66914 0
M  V30 11178 C 1066.93 -0.393955 3.57737 0
M  V30 11179 C 1066.54 0.878259 4.39307 0
M  V30 11180 C 1068.29 -0.933352 4.14112 0
M  V30 11181 C 1066.19 0.645218 5.8787 0
M  V30 11182 H 1065.12 -0.0757862 0.750182 0
M  V30 11183 H 1067.77 0.512961 1.76184 0
M  V30 11184 H 1066.16 -1.16149 3.78583 0
M  V30 11185 H 1067.33 1.65049 4.30227 0
M  V30 11186 H 1065.65 1.34269 3.94158 0
M  V30 11187 H 1068.24 -1.12343 5.22765 0
M  V30 11188 H 1068.59 -1.90272 3.70273 0
M  V30 11189 H 1069.12 -0.225361 3.97161 0
M  V30 11190 H 1065.86 1.58562 6.36033 0
M  V30 11191 H 1065.38 -0.0880609 5.99735 0
M  V30 11192 H 1067.06 0.280178 6.46393 0
M  V30 11193 N 1067.19 -1.57141 0.120249 0
M  V30 11194 C 1068.14 -2.15379 -0.829497 0
M  V30 11195 C 1069.11 -1.07913 -1.2627 0
M  V30 11196 O 1070.29 -1.35827 -1.33999 0
M  V30 11197 C 1067.43 -2.75847 -2.0737 0
M  V30 11198 C 1066.54 -3.97624 -1.68875 0
M  V30 11199 C 1065.68 -4.46175 -2.88272 0
M  V30 11200 C 1064.72 -5.60481 -2.46023 0
M  V30 11201 N 1063.85 -6.0377 -3.58337 0
M  V30 11202 H 1068.69 -2.96211 -0.326031 0
M  V30 11203 H 1066.23 -1.46341 -0.149235 0
M  V30 11204 H 1068.19 -3.09037 -2.80272 0
M  V30 11205 H 1066.82 -1.97703 -2.55174 0
M  V30 11206 H 1065.87 -3.70588 -0.858431 0
M  V30 11207 H 1067.18 -4.80512 -1.33827 0
M  V30 11208 H 1066.34 -4.8128 -3.69397 0
M  V30 11209 H 1065.08 -3.6224 -3.26548 0
M  V30 11210 H 1064.08 -5.24979 -1.63331 0
M  V30 11211 H 1065.31 -6.46184 -2.08863 0
M  V30 11212 H 1063.25 -5.22776 -3.96284 0
M  V30 11213 H 1063.17 -6.81517 -3.27217 0
M  V30 11214 H 1064.44 -6.43514 -4.39898 0
M  V30 11215 N 1068.67 0.153526 -1.5685 0
M  V30 11216 C 1069.62 1.19478 -1.94188 0
M  V30 11217 C 1070.6 1.38889 -0.812329 0
M  V30 11218 O 1071.79 1.4056 -1.07572 0
M  V30 11219 C 1068.92 2.53 -2.32047 0
M  V30 11220 C 1068.01 2.37209 -3.51557 0
M  V30 11221 N 1068.4 1.91162 -4.68285 0
M  V30 11222 C 1066.7 2.67981 -3.56514 0
M  V30 11223 C 1067.4 1.88259 -5.50394 0
M  V30 11224 N 1066.37 2.31329 -4.91923 0
M  V30 11225 H 1070.18 0.830748 -2.81915 0
M  V30 11226 H 1067.69 0.361643 -1.58322 0
M  V30 11227 H 1069.69 3.28264 -2.56998 0
M  V30 11228 H 1068.35 2.90191 -1.45669 0
M  V30 11229 H 1069.36 1.61227 -4.92165 0
M  V30 11230 H 1066.03 3.0909 -2.80659 0
M  V30 11231 H 1067.42 1.54205 -6.53965 0
M  V30 11232 N 1070.14 1.51827 0.422667 0
M  V30 11233 C 1071.37 1.69337 1.19748 0
M  V30 11234 C 1071.79 0.396312 1.83878 0
M  V30 11235 O 1071.15 -0.644976 1.6944 0
M  V30 11236 C 1071.2 2.82082 2.24637 0
M  V30 11237 O 1070.3 2.46708 3.30468 0
M  V30 11238 H 1069.65 0.564154 0.35018 0
M  V30 11239 H 1072.18 1.98465 0.497289 0
M  V30 11240 H 1072.19 3.06599 2.69186 0
M  V30 11241 H 1070.86 3.76195 1.77341 0
M  V30 11242 H 1069.44 2.32815 2.91293 0
M  V30 11243 N 1071.62 -0.679052 1.4222 0
M  V30 11244 C 1072.85 -1.47248 1.46058 0
M  V30 11245 C 1073.27 -1.87962 0.0720987 0
M  V30 11246 O 1072.63 -1.5572 -0.928488 0
M  V30 11247 C 1072.68 -2.70067 2.38948 0
M  V30 11248 O 1071.78 -3.68178 1.85791 0
M  V30 11249 H 1071.12 -0.442533 0.495036 0
M  V30 11250 H 1073.65 -0.833263 1.86863 0
M  V30 11251 H 1073.66 -3.18187 2.55385 0
M  V30 11252 H 1072.34 -2.39773 3.39826 0
M  V30 11253 H 1070.92 -3.2719 1.78889 0
M  V30 11254 N 1073.1 -1.28322 -0.914942 0
M  V30 11255 C 1074.35 -1.15407 -1.66396 0
M  V30 11256 C 1074.68 0.297587 -1.9221 0
M  V30 11257 O 1073.93 1.23299 -1.51973 0
M  V30 11258 C 1074.23 -1.89663 -3.02924 0
M  V30 11259 C 1073.9 -3.39464 -2.96774 0
M  V30 11260 C 1072.56 -3.80321 -2.94804 0
M  V30 11261 C 1074.91 -4.3499 -2.87111 0
M  V30 11262 C 1072.24 -5.15046 -2.8097 0
M  V30 11263 C 1074.59 -5.69788 -2.74818 0
M  V30 11264 C 1073.25 -6.09921 -2.71205 0
M  V30 11265 H 1072.52 -0.422303 -0.608885 0
M  V30 11266 H 1075.17 -1.59082 -1.06607 0
M  V30 11267 H 1073.48 -1.38533 -3.66491 0
M  V30 11268 H 1075.17 -1.77087 -3.59779 0
M  V30 11269 H 1071.76 -3.06979 -2.99101 0
M  V30 11270 H 1075.95 -4.04389 -2.87721 0
M  V30 11271 H 1071.2 -5.45271 -2.76568 0
M  V30 11272 H 1075.38 -6.43469 -2.66309 0
M  V30 11273 H 1073 -7.14267 -2.60243 0
M  V30 11274 N 1074.58 1.12322 -1.10551 0
M  V30 11275 C 1075.83 1.83495 -0.846998 0
M  V30 11276 C 1076.15 1.8457 0.629205 0
M  V30 11277 O 1075.42 1.30968 1.45686 0
M  V30 11278 H 1074 0.679479 -0.310351 0
M  V30 11279 H 1076.66 1.36004 -1.39602 0
M  V30 11280 H 1075.76 2.87651 -1.21092 0
M  V30 11281 N 1076.06 0.894434 1.2976 0
M  V30 11282 C 1077.47 0.589778 1.48303 0
M  V30 11283 C 1077.67 -0.870085 1.81746 0
M  V30 11284 O 1076.73 -1.65065 1.91076 0
M  V30 11285 C 1078.04 1.51107 2.59975 0
M  V30 11286 C 1079.59 1.51571 2.73853 0
M  V30 11287 C 1080.06 2.42316 3.88648 0
M  V30 11288 N 1081.56 2.40333 3.95973 0
M  V30 11289 C 1082.29 3.07254 4.84131 0
M  V30 11290 N 1081.79 3.83435 5.77018 0
M  V30 11291 N 1083.58 2.96438 4.77578 0
M  V30 11292 H 1075.73 1.83871 1.06327 0
M  V30 11293 H 1077.99 0.78758 0.527657 0
M  V30 11294 H 1077.7 2.55097 2.42112 0
M  V30 11295 H 1077.57 1.22767 3.56662 0
M  V30 11296 H 1079.96 0.483277 2.91116 0
M  V30 11297 H 1080.04 1.83946 1.77757 0
M  V30 11298 H 1079.69 3.4565 3.72141 0
M  V30 11299 H 1079.62 2.07252 4.84101 0
M  V30 11300 H 1082.11 1.84979 3.29532 0
M  V30 11301 H 1082.42 4.31565 6.4107 0
M  V30 11302 H 1080.76 3.87542 5.7692 0
M  V30 11303 H 1083.96 2.36442 4.03996 0
M  V30 11304 H 1084.13 3.48867 5.46073 0
M  V30 11305 N 1077.53 -1.43282 0.656365 0
M  V30 11306 C 1078.48 -2.32556 -0.0452037 0
M  V30 11307 C 1079.48 -1.48789 -0.80982 0
M  V30 11308 O 1080.68 -1.64979 -0.719865 0
M  V30 11309 H 1077.06 -0.751258 -0.0334043 0
M  V30 11310 H 1079.03 -2.89448 0.725423 0
M  V30 11311 C 1077.78 -3.33138 -0.995706 0
M  V30 11312 H 1077.1 -3.97622 -0.416774 0
M  V30 11313 H 1078.54 -3.98231 -1.45562 0
M  V30 11314 C 1077 -2.63978 -2.09325 0
M  V30 11315 O 1077.53 -2.45769 -3.17743 0
M  V30 11316 N 1075.74 -2.23301 -1.8597 0
M  V30 11317 H 1075.28 -2.38312 -0.97802 0
M  V30 11318 H 1075.24 -1.77358 -2.59599 0
M  V30 11319 N 1079.01 -0.398486 -1.52479 0
M  V30 11320 C 1080.26 0.181019 -2.0199 0
M  V30 11321 C 1080.59 1.45691 -1.28405 0
M  V30 11322 O 1079.87 1.90607 -0.387207 0
M  V30 11323 C 1080.15 0.439587 -3.57407 0
M  V30 11324 C 1080 -0.85223 -4.41653 0
M  V30 11325 C 1081.32 1.2263 -4.2267 0
M  V30 11326 H 1078.44 0.0643164 -0.734188 0
M  V30 11327 H 1081.08 -0.52986 -1.82462 0
M  V30 11328 H 1079.23 1.04516 -3.74177 0
M  V30 11329 H 1080.91 -1.48879 -4.36615 0
M  V30 11330 H 1079.15 -1.46555 -4.08294 0
M  V30 11331 H 1079.82 -0.625839 -5.48441 0
M  V30 11332 H 1082.3 0.713722 -4.09933 0
M  V30 11333 H 1081.17 1.37596 -5.31374 0
M  V30 11334 H 1081.43 2.24403 -3.80914 0
M  V30 11335 N 1080.49 1.57075 -0.12858 0
M  V30 11336 C 1081.74 1.9552 0.527087 0
M  V30 11337 C 1082.07 1.01243 1.66072 0
M  V30 11338 O 1081.32 0.0381076 1.95663 0
M  V30 11339 C 1081.62 3.40329 1.09138 0
M  V30 11340 C 1081.29 4.50832 0.0781039 0
M  V30 11341 C 1079.95 4.80782 -0.200493 0
M  V30 11342 C 1082.3 5.17595 -0.61192 0
M  V30 11343 C 1079.63 5.74809 -1.17524 0
M  V30 11344 C 1081.98 6.12671 -1.57536 0
M  V30 11345 C 1080.64 6.41008 -1.86184 0
M  V30 11346 H 1079.91 0.715458 0.192875 0
M  V30 11347 H 1082.56 1.90328 -0.211515 0
M  V30 11348 H 1080.87 3.42262 1.90694 0
M  V30 11349 H 1082.56 3.67393 1.60696 0
M  V30 11350 H 1079.15 4.2751 0.30543 0
M  V30 11351 H 1083.34 4.94605 -0.40986 0
M  V30 11352 H 1078.59 5.95065 -1.40384 0
M  V30 11353 H 1082.77 6.63486 -2.11565 0
M  V30 11354 H 1080.39 7.13673 -2.61868 0
M  V30 11355 N 1081.97 -0.145205 1.5693 0
M  V30 11356 C 1082.93 -1.16316 1.97492 0
M  V30 11357 C 1083.93 -1.35764 0.861668 0
M  V30 11358 O 1085.12 -1.32726 1.12825 0
M  V30 11359 C 1082.25 -2.52311 2.29242 0
M  V30 11360 H 1083.45 -0.815138 2.8861 0
M  V30 11361 H 1081 -0.38861 1.51392 0
M  V30 11362 H 1081.74 -2.92081 1.40922 0
M  V30 11363 H 1081.52 -2.39555 3.10412 0
M  V30 11364 H 1083.01 -3.25624 2.61456 0
M  V30 11365 N 1083.45 -1.52049 -0.414609 0
M  V30 11366 C 1084.7 -1.65067 -1.15912 0
M  V30 11367 C 1085.01 -0.383969 -1.91794 0
M  V30 11368 O 1086.22 -0.393872 -2.68628 0
M  V30 11369 C 1084.67 -2.91611 -2.1093 0
M  V30 11370 C 1084.28 -4.25369 -1.4059 0
M  V30 11371 C 1086.02 -3.13992 -2.85674 0
M  V30 11372 C 1083.93 -5.43041 -2.34223 0
M  V30 11373 H 1082.86 -0.614884 -0.436387 0
M  V30 11374 H 1085.51 -1.78533 -0.424072 0
M  V30 11375 H 1083.89 -2.71831 -2.87965 0
M  V30 11376 H 1085.07 -4.55611 -0.689568 0
M  V30 11377 H 1083.38 -4.09047 -0.779088 0
M  V30 11378 H 1085.98 -3.99082 -3.55861 0
M  V30 11379 H 1086.32 -2.27998 -3.48314 0
M  V30 11380 H 1086.86 -3.34217 -2.1574 0
M  V30 11381 H 1083.59 -6.31364 -1.76238 0
M  V30 11382 H 1083.11 -5.17144 -3.03845 0
M  V30 11383 H 1084.79 -5.75901 -2.94868 0
M  V30 11384 N 1084.93 0.6715 -1.42579 0
M  V30 11385 C 1086.15 1.46471 -1.46836 0
M  V30 11386 C 1086.58 1.87921 -0.0820658 0
M  V30 11387 O 1085.93 1.5621 0.920217 0
M  V30 11388 C 1085.98 2.68796 -2.40377 0
M  V30 11389 O 1085.09 3.67188 -1.87741 0
M  V30 11390 H 1084.43 0.439901 -0.497376 0
M  V30 11391 H 1086.96 0.823342 -1.87303 0
M  V30 11392 H 1086.97 3.16828 -2.57068 0
M  V30 11393 H 1085.64 2.37967 -3.41093 0
M  V30 11394 H 1084.22 3.26237 -1.80621 0
M  V30 11395 N 1086.4 1.28806 0.908124 0
M  V30 11396 C 1087.63 1.1898 1.689 0
M  V30 11397 C 1088.04 -0.253334 1.87496 0
M  V30 11398 O 1087.38 -1.18245 1.40584 0
M  V30 11399 C 1087.45 1.82266 3.0987 0
M  V30 11400 C 1087.11 3.31534 3.14538 0
M  V30 11401 C 1088.11 4.27886 2.95313 0
M  V30 11402 C 1085.79 3.72589 3.36872 0
M  V30 11403 C 1087.79 5.63267 2.98343 0
M  V30 11404 C 1085.47 5.08095 3.39534 0
M  V30 11405 C 1086.47 6.03244 3.2029 0
M  V30 11406 O 1086.16 7.36277 3.22724 0
M  V30 11407 H 1085.89 0.413772 0.534574 0
M  V30 11408 H 1088.45 1.7055 1.14464 0
M  V30 11409 H 1086.68 1.25197 3.65872 0
M  V30 11410 H 1088.36 1.6688 3.70008 0
M  V30 11411 H 1089.13 3.97502 2.77879 0
M  V30 11412 H 1085.01 2.98989 3.50894 0
M  V30 11413 H 1088.55 6.37511 2.83241 0
M  V30 11414 H 1084.45 5.38126 3.56497 0
M  V30 11415 H 1085.22 7.44976 3.39048 0
M  V30 11416 N 1087.88 -1.11734 1.11145 0
M  V30 11417 C 1089.13 -1.82766 0.853194 0
M  V30 11418 C 1089.44 -1.85408 -0.623168 0
M  V30 11419 O 1090.65 -2.52509 -0.997574 0
M  V30 11420 C 1089.11 -3.28215 1.47658 0
M  V30 11421 C 1088.71 -3.33911 2.98676 0
M  V30 11422 C 1090.46 -4.04168 1.29803 0
M  V30 11423 C 1088.36 -4.73739 3.54013 0
M  V30 11424 H 1087.29 -0.684807 0.315523 0
M  V30 11425 H 1089.95 -1.25756 1.33633 0
M  V30 11426 H 1088.33 -3.85138 0.921116 0
M  V30 11427 H 1089.5 -2.86887 3.606 0
M  V30 11428 H 1087.82 -2.71437 3.15771 0
M  V30 11429 H 1090.41 -5.07429 1.68582 0
M  V30 11430 H 1090.76 -4.15606 0.240302 0
M  V30 11431 H 1091.29 -3.53623 1.82196 0
M  V30 11432 H 1088.03 -4.67497 4.59485 0
M  V30 11433 H 1087.55 -5.21186 2.9686 0
M  V30 11434 H 1089.23 -5.42691 3.52271 0
M  V30 11435 N 1089.36 -0.901303 -1.29284 0
M  V30 11436 C 1090.77 -0.576317 -1.77582 0
M  V30 11437 C 1091.12 0.908078 -1.73921 0
M  V30 11438 O 1090.25 1.71006 -1.32611 0
M  V30 11439 C 1090.84 -1.03938 -3.22463 0
M  V30 11440 C 1089.4 -0.765533 -3.68533 0
M  V30 11441 C 1088.55 -1.21318 -2.49354 0
M  V30 11442 H 1091.5 -1.08386 -1.15923 0
M  V30 11443 H 1091.52 -0.375367 -3.78644 0
M  V30 11444 H 1091.03 -2.11977 -3.25096 0
M  V30 11445 H 1089.13 0.302176 -3.71373 0
M  V30 11446 H 1089.25 -1.36454 -4.59257 0
M  V30 11447 H 1087.61 -0.632141 -2.46731 0
M  V30 11448 H 1088.39 -2.30165 -2.54714 0
M  V30 11449 N 1090.84 1.42931 -0.663954 0
M  V30 11450 C 1092.09 2.01284 -0.181379 0
M  V30 11451 C 1092.41 1.52708 1.21265 0
M  V30 11452 O 1091.68 0.744181 1.81215 0
M  V30 11453 H 1090.26 0.744248 -0.0640646 0
M  V30 11454 H 1092.92 1.74997 -0.858031 0
M  V30 11455 H 1092.01 3.11613 -0.174273 0
M  V30 11456 N 1092.32 0.406567 1.52266 0
M  V30 11457 C 1093.25 -0.411314 2.29849 0
M  V30 11458 C 1094.23 -1.04838 1.33952 0
M  V30 11459 O 1095.41 -1.05788 1.62857 0
M  V30 11460 C 1092.54 -1.52961 3.11802 0
M  V30 11461 C 1091.5 -1.01768 4.15725 0
M  V30 11462 C 1090.82 -2.22938 4.86007 0
M  V30 11463 C 1092.12 -0.073515 5.22248 0
M  V30 11464 H 1093.82 0.236054 2.98468 0
M  V30 11465 H 1091.36 0.114968 1.4354 0
M  V30 11466 H 1093.31 -2.10874 3.64843 0
M  V30 11467 H 1092.04 -2.20482 2.40947 0
M  V30 11468 H 1090.7 -0.46097 3.6369 0
M  V30 11469 H 1090.35 -2.89007 4.11684 0
M  V30 11470 H 1090.05 -1.89338 5.5626 0
M  V30 11471 H 1091.57 -2.81462 5.41859 0
M  V30 11472 H 1092.98 -0.561367 5.70545 0
M  V30 11473 H 1091.38 0.173551 5.99849 0
M  V30 11474 H 1092.45 0.872524 4.76985 0
M  V30 11475 N 1093.79 -1.57004 0.136909 0
M  V30 11476 C 1094.72 -2.19262 -0.802902 0
M  V30 11477 C 1095.71 -1.13786 -1.26439 0
M  V30 11478 O 1096.89 -1.42091 -1.32377 0
M  V30 11479 C 1094.02 -2.80624 -2.04615 0
M  V30 11480 C 1092.97 -3.91839 -1.72181 0
M  V30 11481 C 1092.3 -4.4009 -3.03686 0
M  V30 11482 C 1093.6 -5.13095 -0.976249 0
M  V30 11483 H 1095.29 -2.98049 -0.28406 0
M  V30 11484 H 1092.84 -1.43364 -0.135189 0
M  V30 11485 H 1094.79 -3.22842 -2.70834 0
M  V30 11486 H 1093.52 -1.99153 -2.58855 0
M  V30 11487 H 1092.18 -3.50224 -1.08344 0
M  V30 11488 H 1091.82 -3.55454 -3.55896 0
M  V30 11489 H 1091.52 -5.15098 -2.82751 0
M  V30 11490 H 1093.05 -4.84971 -3.70993 0
M  V30 11491 H 1094.46 -5.5222 -1.54033 0
M  V30 11492 H 1092.86 -5.93801 -0.867214 0
M  V30 11493 H 1093.93 -4.84888 0.0338488 0
M  V30 11494 N 1095.27 0.136881 -1.57004 0
M  V30 11495 C 1096.52 0.847775 -1.83899 0
M  V30 11496 C 1096.85 1.80709 -0.719332 0
M  V30 11497 O 1096.1 1.93527 0.290838 0
M  V30 11498 C 1096.4 1.64711 -3.17183 0
M  V30 11499 C 1096.07 0.833683 -4.43126 0
M  V30 11500 C 1094.73 0.609306 -4.77327 0
M  V30 11501 C 1097.08 0.265504 -5.20523 0
M  V30 11502 C 1094.41 -0.193793 -5.8638 0
M  V30 11503 C 1096.76 -0.524688 -6.3042 0
M  V30 11504 C 1095.43 -0.759548 -6.63164 0
M  V30 11505 H 1094.7 0.310223 -0.672936 0
M  V30 11506 H 1097.34 0.110937 -1.91178 0
M  V30 11507 H 1095.65 2.45435 -3.054 0
M  V30 11508 H 1097.34 2.20081 -3.3521 0
M  V30 11509 H 1093.93 1.01864 -4.16319 0
M  V30 11510 H 1098.12 0.426109 -4.94467 0
M  V30 11511 H 1093.37 -0.385153 -6.10186 0
M  V30 11512 H 1097.55 -0.972033 -6.89583 0
M  V30 11513 H 1095.18 -1.38369 -7.47501 0
M  V30 11514 N 1096.75 1.52266 0.40654 0
M  V30 11515 C 1097.71 1.75168 1.47814 0
M  V30 11516 C 1098.71 0.621575 1.48301 0
M  V30 11517 O 1099.9 0.889476 1.4978 0
M  V30 11518 C 1097.04 1.83642 2.87208 0
M  V30 11519 H 1098.23 2.70834 1.28798 0
M  V30 11520 H 1095.78 1.42722 0.637196 0
M  V30 11521 H 1096.52 0.898994 3.1159 0
M  V30 11522 H 1096.3 2.65801 2.88257 0
M  V30 11523 H 1097.79 2.03093 3.64888 0
M  V30 11524 N 1098.23 -0.663929 1.42933 0
M  V30 11525 C 1099.47 -1.42603 1.44195 0
M  V30 11526 C 1099.81 -1.94101 0.0620284 0
M  V30 11527 O 1099.08 -1.71609 -0.91546 0
M  V30 11528 C 1099.37 -2.61522 2.47544 0
M  V30 11529 C 1099.22 -2.15587 3.94769 0
M  V30 11530 C 1100.54 -3.6374 2.47753 0
M  V30 11531 H 1097.66 -0.517189 0.525056 0
M  V30 11532 H 1100.3 -0.75361 1.74415 0
M  V30 11533 H 1098.45 -3.1889 2.21904 0
M  V30 11534 H 1100.12 -1.63303 4.31428 0
M  V30 11535 H 1098.36 -1.47057 4.08114 0
M  V30 11536 H 1099.03 -3.01053 4.62678 0
M  V30 11537 H 1101.51 -3.16111 2.70579 0
M  V30 11538 H 1100.39 -4.44512 3.22025 0
M  V30 11539 H 1100.65 -4.15607 1.50742 0
M  V30 11540 N 1099.71 -1.29285 -0.901281 0
M  V30 11541 C 1100.65 -1.14159 -2.02659 0
M  V30 11542 C 1101.65 -0.0575887 -1.69302 0
M  V30 11543 O 1102.85 -0.217273 -1.78684 0
M  V30 11544 H 1099.23 -0.352584 -0.66422 0
M  V30 11545 H 1101.2 -2.09434 -2.12555 0
M  V30 11546 C 1099.95 -0.833253 -3.37568 0
M  V30 11547 H 1099.27 -1.65939 -3.63737 0
M  V30 11548 H 1100.71 -0.767436 -4.16997 0
M  V30 11549 C 1099.17 0.46344 -3.33697 0
M  V30 11550 O 1099.7 1.48998 -3.73045 0
M  V30 11551 N 1097.91 0.468709 -2.86795 0
M  V30 11552 H 1097.45 -0.36712 -2.54971 0
M  V30 11553 H 1097.41 1.3363 -2.84588 0
M  V30 11554 N 1101.18 1.11143 -1.11736 0
M  V30 11555 C 1102.43 1.82586 -0.866412 0
M  V30 11556 C 1102.75 1.85227 0.609593 0
M  V30 11557 O 1102.02 1.32505 1.44288 0
M  V30 11558 H 1100.6 0.676149 -0.31754 0
M  V30 11559 H 1103.27 1.34516 -1.41037 0
M  V30 11560 H 1102.36 2.8635 -1.24136 0
M  V30 11561 N 1102.66 0.908147 1.28804 0
M  V30 11562 C 1103.61 0.390734 2.27468 0
M  V30 11563 C 1104.58 -0.531765 1.57358 0
M  V30 11564 O 1105.76 -0.455177 1.85291 0
M  V30 11565 C 1102.9 -0.368159 3.43131 0
M  V30 11566 C 1102.02 0.586202 4.28004 0
M  V30 11567 C 1101.15 -0.190581 5.30858 0
M  V30 11568 C 1100.19 0.757758 6.07391 0
M  V30 11569 N 1099.33 0.0148488 7.02098 0
M  V30 11570 H 1104.17 1.23717 2.71105 0
M  V30 11571 H 1101.71 0.621382 1.33331 0
M  V30 11572 H 1103.66 -0.824289 4.08976 0
M  V30 11573 H 1102.29 -1.17898 3.00499 0
M  V30 11574 H 1101.35 1.16086 3.62254 0
M  V30 11575 H 1102.66 1.31177 4.81242 0
M  V30 11576 H 1101.81 -0.707528 6.0256 0
M  V30 11577 H 1100.55 -0.949234 4.78373 0
M  V30 11578 H 1099.56 1.28613 5.34545 0
M  V30 11579 H 1100.78 1.51588 6.61965 0
M  V30 11580 H 1098.73 -0.725916 6.51971 0
M  V30 11581 H 1098.64 0.680347 7.52932 0
M  V30 11582 H 1099.91 -0.482086 7.78008 0
M  V30 11583 N 1104.14 -1.42577 0.671525 0
M  V30 11584 C 1105.55 -1.84736 0.270084 0
M  V30 11585 C 1105.9 -1.56212 -1.18711 0
M  V30 11586 O 1105.03 -1.02028 -1.90838 0
M  V30 11587 C 1105.62 -3.35334 0.483409 0
M  V30 11588 C 1104.18 -3.76154 0.136119 0
M  V30 11589 C 1103.33 -2.66179 0.777444 0
M  V30 11590 H 1106.28 -1.3247 0.873919 0
M  V30 11591 H 1106.3 -3.79573 -0.265483 0
M  V30 11592 H 1105.81 -3.56063 1.54405 0
M  V30 11593 H 1103.91 -3.61033 -0.921209 0
M  V30 11594 H 1104.03 -4.75645 0.574356 0
M  V30 11595 H 1102.39 -2.53841 0.209055 0
M  V30 11596 H 1103.17 -2.89732 1.84148 0
M  V30 11597 N 1105.62 -0.414636 -1.52048 0
M  V30 11598 C 1106.57 0.42561 -2.23992 0
M  V30 11599 C 1107.55 1.00894 -1.25337 0
M  V30 11600 O 1108.74 0.930842 -1.50547 0
M  V30 11601 C 1105.87 1.53874 -3.06884 0
M  V30 11602 C 1104.96 0.965913 -4.12954 0
M  V30 11603 N 1105.35 0.12023 -5.05657 0
M  V30 11604 C 1103.65 1.23586 -4.28535 0
M  V30 11605 C 1104.35 -0.199063 -5.81359 0
M  V30 11606 N 1103.33 0.411505 -5.4204 0
M  V30 11607 H 1107.13 -0.226746 -2.93024 0
M  V30 11608 H 1104.64 -0.225376 -1.60829 0
M  V30 11609 H 1106.64 2.15334 -3.56983 0
M  V30 11610 H 1105.3 2.19366 -2.39392 0
M  V30 11611 H 1106.31 -0.244501 -5.17323 0
M  V30 11612 H 1102.99 1.88995 -3.72273 0
M  V30 11613 H 1104.38 -0.88585 -6.66035 0
M  V30 11614 N 1107.1 1.56929 -0.145233 0
M  V30 11615 C 1108.34 1.96068 0.50632 0
M  V30 11616 C 1108.67 1.02999 1.64989 0
M  V30 11617 O 1107.93 0.0588581 1.95611 0
M  V30 11618 C 1108.23 3.41467 1.05522 0
M  V30 11619 C 1107.89 4.5089 0.0302827 0
M  V30 11620 C 1106.55 4.80542 -0.251475 0
M  V30 11621 C 1108.91 5.16917 -0.666783 0
M  V30 11622 C 1106.23 5.7353 -1.23614 0
M  V30 11623 C 1108.59 6.10965 -1.64025 0
M  V30 11624 C 1107.25 6.38998 -1.92973 0
M  V30 11625 H 1106.52 0.717464 0.185276 0
M  V30 11626 H 1109.17 1.90093 -0.23169 0
M  V30 11627 H 1107.47 3.44265 1.87053 0
M  V30 11628 H 1109.17 3.69077 1.5679 0
M  V30 11629 H 1105.76 4.2781 0.260069 0
M  V30 11630 H 1109.94 4.94142 -0.462297 0
M  V30 11631 H 1105.2 5.93543 -1.46687 0
M  V30 11632 H 1109.37 6.61204 -2.18591 0
M  V30 11633 H 1107 7.10855 -2.69423 0
M  V30 11634 N 1108.58 -0.128553 1.57075 0
M  V30 11635 C 1109.82 -0.836355 1.83982 0
M  V30 11636 C 1110.14 -1.80862 0.728971 0
M  V30 11637 O 1109.41 -1.94326 -0.247859 0
M  V30 11638 H 1107.99 -0.31185 0.678792 0
M  V30 11639 H 1110.66 -0.118153 1.94542 0
M  V30 11640 H 1109.75 -1.38741 2.79567 0
M  V30 11641 N 1110.05 -1.5248 -0.398459 0
M  V30 11642 C 1111.33 -1.57634 -1.15805 0
M  V30 11643 C 1111.71 -0.363785 -2.07942 0
M  V30 11644 O 1111.06 0.648598 -2.19101 0
M  V30 11645 C 1111.27 -2.91042 -1.92602 0
M  V30 11646 C 1112.62 -3.44433 -2.48296 0
M  V30 11647 O 1113.64 -2.92853 -2.0277 0
M  V30 11648 O 1112.5 -4.34529 -3.31432 0
M  V30 11649 H 1109.59 -0.63539 -0.529347 0
M  V30 11650 H 1112.14 -1.64812 -0.404376 0
M  V30 11651 H 1110.91 -3.7074 -1.25169 0
M  V30 11652 H 1110.53 -2.87206 -2.74952 0
M  V30 11653 N 1111.53 0.65634 -1.43283 0
M  V30 11654 C 1112.46 1.78184 -1.44164 0
M  V30 11655 C 1113.48 1.59249 -0.338177 0
M  V30 11656 O 1114.67 1.68027 -0.60242 0
M  V30 11657 C 1111.77 3.15566 -1.23577 0
M  V30 11658 C 1110.94 3.61187 -2.46704 0
M  V30 11659 C 1110 4.77361 -2.21388 0
M  V30 11660 O 1109.02 4.8696 -2.94718 0
M  V30 11661 N 1110.23 5.67351 -1.22855 0
M  V30 11662 H 1112.99 1.77907 -2.41183 0
M  V30 11663 H 1110.55 0.840076 -1.38399 0
M  V30 11664 H 1112.54 3.90968 -1.04529 0
M  V30 11665 H 1111.11 3.10633 -0.350155 0
M  V30 11666 H 1110.33 2.76263 -2.81198 0
M  V30 11667 H 1111.62 3.88413 -3.28652 0
M  V30 11668 H 1111.02 5.62265 -0.622417 0
M  V30 11669 H 1109.58 6.42487 -1.09791 0
M  V30 11670 N 1113.01 1.29761 0.894412 0
M  V30 11671 C 1113.92 1.1724 2.03204 0
M  V30 11672 C 1114.94 0.0944452 1.73743 0
M  V30 11673 O 1116.11 0.307549 1.99038 0
M  V30 11674 C 1113.18 0.855416 3.35981 0
M  V30 11675 C 1112.24 2.01777 3.78926 0
M  V30 11676 C 1111.47 1.71581 5.05367 0
M  V30 11677 O 1111.69 0.639245 5.66807 0
M  V30 11678 O 1110.63 2.56539 5.44492 0
M  V30 11679 H 1114.45 2.12787 2.16692 0
M  V30 11680 H 1112.04 1.09264 1.0189 0
M  V30 11681 H 1113.92 0.693429 4.15656 0
M  V30 11682 H 1112.6 -0.0702195 3.23624 0
M  V30 11683 H 1111.5 2.23502 2.99996 0
M  V30 11684 H 1112.84 2.92479 3.95875 0
M  V30 11685 N 1114.49 -1.10549 1.12324 0
M  V30 11686 C 1115.9 -1.63991 0.892402 0
M  V30 11687 C 1116.25 -1.87631 -0.573506 0
M  V30 11688 O 1115.37 -1.6174 -1.43768 0
M  V30 11689 C 1115.97 -2.97914 1.61347 0
M  V30 11690 C 1114.53 -3.48227 1.42881 0
M  V30 11691 C 1113.68 -2.22857 1.65015 0
M  V30 11692 H 1116.63 -0.94065 1.27818 0
M  V30 11693 H 1116.65 -3.65326 1.06382 0
M  V30 11694 H 1116.16 -2.80677 2.68034 0
M  V30 11695 H 1114.26 -3.70611 0.384441 0
M  V30 11696 H 1114.37 -4.26419 2.18413 0
M  V30 11697 H 1112.74 -2.30941 1.07417 0
M  V30 11698 H 1113.52 -2.08152 2.72997 0
M  V30 11699 N 1115.97 -0.914965 -1.28321 0
M  V30 11700 C 1117.21 -0.549562 -1.95212 0
M  V30 11701 C 1117.54 0.904658 -1.71842 0
M  V30 11702 O 1116.82 1.64354 -1.04009 0
M  V30 11703 C 1117.1 -0.860927 -3.49657 0
M  V30 11704 C 1116.96 -2.36797 -3.82423 0
M  V30 11705 C 1118.27 -0.357926 -4.38642 0
M  V30 11706 H 1115.39 -0.201136 -0.709023 0
M  V30 11707 H 1118.04 -1.14443 -1.51667 0
M  V30 11708 H 1116.19 -0.354665 -3.86878 0
M  V30 11709 H 1117.86 -2.94494 -3.55065 0
M  V30 11710 H 1116.1 -2.82245 -3.29424 0
M  V30 11711 H 1116.77 -2.53637 -4.90278 0
M  V30 11712 H 1119.25 -0.791636 -4.085 0
M  V30 11713 H 1118.12 -0.604855 -5.45557 0
M  V30 11714 H 1118.38 0.741775 -4.35833 0
M  V30 11715 N 1117.44 1.42219 -0.679077 0
M  V30 11716 C 1118.38 2.29172 0.035583 0
M  V30 11717 C 1119.39 1.43909 0.761183 0
M  V30 11718 O 1120.58 1.67584 0.61463 0
M  V30 11719 C 1117.68 3.21426 1.07419 0
M  V30 11720 C 1116.85 4.35364 0.421547 0
M  V30 11721 C 1115.91 5.08307 1.36051 0
M  V30 11722 O 1114.94 5.62678 0.859186 0
M  V30 11723 N 1116.14 5.14222 2.69362 0
M  V30 11724 H 1118.9 2.91147 -0.710865 0
M  V30 11725 H 1116.46 1.53192 -0.523821 0
M  V30 11726 H 1118.46 3.67091 1.70371 0
M  V30 11727 H 1117.03 2.60873 1.72233 0
M  V30 11728 H 1116.25 3.9229 -0.387559 0
M  V30 11729 H 1117.53 5.08789 -0.0329421 0
M  V30 11730 H 1116.93 4.71467 3.12627 0
M  V30 11731 H 1115.49 5.63519 3.27551 0
M  V30 11732 N 1118.92 0.422693 1.51826 0
M  V30 11733 C 1120.17 -0.148348 2.01555 0
M  V30 11734 C 1120.49 -1.44483 1.30956 0
M  V30 11735 O 1119.76 -1.90904 0.439599 0
M  V30 11736 H 1118.34 -0.0578116 0.74476 0
M  V30 11737 H 1121 0.562046 1.8662 0
M  V30 11738 H 1120.1 -0.334766 3.10299 0
M  V30 11739 N 1120.4 -1.5685 0.153553 0
M  V30 11740 C 1121.65 -1.96334 -0.495915 0
M  V30 11741 C 1121.97 -1.03873 -1.64441 0
M  V30 11742 O 1121.23 -0.069231 -1.95578 0
M  V30 11743 C 1121.53 -3.42022 -1.0371 0
M  V30 11744 C 1121.19 -4.509 -0.00637049 0
M  V30 11745 C 1119.86 -4.80402 0.276956 0
M  V30 11746 C 1122.21 -5.16556 0.694187 0
M  V30 11747 C 1119.54 -5.72866 1.26653 0
M  V30 11748 C 1121.89 -6.10087 1.67263 0
M  V30 11749 C 1120.55 -6.37965 1.96359 0
M  V30 11750 H 1119.82 -0.718436 -0.181468 0
M  V30 11751 H 1122.47 -1.89968 0.241768 0
M  V30 11752 H 1120.77 -3.45252 -1.85225 0
M  V30 11753 H 1122.47 -3.69903 -1.54831 0
M  V30 11754 H 1119.06 -4.27942 -0.237378 0
M  V30 11755 H 1123.25 -4.9389 0.488496 0
M  V30 11756 H 1118.5 -5.92756 1.49833 0
M  V30 11757 H 1122.68 -6.60036 2.22094 0
M  V30 11758 H 1120.3 -7.09416 2.73189 0
M  V30 11759 N 1121.88 0.120221 -1.57141 0
M  V30 11760 C 1123.12 0.829449 -1.85062 0
M  V30 11761 C 1123.46 1.79585 -0.739116 0
M  V30 11762 O 1122.73 1.92819 0.255147 0
M  V30 11763 C 1123.01 1.58042 -3.23566 0
M  V30 11764 C 1122.87 0.633706 -4.45314 0
M  V30 11765 C 1124.19 2.53688 -3.59625 0
M  V30 11766 H 1121.31 0.300086 -0.67314 0
M  V30 11767 H 1123.95 0.0937393 -1.89769 0
M  V30 11768 H 1122.1 2.20758 -3.19684 0
M  V30 11769 H 1123.77 0.0154836 -4.61297 0
M  V30 11770 H 1122.01 -0.054846 -4.33765 0
M  V30 11771 H 1122.68 1.19577 -5.38893 0
M  V30 11772 H 1125.16 2.01078 -3.6429 0
M  V30 11773 H 1124.04 3.03265 -4.57516 0
M  V30 11774 H 1124.3 3.36296 -2.8698 0
M  V30 11775 N 1123.36 1.52689 0.390367 0
M  V30 11776 C 1124.29 1.72118 1.49836 0
M  V30 11777 C 1125.27 0.568986 1.5232 0
M  V30 11778 O 1126.45 0.798623 1.70746 0
M  V30 11779 C 1123.58 1.77754 2.88307 0
M  V30 11780 C 1122.62 2.99492 3.03655 0
M  V30 11781 S 1123.46 4.59496 2.74998 0
M  V30 11782 C 1124.61 4.67946 4.15665 0
M  V30 11783 H 1124.85 2.65826 1.3313 0
M  V30 11784 H 1122.38 1.42964 0.583153 0
M  V30 11785 H 1124.34 1.81687 3.68103 0
M  V30 11786 H 1123 0.851406 3.02341 0
M  V30 11787 H 1122.19 2.99973 4.05009 0
M  V30 11788 H 1121.79 2.93544 2.3175 0
M  V30 11789 H 1124.09 4.46476 5.09573 0
M  V30 11790 H 1125.03 5.69945 4.202 0
M  V30 11791 H 1125.44 3.96799 4.01511 0
M  V30 11792 N 1124.83 -0.648732 1.43629 0
M  V30 11793 C 1125.78 -1.78269 1.49409 0
M  V30 11794 C 1126.78 -1.6537 0.367288 0
M  V30 11795 O 1127.98 -1.71663 0.541476 0
M  V30 11796 H 1124.36 -0.58824 0.468484 0
M  V30 11797 H 1126.33 -1.70514 2.44883 0
M  V30 11798 C 1125.08 -3.16545 1.43856 0
M  V30 11799 H 1124.4 -3.2711 2.29868 0
M  V30 11800 H 1125.84 -3.95833 1.51961 0
M  V30 11801 C 1124.3 -3.36535 0.156779 0
M  V30 11802 O 1124.83 -3.94052 -0.780124 0
M  V30 11803 N 1123.04 -2.90526 0.0655319 0
M  V30 11804 H 1122.58 -2.43904 0.828768 0
M  V30 11805 H 1122.54 -3.04277 -0.791379 0
M  V30 11806 N 1126.31 -1.30234 -0.887518 0
M  V30 11807 C 1127.56 -1.1891 -1.6391 0
M  V30 11808 C 1127.89 0.256749 -1.92798 0
M  V30 11809 O 1127.14 1.20047 -1.54555 0
M  V30 11810 C 1127.44 -1.96046 -2.98832 0
M  V30 11811 C 1127.11 -3.45683 -2.89507 0
M  V30 11812 C 1125.77 -3.86489 -2.8667 0
M  V30 11813 C 1128.12 -4.40983 -2.7782 0
M  V30 11814 C 1125.45 -5.2089 -2.69982 0
M  V30 11815 C 1127.8 -5.75489 -2.6267 0
M  V30 11816 C 1126.47 -6.15537 -2.58207 0
M  V30 11817 H 1125.74 -0.435123 -0.599791 0
M  V30 11818 H 1128.38 -1.61308 -1.03209 0
M  V30 11819 H 1126.69 -1.46275 -3.6347 0
M  V30 11820 H 1128.38 -1.84678 -3.55942 0
M  V30 11821 H 1124.97 -3.13255 -2.92523 0
M  V30 11822 H 1129.16 -4.10401 -2.79079 0
M  V30 11823 H 1124.41 -5.51014 -2.6494 0
M  V30 11824 H 1128.59 -6.48973 -2.526 0
M  V30 11825 H 1126.22 -7.19627 -2.45034 0
M  V30 11826 N 1127.79 1.09952 -1.12909 0
M  V30 11827 C 1129.02 1.8633 -0.910821 0
M  V30 11828 C 1129.44 1.80335 0.534874 0
M  V30 11829 O 1128.8 1.1769 1.37908 0
M  V30 11830 C 1128.85 3.32462 -1.39648 0
M  V30 11831 O 1127.95 4.08327 -0.578192 0
M  V30 11832 H 1127.29 0.577984 -0.32685 0
M  V30 11833 H 1129.82 1.38883 -1.50242 0
M  V30 11834 H 1129.83 3.83311 -1.39774 0
M  V30 11835 H 1128.51 3.36141 -2.44913 0
M  V30 11836 H 1127.08 3.67291 -0.644347 0
M  V30 11837 N 1129.27 0.921757 1.27833 0
M  V30 11838 C 1130.22 0.406628 2.29018 0
M  V30 11839 C 1131.21 -0.505914 1.61669 0
M  V30 11840 O 1132.42 -0.386273 1.75807 0
M  V30 11841 H 1128.79 0.112914 0.743475 0
M  V30 11842 H 1130.76 1.27295 2.69886 0
M  V30 11843 C 1129.51 -0.330783 3.46123 0
M  V30 11844 H 1128.83 0.362207 3.98156 0
M  V30 11845 H 1130.27 -0.655738 4.18899 0
M  V30 11846 C 1128.73 -1.54161 2.9956 0
M  V30 11847 O 1129.26 -2.64052 3.0272 0
M  V30 11848 N 1127.47 -1.39137 2.55126 0
M  V30 11849 H 1127.02 -0.497319 2.52754 0
M  V30 11850 H 1126.97 -2.20278 2.24333 0
M  V30 11851 N 1130.75 -1.41857 0.686609 0
M  V30 11852 C 1131.99 -2.0097 0.213378 0
M  V30 11853 C 1132.32 -1.54618 -1.1882 0
M  V30 11854 O 1131.59 -0.772916 -1.80008 0
M  V30 11855 H 1130.17 -0.743134 0.0758968 0
M  V30 11856 H 1132.83 -1.73609 0.885763 0
M  V30 11857 H 1131.92 -3.11296 0.223826 0
M  V30 11858 N 1132.22 -0.430739 -1.51599 0
M  V30 11859 C 1133.13 0.390347 -2.3133 0
M  V30 11860 C 1134.15 1.03376 -1.39962 0
M  V30 11861 O 1135.33 1.03057 -1.73035 0
M  V30 11862 C 1132.39 1.48039 -3.13505 0
M  V30 11863 C 1131.45 0.857792 -4.20643 0
M  V30 11864 C 1130.69 1.89589 -4.9889 0
M  V30 11865 O 1130.91 3.11717 -4.77691 0
M  V30 11866 O 1129.84 1.49009 -5.83164 0
M  V30 11867 H 1133.67 -0.260358 -3.02582 0
M  V30 11868 H 1131.25 -0.193428 -1.48143 0
M  V30 11869 H 1133.14 2.11272 -3.64612 0
M  V30 11870 H 1131.81 2.1153 -2.45024 0
M  V30 11871 H 1130.72 0.187592 -3.73629 0
M  V30 11872 H 1132.05 0.266474 -4.91478 0
M  V30 11873 N 1133.7 1.56767 -0.161869 0
M  V30 11874 C 1134.95 1.95769 0.485536 0
M  V30 11875 C 1135.26 1.05006 1.65025 0
M  V30 11876 O 1136.47 1.33649 2.36326 0
M  V30 11877 C 1134.93 3.4807 0.915176 0
M  V30 11878 C 1134.53 4.47443 -0.223416 0
M  V30 11879 C 1136.28 3.95909 1.53153 0
M  V30 11880 C 1134.19 5.90971 0.225325 0
M  V30 11881 H 1133.12 0.730911 0.185161 0
M  V30 11882 H 1135.77 1.81808 -0.248592 0
M  V30 11883 H 1134.15 3.57415 1.705 0
M  V30 11884 H 1135.32 4.49805 -1.00061 0
M  V30 11885 H 1133.64 4.09606 -0.749127 0
M  V30 11886 H 1136.23 5.00592 1.87915 0
M  V30 11887 H 1136.58 3.38307 2.42599 0
M  V30 11888 H 1137.11 3.89542 0.806322 0
M  V30 11889 H 1133.85 6.52426 -0.634124 0
M  V30 11890 H 1133.37 5.91936 0.96808 0
M  V30 11891 H 1135.05 6.43497 0.672373 0
M  V30 11892 N 1135.18 -0.111886 1.57202 0
M  V30 11893 C 1136.43 -0.817022 1.84412 0
M  V30 11894 C 1136.74 -1.80708 0.748608 0
M  V30 11895 O 1137.95 -2.55891 0.907319 0
M  V30 11896 C 1136.4 -1.50376 3.26979 0
M  V30 11897 C 1136.01 -0.554334 4.44557 0
M  V30 11898 C 1137.76 -2.19361 3.63429 0
M  V30 11899 C 1135.66 -1.24471 5.78153 0
M  V30 11900 H 1134.59 -0.308864 0.687836 0
M  V30 11901 H 1137.24 -0.0698109 1.83367 0
M  V30 11902 H 1135.63 -2.29785 3.22514 0
M  V30 11903 H 1136.8 0.207045 4.60335 0
M  V30 11904 H 1135.12 0.0289261 4.1639 0
M  V30 11905 H 1137.71 -2.71716 4.60515 0
M  V30 11906 H 1138.06 -2.97488 2.91215 0
M  V30 11907 H 1138.59 -1.46833 3.69709 0
M  V30 11908 H 1135.33 -0.504584 6.53555 0
M  V30 11909 H 1134.85 -1.97792 5.66249 0
M  V30 11910 H 1136.53 -1.77591 6.2215 0
M  V30 11911 N 1136.66 -1.52894 -0.382264 0
M  V30 11912 C 1137.94 -1.58853 -1.14127 0
M  V30 11913 C 1138.32 -0.38582 -2.07544 0
M  V30 11914 O 1137.66 0.625323 -2.19777 0
M  V30 11915 C 1137.87 -2.93068 -1.89504 0
M  V30 11916 C 1139.22 -3.47048 -2.44629 0
M  V30 11917 O 1140.25 -2.94987 -1.99652 0
M  V30 11918 O 1139.1 -4.3802 -3.26804 0
M  V30 11919 H 1136.2 -0.640969 -0.522578 0
M  V30 11920 H 1138.74 -1.65231 -0.386873 0
M  V30 11921 H 1137.52 -3.72047 -1.2123 0
M  V30 11922 H 1137.14 -2.90106 -2.7189 0
M  V30 11923 N 1138.14 0.641106 -1.43971 0
M  V30 11924 C 1139.39 1.39676 -1.45511 0
M  V30 11925 C 1139.7 1.95403 -0.0877084 0
M  V30 11926 O 1140.91 2.71493 0.0193965 0
M  V30 11927 C 1139.36 2.52839 -2.56126 0
M  V30 11928 C 1138.97 2.03668 -3.99028 0
M  V30 11929 C 1140.71 3.30118 -2.66875 0
M  V30 11930 C 1138.62 3.14114 -5.01085 0
M  V30 11931 H 1137.55 0.524854 -0.541336 0
M  V30 11932 H 1140.2 0.69075 -1.70003 0
M  V30 11933 H 1138.58 3.25968 -2.24857 0
M  V30 11934 H 1139.76 1.3747 -4.39817 0
M  V30 11935 H 1138.07 1.39233 -3.92432 0
M  V30 11936 H 1140.67 4.12434 -3.40297 0
M  V30 11937 H 1141.01 3.78946 -1.72353 0
M  V30 11938 H 1141.55 2.64075 -2.97505 0
M  V30 11939 H 1138.28 2.70241 -5.97202 0
M  V30 11940 H 1137.8 3.78985 -4.64898 0
M  V30 11941 H 1139.48 3.79051 -5.24337 0
M  V30 11942 N 1139.62 1.30703 0.880598 0
M  V30 11943 C 1140.86 1.19778 1.63277 0
M  V30 11944 C 1141.19 -0.246521 1.92931 0
M  V30 11945 O 1140.45 -1.19226 1.55189 0
M  V30 11946 C 1140.74 1.97628 2.97789 0
M  V30 11947 C 1140.41 3.47213 2.87669 0
M  V30 11948 C 1139.07 3.88004 2.84617 0
M  V30 11949 C 1141.42 4.4245 2.75477 0
M  V30 11950 C 1138.75 5.22315 2.67216 0
M  V30 11951 C 1141.1 5.76874 2.59614 0
M  V30 11952 C 1139.77 6.16898 2.54939 0
M  V30 11953 H 1139.04 0.438298 0.597475 0
M  V30 11954 H 1141.69 1.61853 1.02352 0
M  V30 11955 H 1139.99 1.48201 3.6269 0
M  V30 11956 H 1141.69 1.86563 3.54958 0
M  V30 11957 H 1138.28 3.14802 2.90857 0
M  V30 11958 H 1142.46 4.11875 2.76899 0
M  V30 11959 H 1137.72 5.52412 2.62014 0
M  V30 11960 H 1141.89 6.50304 2.49155 0
M  V30 11961 H 1139.52 7.20916 2.41214 0
M  V30 11962 N 1141.09 -1.09351 1.1349 0
M  V30 11963 C 1142.04 -2.16008 0.812981 0
M  V30 11964 C 1143.01 -1.64566 -0.225252 0
M  V30 11965 O 1144.2 -1.90552 -0.0973261 0
M  V30 11966 C 1141.34 -3.43913 0.285996 0
M  V30 11967 C 1140.45 -4.09251 1.38338 0
M  V30 11968 C 1139.58 -5.24916 0.814652 0
M  V30 11969 C 1138.62 -5.82178 1.89038 0
M  V30 11970 N 1137.76 -6.89203 1.33955 0
M  V30 11971 H 1142.6 -2.42887 1.72655 0
M  V30 11972 H 1140.14 -1.19209 0.861833 0
M  V30 11973 H 1142.09 -4.17183 -0.0376794 0
M  V30 11974 H 1140.72 -3.17349 -0.590707 0
M  V30 11975 H 1139.78 -3.33838 1.82363 0
M  V30 11976 H 1141.09 -4.4784 2.19638 0
M  V30 11977 H 1140.24 -6.05086 0.442306 0
M  V30 11978 H 1138.98 -4.87691 -0.029416 0
M  V30 11979 H 1137.99 -5.00669 2.27179 0
M  V30 11980 H 1139.21 -6.21464 2.73787 0
M  V30 11981 H 1137.16 -6.53956 0.517494 0
M  V30 11982 H 1137.07 -7.26565 2.08902 0
M  V30 11983 H 1138.34 -7.73126 0.994793 0
M  V30 11984 N 1142.57 -0.928524 -1.27343 0
M  V30 11985 C 1143.98 -0.613856 -1.7632 0
M  V30 11986 C 1144.33 0.870983 -1.75808 0
M  V30 11987 O 1143.46 1.68155 -1.36209 0
M  V30 11988 C 1144.05 -1.10755 -3.20186 0
M  V30 11989 C 1142.61 -0.843532 -3.66826 0
M  V30 11990 C 1141.76 -1.26579 -2.46724 0
M  V30 11991 H 1144.71 -1.10821 -1.13598 0
M  V30 11992 H 1144.73 -0.455598 -3.77763 0
M  V30 11993 H 1144.24 -2.18825 -3.20526 0
M  V30 11994 H 1142.34 0.223334 -3.7193 0
M  V30 11995 H 1142.46 -1.46165 -4.56259 0
M  V30 11996 H 1140.82 -0.684334 -2.45334 0
M  V30 11997 H 1141.6 -2.35516 -2.49774 0
M  V30 11998 N 1144.05 1.41491 -0.694123 0
M  V30 11999 C 1145.3 2.0155 -0.224809 0
M  V30 12000 C 1145.63 1.54844 1.17205 0
M  V30 12001 O 1144.9 0.75899 1.7908 0
M  V30 12002 C 1145.19 3.59003 -0.280884 0
M  V30 12003 C 1145.04 4.15839 -1.71458 0
M  V30 12004 C 1146.36 4.38624 0.360122 0
M  V30 12005 H 1143.48 0.732293 -0.0831632 0
M  V30 12006 H 1146.12 1.68258 -0.882569 0
M  V30 12007 H 1144.27 3.87496 0.279164 0
M  V30 12008 H 1145.94 3.98227 -2.32837 0
M  V30 12009 H 1144.18 3.70936 -2.2492 0
M  V30 12010 H 1144.86 5.24997 -1.70536 0
M  V30 12011 H 1147.33 4.15936 -0.11683 0
M  V30 12012 H 1146.21 5.48132 0.290337 0
M  V30 12013 H 1146.47 4.1797 1.44062 0
M  V30 12014 N 1145.53 0.438773 1.51369 0
M  V30 12015 C 1146.94 0.0911416 1.5934 0
M  V30 12016 C 1147.14 -1.39962 1.44958 0
M  V30 12017 O 1146.2 -2.16968 1.29155 0
M  V30 12018 C 1147.51 0.612531 2.94395 0
M  V30 12019 C 1149.06 0.573098 3.07709 0
M  V30 12020 C 1149.54 1.07149 4.4529 0
M  V30 12021 N 1151.03 1.02953 4.51614 0
M  V30 12022 C 1151.76 1.38602 5.56397 0
M  V30 12023 N 1151.26 1.81543 6.68591 0
M  V30 12024 N 1153.05 1.30409 5.46763 0
M  V30 12025 H 1145.2 1.40872 1.58962 0
M  V30 12026 H 1147.46 0.580589 0.749414 0
M  V30 12027 H 1147.17 1.65562 3.10294 0
M  V30 12028 H 1147.04 0.0382375 3.77181 0
M  V30 12029 H 1149.43 -0.461006 2.91477 0
M  V30 12030 H 1149.51 1.18381 2.26759 0
M  V30 12031 H 1149.16 2.10406 4.62268 0
M  V30 12032 H 1149.09 0.437297 5.24781 0
M  V30 12033 H 1151.58 0.714208 3.7109 0
M  V30 12034 H 1151.89 2.06977 7.44567 0
M  V30 12035 H 1150.24 1.8547 6.69795 0
M  V30 12036 H 1153.43 0.967272 4.57997 0
M  V30 12037 H 1153.6 1.5852 6.28312 0
M  V30 12038 N 1147.01 -1.56678 0.170181 0
M  V30 12039 C 1147.95 -2.17909 -0.760556 0
M  V30 12040 C 1148.92 -1.11875 -1.22773 0
M  V30 12041 O 1150.11 -1.40021 -1.2961 0
M  V30 12042 C 1147.25 -2.82305 -1.9849 0
M  V30 12043 C 1146.36 -4.02796 -1.5614 0
M  V30 12044 C 1145.5 -4.55121 -2.73932 0
M  V30 12045 C 1144.53 -5.68025 -2.28067 0
M  V30 12046 N 1143.67 -6.14865 -3.38947 0
M  V30 12047 H 1148.51 -2.97098 -0.231629 0
M  V30 12048 H 1146.05 -1.46742 -0.102602 0
M  V30 12049 H 1148.01 -3.17797 -2.70298 0
M  V30 12050 H 1146.64 -2.05721 -2.48755 0
M  V30 12051 H 1145.69 -3.73131 -0.740097 0
M  V30 12052 H 1147 -4.84526 -1.18472 0
M  V30 12053 H 1146.15 -4.92789 -3.53898 0
M  V30 12054 H 1144.89 -3.72445 -3.14858 0
M  V30 12055 H 1143.9 -5.2991 -1.46546 0
M  V30 12056 H 1145.12 -6.52501 -1.88199 0
M  V30 12057 H 1143.07 -5.35119 -3.79452 0
M  V30 12058 H 1142.99 -6.91582 -3.05369 0
M  V30 12059 H 1144.25 -6.57183 -4.19203 0
M  V30 12060 N 1148.48 0.103547 -1.57259 0
M  V30 12061 C 1149.43 1.13239 -1.97891 0
M  V30 12062 C 1150.42 1.36234 -0.856105 0
M  V30 12063 O 1151.61 1.37067 -1.11989 0
M  V30 12064 C 1148.74 2.4549 -2.39979 0
M  V30 12065 C 1147.82 2.25905 -3.58926 0
M  V30 12066 N 1148.22 1.76167 -4.7413 0
M  V30 12067 C 1146.51 2.56503 -3.64859 0
M  V30 12068 C 1147.21 1.70653 -5.56105 0
M  V30 12069 N 1146.19 2.15562 -4.99033 0
M  V30 12070 H 1149.99 0.740638 -2.84415 0
M  V30 12071 H 1147.51 0.311091 -1.59393 0
M  V30 12072 H 1149.5 3.19922 -2.67312 0
M  V30 12073 H 1148.16 2.8541 -1.54827 0
M  V30 12074 H 1149.17 1.45487 -4.97045 0
M  V30 12075 H 1145.85 3.00005 -2.9035 0
M  V30 12076 H 1147.24 1.33321 -6.5854 0
M  V30 12077 N 1149.96 1.53094 0.37415 0
M  V30 12078 C 1151.21 1.68861 1.11769 0
M  V30 12079 C 1151.54 0.436032 1.89549 0
M  V30 12080 O 1150.79 -0.581879 1.86849 0
M  V30 12081 C 1151.09 2.88432 2.11049 0
M  V30 12082 C 1150.76 4.25284 1.49814 0
M  V30 12083 C 1149.42 4.62501 1.32841 0
M  V30 12084 C 1151.77 5.10425 1.05433 0
M  V30 12085 C 1149.1 5.82502 0.700567 0
M  V30 12086 C 1151.45 6.31064 0.440525 0
M  V30 12087 C 1150.11 6.67 0.258216 0
M  V30 12088 H 1149.38 0.617906 0.40899 0
M  V30 12089 H 1152.03 1.87265 0.4005 0
M  V30 12090 H 1150.34 2.64505 2.8904 0
M  V30 12091 H 1152.03 2.97825 2.68517 0
M  V30 12092 H 1148.62 3.95976 1.64016 0
M  V30 12093 H 1152.81 4.82229 1.17342 0
M  V30 12094 H 1148.06 6.08942 0.547652 0
M  V30 12095 H 1152.24 6.96344 0.0883962 0
M  V30 12096 H 1149.86 7.59851 -0.230354 0
M  V30 12097 N 1151.44 -0.633461 1.44309 0
M  V30 12098 C 1152.72 -1.3917 1.37444 0
M  V30 12099 C 1153.1 -2.11076 0.0319994 0
M  V30 12100 O 1152.44 -2.06164 -0.98533 0
M  V30 12101 C 1152.65 -2.36005 2.57104 0
M  V30 12102 C 1154 -2.99407 3.01065 0
M  V30 12103 O 1155.03 -2.46331 2.57292 0
M  V30 12104 O 1153.89 -3.95686 3.76954 0
M  V30 12105 H 1150.98 -0.622746 0.544166 0
M  V30 12106 H 1153.53 -0.658712 1.56394 0
M  V30 12107 H 1152.3 -1.81955 3.46422 0
M  V30 12108 H 1151.92 -3.16725 2.40356 0
M  V30 12109 N 1152.92 -1.31168 -0.873655 0
M  V30 12110 C 1153.85 -1.12836 -1.98351 0
M  V30 12111 C 1154.83 -0.0328679 -1.62567 0
M  V30 12112 O 1156.01 -0.18859 -1.87554 0
M  V30 12113 C 1153.14 -0.72332 -3.30886 0
M  V30 12114 C 1152.19 -1.82132 -3.85656 0
M  V30 12115 S 1153.02 -3.42604 -4.11562 0
M  V30 12116 C 1154.18 -3.04028 -5.471 0
M  V30 12117 H 1154.41 -2.06793 -2.13597 0
M  V30 12118 H 1151.94 -1.15611 -1.0234 0
M  V30 12119 H 1153.9 -0.496371 -4.07488 0
M  V30 12120 H 1152.56 0.197077 -3.13481 0
M  V30 12121 H 1151.75 -1.49046 -4.81458 0
M  V30 12122 H 1151.36 -2.00314 -3.15833 0
M  V30 12123 H 1153.65 -2.52692 -6.28612 0
M  V30 12124 H 1154.59 -3.9878 -5.85133 0
M  V30 12125 H 1155 -2.41574 -5.10198 0
M  V30 12126 N 1154.4 1.08748 -1.14068 0
M  V30 12127 C 1155.81 1.62551 -0.918379 0
M  V30 12128 C 1156.16 1.8852 0.543583 0
M  V30 12129 O 1155.28 1.64007 1.41176 0
M  V30 12130 C 1155.88 2.95309 -1.66066 0
M  V30 12131 C 1154.44 3.4591 -1.48403 0
M  V30 12132 C 1153.58 2.20204 -1.6854 0
M  V30 12133 H 1156.54 0.920196 -1.29298 0
M  V30 12134 H 1156.56 3.63587 -1.12181 0
M  V30 12135 H 1156.07 2.76377 -2.72465 0
M  V30 12136 H 1154.17 3.69953 -0.443353 0
M  V30 12137 H 1154.28 4.2289 -2.25169 0
M  V30 12138 H 1152.65 2.29203 -1.11077 0
M  V30 12139 H 1153.43 2.03783 -2.76274 0
M  V30 12140 N 1155.87 0.935264 1.26849 0
M  V30 12141 C 1156.82 0.411166 2.24262 0
M  V30 12142 C 1157.81 -0.488804 1.53296 0
M  V30 12143 O 1159 -0.325015 1.7399 0
M  V30 12144 C 1156.13 -0.327941 3.4173 0
M  V30 12145 C 1155.22 0.58898 4.1999 0
M  V30 12146 N 1155.61 1.71216 4.7594 0
M  V30 12147 C 1153.9 0.393431 4.44261 0
M  V30 12148 C 1154.61 2.28306 5.35024 0
M  V30 12149 N 1153.58 1.57176 5.20381 0
M  V30 12150 H 1157.38 1.26864 2.65109 0
M  V30 12151 H 1154.9 0.790429 1.41866 0
M  V30 12152 H 1156.89 -0.720404 4.10629 0
M  V30 12153 H 1155.55 -1.18225 3.02412 0
M  V30 12154 H 1156.57 2.09441 4.73661 0
M  V30 12155 H 1153.24 -0.419596 4.15386 0
M  V30 12156 H 1154.63 3.22909 5.89219 0
M  V30 12157 N 1157.35 -1.41121 0.701616 0
M  V30 12158 C 1158.63 -1.9492 0.162911 0
M  V30 12159 C 1159.01 -1.64064 -1.32839 0
M  V30 12160 O 1158.36 -0.950848 -2.07777 0
M  V30 12161 C 1158.57 -3.45946 0.460673 0
M  V30 12162 C 1159.92 -4.22789 0.391706 0
M  V30 12163 O 1160.94 -3.53993 0.395931 0
M  V30 12164 O 1159.8 -5.45332 0.357071 0
M  V30 12165 H 1156.89 -0.826793 0.0185103 0
M  V30 12166 H 1159.44 -1.50805 0.778192 0
M  V30 12167 H 1158.21 -3.61711 1.49269 0
M  V30 12168 H 1157.83 -3.97168 -0.185277 0
M  V30 12169 N 1158.83 -0.446794 -1.51134 0
M  V30 12170 C 1160.08 0.118047 -2.01354 0
M  V30 12171 C 1160.39 1.42953 -1.33505 0
M  V30 12172 O 1161.6 2.07788 -1.74747 0
M  V30 12173 C 1160.05 0.260912 -3.58953 0
M  V30 12174 C 1159.66 -1.0407 -4.35745 0
M  V30 12175 C 1161.41 0.779014 -4.17291 0
M  V30 12176 C 1159.31 -0.862958 -5.8507 0
M  V30 12177 H 1158.24 0.0478915 -0.752478 0
M  V30 12178 H 1160.89 -0.577997 -1.74159 0
M  V30 12179 H 1159.28 1.02018 -3.82633 0
M  V30 12180 H 1160.45 -1.80903 -4.23805 0
M  V30 12181 H 1158.77 -1.48805 -3.88904 0
M  V30 12182 H 1161.36 0.928636 -5.26574 0
M  V30 12183 H 1161.71 1.76399 -3.7708 0
M  V30 12184 H 1162.24 0.0778022 -3.97724 0
M  V30 12185 H 1158.98 -1.82059 -6.2971 0
M  V30 12186 H 1158.5 -0.134588 -5.99649 0
M  V30 12187 H 1160.18 -0.51989 -6.44908 0
M  V30 12188 N 1160.31 1.56586 -0.178487 0
M  V30 12189 C 1161.55 1.9739 0.465306 0
M  V30 12190 C 1161.89 1.06474 1.6241 0
M  V30 12191 O 1161.16 0.113316 1.9417 0
M  V30 12192 C 1161.45 3.47577 0.941408 0
M  V30 12193 C 1161.3 4.49271 -0.218054 0
M  V30 12194 C 1162.62 4.01038 1.81263 0
M  V30 12195 H 1159.74 0.717676 0.167663 0
M  V30 12196 H 1162.38 1.88128 -0.266067 0
M  V30 12197 H 1160.53 3.556 1.56463 0
M  V30 12198 H 1162.2 4.53301 -0.855332 0
M  V30 12199 H 1160.44 4.24936 -0.872441 0
M  V30 12200 H 1161.11 5.51776 0.157315 0
M  V30 12201 H 1163.59 3.9569 1.28718 0
M  V30 12202 H 1162.47 5.06526 2.11476 0
M  V30 12203 H 1162.73 3.45288 2.76096 0
M  V30 12204 N 1161.79 -0.095206 1.57312 0
M  V30 12205 C 1162.75 -1.09974 2.01093 0
M  V30 12206 C 1163.75 -1.32954 0.904424 0
M  V30 12207 O 1164.94 -1.29069 1.16991 0
M  V30 12208 C 1162.07 -2.4489 2.37153 0
M  V30 12209 H 1163.26 -0.722906 2.91057 0
M  V30 12210 H 1160.82 -0.340249 1.52552 0
M  V30 12211 H 1161.55 -2.8745 1.50143 0
M  V30 12212 H 1161.34 -2.29559 3.17876 0
M  V30 12213 H 1162.83 -3.17141 2.71683 0
M  V30 12214 N 1163.26 -1.53291 -0.366026 0
M  V30 12215 C 1164.49 -1.73665 -1.13381 0
M  V30 12216 C 1164.91 -0.464284 -1.8228 0
M  V30 12217 O 1164.27 0.581645 -1.71717 0
M  V30 12218 C 1164.32 -2.90225 -2.14013 0
M  V30 12219 O 1163.42 -2.58803 -3.21084 0
M  V30 12220 H 1162.77 -0.576762 -0.329 0
M  V30 12221 H 1165.3 -2.00174 -0.423287 0
M  V30 12222 H 1165.31 -3.16378 -2.57622 0
M  V30 12223 H 1163.98 -3.82518 -1.63257 0
M  V30 12224 H 1162.56 -2.43466 -2.82451 0
M  V30 12225 N 1164.74 0.6258 -1.44643 0
M  V30 12226 C 1165.65 1.76611 -1.5442 0
M  V30 12227 C 1166.67 1.68614 -0.429576 0
M  V30 12228 O 1167.84 1.89296 -0.687686 0
M  V30 12229 C 1164.91 3.13015 -1.49071 0
M  V30 12230 C 1163.97 3.32604 -2.71428 0
M  V30 12231 C 1163.2 4.62501 -2.66325 0
M  V30 12232 O 1163.43 5.43651 -1.72626 0
M  V30 12233 O 1162.36 4.84408 -3.57258 0
M  V30 12234 H 1166.19 1.71315 -2.50769 0
M  V30 12235 H 1163.77 0.787677 -1.26949 0
M  V30 12236 H 1165.65 3.94318 -1.48631 0
M  V30 12237 H 1164.33 3.18842 -0.558686 0
M  V30 12238 H 1163.24 2.50959 -2.77435 0
M  V30 12239 H 1164.57 3.31642 -3.63695 0
M  V30 12240 N 1166.22 1.31629 0.866686 0
M  V30 12241 C 1167.5 1.12136 1.60265 0
M  V30 12242 C 1167.88 -0.322729 2.08618 0
M  V30 12243 O 1167.23 -1.31738 1.86701 0
M  V30 12244 C 1167.44 2.13845 2.7581 0
M  V30 12245 C 1168.78 2.46541 3.45692 0
M  V30 12246 O 1169.81 2.12298 2.86021 0
M  V30 12247 O 1168.67 3.05194 4.53342 0
M  V30 12248 H 1165.76 0.431923 0.705246 0
M  V30 12249 H 1168.31 1.43119 0.911863 0
M  V30 12250 H 1167.08 3.10967 2.37518 0
M  V30 12251 H 1166.7 1.83786 3.52574 0
M  V30 12252 N 1167.7 -1.08142 1.14644 0
M  V30 12253 C 1168.95 -1.80225 0.914517 0
M  V30 12254 C 1169.27 -1.86778 -0.560269 0
M  V30 12255 O 1168.54 -1.36284 -1.40724 0
M  V30 12256 H 1167.12 -0.667492 0.335356 0
M  V30 12257 H 1169.78 -1.30729 1.44554 0
M  V30 12258 H 1168.88 -2.82958 1.31685 0
M  V30 12259 N 1169.18 -0.941978 -1.26351 0
M  V30 12260 C 1170.41 -0.606748 -1.97803 0
M  V30 12261 C 1170.82 0.818441 -1.70138 0
M  V30 12262 O 1170.18 1.54583 -0.970076 0
M  V30 12263 C 1170.23 -0.840431 -3.51595 0
M  V30 12264 O 1169.95 -2.20957 -3.78299 0
M  V30 12265 C 1171.45 -0.515855 -4.40288 0
M  V30 12266 H 1168.67 -0.228591 -0.630862 0
M  V30 12267 H 1171.21 -1.2629 -1.60845 0
M  V30 12268 H 1169.37 -0.230875 -3.86711 0
M  V30 12269 H 1169.78 -2.2702 -4.72824 0
M  V30 12270 H 1171.26 -0.72998 -5.47152 0
M  V30 12271 H 1171.73 0.549178 -4.35753 0
M  V30 12272 H 1172.34 -1.10417 -4.10717 0
M  V30 12273 N 1170.66 1.40747 -0.709091 0
M  V30 12274 C 1171.9 2.013 -0.246174 0
M  V30 12275 C 1172.23 1.56078 1.15556 0
M  V30 12276 O 1171.51 0.777941 1.78265 0
M  V30 12277 C 1171.79 3.58685 -0.318945 0
M  V30 12278 C 1171.65 4.13997 -1.75859 0
M  V30 12279 C 1172.96 4.38981 0.31358 0
M  V30 12280 H 1170.08 0.73137 -0.0909255 0
M  V30 12281 H 1172.73 1.67312 -0.900365 0
M  V30 12282 H 1170.88 3.8777 0.23805 0
M  V30 12283 H 1172.55 3.95735 -2.37047 0
M  V30 12284 H 1170.79 3.6853 -2.28841 0
M  V30 12285 H 1171.46 5.23158 -1.76095 0
M  V30 12286 H 1173.94 4.15789 -0.160939 0
M  V30 12287 H 1172.81 5.48409 0.232184 0
M  V30 12288 H 1173.07 4.19474 1.39621 0
M  V30 12289 N 1172.13 0.454803 1.50895 0
M  V30 12290 C 1173.36 -0.103785 2.06339 0
M  V30 12291 C 1173.77 -1.35494 1.32053 0
M  V30 12292 O 1173.11 -1.79758 0.37852 0
M  V30 12293 C 1173.18 -0.474076 3.5636 0
M  V30 12294 C 1172.84 0.672736 4.52021 0
M  V30 12295 C 1173.84 1.55003 4.96256 0
M  V30 12296 C 1171.52 0.858435 4.9491 0
M  V30 12297 C 1173.52 2.59757 5.82069 0
M  V30 12298 C 1171.2 1.90922 5.8051 0
M  V30 12299 C 1172.2 2.77717 6.23989 0
M  V30 12300 O 1171.89 3.80989 7.07886 0
M  V30 12301 H 1171.62 -0.0035531 0.675991 0
M  V30 12302 H 1174.18 0.637816 1.95246 0
M  V30 12303 H 1172.41 -1.26863 3.65298 0
M  V30 12304 H 1174.09 -0.965845 3.94241 0
M  V30 12305 H 1174.86 1.41818 4.63802 0
M  V30 12306 H 1170.74 0.192384 4.60598 0
M  V30 12307 H 1174.28 3.27535 6.15927 0
M  V30 12308 H 1170.18 2.04121 6.12376 0
M  V30 12309 H 1170.95 3.7778 7.26102 0
M  V30 12310 N 1173.61 -1.56489 0.186789 0
M  V30 12311 C 1174.86 -1.96517 -0.45433 0
M  V30 12312 C 1175.17 -1.07618 -1.63333 0
M  V30 12313 O 1176.38 -1.37392 -2.3417 0
M  V30 12314 C 1174.84 -3.49482 -0.859685 0
M  V30 12315 C 1174.44 -4.47031 0.294572 0
M  V30 12316 C 1176.19 -3.98296 -1.46835 0
M  V30 12317 C 1174.09 -5.91254 -0.131279 0
M  V30 12318 H 1173.02 -0.733765 -0.17351 0
M  V30 12319 H 1175.68 -1.8139 0.277485 0
M  V30 12320 H 1174.06 -3.60082 -1.64793 0
M  V30 12321 H 1175.23 -4.48156 1.07205 0
M  V30 12322 H 1173.55 -4.08362 0.814197 0
M  V30 12323 H 1176.14 -5.03518 -1.79928 0
M  V30 12324 H 1176.49 -3.42123 -2.37186 0
M  V30 12325 H 1177.02 -3.90776 -0.744247 0
M  V30 12326 H 1173.76 -6.51334 0.737839 0
M  V30 12327 H 1173.28 -5.93401 -0.873786 0
M  V30 12328 H 1174.96 -6.44485 -0.569913 0
M  V30 12329 N 1175.09 0.086862 -1.5736 0
M  V30 12330 C 1176.34 0.787281 -1.86135 0
M  V30 12331 C 1176.66 1.78866 -0.776667 0
M  V30 12332 O 1175.93 1.94915 0.19625 0
M  V30 12333 H 1174.51 0.293744 -0.686821 0
M  V30 12334 H 1177.17 0.0665326 -1.94786 0
M  V30 12335 H 1176.27 1.3128 -2.83147 0
M  V30 12336 N 1176.57 1.53483 0.357892 0
M  V30 12337 C 1177.84 1.60649 1.11585 0
M  V30 12338 C 1178.22 0.418789 2.06904 0
M  V30 12339 O 1177.57 -0.590279 2.20744 0
M  V30 12340 C 1177.78 2.96046 1.84818 0
M  V30 12341 C 1179.13 3.50895 2.39076 0
M  V30 12342 O 1180.15 2.98126 1.94934 0
M  V30 12343 O 1179.01 4.43163 3.19794 0
M  V30 12344 H 1176.11 0.649202 0.512315 0
M  V30 12345 H 1178.65 1.65826 0.360537 0
M  V30 12346 H 1177.43 3.73929 1.15296 0
M  V30 12347 H 1177.05 2.94395 2.6724 0
M  V30 12348 N 1178.05 -0.61812 1.44973 0
M  V30 12349 C 1179.01 -1.71135 1.52465 0
M  V30 12350 C 1180.01 -1.5561 0.405246 0
M  V30 12351 O 1181.2 -1.60869 0.668351 0
M  V30 12352 C 1178.33 -3.10324 1.41108 0
M  V30 12353 H 1179.52 -1.65862 2.49859 0
M  V30 12354 H 1177.08 -0.832932 1.32257 0
M  V30 12355 H 1177.81 -3.21183 0.448574 0
M  V30 12356 H 1177.6 -3.23001 2.2229 0
M  V30 12357 H 1179.09 -3.89976 1.49361 0
M  V30 12358 N 1179.52 -1.32087 -0.859693 0
M  V30 12359 C 1180.47 -1.17188 -1.95578 0
M  V30 12360 C 1181.46 -0.0801302 -1.607 0
M  V30 12361 O 1182.65 -0.306118 -1.74333 0
M  V30 12362 C 1179.78 -0.891916 -3.31511 0
M  V30 12363 C 1178.86 -2.02513 -3.72625 0
M  V30 12364 N 1179.26 -3.27321 -3.85609 0
M  V30 12365 C 1177.55 -1.92717 -4.02214 0
M  V30 12366 C 1178.25 -4.01513 -4.20906 0
M  V30 12367 N 1177.23 -3.29767 -4.32151 0
M  V30 12368 H 1181.03 -2.11816 -2.03743 0
M  V30 12369 H 1178.55 -1.23794 -1.05114 0
M  V30 12370 H 1180.54 -0.766143 -4.098 0
M  V30 12371 H 1179.2 0.0460349 -3.24667 0
M  V30 12372 H 1180.21 -3.62317 -3.70063 0
M  V30 12373 H 1176.89 -1.06452 -4.03701 0
M  V30 12374 H 1178.28 -5.09116 -4.38463 0
M  V30 12375 N 1181 1.07532 -1.15215 0
M  V30 12376 C 1182.23 1.83817 -0.949687 0
M  V30 12377 C 1182.64 1.82004 0.501991 0
M  V30 12378 O 1182 1.23014 1.34811 0
M  V30 12379 C 1182.05 3.30978 -1.45382 0
M  V30 12380 O 1181.77 3.32844 -2.84863 0
M  V30 12381 C 1183.27 4.24037 -1.29257 0
M  V30 12382 H 1180.49 0.58 -0.337404 0
M  V30 12383 H 1183.04 1.35752 -1.52944 0
M  V30 12384 H 1181.19 3.76399 -0.916638 0
M  V30 12385 H 1181.61 4.24773 -3.07682 0
M  V30 12386 H 1183.08 5.25371 -1.69379 0
M  V30 12387 H 1183.56 4.38563 -0.236519 0
M  V30 12388 H 1184.16 3.8445 -1.81874 0
M  V30 12389 N 1182.48 0.948665 1.2585 0
M  V30 12390 C 1183.43 0.455115 2.28104 0
M  V30 12391 C 1184.42 -0.471508 1.62706 0
M  V30 12392 O 1185.63 -0.348895 1.76586 0
M  V30 12393 H 1182 0.128659 0.740912 0
M  V30 12394 H 1183.97 1.32991 2.67125 0
M  V30 12395 C 1182.72 -0.25729 3.46747 0
M  V30 12396 H 1182.05 0.44658 3.97298 0
M  V30 12397 H 1183.49 -0.566736 4.20195 0
M  V30 12398 C 1181.95 -1.47772 3.02762 0
M  V30 12399 O 1182.48 -2.57571 3.08253 0
M  V30 12400 N 1180.68 -1.33694 2.5802 0
M  V30 12401 H 1180.23 -0.443595 2.53752 0
M  V30 12402 H 1180.19 -2.1547 2.28954 0
M  V30 12403 N 1183.96 -1.40369 0.716545 0
M  V30 12404 C 1185.19 -2.05181 0.266143 0
M  V30 12405 C 1185.6 -1.53988 -1.09239 0
M  V30 12406 O 1184.96 -0.696859 -1.68672 0
M  V30 12407 C 1185.01 -3.60713 0.238384 0
M  V30 12408 O 1184.73 -4.10018 1.54328 0
M  V30 12409 C 1186.23 -4.42701 -0.230453 0
M  V30 12410 H 1183.45 -0.66028 0.119463 0
M  V30 12411 H 1186 -1.7976 0.97502 0
M  V30 12412 H 1184.15 -3.85101 -0.421466 0
M  V30 12413 H 1184.56 -5.0422 1.4444 0
M  V30 12414 H 1186.04 -5.51642 -0.198728 0
M  V30 12415 H 1186.52 -4.20354 -1.27276 0
M  V30 12416 H 1187.12 -4.23423 0.399155 0
M  V30 12417 N 1185.44 -0.462799 -1.50652 0
M  V30 12418 C 1186.68 0.0951853 -2.02576 0
M  V30 12419 C 1187.02 1.40113 -1.34469 0
M  V30 12420 O 1186.29 1.88793 -0.467702 0
M  V30 12421 C 1186.57 0.287603 -3.5895 0
M  V30 12422 C 1186.43 -1.03878 -4.37641 0
M  V30 12423 C 1187.75 1.04593 -4.27491 0
M  V30 12424 H 1184.86 0.0331191 -0.736255 0
M  V30 12425 H 1187.51 -0.606772 -1.80051 0
M  V30 12426 H 1185.66 0.885514 -3.78274 0
M  V30 12427 H 1187.33 -1.67263 -4.29908 0
M  V30 12428 H 1185.57 -1.6374 -4.01711 0
M  V30 12429 H 1186.24 -0.857889 -5.45293 0
M  V30 12430 H 1188.72 0.539213 -4.12591 0
M  V30 12431 H 1187.59 1.14935 -5.36732 0
M  V30 12432 H 1187.86 2.08045 -3.90089 0
M  V30 12433 N 1186.91 1.56388 -0.195085 0
M  V30 12434 C 1188.16 1.98634 0.437717 0
M  V30 12435 C 1188.52 1.07985 1.59239 0
M  V30 12436 O 1187.81 0.124261 1.91197 0
M  V30 12437 C 1188 3.44651 0.946051 0
M  V30 12438 C 1187.83 4.49423 -0.157828 0
M  V30 12439 C 1186.6 5.01538 -0.615457 0
M  V30 12440 C 1188.8 5.05132 -0.966773 0
M  V30 12441 N 1186.78 5.89974 -1.69716 0
M  V30 12442 C 1188.15 5.90238 -1.89788 0
M  V30 12443 C 1190.21 4.87565 -1.00919 0
M  V30 12444 C 1188.91 6.59655 -2.86788 0
M  V30 12445 C 1190.94 5.57722 -1.96724 0
M  V30 12446 C 1190.3 6.42574 -2.88579 0
M  V30 12447 H 1186.4 0.77152 0.127594 0
M  V30 12448 H 1188.98 1.92363 -0.300777 0
M  V30 12449 H 1187.15 3.51423 1.65399 0
M  V30 12450 H 1188.88 3.73863 1.54946 0
M  V30 12451 H 1185.64 4.73139 -0.208806 0
M  V30 12452 H 1186.06 6.38896 -2.23921 0
M  V30 12453 H 1190.71 4.2164 -0.313023 0
M  V30 12454 H 1188.42 7.24779 -3.57381 0
M  V30 12455 H 1192.01 5.46106 -2.00647 0
M  V30 12456 H 1190.89 6.95906 -3.61503 0
M  V30 12457 N 1188.39 -0.0785156 1.57404 0
M  V30 12458 C 1189.34 -1.09402 2.03224 0
M  V30 12459 C 1190.31 -1.38849 0.911596 0
M  V30 12460 O 1191.49 -1.50031 1.17878 0
M  V30 12461 C 1188.63 -2.40444 2.47549 0
M  V30 12462 C 1187.75 -2.17585 3.73203 0
M  V30 12463 C 1186.88 -3.42143 4.06339 0
M  V30 12464 C 1185.92 -3.14619 5.25054 0
M  V30 12465 N 1185.06 -4.31489 5.5386 0
M  V30 12466 H 1189.9 -0.696307 2.89751 0
M  V30 12467 H 1187.44 -0.332261 1.43298 0
M  V30 12468 H 1189.39 -3.16944 2.71298 0
M  V30 12469 H 1188.02 -2.78031 1.64009 0
M  V30 12470 H 1187.08 -1.3181 3.56834 0
M  V30 12471 H 1188.39 -1.93249 4.59844 0
M  V30 12472 H 1187.54 -4.27042 4.30953 0
M  V30 12473 H 1186.28 -3.69549 3.18253 0
M  V30 12474 H 1185.29 -2.28116 5.00243 0
M  V30 12475 H 1186.51 -2.88543 6.14752 0
M  V30 12476 H 1184.46 -4.58939 4.68734 0
M  V30 12477 H 1184.37 -4.10403 6.34906 0
M  V30 12478 H 1185.64 -5.17404 5.83021 0
M  V30 12479 N 1189.87 -1.5367 -0.349747 0
M  V30 12480 C 1191.12 -1.70618 -1.09068 0
M  V30 12481 C 1191.45 -0.466133 -1.88832 0
M  V30 12482 O 1190.7 0.552079 -1.87751 0
M  V30 12483 C 1191 -2.91753 -2.06434 0
M  V30 12484 C 1190.67 -4.27614 -1.43029 0
M  V30 12485 C 1189.33 -4.64555 -1.25466 0
M  V30 12486 C 1191.68 -5.12037 -0.972987 0
M  V30 12487 C 1189.01 -5.83543 -0.607807 0
M  V30 12488 C 1191.36 -6.31685 -0.340073 0
M  V30 12489 C 1190.02 -6.67327 -0.152069 0
M  V30 12490 H 1189.29 -0.624334 -0.399108 0
M  V30 12491 H 1191.94 -1.87879 -0.370657 0
M  V30 12492 H 1190.25 -2.6907 -2.84796 0
M  V30 12493 H 1191.94 -3.02059 -2.63744 0
M  V30 12494 H 1188.53 -3.98535 -1.57696 0
M  V30 12495 H 1192.72 -4.84035 -1.09655 0
M  V30 12496 H 1187.97 -6.09737 -0.450705 0
M  V30 12497 H 1192.15 -6.96396 0.0223973 0
M  V30 12498 H 1189.77 -7.59388 0.35121 0
M  V30 12499 N 1191.35 0.610423 -1.45298 0
M  V30 12500 C 1192.58 1.39621 -1.52688 0
M  V30 12501 C 1192.99 1.88133 -0.158535 0
M  V30 12502 O 1192.35 1.62051 0.839396 0
M  V30 12503 C 1192.4 2.60261 -2.50891 0
M  V30 12504 O 1192.12 2.13766 -3.82408 0
M  V30 12505 C 1193.62 3.53154 -2.6795 0
M  V30 12506 H 1190.84 0.427493 -0.517195 0
M  V30 12507 H 1193.39 0.744701 -1.90459 0
M  V30 12508 H 1191.54 3.2146 -2.162 0
M  V30 12509 H 1191.95 2.92128 -4.35616 0
M  V30 12510 H 1193.43 4.34355 -3.40647 0
M  V30 12511 H 1193.91 4.03311 -1.73888 0
M  V30 12512 H 1194.51 2.9781 -3.03627 0
M  V30 12513 N 1192.83 1.32541 0.852676 0
M  V30 12514 C 1193.76 1.24254 1.97694 0
M  V30 12515 C 1194.74 0.125971 1.69633 0
M  V30 12516 O 1195.92 0.31347 1.91653 0
M  V30 12517 C 1193.05 0.966874 3.3357 0
M  V30 12518 C 1192.01 2.0449 3.75989 0
M  V30 12519 C 1191.33 1.6216 5.09518 0
M  V30 12520 C 1192.63 3.46013 3.91244 0
M  V30 12521 H 1194.33 2.18317 2.04886 0
M  V30 12522 H 1191.87 1.05101 0.984371 0
M  V30 12523 H 1193.83 0.895444 4.11776 0
M  V30 12524 H 1192.55 -0.0093893 3.26599 0
M  V30 12525 H 1191.21 2.10651 3.00036 0
M  V30 12526 H 1190.86 0.632729 4.99005 0
M  V30 12527 H 1190.56 2.3429 5.38871 0
M  V30 12528 H 1192.08 1.56457 5.90215 0
M  V30 12529 H 1193.49 3.4243 4.59799 0
M  V30 12530 H 1191.89 4.1651 4.32017 0
M  V30 12531 H 1192.96 3.8553 2.941 0
M  V30 12532 N 1194.3 -1.0692 1.15784 0
M  V30 12533 C 1195.53 -1.8331 0.959422 0
M  V30 12534 C 1195.95 -1.82268 -0.492332 0
M  V30 12535 O 1195.3 -1.23727 -1.34156 0
M  V30 12536 C 1195.36 -3.30202 1.47135 0
M  V30 12537 O 1195.08 -3.31328 2.86624 0
M  V30 12538 C 1196.58 -4.23346 1.31504 0
M  V30 12539 H 1193.8 -0.578202 0.340475 0
M  V30 12540 H 1196.34 -1.34939 1.53661 0
M  V30 12541 H 1194.5 -3.75908 0.936587 0
M  V30 12542 H 1194.91 -4.23135 3.0993 0
M  V30 12543 H 1196.38 -5.24465 1.72163 0
M  V30 12544 H 1196.86 -4.38431 0.259773 0
M  V30 12545 H 1197.47 -3.8348 1.83911 0
M  V30 12546 N 1195.78 -0.955326 -1.25345 0
M  V30 12547 C 1196.69 -0.482707 -2.2958 0
M  V30 12548 C 1197.71 0.450283 -1.68073 0
M  V30 12549 O 1198.88 0.326358 -1.98738 0
M  V30 12550 C 1195.95 0.231293 -3.45928 0
M  V30 12551 C 1195.01 -0.739995 -4.22874 0
M  V30 12552 C 1194.24 -0.0599748 -5.33666 0
M  V30 12553 O 1194.47 1.15423 -5.586 0
M  V30 12554 O 1193.4 -0.745865 -5.97261 0
M  V30 12555 H 1197.23 -1.34892 -2.72099 0
M  V30 12556 H 1194.81 -0.721812 -1.30806 0
M  V30 12557 H 1196.69 0.632908 -4.1662 0
M  V30 12558 H 1195.37 1.07267 -3.0541 0
M  V30 12559 H 1194.28 -1.19183 -3.54607 0
M  V30 12560 H 1195.61 -1.54941 -4.67177 0
M  V30 12561 N 1197.26 1.39987 -0.723979 0
M  V30 12562 C 1198.21 2.30672 -0.0768286 0
M  V30 12563 C 1199.18 1.48634 0.741422 0
M  V30 12564 O 1200.36 1.77351 0.703649 0
M  V30 12565 C 1197.5 3.34902 0.832729 0
M  V30 12566 C 1196.62 4.32 0.00304942 0
M  V30 12567 C 1195.75 5.23298 0.91286 0
M  V30 12568 C 1194.79 6.12051 0.0777706 0
M  V30 12569 N 1193.93 6.9574 0.942912 0
M  V30 12570 H 1198.77 2.85446 -0.855832 0
M  V30 12571 H 1196.3 1.40561 -0.433718 0
M  V30 12572 H 1198.26 3.93911 1.37441 0
M  V30 12573 H 1196.89 2.81611 1.57782 0
M  V30 12574 H 1195.94 3.74702 -0.655916 0
M  V30 12575 H 1197.26 4.94637 -0.643124 0
M  V30 12576 H 1196.41 5.87279 1.52277 0
M  V30 12577 H 1195.15 4.60956 1.59284 0
M  V30 12578 H 1194.15 5.47092 -0.545022 0
M  V30 12579 H 1195.38 6.76455 -0.598827 0
M  V30 12580 H 1193.33 6.35977 1.60838 0
M  V30 12581 H 1193.24 7.55176 0.352968 0
M  V30 12582 H 1194.51 7.64162 1.53874 0
M  V30 12583 N 1198.74 0.470782 1.50404 0
M  V30 12584 C 1199.67 -0.313458 2.31386 0
M  V30 12585 C 1200.65 -0.990623 1.38278 0
M  V30 12586 O 1201.84 -0.987854 1.67198 0
M  V30 12587 C 1198.97 -1.39599 3.18009 0
M  V30 12588 C 1197.92 -0.840443 4.19667 0
M  V30 12589 C 1197.25 -2.02124 4.95025 0
M  V30 12590 C 1198.55 0.148055 5.2209 0
M  V30 12591 H 1200.24 0.362432 2.97198 0
M  V30 12592 H 1197.79 0.175745 1.42924 0
M  V30 12593 H 1199.74 -1.9521 3.73458 0
M  V30 12594 H 1198.46 -2.10064 2.50081 0
M  V30 12595 H 1197.12 -0.306302 3.65318 0
M  V30 12596 H 1196.77 -2.71286 4.23571 0
M  V30 12597 H 1196.47 -1.65574 5.6379 0
M  V30 12598 H 1197.99 -2.58226 5.5331 0
M  V30 12599 H 1199.41 -0.318874 5.72413 0
M  V30 12600 H 1197.8 0.427811 5.98573 0
M  V30 12601 H 1198.87 1.07404 4.72855 0
M  V30 12602 N 1200.22 -1.56282 0.203376 0
M  V30 12603 C 1201.13 -2.23086 -0.725922 0
M  V30 12604 C 1202.14 -1.23258 -1.22814 0
M  V30 12605 O 1203.32 -1.5602 -1.27357 0
M  V30 12606 C 1200.38 -2.88358 -1.92485 0
M  V30 12607 C 1199.45 -4.03479 -1.46639 0
M  V30 12608 C 1198.68 -4.65629 -2.60816 0
M  V30 12609 O 1198.9 -4.2672 -3.78506 0
M  V30 12610 O 1197.84 -5.54949 -2.33056 0
M  V30 12611 H 1201.66 -3.03124 -0.18694 0
M  V30 12612 H 1199.25 -1.49377 -0.0262829 0
M  V30 12613 H 1201.13 -3.29623 -2.62539 0
M  V30 12614 H 1199.8 -2.11294 -2.45228 0
M  V30 12615 H 1198.71 -3.66821 -0.734396 0
M  V30 12616 H 1200.04 -4.82232 -0.985535 0
M  V30 12617 N 1201.7 0.070167 -1.57444 0
M  V30 12618 C 1202.65 1.09016 -2.00249 0
M  V30 12619 C 1203.63 1.34387 -0.884809 0
M  V30 12620 O 1204.82 1.34661 -1.14872 0
M  V30 12621 C 1201.95 2.40344 -2.45132 0
M  V30 12622 C 1201.04 2.1824 -3.63637 0
M  V30 12623 N 1201.43 1.6607 -4.7776 0
M  V30 12624 C 1199.73 2.48706 -3.70218 0
M  V30 12625 C 1200.43 1.58819 -5.59599 0
M  V30 12626 N 1199.4 2.04928 -5.03493 0
M  V30 12627 H 1203.2 0.680143 -2.85922 0
M  V30 12628 H 1200.72 0.277212 -1.60017 0
M  V30 12629 H 1202.72 3.1418 -2.74037 0
M  V30 12630 H 1201.38 2.82061 -1.60846 0
M  V30 12631 H 1202.39 1.34911 -5.00019 0
M  V30 12632 H 1199.06 2.93778 -2.96649 0
M  V30 12633 H 1200.45 1.19323 -6.6122 0
M  V30 12634 N 1203.17 1.53854 0.341593 0
M  V30 12635 C 1204.59 1.44161 0.684821 0
M  V30 12636 C 1204.79 0.599929 1.92362 0
M  V30 12637 O 1203.85 0.0916771 2.52334 0
M  V30 12638 C 1205.16 2.87668 0.875637 0
M  V30 12639 C 1206.71 2.97455 0.974131 0
M  V30 12640 C 1207.18 4.42075 1.19725 0
M  V30 12641 N 1208.67 4.45609 1.2644 0
M  V30 12642 C 1209.41 5.54643 1.45459 0
M  V30 12643 N 1208.9 6.7368 1.61637 0
M  V30 12644 N 1210.7 5.4226 1.48022 0
M  V30 12645 H 1202.85 2.07069 -0.472883 0
M  V30 12646 H 1205.11 0.936114 -0.149648 0
M  V30 12647 H 1204.82 3.51681 0.0368595 0
M  V30 12648 H 1204.69 3.32731 1.7768 0
M  V30 12649 H 1207.08 2.33582 1.80343 0
M  V30 12650 H 1207.16 2.55751 0.0498282 0
M  V30 12651 H 1206.8 5.06529 0.372872 0
M  V30 12652 H 1206.73 4.81372 2.13515 0
M  V30 12653 H 1209.22 3.59831 1.15455 0
M  V30 12654 H 1209.54 7.52541 1.7579 0
M  V30 12655 H 1207.88 6.76622 1.5877 0
M  V30 12656 H 1211.07 4.48221 1.34966 0
M  V30 12657 H 1211.25 6.27293 1.62502 0
M  V30 12658 N 1204.65 -0.602709 1.4562 0
M  V30 12659 C 1205.88 -1.39299 1.53657 0
M  V30 12660 C 1206.3 -1.87315 0.171632 0
M  V30 12661 O 1205.66 -1.60423 -0.844639 0
M  V30 12662 C 1205.71 -2.57021 2.52928 0
M  V30 12663 O 1204.81 -3.57812 2.05047 0
M  V30 12664 H 1204.15 -0.41567 0.517798 0
M  V30 12665 H 1206.68 -0.73304 1.91018 0
M  V30 12666 H 1206.69 -3.04202 2.71892 0
M  V30 12667 H 1205.37 -2.21422 3.52058 0
M  V30 12668 H 1203.94 -3.17247 1.95981 0
M  V30 12669 N 1206.13 -1.32992 -0.845635 0
M  V30 12670 C 1207.38 -1.24249 -1.60281 0
M  V30 12671 C 1207.71 0.193049 -1.93238 0
M  V30 12672 O 1206.98 1.1326 -1.58122 0
M  V30 12673 C 1207.27 -2.1111 -2.91727 0
M  V30 12674 C 1207.12 -3.63088 -2.65494 0
M  V30 12675 C 1208.44 -1.97913 -3.93089 0
M  V30 12676 H 1205.56 -0.452698 -0.581578 0
M  V30 12677 H 1208.2 -1.63026 -0.975828 0
M  V30 12678 H 1206.35 -1.78169 -3.45236 0
M  V30 12679 H 1208.02 -4.06287 -2.18469 0
M  V30 12680 H 1206.26 -3.85304 -1.99306 0
M  V30 12681 H 1206.94 -4.19202 -3.59129 0
M  V30 12682 H 1209.41 -2.26788 -3.48864 0
M  V30 12683 H 1208.29 -2.60952 -4.82903 0
M  V30 12684 H 1208.55 -0.949378 -4.31786 0
M  V30 12685 N 1207.61 1.06304 -1.1635 0
M  V30 12686 C 1208.55 2.13776 -0.869965 0
M  V30 12687 C 1209.52 1.65105 0.181541 0
M  V30 12688 O 1210.71 1.90743 0.0467705 0
M  V30 12689 C 1207.85 3.43034 -0.377077 0
M  V30 12690 C 1206.96 4.0544 -1.4914 0
M  V30 12691 C 1206.1 5.22572 -0.953538 0
M  V30 12692 C 1205.14 5.76961 -2.04407 0
M  V30 12693 N 1204.27 6.85409 -1.52181 0
M  V30 12694 H 1209.11 2.38224 -1.79034 0
M  V30 12695 H 1206.65 1.16882 -0.893136 0
M  V30 12696 H 1208.61 4.17136 -0.0729426 0
M  V30 12697 H 1207.24 3.18804 0.506359 0
M  V30 12698 H 1206.29 3.28886 -1.9115 0
M  V30 12699 H 1207.6 4.41859 -2.31434 0
M  V30 12700 H 1206.76 6.037 -0.602579 0
M  V30 12701 H 1205.5 4.87598 -0.099897 0
M  V30 12702 H 1204.5 4.9447 -2.40373 0
M  V30 12703 H 1205.73 6.13987 -2.90167 0
M  V30 12704 H 1203.67 6.52354 -0.690697 0
M  V30 12705 H 1203.59 7.2077 -2.28092 0
M  V30 12706 H 1204.86 7.70217 -1.19942 0
M  V30 12707 N 1209.09 0.96196 1.24836 0
M  V30 12708 C 1210.03 0.48686 2.25607 0
M  V30 12709 C 1211 -0.464546 1.59472 0
M  V30 12710 O 1212.19 -0.376179 1.87055 0
M  V30 12711 C 1209.33 -0.222294 3.44383 0
M  V30 12712 C 1208.44 0.767206 4.25133 0
M  V30 12713 C 1207.58 0.0347458 5.31189 0
M  V30 12714 C 1206.61 1.01469 6.03631 0
M  V30 12715 N 1205.75 0.312619 7.01404 0
M  V30 12716 H 1210.59 1.35104 2.65614 0
M  V30 12717 H 1208.13 0.677373 1.30576 0
M  V30 12718 H 1210.09 -0.650087 4.12104 0
M  V30 12719 H 1208.72 -1.05047 3.0523 0
M  V30 12720 H 1207.77 1.31346 3.57005 0
M  V30 12721 H 1209.08 1.5147 4.75245 0
M  V30 12722 H 1208.23 -0.451325 6.05019 0
M  V30 12723 H 1206.97 -0.745485 4.81969 0
M  V30 12724 H 1205.98 1.51169 5.28609 0
M  V30 12725 H 1207.2 1.79527 6.5494 0
M  V30 12726 H 1205.15 -0.44874 6.54463 0
M  V30 12727 H 1205.07 0.999079 7.49369 0
M  V30 12728 H 1206.33 -0.151673 7.79352 0
M  V30 12729 N 1210.56 -1.39601 0.731392 0
M  V30 12730 C 1211.53 -2.28992 0.0976037 0
M  V30 12731 C 1212.53 -1.46135 -0.670917 0
M  V30 12732 O 1213.72 -1.66856 -0.50047 0
M  V30 12733 C 1210.85 -3.29582 -0.871124 0
M  V30 12734 H 1212.04 -2.86541 0.885112 0
M  V30 12735 H 1209.59 -1.48188 0.497002 0
M  V30 12736 H 1210.33 -2.77082 -1.68512 0
M  V30 12737 H 1210.11 -3.9077 -0.322735 0
M  V30 12738 H 1211.6 -3.96479 -1.31126 0
M  V30 12739 N 1212.04 -0.478751 -1.50152 0
M  V30 12740 C 1213.29 0.0734397 -2.01967 0
M  V30 12741 C 1213.61 1.39523 -1.36229 0
M  V30 12742 O 1212.88 1.89141 -0.510149 0
M  V30 12743 H 1211.46 0.0301305 -0.746392 0
M  V30 12744 H 1214.12 -0.630921 -1.84406 0
M  V30 12745 H 1213.22 0.21937 -3.11328 0
M  V30 12746 N 1213.52 1.56172 -0.211661 0
M  V30 12747 C 1214.77 1.97214 0.423008 0
M  V30 12748 C 1215.08 1.10203 1.616 0
M  V30 12749 O 1216.29 1.411 2.31955 0
M  V30 12750 C 1214.74 3.50805 0.803977 0
M  V30 12751 C 1214.35 4.46505 -0.365654 0
M  V30 12752 C 1216.1 4.00582 1.4048 0
M  V30 12753 C 1214 5.91388 0.0371986 0
M  V30 12754 H 1212.93 0.736432 0.161814 0
M  V30 12755 H 1215.58 1.80925 -0.306307 0
M  V30 12756 H 1213.97 3.62659 1.59043 0
M  V30 12757 H 1215.14 4.46394 -1.14321 0
M  V30 12758 H 1213.46 4.07015 -0.879061 0
M  V30 12759 H 1216.05 5.06317 1.71894 0
M  V30 12760 H 1216.4 3.45853 2.31713 0
M  V30 12761 H 1216.93 3.9191 0.681984 0
M  V30 12762 H 1213.67 6.50078 -0.841367 0
M  V30 12763 H 1213.19 5.94716 0.77927 0
M  V30 12764 H 1214.87 6.4531 0.467309 0
M  V30 12765 N 1215 -0.0618163 1.57479 0
M  V30 12766 C 1215.91 -1.09006 2.07738 0
M  V30 12767 C 1216.92 -1.4176 1.00896 0
M  V30 12768 O 1218.1 -1.51737 1.32431 0
M  V30 12769 C 1215.17 -2.38153 2.5196 0
M  V30 12770 C 1214.23 -2.12279 3.73143 0
M  V30 12771 C 1213.46 -3.35269 4.15248 0
M  V30 12772 O 1213.68 -4.44758 3.57137 0
M  V30 12773 O 1212.62 -3.22894 5.0796 0
M  V30 12774 H 1216.44 -0.693059 2.95686 0
M  V30 12775 H 1214.03 -0.276628 1.46817 0
M  V30 12776 H 1215.91 -3.14139 2.80882 0
M  V30 12777 H 1214.58 -2.77213 1.67137 0
M  V30 12778 H 1213.49 -1.33966 3.49291 0
M  V30 12779 H 1214.82 -1.78094 4.5885 0
M  V30 12780 N 1216.48 -1.54033 -0.333429 0
M  V30 12781 C 1217.72 -1.72019 -1.07411 0
M  V30 12782 C 1218.06 -0.487265 -1.87988 0
M  V30 12783 O 1217.33 0.515757 -1.87537 0
M  V30 12784 C 1217.61 -2.98986 -2.00698 0
M  V30 12785 C 1217.47 -4.32509 -1.23517 0
M  V30 12786 C 1218.79 -3.21663 -3.00368 0
M  V30 12787 H 1215.9 -0.625919 -0.389094 0
M  V30 12788 H 1218.55 -1.86717 -0.351697 0
M  V30 12789 H 1216.7 -2.86586 -2.62298 0
M  V30 12790 H 1218.37 -4.56775 -0.644522 0
M  V30 12791 H 1216.61 -4.3046 -0.537298 0
M  V30 12792 H 1217.28 -5.17547 -1.91962 0
M  V30 12793 H 1219.76 -3.33459 -2.48886 0
M  V30 12794 H 1218.63 -4.11877 -3.62834 0
M  V30 12795 H 1218.9 -2.3843 -3.72295 0
M  V30 12796 N 1217.95 0.594978 -1.45938 0
M  V30 12797 C 1218.89 1.71909 -1.51591 0
M  V30 12798 C 1219.9 1.57671 -0.405416 0
M  V30 12799 O 1221.09 1.65321 -0.673144 0
M  V30 12800 C 1218.19 3.10041 -1.3685 0
M  V30 12801 C 1217.36 3.50399 -2.61801 0
M  V30 12802 C 1216.42 4.67542 -2.41435 0
M  V30 12803 O 1215.45 4.74022 -3.15106 0
M  V30 12804 N 1216.65 5.6163 -1.46808 0
M  V30 12805 H 1219.41 1.67518 -2.48511 0
M  V30 12806 H 1216.97 0.78062 -1.41838 0
M  V30 12807 H 1218.97 3.86183 -1.21017 0
M  V30 12808 H 1217.54 3.08868 -0.481589 0
M  V30 12809 H 1216.76 2.64088 -2.92662 0
M  V30 12810 H 1218.04 3.74125 -3.44831 0
M  V30 12811 H 1217.44 5.5912 -0.860333 0
M  V30 12812 H 1216 6.37252 -1.36942 0
M  V30 12813 N 1219.43 1.33438 0.838571 0
M  V30 12814 C 1220.34 1.25753 1.98049 0
M  V30 12815 C 1221.36 0.168051 1.73187 0
M  V30 12816 O 1222.53 0.391691 1.97554 0
M  V30 12817 C 1219.6 0.997148 3.32051 0
M  V30 12818 C 1218.66 2.17667 3.70027 0
M  V30 12819 C 1217.89 1.92861 4.97635 0
M  V30 12820 O 1218.12 0.879072 5.63585 0
M  V30 12821 O 1217.05 2.79402 5.33121 0
M  V30 12822 H 1220.88 2.21786 2.07472 0
M  V30 12823 H 1218.46 1.13488 0.971645 0
M  V30 12824 H 1220.34 0.869099 4.1234 0
M  V30 12825 H 1219.02 0.0671036 3.2363 0
M  V30 12826 H 1217.93 2.36025 2.90246 0
M  V30 12827 H 1219.26 3.09006 3.83114 0
M  V30 12828 N 1220.91 -1.05686 1.16912 0
M  V30 12829 C 1222.16 -1.77987 0.948875 0
M  V30 12830 C 1222.47 -1.8845 -0.524011 0
M  V30 12831 O 1223.68 -2.57442 -0.862322 0
M  V30 12832 C 1222.13 -3.19927 1.64848 0
M  V30 12833 C 1221.74 -3.1761 3.15956 0
M  V30 12834 C 1223.49 -3.96719 1.51044 0
M  V30 12835 C 1221.39 -4.54307 3.78628 0
M  V30 12836 H 1220.32 -0.667119 0.35138 0
M  V30 12837 H 1222.97 -1.18496 1.40111 0
M  V30 12838 H 1221.36 -3.79714 1.12397 0
M  V30 12839 H 1222.53 -2.67369 3.75301 0
M  V30 12840 H 1220.85 -2.54317 3.29715 0
M  V30 12841 H 1223.44 -4.97779 1.95243 0
M  V30 12842 H 1223.79 -4.13748 0.460268 0
M  V30 12843 H 1224.32 -3.43468 2.00685 0
M  V30 12844 H 1221.06 -4.42484 4.8362 0
M  V30 12845 H 1220.58 -5.04717 3.24069 0
M  V30 12846 H 1222.26 -5.23255 3.80543 0
M  V30 12847 N 1222.39 -0.968567 -1.24324 0
M  V30 12848 C 1223.34 -0.498817 -2.25345 0
M  V30 12849 C 1224.31 0.456082 -1.59716 0
M  V30 12850 O 1225.49 0.366254 -1.87252 0
M  V30 12851 C 1222.63 0.204027 -3.44496 0
M  V30 12852 C 1221.74 -0.789741 -4.2472 0
M  V30 12853 C 1220.88 -0.0629156 -5.31163 0
M  V30 12854 C 1219.92 -1.04669 -6.03084 0
M  V30 12855 N 1219.05 -0.349812 -7.01228 0
M  V30 12856 H 1223.89 -1.36511 -2.64894 0
M  V30 12857 H 1221.43 -0.684288 -1.30215 0
M  V30 12858 H 1223.39 0.628223 -4.12443 0
M  V30 12859 H 1222.02 1.03426 -3.05782 0
M  V30 12860 H 1221.07 -1.33237 -3.56303 0
M  V30 12861 H 1222.38 -1.53988 -4.74436 0
M  V30 12862 H 1221.54 0.419233 -6.0525 0
M  V30 12863 H 1220.28 0.719915 -4.82357 0
M  V30 12864 H 1219.28 -1.53971 -5.278 0
M  V30 12865 H 1220.51 -1.82998 -6.53979 0
M  V30 12866 H 1218.45 0.414026 -6.54692 0
M  V30 12867 H 1218.37 -1.03881 -7.48829 0
M  V30 12868 H 1219.64 0.11034 -7.79422 0
M  V30 12869 N 1223.87 1.39211 -0.738786 0
M  V30 12870 C 1224.78 2.34374 -0.102958 0
M  V30 12871 C 1225.79 1.58514 0.717596 0
M  V30 12872 O 1226.97 1.90786 0.645186 0
M  V30 12873 C 1224.03 3.37562 0.790733 0
M  V30 12874 C 1223.09 4.29279 -0.0425028 0
M  V30 12875 C 1222.33 5.27539 0.808628 0
M  V30 12876 O 1222.55 5.32396 2.04722 0
M  V30 12877 O 1221.48 6.0144 0.235279 0
M  V30 12878 H 1225.31 2.90412 -0.888498 0
M  V30 12879 H 1222.9 1.40803 -0.499498 0
M  V30 12880 H 1224.78 4.00783 1.30196 0
M  V30 12881 H 1223.45 2.83903 1.55502 0
M  V30 12882 H 1222.36 3.69268 -0.599335 0
M  V30 12883 H 1223.69 4.86154 -0.7691 0
M  V30 12884 N 1225.34 0.486708 1.49896 0
M  V30 12885 C 1226.31 -0.288126 2.27382 0
M  V30 12886 C 1227.31 -0.906675 1.32801 0
M  V30 12887 O 1228.5 -0.773425 1.56089 0
M  V30 12888 C 1225.63 -1.41194 3.10285 0
M  V30 12889 H 1226.82 0.391618 2.97332 0
M  V30 12890 H 1224.38 0.24123 1.54427 0
M  V30 12891 H 1225.11 -2.12627 2.44868 0
M  V30 12892 H 1224.9 -0.974033 3.79809 0
M  V30 12893 H 1226.39 -1.95812 3.68846 0
M  V30 12894 N 1226.82 -1.56058 0.219941 0
M  V30 12895 C 1227.73 -2.23844 -0.70222 0
M  V30 12896 C 1228.75 -1.24554 -1.215 0
M  V30 12897 O 1229.93 -1.57362 -1.25695 0
M  V30 12898 C 1226.99 -2.90384 -1.89416 0
M  V30 12899 C 1226.05 -4.05012 -1.42351 0
M  V30 12900 C 1225.28 -4.68369 -2.55863 0
M  V30 12901 O 1225.51 -4.3071 -3.73958 0
M  V30 12902 O 1224.44 -5.5739 -2.27157 0
M  V30 12903 H 1228.27 -3.03305 -0.15478 0
M  V30 12904 H 1225.85 -1.49396 -0.010438 0
M  V30 12905 H 1227.73 -3.32389 -2.59028 0
M  V30 12906 H 1226.41 -2.13883 -2.42973 0
M  V30 12907 H 1225.32 -3.67579 -0.695448 0
M  V30 12908 H 1226.65 -4.83251 -0.934332 0
M  V30 12909 N 1228.3 0.053464 -1.57509 0
M  V30 12910 C 1229.26 1.04604 -2.03938 0
M  V30 12911 C 1230.26 1.30509 -0.939357 0
M  V30 12912 O 1231.45 1.25922 -1.20371 0
M  V30 12913 C 1228.59 2.38516 -2.43563 0
M  V30 12914 H 1229.78 0.645484 -2.92871 0
M  V30 12915 H 1227.33 0.299683 -1.534 0
M  V30 12916 H 1228.07 2.83368 -1.57712 0
M  V30 12917 H 1227.85 2.2105 -3.23851 0
M  V30 12918 H 1229.34 3.09826 -2.79996 0
M  V30 12919 N 1229.78 1.54207 0.325255 0
M  V30 12920 C 1231.03 1.72587 1.06497 0
M  V30 12921 C 1231.36 0.497228 1.87727 0
M  V30 12922 O 1230.63 -0.505804 1.87808 0
M  V30 12923 C 1230.92 3.00046 1.99109 0
M  V30 12924 C 1230.77 4.33158 1.21221 0
M  V30 12925 C 1232.09 3.23251 2.98658 0
M  V30 12926 H 1229.21 0.627974 0.38577 0
M  V30 12927 H 1231.85 1.869 0.34179 0
M  V30 12928 H 1230 2.87973 2.60775 0
M  V30 12929 H 1231.67 4.57111 0.620289 0
M  V30 12930 H 1229.91 4.30739 0.514462 0
M  V30 12931 H 1230.59 5.18558 1.89214 0
M  V30 12932 H 1233.06 3.34774 2.47114 0
M  V30 12933 H 1231.94 4.13796 3.60645 0
M  V30 12934 H 1232.2 2.40401 3.71026 0
M  V30 12935 N 1231.26 -0.58723 1.46251 0
M  V30 12936 C 1232.5 -1.3476 1.51551 0
M  V30 12937 C 1232.84 -1.93499 0.16483 0
M  V30 12938 O 1232.11 -1.7622 -0.823207 0
M  V30 12939 C 1232.39 -2.48033 2.61059 0
M  V30 12940 C 1232.25 -1.94358 4.05642 0
M  V30 12941 C 1233.57 -3.50096 2.66685 0
M  V30 12942 H 1230.69 -0.48863 0.551733 0
M  V30 12943 H 1233.33 -0.660097 1.78165 0
M  V30 12944 H 1231.48 -3.06679 2.38496 0
M  V30 12945 H 1233.15 -1.40204 4.39478 0
M  V30 12946 H 1231.39 -1.25217 4.15335 0
M  V30 12947 H 1232.06 -2.76105 4.77986 0
M  V30 12948 H 1234.54 -3.01324 2.86955 0
M  V30 12949 H 1233.42 -4.26817 3.45135 0
M  V30 12950 H 1233.68 -4.07032 1.7256 0
M  V30 12951 N 1232.74 -1.33881 -0.831482 0
M  V30 12952 C 1233.65 -1.26802 -1.97379 0
M  V30 12953 C 1234.66 -0.177233 -1.73095 0
M  V30 12954 O 1235.84 -0.402163 -1.97344 0
M  V30 12955 C 1232.9 -1.01474 -3.31517 0
M  V30 12956 C 1231.96 -2.19626 -3.68867 0
M  V30 12957 C 1231.2 -1.95497 -4.96605 0
M  V30 12958 O 1231.42 -0.908948 -5.63111 0
M  V30 12959 O 1230.35 -2.82226 -5.31632 0
M  V30 12960 H 1234.18 -2.22883 -2.06293 0
M  V30 12961 H 1231.76 -1.14001 -0.965613 0
M  V30 12962 H 1233.65 -0.890954 -4.11874 0
M  V30 12963 H 1232.32 -0.0842656 -3.2359 0
M  V30 12964 H 1231.23 -2.37561 -2.88991 0
M  V30 12965 H 1232.56 -3.11034 -3.81469 0
M  V30 12966 N 1234.21 1.05064 -1.1747 0
M  V30 12967 C 1235.44 1.81761 -0.988464 0
M  V30 12968 C 1235.86 1.83028 0.463272 0
M  V30 12969 O 1235.21 1.25846 1.32171 0
M  V30 12970 C 1235.26 3.2782 -1.5237 0
M  V30 12971 O 1234.99 3.26726 -2.91859 0
M  V30 12972 C 1236.49 4.212 -1.38223 0
M  V30 12973 H 1233.71 0.572712 -0.349631 0
M  V30 12974 H 1236.25 1.32477 -1.55789 0
M  V30 12975 H 1234.41 3.7437 -0.996272 0
M  V30 12976 H 1234.82 4.18151 -3.16623 0
M  V30 12977 H 1236.29 5.2166 -1.80485 0
M  V30 12978 H 1236.77 4.37962 -0.329491 0
M  V30 12979 H 1237.38 3.80506 -1.89988 0
M  V30 12980 N 1235.69 0.975146 1.23809 0
M  V30 12981 C 1236.64 0.510761 2.25077 0
M  V30 12982 C 1237.61 -0.447605 1.59955 0
M  V30 12983 O 1238.79 -0.356318 1.87443 0
M  V30 12984 C 1235.93 -0.185755 3.446 0
M  V30 12985 C 1235.05 0.812254 4.24295 0
M  V30 12986 C 1234.18 0.0910835 5.31122 0
M  V30 12987 C 1233.22 1.07866 6.02521 0
M  V30 12988 N 1232.36 0.386995 7.01033 0
M  V30 12989 H 1237.2 1.37913 2.64166 0
M  V30 12990 H 1234.73 0.691184 1.2985 0
M  V30 12991 H 1236.69 -0.606341 4.1277 0
M  V30 12992 H 1235.32 -1.01803 3.06327 0
M  V30 12993 H 1234.37 1.35125 3.55592 0
M  V30 12994 H 1235.69 1.56502 4.73612 0
M  V30 12995 H 1234.84 -0.387129 6.05464 0
M  V30 12996 H 1233.58 -0.694324 4.82732 0
M  V30 12997 H 1232.58 1.56767 5.26976 0
M  V30 12998 H 1233.81 1.86464 6.52999 0
M  V30 12999 H 1231.76 -0.3793 6.54903 0
M  V30 13000 H 1231.67 1.0785 7.48268 0
M  V30 13001 H 1232.94 -0.0690036 7.79469 0
M  V30 13002 N 1237.17 -1.38817 0.746158 0
M  V30 13003 C 1238.1 -2.28116 0.0620717 0
M  V30 13004 C 1239.08 -1.44984 -0.736097 0
M  V30 13005 O 1240.26 -1.7436 -0.7163 0
M  V30 13006 C 1237.39 -3.25992 -0.919065 0
M  V30 13007 C 1236.44 -4.25992 -0.208033 0
M  V30 13008 S 1237.27 -5.24374 1.08593 0
M  V30 13009 C 1238.43 -6.25807 0.107674 0
M  V30 13010 H 1238.66 -2.85787 0.819331 0
M  V30 13011 H 1236.19 -1.44708 0.538422 0
M  V30 13012 H 1238.15 -3.82899 -1.47982 0
M  V30 13013 H 1236.81 -2.67318 -1.64924 0
M  V30 13014 H 1236 -4.9495 -0.95084 0
M  V30 13015 H 1235.61 -3.72943 0.280998 0
M  V30 13016 H 1237.9 -6.73568 -0.728905 0
M  V30 13017 H 1238.84 -7.03959 0.764698 0
M  V30 13018 H 1239.25 -5.63855 -0.269706 0
M  V30 13019 N 1238.65 -0.49465 -1.49636 0
M  V30 13020 C 1239.56 0.291881 -2.32777 0
M  V30 13021 C 1240.57 0.973468 -1.44221 0
M  V30 13022 O 1241.75 0.956252 -1.77251 0
M  V30 13023 C 1238.81 1.34609 -3.19502 0
M  V30 13024 C 1237.88 0.678611 -4.23903 0
M  V30 13025 C 1237.11 1.68259 -5.06483 0
M  V30 13026 O 1237.33 2.91176 -4.90482 0
M  V30 13027 O 1236.27 1.24141 -5.88959 0
M  V30 13028 H 1240.09 -0.388459 -3.01205 0
M  V30 13029 H 1237.68 -0.256086 -1.47189 0
M  V30 13030 H 1239.56 1.95617 -3.73245 0
M  V30 13031 H 1238.23 2.00947 -2.53775 0
M  V30 13032 H 1237.14 0.0289541 -3.74089 0
M  V30 13033 H 1238.47 0.0577817 -4.92166 0
M  V30 13034 N 1240.13 1.55939 -0.228214 0
M  V30 13035 C 1241.07 2.21957 0.69556 0
M  V30 13036 C 1242.07 1.20109 1.19458 0
M  V30 13037 O 1243.27 1.38171 1.15364 0
M  V30 13038 H 1239.65 0.711744 0.242744 0
M  V30 13039 H 1241.62 2.98177 0.115403 0
M  V30 13040 C 1240.37 2.91847 1.88999 0
M  V30 13041 H 1239.69 3.69978 1.51512 0
M  V30 13042 H 1241.13 3.4143 2.51399 0
M  V30 13043 C 1239.59 1.94683 2.74954 0
M  V30 13044 O 1240.12 1.468 3.73915 0
M  V30 13045 N 1238.33 1.62188 2.41129 0
M  V30 13046 H 1237.87 2.01322 1.60709 0
M  V30 13047 H 1237.83 0.9744 2.98919 0
M  V30 13048 N 1241.6 -0.0451101 1.57535 0
M  V30 13049 C 1242.55 -1.05066 2.05499 0
M  V30 13050 C 1243.52 -1.36884 0.940843 0
M  V30 13051 O 1244.71 -1.47497 1.21034 0
M  V30 13052 C 1241.85 -2.35139 2.52594 0
M  V30 13053 C 1240.96 -2.0962 3.77735 0
M  V30 13054 C 1240.09 -3.33447 4.13505 0
M  V30 13055 C 1239.13 -3.03411 5.31609 0
M  V30 13056 N 1238.27 -4.19644 5.62888 0
M  V30 13057 H 1243.11 -0.63469 2.91163 0
M  V30 13058 H 1240.65 -0.30179 1.43971 0
M  V30 13059 H 1242.61 -3.11118 2.7796 0
M  V30 13060 H 1241.24 -2.74489 1.69869 0
M  V30 13061 H 1240.29 -1.24211 3.59549 0
M  V30 13062 H 1241.6 -1.83452 4.63839 0
M  V30 13063 H 1240.75 -4.17805 4.39914 0
M  V30 13064 H 1239.49 -3.62715 3.2602 0
M  V30 13065 H 1238.5 -2.17453 5.04969 0
M  V30 13066 H 1239.72 -2.75438 6.20734 0
M  V30 13067 H 1237.67 -4.48893 4.78363 0
M  V30 13068 H 1237.59 -3.96843 6.43468 0
M  V30 13069 H 1238.85 -5.04921 5.93865 0
M  V30 13070 N 1243.08 -1.54377 -0.317073 0
M  V30 13071 C 1244.49 -1.64062 -0.891105 0
M  V30 13072 C 1244.84 -0.538863 -1.88655 0
M  V30 13073 O 1243.97 0.32718 -2.13912 0
M  V30 13074 C 1244.56 -2.97395 -1.62302 0
M  V30 13075 C 1243.12 -3.09253 -2.14568 0
M  V30 13076 C 1242.27 -2.59664 -0.973146 0
M  V30 13077 H 1245.22 -1.58418 -0.0944829 0
M  V30 13078 H 1245.24 -2.87918 -2.48764 0
M  V30 13079 H 1244.75 -3.77562 -0.898268 0
M  V30 13080 H 1242.86 -2.33774 -2.90139 0
M  V30 13081 H 1242.97 -4.15159 -2.39123 0
M  V30 13082 H 1241.33 -2.15719 -1.35416 0
M  V30 13083 H 1242.12 -3.42294 -0.262611 0
M  V30 13084 N 1244.56 0.579466 -1.4656 0
M  V30 13085 C 1245.79 1.36351 -1.55615 0
M  V30 13086 C 1246.2 1.87755 -0.198405 0
M  V30 13087 O 1245.56 1.63795 0.804834 0
M  V30 13088 C 1245.61 2.54881 -2.56355 0
M  V30 13089 O 1245.33 2.05607 -3.86856 0
M  V30 13090 C 1246.83 3.47391 -2.75381 0
M  V30 13091 H 1244.05 0.416426 -0.526147 0
M  V30 13092 H 1246.6 0.704134 -1.91995 0
M  V30 13093 H 1244.75 3.16802 -2.2297 0
M  V30 13094 H 1245.17 2.82823 -4.41714 0
M  V30 13095 H 1246.64 4.27031 -3.49783 0
M  V30 13096 H 1247.12 3.99532 -1.82403 0
M  V30 13097 H 1247.72 2.91303 -3.09875 0
M  V30 13098 N 1246.04 1.3432 0.824371 0
M  V30 13099 C 1247.26 1.2982 1.61745 0
M  V30 13100 C 1247.69 -0.125298 1.87682 0
M  V30 13101 O 1247.05 -1.08658 1.45131 0
M  V30 13102 C 1247.09 2.09327 2.93623 0
M  V30 13103 O 1246.2 1.4618 3.85623 0
M  V30 13104 H 1245.54 0.445929 0.491979 0
M  V30 13105 H 1248.07 1.77101 1.02452 0
M  V30 13106 H 1248.08 2.20629 3.43201 0
M  V30 13107 H 1246.75 3.12825 2.74069 0
M  V30 13108 H 1245.33 1.43611 3.44137 0
M  V30 13109 N 1247.52 -1.0444 1.18026 0
M  V30 13110 C 1248.74 -1.81772 0.998684 0
M  V30 13111 C 1249.17 -1.82682 -0.448225 0
M  V30 13112 O 1248.52 -1.24136 -1.32136 0
M  V30 13113 C 1248.57 -3.2542 1.55352 0
M  V30 13114 O 1247.68 -4.05103 0.772351 0
M  V30 13115 H 1247.02 -0.561731 0.354054 0
M  V30 13116 H 1249.55 -1.31557 1.56697 0
M  V30 13117 H 1249.56 -3.76206 1.57903 0
M  V30 13118 H 1248.23 -3.24073 2.60672 0
M  V30 13119 H 1246.81 -3.63798 0.818852 0
M  V30 13120 N 1248.99 -0.981699 -1.2329 0
M  V30 13121 C 1249.9 -0.531296 -2.28505 0
M  V30 13122 C 1250.92 0.414531 -1.6899 0
M  V30 13123 O 1252.1 0.284129 -1.99386 0
M  V30 13124 C 1249.16 0.157864 -3.4634 0
M  V30 13125 C 1248.22 -0.829527 -4.21209 0
M  V30 13126 C 1247.46 -0.17316 -5.33419 0
M  V30 13127 O 1247.68 1.03549 -5.60922 0
M  V30 13128 O 1246.61 -0.872385 -5.95544 0
M  V30 13129 H 1250.44 -1.40633 -2.69177 0
M  V30 13130 H 1248.02 -0.749395 -1.29246 0
M  V30 13131 H 1249.91 0.544394 -4.17869 0
M  V30 13132 H 1248.58 1.00764 -3.07617 0
M  V30 13133 H 1247.49 -1.26678 -3.51999 0
M  V30 13134 H 1248.82 -1.64815 -4.63785 0
M  V30 13135 N 1250.47 1.3842 -0.753509 0
M  V30 13136 C 1251.4 2.33073 -0.141198 0
M  V30 13137 C 1252.38 1.54863 0.70367 0
M  V30 13138 O 1253.57 1.8318 0.644872 0
M  V30 13139 C 1250.7 3.39043 0.752802 0
M  V30 13140 C 1249.65 4.27999 0.0106692 0
M  V30 13141 C 1248.98 5.24824 1.02291 0
M  V30 13142 C 1250.28 5.09308 -1.15768 0
M  V30 13143 H 1251.97 2.84528 -0.93188 0
M  V30 13144 H 1249.52 1.36802 -0.449567 0
M  V30 13145 H 1251.47 4.04224 1.19083 0
M  V30 13146 H 1250.2 2.8607 1.57581 0
M  V30 13147 H 1248.85 3.64323 -0.407939 0
M  V30 13148 H 1248.5 4.68139 1.83998 0
M  V30 13149 H 1248.2 5.85196 0.53101 0
M  V30 13150 H 1249.73 5.92882 1.46026 0
M  V30 13151 H 1251.14 5.6773 -0.797203 0
M  V30 13152 H 1249.54 5.78914 -1.58044 0
M  V30 13153 H 1250.61 4.43051 -1.97062 0
M  V30 13154 N 1251.95 0.502579 1.49372 0
M  V30 13155 C 1252.88 -0.311743 2.2707 0
M  V30 13156 C 1253.9 -0.929204 1.33677 0
M  V30 13157 O 1255.08 -0.812277 1.58948 0
M  V30 13158 C 1252.18 -1.45404 3.06122 0
M  V30 13159 C 1251.36 -0.943591 4.27101 0
M  V30 13160 C 1250.42 -1.96368 4.88186 0
M  V30 13161 O 1249.44 -1.5316 5.48207 0
M  V30 13162 N 1250.64 -3.29419 4.77978 0
M  V30 13163 H 1253.41 0.354503 2.97596 0
M  V30 13164 H 1250.97 0.335222 1.58392 0
M  V30 13165 H 1252.96 -2.13404 3.43862 0
M  V30 13166 H 1251.53 -2.02441 2.38194 0
M  V30 13167 H 1250.75 -0.0884372 3.94101 0
M  V30 13168 H 1252.04 -0.580983 5.05472 0
M  V30 13169 H 1251.44 -3.67211 4.30317 0
M  V30 13170 H 1250 -3.93129 5.19897 0
M  V30 13171 N 1253.43 -1.55816 0.23648 0
M  V30 13172 C 1254.38 -2.20938 -0.66745 0
M  V30 13173 C 1255.35 -1.16982 -1.17917 0
M  V30 13174 O 1256.53 -1.45392 -1.23555 0
M  V30 13175 C 1253.67 -2.90469 -1.86337 0
M  V30 13176 C 1252.78 -4.09056 -1.38915 0
M  V30 13177 C 1251.92 -4.6633 -2.54382 0
M  V30 13178 C 1250.96 -5.77187 -2.0377 0
M  V30 13179 N 1250.09 -6.28688 -3.12564 0
M  V30 13180 H 1254.93 -2.97814 -0.105411 0
M  V30 13181 H 1252.47 -1.47045 -0.0402712 0
M  V30 13182 H 1254.43 -3.28975 -2.56576 0
M  V30 13183 H 1253.06 -2.16086 -2.39806 0
M  V30 13184 H 1252.11 -3.75934 -0.581173 0
M  V30 13185 H 1253.42 -4.89115 -0.978152 0
M  V30 13186 H 1252.58 -5.07355 -3.32679 0
M  V30 13187 H 1251.32 -3.85464 -2.98778 0
M  V30 13188 H 1250.32 -5.35648 -1.23939 0
M  V30 13189 H 1251.55 -6.59896 -1.60355 0
M  V30 13190 H 1249.49 -5.50731 -3.56414 0
M  V30 13191 H 1249.41 -7.03911 -2.75762 0
M  V30 13192 H 1250.68 -6.74371 -3.90952 0
M  V30 13193 N 1254.91 0.036755 -1.57557 0
M  V30 13194 C 1255.84 1.07261 -2.01421 0
M  V30 13195 C 1256.82 1.35609 -0.897161 0
M  V30 13196 O 1258 1.48395 -1.16237 0
M  V30 13197 C 1255.13 2.40912 -2.38074 0
M  V30 13198 C 1254.17 2.28471 -3.60143 0
M  V30 13199 S 1255.01 1.64544 -5.09594 0
M  V30 13200 C 1256.16 2.99701 -5.49482 0
M  V30 13201 H 1256.4 0.698959 -2.88967 0
M  V30 13202 H 1253.93 0.246481 -1.5242 0
M  V30 13203 H 1255.89 3.17776 -2.59862 0
M  V30 13204 H 1254.55 2.75427 -1.50993 0
M  V30 13205 H 1253.74 3.27117 -3.8342 0
M  V30 13206 H 1253.34 1.59749 -3.38166 0
M  V30 13207 H 1255.64 3.96032 -5.49695 0
M  V30 13208 H 1256.58 2.81166 -6.49885 0
M  V30 13209 H 1256.99 3.0192 -4.76975 0
M  V30 13210 N 1256.39 1.54543 0.308881 0
M  V30 13211 C 1257.32 1.81309 1.40212 0
M  V30 13212 C 1258.33 0.69568 1.47187 0
M  V30 13213 O 1259.52 0.973034 1.49647 0
M  V30 13214 C 1256.62 1.92901 2.78644 0
M  V30 13215 C 1255.79 3.23222 2.94697 0
M  V30 13216 C 1254.85 3.25329 4.13579 0
M  V30 13217 O 1253.88 3.989 4.06039 0
M  V30 13218 N 1255.08 2.50158 5.23833 0
M  V30 13219 H 1257.84 2.75659 1.1761 0
M  V30 13220 H 1255.41 1.54021 0.498925 0
M  V30 13221 H 1257.4 1.91721 3.56406 0
M  V30 13222 H 1255.97 1.05582 2.9423 0
M  V30 13223 H 1255.19 3.37241 2.04113 0
M  V30 13224 H 1256.48 4.09238 3.02328 0
M  V30 13225 H 1255.87 1.90002 5.32838 0
M  V30 13226 H 1254.43 2.5474 5.99959 0
M  V30 13227 N 1257.86 -0.571685 1.46866 0
M  V30 13228 C 1258.77 -1.70758 1.60869 0
M  V30 13229 C 1259.79 -1.66903 0.49186 0
M  V30 13230 O 1260.97 -1.86613 0.757468 0
M  V30 13231 C 1258.03 -3.07267 1.60586 0
M  V30 13232 C 1257.09 -3.22301 2.83585 0
M  V30 13233 C 1256.32 -4.52298 2.83306 0
M  V30 13234 O 1256.55 -5.36869 1.92685 0
M  V30 13235 O 1255.48 -4.70814 3.7499 0
M  V30 13236 H 1259.31 -1.6189 2.56954 0
M  V30 13237 H 1256.89 -0.740018 1.29785 0
M  V30 13238 H 1258.77 -3.8853 1.63163 0
M  V30 13239 H 1257.45 -3.16549 0.676637 0
M  V30 13240 H 1256.36 -2.4049 2.86558 0
M  V30 13241 H 1257.69 -3.17916 3.75753 0
M  V30 13242 N 1259.34 -1.34755 -0.817236 0
M  V30 13243 C 1260.29 -1.26801 -1.92848 0
M  V30 13244 C 1261.26 -0.142077 -1.65491 0
M  V30 13245 O 1262.44 -0.324006 -1.88029 0
M  V30 13246 C 1259.58 -1.03513 -3.2921 0
M  V30 13247 C 1258.7 -2.24932 -3.68822 0
M  V30 13248 C 1257.83 -1.94881 -4.94161 0
M  V30 13249 C 1256.87 -3.12411 -5.2637 0
M  V30 13250 N 1256.01 -2.82207 -6.42887 0
M  V30 13251 H 1260.85 -2.21832 -1.98983 0
M  V30 13252 H 1258.38 -1.10284 -0.973439 0
M  V30 13253 H 1260.34 -0.88047 -4.07803 0
M  V30 13254 H 1258.97 -0.121478 -3.22571 0
M  V30 13255 H 1258.02 -2.51299 -2.85575 0
M  V30 13256 H 1259.34 -3.12726 -3.88592 0
M  V30 13257 H 1258.49 -1.76184 -5.80555 0
M  V30 13258 H 1257.23 -1.04355 -4.76405 0
M  V30 13259 H 1256.23 -3.31698 -4.3847 0
M  V30 13260 H 1257.46 -4.03724 -5.46062 0
M  V30 13261 H 1255.41 -1.94263 -6.26576 0
M  V30 13262 H 1255.32 -3.63534 -6.62857 0
M  V30 13263 H 1256.59 -2.67026 -7.32337 0
M  V30 13264 N 1260.82 1.03812 -1.18578 0
M  V30 13265 C 1261.75 2.11928 -0.872871 0
M  V30 13266 C 1262.76 1.62275 0.130592 0
M  V30 13267 O 1263.95 1.78233 -0.0975869 0
M  V30 13268 C 1261.05 3.37714 -0.283321 0
M  V30 13269 C 1260.23 4.16591 -1.33307 0
M  V30 13270 C 1259.29 5.20701 -0.758746 0
M  V30 13271 O 1258.31 5.50837 -1.43412 0
M  V30 13272 N 1259.51 5.78811 0.442505 0
M  V30 13273 H 1262.28 2.39364 -1.80346 0
M  V30 13274 H 1259.84 1.20027 -1.08652 0
M  V30 13275 H 1261.83 4.04538 0.114524 0
M  V30 13276 H 1260.4 3.07699 0.551347 0
M  V30 13277 H 1259.62 3.45051 -1.90613 0
M  V30 13278 H 1260.91 4.66082 -2.04071 0
M  V30 13279 H 1260.31 5.56631 1.00889 0
M  V30 13280 H 1258.86 6.47089 0.78224 0
M  V30 13281 N 1262.3 0.988223 1.22768 0
M  V30 13282 C 1263.24 0.534605 2.24523 0
M  V30 13283 C 1264.21 -0.430615 1.60421 0
M  V30 13284 O 1265.4 -0.336417 1.87811 0
M  V30 13285 C 1262.54 -0.149195 3.44777 0
M  V30 13286 C 1261.65 0.85721 4.2341 0
M  V30 13287 C 1260.79 0.147411 5.30995 0
M  V30 13288 C 1259.83 1.1425 6.01343 0
M  V30 13289 N 1258.96 0.461327 7.00583 0
M  V30 13290 H 1263.8 1.40708 2.62689 0
M  V30 13291 H 1261.34 0.704918 1.2911 0
M  V30 13292 H 1263.3 -0.562527 4.1339 0
M  V30 13293 H 1261.93 -0.985485 3.07389 0
M  V30 13294 H 1260.98 1.38889 3.54138 0
M  V30 13295 H 1262.29 1.61517 4.71926 0
M  V30 13296 H 1261.45 -0.32289 6.0584 0
M  V30 13297 H 1260.19 -0.643085 4.83442 0
M  V30 13298 H 1259.19 1.62348 5.25284 0
M  V30 13299 H 1260.42 1.93379 6.50985 0
M  V30 13300 H 1258.36 -0.309818 6.55268 0
M  V30 13301 H 1258.28 1.15781 7.47082 0
M  V30 13302 H 1259.55 0.0136734 7.79499 0
M  V30 13303 N 1263.78 -1.38018 0.760839 0
M  V30 13304 C 1264.71 -2.32995 0.153557 0
M  V30 13305 C 1265.69 -1.55234 -0.695448 0
M  V30 13306 O 1266.87 -1.8352 -0.635148 0
M  V30 13307 C 1264 -3.39437 -0.734811 0
M  V30 13308 C 1262.96 -4.27998 0.0120287 0
M  V30 13309 C 1262.28 -5.25359 -0.995067 0
M  V30 13310 C 1263.58 -5.08687 1.18468 0
M  V30 13311 H 1265.28 -2.8403 0.946956 0
M  V30 13312 H 1262.82 -1.36562 0.456816 0
M  V30 13313 H 1264.77 -4.0485 -1.16938 0
M  V30 13314 H 1263.5 -2.86901 -1.56061 0
M  V30 13315 H 1262.16 -3.64102 0.427254 0
M  V30 13316 H 1261.81 -4.69108 -1.81512 0
M  V30 13317 H 1261.51 -5.85469 -0.499969 0
M  V30 13318 H 1263.03 -5.93648 -1.4288 0
M  V30 13319 H 1264.44 -5.67299 0.8273 0
M  V30 13320 H 1262.84 -5.78068 1.61112 0
M  V30 13321 H 1263.91 -4.42 1.99409 0
M  V30 13322 N 1265.25 -0.510493 -1.49103 0
M  V30 13323 C 1266.5 0.0325393 -2.01674 0
M  V30 13324 C 1266.82 1.37162 -1.39448 0
M  V30 13325 O 1268.02 2.00189 -1.83402 0
M  V30 13326 C 1266.48 0.108433 -3.59737 0
M  V30 13327 C 1266.09 -1.22458 -4.30939 0
M  V30 13328 C 1267.83 0.601326 -4.20219 0
M  V30 13329 C 1265.74 -1.11033 -5.80884 0
M  V30 13330 H 1264.67 0.0159333 -0.753832 0
M  V30 13331 H 1267.32 -0.651344 -1.71551 0
M  V30 13332 H 1265.7 0.856974 -3.86616 0
M  V30 13333 H 1266.87 -1.98715 -4.15751 0
M  V30 13334 H 1265.19 -1.65166 -3.82242 0
M  V30 13335 H 1267.79 0.704462 -5.30039 0
M  V30 13336 H 1268.13 1.60247 -3.84222 0
M  V30 13337 H 1268.66 -0.0909561 -3.97696 0
M  V30 13338 H 1265.4 -2.08603 -6.21422 0
M  V30 13339 H 1264.92 -0.388798 -5.98539 0
M  V30 13340 H 1266.6 -0.792949 -6.42123 0
M  V30 13341 N 1266.73 1.55688 -0.24474 0
M  V30 13342 C 1267.68 2.21289 0.655723 0
M  V30 13343 C 1268.65 1.17606 1.17295 0
M  V30 13344 O 1269.83 1.46045 1.22782 0
M  V30 13345 C 1266.97 2.91453 1.84794 0
M  V30 13346 C 1266.09 4.09787 1.36744 0
M  V30 13347 C 1265.22 4.67672 2.51905 0
M  V30 13348 C 1264.26 5.78259 2.00706 0
M  V30 13349 N 1263.4 6.30336 3.09225 0
M  V30 13350 H 1268.24 2.97865 0.0896156 0
M  V30 13351 H 1265.77 1.47064 0.0324725 0
M  V30 13352 H 1267.73 3.30331 2.54828 0
M  V30 13353 H 1266.36 2.17355 2.38656 0
M  V30 13354 H 1265.41 3.76237 0.561228 0
M  V30 13355 H 1266.73 4.89627 0.952199 0
M  V30 13356 H 1265.88 5.09113 3.29984 0
M  V30 13357 H 1264.62 3.87044 2.9673 0
M  V30 13358 H 1263.62 5.36298 1.21097 0
M  V30 13359 H 1264.85 6.60737 1.56853 0
M  V30 13360 H 1262.8 5.52614 3.53489 0
M  V30 13361 H 1262.71 7.05364 2.72025 0
M  V30 13362 H 1263.98 6.76435 3.8737 0
M  V30 13363 N 1268.21 -0.0283989 1.57574 0
M  V30 13364 C 1269.12 -1.04575 2.10003 0
M  V30 13365 C 1270.14 -1.39588 1.03881 0
M  V30 13366 O 1271.31 -1.48894 1.35619 0
M  V30 13367 C 1268.38 -2.32755 2.56955 0
M  V30 13368 C 1267.44 -2.04317 3.77562 0
M  V30 13369 C 1266.67 -3.26385 4.22266 0
M  V30 13370 O 1266.89 -4.37082 3.66491 0
M  V30 13371 O 1265.83 -3.12046 5.14695 0
M  V30 13372 H 1269.65 -0.630183 2.9709 0
M  V30 13373 H 1267.24 -0.245423 1.4737 0
M  V30 13374 H 1269.12 -3.08111 2.87482 0
M  V30 13375 H 1267.8 -2.73605 1.72979 0
M  V30 13376 H 1266.7 -1.26527 3.52054 0
M  V30 13377 H 1268.04 -1.68321 4.62524 0
M  V30 13378 N 1269.69 -1.54705 -0.300681 0
M  V30 13379 C 1271.1 -1.64998 -0.873654 0
M  V30 13380 C 1271.45 -0.558842 -1.88073 0
M  V30 13381 O 1270.57 0.304474 -2.14247 0
M  V30 13382 C 1271.17 -2.99099 -1.59138 0
M  V30 13383 C 1269.73 -3.11512 -2.11276 0
M  V30 13384 C 1268.88 -2.60681 -0.945551 0
M  V30 13385 H 1271.83 -1.5851 -0.0776752 0
M  V30 13386 H 1271.85 -2.9054 -2.45696 0
M  V30 13387 H 1271.36 -3.78493 -0.858172 0
M  V30 13388 H 1269.46 -2.36838 -2.87643 0
M  V30 13389 H 1269.57 -4.17672 -2.34707 0
M  V30 13390 H 1267.94 -2.17143 -1.33121 0
M  V30 13391 H 1268.72 -3.42553 -0.226291 0
M  V30 13392 N 1271.17 0.563888 -1.47167 0
M  V30 13393 C 1272.41 1.31875 -1.53145 0
M  V30 13394 C 1272.74 1.94047 -0.192518 0
M  V30 13395 O 1272.01 1.79577 0.782872 0
M  V30 13396 H 1270.59 0.489694 -0.5641 0
M  V30 13397 H 1273.25 0.658976 -1.83422 0
M  V30 13398 H 1272.34 2.11574 -2.2944 0
M  V30 13399 N 1272.64 1.35187 0.810078 0
M  V30 13400 C 1273.87 1.31528 1.60359 0
M  V30 13401 C 1274.29 -0.105385 1.87805 0
M  V30 13402 O 1273.65 -1.07113 1.46276 0
M  V30 13403 C 1273.7 2.12429 2.91386 0
M  V30 13404 O 1272.8 1.50262 3.84051 0
M  V30 13405 H 1272.15 0.451122 0.487222 0
M  V30 13406 H 1274.68 1.78178 1.00568 0
M  V30 13407 H 1274.69 2.24257 3.40841 0
M  V30 13408 H 1273.36 3.15714 2.70735 0
M  V30 13409 H 1271.94 1.47253 3.42594 0
M  V30 13410 N 1274.12 -1.03182 1.19127 0
M  V30 13411 C 1275.37 -1.76184 0.990134 0
M  V30 13412 C 1275.69 -1.88986 -0.480546 0
M  V30 13413 O 1274.96 -1.4213 -1.34817 0
M  V30 13414 H 1273.54 -0.652668 0.363364 0
M  V30 13415 H 1276.2 -1.24481 1.49968 0
M  V30 13416 H 1275.3 -2.77119 1.43568 0
M  V30 13417 N 1275.6 -0.99472 -1.22242 0
M  V30 13418 C 1276.85 -0.672596 -1.91322 0
M  V30 13419 C 1277.18 0.793542 -1.77247 0
M  V30 13420 O 1276.45 1.57407 -1.14251 0
M  V30 13421 C 1276.74 -1.08155 -3.43474 0
M  V30 13422 C 1276.59 -2.60638 -3.6659 0
M  V30 13423 C 1277.91 -0.636161 -4.35478 0
M  V30 13424 H 1275.03 -0.24582 -0.694796 0
M  V30 13425 H 1277.67 -1.23857 -1.44082 0
M  V30 13426 H 1275.82 -0.599987 -3.83839 0
M  V30 13427 H 1277.49 -3.16479 -3.35617 0
M  V30 13428 H 1275.74 -3.02624 -3.10808 0
M  V30 13429 H 1276.41 -2.84304 -4.73155 0
M  V30 13430 H 1278.88 -1.04982 -4.02639 0
M  V30 13431 H 1277.76 -0.950584 -5.40606 0
M  V30 13432 H 1278.02 0.4631 -4.39668 0
M  V30 13433 N 1277.08 1.37613 -0.768148 0
M  V30 13434 C 1278.49 1.82437 -0.396703 0
M  V30 13435 C 1278.84 1.64019 1.07668 0
M  V30 13436 O 1277.97 1.14932 1.83356 0
M  V30 13437 C 1278.56 3.31207 -0.713265 0
M  V30 13438 C 1277.12 3.74323 -0.39492 0
M  V30 13439 C 1276.27 2.60191 -0.958962 0
M  V30 13440 H 1279.22 1.26135 -0.963099 0
M  V30 13441 H 1279.24 3.805 0.00337228 0
M  V30 13442 H 1278.75 3.4458 -1.78567 0
M  V30 13443 H 1276.85 3.66521 0.670313 0
M  V30 13444 H 1276.96 4.70558 -0.900653 0
M  V30 13445 H 1275.33 2.51797 -0.383423 0
M  V30 13446 H 1276.11 2.76358 -2.03669 0
M  V30 13447 N 1278.56 0.518393 1.4883 0
M  V30 13448 C 1279.8 -0.0199348 2.0279 0
M  V30 13449 C 1280.14 -1.35026 1.39576 0
M  V30 13450 O 1279.41 -1.86927 0.537449 0
M  V30 13451 C 1279.69 -0.154184 3.5977 0
M  V30 13452 C 1279.55 1.2005 4.33484 0
M  V30 13453 C 1280.87 -0.886547 4.31078 0
M  V30 13454 H 1277.98 -0.00577061 0.736977 0
M  V30 13455 H 1280.63 0.673178 1.77675 0
M  V30 13456 H 1278.78 -0.74451 3.81299 0
M  V30 13457 H 1280.45 1.83104 4.23404 0
M  V30 13458 H 1278.69 1.78537 3.95357 0
M  V30 13459 H 1279.36 1.05968 5.41733 0
M  V30 13460 H 1281.84 -0.385711 4.14308 0
M  V30 13461 H 1280.71 -0.949355 5.40628 0
M  V30 13462 H 1280.98 -1.93424 3.97542 0
M  V30 13463 N 1280.03 -1.55556 0.252993 0
M  V30 13464 C 1281.28 -1.99385 -0.370599 0
M  V30 13465 C 1281.61 -1.14101 -1.57145 0
M  V30 13466 O 1280.89 -0.205828 -1.93408 0
M  V30 13467 C 1281.17 -3.51672 -0.774503 0
M  V30 13468 C 1281.02 -4.47719 0.432159 0
M  V30 13469 C 1282.34 -4.0923 -1.61923 0
M  V30 13470 H 1279.46 -0.724858 -0.133231 0
M  V30 13471 H 1282.1 -1.86644 0.355522 0
M  V30 13472 H 1280.25 -3.62661 -1.39318 0
M  V30 13473 H 1281.93 -4.48704 1.07063 0
M  V30 13474 H 1280.17 -4.2029 1.07419 0
M  V30 13475 H 1280.84 -5.51898 0.106123 0
M  V30 13476 H 1283.32 -4.01381 -1.09693 0
M  V30 13477 H 1282.19 -5.16039 -1.87068 0
M  V30 13478 H 1282.45 -3.58067 -2.59307 0
M  V30 13479 N 1281.51 0.0200419 -1.57587 0
M  V30 13480 C 1282.44 1.01715 -2.10181 0
M  V30 13481 C 1283.42 1.37136 -1.00636 0
M  V30 13482 O 1284.61 1.45862 -1.2821 0
M  V30 13483 C 1281.74 2.31531 -2.58865 0
M  V30 13484 C 1280.69 2.10327 -3.72755 0
M  V30 13485 C 1280.02 3.45981 -4.07678 0
M  V30 13486 C 1281.32 1.4821 -5.0083 0
M  V30 13487 H 1283.01 0.579307 -2.93742 0
M  V30 13488 H 1280.56 0.277211 -1.41307 0
M  V30 13489 H 1282.51 3.01623 -2.94281 0
M  V30 13490 H 1281.24 2.77392 -1.72399 0
M  V30 13491 H 1279.89 1.42665 -3.37701 0
M  V30 13492 H 1279.54 3.89508 -3.18265 0
M  V30 13493 H 1279.24 3.32616 -4.84397 0
M  V30 13494 H 1280.77 4.17421 -4.45637 0
M  V30 13495 H 1282.18 2.08232 -5.34146 0
M  V30 13496 H 1280.58 1.45393 -5.82221 0
M  V30 13497 H 1281.65 0.448942 -4.82817 0
M  V30 13498 N 1282.99 1.54862 0.292472 0
M  V30 13499 C 1284.24 1.73756 1.02429 0
M  V30 13500 C 1284.55 0.535164 1.88137 0
M  V30 13501 O 1285.76 0.606092 2.64648 0
M  V30 13502 C 1284.21 3.0745 1.8709 0
M  V30 13503 C 1283.82 4.35195 1.06343 0
M  V30 13504 C 1285.57 3.357 2.59819 0
M  V30 13505 C 1283.47 5.59936 1.9033 0
M  V30 13506 H 1282.4 0.647617 0.386145 0
M  V30 13507 H 1285.05 1.81338 0.28086 0
M  V30 13508 H 1283.44 2.93855 2.65453 0
M  V30 13509 H 1284.61 4.5965 0.325335 0
M  V30 13510 H 1282.93 4.13944 0.451574 0
M  V30 13511 H 1285.52 4.26099 3.23023 0
M  V30 13512 H 1285.87 2.54956 3.29094 0
M  V30 13513 H 1286.4 3.50304 1.88499 0
M  V30 13514 H 1283.14 6.43372 1.25509 0
M  V30 13515 H 1282.66 5.39654 2.61789 0
M  V30 13516 H 1284.34 5.97512 2.48171 0
M  V30 13517 N 1284.47 -0.556076 1.47464 0
M  V30 13518 C 1285.7 -1.33858 1.57764 0
M  V30 13519 C 1286.11 -1.87415 0.22825 0
M  V30 13520 O 1285.47 -1.65054 -0.778674 0
M  V30 13521 C 1285.52 -2.5077 2.60378 0
M  V30 13522 O 1285.24 -1.99426 3.90078 0
M  V30 13523 C 1286.74 -3.42965 2.80873 0
M  V30 13524 H 1283.96 -0.408003 0.532705 0
M  V30 13525 H 1286.51 -0.673501 1.93091 0
M  V30 13526 H 1284.66 -3.13214 2.27982 0
M  V30 13527 H 1285.07 -2.75759 4.46158 0
M  V30 13528 H 1286.55 -4.21412 3.56533 0
M  V30 13529 H 1287.03 -3.96579 1.88737 0
M  V30 13530 H 1287.63 -2.86336 3.14471 0
M  V30 13531 N 1285.95 -1.35615 -0.802897 0
M  V30 13532 C 1287.18 -1.32217 -1.59142 0
M  V30 13533 C 1287.59 0.0995496 -1.88537 0
M  V30 13534 O 1286.95 1.05258 -1.49087 0
M  V30 13535 C 1287 -2.13048 -2.92049 0
M  V30 13536 O 1286.72 -3.49677 -2.63927 0
M  V30 13537 C 1288.22 -2.17278 -3.864 0
M  V30 13538 H 1285.44 -0.454054 -0.49404 0
M  V30 13539 H 1287.98 -1.78521 -0.997516 0
M  V30 13540 H 1286.14 -1.70334 -3.47944 0
M  V30 13541 H 1286.55 -3.917 -3.48814 0
M  V30 13542 H 1288.03 -2.7822 -4.76758 0
M  V30 13543 H 1288.5 -1.17253 -4.23259 0
M  V30 13544 H 1289.11 -2.6017 -3.3644 0
M  V30 13545 N 1287.43 1.02549 -1.19673 0
M  V30 13546 C 1288.36 2.12794 -0.961289 0
M  V30 13547 C 1289.34 1.69766 0.106575 0
M  V30 13548 O 1290.52 1.94138 -0.0491358 0
M  V30 13549 C 1287.65 3.4364 -0.502868 0
M  V30 13550 C 1286.61 4.00367 -1.51296 0
M  V30 13551 C 1285.93 5.26874 -0.911491 0
M  V30 13552 C 1287.23 4.34782 -2.89416 0
M  V30 13553 H 1288.93 2.32748 -1.88331 0
M  V30 13554 H 1286.47 1.11852 -0.906922 0
M  V30 13555 H 1288.42 4.20141 -0.325436 0
M  V30 13556 H 1287.15 3.23418 0.454764 0
M  V30 13557 H 1285.81 3.25964 -1.67759 0
M  V30 13558 H 1285.46 5.02971 0.0537982 0
M  V30 13559 H 1285.16 5.65791 -1.58602 0
M  V30 13560 H 1286.68 6.06039 -0.74493 0
M  V30 13561 H 1288.09 5.02207 -2.76516 0
M  V30 13562 H 1286.49 4.8479 -3.53693 0
M  V30 13563 H 1287.56 3.43935 -3.41814 0
M  V30 13564 N 1288.9 1.00119 1.21713 0
M  V30 13565 C 1289.83 0.578504 2.2622 0
M  V30 13566 C 1290.81 -0.398777 1.6536 0
M  V30 13567 O 1292 -0.287596 1.92059 0
M  V30 13568 C 1289.13 -0.0994508 3.47158 0
M  V30 13569 C 1288.08 0.79722 4.2051 0
M  V30 13570 C 1287.41 -0.0141125 5.34698 0
M  V30 13571 C 1288.71 2.09802 4.7831 0
M  V30 13572 H 1290.4 1.45208 2.6183 0
M  V30 13573 H 1287.95 0.699656 1.2586 0
M  V30 13574 H 1289.9 -0.406605 4.19434 0
M  V30 13575 H 1288.63 -1.00763 3.10667 0
M  V30 13576 H 1287.29 1.08814 3.50079 0
M  V30 13577 H 1286.93 -0.923468 4.9445 0
M  V30 13578 H 1286.63 0.582883 5.84702 0
M  V30 13579 H 1288.16 -0.31517 6.09786 0
M  V30 13580 H 1289.57 1.85427 5.42485 0
M  V30 13581 H 1287.97 2.64455 5.38687 0
M  V30 13582 H 1289.04 2.77132 3.97902 0
M  V30 13583 N 1290.38 -1.37203 0.775435 0
M  V30 13584 C 1291.63 -1.99897 0.341936 0
M  V30 13585 C 1291.96 -1.61414 -1.07978 0
M  V30 13586 O 1291.24 -0.862108 -1.7435 0
M  V30 13587 C 1291.52 -3.56755 0.489715 0
M  V30 13588 C 1291.37 -4.05135 1.95411 0
M  V30 13589 C 1292.69 -4.39978 -0.103779 0
M  V30 13590 H 1289.81 -0.726199 0.125717 0
M  V30 13591 H 1292.45 -1.62826 0.979167 0
M  V30 13592 H 1290.6 -3.88464 -0.0527684 0
M  V30 13593 H 1292.27 -3.83975 2.55658 0
M  V30 13594 H 1290.52 -3.57192 2.46164 0
M  V30 13595 H 1291.19 -5.14161 2.00855 0
M  V30 13596 H 1293.66 -4.14547 0.359134 0
M  V30 13597 H 1292.54 -5.48892 0.0297337 0
M  V30 13598 H 1292.8 -4.25658 -1.19448 0
M  V30 13599 N 1291.86 -0.526279 -1.48553 0
M  V30 13600 C 1293.11 0.0111473 -2.01697 0
M  V30 13601 C 1293.42 1.35675 -1.40895 0
M  V30 13602 O 1294.63 1.98233 -1.85515 0
M  V30 13603 C 1293.08 0.0702721 -3.59831 0
M  V30 13604 C 1292.69 -1.27022 -4.29616 0
M  V30 13605 C 1294.44 0.556722 -4.20834 0
M  V30 13606 C 1292.34 -1.17188 -5.79673 0
M  V30 13607 H 1291.27 0.00793697 -0.753958 0
M  V30 13608 H 1293.92 -0.669503 -1.70851 0
M  V30 13609 H 1292.31 0.81592 -3.87503 0
M  V30 13610 H 1293.48 -2.03114 -4.1362 0
M  V30 13611 H 1291.79 -1.69211 -3.80469 0
M  V30 13612 H 1294.39 0.648205 -5.30756 0
M  V30 13613 H 1294.73 1.56163 -3.859 0
M  V30 13614 H 1295.27 -0.133132 -3.97577 0
M  V30 13615 H 1292.01 -2.15182 -6.19174 0
M  V30 13616 H 1291.53 -0.452259 -5.98093 0
M  V30 13617 H 1293.21 -0.861011 -6.41245 0
M  V30 13618 N 1293.34 1.5542 -0.261239 0
M  V30 13619 C 1294.75 1.85161 0.239195 0
M  V30 13620 C 1295.1 1.18319 1.56509 0
M  V30 13621 O 1294.22 0.4666 2.1131 0
M  V30 13622 C 1294.82 3.3592 0.440781 0
M  V30 13623 C 1293.38 3.65837 0.885461 0
M  V30 13624 C 1292.53 2.77285 -0.0291982 0
M  V30 13625 H 1295.48 1.51158 -0.483417 0
M  V30 13626 H 1295.5 3.58276 1.28136 0
M  V30 13627 H 1295.01 3.84541 -0.524382 0
M  V30 13628 H 1293.11 3.22705 1.86259 0
M  V30 13629 H 1293.22 4.73469 0.732394 0
M  V30 13630 H 1291.59 2.50045 0.484701 0
M  V30 13631 H 1292.37 3.28716 -0.989992 0
M  V30 13632 N 1294.82 -0.0116844 1.57596 0
M  V30 13633 C 1296.06 -0.699994 1.90336 0
M  V30 13634 C 1296.39 -1.74067 0.861072 0
M  V30 13635 O 1295.67 -1.94119 -0.121712 0
M  V30 13636 C 1295.95 -1.35377 3.33684 0
M  V30 13637 C 1295.81 -0.325434 4.48621 0
M  V30 13638 C 1297.12 -2.28312 3.76247 0
M  V30 13639 H 1294.24 -0.253002 0.692213 0
M  V30 13640 H 1296.89 0.037211 1.89964 0
M  V30 13641 H 1295.04 -1.98212 3.34132 0
M  V30 13642 H 1296.71 0.302331 4.60308 0
M  V30 13643 H 1294.95 0.353527 4.32357 0
M  V30 13644 H 1295.62 -0.8217 5.4585 0
M  V30 13645 H 1298.1 -1.75505 3.77276 0
M  V30 13646 H 1296.97 -2.71028 4.77321 0
M  V30 13647 H 1297.23 -3.15727 3.09465 0
M  V30 13648 N 1296.29 -1.55015 -0.284256 0
M  V30 13649 C 1297.54 -1.7535 -1.01884 0
M  V30 13650 C 1297.87 -0.546825 -1.86342 0
M  V30 13651 O 1297.15 0.455832 -1.89083 0
M  V30 13652 C 1297.43 -3.05219 -1.91084 0
M  V30 13653 C 1297.28 -4.36219 -1.09694 0
M  V30 13654 C 1298.6 -3.31056 -2.89983 0
M  V30 13655 H 1295.72 -0.637981 -0.368984 0
M  V30 13656 H 1298.36 -1.87741 -0.292116 0
M  V30 13657 H 1296.51 -2.94786 -2.53048 0
M  V30 13658 H 1298.19 -4.58594 -0.498876 0
M  V30 13659 H 1296.43 -4.31951 -0.400078 0
M  V30 13660 H 1297.1 -5.23392 -1.75399 0
M  V30 13661 H 1299.58 -3.41209 -2.38151 0
M  V30 13662 H 1298.45 -4.23212 -3.49547 0
M  V30 13663 H 1298.71 -2.50153 -3.64521 0
M  V30 13664 N 1297.77 0.548248 -1.47757 0
M  V30 13665 C 1299.02 1.30694 -1.55071 0
M  V30 13666 C 1299.35 1.92994 -0.216075 0
M  V30 13667 O 1298.63 1.78341 0.776196 0
M  V30 13668 C 1298.91 2.41024 -2.67543 0
M  V30 13669 C 1298.76 1.83534 -4.10652 0
M  V30 13670 C 1300.08 3.42902 -2.75874 0
M  V30 13671 H 1297.2 0.47383 -0.564494 0
M  V30 13672 H 1299.84 0.612628 -1.79852 0
M  V30 13673 H 1297.99 3.00248 -2.46543 0
M  V30 13674 H 1299.66 1.28503 -4.4304 0
M  V30 13675 H 1297.91 1.14161 -4.18509 0
M  V30 13676 H 1298.58 2.63335 -4.85138 0
M  V30 13677 H 1301.05 2.9361 -2.94843 0
M  V30 13678 H 1299.93 4.17516 -3.5633 0
M  V30 13679 H 1300.19 4.02314 -1.83291 0
M  V30 13680 N 1299.25 1.36039 0.795694 0
M  V30 13681 C 1300.18 1.32528 1.92246 0
M  V30 13682 C 1301.16 0.197805 1.68946 0
M  V30 13683 O 1302.35 0.394474 1.90151 0
M  V30 13684 C 1299.48 1.10748 3.29169 0
M  V30 13685 C 1298.43 2.20253 3.66978 0
M  V30 13686 C 1297.76 1.83624 5.02181 0
M  V30 13687 C 1299.06 3.62296 3.76216 0
M  V30 13688 H 1300.75 2.2681 1.95442 0
M  V30 13689 H 1298.3 1.09181 0.938908 0
M  V30 13690 H 1300.25 1.06929 4.07608 0
M  V30 13691 H 1298.97 0.129141 3.26345 0
M  V30 13692 H 1297.63 2.23187 2.90832 0
M  V30 13693 H 1297.28 0.843804 4.95872 0
M  V30 13694 H 1296.98 2.56935 5.28449 0
M  V30 13695 H 1298.5 1.81349 5.83048 0
M  V30 13696 H 1299.92 3.61623 4.44861 0
M  V30 13697 H 1298.31 4.34459 4.13963 0
M  V30 13698 H 1299.38 3.97657 2.77483 0
M  V30 13699 N 1300.73 -1.01913 1.20215 0
M  V30 13700 C 1301.66 -2.12282 0.97256 0
M  V30 13701 C 1302.64 -1.6982 -0.0975709 0
M  V30 13702 O 1303.82 -1.94109 0.0594307 0
M  V30 13703 C 1300.95 -3.43369 0.521085 0
M  V30 13704 C 1299.91 -3.99559 1.53417 0
M  V30 13705 C 1299.23 -5.26383 0.93942 0
M  V30 13706 C 1300.53 -4.33241 2.91718 0
M  V30 13707 H 1302.23 -2.31746 1.89563 0
M  V30 13708 H 1299.77 -1.1137 0.912841 0
M  V30 13709 H 1301.73 -4.19963 0.347713 0
M  V30 13710 H 1300.45 -3.23655 -0.437605 0
M  V30 13711 H 1299.11 -3.25069 1.69486 0
M  V30 13712 H 1298.76 -5.02993 -0.0271236 0
M  V30 13713 H 1298.46 -5.64942 1.616 0
M  V30 13714 H 1299.98 -6.05635 0.777059 0
M  V30 13715 H 1301.4 -5.00734 2.79175 0
M  V30 13716 H 1299.79 -4.82907 3.56259 0
M  V30 13717 H 1300.86 -3.42118 3.43633 0
M  V30 13718 N 1302.21 -1.00763 -1.2118 0
M  V30 13719 C 1303.17 -0.575183 -2.21865 0
M  V30 13720 C 1304.17 0.349871 -1.56948 0
M  V30 13721 O 1305.36 0.139795 -1.73638 0
M  V30 13722 C 1302.49 0.161308 -3.40518 0
M  V30 13723 H 1303.68 -1.46578 -2.61639 0
M  V30 13724 H 1301.24 -0.79643 -1.34487 0
M  V30 13725 H 1301.97 1.06723 -3.06236 0
M  V30 13726 H 1301.76 -0.503101 -3.88859 0
M  V30 13727 H 1303.25 0.451527 -4.15152 0
M  V30 13728 N 1303.68 1.3679 -0.7827 0
M  V30 13729 C 1304.93 1.98664 -0.348634 0
M  V30 13730 C 1305.25 1.62827 1.08382 0
M  V30 13731 O 1306.45 2.17886 1.61982 0
M  V30 13732 C 1304.91 3.55319 -0.572392 0
M  V30 13733 C 1304.52 4.00086 -2.01582 0
M  V30 13734 C 1306.26 4.24017 -0.202496 0
M  V30 13735 C 1304.17 5.49493 -2.18659 0
M  V30 13736 H 1303.1 0.743294 -0.126612 0
M  V30 13737 H 1305.75 1.56177 -0.963383 0
M  V30 13738 H 1304.13 3.95842 0.111973 0
M  V30 13739 H 1305.3 3.7078 -2.73603 0
M  V30 13740 H 1303.62 3.44205 -2.34333 0
M  V30 13741 H 1306.22 5.3381 -0.308459 0
M  V30 13742 H 1306.56 4.07559 0.84859 0
M  V30 13743 H 1307.09 3.88834 -0.839834 0
M  V30 13744 H 1303.83 5.7089 -3.22126 0
M  V30 13745 H 1303.35 5.80447 -1.51134 0
M  V30 13746 H 1305.03 6.15621 -1.99048 0
M  V30 13747 N 1305.16 0.53415 1.48272 0
M  V30 13748 C 1306.13 -0.215641 2.28183 0
M  V30 13749 C 1307.13 -0.863966 1.35618 0
M  V30 13750 O 1308.32 -0.723375 1.58471 0
M  V30 13751 C 1305.45 -1.31251 3.1462 0
M  V30 13752 H 1306.64 0.486014 2.95936 0
M  V30 13753 H 1304.19 0.290237 1.53582 0
M  V30 13754 H 1304.93 -2.04729 2.51508 0
M  V30 13755 H 1304.71 -0.852706 3.82716 0
M  V30 13756 H 1306.2 -1.83978 3.74889 0
M  V30 13757 N 1306.64 -1.55279 0.269478 0
M  V30 13758 C 1307.89 -1.98649 -0.349522 0
M  V30 13759 C 1308.2 -1.16125 -1.57399 0
M  V30 13760 O 1309.41 -1.49612 -2.26558 0
M  V30 13761 C 1307.86 -3.53547 -0.673224 0
M  V30 13762 C 1307.47 -4.44841 0.531119 0
M  V30 13763 C 1309.22 -4.05519 -1.25516 0
M  V30 13764 C 1307.12 -5.91119 0.182317 0
M  V30 13765 H 1306.05 -0.74193 -0.13437 0
M  V30 13766 H 1308.7 -1.79664 0.373246 0
M  V30 13767 H 1307.09 -3.68311 -1.45474 0
M  V30 13768 H 1308.26 -4.41843 1.3081 0
M  V30 13769 H 1306.58 -4.03472 1.02952 0
M  V30 13770 H 1309.17 -5.12347 -1.52984 0
M  V30 13771 H 1309.52 -3.54215 -2.18718 0
M  V30 13772 H 1310.05 -3.94172 -0.536059 0
M  V30 13773 H 1306.79 -6.46507 1.08206 0
M  V30 13774 H 1306.31 -5.97199 -0.558008 0
M  V30 13775 H 1307.99 -6.466 -0.227484 0
M  V30 13776 N 1308.12 0.00332656 -1.576 0
M  V30 13777 C 1309.37 0.688869 -1.90423 0
M  V30 13778 C 1309.69 1.73963 -0.869896 0
M  V30 13779 O 1308.95 1.95295 0.125777 0
M  V30 13780 C 1309.25 1.37237 -3.30001 0
M  V30 13781 C 1308.91 0.455132 -4.48597 0
M  V30 13782 C 1307.58 0.202577 -4.80773 0
M  V30 13783 C 1309.93 -0.176597 -5.20901 0
M  V30 13784 C 1307.26 -0.690055 -5.82628 0
M  V30 13785 C 1309.61 -1.05708 -6.23705 0
M  V30 13786 C 1308.27 -1.31885 -6.54341 0
M  V30 13787 H 1307.54 0.252075 -0.696806 0
M  V30 13788 H 1310.19 -0.0514867 -1.91431 0
M  V30 13789 H 1308.49 2.18669 -3.25102 0
M  V30 13790 H 1310.19 1.9088 -3.52656 0
M  V30 13791 H 1306.78 0.662142 -4.23454 0
M  V30 13792 H 1310.96 0.0055127 -4.963 0
M  V30 13793 H 1306.22 -0.900902 -6.04726 0
M  V30 13794 H 1310.39 -1.55296 -6.78864 0
M  V30 13795 H 1308.02 -2.01222 -7.33085 0
M  V30 13796 N 1309.6 1.55164 0.276031 0
M  V30 13797 C 1310.85 1.74833 1.0058 0
M  V30 13798 C 1311.16 0.555089 1.87558 0
M  V30 13799 O 1312.36 0.634127 2.63991 0
M  V30 13800 C 1310.82 3.09417 1.83818 0
M  V30 13801 C 1310.43 4.36299 1.01721 0
M  V30 13802 C 1312.17 3.38437 2.56244 0
M  V30 13803 C 1310.08 5.61923 1.8438 0
M  V30 13804 H 1309.01 0.651676 0.379254 0
M  V30 13805 H 1311.66 1.81626 0.26161 0
M  V30 13806 H 1310.04 2.96654 2.62321 0
M  V30 13807 H 1311.22 4.59969 0.276565 0
M  V30 13808 H 1309.53 4.144 0.407645 0
M  V30 13809 H 1312.13 4.29501 3.18485 0
M  V30 13810 H 1312.47 2.58432 3.26372 0
M  V30 13811 H 1313 3.52284 1.84773 0
M  V30 13812 H 1309.74 6.44667 1.18679 0
M  V30 13813 H 1309.26 5.424 2.56051 0
M  V30 13814 H 1310.94 6.0011 2.4182 0
M  V30 13815 N 1311.07 -0.540404 1.48045 0
M  V30 13816 C 1312.49 -0.867958 1.33935 0
M  V30 13817 C 1312.69 -1.98568 0.342488 0
M  V30 13818 O 1311.75 -2.51357 -0.240022 0
M  V30 13819 C 1313.06 -1.24532 2.73701 0
M  V30 13820 C 1314.61 -1.3558 2.82112 0
M  V30 13821 C 1315.08 -1.76664 4.22556 0
M  V30 13822 N 1316.57 -1.83785 4.25179 0
M  V30 13823 C 1317.31 -2.16938 5.30778 0
M  V30 13824 N 1316.8 -2.48587 6.46666 0
M  V30 13825 N 1318.6 -2.17855 5.18166 0
M  V30 13826 H 1310.75 0.197251 2.11482 0
M  V30 13827 H 1313.01 0.0255947 0.947654 0
M  V30 13828 H 1312.72 -0.497731 3.4816 0
M  V30 13829 H 1312.59 -2.19779 3.06556 0
M  V30 13830 H 1314.98 -2.09417 2.07915 0
M  V30 13831 H 1315.06 -0.384787 2.52889 0
M  V30 13832 H 1314.7 -1.03391 4.97265 0
M  V30 13833 H 1314.63 -2.74797 4.49215 0
M  V30 13834 H 1317.12 -1.61645 3.41583 0
M  V30 13835 H 1317.44 -2.72959 7.22989 0
M  V30 13836 H 1315.78 -2.4613 6.49958 0
M  V30 13837 H 1318.97 -1.9258 4.2665 0
M  V30 13838 H 1319.15 -2.43361 6.00566 0
M  V30 13839 N 1312.55 -1.36459 -0.788468 0
M  V30 13840 C 1313.8 -1.31942 -1.54799 0
M  V30 13841 C 1314.15 0.100282 -1.92138 0
M  V30 13842 O 1313.45 1.05505 -1.59935 0
M  V30 13843 C 1313.64 -2.17672 -2.83467 0
M  V30 13844 C 1313.47 -3.67836 -2.58702 0
M  V30 13845 C 1312.24 -4.37009 -2.53675 0
M  V30 13846 C 1314.44 -4.61081 -2.27835 0
M  V30 13847 N 1312.42 -5.72811 -2.20817 0
M  V30 13848 C 1313.79 -5.85137 -2.04973 0
M  V30 13849 C 1315.85 -4.49636 -2.13849 0
M  V30 13850 C 1314.55 -6.99034 -1.69541 0
M  V30 13851 C 1316.57 -5.63401 -1.79816 0
M  V30 13852 C 1315.94 -6.86497 -1.57803 0
M  V30 13853 H 1312.04 -0.538087 -0.567438 0
M  V30 13854 H 1314.62 -1.7152 -0.921358 0
M  V30 13855 H 1312.79 -1.80338 -3.43995 0
M  V30 13856 H 1314.52 -2.04539 -3.49208 0
M  V30 13857 H 1311.28 -3.89822 -2.68953 0
M  V30 13858 H 1311.7 -6.44535 -2.07132 0
M  V30 13859 H 1316.34 -3.55054 -2.29558 0
M  V30 13860 H 1314.06 -7.93567 -1.52571 0
M  V30 13861 H 1317.65 -5.56508 -1.69677 0
M  V30 13862 H 1316.53 -7.73036 -1.31855 0
M  V30 13863 N 1314.03 1.01274 -1.20754 0
M  V30 13864 C 1314.98 2.09894 -0.959852 0
M  V30 13865 C 1315.95 1.65726 0.111351 0
M  V30 13866 O 1317.13 1.90769 -0.0341721 0
M  V30 13867 C 1314.27 3.41126 -0.52223 0
M  V30 13868 C 1313.39 3.98749 -1.66202 0
M  V30 13869 C 1312.52 5.18057 -1.17432 0
M  V30 13870 C 1311.56 5.67772 -2.28694 0
M  V30 13871 N 1310.7 6.78338 -1.81114 0
M  V30 13872 H 1315.54 2.30416 -1.88977 0
M  V30 13873 H 1313.07 1.12989 -0.941906 0
M  V30 13874 H 1315.03 4.16451 -0.249799 0
M  V30 13875 H 1313.66 3.20665 0.370688 0
M  V30 13876 H 1312.71 3.20483 -2.04927 0
M  V30 13877 H 1314.03 4.31646 -2.49967 0
M  V30 13878 H 1313.18 6.00601 -0.858086 0
M  V30 13879 H 1311.92 4.86735 -0.306614 0
M  V30 13880 H 1310.92 4.8383 -2.61129 0
M  V30 13881 H 1312.15 6.01127 -3.15948 0
M  V30 13882 H 1310.09 6.48837 -0.966761 0
M  V30 13883 H 1310.01 7.10448 -2.58457 0
M  V30 13884 H 1311.28 7.64437 -1.52502 0
M  V30 13885 N 1315.51 1.01404 1.20644 0
M  V30 13886 C 1316.46 0.582109 2.23339 0
M  V30 13887 C 1317.43 -0.39649 1.61298 0
M  V30 13888 O 1318.61 -0.296504 1.88482 0
M  V30 13889 C 1315.75 -0.076029 3.45016 0
M  V30 13890 C 1314.86 0.946829 4.21496 0
M  V30 13891 C 1314 0.26001 5.30563 0
M  V30 13892 C 1313.04 1.2698 5.98784 0
M  V30 13893 N 1312.18 0.609827 6.99447 0
M  V30 13894 H 1317.02 1.46248 2.59645 0
M  V30 13895 H 1314.55 0.732145 1.27585 0
M  V30 13896 H 1316.51 -0.474714 4.1449 0
M  V30 13897 H 1315.14 -0.920062 3.0941 0
M  V30 13898 H 1314.19 1.4637 3.51113 0
M  V30 13899 H 1315.5 1.71491 4.68393 0
M  V30 13900 H 1314.66 -0.19431 6.06389 0
M  V30 13901 H 1313.4 -0.540395 4.84697 0
M  V30 13902 H 1312.4 1.73453 5.21722 0
M  V30 13903 H 1313.63 2.07144 6.46737 0
M  V30 13904 H 1311.57 -0.170756 6.55778 0
M  V30 13905 H 1311.49 1.31601 7.44458 0
M  V30 13906 H 1312.76 0.179014 7.79294 0
M  V30 13907 N 1316.99 -1.36373 0.789944 0
M  V30 13908 C 1318.21 -2.04011 0.373396 0
M  V30 13909 C 1318.64 -1.59171 -1.00231 0
M  V30 13910 O 1318 -0.760431 -1.64582 0
M  V30 13911 C 1318.04 -3.5783 0.446083 0
M  V30 13912 O 1317.15 -4.08759 -0.54678 0
M  V30 13913 H 1316.49 -0.644807 0.158495 0
M  V30 13914 H 1319.02 -1.74317 1.0712 0
M  V30 13915 H 1319.03 -4.06822 0.309877 0
M  V30 13916 H 1317.7 -3.89819 1.44962 0
M  V30 13917 H 1316.28 -3.71038 -0.372192 0
M  V30 13918 N 1318.47 -0.542005 -1.47987 0
M  V30 13919 C 1319.88 -0.200691 -1.58333 0
M  V30 13920 C 1320.08 1.29643 -1.54256 0
M  V30 13921 O 1319.14 2.07556 -1.43794 0
M  V30 13922 C 1320.45 -0.813878 -2.89476 0
M  V30 13923 C 1322 -0.783711 -3.0303 0
M  V30 13924 C 1322.47 -1.37569 -4.36851 0
M  V30 13925 N 1323.96 -1.33819 -4.43449 0
M  V30 13926 C 1324.7 -1.76602 -5.45527 0
M  V30 13927 N 1324.2 -2.27169 -6.54497 0
M  V30 13928 N 1325.99 -1.67765 -5.3648 0
M  V30 13929 H 1318.14 -1.51488 -1.4888 0
M  V30 13930 H 1320.4 -0.630835 -0.707638 0
M  V30 13931 H 1320.11 -1.86544 -2.98151 0
M  V30 13932 H 1319.98 -0.297978 -3.76021 0
M  V30 13933 H 1322.37 0.259118 -2.9396 0
M  V30 13934 H 1322.45 -1.33721 -2.18065 0
M  V30 13935 H 1322.09 -2.41751 -4.46675 0
M  V30 13936 H 1322.02 -0.797769 -5.20522 0
M  V30 13937 H 1324.52 -0.968147 -3.65288 0
M  V30 13938 H 1324.83 -2.57777 -7.2854 0
M  V30 13939 H 1323.17 -2.31171 -6.55427 0
M  V30 13940 H 1326.36 -1.28048 -4.50246 0
M  V30 13941 H 1326.54 -2.01426 -6.15899 0
M  V30 13942 N 1319.94 1.55134 -0.277709 0
M  V30 13943 C 1320.91 2.21327 0.595569 0
M  V30 13944 C 1321.91 1.19193 1.07933 0
M  V30 13945 O 1323.1 1.44081 0.979093 0
M  V30 13946 C 1320.23 2.88127 1.82196 0
M  V30 13947 H 1321.42 2.99895 0.0175855 0
M  V30 13948 H 1318.97 1.56274 -0.0283453 0
M  V30 13949 H 1319.71 2.13578 2.44039 0
M  V30 13950 H 1319.49 3.62974 1.48297 0
M  V30 13951 H 1320.98 3.38691 2.44291 0
M  V30 13952 N 1321.42 0.00503138 1.57599 0
M  V30 13953 C 1322.67 -0.678761 1.90785 0
M  V30 13954 C 1323 -1.73499 0.87911 0
M  V30 13955 O 1322.25 -1.95359 -0.115418 0
M  V30 13956 C 1322.55 -1.35485 3.30724 0
M  V30 13957 C 1322.22 -0.431335 4.48832 0
M  V30 13958 C 1320.88 -0.177078 4.80874 0
M  V30 13959 C 1323.23 0.204219 5.208 0
M  V30 13960 C 1320.56 0.720944 5.82254 0
M  V30 13961 C 1322.91 1.09015 6.23136 0
M  V30 13962 C 1321.57 1.35353 6.53633 0
M  V30 13963 H 1320.84 -0.248376 0.698133 0
M  V30 13964 H 1323.49 0.061638 1.91401 0
M  V30 13965 H 1321.8 -2.16942 3.26257 0
M  V30 13966 H 1323.49 -1.89007 3.53663 0
M  V30 13967 H 1320.08 -0.639676 4.238 0
M  V30 13968 H 1324.27 0.0208074 4.96296 0
M  V30 13969 H 1319.52 0.93296 6.0424 0
M  V30 13970 H 1323.7 1.58894 6.78031 0
M  V30 13971 H 1321.32 2.05107 7.32008 0
M  V30 13972 N 1322.9 -1.55308 -0.267798 0
M  V30 13973 C 1324.15 -1.75811 -0.996734 0
M  V30 13974 C 1324.47 -0.565161 -1.8663 0
M  V30 13975 O 1323.74 0.419775 -1.9135 0
M  V30 13976 H 1322.32 -0.648353 -0.371008 0
M  V30 13977 H 1324.98 -1.92719 -0.290775 0
M  V30 13978 H 1324.08 -2.66113 -1.63064 0
M  V30 13979 N 1324.38 0.532545 -1.4833 0
M  V30 13980 C 1325.65 1.29371 -1.46705 0
M  V30 13981 C 1326.03 2.10354 -0.177329 0
M  V30 13982 O 1325.38 2.12462 0.840968 0
M  V30 13983 C 1325.59 2.17733 -2.72751 0
M  V30 13984 C 1326.94 2.77956 -3.20976 0
M  V30 13985 O 1327.96 2.28022 -2.7365 0
M  V30 13986 O 1326.82 3.68779 -4.03317 0
M  V30 13987 H 1323.92 0.58378 -0.585773 0
M  V30 13988 H 1326.46 0.549411 -1.6056 0
M  V30 13989 H 1325.24 1.57659 -3.58133 0
M  V30 13990 H 1324.86 2.99415 -2.61603 0
M  V30 13991 N 1325.86 1.36875 0.78122 0
M  V30 13992 C 1327.08 1.349 1.57533 0
M  V30 13993 C 1327.51 -0.0655249 1.87986 0
M  V30 13994 O 1326.86 -1.03986 1.48515 0
M  V30 13995 C 1326.91 2.18562 2.86815 0
M  V30 13996 O 1326.02 1.58374 3.80777 0
M  V30 13997 H 1325.36 0.461355 0.477543 0
M  V30 13998 H 1327.89 1.80271 0.96766 0
M  V30 13999 H 1327.9 2.31436 3.36008 0
M  V30 14000 H 1326.57 3.21385 2.63978 0
M  V30 14001 H 1325.15 1.54487 3.39394 0
M  V30 14002 N 1327.33 -1.00632 1.21289 0
M  V30 14003 C 1328.24 -2.12829 0.986957 0
M  V30 14004 C 1329.26 -1.73895 -0.0605152 0
M  V30 14005 O 1330.44 -2.00985 0.129238 0
M  V30 14006 C 1327.5 -3.4226 0.553089 0
M  V30 14007 C 1326.56 -3.95376 1.67262 0
M  V30 14008 C 1325.79 -5.18629 1.25936 0
M  V30 14009 O 1326.02 -5.70246 0.132402 0
M  V30 14010 O 1324.95 -5.65157 2.07077 0
M  V30 14011 H 1328.78 -2.34765 1.92663 0
M  V30 14012 H 1326.36 -1.11208 0.997654 0
M  V30 14013 H 1328.24 -4.20177 0.320856 0
M  V30 14014 H 1326.92 -3.21716 -0.357881 0
M  V30 14015 H 1325.83 -3.18692 1.95924 0
M  V30 14016 H 1327.16 -4.20328 2.56097 0
M  V30 14017 N 1328.81 -1.02043 -1.20104 0
M  V30 14018 C 1329.76 -0.564679 -2.20897 0
M  V30 14019 C 1330.75 0.382041 -1.56299 0
M  V30 14020 O 1331.94 0.204384 -1.75816 0
M  V30 14021 C 1329.07 0.0917516 -3.43177 0
M  V30 14022 C 1328.15 -0.876903 -4.14935 0
M  V30 14023 N 1328.54 -2.03596 -4.63014 0
M  V30 14024 C 1326.84 -0.698538 -4.40496 0
M  V30 14025 C 1327.54 -2.64621 -5.18026 0
M  V30 14026 N 1326.52 -1.92651 -5.08317 0
M  V30 14027 H 1330.32 -1.44825 -2.5574 0
M  V30 14028 H 1327.83 -0.88628 -1.36084 0
M  V30 14029 H 1329.83 0.43582 -4.14616 0
M  V30 14030 H 1328.49 0.971116 -3.09838 0
M  V30 14031 H 1329.5 -2.41573 -4.58108 0
M  V30 14032 H 1326.18 0.132449 -4.1729 0
M  V30 14033 H 1327.57 -3.62732 -5.65575 0
M  V30 14034 N 1330.29 1.35952 -0.797165 0
M  V30 14035 C 1331.24 2.29941 -0.198995 0
M  V30 14036 C 1332.21 1.52355 0.661592 0
M  V30 14037 O 1333.39 1.80832 0.60865 0
M  V30 14038 C 1330.53 3.38846 0.654033 0
M  V30 14039 C 1329.65 4.31409 -0.225949 0
M  V30 14040 C 1328.78 5.27401 0.634188 0
M  V30 14041 C 1327.82 6.11602 -0.246773 0
M  V30 14042 N 1326.96 6.9976 0.57279 0
M  V30 14043 H 1331.8 2.80508 -1.00594 0
M  V30 14044 H 1329.33 1.38064 -0.507617 0
M  V30 14045 H 1331.29 4.00643 1.16367 0
M  V30 14046 H 1329.92 2.89578 1.42633 0
M  V30 14047 H 1328.97 3.70699 -0.853616 0
M  V30 14048 H 1330.29 4.90532 -0.904416 0
M  V30 14049 H 1329.44 5.94525 1.20933 0
M  V30 14050 H 1328.18 4.68751 1.34625 0
M  V30 14051 H 1327.18 5.43434 -0.834258 0
M  V30 14052 H 1328.41 6.72329 -0.956559 0
M  V30 14053 H 1326.35 6.43609 1.26901 0
M  V30 14054 H 1326.27 7.55985 -0.0478303 0
M  V30 14055 H 1327.54 7.71244 1.13151 0
M  V30 14056 N 1331.77 0.549846 1.47697 0
M  V30 14057 C 1332.7 -0.190364 2.32723 0
M  V30 14058 C 1333.68 -0.915933 1.43334 0
M  V30 14059 O 1334.86 -0.897838 1.72199 0
M  V30 14060 C 1331.99 -1.22545 3.24961 0
M  V30 14061 C 1330.95 -0.616805 4.23532 0
M  V30 14062 C 1330.27 -1.75599 5.05044 0
M  V30 14063 C 1331.57 0.424595 5.20571 0
M  V30 14064 H 1333.27 0.519461 2.94859 0
M  V30 14065 H 1330.81 0.251259 1.41791 0
M  V30 14066 H 1332.77 -1.75139 3.83281 0
M  V30 14067 H 1331.49 -1.96512 2.60865 0
M  V30 14068 H 1330.15 -0.112224 3.66428 0
M  V30 14069 H 1329.8 -2.48453 4.37356 0
M  V30 14070 H 1329.5 -1.35456 5.71774 0
M  V30 14071 H 1331.02 -2.28533 5.6622 0
M  V30 14072 H 1332.44 -0.0150025 5.73298 0
M  V30 14073 H 1330.83 0.7445 5.95464 0
M  V30 14074 H 1331.9 1.32318 4.66497 0
M  V30 14075 N 1333.25 -1.54984 0.285932 0
M  V30 14076 C 1334.16 -2.26621 -0.606648 0
M  V30 14077 C 1335.17 -1.29595 -1.16108 0
M  V30 14078 O 1336.35 -1.62551 -1.18908 0
M  V30 14079 C 1333.41 -2.98156 -1.76929 0
M  V30 14080 C 1332.47 -4.10685 -1.25045 0
M  V30 14081 C 1331.71 -4.788 -2.35768 0
M  V30 14082 O 1331.93 -4.46183 -3.55354 0
M  V30 14083 O 1330.86 -5.66523 -2.03312 0
M  V30 14084 H 1334.69 -3.03689 -0.0259981 0
M  V30 14085 H 1332.28 -1.49306 0.0529355 0
M  V30 14086 H 1334.16 -3.43076 -2.44697 0
M  V30 14087 H 1332.83 -2.23996 -2.33683 0
M  V30 14088 H 1331.74 -3.70198 -0.538919 0
M  V30 14089 H 1333.07 -4.86778 -0.728528 0
M  V30 14090 N 1334.72 -0.0133892 -1.57594 0
M  V30 14091 C 1335.95 0.679255 -1.95432 0
M  V30 14092 C 1336.37 1.66558 -0.889028 0
M  V30 14093 O 1335.72 1.82031 0.130755 0
M  V30 14094 C 1335.78 1.39943 -3.33314 0
M  V30 14095 O 1335.5 0.452643 -4.35755 0
M  V30 14096 C 1337 2.18535 -3.85691 0
M  V30 14097 H 1334.22 0.188337 -0.644026 0
M  V30 14098 H 1336.76 -0.0684861 -2.04385 0
M  V30 14099 H 1334.92 2.0987 -3.25628 0
M  V30 14100 H 1335.33 0.962243 -5.15598 0
M  V30 14101 H 1336.8 2.64403 -4.84557 0
M  V30 14102 H 1337.28 3.01779 -3.19102 0
M  V30 14103 H 1337.89 1.53598 -3.96595 0
M  V30 14104 N 1336.2 1.55448 0.259558 0
M  V30 14105 C 1337.43 1.81063 1.01148 0
M  V30 14106 C 1337.85 0.58875 1.78649 0
M  V30 14107 O 1337.21 -0.461971 1.75315 0
M  V30 14108 C 1337.26 3.04279 1.93512 0
M  V30 14109 O 1336.36 2.80307 3.02493 0
M  V30 14110 H 1335.7 0.598056 0.288487 0
M  V30 14111 H 1338.23 2.02614 0.284387 0
M  V30 14112 H 1338.24 3.33373 2.35215 0
M  V30 14113 H 1336.92 3.92856 1.36518 0
M  V30 14114 H 1335.5 2.62345 2.65008 0
M  V30 14115 N 1337.68 -0.524672 1.4861 0
M  V30 14116 C 1338.91 -1.30958 1.60825 0
M  V30 14117 C 1339.33 -1.86142 0.270682 0
M  V30 14118 O 1338.69 -1.64675 -0.758415 0
M  V30 14119 C 1338.74 -2.43252 2.66197 0
M  V30 14120 O 1337.84 -3.4644 2.23725 0
M  V30 14121 H 1337.18 -0.387638 0.539104 0
M  V30 14122 H 1339.71 -0.630755 1.94635 0
M  V30 14123 H 1339.72 -2.89362 2.87635 0
M  V30 14124 H 1338.4 -2.02449 3.63301 0
M  V30 14125 H 1336.97 -3.06413 2.12522 0
M  V30 14126 N 1339.16 -1.37287 -0.77395 0
M  V30 14127 C 1340.41 -1.32112 -1.5294 0
M  V30 14128 C 1340.73 0.0946137 -1.9477 0
M  V30 14129 O 1340 1.03817 -1.66129 0
M  V30 14130 H 1338.58 -0.486047 -0.567245 0
M  V30 14131 H 1341.24 -1.71752 -0.921263 0
M  V30 14132 H 1340.34 -1.95873 -2.42982 0
M  V30 14133 N 1340.64 0.999871 -1.21821 0
M  V30 14134 C 1342.05 1.26228 -0.976664 0
M  V30 14135 C 1342.25 1.98714 0.333915 0
M  V30 14136 O 1341.31 2.29252 1.05829 0
M  V30 14137 C 1342.62 2.08089 -2.1707 0
M  V30 14138 C 1344.17 2.21298 -2.21351 0
M  V30 14139 C 1344.64 3.06544 -3.40287 0
M  V30 14140 N 1346.14 3.14131 -3.40405 0
M  V30 14141 C 1346.87 3.80362 -4.29083 0
M  V30 14142 N 1346.37 4.48577 -5.27968 0
M  V30 14143 N 1348.16 3.77053 -4.16878 0
M  V30 14144 H 1340.31 0.513704 -2.06094 0
M  V30 14145 H 1342.57 0.289447 -0.902732 0
M  V30 14146 H 1342.28 1.62183 -3.12073 0
M  V30 14147 H 1342.15 3.08843 -2.16554 0
M  V30 14148 H 1344.54 2.66422 -1.269 0
M  V30 14149 H 1344.62 1.19997 -2.25908 0
M  V30 14150 H 1344.27 2.62122 -4.35034 0
M  V30 14151 H 1344.2 4.0797 -3.32969 0
M  V30 14152 H 1346.69 2.65576 -2.68846 0
M  V30 14153 H 1347 4.96833 -5.91926 0
M  V30 14154 H 1345.34 4.47348 -5.31888 0
M  V30 14155 H 1348.54 3.22918 -3.38883 0
M  V30 14156 H 1348.71 4.2839 -4.86195 0
M  V30 14157 N 1342.11 1.02678 1.19562 0
M  V30 14158 C 1343.36 0.723086 1.89471 0
M  V30 14159 C 1343.69 -0.746269 1.79289 0
M  V30 14160 O 1342.97 -1.54322 1.18384 0
M  V30 14161 C 1343.25 1.17224 3.40486 0
M  V30 14162 C 1343.1 2.70266 3.5955 0
M  V30 14163 C 1344.42 0.751397 4.33638 0
M  V30 14164 H 1341.54 0.264155 0.688034 0
M  V30 14165 H 1344.18 1.27633 1.40747 0
M  V30 14166 H 1342.33 0.701544 3.82113 0
M  V30 14167 H 1344.01 3.25266 3.27108 0
M  V30 14168 H 1342.25 3.10758 3.02675 0
M  V30 14169 H 1342.92 2.96748 4.65451 0
M  V30 14170 H 1345.4 1.15621 3.99714 0
M  V30 14171 H 1344.27 1.09358 5.37896 0
M  V30 14172 H 1344.53 -0.346367 4.40741 0
M  V30 14173 N 1343.59 -1.35528 0.804364 0
M  V30 14174 C 1344.52 -2.32388 0.227604 0
M  V30 14175 C 1345.5 -1.57368 -0.645709 0
M  V30 14176 O 1346.69 -1.85448 -0.576441 0
M  V30 14177 C 1343.82 -3.41603 -0.62645 0
M  V30 14178 C 1342.77 -4.27743 0.148187 0
M  V30 14179 C 1342.1 -5.28259 -0.827425 0
M  V30 14180 C 1343.4 -5.04661 1.34591 0
M  V30 14181 H 1345.09 -2.80874 1.03684 0
M  V30 14182 H 1342.64 -1.3504 0.500031 0
M  V30 14183 H 1344.59 -4.08365 -1.03999 0
M  V30 14184 H 1343.32 -2.91721 -1.46855 0
M  V30 14185 H 1341.97 -3.62558 0.542874 0
M  V30 14186 H 1341.62 -4.74645 -1.66496 0
M  V30 14187 H 1341.32 -5.86763 -0.313453 0
M  V30 14188 H 1342.85 -5.97893 -1.23921 0
M  V30 14189 H 1344.26 -5.6438 1.00736 0
M  V30 14190 H 1342.66 -5.7265 1.79422 0
M  V30 14191 H 1343.73 -4.35432 2.1337 0
M  V30 14192 N 1345.07 -0.557671 -1.47404 0
M  V30 14193 C 1346.32 -0.0337216 -2.02072 0
M  V30 14194 C 1346.64 1.32106 -1.43433 0
M  V30 14195 O 1345.91 1.86171 -0.609692 0
M  V30 14196 H 1344.49 -0.00947648 -0.74694 0
M  V30 14197 H 1347.15 -0.727784 -1.80802 0
M  V30 14198 H 1346.25 0.0540331 -3.12053 0
M  V30 14199 N 1346.55 1.54831 -0.294147 0
M  V30 14200 C 1347.97 1.59489 0.0594489 0
M  V30 14201 C 1348.17 1.31121 1.53002 0
M  V30 14202 O 1347.22 1.08129 2.28176 0
M  V30 14203 C 1348.53 2.98858 -0.332323 0
M  V30 14204 C 1350.08 3.1174 -0.280518 0
M  V30 14205 C 1350.56 4.53407 -0.64701 0
M  V30 14206 N 1352.05 4.59307 -0.599284 0
M  V30 14207 C 1352.78 5.66983 -0.85542 0
M  V30 14208 N 1352.28 6.82726 -1.17717 0
M  V30 14209 N 1354.07 5.56621 -0.78294 0
M  V30 14210 H 1346.22 1.71532 -1.25262 0
M  V30 14211 H 1348.49 0.800801 -0.507368 0
M  V30 14212 H 1348.19 3.24517 -1.35578 0
M  V30 14213 H 1348.07 3.75862 0.317443 0
M  V30 14214 H 1350.45 2.85834 0.733683 0
M  V30 14215 H 1350.53 2.36907 -0.96481 0
M  V30 14216 H 1350.18 4.80042 -1.65899 0
M  V30 14217 H 1350.11 5.26567 0.0592796 0
M  V30 14218 H 1352.6 3.76169 -0.361259 0
M  V30 14219 H 1352.91 7.60761 -1.35877 0
M  V30 14220 H 1351.26 6.84295 -1.21513 0
M  V30 14221 H 1354.45 4.65075 -0.531282 0
M  V30 14222 H 1354.62 6.40456 -0.985929 0
M  V30 14223 N 1348.03 0.0217466 1.57585 0
M  V30 14224 C 1349.27 -0.658487 1.91495 0
M  V30 14225 C 1349.6 -1.72557 0.897462 0
M  V30 14226 O 1348.86 -1.95471 -0.0946909 0
M  V30 14227 C 1349.16 -1.3197 3.32143 0
M  V30 14228 C 1348.82 -0.383706 4.49264 0
M  V30 14229 C 1347.48 -0.126065 4.81035 0
M  V30 14230 C 1349.84 0.259445 5.20554 0
M  V30 14231 C 1347.16 0.782659 5.81456 0
M  V30 14232 C 1349.52 1.15618 6.21945 0
M  V30 14233 C 1348.18 1.42278 6.5216 0
M  V30 14234 H 1347.45 -0.240958 0.700729 0
M  V30 14235 H 1350.1 0.0819351 1.91325 0
M  V30 14236 H 1348.4 -2.13469 3.28539 0
M  V30 14237 H 1350.1 -1.85245 3.55648 0
M  V30 14238 H 1346.69 -0.59469 4.24454 0
M  V30 14239 H 1350.87 0.073445 4.96246 0
M  V30 14240 H 1346.13 0.996995 6.03216 0
M  V30 14241 H 1350.3 1.66077 6.76307 0
M  V30 14242 H 1347.93 2.1286 7.29791 0
M  V30 14243 N 1349.51 -1.55583 -0.251311 0
M  V30 14244 C 1350.92 -1.47908 -0.599606 0
M  V30 14245 C 1351.12 -0.711061 -1.88537 0
M  V30 14246 O 1350.18 -0.238639 -2.5137 0
M  V30 14247 C 1351.49 -2.92284 -0.706429 0
M  V30 14248 C 1353.04 -3.02629 -0.799049 0
M  V30 14249 C 1353.51 -4.48303 -0.93747 0
M  V30 14250 N 1355 -4.52222 -1.00245 0
M  V30 14251 C 1355.74 -5.62181 -1.12874 0
M  V30 14252 N 1355.24 -6.81958 -1.22085 0
M  V30 14253 N 1357.03 -5.49968 -1.16155 0
M  V30 14254 H 1349.18 -2.0396 0.592806 0
M  V30 14255 H 1351.44 -0.925797 0.203971 0
M  V30 14256 H 1351.15 -3.51297 0.168243 0
M  V30 14257 H 1351.02 -3.42524 -1.57979 0
M  V30 14258 H 1353.41 -2.43699 -1.66418 0
M  V30 14259 H 1353.49 -2.55607 0.099367 0
M  V30 14260 H 1353.13 -5.07842 -0.0769166 0
M  V30 14261 H 1353.06 -4.93002 -1.85086 0
M  V30 14262 H 1355.56 -3.65951 -0.94279 0
M  V30 14263 H 1355.87 -7.6151 -1.31616 0
M  V30 14264 H 1354.21 -6.84728 -1.1905 0
M  V30 14265 H 1357.4 -4.55327 -1.08604 0
M  V30 14266 H 1357.58 -6.35701 -1.25653 0
M  V30 14267 N 1350.98 0.516783 -1.48886 0
M  V30 14268 C 1352.23 1.26936 -1.57263 0
M  V30 14269 C 1352.55 1.93337 -0.254156 0
M  V30 14270 O 1351.82 1.81977 0.725345 0
M  V30 14271 H 1350.4 0.4715 -0.579393 0
M  V30 14272 H 1353.06 0.600289 -1.85425 0
M  V30 14273 H 1352.16 2.04167 -2.36055 0
M  V30 14274 N 1352.46 1.37696 0.766659 0
M  V30 14275 C 1353.41 1.33871 1.88009 0
M  V30 14276 C 1354.38 0.2034 1.6485 0
M  V30 14277 O 1355.56 0.393569 1.86697 0
M  V30 14278 C 1352.7 1.1566 3.25141 0
M  V30 14279 C 1351.82 2.38465 3.6022 0
M  V30 14280 C 1350.95 2.13087 4.86587 0
M  V30 14281 C 1349.99 3.31732 5.14413 0
M  V30 14282 N 1349.13 3.05872 6.3197 0
M  V30 14283 H 1353.97 2.29065 1.90613 0
M  V30 14284 H 1351.5 1.13821 0.931837 0
M  V30 14285 H 1353.46 1.03122 4.04255 0
M  V30 14286 H 1352.09 0.241115 3.21898 0
M  V30 14287 H 1351.14 2.61725 2.76051 0
M  V30 14288 H 1352.46 3.26933 3.76718 0
M  V30 14289 H 1351.61 1.97609 5.73616 0
M  V30 14290 H 1350.35 1.21965 4.72203 0
M  V30 14291 H 1349.35 3.47743 4.25858 0
M  V30 14292 H 1350.58 4.23712 5.30702 0
M  V30 14293 H 1348.53 2.17384 6.18935 0
M  V30 14294 H 1348.44 3.87885 6.48908 0
M  V30 14295 H 1349.71 2.94023 7.21922 0
M  V30 14296 N 1353.94 -0.993397 1.22349 0
M  V30 14297 C 1355.19 -1.72945 1.04568 0
M  V30 14298 C 1355.51 -1.90419 -0.420178 0
M  V30 14299 O 1354.78 -1.46348 -1.30227 0
M  V30 14300 H 1353.36 -0.640777 0.383945 0
M  V30 14301 H 1356.02 -1.19647 1.53853 0
M  V30 14302 H 1355.12 -2.72411 1.52311 0
M  V30 14303 N 1355.42 -1.03311 -1.19015 0
M  V30 14304 C 1356.64 -0.751686 -1.93299 0
M  V30 14305 C 1357.07 0.68392 -1.75226 0
M  V30 14306 O 1356.43 1.47274 -1.05736 0
M  V30 14307 C 1356.47 -1.11335 -3.42982 0
M  V30 14308 O 1355.58 -0.234434 -4.11733 0
M  V30 14309 H 1354.92 -0.277331 -0.60331 0
M  V30 14310 H 1357.45 -1.38092 -1.5097 0
M  V30 14311 H 1357.46 -1.07204 -3.93664 0
M  V30 14312 H 1356.13 -2.15922 -3.55458 0
M  V30 14313 H 1354.71 -0.3347 -3.71395 0
M  V30 14314 N 1356.9 1.35099 -0.81154 0
M  V30 14315 C 1358.14 1.98233 -0.393453 0
M  V30 14316 C 1358.46 1.64688 1.04417 0
M  V30 14317 O 1357.73 0.931845 1.72318 0
M  V30 14318 H 1356.31 0.733283 -0.142496 0
M  V30 14319 H 1358.98 1.6493 -1.03847 0
M  V30 14320 H 1358.07 3.08017 -0.503188 0
M  V30 14321 N 1358.37 0.56548 1.47106 0
M  V30 14322 C 1359.62 0.0444375 2.02051 0
M  V30 14323 C 1359.94 -1.31344 1.44131 0
M  V30 14324 O 1359.21 -1.85845 0.619556 0
M  V30 14325 H 1357.79 0.0134375 0.746879 0
M  V30 14326 H 1360.45 0.737362 1.80413 0
M  V30 14327 H 1359.55 -0.0374834 3.12077 0
M  V30 14328 N 1359.85 -1.54672 0.302354 0
M  V30 14329 C 1360.78 -2.2653 -0.566265 0
M  V30 14330 C 1361.76 -1.26532 -1.13682 0
M  V30 14331 O 1362.95 -1.55307 -1.1659 0
M  V30 14332 C 1360.08 -3.00709 -1.73757 0
M  V30 14333 C 1359.03 -4.07865 -1.29731 0
M  V30 14334 C 1358.36 -4.69767 -2.55388 0
M  V30 14335 C 1359.66 -5.20547 -0.427567 0
M  V30 14336 H 1361.35 -2.99382 0.033071 0
M  V30 14337 H 1358.9 -1.4399 0.0173458 0
M  V30 14338 H 1360.85 -3.497 -2.35134 0
M  V30 14339 H 1359.58 -2.25437 -2.36317 0
M  V30 14340 H 1358.23 -3.59726 -0.706586 0
M  V30 14341 H 1357.88 -3.91134 -3.16265 0
M  V30 14342 H 1357.58 -5.42137 -2.26631 0
M  V30 14343 H 1359.11 -5.21521 -3.17566 0
M  V30 14344 H 1360.52 -5.65424 -0.947053 0
M  V30 14345 H 1358.92 -5.99645 -0.233704 0
M  V30 14346 H 1359.99 -4.81805 0.546993 0
M  V30 14347 N 1361.33 -0.0301034 -1.57571 0
M  V30 14348 C 1362.28 0.969425 -2.11435 0
M  V30 14349 C 1363.27 1.33627 -1.04116 0
M  V30 14350 O 1364.48 1.31839 -1.2255 0
M  V30 14351 H 1360.85 0.330407 -0.675526 0
M  V30 14352 H 1362.82 0.489828 -2.94352 0
M  V30 14353 C 1361.57 2.24233 -2.65734 0
M  V30 14354 H 1360.9 1.9688 -3.47963 0
M  V30 14355 H 1362.34 2.92378 -3.07068 0
M  V30 14356 C 1360.8 2.97274 -1.58524 0
M  V30 14357 O 1361.33 3.8942 -0.985641 0
M  V30 14358 N 1359.53 2.59627 -1.30545 0
M  V30 14359 H 1359.08 1.84773 -1.79491 0
M  V30 14360 H 1359.04 3.08807 -0.590372 0
M  V30 14361 N 1362.81 1.55714 0.243056 0
M  V30 14362 C 1363.74 1.93655 1.30461 0
M  V30 14363 C 1364.72 0.801968 1.50008 0
M  V30 14364 O 1365.9 1.06256 1.62552 0
M  V30 14365 C 1363.03 2.23459 2.65863 0
M  V30 14366 C 1361.99 3.39205 2.61006 0
M  V30 14367 C 1361.31 3.5456 4.00239 0
M  V30 14368 C 1362.61 4.74787 2.17656 0
M  V30 14369 H 1364.31 2.82575 0.98954 0
M  V30 14370 H 1361.85 1.35955 0.474572 0
M  V30 14371 H 1363.81 2.48591 3.40266 0
M  V30 14372 H 1362.53 1.31369 2.99014 0
M  V30 14373 H 1361.19 3.14088 1.89061 0
M  V30 14374 H 1360.84 2.59884 4.30661 0
M  V30 14375 H 1360.54 4.32399 3.97876 0
M  V30 14376 H 1362.06 3.82017 4.76335 0
M  V30 14377 H 1363.48 4.99266 2.81792 0
M  V30 14378 H 1361.87 5.55756 2.26397 0
M  V30 14379 H 1362.94 4.7159 1.12831 0
M  V30 14380 N 1364.29 -0.50888 1.49158 0
M  V30 14381 C 1365.53 -1.261 1.57934 0
M  V30 14382 C 1365.86 -1.93199 0.264405 0
M  V30 14383 O 1365.13 -1.82359 -0.715684 0
M  V30 14384 H 1363.71 -0.468421 0.581886 0
M  V30 14385 H 1366.37 -0.590447 1.85741 0
M  V30 14386 H 1365.46 -2.02913 2.37135 0
M  V30 14387 N 1365.76 -1.381 -0.759346 0
M  V30 14388 C 1366.71 -1.34972 -1.89434 0
M  V30 14389 C 1367.71 -0.236499 -1.67741 0
M  V30 14390 O 1368.91 -0.405218 -1.7538 0
M  V30 14391 H 1365.29 -0.420922 -0.62316 0
M  V30 14392 H 1367.26 -2.3076 -1.89189 0
M  V30 14393 C 1366.01 -1.18594 -3.2685 0
M  V30 14394 H 1365.33 -2.03514 -3.44125 0
M  V30 14395 H 1366.77 -1.20458 -4.06529 0
M  V30 14396 C 1365.23 0.107562 -3.36728 0
M  V30 14397 O 1365.76 1.08668 -3.86722 0
M  V30 14398 N 1363.97 0.162455 -2.90146 0
M  V30 14399 H 1363.51 -0.634985 -2.49651 0
M  V30 14400 H 1363.47 1.02751 -2.97136 0
M  V30 14401 N 1367.24 0.986894 -1.22875 0
M  V30 14402 C 1368.49 1.72729 -1.05693 0
M  V30 14403 C 1368.82 1.90191 0.407121 0
M  V30 14404 O 1368.07 1.44667 1.31796 0
M  V30 14405 C 1368.37 3.13283 -1.72012 0
M  V30 14406 C 1368.04 3.15719 -3.2192 0
M  V30 14407 C 1366.7 3.1609 -3.62823 0
M  V30 14408 C 1369.05 3.11539 -4.17843 0
M  V30 14409 C 1366.38 3.09991 -4.98119 0
M  V30 14410 C 1368.73 3.06982 -5.53123 0
M  V30 14411 C 1367.4 3.05672 -5.93397 0
M  V30 14412 H 1366.67 0.63206 -0.386758 0
M  V30 14413 H 1369.31 1.15538 -1.52719 0
M  V30 14414 H 1367.62 3.7382 -1.17327 0
M  V30 14415 H 1369.31 3.69326 -1.56203 0
M  V30 14416 H 1365.9 3.16183 -2.89355 0
M  V30 14417 H 1370.09 3.10397 -3.87256 0
M  V30 14418 H 1365.34 3.07326 -5.28546 0
M  V30 14419 H 1369.52 3.02705 -6.27171 0
M  V30 14420 H 1367.15 3.00701 -6.982 0
M  V30 14421 N 1368.72 1.0394 1.18466 0
M  V30 14422 C 1369.97 0.742042 1.88414 0
M  V30 14423 C 1370.3 -0.730138 1.80275 0
M  V30 14424 O 1369.55 -1.54844 1.19674 0
M  V30 14425 C 1369.85 1.15198 3.38326 0
M  V30 14426 C 1369.52 2.62422 3.66668 0
M  V30 14427 C 1368.18 3.02643 3.74113 0
M  V30 14428 C 1370.53 3.5762 3.79153 0
M  V30 14429 C 1367.86 4.36953 3.91522 0
M  V30 14430 C 1370.21 4.91647 3.98077 0
M  V30 14431 C 1368.87 5.31541 4.03758 0
M  V30 14432 H 1368.14 0.271532 0.689457 0
M  V30 14433 H 1370.79 1.30419 1.40225 0
M  V30 14434 H 1369.1 0.508607 3.88485 0
M  V30 14435 H 1370.79 0.899269 3.90787 0
M  V30 14436 H 1367.38 2.30268 3.61489 0
M  V30 14437 H 1371.57 3.27693 3.72735 0
M  V30 14438 H 1366.82 4.67382 3.94163 0
M  V30 14439 H 1371 5.65318 4.0668 0
M  V30 14440 H 1368.62 6.35622 4.16999 0
M  V30 14441 N 1370.2 -1.34667 0.818693 0
M  V30 14442 C 1371.16 -2.27908 0.243037 0
M  V30 14443 C 1372.16 -1.50106 -0.576622 0
M  V30 14444 O 1373.35 -1.69701 -0.393342 0
M  V30 14445 C 1370.48 -3.34455 -0.659759 0
M  V30 14446 H 1371.68 -2.80332 1.06555 0
M  V30 14447 H 1369.23 -1.44727 0.590237 0
M  V30 14448 H 1369.96 -2.87238 -1.50549 0
M  V30 14449 H 1369.75 -3.92031 -0.073567 0
M  V30 14450 H 1371.24 -4.04016 -1.05646 0
M  V30 14451 N 1371.68 -0.573274 -1.46804 0
M  V30 14452 C 1372.9 -0.0586717 -2.07317 0
M  V30 14453 C 1373.33 1.2328 -1.42069 0
M  V30 14454 O 1372.68 1.74235 -0.501188 0
M  V30 14455 C 1372.73 0.103503 -3.60451 0
M  V30 14456 O 1371.84 1.16229 -3.95682 0
M  V30 14457 H 1371.18 -0.0585504 -0.661414 0
M  V30 14458 H 1373.71 -0.793532 -1.88585 0
M  V30 14459 H 1373.72 0.312658 -4.068 0
M  V30 14460 H 1372.39 -0.839684 -4.07335 0
M  V30 14461 H 1370.97 0.932347 -3.61056 0
M  V30 14462 N 1373.15 1.5451 -0.310553 0
M  V30 14463 C 1374.57 1.59543 0.0425296 0
M  V30 14464 C 1374.77 1.32737 1.51602 0
M  V30 14465 O 1373.83 1.10543 2.27016 0
M  V30 14466 C 1375.14 2.98489 -0.364002 0
M  V30 14467 C 1376.69 3.11425 -0.313566 0
M  V30 14468 C 1377.16 4.52695 -0.695064 0
M  V30 14469 N 1378.65 4.58645 -0.647966 0
M  V30 14470 C 1379.39 5.66044 -0.915508 0
M  V30 14471 N 1378.88 6.81439 -1.24951 0
M  V30 14472 N 1380.68 5.55759 -0.841933 0
M  V30 14473 H 1372.83 1.70194 -1.27074 0
M  V30 14474 H 1375.09 0.795374 -0.515833 0
M  V30 14475 H 1374.8 3.23061 -1.39012 0
M  V30 14476 H 1374.67 3.76177 0.27756 0
M  V30 14477 H 1377.06 2.86596 0.703326 0
M  V30 14478 H 1377.14 2.35871 -0.989883 0
M  V30 14479 H 1376.78 4.78255 -1.70981 0
M  V30 14480 H 1376.71 5.266 0.00342684 0
M  V30 14481 H 1379.2 3.75765 -0.401137 0
M  V30 14482 H 1379.52 7.59277 -1.43938 0
M  V30 14483 H 1377.86 6.82968 -1.28764 0
M  V30 14484 H 1381.05 4.64486 -0.58058 0
M  V30 14485 H 1381.23 6.39374 -1.0538 0
M  V30 14486 N 1374.63 0.0384594 1.57553 0
M  V30 14487 C 1375.58 -0.940256 2.10779 0
M  V30 14488 C 1376.55 -1.31705 1.01208 0
M  V30 14489 O 1377.74 -1.40874 1.28683 0
M  V30 14490 C 1374.88 -2.21419 2.64703 0
M  V30 14491 C 1373.99 -1.89302 3.88315 0
M  V30 14492 C 1373.12 -3.1106 4.30599 0
M  V30 14493 C 1372.16 -2.74805 5.46945 0
M  V30 14494 N 1371.3 -3.89217 5.84341 0
M  V30 14495 H 1376.14 -0.479458 2.94118 0
M  V30 14496 H 1373.68 -0.22505 1.45368 0
M  V30 14497 H 1375.63 -2.95946 2.94061 0
M  V30 14498 H 1374.26 -2.65099 1.84181 0
M  V30 14499 H 1373.32 -1.04977 3.65628 0
M  V30 14500 H 1374.63 -1.58607 4.72912 0
M  V30 14501 H 1373.78 -3.93898 4.61442 0
M  V30 14502 H 1372.52 -3.44924 3.44788 0
M  V30 14503 H 1371.53 -1.9038 5.15786 0
M  V30 14504 H 1372.75 -2.42147 6.34462 0
M  V30 14505 H 1370.7 -4.22905 5.01485 0
M  V30 14506 H 1370.61 -3.62177 6.63599 0
M  V30 14507 H 1371.88 -4.72732 6.19794 0
M  V30 14508 N 1376.11 -1.55841 -0.234795 0
M  V30 14509 C 1377.36 -1.77886 -0.959217 0
M  V30 14510 C 1377.68 -0.604621 -1.8539 0
M  V30 14511 O 1376.95 0.379092 -1.92197 0
M  V30 14512 H 1375.53 -0.656077 -0.357172 0
M  V30 14513 H 1378.19 -1.93292 -0.249831 0
M  V30 14514 H 1377.29 -2.69512 -1.57383 0
M  V30 14515 N 1377.59 0.500963 -1.49426 0
M  V30 14516 C 1378.82 1.27725 -1.62388 0
M  V30 14517 C 1379.23 1.86893 -0.294544 0
M  V30 14518 O 1378.57 1.68571 0.73003 0
M  V30 14519 C 1378.63 2.44649 -2.63414 0
M  V30 14520 C 1378.3 2.0635 -4.0776 0
M  V30 14521 C 1379.29 1.60323 -4.94563 0
M  V30 14522 C 1376.98 2.15984 -4.53493 0
M  V30 14523 C 1378.97 1.24433 -6.25136 0
M  V30 14524 C 1376.66 1.79706 -5.8408 0
M  V30 14525 C 1377.66 1.34005 -6.69725 0
M  V30 14526 O 1377.35 0.982171 -7.97878 0
M  V30 14527 H 1377.08 0.393595 -0.549599 0
M  V30 14528 H 1379.63 0.607944 -1.96197 0
M  V30 14529 H 1377.86 3.14656 -2.24785 0
M  V30 14530 H 1379.55 3.06675 -2.65905 0
M  V30 14531 H 1380.32 1.52326 -4.60458 0
M  V30 14532 H 1376.2 2.50507 -3.86998 0
M  V30 14533 H 1379.74 0.886906 -6.91939 0
M  V30 14534 H 1375.64 1.87352 -6.17713 0
M  V30 14535 H 1376.4 1.11364 -8.10889 0
M  V30 14536 N 1379.07 1.38501 0.752011 0
M  V30 14537 C 1380.29 1.38212 1.54636 0
M  V30 14538 C 1380.72 -0.0256356 1.88083 0
M  V30 14539 O 1380.08 -1.00812 1.50687 0
M  V30 14540 C 1380.12 2.24597 2.82114 0
M  V30 14541 O 1379.23 1.66415 3.77332 0
M  V30 14542 H 1378.57 0.47138 0.46765 0
M  V30 14543 H 1381.1 1.82283 0.929205 0
M  V30 14544 H 1381.11 2.38511 3.31023 0
M  V30 14545 H 1379.78 3.26913 2.57101 0
M  V30 14546 H 1378.36 1.61651 3.36041 0
M  V30 14547 N 1380.55 -0.980364 1.23396 0
M  V30 14548 C 1381.96 -1.24658 0.996622 0
M  V30 14549 C 1382.16 -1.9922 -0.302259 0
M  V30 14550 O 1381.22 -2.30906 -1.02169 0
M  V30 14551 C 1382.53 -2.0461 2.20353 0
M  V30 14552 C 1384.08 -2.17749 2.24843 0
M  V30 14553 C 1384.55 -3.01091 3.4512 0
M  V30 14554 N 1386.04 -3.08676 3.4536 0
M  V30 14555 C 1386.78 -3.73487 4.3508 0
M  V30 14556 N 1386.28 -4.40121 5.35038 0
M  V30 14557 N 1388.07 -3.70373 4.22824 0
M  V30 14558 H 1380.22 -0.480851 2.06885 0
M  V30 14559 H 1382.48 -0.275049 0.907222 0
M  V30 14560 H 1382.19 -1.57197 3.14614 0
M  V30 14561 H 1382.06 -3.05359 2.21441 0
M  V30 14562 H 1384.45 -2.64369 1.31122 0
M  V30 14563 H 1384.53 -1.16388 2.27788 0
M  V30 14564 H 1384.17 -2.55168 4.39149 0
M  V30 14565 H 1384.1 -4.02621 3.39417 0
M  V30 14566 H 1386.6 -2.61265 2.73037 0
M  V30 14567 H 1386.91 -4.87354 5.99755 0
M  V30 14568 H 1385.25 -4.38829 5.38938 0
M  V30 14569 H 1388.44 -3.17486 3.43977 0
M  V30 14570 H 1388.62 -4.20601 4.92949 0
M  V30 14571 N 1382.02 -1.04567 -1.17913 0
M  V30 14572 C 1382.97 -0.641119 -2.21717 0
M  V30 14573 C 1383.94 0.353585 -1.62293 0
M  V30 14574 O 1385.13 0.246427 -1.89202 0
M  V30 14575 C 1382.27 -0.0154726 -3.45097 0
M  V30 14576 C 1381.38 -1.05825 -4.18838 0
M  V30 14577 C 1380.51 -0.400588 -5.29687 0
M  V30 14578 C 1379.55 -1.42811 -5.95207 0
M  V30 14579 N 1378.69 -0.795059 -6.97584 0
M  V30 14580 H 1383.53 -1.5308 -2.55676 0
M  V30 14581 H 1381.07 -0.765715 -1.25599 0
M  V30 14582 H 1383.02 0.364653 -4.15603 0
M  V30 14583 H 1381.65 0.837704 -3.11741 0
M  V30 14584 H 1380.71 -1.55627 -3.47109 0
M  V30 14585 H 1382.02 -1.83849 -4.63682 0
M  V30 14586 H 1381.17 0.0334682 -6.06691 0
M  V30 14587 H 1379.91 0.411696 -4.85959 0
M  V30 14588 H 1378.92 -1.87225 -5.1694 0
M  V30 14589 H 1380.14 -2.24218 -6.41017 0
M  V30 14590 H 1378.09 -0.00317202 -6.56 0
M  V30 14591 H 1378 -1.51293 -7.40707 0
M  V30 14592 H 1379.27 -0.385567 -7.78546 0
M  V30 14593 N 1383.5 1.34231 -0.825823 0
M  V30 14594 C 1384.75 1.97805 -0.414456 0
M  V30 14595 C 1385.07 1.65786 1.02664 0
M  V30 14596 O 1384.34 0.950069 1.7132 0
M  V30 14597 H 1382.92 0.73173 -0.150265 0
M  V30 14598 H 1385.58 1.63819 -1.05591 0
M  V30 14599 H 1384.68 3.07466 -0.535829 0
M  V30 14600 N 1384.98 0.581051 1.46498 0
M  V30 14601 C 1386.23 0.0659956 2.02392 0
M  V30 14602 C 1386.55 -1.29329 1.45273 0
M  V30 14603 O 1385.81 -1.86047 0.607041 0
M  V30 14604 C 1386.11 -0.0514774 3.57363 0
M  V30 14605 C 1385.77 1.24 4.33514 0
M  V30 14606 C 1384.44 1.59383 4.54038 0
M  V30 14607 C 1386.79 2.09473 4.77253 0
M  V30 14608 C 1384.12 2.8004 5.15552 0
M  V30 14609 C 1386.47 3.29355 5.401 0
M  V30 14610 C 1385.13 3.65022 5.58852 0
M  V30 14611 H 1384.4 0.0241495 0.740606 0
M  V30 14612 H 1387.05 0.757354 1.75887 0
M  V30 14613 H 1385.35 -0.825955 3.82995 0
M  V30 14614 H 1387.05 -0.465726 3.98286 0
M  V30 14615 H 1383.64 0.954547 4.17835 0
M  V30 14616 H 1387.83 1.83441 4.61154 0
M  V30 14617 H 1383.08 3.07814 5.28262 0
M  V30 14618 H 1387.26 3.95855 5.7295 0
M  V30 14619 H 1384.88 4.58607 6.06287 0
M  V30 14620 N 1386.46 -1.54343 0.318742 0
M  V30 14621 C 1387.73 -1.92635 -0.339299 0
M  V30 14622 C 1388.11 -1.24786 -1.7027 0
M  V30 14623 O 1387.46 -0.389844 -2.2515 0
M  V30 14624 C 1387.67 -3.46262 -0.436318 0
M  V30 14625 C 1389.02 -4.18809 -0.698871 0
M  V30 14626 O 1390.04 -3.52392 -0.519431 0
M  V30 14627 O 1388.9 -5.36422 -1.04471 0
M  V30 14628 H 1386 -0.804202 -0.192841 0
M  V30 14629 H 1388.54 -1.6566 0.368104 0
M  V30 14630 H 1387.32 -3.8781 0.521427 0
M  V30 14631 H 1386.94 -3.79327 -1.19149 0
M  V30 14632 N 1387.94 -0.0468143 -1.5753 0
M  V30 14633 C 1389.35 0.309707 -1.56566 0
M  V30 14634 C 1389.55 1.7173 -1.05408 0
M  V30 14635 O 1388.61 2.4235 -0.708723 0
M  V30 14636 C 1389.92 0.142151 -3.00364 0
M  V30 14637 C 1391.47 0.213585 -3.1227 0
M  V30 14638 C 1391.94 0.0746102 -4.57939 0
M  V30 14639 N 1393.43 0.131027 -4.63015 0
M  V30 14640 C 1394.17 0.0475409 -5.7338 0
M  V30 14641 N 1393.67 -0.0880445 -6.92744 0
M  V30 14642 N 1395.46 0.102809 -5.62006 0
M  V30 14643 H 1387.61 -0.967057 -1.89108 0
M  V30 14644 H 1389.87 -0.375018 -0.870669 0
M  V30 14645 H 1389.58 -0.828171 -3.4181 0
M  V30 14646 H 1389.45 0.905006 -3.66182 0
M  V30 14647 H 1391.84 1.17438 -2.70726 0
M  V30 14648 H 1391.92 -0.57995 -2.49139 0
M  V30 14649 H 1391.56 -0.882839 -5.00168 0
M  V30 14650 H 1391.49 0.887235 -5.19072 0
M  V30 14651 H 1393.99 0.235246 -3.77167 0
M  V30 14652 H 1394.3 -0.144574 -7.72665 0
M  V30 14653 H 1392.64 -0.12307 -6.94891 0
M  V30 14654 H 1395.83 0.207259 -4.67641 0
M  V30 14655 H 1396.01 0.0342865 -6.47991 0
M  V30 14656 N 1389.41 1.55964 0.226527 0
M  V30 14657 C 1390.34 1.95028 1.284 0
M  V30 14658 C 1391.33 0.817833 1.49149 0
M  V30 14659 O 1392.51 1.07975 1.61416 0
M  V30 14660 C 1389.64 2.26266 2.63478 0
M  V30 14661 C 1388.59 3.41954 2.57393 0
M  V30 14662 C 1387.92 3.58786 3.96456 0
M  V30 14663 C 1389.22 4.77069 2.12608 0
M  V30 14664 H 1390.91 2.83608 0.959513 0
M  V30 14665 H 1388.46 1.36451 0.460125 0
M  V30 14666 H 1390.41 2.52186 3.3761 0
M  V30 14667 H 1389.14 1.34533 2.97604 0
M  V30 14668 H 1387.8 3.16076 1.85719 0
M  V30 14669 H 1387.44 2.64437 4.27881 0
M  V30 14670 H 1387.14 4.36595 3.93267 0
M  V30 14671 H 1388.67 3.87048 4.72256 0
M  V30 14672 H 1390.08 5.02226 2.76481 0
M  V30 14673 H 1388.48 5.58126 2.2049 0
M  V30 14674 H 1389.55 4.7276 1.07823 0
M  V30 14675 N 1390.89 -0.493031 1.4969 0
M  V30 14676 C 1392.12 -1.27517 1.63567 0
M  V30 14677 C 1392.54 -1.85526 0.310105 0
M  V30 14678 O 1391.9 -1.66246 -0.723314 0
M  V30 14679 C 1391.95 -2.37551 2.71296 0
M  V30 14680 O 1391.05 -3.41617 2.31023 0
M  V30 14681 H 1390.39 -0.376116 0.547205 0
M  V30 14682 H 1392.92 -0.589328 1.95929 0
M  V30 14683 H 1392.93 -2.83196 2.93708 0
M  V30 14684 H 1391.61 -1.94697 3.67513 0
M  V30 14685 H 1390.19 -3.01836 2.18974 0
M  V30 14686 N 1392.37 -1.38898 -0.744656 0
M  V30 14687 C 1393.6 -1.38848 -1.53391 0
M  V30 14688 C 1394.01 0.0194949 -1.8879 0
M  V30 14689 O 1393.37 0.988399 -1.53417 0
M  V30 14690 C 1393.42 -2.25243 -2.8275 0
M  V30 14691 O 1393.14 -3.60557 -2.48858 0
M  V30 14692 C 1394.64 -2.33471 -3.76837 0
M  V30 14693 H 1391.86 -0.4746 -0.474338 0
M  V30 14694 H 1394.41 -1.82591 -0.920902 0
M  V30 14695 H 1392.56 -1.84938 -3.40407 0
M  V30 14696 H 1392.98 -4.06142 -3.31887 0
M  V30 14697 H 1394.45 -2.9819 -4.64528 0
M  V30 14698 H 1394.93 -1.351 -4.17905 0
M  V30 14699 H 1395.53 -2.74205 -3.25103 0
M  V30 14700 N 1393.85 0.973806 -1.23914 0
M  V30 14701 C 1394.76 2.10138 -1.04304 0
M  V30 14702 C 1395.77 1.73994 0.0143888 0
M  V30 14703 O 1396.95 2.00572 -0.182481 0
M  V30 14704 C 1394.02 3.40673 -0.643639 0
M  V30 14705 C 1393.08 3.90802 -1.77686 0
M  V30 14706 C 1392.31 5.15108 -1.39642 0
M  V30 14707 O 1392.53 5.69695 -0.283546 0
M  V30 14708 O 1391.47 5.59468 -2.21988 0
M  V30 14709 H 1395.29 2.29574 -1.9882 0
M  V30 14710 H 1392.88 1.08524 -1.02679 0
M  V30 14711 H 1394.76 4.19178 -0.432145 0
M  V30 14712 H 1393.43 3.22551 0.272458 0
M  V30 14713 H 1392.34 3.13385 -2.04305 0
M  V30 14714 H 1393.67 4.1339 -2.67151 0
M  V30 14715 N 1395.33 1.05191 1.17357 0
M  V30 14716 C 1396.57 0.760479 1.87246 0
M  V30 14717 C 1396.9 -0.714618 1.81434 0
M  V30 14718 O 1396.17 -1.51636 1.24029 0
M  V30 14719 H 1394.75 0.278317 0.693216 0
M  V30 14720 H 1397.41 1.33106 1.42369 0
M  V30 14721 H 1396.5 1.07542 2.92987 0
M  V30 14722 N 1396.8 -1.33791 0.83293 0
M  V30 14723 C 1398.03 -2.0272 0.438111 0
M  V30 14724 C 1398.45 -1.62279 -0.951163 0
M  V30 14725 O 1397.81 -0.812406 -1.62079 0
M  V30 14726 C 1397.86 -3.5623 0.559698 0
M  V30 14727 O 1396.96 -4.10292 -0.41646 0
M  V30 14728 H 1396.31 -0.639438 0.178928 0
M  V30 14729 H 1398.84 -1.70821 1.12612 0
M  V30 14730 H 1398.85 -4.0563 0.439148 0
M  V30 14731 H 1397.52 -3.8501 1.5729 0
M  V30 14732 H 1396.1 -3.72034 -0.25396 0
M  V30 14733 N 1398.28 -0.588812 -1.46187 0
M  V30 14734 C 1399.56 -0.00958331 -1.95598 0
M  V30 14735 C 1399.94 1.45294 -1.53144 0
M  V30 14736 O 1399.29 2.14592 -0.785015 0
M  V30 14737 C 1399.5 -0.188018 -3.48493 0
M  V30 14738 C 1400.85 -0.0590152 -4.24559 0
M  V30 14739 O 1401.87 -0.117167 -3.56007 0
M  V30 14740 O 1400.73 0.0715924 -5.46453 0
M  V30 14741 H 1397.82 0.0463708 -0.825699 0
M  V30 14742 H 1400.37 -0.657558 -1.56443 0
M  V30 14743 H 1399.14 -1.20449 -3.723 0
M  V30 14744 H 1398.76 0.496103 -3.94493 0
M  V30 14745 N 1399.76 1.54172 -0.326923 0
M  V30 14746 C 1400.69 2.21958 0.571588 0
M  V30 14747 C 1401.71 1.22067 1.0772 0
M  V30 14748 O 1402.89 1.48517 0.990202 0
M  V30 14749 C 1399.99 2.87307 1.79744 0
M  V30 14750 C 1399.17 4.13366 1.42995 0
M  V30 14751 C 1398.23 4.62276 2.5137 0
M  V30 14752 O 1397.25 5.2688 2.15373 0
M  V30 14753 N 1398.45 4.36789 3.82355 0
M  V30 14754 H 1401.22 2.99699 -0.00885848 0
M  V30 14755 H 1398.78 1.61201 -0.150279 0
M  V30 14756 H 1400.77 3.1695 2.51644 0
M  V30 14757 H 1399.34 2.13252 2.28566 0
M  V30 14758 H 1398.56 3.9045 0.542444 0
M  V30 14759 H 1399.85 4.95396 1.16017 0
M  V30 14760 H 1399.25 3.85086 4.14397 0
M  V30 14761 H 1397.81 4.71079 4.50475 0
M  V30 14762 N 1401.24 0.0551678 1.57503 0
M  V30 14763 C 1402.15 -0.932959 2.15251 0
M  V30 14764 C 1403.16 -1.33885 1.11134 0
M  V30 14765 O 1404.34 -1.41495 1.43321 0
M  V30 14766 C 1401.41 -2.18807 2.68932 0
M  V30 14767 C 1400.47 -1.84016 3.87862 0
M  V30 14768 C 1399.7 -3.03543 4.38973 0
M  V30 14769 O 1399.92 -4.17041 3.89144 0
M  V30 14770 O 1398.86 -2.84325 5.30512 0
M  V30 14771 H 1402.68 -0.471816 3.00013 0
M  V30 14772 H 1400.27 -0.16696 1.48464 0
M  V30 14773 H 1402.15 -2.92439 3.0341 0
M  V30 14774 H 1400.82 -2.64051 1.87239 0
M  V30 14775 H 1399.73 -1.07687 3.58266 0
M  V30 14776 H 1401.06 -1.43567 4.70796 0
M  V30 14777 N 1402.72 -1.56081 -0.218252 0
M  V30 14778 C 1403.66 -1.92684 -1.27049 0
M  V30 14779 C 1404.63 -0.784441 -1.46409 0
M  V30 14780 O 1405.82 -1.04062 -1.59924 0
M  V30 14781 C 1402.96 -2.25174 -2.61516 0
M  V30 14782 C 1402.07 -3.52364 -2.49927 0
M  V30 14783 C 1401.21 -3.74286 -3.7694 0
M  V30 14784 C 1400.25 -4.94979 -3.60087 0
M  V30 14785 N 1399.38 -5.13273 -4.79057 0
M  V30 14786 H 1404.22 -2.82406 -0.951347 0
M  V30 14787 H 1401.76 -1.39774 -0.458441 0
M  V30 14788 H 1403.72 -2.42022 -3.39825 0
M  V30 14789 H 1402.35 -1.38621 -2.9152 0
M  V30 14790 H 1401.4 -3.43691 -1.63036 0
M  V30 14791 H 1402.71 -4.40826 -2.33397 0
M  V30 14792 H 1401.87 -3.91248 -4.63692 0
M  V30 14793 H 1400.6 -2.84111 -3.96399 0
M  V30 14794 H 1399.61 -4.77963 -2.71719 0
M  V30 14795 H 1400.83 -5.86641 -3.42095 0
M  V30 14796 H 1398.78 -4.26041 -4.98824 0
M  V30 14797 H 1398.7 -5.95873 -4.65265 0
M  V30 14798 H 1399.97 -5.34673 -5.67226 0
M  V30 14799 N 1404.2 0.485086 -1.49949 0
M  V30 14800 C 1405.11 1.61089 -1.70551 0
M  V30 14801 C 1406.12 1.63752 -0.588333 0
M  V30 14802 O 1407.3 1.81879 -0.86498 0
M  V30 14803 C 1404.36 2.97382 -1.78227 0
M  V30 14804 C 1403.42 3.05219 -3.01894 0
M  V30 14805 C 1402.66 4.35011 -3.09195 0
M  V30 14806 O 1402.88 5.24722 -2.23658 0
M  V30 14807 O 1401.81 4.48151 -4.01802 0
M  V30 14808 H 1405.64 1.46633 -2.65956 0
M  V30 14809 H 1403.22 0.663091 -1.33879 0
M  V30 14810 H 1405.11 3.78356 -1.85538 0
M  V30 14811 H 1403.78 3.12066 -0.860043 0
M  V30 14812 H 1402.69 2.23373 -3.00092 0
M  V30 14813 H 1404.02 2.95467 -3.93649 0
M  V30 14814 N 1405.67 1.39291 0.737279 0
M  V30 14815 C 1406.95 1.26901 1.48847 0
M  V30 14816 C 1407.33 -0.122417 2.10745 0
M  V30 14817 O 1406.68 -1.13343 1.98408 0
M  V30 14818 C 1406.89 2.3916 2.54172 0
M  V30 14819 C 1408.24 2.78368 3.20619 0
M  V30 14820 O 1409.26 2.38593 2.64484 0
M  V30 14821 O 1408.12 3.47014 4.22189 0
M  V30 14822 H 1405.21 0.497176 0.660867 0
M  V30 14823 H 1407.76 1.51159 0.771299 0
M  V30 14824 H 1406.53 3.3219 2.06797 0
M  V30 14825 H 1406.15 2.16555 3.33451 0
M  V30 14826 N 1407.15 -0.967221 1.24429 0
M  V30 14827 C 1408.43 -1.68564 0.992253 0
M  V30 14828 C 1408.81 -2.05446 -0.485301 0
M  V30 14829 O 1408.16 -1.75798 -1.45971 0
M  V30 14830 C 1408.37 -2.91728 1.91562 0
M  V30 14831 C 1409.71 -3.63957 2.18678 0
M  V30 14832 O 1410.74 -3.01786 1.89219 0
M  V30 14833 O 1409.6 -4.75875 2.68711 0
M  V30 14834 H 1406.69 -0.736939 0.375299 0
M  V30 14835 H 1409.24 -1.02127 1.35529 0
M  V30 14836 H 1408.01 -2.61168 2.91388 0
M  V30 14837 H 1407.63 -3.65898 1.55577 0
M  V30 14838 N 1408.63 -1.05812 -1.16797 0
M  V30 14839 C 1409.88 -0.770398 -1.8684 0
M  V30 14840 C 1410.2 0.704986 -1.8181 0
M  V30 14841 O 1409.47 1.50977 -1.24832 0
M  V30 14842 H 1408.05 -0.281989 -0.691731 0
M  V30 14843 H 1410.71 -1.33859 -1.41661 0
M  V30 14844 H 1409.81 -1.09094 -2.92412 0
M  V30 14845 N 1410.11 1.33347 -0.840014 0
M  V30 14846 C 1411.33 2.02485 -0.448856 0
M  V30 14847 C 1411.76 1.62781 0.942543 0
M  V30 14848 O 1411.12 0.82099 1.61646 0
M  V30 14849 C 1411.16 3.55928 -0.578582 0
M  V30 14850 O 1410.27 4.10507 0.394695 0
M  V30 14851 H 1409.61 0.63848 -0.182317 0
M  V30 14852 H 1412.14 1.70221 -1.13516 0
M  V30 14853 H 1412.15 4.05391 -0.460653 0
M  V30 14854 H 1410.82 3.8417 -1.5933 0
M  V30 14855 H 1409.4 3.72164 0.234227 0
M  V30 14856 N 1411.59 0.596556 1.45873 0
M  V30 14857 C 1412.5 -0.130832 2.34235 0
M  V30 14858 C 1413.51 -0.871805 1.50584 0
M  V30 14859 O 1414.69 -0.831877 1.83417 0
M  V30 14860 C 1411.75 -1.12279 3.28016 0
M  V30 14861 C 1410.81 -0.384982 4.2757 0
M  V30 14862 C 1410.05 -1.32969 5.1687 0
M  V30 14863 O 1410.27 -2.56696 5.09375 0
M  V30 14864 O 1409.2 -0.832741 5.96112 0
M  V30 14865 H 1413.03 0.59503 2.97814 0
M  V30 14866 H 1410.61 0.356873 1.45075 0
M  V30 14867 H 1412.5 -1.6944 3.85834 0
M  V30 14868 H 1411.17 -1.82988 2.67015 0
M  V30 14869 H 1410.08 0.228816 3.734 0
M  V30 14870 H 1411.41 0.281398 4.91395 0
M  V30 14871 N 1413.06 -1.53996 0.335095 0
M  V30 14872 C 1414.29 -2.05657 -0.268328 0
M  V30 14873 C 1414.71 -1.20897 -1.44102 0
M  V30 14874 O 1414.07 -0.220737 -1.79951 0
M  V30 14875 C 1414.12 -3.54331 -0.669481 0
M  V30 14876 O 1413.22 -3.7246 -1.77052 0
M  V30 14877 H 1412.56 -0.662386 -0.0462705 0
M  V30 14878 H 1415.09 -1.98723 0.486854 0
M  V30 14879 H 1415.1 -3.9681 -0.948971 0
M  V30 14880 H 1413.78 -4.15474 0.188168 0
M  V30 14881 H 1412.36 -3.41884 -1.48895 0
M  V30 14882 N 1414.54 -0.0635198 -1.57472 0
M  V30 14883 C 1415.45 0.921531 -2.15743 0
M  V30 14884 C 1416.47 1.33294 -1.11842 0
M  V30 14885 O 1417.64 1.40733 -1.4407 0
M  V30 14886 C 1414.71 2.17378 -2.70088 0
M  V30 14887 C 1413.77 1.81956 -3.88832 0
M  V30 14888 C 1413 3.01211 -4.40577 0
M  V30 14889 O 1413.23 4.14971 -3.9135 0
M  V30 14890 O 1412.16 2.81507 -5.32012 0
M  V30 14891 H 1415.99 0.455899 -3.00259 0
M  V30 14892 H 1413.57 0.159085 -1.48551 0
M  V30 14893 H 1415.45 2.90826 -3.04956 0
M  V30 14894 H 1414.13 2.63055 -1.88637 0
M  V30 14895 H 1413.03 1.05786 -3.58832 0
M  V30 14896 H 1414.37 1.41069 -4.71551 0
M  V30 14897 N 1416.02 1.56195 0.209972 0
M  V30 14898 C 1416.93 1.96539 1.28101 0
M  V30 14899 C 1417.95 0.870858 1.50639 0
M  V30 14900 O 1419.12 1.17539 1.63544 0
M  V30 14901 C 1416.19 2.28392 2.60841 0
M  V30 14902 C 1415.25 3.51474 2.46505 0
M  V30 14903 C 1414.48 3.81798 3.72915 0
M  V30 14904 O 1414.7 3.13627 4.76439 0
M  V30 14905 O 1413.64 4.75264 3.69334 0
M  V30 14906 H 1417.46 2.87838 0.968671 0
M  V30 14907 H 1415.05 1.43556 0.413777 0
M  V30 14908 H 1416.93 2.50022 3.39215 0
M  V30 14909 H 1415.61 1.40264 2.91732 0
M  V30 14910 H 1414.51 3.35109 1.66292 0
M  V30 14911 H 1415.85 4.40021 2.2055 0
M  V30 14912 N 1417.5 -0.477127 1.50204 0
M  V30 14913 C 1418.41 -1.60182 1.71403 0
M  V30 14914 C 1419.42 -1.63437 0.597009 0
M  V30 14915 O 1420.6 -1.81418 0.874614 0
M  V30 14916 C 1417.66 -2.96432 1.79802 0
M  V30 14917 C 1416.73 -3.03614 3.03508 0
M  V30 14918 C 1415.96 -4.33365 3.11497 0
M  V30 14919 O 1416.18 -5.23529 2.26438 0
M  V30 14920 O 1415.12 -4.46013 4.04173 0
M  V30 14921 H 1418.94 -1.45221 2.66729 0
M  V30 14922 H 1416.53 -0.655982 1.34228 0
M  V30 14923 H 1418.41 -3.77367 1.87542 0
M  V30 14924 H 1417.08 -3.11605 0.876581 0
M  V30 14925 H 1415.99 -2.21779 3.01272 0
M  V30 14926 H 1417.32 -2.93376 3.95211 0
M  V30 14927 N 1418.98 -1.3968 -0.729882 0
M  V30 14928 C 1420.21 -1.40263 -1.5169 0
M  V30 14929 C 1420.61 0.00325293 -1.892 0
M  V30 14930 O 1419.96 0.986225 -1.54982 0
M  V30 14931 C 1420.02 -2.21629 -2.83056 0
M  V30 14932 C 1419.68 -3.70204 -2.67951 0
M  V30 14933 C 1420.68 -4.63169 -2.36158 0
M  V30 14934 C 1418.37 -4.13851 -2.84662 0
M  V30 14935 C 1420.36 -5.97763 -2.21265 0
M  V30 14936 C 1418.05 -5.4852 -2.69387 0
M  V30 14937 C 1419.04 -6.4029 -2.37734 0
M  V30 14938 O 1418.73 -7.72478 -2.22561 0
M  V30 14939 H 1418.46 -0.480808 -0.475184 0
M  V30 14940 H 1421.02 -1.84184 -0.909136 0
M  V30 14941 H 1419.25 -1.72465 -3.46111 0
M  V30 14942 H 1420.94 -2.14328 -3.447 0
M  V30 14943 H 1421.7 -4.30748 -2.22893 0
M  V30 14944 H 1417.58 -3.42751 -3.0829 0
M  V30 14945 H 1421.13 -6.69359 -1.96481 0
M  V30 14946 H 1417.02 -5.8053 -2.82232 0
M  V30 14947 H 1417.79 -7.83258 -2.37591 0
M  V30 14948 N 1420.45 0.960609 -1.2494 0
M  V30 14949 C 1421.68 1.7446 -1.12153 0
M  V30 14950 C 1422.1 1.85335 0.321315 0
M  V30 14951 O 1421.46 1.32944 1.23271 0
M  V30 14952 C 1421.51 3.13945 -1.774 0
M  V30 14953 O 1420.61 3.9882 -1.04958 0
M  V30 14954 H 1419.96 0.536007 -0.391909 0
M  V30 14955 H 1422.49 1.2045 -1.65388 0
M  V30 14956 H 1422.5 3.64434 -1.83444 0
M  V30 14957 H 1421.17 3.05346 -2.82377 0
M  V30 14958 H 1419.75 3.57293 -1.06752 0
M  V30 14959 N 1421.93 1.0643 1.16234 0
M  V30 14960 C 1422.9 0.680383 2.18869 0
M  V30 14961 C 1423.9 -0.274591 1.58438 0
M  V30 14962 O 1425.09 -0.0567907 1.74107 0
M  V30 14963 C 1422.22 0.00134091 3.409 0
M  V30 14964 H 1423.41 1.58894 2.54347 0
M  V30 14965 H 1420.96 0.859688 1.30534 0
M  V30 14966 H 1421.7 -0.919903 3.1098 0
M  V30 14967 H 1421.48 0.688057 3.86016 0
M  V30 14968 H 1422.97 -0.252938 4.16833 0
M  V30 14969 N 1423.41 -1.329 0.847073 0
M  V30 14970 C 1424.82 -1.79813 0.502394 0
M  V30 14971 C 1425.17 -1.70017 -0.979218 0
M  V30 14972 O 1424.3 -1.25427 -1.76344 0
M  V30 14973 C 1424.89 -3.26485 0.905154 0
M  V30 14974 C 1423.45 -3.71383 0.612489 0
M  V30 14975 C 1422.6 -2.54157 1.10903 0
M  V30 14976 H 1425.55 -1.20306 1.035 0
M  V30 14977 H 1425.57 -3.79872 0.218476 0
M  V30 14978 H 1425.08 -3.33583 1.98353 0
M  V30 14979 H 1423.18 -3.69806 -0.45548 0
M  V30 14980 H 1423.3 -4.64507 1.17347 0
M  V30 14981 H 1421.66 -2.49134 0.529576 0
M  V30 14982 H 1422.44 -2.64013 2.19435 0
M  V30 14983 N 1424.89 -0.604284 -1.45555 0
M  V30 14984 C 1425.82 0.103859 -2.33269 0
M  V30 14985 C 1426.8 0.862104 -1.46635 0
M  V30 14986 O 1427.98 0.833308 -1.75413 0
M  V30 14987 C 1425.11 1.104 -3.29286 0
M  V30 14988 C 1424.07 0.459189 -4.2553 0
M  V30 14989 C 1423.39 1.56734 -5.11213 0
M  V30 14990 C 1424.69 -0.617509 -5.18637 0
M  V30 14991 H 1426.39 -0.628538 -2.92728 0
M  V30 14992 H 1423.93 -0.303711 -1.40761 0
M  V30 14993 H 1425.89 1.60794 -3.89517 0
M  V30 14994 H 1424.61 1.86695 -2.67979 0
M  V30 14995 H 1423.27 -0.0238508 -3.66592 0
M  V30 14996 H 1422.92 2.32049 -4.46276 0
M  V30 14997 H 1422.62 1.14142 -5.76407 0
M  V30 14998 H 1424.14 2.07361 -5.74312 0
M  V30 14999 H 1425.56 -0.197784 -5.72959 0
M  V30 15000 H 1423.95 -0.96499 -5.9229 0
M  V30 15001 H 1425.02 -1.49541 -4.61265 0
M  V30 15002 N 1426.37 1.53816 -0.343257 0
M  V30 15003 C 1427.78 1.86169 0.140709 0
M  V30 15004 C 1428.13 1.26449 1.50017 0
M  V30 15005 O 1427.25 0.577955 2.08539 0
M  V30 15006 C 1427.85 3.37785 0.262097 0
M  V30 15007 C 1426.41 3.70016 0.690294 0
M  V30 15008 C 1425.55 2.7674 -0.17614 0
M  V30 15009 H 1428.51 1.48383 -0.562863 0
M  V30 15010 H 1428.53 3.64564 1.08964 0
M  V30 15011 H 1428.04 3.81221 -0.727481 0
M  V30 15012 H 1426.14 3.32124 1.68891 0
M  V30 15013 H 1426.25 4.76686 0.480388 0
M  V30 15014 H 1424.62 2.52263 0.351476 0
M  V30 15015 H 1425.4 3.23006 -1.16285 0
M  V30 15016 N 1427.84 0.0718701 1.57436 0
M  V30 15017 C 1428.81 -0.880671 2.11605 0
M  V30 15018 C 1429.81 -1.22632 1.0401 0
M  V30 15019 O 1431 -1.15958 1.29997 0
M  V30 15020 C 1428.13 -2.18407 2.61746 0
M  V30 15021 H 1429.32 -0.410712 2.97074 0
M  V30 15022 H 1426.88 -0.176836 1.55296 0
M  V30 15023 H 1427.61 -2.6994 1.79731 0
M  V30 15024 H 1427.4 -1.94616 3.40392 0
M  V30 15025 H 1428.89 -2.86596 3.03731 0
M  V30 15026 N 1429.32 -1.56304 -0.201686 0
M  V30 15027 C 1430.25 -1.97046 -1.25281 0
M  V30 15028 C 1431.23 -0.841458 -1.47829 0
M  V30 15029 O 1432.42 -1.10529 -1.59678 0
M  V30 15030 C 1429.55 -2.30429 -2.59845 0
M  V30 15031 C 1428.5 -3.46006 -2.5192 0
M  V30 15032 C 1427.83 -3.65047 -3.90697 0
M  V30 15033 C 1429.13 -4.80391 -2.04992 0
M  V30 15034 H 1430.82 -2.85099 -0.914272 0
M  V30 15035 H 1428.37 -1.37166 -0.438359 0
M  V30 15036 H 1430.32 -2.57525 -3.33555 0
M  V30 15037 H 1429.05 -1.39251 -2.95426 0
M  V30 15038 H 1427.7 -3.18991 -1.80667 0
M  V30 15039 H 1427.35 -2.71211 -4.2362 0
M  V30 15040 H 1427.05 -4.42796 -3.86271 0
M  V30 15041 H 1428.58 -3.94512 -4.66039 0
M  V30 15042 H 1429.99 -5.06561 -2.68456 0
M  V30 15043 H 1428.39 -5.61563 -2.11582 0
M  V30 15044 H 1429.46 -4.74416 -1.00288 0
M  V30 15045 N 1430.8 0.469154 -1.50455 0
M  V30 15046 C 1431.76 1.5493 -1.68906 0
M  V30 15047 C 1432.76 1.50744 -0.559721 0
M  V30 15048 O 1433.95 1.5333 -0.826781 0
M  V30 15049 C 1431.09 2.94556 -1.71609 0
M  V30 15050 H 1432.28 1.39887 -2.65276 0
M  V30 15051 H 1429.83 0.695667 -1.39965 0
M  V30 15052 H 1430.57 3.15041 -0.769382 0
M  V30 15053 H 1430.35 2.99002 -2.53654 0
M  V30 15054 H 1431.84 3.72973 -1.87831 0
M  V30 15055 N 1432.28 1.40065 0.722464 0
M  V30 15056 C 1433.69 1.33876 1.30131 0
M  V30 15057 C 1434.04 0.00899369 1.96198 0
M  V30 15058 O 1433.17 -0.893082 1.97112 0
M  V30 15059 C 1433.76 2.42469 2.36631 0
M  V30 15060 C 1432.32 2.39762 2.90157 0
M  V30 15061 C 1431.47 2.23704 1.63865 0
M  V30 15062 H 1434.42 1.49971 0.519077 0
M  V30 15063 H 1434.44 2.0998 3.17315 0
M  V30 15064 H 1433.95 3.39239 1.88517 0
M  V30 15065 H 1432.05 1.46669 3.42519 0
M  V30 15066 H 1432.16 3.35092 3.42419 0
M  V30 15067 H 1430.53 1.71098 1.88674 0
M  V30 15068 H 1431.31 3.22462 1.17785 0
M  V30 15069 N 1433.76 -0.95397 1.25448 0
M  V30 15070 C 1434.98 -1.73863 1.13077 0
M  V30 15071 C 1435.41 -1.85503 -0.311481 0
M  V30 15072 O 1434.77 -1.33596 -1.22564 0
M  V30 15073 C 1434.81 -3.13 1.79062 0
M  V30 15074 O 1433.92 -3.98258 1.07072 0
M  V30 15075 H 1433.26 -0.533921 0.394746 0
M  V30 15076 H 1435.79 -1.19571 1.66024 0
M  V30 15077 H 1435.8 -3.63456 1.85374 0
M  V30 15078 H 1434.47 -3.03844 2.83992 0
M  V30 15079 H 1433.05 -3.56722 1.08645 0
M  V30 15080 N 1435.24 -1.07045 -1.15668 0
M  V30 15081 C 1436.46 -0.812802 -1.9081 0
M  V30 15082 C 1436.89 0.627827 -1.77313 0
M  V30 15083 O 1436.24 1.43836 -1.10368 0
M  V30 15084 C 1436.29 -1.2219 -3.39267 0
M  V30 15085 O 1435.4 -0.365305 -4.10779 0
M  V30 15086 H 1434.74 -0.296385 -0.594182 0
M  V30 15087 H 1437.27 -1.42825 -1.465 0
M  V30 15088 H 1437.28 -1.19674 -3.90054 0
M  V30 15089 H 1435.95 -2.27121 -3.48409 0
M  V30 15090 H 1434.53 -0.452687 -3.70142 0
M  V30 15091 N 1436.71 1.32449 -0.85411 0
M  V30 15092 C 1437.94 2.01997 -0.470307 0
M  V30 15093 C 1438.36 1.63772 0.925225 0
M  V30 15094 O 1437.72 0.838089 1.60766 0
M  V30 15095 C 1437.77 3.55294 -0.616301 0
M  V30 15096 O 1436.87 4.10902 0.351133 0
M  V30 15097 H 1436.21 0.63651 -0.189079 0
M  V30 15098 H 1438.74 1.69008 -1.15315 0
M  V30 15099 H 1438.75 4.0488 -0.503624 0
M  V30 15100 H 1437.43 3.82459 -1.63396 0
M  V30 15101 H 1436.01 3.72391 0.194741 0
M  V30 15102 O 1438.23 0.752282 1.42909 0
M  V30 15103 H 1438.92 0.30965 1.91209 0
M  V30 END ATOM
M  V30 BEGIN BOND
M  V30 END BOND
M  V30 END CTAB
M  END
$$$$
