drugbank_target|Q96D53 Atypical kinase COQ8B, mitochondrial (DB12010)
 OpenBabel12092121143D

  0  0  0     0  0            999 V3000
M  V30 BEGIN CTAB
M  V30 COUNTS 8401 8495 0 0 0
M  V30 BEGIN ATOM
M  V30 1 H -0.908 1.98254 -0.117106 0
M  V30 2 N 0 1.576 0 0
M  V30 3 C 0.933 2.03868 1.02534 0
M  V30 4 C 1.911 0.928543 1.3348 0
M  V30 5 O 3.095 1.19667 1.45644 0
M  V30 6 C 0.222 2.43627 2.35294 0
M  V30 7 C -0.732 3.65373 2.2001 0
M  V30 8 S 0.101 5.13292 1.52614 0
M  V30 9 C 1.257 5.56322 2.86805 0
M  V30 10 H 1.49 2.90518 0.631377 0
M  V30 11 H -0.977 1.52953 0.210867 0
M  V30 12 H 0.981 2.67203 3.11629 0
M  V30 13 H -0.358 1.57376 2.7183 0
M  V30 14 H -1.165 3.90944 3.18086 0
M  V30 15 H -1.563 3.418 1.51819 0
M  V30 16 H 0.729 5.58782 3.83104 0
M  V30 17 H 1.672 6.56266 2.65933 0
M  V30 18 H 2.08 4.83886 2.90714 0
M  V30 19 N 1.4781 -0.272755 1.55222 0
M  V30 20 C 2.7241 -1.00172 1.77023 0
M  V30 21 C 3.0791 -1.83928 0.564633 0
M  V30 22 O 2.3721 -1.86416 -0.442674 0
M  V30 23 C 2.5661 -1.91642 3.01675 0
M  V30 24 C 2.3951 -1.16888 4.34243 0
M  V30 25 C 1.1651 -0.884464 4.97499 0
M  V30 26 C 3.3631 -0.55919 5.11251 0
M  V30 27 N 1.3451 -0.11015 6.13801 0
M  V30 28 C 2.7161 0.0809469 6.19947 0
M  V30 29 C 4.7711 -0.467058 4.95705 0
M  V30 30 C 3.4741 0.804335 7.14789 0
M  V30 31 C 5.5001 0.242739 5.90902 0
M  V30 32 C 4.8621 0.871613 6.98987 0
M  V30 33 H 0.9611 -0.348529 0.700037 0
M  V30 34 H 3.5451 -0.277365 1.92714 0
M  V30 35 H 1.7161 -2.61303 2.87359 0
M  V30 36 H 3.4481 -2.57901 3.1188 0
M  V30 37 H 0.2031 -1.18979 4.58411 0
M  V30 38 H 0.6271 0.264344 6.76484 0
M  V30 39 H 5.2691 -0.93894 4.12242 0
M  V30 40 H 2.9871 1.2879 7.97771 0
M  V30 41 H 6.5731 0.314347 5.8095 0
M  V30 42 H 5.4531 1.4121 7.71381 0
M  V30 43 N 2.9562 -1.48159 -0.537278 0
M  V30 44 C 3.8862 -1.65029 -1.6519 0
M  V30 45 C 4.8672 -0.499281 -1.62607 0
M  V30 46 O 6.0522 -0.730972 -1.79918 0
M  V30 47 C 3.1822 -1.68303 -3.03795 0
M  V30 48 C 2.1362 -2.8283 -3.21234 0
M  V30 49 C 1.4622 -2.71189 -4.60826 0
M  V30 50 C 2.7622 -4.24211 -3.04701 0
M  V30 51 H 4.4562 -2.58341 -1.51328 0
M  V30 52 H 2.0022 -1.24325 -0.726585 0
M  V30 53 H 3.9552 -1.78693 -3.81637 0
M  V30 54 H 2.6792 -0.715635 -3.18663 0
M  V30 55 H 1.3382 -2.71983 -2.45807 0
M  V30 56 H 0.9862 -1.72435 -4.7252 0
M  V30 57 H 0.6862 -3.48035 -4.7344 0
M  V30 58 H 2.2102 -2.83537 -5.40777 0
M  V30 59 H 3.6242 -4.3593 -3.72341 0
M  V30 60 H 2.0212 -5.01998 -3.28813 0
M  V30 61 H 3.0912 -4.41184 -2.01209 0
M  V30 62 N 4.4343 0.785586 -1.36625 0
M  V30 63 C 5.3813 1.89838 -1.31264 0
M  V30 64 C 6.3513 1.65115 -0.180633 0
M  V30 65 O 7.5363 1.87222 -0.36777 0
M  V30 66 C 4.6763 3.26706 -1.11163 0
M  V30 67 C 3.7893 3.63476 -2.33472 0
M  V30 68 C 2.9243 4.89481 -2.06353 0
M  V30 69 C 1.9633 5.18941 -3.24602 0
M  V30 70 N 1.1003 6.36131 -2.97123 0
M  V30 71 H 5.9403 1.93756 -2.26413 0
M  V30 72 H 3.4773 0.947454 -1.12524 0
M  V30 73 H 5.4353 4.05639 -0.975337 0
M  V30 74 H 4.0653 3.222 -0.196674 0
M  V30 75 H 3.1173 2.79636 -2.57891 0
M  V30 76 H 4.4293 3.81193 -3.21704 0
M  V30 77 H 3.5833 5.76288 -1.89675 0
M  V30 78 H 2.3223 4.73841 -1.15437 0
M  V30 79 H 1.3273 4.30615 -3.41834 0
M  V30 80 H 2.5523 5.36498 -4.16349 0
M  V30 81 H 0.4983 6.21875 -2.08823 0
M  V30 82 H 0.4153 6.54198 -3.78894 0
M  V30 83 H 1.6833 7.2591 -2.84033 0
M  V30 84 N 5.9124 1.20967 1.01018 0
M  V30 85 C 7.1584 1.02526 1.74975 0
M  V30 86 C 7.4914 -0.4408 1.89131 0
M  V30 87 O 6.7664 -1.32718 1.42184 0
M  V30 88 C 7.0494 1.71699 3.1653 0
M  V30 89 C 6.9024 3.25791 3.10129 0
M  V30 90 C 8.2214 1.45531 4.15342 0
M  V30 91 H 5.3404 0.373863 0.635134 0
M  V30 92 H 7.9824 1.49071 1.17805 0
M  V30 93 H 6.1324 1.32128 3.65341 0
M  V30 94 H 7.8044 3.74697 2.69072 0
M  V30 95 H 6.0474 3.56363 2.47362 0
M  V30 96 H 6.7184 3.69353 4.10222 0
M  V30 97 H 9.1944 1.79872 3.75213 0
M  V30 98 H 8.0704 1.96453 5.1254 0
M  V30 99 H 8.3314 0.384237 4.40427 0
M  V30 100 N 7.3905 -1.2043 1.01659 0
M  V30 101 C 8.6385 -1.89423 0.704522 0
M  V30 102 C 8.9595 -1.79231 -0.768197 0
M  V30 103 O 8.2295 -1.1947 -1.55254 0
M  V30 104 H 6.8095 -0.701178 0.257602 0
M  V30 105 H 9.4715 -1.4626 1.28818 0
M  V30 106 H 8.5675 -2.96052 0.987916 0
M  V30 107 N 8.8686 -0.792821 -1.36206 0
M  V30 108 C 10.1166 -0.366062 -1.98757 0
M  V30 109 C 10.4376 1.0668 -1.63231 0
M  V30 110 O 9.7076 1.73587 -0.907978 0
M  V30 111 H 8.2876 -0.132364 -0.735179 0
M  V30 112 H 10.9496 -1.01562 -1.66347 0
M  V30 113 H 10.0456 -0.460638 -3.08682 0
M  V30 114 N 10.3467 1.47872 -0.545128 0
M  V30 115 C 11.2767 2.32661 0.197793 0
M  V30 116 C 12.2577 1.43041 0.920504 0
M  V30 117 O 13.4427 1.71912 0.90333 0
M  V30 118 C 10.5727 3.24569 1.23582 0
M  V30 119 C 9.5267 4.23333 0.630323 0
M  V30 120 C 8.8527 5.0448 1.77211 0
M  V30 121 C 10.1527 5.20704 -0.407974 0
M  V30 122 H 11.8467 2.95024 -0.510045 0
M  V30 123 H 9.3927 1.4187 -0.246731 0
M  V30 124 H 11.3457 3.8272 1.76362 0
M  V30 125 H 10.0697 2.60236 1.97344 0
M  V30 126 H 8.7287 3.6639 0.123922 0
M  V30 127 H 8.3767 4.36561 2.49847 0
M  V30 128 H 8.0767 5.71339 1.37281 0
M  V30 129 H 9.6007 5.65487 2.3034 0
M  V30 130 H 11.0147 5.7329 0.033305 0
M  V30 131 H 9.4117 5.95699 -0.725486 0
M  V30 132 H 10.4817 4.66917 -1.30828 0
M  V30 133 N 11.8248 0.280983 1.55075 0
M  V30 134 C 12.7548 -0.597469 2.25727 0
M  V30 135 C 13.7358 -1.15417 1.24952 0
M  V30 136 O 14.9208 -1.18722 1.53684 0
M  V30 137 C 12.0508 -1.7789 2.98283 0
M  V30 138 C 11.0048 -1.35347 4.06036 0
M  V30 139 C 10.3308 -2.61846 4.66198 0
M  V30 140 C 11.6308 -0.499354 5.19907 0
M  V30 141 H 13.3248 -0.00824265 2.99399 0
M  V30 142 H 10.8708 -0.0025244 1.44 0
M  V30 143 H 12.8238 -2.39937 3.46422 0
M  V30 144 H 11.5478 -2.39405 2.22155 0
M  V30 145 H 10.2068 -0.756156 3.58717 0
M  V30 146 H 9.8548 -3.21632 3.86732 0
M  V30 147 H 9.5548 -2.3409 5.38958 0
M  V30 148 H 11.0788 -3.24732 5.1709 0
M  V30 149 H 12.4928 -1.02498 5.64063 0
M  V30 150 H 10.8898 -0.316424 5.99265 0
M  V30 151 H 11.9598 0.480459 4.82514 0
M  V30 152 N 13.3029 -1.57598 0.00835791 0
M  V30 153 C 14.7189 -1.55764 -0.347822 0
M  V30 154 C 14.9189 -1.01186 -1.74252 0
M  V30 155 O 13.9749 -0.649371 -2.44007 0
M  V30 156 C 15.2879 -2.99927 -0.215407 0
M  V30 157 C 16.8359 -3.11656 -0.289725 0
M  V30 158 C 17.3109 -4.57621 -0.18634 0
M  V30 159 N 18.8019 -4.62557 -0.243978 0
M  V30 160 C 19.5369 -5.73094 -0.18745 0
M  V30 161 N 19.0329 -6.92753 -0.0810331 0
M  V30 162 N 20.8259 -5.61588 -0.239925 0
M  V30 163 H 12.9769 -1.91411 0.92062 0
M  V30 164 H 15.2399 -0.879562 0.353659 0
M  V30 165 H 14.9459 -3.43729 0.744512 0
M  V30 166 H 14.8199 -3.63865 -0.994097 0
M  V30 167 H 17.2069 -2.67779 -1.24009 0
M  V30 168 H 17.2879 -2.5048 0.51898 0
M  V30 169 H 16.9319 -5.02174 0.760519 0
M  V30 170 H 16.8619 -5.16752 -1.01364 0
M  V30 171 H 19.3529 -3.76481 -0.327217 0
M  V30 172 H 19.6659 -7.72787 -0.0440241 0
M  V30 173 H 18.0109 -6.94984 -0.0465419 0
M  V30 174 H 21.2019 -4.66996 -0.321317 0
M  V30 175 H 21.3749 -6.47714 -0.192407 0
M  V30 176 N 14.781 0.264519 -1.55364 0
M  V30 177 C 16.029 0.993021 -1.76021 0
M  V30 178 C 16.35 1.86511 -0.569099 0
M  V30 179 O 15.62 1.91438 0.415735 0
M  V30 180 H 14.2 0.369639 -0.649135 0
M  V30 181 H 16.862 0.286707 -1.9278 0
M  V30 182 H 15.958 1.62502 -2.66457 0
M  V30 183 N 16.2591 1.48442 0.529413 0
M  V30 184 C 17.4871 1.60151 1.30994 0
M  V30 185 C 17.9021 0.261985 1.86973 0
M  V30 186 O 17.2591 -0.748805 1.66431 0
M  V30 187 C 17.3101 2.64854 2.46038 0
M  V30 188 O 17.0311 3.93608 1.92365 0
M  V30 189 C 18.5321 2.87007 3.37849 0
M  V30 190 H 15.7521 0.539971 0.398338 0
M  V30 191 H 18.2961 1.94273 0.638597 0
M  V30 192 H 16.4511 2.33589 3.09055 0
M  V30 193 H 16.8651 4.51055 2.67675 0
M  V30 194 H 18.3391 3.64068 4.14919 0
M  V30 195 H 18.8161 1.95852 3.93114 0
M  V30 196 H 19.4221 3.19579 2.80623 0
M  V30 197 N 17.7372 -0.778329 1.37039 0
M  V30 198 C 18.9852 -1.53361 1.31623 0
M  V30 199 C 19.3062 -1.94739 -0.100831 0
M  V30 200 O 18.5762 -1.65797 -1.04347 0
M  V30 201 H 17.1562 -0.568794 0.484234 0
M  V30 202 H 19.8182 -0.926742 1.71457 0
M  V30 203 H 18.9142 -2.43606 1.95096 0
M  V30 204 N 19.2153 -1.21501 -1.00376 0
M  V30 205 C 20.4633 -1.03095 -1.73827 0
M  V30 206 C 20.7843 0.436341 -1.90055 0
M  V30 207 O 20.0543 1.31466 -1.45236 0
M  V30 208 H 18.6343 -0.378487 -0.644016 0
M  V30 209 H 21.2963 -1.52831 -1.20949 0
M  V30 210 H 20.3923 -1.49991 -2.73695 0
M  V30 211 N 20.6934 1.19889 -1.02296 0
M  V30 212 C 21.6254 2.22334 -0.556787 0
M  V30 213 C 22.6384 1.58674 0.364199 0
M  V30 214 O 23.8274 1.77768 0.161533 0
M  V30 215 C 20.9274 3.38257 0.208694 0
M  V30 216 C 20.1004 4.31504 -0.71577 0
M  V30 217 C 19.1594 5.262 0.00325597 0
M  V30 218 O 18.1854 5.65798 -0.621357 0
M  V30 219 N 19.3874 5.66303 1.27599 0
M  V30 220 H 22.1524 2.62957 -1.43784 0
M  V30 221 H 19.7134 1.34495 -0.901261 0
M  V30 222 H 21.7054 3.98616 0.699111 0
M  V30 223 H 20.2754 2.96472 0.991102 0
M  V30 224 H 19.4954 3.69016 -1.38638 0
M  V30 225 H 20.7834 4.9072 -1.34428 0
M  V30 226 H 20.1814 5.36155 1.80429 0
M  V30 227 H 18.7384 6.28942 1.71102 0
M  V30 228 N 22.1715 0.800033 1.35784 0
M  V30 229 C 23.1015 0.220184 2.3246 0
M  V30 230 C 24.0825 -0.65073 1.57161 0
M  V30 231 O 25.2675 -0.582359 1.85263 0
M  V30 232 C 22.3975 -0.637353 3.41402 0
M  V30 233 C 21.3515 0.134531 4.27789 0
M  V30 234 C 20.6775 -0.844285 5.27992 0
M  V30 235 C 21.9775 1.32979 5.05088 0
M  V30 236 H 23.6715 1.02787 2.81203 0
M  V30 237 H 21.2175 0.495717 1.35199 0
M  V30 238 H 23.1705 -1.05302 4.08031 0
M  V30 239 H 21.8945 -1.47785 2.91251 0
M  V30 240 H 20.5535 0.531296 3.6273 0
M  V30 241 H 20.2015 -1.68011 4.74111 0
M  V30 242 H 19.9015 -0.332184 5.8666 0
M  V30 243 H 21.4255 -1.2583 5.97494 0
M  V30 244 H 22.8395 0.98934 5.64699 0
M  V30 245 H 21.2365 1.77593 5.7322 0
M  V30 246 H 22.3065 2.11978 4.36111 0
M  V30 247 N 23.6496 -1.47581 0.552962 0
M  V30 248 C 24.8976 -2.02082 0.0272703 0
M  V30 249 C 25.2186 -1.4301 -1.32563 0
M  V30 250 O 24.4886 -0.603745 -1.86365 0
M  V30 251 H 23.0686 -0.746966 0.00709182 0
M  V30 252 H 25.7306 -1.81033 0.722008 0
M  V30 253 H 24.8266 -3.12034 -0.0639951 0
M  V30 254 N 25.1277 -0.289203 -1.54924 0
M  V30 255 C 26.0597 0.625583 -2.20497 0
M  V30 256 C 27.0727 1.10667 -1.19402 0
M  V30 257 O 28.2617 1.02615 -1.46056 0
M  V30 258 C 25.3617 1.86702 -2.82835 0
M  V30 259 C 24.5347 1.5304 -4.09753 0
M  V30 260 C 23.5937 2.62576 -4.56005 0
M  V30 261 O 22.6197 2.28167 -5.21468 0
M  V30 262 N 23.8217 3.92901 -4.27328 0
M  V30 263 H 26.5867 0.0642801 -2.99631 0
M  V30 264 H 24.1477 -0.110896 -1.6152 0
M  V30 265 H 26.1397 2.59304 -3.10715 0
M  V30 266 H 24.7097 2.33702 -2.07611 0
M  V30 267 H 23.9297 0.637564 -3.8901 0
M  V30 268 H 25.2177 1.28072 -4.92418 0
M  V30 269 H 24.6157 4.23671 -3.74859 0
M  V30 270 H 23.1727 4.61837 -4.59946 0
M  V30 271 N 26.6058 1.57591 -0.0167156 0
M  V30 272 C 27.8338 1.95575 0.675128 0
M  V30 273 C 28.2488 0.892542 1.6637 0
M  V30 274 O 27.6058 -0.126912 1.82058 0
M  V30 275 C 27.6568 3.33608 1.39239 0
M  V30 276 O 27.3778 4.3585 0.443444 0
M  V30 277 C 28.8788 3.86151 2.17721 0
M  V30 278 H 26.0988 0.644423 0.186978 0
M  V30 279 H 28.6428 2.0437 -0.0728 0
M  V30 280 H 26.7978 3.2607 2.09182 0
M  V30 281 H 27.2118 5.158 0.951358 0
M  V30 282 H 28.6858 4.85114 2.63379 0
M  V30 283 H 29.1628 3.19738 3.01105 0
M  V30 284 H 29.7688 3.96918 1.52761 0
M  V30 285 N 28.0839 -0.256276 1.55502 0
M  V30 286 C 29.3299 -0.987079 1.77157 0
M  V30 287 C 29.6629 -1.85327 0.580315 0
M  V30 288 O 28.9379 -1.89874 -0.421686 0
M  V30 289 C 29.2209 -1.85553 3.08613 0
M  V30 290 C 29.0739 -1.01816 4.38125 0
M  V30 291 C 30.3929 -2.8397 3.36228 0
M  V30 292 H 27.5119 -0.357428 0.644526 0
M  V30 293 H 30.1539 -0.258239 1.88237 0
M  V30 294 H 28.3039 -2.47695 2.99298 0
M  V30 295 H 29.9759 -0.416159 4.59419 0
M  V30 296 H 28.2189 -0.322178 4.32602 0
M  V30 297 H 28.8899 -1.65939 5.26468 0
M  V30 298 H 31.3659 -2.31964 3.45445 0
M  V30 299 H 30.2419 -3.41864 4.29442 0
M  V30 300 H 30.5029 -3.59955 2.56681 0
M  V30 301 N 29.562 -1.4872 -0.521534 0
M  V30 302 C 30.81 -1.56857 -1.27437 0
M  V30 303 C 31.131 -0.247982 -1.93417 0
M  V30 304 O 30.401 0.731151 -1.81744 0
M  V30 305 H 28.981 -0.577885 -0.473347 0
M  V30 306 H 31.643 -1.85233 -0.606205 0
M  V30 307 H 30.739 -2.35402 -2.0492 0
M  V30 308 N 31.0401 0.771051 -1.3745 0
M  V30 309 C 32.2861 1.53109 -1.339 0
M  V30 310 C 32.6411 1.9225 0.0758401 0
M  V30 311 O 31.9341 1.61264 1.03463 0
M  V30 312 C 32.1281 2.80676 -2.2126 0
M  V30 313 C 31.9571 2.54003 -3.71096 0
M  V30 314 C 30.7271 2.48097 -4.402 0
M  V30 315 C 32.9251 2.21953 -4.63941 0
M  V30 316 N 30.9071 2.13515 -5.75573 0
M  V30 317 C 32.2781 1.97516 -5.87697 0
M  V30 318 C 34.3331 2.08114 -4.5232 0
M  V30 319 C 33.0361 1.60638 -7.01133 0
M  V30 320 C 35.0621 1.72636 -5.65642 0
M  V30 321 C 34.4241 1.4906 -6.88448 0
M  V30 322 H 30.5231 0.56055 -0.54526 0
M  V30 323 H 33.1071 0.899472 -1.72678 0
M  V30 324 H 31.2781 3.41674 -1.84698 0
M  V30 325 H 33.0101 3.46578 -2.08963 0
M  V30 326 H 29.7651 2.63974 -3.93211 0
M  V30 327 H 30.1891 1.98919 -6.47117 0
M  V30 328 H 34.8311 2.25024 -3.57944 0
M  V30 329 H 32.5491 1.42467 -7.95443 0
M  V30 330 H 36.1351 1.62586 -5.58621 0
M  V30 331 H 35.0151 1.22014 -7.7465 0
M  V30 332 N 32.5182 1.22032 0.997298 0
M  V30 333 C 33.9292 1.0397 1.55071 0
M  V30 334 C 34.2802 -0.398192 1.92117 0
M  V30 335 O 33.4052 -1.28254 1.74298 0
M  V30 336 C 34.0002 1.88109 2.81781 0
M  V30 337 C 32.5592 1.74357 3.33581 0
M  V30 338 C 31.7062 1.84846 2.06706 0
M  V30 339 H 34.6572 1.35941 0.818883 0
M  V30 340 H 34.6782 1.39589 3.53971 0
M  V30 341 H 34.1902 2.92754 2.54787 0
M  V30 342 H 32.2912 0.72427 3.65493 0
M  V30 343 H 32.4042 2.56772 4.04481 0
M  V30 344 H 30.7682 1.28238 2.20062 0
M  V30 345 H 31.5512 2.91014 1.82114 0
M  V30 346 N 33.9963 -1.19345 1.0293 0
M  V30 347 C 35.2363 -1.90738 0.734727 0
M  V30 348 C 35.6003 -1.7785 -0.723414 0
M  V30 349 O 36.8013 -2.43844 -1.13108 0
M  V30 350 C 35.0723 -3.37569 1.17396 0
M  V30 351 S 36.6313 -4.27176 1.00329 0
M  V30 352 H 33.4493 -0.658771 0.267474 0
M  V30 353 H 36.0513 -1.4428 1.31922 0
M  V30 354 H 34.7553 -3.44475 2.23081 0
M  V30 355 H 34.2863 -3.8906 0.582772 0
M  V30 356 H 36.3013 -4.96126 -0.0859152 0
M  V30 357 N 35.4744 -0.807222 -1.35358 0
M  V30 358 C 36.7224 -0.387122 -1.98358 0
M  V30 359 C 37.0434 1.04942 -1.64354 0
M  V30 360 O 36.3134 1.72615 -0.926339 0
M  V30 361 H 34.8934 -0.140154 -0.733734 0
M  V30 362 H 37.5554 -1.0332 -1.6526 0
M  V30 363 H 36.6514 -0.493352 -3.08176 0
M  V30 364 N 36.9525 1.47285 -0.560781 0
M  V30 365 C 37.9155 2.28535 0.174488 0
M  V30 366 C 38.9155 1.37153 0.839388 0
M  V30 367 O 40.1055 1.59748 0.694702 0
M  V30 368 C 37.2375 3.16934 1.25561 0
M  V30 369 H 38.4305 2.95012 -0.539262 0
M  V30 370 H 35.9835 1.53034 -0.317865 0
M  V30 371 H 36.7185 2.55157 2.00164 0
M  V30 372 H 36.5035 3.8419 0.783604 0
M  V30 373 H 37.9935 3.78143 1.77193 0
M  V30 374 N 38.4306 0.297415 1.54768 0
M  V30 375 C 39.3606 -0.573494 2.26348 0
M  V30 376 C 40.3416 -1.14085 1.26169 0
M  V30 377 O 41.5266 -1.17086 1.54934 0
M  V30 378 C 38.6566 -1.74716 3.00153 0
M  V30 379 C 37.6106 -1.31032 4.07449 0
M  V30 380 C 36.9366 -2.56887 4.68949 0
M  V30 381 C 38.2366 -0.444183 5.20408 0
M  V30 382 H 39.9306 0.0235131 2.99391 0
M  V30 383 H 37.4766 0.0127488 1.43994 0
M  V30 384 H 39.4296 -2.3625 3.48947 0
M  V30 385 H 38.1536 -2.37035 2.24682 0
M  V30 386 H 36.8126 -0.718066 3.59499 0
M  V30 387 H 36.4606 -3.17512 3.90122 0
M  V30 388 H 36.1606 -2.2836 5.41411 0
M  V30 389 H 37.6846 -3.19229 5.20505 0
M  V30 390 H 39.0986 -0.9651 5.65118 0
M  V30 391 H 37.4956 -0.252846 5.99567 0
M  V30 392 H 38.5656 0.531609 4.81977 0
M  V30 393 N 39.9087 -1.5758 0.0250728 0
M  V30 394 C 41.1567 -1.91255 -0.653151 0
M  V30 395 C 41.4777 -0.901691 -1.729 0
M  V30 396 O 40.7477 0.0573785 -1.95816 0
M  V30 397 H 39.3277 -0.705942 -0.244243 0
M  V30 398 H 41.9897 -1.94767 0.0719209 0
M  V30 399 H 41.0857 -2.91752 -1.10847 0
M  V30 400 N 41.3868 0.248026 -1.55636 0
M  V30 401 C 42.7978 0.817177 -1.67866 0
M  V30 402 C 43.1488 1.86069 -0.622322 0
M  V30 403 O 42.2738 2.15157 0.231618 0
M  V30 404 C 42.8688 1.489 -3.04326 0
M  V30 405 C 41.4278 2.00587 -3.185 0
M  V30 406 C 40.5748 0.856573 -2.63739 0
M  V30 407 H 43.5258 0.0238579 -1.58682 0
M  V30 408 H 43.5468 2.35698 -2.98708 0
M  V30 409 H 43.0588 0.729279 -3.81186 0
M  V30 410 H 41.1598 2.79443 -2.4646 0
M  V30 411 H 41.2728 2.20402 -4.25393 0
M  V30 412 H 39.6368 1.25678 -2.21534 0
M  V30 413 H 40.4198 0.109953 -3.43124 0
M  V30 414 N 42.8649 1.48995 0.513639 0
M  V30 415 C 44.1129 1.57531 1.26604 0
M  V30 416 C 44.4339 0.258236 1.93283 0
M  V30 417 O 43.7039 -0.721502 1.8213 0
M  V30 418 H 42.2839 0.580387 0.470276 0
M  V30 419 H 44.9459 1.85552 0.596373 0
M  V30 420 H 44.0419 2.36486 2.03669 0
M  V30 421 N 44.343 -0.763751 1.37857 0
M  V30 422 C 45.754 -1.3405 1.29952 0
M  V30 423 C 46.105 -1.96138 -0.0492898 0
M  V30 424 O 45.23 -1.94372 -0.951239 0
M  V30 425 C 45.825 -2.43729 2.35333 0
M  V30 426 C 44.384 -2.97151 2.31037 0
M  V30 427 C 43.531 -1.70438 2.18738 0
M  V30 428 H 46.482 -0.563396 1.48363 0
M  V30 429 H 46.503 -3.23412 2.00462 0
M  V30 430 H 46.015 -1.9851 3.33489 0
M  V30 431 H 44.116 -3.46724 1.3643 0
M  V30 432 H 44.229 -3.52221 3.24772 0
M  V30 433 H 42.593 -1.93673 1.65418 0
M  V30 434 H 43.376 -1.27312 3.18821 0
M  V30 435 N 45.8211 -1.22559 -0.990812 0
M  V30 436 C 46.7711 -0.964807 -2.0658 0
M  V30 437 C 47.7551 0.0853472 -1.60673 0
M  V30 438 O 48.9471 -0.125443 -1.76555 0
M  V30 439 C 46.0761 -0.546707 -3.38919 0
M  V30 440 C 45.1621 -1.6317 -3.91454 0
M  V30 441 N 45.5531 -2.85985 -4.17189 0
M  V30 442 C 43.8511 -1.50387 -4.19881 0
M  V30 443 C 44.5521 -3.56159 -4.59919 0
M  V30 444 N 43.5281 -2.83637 -4.63736 0
M  V30 445 H 47.3301 -1.89769 -2.24421 0
M  V30 446 H 44.8441 -1.12343 -1.17273 0
M  V30 447 H 46.8411 -0.34119 -4.15502 0
M  V30 448 H 45.5011 0.379254 -3.22478 0
M  V30 449 H 46.5121 -3.22392 -4.05319 0
M  V30 450 H 43.1891 -0.644254 -4.12499 0
M  V30 451 H 44.5791 -4.6139 -4.88435 0
M  V30 452 N 47.2992 1.18797 -1.03562 0
M  V30 453 C 48.7152 1.40671 -0.753917 0
M  V30 454 C 48.9152 1.9043 0.658686 0
M  V30 455 O 47.9712 2.08538 1.42366 0
M  V30 456 C 49.2842 2.41192 -1.79574 0
M  V30 457 C 50.8322 2.54928 -1.81606 0
M  V30 458 C 51.3072 3.58709 -2.84766 0
M  V30 459 N 52.7982 3.66212 -2.83625 0
M  V30 460 C 53.5332 4.46225 -3.60098 0
M  V30 461 N 53.0292 5.29888 -4.46308 0
M  V30 462 N 54.8222 4.40939 -3.4861 0
M  V30 463 H 46.9732 0.848221 -1.94728 0
M  V30 464 H 49.2362 0.435081 -0.842264 0
M  V30 465 H 48.9422 2.11669 -2.80872 0
M  V30 466 H 48.8162 3.40467 -1.62365 0
M  V30 467 H 51.2032 2.83771 -0.809817 0
M  V30 468 H 51.2842 1.55784 -2.02891 0
M  V30 469 H 50.9282 3.30607 -3.85566 0
M  V30 470 H 50.8582 4.57519 -2.60737 0
M  V30 471 H 53.3492 3.06466 -2.21105 0
M  V30 472 H 53.6622 5.88078 -5.01382 0
M  V30 473 H 52.0072 5.29326 -4.50377 0
M  V30 474 H 55.1982 3.74624 -2.80668 0
M  V30 475 H 55.3712 5.03056 -4.08459 0
M  V30 476 N 48.7773 0.814389 1.34928 0
M  V30 477 C 50.0233 0.408167 1.99263 0
M  V30 478 C 50.3783 -1.0154 1.63424 0
M  V30 479 O 49.6713 -1.69607 0.891289 0
M  V30 480 C 49.8653 0.537781 3.53331 0
M  V30 481 C 49.6943 1.9724 4.04137 0
M  V30 482 C 48.4643 2.60245 4.33129 0
M  V30 483 C 50.6623 2.93801 4.2212 0
M  V30 484 N 48.6443 3.95036 4.69914 0
M  V30 485 C 50.0153 4.1348 4.6199 0
M  V30 486 C 52.0703 2.9053 4.04348 0
M  V30 487 C 50.7733 5.3033 4.85945 0
M  V30 488 C 52.7993 4.06589 4.29464 0
M  V30 489 C 52.1613 5.25017 4.69613 0
M  V30 490 H 48.2603 0.197289 0.756704 0
M  V30 491 H 50.8443 1.05728 1.63492 0
M  V30 492 H 49.0153 -0.0813868 3.88315 0
M  V30 493 H 50.7473 0.105389 4.04563 0
M  V30 494 H 47.5023 2.11545 4.23728 0
M  V30 495 H 47.9263 4.64455 4.92555 0
M  V30 496 H 52.5683 2.00115 3.72443 0
M  V30 497 H 50.2863 6.21309 5.16721 0
M  V30 498 H 53.8723 4.05447 4.17257 0
M  V30 499 H 52.7523 6.1333 4.88667 0
M  V30 500 N 50.2554 -1.46986 0.568584 0
M  V30 501 C 51.5034 -2.02041 0.0487022 0
M  V30 502 C 51.8244 -1.44408 -1.31039 0
M  V30 503 O 51.0944 -0.623477 -1.85714 0
M  V30 504 H 49.6744 -0.746849 0.015014 0
M  V30 505 H 52.3364 -1.80257 0.741168 0
M  V30 506 H 51.4324 -3.12085 -0.0308961 0
M  V30 507 N 51.7335 -0.305618 -1.54608 0
M  V30 508 C 53.1445 0.186098 -1.8577 0
M  V30 509 C 53.4955 1.53058 -1.22751 0
M  V30 510 O 52.6205 2.09888 -0.526893 0
M  V30 511 C 53.2155 0.344449 -3.37044 0
M  V30 512 C 51.7745 0.780384 -3.68221 0
M  V30 513 C 50.9215 -0.108554 -2.77087 0
M  V30 514 H 53.8725 -0.526485 -1.49712 0
M  V30 515 H 53.8935 1.17828 -3.61796 0
M  V30 516 H 53.4055 -0.634235 -3.82883 0
M  V30 517 H 51.5065 1.76945 -3.27904 0
M  V30 518 H 51.6195 0.596572 -4.75371 0
M  V30 519 H 49.9835 0.412931 -2.5133 0
M  V30 520 H 50.7665 -1.08368 -3.25747 0
M  V30 521 N 53.2116 1.57565 -0.0334293 0
M  V30 522 C 54.4516 1.93844 0.648379 0
M  V30 523 C 54.8156 0.910387 1.69044 0
M  V30 524 O 56.0166 1.15952 2.42505 0
M  V30 525 C 54.2876 3.35017 1.24492 0
M  V30 526 S 55.8466 3.93229 1.94721 0
M  V30 527 H 52.6646 0.678231 0.213364 0
M  V30 528 H 55.2666 1.95254 -0.0981253 0
M  V30 529 H 53.9706 4.07652 0.474128 0
M  V30 530 H 53.5016 3.37061 2.02864 0
M  V30 531 H 55.5166 3.77014 3.22606 0
M  V30 532 N 54.6897 -0.239769 1.55765 0
M  V30 533 C 55.9377 -0.964892 1.77579 0
M  V30 534 C 56.2587 -1.85582 0.598699 0
M  V30 535 O 55.5287 -1.92075 -0.385226 0
M  V30 536 H 54.1087 -0.359265 0.654933 0
M  V30 537 H 56.7707 -0.256001 1.93211 0
M  V30 538 H 55.8667 -1.58243 2.69009 0
M  V30 539 N 56.1678 -1.49265 -0.50573 0
M  V30 540 C 57.4158 -1.582 -1.25766 0
M  V30 541 C 57.7368 -0.268482 -1.93143 0
M  V30 542 O 57.0068 0.711833 -1.8251 0
M  V30 543 H 55.5868 -0.582873 -0.467191 0
M  V30 544 H 58.2488 -1.85865 -0.586525 0
M  V30 545 H 57.3448 -2.37563 -2.02412 0
M  V30 546 N 57.6459 0.756429 -1.3826 0
M  V30 547 C 58.8709 1.55077 -1.37717 0
M  V30 548 C 59.2959 1.88073 0.03164 0
M  V30 549 O 58.6539 1.50364 1.01293 0
M  V30 550 C 58.7019 2.8283 -2.23695 0
M  V30 551 O 57.8059 3.77862 -1.6521 0
M  V30 552 H 57.1469 0.469152 -0.469885 0
M  V30 553 H 59.6769 0.935019 -1.81985 0
M  V30 554 H 59.6869 3.31783 -2.37453 0
M  V30 555 H 58.3619 2.58144 -3.2609 0
M  V30 556 H 56.9389 3.36555 -1.60578 0
M  V30 557 N 59.124 1.23083 0.984299 0
M  V30 558 C 60.37 1.07221 1.72845 0
M  V30 559 C 60.725 -0.387453 1.88458 0
M  V30 560 O 60.018 -1.28309 1.42293 0
M  V30 561 C 60.212 1.72673 3.1292 0
M  V30 562 C 60.041 3.24853 3.10967 0
M  V30 563 C 58.811 3.93998 3.16376 0
M  V30 564 C 61.009 4.21674 2.94441 0
M  V30 565 N 58.991 5.33192 3.04268 0
M  V30 566 C 60.362 5.47756 2.90453 0
M  V30 567 C 62.417 4.12457 2.78897 0
M  V30 568 C 61.12 6.6568 2.72512 0
M  V30 569 C 63.146 5.3004 2.62319 0
M  V30 570 C 62.508 6.55046 2.59026 0
M  V30 571 H 58.607 0.44685 0.641755 0
M  V30 572 H 61.191 1.55753 1.16829 0
M  V30 573 H 59.362 1.26679 3.67161 0
M  V30 574 H 61.094 1.49824 3.75945 0
M  V30 575 H 57.849 3.45052 3.24401 0
M  V30 576 H 58.273 6.06157 3.015 0
M  V30 577 H 62.915 3.16588 2.80235 0
M  V30 578 H 60.633 7.61689 2.69919 0
M  V30 579 H 64.219 5.24747 2.5126 0
M  V30 580 H 63.099 7.44498 2.46357 0
M  V30 581 N 60.6021 -1.18246 1.0419 0
M  V30 582 C 61.5651 -2.20128 0.638452 0
M  V30 583 C 62.5651 -1.57885 -0.304805 0
M  V30 584 O 63.7551 -1.73967 -0.0900369 0
M  V30 585 C 60.8871 -3.4084 -0.0637751 0
M  V30 586 H 62.0801 -2.57336 1.54007 0
M  V30 587 H 59.6331 -1.32152 0.834598 0
M  V30 588 H 60.3681 -3.09166 -0.979136 0
M  V30 589 H 60.1531 -3.8726 0.614198 0
M  V30 590 H 61.6431 -4.16274 -0.332512 0
M  V30 591 N 62.0802 -0.821533 -1.34494 0
M  V30 592 C 63.0122 -0.199946 -2.28326 0
M  V30 593 C 64.0252 0.609377 -1.50965 0
M  V30 594 O 65.2142 0.439285 -1.7301 0
M  V30 595 C 62.3142 0.738431 -3.30757 0
M  V30 596 C 61.4872 -0.0277632 -4.37391 0
M  V30 597 C 60.5462 0.831332 -5.19591 0
M  V30 598 O 59.5722 0.276822 -5.68526 0
M  V30 599 N 60.7742 2.15132 -5.39165 0
M  V30 600 H 63.5392 -1.00609 -2.82308 0
M  V30 601 H 61.1002 -0.678366 -1.47003 0
M  V30 602 H 63.0922 1.31773 -3.82646 0
M  V30 603 H 61.6622 1.44533 -2.7718 0
M  V30 604 H 60.8822 -0.788359 -3.86236 0
M  V30 605 H 62.1702 -0.555251 -5.05761 0
M  V30 606 H 61.5682 2.62559 -5.01078 0
M  V30 607 H 60.1252 2.6795 -5.94177 0
M  V30 608 N 63.5583 1.46682 -0.576371 0
M  V30 609 C 64.5053 2.30241 0.160499 0
M  V30 610 C 65.4753 1.40233 0.890162 0
M  V30 611 O 66.6603 1.69186 0.882084 0
M  V30 612 C 63.8003 3.24578 1.1723 0
M  V30 613 C 62.9133 4.29684 0.446736 0
M  V30 614 C 62.0483 5.11154 1.44551 0
M  V30 615 C 61.0873 6.08015 0.70599 0
M  V30 616 N 60.2243 6.82376 1.65251 0
M  V30 617 H 65.0643 2.92727 -0.558127 0
M  V30 618 H 62.6013 1.44272 -0.287056 0
M  V30 619 H 64.5593 3.77711 1.77172 0
M  V30 620 H 63.1893 2.63916 1.85872 0
M  V30 621 H 62.2413 3.79458 -0.267594 0
M  V30 622 H 63.5533 4.98626 -0.131686 0
M  V30 623 H 62.7073 5.68533 2.11791 0
M  V30 624 H 61.4463 4.42158 2.05786 0
M  V30 625 H 60.4513 5.49796 0.0197725 0
M  V30 626 H 61.6763 6.79028 0.09912 0
M  V30 627 H 59.6223 6.16094 2.25308 0
M  V30 628 H 59.5393 7.47556 1.12673 0
M  V30 629 H 60.8073 7.44316 2.31546 0
M  V30 630 N 65.0364 0.313813 1.54444 0
M  V30 631 C 66.2834 -0.291675 2.00388 0
M  V30 632 C 66.6114 -1.52904 1.2021 0
M  V30 633 O 65.8664 -1.93833 0.269707 0
M  V30 634 C 66.1654 -0.680386 3.50864 0
M  V30 635 C 65.8314 0.456699 4.48581 0
M  V30 636 C 64.4934 0.768824 4.75018 0
M  V30 637 C 66.8454 1.22098 5.06697 0
M  V30 638 C 64.1734 1.84812 5.56831 0
M  V30 639 C 66.5254 2.29029 5.89685 0
M  V30 640 C 65.1894 2.60834 6.14428 0
M  V30 641 H 64.4594 -0.106732 0.733273 0
M  V30 642 H 67.1064 0.43557 1.86481 0
M  V30 643 H 65.4114 -1.48791 3.62448 0
M  V30 644 H 67.1084 -1.16026 3.83847 0
M  V30 645 H 63.6984 0.203337 4.28117 0
M  V30 646 H 67.8824 0.993096 4.86263 0
M  V30 647 H 63.1384 2.09912 5.74236 0
M  V30 648 H 67.3124 2.887 6.33739 0
M  V30 649 H 64.9394 3.44596 6.77612 0
M  V30 650 N 66.5145 -1.57545 0.0417849 0
M  V30 651 C 67.7445 -1.96339 -0.642995 0
M  V30 652 C 68.1525 -0.917536 -1.65463 0
M  V30 653 O 67.4955 0.107747 -1.83384 0
M  V30 654 C 67.5575 -3.31333 -1.39494 0
M  V30 655 C 67.2215 -4.53796 -0.540204 0
M  V30 656 C 68.2185 -5.19553 0.189806 0
M  V30 657 C 65.9035 -5.0006 -0.473886 0
M  V30 658 C 67.8975 -6.29904 0.974674 0
M  V30 659 C 65.5845 -6.10289 0.314677 0
M  V30 660 C 66.5825 -6.75072 1.03765 0
M  V30 661 O 66.2705 -7.83183 1.81327 0
M  V30 662 H 66.0025 -0.651241 -0.181277 0
M  V30 663 H 68.5565 -2.05148 0.101665 0
M  V30 664 H 66.7865 -3.19052 -2.18502 0
M  V30 665 H 68.4755 -3.54942 -1.96904 0
M  V30 666 H 69.2415 -4.84774 0.147981 0
M  V30 667 H 65.1205 -4.49433 -1.0262 0
M  V30 668 H 68.6645 -6.80401 1.5395 0
M  V30 669 H 64.5615 -6.44506 0.358174 0
M  V30 670 H 65.3295 -7.99913 1.73438 0
M  V30 671 N 67.9926 0.231505 -1.5589 0
M  V30 672 C 68.9246 1.31006 -1.8807 0
M  V30 673 C 69.9376 1.43539 -0.768145 0
M  V30 674 O 71.1266 1.44614 -1.04638 0
M  V30 675 C 68.2266 2.68688 -2.06543 0
M  V30 676 C 67.3996 2.78228 -3.37502 0
M  V30 677 C 66.4586 3.96857 -3.4553 0
M  V30 678 O 65.4846 3.85662 -4.18633 0
M  V30 679 N 66.6866 5.1072 -2.75944 0
M  V30 680 H 69.4516 1.03731 -2.81176 0
M  V30 681 H 67.0126 0.421573 -1.56315 0
M  V30 682 H 69.0046 3.46412 -2.09239 0
M  V30 683 H 67.5746 2.88605 -1.20109 0
M  V30 684 H 66.7946 1.87059 -3.46991 0
M  V30 685 H 68.0826 2.81564 -4.23791 0
M  V30 686 H 67.4806 5.2271 -2.16311 0
M  V30 687 H 66.0376 5.86523 -2.84314 0
M  V30 688 N 69.4707 1.49531 0.497807 0
M  V30 689 C 70.7477 1.49682 1.25915 0
M  V30 690 C 71.1277 0.226339 2.09883 0
M  V30 691 O 70.4757 -0.791189 2.14365 0
M  V30 692 C 70.6857 2.77755 2.11313 0
M  V30 693 C 72.0337 3.27371 2.70395 0
M  V30 694 O 73.0577 2.78894 2.21578 0
M  V30 695 O 71.9167 4.11808 3.59272 0
M  V30 696 H 69.0107 0.599228 0.56996 0
M  V30 697 H 71.5567 1.61798 0.511816 0
M  V30 698 H 70.3287 3.61713 1.49264 0
M  V30 699 H 69.9517 2.68515 2.93233 0
M  V30 700 N 70.9488 -0.749086 1.3866 0
M  V30 701 C 72.1968 -1.50535 1.34847 0
M  V30 702 C 72.5178 -1.94909 -0.0595016 0
M  V30 703 O 71.7878 -1.67973 -1.00806 0
M  V30 704 H 70.3678 -0.558395 0.49619 0
M  V30 705 H 73.0298 -0.890165 1.73384 0
M  V30 706 H 72.1258 -2.39413 2.00219 0
M  V30 707 N 72.4269 -1.23603 -0.977757 0
M  V30 708 C 73.8379 -1.06424 -1.53398 0
M  V30 709 C 74.1889 0.367578 -1.92726 0
M  V30 710 O 73.3139 1.25465 -1.76316 0
M  V30 711 C 73.9089 -1.92568 -2.78753 0
M  V30 712 C 72.4679 -1.79642 -3.30765 0
M  V30 713 C 71.6149 -1.88111 -2.03739 0
M  V30 714 H 74.5659 -1.37227 -0.797152 0
M  V30 715 H 74.5869 -1.45203 -3.51705 0
M  V30 716 H 74.0989 -2.96771 -2.50098 0
M  V30 717 H 72.1999 -0.782325 -3.64294 0
M  V30 718 H 72.3129 -2.63174 -4.00345 0
M  V30 719 H 70.6769 -1.31723 -2.17994 0
M  V30 720 H 71.4599 -2.93875 -1.77461 0
M  V30 721 N 73.905 1.17692 -1.04816 0
M  V30 722 C 75.153 1.87488 -0.754497 0
M  V30 723 C 75.474 1.81205 0.720407 0
M  V30 724 O 74.744 1.23544 1.52032 0
M  V30 725 H 73.324 0.694101 -0.276102 0
M  V30 726 H 75.986 1.42793 -1.32651 0
M  V30 727 H 75.082 2.93328 -1.06606 0
M  V30 728 N 75.3831 0.828654 1.34056 0
M  V30 729 C 76.7991 0.515135 1.51058 0
M  V30 730 C 76.9991 -0.959581 1.77184 0
M  V30 731 O 76.0551 -1.74382 1.82612 0
M  V30 732 C 77.3681 1.37963 2.67183 0
M  V30 733 C 78.9161 1.37735 2.81066 0
M  V30 734 C 79.3911 2.22645 4.00241 0
M  V30 735 N 80.8821 2.203 4.07458 0
M  V30 736 C 81.6171 2.82744 4.98842 0
M  V30 737 N 81.1131 3.54201 5.9541 0
M  V30 738 N 82.9061 2.72268 4.91759 0
M  V30 739 H 75.0571 1.78343 1.15358 0
M  V30 740 H 77.3201 0.760304 0.566252 0
M  V30 741 H 77.0261 2.42714 2.54525 0
M  V30 742 H 76.9001 1.0484 3.62338 0
M  V30 743 H 79.2871 0.337593 2.93163 0
M  V30 744 H 79.3681 1.74859 1.86703 0
M  V30 745 H 79.0121 3.26674 3.88905 0
M  V30 746 H 78.9421 1.82869 4.93829 0
M  V30 747 H 81.4331 1.68327 3.38341 0
M  V30 748 H 81.7461 3.9908 6.61782 0
M  V30 749 H 80.0911 3.58308 5.95517 0
M  V30 750 H 83.2821 2.16014 4.15278 0
M  V30 751 H 83.4551 3.21219 5.62781 0
M  V30 752 N 76.8612 -1.46375 0.584142 0
M  V30 753 C 78.1092 -2.01978 0.0701287 0
M  V30 754 C 78.4302 -1.4579 -1.295 0
M  V30 755 O 77.7002 -0.64314 -1.85042 0
M  V30 756 H 76.2802 -0.746648 0.0229345 0
M  V30 757 H 78.9422 -1.79461 0.760245 0
M  V30 758 H 78.0382 -3.121 0.0022064 0
M  V30 759 N 78.3393 -0.321999 -1.54275 0
M  V30 760 C 79.2693 0.537411 -2.27231 0
M  V30 761 C 80.2503 1.12064 -1.27968 0
M  V30 762 O 81.4353 1.14606 -1.56777 0
M  V30 763 C 78.5653 1.69919 -3.02894 0
M  V30 764 C 77.5193 1.24534 -4.09482 0
M  V30 765 C 76.8453 2.49394 -4.72977 0
M  V30 766 C 78.1453 0.361335 -5.21049 0
M  V30 767 H 79.8393 -0.0711406 -2.99315 0
M  V30 768 H 77.3853 -0.0356555 -1.43956 0
M  V30 769 H 79.3383 2.30668 -3.52662 0
M  V30 770 H 78.0623 2.33431 -2.28424 0
M  V30 771 H 76.7213 0.660782 -3.60596 0
M  V30 772 H 76.3693 3.11265 -3.95124 0
M  V30 773 H 76.0693 2.19718 -5.44975 0
M  V30 774 H 77.5933 3.10908 -5.25517 0
M  V30 775 H 79.0073 0.875072 -5.66582 0
M  V30 776 H 77.4043 0.157428 -5.99893 0
M  V30 777 H 78.4743 -0.60822 -4.8107 0
M  V30 778 N 79.8174 1.5752 -0.0501392 0
M  V30 779 C 81.0654 1.9227 0.622642 0
M  V30 780 C 81.3864 0.929083 1.71444 0
M  V30 781 O 80.6564 -0.0262186 1.95882 0
M  V30 782 H 79.2364 0.709739 0.232981 0
M  V30 783 H 81.8984 1.94628 -0.102898 0
M  V30 784 H 80.9944 2.93479 1.06191 0
M  V30 785 N 81.2955 -0.223234 1.56011 0
M  V30 786 C 82.2055 -1.29766 1.95443 0
M  V30 787 C 83.2215 -1.51373 0.858028 0
M  V30 788 O 84.3975 -1.64536 1.16146 0
M  V30 789 C 81.4625 -2.62772 2.26167 0
M  V30 790 C 80.5235 -2.49482 3.49367 0
M  V30 791 C 79.7565 -3.76145 3.78616 0
M  V30 792 O 79.9795 -4.79087 3.09568 0
M  V30 793 O 78.9135 -3.73358 4.72109 0
M  V30 794 H 82.7395 -0.99309 2.87004 0
M  V30 795 H 80.3245 -0.425958 1.43199 0
M  V30 796 H 82.2065 -3.41327 2.47131 0
M  V30 797 H 80.8815 -2.92913 1.37781 0
M  V30 798 H 79.7885 -1.69133 3.33684 0
M  V30 799 H 81.1215 -2.2428 4.38131 0
M  V30 800 N 82.7736 -1.49793 -0.48987 0
M  V30 801 C 83.6836 -1.70036 -1.61632 0
M  V30 802 C 84.6996 -0.583102 -1.63939 0
M  V30 803 O 85.8756 -0.859169 -1.82154 0
M  V30 804 C 82.9406 -1.77277 -2.97949 0
M  V30 805 C 82.0016 -3.00918 -3.06181 0
M  V30 806 C 81.2346 -3.07804 -4.35996 0
M  V30 807 O 81.4576 -2.21982 -5.25433 0
M  V30 808 O 80.3916 -4.00369 -4.49431 0
M  V30 809 H 84.2176 -2.65486 -1.47482 0
M  V30 810 H 81.8026 -1.33666 -0.667362 0
M  V30 811 H 83.6846 -1.84329 -3.78947 0
M  V30 812 H 82.3596 -0.850076 -3.12339 0
M  V30 813 H 81.2666 -2.99377 -2.2433 0
M  V30 814 H 82.5996 -3.92704 -2.96723 0
M  V30 815 N 84.2517 0.741722 -1.39055 0
M  V30 816 C 85.5287 1.49252 -1.26425 0
M  V30 817 C 85.9087 2.10705 0.129144 0
M  V30 818 O 85.2567 1.98045 1.13976 0
M  V30 819 C 85.4667 2.54934 -2.38347 0
M  V30 820 C 86.8147 3.21506 -2.77343 0
M  V30 821 O 87.8387 2.65245 -2.37747 0
M  V30 822 O 86.6977 4.23294 -3.45665 0
M  V30 823 H 83.7917 0.662451 -0.495064 0
M  V30 824 H 86.3377 0.776121 -1.50912 0
M  V30 825 H 85.1097 2.07857 -3.31529 0
M  V30 826 H 84.7327 3.34141 -2.15489 0
M  V30 827 N 85.7298 1.2412 0.971189 0
M  V30 828 C 86.9788 1.07284 1.70801 0
M  V30 829 C 87.2918 -0.388902 1.91695 0
M  V30 830 O 88.4978 -0.677379 2.62914 0
M  V30 831 C 86.9538 1.87145 3.07416 0
M  V30 832 C 86.5618 3.37707 2.94377 0
M  V30 833 C 88.3058 1.78828 3.84995 0
M  V30 834 C 86.2128 4.09925 4.26281 0
M  V30 835 H 85.1428 0.397854 0.64049 0
M  V30 836 H 87.7938 1.4817 1.0825 0
M  V30 837 H 86.1758 1.39071 3.70777 0
M  V30 838 H 87.3498 3.93335 2.4005 0
M  V30 839 H 85.6648 3.46938 2.30267 0
M  V30 840 H 88.2618 2.30089 4.82662 0
M  V30 841 H 88.6048 0.75284 4.09436 0
M  V30 842 H 89.1378 2.24563 3.28354 0
M  V30 843 H 85.8768 5.13813 4.07033 0
M  V30 844 H 85.3968 3.59083 4.80437 0
M  V30 845 H 87.0758 4.1673 4.94919 0
M  V30 846 N 87.2079 -1.17134 1.05439 0
M  V30 847 C 88.6239 -1.39454 0.776201 0
M  V30 848 C 88.8239 -1.91454 -0.628307 0
M  V30 849 O 87.8799 -2.10777 -1.39031 0
M  V30 850 C 89.1929 -2.38305 1.83388 0
M  V30 851 C 90.7409 -2.52006 1.85639 0
M  V30 852 C 91.2159 -3.54133 2.90437 0
M  V30 853 N 92.7069 -3.61653 2.89415 0
M  V30 854 C 93.4419 -4.4044 3.67152 0
M  V30 855 N 92.9379 -5.22721 4.54681 0
M  V30 856 N 94.7309 -4.35337 3.55581 0
M  V30 857 H 86.8819 -0.817134 1.96053 0
M  V30 858 H 89.1449 -0.421626 0.849079 0
M  V30 859 H 88.8509 -2.07173 2.84204 0
M  V30 860 H 88.7249 -3.37841 1.67761 0
M  V30 861 H 91.1119 -2.82447 0.85486 0
M  V30 862 H 91.1929 -1.52537 2.05344 0
M  V30 863 H 90.8369 -3.24431 3.90777 0
M  V30 864 H 90.7669 -4.53313 2.67983 0
M  V30 865 H 93.2579 -3.02909 2.25952 0
M  V30 866 H 93.5709 -5.80027 5.10674 0
M  V30 867 H 91.9159 -5.22093 4.58741 0
M  V30 868 H 95.1069 -3.70112 2.86592 0
M  V30 869 H 95.2799 -4.96494 4.1641 0
M  V30 870 N 88.686 -0.835752 -1.33615 0
M  V30 871 C 90.102 -0.523139 -1.50783 0
M  V30 872 C 90.302 0.950171 -1.77691 0
M  V30 873 O 89.358 1.73411 -1.83534 0
M  V30 874 C 90.671 -1.39378 -2.66448 0
M  V30 875 C 92.219 -1.39223 -2.80332 0
M  V30 876 C 92.694 -2.24765 -3.99055 0
M  V30 877 N 94.185 -2.22458 -4.06284 0
M  V30 878 C 94.92 -2.85386 -4.97336 0
M  V30 879 N 94.416 -3.57354 -5.93523 0
M  V30 880 N 96.209 -2.74872 -4.90308 0
M  V30 881 H 88.36 -1.78952 -1.14411 0
M  V30 882 H 90.623 -0.763297 -0.562212 0
M  V30 883 H 90.329 -2.44061 -2.53234 0
M  V30 884 H 90.203 -1.0676 -3.61776 0
M  V30 885 H 92.59 -0.353136 -2.92979 0
M  V30 886 H 92.671 -1.75846 -1.85773 0
M  V30 887 H 92.315 -3.28732 -3.87167 0
M  V30 888 H 92.245 -1.85485 -4.92852 0
M  V30 889 H 94.736 -1.70119 -3.37443 0
M  V30 890 H 95.049 -4.02584 -6.59656 0
M  V30 891 H 93.394 -3.61461 -5.93608 0
M  V30 892 H 96.585 -2.18213 -4.14126 0
M  V30 893 H 96.758 -3.24199 -5.61069 0
M  V30 894 N 90.1641 1.46063 -0.591896 0
M  V30 895 C 91.1271 2.28854 0.125973 0
M  V30 896 C 92.1271 1.38903 0.810107 0
M  V30 897 O 93.3171 1.61186 0.66066 0
M  V30 898 C 90.4491 3.19526 1.1881 0
M  V30 899 H 91.6421 2.93802 -0.601717 0
M  V30 900 H 89.1951 1.52325 -0.350254 0
M  V30 901 H 89.9301 2.59345 1.94707 0
M  V30 902 H 89.7151 3.85766 0.701936 0
M  V30 903 H 91.2051 3.81817 1.69132 0
M  V30 904 N 91.6422 0.330177 1.54103 0
M  V30 905 C 93.0582 -0.0222371 1.59585 0
M  V30 906 C 93.2582 -1.49902 1.34654 0
M  V30 907 O 92.3142 -2.25592 1.13421 0
M  V30 908 C 93.6272 0.401932 2.98002 0
M  V30 909 C 95.1752 0.353145 3.11001 0
M  V30 910 C 95.6502 0.752576 4.51775 0
M  V30 911 N 97.1412 0.706239 4.57784 0
M  V30 912 C 97.8762 0.987417 5.64834 0
M  V30 913 N 97.3722 1.33607 6.79795 0
M  V30 914 N 99.1652 0.91254 5.54643 0
M  V30 915 H 91.3162 1.29228 1.68564 0
M  V30 916 H 93.5792 0.525906 0.78875 0
M  V30 917 H 93.2852 1.4311 3.21267 0
M  V30 918 H 93.1592 -0.229699 3.765 0
M  V30 919 H 95.5462 -0.666822 2.87467 0
M  V30 920 H 95.6272 1.0198 2.34593 0
M  V30 921 H 95.2712 1.77049 4.76042 0
M  V30 922 H 95.2012 0.0635409 5.26562 0
M  V30 923 H 97.6922 0.44889 3.75224 0
M  V30 924 H 98.0052 1.53582 7.57385 0
M  V30 925 H 96.3502 1.37439 6.81275 0
M  V30 926 H 99.5412 0.639601 4.6371 0
M  V30 927 H 99.7142 1.13503 6.37982 0
M  V30 928 N 93.1203 -1.57491 0.0584922 0
M  V30 929 C 94.0303 -2.15448 -0.928414 0
M  V30 930 C 95.0463 -1.11416 -1.3365 0
M  V30 931 O 96.2223 -1.4362 -1.41193 0
M  V30 932 C 93.2873 -2.69393 -2.18239 0
M  V30 933 C 92.3483 -3.88249 -1.83196 0
M  V30 934 C 91.5813 -4.39613 -3.02616 0
M  V30 935 O 91.8043 -3.90023 -4.16219 0
M  V30 936 O 90.7383 -5.31111 -2.83204 0
M  V30 937 H 94.5643 -3.00112 -0.465483 0
M  V30 938 H 92.1493 -1.48499 -0.163826 0
M  V30 939 H 94.0313 -3.04026 -2.91798 0
M  V30 940 H 92.7063 -1.87796 -2.63656 0
M  V30 941 H 91.6133 -3.58492 -1.06931 0
M  V30 942 H 92.9463 -4.71098 -1.42573 0
M  V30 943 N 94.5984 0.214957 -1.56127 0
M  V30 944 C 95.5614 1.24997 -1.92116 0
M  V30 945 C 96.5614 1.39467 -0.800344 0
M  V30 946 O 97.7514 1.37619 -1.06802 0
M  V30 947 C 94.8834 2.62271 -2.17777 0
M  V30 948 H 96.0764 0.942875 -2.84693 0
M  V30 949 H 93.6294 0.455654 -1.49511 0
M  V30 950 H 94.3644 2.98068 -1.27773 0
M  V30 951 H 94.1494 2.53143 -2.99434 0
M  V30 952 H 95.6394 3.36946 -2.46693 0
M  V30 953 N 96.0765 1.50051 0.48192 0
M  V30 954 C 97.4925 1.37237 0.814756 0
M  V30 955 C 97.6925 0.420109 1.97072 0
M  V30 956 O 96.7485 -0.141246 2.52105 0
M  V30 957 C 98.0615 2.78375 1.13701 0
M  V30 958 C 99.6095 2.87213 1.2441 0
M  V30 959 C 100.084 4.29161 1.59954 0
M  V30 960 N 101.575 4.32061 1.66967 0
M  V30 961 C 102.31 5.38879 1.95952 0
M  V30 962 N 101.806 6.55918 2.23031 0
M  V30 963 N 103.599 5.26312 1.97363 0
M  V30 964 H 95.7505 2.10546 -0.28005 0
M  V30 965 H 98.0135 0.945921 -0.0627454 0
M  V30 966 H 97.7195 3.49845 0.360787 0
M  V30 967 H 97.5935 3.14941 2.07586 0
M  V30 968 H 99.9805 2.15969 2.01101 0
M  V30 969 H 100.061 2.54204 0.285299 0
M  V30 970 H 99.7055 5.00938 0.838067 0
M  V30 971 H 99.6355 4.59648 2.56966 0
M  V30 972 H 102.126 3.47661 1.48123 0
M  V30 973 H 102.439 7.33139 2.44391 0
M  V30 974 H 100.784 6.59112 2.20447 0
M  V30 975 H 103.975 4.33876 1.75697 0
M  V30 976 H 104.148 6.09649 2.19618 0
M  V30 977 N 97.5546 -0.734337 1.39446 0
M  V30 978 C 98.9656 -1.31264 1.32766 0
M  V30 979 C 99.3166 -1.96198 -0.00767497 0
M  V30 980 O 98.4416 -1.96346 -0.909796 0
M  V30 981 C 99.0366 -2.38682 2.4045 0
M  V30 982 C 97.5956 -2.92184 2.37288 0
M  V30 983 C 96.7426 -1.6576 2.22304 0
M  V30 984 H 99.6936 -0.531799 1.49525 0
M  V30 985 H 99.7146 -3.19087 2.07276 0
M  V30 986 H 99.2266 -1.91392 3.37625 0
M  V30 987 H 97.3276 -3.43752 1.43754 0
M  V30 988 H 97.4406 -3.45253 3.3217 0
M  V30 989 H 95.8046 -1.9012 1.69489 0
M  V30 990 H 96.5876 -1.20521 3.21449 0
M  V30 991 N 99.0327 -1.24633 -0.964593 0
M  V30 992 C 100.449 -1.01239 -1.2338 0
M  V30 993 C 100.649 0.2769 -1.99588 0
M  V30 994 O 99.7047 0.992241 -2.32187 0
M  V30 995 C 101.018 -2.22937 -2.01791 0
M  V30 996 C 102.566 -2.27594 -2.14872 0
M  V30 997 C 103.041 -3.48921 -2.96678 0
M  V30 998 N 104.532 -3.49257 -3.04259 0
M  V30 999 C 105.267 -4.39795 -3.67924 0
M  V30 1000 N 104.763 -5.40591 -4.33281 0
M  V30 1001 N 106.556 -4.275 -3.64966 0
M  V30 1002 H 98.7067 -2.0748 -0.454502 0
M  V30 1003 H 100.97 -0.910647 -0.26349 0
M  V30 1004 H 100.676 -3.16587 -1.53184 0
M  V30 1005 H 100.55 -2.25306 -3.02518 0
M  V30 1006 H 102.937 -1.34473 -2.6268 0
M  V30 1007 H 103.018 -2.2925 -1.13482 0
M  V30 1008 H 102.662 -4.42359 -2.49562 0
M  V30 1009 H 102.592 -3.4451 -3.98272 0
M  V30 1010 H 105.083 -2.76337 -2.57771 0
M  V30 1011 H 105.396 -6.05904 -4.79687 0
M  V30 1012 H 103.741 -5.44475 -4.3194 0
M  V30 1013 H 106.932 -3.47987 -3.13086 0
M  V30 1014 H 107.105 -4.98258 -4.14298 0
M  V30 1015 N 100.511 1.16574 -1.06058 0
M  V30 1016 C 101.458 2.20883 -0.669263 0
M  V30 1017 C 102.428 1.62729 0.332918 0
M  V30 1018 O 103.613 1.895 0.222346 0
M  V30 1019 C 100.753 3.45049 -0.0593572 0
M  V30 1020 C 99.8658 4.17458 -1.11143 0
M  V30 1021 C 99.0008 5.29135 -0.467916 0
M  V30 1022 C 98.0398 5.93343 -1.50369 0
M  V30 1023 N 97.1768 6.96516 -0.883706 0
M  V30 1024 H 102.017 2.53709 -1.5632 0
M  V30 1025 H 99.5538 1.24616 -0.781625 0
M  V30 1026 H 101.512 4.16033 0.311771 0
M  V30 1027 H 100.142 3.12781 0.797992 0
M  V30 1028 H 99.1938 3.45101 -1.60029 0
M  V30 1029 H 100.506 4.61307 -1.89731 0
M  V30 1030 H 99.6598 6.06684 -0.0436871 0
M  V30 1031 H 98.3988 4.86443 0.349864 0
M  V30 1032 H 97.4038 5.14517 -1.93784 0
M  V30 1033 H 98.6288 6.38114 -2.32352 0
M  V30 1034 H 96.5748 6.55943 -0.086595 0
M  V30 1035 H 96.4918 7.38723 -1.607 0
M  V30 1036 H 97.7598 7.77993 -0.484543 0
M  V30 1037 N 101.989 0.842826 1.3317 0
M  V30 1038 C 103.217 0.454055 2.01856 0
M  V30 1039 C 103.632 -0.94587 1.63397 0
M  V30 1040 O 102.989 -1.61534 0.849302 0
M  V30 1041 C 103.04 0.569715 3.56982 0
M  V30 1042 O 102.761 1.91448 3.94055 0
M  V30 1043 C 104.262 0.178412 4.42941 0
M  V30 1044 H 101.482 0.17979 0.646465 0
M  V30 1045 H 104.026 1.1365 1.70012 0
M  V30 1046 H 102.181 -0.0648587 3.87346 0
M  V30 1047 H 102.595 1.90282 4.88767 0
M  V30 1048 H 104.069 0.310376 5.51127 0
M  V30 1049 H 104.546 -0.880056 4.30293 0
M  V30 1050 H 105.152 0.787579 4.17944 0
M  V30 1051 N 103.467 -1.45747 0.599634 0
M  V30 1052 C 104.878 -1.85853 0.177681 0
M  V30 1053 C 105.229 -1.50102 -1.26348 0
M  V30 1054 O 104.354 -0.923905 -1.95686 0
M  V30 1055 C 104.949 -3.37326 0.315688 0
M  V30 1056 C 103.508 -3.76365 -0.0515144 0
M  V30 1057 C 102.655 -2.69722 0.643822 0
M  V30 1058 H 105.606 -1.36661 0.806814 0
M  V30 1059 H 105.627 -3.77778 -0.454321 0
M  V30 1060 H 105.139 -3.63315 1.36468 0
M  V30 1061 H 103.24 -3.55993 -1.09999 0
M  V30 1062 H 103.353 -4.77916 0.336594 0
M  V30 1063 H 101.717 -2.54567 0.0822881 0
M  V30 1064 H 102.5 -2.98549 1.6948 0
M  V30 1065 N 104.945 -0.338344 -1.53925 0
M  V30 1066 C 106.361 0.0137736 -1.59594 0
M  V30 1067 C 106.561 1.49186 -1.35447 0
M  V30 1068 O 105.617 2.24987 -1.14616 0
M  V30 1069 C 106.93 -0.41773 -2.97784 0
M  V30 1070 C 108.478 -0.369633 -3.1081 0
M  V30 1071 C 108.953 -0.776524 -4.51369 0
M  V30 1072 N 110.444 -0.730506 -4.57403 0
M  V30 1073 C 111.179 -1.01736 -5.64303 0
M  V30 1074 N 110.675 -1.3721 -6.79077 0
M  V30 1075 N 112.468 -0.941942 -5.54151 0
M  V30 1076 H 104.619 -1.3012 -1.67876 0
M  V30 1077 H 106.882 -0.530082 -0.78595 0
M  V30 1078 H 106.588 -1.44811 -3.20504 0
M  V30 1079 H 106.462 0.209729 -3.76616 0
M  V30 1080 H 108.849 0.651568 -2.87817 0
M  V30 1081 H 108.93 -1.03223 -2.34049 0
M  V30 1082 H 108.574 -1.79571 -4.75096 0
M  V30 1083 H 108.504 -0.0914649 -5.26521 0
M  V30 1084 H 110.995 -0.468783 -3.74981 0
M  V30 1085 H 111.308 -1.57597 -7.5656 0
M  V30 1086 H 109.653 -1.4105 -6.80536 0
M  V30 1087 H 112.844 -0.664184 -4.63364 0
M  V30 1088 H 113.017 -1.16884 -6.37371 0
M  V30 1089 N 106.423 1.57458 -0.0668435 0
M  V30 1090 C 107.834 1.80776 0.466558 0
M  V30 1091 C 108.185 0.980361 1.69951 0
M  V30 1092 O 107.31 0.201441 2.1546 0
M  V30 1093 C 107.905 3.27881 0.85321 0
M  V30 1094 C 106.464 3.52062 1.3315 0
M  V30 1095 C 105.611 2.75513 0.314264 0
M  V30 1096 H 108.562 1.5598 -0.292588 0
M  V30 1097 H 108.583 3.39659 1.715 0
M  V30 1098 H 108.095 3.88075 -0.0443439 0
M  V30 1099 H 106.196 2.97167 2.24772 0
M  V30 1100 H 106.309 4.60762 1.31285 0
M  V30 1101 H 104.673 2.42123 0.790492 0
M  V30 1102 H 105.456 3.38442 -0.575477 0
M  V30 1103 N 107.901 -0.206675 1.56239 0
M  V30 1104 C 108.833 -1.27997 1.9013 0
M  V30 1105 C 109.846 -1.42299 0.790883 0
M  V30 1106 O 111.035 -1.42931 1.06925 0
M  V30 1107 C 108.135 -2.65368 2.10792 0
M  V30 1108 C 107.308 -2.72824 3.41886 0
M  V30 1109 C 106.367 -3.9131 3.51799 0
M  V30 1110 O 105.393 -3.78953 4.24716 0
M  V30 1111 N 106.595 -5.06265 2.84035 0
M  V30 1112 H 109.36 -0.992444 2.82791 0
M  V30 1113 H 106.921 -0.396652 1.56966 0
M  V30 1114 H 108.913 -3.43039 2.14724 0
M  V30 1115 H 107.483 -2.86657 1.24685 0
M  V30 1116 H 106.703 -1.81515 3.49923 0
M  V30 1117 H 107.991 -2.74786 4.28217 0
M  V30 1118 H 107.389 -5.19203 2.246 0
M  V30 1119 H 105.946 -5.81925 2.93609 0
M  V30 1120 N 109.379 -1.50304 -0.473955 0
M  V30 1121 C 110.309 -1.71886 -1.58042 0
M  V30 1122 C 111.29 -0.567799 -1.60344 0
M  V30 1123 O 112.475 -0.806623 -1.76656 0
M  V30 1124 C 109.605 -1.81036 -2.96384 0
M  V30 1125 C 108.559 -2.962 -3.08949 0
M  V30 1126 C 107.885 -2.9049 -4.48909 0
M  V30 1127 C 109.185 -4.36752 -2.86434 0
M  V30 1128 H 110.879 -2.64527 -1.40234 0
M  V30 1129 H 108.425 -1.27295 -0.673201 0
M  V30 1130 H 110.378 -1.94719 -3.73714 0
M  V30 1131 H 109.102 -0.850147 -3.15341 0
M  V30 1132 H 107.761 -2.82164 -2.3405 0
M  V30 1133 H 107.409 -1.92321 -4.64781 0
M  V30 1134 H 107.109 -3.67802 -4.58253 0
M  V30 1135 H 108.633 -3.06218 -5.28264 0
M  V30 1136 H 110.047 -4.5133 -3.53517 0
M  V30 1137 H 108.444 -5.15493 -3.07225 0
M  V30 1138 H 109.514 -4.49321 -1.82316 0
M  V30 1139 N 110.857 0.726932 -1.39834 0
M  V30 1140 C 112.082 1.52121 -1.40976 0
M  V30 1141 C 112.507 1.88098 -0.00826029 0
M  V30 1142 O 111.865 1.52479 0.980807 0
M  V30 1143 C 111.913 2.78021 -2.29644 0
M  V30 1144 O 111.017 3.74272 -1.73188 0
M  V30 1145 H 110.358 0.45908 -0.479731 0
M  V30 1146 H 112.888 0.896207 -1.83927 0
M  V30 1147 H 112.898 3.26671 -2.44438 0
M  V30 1148 H 111.573 2.51169 -3.31492 0
M  V30 1149 H 110.15 3.33073 -1.6768 0
M  V30 1150 N 112.336 1.25143 0.95797 0
M  V30 1151 C 113.613 1.00472 1.67823 0
M  V30 1152 C 113.993 -0.470056 2.058 0
M  V30 1153 O 113.341 -1.44663 1.76875 0
M  V30 1154 C 113.551 1.9372 2.90299 0
M  V30 1155 C 114.899 2.21371 3.62326 0
M  V30 1156 O 115.923 1.91451 3.00375 0
M  V30 1157 O 114.782 2.72231 4.7387 0
M  V30 1158 H 111.876 0.380752 0.734137 0
M  V30 1159 H 114.422 1.36283 1.01119 0
M  V30 1160 H 113.194 2.93316 2.59001 0
M  V30 1161 H 112.817 1.58286 3.64735 0
M  V30 1162 N 113.814 -1.1601 1.06675 0
M  V30 1163 C 115.23 -1.38622 0.790948 0
M  V30 1164 C 115.43 -1.92109 -0.607965 0
M  V30 1165 O 114.486 -2.12239 -1.36787 0
M  V30 1166 C 115.799 -2.36347 1.85905 0
M  V30 1167 C 117.347 -2.50023 1.88301 0
M  V30 1168 C 117.822 -3.51033 2.94176 0
M  V30 1169 N 119.313 -3.58563 2.93235 0
M  V30 1170 C 120.048 -4.36521 3.71803 0
M  V30 1171 N 119.544 -5.17869 4.602 0
M  V30 1172 N 121.337 -4.31541 3.60178 0
M  V30 1173 H 113.488 -0.796294 1.96908 0
M  V30 1174 H 115.751 -0.412597 0.853503 0
M  V30 1175 H 115.457 -2.04147 2.86386 0
M  V30 1176 H 115.331 -3.36042 1.71334 0
M  V30 1177 H 117.718 -2.81524 0.884769 0
M  V30 1178 H 117.799 -1.5035 2.06951 0
M  V30 1179 H 117.443 -3.20268 3.94196 0
M  V30 1180 H 117.373 -4.50445 2.72776 0
M  V30 1181 H 119.864 -3.00496 2.29152 0
M  V30 1182 H 120.177 -5.74578 5.16797 0
M  V30 1183 H 118.522 -5.17199 4.64253 0
M  V30 1184 H 121.713 -3.67051 2.90502 0
M  V30 1185 H 121.886 -4.9205 4.21653 0
M  V30 1186 N 115.292 -0.849877 -1.32721 0
M  V30 1187 C 116.517 -0.463856 -2.02146 0
M  V30 1188 C 116.942 0.930449 -1.63476 0
M  V30 1189 O 116.3 1.61033 -0.832952 0
M  V30 1190 C 116.348 -0.604955 -3.55489 0
M  V30 1191 O 115.452 0.36425 -4.10788 0
M  V30 1192 H 114.793 -0.187046 -0.637111 0
M  V30 1193 H 117.323 -1.14775 -1.69375 0
M  V30 1194 H 117.333 -0.490696 -4.05038 0
M  V30 1195 H 116.008 -1.62174 -3.82978 0
M  V30 1196 H 114.585 0.206628 -3.72327 0
M  V30 1197 N 116.77 1.45427 -0.607355 0
M  V30 1198 C 118.186 1.57283 -0.270985 0
M  V30 1199 C 118.386 1.59875 1.22647 0
M  V30 1200 O 117.442 1.52893 2.00948 0
M  V30 1201 C 118.755 2.85566 -0.941952 0
M  V30 1202 C 120.303 2.9924 -0.917849 0
M  V30 1203 C 120.778 4.30293 -1.56882 0
M  V30 1204 N 122.269 4.37051 -1.5343 0
M  V30 1205 C 123.004 5.37123 -2.00715 0
M  V30 1206 N 122.5 6.43734 -2.56084 0
M  V30 1207 N 124.293 5.28479 -1.91484 0
M  V30 1208 H 116.444 1.41988 -1.57966 0
M  V30 1209 H 118.707 0.67885 -0.661715 0
M  V30 1210 H 118.413 2.8955 -1.99633 0
M  V30 1211 H 118.287 3.74322 -0.465096 0
M  V30 1212 H 120.674 2.94822 0.127984 0
M  V30 1213 H 120.755 2.11895 -1.43297 0
M  V30 1214 H 120.399 4.35469 -2.61398 0
M  V30 1215 H 120.329 5.16454 -1.02873 0
M  V30 1216 H 122.82 3.60615 -1.12982 0
M  V30 1217 H 123.133 7.16341 -2.89958 0
M  V30 1218 H 121.478 6.44485 -2.60122 0
M  V30 1219 H 124.669 4.44098 -1.47967 0
M  V30 1220 H 124.842 6.0632 -2.28648 0
M  V30 1221 N 118.248 0.346503 1.53744 0
M  V30 1222 C 119.158 -0.517293 2.28826 0
M  V30 1223 C 120.174 -1.10935 1.3405 0
M  V30 1224 O 121.35 -1.1244 1.6709 0
M  V30 1225 C 118.415 -1.65098 3.04866 0
M  V30 1226 C 117.476 -1.0884 4.15274 0
M  V30 1227 C 116.709 -2.16806 4.87679 0
M  V30 1228 O 116.932 -3.3758 4.59778 0
M  V30 1229 O 115.866 -1.80934 5.74061 0
M  V30 1230 H 119.692 0.0931396 3.03557 0
M  V30 1231 H 117.277 0.111458 1.48984 0
M  V30 1232 H 119.159 -2.31053 3.5241 0
M  V30 1233 H 117.834 -2.24717 2.32989 0
M  V30 1234 H 116.741 -0.3933 3.72027 0
M  V30 1235 H 118.074 -0.537036 4.89261 0
M  V30 1236 N 119.726 -1.57421 0.075193 0
M  V30 1237 C 121.142 -1.57099 -0.281444 0
M  V30 1238 C 121.342 -1.08486 -1.69803 0
M  V30 1239 O 120.398 -0.752279 -2.41033 0
M  V30 1240 C 121.711 -3.00571 -0.0880041 0
M  V30 1241 C 123.259 -3.12605 -0.157281 0
M  V30 1242 C 123.734 -4.57999 0.0079207 0
M  V30 1243 N 125.225 -4.63176 -0.0475725 0
M  V30 1244 C 125.96 -5.73373 0.0557876 0
M  V30 1245 N 125.456 -6.92473 0.21286 0
M  V30 1246 N 127.249 -5.621 -0.00152098 0
M  V30 1247 H 119.4 -1.87335 1.00098 0
M  V30 1248 H 121.663 -0.86377 0.390646 0
M  V30 1249 H 121.369 -3.40262 0.889629 0
M  V30 1250 H 121.243 -3.67754 -0.838875 0
M  V30 1251 H 123.63 -2.72798 -1.1254 0
M  V30 1252 H 123.711 -2.48053 0.62475 0
M  V30 1253 H 123.355 -4.98496 0.972824 0
M  V30 1254 H 123.285 -5.20586 -0.793556 0
M  V30 1255 H 125.776 -3.7753 -0.167244 0
M  V30 1256 H 126.089 -7.72279 0.283781 0
M  V30 1257 H 124.434 -6.94556 0.248267 0
M  V30 1258 H 127.625 -4.67938 -0.122958 0
M  V30 1259 H 127.798 -6.47948 0.0824844 0
M  V30 1260 N 121.204 0.198386 -1.56346 0
M  V30 1261 C 122.151 1.24589 -1.94284 0
M  V30 1262 C 123.121 1.454 -0.802997 0
M  V30 1263 O 124.306 1.58588 -1.06087 0
M  V30 1264 C 121.446 2.58631 -2.28482 0
M  V30 1265 C 120.559 2.45426 -3.55514 0
M  V30 1266 C 119.694 3.7215 -3.79049 0
M  V30 1267 C 118.733 3.53763 -4.99518 0
M  V30 1268 N 117.87 4.72491 -5.19323 0
M  V30 1269 H 122.71 0.915356 -2.83593 0
M  V30 1270 H 120.247 0.440629 -1.40346 0
M  V30 1271 H 122.205 3.3672 -2.46324 0
M  V30 1272 H 120.835 2.89734 -1.42317 0
M  V30 1273 H 119.887 1.58652 -3.45737 0
M  V30 1274 H 121.199 2.27772 -4.43758 0
M  V30 1275 H 120.353 4.58679 -3.97113 0
M  V30 1276 H 119.092 3.92754 -2.89129 0
M  V30 1277 H 118.097 2.65619 -4.8138 0
M  V30 1278 H 119.322 3.34607 -5.90944 0
M  V30 1279 H 117.268 4.93365 -4.3235 0
M  V30 1280 H 117.185 4.5765 -6.01741 0
M  V30 1281 H 118.453 5.6038 -5.41843 0
M  V30 1282 N 122.682 1.50554 0.465978 0
M  V30 1283 C 123.928 1.62038 1.21949 0
M  V30 1284 C 124.261 0.322116 1.9151 0
M  V30 1285 O 123.536 -0.676723 1.82348 0
M  V30 1286 C 123.819 2.80421 2.25912 0
M  V30 1287 C 123.672 4.20144 1.60622 0
M  V30 1288 C 124.991 2.94354 3.27176 0
M  V30 1289 H 122.11 0.589752 0.441998 0
M  V30 1290 H 124.752 1.82956 0.51257 0
M  V30 1291 H 122.902 2.62717 2.86203 0
M  V30 1292 H 124.574 4.49449 1.03889 0
M  V30 1293 H 122.817 4.24165 0.909211 0
M  V30 1294 H 123.488 4.98914 2.36196 0
M  V30 1295 H 125.964 3.10578 2.76913 0
M  V30 1296 H 124.84 3.788 3.97242 0
M  V30 1297 H 125.101 2.05186 3.916 0
M  V30 1298 N 124.16 -0.719506 1.40217 0
M  V30 1299 C 125.571 -1.29848 1.34151 0
M  V30 1300 C 125.922 -1.96196 0.0131349 0
M  V30 1301 O 125.047 -1.973 -0.88892 0
M  V30 1302 C 125.642 -2.36118 2.42968 0
M  V30 1303 C 124.201 -2.8965 2.40374 0
M  V30 1304 C 123.348 -1.63393 2.24049 0
M  V30 1305 H 126.299 -0.51591 1.5008 0
M  V30 1306 H 126.32 -3.16871 2.10649 0
M  V30 1307 H 125.832 -1.878 3.39636 0
M  V30 1308 H 123.933 -3.42208 1.47392 0
M  V30 1309 H 124.046 -3.4171 3.35814 0
M  V30 1310 H 122.41 -1.88312 1.71495 0
M  V30 1311 H 123.193 -1.17104 3.2271 0
M  V30 1312 N 125.638 -1.25649 -0.95132 0
M  V30 1313 C 126.601 -1.06399 -2.03007 0
M  V30 1314 C 127.601 -0.0156794 -1.60792 0
M  V30 1315 O 128.791 -0.25817 -1.72276 0
M  V30 1316 C 125.923 -0.616184 -3.35285 0
M  V30 1317 H 127.116 -2.02164 -2.21517 0
M  V30 1318 H 124.669 -1.08103 -1.12887 0
M  V30 1319 H 125.404 0.343917 -3.22471 0
M  V30 1320 H 125.189 -1.37301 -3.67275 0
M  V30 1321 H 126.679 -0.503032 -4.14559 0
M  V30 1322 N 127.117 1.15442 -1.07289 0
M  V30 1323 C 128.342 1.90638 -0.816828 0
M  V30 1324 C 128.767 1.77445 0.624083 0
M  V30 1325 O 128.125 1.10671 1.43602 0
M  V30 1326 C 128.173 3.39008 -1.22906 0
M  V30 1327 O 127.277 4.10701 -0.373975 0
M  V30 1328 H 126.618 0.593555 -0.297638 0
M  V30 1329 H 129.148 1.46198 -1.43134 0
M  V30 1330 H 129.158 3.89801 -1.20497 0
M  V30 1331 H 127.833 3.47929 -2.27856 0
M  V30 1332 H 126.41 3.70046 -0.460499 0
M  V30 1333 N 128.595 0.856903 1.32268 0
M  V30 1334 C 130.011 0.547061 1.49931 0
M  V30 1335 C 130.211 -0.921781 1.7918 0
M  V30 1336 O 129.267 -1.70469 1.8627 0
M  V30 1337 C 130.58 1.43599 2.64196 0
M  V30 1338 C 132.128 1.43665 2.78081 0
M  V30 1339 C 132.603 2.31085 3.95428 0
M  V30 1340 N 134.094 2.28893 4.02694 0
M  V30 1341 C 134.829 2.93262 4.92732 0
M  V30 1342 N 134.325 3.66751 5.87763 0
M  V30 1343 N 136.118 2.82638 4.85873 0
M  V30 1344 H 128.269 1.8075 1.11549 0
M  V30 1345 H 130.532 0.772144 0.549997 0
M  V30 1346 H 130.238 2.48058 2.49319 0
M  V30 1347 H 130.112 1.12502 3.60032 0
M  V30 1348 H 132.499 0.399701 2.92381 0
M  V30 1349 H 132.58 1.7878 1.82952 0
M  V30 1350 H 132.224 3.34849 3.81888 0
M  V30 1351 H 132.154 1.93302 4.89839 0
M  V30 1352 H 134.645 1.75466 3.34694 0
M  V30 1353 H 134.958 4.13027 6.53168 0
M  V30 1354 H 133.303 3.70859 5.87783 0
M  V30 1355 H 136.494 2.24774 4.10602 0
M  V30 1356 H 136.667 3.33084 5.55841 0
M  V30 1357 N 130.073 -1.45103 0.615059 0
M  V30 1358 C 131.322 -2.01396 0.110718 0
M  V30 1359 C 131.635 -1.48834 -1.26916 0
M  V30 1360 O 132.841 -1.97152 -1.86664 0
M  V30 1361 C 131.297 -3.59599 0.14723 0
M  V30 1362 C 130.905 -4.21158 1.52743 0
M  V30 1363 C 132.649 -4.23428 -0.30148 0
M  V30 1364 C 130.556 -5.71535 1.51992 0
M  V30 1365 H 129.486 -0.753061 0.0376241 0
M  V30 1366 H 132.137 -1.66494 0.77149 0
M  V30 1367 H 130.519 -3.91724 -0.580339 0
M  V30 1368 H 131.693 -4.00594 2.2773 0
M  V30 1369 H 130.008 -3.69552 1.91886 0
M  V30 1370 H 132.605 -5.33703 -0.326392 0
M  V30 1371 H 132.948 -3.94629 -1.32565 0
M  V30 1372 H 133.481 -3.96047 0.373065 0
M  V30 1373 H 130.22 -6.05044 2.52193 0
M  V30 1374 H 129.74 -5.94268 0.81274 0
M  V30 1375 H 131.419 -6.34873 1.24681 0
M  V30 1376 N 131.551 -0.354651 -1.53558 0
M  V30 1377 C 132.776 0.242153 -2.05981 0
M  V30 1378 C 133.201 1.42553 -1.2272 0
M  V30 1379 O 132.559 1.79656 -0.243604 0
M  V30 1380 C 132.607 0.624367 -3.55154 0
M  V30 1381 O 131.711 1.72301 -3.74681 0
M  V30 1382 H 131.052 0.0378432 -0.662921 0
M  V30 1383 H 133.582 -0.512087 -1.98088 0
M  V30 1384 H 133.592 0.898433 -3.97985 0
M  V30 1385 H 132.267 -0.240989 -4.15201 0
M  V30 1386 H 130.844 1.44535 -3.4375 0
M  V30 1387 N 133.029 1.57378 -0.0835403 0
M  V30 1388 C 134.445 1.57246 0.273109 0
M  V30 1389 C 134.645 1.09385 1.69225 0
M  V30 1390 O 133.701 0.765051 2.40631 0
M  V30 1391 C 135.014 3.00614 0.0720628 0
M  V30 1392 C 136.562 3.12684 0.1407 0
M  V30 1393 C 137.037 4.57989 -0.0322094 0
M  V30 1394 N 138.528 4.63194 0.0230085 0
M  V30 1395 C 139.263 5.73335 -0.0861941 0
M  V30 1396 N 138.759 6.9235 -0.24958 0
M  V30 1397 N 140.552 5.62093 -0.0282886 0
M  V30 1398 H 132.703 1.86801 -1.0109 0
M  V30 1399 H 134.966 0.861687 -0.395222 0
M  V30 1400 H 134.672 3.39786 -0.907662 0
M  V30 1401 H 134.546 3.68193 0.81936 0
M  V30 1402 H 136.933 2.73391 1.11092 0
M  V30 1403 H 137.014 2.47719 -0.637896 0
M  V30 1404 H 136.658 4.97973 -0.999247 0
M  V30 1405 H 136.588 5.21 0.765937 0
M  V30 1406 H 139.079 3.77613 0.14722 0
M  V30 1407 H 139.392 7.72117 -0.324733 0
M  V30 1408 H 137.737 6.94415 -0.285097 0
M  V30 1409 H 140.928 4.67997 0.0981408 0
M  V30 1410 H 141.101 6.47895 -0.116845 0
M  V30 1411 N 134.507 -0.190092 1.56449 0
M  V30 1412 C 135.437 -1.23816 1.97969 0
M  V30 1413 C 136.418 -1.47201 0.852395 0
M  V30 1414 O 137.603 -1.58854 1.1171 0
M  V30 1415 C 134.733 -2.5813 2.3235 0
M  V30 1416 C 133.687 -2.49348 3.47864 0
M  V30 1417 C 133.013 -3.8798 3.67934 0
M  V30 1418 C 134.313 -2.01424 4.81898 0
M  V30 1419 H 136.007 -0.89311 2.85769 0
M  V30 1420 H 133.553 -0.428177 1.37487 0
M  V30 1421 H 135.506 -3.31637 2.59991 0
M  V30 1422 H 134.23 -2.94386 1.41438 0
M  V30 1423 H 132.889 -1.78297 3.20321 0
M  V30 1424 H 132.537 -4.21597 2.74344 0
M  V30 1425 H 132.237 -3.82978 4.45648 0
M  V30 1426 H 133.761 -4.63101 3.97957 0
M  V30 1427 H 135.175 -2.64693 5.08538 0
M  V30 1428 H 133.572 -2.07413 5.63116 0
M  V30 1429 H 134.642 -0.967677 4.75146 0
M  V30 1430 N 135.985 -1.50799 -0.457987 0
M  V30 1431 C 136.948 -1.7005 -1.53674 0
M  V30 1432 C 137.948 -0.570881 -1.50325 0
M  V30 1433 O 139.138 -0.838126 -1.52712 0
M  V30 1434 C 136.27 -1.73788 -2.93276 0
M  V30 1435 H 137.463 -2.66306 -1.37917 0
M  V30 1436 H 135.016 -1.40477 -0.685271 0
M  V30 1437 H 135.751 -0.792717 -3.14462 0
M  V30 1438 H 135.536 -2.55864 -2.97113 0
M  V30 1439 H 137.026 -1.90591 -3.71571 0
M  V30 1440 N 137.463 0.71206 -1.40597 0
M  V30 1441 C 138.411 1.84746 -1.41321 0
M  V30 1442 C 139.405 1.66842 -0.293268 0
M  V30 1443 O 140.611 1.73904 -0.464481 0
M  V30 1444 H 136.986 0.608522 -0.441819 0
M  V30 1445 H 138.957 1.81252 -2.37045 0
M  V30 1446 C 137.706 3.22638 -1.29614 0
M  V30 1447 H 137.029 3.37023 -2.15071 0
M  V30 1448 H 138.469 4.02209 -1.3418 0
M  V30 1449 C 136.928 3.36899 -0.00673121 0
M  V30 1450 O 137.458 3.90186 0.954859 0
M  V30 1451 N 135.664 2.9053 0.0639327 0
M  V30 1452 H 135.211 2.47353 -0.719311 0
M  V30 1453 H 135.169 3.0045 0.926118 0
M  V30 1454 N 138.941 1.26152 0.944643 0
M  V30 1455 C 140.188 1.11492 1.69044 0
M  V30 1456 C 140.516 -0.342366 1.91463 0
M  V30 1457 O 139.771 -1.26812 1.49054 0
M  V30 1458 C 140.07 1.82541 3.07268 0
M  V30 1459 C 139.736 3.32445 3.04616 0
M  V30 1460 C 138.398 3.73337 3.036 0
M  V30 1461 C 140.75 4.28171 2.97185 0
M  V30 1462 C 138.078 5.08348 2.92915 0
M  V30 1463 C 140.43 5.63218 2.88041 0
M  V30 1464 C 139.094 6.03426 2.85366 0
M  V30 1465 H 138.364 0.407977 0.618576 0
M  V30 1466 H 141.011 1.56551 1.10291 0
M  V30 1467 H 139.316 1.29941 3.69625 0
M  V30 1468 H 141.013 1.68642 3.63815 0
M  V30 1469 H 137.603 2.99915 3.06185 0
M  V30 1470 H 141.787 3.97563 2.97081 0
M  V30 1471 H 137.043 5.38667 2.89219 0
M  V30 1472 H 141.217 6.37078 2.81254 0
M  V30 1473 H 138.844 7.07999 2.76842 0
M  V30 1474 N 140.419 -1.14872 1.07899 0
M  V30 1475 C 141.667 -1.85422 0.803941 0
M  V30 1476 C 141.988 -1.83051 -0.67211 0
M  V30 1477 O 141.258 -1.27532 -1.48703 0
M  V30 1478 H 139.838 -0.686537 0.294408 0
M  V30 1479 H 142.5 -1.39226 1.3639 0
M  V30 1480 H 141.596 -2.90399 1.14346 0
M  V30 1481 N 141.898 -0.863906 -1.31812 0
M  V30 1482 C 143.146 -0.470904 -1.96537 0
M  V30 1483 C 143.467 0.978771 -1.68657 0
M  V30 1484 O 142.737 1.6853 -0.998717 0
M  V30 1485 H 141.317 -0.171148 -0.72713 0
M  V30 1486 H 143.979 -1.10236 -1.60729 0
M  V30 1487 H 143.075 -0.623616 -3.05806 0
M  V30 1488 N 143.376 1.44774 -0.622745 0
M  V30 1489 C 144.306 2.33382 0.0741861 0
M  V30 1490 C 145.287 1.47719 0.843387 0
M  V30 1491 O 146.472 1.76458 0.810934 0
M  V30 1492 C 143.602 3.30663 1.06204 0
M  V30 1493 C 142.556 4.26079 0.405037 0
M  V30 1494 C 141.882 5.13165 1.5022 0
M  V30 1495 C 143.182 5.1781 -0.683414 0
M  V30 1496 H 144.876 2.91905 -0.665713 0
M  V30 1497 H 142.422 1.40363 -0.321587 0
M  V30 1498 H 144.375 3.9153 1.55827 0
M  V30 1499 H 143.099 2.70331 1.83272 0
M  V30 1500 H 141.758 3.66532 -0.0704683 0
M  V30 1501 H 141.406 4.49191 2.26355 0
M  V30 1502 H 141.106 5.77812 1.06803 0
M  V30 1503 H 142.63 5.76902 2.00041 0
M  V30 1504 H 144.044 5.72661 -0.270631 0
M  V30 1505 H 142.441 5.91015 -1.04023 0
M  V30 1506 H 143.511 4.59326 -1.55395 0
M  V30 1507 N 144.854 0.36279 1.53368 0
M  V30 1508 C 145.817 -0.472679 2.24273 0
M  V30 1509 C 146.817 -1.012 1.24961 0
M  V30 1510 O 148.007 -0.898194 1.49259 0
M  V30 1511 C 145.139 -1.66039 2.97731 0
M  V30 1512 H 146.332 0.14773 2.99536 0
M  V30 1513 H 143.885 0.114434 1.55881 0
M  V30 1514 H 144.62 -2.31896 2.26704 0
M  V30 1515 H 144.405 -1.28066 3.70596 0
M  V30 1516 H 145.895 -2.25252 3.51641 0
M  V30 1517 N 146.332 -1.57332 0.0918853 0
M  V30 1518 C 147.578 -1.94524 -0.573425 0
M  V30 1519 C 147.911 -0.973578 -1.68033 0
M  V30 1520 O 147.186 -0.00609226 -1.94499 0
M  V30 1521 C 147.469 -3.41858 -1.13161 0
M  V30 1522 C 147.322 -4.4979 -0.0299747 0
M  V30 1523 C 148.641 -3.90435 -2.03098 0
M  V30 1524 H 145.76 -0.70734 -0.206975 0
M  V30 1525 H 148.402 -1.89309 0.161942 0
M  V30 1526 H 146.552 -3.46433 -1.7583 0
M  V30 1527 H 148.224 -4.57327 0.604112 0
M  V30 1528 H 146.467 -4.291 0.636833 0
M  V30 1529 H 147.138 -5.50069 -0.461287 0
M  V30 1530 H 149.614 -3.87992 -1.50338 0
M  V30 1531 H 148.49 -4.94097 -2.39081 0
M  V30 1532 H 148.751 -3.29541 -2.94712 0
M  V30 1533 N 147.81 0.181792 -1.56548 0
M  V30 1534 C 149.058 0.89832 -1.81038 0
M  V30 1535 C 149.379 1.83232 -0.667164 0
M  V30 1536 O 148.649 1.93372 0.313673 0
M  V30 1537 H 147.229 0.33471 -0.667816 0
M  V30 1538 H 149.891 0.184116 -1.94028 0
M  V30 1539 H 148.987 1.4815 -2.74696 0
M  V30 1540 N 149.288 1.51039 0.449983 0
M  V30 1541 C 150.218 1.74379 1.55288 0
M  V30 1542 C 151.199 0.593236 1.5942 0
M  V30 1543 O 152.384 0.834625 1.7535 0
M  V30 1544 C 149.514 1.85728 2.93466 0
M  V30 1545 C 148.468 3.01078 3.04197 0
M  V30 1546 C 147.794 2.97595 4.44231 0
M  V30 1547 C 149.094 4.41254 2.7945 0
M  V30 1548 H 150.788 2.66725 1.36008 0
M  V30 1549 H 148.334 1.2835 0.652864 0
M  V30 1550 H 150.287 2.0064 3.70569 0
M  V30 1551 H 149.011 0.900207 3.13949 0
M  V30 1552 H 147.67 2.85851 2.29531 0
M  V30 1553 H 147.318 1.99691 4.61663 0
M  V30 1554 H 147.018 3.75046 4.52343 0
M  V30 1555 H 148.542 3.14583 5.23326 0
M  V30 1556 H 149.956 4.56897 3.46292 0
M  V30 1557 H 148.353 5.20315 2.98985 0
M  V30 1558 H 149.423 4.52164 1.75144 0
M  V30 1559 N 150.766 -0.704594 1.40972 0
M  V30 1560 C 152.014 -1.46169 1.39568 0
M  V30 1561 C 152.335 -1.95 0.00253745 0
M  V30 1562 O 151.605 -1.71095 -0.954114 0
M  V30 1563 H 150.185 -0.542326 0.513704 0
M  V30 1564 H 152.847 -0.834553 1.76128 0
M  V30 1565 H 151.943 -2.32922 2.07735 0
M  V30 1566 N 152.244 -1.26651 -0.937939 0
M  V30 1567 C 153.174 -1.10993 -2.05433 0
M  V30 1568 C 154.155 -0.0142161 -1.70094 0
M  V30 1569 O 155.34 -0.186837 -1.93299 0
M  V30 1570 C 152.47 -0.745561 -3.39203 0
M  V30 1571 C 151.424 -1.79337 -3.88616 0
M  V30 1572 C 150.75 -1.28324 -5.19073 0
M  V30 1573 C 152.05 -3.19553 -4.13138 0
M  V30 1574 H 153.744 -2.0438 -2.1879 0
M  V30 1575 H 151.29 -0.984041 -1.05131 0
M  V30 1576 H 153.243 -0.622888 -4.16771 0
M  V30 1577 H 151.967 0.22401 -3.25831 0
M  V30 1578 H 150.626 -1.90477 -3.13231 0
M  V30 1579 H 150.274 -0.303414 -5.02084 0
M  V30 1580 H 149.974 -1.98369 -5.53103 0
M  V30 1581 H 151.498 -1.1733 -5.99221 0
M  V30 1582 H 152.912 -3.11471 -4.81309 0
M  V30 1583 H 151.309 -3.87218 -4.58457 0
M  V30 1584 H 152.379 -3.65368 -3.18801 0
M  V30 1585 N 153.722 1.14298 -1.08507 0
M  V30 1586 C 154.97 1.84993 -0.813763 0
M  V30 1587 C 155.291 1.83405 0.662393 0
M  V30 1588 O 154.561 1.28319 1.48024 0
M  V30 1589 H 153.141 0.684966 -0.298045 0
M  V30 1590 H 155.803 1.385 -1.37126 0
M  V30 1591 H 154.899 2.89788 -1.15884 0
M  V30 1592 N 155.201 0.870884 1.31352 0
M  V30 1593 C 156.447 0.482987 1.96965 0
M  V30 1594 C 156.78 -0.962462 1.68672 0
M  V30 1595 O 156.055 -1.6779 0.98371 0
M  V30 1596 C 156.338 0.741752 3.52378 0
M  V30 1597 C 156.191 2.2368 3.9024 0
M  V30 1598 C 157.51 0.208838 4.39604 0
M  V30 1599 H 154.629 0.176955 0.715441 0
M  V30 1600 H 157.271 1.09229 1.55464 0
M  V30 1601 H 155.421 0.223149 3.87859 0
M  V30 1602 H 157.093 2.82273 3.64856 0
M  V30 1603 H 155.336 2.70901 3.38814 0
M  V30 1604 H 156.007 2.3685 4.98604 0
M  V30 1605 H 158.483 0.652529 4.10952 0
M  V30 1606 H 157.359 0.419336 5.47296 0
M  V30 1607 H 157.62 -0.889275 4.33064 0
M  V30 1608 N 156.679 -1.44442 0.630414 0
M  V30 1609 C 157.609 -2.33418 -0.0618083 0
M  V30 1610 C 158.59 -1.48165 -0.835541 0
M  V30 1611 O 159.775 -1.76886 -0.801564 0
M  V30 1612 C 156.905 -3.31222 -1.04449 0
M  V30 1613 C 155.859 -4.26288 -0.382436 0
M  V30 1614 C 155.185 -5.13954 -1.47497 0
M  V30 1615 C 156.485 -5.1744 0.710865 0
M  V30 1616 H 158.179 -2.91548 0.681184 0
M  V30 1617 H 155.725 -1.40191 0.329026 0
M  V30 1618 H 157.678 -3.92351 -1.53748 0
M  V30 1619 H 156.402 -2.71299 -1.81836 0
M  V30 1620 H 155.061 -3.6649 0.0899054 0
M  V30 1621 H 154.709 -4.50385 -2.2397 0
M  V30 1622 H 154.409 -5.7837 -1.03737 0
M  V30 1623 H 155.933 -5.77955 -1.96979 0
M  V30 1624 H 157.347 -5.72509 0.300996 0
M  V30 1625 H 155.744 -5.90455 1.07156 0
M  V30 1626 H 156.814 -4.58496 1.57829 0
M  V30 1627 N 158.157 -0.370918 -1.53173 0
M  V30 1628 C 159.12 0.460778 -2.24521 0
M  V30 1629 C 160.12 1.00536 -1.25496 0
M  V30 1630 O 161.31 0.890266 -1.49733 0
M  V30 1631 C 158.442 1.64457 -2.98608 0
M  V30 1632 H 159.635 -0.163613 -2.99453 0
M  V30 1633 H 157.188 -0.122699 -1.55818 0
M  V30 1634 H 157.923 2.30691 -2.2793 0
M  V30 1635 H 157.708 1.26099 -3.7127 0
M  V30 1636 H 159.198 2.23384 -3.5283 0
M  V30 1637 N 159.635 1.57281 -0.100228 0
M  V30 1638 C 160.545 2.17833 0.870965 0
M  V30 1639 C 161.561 1.14921 1.30649 0
M  V30 1640 O 162.737 1.47313 1.37335 0
M  V30 1641 C 159.802 2.75085 2.1102 0
M  V30 1642 C 158.863 3.9297 1.72838 0
M  V30 1643 C 158.096 4.47482 2.90854 0
M  V30 1644 O 158.319 4.00922 4.05731 0
M  V30 1645 O 157.253 5.38433 2.69023 0
M  V30 1646 H 161.079 3.0124 0.38575 0
M  V30 1647 H 158.664 1.48881 0.124397 0
M  V30 1648 H 160.546 3.11656 2.83634 0
M  V30 1649 H 159.221 1.94721 2.58584 0
M  V30 1650 H 158.128 3.61201 0.973883 0
M  V30 1651 H 159.461 4.74713 1.30033 0
M  V30 1652 N 161.113 -0.173488 1.56642 0
M  V30 1653 C 162.046 -1.24353 1.91342 0
M  V30 1654 C 163.024 -1.4289 0.775965 0
M  V30 1655 O 164.208 -1.57932 1.02907 0
M  V30 1656 C 161.335 -2.60683 2.16245 0
M  V30 1657 C 160.381 -2.58894 3.38934 0
M  V30 1658 S 161.214 -2.0819 4.93373 0
M  V30 1659 C 162.37 -3.46302 5.21369 0
M  V30 1660 H 162.603 -0.947345 2.81803 0
M  V30 1661 H 160.136 -0.377958 1.49703 0
M  V30 1662 H 162.094 -3.39149 2.31275 0
M  V30 1663 H 160.755 -2.87502 1.26496 0
M  V30 1664 H 159.948 -3.59188 3.53553 0
M  V30 1665 H 159.55 -1.88522 3.2301 0
M  V30 1666 H 161.842 -4.42287 5.13214 0
M  V30 1667 H 162.785 -3.3656 6.23003 0
M  V30 1668 H 163.193 -3.42214 4.48943 0
M  V30 1669 N 162.591 -1.51276 -0.441967 0
M  V30 1670 C 163.554 -1.7167 -1.51862 0
M  V30 1671 C 164.554 -0.586793 -1.49711 0
M  V30 1672 O 165.744 -0.854276 -1.51815 0
M  V30 1673 C 162.876 -1.76889 -2.91416 0
M  V30 1674 H 164.069 -2.67754 -1.35084 0
M  V30 1675 H 161.622 -1.41196 -0.670333 0
M  V30 1676 H 162.357 -0.826026 -3.13604 0
M  V30 1677 H 162.142 -2.59001 -2.94382 0
M  V30 1678 H 163.632 -1.94522 -3.69528 0
M  V30 1679 N 164.069 0.697108 -1.41344 0
M  V30 1680 C 165.016 1.81106 -1.43071 0
M  V30 1681 C 165.986 1.63632 -0.285275 0
M  V30 1682 O 167.171 1.84504 -0.486091 0
M  V30 1683 C 164.311 3.18975 -1.31715 0
M  V30 1684 C 163.424 3.47892 -2.56115 0
M  V30 1685 C 162.559 4.75367 -2.37064 0
M  V30 1686 C 161.598 4.97247 -3.56948 0
M  V30 1687 N 160.735 6.15947 -3.36977 0
M  V30 1688 H 165.575 1.78965 -2.38276 0
M  V30 1689 H 163.112 0.873975 -1.18322 0
M  V30 1690 H 165.07 3.98615 -1.23133 0
M  V30 1691 H 163.7 3.20297 -0.401183 0
M  V30 1692 H 162.752 2.62669 -2.75153 0
M  V30 1693 H 164.064 3.59962 -3.45295 0
M  V30 1694 H 163.218 5.63059 -2.25941 0
M  V30 1695 H 161.957 4.65541 -1.45338 0
M  V30 1696 H 160.962 4.08004 -3.68527 0
M  V30 1697 H 162.187 5.08934 -4.49626 0
M  V30 1698 H 160.133 6.07336 -2.47949 0
M  V30 1699 H 160.05 6.28777 -4.19732 0
M  V30 1700 H 161.318 7.06377 -3.29623 0
M  V30 1701 N 165.547 1.27147 0.931209 0
M  V30 1702 C 166.494 1.09568 2.03134 0
M  V30 1703 C 167.464 -0.00222433 1.661 0
M  V30 1704 O 168.649 0.159439 1.90133 0
M  V30 1705 C 165.789 0.745231 3.36957 0
M  V30 1706 C 164.902 1.92041 3.86968 0
M  V30 1707 C 164.037 1.51216 5.09222 0
M  V30 1708 C 163.076 2.65504 5.5152 0
M  V30 1709 N 162.213 2.25291 6.64972 0
M  V30 1710 H 167.053 2.03708 2.17502 0
M  V30 1711 H 164.59 1.01411 1.06556 0
M  V30 1712 H 166.548 0.522878 4.1391 0
M  V30 1713 H 165.178 -0.159202 3.22407 0
M  V30 1714 H 164.23 2.25541 3.06326 0
M  V30 1715 H 165.542 2.77787 4.1429 0
M  V30 1716 H 164.696 1.25084 5.93666 0
M  V30 1717 H 163.435 0.625749 4.83669 0
M  V30 1718 H 162.44 2.92354 4.65628 0
M  V30 1719 H 163.665 3.54761 5.7907 0
M  V30 1720 H 161.611 1.39098 6.41083 0
M  V30 1721 H 161.528 3.04577 6.91931 0
M  V30 1722 H 162.796 2.02398 7.52765 0
M  V30 1723 N 167.025 -1.13721 1.09112 0
M  V30 1724 C 168.25 -1.89314 0.847053 0
M  V30 1725 C 168.675 -1.78416 -0.595774 0
M  V30 1726 O 168.033 -1.12942 -1.41823 0
M  V30 1727 C 168.081 -3.3701 1.28284 0
M  V30 1728 O 167.185 -4.10054 0.439267 0
M  V30 1729 H 166.526 -0.588745 0.307044 0
M  V30 1730 H 169.056 -1.43902 1.45442 0
M  V30 1731 H 169.066 -3.87834 1.26683 0
M  V30 1732 H 167.741 -3.4426 2.33363 0
M  V30 1733 H 166.318 -3.69266 0.519312 0
M  V30 1734 N 168.503 -0.877838 -1.30888 0
M  V30 1735 C 169.436 -0.283995 -2.26426 0
M  V30 1736 C 170.414 0.591361 -1.51465 0
M  V30 1737 O 171.598 0.54304 -1.80509 0
M  V30 1738 C 168.725 0.597129 -3.33395 0
M  V30 1739 C 167.771 -0.207937 -4.25993 0
M  V30 1740 S 168.604 -1.59158 -5.11301 0
M  V30 1741 C 169.76 -0.716791 -6.21782 0
M  V30 1742 H 169.993 -1.09383 -2.76446 0
M  V30 1743 H 167.526 -0.676828 -1.38775 0
M  V30 1744 H 169.484 1.09978 -3.95493 0
M  V30 1745 H 168.145 1.38099 -2.82113 0
M  V30 1746 H 167.338 0.464163 -5.01858 0
M  V30 1747 H 166.94 -0.642963 -3.68432 0
M  V30 1748 H 169.232 0.0692833 -6.77465 0
M  V30 1749 H 170.175 -1.44682 -6.93161 0
M  V30 1750 H 170.583 -0.280855 -5.63801 0
M  V30 1751 N 169.982 1.44106 -0.638065 0
M  V30 1752 C 171.393 1.85316 -0.226894 0
M  V30 1753 C 171.744 1.53399 1.22324 0
M  V30 1754 O 170.869 0.975463 1.93167 0
M  V30 1755 C 171.464 3.3637 -0.405013 0
M  V30 1756 C 170.023 3.76369 -0.0482902 0
M  V30 1757 C 169.17 2.67921 -0.715108 0
M  V30 1758 H 172.121 1.34474 -0.842764 0
M  V30 1759 H 172.142 3.7885 0.354 0
M  V30 1760 H 171.654 3.59569 -1.46053 0
M  V30 1761 H 169.755 3.58784 1.00522 0
M  V30 1762 H 169.868 4.76856 -0.463187 0
M  V30 1763 H 168.232 2.54259 -0.149753 0
M  V30 1764 H 169.015 2.93951 -1.77335 0
M  V30 1765 N 171.46 0.379036 1.52974 0
M  V30 1766 C 172.708 -0.206014 2.01047 0
M  V30 1767 C 173.029 -1.48175 1.26765 0
M  V30 1768 O 172.299 -1.92085 0.384743 0
M  V30 1769 H 170.879 -0.0791184 0.742798 0
M  V30 1770 H 173.541 0.508366 1.88153 0
M  V30 1771 H 172.637 -0.423501 3.09213 0
M  V30 1772 N 172.938 -1.57226 0.108567 0
M  V30 1773 C 174.186 -1.94448 -0.550853 0
M  V30 1774 C 174.507 -0.992074 -1.67878 0
M  V30 1775 O 173.777 -0.0465 -1.95845 0
M  V30 1776 H 172.357 -0.717897 -0.206479 0
M  V30 1777 H 175.019 -1.94112 0.175062 0
M  V30 1778 H 174.115 -2.97218 -0.952259 0
M  V30 1779 N 174.416 0.165178 -1.56732 0
M  V30 1780 C 175.832 0.517174 -1.50988 0
M  V30 1781 C 176.032 1.84331 -0.813894 0
M  V30 1782 O 175.088 2.49672 -0.37682 0
M  V30 1783 C 176.401 0.544261 -2.95733 0
M  V30 1784 C 177.949 0.631039 -3.06573 0
M  V30 1785 C 178.424 0.68896 -4.52788 0
M  V30 1786 N 179.915 0.751683 -4.5706 0
M  V30 1787 C 180.65 0.817177 -5.67547 0
M  V30 1788 N 180.146 0.843129 -6.8765 0
M  V30 1789 N 181.939 0.856668 -5.55534 0
M  V30 1790 H 174.09 -0.704318 -2.00382 0
M  V30 1791 H 176.353 -0.254687 -0.913148 0
M  V30 1792 H 176.059 -0.361607 -3.49836 0
M  V30 1793 H 175.933 1.3886 -3.5071 0
M  V30 1794 H 178.32 1.52733 -2.52501 0
M  V30 1795 H 178.401 -0.240095 -2.54671 0
M  V30 1796 H 178.045 -0.2031 -5.07494 0
M  V30 1797 H 177.975 1.57633 -5.02454 0
M  V30 1798 H 180.466 0.739661 -3.70591 0
M  V30 1799 H 180.779 0.894448 -7.67606 0
M  V30 1800 H 179.124 0.811304 -6.90248 0
M  V30 1801 H 182.315 0.833437 -4.60621 0
M  V30 1802 H 182.488 0.904247 -6.4166 0
M  V30 1803 N 175.894 1.51508 0.433938 0
M  V30 1804 C 176.824 1.76016 1.53429 0
M  V30 1805 C 177.805 0.610112 1.58782 0
M  V30 1806 O 178.99 0.853177 1.74455 0
M  V30 1807 C 176.12 1.88831 2.9148 0
M  V30 1808 C 175.074 3.04288 3.00987 0
M  V30 1809 C 174.4 3.0229 4.4105 0
M  V30 1810 C 175.7 4.44193 2.74754 0
M  V30 1811 H 177.394 2.68152 1.33171 0
M  V30 1812 H 174.94 1.29035 0.639214 0
M  V30 1813 H 176.893 2.04559 3.6842 0
M  V30 1814 H 175.617 0.933455 3.12976 0
M  V30 1815 H 174.276 2.8827 2.26486 0
M  V30 1816 H 173.924 2.04576 4.59519 0
M  V30 1817 H 173.624 3.79822 4.4834 0
M  V30 1818 H 175.148 3.20116 5.1996 0
M  V30 1819 H 176.562 4.60544 3.41426 0
M  V30 1820 H 174.959 5.23457 2.9345 0
M  V30 1821 H 176.029 4.53996 1.70339 0
M  V30 1822 N 177.372 -0.689602 1.41712 0
M  V30 1823 C 178.304 -1.815 1.39966 0
M  V30 1824 C 179.317 -1.59995 0.300917 0
M  V30 1825 O 180.506 -1.69387 0.563039 0
M  V30 1826 C 177.606 -3.18364 1.16179 0
M  V30 1827 C 176.779 -3.66847 2.38206 0
M  V30 1828 C 175.838 -4.82398 2.10186 0
M  V30 1829 O 174.864 -4.93706 2.83272 0
M  V30 1830 N 176.066 -5.70064 1.0958 0
M  V30 1831 H 178.831 -1.83488 2.36965 0
M  V30 1832 H 176.392 -0.872149 1.36401 0
M  V30 1833 H 178.384 -3.93301 0.953756 0
M  V30 1834 H 176.954 -3.11365 0.27756 0
M  V30 1835 H 176.174 -2.82751 2.74673 0
M  V30 1836 H 177.462 -3.95978 3.19498 0
M  V30 1837 H 176.86 -5.63565 0.491019 0
M  V30 1838 H 175.417 -6.44874 0.947656 0
M  V30 1839 N 178.85 -1.27639 -0.924453 0
M  V30 1840 C 180.075 -1.17101 -1.71179 0
M  V30 1841 C 180.5 0.268134 -1.86179 0
M  V30 1842 O 179.858 1.19415 -1.36418 0
M  V30 1843 C 179.906 -1.86313 -3.08739 0
M  V30 1844 O 179.01 -1.16331 -3.95652 0
M  V30 1845 H 178.351 -0.407091 -0.524569 0
M  V30 1846 H 180.881 -1.68767 -1.15666 0
M  V30 1847 H 180.891 -1.938 -3.59034 0
M  V30 1848 H 179.566 -2.91001 -2.97138 0
M  V30 1849 H 178.143 -1.16935 -3.54091 0
M  V30 1850 N 180.328 1.1314 -1.09713 0
M  V30 1851 C 181.238 2.22242 -0.751367 0
M  V30 1852 C 182.254 1.72224 0.247938 0
M  V30 1853 O 183.43 2.01205 0.0885463 0
M  V30 1854 C 180.495 3.46231 -0.180274 0
M  V30 1855 C 179.556 4.11125 -1.2359 0
M  V30 1856 C 178.789 5.29195 -0.691966 0
M  V30 1857 O 179.012 5.68342 0.48414 0
M  V30 1858 O 177.946 5.84214 -1.44838 0
M  V30 1859 H 181.772 2.54197 -1.66186 0
M  V30 1860 H 179.357 1.21331 -0.871735 0
M  V30 1861 H 181.239 4.21185 0.134739 0
M  V30 1862 H 179.914 3.1597 0.703185 0
M  V30 1863 H 178.821 3.37985 -1.60366 0
M  V30 1864 H 180.154 4.45524 -2.09211 0
M  V30 1865 N 181.806 0.884767 1.30421 0
M  V30 1866 C 183.054 0.502112 1.95763 0
M  V30 1867 C 183.375 -0.951815 1.70192 0
M  V30 1868 O 182.645 -1.6692 1.0254 0
M  V30 1869 H 181.225 0.182694 0.724315 0
M  V30 1870 H 183.887 1.1278 1.58955 0
M  V30 1871 H 182.983 0.672188 3.04775 0
M  V30 1872 N 183.284 -1.43765 0.645699 0
M  V30 1873 C 184.532 -2.01499 0.155731 0
M  V30 1874 C 184.853 -1.51151 -1.232 0
M  V30 1875 O 184.123 -0.721044 -1.82148 0
M  V30 1876 H 182.703 -0.745003 0.0545817 0
M  V30 1877 H 185.365 -1.76075 0.835677 0
M  V30 1878 H 184.461 -3.1181 0.134577 0
M  V30 1879 N 184.763 -0.387143 -1.52771 0
M  V30 1880 C 185.988 0.198407 -2.06449 0
M  V30 1881 C 186.413 1.39918 -1.25716 0
M  V30 1882 O 185.771 1.79099 -0.281657 0
M  V30 1883 C 185.819 0.548893 -3.56398 0
M  V30 1884 O 184.923 1.64315 -3.78252 0
M  V30 1885 H 184.264 0.0237731 -0.663574 0
M  V30 1886 H 186.794 -0.553989 -1.96957 0
M  V30 1887 H 186.804 0.813812 -3.99801 0
M  V30 1888 H 185.479 -0.329005 -4.14597 0
M  V30 1889 H 184.056 1.37211 -3.46738 0
M  V30 1890 N 186.241 1.57166 -0.116904 0
M  V30 1891 C 187.489 1.94737 0.540533 0
M  V30 1892 C 187.81 1.00096 1.67349 0
M  V30 1893 O 187.08 0.0568854 1.95817 0
M  V30 1894 H 185.66 0.718981 0.202669 0
M  V30 1895 H 188.322 1.94017 -0.185353 0
M  V30 1896 H 187.418 2.97719 0.936483 0
M  V30 1897 N 187.719 -0.156864 1.56817 0
M  V30 1898 C 188.649 -1.19589 2.00551 0
M  V30 1899 C 189.63 -1.4536 0.883426 0
M  V30 1900 O 190.815 -1.56449 1.15054 0
M  V30 1901 C 187.945 -2.53143 2.37773 0
M  V30 1902 C 186.899 -2.41913 3.53075 0
M  V30 1903 C 186.225 -3.80088 3.76081 0
M  V30 1904 C 187.525 -1.91157 4.86062 0
M  V30 1905 H 189.219 -0.832293 2.87599 0
M  V30 1906 H 186.765 -0.398918 1.38364 0
M  V30 1907 H 188.718 -3.26047 2.66967 0
M  V30 1908 H 187.442 -2.91319 1.4765 0
M  V30 1909 H 186.101 -1.71462 3.24031 0
M  V30 1910 H 185.749 -4.15683 2.83225 0
M  V30 1911 H 185.449 -3.73439 4.53671 0
M  V30 1912 H 186.973 -4.54556 4.0769 0
M  V30 1913 H 188.387 -2.53846 5.14038 0
M  V30 1914 H 186.784 -1.95422 5.67389 0
M  V30 1915 H 187.854 -0.866673 4.77092 0
M  V30 1916 N 189.197 -1.51736 -0.425897 0
M  V30 1917 C 190.474 -1.55519 -1.1863 0
M  V30 1918 C 190.854 -0.326219 -2.08564 0
M  V30 1919 O 190.202 0.688012 -2.17896 0
M  V30 1920 C 190.412 -2.87521 -1.9782 0
M  V30 1921 C 191.76 -3.39899 -2.54468 0
M  V30 1922 O 192.784 -2.89148 -2.08019 0
M  V30 1923 O 191.643 -4.2848 -3.39215 0
M  V30 1924 H 188.737 -0.625739 -0.540721 0
M  V30 1925 H 191.283 -1.64055 -0.434038 0
M  V30 1926 H 190.055 -3.68422 -1.31836 0
M  V30 1927 H 189.678 -2.822 -2.80088 0
M  V30 1928 N 190.675 0.682077 -1.42076 0
M  V30 1929 C 191.9 1.47558 -1.45744 0
M  V30 1930 C 192.325 1.87977 -0.0680981 0
M  V30 1931 O 191.683 1.55522 0.9318 0
M  V30 1932 C 191.731 2.70575 -2.38373 0
M  V30 1933 O 190.835 3.68573 -1.85007 0
M  V30 1934 H 190.176 0.443585 -0.494093 0
M  V30 1935 H 192.706 0.837238 -1.86686 0
M  V30 1936 H 192.716 3.18729 -2.54707 0
M  V30 1937 H 191.391 2.40495 -3.39315 0
M  V30 1938 H 189.968 3.2757 -1.78192 0
M  V30 1939 N 192.153 1.28127 0.917671 0
M  V30 1940 C 193.378 1.18007 1.70555 0
M  V30 1941 C 193.803 -0.258257 1.86319 0
M  V30 1942 O 193.161 -1.1869 1.37049 0
M  V30 1943 C 193.209 1.87948 3.07746 0
M  V30 1944 O 192.313 1.18427 3.9503 0
M  V30 1945 H 191.654 0.409867 0.522403 0
M  V30 1946 H 194.184 1.69379 1.1477 0
M  V30 1947 H 194.194 1.95701 3.58001 0
M  V30 1948 H 192.869 2.92573 2.95591 0
M  V30 1949 H 191.446 1.18811 3.53466 0
M  V30 1950 N 193.631 -1.12557 1.10312 0
M  V30 1951 C 195.042 -1.65574 0.862678 0
M  V30 1952 C 195.393 -1.86566 -0.607256 0
M  V30 1953 O 194.518 -1.59121 -1.46662 0
M  V30 1954 C 195.113 -3.00776 1.55947 0
M  V30 1955 C 193.672 -3.50748 1.36576 0
M  V30 1956 C 192.819 -2.25797 1.60968 0
M  V30 1957 H 195.77 -0.963552 1.26101 0
M  V30 1958 H 195.791 -3.67185 0.997753 0
M  V30 1959 H 195.303 -2.85465 2.62928 0
M  V30 1960 H 193.404 -3.71245 0.317531 0
M  V30 1961 H 193.517 -4.30289 2.10686 0
M  V30 1962 H 191.881 -2.32841 1.03234 0
M  V30 1963 H 192.664 -2.13043 2.69198 0
M  V30 1964 N 195.109 -0.891671 -1.2995 0
M  V30 1965 C 196.356 -0.513501 -1.95881 0
M  V30 1966 C 196.684 0.938655 -1.70351 0
M  V30 1967 O 195.939 1.67936 -1.00478 0
M  V30 1968 C 196.238 -0.742868 -3.49594 0
M  V30 1969 C 195.904 -2.17114 -3.95186 0
M  V30 1970 C 194.566 -2.56169 -4.07346 0
M  V30 1971 C 196.918 -3.10162 -4.18866 0
M  V30 1972 C 194.246 -3.87469 -4.4055 0
M  V30 1973 C 196.598 -4.41001 -4.53542 0
M  V30 1974 C 195.262 -4.79941 -4.63911 0
M  V30 1975 H 194.532 -0.187903 -0.71678 0
M  V30 1976 H 197.179 -1.1288 -1.54694 0
M  V30 1977 H 195.484 -0.044586 -3.91775 0
M  V30 1978 H 197.181 -0.429767 -3.9869 0
M  V30 1979 H 193.771 -1.85801 -3.86233 0
M  V30 1980 H 197.955 -2.81206 -4.08946 0
M  V30 1981 H 193.211 -4.17371 -4.46779 0
M  V30 1982 H 197.385 -5.13133 -4.70815 0
M  V30 1983 H 195.012 -5.81719 -4.89395 0
M  V30 1984 N 196.587 1.43421 -0.653314 0
M  V30 1985 C 197.517 2.33487 0.0246656 0
M  V30 1986 C 198.498 1.49475 0.811863 0
M  V30 1987 O 199.683 1.78139 0.773322 0
M  V30 1988 C 196.813 3.32841 0.99166 0
M  V30 1989 C 195.767 4.26842 0.314568 0
M  V30 1990 C 195.093 5.16236 1.39302 0
M  V30 1991 C 196.393 5.16243 -0.793095 0
M  V30 1992 H 198.087 2.90427 -0.727481 0
M  V30 1993 H 195.633 1.39649 -0.351287 0
M  V30 1994 H 197.586 3.94747 1.47487 0
M  V30 1995 H 196.31 2.74158 1.77497 0
M  V30 1996 H 194.969 3.663 -0.148199 0
M  V30 1997 H 194.617 4.53891 2.16776 0
M  V30 1998 H 194.317 5.79948 0.945223 0
M  V30 1999 H 195.841 5.81015 1.87759 0
M  V30 2000 H 197.255 5.71958 -0.392039 0
M  V30 2001 H 195.652 5.88676 -1.16536 0
M  V30 2002 H 196.722 4.55927 -1.65103 0
M  V30 2003 N 198.065 0.39524 1.52563 0
M  V30 2004 C 199.29 -0.187456 2.06551 0
M  V30 2005 C 199.715 -1.39249 1.26457 0
M  V30 2006 O 199.073 -1.78947 0.291151 0
M  V30 2007 C 199.121 -0.529985 3.56684 0
M  V30 2008 O 198.225 -1.62307 3.79118 0
M  V30 2009 H 197.566 -0.0202537 0.663691 0
M  V30 2010 H 200.096 0.564426 1.96661 0
M  V30 2011 H 200.106 -0.792598 4.00227 0
M  V30 2012 H 198.781 0.350987 4.14416 0
M  V30 2013 H 197.358 -1.3537 3.47461 0
M  V30 2014 N 199.544 -1.57102 0.125237 0
M  V30 2015 C 200.454 -2.19191 -0.8362 0
M  V30 2016 C 201.47 -1.16985 -1.28805 0
M  V30 2017 O 202.646 -1.49479 -1.34974 0
M  V30 2018 C 199.711 -2.78407 -2.06617 0
M  V30 2019 C 198.772 -3.9567 -1.66565 0
M  V30 2020 C 198.005 -4.52052 -2.83698 0
M  V30 2021 O 198.228 -4.07326 -3.99302 0
M  V30 2022 O 197.162 -5.42645 -2.60423 0
M  V30 2023 H 200.988 -3.01816 -0.337776 0
M  V30 2024 H 198.573 -1.4906 -0.100695 0
M  V30 2025 H 200.455 -3.16129 -2.7864 0
M  V30 2026 H 199.13 -1.9881 -2.55453 0
M  V30 2027 H 198.037 -3.62705 -0.916296 0
M  V30 2028 H 199.37 -4.76722 -1.22464 0
M  V30 2029 N 201.022 0.148545 -1.56898 0
M  V30 2030 C 201.985 1.16736 -1.97244 0
M  V30 2031 C 202.985 1.35947 -0.858777 0
M  V30 2032 O 204.175 1.32966 -1.12542 0
M  V30 2033 C 201.307 2.52798 -2.28705 0
M  V30 2034 H 202.5 0.821279 -2.88435 0
M  V30 2035 H 200.053 0.391831 -1.51309 0
M  V30 2036 H 200.788 2.92381 -1.403 0
M  V30 2037 H 200.573 2.40216 -3.09901 0
M  V30 2038 H 202.063 3.26179 -2.60762 0
M  V30 2039 N 202.5 1.5196 0.417844 0
M  V30 2040 C 203.448 1.75278 1.52907 0
M  V30 2041 C 204.442 0.619611 1.57662 0
M  V30 2042 O 205.648 0.801457 1.61173 0
M  V30 2043 H 202.023 0.554141 0.508362 0
M  V30 2044 H 203.994 2.68389 1.30422 0
M  V30 2045 C 202.743 1.91262 2.90369 0
M  V30 2046 H 202.066 2.77872 2.8745 0
M  V30 2047 H 203.506 2.11581 3.67436 0
M  V30 2048 C 201.965 0.677431 3.30019 0
M  V30 2049 O 202.495 -0.158799 4.01386 0
M  V30 2050 N 200.701 0.515851 2.85985 0
M  V30 2051 H 200.248 1.19744 2.28077 0
M  V30 2052 H 200.206 -0.309315 3.12875 0
M  V30 2053 N 203.978 -0.674533 1.42435 0
M  V30 2054 C 204.941 -1.76986 1.45632 0
M  V30 2055 C 205.941 -1.5708 0.343871 0
M  V30 2056 O 207.131 -1.63367 0.604709 0
M  V30 2057 C 204.263 -3.15623 1.28822 0
M  V30 2058 H 205.456 -1.75539 2.43158 0
M  V30 2059 H 203.009 -0.884189 1.28887 0
M  V30 2060 H 203.744 -3.22696 0.322193 0
M  V30 2061 H 203.529 -3.31475 2.09444 0
M  V30 2062 H 205.019 -3.95537 1.33942 0
M  V30 2063 N 205.456 -1.28612 -0.910864 0
M  V30 2064 C 206.366 -1.14643 -2.0468 0
M  V30 2065 C 207.382 -0.0723121 -1.7385 0
M  V30 2066 O 208.558 -0.282178 -1.99413 0
M  V30 2067 C 205.623 -0.812561 -3.37044 0
M  V30 2068 C 204.684 -1.96935 -3.81465 0
M  V30 2069 C 203.917 -1.65131 -5.07511 0
M  V30 2070 O 204.14 -0.567013 -5.67575 0
M  V30 2071 O 203.074 -2.49585 -5.47714 0
M  V30 2072 H 206.9 -2.1001 -2.19384 0
M  V30 2073 H 204.485 -1.07958 -1.03274 0
M  V30 2074 H 206.367 -0.640441 -4.16505 0
M  V30 2075 H 205.042 0.111426 -3.23508 0
M  V30 2076 H 203.949 -2.19664 -3.02818 0
M  V30 2077 H 205.282 -2.87414 -3.99567 0
M  V30 2078 N 206.934 1.1197 -1.10907 0
M  V30 2079 C 208.35 1.35591 -0.841852 0
M  V30 2080 C 208.55 1.94233 0.536246 0
M  V30 2081 O 207.606 2.1717 1.28816 0
M  V30 2082 C 208.919 2.29284 -1.94549 0
M  V30 2083 C 210.467 2.42862 -1.97451 0
M  V30 2084 C 210.942 3.39873 -3.07002 0
M  V30 2085 N 212.433 3.47433 -3.06341 0
M  V30 2086 C 213.168 4.22421 -3.87748 0
M  V30 2087 N 212.664 5.00432 -4.79103 0
M  V30 2088 N 214.457 4.17876 -3.75946 0
M  V30 2089 H 206.608 0.722664 -1.99728 0
M  V30 2090 H 208.871 0.380635 -0.868229 0
M  V30 2091 H 208.577 1.93378 -2.93765 0
M  V30 2092 H 208.451 3.29452 -1.83688 0
M  V30 2093 H 210.838 2.78046 -0.988645 0
M  V30 2094 H 210.919 1.42566 -2.12388 0
M  V30 2095 H 210.563 3.05417 -4.05811 0
M  V30 2096 H 210.493 4.40011 -2.89306 0
M  V30 2097 H 212.984 2.91784 -2.40147 0
M  V30 2098 H 213.297 5.55002 -5.37766 0
M  V30 2099 H 211.642 4.99612 -4.83128 0
M  V30 2100 H 214.833 3.56016 -3.03924 0
M  V30 2101 H 215.006 4.76061 -4.39624 0
M  V30 2102 N 208.412 0.89855 1.29475 0
M  V30 2103 C 209.661 0.519863 1.94885 0
M  V30 2104 C 209.974 -0.9383 1.71625 0
M  V30 2105 O 211.18 -1.42445 2.31131 0
M  V30 2106 C 209.636 0.878836 3.49005 0
M  V30 2107 C 209.244 2.35569 3.81066 0
M  V30 2108 C 210.988 0.570004 4.20656 0
M  V30 2109 C 208.895 2.65558 5.28425 0
M  V30 2110 H 207.825 0.190692 0.729488 0
M  V30 2111 H 210.476 1.09539 1.47219 0
M  V30 2112 H 208.858 0.232253 3.95318 0
M  V30 2113 H 210.032 3.04773 3.45616 0
M  V30 2114 H 208.347 2.63343 3.22552 0
M  V30 2115 H 210.944 0.770925 5.29113 0
M  V30 2116 H 211.287 -0.491404 4.1339 0
M  V30 2117 H 211.82 1.17438 3.8007 0
M  V30 2118 H 208.559 3.70493 5.40754 0
M  V30 2119 H 208.079 2.00977 5.65127 0
M  V30 2120 H 209.758 2.51765 5.96006 0
M  V30 2121 N 209.89 -1.43072 0.660911 0
M  V30 2122 C 211.136 -2.0202 0.177708 0
M  V30 2123 C 211.469 -1.52066 -1.20787 0
M  V30 2124 O 210.744 -0.716987 -1.80802 0
M  V30 2125 C 211.027 -3.59561 0.197019 0
M  V30 2126 C 210.88 -4.19727 1.61706 0
M  V30 2127 C 212.199 -4.37664 -0.462396 0
M  V30 2128 H 209.318 -0.734034 0.0660494 0
M  V30 2129 H 211.96 -1.70272 0.843058 0
M  V30 2130 H 210.11 -3.86739 -0.369527 0
M  V30 2131 H 211.782 -4.03553 2.23479 0
M  V30 2132 H 210.025 -3.76084 2.16201 0
M  V30 2133 H 210.696 -5.28834 1.58237 0
M  V30 2134 H 213.172 -4.16095 0.0197215 0
M  V30 2135 H 212.048 -5.47305 -0.418188 0
M  V30 2136 H 212.309 -4.14493 -1.53778 0
M  V30 2137 N 211.368 -0.403325 -1.52352 0
M  V30 2138 C 212.3 0.4603 -2.2453 0
M  V30 2139 C 213.313 1.01505 -1.27282 0
M  V30 2140 O 214.502 0.914982 -1.53266 0
M  V30 2141 C 211.602 1.65208 -2.95905 0
M  V30 2142 C 210.775 1.22224 -4.19976 0
M  V30 2143 C 209.834 2.28028 -4.74226 0
M  V30 2144 O 208.86 1.88857 -5.36956 0
M  V30 2145 N 210.062 3.6012 -4.55295 0
M  V30 2146 H 212.827 -0.158156 -2.99282 0
M  V30 2147 H 210.388 -0.230402 -1.60252 0
M  V30 2148 H 212.38 2.35541 -3.29093 0
M  V30 2149 H 210.95 2.17658 -2.24374 0
M  V30 2150 H 210.17 0.34725 -3.92668 0
M  V30 2151 H 211.458 0.911924 -5.00561 0
M  V30 2152 H 210.856 3.94698 -4.05253 0
M  V30 2153 H 209.413 4.26447 -4.92936 0
M  V30 2154 N 212.846 1.57033 -0.133567 0
M  V30 2155 C 214.074 2.00044 0.528195 0
M  V30 2156 C 214.489 1.01349 1.59291 0
M  V30 2157 O 213.846 0.00848369 1.82498 0
M  V30 2158 C 213.897 3.43018 1.1411 0
M  V30 2159 O 213.618 4.37939 0.11892 0
M  V30 2160 C 215.119 4.01237 1.88477 0
M  V30 2161 H 212.339 0.656517 0.138661 0
M  V30 2162 H 214.883 2.03267 -0.224196 0
M  V30 2163 H 213.038 3.40688 1.84418 0
M  V30 2164 H 213.452 5.21436 0.56613 0
M  V30 2165 H 214.926 5.03314 2.26669 0
M  V30 2166 H 215.403 3.41193 2.76558 0
M  V30 2167 H 216.009 4.07156 1.22898 0
M  V30 2168 N 214.325 -0.140222 1.56975 0
M  V30 2169 C 215.255 -1.17456 2.01808 0
M  V30 2170 C 216.236 -1.44415 0.898794 0
M  V30 2171 O 217.421 -1.5522 1.16707 0
M  V30 2172 C 214.551 -2.50607 2.40444 0
M  V30 2173 C 213.505 -2.38155 3.55621 0
M  V30 2174 C 212.831 -3.76078 3.80091 0
M  V30 2175 C 214.131 -1.85991 4.88062 0
M  V30 2176 H 215.825 -0.801743 2.88466 0
M  V30 2177 H 213.371 -0.38422 1.38779 0
M  V30 2178 H 215.324 -3.23197 2.7041 0
M  V30 2179 H 214.048 -2.89737 1.50732 0
M  V30 2180 H 212.707 -1.68016 3.25832 0
M  V30 2181 H 212.355 -4.12656 2.87618 0
M  V30 2182 H 212.055 -3.68606 4.57606 0
M  V30 2183 H 213.579 -4.50206 4.12488 0
M  V30 2184 H 214.993 -2.4838 5.16701 0
M  V30 2185 H 213.39 -1.89393 5.6943 0
M  V30 2186 H 214.46 -0.816023 4.77984 0
M  V30 2187 N 215.803 -1.52179 -0.40978 0
M  V30 2188 C 217.043 -1.67882 -1.16597 0
M  V30 2189 C 217.407 -0.399795 -1.87791 0
M  V30 2190 O 218.608 -0.43292 -2.65291 0
M  V30 2191 C 216.879 -2.86662 -2.13448 0
M  V30 2192 S 218.438 -3.22843 -2.97183 0
M  V30 2193 H 215.256 -0.59118 -0.395002 0
M  V30 2194 H 217.858 -1.9017 -0.453373 0
M  V30 2195 H 216.562 -3.77998 -1.59831 0
M  V30 2196 H 216.093 -2.66645 -2.89247 0
M  V30 2197 H 218.108 -2.71415 -4.15389 0
M  V30 2198 N 217.281 0.66697 -1.42791 0
M  V30 2199 C 218.509 1.45505 -1.47091 0
M  V30 2200 C 218.924 1.8861 -0.0845873 0
M  V30 2201 O 218.281 1.58632 0.90234 0
M  V30 2202 C 218.332 2.69906 -2.40485 0
M  V30 2203 O 218.053 2.28608 -3.73725 0
M  V30 2204 C 219.554 3.63396 -2.53886 0
M  V30 2205 H 216.774 0.447459 -0.500022 0
M  V30 2206 H 219.318 0.818866 -1.8739 0
M  V30 2207 H 217.473 3.29696 -2.03419 0
M  V30 2208 H 217.887 3.08997 -4.23817 0
M  V30 2209 H 219.361 4.47387 -3.2334 0
M  V30 2210 H 219.838 4.09824 -1.57927 0
M  V30 2211 H 220.444 3.09495 -2.91706 0
M  V30 2212 N 218.759 1.29093 0.90403 0
M  V30 2213 C 220.005 1.16986 1.65656 0
M  V30 2214 C 220.338 -0.278925 1.92186 0
M  V30 2215 O 219.613 -1.2019 1.5292 0
M  V30 2216 C 219.896 1.97908 3.0084 0
M  V30 2217 C 219.749 3.50903 2.81403 0
M  V30 2218 C 221.068 1.80208 4.01513 0
M  V30 2219 H 218.187 0.426346 0.601164 0
M  V30 2220 H 220.829 1.58518 1.04747 0
M  V30 2221 H 218.979 1.62616 3.52829 0
M  V30 2222 H 220.651 3.96153 2.36348 0
M  V30 2223 H 218.894 3.76045 2.1627 0
M  V30 2224 H 219.565 4.02791 3.77443 0
M  V30 2225 H 222.041 2.11025 3.58619 0
M  V30 2226 H 220.917 2.39184 4.94047 0
M  V30 2227 H 221.178 0.756119 4.35586 0
M  V30 2228 N 220.237 -1.11381 1.11499 0
M  V30 2229 C 221.653 -1.35143 0.849031 0
M  V30 2230 C 221.853 -1.94515 -0.525938 0
M  V30 2231 O 220.909 -2.1785 -1.27662 0
M  V30 2232 C 222.222 -2.28249 1.95762 0
M  V30 2233 C 223.77 -2.41812 1.98736 0
M  V30 2234 C 224.245 -3.3824 3.088 0
M  V30 2235 N 225.736 -3.45803 3.08179 0
M  V30 2236 C 226.471 -4.20358 3.89982 0
M  V30 2237 N 225.967 -4.97884 4.8175 0
M  V30 2238 N 227.76 -4.15877 3.78157 0
M  V30 2239 H 219.911 -0.712062 2.00109 0
M  V30 2240 H 222.174 -0.376025 0.870235 0
M  V30 2241 H 221.88 -1.91817 2.94787 0
M  V30 2242 H 221.754 -3.28473 1.85433 0
M  V30 2243 H 224.141 -2.77518 1.00338 0
M  V30 2244 H 224.222 -1.41437 2.13141 0
M  V30 2245 H 223.866 -3.03261 4.07425 0
M  V30 2246 H 223.796 -4.38471 2.91635 0
M  V30 2247 H 226.287 -2.90506 2.41691 0
M  V30 2248 H 226.6 -5.52142 5.40702 0
M  V30 2249 H 224.945 -4.97043 4.85771 0
M  V30 2250 H 228.136 -3.544 3.05808 0
M  V30 2251 H 228.309 -4.73723 4.42143 0
M  V30 2252 N 221.715 -0.905404 -1.28997 0
M  V30 2253 C 222.963 -0.533192 -1.9494 0
M  V30 2254 C 223.284 0.924618 -1.71685 0
M  V30 2255 O 222.554 1.65268 -1.05183 0
M  V30 2256 H 221.134 -0.194194 -0.721317 0
M  V30 2257 H 223.796 -1.15294 -1.57141 0
M  V30 2258 H 222.892 -0.72059 -3.03667 0
M  V30 2259 N 223.193 1.4272 -0.668489 0
M  V30 2260 C 224.156 2.292 0.00448567 0
M  V30 2261 C 225.156 1.43001 0.735339 0
M  V30 2262 O 226.346 1.64461 0.57429 0
M  V30 2263 C 223.478 3.25375 1.01705 0
M  V30 2264 H 224.671 2.90199 -0.756608 0
M  V30 2265 H 222.224 1.50254 -0.430506 0
M  V30 2266 H 222.959 2.69301 1.80686 0
M  V30 2267 H 222.744 3.88944 0.496463 0
M  V30 2268 H 224.234 3.90245 1.48655 0
M  V30 2269 N 224.671 0.411399 1.52136 0
M  V30 2270 C 225.634 -0.401089 2.25663 0
M  V30 2271 C 226.634 -0.971732 1.28117 0
M  V30 2272 O 227.824 -0.850254 1.52041 0
M  V30 2273 C 224.956 -1.56483 3.02863 0
M  V30 2274 H 226.149 0.24295 2.98914 0
M  V30 2275 H 223.702 0.163968 1.55438 0
M  V30 2276 H 224.437 -2.24567 2.33967 0
M  V30 2277 H 224.222 -1.16211 3.74483 0
M  V30 2278 H 225.712 -2.13951 3.58629 0
M  V30 2279 N 226.149 -1.5696 0.141893 0
M  V30 2280 C 227.079 -2.19516 -0.795936 0
M  V30 2281 C 228.06 -1.14187 -1.26077 0
M  V30 2282 O 229.245 -1.42511 -1.31925 0
M  V30 2283 C 226.375 -2.81272 -2.03723 0
M  V30 2284 C 225.329 -3.92384 -1.70936 0
M  V30 2285 C 224.655 -4.41052 -3.02287 0
M  V30 2286 C 225.955 -5.13403 -0.959954 0
M  V30 2287 H 227.649 -2.98138 -0.274596 0
M  V30 2288 H 225.195 -1.43406 -0.130636 0
M  V30 2289 H 227.148 -3.237 -2.69808 0
M  V30 2290 H 225.872 -1.99973 -2.58221 0
M  V30 2291 H 224.531 -3.50566 -1.07232 0
M  V30 2292 H 224.179 -3.56582 -3.54765 0
M  V30 2293 H 223.879 -5.15993 -2.81114 0
M  V30 2294 H 225.403 -4.86146 -3.69451 0
M  V30 2295 H 226.817 -5.52706 -1.52279 0
M  V30 2296 H 225.214 -5.94073 -0.848357 0
M  V30 2297 H 226.284 -4.84875 0.0492434 0
M  V30 2298 N 227.627 0.131896 -1.57047 0
M  V30 2299 C 228.574 1.16236 -1.99393 0
M  V30 2300 C 229.544 1.41863 -0.863943 0
M  V30 2301 O 230.729 1.53946 -1.12718 0
M  V30 2302 C 227.869 2.48708 -2.39245 0
M  V30 2303 C 226.982 2.30127 -3.65603 0
M  V30 2304 C 226.117 3.55738 -3.94492 0
M  V30 2305 C 225.156 3.32259 -5.14073 0
M  V30 2306 N 224.293 4.50039 -5.38896 0
M  V30 2307 H 229.133 0.794251 -2.87221 0
M  V30 2308 H 226.67 0.380707 -1.42088 0
M  V30 2309 H 228.628 3.25969 -2.60384 0
M  V30 2310 H 227.258 2.83437 -1.54478 0
M  V30 2311 H 226.31 1.43845 -3.52154 0
M  V30 2312 H 227.622 2.08746 -4.5302 0
M  V30 2313 H 226.776 4.41423 -4.1621 0
M  V30 2314 H 225.515 3.80138 -3.05526 0
M  V30 2315 H 224.52 2.44963 -4.92212 0
M  V30 2316 H 225.745 3.09242 -6.04604 0
M  V30 2317 H 223.691 4.74584 -4.52886 0
M  V30 2318 H 223.608 4.31716 -6.2061 0
M  V30 2319 H 224.876 5.36895 -5.65123 0
M  V30 2320 N 229.106 1.52395 0.401703 0
M  V30 2321 C 230.352 1.67065 1.14966 0
M  V30 2322 C 230.685 0.403052 1.89971 0
M  V30 2323 O 229.96 -0.598774 1.85054 0
M  V30 2324 C 230.243 2.8975 2.13815 0
M  V30 2325 C 230.096 4.26578 1.42658 0
M  V30 2326 C 231.415 3.07965 3.14397 0
M  V30 2327 H 228.534 0.607968 0.416587 0
M  V30 2328 H 231.176 1.84965 0.434511 0
M  V30 2329 H 229.326 2.74619 2.74803 0
M  V30 2330 H 230.998 4.53451 0.847329 0
M  V30 2331 H 229.241 4.27639 0.72849 0
M  V30 2332 H 229.912 5.08483 2.14823 0
M  V30 2333 H 232.388 3.22043 2.63491 0
M  V30 2334 H 231.264 3.95308 3.80819 0
M  V30 2335 H 231.525 2.21611 3.82545 0
M  V30 2336 N 230.584 -0.659388 1.43143 0
M  V30 2337 C 231.832 -1.41654 1.44147 0
M  V30 2338 C 232.153 -1.94893 0.0645739 0
M  V30 2339 O 231.423 -1.74044 -0.899198 0
M  V30 2340 H 230.003 -0.525708 0.530697 0
M  V30 2341 H 232.665 -0.778097 1.78694 0
M  V30 2342 H 231.761 -2.26195 2.1504 0
M  V30 2343 N 232.062 -1.29571 -0.897171 0
M  V30 2344 C 232.994 -1.10724 -2.00681 0
M  V30 2345 C 234.007 -0.0540026 -1.6271 0
M  V30 2346 O 235.196 -0.298783 -1.75982 0
M  V30 2347 C 232.296 -0.663912 -3.32333 0
M  V30 2348 C 231.469 -1.79622 -3.98816 0
M  V30 2349 C 230.528 -1.34349 -5.0876 0
M  V30 2350 O 229.554 -2.04864 -5.31055 0
M  V30 2351 N 230.756 -0.215764 -5.80099 0
M  V30 2352 H 233.521 -2.06291 -2.17403 0
M  V30 2353 H 231.082 -1.21544 -1.06951 0
M  V30 2354 H 233.074 -0.344295 -4.03233 0
M  V30 2355 H 231.644 0.199375 -3.11964 0
M  V30 2356 H 230.864 -2.28459 -3.21248 0
M  V30 2357 H 232.152 -2.55535 -4.39976 0
M  V30 2358 H 231.55 0.372091 -5.64475 0
M  V30 2359 H 230.107 0.0444707 -6.51785 0
M  V30 2360 N 233.54 1.10788 -1.12088 0
M  V30 2361 C 234.473 2.16237 -0.729168 0
M  V30 2362 C 235.451 1.60207 0.277921 0
M  V30 2363 O 236.635 1.87707 0.172737 0
M  V30 2364 C 233.762 3.38609 -0.0786848 0
M  V30 2365 C 232.808 4.13322 -1.05201 0
M  V30 2366 S 233.641 4.69371 -2.57781 0
M  V30 2367 C 234.797 5.95058 -1.94053 0
M  V30 2368 H 235.03 2.4913 -1.62239 0
M  V30 2369 H 232.563 1.22519 -0.939603 0
M  V30 2370 H 234.521 4.09473 0.290254 0
M  V30 2371 H 233.182 3.03962 0.791593 0
M  V30 2372 H 232.375 5.01051 -0.544433 0
M  V30 2373 H 231.977 3.48251 -1.36371 0
M  V30 2374 H 234.269 6.65278 -1.28107 0
M  V30 2375 H 235.212 6.50472 -2.79807 0
M  V30 2376 H 235.62 5.46918 -1.39787 0
M  V30 2377 N 235.018 0.912232 1.28515 0
M  V30 2378 C 235.948 0.416403 2.29757 0
M  V30 2379 C 236.929 -0.515194 1.6211 0
M  V30 2380 O 238.114 -0.423253 1.89532 0
M  V30 2381 C 235.244 -0.34572 3.45575 0
M  V30 2382 C 234.198 0.496599 4.25109 0
M  V30 2383 C 233.524 -0.393771 5.33248 0
M  V30 2384 C 234.824 1.75307 4.92001 0
M  V30 2385 H 236.518 1.26249 2.7148 0
M  V30 2386 H 234.064 0.608515 1.30511 0
M  V30 2387 H 236.017 -0.703422 4.15488 0
M  V30 2388 H 234.741 -1.2257 3.02728 0
M  V30 2389 H 233.4 0.8368 3.56922 0
M  V30 2390 H 233.048 -1.27225 4.86644 0
M  V30 2391 H 232.748 0.166209 5.87365 0
M  V30 2392 H 234.272 -0.747389 6.06009 0
M  V30 2393 H 235.686 1.46437 5.54283 0
M  V30 2394 H 234.083 2.25534 5.56106 0
M  V30 2395 H 235.153 2.48176 4.16577 0
M  V30 2396 N 236.496 -1.42363 0.676048 0
M  V30 2397 C 237.721 -2.06377 0.205705 0
M  V30 2398 C 238.146 -1.50463 -1.12883 0
M  V30 2399 O 237.504 -0.623619 -1.70237 0
M  V30 2400 C 237.552 -3.60277 0.152655 0
M  V30 2401 O 236.656 -4.02935 -0.87845 0
M  V30 2402 H 235.997 -0.655588 0.105359 0
M  V30 2403 H 238.527 -1.82475 0.925412 0
M  V30 2404 H 238.537 -4.07993 -0.0230675 0
M  V30 2405 H 237.212 -4.00346 1.12675 0
M  V30 2406 H 235.789 -3.66764 -0.673668 0
M  V30 2407 N 237.974 -0.419461 -1.51915 0
M  V30 2408 C 239.223 0.154346 -2.01109 0
M  V30 2409 C 239.536 1.45338 -1.30905 0
M  V30 2410 O 240.742 2.10906 -1.7097 0
M  V30 2411 C 239.198 0.325615 -3.58424 0
M  V30 2412 C 238.806 -0.961934 -4.37551 0
M  V30 2413 C 240.55 0.854155 -4.15818 0
M  V30 2414 C 238.457 -0.757287 -5.86531 0
M  V30 2415 H 237.387 0.0614563 -0.751491 0
M  V30 2416 H 240.038 -0.54649 -1.75173 0
M  V30 2417 H 238.42 1.08903 -3.80731 0
M  V30 2418 H 239.594 -1.7323 -4.26999 0
M  V30 2419 H 237.909 -1.41766 -3.91524 0
M  V30 2420 H 240.506 1.02346 -5.24814 0
M  V30 2421 H 240.849 1.83172 -3.73837 0
M  V30 2422 H 241.382 0.149528 -3.97519 0
M  V30 2423 H 238.121 -1.70671 -6.32892 0
M  V30 2424 H 237.641 -0.0264061 -5.99794 0
M  V30 2425 H 239.32 -0.403482 -6.45741 0
M  V30 2426 N 239.452 1.56882 -0.150215 0
M  V30 2427 C 240.384 2.14057 0.819286 0
M  V30 2428 C 241.397 1.09082 1.20851 0
M  V30 2429 O 242.586 1.36347 1.15203 0
M  V30 2430 C 239.686 2.65102 2.11127 0
M  V30 2431 C 238.859 3.94511 1.88891 0
M  V30 2432 C 237.918 4.30834 3.02107 0
M  V30 2433 O 236.944 4.99099 2.73659 0
M  V30 2434 N 238.146 3.90676 4.29363 0
M  V30 2435 H 240.911 2.97871 0.330618 0
M  V30 2436 H 238.472 1.61866 0.0332538 0
M  V30 2437 H 240.464 2.86411 2.85921 0
M  V30 2438 H 239.034 1.85994 2.51247 0
M  V30 2439 H 238.254 3.81795 0.981152 0
M  V30 2440 H 239.542 4.7907 1.71376 0
M  V30 2441 H 238.94 3.35677 4.55343 0
M  V30 2442 H 237.497 4.1703 5.00928 0
M  V30 2443 N 240.93 -0.123565 1.57115 0
M  V30 2444 C 242.207 -0.862196 1.75572 0
M  V30 2445 C 242.587 -1.98279 0.724475 0
M  V30 2446 O 241.935 -2.27102 -0.252407 0
M  V30 2447 C 242.145 -1.38309 3.20424 0
M  V30 2448 C 243.493 -1.83724 3.82793 0
M  V30 2449 O 244.517 -1.47999 3.23998 0
M  V30 2450 O 243.376 -2.49685 4.86127 0
M  V30 2451 H 240.47 -0.409113 0.718718 0
M  V30 2452 H 243.016 -0.107661 1.69358 0
M  V30 2453 H 241.788 -0.578889 3.86994 0
M  V30 2454 H 241.411 -2.20046 3.31158 0
M  V30 2455 N 242.408 -1.52605 -0.393616 0
M  V30 2456 C 243.356 -1.77688 -1.50099 0
M  V30 2457 C 244.35 -0.644615 -1.56656 0
M  V30 2458 O 245.556 -0.826997 -1.59877 0
M  V30 2459 H 241.931 -0.562159 -0.499481 0
M  V30 2460 H 243.902 -2.7043 -1.26135 0
M  V30 2461 C 242.651 -1.95858 -2.87289 0
M  V30 2462 H 241.974 -2.8241 -2.82992 0
M  V30 2463 H 243.414 -2.174 -3.64024 0
M  V30 2464 C 241.873 -0.729848 -3.28899 0
M  V30 2465 O 242.403 0.0949217 -4.01588 0
M  V30 2466 N 240.609 -0.561283 -2.85128 0
M  V30 2467 H 240.156 -1.23357 -2.26143 0
M  V30 2468 H 240.114 0.2595 -3.13327 0
M  V30 2469 N 243.887 0.651787 -1.4349 0
M  V30 2470 C 245.112 1.44434 -1.48841 0
M  V30 2471 C 245.537 1.8779 -0.107955 0
M  V30 2472 O 244.895 1.57464 0.898602 0
M  V30 2473 C 244.943 2.65458 -2.44059 0
M  V30 2474 O 244.047 3.64566 -1.92784 0
M  V30 2475 H 243.388 0.433005 -0.503391 0
M  V30 2476 H 245.918 0.797451 -1.88419 0
M  V30 2477 H 245.928 3.13255 -2.6141 0
M  V30 2478 H 244.603 2.33244 -3.4434 0
M  V30 2479 H 243.18 3.23716 -1.851 0
M  V30 2480 N 245.365 1.30045 0.890287 0
M  V30 2481 C 246.612 1.18561 1.64163 0
M  V30 2482 C 246.94 -0.260852 1.92743 0
M  V30 2483 O 246.195 -1.20376 1.54299 0
M  V30 2484 C 246.494 1.95409 2.99249 0
M  V30 2485 C 246.16 3.45066 2.90242 0
M  V30 2486 C 244.822 3.85878 2.87492 0
M  V30 2487 C 247.174 4.4039 2.78758 0
M  V30 2488 C 244.502 5.20314 2.7109 0
M  V30 2489 C 246.854 5.74928 2.63894 0
M  V30 2490 C 245.518 6.14986 2.59516 0
M  V30 2491 H 244.788 0.433846 0.600715 0
M  V30 2492 H 247.435 1.61088 1.03552 0
M  V30 2493 H 245.74 1.45501 3.63781 0
M  V30 2494 H 247.437 1.8392 3.56334 0
M  V30 2495 H 244.027 3.12631 2.93189 0
M  V30 2496 H 248.211 4.09806 2.79952 0
M  V30 2497 H 243.467 5.50449 2.66112 0
M  V30 2498 H 247.641 6.48434 2.53981 0
M  V30 2499 H 245.268 7.19104 2.46565 0
M  V30 2500 N 246.843 -1.10192 1.12674 0
M  V30 2501 C 248.092 -1.81573 0.8783 0
M  V30 2502 C 248.405 -1.86249 -0.597557 0
M  V30 2503 O 249.611 -2.5386 -0.962681 0
M  V30 2504 C 248.067 -3.26149 1.52167 0
M  V30 2505 C 247.675 -3.29763 3.03249 0
M  V30 2506 C 249.419 -4.0234 1.3536 0
M  V30 2507 C 247.326 -4.68815 3.60508 0
M  V30 2508 H 246.256 -0.680394 0.324931 0
M  V30 2509 H 248.907 -1.23902 1.35353 0
M  V30 2510 H 247.289 -3.83832 0.974104 0
M  V30 2511 H 248.463 -2.8189 3.6452 0
M  V30 2512 H 246.778 -2.67059 3.19481 0
M  V30 2513 H 249.375 -5.05058 1.75559 0
M  V30 2514 H 249.718 -4.15235 0.297554 0
M  V30 2515 H 250.251 -3.51079 1.87052 0
M  V30 2516 H 246.99 -4.61121 4.65884 0
M  V30 2517 H 246.51 -5.17045 3.04014 0
M  V30 2518 H 248.189 -5.37785 3.59717 0
M  V30 2519 N 248.321 -0.919034 -1.28029 0
M  V30 2520 C 249.546 -0.570357 -1.99403 0
M  V30 2521 C 249.971 0.842486 -1.68178 0
M  V30 2522 O 249.329 1.56391 -0.917141 0
M  V30 2523 C 249.377 -0.792541 -3.51783 0
M  V30 2524 O 248.481 0.145988 -4.12142 0
M  V30 2525 H 247.822 -0.220555 -0.6263 0
M  V30 2526 H 250.352 -1.23592 -1.63053 0
M  V30 2527 H 250.362 -0.704708 -4.01868 0
M  V30 2528 H 249.037 -1.82247 -3.73844 0
M  V30 2529 H 247.614 0.00897528 -3.72899 0
M  V30 2530 N 249.799 1.42003 -0.683588 0
M  V30 2531 C 251.21 1.84501 -0.285736 0
M  V30 2532 C 251.561 1.57213 1.17382 0
M  V30 2533 O 250.686 1.03642 1.89966 0
M  V30 2534 C 251.281 3.34912 -0.511821 0
M  V30 2535 C 249.84 3.76025 -0.168005 0
M  V30 2536 C 248.987 2.6551 -0.799983 0
M  V30 2537 H 251.938 1.31724 -0.885119 0
M  V30 2538 H 251.959 3.79784 0.233292 0
M  V30 2539 H 251.471 3.54741 -1.57418 0
M  V30 2540 H 249.572 3.61801 0.890567 0
M  V30 2541 H 249.685 4.75141 -0.614661 0
M  V30 2542 H 248.049 2.53654 -0.230568 0
M  V30 2543 H 248.832 2.8816 -1.86597 0
M  V30 2544 N 251.277 0.427512 1.51691 0
M  V30 2545 C 252.209 -0.424521 2.25234 0
M  V30 2546 C 253.222 -0.994671 1.2888 0
M  V30 2547 O 254.411 -0.890483 1.54702 0
M  V30 2548 C 251.511 -1.60479 2.98496 0
M  V30 2549 C 250.684 -1.15527 4.21868 0
M  V30 2550 C 249.743 -2.20454 4.77793 0
M  V30 2551 O 248.769 -1.8029 5.39893 0
M  V30 2552 N 249.971 -3.52831 4.60967 0
M  V30 2553 H 252.736 0.205749 2.98993 0
M  V30 2554 H 250.297 0.255867 1.59865 0
M  V30 2555 H 252.289 -2.30276 3.32799 0
M  V30 2556 H 250.859 -2.14061 2.27809 0
M  V30 2557 H 250.079 -0.284736 3.9317 0
M  V30 2558 H 251.367 -0.832173 5.01949 0
M  V30 2559 H 250.765 -3.88201 4.11481 0
M  V30 2560 H 249.322 -4.18551 4.99658 0
M  V30 2561 N 252.755 -1.56801 0.158532 0
M  V30 2562 C 253.685 -2.20347 -0.772609 0
M  V30 2563 C 254.666 -1.15518 -1.24859 0
M  V30 2564 O 255.851 -1.43902 -1.30406 0
M  V30 2565 C 252.981 -2.83417 -2.00729 0
M  V30 2566 C 251.935 -3.94174 -1.66765 0
M  V30 2567 C 251.261 -4.44233 -2.97592 0
M  V30 2568 C 252.561 -5.14392 -0.905447 0
M  V30 2569 H 254.255 -2.98413 -0.242959 0
M  V30 2570 H 251.801 -1.43537 -0.115419 0
M  V30 2571 H 253.754 -3.26543 -2.6636 0
M  V30 2572 H 252.478 -2.02701 -2.56086 0
M  V30 2573 H 251.137 -3.51684 -1.03508 0
M  V30 2574 H 250.785 -3.60325 -3.50963 0
M  V30 2575 H 250.485 -5.18945 -2.75626 0
M  V30 2576 H 252.009 -4.90037 -3.64274 0
M  V30 2577 H 253.423 -5.5429 -1.46408 0
M  V30 2578 H 251.82 -5.9494 -0.7853 0
M  V30 2579 H 252.89 -4.84795 0.100668 0
M  V30 2580 N 254.233 0.115231 -1.57178 0
M  V30 2581 C 255.165 1.16694 -1.97269 0
M  V30 2582 C 256.178 1.37445 -0.872502 0
M  V30 2583 O 257.367 1.36454 -1.15077 0
M  V30 2584 C 254.467 2.52627 -2.25905 0
M  V30 2585 C 253.64 2.52427 -3.57211 0
M  V30 2586 C 252.699 3.70134 -3.74016 0
M  V30 2587 O 251.725 3.53546 -4.46087 0
M  V30 2588 N 252.927 4.88844 -3.13068 0
M  V30 2589 H 255.692 0.82588 -2.88096 0
M  V30 2590 H 253.253 0.304461 -1.59011 0
M  V30 2591 H 255.245 3.29937 -2.34359 0
M  V30 2592 H 253.815 2.789 -1.41186 0
M  V30 2593 H 253.035 1.60805 -3.5991 0
M  V30 2594 H 254.323 2.49353 -4.43509 0
M  V30 2595 H 253.721 5.05225 -2.54489 0
M  V30 2596 H 252.278 5.63817 -3.27037 0
M  V30 2597 N 255.711 1.52812 0.385517 0
M  V30 2598 C 256.661 1.74219 1.47078 0
M  V30 2599 C 257.645 0.59632 1.49442 0
M  V30 2600 O 258.837 0.85428 1.5502 0
M  V30 2601 C 255.966 1.9176 2.84751 0
M  V30 2602 C 255.052 3.12289 2.86943 0
M  V30 2603 N 255.443 4.34575 2.58802 0
M  V30 2604 C 253.741 3.12605 3.1811 0
M  V30 2605 C 254.442 5.162 2.68166 0
M  V30 2606 N 253.418 4.51964 3.02043 0
M  V30 2607 H 257.22 2.6639 1.24152 0
M  V30 2608 H 254.734 1.51166 0.593504 0
M  V30 2609 H 256.731 2.05218 3.62893 0
M  V30 2610 H 255.391 1.00805 3.08656 0
M  V30 2611 H 256.402 4.62649 2.32759 0
M  V30 2612 H 253.079 2.31472 3.47458 0
M  V30 2613 H 254.469 6.23689 2.49923 0
M  V30 2614 N 257.189 -0.644168 1.43834 0
M  V30 2615 C 258.438 -1.39985 1.45214 0
M  V30 2616 C 258.751 -1.95421 0.0835494 0
M  V30 2617 O 259.957 -2.71488 -0.0251748 0
M  V30 2618 C 258.413 -2.53384 2.55587 0
M  V30 2619 C 258.021 -2.04517 3.98594 0
M  V30 2620 C 259.765 -3.30685 2.66172 0
M  V30 2621 C 257.672 -3.1518 5.00416 0
M  V30 2622 H 256.602 -0.526005 0.540218 0
M  V30 2623 H 259.253 -0.694367 1.69855 0
M  V30 2624 H 257.635 -3.26446 2.24163 0
M  V30 2625 H 258.809 -1.38405 4.39523 0
M  V30 2626 H 257.124 -1.40068 3.92135 0
M  V30 2627 H 259.721 -4.13158 3.39418 0
M  V30 2628 H 260.064 -3.79312 1.71546 0
M  V30 2629 H 260.597 -2.64708 2.96942 0
M  V30 2630 H 257.336 -2.71511 5.96625 0
M  V30 2631 H 256.856 -3.79974 4.64091 0
M  V30 2632 H 258.535 -3.80166 5.23529 0
M  V30 2633 N 258.668 -1.30515 -0.883378 0
M  V30 2634 C 259.915 -1.1943 -1.63532 0
M  V30 2635 C 260.243 0.250627 -1.92878 0
M  V30 2636 O 259.498 1.19556 -1.54935 0
M  V30 2637 C 259.797 -1.96994 -2.98209 0
M  V30 2638 C 259.463 -3.466 -2.88408 0
M  V30 2639 C 258.125 -3.87397 -2.85442 0
M  V30 2640 C 260.477 -4.41863 -2.76418 0
M  V30 2641 C 257.805 -5.21745 -2.68327 0
M  V30 2642 C 260.157 -5.7632 -2.60841 0
M  V30 2643 C 258.821 -6.16354 -2.56251 0
M  V30 2644 H 258.091 -0.437025 -0.598406 0
M  V30 2645 H 260.738 -1.61635 -1.02696 0
M  V30 2646 H 259.043 -1.47429 -3.63004 0
M  V30 2647 H 260.74 -1.85808 -3.55354 0
M  V30 2648 H 257.33 -3.14182 -2.91527 0
M  V30 2649 H 261.514 -4.11285 -2.77775 0
M  V30 2650 H 256.77 -5.51853 -2.63189 0
M  V30 2651 H 260.944 -6.49772 -2.50538 0
M  V30 2652 H 258.571 -7.20401 -2.42748 0
M  V30 2653 N 260.146 1.09593 -1.13257 0
M  V30 2654 C 261.056 2.19739 -0.821691 0
M  V30 2655 C 262.072 1.72926 0.19302 0
M  V30 2656 O 263.248 2.01385 0.0244895 0
M  V30 2657 C 260.313 3.45482 -0.290333 0
M  V30 2658 C 259.374 4.06985 -1.36607 0
M  V30 2659 C 258.607 5.26726 -0.859975 0
M  V30 2660 O 258.83 5.69594 0.303082 0
M  V30 2661 O 257.764 5.7931 -1.63351 0
M  V30 2662 H 261.59 2.48781 -1.74189 0
M  V30 2663 H 259.175 1.18496 -0.909894 0
M  V30 2664 H 261.057 4.214 0.000674022 0
M  V30 2665 H 259.732 3.18047 0.602306 0
M  V30 2666 H 258.639 3.32712 -1.71037 0
M  V30 2667 H 259.972 4.38643 -2.23279 0
M  V30 2668 N 261.624 0.925811 1.2754 0
M  V30 2669 C 263.04 0.625767 1.46821 0
M  V30 2670 C 263.24 -0.825506 1.83814 0
M  V30 2671 O 262.296 -1.60356 1.95044 0
M  V30 2672 C 263.609 1.57402 2.56213 0
M  V30 2673 C 265.157 1.58204 2.70075 0
M  V30 2674 C 265.632 2.51721 3.82623 0
M  V30 2675 N 267.123 2.49917 3.89994 0
M  V30 2676 C 267.858 3.18968 4.76494 0
M  V30 2677 N 267.354 3.97391 5.67496 0
M  V30 2678 N 269.147 3.07996 4.70208 0
M  V30 2679 H 261.298 1.86409 1.01811 0
M  V30 2680 H 263.561 0.800213 0.508295 0
M  V30 2681 H 263.267 2.60925 2.35819 0
M  V30 2682 H 263.141 1.31428 3.53563 0
M  V30 2683 H 265.528 0.554124 2.89851 0
M  V30 2684 H 265.609 1.88226 1.73218 0
M  V30 2685 H 265.253 3.54622 3.63601 0
M  V30 2686 H 265.183 2.18996 4.78903 0
M  V30 2687 H 267.674 1.9296 3.24923 0
M  V30 2688 H 267.987 4.4707 6.30356 0
M  V30 2689 H 266.332 4.01495 5.67298 0
M  V30 2690 H 269.523 2.46223 3.9811 0
M  V30 2691 H 269.696 3.6208 5.37403 0
M  V30 2692 N 263.102 -1.41638 0.69111 0
M  V30 2693 C 264.348 -2.01598 0.220519 0
M  V30 2694 C 264.681 -1.54594 -1.17535 0
M  V30 2695 O 263.956 -0.755177 -1.79241 0
M  V30 2696 C 264.239 -3.59062 0.273243 0
M  V30 2697 C 264.092 -4.16203 1.70573 0
M  V30 2698 C 265.411 -4.38546 -0.369457 0
M  V30 2699 H 262.53 -0.732468 0.0816045 0
M  V30 2700 H 265.172 -1.68445 0.878986 0
M  V30 2701 H 263.322 -3.87435 -0.287411 0
M  V30 2702 H 264.994 -3.98722 2.31989 0
M  V30 2703 H 263.237 -3.71414 2.2413 0
M  V30 2704 H 263.908 -5.25358 1.69419 0
M  V30 2705 H 266.384 -4.1596 0.107977 0
M  V30 2706 H 265.26 -5.48069 -0.302002 0
M  V30 2707 H 265.521 -4.17662 -1.44951 0
M  V30 2708 N 264.58 -0.43555 -1.51462 0
M  V30 2709 C 265.996 -0.0877501 -1.59359 0
M  V30 2710 C 266.196 1.4027 -1.4466 0
M  V30 2711 O 265.252 2.17243 -1.28693 0
M  V30 2712 C 266.565 -0.606264 -2.94525 0
M  V30 2713 C 268.113 -0.566548 -3.0783 0
M  V30 2714 C 268.588 -1.06201 -4.45517 0
M  V30 2715 N 270.079 -1.01992 -4.51832 0
M  V30 2716 C 270.814 -1.37417 -5.5669 0
M  V30 2717 N 270.31 -1.80119 -6.68976 0
M  V30 2718 N 272.103 -1.29245 -5.47039 0
M  V30 2719 H 264.254 -1.40533 -1.59261 0
M  V30 2720 H 266.517 -0.578992 -0.750648 0
M  V30 2721 H 266.223 -1.64901 -3.10645 0
M  V30 2722 H 266.097 -0.0302097 -3.77188 0
M  V30 2723 H 268.484 0.467208 -2.91378 0
M  V30 2724 H 268.565 -1.17898 -2.2701 0
M  V30 2725 H 268.209 -2.09422 -4.62715 0
M  V30 2726 H 268.139 -0.426127 -5.24873 0
M  V30 2727 H 270.63 -0.706308 -3.71241 0
M  V30 2728 H 270.943 -2.05392 -7.45006 0
M  V30 2729 H 269.288 -1.84044 -6.70189 0
M  V30 2730 H 272.479 -0.957522 -4.58202 0
M  V30 2731 H 272.652 -1.57182 -6.28648 0
M  V30 2732 N 266.058 1.56714 -0.166846 0
M  V30 2733 C 266.99 2.14914 0.796537 0
M  V30 2734 C 268.003 1.10357 1.19688 0
M  V30 2735 O 269.192 1.37561 1.13751 0
M  V30 2736 C 266.292 2.67326 2.08303 0
M  V30 2737 C 265.465 3.96493 1.84696 0
M  V30 2738 C 264.524 4.34014 2.97521 0
M  V30 2739 O 263.55 5.01973 2.6835 0
M  V30 2740 N 264.752 3.95208 4.25196 0
M  V30 2741 H 267.517 2.98205 0.299006 0
M  V30 2742 H 265.078 1.61892 0.0160839 0
M  V30 2743 H 267.07 2.89428 2.82867 0
M  V30 2744 H 265.64 1.88649 2.4926 0
M  V30 2745 H 264.86 3.82814 0.940602 0
M  V30 2746 H 266.148 4.8086 1.66285 0
M  V30 2747 H 265.546 3.40487 4.51758 0
M  V30 2748 H 264.103 4.2232 4.96477 0
M  V30 2749 N 267.536 -0.106894 1.57237 0
M  V30 2750 C 268.761 -0.830287 1.90055 0
M  V30 2751 C 269.186 -1.72064 0.75998 0
M  V30 2752 O 268.544 -1.78982 -0.288991 0
M  V30 2753 C 268.592 -1.6295 3.21683 0
M  V30 2754 O 267.696 -2.73748 3.08441 0
M  V30 2755 H 267.037 -0.228855 0.623315 0
M  V30 2756 H 269.567 -0.085658 2.04421 0
M  V30 2757 H 269.577 -2.01621 3.54701 0
M  V30 2758 H 268.252 -0.975989 4.04286 0
M  V30 2759 H 266.829 -2.38192 2.86913 0
M  V30 2760 N 269.014 -1.53014 -0.377408 0
M  V30 2761 C 269.977 -1.77957 -1.44444 0
M  V30 2762 C 270.977 -0.649763 -1.47087 0
M  V30 2763 O 272.167 -0.917897 -1.48055 0
M  V30 2764 C 269.299 -1.89089 -2.83651 0
M  V30 2765 H 270.492 -2.73243 -1.23606 0
M  V30 2766 H 268.045 -1.43912 -0.609844 0
M  V30 2767 H 268.78 -0.958293 -3.09818 0
M  V30 2768 H 268.565 -2.71254 -2.83132 0
M  V30 2769 H 270.055 -2.1002 -3.60945 0
M  V30 2770 N 270.492 0.636531 -1.44174 0
M  V30 2771 C 271.769 1.39463 -1.37148 0
M  V30 2772 C 272.149 2.11082 -0.027507 0
M  V30 2773 O 271.497 2.05954 0.989716 0
M  V30 2774 C 271.707 2.36552 -2.56601 0
M  V30 2775 C 273.055 3.00048 -3.00427 0
M  V30 2776 O 274.079 2.46878 -2.56767 0
M  V30 2777 O 272.938 3.96488 -3.76111 0
M  V30 2778 H 270.032 0.623903 -0.542839 0
M  V30 2779 H 272.578 0.662039 -1.56253 0
M  V30 2780 H 271.35 1.82692 -3.46034 0
M  V30 2781 H 270.973 3.17236 -2.39681 0
M  V30 2782 N 271.97 1.30982 0.876444 0
M  V30 2783 C 273.217 1.20296 1.62896 0
M  V30 2784 C 273.545 -0.240395 1.93009 0
M  V30 2785 O 272.8 -1.18733 1.55567 0
M  V30 2786 C 273.099 1.98572 2.9716 0
M  V30 2787 C 272.765 3.48125 2.86566 0
M  V30 2788 C 271.427 3.88905 2.83383 0
M  V30 2789 C 273.779 4.43322 2.74071 0
M  V30 2790 C 271.107 5.2316 2.65556 0
M  V30 2791 C 273.459 5.77695 2.57781 0
M  V30 2792 C 272.123 6.17704 2.52979 0
M  V30 2793 H 271.393 0.440193 0.59608 0
M  V30 2794 H 274.04 1.62177 1.01837 0
M  V30 2795 H 272.345 1.49352 3.62217 0
M  V30 2796 H 274.042 1.8769 3.54364 0
M  V30 2797 H 270.632 3.15723 2.89856 0
M  V30 2798 H 274.816 4.12752 2.75589 0
M  V30 2799 H 270.072 5.53241 2.60259 0
M  V30 2800 H 274.246 6.51091 2.47089 0
M  V30 2801 H 271.873 7.21678 2.38924 0
M  V30 2802 N 273.449 -1.08991 1.13837 0
M  V30 2803 C 274.382 -2.15049 0.763477 0
M  V30 2804 C 275.36 -1.60629 -0.252398 0
M  V30 2805 O 276.544 -1.87958 -0.142853 0
M  V30 2806 C 273.671 -3.38441 0.132545 0
M  V30 2807 C 272.717 -4.11596 1.11763 0
M  V30 2808 S 273.55 -4.6521 2.65216 0
M  V30 2809 C 274.706 -5.91896 2.03495 0
M  V30 2810 H 274.939 -2.46518 1.66182 0
M  V30 2811 H 272.472 -1.21008 0.958976 0
M  V30 2812 H 274.43 -4.09883 -0.225074 0
M  V30 2813 H 273.091 -3.05182 -0.743135 0
M  V30 2814 H 272.284 -5.00121 0.624076 0
M  V30 2815 H 271.886 -3.46038 1.41894 0
M  V30 2816 H 274.178 -6.63156 1.38675 0
M  V30 2817 H 275.121 -6.45938 2.9012 0
M  V30 2818 H 275.529 -5.44625 1.48471 0
M  V30 2819 N 274.927 -0.932562 -1.27047 0
M  V30 2820 C 276.338 -0.619451 -1.76124 0
M  V30 2821 C 276.689 0.865397 -1.76083 0
M  V30 2822 O 275.814 1.67722 -1.36742 0
M  V30 2823 C 276.409 -1.11771 -3.19832 0
M  V30 2824 C 274.968 -0.855174 -3.66557 0
M  V30 2825 C 274.115 -1.27362 -2.46321 0
M  V30 2826 H 277.066 -1.11181 -1.13245 0
M  V30 2827 H 277.087 -0.46759 -3.77616 0
M  V30 2828 H 276.599 -2.19842 -3.1983 0
M  V30 2829 H 274.7 0.211524 -3.71999 0
M  V30 2830 H 274.813 -1.47613 -4.55793 0
M  V30 2831 H 273.177 -0.692119 -2.45116 0
M  V30 2832 H 273.96 -2.36307 -2.49025 0
M  V30 2833 N 276.405 1.4127 -0.698611 0
M  V30 2834 C 277.821 1.55241 -0.370462 0
M  V30 2835 C 278.021 1.67351 1.12231 0
M  V30 2836 O 277.077 1.65363 1.90818 0
M  V30 2837 C 278.39 2.78997 -1.12165 0
M  V30 2838 C 279.938 2.92797 -1.1063 0
M  V30 2839 C 280.413 4.19445 -1.8393 0
M  V30 2840 N 281.904 4.26409 -1.80914 0
M  V30 2841 C 282.639 5.23271 -2.34467 0
M  V30 2842 N 282.135 6.26145 -2.96504 0
M  V30 2843 N 283.928 5.15232 -2.24706 0
M  V30 2844 H 276.079 1.31654 -1.66676 0
M  V30 2845 H 278.342 0.635393 -0.703548 0
M  V30 2846 H 278.048 2.76268 -2.17644 0
M  V30 2847 H 277.922 3.70606 -0.702209 0
M  V30 2848 H 280.309 2.95039 -0.0597713 0
M  V30 2849 H 280.39 2.02353 -1.56483 0
M  V30 2850 H 280.034 4.17964 -2.88563 0
M  V30 2851 H 279.964 5.08866 -1.35509 0
M  V30 2852 H 282.455 3.527 -1.35687 0
M  V30 2853 H 282.768 6.96451 -3.34927 0
M  V30 2854 H 281.113 6.26638 -3.00583 0
M  V30 2855 H 284.304 4.33789 -1.7591 0
M  V30 2856 H 284.477 5.90552 -2.66745 0
M  V30 2857 N 277.883 0.443576 1.51229 0
M  V30 2858 C 279.129 -0.11321 2.03085 0
M  V30 2859 C 279.484 -1.39841 1.32145 0
M  V30 2860 O 278.777 -1.86723 0.429542 0
M  V30 2861 C 278.971 -0.380579 3.55368 0
M  V30 2862 C 278.8 0.877157 4.41062 0
M  V30 2863 C 277.57 1.4125 4.85156 0
M  V30 2864 C 279.768 1.76503 4.83064 0
M  V30 2865 N 277.75 2.62213 5.55083 0
M  V30 2866 C 279.121 2.82067 5.52122 0
M  V30 2867 C 281.176 1.7787 4.65045 0
M  V30 2868 C 279.879 3.88952 6.05069 0
M  V30 2869 C 281.905 2.83694 5.18914 0
M  V30 2870 C 281.267 3.87978 5.87922 0
M  V30 2871 H 277.366 -0.00210178 0.781997 0
M  V30 2872 H 279.95 0.605641 1.85041 0
M  V30 2873 H 278.121 -1.06847 3.73414 0
M  V30 2874 H 279.853 -0.929274 3.93887 0
M  V30 2875 H 276.608 0.965542 4.63653 0
M  V30 2876 H 277.032 3.23568 5.9467 0
M  V30 2877 H 281.674 0.985744 4.11148 0
M  V30 2878 H 279.392 4.69082 6.58018 0
M  V30 2879 H 282.978 2.85702 5.06819 0
M  V30 2880 H 281.858 4.68517 6.28857 0
M  V30 2881 N 279.361 -1.56624 0.175154 0
M  V30 2882 C 280.293 -2.15333 -0.785128 0
M  V30 2883 C 281.306 -1.1099 -1.19101 0
M  V30 2884 O 282.495 -1.38162 -1.13019 0
M  V30 2885 C 279.595 -2.68427 -2.06882 0
M  V30 2886 C 278.768 -3.97466 -1.8259 0
M  V30 2887 C 277.827 -4.35585 -2.95215 0
M  V30 2888 O 276.853 -5.03389 -2.65684 0
M  V30 2889 N 278.055 -3.97457 -4.23094 0
M  V30 2890 H 280.82 -2.98359 -0.283187 0
M  V30 2891 H 278.381 -1.61898 -0.00749817 0
M  V30 2892 H 280.373 -2.90924 -2.81328 0
M  V30 2893 H 278.943 -1.89968 -2.48256 0
M  V30 2894 H 278.163 -3.83307 -0.920287 0
M  V30 2895 H 279.451 -4.81736 -1.63733 0
M  V30 2896 H 278.849 -3.42878 -4.49945 0
M  V30 2897 H 277.406 -4.24947 -4.9423 0
M  V30 2898 N 280.839 0.0985539 -1.57292 0
M  V30 2899 C 281.772 1.15082 -1.97057 0
M  V30 2900 C 282.75 1.39025 -0.843255 0
M  V30 2901 O 283.934 1.52842 -1.10325 0
M  V30 2902 C 281.061 2.50069 -2.28437 0
M  V30 2903 C 280.107 2.42428 -3.509 0
M  V30 2904 S 280.94 1.84414 -5.02744 0
M  V30 2905 C 282.096 3.21032 -5.37298 0
M  V30 2906 H 282.329 0.811815 -2.86002 0
M  V30 2907 H 279.862 0.306102 -1.51335 0
M  V30 2908 H 281.82 3.27729 -2.47192 0
M  V30 2909 H 280.481 2.8114 -1.40069 0
M  V30 2910 H 279.674 3.41911 -3.70288 0
M  V30 2911 H 279.276 1.72896 -3.31637 0
M  V30 2912 H 281.568 4.17297 -5.33731 0
M  V30 2913 H 282.511 3.06452 -6.38352 0
M  V30 2914 H 282.919 3.20404 -4.64759 0
M  V30 2915 N 282.317 1.53212 0.369288 0
M  V30 2916 C 283.247 1.82365 1.45826 0
M  V30 2917 C 284.228 0.676907 1.56051 0
M  V30 2918 O 285.413 0.926401 1.70679 0
M  V30 2919 C 282.543 2.01023 2.83208 0
M  V30 2920 C 281.497 3.1678 2.8781 0
M  V30 2921 C 280.823 3.20724 4.27832 0
M  V30 2922 C 282.123 4.55447 2.55667 0
M  V30 2923 H 283.817 2.73559 1.21678 0
M  V30 2924 H 281.363 1.3163 0.583911 0
M  V30 2925 H 283.316 2.20001 3.59413 0
M  V30 2926 H 282.04 1.06536 3.08736 0
M  V30 2927 H 280.699 2.97616 2.14056 0
M  V30 2928 H 280.347 2.23882 4.50429 0
M  V30 2929 H 280.047 3.98496 4.31827 0
M  V30 2930 H 281.571 3.41881 5.05915 0
M  V30 2931 H 282.985 4.74611 3.21586 0
M  V30 2932 H 281.382 5.35432 2.70984 0
M  V30 2933 H 282.452 4.60812 1.5093 0
M  V30 2934 N 283.795 -0.628877 1.44509 0
M  V30 2935 C 285.211 -0.947305 1.28446 0
M  V30 2936 C 285.411 -2.00275 0.221872 0
M  V30 2937 O 284.467 -2.49447 -0.391471 0
M  V30 2938 C 285.78 -1.40843 2.65676 0
M  V30 2939 C 287.328 -1.52379 2.73404 0
M  V30 2940 C 287.803 -2.01875 4.11109 0
M  V30 2941 N 289.294 -2.09142 4.13296 0
M  V30 2942 C 290.029 -2.48615 5.16699 0
M  V30 2943 N 289.525 -2.87209 6.30462 0
M  V30 2944 N 291.318 -2.48768 5.04054 0
M  V30 2945 H 283.469 0.0690977 2.12288 0
M  V30 2946 H 285.732 -0.0317164 0.947469 0
M  V30 2947 H 285.438 -0.707206 3.44516 0
M  V30 2948 H 285.312 -2.37902 2.92716 0
M  V30 2949 H 287.699 -2.21598 1.9488 0
M  V30 2950 H 287.78 -0.536898 2.50102 0
M  V30 2951 H 287.424 -1.3325 4.90109 0
M  V30 2952 H 287.354 -3.0144 4.31789 0
M  V30 2953 H 289.845 -1.81991 3.31191 0
M  V30 2954 H 290.158 -3.16149 7.05174 0
M  V30 2955 H 288.503 -2.84955 6.33897 0
M  V30 2956 H 291.694 -2.18009 4.14234 0
M  V30 2957 H 291.867 -2.79207 5.84763 0
M  V30 2958 N 285.273 -1.31445 -0.869486 0
M  V30 2959 C 286.519 -1.21337 -1.62496 0
M  V30 2960 C 286.852 0.227872 -1.92858 0
M  V30 2961 O 286.127 1.16094 -1.56053 0
M  V30 2962 C 286.41 -2.05814 -2.95487 0
M  V30 2963 C 286.263 -3.5824 -2.72 0
M  V30 2964 C 287.582 -1.9079 -3.96594 0
M  V30 2965 H 284.701 -0.442135 -0.589649 0
M  V30 2966 H 287.343 -1.6124 -1.00507 0
M  V30 2967 H 285.493 -1.71913 -3.48394 0
M  V30 2968 H 287.165 -4.0228 -2.25762 0
M  V30 2969 H 285.408 -3.81647 -2.06224 0
M  V30 2970 H 286.079 -4.12657 -3.66631 0
M  V30 2971 H 288.555 -2.20459 -3.52898 0
M  V30 2972 H 287.431 -2.52199 -4.87531 0
M  V30 2973 H 287.692 -0.871341 -4.33428 0
M  V30 2974 N 286.751 1.08385 -1.14413 0
M  V30 2975 C 287.681 2.17321 -0.854044 0
M  V30 2976 C 288.662 1.69024 0.191049 0
M  V30 2977 O 289.847 1.94141 0.0476779 0
M  V30 2978 C 286.977 3.45719 -0.330983 0
M  V30 2979 C 285.931 4.07409 -1.31155 0
M  V30 2980 C 285.257 5.30762 -0.64778 0
M  V30 2981 C 286.557 4.48665 -2.67388 0
M  V30 2982 H 288.251 2.41845 -1.76498 0
M  V30 2983 H 285.797 1.16233 -0.850051 0
M  V30 2984 H 287.75 4.21241 -0.115645 0
M  V30 2985 H 286.474 3.2075 0.615381 0
M  V30 2986 H 285.133 3.33919 -1.51306 0
M  V30 2987 H 284.781 5.02078 0.304398 0
M  V30 2988 H 284.481 5.72992 -1.30207 0
M  V30 2989 H 286.005 6.08998 -0.441972 0
M  V30 2990 H 287.419 5.15364 -2.51143 0
M  V30 2991 H 285.816 5.01814 -3.29093 0
M  V30 2992 H 286.886 3.60543 -3.24248 0
M  V30 2993 N 288.23 0.939286 1.26551 0
M  V30 2994 C 289.14 0.453432 2.30176 0
M  V30 2995 C 290.156 -0.471649 1.67486 0
M  V30 2996 O 291.332 -0.35164 1.98306 0
M  V30 2997 C 288.397 -0.275326 3.45605 0
M  V30 2998 C 287.458 0.686084 4.23782 0
M  V30 2999 C 286.691 -0.00798994 5.33699 0
M  V30 3000 O 286.914 -1.22528 5.57085 0
M  V30 3001 O 285.848 0.669746 5.98162 0
M  V30 3002 H 289.674 1.31416 2.73795 0
M  V30 3003 H 287.259 0.705095 1.31715 0
M  V30 3004 H 289.141 -0.685911 4.1578 0
M  V30 3005 H 287.816 -1.11147 3.0402 0
M  V30 3006 H 286.723 1.14658 3.56096 0
M  V30 3007 H 288.056 1.48979 4.69112 0
M  V30 3008 N 289.708 -1.40897 0.706093 0
M  V30 3009 C 290.618 -2.3455 0.0482286 0
M  V30 3010 C 291.634 -1.56796 -0.754396 0
M  V30 3011 O 292.81 -1.89228 -0.689538 0
M  V30 3012 C 289.875 -3.35625 -0.869303 0
M  V30 3013 C 288.936 -4.29261 -0.0576994 0
M  V30 3014 C 288.169 -5.25508 -0.931531 0
M  V30 3015 O 288.392 -5.27472 -2.17092 0
M  V30 3016 O 287.326 -6.00727 -0.375587 0
M  V30 3017 H 291.152 -2.92407 0.820476 0
M  V30 3018 H 288.737 -1.4193 0.4665 0
M  V30 3019 H 290.619 -3.97635 -1.39514 0
M  V30 3020 H 289.294 -2.80196 -1.62086 0
M  V30 3021 H 288.201 -3.70566 0.512988 0
M  V30 3022 H 289.534 -4.87817 0.655426 0
M  V30 3023 N 291.186 -0.45159 -1.50991 0
M  V30 3024 C 292.096 0.358431 -2.31846 0
M  V30 3025 C 293.112 1.01438 -1.41373 0
M  V30 3026 O 294.288 1.00663 -1.74439 0
M  V30 3027 C 291.353 1.43704 -3.15515 0
M  V30 3028 C 290.414 0.799742 -4.21785 0
M  V30 3029 C 289.647 1.82696 -5.01456 0
M  V30 3030 O 289.87 3.05105 -4.81941 0
M  V30 3031 O 288.804 1.40958 -5.85162 0
M  V30 3032 H 292.63 -0.302032 -3.02194 0
M  V30 3033 H 290.215 -0.213825 -1.47862 0
M  V30 3034 H 292.097 2.06227 -3.67489 0
M  V30 3035 H 290.772 2.08133 -2.47916 0
M  V30 3036 H 289.679 0.136084 -3.73852 0
M  V30 3037 H 291.012 0.198718 -4.91799 0
M  V30 3038 N 292.664 1.56529 -0.183458 0
M  V30 3039 C 293.594 2.21549 0.737456 0
M  V30 3040 C 294.575 1.17489 1.23005 0
M  V30 3041 O 295.76 1.45959 1.281 0
M  V30 3042 C 292.89 2.86575 1.96194 0
M  V30 3043 C 291.844 3.96778 1.60473 0
M  V30 3044 C 291.17 4.48911 2.90487 0
M  V30 3045 C 292.47 5.15767 0.823497 0
M  V30 3046 H 294.164 2.98761 0.195453 0
M  V30 3047 H 291.71 1.43702 0.0925686 0
M  V30 3048 H 293.663 3.30739 2.61131 0
M  V30 3049 H 292.387 2.06749 2.52828 0
M  V30 3050 H 291.046 3.53286 0.978997 0
M  V30 3051 H 290.694 3.65862 3.45186 0
M  V30 3052 H 290.394 5.23265 2.67335 0
M  V30 3053 H 291.918 4.95771 3.56432 0
M  V30 3054 H 293.332 5.56549 1.37571 0
M  V30 3055 H 291.729 5.96114 0.690551 0
M  V30 3056 H 292.799 4.84574 -0.177782 0
M  V30 3057 N 294.142 -0.090211 1.57342 0
M  V30 3058 C 295.39 -0.791241 1.85967 0
M  V30 3059 C 295.711 -1.7903 0.772859 0
M  V30 3060 O 294.981 -1.94872 -0.200398 0
M  V30 3061 H 293.561 -0.295205 0.686195 0
M  V30 3062 H 296.223 -0.0706782 1.94772 0
M  V30 3063 H 295.319 -1.31882 2.82867 0
M  V30 3064 N 295.62 -1.53406 -0.361157 0
M  V30 3065 C 297.036 -1.43277 -0.703124 0
M  V30 3066 C 297.236 -0.575384 -1.9311 0
M  V30 3067 O 296.292 -0.0595362 -2.5243 0
M  V30 3068 C 297.605 -2.8653 -0.9122 0
M  V30 3069 C 299.153 -2.96191 -1.01193 0
M  V30 3070 C 299.628 -4.40514 -1.25345 0
M  V30 3071 N 301.119 -4.43962 -1.32105 0
M  V30 3072 C 301.854 -5.52746 -1.5251 0
M  V30 3073 N 301.35 -6.71567 -1.70203 0
M  V30 3074 N 303.143 -5.40331 -1.54916 0
M  V30 3075 H 295.294 -2.07654 0.446475 0
M  V30 3076 H 297.557 -0.937944 0.137715 0
M  V30 3077 H 297.263 -3.51605 -0.0816414 0
M  V30 3078 H 297.137 -3.30441 -1.81903 0
M  V30 3079 H 299.524 -2.31266 -1.83303 0
M  V30 3080 H 299.605 -2.55667 -0.0823929 0
M  V30 3081 H 299.249 -5.06014 -0.437346 0
M  V30 3082 H 299.179 -4.78614 -2.19627 0
M  V30 3083 H 301.67 -3.58332 -1.20028 0
M  V30 3084 H 301.983 -7.50241 -1.85359 0
M  V30 3085 H 300.328 -6.74545 -1.67373 0
M  V30 3086 H 303.519 -4.46465 -1.40663 0
M  V30 3087 H 303.692 -6.25173 -1.70477 0
M  V30 3088 N 297.098 0.621204 -1.44841 0
M  V30 3089 C 298.375 1.38 -1.38619 0
M  V30 3090 C 298.755 2.11041 -0.0498935 0
M  V30 3091 O 298.103 2.06992 0.967816 0
M  V30 3092 C 298.313 2.33817 -2.59096 0
M  V30 3093 C 299.661 2.96844 -3.03593 0
M  V30 3094 O 300.685 2.44141 -2.59371 0
M  V30 3095 O 299.544 3.92476 -3.80296 0
M  V30 3096 H 296.638 0.61811 -0.549426 0
M  V30 3097 H 299.184 0.645429 -1.56947 0
M  V30 3098 H 297.956 1.79012 -3.47952 0
M  V30 3099 H 297.579 3.14676 -2.43032 0
M  V30 3100 N 298.576 1.31904 0.862503 0
M  V30 3101 C 299.822 1.23207 1.61838 0
M  V30 3102 C 300.177 -0.206062 1.91293 0
M  V30 3103 O 299.47 -1.14162 1.53875 0
M  V30 3104 C 299.664 2.01713 2.95037 0
M  V30 3105 C 299.493 3.53014 2.78588 0
M  V30 3106 C 298.263 4.22359 2.77382 0
M  V30 3107 C 300.461 4.47819 2.52909 0
M  V30 3108 N 298.443 5.59766 2.52062 0
M  V30 3109 C 299.814 5.72947 2.36922 0
M  V30 3110 C 301.869 4.37162 2.38314 0
M  V30 3111 C 300.572 6.88623 2.07823 0
M  V30 3112 C 302.598 5.5263 2.10604 0
M  V30 3113 C 301.96 6.76752 1.95411 0
M  V30 3114 H 298.059 0.505984 0.596242 0
M  V30 3115 H 300.643 1.66179 1.01452 0
M  V30 3116 H 298.814 1.61098 3.53415 0
M  V30 3117 H 300.546 1.84975 3.59953 0
M  V30 3118 H 297.301 3.74401 2.90036 0
M  V30 3119 H 297.725 6.32135 2.42352 0
M  V30 3120 H 302.367 3.41857 2.48784 0
M  V30 3121 H 300.085 7.83948 1.9609 0
M  V30 3122 H 303.671 5.46307 2.00101 0
M  V30 3123 H 302.551 7.6459 1.74274 0
M  V30 3124 N 300.054 -1.07777 1.14986 0
M  V30 3125 C 300.986 -2.14769 0.800436 0
M  V30 3126 C 301.999 -1.61739 -0.185595 0
M  V30 3127 O 303.188 -1.78462 0.0370358 0
M  V30 3128 C 300.288 -3.38481 0.168533 0
M  V30 3129 C 299.461 -4.20876 1.1909 0
M  V30 3130 C 298.52 -5.22976 0.581575 0
M  V30 3131 O 297.546 -5.55388 1.24633 0
M  V30 3132 N 298.748 -5.76976 -0.638706 0
M  V30 3133 H 301.513 -2.45348 1.72118 0
M  V30 3134 H 299.074 -1.23645 1.04515 0
M  V30 3135 H 301.066 -4.03916 -0.251764 0
M  V30 3136 H 299.636 -3.05651 -0.655467 0
M  V30 3137 H 298.856 -3.51322 1.78791 0
M  V30 3138 H 300.144 -4.7274 1.88133 0
M  V30 3139 H 299.542 -5.52886 -1.19723 0
M  V30 3140 H 298.099 -6.44061 -1.00142 0
M  V30 3141 N 301.532 -0.945985 -1.26051 0
M  V30 3142 C 302.495 -0.463897 -2.24456 0
M  V30 3143 C 303.495 0.427655 -1.55009 0
M  V30 3144 O 304.685 0.226157 -1.72726 0
M  V30 3145 C 301.817 0.330812 -3.39291 0
M  V30 3146 H 303.01 -1.33357 -2.68619 0
M  V30 3147 H 300.563 -0.728416 -1.38289 0
M  V30 3148 H 301.298 1.21852 -3.00537 0
M  V30 3149 H 301.083 -0.308679 -3.90883 0
M  V30 3150 H 302.573 0.657865 -4.12386 0
M  V30 3151 N 303.011 1.40521 -0.713556 0
M  V30 3152 C 303.958 2.30723 -0.059684 0
M  V30 3153 C 304.928 1.48079 0.752448 0
M  V30 3154 O 306.113 1.76823 0.71681 0
M  V30 3155 C 303.253 3.34274 0.857594 0
M  V30 3156 C 302.366 4.31986 0.0351536 0
M  V30 3157 C 301.501 5.22605 0.951724 0
M  V30 3158 C 300.54 6.11976 0.123253 0
M  V30 3159 N 299.677 6.9502 0.99459 0
M  V30 3160 H 304.517 2.86074 -0.834596 0
M  V30 3161 H 302.054 1.40879 -0.42326 0
M  V30 3162 H 304.012 3.92879 1.40364 0
M  V30 3163 H 302.642 2.8043 1.59871 0
M  V30 3164 H 301.694 3.7518 -0.628052 0
M  V30 3165 H 303.006 4.95101 -0.606347 0
M  V30 3166 H 302.16 5.86131 1.56638 0
M  V30 3167 H 300.899 4.59759 1.62705 0
M  V30 3168 H 299.904 5.47482 -0.50435 0
M  V30 3169 H 301.129 6.76881 -0.548539 0
M  V30 3170 H 299.075 6.34764 1.6556 0
M  V30 3171 H 298.992 7.54892 0.40908 0
M  V30 3172 H 300.26 7.62997 1.59549 0
M  V30 3173 N 304.489 0.459591 1.5075 0
M  V30 3174 C 305.735 -0.0994966 2.02556 0
M  V30 3175 C 306.068 -1.40399 1.3417 0
M  V30 3176 O 305.343 -1.88892 0.463683 0
M  V30 3177 C 305.626 -0.295242 3.58888 0
M  V30 3178 C 305.479 1.02947 4.37861 0
M  V30 3179 C 306.798 -1.05502 4.27267 0
M  V30 3180 H 303.917 -0.034686 0.736183 0
M  V30 3181 H 306.559 0.602938 1.8018 0
M  V30 3182 H 304.709 -0.893563 3.78084 0
M  V30 3183 H 306.381 1.66348 4.30263 0
M  V30 3184 H 304.624 1.62885 4.02058 0
M  V30 3185 H 305.295 0.846281 5.45474 0
M  V30 3186 H 307.771 -0.547993 4.12476 0
M  V30 3187 H 306.647 -1.16077 5.36486 0
M  V30 3188 H 306.908 -2.08875 3.89645 0
M  V30 3189 N 305.967 -1.56429 0.191757 0
M  V30 3190 C 306.93 -2.17707 -0.716688 0
M  V30 3191 C 307.93 -1.13061 -1.14341 0
M  V30 3192 O 309.12 -1.38464 -1.05704 0
M  V30 3193 C 306.252 -2.77644 -1.97804 0
M  V30 3194 H 307.445 -2.99342 -0.1829 0
M  V30 3195 H 304.998 -1.56193 -0.0578566 0
M  V30 3196 H 305.733 -1.99799 -2.55443 0
M  V30 3197 H 305.518 -3.54246 -1.68083 0
M  V30 3198 H 307.008 -3.24708 -2.62592 0
M  V30 3199 N 307.445 0.0818655 -1.57387 0
M  V30 3200 C 308.67 0.799946 -1.91352 0
M  V30 3201 C 309.095 1.70833 -0.787258 0
M  V30 3202 O 308.453 1.79419 0.26048 0
M  V30 3203 C 308.501 1.57812 -3.24234 0
M  V30 3204 O 307.605 2.68806 -3.12757 0
M  V30 3205 H 306.946 0.21891 -0.626877 0
M  V30 3206 H 309.476 0.0531256 -2.04531 0
M  V30 3207 H 309.486 1.95952 -3.57864 0
M  V30 3208 H 308.161 0.911548 -4.05788 0
M  V30 3209 H 306.738 2.33597 -2.90666 0
M  V30 3210 N 308.923 1.53595 0.353017 0
M  V30 3211 C 309.853 1.83902 1.43883 0
M  V30 3212 C 310.834 0.693421 1.55324 0
M  V30 3213 O 312.019 0.944452 1.69687 0
M  V30 3214 C 309.149 2.04016 2.8106 0
M  V30 3215 C 308.103 3.19814 2.84434 0
M  V30 3216 C 307.429 3.25244 4.24406 0
M  V30 3217 C 308.729 4.58133 2.50822 0
M  V30 3218 H 310.423 2.74835 1.1877 0
M  V30 3219 H 307.969 1.32242 0.569917 0
M  V30 3220 H 309.922 2.238 3.57059 0
M  V30 3221 H 308.646 1.09804 3.07588 0
M  V30 3222 H 307.305 2.9987 2.10887 0
M  V30 3223 H 306.953 2.28646 4.48029 0
M  V30 3224 H 306.653 4.03054 4.27576 0
M  V30 3225 H 308.177 3.47228 5.0226 0
M  V30 3226 H 309.591 4.77995 3.16534 0
M  V30 3227 H 307.988 5.38276 2.6529 0
M  V30 3228 H 309.058 4.62387 1.46034 0
M  V30 3229 N 310.401 -0.613514 1.45168 0
M  V30 3230 C 311.311 -1.75296 1.55912 0
M  V30 3231 C 312.327 -1.68244 0.443856 0
M  V30 3232 O 313.503 -1.88706 0.70371 0
M  V30 3233 C 310.568 -3.1174 1.5172 0
M  V30 3234 C 309.629 -3.30291 2.74238 0
M  V30 3235 C 308.862 -4.60226 2.70236 0
M  V30 3236 O 309.085 -5.42168 1.77229 0
M  V30 3237 O 308.019 -4.81361 3.61352 0
M  V30 3238 H 311.845 -1.69183 2.52212 0
M  V30 3239 H 309.43 -0.776886 1.27612 0
M  V30 3240 H 311.312 -3.93044 1.51968 0
M  V30 3241 H 309.987 -3.18357 0.585697 0
M  V30 3242 H 308.894 -2.48598 2.79553 0
M  V30 3243 H 310.227 -3.28547 3.66494 0
M  V30 3244 N 311.879 -1.3236 -0.855495 0
M  V30 3245 C 312.789 -1.23221 -1.99634 0
M  V30 3246 C 313.805 -0.145983 -1.73387 0
M  V30 3247 O 314.981 -0.366502 -1.98037 0
M  V30 3248 C 312.046 -0.954782 -3.33294 0
M  V30 3249 C 311.107 -2.12937 -3.72769 0
M  V30 3250 C 310.34 -1.86508 -5.00051 0
M  V30 3251 O 310.563 -0.807231 -5.64659 0
M  V30 3252 O 309.497 -2.72591 -5.36636 0
M  V30 3253 H 313.323 -2.19126 -2.1028 0
M  V30 3254 H 310.908 -1.12241 -0.986018 0
M  V30 3255 H 312.79 -0.816519 -4.13414 0
M  V30 3256 H 311.465 -0.0258854 -3.2369 0
M  V30 3257 H 310.372 -2.3231 -2.93228 0
M  V30 3258 H 311.705 -3.04102 -3.87018 0
M  V30 3259 N 313.357 1.07166 -1.15556 0
M  V30 3260 C 314.603 1.80065 -0.932984 0
M  V30 3261 C 314.936 1.86586 0.53845 0
M  V30 3262 O 314.211 1.35098 1.39924 0
M  V30 3263 C 314.494 3.25022 -1.55025 0
M  V30 3264 C 314.347 3.26634 -3.09242 0
M  V30 3265 C 315.666 4.22341 -1.2376 0
M  V30 3266 H 312.785 0.653697 -0.340366 0
M  V30 3267 H 315.427 1.25389 -1.4275 0
M  V30 3268 H 313.577 3.71712 -1.12972 0
M  V30 3269 H 315.249 2.88173 -3.60214 0
M  V30 3270 H 313.492 2.65539 -3.43033 0
M  V30 3271 H 314.163 4.28854 -3.47546 0
M  V30 3272 H 316.639 3.8405 -1.60139 0
M  V30 3273 H 315.515 5.22053 -1.69564 0
M  V30 3274 H 315.776 4.41828 -0.154938 0
M  V30 3275 N 314.835 0.952656 1.25548 0
M  V30 3276 C 316.246 0.647392 1.75116 0
M  V30 3277 C 316.597 -0.837274 1.77438 0
M  V30 3278 O 315.722 -1.65525 1.39393 0
M  V30 3279 C 316.317 1.16845 3.18014 0
M  V30 3280 C 314.876 0.913382 3.6515 0
M  V30 3281 C 314.023 1.31265 2.44264 0
M  V30 3282 H 316.974 1.12968 1.11462 0
M  V30 3283 H 316.995 0.527606 3.76824 0
M  V30 3284 H 316.507 2.24902 3.16292 0
M  V30 3285 H 314.608 -0.152316 3.72289 0
M  V30 3286 H 314.721 1.54845 4.53387 0
M  V30 3287 H 313.085 0.731028 2.43984 0
M  V30 3288 H 313.868 2.40239 2.45234 0
M  V30 3289 N 316.313 -1.40141 0.720998 0
M  V30 3290 C 317.56 -2.00787 0.262842 0
M  V30 3291 C 317.888 -1.5718 -1.14563 0
M  V30 3292 O 317.143 -0.785391 -1.79249 0
M  V30 3293 C 317.442 -3.56165 0.296892 0
M  V30 3294 C 317.108 -4.19373 1.65641 0
M  V30 3295 C 315.77 -4.36352 2.02855 0
M  V30 3296 C 318.122 -4.54578 2.54968 0
M  V30 3297 C 315.45 -4.8582 3.28931 0
M  V30 3298 C 317.802 -5.05447 3.80402 0
M  V30 3299 C 316.466 -5.20635 4.17726 0
M  V30 3300 H 315.736 -0.734731 0.0961807 0
M  V30 3301 H 318.383 -1.67673 0.925093 0
M  V30 3302 H 316.688 -3.8922 -0.448932 0
M  V30 3303 H 318.385 -4.00929 -0.0755208 0
M  V30 3304 H 314.975 -4.06549 1.35704 0
M  V30 3305 H 319.159 -4.41091 2.27491 0
M  V30 3306 H 314.415 -4.95764 3.57811 0
M  V30 3307 H 318.589 -5.31663 4.49786 0
M  V30 3308 H 316.216 -5.58728 5.15487 0
M  V30 3309 N 317.792 -0.46758 -1.50504 0
M  V30 3310 C 318.755 0.317059 -2.26996 0
M  V30 3311 C 319.755 0.923513 -1.31635 0
M  V30 3312 O 320.945 0.793239 -1.55091 0
M  V30 3313 C 318.077 1.45134 -3.08462 0
M  V30 3314 H 319.27 -0.353723 -2.97807 0
M  V30 3315 H 316.823 -0.221545 -1.54722 0
M  V30 3316 H 317.558 2.15728 -2.4214 0
M  V30 3317 H 317.343 1.02232 -3.78538 0
M  V30 3318 H 318.833 2.00493 -3.66323 0
M  V30 3319 N 319.27 1.56325 -0.20005 0
M  V30 3320 C 320.233 2.18084 0.705132 0
M  V30 3321 C 321.233 1.13666 1.1374 0
M  V30 3322 O 322.423 1.39023 1.04968 0
M  V30 3323 C 319.555 2.78689 1.96329 0
M  V30 3324 H 320.748 2.99435 0.167023 0
M  V30 3325 H 318.301 1.56221 0.0495725 0
M  V30 3326 H 319.036 2.0115 2.5438 0
M  V30 3327 H 318.821 3.55133 1.66202 0
M  V30 3328 H 320.311 3.26096 2.60866 0
M  V30 3329 N 320.748 -0.0735177 1.57428 0
M  V30 3330 C 321.711 -1.07192 2.02589 0
M  V30 3331 C 322.711 -1.31695 0.922661 0
M  V30 3332 O 323.901 -1.27445 1.18758 0
M  V30 3333 C 321.033 -2.41599 2.40506 0
M  V30 3334 H 322.226 -0.682727 2.92025 0
M  V30 3335 H 319.779 -0.319193 1.53006 0
M  V30 3336 H 320.514 -2.85354 1.5409 0
M  V30 3337 H 320.299 -2.25156 3.21009 0
M  V30 3338 H 321.789 -3.13367 2.76027 0
M  V30 3339 N 322.226 -1.5378 -0.344866 0
M  V30 3340 C 323.451 -1.75211 -1.10977 0
M  V30 3341 C 323.876 -0.48936 -1.81623 0
M  V30 3342 O 323.234 0.557925 -1.72502 0
M  V30 3343 C 323.282 -2.93147 -2.09993 0
M  V30 3344 O 322.386 -2.63203 -3.17487 0
M  V30 3345 H 321.727 -0.581241 -0.321021 0
M  V30 3346 H 324.257 -2.00738 -0.395661 0
M  V30 3347 H 324.267 -3.19898 -2.53237 0
M  V30 3348 H 322.942 -3.84731 -1.5797 0
M  V30 3349 H 321.519 -2.47336 -2.79069 0
M  V30 3350 N 323.704 0.605807 -1.45491 0
M  V30 3351 C 324.953 1.36086 -1.48874 0
M  V30 3352 C 325.266 1.95131 -0.135333 0
M  V30 3353 O 326.472 2.7146 -0.0468144 0
M  V30 3354 C 324.928 2.46518 -2.62215 0
M  V30 3355 C 324.536 1.93877 -4.03876 0
M  V30 3356 C 326.28 3.23512 -2.74846 0
M  V30 3357 C 324.187 3.01801 -5.08596 0
M  V30 3358 H 323.117 0.511497 -0.553974 0
M  V30 3359 H 325.768 0.649089 -1.71636 0
M  V30 3360 H 324.15 3.20388 -2.32739 0
M  V30 3361 H 325.324 1.26704 -4.43038 0
M  V30 3362 H 323.639 1.29622 -3.95711 0
M  V30 3363 H 326.236 4.04013 -3.50253 0
M  V30 3364 H 326.579 3.74631 -1.81542 0
M  V30 3365 H 327.112 2.56742 -3.03856 0
M  V30 3366 H 323.851 2.55597 -6.03614 0
M  V30 3367 H 323.371 3.67535 -4.74002 0
M  V30 3368 H 325.05 3.66152 -5.33424 0
M  V30 3369 N 325.182 1.32811 0.848464 0
M  V30 3370 C 326.43 1.23479 1.59991 0
M  V30 3371 C 326.751 -0.201853 1.93952 0
M  V30 3372 O 326.021 -1.12818 1.60153 0
M  V30 3373 H 324.601 0.454034 0.593179 0
M  V30 3374 H 327.263 1.66412 1.01455 0
M  V30 3375 H 326.359 1.82178 2.53412 0
M  V30 3376 N 326.66 -1.06551 1.16123 0
M  V30 3377 C 327.592 -2.13908 0.823171 0
M  V30 3378 C 328.605 -1.61926 -0.16843 0
M  V30 3379 O 329.794 -1.78412 0.055962 0
M  V30 3380 C 326.894 -3.38283 0.204424 0
M  V30 3381 C 326.067 -4.19589 1.23548 0
M  V30 3382 C 325.126 -5.2233 0.637011 0
M  V30 3383 O 324.152 -5.54034 1.30516 0
M  V30 3384 N 325.354 -5.77621 -0.577474 0
M  V30 3385 H 328.119 -2.43508 1.74711 0
M  V30 3386 H 325.68 -1.2253 1.05821 0
M  V30 3387 H 327.672 -4.0416 -0.208909 0
M  V30 3388 H 326.242 -3.06329 -0.623012 0
M  V30 3389 H 325.462 -3.49406 1.82507 0
M  V30 3390 H 326.75 -4.70718 1.93137 0
M  V30 3391 H 326.148 -5.54125 -1.13853 0
M  V30 3392 H 324.705 -6.45087 -0.933053 0
M  V30 3393 N 328.138 -0.959301 -1.25041 0
M  V30 3394 C 329.384 -0.617525 -1.9317 0
M  V30 3395 C 329.717 0.843981 -1.74902 0
M  V30 3396 O 328.992 1.60615 -1.09696 0
M  V30 3397 C 329.275 -0.982736 -3.46431 0
M  V30 3398 C 329.128 -2.50032 -3.73904 0
M  V30 3399 C 330.447 -0.511176 -4.37121 0
M  V30 3400 H 327.566 -0.22582 -0.701552 0
M  V30 3401 H 330.208 -1.19679 -1.4757 0
M  V30 3402 H 328.358 -0.489806 -3.854 0
M  V30 3403 H 330.03 -3.06737 -3.44544 0
M  V30 3404 H 328.273 -2.93598 -3.19348 0
M  V30 3405 H 328.944 -2.70635 -4.81103 0
M  V30 3406 H 331.42 -0.934075 -4.0548 0
M  V30 3407 H 330.296 -0.795361 -5.43107 0
M  V30 3408 H 330.557 0.588834 -4.38161 0
M  V30 3409 N 329.616 1.39756 -0.72842 0
M  V30 3410 C 330.566 2.2792 -0.0603424 0
M  V30 3411 C 331.55 1.43922 0.719399 0
M  V30 3412 O 332.742 1.66895 0.589489 0
M  V30 3413 C 329.871 3.32582 0.851104 0
M  V30 3414 C 328.957 4.24049 0.0658641 0
M  V30 3415 N 329.348 4.96653 -0.957578 0
M  V30 3416 C 327.646 4.45013 0.296509 0
M  V30 3417 C 328.347 5.63836 -1.43052 0
M  V30 3418 N 327.323 5.38397 -0.750315 0
M  V30 3419 H 331.125 2.81504 -0.84455 0
M  V30 3420 H 328.639 1.5236 -0.562155 0
M  V30 3421 H 330.636 3.94603 1.34514 0
M  V30 3422 H 329.296 2.80558 1.63454 0
M  V30 3423 H 330.307 5.00297 -1.33877 0
M  V30 3424 H 326.984 4.03943 1.05527 0
M  V30 3425 H 328.374 6.31974 -2.28163 0
M  V30 3426 N 331.094 0.475555 1.50254 0
M  V30 3427 C 332.026 -0.352649 2.26471 0
M  V30 3428 C 333.039 -0.953165 1.3198 0
M  V30 3429 O 334.228 -0.840815 1.57457 0
M  V30 3430 C 331.328 -1.50902 3.0345 0
M  V30 3431 C 330.501 -1.02047 4.25329 0
M  V30 3432 C 329.56 -2.05142 4.84565 0
M  V30 3433 O 328.586 -1.63023 5.45355 0
M  V30 3434 N 329.788 -3.37987 4.71959 0
M  V30 3435 H 332.553 0.300767 2.98187 0
M  V30 3436 H 330.114 0.306598 1.5897 0
M  V30 3437 H 332.106 -2.19572 3.39956 0
M  V30 3438 H 330.676 -2.06705 2.34504 0
M  V30 3439 H 329.896 -0.159507 3.93877 0
M  V30 3440 H 331.184 -0.672061 5.04342 0
M  V30 3441 H 330.582 -3.74913 4.23623 0
M  V30 3442 H 329.139 -4.02443 5.12721 0
M  V30 3443 N 332.573 -1.56217 0.208337 0
M  V30 3444 C 333.821 -1.97558 -0.426076 0
M  V30 3445 C 334.142 -1.09683 -1.61229 0
M  V30 3446 O 333.412 -0.170956 -1.95153 0
M  V30 3447 H 331.992 -0.729575 -0.160405 0
M  V30 3448 H 334.654 -1.92606 0.298155 0
M  V30 3449 H 333.75 -3.02672 -0.761312 0
M  V30 3450 N 334.051 0.0651679 -1.57465 0
M  V30 3451 C 334.981 1.07693 -2.07182 0
M  V30 3452 C 335.962 1.39962 -0.966673 0
M  V30 3453 O 337.147 1.49475 -1.2398 0
M  V30 3454 C 334.277 2.3885 -2.52127 0
M  V30 3455 C 333.231 2.20917 -3.66579 0
M  V30 3456 C 332.557 3.57515 -3.97601 0
M  V30 3457 C 333.857 1.62493 -4.9638 0
M  V30 3458 H 335.551 0.663199 -2.91962 0
M  V30 3459 H 333.097 0.317569 -1.40455 0
M  V30 3460 H 335.05 3.09928 -2.85522 0
M  V30 3461 H 333.774 2.82215 -1.64384 0
M  V30 3462 H 332.433 1.52279 -3.33477 0
M  V30 3463 H 332.081 3.98463 -3.06979 0
M  V30 3464 H 331.781 3.46353 -4.74672 0
M  V30 3465 H 333.305 4.30013 -4.33499 0
M  V30 3466 H 334.719 2.23445 -5.27963 0
M  V30 3467 H 333.116 1.62009 -5.77818 0
M  V30 3468 H 334.186 0.587041 -4.81333 0
M  V30 3469 N 335.529 1.53961 0.336706 0
M  V30 3470 C 336.459 1.85417 1.41925 0
M  V30 3471 C 337.44 0.709856 1.5458 0
M  V30 3472 O 338.625 0.962396 1.68676 0
M  V30 3473 C 335.755 2.06985 2.78881 0
M  V30 3474 C 334.709 3.22813 2.81026 0
M  V30 3475 C 334.035 3.29727 4.20932 0
M  V30 3476 C 335.335 4.60767 2.45949 0
M  V30 3477 H 337.029 2.76079 1.15848 0
M  V30 3478 H 334.575 1.32839 0.555859 0
M  V30 3479 H 336.528 2.27575 3.54665 0
M  V30 3480 H 335.252 1.13061 3.06406 0
M  V30 3481 H 333.911 3.0209 2.07695 0
M  V30 3482 H 333.559 2.33385 4.45579 0
M  V30 3483 H 333.259 4.07566 4.23277 0
M  V30 3484 H 334.783 3.52536 4.98549 0
M  V30 3485 H 336.197 4.81325 3.11446 0
M  V30 3486 H 334.594 5.4106 2.59566 0
M  V30 3487 H 335.664 4.6391 1.41122 0
M  V30 3488 N 337.007 -0.598083 1.45811 0
M  V30 3489 C 338.423 -0.919847 1.30426 0
M  V30 3490 C 338.623 -1.99759 0.264303 0
M  V30 3491 O 337.679 -2.50221 -0.338472 0
M  V30 3492 C 338.992 -1.35176 2.68603 0
M  V30 3493 C 340.54 -1.46546 2.76574 0
M  V30 3494 C 341.015 -1.9311 4.15298 0
M  V30 3495 N 342.506 -2.00328 4.1764 0
M  V30 3496 C 343.241 -2.37599 5.21856 0
M  V30 3497 N 342.737 -2.73771 6.36413 0
M  V30 3498 N 344.53 -2.38021 5.09218 0
M  V30 3499 H 336.681 0.114111 2.12093 0
M  V30 3500 H 338.944 -0.0116121 0.947929 0
M  V30 3501 H 338.65 -0.633969 3.45939 0
M  V30 3502 H 338.524 -2.3164 2.97696 0
M  V30 3503 H 340.911 -2.17415 1.99537 0
M  V30 3504 H 340.992 -0.483727 2.51185 0
M  V30 3505 H 340.636 -1.22824 4.92825 0
M  V30 3506 H 340.566 -2.92213 4.38086 0
M  V30 3507 H 343.057 -1.74925 3.34977 0
M  V30 3508 H 343.37 -3.0112 7.11721 0
M  V30 3509 H 341.715 -2.71445 6.39799 0
M  V30 3510 H 344.906 -2.09174 4.18765 0
M  V30 3511 H 345.079 -2.66741 5.90554 0
M  V30 3512 N 338.485 -1.33259 -0.841409 0
M  V30 3513 C 339.762 -1.15174 -1.58096 0
M  V30 3514 C 340.142 0.282858 -2.09196 0
M  V30 3515 O 339.49 1.28151 -1.89181 0
M  V30 3516 C 339.7 -2.1907 -2.71679 0
M  V30 3517 C 341.048 -2.53093 -3.40924 0
M  V30 3518 O 342.072 -2.17717 -2.81918 0
M  V30 3519 O 340.931 -3.1379 -4.47435 0
M  V30 3520 H 338.025 -0.445303 -0.696875 0
M  V30 3521 H 340.571 -1.44833 -0.884385 0
M  V30 3522 H 339.343 -3.15443 -2.31541 0
M  V30 3523 H 338.966 -1.90481 -3.49002 0
M  V30 3524 N 339.963 1.05934 -1.16686 0
M  V30 3525 C 341.211 1.78447 -0.948744 0
M  V30 3526 C 341.532 1.87813 0.524523 0
M  V30 3527 O 340.802 1.38945 1.38098 0
M  V30 3528 H 339.382 0.660971 -0.348033 0
M  V30 3529 H 342.044 1.27947 -1.47022 0
M  V30 3530 H 341.14 2.80394 -1.37061 0
M  V30 3531 N 341.441 0.965919 1.2453 0
M  V30 3532 C 342.669 0.644385 1.96609 0
M  V30 3533 C 343.084 -0.785823 1.71669 0
M  V30 3534 O 342.441 -1.52703 0.999399 0
M  V30 3535 C 342.492 0.907375 3.49927 0
M  V30 3536 O 342.213 2.28136 3.74013 0
M  V30 3537 C 343.714 0.599784 4.39224 0
M  V30 3538 H 340.934 0.240588 0.626385 0
M  V30 3539 H 343.478 1.29337 1.58405 0
M  V30 3540 H 341.633 0.304631 3.862 0
M  V30 3541 H 342.047 2.36002 4.68405 0
M  V30 3542 H 343.521 0.834263 5.45659 0
M  V30 3543 H 343.998 -0.465921 4.36722 0
M  V30 3544 H 344.604 1.18235 4.08535 0
M  V30 3545 N 342.919 -1.39368 0.735821 0
M  V30 3546 C 343.829 -2.34395 0.0979693 0
M  V30 3547 C 344.845 -1.58361 -0.720968 0
M  V30 3548 O 346.021 -1.90648 -0.649245 0
M  V30 3549 C 343.086 -3.37393 -0.797916 0
M  V30 3550 C 342.147 -4.29287 0.0333662 0
M  V30 3551 C 341.38 -5.27365 -0.819854 0
M  V30 3552 O 341.603 -5.31959 -2.05855 0
M  V30 3553 O 340.537 -6.01389 -0.248079 0
M  V30 3554 H 344.363 -2.90601 0.882315 0
M  V30 3555 H 341.948 -1.40909 0.4965 0
M  V30 3556 H 343.83 -4.00505 -1.31048 0
M  V30 3557 H 342.505 -2.83571 -1.56106 0
M  V30 3558 H 341.412 -3.69395 0.591475 0
M  V30 3559 H 342.745 -4.86317 0.758752 0
M  V30 3560 N 344.397 -0.483516 -1.5 0
M  V30 3561 C 345.643 0.0672592 -2.02688 0
M  V30 3562 C 345.976 1.38247 -1.36387 0
M  V30 3563 O 345.251 1.88131 -0.493675 0
M  V30 3564 C 345.534 0.238109 -3.59312 0
M  V30 3565 C 345.387 -1.099 -4.36168 0
M  V30 3566 C 346.706 0.986916 -4.28892 0
M  V30 3567 H 343.825 0.0229696 -0.736642 0
M  V30 3568 H 346.467 -0.631527 -1.79197 0
M  V30 3569 H 344.617 0.8333 -3.79458 0
M  V30 3570 H 346.289 -1.73172 -4.27562 0
M  V30 3571 H 344.532 -1.69261 -3.99416 0
M  V30 3572 H 345.203 -0.932954 -5.44059 0
M  V30 3573 H 347.679 0.482302 -4.13295 0
M  V30 3574 H 346.555 1.07527 -5.38265 0
M  V30 3575 H 346.816 2.0265 -3.92919 0
M  V30 3576 N 345.875 1.56104 -0.216619 0
M  V30 3577 C 346.838 2.18819 0.681962 0
M  V30 3578 C 347.838 1.14866 1.12528 0
M  V30 3579 O 349.028 1.40128 1.03488 0
M  V30 3580 C 346.16 2.80756 1.93362 0
M  V30 3581 H 347.353 2.99595 0.135254 0
M  V30 3582 H 344.906 1.56265 0.0330003 0
M  V30 3583 H 345.641 2.03837 2.52232 0
M  V30 3584 H 345.426 3.56876 1.62426 0
M  V30 3585 H 346.916 3.28844 2.57393 0
M  V30 3586 N 347.353 -0.0568162 1.57498 0
M  V30 3587 C 348.599 -0.75422 1.88253 0
M  V30 3588 C 348.932 -1.76461 0.810865 0
M  V30 3589 O 348.207 -1.93691 -0.177259 0
M  V30 3590 C 348.49 -1.44878 3.2967 0
M  V30 3591 C 348.343 -0.453789 4.47505 0
M  V30 3592 C 349.662 -2.38994 3.69554 0
M  V30 3593 H 346.781 -0.272724 0.684683 0
M  V30 3594 H 349.423 -0.0172113 1.89992 0
M  V30 3595 H 347.573 -2.077 3.28318 0
M  V30 3596 H 349.245 0.170371 4.60985 0
M  V30 3597 H 347.488 0.229552 4.33192 0
M  V30 3598 H 348.159 -0.977699 5.43273 0
M  V30 3599 H 350.635 -1.86239 3.72095 0
M  V30 3600 H 349.511 -2.84587 4.69363 0
M  V30 3601 H 349.772 -3.24461 3.00296 0
M  V30 3602 N 348.832 -1.54138 -0.328536 0
M  V30 3603 C 349.779 -1.83176 -1.40411 0
M  V30 3604 C 350.749 -0.678494 -1.5161 0
M  V30 3605 O 351.934 -0.92443 -1.6691 0
M  V30 3606 C 349.074 -2.06035 -2.76846 0
M  V30 3607 C 348.187 -3.33727 -2.74318 0
M  V30 3608 C 347.322 -3.46574 -4.02567 0
M  V30 3609 C 346.361 -4.68159 -3.94327 0
M  V30 3610 N 345.498 -4.77959 -5.14296 0
M  V30 3611 H 350.338 -2.74938 -1.14948 0
M  V30 3612 H 347.875 -1.36166 -0.556538 0
M  V30 3613 H 349.833 -2.1728 -3.56153 0
M  V30 3614 H 348.463 -1.1757 -3.00628 0
M  V30 3615 H 347.515 -3.31246 -1.8703 0
M  V30 3616 H 348.827 -4.23139 -2.64111 0
M  V30 3617 H 347.981 -3.57333 -4.90304 0
M  V30 3618 H 346.72 -2.55245 -4.15574 0
M  V30 3619 H 345.725 -4.57461 -3.04974 0
M  V30 3620 H 346.95 -5.60868 -3.82889 0
M  V30 3621 H 344.896 -3.89544 -5.27818 0
M  V30 3622 H 344.813 -5.6133 -5.06404 0
M  V30 3623 H 346.081 -4.93044 -6.03761 0
M  V30 3624 N 350.31 0.590341 -1.46126 0
M  V30 3625 C 351.559 1.34499 -1.50309 0
M  V30 3626 C 351.872 1.94977 -0.156021 0
M  V30 3627 O 353.078 2.71395 -0.0756037 0
M  V30 3628 C 351.534 2.43723 -2.64815 0
M  V30 3629 C 351.142 1.89582 -4.0591 0
M  V30 3630 C 352.886 3.20579 -2.78262 0
M  V30 3631 C 350.793 2.9639 -5.11769 0
M  V30 3632 H 349.723 0.505593 -0.559368 0
M  V30 3633 H 352.374 0.630848 -1.72315 0
M  V30 3634 H 350.756 3.17902 -2.36124 0
M  V30 3635 H 351.93 1.21997 -4.44357 0
M  V30 3636 H 350.245 1.25418 -3.97063 0
M  V30 3637 H 352.842 4.00276 -3.54519 0
M  V30 3638 H 353.185 3.72684 -1.85505 0
M  V30 3639 H 353.718 2.53505 -3.06562 0
M  V30 3640 H 350.457 2.49181 -6.06291 0
M  V30 3641 H 349.977 3.62487 -4.77873 0
M  V30 3642 H 351.656 3.60474 -5.37278 0
M  V30 3643 N 351.788 1.33704 0.83433 0
M  V30 3644 C 352.72 1.20172 1.9517 0
M  V30 3645 C 353.733 0.131572 1.62267 0
M  V30 3646 O 354.922 0.382406 1.74356 0
M  V30 3647 C 352.022 0.821716 3.28787 0
M  V30 3648 C 351.195 1.98446 3.89792 0
M  V30 3649 C 350.254 1.58469 5.01771 0
M  V30 3650 O 349.28 2.29968 5.20676 0
M  V30 3651 N 350.482 0.492291 5.78409 0
M  V30 3652 H 353.247 2.16429 2.07313 0
M  V30 3653 H 350.808 1.26509 1.0103 0
M  V30 3654 H 352.8 0.536291 4.01131 0
M  V30 3655 H 351.37 -0.0503058 3.1256 0
M  V30 3656 H 350.59 2.43526 3.09982 0
M  V30 3657 H 351.878 2.76236 4.27283 0
M  V30 3658 H 351.276 -0.102349 5.65607 0
M  V30 3659 H 349.833 0.266555 6.51255 0
M  V30 3660 N 353.266 -1.05314 1.17247 0
M  V30 3661 C 354.496 -1.81707 0.983166 0
M  V30 3662 C 354.904 -1.83222 -0.471822 0
M  V30 3663 O 354.247 -1.25721 -1.3394 0
M  V30 3664 C 354.309 -3.29134 1.44606 0
M  V30 3665 C 353.973 -3.51304 2.92292 0
M  V30 3666 C 354.97 -3.4353 3.90235 0
M  V30 3667 C 352.655 -3.78306 3.30439 0
M  V30 3668 C 354.649 -3.62442 5.24323 0
M  V30 3669 C 352.336 -3.96866 4.64694 0
M  V30 3670 C 353.334 -3.88933 5.61445 0
M  V30 3671 O 353.022 -4.06976 6.93272 0
M  V30 3672 H 352.754 -0.579476 0.348114 0
M  V30 3673 H 355.308 -1.33705 1.55924 0
M  V30 3674 H 353.538 -3.78046 0.813537 0
M  V30 3675 H 355.227 -3.87049 1.22262 0
M  V30 3676 H 355.993 -3.22648 3.62109 0
M  V30 3677 H 351.872 -3.83585 2.55702 0
M  V30 3678 H 355.416 -3.56165 5.99827 0
M  V30 3679 H 351.313 -4.1724 4.92525 0
M  V30 3680 H 352.081 -4.24209 6.99992 0
M  V30 3681 N 354.744 -0.972509 -1.24016 0
M  V30 3682 C 356.155 -0.67517 -1.74064 0
M  V30 3683 C 356.506 0.808939 -1.78747 0
M  V30 3684 O 355.631 1.63286 -1.42009 0
M  V30 3685 C 356.226 -1.21889 -3.16115 0
M  V30 3686 C 354.785 -0.971358 -3.6365 0
M  V30 3687 C 353.932 -1.35134 -2.42145 0
M  V30 3688 H 356.883 -1.14727 -1.09651 0
M  V30 3689 H 356.904 -0.587489 -3.75937 0
M  V30 3690 H 356.416 -2.29906 -3.12674 0
M  V30 3691 H 354.517 0.0930686 -3.72484 0
M  V30 3692 H 354.63 -1.62039 -4.50866 0
M  V30 3693 H 352.994 -0.769751 -2.4279 0
M  V30 3694 H 353.777 -2.4411 -2.41381 0
M  V30 3695 N 356.222 1.38976 -0.743202 0
M  V30 3696 C 357.47 1.99948 -0.29417 0
M  V30 3697 C 357.791 1.59279 1.12495 0
M  V30 3698 O 357.061 0.844808 1.76748 0
M  V30 3699 H 355.641 0.739473 -0.105774 0
M  V30 3700 H 358.303 1.699 -0.954986 0
M  V30 3701 H 357.399 3.10142 -0.349056 0
M  V30 3702 N 357.7 0.491464 1.49741 0
M  V30 3703 C 358.949 -0.0582189 2.01616 0
M  V30 3704 C 359.262 -1.38927 1.3769 0
M  V30 3705 O 360.468 -2.02509 1.80838 0
M  V30 3706 C 358.924 -0.154235 3.59569 0
M  V30 3707 C 358.532 1.1696 4.32463 0
M  V30 3708 C 360.276 -0.65479 4.1942 0
M  V30 3709 C 358.183 1.03627 5.8225 0
M  V30 3710 H 357.113 -0.0255317 0.753568 0
M  V30 3711 H 359.764 0.629445 1.72367 0
M  V30 3712 H 358.146 -0.906138 3.85493 0
M  V30 3713 H 359.32 1.93405 4.18248 0
M  V30 3714 H 357.635 1.60285 3.84315 0
M  V30 3715 H 360.232 -0.771903 5.29099 0
M  V30 3716 H 360.575 -1.65127 3.8215 0
M  V30 3717 H 361.108 0.040304 3.9778 0
M  V30 3718 H 357.847 2.00672 6.24028 0
M  V30 3719 H 357.367 0.312546 5.98985 0
M  V30 3720 H 359.046 0.711114 6.4308 0
M  V30 3721 N 359.178 -1.55987 0.224894 0
M  V30 3722 C 360.141 -2.19178 -0.670348 0
M  V30 3723 C 361.141 -1.15461 -1.11917 0
M  V30 3724 O 362.331 -1.40675 -1.02743 0
M  V30 3725 C 359.463 -2.81777 -1.9187 0
M  V30 3726 H 360.656 -2.99662 -0.119364 0
M  V30 3727 H 358.209 -1.5628 -0.0247128 0
M  V30 3728 H 358.944 -2.05172 -2.51147 0
M  V30 3729 H 358.729 -3.57732 -1.60531 0
M  V30 3730 H 360.219 -3.30205 -2.55645 0
M  V30 3731 N 360.656 0.0484629 -1.57525 0
M  V30 3732 C 361.588 1.08222 -2.02041 0
M  V30 3733 C 362.601 1.33621 -0.930012 0
M  V30 3734 O 363.79 1.3145 -1.20761 0
M  V30 3735 C 360.89 2.42818 -2.36416 0
M  V30 3736 C 360.063 2.37049 -3.67596 0
M  V30 3737 C 359.122 3.53937 -3.89378 0
M  V30 3738 O 358.148 3.34308 -4.60681 0
M  V30 3739 N 359.35 4.75126 -3.3352 0
M  V30 3740 H 362.115 0.702946 -2.9134 0
M  V30 3741 H 359.676 0.236745 -1.6016 0
M  V30 3742 H 361.668 3.197 -2.48141 0
M  V30 3743 H 360.238 2.72661 -1.52888 0
M  V30 3744 H 359.458 1.45395 -3.66407 0
M  V30 3745 H 360.746 2.30318 -4.53686 0
M  V30 3746 H 360.144 4.93976 -2.75688 0
M  V30 3747 H 358.701 5.49439 -3.50656 0
M  V30 3748 N 362.134 1.5431 0.320358 0
M  V30 3749 C 363.359 1.76954 1.08175 0
M  V30 3750 C 363.784 0.518193 1.80821 0
M  V30 3751 O 363.142 -0.530411 1.73368 0
M  V30 3752 C 363.19 2.96451 2.05303 0
M  V30 3753 O 362.294 2.68221 3.13259 0
M  V30 3754 H 361.635 0.586275 0.311733 0
M  V30 3755 H 364.165 2.01342 0.363676 0
M  V30 3756 H 364.175 3.23887 2.48116 0
M  V30 3757 H 362.85 3.87196 1.51829 0
M  V30 3758 H 361.427 2.51744 2.75099 0
M  V30 3759 N 363.613 -0.582584 1.46437 0
M  V30 3760 C 364.862 -1.337 1.5102 0
M  V30 3761 C 365.175 -1.94891 0.166359 0
M  V30 3762 O 366.381 -2.71351 0.0899954 0
M  V30 3763 C 364.837 -2.42315 2.66104 0
M  V30 3764 C 364.445 -1.87427 4.06909 0
M  V30 3765 C 366.189 -3.19099 2.79958 0
M  V30 3766 C 364.096 -2.93672 5.13333 0
M  V30 3767 H 363.026 -0.502619 0.562041 0
M  V30 3768 H 365.677 -0.621701 1.72647 0
M  V30 3769 H 364.059 -3.16645 2.37807 0
M  V30 3770 H 365.233 -1.19639 4.44998 0
M  V30 3771 H 363.548 -1.2331 3.97723 0
M  V30 3772 H 366.145 -3.9839 3.56636 0
M  V30 3773 H 366.488 -3.71695 1.87479 0
M  V30 3774 H 367.021 -2.51875 3.07902 0
M  V30 3775 H 363.76 -2.45962 6.07604 0
M  V30 3776 H 363.28 -3.59948 4.79789 0
M  V30 3777 H 364.959 -3.5762 5.39182 0
M  V30 3778 N 365.091 -1.34144 -0.827227 0
M  V30 3779 C 366.023 -1.21206 -1.9453 0
M  V30 3780 C 367.036 -0.140176 -1.62195 0
M  V30 3781 O 368.225 -0.391647 -1.7415 0
M  V30 3782 C 365.325 -0.839141 -3.28347 0
M  V30 3783 C 364.498 -2.0051 -3.88734 0
M  V30 3784 C 363.557 -1.61128 -5.00923 0
M  V30 3785 O 362.583 -2.32726 -5.19449 0
M  V30 3786 N 363.785 -0.522958 -5.7814 0
M  V30 3787 H 366.55 -2.17525 -2.06162 0
M  V30 3788 H 364.111 -1.27043 -1.00358 0
M  V30 3789 H 366.103 -0.557556 -4.00841 0
M  V30 3790 H 364.673 0.0337293 -3.12582 0
M  V30 3791 H 363.893 -2.45166 -3.08686 0
M  V30 3792 H 365.181 -2.78498 -4.25812 0
M  V30 3793 H 364.579 0.0723518 -5.65654 0
M  V30 3794 H 363.136 -0.301089 -6.51104 0
M  V30 3795 N 366.569 1.04691 -1.17803 0
M  V30 3796 C 367.794 1.81984 -0.994813 0
M  V30 3797 C 368.219 1.82586 0.452112 0
M  V30 3798 O 367.577 1.23854 1.324 0
M  V30 3799 C 367.625 3.2575 -1.54659 0
M  V30 3800 O 366.729 4.05267 -0.763728 0
M  V30 3801 H 366.07 0.562483 -0.352857 0
M  V30 3802 H 368.6 1.3189 -1.56417 0
M  V30 3803 H 368.61 3.76541 -1.57102 0
M  V30 3804 H 367.285 3.24627 -2.59981 0
M  V30 3805 H 365.862 3.63972 -0.811108 0
M  V30 3806 N 368.047 0.979072 1.23499 0
M  V30 3807 C 369.324 0.563674 1.87302 0
M  V30 3808 C 369.704 -0.959199 1.88049 0
M  V30 3809 O 369.052 -1.83535 1.36114 0
M  V30 3810 C 369.262 1.16822 3.28867 0
M  V30 3811 C 370.61 1.26014 4.0547 0
M  V30 3812 O 371.634 1.12158 3.38082 0
M  V30 3813 O 370.493 1.48044 5.26066 0
M  V30 3814 H 367.587 0.189602 0.804972 0
M  V30 3815 H 370.133 1.07407 1.31384 0
M  V30 3816 H 368.905 2.21049 3.22883 0
M  V30 3817 H 368.528 0.642564 3.92373 0
M  V30 3818 N 369.525 -1.3858 0.750561 0
M  V30 3819 C 370.771 -2.00481 0.305825 0
M  V30 3820 C 371.104 -1.5944 -1.10872 0
M  V30 3821 O 370.379 -0.83052 -1.75877 0
M  V30 3822 C 370.662 -3.5758 0.425287 0
M  V30 3823 C 370.515 -4.08594 1.88072 0
M  V30 3824 C 371.834 -4.39719 -0.183122 0
M  V30 3825 H 368.953 -0.728348 0.112598 0
M  V30 3826 H 371.595 -1.64566 0.949638 0
M  V30 3827 H 369.745 -3.88306 -0.122828 0
M  V30 3828 H 371.417 -3.88523 2.48691 0
M  V30 3829 H 369.66 -3.61574 2.39681 0
M  V30 3830 H 370.331 -5.177 1.91548 0
M  V30 3831 H 372.807 -4.15128 0.284303 0
M  V30 3832 H 371.683 -5.48856 -0.0692757 0
M  V30 3833 H 371.944 -4.23434 -1.27106 0
M  V30 3834 N 371.003 -0.499398 -1.49478 0
M  V30 3835 C 371.935 0.316575 -2.27003 0
M  V30 3836 C 372.948 0.932047 -1.33479 0
M  V30 3837 O 374.137 0.815658 -1.58774 0
M  V30 3838 C 371.237 1.46055 -3.05812 0
M  V30 3839 C 370.41 0.952679 -4.26899 0
M  V30 3840 C 369.469 1.97407 -4.87767 0
M  V30 3841 O 368.495 1.54326 -5.4788 0
M  V30 3842 N 369.697 3.30436 -4.77276 0
M  V30 3843 H 372.462 -0.348168 -2.97671 0
M  V30 3844 H 370.023 -0.33185 -1.58463 0
M  V30 3845 H 372.015 2.14135 -3.43407 0
M  V30 3846 H 370.585 2.02948 -2.37762 0
M  V30 3847 H 369.805 0.0968248 -3.94081 0
M  V30 3848 H 371.093 0.59174 -5.05347 0
M  V30 3849 H 370.491 3.68126 -4.29534 0
M  V30 3850 H 369.048 3.94235 -5.19059 0
M  V30 3851 N 372.481 1.55866 -0.233164 0
M  V30 3852 C 373.429 2.22176 0.68851 0
M  V30 3853 C 374.423 1.20487 1.19076 0
M  V30 3854 O 375.629 1.38536 1.14925 0
M  V30 3855 H 372.004 0.712511 0.240483 0
M  V30 3856 H 373.975 2.98212 0.105935 0
M  V30 3857 C 372.724 2.92446 1.88071 0
M  V30 3858 H 372.047 3.70458 1.50337 0
M  V30 3859 H 373.487 3.42226 2.50314 0
M  V30 3860 C 371.946 1.95555 2.74335 0
M  V30 3861 O 372.476 1.47986 3.73447 0
M  V30 3862 N 370.682 1.62953 2.40613 0
M  V30 3863 H 370.229 2.01831 1.60069 0
M  V30 3864 H 370.187 0.983886 2.98609 0
M  V30 3865 N 373.959 -0.0401083 1.57549 0
M  V30 3866 C 374.889 -1.04384 2.08869 0
M  V30 3867 C 375.87 -1.38407 0.988817 0
M  V30 3868 O 377.055 -1.47483 1.26342 0
M  V30 3869 C 374.185 -2.34808 2.55895 0
M  V30 3870 C 373.139 -2.15057 3.70047 0
M  V30 3871 C 372.465 -3.51145 4.03239 0
M  V30 3872 C 373.765 -1.54576 4.98902 0
M  V30 3873 H 375.459 -0.616666 2.92981 0
M  V30 3874 H 373.005 -0.295184 1.40942 0
M  V30 3875 H 374.958 -3.05346 2.90417 0
M  V30 3876 H 373.682 -2.79565 1.68853 0
M  V30 3877 H 372.341 -1.46954 3.35857 0
M  V30 3878 H 371.989 -3.93529 3.13279 0
M  V30 3879 H 371.689 -3.38758 4.80122 0
M  V30 3880 H 373.213 -4.23062 4.40285 0
M  V30 3881 H 374.627 -2.15017 5.31451 0
M  V30 3882 H 373.024 -1.52796 5.80322 0
M  V30 3883 H 374.094 -0.51039 4.82206 0
M  V30 3884 N 375.437 -1.54477 -0.31217 0
M  V30 3885 C 376.367 -1.87652 -1.38957 0
M  V30 3886 C 377.348 -0.734358 -1.53431 0
M  V30 3887 O 378.533 -0.98911 -1.67123 0
M  V30 3888 C 375.663 -2.11396 -2.75552 0
M  V30 3889 C 374.617 -3.27243 -2.75855 0
M  V30 3890 C 373.943 -3.36382 -4.15633 0
M  V30 3891 C 375.243 -4.64622 -2.38587 0
M  V30 3892 H 376.937 -2.77887 -1.11442 0
M  V30 3893 H 374.483 -1.33707 -0.534655 0
M  V30 3894 H 376.436 -2.33189 -3.51 0
M  V30 3895 H 375.16 -1.17921 -3.04569 0
M  V30 3896 H 373.819 -3.05356 -2.02863 0
M  V30 3897 H 373.467 -2.40445 -4.41809 0
M  V30 3898 H 373.167 -4.14249 -4.1674 0
M  V30 3899 H 374.691 -3.60422 -4.92877 0
M  V30 3900 H 376.105 -4.86219 -3.03749 0
M  V30 3901 H 374.502 -5.45121 -2.50925 0
M  V30 3902 H 375.572 -4.66097 -1.33723 0
M  V30 3903 N 376.915 0.57481 -1.46744 0
M  V30 3904 C 377.878 1.66533 -1.57478 0
M  V30 3905 C 378.878 1.54338 -0.451263 0
M  V30 3906 O 380.068 1.58814 -0.715813 0
M  V30 3907 C 377.2 3.05999 -1.50259 0
M  V30 3908 H 378.393 1.58372 -2.54673 0
M  V30 3909 H 375.946 0.793301 -1.34672 0
M  V30 3910 H 376.681 3.19709 -0.543725 0
M  V30 3911 H 376.466 3.16259 -2.31781 0
M  V30 3912 H 377.956 3.8537 -1.60872 0
M  V30 3913 N 378.394 1.34581 0.820102 0
M  V30 3914 C 379.64 1.27285 1.57881 0
M  V30 3915 C 379.973 -0.156137 1.93571 0
M  V30 3916 O 379.248 -1.10222 1.60254 0
M  V30 3917 C 379.531 2.16639 2.87645 0
M  V30 3918 C 379.384 3.68088 2.58517 0
M  V30 3919 C 380.703 2.05378 3.8924 0
M  V30 3920 H 377.822 0.463714 0.572833 0
M  V30 3921 H 380.464 1.64859 0.944539 0
M  V30 3922 H 378.614 1.84725 3.41773 0
M  V30 3923 H 380.286 4.10382 2.10676 0
M  V30 3924 H 378.529 3.89038 1.91917 0
M  V30 3925 H 379.2 4.2598 3.51063 0
M  V30 3926 H 381.676 2.33404 3.44473 0
M  V30 3927 H 380.552 2.7012 4.77835 0
M  V30 3928 H 380.813 1.0316 4.29896 0
M  V30 3929 N 379.872 -1.04064 1.18357 0
M  V30 3930 C 380.802 -2.14001 0.934113 0
M  V30 3931 C 381.783 -1.69616 -0.128186 0
M  V30 3932 O 382.968 -1.94185 0.0244093 0
M  V30 3933 C 380.098 -3.44253 0.459066 0
M  V30 3934 C 379.052 -4.02261 1.46185 0
M  V30 3935 C 378.378 -5.27992 0.844322 0
M  V30 3936 C 379.678 -4.38432 2.83856 0
M  V30 3937 H 381.372 -2.35127 1.85352 0
M  V30 3938 H 378.918 -1.12998 0.892604 0
M  V30 3939 H 380.871 -4.20522 0.271907 0
M  V30 3940 H 379.595 -3.22813 -0.495912 0
M  V30 3941 H 378.254 -3.28074 1.63595 0
M  V30 3942 H 377.902 -5.02862 -0.117845 0
M  V30 3943 H 377.602 -5.67765 1.51384 0
M  V30 3944 H 379.126 -6.06938 0.667693 0
M  V30 3945 H 380.54 -5.05688 2.70098 0
M  V30 3946 H 378.937 -4.89254 3.47491 0
M  V30 3947 H 380.007 -3.4826 3.37406 0
M  V30 3948 N 381.35 -0.985608 -1.22978 0
M  V30 3949 C 382.297 -0.529825 -2.24636 0
M  V30 3950 C 383.267 0.434028 -1.60329 0
M  V30 3951 O 384.452 0.340414 -1.87739 0
M  V30 3952 C 381.592 0.156533 -3.44745 0
M  V30 3953 C 380.705 -0.848197 -4.23591 0
M  V30 3954 C 379.84 -0.136109 -5.31026 0
M  V30 3955 C 378.879 -1.1297 -6.01585 0
M  V30 3956 N 378.016 -0.446415 -7.00679 0
M  V30 3957 H 382.856 -1.40148 -2.62988 0
M  V30 3958 H 380.393 -0.702168 -1.29259 0
M  V30 3959 H 382.351 0.571324 -4.1327 0
M  V30 3960 H 380.981 0.992025 -3.07179 0
M  V30 3961 H 380.033 -1.38135 -3.54433 0
M  V30 3962 H 381.345 -1.60512 -4.72268 0
M  V30 3963 H 380.499 0.335784 -6.0577 0
M  V30 3964 H 379.238 0.653373 -4.83304 0
M  V30 3965 H 378.243 -1.6123 -5.25628 0
M  V30 3966 H 379.468 -1.91993 -6.51395 0
M  V30 3967 H 377.414 0.323763 -6.55201 0
M  V30 3968 H 377.331 -1.1419 -7.47326 0
M  V30 3969 H 378.599 0.00291697 -7.795 0
M  V30 3970 N 382.828 1.3818 -0.7579 0
M  V30 3971 C 383.761 2.28055 -0.0814093 0
M  V30 3972 C 384.739 1.45603 0.723779 0
M  V30 3973 O 385.923 1.74961 0.701491 0
M  V30 3974 C 383.05 3.2676 0.891394 0
M  V30 3975 C 382.096 4.26153 0.171909 0
M  V30 3976 S 382.929 5.23434 -1.13035 0
M  V30 3977 C 384.085 6.25694 -0.160727 0
M  V30 3978 H 384.318 2.85082 -0.84353 0
M  V30 3979 H 381.851 1.44246 -0.550671 0
M  V30 3980 H 383.809 3.8414 1.44731 0
M  V30 3981 H 382.47 2.68706 1.62652 0
M  V30 3982 H 381.663 4.95738 0.908843 0
M  V30 3983 H 381.265 3.72691 -0.312606 0
M  V30 3984 H 383.557 6.74161 0.671773 0
M  V30 3985 H 384.5 7.03285 -0.824353 0
M  V30 3986 H 384.908 5.64064 0.221892 0
M  V30 3987 N 384.306 0.507319 1.49211 0
M  V30 3988 C 385.531 -0.033725 2.07373 0
M  V30 3989 C 385.956 -1.29485 1.36437 0
M  V30 3990 O 385.314 -1.76294 0.423087 0
M  V30 3991 C 385.362 -0.263945 3.59633 0
M  V30 3992 O 384.466 -1.33737 3.90113 0
M  V30 3993 H 383.807 0.0290331 0.663365 0
M  V30 3994 H 386.337 0.708749 1.91932 0
M  V30 3995 H 386.347 -0.493536 4.05004 0
M  V30 3996 H 385.022 0.657424 4.10671 0
M  V30 3997 H 383.599 -1.09224 3.56545 0
M  V30 3998 N 385.784 -1.5574 0.241426 0
M  V30 3999 C 386.747 -2.19877 -0.647063 0
M  V30 4000 C 387.747 -1.16642 -1.10686 0
M  V30 4001 O 388.937 -1.41757 -1.01245 0
M  V30 4002 C 386.069 -2.83797 -1.88871 0
M  V30 4003 H 387.262 -2.99772 -0.087574 0
M  V30 4004 H 384.815 -1.56298 -0.00813574 0
M  V30 4005 H 385.55 -2.07824 -2.48957 0
M  V30 4006 H 385.335 -3.59414 -1.56728 0
M  V30 4007 H 386.825 -3.32898 -2.52129 0
M  V30 4008 N 387.262 0.0317525 -1.57568 0
M  V30 4009 C 388.225 1.01783 -2.0536 0
M  V30 4010 C 389.225 1.29203 -0.957253 0
M  V30 4011 O 390.415 1.24251 -1.22095 0
M  V30 4012 C 387.547 2.35137 -2.46827 0
M  V30 4013 H 388.74 0.605062 -2.93733 0
M  V30 4014 H 386.293 0.278514 -1.53799 0
M  V30 4015 H 387.028 2.81168 -1.61602 0
M  V30 4016 H 386.813 2.16566 -3.26866 0
M  V30 4017 H 388.303 3.05938 -2.84239 0
M  V30 4018 N 388.74 1.54641 0.303973 0
M  V30 4019 C 389.67 1.88386 1.3796 0
M  V30 4020 C 390.651 0.742485 1.5304 0
M  V30 4021 O 391.836 0.997959 1.66597 0
M  V30 4022 C 388.966 2.12854 2.74427 0
M  V30 4023 C 387.92 3.28702 2.74115 0
M  V30 4024 C 387.246 3.38582 4.13844 0
M  V30 4025 C 388.546 4.65881 2.3612 0
M  V30 4026 H 390.24 2.78474 1.09966 0
M  V30 4027 H 387.786 1.33988 0.527556 0
M  V30 4028 H 389.739 2.35047 3.49758 0
M  V30 4029 H 388.463 1.19535 3.03939 0
M  V30 4030 H 387.122 3.06428 2.0124 0
M  V30 4031 H 386.77 2.42784 4.40528 0
M  V30 4032 H 386.47 4.16453 4.14537 0
M  V30 4033 H 387.994 3.63031 4.90959 0
M  V30 4034 H 389.408 4.87823 3.01167 0
M  V30 4035 H 387.805 5.46444 2.48031 0
M  V30 4036 H 388.875 4.66799 1.3125 0
M  V30 4037 N 390.218 -0.567019 1.47046 0
M  V30 4038 C 391.629 -1.14916 1.47143 0
M  V30 4039 C 391.98 -1.94954 0.220767 0
M  V30 4040 O 391.105 -2.05602 -0.67505 0
M  V30 4041 C 391.7 -2.09069 2.666 0
M  V30 4042 C 390.259 -2.62575 2.69687 0
M  V30 4043 C 389.406 -1.38755 2.40088 0
M  V30 4044 H 392.357 -0.354126 1.54699 0
M  V30 4045 H 392.378 -2.92789 2.43011 0
M  V30 4046 H 391.89 -1.50789 3.57609 0
M  V30 4047 H 389.991 -3.24681 1.82792 0
M  V30 4048 H 390.104 -3.04239 3.70102 0
M  V30 4049 H 388.468 -1.69098 1.90468 0
M  V30 4050 H 389.251 -0.822822 3.33293 0
M  V30 4051 N 391.696 -1.35014 -0.812953 0
M  V30 4052 C 392.659 -1.27292 -1.90602 0
M  V30 4053 C 393.659 -0.185817 -1.59723 0
M  V30 4054 O 394.849 -0.439102 -1.68575 0
M  V30 4055 C 391.981 -0.967676 -3.26877 0
M  V30 4056 H 393.174 -2.24479 -1.9887 0
M  V30 4057 H 390.727 -1.19446 -1.00808 0
M  V30 4058 H 391.462 0.0005954 -3.243 0
M  V30 4059 H 391.247 -1.75412 -3.50675 0
M  V30 4060 H 392.737 -0.939085 -4.06904 0
M  V30 4061 N 393.175 1.03435 -1.18907 0
M  V30 4062 C 394.423 1.76394 -0.986382 0
M  V30 4063 C 394.744 1.88883 0.484567 0
M  V30 4064 O 394.014 1.41843 1.3512 0
M  V30 4065 H 392.594 0.65344 -0.361975 0
M  V30 4066 H 395.256 1.248 -1.49703 0
M  V30 4067 H 394.352 2.77424 -1.42978 0
M  V30 4068 N 394.653 0.992116 1.22453 0
M  V30 4069 C 395.583 0.561677 2.26644 0
M  V30 4070 C 396.564 -0.411055 1.65059 0
M  V30 4071 O 397.749 -0.301861 1.9184 0
M  V30 4072 C 394.879 -0.125247 3.47074 0
M  V30 4073 C 393.833 0.765948 4.21091 0
M  V30 4074 C 393.159 -0.0538484 5.34673 0
M  V30 4075 C 394.459 2.06242 4.79856 0
M  V30 4076 H 396.153 1.43259 2.62902 0
M  V30 4077 H 393.699 0.690283 1.26377 0
M  V30 4078 H 395.652 -0.437764 4.1912 0
M  V30 4079 H 394.376 -1.03069 3.0991 0
M  V30 4080 H 393.035 1.0621 3.50878 0
M  V30 4081 H 392.683 -0.960188 4.9375 0
M  V30 4082 H 392.383 0.539415 5.85119 0
M  V30 4083 H 393.907 -0.360477 6.09535 0
M  V30 4084 H 395.321 1.8139 5.43848 0
M  V30 4085 H 393.718 2.60444 5.40638 0
M  V30 4086 H 394.788 2.74167 3.99951 0
M  V30 4087 N 396.131 -1.37776 0.765217 0
M  V30 4088 C 397.378 -1.99849 0.326588 0
M  V30 4089 C 397.706 -1.60746 -1.09504 0
M  V30 4090 O 396.961 -0.84202 -1.76659 0
M  V30 4091 C 397.26 -3.5504 0.410053 0
M  V30 4092 C 396.926 -4.13891 1.78899 0
M  V30 4093 C 395.588 -4.29678 2.16635 0
M  V30 4094 C 397.94 -4.46236 2.69301 0
M  V30 4095 C 395.268 -4.7511 3.44221 0
M  V30 4096 C 397.62 -4.93089 3.9629 0
M  V30 4097 C 396.284 -5.07082 4.34078 0
M  V30 4098 H 395.554 -0.7313 0.119507 0
M  V30 4099 H 398.201 -1.64645 0.977968 0
M  V30 4100 H 396.506 -3.90451 -0.324878 0
M  V30 4101 H 398.203 -4.00966 0.0520699 0
M  V30 4102 H 394.793 -4.02026 1.48569 0
M  V30 4103 H 398.977 -4.3363 2.41409 0
M  V30 4104 H 394.233 -4.84129 3.73402 0
M  V30 4105 H 398.407 -5.17084 4.66472 0
M  V30 4106 H 396.034 -5.42046 5.33001 0
M  V30 4107 N 397.609 -0.515225 -1.4894 0
M  V30 4108 C 398.572 0.244681 -2.2789 0
M  V30 4109 C 399.572 0.881166 -1.34507 0
M  V30 4110 O 400.762 0.743497 -1.57537 0
M  V30 4111 C 397.894 1.35247 -3.12923 0
M  V30 4112 H 399.087 -0.448289 -2.96531 0
M  V30 4113 H 396.64 -0.270656 -1.53939 0
M  V30 4114 H 397.375 2.07916 -2.48881 0
M  V30 4115 H 397.16 0.901374 -3.81599 0
M  V30 4116 H 398.65 1.88737 -3.72516 0
M  V30 4117 N 399.087 1.5561 -0.249682 0
M  V30 4118 C 399.997 2.25143 0.659375 0
M  V30 4119 C 401.013 1.2685 1.19101 0
M  V30 4120 O 402.189 1.59732 1.22669 0
M  V30 4121 C 399.254 2.93945 1.8384 0
M  V30 4122 C 398.315 4.07655 1.34596 0
M  V30 4123 C 397.548 4.73167 2.46878 0
M  V30 4124 O 397.771 4.37768 3.65671 0
M  V30 4125 O 396.705 5.61623 2.16478 0
M  V30 4126 H 400.531 3.03545 0.0968698 0
M  V30 4127 H 398.116 1.49389 -0.018074 0
M  V30 4128 H 399.998 3.37271 2.52638 0
M  V30 4129 H 398.673 2.18481 2.38847 0
M  V30 4130 H 397.58 3.68839 0.625174 0
M  V30 4131 H 398.913 4.84946 0.841941 0
M  V30 4132 N 400.565 -0.0233959 1.57583 0
M  V30 4133 C 401.497 -1.04994 2.03737 0
M  V30 4134 C 402.51 -1.32125 0.951152 0
M  V30 4135 O 403.699 -1.29512 1.22837 0
M  V30 4136 C 400.799 -2.39026 2.40249 0
M  V30 4137 C 399.972 -2.31171 3.7132 0
M  V30 4138 C 399.031 -3.47698 3.94959 0
M  V30 4139 O 398.057 -3.26937 4.65941 0
M  V30 4140 N 399.259 -4.6976 3.41037 0
M  V30 4141 H 402.024 -0.656507 2.92421 0
M  V30 4142 H 399.585 -0.211235 1.60516 0
M  V30 4143 H 401.577 -3.15712 2.53196 0
M  V30 4144 H 400.147 -2.70194 1.57207 0
M  V30 4145 H 399.367 -1.39547 3.68674 0
M  V30 4146 H 400.655 -2.23071 4.57293 0
M  V30 4147 H 400.053 -4.89528 2.83512 0
M  V30 4148 H 398.61 -5.43791 3.59353 0
M  V30 4149 N 402.043 -1.548 -0.295768 0
M  V30 4150 C 403.268 -1.78653 -1.05346 0
M  V30 4151 C 403.693 -0.546894 -1.79974 0
M  V30 4152 O 403.051 0.502763 -1.7419 0
M  V30 4153 C 403.099 -2.99679 -2.00561 0
M  V30 4154 O 402.203 -2.7317 -3.08953 0
M  V30 4155 H 401.544 -0.59116 -0.302367 0
M  V30 4156 H 404.074 -2.01895 -0.331598 0
M  V30 4157 H 404.084 -3.27793 -2.42932 0
M  V30 4158 H 402.759 -3.89562 -1.4565 0
M  V30 4159 H 401.336 -2.56089 -2.71059 0
M  V30 4160 N 403.521 0.559213 -1.47345 0
M  V30 4161 C 404.451 1.67622 -1.62558 0
M  V30 4162 C 405.432 1.63331 -0.475087 0
M  V30 4163 O 406.617 1.80983 -0.704182 0
M  V30 4164 C 403.747 3.0626 -1.63774 0
M  V30 4165 C 402.701 3.25397 -2.7803 0
M  V30 4166 C 402.027 4.64801 -2.64318 0
M  V30 4167 C 403.327 3.10965 -4.19641 0
M  V30 4168 H 405.021 1.55146 -2.56067 0
M  V30 4169 H 402.567 0.744961 -1.23233 0
M  V30 4170 H 404.52 3.84247 -1.73008 0
M  V30 4171 H 403.244 3.1969 -0.66825 0
M  V30 4172 H 401.903 2.49817 -2.68304 0
M  V30 4173 H 401.551 4.75028 -1.65401 0
M  V30 4174 H 401.251 4.78555 -3.40968 0
M  V30 4175 H 402.775 5.44926 -2.75478 0
M  V30 4176 H 404.189 3.78772 -4.30354 0
M  V30 4177 H 402.586 3.36229 -4.97062 0
M  V30 4178 H 403.656 2.07736 -4.38148 0
M  V30 4179 N 404.999 1.35443 0.805782 0
M  V30 4180 C 405.931 1.24285 1.92577 0
M  V30 4181 C 406.944 0.165962 1.61952 0
M  V30 4182 O 408.133 0.419303 1.73505 0
M  V30 4183 C 405.233 0.891272 3.2697 0
M  V30 4184 C 404.406 2.06669 3.85495 0
M  V30 4185 C 403.465 1.69077 4.98297 0
M  V30 4186 O 402.491 2.4096 5.15681 0
M  V30 4187 N 403.693 0.614869 5.77234 0
M  V30 4188 H 406.458 2.20777 2.02676 0
M  V30 4189 H 404.019 1.28623 0.983243 0
M  V30 4190 H 406.011 0.621256 3.99903 0
M  V30 4191 H 404.581 0.016004 3.12596 0
M  V30 4192 H 403.801 2.50046 3.04747 0
M  V30 4193 H 405.089 2.85237 4.21328 0
M  V30 4194 H 404.487 0.017648 5.65697 0
M  V30 4195 H 403.044 0.404636 6.50543 0
M  V30 4196 N 406.477 -1.02803 1.19454 0
M  V30 4197 C 407.44 -2.09264 0.934955 0
M  V30 4198 C 408.44 -1.60576 -0.0849015 0
M  V30 4199 O 409.63 -1.73554 0.149933 0
M  V30 4200 C 406.762 -3.38482 0.40531 0
M  V30 4201 H 407.955 -2.33726 1.87916 0
M  V30 4202 H 405.508 -1.19426 1.00832 0
M  V30 4203 H 406.243 -3.19689 -0.544899 0
M  V30 4204 H 406.028 -3.75142 1.14065 0
M  V30 4205 H 407.518 -4.16894 0.242806 0
M  V30 4206 N 407.956 -0.998596 -1.21925 0
M  V30 4207 C 408.886 -0.573688 -2.26343 0
M  V30 4208 C 409.867 0.402296 -1.65274 0
M  V30 4209 O 411.052 0.291683 -1.91997 0
M  V30 4210 C 408.182 0.106839 -3.47136 0
M  V30 4211 C 407.136 -0.788269 -4.20678 0
M  V30 4212 C 406.462 0.0254927 -5.34694 0
M  V30 4213 C 407.762 -2.08784 -4.78755 0
M  V30 4214 H 409.456 -1.44651 -2.62138 0
M  V30 4215 H 407.002 -0.696975 -1.26009 0
M  V30 4216 H 408.955 0.415531 -4.19346 0
M  V30 4217 H 407.679 1.01424 -3.10452 0
M  V30 4218 H 406.338 -1.08069 -3.50309 0
M  V30 4219 H 405.986 0.933989 -4.94253 0
M  V30 4220 H 405.686 -0.570437 -5.84825 0
M  V30 4221 H 407.21 0.328147 -6.09718 0
M  V30 4222 H 408.624 -1.84272 -5.42878 0
M  V30 4223 H 407.021 -2.63307 -5.39249 0
M  V30 4224 H 408.091 -2.76284 -3.98491 0
M  V30 4225 N 409.434 1.37368 -0.772513 0
M  V30 4226 C 410.366 2.28899 -0.117502 0
M  V30 4227 C 411.379 1.4867 0.663405 0
M  V30 4228 O 412.568 1.71314 0.501372 0
M  V30 4229 C 409.668 3.2788 0.857192 0
M  V30 4230 C 408.841 4.37207 0.129938 0
M  V30 4231 C 407.9 5.16257 1.01811 0
M  V30 4232 O 406.926 5.67159 0.481601 0
M  V30 4233 N 408.128 5.31058 2.3443 0
M  V30 4234 H 410.893 2.85752 -0.903662 0
M  V30 4235 H 408.454 1.49353 -0.62493 0
M  V30 4236 H 410.446 3.77647 1.45482 0
M  V30 4237 H 409.016 2.7179 1.54432 0
M  V30 4238 H 408.236 3.88827 -0.648605 0
M  V30 4239 H 409.524 5.07434 -0.372559 0
M  V30 4240 H 408.922 4.91287 2.80452 0
M  V30 4241 H 407.479 5.84131 2.89197 0
M  V30 4242 N 410.912 0.523116 1.48665 0
M  V30 4243 C 411.844 -0.280421 2.27478 0
M  V30 4244 C 412.857 -0.910694 1.34945 0
M  V30 4245 O 414.046 -0.790295 1.60052 0
M  V30 4246 C 411.146 -1.41171 3.08097 0
M  V30 4247 C 410.319 -0.884642 4.28361 0
M  V30 4248 C 409.378 -1.89622 4.90846 0
M  V30 4249 O 408.404 -1.4559 5.50265 0
M  V30 4250 N 409.606 -3.22801 4.82472 0
M  V30 4251 H 412.371 0.395481 2.97079 0
M  V30 4252 H 409.932 0.357018 1.57915 0
M  V30 4253 H 411.924 -2.08645 3.4677 0
M  V30 4254 H 410.494 -1.99139 2.40961 0
M  V30 4255 H 409.714 -0.0341177 3.94185 0
M  V30 4256 H 411.002 -0.511268 5.06225 0
M  V30 4257 H 410.4 -3.61246 4.35336 0
M  V30 4258 H 408.957 -3.85927 5.25265 0
M  V30 4259 N 412.39 -1.55475 0.257931 0
M  V30 4260 C 413.3 -2.2549 -0.647425 0
M  V30 4261 C 414.316 -1.2748 -1.18427 0
M  V30 4262 O 415.492 -1.6038 -1.2182 0
M  V30 4263 C 412.557 -2.94916 -1.82278 0
M  V30 4264 C 411.618 -4.08363 -1.32432 0
M  V30 4265 C 410.851 -4.74469 -2.44366 0
M  V30 4266 O 411.074 -4.39701 -3.63344 0
M  V30 4267 O 410.008 -5.62763 -2.13497 0
M  V30 4268 H 413.834 -3.03593 -0.0807707 0
M  V30 4269 H 411.419 -1.49377 0.0259962 0
M  V30 4270 H 413.301 -3.38606 -2.50846 0
M  V30 4271 H 411.976 -2.19744 -2.37685 0
M  V30 4272 H 410.883 -3.69166 -0.605605 0
M  V30 4273 H 412.216 -4.85385 -0.816211 0
M  V30 4274 N 413.868 0.0150385 -1.57593 0
M  V30 4275 C 414.798 1.01047 -2.10503 0
M  V30 4276 C 415.779 1.36816 -1.01071 0
M  V30 4277 O 416.964 1.45455 -1.28672 0
M  V30 4278 C 414.094 2.30708 -2.59598 0
M  V30 4279 C 413.048 2.09142 -3.73421 0
M  V30 4280 C 412.374 3.44685 -4.08774 0
M  V30 4281 C 413.674 1.46619 -5.01298 0
M  V30 4282 H 415.368 0.569978 -2.93925 0
M  V30 4283 H 412.914 0.272724 -1.41394 0
M  V30 4284 H 414.867 3.00687 -2.95238 0
M  V30 4285 H 413.591 2.76843 -1.73279 0
M  V30 4286 H 412.25 1.41592 -3.38153 0
M  V30 4287 H 411.898 3.88495 -3.195 0
M  V30 4288 H 411.598 3.31077 -4.8545 0
M  V30 4289 H 413.122 4.16004 -4.4696 0
M  V30 4290 H 414.536 2.06535 -5.34805 0
M  V30 4291 H 412.933 1.43544 -5.82679 0
M  V30 4292 H 414.003 0.433611 -4.82957 0
M  V30 4293 N 415.346 1.54954 0.287554 0
M  V30 4294 C 416.309 1.86076 1.33823 0
M  V30 4295 C 417.309 0.734414 1.43049 0
M  V30 4296 O 418.499 1.00266 1.42452 0
M  V30 4297 C 415.631 2.05305 2.72144 0
M  V30 4298 H 416.824 2.79984 1.07465 0
M  V30 4299 H 414.377 1.47223 0.524902 0
M  V30 4300 H 415.112 1.1373 3.03704 0
M  V30 4301 H 414.897 2.873 2.66836 0
M  V30 4302 H 416.387 2.30706 3.48087 0
M  V30 4303 N 416.824 -0.551391 1.4764 0
M  V30 4304 C 418.07 -1.30789 1.55774 0
M  V30 4305 C 418.425 -1.91143 0.219562 0
M  V30 4306 O 417.718 -1.7521 -0.775375 0
M  V30 4307 C 417.912 -2.43469 2.61644 0
M  V30 4308 C 417.741 -1.94157 4.05627 0
M  V30 4309 C 416.511 -1.77734 4.7301 0
M  V30 4310 C 418.709 -1.48262 4.92466 0
M  V30 4311 N 416.691 -1.22823 6.01488 0
M  V30 4312 C 418.062 -1.05156 6.11017 0
M  V30 4313 C 420.117 -1.36367 4.78862 0
M  V30 4314 C 418.82 -0.513357 7.17466 0
M  V30 4315 C 420.846 -0.839484 5.85411 0
M  V30 4316 C 420.208 -0.418377 7.03156 0
M  V30 4317 H 416.307 -0.470406 0.624694 0
M  V30 4318 H 418.891 -0.624331 1.84419 0
M  V30 4319 H 417.062 -3.09348 2.34859 0
M  V30 4320 H 418.794 -3.10477 2.59589 0
M  V30 4321 H 415.549 -2.00623 4.29007 0
M  V30 4322 H 415.973 -0.974393 6.69951 0
M  V30 4323 H 420.615 -1.67535 3.88191 0
M  V30 4324 H 418.333 -0.189318 8.07878 0
M  V30 4325 H 421.919 -0.750921 5.76934 0
M  V30 4326 H 420.799 -0.0190538 7.84198 0
M  V30 4327 N 418.302 -1.35869 -0.798587 0
M  V30 4328 C 419.212 -1.31578 -1.94228 0
M  V30 4329 C 420.228 -0.21939 -1.72611 0
M  V30 4330 O 421.404 -0.450167 -1.96305 0
M  V30 4331 C 418.469 -1.09528 -3.28944 0
M  V30 4332 C 417.53 -2.28556 -3.63402 0
M  V30 4333 C 416.763 -2.07549 -4.9169 0
M  V30 4334 O 416.986 -1.046 -5.60727 0
M  V30 4335 O 415.92 -2.95106 -5.24591 0
M  V30 4336 H 419.746 -2.27847 -2.00796 0
M  V30 4337 H 417.331 -1.16322 -0.937526 0
M  V30 4338 H 419.213 -0.991127 -4.09579 0
M  V30 4339 H 417.888 -0.16315 -3.23289 0
M  V30 4340 H 416.795 -2.44538 -2.83112 0
M  V30 4341 H 418.128 -3.20244 -3.73771 0
M  V30 4342 N 419.78 1.02168 -1.19998 0
M  V30 4343 C 421.02 1.77232 -1.01825 0
M  V30 4344 C 421.384 1.86833 0.442428 0
M  V30 4345 O 422.585 2.58293 0.744189 0
M  V30 4346 C 420.856 3.15601 -1.67722 0
M  V30 4347 S 422.415 4.06765 -1.64584 0
M  V30 4348 H 419.233 0.610021 -0.365233 0
M  V30 4349 H 421.835 1.22368 -1.52467 0
M  V30 4350 H 420.539 3.06235 -2.73218 0
M  V30 4351 H 420.07 3.7554 -1.17189 0
M  V30 4352 H 422.085 4.91586 -0.67511 0
M  V30 4353 N 421.258 1.00505 1.21394 0
M  V30 4354 C 422.535 0.603277 1.86064 0
M  V30 4355 C 422.915 -0.919095 1.90042 0
M  V30 4356 O 422.263 -1.80607 1.39977 0
M  V30 4357 C 422.473 1.23772 3.26315 0
M  V30 4358 C 423.821 1.34586 4.02705 0
M  V30 4359 O 424.845 1.19304 3.35626 0
M  V30 4360 O 423.704 1.59169 5.22807 0
M  V30 4361 H 420.798 0.206634 0.800769 0
M  V30 4362 H 423.344 1.1017 1.29076 0
M  V30 4363 H 422.116 2.27848 3.18121 0
M  V30 4364 H 421.739 0.725648 3.90922 0
M  V30 4365 N 422.737 -1.36956 0.779787 0
M  V30 4366 C 423.967 -2.03459 0.358877 0
M  V30 4367 C 424.375 -1.58939 -1.02641 0
M  V30 4368 O 423.718 -0.769777 -1.66794 0
M  V30 4369 C 423.78 -3.5796 0.332393 0
M  V30 4370 C 423.444 -4.25644 1.66362 0
M  V30 4371 C 424.441 -4.49205 2.61746 0
M  V30 4372 C 422.126 -4.63313 1.94027 0
M  V30 4373 C 424.12 -5.09503 3.82996 0
M  V30 4374 C 421.807 -5.2333 3.15546 0
M  V30 4375 C 422.805 -5.46363 4.0985 0
M  V30 4376 O 422.493 -6.05122 5.29228 0
M  V30 4377 H 422.225 -0.659767 0.147254 0
M  V30 4378 H 424.779 -1.76111 1.05708 0
M  V30 4379 H 423.009 -3.84388 -0.422237 0
M  V30 4380 H 424.698 -4.05852 -0.0625389 0
M  V30 4381 H 425.464 -4.20508 2.41657 0
M  V30 4382 H 421.343 -4.44715 1.21448 0
M  V30 4383 H 424.887 -5.27397 4.56617 0
M  V30 4384 H 420.784 -5.51451 3.35517 0
M  V30 4385 H 421.552 -6.23595 5.30161 0
M  V30 4386 N 424.215 -0.530993 -1.48385 0
M  V30 4387 C 425.631 -0.188919 -1.58478 0
M  V30 4388 C 425.831 1.30786 -1.53288 0
M  V30 4389 O 424.887 2.08619 -1.42248 0
M  V30 4390 C 426.2 -0.792343 -2.90073 0
M  V30 4391 C 427.748 -0.76117 -3.03604 0
M  V30 4392 C 428.223 -1.34319 -4.37861 0
M  V30 4393 N 429.714 -1.3052 -4.44431 0
M  V30 4394 C 430.449 -1.72543 -5.46824 0
M  V30 4395 N 429.945 -2.22299 -6.56167 0
M  V30 4396 N 431.738 -1.63773 -5.37712 0
M  V30 4397 H 423.889 -1.50377 -1.50002 0
M  V30 4398 H 426.152 -0.625559 -0.712306 0
M  V30 4399 H 425.858 -1.84323 -2.99529 0
M  V30 4400 H 425.732 -0.270026 -3.76232 0
M  V30 4401 H 428.119 0.280957 -2.93759 0
M  V30 4402 H 428.2 -1.32097 -2.19053 0
M  V30 4403 H 427.844 -2.38425 -4.4846 0
M  V30 4404 H 427.774 -0.759064 -5.21101 0
M  V30 4405 H 430.265 -0.940973 -3.65997 0
M  V30 4406 H 430.578 -2.52356 -7.30436 0
M  V30 4407 H 428.923 -2.26293 -6.57127 0
M  V30 4408 H 432.114 -1.24698 -4.51185 0
M  V30 4409 H 432.287 -1.96844 -6.17379 0
M  V30 4410 N 425.693 1.55336 -0.266172 0
M  V30 4411 C 427.109 1.59356 0.0882065 0
M  V30 4412 C 427.309 1.2834 1.55342 0
M  V30 4413 O 426.365 1.03996 2.30089 0
M  V30 4414 C 427.678 2.99409 -0.278364 0
M  V30 4415 C 429.226 3.12196 -0.224243 0
M  V30 4416 C 429.701 4.545 -0.565123 0
M  V30 4417 N 431.192 4.60313 -0.51634 0
M  V30 4418 C 431.927 5.68434 -0.753013 0
M  V30 4419 N 431.423 6.84738 -1.05383 0
M  V30 4420 N 433.216 5.57942 -0.682414 0
M  V30 4421 H 425.367 1.73764 -1.22147 0
M  V30 4422 H 427.63 0.809822 -0.492841 0
M  V30 4423 H 427.336 3.2691 -1.29703 0
M  V30 4424 H 427.21 3.75228 0.385186 0
M  V30 4425 H 429.597 2.84464 0.78512 0
M  V30 4426 H 429.678 2.38609 -0.921922 0
M  V30 4427 H 429.322 4.82956 -1.57213 0
M  V30 4428 H 429.252 5.26374 0.154248 0
M  V30 4429 H 431.743 3.7676 -0.29335 0
M  V30 4430 H 432.056 7.63088 -1.22133 0
M  V30 4431 H 430.401 6.86375 -1.09151 0
M  V30 4432 H 433.592 4.65958 -0.44731 0
M  V30 4433 H 433.765 6.4213 -0.870248 0
M  V30 4434 N 427.171 -0.0066808 1.57599 0
M  V30 4435 C 428.081 -1.01671 2.11424 0
M  V30 4436 C 429.097 -1.38143 1.05795 0
M  V30 4437 O 430.273 -1.47011 1.37658 0
M  V30 4438 C 427.338 -2.29192 2.60139 0
M  V30 4439 C 426.399 -1.99094 3.80342 0
M  V30 4440 C 425.632 -3.20535 4.26724 0
M  V30 4441 O 425.855 -4.3199 3.72479 0
M  V30 4442 O 424.789 -3.04924 5.18946 0
M  V30 4443 H 428.615 -0.589181 2.9793 0
M  V30 4444 H 426.2 -0.225091 1.47695 0
M  V30 4445 H 428.082 -3.0412 2.917 0
M  V30 4446 H 426.757 -2.71195 1.76733 0
M  V30 4447 H 425.664 -1.21663 3.53764 0
M  V30 4448 H 426.997 -1.61931 4.648 0
M  V30 4449 N 428.649 -1.55105 -0.279332 0
M  V30 4450 C 429.612 -1.86783 -1.32834 0
M  V30 4451 C 430.612 -0.74199 -1.42657 0
M  V30 4452 O 431.802 -1.0102 -1.41918 0
M  V30 4453 C 428.934 -2.06746 -2.71052 0
M  V30 4454 H 430.127 -2.8055 -1.05979 0
M  V30 4455 H 427.68 -1.47499 -0.517087 0
M  V30 4456 H 428.415 -1.15339 -3.03097 0
M  V30 4457 H 428.2 -2.88711 -2.65309 0
M  V30 4458 H 429.69 -2.32549 -3.46858 0
M  V30 4459 N 430.127 0.543554 -1.4793 0
M  V30 4460 C 431.09 1.63156 -1.60975 0
M  V30 4461 C 432.09 1.53346 -0.483899 0
M  V30 4462 O 433.28 1.5726 -0.749339 0
M  V30 4463 C 430.412 3.02743 -1.56716 0
M  V30 4464 H 431.605 1.52934 -2.57975 0
M  V30 4465 H 429.158 0.764557 -1.36324 0
M  V30 4466 H 429.893 3.18484 -0.611418 0
M  V30 4467 H 429.678 3.11272 -2.38438 0
M  V30 4468 H 431.168 3.81871 -1.6901 0
M  V30 4469 N 431.605 1.3629 0.791371 0
M  V30 4470 C 432.845 1.31792 1.56238 0
M  V30 4471 C 433.209 -0.102237 1.91728 0
M  V30 4472 O 434.41 -0.271759 2.67423 0
M  V30 4473 C 432.681 2.21303 2.80642 0
M  V30 4474 S 434.24 2.34468 3.70904 0
M  V30 4475 H 431.058 0.468141 0.535131 0
M  V30 4476 H 433.66 1.71841 0.932246 0
M  V30 4477 H 432.364 3.23439 2.52617 0
M  V30 4478 H 431.895 1.82266 3.4863 0
M  V30 4479 H 433.91 1.54074 4.71673 0
M  V30 4480 N 433.083 -1.0153 1.20538 0
M  V30 4481 C 434.046 -2.0826 0.957098 0
M  V30 4482 C 435.046 -1.60657 -0.0678655 0
M  V30 4483 O 436.236 -1.73385 0.168332 0
M  V30 4484 C 433.368 -3.38033 0.441188 0
M  V30 4485 H 434.561 -2.31719 1.90384 0
M  V30 4486 H 432.114 -1.1835 1.02093 0
M  V30 4487 H 432.849 -3.20249 -0.510961 0
M  V30 4488 H 432.634 -3.73911 1.18038 0
M  V30 4489 H 434.124 -4.16613 0.287009 0
M  V30 4490 N 434.561 -1.01147 -1.20859 0
M  V30 4491 C 435.493 -0.535546 -2.22855 0
M  V30 4492 C 436.506 0.379323 -1.58319 0
M  V30 4493 O 437.695 0.178489 -1.77605 0
M  V30 4494 C 434.795 0.240962 -3.38042 0
M  V30 4495 C 433.968 -0.674562 -4.32167 0
M  V30 4496 C 433.027 0.053467 -5.26173 0
M  V30 4497 O 432.053 -0.567339 -5.66366 0
M  V30 4498 N 433.255 1.32997 -5.65059 0
M  V30 4499 H 436.02 -1.41268 -2.64317 0
M  V30 4500 H 433.581 -0.888386 -1.35349 0
M  V30 4501 H 435.573 0.737115 -3.97931 0
M  V30 4502 H 434.143 1.01935 -2.95513 0
M  V30 4503 H 433.363 -1.35111 -3.70322 0
M  V30 4504 H 434.651 -1.2974 -4.91981 0
M  V30 4505 H 434.049 1.85536 -5.34409 0
M  V30 4506 H 432.606 1.77095 -6.2728 0
M  V30 4507 N 436.039 1.36541 -0.78704 0
M  V30 4508 C 436.987 2.31965 -0.171724 0
M  V30 4509 C 437.981 1.55689 0.667631 0
M  V30 4510 O 439.187 1.70969 0.562981 0
M  V30 4511 H 435.562 0.751101 -0.0367545 0
M  V30 4512 H 437.533 2.81428 -0.992017 0
M  V30 4513 C 436.282 3.40968 0.680904 0
M  V30 4514 H 435.605 3.99775 0.0443961 0
M  V30 4515 H 437.045 4.10063 1.07815 0
M  V30 4516 C 435.504 2.82338 1.83813 0
M  V30 4517 O 436.034 2.74311 2.93456 0
M  V30 4518 N 434.24 2.39661 1.6435 0
M  V30 4519 H 433.787 2.46389 0.751668 0
M  V30 4520 H 433.745 2.00779 2.4194 0
M  V30 4521 N 437.518 0.538854 1.48102 0
M  V30 4522 C 438.765 0.0080018 2.02498 0
M  V30 4523 C 439.093 -1.33437 1.41509 0
M  V30 4524 O 438.348 -1.87709 0.553507 0
M  V30 4525 C 438.647 -0.153808 3.57069 0
M  V30 4526 C 438.313 1.11533 4.36888 0
M  V30 4527 C 436.975 1.46314 4.58417 0
M  V30 4528 C 439.327 1.95718 4.83057 0
M  V30 4529 C 436.655 2.6516 5.23361 0
M  V30 4530 C 439.007 3.13751 5.49312 0
M  V30 4531 C 437.671 3.48866 5.69077 0
M  V30 4532 H 436.941 0.00292807 0.740994 0
M  V30 4533 H 439.588 0.706668 1.77984 0
M  V30 4534 H 437.893 -0.935309 3.80472 0
M  V30 4535 H 439.59 -0.579607 3.96789 0
M  V30 4536 H 436.18 0.834484 4.20398 0
M  V30 4537 H 440.364 1.70158 4.66219 0
M  V30 4538 H 435.62 2.92558 5.36861 0
M  V30 4539 H 439.794 3.79282 5.84053 0
M  V30 4540 H 437.421 4.41054 6.19173 0
M  V30 4541 N 438.996 -1.55193 0.274407 0
M  V30 4542 C 440.412 -1.59401 -0.0797543 0
M  V30 4543 C 440.612 -1.29162 -1.54659 0
M  V30 4544 O 439.668 -1.05215 -2.29534 0
M  V30 4545 C 440.981 -2.99257 0.294238 0
M  V30 4546 C 442.529 -3.12072 0.240796 0
M  V30 4547 C 443.004 -4.54194 0.589218 0
M  V30 4548 N 444.495 -4.60033 0.540744 0
M  V30 4549 C 445.23 -5.68027 0.783147 0
M  V30 4550 N 444.726 -6.8417 1.09013 0
M  V30 4551 N 446.519 -5.57572 0.711993 0
M  V30 4552 H 438.67 -1.73113 1.23067 0
M  V30 4553 H 440.933 -0.807197 0.497129 0
M  V30 4554 H 440.639 -3.26217 1.31435 0
M  V30 4555 H 440.513 -3.75427 -0.365281 0
M  V30 4556 H 442.9 -2.84877 -0.770024 0
M  V30 4557 H 442.981 -2.38117 0.934563 0
M  V30 4558 H 442.625 -4.82115 1.59772 0
M  V30 4559 H 442.555 -5.26448 -0.126331 0
M  V30 4560 H 445.046 -3.76599 0.313327 0
M  V30 4561 H 445.359 -7.6243 1.26178 0
M  V30 4562 H 443.704 -6.85787 1.12789 0
M  V30 4563 H 446.895 -4.65714 0.472014 0
M  V30 4564 H 447.068 -6.41659 0.90429 0
M  V30 4565 N 440.474 -0.00167713 -1.576 0
M  V30 4566 C 441.406 1.0174 -2.05382 0
M  V30 4567 C 442.419 1.30595 -0.972052 0
M  V30 4568 O 443.608 1.27542 -1.24882 0
M  V30 4569 C 440.708 2.35174 -2.44022 0
M  V30 4570 C 439.881 2.25234 -3.74951 0
M  V30 4571 C 438.94 3.4137 -4.00441 0
M  V30 4572 O 437.966 3.19483 -4.71083 0
M  V30 4573 N 439.168 4.64275 -3.48467 0
M  V30 4574 H 441.933 0.609902 -2.93428 0
M  V30 4575 H 439.494 0.185672 -1.60832 0
M  V30 4576 H 441.486 3.11643 -2.58187 0
M  V30 4577 H 440.056 2.67659 -1.61485 0
M  V30 4578 H 439.276 1.33664 -3.70847 0
M  V30 4579 H 440.564 2.15767 -4.60784 0
M  V30 4580 H 439.962 4.84955 -2.91264 0
M  V30 4581 H 438.519 5.38005 -3.67959 0
M  V30 4582 N 441.952 1.55251 0.271103 0
M  V30 4583 C 442.882 1.9127 1.33933 0
M  V30 4584 C 443.863 0.77478 1.5143 0
M  V30 4585 O 445.048 1.03307 1.64442 0
M  V30 4586 C 442.178 2.18627 2.69851 0
M  V30 4587 C 441.132 3.34442 2.67081 0
M  V30 4588 C 440.458 3.47284 4.06569 0
M  V30 4589 C 441.758 4.70784 2.26185 0
M  V30 4590 H 443.452 2.80744 1.04035 0
M  V30 4591 H 440.998 1.35077 0.499017 0
M  V30 4592 H 442.951 2.42413 3.44694 0
M  V30 4593 H 441.675 1.25955 3.01335 0
M  V30 4594 H 440.334 3.10627 1.94695 0
M  V30 4595 H 439.982 2.52074 4.35279 0
M  V30 4596 H 439.682 4.25152 4.0561 0
M  V30 4597 H 441.206 3.73363 4.83148 0
M  V30 4598 H 442.62 4.94102 2.90751 0
M  V30 4599 H 441.017 5.51582 2.36384 0
M  V30 4600 H 442.087 4.69478 1.21319 0
M  V30 4601 N 443.43 -0.535701 1.48216 0
M  V30 4602 C 444.36 -1.65014 1.65204 0
M  V30 4603 C 445.341 -1.62554 0.501011 0
M  V30 4604 O 446.526 -1.7984 0.732886 0
M  V30 4605 C 443.656 -3.03616 1.68626 0
M  V30 4606 C 442.61 -3.20932 2.83172 0
M  V30 4607 C 441.936 -4.60537 2.71679 0
M  V30 4608 C 443.236 -3.04249 4.24535 0
M  V30 4609 H 444.93 -1.51053 2.58502 0
M  V30 4610 H 442.476 -0.725262 1.24402 0
M  V30 4611 H 444.429 -3.81446 1.79099 0
M  V30 4612 H 443.153 -3.18587 0.719026 0
M  V30 4613 H 441.812 -2.45517 2.72244 0
M  V30 4614 H 441.46 -4.72336 1.72937 0
M  V30 4615 H 441.16 -4.73069 3.48538 0
M  V30 4616 H 442.684 -5.40475 2.84112 0
M  V30 4617 H 444.098 -3.71877 4.36326 0
M  V30 4618 H 442.495 -3.28278 5.02348 0
M  V30 4619 H 443.565 -2.00739 4.41397 0
M  V30 4620 N 444.908 -1.36708 -0.784132 0
M  V30 4621 C 445.871 -1.31307 -1.87859 0
M  V30 4622 C 446.871 -0.219654 -1.59293 0
M  V30 4623 O 448.061 -0.47476 -1.67606 0
M  V30 4624 C 445.193 -1.03679 -3.24751 0
M  V30 4625 H 446.386 -2.28647 -1.94064 0
M  V30 4626 H 443.939 -1.21558 -0.98252 0
M  V30 4627 H 444.674 -0.0681936 -3.24228 0
M  V30 4628 H 444.459 -1.82811 -3.46876 0
M  V30 4629 H 445.949 -1.02518 -4.04821 0
M  V30 4630 N 446.386 1.0089 -1.21074 0
M  V30 4631 C 447.334 2.11707 -0.963476 0
M  V30 4632 C 448.328 1.69172 0.0879032 0
M  V30 4633 O 449.534 1.79889 -0.0631415 0
M  V30 4634 H 445.909 0.692026 -0.294287 0
M  V30 4635 H 447.88 2.29743 -1.90422 0
M  V30 4636 C 446.629 3.43473 -0.540509 0
M  V30 4637 H 445.952 3.76634 -1.34114 0
M  V30 4638 H 447.392 4.22044 -0.406777 0
M  V30 4639 C 445.851 3.2849 0.748079 0
M  V30 4640 O 446.381 3.58883 1.8046 0
M  V30 4641 N 444.587 2.81715 0.713081 0
M  V30 4642 H 444.134 2.5718 -0.146973 0
M  V30 4643 H 444.092 2.72071 1.57558 0
M  V30 4644 N 447.864 1.01787 1.20321 0
M  V30 4645 C 449.141 0.622978 1.85414 0
M  V30 4646 C 449.521 -0.898887 1.91006 0
M  V30 4647 O 448.869 -1.79112 1.41884 0
M  V30 4648 C 449.079 1.27226 3.24984 0
M  V30 4649 C 450.427 1.3885 4.01255 0
M  V30 4650 O 451.451 1.22857 3.34342 0
M  V30 4651 O 450.31 1.64705 5.2109 0
M  V30 4652 H 447.404 0.215116 0.798533 0
M  V30 4653 H 449.95 1.11533 1.27901 0
M  V30 4654 H 448.722 2.31209 3.15687 0
M  V30 4655 H 448.345 0.767069 3.90131 0
M  V30 4656 N 449.342 -1.36122 0.79427 0
M  V30 4657 C 450.753 -1.81646 0.431446 0
M  V30 4658 C 451.104 -1.66043 -1.04518 0
M  V30 4659 O 450.229 -1.1841 -1.8113 0
M  V30 4660 C 450.824 -3.29785 0.776341 0
M  V30 4661 C 449.383 -3.73501 0.466282 0
M  V30 4662 C 448.53 -2.58313 1.00844 0
M  V30 4663 H 451.481 -1.24274 0.986995 0
M  V30 4664 H 451.502 -3.80437 0.0692413 0
M  V30 4665 H 451.014 -3.4111 1.8511 0
M  V30 4666 H 449.115 -3.67733 -0.600245 0
M  V30 4667 H 449.228 -4.68754 0.990288 0
M  V30 4668 H 447.592 -2.5102 0.431406 0
M  V30 4669 H 448.375 -2.72421 2.08906 0
M  V30 4670 N 450.82 -0.546701 -1.47814 0
M  V30 4671 C 452.067 -0.0187407 -2.02491 0
M  V30 4672 C 452.395 1.32685 -1.42215 0
M  V30 4673 O 451.65 1.87413 -0.563454 0
M  V30 4674 C 451.949 0.134869 -3.57145 0
M  V30 4675 C 451.615 -1.13849 -4.3629 0
M  V30 4676 C 450.277 -1.48743 -4.57634 0
M  V30 4677 C 452.629 -1.98277 -4.82012 0
M  V30 4678 C 449.957 -2.67932 -5.21948 0
M  V30 4679 C 452.309 -3.16659 -5.4764 0
M  V30 4680 C 450.973 -3.51879 -5.67219 0
M  V30 4681 H 450.243 -0.0068577 -0.740968 0
M  V30 4682 H 452.89 -0.716097 -1.77607 0
M  V30 4683 H 451.195 0.915118 -3.80963 0
M  V30 4684 H 452.892 0.558556 -3.97091 0
M  V30 4685 H 449.482 -0.856767 -4.19949 0
M  V30 4686 H 453.666 -1.72628 -4.6531 0
M  V30 4687 H 448.922 -2.95401 -5.35302 0
M  V30 4688 H 453.096 -3.82374 -5.82033 0
M  V30 4689 H 450.723 -4.44331 -6.16825 0
M  V30 4690 N 452.299 1.55045 -0.282633 0
M  V30 4691 C 453.546 1.9976 0.33199 0
M  V30 4692 C 453.874 1.17105 1.55295 0
M  V30 4693 O 453.129 0.230599 1.94337 0
M  V30 4694 C 453.428 3.49422 0.750938 0
M  V30 4695 C 453.094 4.4941 -0.366228 0
M  V30 4696 C 451.756 4.76471 -0.672964 0
M  V30 4697 C 454.108 5.09054 -1.11864 0
M  V30 4698 C 451.436 5.60442 -1.73556 0
M  V30 4699 C 453.788 5.9418 -2.17102 0
M  V30 4700 C 452.452 6.19558 -2.48402 0
M  V30 4701 H 451.722 0.730974 0.121484 0
M  V30 4702 H 454.369 1.8732 -0.39791 0
M  V30 4703 H 452.674 3.59377 1.56063 0
M  V30 4704 H 454.371 3.81432 1.23736 0
M  V30 4705 H 450.961 4.2844 -0.117041 0
M  V30 4706 H 455.145 4.88165 -0.894925 0
M  V30 4707 H 450.401 5.78349 -1.983 0
M  V30 4708 H 454.575 6.39427 -2.75873 0
M  V30 4709 H 452.202 6.84417 -3.30874 0
M  V30 4710 N 453.777 0.010035 1.57597 0
M  V30 4711 C 455.193 -0.346164 1.55801 0
M  V30 4712 C 455.393 -1.74144 1.01371 0
M  V30 4713 O 454.449 -2.43938 0.651968 0
M  V30 4714 C 455.762 -0.212216 2.9995 0
M  V30 4715 C 457.31 -0.286409 3.11687 0
M  V30 4716 C 457.785 -0.18147 4.5764 0
M  V30 4717 N 459.276 -0.239056 4.62583 0
M  V30 4718 C 460.011 -0.181351 5.73113 0
M  V30 4719 N 459.507 -0.073661 6.92761 0
M  V30 4720 N 461.3 -0.233949 5.61613 0
M  V30 4721 H 453.451 0.922657 1.91313 0
M  V30 4722 H 455.714 0.354595 0.879185 0
M  V30 4723 H 455.42 0.748169 3.4365 0
M  V30 4724 H 455.294 -0.990224 3.6397 0
M  V30 4725 H 457.681 -1.23724 2.67911 0
M  V30 4726 H 457.762 0.521645 2.50425 0
M  V30 4727 H 457.406 0.765863 5.02093 0
M  V30 4728 H 457.336 -1.00814 5.1686 0
M  V30 4729 H 459.827 -0.32321 3.76515 0
M  V30 4730 H 460.14 -0.0358003 7.72792 0
M  V30 4731 H 458.485 -0.0391461 6.94989 0
M  V30 4732 H 461.676 -0.316347 4.6703 0
M  V30 4733 H 461.849 -0.185514 6.47734 0
M  V30 4734 N 455.255 -1.55392 -0.262866 0
M  V30 4735 C 456.501 -1.76737 -0.99458 0
M  V30 4736 C 456.834 -0.572453 -1.85571 0
M  V30 4737 O 456.109 0.429732 -1.89693 0
M  V30 4738 C 456.392 -3.07824 -1.8686 0
M  V30 4739 C 456.245 -4.3769 -1.03672 0
M  V30 4740 C 457.564 -3.35021 -2.85393 0
M  V30 4741 H 454.683 -0.643005 -0.360157 0
M  V30 4742 H 457.325 -1.88126 -0.266216 0
M  V30 4743 H 455.475 -2.98245 -2.48962 0
M  V30 4744 H 457.147 -4.59238 -0.43563 0
M  V30 4745 H 455.39 -4.32461 -0.340513 0
M  V30 4746 H 456.061 -5.25759 -1.6817 0
M  V30 4747 H 458.537 -3.44458 -2.33426 0
M  V30 4748 H 457.413 -4.27989 -3.43681 0
M  V30 4749 H 457.674 -2.55153 -3.61039 0
M  V30 4750 N 456.733 0.527833 -1.48498 0
M  V30 4751 C 458.144 1.10975 -1.50138 0
M  V30 4752 C 458.495 1.943 -0.272378 0
M  V30 4753 O 457.62 2.07319 0.620301 0
M  V30 4754 C 458.215 2.01927 -2.72049 0
M  V30 4755 C 456.774 2.55332 -2.76554 0
M  V30 4756 C 455.921 1.32341 -2.43683 0
M  V30 4757 H 458.872 0.312986 -1.55583 0
M  V30 4758 H 458.893 2.86244 -2.50689 0
M  V30 4759 H 458.405 1.41254 -3.61481 0
M  V30 4760 H 456.506 3.19721 -1.91336 0
M  V30 4761 H 456.619 2.94319 -3.78038 0
M  V30 4762 H 454.983 1.63989 -1.94884 0
M  V30 4763 H 455.766 0.734165 -3.35358 0
M  V30 4764 N 458.211 1.37122 0.776871 0
M  V30 4765 C 459.174 1.32301 1.8716 0
M  V30 4766 C 460.174 0.228099 1.59174 0
M  V30 4767 O 461.364 0.483642 1.67352 0
M  V30 4768 C 458.496 1.054 3.24197 0
M  V30 4769 H 459.689 2.29673 1.92848 0
M  V30 4770 H 457.242 1.22077 0.97606 0
M  V30 4771 H 457.977 0.0853872 3.24188 0
M  V30 4772 H 457.762 1.84648 3.45901 0
M  V30 4773 H 459.252 1.04664 4.04271 0
M  V30 4774 N 459.689 -1.00246 1.21608 0
M  V30 4775 C 460.935 -1.74319 1.03638 0
M  V30 4776 C 461.268 -1.89408 -0.428749 0
M  V30 4777 O 460.543 -1.43026 -1.3181 0
M  V30 4778 C 460.826 -3.15431 1.73711 0
M  V30 4779 C 460.679 -3.08049 3.27759 0
M  V30 4780 C 461.998 -4.14407 1.48173 0
M  V30 4781 H 459.117 -0.632741 0.377899 0
M  V30 4782 H 461.759 -1.16853 1.49818 0
M  V30 4783 H 459.909 -3.64493 1.34452 0
M  V30 4784 H 461.581 -2.66681 3.76403 0
M  V30 4785 H 459.824 -2.45088 3.57931 0
M  V30 4786 H 460.495 -4.07862 3.71958 0
M  V30 4787 H 462.971 -3.74061 1.82258 0
M  V30 4788 H 461.847 -5.11279 1.99713 0
M  V30 4789 H 462.108 -4.40174 0.412273 0
M  V30 4790 N 461.167 -1.02423 -1.1978 0
M  V30 4791 C 462.413 -0.719051 -1.89625 0
M  V30 4792 C 462.746 0.750083 -1.7913 0
M  V30 4793 O 462.021 1.54574 -1.18056 0
M  V30 4794 C 462.304 -1.16499 -3.40735 0
M  V30 4795 C 462.157 -2.695 -3.60125 0
M  V30 4796 C 463.476 -0.742166 -4.33797 0
M  V30 4797 H 460.595 -0.26269 -0.688595 0
M  V30 4798 H 463.237 -1.27333 -1.41018 0
M  V30 4799 H 461.387 -0.69341 -3.82262 0
M  V30 4800 H 463.059 -3.24569 -3.278 0
M  V30 4801 H 461.302 -3.10113 -3.03336 0
M  V30 4802 H 461.973 -2.95757 -4.66081 0
M  V30 4803 H 464.449 -1.1477 -3.99959 0
M  V30 4804 H 463.325 -1.08213 -5.38127 0
M  V30 4805 H 463.586 0.355747 -4.40666 0
M  V30 4806 N 462.645 1.35699 -0.801477 0
M  V30 4807 C 463.592 2.29876 -0.206294 0
M  V30 4808 C 464.562 1.52565 0.656752 0
M  V30 4809 O 465.747 1.81024 0.602906 0
M  V30 4810 C 462.887 3.39052 0.643272 0
M  V30 4811 C 462 4.31335 -0.239644 0
M  V30 4812 C 461.135 5.27599 0.61744 0
M  V30 4813 C 460.174 6.11521 -0.26619 0
M  V30 4814 N 459.311 6.99938 0.550571 0
M  V30 4815 H 464.151 2.80187 -1.01484 0
M  V30 4816 H 461.688 1.37902 -0.511997 0
M  V30 4817 H 463.646 4.0101 1.15094 0
M  V30 4818 H 462.276 2.9003 1.41713 0
M  V30 4819 H 461.328 3.70426 -0.865381 0
M  V30 4820 H 462.64 4.90243 -0.919985 0
M  V30 4821 H 461.794 5.94906 1.19045 0
M  V30 4822 H 460.533 4.69176 1.33137 0
M  V30 4823 H 459.538 5.43166 -0.851507 0
M  V30 4824 H 460.763 6.72022 -0.9779 0
M  V30 4825 H 458.709 6.44008 1.24856 0
M  V30 4826 H 458.626 7.55966 -0.071832 0
M  V30 4827 H 459.894 7.71599 1.10702 0
M  V30 4828 N 464.123 0.554532 1.47522 0
M  V30 4829 C 465.033 -0.197865 2.33764 0
M  V30 4830 C 466.049 -0.914576 1.48025 0
M  V30 4831 O 467.225 -0.884067 1.80959 0
M  V30 4832 C 464.29 -1.21628 3.24665 0
M  V30 4833 C 463.351 -0.507283 4.26292 0
M  V30 4834 C 462.584 -1.47718 5.1285 0
M  V30 4835 O 462.807 -2.7118 5.01814 0
M  V30 4836 O 461.741 -1.00313 5.93482 0
M  V30 4837 H 465.567 0.50949 2.99396 0
M  V30 4838 H 463.152 0.315176 1.46038 0
M  V30 4839 H 465.034 -1.80421 3.80823 0
M  V30 4840 H 463.709 -1.9056 2.61665 0
M  V30 4841 H 462.616 0.121778 3.73902 0
M  V30 4842 H 463.949 0.140544 4.91999 0
M  V30 4843 N 465.601 -1.54893 0.290851 0
M  V30 4844 C 466.531 -2.26103 -0.583084 0
M  V30 4845 C 467.512 -1.25684 -1.14619 0
M  V30 4846 O 468.697 -1.54436 -1.17741 0
M  V30 4847 C 465.827 -2.99409 -1.75987 0
M  V30 4848 C 464.781 -4.0689 -1.32758 0
M  V30 4849 C 464.107 -4.67856 -2.58872 0
M  V30 4850 C 465.407 -5.20215 -0.46624 0
M  V30 4851 H 467.101 -2.99398 0.0108214 0
M  V30 4852 H 464.647 -1.43998 0.00664468 0
M  V30 4853 H 466.6 -3.47943 -2.37727 0
M  V30 4854 H 465.324 -2.23675 -2.37985 0
M  V30 4855 H 463.983 -3.59191 -0.733299 0
M  V30 4856 H 463.631 -3.88772 -3.19163 0
M  V30 4857 H 463.331 -5.40438 -2.30653 0
M  V30 4858 H 464.855 -5.19147 -3.21433 0
M  V30 4859 H 466.269 -5.64704 -0.989047 0
M  V30 4860 H 464.666 -5.99455 -0.27826 0
M  V30 4861 H 465.736 -4.82198 0.511173 0
M  V30 4862 N 467.08 -0.0183926 -1.57589 0
M  V30 4863 C 468.32 0.666846 -1.93216 0
M  V30 4864 C 468.684 1.69905 -0.894215 0
M  V30 4865 O 469.885 2.436 -1.13633 0
M  V30 4866 C 468.156 1.27684 -3.33814 0
M  V30 4867 S 469.715 1.98464 -3.91353 0
M  V30 4868 H 466.533 0.219826 -0.676164 0
M  V30 4869 H 469.135 -0.0794893 -1.95338 0
M  V30 4870 H 467.839 0.513006 -4.07181 0
M  V30 4871 H 467.37 2.06071 -3.3511 0
M  V30 4872 H 469.385 3.26189 -3.73918 0
M  V30 4873 N 468.558 1.5553 0.254621 0
M  V30 4874 C 469.786 1.81046 1.00149 0
M  V30 4875 C 470.201 0.593047 1.79244 0
M  V30 4876 O 469.558 -0.438196 1.77161 0
M  V30 4877 C 469.609 3.04684 1.94551 0
M  V30 4878 O 469.33 4.21725 1.18658 0
M  V30 4879 C 470.831 3.42943 2.80901 0
M  V30 4880 H 468.051 0.602653 0.295044 0
M  V30 4881 H 470.595 2.02576 0.279842 0
M  V30 4882 H 468.75 2.85226 2.62154 0
M  V30 4883 H 469.164 4.91746 1.82445 0
M  V30 4884 H 470.638 4.32576 3.42902 0
M  V30 4885 H 471.115 2.63176 3.51617 0
M  V30 4886 H 471.721 3.64724 2.18762 0
M  V30 4887 N 470.036 -0.519951 1.48776 0
M  V30 4888 C 471.264 -1.29971 1.60982 0
M  V30 4889 C 471.679 -1.86803 0.273885 0
M  V30 4890 O 471.036 -1.66904 -0.738193 0
M  V30 4891 C 471.087 -2.44346 2.66415 0
M  V30 4892 O 470.808 -1.89855 3.94825 0
M  V30 4893 C 472.309 -3.36014 2.89153 0
M  V30 4894 H 469.529 -0.394891 0.542496 0
M  V30 4895 H 472.073 -0.626214 1.94676 0
M  V30 4896 H 470.228 -3.07562 2.35552 0
M  V30 4897 H 470.642 -2.64798 4.5275 0
M  V30 4898 H 472.116 -4.12593 3.66703 0
M  V30 4899 H 472.593 -3.91859 1.98351 0
M  V30 4900 H 473.199 -2.78582 3.21359 0
M  V30 4901 N 471.514 -1.37532 -0.769588 0
M  V30 4902 C 472.93 -1.18379 -1.07045 0
M  V30 4903 C 473.13 -0.0214312 -2.01489 0
M  V30 4904 O 472.186 0.637809 -2.44312 0
M  V30 4905 C 473.499 -2.50338 -1.66588 0
M  V30 4906 C 475.047 -2.56879 -1.78835 0
M  V30 4907 C 475.522 -3.88974 -2.41792 0
M  V30 4908 N 477.013 -3.90428 -2.4924 0
M  V30 4909 C 477.748 -4.89388 -2.98809 0
M  V30 4910 N 477.244 -5.98745 -3.48535 0
M  V30 4911 N 479.037 -4.76791 -2.97703 0
M  V30 4912 H 471.188 -2.11921 -0.142541 0
M  V30 4913 H 473.451 -0.939608 -0.125863 0
M  V30 4914 H 473.157 -3.35767 -1.0466 0
M  V30 4915 H 473.031 -2.67583 -2.65856 0
M  V30 4916 H 475.418 -1.71856 -2.39895 0
M  V30 4917 H 475.499 -2.43516 -0.783166 0
M  V30 4918 H 475.143 -4.74412 -1.81371 0
M  V30 4919 H 475.073 -3.99641 -3.4292 0
M  V30 4920 H 477.564 -3.11433 -2.14052 0
M  V30 4921 H 477.877 -6.70205 -3.84767 0
M  V30 4922 H 476.222 -6.02387 -3.46634 0
M  V30 4923 H 479.413 -3.90478 -2.58157 0
M  V30 4924 H 479.586 -5.54069 -3.36024 0
M  V30 4925 N 472.992 0.995999 -1.22138 0
M  V30 4926 C 474.238 1.73767 -1.04561 0
M  V30 4927 C 474.571 1.89633 0.418698 0
M  V30 4928 O 473.846 1.43723 1.3105 0
M  V30 4929 C 474.129 3.14505 -1.75382 0
M  V30 4930 C 473.982 3.06306 -3.29388 0
M  V30 4931 C 475.301 4.13615 -1.50369 0
M  V30 4932 H 472.42 0.630728 -0.38125 0
M  V30 4933 H 475.062 1.16057 -1.50435 0
M  V30 4934 H 473.212 3.63775 -1.36383 0
M  V30 4935 H 474.884 2.64681 -3.77812 0
M  V30 4936 H 473.127 2.43186 -3.59226 0
M  V30 4937 H 473.798 4.05884 -3.74116 0
M  V30 4938 H 476.274 3.73089 -1.84239 0
M  V30 4939 H 475.15 5.10212 -2.02421 0
M  V30 4940 H 475.411 4.39949 -0.435611 0
M  V30 4941 N 474.47 1.03057 1.19235 0
M  V30 4942 C 475.4 0.633497 2.24742 0
M  V30 4943 C 476.381 -0.358335 1.66283 0
M  V30 4944 O 477.566 -0.240676 1.92703 0
M  V30 4945 C 474.696 -0.0147648 3.47297 0
M  V30 4946 C 473.65 0.899527 4.18441 0
M  V30 4947 C 472.976 0.116281 5.34574 0
M  V30 4948 C 474.276 2.21404 4.73051 0
M  V30 4949 H 475.97 1.5155 2.58211 0
M  V30 4950 H 473.516 0.73014 1.24117 0
M  V30 4951 H 475.469 -0.304202 4.20301 0
M  V30 4952 H 474.193 -0.931577 3.13032 0
M  V30 4953 H 472.852 1.17319 3.47321 0
M  V30 4954 H 472.5 -0.802619 4.96555 0
M  V30 4955 H 472.2 0.725293 5.83107 0
M  V30 4956 H 473.724 -0.166376 6.10373 0
M  V30 4957 H 475.138 1.98601 5.37802 0
M  V30 4958 H 473.535 2.77512 5.32078 0
M  V30 4959 H 474.605 2.86752 3.91026 0
M  V30 4960 N 475.948 -1.35272 0.808662 0
M  V30 4961 C 477.196 -1.98316 0.389233 0
M  V30 4962 C 477.517 -1.64465 -1.04767 0
M  V30 4963 O 476.787 -0.928175 -1.72516 0
M  V30 4964 H 475.367 -0.733585 0.140935 0
M  V30 4965 H 478.029 -1.6515 1.03496 0
M  V30 4966 H 477.125 -3.08123 0.496631 0
M  V30 4967 N 477.426 -0.562348 -1.47226 0
M  V30 4968 C 478.359 0.230405 -2.27034 0
M  V30 4969 C 479.337 0.915609 -1.3437 0
M  V30 4970 O 480.521 0.933573 -1.63758 0
M  V30 4971 C 477.648 1.32874 -3.11548 0
M  V30 4972 C 476.694 0.751552 -4.19826 0
M  V30 4973 S 477.527 -0.405848 -5.3396 0
M  V30 4974 C 478.683 0.694186 -6.22038 0
M  V30 4975 H 478.916 -0.446811 -2.93923 0
M  V30 4976 H 476.449 -0.348781 -1.50409 0
M  V30 4977 H 478.407 1.95773 -3.60809 0
M  V30 4978 H 477.068 1.97782 -2.44011 0
M  V30 4979 H 476.261 1.57651 -4.78709 0
M  V30 4980 H 475.863 0.198645 -3.73472 0
M  V30 4981 H 478.155 1.58501 -6.58698 0
M  V30 4982 H 479.098 0.142592 -7.07956 0
M  V30 4983 H 479.506 0.989169 -5.55766 0
M  V30 4984 N 478.904 1.54736 -0.299062 0
M  V30 4985 C 479.814 2.27127 0.587413 0
M  V30 4986 C 480.83 1.30575 1.15005 0
M  V30 4987 O 482.006 1.63554 1.17525 0
M  V30 4988 C 479.071 2.99645 1.74395 0
M  V30 4989 C 478.132 4.11731 1.21559 0
M  V30 4990 C 477.365 4.80781 2.317 0
M  V30 4991 O 477.588 4.4918 3.51558 0
M  V30 4992 O 476.522 5.68226 1.98501 0
M  V30 4993 H 480.348 3.037 0.000250109 0
M  V30 4994 H 477.933 1.49256 -0.0655919 0
M  V30 4995 H 479.815 3.45138 2.4178 0
M  V30 4996 H 478.49 2.25969 2.31775 0
M  V30 4997 H 477.397 3.70641 0.507514 0
M  V30 4998 H 478.73 4.87379 0.687233 0
M  V30 4999 N 480.382 0.0267497 1.57577 0
M  V30 5000 C 481.312 -0.954308 2.13108 0
M  V30 5001 C 482.293 -1.34088 1.04663 0
M  V30 5002 O 483.478 -1.41992 1.32484 0
M  V30 5003 C 480.608 -2.23744 2.65624 0
M  V30 5004 C 479.562 -1.99168 3.78835 0
M  V30 5005 C 478.888 -3.33726 4.17769 0
M  V30 5006 C 480.188 -1.33277 5.0501 0
M  V30 5007 H 481.882 -0.491848 2.95332 0
M  V30 5008 H 479.428 -0.23514 1.42067 0
M  V30 5009 H 481.381 -2.92754 3.03106 0
M  V30 5010 H 480.105 -2.72151 1.80558 0
M  V30 5011 H 478.764 -1.32577 3.41788 0
M  V30 5012 H 478.412 -3.79888 3.29688 0
M  V30 5013 H 478.112 -3.18089 4.94058 0
M  V30 5014 H 479.636 -4.04008 4.57832 0
M  V30 5015 H 481.05 -1.92283 5.40093 0
M  V30 5016 H 479.447 -1.28045 5.8628 0
M  V30 5017 H 480.517 -0.305411 4.83937 0
M  V30 5018 N 481.861 -1.55662 -0.24637 0
M  V30 5019 C 482.824 -1.89558 -1.28842 0
M  V30 5020 C 483.824 -0.772082 -1.41052 0
M  V30 5021 O 485.014 -1.04007 -1.39743 0
M  V30 5022 C 482.146 -2.12449 -2.66605 0
M  V30 5023 H 483.339 -2.82735 -1.00004 0
M  V30 5024 H 480.892 -1.48562 -0.485684 0
M  V30 5025 H 481.627 -1.21742 -3.00582 0
M  V30 5026 H 481.412 -2.94273 -2.59125 0
M  V30 5027 H 482.902 -2.39854 -3.41847 0
M  V30 5028 N 483.339 0.512053 -1.4905 0
M  V30 5029 C 484.587 1.26436 -1.57665 0
M  V30 5030 C 484.908 1.93255 -0.260293 0
M  V30 5031 O 484.178 1.82206 0.719564 0
M  V30 5032 H 482.758 0.469658 -0.580888 0
M  V30 5033 H 485.42 0.594398 -1.85615 0
M  V30 5034 H 484.516 2.03417 -2.36702 0
M  V30 5035 N 484.817 1.37938 0.762283 0
M  V30 5036 C 486.065 1.33404 1.51815 0
M  V30 5037 C 486.386 -0.0780975 1.94844 0
M  V30 5038 O 485.656 -1.02405 1.67003 0
M  V30 5039 H 484.236 0.490839 0.563104 0
M  V30 5040 H 486.898 1.72527 0.906669 0
M  V30 5041 H 485.994 1.97926 2.41313 0
M  V30 5042 N 486.295 -0.989507 1.22664 0
M  V30 5043 C 487.541 -1.7321 1.05481 0
M  V30 5044 C 487.874 -1.89852 -0.408635 0
M  V30 5045 O 487.149 -1.44416 -1.30285 0
M  V30 5046 C 487.432 -3.1357 1.77047 0
M  V30 5047 C 487.285 -3.04555 3.31008 0
M  V30 5048 C 488.604 -4.12812 1.5256 0
M  V30 5049 H 485.723 -0.628697 0.384589 0
M  V30 5050 H 488.365 -1.15258 1.51049 0
M  V30 5051 H 486.515 -3.63046 1.3831 0
M  V30 5052 H 488.187 -2.62674 3.7921 0
M  V30 5053 H 486.43 -2.41278 3.6051 0
M  V30 5054 H 487.101 -4.03894 3.76263 0
M  V30 5055 H 489.577 -3.72106 1.86215 0
M  V30 5056 H 488.453 -5.09132 2.05124 0
M  V30 5057 H 488.714 -4.39711 0.458936 0
M  V30 5058 N 487.773 -1.03688 -1.18687 0
M  V30 5059 C 489.184 -0.766488 -1.70241 0
M  V30 5060 C 489.535 0.713052 -1.82784 0
M  V30 5061 O 488.66 1.55529 -1.50465 0
M  V30 5062 C 489.255 -1.38475 -3.09209 0
M  V30 5063 C 487.814 -1.16276 -3.5799 0
M  V30 5064 C 486.961 -1.4778 -2.34641 0
M  V30 5065 H 489.912 -1.20378 -1.03415 0
M  V30 5066 H 489.933 -0.785939 -3.72295 0
M  V30 5067 H 489.445 -2.46157 -3.00048 0
M  V30 5068 H 487.546 -0.104508 -3.72453 0
M  V30 5069 H 487.659 -1.8571 -4.41643 0
M  V30 5070 H 486.023 -0.897366 -2.38368 0
M  V30 5071 H 486.806 -2.56562 -2.28102 0
M  V30 5072 N 489.251 1.34841 -0.815825 0
M  V30 5073 C 490.181 2.32187 -0.247298 0
M  V30 5074 C 491.162 1.5791 0.632344 0
M  V30 5075 O 492.347 1.8593 0.560698 0
M  V30 5076 C 489.477 3.42122 0.597466 0
M  V30 5077 C 488.431 4.27602 -0.184446 0
M  V30 5078 C 487.757 5.28942 0.782609 0
M  V30 5079 C 489.057 5.03502 -1.38865 0
M  V30 5080 H 490.751 2.79985 -1.06061 0
M  V30 5081 H 488.297 1.34611 -0.511461 0
M  V30 5082 H 490.25 4.09232 1.00533 0
M  V30 5083 H 488.974 2.92956 1.44376 0
M  V30 5084 H 487.633 3.62085 -0.573592 0
M  V30 5085 H 487.281 4.7604 1.62466 0
M  V30 5086 H 486.981 5.87008 0.263695 0
M  V30 5087 H 488.505 5.98922 1.18848 0
M  V30 5088 H 489.919 5.63506 -1.05518 0
M  V30 5089 H 488.316 5.71108 -1.8427 0
M  V30 5090 H 489.386 4.33608 -2.17054 0
M  V30 5091 N 490.729 0.570148 1.46925 0
M  V30 5092 C 492.006 -0.0153259 1.95594 0
M  V30 5093 C 492.386 -1.47232 1.51281 0
M  V30 5094 O 491.734 -2.15574 0.757624 0
M  V30 5095 C 491.944 0.143624 3.48704 0
M  V30 5096 C 493.292 0.00494484 4.246 0
M  V30 5097 O 494.316 0.0718214 3.56128 0
M  V30 5098 O 493.175 -0.141175 5.46318 0
M  V30 5099 H 490.269 -0.0568819 0.825041 0
M  V30 5100 H 492.815 0.637583 1.57267 0
M  V30 5101 H 491.587 1.15699 3.73804 0
M  V30 5102 H 491.21 -0.5463 3.93829 0
M  V30 5103 N 492.207 -1.54576 0.307264 0
M  V30 5104 C 493.139 -2.21212 -0.599807 0
M  V30 5105 C 494.152 -1.20685 -1.09266 0
M  V30 5106 O 495.341 -1.47244 -1.00903 0
M  V30 5107 C 492.441 -2.84994 -1.83389 0
M  V30 5108 C 491.614 -4.11511 -1.48248 0
M  V30 5109 C 490.673 -4.59038 -2.57237 0
M  V30 5110 O 489.699 -5.24095 -2.22065 0
M  V30 5111 N 490.901 -4.31884 -3.87887 0
M  V30 5112 H 493.666 -2.99686 -0.0293075 0
M  V30 5113 H 491.227 -1.61379 0.129738 0
M  V30 5114 H 493.219 -3.1372 -2.5566 0
M  V30 5115 H 491.789 -2.10324 -2.31263 0
M  V30 5116 H 491.009 -3.89728 -0.592122 0
M  V30 5117 H 492.297 -4.93879 -1.22316 0
M  V30 5118 H 491.695 -3.79778 -4.19268 0
M  V30 5119 H 490.252 -4.65304 -4.56438 0
M  V30 5120 N 493.685 -0.035106 -1.57561 0
M  V30 5121 C 494.925 0.646316 -1.93913 0
M  V30 5122 C 495.289 1.68947 -0.912185 0
M  V30 5123 O 496.49 2.42381 -1.1621 0
M  V30 5124 C 494.761 1.24136 -3.35149 0
M  V30 5125 S 496.32 1.94302 -3.93436 0
M  V30 5126 H 493.138 0.212642 -0.678457 0
M  V30 5127 H 495.74 -0.100203 -1.95243 0
M  V30 5128 H 494.444 0.46979 -4.07702 0
M  V30 5129 H 493.975 2.02505 -3.37276 0
M  V30 5130 H 495.99 3.22205 -3.77357 0
M  V30 5131 N 495.163 1.55791 0.238111 0
M  V30 5132 C 496.095 1.87513 1.31802 0
M  V30 5133 C 497.108 0.762053 1.43863 0
M  V30 5134 O 498.297 1.04024 1.45056 0
M  V30 5135 C 495.397 2.05402 2.69561 0
M  V30 5136 C 494.57 3.3632 2.79656 0
M  V30 5137 C 493.629 3.43844 3.98319 0
M  V30 5138 O 492.655 4.16994 3.87433 0
M  V30 5139 N 493.857 2.73777 5.11885 0
M  V30 5140 H 496.622 2.80734 1.04922 0
M  V30 5141 H 494.183 1.56135 0.428196 0
M  V30 5142 H 496.175 2.07769 3.47296 0
M  V30 5143 H 494.745 1.18884 2.89111 0
M  V30 5144 H 493.965 3.46195 1.88528 0
M  V30 5145 H 495.253 4.22594 2.83358 0
M  V30 5146 H 494.651 2.14094 5.23622 0
M  V30 5147 H 493.208 2.81825 5.87723 0
M  V30 5148 N 496.642 -0.504142 1.49319 0
M  V30 5149 C 497.89 -1.25598 1.58334 0
M  V30 5150 C 498.211 -1.93114 0.270538 0
M  V30 5151 O 497.481 -1.82585 -0.709891 0
M  V30 5152 H 496.061 -0.466571 0.58337 0
M  V30 5153 H 498.723 -0.584547 1.85928 0
M  V30 5154 H 497.819 -2.02159 2.37778 0
M  V30 5155 N 498.12 -1.38341 -0.754957 0
M  V30 5156 C 499.05 -1.38176 -1.88227 0
M  V30 5157 C 500.031 -0.247873 -1.68284 0
M  V30 5158 O 501.216 -0.45075 -1.88896 0
M  V30 5159 C 498.346 -1.20471 -3.25736 0
M  V30 5160 C 497.3 -2.3105 -3.60278 0
M  V30 5161 C 496.626 -1.98452 -4.96509 0
M  V30 5162 C 497.926 -3.73305 -3.65295 0
M  V30 5163 H 499.62 -2.32512 -1.88622 0
M  V30 5164 H 497.166 -1.1192 -0.906082 0
M  V30 5165 H 499.119 -1.18982 -4.04254 0
M  V30 5166 H 497.843 -0.225965 -3.25817 0
M  V30 5167 H 496.502 -2.31723 -2.84078 0
M  V30 5168 H 496.15 -0.990641 -4.93148 0
M  V30 5169 H 495.85 -2.7251 -5.20588 0
M  V30 5170 H 497.374 -1.98578 -5.77407 0
M  V30 5171 H 498.788 -3.7467 -4.3393 0
M  V30 5172 H 497.185 -4.46557 -4.00883 0
M  V30 5173 H 498.255 -4.05719 -2.65556 0
M  V30 5174 N 499.598 0.982988 -1.23187 0
M  V30 5175 C 500.823 1.76455 -1.08988 0
M  V30 5176 C 501.248 1.84726 0.354691 0
M  V30 5177 O 500.606 1.30699 1.25649 0
M  V30 5178 C 500.654 3.17094 -1.71708 0
M  V30 5179 O 499.758 4.00648 -0.977477 0
M  V30 5180 H 499.099 0.542988 -0.382177 0
M  V30 5181 H 501.629 1.23413 -1.63188 0
M  V30 5182 H 501.639 3.67684 -1.76841 0
M  V30 5183 H 500.314 3.10389 -2.76823 0
M  V30 5184 H 498.891 3.59161 -1.0029 0
M  V30 5185 N 501.076 1.04316 1.18135 0
M  V30 5186 C 502.008 0.594444 2.21357 0
M  V30 5187 C 503.021 -0.337215 1.59269 0
M  V30 5188 O 504.21 -0.131337 1.78016 0
M  V30 5189 C 501.31 -0.151251 3.38562 0
M  V30 5190 C 500.483 0.788907 4.30227 0
M  V30 5191 C 499.542 0.0860572 5.2613 0
M  V30 5192 O 498.568 0.717302 5.64662 0
M  V30 5193 N 499.77 -1.17969 5.68387 0
M  V30 5194 H 502.535 1.48227 2.60478 0
M  V30 5195 H 500.096 0.92396 1.32946 0
M  V30 5196 H 502.088 -0.631352 3.99745 0
M  V30 5197 H 500.658 -0.940639 2.98112 0
M  V30 5198 H 499.878 1.44882 3.6661 0
M  V30 5199 H 501.166 1.42738 4.88368 0
M  V30 5200 H 500.564 -1.71302 5.3914 0
M  V30 5201 H 499.121 -1.60402 6.31755 0
M  V30 5202 N 502.554 -1.34406 0.822964 0
M  V30 5203 C 503.831 -1.92733 0.333641 0
M  V30 5204 C 504.211 -1.75107 -1.17901 0
M  V30 5205 O 503.559 -1.12983 -1.98613 0
M  V30 5206 C 503.769 -3.40557 0.763023 0
M  V30 5207 C 505.117 -4.17709 0.761879 0
M  V30 5208 O 506.141 -3.49141 0.705606 0
M  V30 5209 O 505 -5.40082 0.835109 0
M  V30 5210 H 502.094 -0.821964 0.0911249 0
M  V30 5211 H 504.64 -1.4338 0.907757 0
M  V30 5212 H 503.412 -3.47187 1.8049 0
M  V30 5213 H 503.035 -3.97259 0.164605 0
M  V30 5214 N 504.032 -0.577932 -1.46621 0
M  V30 5215 C 504.962 0.145917 -2.33044 0
M  V30 5216 C 505.943 0.888412 -1.45056 0
M  V30 5217 O 507.128 0.864812 -1.73881 0
M  V30 5218 C 504.258 1.16322 -3.27241 0
M  V30 5219 C 503.212 0.535868 -4.24632 0
M  V30 5220 C 502.538 1.65929 -5.08303 0
M  V30 5221 C 503.838 -0.523861 -5.19666 0
M  V30 5222 H 505.532 -0.575636 -2.93814 0
M  V30 5223 H 503.078 -0.278272 -1.41286 0
M  V30 5224 H 505.031 1.67793 -3.86553 0
M  V30 5225 H 503.755 1.91498 -2.64567 0
M  V30 5226 H 502.414 0.0422759 -3.66576 0
M  V30 5227 H 502.062 2.40061 -4.42018 0
M  V30 5228 H 501.762 1.2452 -5.74255 0
M  V30 5229 H 503.286 2.17686 -5.70478 0
M  V30 5230 H 504.7 -0.0944059 -5.73222 0
M  V30 5231 H 503.097 -0.858 -5.93935 0
M  V30 5232 H 504.167 -1.41197 -4.63887 0
M  V30 5233 N 505.51 1.54411 -0.315457 0
M  V30 5234 C 506.926 1.59556 0.037464 0
M  V30 5235 C 507.126 1.33217 1.5118 0
M  V30 5236 O 506.182 1.11264 2.26664 0
M  V30 5237 C 507.495 2.98372 -0.373477 0
M  V30 5238 C 509.043 3.11324 -0.323452 0
M  V30 5239 C 509.518 4.52472 -0.709433 0
M  V30 5240 N 511.009 4.58437 -0.662524 0
M  V30 5241 C 511.744 5.65751 -0.933474 0
M  V30 5242 N 511.24 6.81039 -1.27114 0
M  V30 5243 N 513.033 5.55489 -0.859573 0
M  V30 5244 H 505.184 1.6979 -1.27614 0
M  V30 5245 H 507.447 0.793732 -0.518356 0
M  V30 5246 H 507.153 3.22618 -1.40037 0
M  V30 5247 H 507.027 3.76264 0.265615 0
M  V30 5248 H 509.414 2.86818 0.694223 0
M  V30 5249 H 509.495 2.35555 -0.997367 0
M  V30 5250 H 509.139 4.7771 -1.72498 0
M  V30 5251 H 509.069 5.26598 -0.0132923 0
M  V30 5252 H 511.56 3.75636 -0.413065 0
M  V30 5253 H 511.873 7.58816 -1.46348 0
M  V30 5254 H 510.218 6.82555 -1.30932 0
M  V30 5255 H 513.409 4.64299 -0.595324 0
M  V30 5256 H 513.582 6.39036 -1.0741 0
M  V30 5257 N 506.988 0.0434614 1.5754 0
M  V30 5258 C 507.936 -0.951465 2.1225 0
M  V30 5259 C 508.93 -1.3274 1.05245 0
M  V30 5260 O 510.136 -1.30795 1.23663 0
M  V30 5261 H 506.511 -0.324667 0.678303 0
M  V30 5262 H 508.482 -0.464855 2.94757 0
M  V30 5263 C 507.231 -2.21972 2.67626 0
M  V30 5264 H 506.554 -1.93923 3.4962 0
M  V30 5265 H 507.994 -2.89765 3.09536 0
M  V30 5266 C 506.453 -2.95919 1.61038 0
M  V30 5267 O 506.983 -3.8857 1.01862 0
M  V30 5268 N 505.189 -2.58511 1.32741 0
M  V30 5269 H 504.736 -1.83244 1.81051 0
M  V30 5270 H 504.694 -3.08296 0.616531 0
M  V30 5271 N 508.466 -1.55915 -0.229846 0
M  V30 5272 C 509.398 -1.88209 -1.30805 0
M  V30 5273 C 510.411 -0.769672 -1.43457 0
M  V30 5274 O 511.6 -1.04792 -1.44502 0
M  V30 5275 C 508.7 -2.06829 -2.68468 0
M  V30 5276 C 507.873 -3.37798 -2.77869 0
M  V30 5277 C 506.932 -3.45952 -3.96489 0
M  V30 5278 O 505.958 -4.19043 -3.85216 0
M  V30 5279 N 507.16 -2.76488 -5.10426 0
M  V30 5280 H 509.925 -2.81286 -1.03431 0
M  V30 5281 H 507.486 -1.5636 -0.41991 0
M  V30 5282 H 509.478 -2.09608 -3.46189 0
M  V30 5283 H 508.048 -1.20416 -2.88477 0
M  V30 5284 H 507.268 -3.4719 -1.86689 0
M  V30 5285 H 508.556 -4.24091 -2.81113 0
M  V30 5286 H 507.954 -2.16868 -5.2248 0
M  V30 5287 H 506.511 -2.84938 -5.8622 0
M  V30 5288 N 509.944 0.496216 -1.49584 0
M  V30 5289 C 511.193 1.24668 -1.58558 0
M  V30 5290 C 511.506 1.9359 -0.279703 0
M  V30 5291 O 512.712 2.70365 -0.248048 0
M  V30 5292 C 511.168 2.26388 -2.79779 0
M  V30 5293 C 510.776 1.63384 -4.17145 0
M  V30 5294 C 512.52 3.02233 -2.98086 0
M  V30 5295 C 510.427 2.63243 -5.29582 0
M  V30 5296 H 509.357 0.468995 -0.590389 0
M  V30 5297 H 512.008 0.519985 -1.75978 0
M  V30 5298 H 510.39 3.02241 -2.55863 0
M  V30 5299 H 511.564 0.93491 -4.51216 0
M  V30 5300 H 509.879 0.999121 -4.04236 0
M  V30 5301 H 512.476 3.76919 -3.79257 0
M  V30 5302 H 512.819 3.60132 -2.08831 0
M  V30 5303 H 513.352 2.33495 -3.22063 0
M  V30 5304 H 510.091 2.10119 -6.20911 0
M  V30 5305 H 509.611 3.31363 -4.99959 0
M  V30 5306 H 511.29 3.25575 -5.59115 0
M  V30 5307 N 511.423 1.38739 0.74761 0
M  V30 5308 C 512.663 1.36695 1.51966 0
M  V30 5309 C 513.027 -0.0411889 1.91956 0
M  V30 5310 O 514.228 -0.186543 2.68152 0
M  V30 5311 C 512.499 2.30119 2.73459 0
M  V30 5312 S 514.058 2.4615 3.63257 0
M  V30 5313 H 510.876 0.484929 0.519966 0
M  V30 5314 H 513.478 1.7472 0.877104 0
M  V30 5315 H 512.182 3.31312 2.422 0
M  V30 5316 H 511.713 1.93265 3.42655 0
M  V30 5317 H 513.728 1.69001 4.66533 0
M  V30 5318 N 512.901 -0.976442 1.23707 0
M  V30 5319 C 514.148 -1.71827 1.07153 0
M  V30 5320 C 514.476 -1.9053 -0.390982 0
M  V30 5321 O 513.731 -1.45779 -1.30564 0
M  V30 5322 C 514.03 -3.11814 1.74662 0
M  V30 5323 C 513.696 -3.12978 3.24585 0
M  V30 5324 C 512.358 -3.13003 3.6549 0
M  V30 5325 C 514.71 -3.07986 4.20469 0
M  V30 5326 C 512.038 -3.05757 5.00729 0
M  V30 5327 C 514.39 -3.02282 5.55705 0
M  V30 5328 C 513.054 -3.00631 5.95968 0
M  V30 5329 H 512.324 -0.628758 0.392102 0
M  V30 5330 H 514.971 -1.14239 1.53693 0
M  V30 5331 H 513.276 -3.72812 1.20492 0
M  V30 5332 H 514.973 -3.67989 1.59328 0
M  V30 5333 H 511.563 -3.13718 2.92026 0
M  V30 5334 H 515.747 -3.07103 3.89874 0
M  V30 5335 H 511.003 -3.02834 5.31132 0
M  V30 5336 H 515.177 -2.97376 6.29714 0
M  V30 5337 H 512.804 -2.94771 7.00724 0
M  V30 5338 N 514.379 -1.04941 -1.1758 0
M  V30 5339 C 515.311 -0.606174 -2.21039 0
M  V30 5340 C 516.324 0.328763 -1.59446 0
M  V30 5341 O 517.513 0.121895 -1.78083 0
M  V30 5342 C 514.613 0.133294 -3.38638 0
M  V30 5343 C 513.786 -0.811711 -4.29802 0
M  V30 5344 C 512.845 -0.113958 -5.26077 0
M  V30 5345 O 511.871 -0.747237 -5.64274 0
M  V30 5346 N 513.073 1.14953 -5.69004 0
M  V30 5347 H 515.838 -1.49606 -2.59689 0
M  V30 5348 H 513.399 -0.930997 -1.32454 0
M  V30 5349 H 515.391 0.610144 -4.00074 0
M  V30 5350 H 513.961 0.924816 -2.98607 0
M  V30 5351 H 513.181 -1.46824 -3.65837 0
M  V30 5352 H 514.469 -1.45326 -4.87604 0
M  V30 5353 H 513.867 1.68441 -5.40041 0
M  V30 5354 H 512.424 1.57049 -6.32597 0
M  V30 5355 N 515.857 1.33968 -0.830081 0
M  V30 5356 C 516.787 2.31911 -0.271911 0
M  V30 5357 C 517.768 1.58571 0.61556 0
M  V30 5358 O 518.953 1.86514 0.540946 0
M  V30 5359 C 516.083 3.42737 0.561146 0
M  V30 5360 C 515.037 4.27383 -0.229789 0
M  V30 5361 C 514.363 5.29742 0.726463 0
M  V30 5362 C 515.663 5.02 -1.44197 0
M  V30 5363 H 517.357 2.78844 -1.09025 0
M  V30 5364 H 514.903 1.34061 -0.52571 0
M  V30 5365 H 516.856 4.10276 0.961867 0
M  V30 5366 H 515.58 2.94471 1.41261 0
M  V30 5367 H 514.239 3.61456 -0.611964 0
M  V30 5368 H 513.887 4.77736 1.57408 0
M  V30 5369 H 513.587 5.87255 0.20142 0
M  V30 5370 H 515.111 6.00149 1.12489 0
M  V30 5371 H 516.525 5.62355 -1.11488 0
M  V30 5372 H 514.922 5.69122 -1.90317 0
M  V30 5373 H 515.992 4.31281 -2.2164 0
M  V30 5374 N 517.335 0.585699 1.46312 0
M  V30 5375 C 518.265 -0.133556 2.33118 0
M  V30 5376 C 519.246 -0.880707 1.45525 0
M  V30 5377 O 520.431 -0.855579 1.74337 0
M  V30 5378 C 517.561 -1.14585 3.27853 0
M  V30 5379 C 516.515 -0.513341 4.2491 0
M  V30 5380 C 515.841 -1.63231 5.09175 0
M  V30 5381 C 517.141 0.551413 5.19381 0
M  V30 5382 H 518.835 0.59121 2.93505 0
M  V30 5383 H 516.381 0.285761 1.41136 0
M  V30 5384 H 518.334 -1.65741 3.87438 0
M  V30 5385 H 517.058 -1.90093 2.65579 0
M  V30 5386 H 515.717 -0.0228349 3.66593 0
M  V30 5387 H 515.365 -2.37713 4.43285 0
M  V30 5388 H 515.065 -1.21473 5.74907 0
M  V30 5389 H 516.589 -2.14658 5.71624 0
M  V30 5390 H 518.003 0.124804 5.73164 0
M  V30 5391 H 516.4 0.889486 5.93471 0
M  V30 5392 H 517.47 1.43655 4.63132 0
M  V30 5393 N 518.813 -1.54241 0.323641 0
M  V30 5394 C 520.041 -2.04985 -0.280871 0
M  V30 5395 C 520.456 -1.19978 -1.45777 0
M  V30 5396 O 519.813 -0.230471 -1.81039 0
M  V30 5397 C 519.864 -3.54353 -0.715258 0
M  V30 5398 O 519.585 -4.36132 0.414817 0
M  V30 5399 C 521.086 -4.21189 -1.38257 0
M  V30 5400 H 518.306 -0.66851 -0.0577502 0
M  V30 5401 H 520.85 -1.99029 0.469852 0
M  V30 5402 H 519.005 -3.60596 -1.41596 0
M  V30 5403 H 519.419 -5.2445 0.0725227 0
M  V30 5404 H 520.893 -5.27154 -1.63745 0
M  V30 5405 H 521.37 -3.72307 -2.32989 0
M  V30 5406 H 521.976 -4.19085 -0.724447 0
M  V30 5407 N 520.291 -0.0518155 -1.57515 0
M  V30 5408 C 521.221 0.920283 -2.146 0
M  V30 5409 C 522.202 1.32406 -1.06783 0
M  V30 5410 O 523.387 1.39866 -1.34726 0
M  V30 5411 C 520.517 2.1949 -2.6915 0
M  V30 5412 C 519.471 1.93116 -3.81956 0
M  V30 5413 C 518.797 3.27037 -4.23026 0
M  V30 5414 C 520.097 1.25225 -5.07066 0
M  V30 5415 H 521.791 0.444801 -2.96077 0
M  V30 5416 H 519.337 0.212508 -1.42423 0
M  V30 5417 H 521.29 2.87894 -3.07725 0
M  V30 5418 H 520.014 2.69244 -1.84865 0
M  V30 5419 H 518.673 1.27123 -3.43854 0
M  V30 5420 H 518.321 3.74595 -3.3569 0
M  V30 5421 H 518.021 3.10189 -4.99056 0
M  V30 5422 H 519.545 3.96673 -4.64202 0
M  V30 5423 H 520.959 1.83666 -5.43083 0
M  V30 5424 H 519.356 1.18702 -5.88243 0
M  V30 5425 H 520.426 0.228382 -4.84362 0
M  V30 5426 N 521.769 1.56035 0.221574 0
M  V30 5427 C 523.009 1.80822 0.953038 0
M  V30 5428 C 523.373 0.625316 1.81532 0
M  V30 5429 O 524.574 0.752491 2.58052 0
M  V30 5430 C 522.845 3.10503 1.76983 0
M  V30 5431 S 524.404 3.56604 2.55693 0
M  V30 5432 H 521.222 0.634849 0.320137 0
M  V30 5433 H 523.824 1.94274 0.218619 0
M  V30 5434 H 522.528 3.94636 1.12651 0
M  V30 5435 H 522.059 2.99858 2.54655 0
M  V30 5436 H 524.074 3.1994 3.79279 0
M  V30 5437 N 523.247 -0.488276 1.49845 0
M  V30 5438 C 524.177 -1.59675 1.70371 0
M  V30 5439 C 525.158 -1.60878 0.552473 0
M  V30 5440 O 526.343 -1.77417 0.78973 0
M  V30 5441 C 523.473 -2.98098 1.782 0
M  V30 5442 C 522.427 -3.11761 2.93239 0
M  V30 5443 C 521.753 -4.51661 2.86193 0
M  V30 5444 C 523.053 -2.90589 4.33999 0
M  V30 5445 H 524.747 -1.42752 2.63177 0
M  V30 5446 H 522.293 -0.685317 1.26647 0
M  V30 5447 H 524.246 -3.75555 1.91144 0
M  V30 5448 H 522.97 -3.16138 0.820018 0
M  V30 5449 H 521.629 -2.36732 2.79917 0
M  V30 5450 H 521.277 -4.66595 1.87877 0
M  V30 5451 H 520.977 -4.61742 3.63412 0
M  V30 5452 H 522.501 -5.31162 3.01163 0
M  V30 5453 H 523.915 -3.57807 4.47936 0
M  V30 5454 H 522.312 -3.1213 5.12538 0
M  V30 5455 H 523.382 -1.86595 4.4756 0
M  V30 5456 N 524.725 -1.39134 -0.740242 0
M  V30 5457 C 526.141 -1.20623 -1.0451 0
M  V30 5458 C 526.341 -0.0641651 -2.01398 0
M  V30 5459 O 525.397 0.585843 -2.4561 0
M  V30 5460 C 526.71 -2.53815 -1.6124 0
M  V30 5461 C 528.258 -2.60615 -1.73346 0
M  V30 5462 C 528.733 -3.94015 -2.33486 0
M  V30 5463 N 530.224 -3.95627 -2.40902 0
M  V30 5464 C 530.959 -4.95616 -2.88361 0
M  V30 5465 N 530.455 -6.06003 -3.35756 0
M  V30 5466 N 532.248 -4.82998 -2.87523 0
M  V30 5467 H 524.399 -2.12176 -0.0975576 0
M  V30 5468 H 526.662 -0.942066 -0.105904 0
M  V30 5469 H 526.368 -3.37911 -0.975144 0
M  V30 5470 H 526.242 -2.73162 -2.6012 0
M  V30 5471 H 528.629 -1.76906 -2.36195 0
M  V30 5472 H 528.71 -2.45123 -0.731336 0
M  V30 5473 H 528.354 -4.78153 -1.71267 0
M  V30 5474 H 528.284 -4.06825 -3.34366 0
M  V30 5475 H 530.775 -3.15903 -2.07398 0
M  V30 5476 H 531.088 -6.78215 -3.70464 0
M  V30 5477 H 529.433 -6.09604 -3.33778 0
M  V30 5478 H 532.624 -3.95866 -2.49816 0
M  V30 5479 H 532.797 -5.61072 -3.24196 0
M  V30 5480 N 526.204 0.969867 -1.24223 0
M  V30 5481 C 527.114 2.09806 -1.0497 0
M  V30 5482 C 528.13 1.73998 0.00886455 0
M  V30 5483 O 529.306 2.00513 -0.188848 0
M  V30 5484 C 526.371 3.40467 -0.654452 0
M  V30 5485 C 525.432 3.90236 -1.78926 0
M  V30 5486 C 524.665 5.14662 -1.41277 0
M  V30 5487 O 524.888 5.69602 -0.301632 0
M  V30 5488 O 523.822 5.58761 -2.23763 0
M  V30 5489 H 527.648 2.28942 -1.99548 0
M  V30 5490 H 525.233 1.08197 -1.03023 0
M  V30 5491 H 527.115 4.19039 -0.445452 0
M  V30 5492 H 525.79 3.22636 0.262216 0
M  V30 5493 H 524.697 3.12735 -2.05299 0
M  V30 5494 H 526.03 4.1254 -2.68462 0
M  V30 5495 N 527.682 1.05563 1.17022 0
M  V30 5496 C 528.612 0.681026 2.23348 0
M  V30 5497 C 529.593 -0.322983 1.67005 0
M  V30 5498 O 530.778 -0.199746 1.9317 0
M  V30 5499 C 527.908 0.0589053 3.4725 0
M  V30 5500 C 526.862 0.988082 4.16438 0
M  V30 5501 C 526.188 0.229646 5.34207 0
M  V30 5502 C 527.488 2.31388 4.68249 0
M  V30 5503 H 529.182 1.56993 2.54938 0
M  V30 5504 H 526.728 0.756302 1.2254 0
M  V30 5505 H 528.681 -0.214982 4.20851 0
M  V30 5506 H 527.405 -0.864968 3.14938 0
M  V30 5507 H 526.064 1.24659 3.44754 0
M  V30 5508 H 525.712 -0.697111 4.98146 0
M  V30 5509 H 525.412 0.848815 5.81437 0
M  V30 5510 H 526.936 -0.0368694 6.10589 0
M  V30 5511 H 528.35 2.09964 5.33468 0
M  V30 5512 H 526.747 2.88736 5.26072 0
M  V30 5513 H 527.817 2.94982 3.84855 0
M  V30 5514 N 529.16 -1.33526 0.837174 0
M  V30 5515 C 530.407 -1.97837 0.432064 0
M  V30 5516 C 530.735 -1.66324 -1.00829 0
M  V30 5517 O 529.99 -0.93448 -1.71948 0
M  V30 5518 C 530.289 -3.52367 0.597675 0
M  V30 5519 C 529.955 -4.03826 2.00587 0
M  V30 5520 C 528.617 -4.1759 2.39106 0
M  V30 5521 C 530.969 -4.31333 2.92576 0
M  V30 5522 C 528.297 -4.56195 3.68921 0
M  V30 5523 C 530.649 -4.7139 4.2187 0
M  V30 5524 C 529.313 -4.8336 4.60347 0
M  V30 5525 H 528.583 -0.723937 0.158104 0
M  V30 5526 H 531.23 -1.5923 1.06387 0
M  V30 5527 H 529.535 -3.91624 -0.117452 0
M  V30 5528 H 531.232 -4.00126 0.26454 0
M  V30 5529 H 527.822 -3.93586 1.69671 0
M  V30 5530 H 532.006 -4.20224 2.64056 0
M  V30 5531 H 527.262 -4.63655 3.9854 0
M  V30 5532 H 531.436 -4.91631 4.93226 0
M  V30 5533 H 529.063 -5.1303 5.60985 0
M  V30 5534 N 530.638 -0.59345 -1.46 0
M  V30 5535 C 531.548 0.135817 -2.34207 0
M  V30 5536 C 532.564 0.875008 -1.50398 0
M  V30 5537 O 533.74 0.835778 -1.83239 0
M  V30 5538 C 530.805 1.12977 -3.27776 0
M  V30 5539 C 529.866 0.394081 -4.27487 0
M  V30 5540 C 529.099 1.34068 -5.16586 0
M  V30 5541 O 529.322 2.5778 -5.08828 0
M  V30 5542 O 528.256 0.845426 -5.95933 0
M  V30 5543 H 532.082 -0.588691 -2.9794 0
M  V30 5544 H 529.667 -0.353784 -1.45151 0
M  V30 5545 H 531.549 1.70261 -3.85473 0
M  V30 5546 H 530.224 1.83556 -2.66625 0
M  V30 5547 H 529.131 -0.220869 -3.73447 0
M  V30 5548 H 530.464 -0.270939 -4.91454 0
M  V30 5549 N 532.116 1.54067 -0.331816 0
M  V30 5550 C 533.363 2.00715 0.268269 0
M  V30 5551 C 533.691 1.21986 1.51491 0
M  V30 5552 O 532.946 0.292309 1.93505 0
M  V30 5553 C 533.245 3.51634 0.639392 0
M  V30 5554 C 532.911 4.48018 -0.509019 0
M  V30 5555 C 531.573 4.74089 -0.824209 0
M  V30 5556 C 533.925 5.05237 -1.28003 0
M  V30 5557 C 531.253 5.54637 -1.91298 0
M  V30 5558 C 533.605 5.86972 -2.35895 0
M  V30 5559 C 532.269 6.11342 -2.67987 0
M  V30 5560 H 531.539 0.734469 0.0981667 0
M  V30 5561 H 534.186 1.8596 -0.457304 0
M  V30 5562 H 532.491 3.6416 1.44551 0
M  V30 5563 H 534.188 3.85175 1.11539 0
M  V30 5564 H 530.778 4.27851 -0.253287 0
M  V30 5565 H 534.962 4.8507 -1.04978 0
M  V30 5566 H 530.218 5.71747 -2.16599 0
M  V30 5567 H 534.392 6.30327 -2.96076 0
M  V30 5568 H 532.019 6.73544 -3.5248 0
M  V30 5569 N 533.594 0.0601682 1.57485 0
M  V30 5570 C 535.01 -0.296422 1.56823 0
M  V30 5571 C 535.21 -1.70831 1.0686 0
M  V30 5572 O 534.266 -2.4174 0.729245 0
M  V30 5573 C 535.579 -0.116681 3.00474 0
M  V30 5574 C 537.127 -0.187103 3.1244 0
M  V30 5575 C 537.602 -0.035783 4.57986 0
M  V30 5576 N 539.093 -0.0917676 4.63109 0
M  V30 5577 C 539.828 0.00107251 5.734 0
M  V30 5578 N 539.324 0.146773 6.92645 0
M  V30 5579 N 541.117 -0.0551577 5.62073 0
M  V30 5580 H 533.268 0.983055 1.88281 0
M  V30 5581 H 535.531 0.382386 0.867459 0
M  V30 5582 H 535.237 0.85712 3.41096 0
M  V30 5583 H 535.111 -0.873929 3.66936 0
M  V30 5584 H 537.498 -1.15138 2.71712 0
M  V30 5585 H 537.579 0.601052 2.48638 0
M  V30 5586 H 537.223 0.925212 4.99402 0
M  V30 5587 H 537.153 -0.843196 5.19806 0
M  V30 5588 H 539.644 -0.203261 3.77353 0
M  V30 5589 H 539.957 0.210076 7.72514 0
M  V30 5590 H 538.302 0.181979 6.94762 0
M  V30 5591 H 541.493 -0.167605 4.678 0
M  V30 5592 H 541.666 0.020652 6.47997 0
M  V30 5593 N 535.072 -1.5615 -0.213296 0
M  V30 5594 C 536.319 -1.79546 -0.936462 0
M  V30 5595 C 536.647 -0.630337 -1.84003 0
M  V30 5596 O 535.902 0.384883 -1.91878 0
M  V30 5597 C 536.201 -3.08772 -1.79985 0
M  V30 5598 C 535.867 -4.38532 -1.04882 0
M  V30 5599 C 534.529 -4.73787 -0.841393 0
M  V30 5600 C 536.881 -5.18609 -0.51907 0
M  V30 5601 C 534.209 -5.86627 -0.0924403 0
M  V30 5602 C 536.561 -6.32229 0.216581 0
M  V30 5603 C 535.225 -6.6608 0.435191 0
M  V30 5604 H 534.495 -0.657004 -0.342676 0
M  V30 5605 H 537.142 -1.9041 -0.204051 0
M  V30 5606 H 535.447 -2.93065 -2.60038 0
M  V30 5607 H 537.144 -3.24077 -2.36168 0
M  V30 5608 H 533.734 -4.10855 -1.22048 0
M  V30 5609 H 537.918 -4.91801 -0.666775 0
M  V30 5610 H 533.174 -6.11338 0.087081 0
M  V30 5611 H 537.348 -6.93503 0.634538 0
M  V30 5612 H 534.975 -7.5336 1.01746 0
M  V30 5613 N 536.55 0.480323 -1.50102 0
M  V30 5614 C 537.483 1.59789 -1.62919 0
M  V30 5615 C 538.461 1.55429 -0.477557 0
M  V30 5616 O 539.645 1.75186 -0.695851 0
M  V30 5617 C 536.772 2.98351 -1.60325 0
M  V30 5618 C 535.818 3.20899 -2.80938 0
M  V30 5619 S 536.651 3.01791 -4.4236 0
M  V30 5620 C 537.807 4.42712 -4.42444 0
M  V30 5621 H 538.04 1.48676 -2.57454 0
M  V30 5622 H 535.573 0.666996 -1.3925 0
M  V30 5623 H 537.531 3.7824 -1.59514 0
M  V30 5624 H 536.192 3.06862 -0.670419 0
M  V30 5625 H 535.385 4.22102 -2.75401 0
M  V30 5626 H 534.987 2.48768 -2.79268 0
M  V30 5627 H 537.279 5.3518 -4.15438 0
M  V30 5628 H 538.222 4.53294 -5.43995 0
M  V30 5629 H 538.63 4.24359 -3.72263 0
M  V30 5630 N 538.028 1.39524 0.732853 0
M  V30 5631 C 538.96 1.34318 1.85718 0
M  V30 5632 C 539.973 0.251576 1.60844 0
M  V30 5633 O 541.162 0.510685 1.71039 0
M  V30 5634 C 538.262 1.06334 3.21786 0
M  V30 5635 C 537.435 2.26813 3.73998 0
M  V30 5636 C 536.494 1.95253 4.88634 0
M  V30 5637 O 535.52 2.67957 5.02183 0
M  V30 5638 N 536.722 0.919984 5.73164 0
M  V30 5639 H 539.487 2.3121 1.90688 0
M  V30 5640 H 537.048 1.33654 0.91368 0
M  V30 5641 H 539.04 0.832363 3.96048 0
M  V30 5642 H 537.61 0.181682 3.12072 0
M  V30 5643 H 536.83 2.65849 2.91064 0
M  V30 5644 H 538.118 3.0717 4.05616 0
M  V30 5645 H 537.516 0.317487 5.64808 0
M  V30 5646 H 536.073 0.748905 6.47483 0
M  V30 5647 N 539.506 -0.963266 1.24736 0
M  V30 5648 C 540.734 -1.74166 1.11686 0
M  V30 5649 C 541.149 -1.8589 -0.330187 0
M  V30 5650 O 540.506 -1.35042 -1.2276 0
M  V30 5651 C 540.557 -3.15989 1.75595 0
M  V30 5652 O 540.278 -3.04847 3.14642 0
M  V30 5653 C 541.779 -4.10145 1.68213 0
M  V30 5654 H 538.999 -0.546031 0.389989 0
M  V30 5655 H 541.543 -1.20907 1.64929 0
M  V30 5656 H 539.698 -3.66219 1.26343 0
M  V30 5657 H 540.112 -3.9425 3.4593 0
M  V30 5658 H 541.586 -5.07299 2.17604 0
M  V30 5659 H 542.063 -4.3445 0.644208 0
M  V30 5660 H 542.669 -3.65827 2.16912 0
M  V30 5661 N 540.985 -1.06182 -1.16461 0
M  V30 5662 C 542.262 -0.691364 -1.82974 0
M  V30 5663 C 542.642 0.827377 -1.9421 0
M  V30 5664 O 541.99 1.73723 -1.48434 0
M  V30 5665 C 542.2 -1.39199 -3.20038 0
M  V30 5666 C 543.548 -1.53647 -3.95825 0
M  V30 5667 O 544.572 -1.35181 -3.29552 0
M  V30 5668 O 543.431 -1.83932 -5.14618 0
M  V30 5669 H 540.525 -0.244605 -0.789998 0
M  V30 5670 H 543.071 -1.16203 -1.23673 0
M  V30 5671 H 541.843 -2.42766 -3.06888 0
M  V30 5672 H 541.466 -0.911335 -3.87015 0
M  V30 5673 N 542.463 1.3308 -0.844243 0
M  V30 5674 C 543.874 1.7992 -0.498566 0
M  V30 5675 C 544.225 1.69808 0.982834 0
M  V30 5676 O 543.35 1.25051 1.7661 0
M  V30 5677 C 543.945 3.26677 -0.898204 0
M  V30 5678 C 542.504 3.71513 -0.604583 0
M  V30 5679 C 541.651 2.54393 -1.10362 0
M  V30 5680 H 544.602 1.20526 -1.03244 0
M  V30 5681 H 544.623 3.79918 -0.21039 0
M  V30 5682 H 544.135 3.34004 -1.97643 0
M  V30 5683 H 542.236 3.69708 0.46335 0
M  V30 5684 H 542.349 4.64755 -1.16358 0
M  V30 5685 H 540.713 2.49246 -0.524273 0
M  V30 5686 H 541.496 2.6448 -2.18873 0
M  V30 5687 N 543.941 0.601185 1.45683 0
M  V30 5688 C 544.889 -0.133955 2.32214 0
M  V30 5689 C 545.883 -0.866034 1.45589 0
M  V30 5690 O 547.089 -0.782326 1.6211 0
M  V30 5691 H 543.464 -0.0620613 0.749435 0
M  V30 5692 H 545.435 0.614389 2.92007 0
M  V30 5693 C 544.184 -1.12216 3.29094 0
M  V30 5694 H 543.507 -0.568273 3.95741 0
M  V30 5695 H 544.947 -1.60659 3.92383 0
M  V30 5696 C 543.406 -2.19251 2.55794 0
M  V30 5697 O 543.936 -3.26894 2.33459 0
M  V30 5698 N 542.142 -1.9436 2.16039 0
M  V30 5699 H 541.689 -1.06829 2.34404 0
M  V30 5700 H 541.647 -2.66181 1.67318 0
M  V30 5701 N 545.419 -1.53889 0.339982 0
M  V30 5702 C 546.665 -2.01849 -0.250694 0
M  V30 5703 C 547.02 -1.22356 -1.48482 0
M  V30 5704 O 546.313 -0.301906 -1.89206 0
M  V30 5705 C 546.507 -3.51968 -0.620735 0
M  V30 5706 C 546.336 -4.45996 0.575981 0
M  V30 5707 C 545.106 -4.93619 1.08019 0
M  V30 5708 C 547.304 -4.93923 1.43332 0
M  V30 5709 N 545.286 -5.7159 2.2396 0
M  V30 5710 C 546.657 -5.69982 2.43969 0
M  V30 5711 C 548.712 -4.76038 1.45918 0
M  V30 5712 C 547.415 -6.30057 3.47016 0
M  V30 5713 C 549.441 -5.36961 2.47845 0
M  V30 5714 C 548.803 -6.12884 3.47208 0
M  V30 5715 H 544.902 -0.780054 -0.0551368 0
M  V30 5716 H 547.486 -1.88722 0.478741 0
M  V30 5717 H 545.657 -3.65308 -1.31928 0
M  V30 5718 H 547.389 -3.86677 -1.19429 0
M  V30 5719 H 544.144 -4.69134 0.64884 0
M  V30 5720 H 544.568 -6.15247 2.82489 0
M  V30 5721 H 549.21 -4.16887 0.704608 0
M  V30 5722 H 546.928 -6.88319 4.23371 0
M  V30 5723 H 550.514 -5.2503 2.50668 0
M  V30 5724 H 549.394 -6.59187 4.24785 0
M  V30 5725 N 546.897 -0.0685191 -1.57451 0
M  V30 5726 C 547.86 0.885173 -2.11417 0
M  V30 5727 C 548.86 1.22853 -1.03748 0
M  V30 5728 O 550.05 1.16235 -1.2975 0
M  V30 5729 C 547.182 2.18964 -2.61281 0
M  V30 5730 H 548.375 0.417034 -2.96986 0
M  V30 5731 H 545.928 0.18014 -1.55258 0
M  V30 5732 H 546.663 2.70321 -1.79156 0
M  V30 5733 H 546.448 1.9534 -3.39977 0
M  V30 5734 H 547.938 2.87242 -3.0312 0
M  V30 5735 N 548.375 1.56261 0.205012 0
M  V30 5736 C 549.323 1.94631 1.27364 0
M  V30 5737 C 550.317 0.830434 1.47649 0
M  V30 5738 O 551.523 1.01538 1.48627 0
M  V30 5739 H 547.898 0.618755 0.427371 0
M  V30 5740 H 549.869 2.83768 0.922941 0
M  V30 5741 C 548.618 2.29358 2.61324 0
M  V30 5742 H 547.941 3.14744 2.46528 0
M  V30 5743 H 549.381 2.60076 3.34868 0
M  V30 5744 C 547.84 1.12461 3.17575 0
M  V30 5745 O 548.37 0.394407 3.99759 0
M  V30 5746 N 546.576 0.904036 2.7618 0
M  V30 5747 H 546.123 1.49956 2.09454 0
M  V30 5748 H 546.081 0.123662 3.14157 0
M  V30 5749 N 549.853 -0.472356 1.50355 0
M  V30 5750 C 551.1 -1.22453 1.61281 0
M  V30 5751 C 551.428 -1.91972 0.31256 0
M  V30 5752 O 550.683 -1.82696 -0.701475 0
M  V30 5753 C 550.982 -2.29257 2.74182 0
M  V30 5754 C 550.648 -1.76999 4.14708 0
M  V30 5755 C 549.31 -1.62467 4.52944 0
M  V30 5756 C 551.662 -1.38215 5.0254 0
M  V30 5757 C 548.99 -1.07574 5.76754 0
M  V30 5758 C 551.342 -0.847638 6.26895 0
M  V30 5759 C 550.006 -0.688946 6.63935 0
M  V30 5760 H 549.276 -0.448087 0.590168 0
M  V30 5761 H 551.923 -0.520744 1.84284 0
M  V30 5762 H 550.228 -3.05538 2.45263 0
M  V30 5763 H 551.925 -2.87212 2.7984 0
M  V30 5764 H 548.515 -1.89276 3.84542 0
M  V30 5765 H 552.699 -1.48276 4.73633 0
M  V30 5766 H 547.955 -0.940237 6.04127 0
M  V30 5767 H 552.129 -0.538455 6.94315 0
M  V30 5768 H 549.756 -0.261435 7.5975 0
M  V30 5769 N 551.331 -1.39911 -0.725443 0
M  V30 5770 C 552.261 -1.42138 -1.85254 0
M  V30 5771 C 553.242 -0.283513 -1.67721 0
M  V30 5772 O 554.427 -0.490717 -1.87898 0
M  V30 5773 C 551.557 -1.27354 -3.23107 0
M  V30 5774 C 550.511 -2.3864 -3.55296 0
M  V30 5775 C 549.837 -2.08939 -4.92188 0
M  V30 5776 C 551.137 -3.8097 -3.57295 0
M  V30 5777 H 552.831 -2.36461 -1.83648 0
M  V30 5778 H 550.377 -1.13817 -0.882138 0
M  V30 5779 H 552.33 -1.2753 -4.01639 0
M  V30 5780 H 551.054 -0.295025 -3.25265 0
M  V30 5781 H 549.713 -2.37696 -2.79099 0
M  V30 5782 H 549.361 -1.09502 -4.90936 0
M  V30 5783 H 549.061 -2.83491 -5.14691 0
M  V30 5784 H 550.585 -2.10781 -5.73065 0
M  V30 5785 H 551.999 -3.8379 -4.25885 0
M  V30 5786 H 550.396 -4.5496 -3.9132 0
M  V30 5787 H 551.466 -4.11261 -2.5689 0
M  V30 5788 N 552.809 0.956637 -1.25245 0
M  V30 5789 C 554.039 1.7332 -1.12445 0
M  V30 5790 C 554.447 1.86392 0.324732 0
M  V30 5791 O 553.79 1.35967 1.23526 0
M  V30 5792 C 553.852 3.16603 -1.70303 0
M  V30 5793 C 553.516 3.26966 -3.19284 0
M  V30 5794 C 554.513 3.11434 -4.16299 0
M  V30 5795 C 552.198 3.50851 -3.59456 0
M  V30 5796 C 554.192 3.1963 -5.51467 0
M  V30 5797 C 551.879 3.58684 -4.94761 0
M  V30 5798 C 552.877 3.43087 -5.90576 0
M  V30 5799 O 552.565 3.50598 -7.2342 0
M  V30 5800 H 552.297 0.549981 -0.393061 0
M  V30 5801 H 554.851 1.20892 -1.66055 0
M  V30 5802 H 553.081 3.70385 -1.11138 0
M  V30 5803 H 554.77 3.76109 -1.52632 0
M  V30 5804 H 555.536 2.92853 -3.86604 0
M  V30 5805 H 551.415 3.62053 -2.85375 0
M  V30 5806 H 554.959 3.07373 -6.26233 0
M  V30 5807 H 550.856 3.76782 -5.24124 0
M  V30 5808 H 551.624 3.67242 -7.31489 0
M  V30 5809 N 554.287 1.06798 1.15896 0
M  V30 5810 C 555.564 0.701057 1.82605 0
M  V30 5811 C 555.944 -0.817066 1.94646 0
M  V30 5812 O 555.292 -1.72933 1.49353 0
M  V30 5813 C 555.502 1.40895 3.19296 0
M  V30 5814 C 556.85 1.55744 3.95005 0
M  V30 5815 O 557.874 1.36927 3.28831 0
M  V30 5816 O 556.733 1.86658 5.13635 0
M  V30 5817 H 553.827 0.248791 0.78869 0
M  V30 5818 H 556.373 1.16857 1.23055 0
M  V30 5819 H 555.145 2.4439 3.05596 0
M  V30 5820 H 554.768 0.931847 3.86526 0
M  V30 5821 N 555.766 -1.3263 0.851289 0
M  V30 5822 C 556.729 -2.27247 0.298541 0
M  V30 5823 C 557.729 -1.51467 -0.539847 0
M  V30 5824 O 558.919 -1.7061 -0.351843 0
M  V30 5825 C 556.051 -3.35964 -0.578004 0
M  V30 5826 H 557.244 -2.7765 1.13359 0
M  V30 5827 H 554.797 -1.43245 0.625354 0
M  V30 5828 H 555.532 -2.90823 -1.435 0
M  V30 5829 H 555.317 -3.92094 0.0220539 0
M  V30 5830 H 556.807 -4.06472 -0.957626 0
M  V30 5831 N 557.244 -0.608902 -1.45362 0
M  V30 5832 C 558.469 -0.10921 -2.07112 0
M  V30 5833 C 558.894 1.19779 -1.45033 0
M  V30 5834 O 558.252 1.72961 -0.543527 0
M  V30 5835 C 558.3 0.0155745 -3.60597 0
M  V30 5836 O 557.404 1.06546 -3.98399 0
M  V30 5837 H 556.745 -0.0746619 -0.659789 0
M  V30 5838 H 559.275 -0.839283 -1.86594 0
M  V30 5839 H 559.285 0.213364 -4.07442 0
M  V30 5840 H 557.96 -0.938765 -4.05167 0
M  V30 5841 H 556.537 0.844024 -3.63223 0
M  V30 5842 N 558.722 1.53707 -0.348139 0
M  V30 5843 C 559.947 2.05877 0.250883 0
M  V30 5844 C 560.372 1.22115 1.43072 0
M  V30 5845 O 559.73 0.235986 1.79758 0
M  V30 5846 C 559.778 3.54886 0.639416 0
M  V30 5847 O 558.882 3.73948 1.73888 0
M  V30 5848 H 558.223 0.662754 0.040653 0
M  V30 5849 H 560.753 1.98303 -0.503685 0
M  V30 5850 H 560.763 3.97601 0.915295 0
M  V30 5851 H 559.438 4.153 -0.223386 0
M  V30 5852 H 558.015 3.43134 1.45991 0
M  V30 5853 N 560.2 0.0768682 1.57412 0
M  V30 5854 C 561.15 -0.898795 2.09537 0
M  V30 5855 C 562.134 -1.25556 1.0062 0
M  V30 5856 O 563.326 -1.23369 1.26921 0
M  V30 5857 C 560.455 -2.16453 2.66464 0
M  V30 5858 C 559.541 -1.83401 3.82393 0
M  V30 5859 N 559.932 -1.20823 4.91157 0
M  V30 5860 C 558.23 -2.13121 3.91785 0
M  V30 5861 C 558.931 -1.05976 5.71965 0
M  V30 5862 N 557.907 -1.57113 5.204 0
M  V30 5863 H 561.709 -0.410718 2.91016 0
M  V30 5864 H 559.223 -0.126878 1.61904 0
M  V30 5865 H 561.22 -2.87274 3.02125 0
M  V30 5866 H 559.88 -2.65844 1.86433 0
M  V30 5867 H 560.891 -0.877249 5.10416 0
M  V30 5868 H 557.568 -2.64854 3.22736 0
M  V30 5869 H 558.958 -0.571809 6.69462 0
M  V30 5870 N 561.678 -1.56367 -0.196722 0
M  V30 5871 C 562.61 -1.90941 -1.26784 0
M  V30 5872 C 563.623 -0.799928 -1.41792 0
M  V30 5873 O 564.812 -1.07833 -1.42247 0
M  V30 5874 C 561.912 -2.12477 -2.6402 0
M  V30 5875 C 561.085 -3.43616 -2.70641 0
M  V30 5876 C 560.144 -3.54284 -3.89062 0
M  V30 5877 O 559.17 -4.2712 -3.76241 0
M  V30 5878 N 560.372 -2.87252 -5.04447 0
M  V30 5879 H 563.137 -2.83417 -0.974417 0
M  V30 5880 H 560.698 -1.57215 -0.386649 0
M  V30 5881 H 562.69 -2.16904 -3.41665 0
M  V30 5882 H 561.26 -1.26508 -2.85857 0
M  V30 5883 H 560.48 -3.51072 -1.79283 0
M  V30 5884 H 561.768 -4.29958 -2.72054 0
M  V30 5885 H 561.166 -2.27901 -5.17762 0
M  V30 5886 H 559.723 -2.97308 -5.80044 0
M  V30 5887 N 563.156 0.464375 -1.50603 0
M  V30 5888 C 564.402 1.21776 -1.62168 0
M  V30 5889 C 564.735 1.91476 -0.324154 0
M  V30 5890 O 564.01 1.8242 0.674782 0
M  V30 5891 C 564.293 2.25614 -2.80661 0
M  V30 5892 C 564.146 1.60175 -4.20314 0
M  V30 5893 C 565.465 3.26862 -2.94702 0
M  V30 5894 H 562.584 0.44137 -0.590222 0
M  V30 5895 H 565.226 0.510623 -1.8301 0
M  V30 5896 H 563.376 2.85923 -2.63021 0
M  V30 5897 H 565.048 1.03411 -4.4956 0
M  V30 5898 H 563.291 0.904697 -4.24261 0
M  V30 5899 H 563.962 2.35665 -4.99165 0
M  V30 5900 H 566.438 2.76582 -3.10872 0
M  V30 5901 H 565.314 3.96839 -3.79223 0
M  V30 5902 H 565.575 3.91382 -2.05603 0
M  V30 5903 N 564.634 1.40294 0.718013 0
M  V30 5904 C 565.862 1.4175 1.50714 0
M  V30 5905 C 566.277 0.0165366 1.88793 0
M  V30 5906 O 565.634 -0.958942 1.55276 0
M  V30 5907 C 565.685 2.30598 2.784 0
M  V30 5908 O 565.406 3.6524 2.41932 0
M  V30 5909 C 566.907 2.4062 3.72313 0
M  V30 5910 H 564.127 0.483565 0.465194 0
M  V30 5911 H 566.671 1.84316 0.885889 0
M  V30 5912 H 564.826 1.91401 3.36815 0
M  V30 5913 H 565.24 4.12402 3.24076 0
M  V30 5914 H 566.714 3.07001 4.58753 0
M  V30 5915 H 567.191 1.4305 4.15251 0
M  V30 5916 H 567.797 2.80359 3.19811 0
M  V30 5917 N 566.112 -0.949982 1.2575 0
M  V30 5918 C 567.042 -2.06483 1.09028 0
M  V30 5919 C 568.023 -1.701 -0.00201532 0
M  V30 5920 O 569.208 -1.93469 0.168383 0
M  V30 5921 C 566.338 -3.39899 0.71316 0
M  V30 5922 C 565.292 -3.90309 1.75621 0
M  V30 5923 C 564.618 -5.20274 1.23365 0
M  V30 5924 C 565.918 -4.16169 3.15596 0
M  V30 5925 H 567.612 -2.20731 2.02283 0
M  V30 5926 H 565.158 -1.06066 0.973964 0
M  V30 5927 H 567.111 -4.17346 0.58309 0
M  V30 5928 H 565.835 -3.25602 -0.255091 0
M  V30 5929 H 564.494 -3.15035 1.8748 0
M  V30 5930 H 564.142 -5.02351 0.255491 0
M  V30 5931 H 563.842 -5.54971 1.93082 0
M  V30 5932 H 565.366 -6.00314 1.11607 0
M  V30 5933 H 566.78 -4.84259 3.06864 0
M  V30 5934 H 565.177 -4.62131 3.82825 0
M  V30 5935 H 566.247 -3.22273 3.6231 0
M  V30 5936 N 567.59 -1.07411 -1.15328 0
M  V30 5937 C 568.52 -0.716472 -2.22236 0
M  V30 5938 C 569.501 0.296373 -1.67498 0
M  V30 5939 O 570.686 0.168989 -1.93463 0
M  V30 5940 C 567.816 -0.114142 -3.47112 0
M  V30 5941 C 566.77 -1.05421 -4.14814 0
M  V30 5942 C 566.096 -0.314604 -5.33774 0
M  V30 5943 C 567.396 -2.38808 -4.64508 0
M  V30 5944 H 569.09 -1.61029 -2.52408 0
M  V30 5945 H 566.636 -0.775702 -1.21321 0
M  V30 5946 H 568.589 0.148001 -4.2114 0
M  V30 5947 H 567.313 0.814755 -3.16274 0
M  V30 5948 H 565.972 -1.30128 -3.42728 0
M  V30 5949 H 565.62 0.617772 -4.99192 0
M  V30 5950 H 565.32 -0.941209 -5.80013 0
M  V30 5951 H 566.844 -0.0602747 -6.1057 0
M  V30 5952 H 568.258 -2.18424 -5.3006 0
M  V30 5953 H 566.655 -2.97069 -5.21412 0
M  V30 5954 H 567.725 -3.01067 -3.80114 0
M  V30 5955 N 569.068 1.32177 -0.85831 0
M  V30 5956 C 570.345 1.91781 -0.384624 0
M  V30 5957 C 570.725 1.78171 1.13217 0
M  V30 5958 O 570.073 1.18209 1.95548 0
M  V30 5959 C 570.283 3.38414 -0.853047 0
M  V30 5960 C 571.631 4.15542 -0.872359 0
M  V30 5961 O 572.655 3.47148 -0.797926 0
M  V30 5962 O 571.514 5.37678 -0.978009 0
M  V30 5963 H 568.608 0.819259 -0.112886 0
M  V30 5964 H 571.154 1.40923 -0.945453 0
M  V30 5965 H 569.926 3.4228 -1.89632 0
M  V30 5966 H 569.549 3.96683 -0.269874 0
M  V30 5967 N 570.547 0.616602 1.45037 0
M  V30 5968 C 571.794 0.115331 2.02171 0
M  V30 5969 C 572.122 -1.25748 1.48383 0
M  V30 5970 O 571.377 -1.84511 0.652229 0
M  V30 5971 C 571.676 0.0356829 3.57382 0
M  V30 5972 C 571.342 1.34535 4.30362 0
M  V30 5973 C 570.004 1.70408 4.50016 0
M  V30 5974 C 572.356 2.21049 4.72003 0
M  V30 5975 C 569.684 2.92529 5.0857 0
M  V30 5976 C 572.036 3.42427 5.31908 0
M  V30 5977 C 570.7 3.78541 5.49784 0
M  V30 5978 H 569.97 0.0422024 0.739797 0
M  V30 5979 H 572.617 0.80002 1.73988 0
M  V30 5980 H 570.922 -0.732314 3.84895 0
M  V30 5981 H 572.619 -0.368463 3.99304 0
M  V30 5982 H 569.209 1.05615 4.15383 0
M  V30 5983 H 573.393 1.94632 4.56544 0
M  V30 5984 H 568.649 3.20605 5.20598 0
M  V30 5985 H 572.823 4.09709 5.63127 0
M  V30 5986 H 570.45 4.73255 5.94923 0
M  V30 5987 N 572.025 -1.5352 0.356285 0
M  V30 5988 C 573.273 -2.00719 -0.235837 0
M  V30 5989 C 573.594 -1.24551 -1.5004 0
M  V30 5990 O 572.864 -0.356185 -1.92635 0
M  V30 5991 H 571.444 -0.741542 -0.0901366 0
M  V30 5992 H 574.106 -1.88887 0.480378 0
M  V30 5993 H 573.202 -3.08551 -0.469357 0
M  V30 5994 N 573.503 -0.0852151 -1.57369 0
M  V30 5995 C 574.466 0.8627 -2.12344 0
M  V30 5996 C 575.466 1.21746 -1.05046 0
M  V30 5997 O 576.656 1.14852 -1.30976 0
M  V30 5998 C 573.788 2.1618 -2.63589 0
M  V30 5999 H 574.981 0.385511 -2.97412 0
M  V30 6000 H 572.534 0.163663 -1.55441 0
M  V30 6001 H 573.269 2.68406 -1.82013 0
M  V30 6002 H 573.054 1.91723 -3.4203 0
M  V30 6003 H 574.544 2.84011 -3.06149 0
M  V30 6004 N 574.981 1.5647 0.188427 0
M  V30 6005 C 576.206 1.85486 0.927891 0
M  V30 6006 C 576.631 0.669575 1.75779 0
M  V30 6007 O 575.989 -0.381573 1.77239 0
M  V30 6008 C 576.037 3.12784 1.7944 0
M  V30 6009 O 575.141 2.93805 2.894 0
M  V30 6010 H 574.482 0.610585 0.260925 0
M  V30 6011 H 577.012 2.037 0.191729 0
M  V30 6012 H 577.022 3.43749 2.19774 0
M  V30 6013 H 575.697 3.98671 1.18468 0
M  V30 6014 H 574.274 2.74153 2.52774 0
M  V30 6015 N 576.459 -0.456382 1.50847 0
M  V30 6016 C 577.875 -0.791345 1.386 0
M  V30 6017 C 578.075 -1.9633 0.453498 0
M  V30 6018 O 577.131 -2.52308 -0.0984353 0
M  V30 6019 C 578.444 -1.08959 2.80265 0
M  V30 6020 C 579.992 -1.19517 2.89283 0
M  V30 6021 C 580.467 -1.52647 4.31814 0
M  V30 6022 N 581.958 -1.59609 4.34832 0
M  V30 6023 C 582.693 -1.86777 5.42127 0
M  V30 6024 N 582.189 -2.11866 6.59609 0
M  V30 6025 N 583.982 -1.88402 5.29586 0
M  V30 6026 H 576.133 0.315746 2.1004 0
M  V30 6027 H 578.396 0.0787916 0.94472 0
M  V30 6028 H 578.102 -0.301355 3.50407 0
M  V30 6029 H 577.976 -2.02211 3.18419 0
M  V30 6030 H 580.363 -1.97406 2.19351 0
M  V30 6031 H 580.444 -0.242111 2.54652 0
M  V30 6032 H 580.088 -0.752922 5.02288 0
M  V30 6033 H 580.018 -2.49127 4.63943 0
M  V30 6034 H 582.509 -1.42201 3.50125 0
M  V30 6035 H 582.822 -2.31912 7.37182 0
M  V30 6036 H 581.167 -2.09228 6.62758 0
M  V30 6037 H 584.358 -1.68307 4.36795 0
M  V30 6038 H 584.531 -2.09238 6.13289 0
M  V30 6039 N 577.937 -1.40673 -0.710563 0
M  V30 6040 C 578.847 -1.43663 -1.85467 0
M  V30 6041 C 579.863 -0.328721 -1.70867 0
M  V30 6042 O 581.039 -0.574098 -1.93044 0
M  V30 6043 C 578.104 -1.30226 -3.21313 0
M  V30 6044 C 577.165 -2.51204 -3.48131 0
M  V30 6045 C 576.398 -2.38398 -4.77495 0
M  V30 6046 O 576.621 -1.40048 -5.5294 0
M  V30 6047 O 575.555 -3.2787 -5.04762 0
M  V30 6048 H 579.381 -2.40156 -1.859 0
M  V30 6049 H 576.966 -1.22049 -0.861652 0
M  V30 6050 H 578.848 -1.2496 -4.02446 0
M  V30 6051 H 577.523 -0.368419 -3.21597 0
M  V30 6052 H 576.43 -2.62048 -2.66987 0
M  V30 6053 H 577.763 -3.43366 -3.52648 0
M  V30 6054 N 579.415 0.9433 -1.26252 0
M  V30 6055 C 580.662 1.68925 -1.11672 0
M  V30 6056 C 580.99 1.91499 0.340329 0
M  V30 6057 O 580.245 1.49189 1.26653 0
M  V30 6058 C 580.544 3.07073 -1.82868 0
M  V30 6059 C 580.21 3.04262 -3.32769 0
M  V30 6060 C 578.872 3.03203 -3.7366 0
M  V30 6061 C 581.224 2.96729 -4.28487 0
M  V30 6062 C 578.552 2.92373 -5.0866 0
M  V30 6063 C 580.904 2.87442 -5.63525 0
M  V30 6064 C 579.568 2.84724 -6.03729 0
M  V30 6065 H 578.838 0.618141 -0.408635 0
M  V30 6066 H 581.485 1.10124 -1.56668 0
M  V30 6067 H 579.79 3.69486 -1.30335 0
M  V30 6068 H 581.487 3.63635 -1.69029 0
M  V30 6069 H 578.077 3.05865 -3.00241 0
M  V30 6070 H 582.261 2.96658 -3.97879 0
M  V30 6071 H 577.517 2.88645 -5.38975 0
M  V30 6072 H 581.691 2.80576 -6.37377 0
M  V30 6073 H 579.318 2.76089 -7.08293 0
M  V30 6074 N 580.893 1.08022 1.14757 0
M  V30 6075 C 582.141 0.805913 1.85336 0
M  V30 6076 C 582.462 -0.670162 1.83122 0
M  V30 6077 O 581.732 -1.48567 1.2769 0
M  V30 6078 H 580.312 0.295138 0.686223 0
M  V30 6079 H 582.974 1.36538 1.3908 0
M  V30 6080 H 582.07 1.14655 2.90277 0
M  V30 6081 N 582.371 -1.3172 0.865308 0
M  V30 6082 C 583.599 -2.01057 0.488251 0
M  V30 6083 C 584.014 -1.64979 -0.918 0
M  V30 6084 O 583.371 -0.876597 -1.60069 0
M  V30 6085 C 583.422 -3.55964 0.630224 0
M  V30 6086 O 583.143 -3.90749 1.98109 0
M  V30 6087 C 584.644 -4.42574 0.253567 0
M  V30 6088 H 581.864 -0.64332 0.190736 0
M  V30 6089 H 584.408 -1.68058 1.16519 0
M  V30 6090 H 582.563 -3.874 0.000895422 0
M  V30 6091 H 582.977 -4.85467 1.9855 0
M  V30 6092 H 584.451 -5.50521 0.403875 0
M  V30 6093 H 584.928 -4.31724 -0.806895 0
M  V30 6094 H 585.534 -4.16547 0.858404 0
M  V30 6095 N 583.85 -0.624285 -1.44708 0
M  V30 6096 C 584.76 0.0861083 -2.34442 0
M  V30 6097 C 585.776 0.84291 -1.5222 0
M  V30 6098 O 586.952 0.796723 -1.84971 0
M  V30 6099 C 584.017 1.05999 -3.30099 0
M  V30 6100 C 583.077 0.303316 -4.28227 0
M  V30 6101 C 582.311 1.23081 -5.19314 0
M  V30 6102 O 582.534 2.46929 -5.14181 0
M  V30 6103 O 581.468 0.71883 -5.97592 0
M  V30 6104 H 585.293 -0.651756 -2.96624 0
M  V30 6105 H 582.879 -0.384493 -1.44368 0
M  V30 6106 H 584.76 1.62046 -3.88997 0
M  V30 6107 H 583.436 1.77859 -2.70459 0
M  V30 6108 H 582.343 -0.300033 -3.72895 0
M  V30 6109 H 583.676 -0.375123 -4.90768 0
M  V30 6110 N 585.328 1.53329 -0.364422 0
M  V30 6111 C 586.575 2.01239 0.225634 0
M  V30 6112 C 586.903 1.25172 1.48869 0
M  V30 6113 O 586.158 0.333289 1.92841 0
M  V30 6114 C 586.457 3.52911 0.564661 0
M  V30 6115 C 586.123 4.46837 -0.603936 0
M  V30 6116 C 584.785 4.72234 -0.924585 0
M  V30 6117 C 587.137 5.02409 -1.38691 0
M  V30 6118 C 584.465 5.50454 -2.0302 0
M  V30 6119 C 586.817 5.81836 -2.48293 0
M  V30 6120 C 585.481 6.0552 -2.80894 0
M  V30 6121 H 584.751 0.736386 0.0825654 0
M  V30 6122 H 587.398 1.84948 -0.496645 0
M  V30 6123 H 585.703 3.67144 1.36794 0
M  V30 6124 H 587.4 3.87455 1.03344 0
M  V30 6125 H 583.99 4.27217 -0.343983 0
M  V30 6126 H 588.174 4.82735 -1.15243 0
M  V30 6127 H 583.43 5.67024 -2.28678 0
M  V30 6128 H 587.604 6.23905 -3.0938 0
M  V30 6129 H 585.231 6.65916 -3.66688 0
M  V30 6130 N 586.806 0.0935595 1.57322 0
M  V30 6131 C 588.034 -0.578934 1.98635 0
M  V30 6132 C 588.449 -1.61819 0.972626 0
M  V30 6133 O 587.806 -1.82461 -0.0379638 0
M  V30 6134 C 587.857 -1.22802 3.40003 0
M  V30 6135 O 587.578 -0.230334 4.37494 0
M  V30 6136 C 589.079 -1.98627 3.96311 0
M  V30 6137 H 586.299 -0.155324 0.652775 0
M  V30 6138 H 588.843 0.172393 2.03772 0
M  V30 6139 H 586.998 -1.93029 3.35885 0
M  V30 6140 H 587.412 -0.698649 5.19826 0
M  V30 6141 H 588.886 -2.39405 4.97382 0
M  V30 6142 H 589.363 -2.85151 3.34044 0
M  V30 6143 H 589.969 -1.3322 4.03897 0
M  V30 6144 N 588.284 -1.56567 -0.180126 0
M  V30 6145 C 589.561 -1.7235 -0.924931 0
M  V30 6146 C 589.941 -0.652523 -2.00762 0
M  V30 6147 O 589.289 0.334115 -2.26044 0
M  V30 6148 C 589.499 -3.1523 -1.49771 0
M  V30 6149 C 590.847 -3.75921 -1.97405 0
M  V30 6150 O 591.871 -3.18452 -1.59583 0
M  V30 6151 O 590.73 -4.7681 -2.67048 0
M  V30 6152 H 587.824 -0.703502 -0.434758 0
M  V30 6153 H 590.37 -1.6886 -0.168647 0
M  V30 6154 H 589.142 -3.84656 -0.718027 0
M  V30 6155 H 588.765 -3.23009 -2.31842 0
M  V30 6156 N 589.762 0.448376 -1.51087 0
M  V30 6157 C 590.712 1.54156 -1.67988 0
M  V30 6158 C 591.696 1.5178 -0.534015 0
M  V30 6159 O 592.888 1.58419 -0.789448 0
M  V30 6160 C 590.017 2.92437 -1.79822 0
M  V30 6161 C 589.103 2.99611 -3.00157 0
M  V30 6162 N 589.494 2.7655 -4.23502 0
M  V30 6163 C 587.792 3.30764 -2.99184 0
M  V30 6164 C 588.493 2.89281 -5.0467 0
M  V30 6165 N 587.469 3.20473 -4.39088 0
M  V30 6166 H 591.271 1.35061 -2.61028 0
M  V30 6167 H 588.785 0.655504 -1.48583 0
M  V30 6168 H 590.782 3.71068 -1.90037 0
M  V30 6169 H 589.442 3.1256 -0.879554 0
M  V30 6170 H 590.453 2.5169 -4.52628 0
M  V30 6171 H 587.13 3.56732 -2.16907 0
M  V30 6172 H 588.52 2.75499 -6.12821 0
M  V30 6173 N 591.24 1.41047 0.703093 0
M  V30 6174 C 592.47 1.43133 1.48985 0
M  V30 6175 C 592.878 0.0328537 1.89171 0
M  V30 6176 O 592.221 -0.956469 1.56835 0
M  V30 6177 C 592.283 2.26991 2.78775 0
M  V30 6178 C 591.947 3.7525 2.60837 0
M  V30 6179 C 592.944 4.67591 2.27276 0
M  V30 6180 C 590.629 4.19208 2.76712 0
M  V30 6181 C 592.623 6.01877 2.09817 0
M  V30 6182 C 590.31 5.53561 2.5887 0
M  V30 6183 C 591.308 6.4471 2.25472 0
M  V30 6184 O 590.996 7.76584 2.07778 0
M  V30 6185 H 590.728 0.489788 0.465922 0
M  V30 6186 H 593.282 1.85886 0.873822 0
M  V30 6187 H 591.512 1.79038 3.42757 0
M  V30 6188 H 593.201 2.20867 3.40547 0
M  V30 6189 H 593.967 4.34923 2.14633 0
M  V30 6190 H 589.846 3.48572 3.01693 0
M  V30 6191 H 593.39 6.72986 1.83671 0
M  V30 6192 H 589.287 5.85811 2.71102 0
M  V30 6193 H 590.055 7.87649 2.22601 0
M  V30 6194 N 592.718 -0.936591 1.26751 0
M  V30 6195 C 593.967 -1.67778 1.11953 0
M  V30 6196 C 594.28 -1.92694 -0.33589 0
M  V30 6197 O 595.486 -2.64682 -0.604618 0
M  V30 6198 C 593.942 -3.02138 1.95551 0
M  V30 6199 C 593.55 -2.84953 3.45696 0
M  V30 6200 C 595.294 -3.79917 1.89377 0
M  V30 6201 C 593.201 -4.14814 4.21525 0
M  V30 6202 H 592.131 -0.629275 0.415366 0
M  V30 6203 H 594.782 -1.04122 1.51099 0
M  V30 6204 H 593.164 -3.668 1.49243 0
M  V30 6205 H 594.338 -2.29112 3.99805 0
M  V30 6206 H 592.653 -2.20612 3.53156 0
M  V30 6207 H 595.25 -4.76134 2.43312 0
M  V30 6208 H 595.593 -4.07204 0.865464 0
M  V30 6209 H 596.126 -3.22037 2.33532 0
M  V30 6210 H 592.865 -3.92709 5.24843 0
M  V30 6211 H 592.385 -4.70352 3.72195 0
M  V30 6212 H 594.064 -4.83239 4.3022 0
M  V30 6213 N 594.196 -1.08629 -1.14182 0
M  V30 6214 C 595.106 -0.730126 -2.22949 0
M  V30 6215 C 596.122 0.26436 -1.7198 0
M  V30 6216 O 597.298 0.107742 -2.01112 0
M  V30 6217 C 594.363 -0.147227 -3.46387 0
M  V30 6218 C 593.424 -1.19662 -4.12286 0
M  V30 6219 C 592.657 -0.641437 -5.29831 0
M  V30 6220 O 592.88 0.538351 -5.67854 0
M  V30 6221 O 591.814 -1.39257 -5.85569 0
M  V30 6222 H 595.64 -1.63753 -2.55771 0
M  V30 6223 H 593.225 -0.860118 -1.22157 0
M  V30 6224 H 595.107 0.174923 -4.21037 0
M  V30 6225 H 593.782 0.733304 -3.15285 0
M  V30 6226 H 592.689 -1.57133 -3.395 0
M  V30 6227 H 594.022 -2.0495 -4.475 0
M  V30 6228 N 595.674 1.31259 -0.872281 0
M  V30 6229 C 596.92 1.96913 -0.485083 0
M  V30 6230 C 597.253 1.68774 0.960667 0
M  V30 6231 O 596.528 0.985495 1.67685 0
M  V30 6232 C 596.811 3.52299 -0.745502 0
M  V30 6233 C 596.664 3.90002 -2.24095 0
M  V30 6234 C 597.983 4.39582 -0.213516 0
M  V30 6235 H 595.102 0.715252 -0.177716 0
M  V30 6236 H 597.744 1.55347 -1.09395 0
M  V30 6237 H 595.894 3.87835 -0.227276 0
M  V30 6238 H 597.566 3.64555 -2.82661 0
M  V30 6239 H 595.809 3.38526 -2.71261 0
M  V30 6240 H 596.48 4.98352 -2.37381 0
M  V30 6241 H 598.956 4.10882 -0.656902 0
M  V30 6242 H 597.832 5.47251 -0.42516 0
M  V30 6243 H 598.093 4.33158 0.884666 0
M  V30 6244 N 597.152 0.631951 1.44375 0
M  V30 6245 C 598.398 0.13697 2.02337 0
M  V30 6246 C 598.731 -1.23826 1.49602 0
M  V30 6247 O 598.006 -1.8221 0.680415 0
M  V30 6248 C 598.289 0.124536 3.59885 0
M  V30 6249 C 598.142 1.53217 4.229 0
M  V30 6250 C 599.461 -0.550481 4.36644 0
M  V30 6251 H 596.58 0.051247 0.735216 0
M  V30 6252 H 599.222 0.808581 1.71936 0
M  V30 6253 H 597.372 -0.44737 3.85916 0
M  V30 6254 H 599.044 2.15303 4.07973 0
M  V30 6255 H 597.287 2.0858 3.80364 0
M  V30 6256 H 597.958 1.4755 5.31914 0
M  V30 6257 H 600.434 -0.0641154 4.16051 0
M  V30 6258 H 599.31 -0.528371 5.46351 0
M  V30 6259 H 599.571 -1.62097 4.11311 0
M  V30 6260 N 598.631 -1.53133 0.372548 0
M  V30 6261 C 599.578 -2.25951 -0.470631 0
M  V30 6262 C 600.548 -1.26895 -1.07176 0
M  V30 6263 O 601.733 -1.55691 -1.10294 0
M  V30 6264 C 598.873 -3.05726 -1.6008 0
M  V30 6265 C 597.986 -4.19684 -1.02416 0
M  V30 6266 C 597.121 -4.86888 -2.124 0
M  V30 6267 C 596.16 -5.92866 -1.52238 0
M  V30 6268 N 595.297 -6.53732 -2.56084 0
M  V30 6269 H 600.137 -2.97587 0.156816 0
M  V30 6270 H 597.674 -1.4683 0.0891571 0
M  V30 6271 H 599.632 -3.50258 -2.26661 0
M  V30 6272 H 598.262 -2.36331 -2.1988 0
M  V30 6273 H 597.314 -3.79588 -0.248426 0
M  V30 6274 H 598.626 -4.95821 -0.544366 0
M  V30 6275 H 597.78 -5.34638 -2.86787 0
M  V30 6276 H 596.519 -4.10239 -2.63734 0
M  V30 6277 H 595.524 -5.4447 -0.763685 0
M  V30 6278 H 596.749 -6.71439 -1.0172 0
M  V30 6279 H 594.695 -5.79932 -3.06618 0
M  V30 6280 H 594.612 -7.25429 -2.12811 0
M  V30 6281 H 595.88 -7.0613 -3.30152 0
M  V30 6282 N 600.109 -0.101901 -1.5727 0
M  V30 6283 C 601.072 0.840129 -2.13247 0
M  V30 6284 C 602.072 1.20625 -1.06331 0
M  V30 6285 O 603.262 1.13456 -1.32186 0
M  V30 6286 C 600.394 2.13372 -2.65867 0
M  V30 6287 H 601.587 0.353945 -2.97804 0
M  V30 6288 H 599.14 0.147167 -1.55606 0
M  V30 6289 H 599.875 2.66461 -1.84849 0
M  V30 6290 H 599.66 1.88085 -3.44044 0
M  V30 6291 H 601.15 2.80748 -3.09145 0
M  V30 6292 N 601.587 1.56661 0.17182 0
M  V30 6293 C 602.55 1.9549 1.19651 0
M  V30 6294 C 603.55 0.838501 1.37207 0
M  V30 6295 O 604.74 1.10556 1.34622 0
M  V30 6296 C 601.872 2.24927 2.56166 0
M  V30 6297 H 603.065 2.87184 0.864007 0
M  V30 6298 H 600.618 1.50711 0.41425 0
M  V30 6299 H 601.353 1.35944 2.94431 0
M  V30 6300 H 601.138 3.06301 2.4479 0
M  V30 6301 H 602.628 2.55891 3.30014 0
M  V30 6302 N 603.065 -0.440357 1.51323 0
M  V30 6303 C 604.028 -1.51679 1.71832 0
M  V30 6304 C 605.028 -1.49648 0.588386 0
M  V30 6305 O 606.218 -1.51724 0.855891 0
M  V30 6306 C 603.35 -2.91228 1.77199 0
M  V30 6307 H 604.543 -1.34799 2.67898 0
M  V30 6308 H 602.096 -0.66883 1.41267 0
M  V30 6309 H 602.831 -3.13516 0.829363 0
M  V30 6310 H 602.616 -2.94107 2.59314 0
M  V30 6311 H 604.106 -3.69321 1.94915 0
M  V30 6312 N 604.543 -1.41418 -0.695603 0
M  V30 6313 C 605.82 -1.31264 -1.45014 0
M  V30 6314 C 606.2 0.0597994 -2.11015 0
M  V30 6315 O 605.548 1.07403 -2.01685 0
M  V30 6316 C 605.758 -2.466 -2.4696 0
M  V30 6317 C 607.106 -2.87763 -3.12214 0
M  V30 6318 O 608.13 -2.46339 -2.57285 0
M  V30 6319 O 606.989 -3.59395 -4.11701 0
M  V30 6320 H 604.083 -0.516576 -0.645816 0
M  V30 6321 H 606.629 -1.53382 -0.726084 0
M  V30 6322 H 605.401 -3.38183 -1.96845 0
M  V30 6323 H 605.024 -2.26358 -3.26876 0
M  V30 6324 N 606.021 0.929856 -1.27246 0
M  V30 6325 C 607.269 1.674 -1.13233 0
M  V30 6326 C 607.59 1.92311 0.322744 0
M  V30 6327 O 606.86 1.52784 1.22612 0
M  V30 6328 H 605.44 0.620411 -0.416052 0
M  V30 6329 H 608.102 1.11663 -1.59741 0
M  V30 6330 H 607.198 2.64308 -1.65975 0
M  V30 6331 N 607.499 1.09233 1.13605 0
M  V30 6332 C 608.776 0.739633 1.81077 0
M  V30 6333 C 609.156 -0.775595 1.96336 0
M  V30 6334 O 608.504 -1.69726 1.52988 0
M  V30 6335 C 608.714 1.47636 3.16235 0
M  V30 6336 C 610.062 1.64087 3.91613 0
M  V30 6337 O 611.086 1.43871 3.25852 0
M  V30 6338 O 609.945 1.97511 5.0956 0
M  V30 6339 H 607.039 0.265464 0.783236 0
M  V30 6340 H 609.585 1.19441 1.20549 0
M  V30 6341 H 608.357 2.50818 3.00344 0
M  V30 6342 H 607.98 1.01362 3.84462 0
M  V30 6343 N 608.977 -1.30795 0.87923 0
M  V30 6344 C 610.393 -1.48981 0.57243 0
M  V30 6345 C 610.593 -1.80719 -0.891236 0
M  V30 6346 O 609.649 -1.89136 -1.67283 0
M  V30 6347 C 610.962 -2.61721 1.48063 0
M  V30 6348 C 612.51 -2.75603 1.48365 0
M  V30 6349 C 612.985 -3.91449 2.37763 0
M  V30 6350 N 614.476 -3.98751 2.35695 0
M  V30 6351 C 615.211 -4.87684 3.01583 0
M  V30 6352 N 614.707 -5.81454 3.76674 0
M  V30 6353 N 616.5 -4.81005 2.90844 0
M  V30 6354 H 608.651 -1.08465 1.82617 0
M  V30 6355 H 610.914 -0.536813 0.781368 0
M  V30 6356 H 610.62 -2.45073 2.52254 0
M  V30 6357 H 610.494 -3.58071 1.18596 0
M  V30 6358 H 612.881 -2.9166 0.44927 0
M  V30 6359 H 612.962 -1.79891 1.81859 0
M  V30 6360 H 612.606 -3.76149 3.41283 0
M  V30 6361 H 612.536 -4.86487 2.01589 0
M  V30 6362 H 615.027 -3.31668 1.81121 0
M  V30 6363 H 615.34 -6.46063 4.24054 0
M  V30 6364 H 613.685 -5.81403 3.80782 0
M  V30 6365 H 616.876 -4.06728 2.31711 0
M  V30 6366 H 617.049 -5.50107 3.42471 0
M  V30 6367 N 610.455 -0.639598 -1.44038 0
M  V30 6368 C 611.732 -0.078012 -1.95444 0
M  V30 6369 C 612.112 1.39847 -1.58133 0
M  V30 6370 O 611.46 2.11714 -0.859614 0
M  V30 6371 C 611.67 -0.309832 -3.47622 0
M  V30 6372 C 613.018 -0.207521 -4.24093 0
M  V30 6373 O 614.042 -0.241653 -3.55379 0
M  V30 6374 O 612.901 -0.119641 -5.46369 0
M  V30 6375 H 609.995 0.0174534 -0.826816 0
M  V30 6376 H 612.541 -0.711891 -1.54046 0
M  V30 6377 H 611.313 -1.33401 -3.67858 0
M  V30 6378 H 610.936 0.357777 -3.95987 0
M  V30 6379 N 611.933 1.52934 -0.380664 0
M  V30 6380 C 613.173 2.03378 0.204161 0
M  V30 6381 C 613.537 1.26132 1.44758 0
M  V30 6382 O 614.738 1.66657 2.109 0
M  V30 6383 C 613.009 3.54241 0.474118 0
M  V30 6384 S 614.568 4.26529 1.03046 0
M  V30 6385 H 611.386 0.708608 0.0582719 0
M  V30 6386 H 613.988 1.88263 -0.527017 0
M  V30 6387 H 612.692 4.08055 -0.438088 0
M  V30 6388 H 612.223 3.73547 1.23396 0
M  V30 6389 H 614.238 4.38964 2.31354 0
M  V30 6390 N 613.412 0.11024 1.57214 0
M  V30 6391 C 614.658 -0.550684 1.9518 0
M  V30 6392 C 614.991 -1.66885 0.993122 0
M  V30 6393 O 614.266 -1.94479 0.0287907 0
M  V30 6394 C 614.549 -1.09163 3.43155 0
M  V30 6395 C 614.402 0.0225198 4.49794 0
M  V30 6396 C 615.721 -1.98527 3.92778 0
M  V30 6397 H 612.84 -0.198706 0.709708 0
M  V30 6398 H 615.482 0.184024 1.89107 0
M  V30 6399 H 613.632 -1.71775 3.48462 0
M  V30 6400 H 615.304 0.657443 4.56591 0
M  V30 6401 H 613.547 0.686868 4.28328 0
M  V30 6402 H 614.218 -0.39706 5.5057 0
M  V30 6403 H 616.694 -1.458 3.8972 0
M  V30 6404 H 615.57 -2.33298 4.96853 0
M  V30 6405 H 615.831 -2.90846 3.32958 0
M  V30 6406 N 614.89 -1.56749 -0.16351 0
M  V30 6407 C 615.82 -2.00042 -1.20438 0
M  V30 6408 C 616.801 -0.877256 -1.45733 0
M  V30 6409 O 617.986 -1.1439 -1.56935 0
M  V30 6410 C 615.116 -2.36697 -2.54149 0
M  V30 6411 C 614.07 -3.52046 -2.43408 0
M  V30 6412 C 613.396 -3.74466 -3.81679 0
M  V30 6413 C 614.696 -4.85247 -1.93216 0
M  V30 6414 H 616.39 -2.87244 -0.844477 0
M  V30 6415 H 613.936 -1.38194 -0.40478 0
M  V30 6416 H 615.889 -2.65582 -3.27176 0
M  V30 6417 H 614.613 -1.46414 -2.91943 0
M  V30 6418 H 613.272 -3.23301 -1.72834 0
M  V30 6419 H 612.92 -2.81461 -4.1688 0
M  V30 6420 H 612.62 -4.52084 -3.75359 0
M  V30 6421 H 614.144 -4.0576 -4.5628 0
M  V30 6422 H 615.558 -5.12957 -2.56023 0
M  V30 6423 H 613.955 -5.66556 -1.97825 0
M  V30 6424 H 615.025 -4.7672 -0.88689 0
M  V30 6425 N 616.368 0.432326 -1.51554 0
M  V30 6426 C 617.3 1.54357 -1.6943 0
M  V30 6427 C 618.313 1.52311 -0.574897 0
M  V30 6428 O 619.502 1.56997 -0.849369 0
M  V30 6429 C 616.602 2.93273 -1.69836 0
M  V30 6430 C 615.775 3.19768 -2.98442 0
M  V30 6431 C 614.834 4.38433 -2.90969 0
M  V30 6432 O 613.86 4.36842 -3.64908 0
M  V30 6433 N 615.062 5.42276 -2.07163 0
M  V30 6434 H 617.827 1.39426 -2.65293 0
M  V30 6435 H 615.388 0.621331 -1.49503 0
M  V30 6436 H 617.38 3.70687 -1.62399 0
M  V30 6437 H 615.95 3.01777 -0.815456 0
M  V30 6438 H 615.17 2.30607 -3.19709 0
M  V30 6439 H 616.458 3.343 -3.83563 0
M  V30 6440 H 615.856 5.46407 -1.46477 0
M  V30 6441 H 614.413 6.18524 -2.05601 0
M  V30 6442 N 617.846 1.41785 0.688094 0
M  V30 6443 C 618.793 1.44221 1.80191 0
M  V30 6444 C 619.763 0.295688 1.63447 0
M  V30 6445 O 620.948 0.49783 1.84191 0
M  V30 6446 C 618.088 1.33743 3.1813 0
M  V30 6447 C 617.201 2.58325 3.46254 0
M  V30 6448 C 616.336 2.40086 4.73848 0
M  V30 6449 C 615.375 3.60107 4.94964 0
M  V30 6450 N 614.512 3.40892 6.13789 0
M  V30 6451 H 619.352 2.39411 1.77444 0
M  V30 6452 H 616.889 1.18876 0.866423 0
M  V30 6453 H 618.847 1.25669 3.97823 0
M  V30 6454 H 617.477 0.42157 3.20035 0
M  V30 6455 H 616.529 2.7682 2.60912 0
M  V30 6456 H 617.841 3.4758 3.57756 0
M  V30 6457 H 616.995 2.29522 5.61609 0
M  V30 6458 H 615.734 1.483 4.64606 0
M  V30 6459 H 614.739 3.71118 4.05649 0
M  V30 6460 H 615.964 4.52857 5.06061 0
M  V30 6461 H 613.91 2.51812 6.05745 0
M  V30 6462 H 613.827 4.23727 6.26092 0
M  V30 6463 H 615.095 3.34114 7.04264 0
M  V30 6464 N 619.324 -0.923095 1.27737 0
M  V30 6465 C 620.549 -1.71054 1.17283 0
M  V30 6466 C 620.974 -1.86208 -0.266153 0
M  V30 6467 O 620.332 -1.36545 -1.1927 0
M  V30 6468 C 620.38 -3.0854 1.86642 0
M  V30 6469 O 619.484 -3.95528 1.16752 0
M  V30 6470 H 618.825 -0.524136 0.407649 0
M  V30 6471 H 621.355 -1.15487 1.6889 0
M  V30 6472 H 621.365 -3.58828 1.94182 0
M  V30 6473 H 620.04 -2.96828 2.91317 0
M  V30 6474 H 618.617 -3.53967 1.17312 0
M  V30 6475 N 620.802 -1.09834 -1.13024 0
M  V30 6476 C 622.218 -0.828875 -1.36388 0
M  V30 6477 C 622.418 0.554756 -1.93713 0
M  V30 6478 O 621.474 1.30882 -2.15931 0
M  V30 6479 C 622.787 -1.92352 -2.3113 0
M  V30 6480 C 624.335 -1.95124 -2.44735 0
M  V30 6481 C 624.81 -3.03745 -3.42787 0
M  V30 6482 N 626.301 -3.03012 -3.5034 0
M  V30 6483 C 627.036 -3.83699 -4.26101 0
M  V30 6484 N 626.532 -4.74306 -5.04981 0
M  V30 6485 N 628.325 -3.71942 -4.21445 0
M  V30 6486 H 620.476 -1.99029 -0.74169 0
M  V30 6487 H 622.739 -0.864557 -0.388903 0
M  V30 6488 H 622.445 -2.91906 -1.96172 0
M  V30 6489 H 622.319 -1.80536 -3.3119 0
M  V30 6490 H 624.706 -0.962069 -2.78977 0
M  V30 6491 H 624.787 -2.11018 -1.44586 0
M  V30 6492 H 624.431 -4.02878 -3.09276 0
M  V30 6493 H 624.361 -2.85094 -4.42752 0
M  V30 6494 H 626.852 -2.37352 -2.94062 0
M  V30 6495 H 627.165 -5.32446 -5.60108 0
M  V30 6496 H 625.51 -4.78339 -5.04199 0
M  V30 6497 H 628.701 -3.00513 -3.589 0
M  V30 6498 H 628.874 -4.35062 -4.80235 0
M  V30 6499 N 622.28 1.30327 -0.886154 0
M  V30 6500 C 623.557 1.90922 -0.425217 0
M  V30 6501 C 623.937 1.80533 1.09413 0
M  V30 6502 O 623.285 1.2233 1.92996 0
M  V30 6503 C 623.495 3.36529 -0.924638 0
M  V30 6504 C 624.843 4.13598 -0.960305 0
M  V30 6505 O 625.867 3.45377 -0.871382 0
M  V30 6506 O 624.726 5.35482 -1.09184 0
M  V30 6507 H 621.82 0.81668 -0.130238 0
M  V30 6508 H 624.366 1.38886 -0.975132 0
M  V30 6509 H 623.138 3.38181 -1.96849 0
M  V30 6510 H 622.761 3.96021 -0.353955 0
M  V30 6511 N 623.758 0.647228 1.43697 0
M  V30 6512 C 624.688 -0.0345631 2.33474 0
M  V30 6513 C 625.669 -0.818193 1.4913 0
M  V30 6514 O 626.854 -0.780867 1.77809 0
M  V30 6515 C 623.984 -1.00576 3.32418 0
M  V30 6516 C 622.938 -0.33266 4.26705 0
M  V30 6517 C 622.264 -1.41489 5.1564 0
M  V30 6518 C 623.564 0.771204 5.16575 0
M  V30 6519 H 625.258 0.715163 2.90733 0
M  V30 6520 H 622.804 0.345364 1.39797 0
M  V30 6521 H 624.757 -1.49159 3.94119 0
M  V30 6522 H 623.481 -1.78657 2.73403 0
M  V30 6523 H 622.14 0.13267 3.6636 0
M  V30 6524 H 621.788 -2.18698 4.52968 0
M  V30 6525 H 621.488 -0.969799 5.79542 0
M  V30 6526 H 623.012 -1.9022 5.80214 0
M  V30 6527 H 624.426 0.36779 5.72119 0
M  V30 6528 H 622.823 1.1404 5.89165 0
M  V30 6529 H 623.893 1.63169 4.56622 0
M  V30 6530 N 625.236 -1.5273 0.388769 0
M  V30 6531 C 626.183 -2.26437 -0.446639 0
M  V30 6532 C 627.153 -1.28025 -1.05824 0
M  V30 6533 O 628.338 -1.56852 -1.08637 0
M  V30 6534 C 625.478 -3.07407 -1.56828 0
M  V30 6535 C 624.591 -4.20747 -0.979589 0
M  V30 6536 C 623.726 -4.89113 -2.07224 0
M  V30 6537 C 622.765 -5.94447 -1.45942 0
M  V30 6538 N 621.902 -6.56411 -2.49135 0
M  V30 6539 H 626.742 -2.97404 0.18837 0
M  V30 6540 H 624.279 -1.46727 0.104725 0
M  V30 6541 H 626.237 -3.52642 -2.22934 0
M  V30 6542 H 624.867 -2.3865 -2.17361 0
M  V30 6543 H 623.919 -3.7983 -0.208151 0
M  V30 6544 H 625.231 -4.9637 -0.491747 0
M  V30 6545 H 624.385 -5.3765 -2.81101 0
M  V30 6546 H 623.124 -4.13013 -2.59368 0
M  V30 6547 H 622.129 -5.4525 -0.705894 0
M  V30 6548 H 623.354 -6.7248 -0.945932 0
M  V30 6549 H 621.3 -5.83152 -3.00449 0
M  V30 6550 H 621.217 -7.27645 -2.05105 0
M  V30 6551 H 622.485 -7.09592 -3.22644 0
M  V30 6552 N 626.714 -0.118576 -1.57153 0
M  V30 6553 C 627.961 0.539526 -1.9518 0
M  V30 6554 C 628.289 1.66714 -1.00184 0
M  V30 6555 O 627.544 1.95683 -0.0256482 0
M  V30 6556 C 627.843 1.11303 -3.39627 0
M  V30 6557 C 627.509 0.106809 -4.50773 0
M  V30 6558 C 626.171 -0.169876 -4.809 0
M  V30 6559 C 628.523 -0.57895 -5.17975 0
M  V30 6560 C 625.851 -1.13861 -5.75545 0
M  V30 6561 C 628.203 -1.53631 -6.13661 0
M  V30 6562 C 626.867 -1.82099 -6.42181 0
M  V30 6563 H 626.137 0.197427 -0.714215 0
M  V30 6564 H 628.784 -0.199391 -1.90459 0
M  V30 6565 H 627.089 1.92869 -3.4104 0
M  V30 6566 H 628.786 1.63032 -3.66363 0
M  V30 6567 H 625.376 0.332645 -4.27307 0
M  V30 6568 H 629.56 -0.378359 -4.94856 0
M  V30 6569 H 624.816 -1.36592 -5.95947 0
M  V30 6570 H 628.99 -2.07337 -6.64819 0
M  V30 6571 H 626.617 -2.57319 -7.15326 0
M  V30 6572 N 628.193 1.56834 0.155195 0
M  V30 6573 C 629.123 2.00678 1.19376 0
M  V30 6574 C 630.104 0.884973 1.45266 0
M  V30 6575 O 631.289 1.1522 1.56326 0
M  V30 6576 C 628.419 2.38042 2.5289 0
M  V30 6577 C 627.373 3.53332 2.41538 0
M  V30 6578 C 626.699 3.76485 3.79688 0
M  V30 6579 C 627.999 4.86265 1.9064 0
M  V30 6580 H 629.693 2.87688 0.829232 0
M  V30 6581 H 627.239 1.38407 0.397445 0
M  V30 6582 H 629.192 2.67314 3.25763 0
M  V30 6583 H 627.916 1.4796 2.91162 0
M  V30 6584 H 626.575 3.24213 1.71117 0
M  V30 6585 H 626.223 2.83667 4.15382 0
M  V30 6586 H 625.923 4.54068 3.72956 0
M  V30 6587 H 627.447 4.08174 4.54122 0
M  V30 6588 H 628.861 5.14308 2.53299 0
M  V30 6589 H 627.258 5.67597 1.94818 0
M  V30 6590 H 628.328 4.77184 0.861596 0
M  V30 6591 N 629.671 -0.424282 1.51781 0
M  V30 6592 C 630.899 -1.1947 1.68921 0
M  V30 6593 C 631.314 -1.84683 0.39213 0
M  V30 6594 O 630.671 -1.71261 -0.630554 0
M  V30 6595 C 630.722 -2.26909 2.81416 0
M  V30 6596 O 630.443 -1.64361 4.061 0
M  V30 6597 C 631.944 -3.16945 3.09937 0
M  V30 6598 H 629.164 -0.359591 0.566511 0
M  V30 6599 H 631.708 -0.501139 1.98265 0
M  V30 6600 H 629.863 -2.91959 2.54635 0
M  V30 6601 H 630.277 -2.35468 4.68674 0
M  V30 6602 H 631.751 -3.88437 3.922 0
M  V30 6603 H 632.228 -3.78451 2.22871 0
M  V30 6604 H 632.834 -2.57581 3.38426 0
M  V30 6605 N 631.149 -1.42148 -0.680565 0
M  V30 6606 C 632.397 -1.42029 -1.43779 0
M  V30 6607 C 632.718 -0.0356347 -1.94967 0
M  V30 6608 O 631.988 0.924936 -1.7269 0
M  V30 6609 H 630.568 -0.522835 -0.533529 0
M  V30 6610 H 633.23 -1.7752 -0.804538 0
M  V30 6611 H 632.326 -2.11658 -2.29363 0
M  V30 6612 N 632.627 0.916307 -1.28225 0
M  V30 6613 C 633.874 1.66518 -1.1523 0
M  V30 6614 C 634.202 1.92178 0.299632 0
M  V30 6615 O 633.457 1.51842 1.2346 0
M  V30 6616 C 633.756 3.03125 -1.8934 0
M  V30 6617 C 633.422 2.97135 -3.39148 0
M  V30 6618 C 632.084 2.95208 -3.80007 0
M  V30 6619 C 634.436 2.87574 -4.34685 0
M  V30 6620 C 631.764 2.81518 -5.14747 0
M  V30 6621 C 634.116 2.75424 -5.69495 0
M  V30 6622 C 632.78 2.71854 -6.09632 0
M  V30 6623 H 632.05 0.609334 -0.421655 0
M  V30 6624 H 634.697 1.06776 -1.58969 0
M  V30 6625 H 633.002 3.66639 -1.38143 0
M  V30 6626 H 634.699 3.59968 -1.76704 0
M  V30 6627 H 631.289 2.99428 -3.06661 0
M  V30 6628 H 635.473 2.88152 -4.04082 0
M  V30 6629 H 630.729 2.77148 -5.44976 0
M  V30 6630 H 634.903 2.66993 -6.43185 0
M  V30 6631 H 632.53 2.61003 -7.1399 0
M  V30 6632 N 634.105 1.10431 1.1244 0
M  V30 6633 C 635.015 0.765502 2.21759 0
M  V30 6634 C 636.031 -0.236966 1.72379 0
M  V30 6635 O 637.207 -0.0757329 2.01258 0
M  V30 6636 C 634.272 0.202316 3.46109 0
M  V30 6637 C 633.333 1.26205 4.1033 0
M  V30 6638 C 632.566 0.725648 5.28744 0
M  V30 6639 O 632.789 -0.447942 5.68638 0
M  V30 6640 O 631.723 1.48555 5.83279 0
M  V30 6641 H 635.549 1.67801 2.53133 0
M  V30 6642 H 633.134 0.879443 1.20773 0
M  V30 6643 H 635.016 -0.107918 4.21262 0
M  V30 6644 H 633.691 -0.683052 3.16411 0
M  V30 6645 H 632.598 1.62514 3.36957 0
M  V30 6646 H 633.931 2.12044 4.44183 0
M  V30 6647 N 635.583 -1.29855 0.893053 0
M  V30 6648 C 636.811 -1.99976 0.530788 0
M  V30 6649 C 637.226 -1.66889 -0.882799 0
M  V30 6650 O 636.583 -0.910352 -1.58173 0
M  V30 6651 C 636.634 -3.54547 0.705587 0
M  V30 6652 O 636.355 -3.86458 2.06353 0
M  V30 6653 C 637.856 -4.41937 0.347387 0
M  V30 6654 H 635.076 -0.639129 0.204339 0
M  V30 6655 H 637.62 -1.65549 1.20057 0
M  V30 6656 H 635.775 -3.87311 0.0830685 0
M  V30 6657 H 636.189 -4.81146 2.08803 0
M  V30 6658 H 637.663 -5.4954 0.520557 0
M  V30 6659 H 638.14 -4.33339 -0.715139 0
M  V30 6660 H 638.746 -4.14633 0.946567 0
M  V30 6661 N 637.061 -0.65484 -1.43351 0
M  V30 6662 C 638.008 0.0357713 -2.30772 0
M  V30 6663 C 638.978 0.813035 -1.44841 0
M  V30 6664 O 640.163 0.789314 -1.73708 0
M  V30 6665 C 637.303 0.995084 -3.30442 0
M  V30 6666 C 636.416 0.21375 -4.31471 0
M  V30 6667 C 635.551 1.16701 -5.18222 0
M  V30 6668 C 634.59 0.376201 -6.10943 0
M  V30 6669 N 633.727 1.28113 -6.90313 0
M  V30 6670 H 638.567 -0.71559 -2.89281 0
M  V30 6671 H 636.104 -0.364645 -1.42509 0
M  V30 6672 H 638.062 1.5649 -3.86739 0
M  V30 6673 H 636.692 1.7133 -2.7358 0
M  V30 6674 H 635.744 -0.472377 -3.77456 0
M  V30 6675 H 637.056 -0.401103 -4.97185 0
M  V30 6676 H 636.21 1.8074 -5.79153 0
M  V30 6677 H 634.949 1.81577 -4.52638 0
M  V30 6678 H 633.954 -0.277534 -5.49099 0
M  V30 6679 H 635.179 -0.268178 -6.7857 0
M  V30 6680 H 633.125 1.91666 -6.27376 0
M  V30 6681 H 633.042 0.720879 -7.52555 0
M  V30 6682 H 634.31 1.90962 -7.55747 0
M  V30 6683 N 638.539 1.52521 -0.396863 0
M  V30 6684 C 639.502 2.2527 0.422604 0
M  V30 6685 C 640.502 1.27184 0.983913 0
M  V30 6686 O 641.692 1.51222 0.864723 0
M  V30 6687 C 638.824 3.01356 1.59365 0
M  V30 6688 H 640.017 2.99133 -0.214416 0
M  V30 6689 H 637.57 1.55587 -0.149128 0
M  V30 6690 H 638.305 2.31813 2.26789 0
M  V30 6691 H 638.09 3.73357 1.19779 0
M  V30 6692 H 639.58 3.56571 2.17363 0
M  V30 6693 N 640.017 0.126909 1.57088 0
M  V30 6694 C 641.264 -0.529168 1.95464 0
M  V30 6695 C 641.592 -1.6618 1.01067 0
M  V30 6696 O 640.847 -1.95667 0.0360254 0
M  V30 6697 C 641.146 -1.095 3.40212 0
M  V30 6698 C 640.812 -0.0829015 4.50824 0
M  V30 6699 C 639.474 0.195377 4.80803 0
M  V30 6700 C 641.826 0.606411 5.1766 0
M  V30 6701 C 639.154 1.16912 5.74933 0
M  V30 6702 C 641.506 1.56884 6.12838 0
M  V30 6703 C 640.17 1.85502 6.41206 0
M  V30 6704 H 639.44 -0.193636 0.715252 0
M  V30 6705 H 642.087 0.209489 1.90351 0
M  V30 6706 H 640.392 -1.91058 3.42059 0
M  V30 6707 H 642.089 -1.61087 3.67222 0
M  V30 6708 H 638.679 -0.309979 4.27478 0
M  V30 6709 H 642.863 0.404597 4.94648 0
M  V30 6710 H 638.119 1.3975 5.95214 0
M  V30 6711 H 642.293 2.10859 6.6371 0
M  V30 6712 H 639.92 2.61109 7.13951 0
M  V30 6713 N 641.495 -1.56914 -0.146875 0
M  V30 6714 C 642.72 -1.87881 -0.878386 0
M  V30 6715 C 643.145 -0.715945 -1.73942 0
M  V30 6716 O 642.503 0.334447 -1.78189 0
M  V30 6717 C 642.551 -3.17431 -1.71084 0
M  V30 6718 O 641.655 -3.01374 -2.81509 0
M  V30 6719 H 640.996 -0.617289 -0.244644 0
M  V30 6720 H 643.526 -2.04136 -0.137654 0
M  V30 6721 H 643.536 -3.49455 -2.10582 0
M  V30 6722 H 642.211 -4.01671 -1.07856 0
M  V30 6723 H 640.788 -2.80758 -2.45416 0
M  V30 6724 N 642.974 0.416227 -1.52004 0
M  V30 6725 C 644.251 1.17637 -1.56272 0
M  V30 6726 C 644.631 2.08352 -0.339493 0
M  V30 6727 O 643.979 2.1833 0.674124 0
M  V30 6728 C 644.189 1.95986 -2.88774 0
M  V30 6729 C 645.537 2.52299 -3.41512 0
M  V30 6730 O 646.561 2.06174 -2.90467 0
M  V30 6731 O 645.42 3.3648 -4.30631 0
M  V30 6732 H 642.514 0.536726 -0.629169 0
M  V30 6733 H 645.06 0.423583 -1.64329 0
M  V30 6734 H 643.832 1.29487 -3.69254 0
M  V30 6735 H 643.455 2.78285 -2.83978 0
M  V30 6736 N 644.452 1.42507 0.673017 0
M  V30 6737 C 645.415 1.4582 1.76831 0
M  V30 6738 C 646.415 0.345542 1.57043 0
M  V30 6739 O 647.605 0.606447 1.63303 0
M  V30 6740 C 644.737 1.29158 3.15485 0
M  V30 6741 H 645.93 2.43345 1.7528 0
M  V30 6742 H 643.483 1.28981 0.882817 0
M  V30 6743 H 644.218 0.325626 3.22661 0
M  V30 6744 H 644.003 2.09797 3.31252 0
M  V30 6745 H 645.493 1.34363 3.95394 0
M  V30 6746 N 645.93 -0.909495 1.28709 0
M  V30 6747 C 646.88 -1.9991 1.09636 0
M  V30 6748 C 647.864 -1.60889 0.01872 0
M  V30 6749 O 649.056 -1.75374 0.239338 0
M  V30 6750 C 646.185 -3.34675 0.764702 0
M  V30 6751 C 645.271 -3.80085 1.8814 0
M  V30 6752 N 645.662 -3.97824 3.12361 0
M  V30 6753 C 643.96 -4.09278 1.77221 0
M  V30 6754 C 644.661 -4.35928 3.85151 0
M  V30 6755 N 643.637 -4.44426 3.13028 0
M  V30 6756 H 647.439 -2.11681 2.03883 0
M  V30 6757 H 644.953 -1.09763 1.1969 0
M  V30 6758 H 646.95 -4.12426 0.609132 0
M  V30 6759 H 645.61 -3.24255 -0.169952 0
M  V30 6760 H 646.621 -3.83626 3.47925 0
M  V30 6761 H 643.298 -4.0747 0.909621 0
M  V30 6762 H 644.688 -4.57581 4.92006 0
M  V30 6763 N 647.408 -1.11026 -1.11852 0
M  V30 6764 C 648.654 -0.857729 -1.83768 0
M  V30 6765 C 648.987 0.615143 -1.842 0
M  V30 6766 O 648.262 1.45391 -1.29196 0
M  V30 6767 C 648.545 -1.41453 -3.31154 0
M  V30 6768 C 648.398 -2.95471 -3.39142 0
M  V30 6769 C 649.717 -1.0619 -4.27097 0
M  V30 6770 H 646.836 -0.313044 -0.667212 0
M  V30 6771 H 649.478 -1.37443 -1.31185 0
M  V30 6772 H 647.628 -0.975052 -3.76065 0
M  V30 6773 H 649.3 -3.4799 -3.02821 0
M  V30 6774 H 647.543 -3.31759 -2.79497 0
M  V30 6775 H 648.214 -3.29515 -4.42859 0
M  V30 6776 H 650.69 -1.44122 -3.90344 0
M  V30 6777 H 649.566 -1.47832 -5.28618 0
M  V30 6778 H 649.827 0.0278912 -4.42091 0
M  V30 6779 N 648.886 1.2938 -0.899927 0
M  V30 6780 C 649.796 2.31462 -0.382437 0
M  V30 6781 C 650.812 1.65956 0.522929 0
M  V30 6782 O 651.988 1.97131 0.412454 0
M  V30 6783 C 649.053 3.44595 0.381472 0
M  V30 6784 C 648.114 4.25692 -0.555444 0
M  V30 6785 C 647.347 5.33422 0.172102 0
M  V30 6786 O 647.57 5.53053 1.396 0
M  V30 6787 O 646.504 5.99939 -0.485491 0
M  V30 6788 H 650.33 2.77706 -1.22934 0
M  V30 6789 H 647.915 1.33821 -0.664259 0
M  V30 6790 H 649.797 4.13474 0.813442 0
M  V30 6791 H 648.472 3.00458 1.20443 0
M  V30 6792 H 647.379 3.59453 -1.03653 0
M  V30 6793 H 648.712 4.73471 -1.34483 0
M  V30 6794 N 650.364 0.662433 1.43002 0
M  V30 6795 C 651.327 -0.0142016 2.29196 0
M  V30 6796 C 652.327 -0.741394 1.42688 0
M  V30 6797 O 653.517 -0.581257 1.64216 0
M  V30 6798 C 650.649 -1.03084 3.24941 0
M  V30 6799 H 651.842 0.7443 2.90517 0
M  V30 6800 H 649.395 0.424133 1.50435 0
M  V30 6801 H 650.13 -1.81826 2.68533 0
M  V30 6802 H 649.915 -0.512946 3.8873 0
M  V30 6803 H 651.405 -1.50308 3.89612 0
M  V30 6804 N 651.842 -1.52309 0.404946 0
M  V30 6805 C 653.088 -2.02065 -0.172455 0
M  V30 6806 C 653.421 -1.29022 -1.45145 0
M  V30 6807 O 652.696 -0.395284 -1.90441 0
M  V30 6808 C 652.979 -3.5759 -0.424433 0
M  V30 6809 C 652.832 -4.41287 0.870945 0
M  V30 6810 C 654.151 -4.23186 -1.20837 0
M  V30 6811 H 651.27 -0.734454 -0.0612035 0
M  V30 6812 H 653.912 -1.82236 0.53759 0
M  V30 6813 H 652.062 -3.74617 -1.02929 0
M  V30 6814 H 653.734 -4.3598 1.50729 0
M  V30 6815 H 651.977 -4.07669 1.48284 0
M  V30 6816 H 652.648 -5.48171 0.649083 0
M  V30 6817 H 655.124 -4.10232 -0.696338 0
M  V30 6818 H 654 -5.31953 -1.35343 0
M  V30 6819 H 654.261 -3.81862 -2.22786 0
M  V30 6820 N 653.32 -0.135238 -1.57019 0
M  V30 6821 C 654.253 0.846618 -2.11914 0
M  V30 6822 C 655.231 1.25019 -1.03966 0
M  V30 6823 O 656.415 1.34838 -1.31723 0
M  V30 6824 C 653.542 2.1352 -2.6292 0
M  V30 6825 C 652.588 1.87846 -3.82905 0
M  V30 6826 S 653.421 1.08005 -5.24495 0
M  V30 6827 C 654.577 2.38008 -5.78881 0
M  V30 6828 H 654.81 0.379752 -2.94865 0
M  V30 6829 H 652.343 0.0788387 -1.54199 0
M  V30 6830 H 654.301 2.87551 -2.92958 0
M  V30 6831 H 652.962 2.57323 -1.80121 0
M  V30 6832 H 652.155 2.83365 -4.16797 0
M  V30 6833 H 651.757 1.21929 -3.53567 0
M  V30 6834 H 654.049 3.33742 -5.89595 0
M  V30 6835 H 654.992 2.08638 -6.76665 0
M  V30 6836 H 655.4 2.48119 -5.07048 0
M  V30 6837 N 654.798 1.5699 0.138552 0
M  V30 6838 C 656.047 1.82998 0.848205 0
M  V30 6839 C 656.36 0.717829 1.81952 0
M  V30 6840 O 657.566 0.863756 2.57394 0
M  V30 6841 C 656.022 3.24379 1.55904 0
M  V30 6842 C 655.63 4.43552 0.62971 0
M  V30 6843 C 657.374 3.59654 2.25498 0
M  V30 6844 C 655.281 5.75957 1.34266 0
M  V30 6845 H 654.211 0.682495 0.320495 0
M  V30 6846 H 656.862 1.83222 0.100924 0
M  V30 6847 H 655.244 3.18567 2.35226 0
M  V30 6848 H 656.418 4.6062 -0.128882 0
M  V30 6849 H 654.733 4.16379 0.0417526 0
M  V30 6850 H 657.33 4.55837 2.79493 0
M  V30 6851 H 657.673 2.86124 3.02388 0
M  V30 6852 H 658.206 3.67164 1.53087 0
M  V30 6853 H 654.945 6.52604 0.615441 0
M  V30 6854 H 654.465 5.62811 2.07375 0
M  V30 6855 H 656.144 6.19046 1.88126 0
M  V30 6856 N 656.276 -0.40816 1.52223 0
M  V30 6857 C 657.206 -1.5042 1.78595 0
M  V30 6858 C 658.187 -1.57723 0.636974 0
M  V30 6859 O 659.372 -1.72982 0.882664 0
M  V30 6860 C 656.502 -2.88232 1.93751 0
M  V30 6861 C 655.456 -2.95779 3.09352 0
M  V30 6862 C 654.782 -4.35855 3.09732 0
M  V30 6863 C 656.082 -2.67175 4.48793 0
M  V30 6864 H 657.776 -1.28601 2.70374 0
M  V30 6865 H 655.322 -0.617221 1.30101 0
M  V30 6866 H 657.275 -3.64895 2.10783 0
M  V30 6867 H 655.999 -3.11347 0.986443 0
M  V30 6868 H 654.658 -2.21561 2.92072 0
M  V30 6869 H 654.306 -4.55981 2.12346 0
M  V30 6870 H 654.006 -4.41829 3.87377 0
M  V30 6871 H 655.53 -5.14451 3.28895 0
M  V30 6872 H 656.944 -3.3356 4.66273 0
M  V30 6873 H 655.341 -2.84523 5.28362 0
M  V30 6874 H 656.411 -1.62609 4.56822 0
M  V30 6875 N 657.755 -1.42862 -0.66545 0
M  V30 6876 C 659.003 -1.43546 -1.42264 0
M  V30 6877 C 659.324 -0.0563116 -1.94919 0
M  V30 6878 O 658.594 0.906568 -1.73661 0
M  V30 6879 H 657.174 -0.528464 -0.527953 0
M  V30 6880 H 659.836 -1.78363 -0.785665 0
M  V30 6881 H 658.932 -2.14079 -2.27105 0
M  V30 6882 N 659.233 0.902656 -1.29189 0
M  V30 6883 C 660.143 2.03946 -1.15944 0
M  V30 6884 C 661.159 1.738 -0.0833803 0
M  V30 6885 O 662.335 1.9923 -0.29487 0
M  V30 6886 C 659.4 3.36519 -0.834006 0
M  V30 6887 C 658.461 3.80203 -1.9936 0
M  V30 6888 C 657.694 5.06449 -1.68359 0
M  V30 6889 O 657.917 5.67202 -0.603141 0
M  V30 6890 O 656.851 5.46114 -2.53067 0
M  V30 6891 H 660.677 2.18043 -2.11403 0
M  V30 6892 H 658.262 1.02584 -1.08613 0
M  V30 6893 H 660.144 4.16089 -0.666949 0
M  V30 6894 H 658.819 3.23573 0.0908245 0
M  V30 6895 H 657.726 3.01413 -2.21588 0
M  V30 6896 H 659.059 3.97729 -2.89952 0
M  V30 6897 N 660.711 1.11618 1.11262 0
M  V30 6898 C 662.122 0.881942 1.64556 0
M  V30 6899 C 662.473 -0.585442 1.87262 0
M  V30 6900 O 661.598 -1.44795 1.60821 0
M  V30 6901 C 662.193 1.59446 2.98935 0
M  V30 6902 C 660.752 1.40661 3.4913 0
M  V30 6903 C 659.899 1.63593 2.23903 0
M  V30 6904 H 662.85 1.27217 0.94877 0
M  V30 6905 H 662.871 1.04054 3.65996 0
M  V30 6906 H 662.383 2.66241 2.82378 0
M  V30 6907 H 660.484 0.360835 3.70849 0
M  V30 6908 H 660.597 2.15693 4.27801 0
M  V30 6909 H 658.961 1.05944 2.3162 0
M  V30 6910 H 659.744 2.71666 2.09886 0
M  V30 6911 N 662.189 -1.289 0.906776 0
M  V30 6912 C 663.436 -1.95269 0.536326 0
M  V30 6913 C 663.764 -1.71435 -0.918711 0
M  V30 6914 O 663.019 -1.02431 -1.66752 0
M  V30 6915 C 663.318 -3.48704 0.783617 0
M  V30 6916 C 662.984 -3.92626 2.21711 0
M  V30 6917 C 661.646 -4.04329 2.60906 0
M  V30 6918 C 663.998 -4.15218 3.15029 0
M  V30 6919 C 661.326 -4.35998 3.92584 0
M  V30 6920 C 663.678 -4.48365 4.46264 0
M  V30 6921 C 662.342 -4.58278 4.85322 0
M  V30 6922 H 661.612 -0.714538 0.196256 0
M  V30 6923 H 664.259 -1.53366 1.14678 0
M  V30 6924 H 662.564 -3.91696 0.0903048 0
M  V30 6925 H 664.261 -3.98162 0.476267 0
M  V30 6926 H 660.851 -3.84038 1.90296 0
M  V30 6927 H 665.035 -4.05636 2.8596 0
M  V30 6928 H 660.291 -4.41878 4.22557 0
M  V30 6929 H 664.465 -4.64795 5.18593 0
M  V30 6930 H 662.092 -4.82573 5.87391 0
M  V30 6931 N 663.667 -0.670007 -1.42649 0
M  V30 6932 C 664.63 0.00204659 -2.292 0
M  V30 6933 C 665.63 0.733817 -1.4308 0
M  V30 6934 O 666.82 0.57254 -1.64522 0
M  V30 6935 C 663.952 1.01359 -3.25483 0
M  V30 6936 H 665.145 -0.759696 -2.90118 0
M  V30 6937 H 662.698 -0.432105 -1.50208 0
M  V30 6938 H 663.433 1.80399 -2.69493 0
M  V30 6939 H 663.218 0.492323 -3.88997 0
M  V30 6940 H 664.708 1.4824 -3.90403 0
M  V30 6941 N 665.145 1.52092 -0.413018 0
M  V30 6942 C 666.373 2.06274 0.160881 0
M  V30 6943 C 666.788 1.28273 1.38533 0
M  V30 6944 O 666.145 0.33563 1.79387 0
M  V30 6945 C 666.196 3.57921 0.507443 0
M  V30 6946 O 665.917 4.32971 -0.668388 0
M  V30 6947 C 667.418 4.28533 1.13465 0
M  V30 6948 H 664.638 0.67074 0.0186759 0
M  V30 6949 H 667.182 1.95951 -0.585092 0
M  V30 6950 H 665.337 3.68238 1.20331 0
M  V30 6951 H 665.751 5.23135 -0.378169 0
M  V30 6952 H 667.225 5.35804 1.32732 0
M  V30 6953 H 667.702 3.85258 2.10886 0
M  V30 6954 H 668.308 4.22595 0.478876 0
M  V30 6955 N 666.623 0.143563 1.56945 0
M  V30 6956 C 667.555 -0.828353 2.13708 0
M  V30 6957 C 668.568 -1.21313 1.08568 0
M  V30 6958 O 669.757 -1.1578 1.35857 0
M  V30 6959 C 666.857 -2.12248 2.64204 0
M  V30 6960 C 666.03 -1.90561 3.93707 0
M  V30 6961 C 665.089 -3.03931 4.29549 0
M  V30 6962 O 664.115 -2.75772 4.97934 0
M  V30 6963 N 665.317 -4.31016 3.88852 0
M  V30 6964 H 668.082 -0.343242 2.97728 0
M  V30 6965 H 665.643 -0.0401152 1.6185 0
M  V30 6966 H 667.635 -2.87132 2.85197 0
M  V30 6967 H 666.205 -2.52033 1.84928 0
M  V30 6968 H 665.425 -0.997327 3.81375 0
M  V30 6969 H 666.713 -1.73405 4.78339 0
M  V30 6970 H 666.111 -4.56762 3.33743 0
M  V30 6971 H 664.668 -5.02691 4.14903 0
M  V30 6972 N 668.101 -1.57061 -0.130224 0
M  V30 6973 C 669.349 -1.83893 -0.838313 0
M  V30 6974 C 669.67 -0.727046 -1.80939 0
M  V30 6975 O 668.94 0.249927 -1.94299 0
M  V30 6976 H 667.52 -0.67846 -0.312573 0
M  V30 6977 H 670.182 -1.94529 -0.120224 0
M  V30 6978 H 669.278 -2.79419 -1.39038 0
M  V30 6979 N 669.579 0.400081 -1.52437 0
M  V30 6980 C 670.99 0.97851 -1.59003 0
M  V30 6981 C 671.341 1.91293 -0.436068 0
M  V30 6982 O 670.466 2.1183 0.442365 0
M  V30 6983 C 671.061 1.78145 -2.88184 0
M  V30 6984 C 669.62 2.30976 -2.97199 0
M  V30 6985 C 668.767 1.11212 -2.54022 0
M  V30 6986 H 671.718 0.180002 -1.57676 0
M  V30 6987 H 671.739 2.63968 -2.74046 0
M  V30 6988 H 671.251 1.1011 -3.72152 0
M  V30 6989 H 669.352 3.02355 -2.17744 0
M  V30 6990 H 669.465 2.61221 -4.01622 0
M  V30 6991 H 667.829 1.46882 -2.08081 0
M  V30 6992 H 668.612 0.447307 -3.40373 0
M  V30 6993 N 671.057 1.43213 0.657864 0
M  V30 6994 C 672.287 1.478 1.44356 0
M  V30 6995 C 672.695 0.0930206 1.88971 0
M  V30 6996 O 672.038 -0.906089 1.59799 0
M  V30 6997 C 672.1 2.35745 2.71412 0
M  V30 6998 C 671.764 3.83359 2.48767 0
M  V30 6999 C 672.761 4.74585 2.12285 0
M  V30 7000 C 670.446 4.27799 2.63235 0
M  V30 7001 C 672.44 6.08247 1.90562 0
M  V30 7002 C 670.127 5.61516 2.41128 0
M  V30 7003 C 671.125 6.51557 2.04847 0
M  V30 7004 O 670.813 7.82802 1.82967 0
M  V30 7005 H 670.545 0.504363 0.450104 0
M  V30 7006 H 673.099 1.88572 0.814241 0
M  V30 7007 H 671.329 1.89852 3.36887 0
M  V30 7008 H 673.018 2.31589 3.33348 0
M  V30 7009 H 673.784 4.41531 2.00687 0
M  V30 7010 H 669.663 3.57993 2.90451 0
M  V30 7011 H 673.207 6.78489 1.62168 0
M  V30 7012 H 669.104 5.94139 2.52327 0
M  V30 7013 H 669.872 7.94332 1.97429 0
M  V30 7014 N 672.536 -0.895792 1.29666 0
M  V30 7015 C 673.813 -1.62723 1.08538 0
M  V30 7016 C 674.193 -2.07848 -0.369119 0
M  V30 7017 O 673.541 -1.8372 -1.35864 0
M  V30 7018 C 673.751 -2.80505 2.07648 0
M  V30 7019 C 675.099 -3.51098 2.3878 0
M  V30 7020 O 676.123 -2.90679 2.05874 0
M  V30 7021 O 674.982 -4.60028 2.9502 0
M  V30 7022 H 672.076 -0.714692 0.416106 0
M  V30 7023 H 674.622 -0.943517 1.41053 0
M  V30 7024 H 673.394 -2.44386 3.05599 0
M  V30 7025 H 673.017 -3.5658 1.75887 0
M  V30 7026 N 674.014 -1.12206 -1.10668 0
M  V30 7027 C 675.261 -0.875875 -1.82578 0
M  V30 7028 C 675.589 0.598342 -1.85068 0
M  V30 7029 O 674.844 1.45818 -1.3052 0
M  V30 7030 C 675.143 -1.39276 -3.29146 0
M  V30 7031 C 674.809 -2.8816 -3.46806 0
M  V30 7032 C 673.471 -3.28813 -3.51334 0
M  V30 7033 C 675.823 -3.8401 -3.52399 0
M  V30 7034 C 673.151 -4.64028 -3.59019 0
M  V30 7035 C 675.503 -5.19053 -3.61617 0
M  V30 7036 C 674.167 -5.59252 -3.64408 0
M  V30 7037 H 673.437 -0.320505 -0.6681 0
M  V30 7038 H 676.084 -1.40184 -1.30464 0
M  V30 7039 H 674.389 -0.787207 -3.8381 0
M  V30 7040 H 676.086 -1.17851 -3.83291 0
M  V30 7041 H 672.676 -2.55716 -3.43958 0
M  V30 7042 H 676.86 -3.53698 -3.48154 0
M  V30 7043 H 672.116 -4.94568 -3.59461 0
M  V30 7044 H 676.29 -5.93152 -3.64889 0
M  V30 7045 H 673.917 -6.64017 -3.70116 0
M  V30 7046 N 675.492 1.28418 -0.913599 0
M  V30 7047 C 676.74 1.94596 -0.545594 0
M  V30 7048 C 677.061 1.7227 0.913668 0
M  V30 7049 O 676.331 1.06233 1.64595 0
M  V30 7050 H 674.911 0.720065 -0.198783 0
M  V30 7051 H 677.573 1.56404 -1.16292 0
M  V30 7052 H 676.669 3.03202 -0.739911 0
M  V30 7053 N 676.97 0.677563 1.42291 0
M  V30 7054 C 678.195 0.207901 2.06355 0
M  V30 7055 C 678.62 -1.12723 1.50583 0
M  V30 7056 O 677.978 -1.70171 0.62543 0
M  V30 7057 C 678.026 0.156489 3.6026 0
M  V30 7058 O 677.13 -0.874162 4.03029 0
M  V30 7059 H 676.471 0.106056 0.655475 0
M  V30 7060 H 679.001 0.927354 1.82377 0
M  V30 7061 H 679.011 -0.0187258 4.07996 0
M  V30 7062 H 677.686 1.13101 4.00226 0
M  V30 7063 H 676.263 -0.669764 3.66836 0
M  V30 7064 N 678.448 -1.51871 0.421078 0
M  V30 7065 C 679.696 -2.01539 -0.150492 0
M  V30 7066 C 680.017 -1.30803 -1.44623 0
M  V30 7067 O 679.287 -0.437568 -1.90951 0
M  V30 7068 H 677.867 -0.744698 -0.0586041 0
M  V30 7069 H 680.529 -1.8668 0.560059 0
M  V30 7070 H 679.625 -3.10264 -0.338068 0
M  V30 7071 N 679.926 -0.151884 -1.56866 0
M  V30 7072 C 680.836 0.798876 -2.20579 0
M  V30 7073 C 681.852 1.268 -1.19154 0
M  V30 7074 O 683.028 1.32418 -1.51748 0
M  V30 7075 C 680.093 2.01861 -2.81874 0
M  V30 7076 C 679.154 1.59825 -3.9844 0
M  V30 7077 C 678.387 2.75984 -4.56802 0
M  V30 7078 O 678.61 3.92331 -4.14044 0
M  V30 7079 O 677.544 2.51175 -5.46987 0
M  V30 7080 H 681.37 0.2865 -3.02346 0
M  V30 7081 H 678.955 0.0753806 -1.4921 0
M  V30 7082 H 680.837 2.73235 -3.20813 0
M  V30 7083 H 679.512 2.52042 -2.03117 0
M  V30 7084 H 678.419 0.854601 -3.64208 0
M  V30 7085 H 679.752 1.14355 -4.78731 0
M  V30 7086 N 681.404 1.57128 0.121893 0
M  V30 7087 C 682.632 1.88883 0.844451 0
M  V30 7088 C 683.047 0.742824 1.73573 0
M  V30 7089 O 682.404 -0.286475 1.80238 0
M  V30 7090 C 682.455 3.20076 1.68029 0
M  V30 7091 O 682.176 4.30264 0.824898 0
M  V30 7092 C 683.677 3.65515 2.50826 0
M  V30 7093 H 680.897 0.62549 0.242907 0
M  V30 7094 H 683.441 2.04219 0.107151 0
M  V30 7095 H 681.596 3.06418 2.37038 0
M  V30 7096 H 682.01 5.05439 1.40113 0
M  V30 7097 H 683.484 4.60081 3.05008 0
M  V30 7098 H 683.961 2.92029 3.28048 0
M  V30 7099 H 684.567 3.81952 1.87064 0
M  V30 7100 N 682.882 -0.391992 1.52647 0
M  V30 7101 C 683.845 -1.46135 1.7657 0
M  V30 7102 C 684.845 -1.47701 0.635698 0
M  V30 7103 O 686.035 -1.48924 0.903728 0
M  V30 7104 C 683.167 -2.85443 1.86374 0
M  V30 7105 H 684.36 -1.26208 2.72051 0
M  V30 7106 H 681.913 -0.623549 1.43323 0
M  V30 7107 H 682.648 -3.10718 0.928685 0
M  V30 7108 H 682.433 -2.85708 2.68539 0
M  V30 7109 H 683.923 -3.62933 2.06566 0
M  V30 7110 N 684.36 -1.4356 -0.65026 0
M  V30 7111 C 685.776 -1.27025 -0.966269 0
M  V30 7112 C 685.976 -0.192117 -2.00582 0
M  V30 7113 O 685.032 0.428459 -2.48838 0
M  V30 7114 C 686.345 -2.63556 -1.44772 0
M  V30 7115 C 687.893 -2.71111 -1.56421 0
M  V30 7116 C 688.368 -4.08067 -2.07956 0
M  V30 7117 N 689.859 -4.10146 -2.15254 0
M  V30 7118 C 690.594 -5.12952 -2.56258 0
M  V30 7119 N 690.09 -6.26129 -2.96537 0
M  V30 7120 N 691.883 -5.00306 -2.56224 0
M  V30 7121 H 684.034 -2.12367 0.0375758 0
M  V30 7122 H 686.297 -0.946894 -0.0457782 0
M  V30 7123 H 686.003 -3.43429 -0.758271 0
M  V30 7124 H 685.877 -2.89152 -2.42221 0
M  V30 7125 H 688.264 -1.91569 -2.24467 0
M  V30 7126 H 688.345 -2.49277 -0.573967 0
M  V30 7127 H 687.989 -4.88077 -1.40511 0
M  V30 7128 H 687.919 -4.27266 -3.07817 0
M  V30 7129 H 690.41 -3.28453 -1.86887 0
M  V30 7130 H 690.723 -7.00403 -3.26582 0
M  V30 7131 H 689.068 -6.29597 -2.94334 0
M  V30 7132 H 692.259 -4.10952 -2.24135 0
M  V30 7133 H 692.432 -5.80553 -2.87857 0
M  V30 7134 N 685.838 0.888903 -1.30139 0
M  V30 7135 C 687.254 1.17153 -1.08385 0
M  V30 7136 C 687.454 2.0088 0.157925 0
M  V30 7137 O 686.51 2.37668 0.852652 0
M  V30 7138 C 687.823 1.882 -2.34523 0
M  V30 7139 C 689.371 2.00981 -2.39949 0
M  V30 7140 C 689.846 2.75441 -3.65918 0
M  V30 7141 N 691.337 2.82989 -3.66704 0
M  V30 7142 C 692.072 3.41167 -4.60861 0
M  V30 7143 N 691.568 4.00425 -5.6536 0
M  V30 7144 N 693.361 3.38944 -4.48412 0
M  V30 7145 H 685.512 0.33053 -2.09812 0
M  V30 7146 H 687.775 0.208964 -0.924683 0
M  V30 7147 H 687.481 1.34119 -3.25123 0
M  V30 7148 H 687.355 2.88609 -2.42868 0
M  V30 7149 H 689.742 2.54234 -1.4983 0
M  V30 7150 H 689.823 0.996725 -2.35582 0
M  V30 7151 H 689.467 2.22861 -4.56394 0
M  V30 7152 H 689.397 3.77118 -3.67546 0
M  V30 7153 H 691.888 2.40912 -2.91153 0
M  V30 7154 H 692.201 4.42871 -6.33313 0
M  V30 7155 H 690.546 3.98856 -5.69157 0
M  V30 7156 H 693.737 2.91875 -3.6596 0
M  V30 7157 H 693.91 3.83989 -5.21974 0
M  V30 7158 N 687.317 1.12792 1.10072 0
M  V30 7159 C 688.566 0.880232 1.81479 0
M  V30 7160 C 688.879 -0.595575 1.86312 0
M  V30 7161 O 690.085 -0.959979 2.53962 0
M  V30 7162 C 688.541 1.52514 3.25987 0
M  V30 7163 C 688.149 3.036 3.29441 0
M  V30 7164 C 689.893 1.35788 4.02196 0
M  V30 7165 C 687.8 3.61007 4.68431 0
M  V30 7166 H 686.73 0.325654 0.680048 0
M  V30 7167 H 689.381 1.35485 1.23758 0
M  V30 7168 H 687.763 0.978188 3.83728 0
M  V30 7169 H 688.937 3.64819 2.81502 0
M  V30 7170 H 687.252 3.19765 2.66719 0
M  V30 7171 H 689.849 1.76096 5.0487 0
M  V30 7172 H 690.192 0.301972 4.15203 0
M  V30 7173 H 690.725 1.87426 3.50879 0
M  V30 7174 H 687.464 4.66375 4.60625 0
M  V30 7175 H 686.984 3.04564 5.16721 0
M  V30 7176 H 688.663 3.60289 5.37402 0
M  V30 7177 N 688.795 -1.27931 0.920396 0
M  V30 7178 C 689.727 -2.26175 0.371169 0
M  V30 7179 C 690.74 -1.55122 -0.494065 0
M  V30 7180 O 691.929 -1.75825 -0.30787 0
M  V30 7181 C 689.029 -3.35376 -0.487481 0
M  V30 7182 C 688.202 -4.35943 0.356772 0
M  V30 7183 C 687.261 -5.24374 -0.438042 0
M  V30 7184 O 686.287 -5.68998 0.151715 0
M  V30 7185 N 687.489 -5.53823 -1.73956 0
M  V30 7186 H 690.254 -2.73938 1.21564 0
M  V30 7187 H 687.815 -1.41482 0.787047 0
M  V30 7188 H 689.807 -3.91476 -1.02609 0
M  V30 7189 H 688.377 -2.87269 -1.23269 0
M  V30 7190 H 687.597 -3.7921 1.07672 0
M  V30 7191 H 688.885 -5.0015 0.934206 0
M  V30 7192 H 688.283 -5.19413 -2.24114 0
M  V30 7193 H 686.84 -6.12653 -2.22486 0
M  V30 7194 N 690.273 -0.685099 -1.4193 0
M  V30 7195 C 691.55 -0.140152 -1.95097 0
M  V30 7196 C 691.93 1.34745 -1.62502 0
M  V30 7197 O 691.278 2.08872 -0.926534 0
M  V30 7198 C 691.488 -0.420268 -3.4646 0
M  V30 7199 C 692.836 -0.342338 -4.23218 0
M  V30 7200 O 693.86 -0.354592 -3.54431 0
M  V30 7201 O 692.719 -0.293404 -5.45712 0
M  V30 7202 H 689.813 -0.00885998 -0.826953 0
M  V30 7203 H 692.359 -0.760539 -1.51703 0
M  V30 7204 H 691.131 -1.45037 -3.63428 0
M  V30 7205 H 690.754 0.231616 -3.96925 0
M  V30 7206 N 691.751 1.51645 -0.429126 0
M  V30 7207 C 692.681 2.30434 0.377148 0
M  V30 7208 C 693.662 1.35493 1.02838 0
M  V30 7209 O 694.847 1.6441 1.03359 0
M  V30 7210 C 691.977 3.14038 1.48315 0
M  V30 7211 C 690.931 4.1719 0.955855 0
M  V30 7212 C 690.257 4.89263 2.15698 0
M  V30 7213 C 691.557 5.223 -0.00402136 0
M  V30 7214 H 693.251 2.98085 -0.280336 0
M  V30 7215 H 690.797 1.43354 -0.136265 0
M  V30 7216 H 692.75 3.67933 2.05435 0
M  V30 7217 H 691.474 2.44193 2.16881 0
M  V30 7218 H 690.133 3.64335 0.406929 0
M  V30 7219 H 689.781 4.15929 2.82864 0
M  V30 7220 H 689.481 5.59009 1.81059 0
M  V30 7221 H 691.005 5.45978 2.73387 0
M  V30 7222 H 692.419 5.71315 0.476607 0
M  V30 7223 H 690.816 5.99525 -0.26258 0
M  V30 7224 H 691.886 4.75638 -0.943236 0
M  V30 7225 N 693.229 0.160201 1.56784 0
M  V30 7226 C 694.478 -0.487619 1.95717 0
M  V30 7227 C 694.791 -1.65136 1.0483 0
M  V30 7228 O 695.997 -2.36468 1.33398 0
M  V30 7229 C 694.453 -0.91888 3.47972 0
M  V30 7230 C 694.061 0.218655 4.47466 0
M  V30 7231 C 695.805 -1.53575 3.95746 0
M  V30 7232 C 693.712 -0.231614 5.90946 0
M  V30 7233 H 692.642 -0.185939 0.730714 0
M  V30 7234 H 695.293 0.246657 1.81835 0
M  V30 7235 H 693.675 -1.70881 3.57234 0
M  V30 7236 H 694.849 0.995825 4.49911 0
M  V30 7237 H 693.164 0.744767 4.09685 0
M  V30 7238 H 695.761 -1.88448 5.00391 0
M  V30 7239 H 696.104 -2.42959 3.38048 0
M  V30 7240 H 696.637 -0.810467 3.89456 0
M  V30 7241 H 693.376 0.62718 6.52493 0
M  V30 7242 H 692.896 -0.974379 5.91833 0
M  V30 7243 H 694.575 -0.67922 6.43425 0
M  V30 7244 N 694.707 -1.5719 -0.113559 0
M  V30 7245 C 696.118 -1.74259 -0.670116 0
M  V30 7246 C 696.469 -0.779694 -1.80042 0
M  V30 7247 O 695.594 0.0461353 -2.16351 0
M  V30 7248 C 696.189 -3.15981 -1.22236 0
M  V30 7249 C 694.748 -3.34537 -1.72516 0
M  V30 7250 C 693.895 -2.70116 -0.627098 0
M  V30 7251 H 696.846 -1.58301 0.112396 0
M  V30 7252 H 696.867 -3.17832 -2.09197 0
M  V30 7253 H 696.379 -3.86038 -0.39949 0
M  V30 7254 H 694.48 -2.6953 -2.57263 0
M  V30 7255 H 694.593 -4.42737 -1.83086 0
M  V30 7256 H 692.957 -2.31501 -1.06204 0
M  V30 7257 H 693.74 -3.42802 0.184889 0
M  V30 7258 N 696.185 0.383891 -1.52853 0
M  V30 7259 C 697.431 1.13009 -1.68395 0
M  V30 7260 C 697.764 1.89488 -0.425195 0
M  V30 7261 O 697.039 1.8574 0.577136 0
M  V30 7262 C 697.322 2.10419 -2.92226 0
M  V30 7263 C 697.175 1.3767 -4.28214 0
M  V30 7264 C 698.494 3.10781 -3.11614 0
M  V30 7265 H 695.613 0.409463 -0.612788 0
M  V30 7266 H 698.255 0.412895 -1.85459 0
M  V30 7267 H 696.405 2.71579 -2.77808 0
M  V30 7268 H 698.077 0.794352 -4.54409 0
M  V30 7269 H 696.32 0.678533 -4.2846 0
M  V30 7270 H 696.991 2.08874 -5.10956 0
M  V30 7271 H 699.467 2.59715 -3.25096 0
M  V30 7272 H 698.343 3.76179 -3.99725 0
M  V30 7273 H 698.604 3.79933 -2.2606 0
M  V30 7274 N 697.663 1.43903 0.642637 0
M  V30 7275 C 698.593 1.52697 1.76652 0
M  V30 7276 C 699.574 0.380816 1.65782 0
M  V30 7277 O 700.759 0.599432 1.84717 0
M  V30 7278 C 697.889 1.45975 3.15133 0
M  V30 7279 C 696.843 2.58949 3.40778 0
M  V30 7280 C 696.169 2.37279 4.79169 0
M  V30 7281 C 697.469 4.01153 3.34475 0
M  V30 7282 H 699.163 2.46766 1.69549 0
M  V30 7283 H 696.709 1.18767 0.814279 0
M  V30 7284 H 698.662 1.5073 3.93521 0
M  V30 7285 H 697.386 0.484162 3.22991 0
M  V30 7286 H 696.045 2.53564 2.64765 0
M  V30 7287 H 695.693 1.37939 4.83717 0
M  V30 7288 H 695.393 3.13016 4.97287 0
M  V30 7289 H 696.917 2.43834 5.59801 0
M  V30 7290 H 698.331 4.07968 4.02784 0
M  V30 7291 H 696.728 4.77001 3.64129 0
M  V30 7292 H 697.798 4.25539 2.32475 0
M  V30 7293 N 699.141 -0.881989 1.30609 0
M  V30 7294 C 700.071 -2.00413 1.1982 0
M  V30 7295 C 701.052 -1.69871 0.0881538 0
M  V30 7296 O 702.237 -1.92304 0.2707 0
M  V30 7297 C 699.367 -3.35641 0.89233 0
M  V30 7298 C 698.321 -3.80451 1.96064 0
M  V30 7299 C 697.647 -5.13003 1.5077 0
M  V30 7300 C 698.947 -3.98855 3.37213 0
M  V30 7301 H 700.641 -2.09698 2.13699 0
M  V30 7302 H 698.187 -1.00754 1.02882 0
M  V30 7303 H 700.14 -4.13669 0.803497 0
M  V30 7304 H 698.864 -3.26497 -0.0821381 0
M  V30 7305 H 697.523 -3.04654 2.03916 0
M  V30 7306 H 697.171 -5.0029 0.521417 0
M  V30 7307 H 696.871 -5.43956 2.22229 0
M  V30 7308 H 698.395 -5.93554 1.43271 0
M  V30 7309 H 699.809 -4.67312 3.32103 0
M  V30 7310 H 698.206 -4.41188 4.06784 0
M  V30 7311 H 699.276 -3.02614 3.78883 0
M  V30 7312 N 700.619 -1.13374 -1.09472 0
M  V30 7313 C 702.035 -0.871846 -1.33682 0
M  V30 7314 C 702.235 0.492847 -1.9538 0
M  V30 7315 O 701.291 1.23946 -2.19985 0
M  V30 7316 C 702.604 -1.99608 -2.24893 0
M  V30 7317 C 704.152 -2.02812 -2.38404 0
M  V30 7318 C 704.627 -3.14497 -3.3295 0
M  V30 7319 N 706.118 -3.14004 -3.40523 0
M  V30 7320 C 706.853 -3.97061 -4.13679 0
M  V30 7321 N 706.349 -4.90131 -4.89636 0
M  V30 7322 N 708.142 -3.85162 -4.09398 0
M  V30 7323 H 700.293 -2.01288 -0.677995 0
M  V30 7324 H 702.556 -0.876492 -0.361201 0
M  V30 7325 H 702.262 -2.98 -1.86786 0
M  V30 7326 H 702.136 -1.90981 -3.25278 0
M  V30 7327 H 704.523 -1.05034 -2.75775 0
M  V30 7328 H 704.604 -2.15511 -1.37799 0
M  V30 7329 H 704.248 -4.12514 -2.96302 0
M  V30 7330 H 704.178 -2.99035 -4.33458 0
M  V30 7331 H 706.669 -2.46587 -2.86362 0
M  V30 7332 H 706.982 -5.49996 -5.42885 0
M  V30 7333 H 705.327 -4.94138 -4.88726 0
M  V30 7334 H 708.518 -3.11779 -3.49158 0
M  V30 7335 H 708.691 -4.5012 -4.6615 0
M  V30 7336 N 702.098 1.27442 -0.927168 0
M  V30 7337 C 703.048 2.24519 -0.396878 0
M  V30 7338 C 704.032 1.52981 0.498555 0
M  V30 7339 O 705.224 1.7378 0.336087 0
M  V30 7340 C 702.353 3.41514 0.349694 0
M  V30 7341 C 701.439 4.20357 -0.562226 0
M  V30 7342 N 701.83 4.7702 -1.68182 0
M  V30 7343 C 700.128 4.44503 -0.365135 0
M  V30 7344 C 700.829 5.36467 -2.24895 0
M  V30 7345 N 699.805 5.21371 -1.5386 0
M  V30 7346 H 703.607 2.65911 -1.25173 0
M  V30 7347 H 701.121 1.42366 -0.78138 0
M  V30 7348 H 703.118 4.10161 0.746536 0
M  V30 7349 H 701.778 3.01653 1.20148 0
M  V30 7350 H 702.789 4.74985 -2.06421 0
M  V30 7351 H 699.466 4.15111 0.446037 0
M  V30 7352 H 700.856 5.91264 -3.1915 0
M  V30 7353 N 703.576 0.692616 1.41565 0
M  V30 7354 C 704.992 0.363878 1.55397 0
M  V30 7355 C 705.192 -1.1294 1.66874 0
M  V30 7356 O 704.248 -1.91517 1.64552 0
M  V30 7357 C 705.561 1.10982 2.7947 0
M  V30 7358 C 707.109 1.09387 2.93263 0
M  V30 7359 C 707.584 1.8215 4.20221 0
M  V30 7360 N 709.075 1.79105 4.27172 0
M  V30 7361 C 709.81 2.32247 5.2426 0
M  V30 7362 N 709.306 2.93847 6.27396 0
M  V30 7363 N 711.099 2.22519 5.1618 0
M  V30 7364 H 703.25 1.66116 1.3236 0
M  V30 7365 H 705.513 0.700848 0.63837 0
M  V30 7366 H 705.219 2.1647 2.77188 0
M  V30 7367 H 705.093 0.686492 3.709 0
M  V30 7368 H 707.48 0.0472638 2.95062 0
M  V30 7369 H 707.561 1.55623 2.03015 0
M  V30 7370 H 707.205 2.86789 4.19183 0
M  V30 7371 H 707.135 1.33351 5.09436 0
M  V30 7372 H 709.626 1.34191 3.53272 0
M  V30 7373 H 709.939 3.31972 6.97864 0
M  V30 7374 H 708.284 2.97924 6.27906 0
M  V30 7375 H 711.475 1.7407 4.34531 0
M  V30 7376 H 711.648 2.64239 5.91677 0
M  V30 7377 N 705.054 -1.51416 0.437162 0
M  V30 7378 C 705.984 -2.30631 -0.364922 0
M  V30 7379 C 706.965 -1.36037 -1.02118 0
M  V30 7380 O 708.15 -1.64956 -1.02485 0
M  V30 7381 C 705.28 -3.1482 -1.46648 0
M  V30 7382 C 704.234 -4.17691 -0.933717 0
M  V30 7383 C 703.56 -4.904 -2.13101 0
M  V30 7384 C 704.86 -5.2229 0.0317201 0
M  V30 7385 H 706.554 -2.97932 0.29614 0
M  V30 7386 H 704.1 -1.4328 0.143865 0
M  V30 7387 H 706.053 -3.69017 -2.03481 0
M  V30 7388 H 704.777 -2.4534 -2.15583 0
M  V30 7389 H 703.436 -3.64545 -0.387602 0
M  V30 7390 H 703.084 -4.17423 -2.80654 0
M  V30 7391 H 702.784 -5.59962 -1.78092 0
M  V30 7392 H 704.308 -5.4742 -2.70487 0
M  V30 7393 H 705.722 -5.7156 -0.446302 0
M  V30 7394 H 704.119 -5.99378 0.29437 0
M  V30 7395 H 705.189 -4.75131 0.968447 0
M  V30 7396 N 706.532 -0.168513 -1.56696 0
M  V30 7397 C 707.772 0.479648 -1.98693 0
M  V30 7398 C 708.136 1.60609 -1.05209 0
M  V30 7399 O 709.337 2.3166 -1.36334 0
M  V30 7400 C 707.608 0.952852 -3.44464 0
M  V30 7401 S 709.167 1.60259 -4.08488 0
M  V30 7402 H 705.985 0.154377 -0.694038 0
M  V30 7403 H 708.587 -0.265312 -1.93691 0
M  V30 7404 H 707.291 0.12257 -4.10217 0
M  V30 7405 H 706.822 1.73192 -3.53225 0
M  V30 7406 H 708.837 2.89065 -4.03307 0
M  V30 7407 N 708.01 1.57248 0.105221 0
M  V30 7408 C 709.421 1.74612 0.660865 0
M  V30 7409 C 709.772 0.789231 1.79626 0
M  V30 7410 O 708.897 -0.0346611 2.16372 0
M  V30 7411 C 709.492 3.16624 1.20559 0
M  V30 7412 C 708.051 3.35447 1.7074 0
M  V30 7413 C 707.198 2.70445 0.612764 0
M  V30 7414 H 710.149 1.5824 -0.12079 0
M  V30 7415 H 710.17 3.18937 2.07508 0
M  V30 7416 H 709.682 3.86245 0.379012 0
M  V30 7417 H 707.783 2.7089 2.5583 0
M  V30 7418 H 707.896 4.43702 1.80736 0
M  V30 7419 H 706.26 2.32061 1.04975 0
M  V30 7420 H 707.043 3.42699 -0.203066 0
M  V30 7421 N 709.488 -0.375779 1.53054 0
M  V30 7422 C 710.899 -0.95309 1.6054 0
M  V30 7423 C 711.25 -1.90575 0.466446 0
M  V30 7424 O 710.375 -2.12507 -0.408609 0
M  V30 7425 C 710.97 -1.73537 2.90982 0
M  V30 7426 C 709.529 -2.26218 3.00836 0
M  V30 7427 C 708.676 -1.07157 2.55759 0
M  V30 7428 H 711.627 -0.154895 1.57942 0
M  V30 7429 H 711.648 -2.59574 2.78211 0
M  V30 7430 H 711.16 -1.04176 3.73857 0
M  V30 7431 H 709.261 -2.98852 2.22527 0
M  V30 7432 H 709.374 -2.54799 4.05727 0
M  V30 7433 H 707.738 -1.43553 2.10391 0
M  V30 7434 H 708.521 -0.393099 3.41042 0
M  V30 7435 N 710.966 -1.44241 -0.634997 0
M  V30 7436 C 712.377 -1.41622 -1.21655 0
M  V30 7437 C 712.728 -0.129584 -1.95772 0
M  V30 7438 O 711.853 0.770225 -2.02229 0
M  V30 7439 C 712.448 -2.56557 -2.21278 0
M  V30 7440 C 711.007 -2.57145 -2.7487 0
M  V30 7441 C 710.154 -2.33354 -1.49804 0
M  V30 7442 H 713.105 -1.52878 -0.425905 0
M  V30 7443 H 713.126 -2.29089 -3.03807 0
M  V30 7444 H 712.638 -3.50186 -1.67306 0
M  V30 7445 H 710.739 -1.67447 -3.32855 0
M  V30 7446 H 710.852 -3.55507 -3.21172 0
M  V30 7447 H 709.216 -1.82372 -1.77799 0
M  V30 7448 H 709.999 -3.29092 -0.977402 0
M  V30 7449 N 712.444 0.87505 -1.31075 0
M  V30 7450 C 713.354 2.01441 -1.20244 0
M  V30 7451 C 714.37 1.73584 -0.120227 0
M  V30 7452 O 715.546 1.98559 -0.337063 0
M  V30 7453 C 712.611 3.34675 -0.905199 0
M  V30 7454 C 711.672 3.75889 -2.0738 0
M  V30 7455 C 710.905 5.02764 -1.79064 0
M  V30 7456 O 711.128 5.65795 -0.723318 0
M  V30 7457 O 710.062 5.40623 -2.64594 0
M  V30 7458 H 713.888 2.13509 -2.1598 0
M  V30 7459 H 711.473 1.00257 -1.10765 0
M  V30 7460 H 713.355 4.1458 -0.755057 0
M  V30 7461 H 712.03 3.23692 0.0221695 0
M  V30 7462 H 710.937 2.96645 -2.27931 0
M  V30 7463 H 712.27 3.91489 -2.98324 0
M  V30 7464 N 713.922 1.13953 1.08869 0
M  V30 7465 C 714.832 0.835666 2.19212 0
M  V30 7466 C 715.848 -0.182005 1.73045 0
M  V30 7467 O 717.024 -0.0116661 2.01397 0
M  V30 7468 C 714.089 0.312325 3.4529 0
M  V30 7469 C 713.15 1.39196 4.06107 0
M  V30 7470 C 712.383 0.893496 5.26168 0
M  V30 7471 O 712.606 -0.266807 5.69776 0
M  V30 7472 O 711.54 1.67037 5.78258 0
M  V30 7473 H 715.366 1.75769 2.47667 0
M  V30 7474 H 712.951 0.917421 1.17914 0
M  V30 7475 H 714.833 0.0261582 4.21392 0
M  V30 7476 H 713.508 -0.582042 3.18424 0
M  V30 7477 H 712.415 1.73152 3.31616 0
M  V30 7478 H 713.748 2.26068 4.37212 0
M  V30 7479 N 715.4 -1.26948 0.933913 0
M  V30 7480 C 716.628 -1.98186 0.59414 0
M  V30 7481 C 717.043 -1.69614 -0.829257 0
M  V30 7482 O 716.4 -0.960213 -1.55197 0
M  V30 7483 C 716.451 -3.52123 0.818026 0
M  V30 7484 O 716.172 -3.79698 2.18543 0
M  V30 7485 C 717.673 -4.40608 0.48781 0
M  V30 7486 H 714.893 -0.632305 0.224569 0
M  V30 7487 H 717.437 -1.61646 1.25263 0
M  V30 7488 H 715.592 -3.86851 0.206246 0
M  V30 7489 H 716.006 -4.7426 2.24005 0
M  V30 7490 H 717.48 -5.47606 0.695126 0
M  V30 7491 H 717.957 -4.35394 -0.576913 0
M  V30 7492 H 718.563 -4.11411 1.078 0
M  V30 7493 N 716.879 -0.700114 -1.41195 0
M  V30 7494 C 718.109 -0.241828 -2.0518 0
M  V30 7495 C 718.517 1.1157 -1.52803 0
M  V30 7496 O 717.86 1.70926 -0.673042 0
M  V30 7497 C 717.922 -0.12695 -3.59276 0
M  V30 7498 C 717.586 -1.41725 -4.34469 0
M  V30 7499 C 718.583 -2.35604 -4.63451 0
M  V30 7500 C 716.268 -1.67189 -4.73659 0
M  V30 7501 C 718.262 -3.53204 -5.3059 0
M  V30 7502 C 715.949 -2.85073 -5.40534 0
M  V30 7503 C 716.947 -3.77904 -5.68927 0
M  V30 7504 O 716.635 -4.93723 -6.34424 0
M  V30 7505 H 716.367 -0.109247 -0.667114 0
M  V30 7506 H 718.921 -0.954538 -1.81873 0
M  V30 7507 H 717.151 0.641571 -3.81341 0
M  V30 7508 H 718.84 0.294748 -4.04828 0
M  V30 7509 H 719.606 -2.1719 -4.33651 0
M  V30 7510 H 715.485 -0.957935 -4.50937 0
M  V30 7511 H 719.029 -4.25679 -5.52669 0
M  V30 7512 H 714.926 -3.03402 -5.69752 0
M  V30 7513 H 715.694 -4.93597 -6.5292 0
M  V30 7514 N 718.357 1.51182 -0.445186 0
M  V30 7515 C 719.32 2.26501 0.350722 0
M  V30 7516 C 720.32 1.3025 0.942952 0
M  V30 7517 O 721.51 1.53897 0.816175 0
M  V30 7518 C 718.642 3.06274 1.49697 0
M  V30 7519 H 719.835 2.98299 -0.309474 0
M  V30 7520 H 717.388 1.55034 -0.198551 0
M  V30 7521 H 718.123 2.38911 2.19299 0
M  V30 7522 H 717.908 3.76979 1.0784 0
M  V30 7523 H 719.398 3.63306 2.05909 0
M  V30 7524 N 719.835 0.176821 1.56605 0
M  V30 7525 C 720.765 -0.746841 2.21234 0
M  V30 7526 C 721.746 -1.23502 1.16967 0
M  V30 7527 O 722.931 -1.28718 1.45414 0
M  V30 7528 C 720.061 -1.97407 2.8574 0
M  V30 7529 C 719.015 -1.62153 3.96094 0
M  V30 7530 C 718.341 -2.92387 4.47676 0
M  V30 7531 C 719.641 -0.845353 5.15413 0
M  V30 7532 H 721.335 -0.208116 2.98676 0
M  V30 7533 H 718.881 -0.0986594 1.43662 0
M  V30 7534 H 720.834 -2.62531 3.2963 0
M  V30 7535 H 719.558 -2.53703 2.05676 0
M  V30 7536 H 718.217 -0.993964 3.52868 0
M  V30 7537 H 717.865 -3.46734 3.64396 0
M  V30 7538 H 717.565 -2.69551 5.22127 0
M  V30 7539 H 719.089 -3.5853 4.94255 0
M  V30 7540 H 720.503 -1.39929 5.55961 0
M  V30 7541 H 718.9 -0.715814 5.95815 0
M  V30 7542 H 719.97 0.157239 4.84645 0
M  V30 7543 N 721.313 -1.57302 -0.09688 0
M  V30 7544 C 722.263 -1.98369 -1.12399 0
M  V30 7545 C 723.247 -0.861872 -1.3587 0
M  V30 7546 O 724.439 -1.1257 -1.36591 0
M  V30 7547 C 721.568 -2.41017 -2.4447 0
M  V30 7548 C 720.654 -3.59881 -2.24381 0
M  V30 7549 N 721.045 -4.74872 -1.74155 0
M  V30 7550 C 719.343 -3.65943 -2.54954 0
M  V30 7551 C 720.044 -5.56823 -1.68294 0
M  V30 7552 N 719.02 -4.99942 -2.13444 0
M  V30 7553 H 722.822 -2.84726 -0.728575 0
M  V30 7554 H 720.336 -1.59523 -0.304332 0
M  V30 7555 H 722.333 -2.68665 -3.18786 0
M  V30 7556 H 720.993 -1.56036 -2.84751 0
M  V30 7557 H 722.004 -4.97657 -1.43379 0
M  V30 7558 H 718.681 -2.9162 -2.98771 0
M  V30 7559 H 720.071 -6.59099 -1.30528 0
M  V30 7560 N 722.791 0.367657 -1.53252 0
M  V30 7561 C 724.207 0.709191 -1.42978 0
M  V30 7562 C 724.407 1.93352 -0.567193 0
M  V30 7563 O 723.463 2.52453 -0.0488349 0
M  V30 7564 C 724.776 0.924338 -2.86141 0
M  V30 7565 C 726.324 1.02448 -2.95759 0
M  V30 7566 C 726.799 1.27211 -4.39979 0
M  V30 7567 N 728.29 1.33986 -4.43398 0
M  V30 7568 C 729.025 1.54852 -5.52095 0
M  V30 7569 N 728.521 1.73049 -6.7084 0
M  V30 7570 N 730.314 1.57205 -5.39669 0
M  V30 7571 H 722.465 -0.437669 -2.07842 0
M  V30 7572 H 724.728 -0.133737 -0.938519 0
M  V30 7573 H 724.434 0.0965455 -3.51567 0
M  V30 7574 H 724.308 1.83302 -3.29667 0
M  V30 7575 H 726.695 1.84282 -2.30487 0
M  V30 7576 H 726.776 0.0932301 -2.5563 0
M  V30 7577 H 726.42 0.458792 -5.05824 0
M  V30 7578 H 726.35 2.21654 -4.77679 0
M  V30 7579 H 728.841 1.21545 -3.5782 0
M  V30 7580 H 729.154 1.88538 -7.49449 0
M  V30 7581 H 727.499 1.70231 -6.7383 0
M  V30 7582 H 730.69 1.42555 -4.45865 0
M  V30 7583 H 730.863 1.73126 -6.24445 0
M  V30 7584 N 724.269 1.44576 0.627338 0
M  V30 7585 C 725.216 1.51734 1.73912 0
M  V30 7586 C 726.186 0.364745 1.62046 0
M  V30 7587 O 727.371 0.575503 1.81914 0
M  V30 7588 C 724.511 1.47116 3.12171 0
M  V30 7589 C 723.624 2.72778 3.34986 0
M  V30 7590 C 722.759 2.59968 4.63239 0
M  V30 7591 C 721.798 3.80776 4.79245 0
M  V30 7592 N 720.935 3.66618 5.98778 0
M  V30 7593 H 725.775 2.46722 1.6713 0
M  V30 7594 H 723.312 1.22444 0.815224 0
M  V30 7595 H 725.27 1.42429 3.92135 0
M  V30 7596 H 723.9 0.556928 3.17959 0
M  V30 7597 H 722.952 2.87637 2.48936 0
M  V30 7598 H 724.264 3.62441 3.42692 0
M  V30 7599 H 723.418 2.53135 5.51369 0
M  V30 7600 H 722.157 1.67872 4.57898 0
M  V30 7601 H 721.162 3.87989 3.89544 0
M  V30 7602 H 722.387 4.73913 4.86398 0
M  V30 7603 H 720.333 2.77277 5.9452 0
M  V30 7604 H 720.25 4.499 6.07557 0
M  V30 7605 H 721.518 3.63684 6.89459 0
M  V30 7606 N 725.747 -0.868086 1.31537 0
M  V30 7607 C 726.677 -1.99131 1.21939 0
M  V30 7608 C 727.658 -1.69768 0.106166 0
M  V30 7609 O 728.843 -1.92006 0.291081 0
M  V30 7610 C 725.973 -3.34676 0.927879 0
M  V30 7611 C 724.927 -3.7835 2.00088 0
M  V30 7612 C 724.253 -5.11375 1.56203 0
M  V30 7613 C 725.553 -3.95256 3.41424 0
M  V30 7614 H 727.247 -2.07419 2.15911 0
M  V30 7615 H 724.793 -0.996569 1.03945 0
M  V30 7616 H 726.746 -4.12793 0.847327 0
M  V30 7617 H 725.47 -3.26565 -0.0475042 0
M  V30 7618 H 724.129 -3.02474 2.07135 0
M  V30 7619 H 723.777 -4.99709 0.57445 0
M  V30 7620 H 723.477 -5.41568 2.27985 0
M  V30 7621 H 725.001 -5.92001 1.49558 0
M  V30 7622 H 726.415 -4.63764 3.3704 0
M  V30 7623 H 724.812 -4.36849 4.1144 0
M  V30 7624 H 725.882 -2.98579 3.82072 0
M  V30 7625 N 727.225 -1.14528 -1.08264 0
M  V30 7626 C 728.188 -0.83632 -2.13397 0
M  V30 7627 C 729.188 0.159715 -1.60005 0
M  V30 7628 O 730.378 -0.0688098 -1.74064 0
M  V30 7629 C 727.51 -0.246973 -3.40004 0
M  V30 7630 H 728.703 -1.76808 -2.42237 0
M  V30 7631 H 726.256 -0.951509 -1.24 0
M  V30 7632 H 726.991 0.693436 -3.168 0
M  V30 7633 H 726.776 -0.964412 -3.80055 0
M  V30 7634 H 728.266 -0.0480679 -4.17572 0
M  V30 7635 N 728.703 1.26451 -0.940633 0
M  V30 7636 C 729.951 1.93395 -0.586748 0
M  V30 7637 C 730.272 1.7417 0.876921 0
M  V30 7638 O 729.542 1.097 1.62304 0
M  V30 7639 H 728.122 0.715687 -0.214012 0
M  V30 7640 H 730.784 1.53902 -1.19584 0
M  V30 7641 H 729.88 3.01565 -0.804059 0
M  V30 7642 N 730.181 0.707592 1.40822 0
M  V30 7643 C 731.144 0.0587224 2.29125 0
M  V30 7644 C 732.144 -0.695624 1.44975 0
M  V30 7645 O 733.334 -0.528718 1.65983 0
M  V30 7646 C 730.466 -0.926939 3.28056 0
M  V30 7647 H 731.659 0.836349 2.88002 0
M  V30 7648 H 729.212 0.471778 1.4901 0
M  V30 7649 H 729.947 -1.7319 2.74182 0
M  V30 7650 H 729.732 -0.389015 3.90165 0
M  V30 7651 H 731.222 -1.37837 3.94196 0
M  V30 7652 N 731.66 -1.50943 0.453197 0
M  V30 7653 C 732.907 -2.02212 -0.107922 0
M  V30 7654 C 733.235 -1.33639 -1.41318 0
M  V30 7655 O 732.49 -0.445154 -1.9057 0
M  V30 7656 C 732.789 -3.55603 -0.357944 0
M  V30 7657 C 732.455 -4.42556 0.863427 0
M  V30 7658 C 731.117 -4.6604 1.19834 0
M  V30 7659 C 733.469 -4.93468 1.67747 0
M  V30 7660 C 730.797 -5.37681 2.34768 0
M  V30 7661 C 733.149 -5.6637 2.81793 0
M  V30 7662 C 731.813 -5.88113 3.1572 0
M  V30 7663 H 731.083 -0.739947 -0.0394916 0
M  V30 7664 H 733.73 -1.81738 0.60363 0
M  V30 7665 H 732.035 -3.74495 -1.15156 0
M  V30 7666 H 733.732 -3.92821 -0.805781 0
M  V30 7667 H 730.322 -4.24485 0.592478 0
M  V30 7668 H 734.506 -4.75194 1.43192 0
M  V30 7669 H 729.762 -5.52727 2.61348 0
M  V30 7670 H 733.936 -6.04806 3.45229 0
M  V30 7671 H 731.563 -6.43404 4.04889 0
M  V30 7672 N 733.138 -0.185124 -1.56509 0
M  V30 7673 C 734.068 0.735098 -2.21627 0
M  V30 7674 C 735.049 1.2288 -1.1762 0
M  V30 7675 O 736.234 1.27945 -1.46095 0
M  V30 7676 C 733.364 1.95889 -2.86783 0
M  V30 7677 C 732.318 1.6005 -3.96948 0
M  V30 7678 C 731.644 2.90009 -4.4922 0
M  V30 7679 C 732.944 0.818008 -5.15855 0
M  V30 7680 H 734.638 0.192274 -2.98782 0
M  V30 7681 H 732.184 0.0910393 -1.43712 0
M  V30 7682 H 734.137 2.60779 -3.31017 0
M  V30 7683 H 732.861 2.52608 -2.07018 0
M  V30 7684 H 731.52 0.975237 -3.5339 0
M  V30 7685 H 731.168 3.44797 -3.6623 0
M  V30 7686 H 730.868 2.66778 -5.23549 0
M  V30 7687 H 732.392 3.55904 -4.9615 0
M  V30 7688 H 733.806 1.36979 -5.56695 0
M  V30 7689 H 732.203 0.684207 -5.96187 0
M  V30 7690 H 733.273 -0.182939 -4.84555 0
M  V30 7691 N 734.616 1.57351 0.0885366 0
M  V30 7692 C 735.579 2.01557 1.09121 0
M  V30 7693 C 736.579 0.910052 1.3257 0
M  V30 7694 O 737.769 1.17537 1.28572 0
M  V30 7695 C 734.901 2.38189 2.43883 0
M  V30 7696 H 736.094 2.91361 0.710562 0
M  V30 7697 H 733.647 1.52694 0.333779 0
M  V30 7698 H 734.382 1.5136 2.86811 0
M  V30 7699 H 734.167 3.18846 2.28209 0
M  V30 7700 H 735.657 2.73025 3.15986 0
M  V30 7701 N 736.094 -0.359525 1.53444 0
M  V30 7702 C 737.334 -1.11014 1.71625 0
M  V30 7703 C 737.698 -1.86376 0.46132 0
M  V30 7704 O 738.899 -2.63724 0.519908 0
M  V30 7705 C 737.17 -2.03907 2.93524 0
M  V30 7706 S 738.729 -2.86408 3.3244 0
M  V30 7707 H 735.547 -0.375352 0.603847 0
M  V30 7708 H 738.149 -0.390604 1.91558 0
M  V30 7709 H 736.853 -1.47316 3.83048 0
M  V30 7710 H 736.384 -2.80324 2.76011 0
M  V30 7711 H 738.399 -4.06241 2.84926 0
M  V30 7712 N 737.572 -1.44907 -0.619662 0
M  V30 7713 C 738.535 -1.52282 -1.71297 0
M  V30 7714 C 739.535 -0.40359 -1.55653 0
M  V30 7715 O 740.725 -0.666638 -1.6094 0
M  V30 7716 C 737.857 -1.40778 -3.10474 0
M  V30 7717 H 739.05 -2.49683 -1.66128 0
M  V30 7718 H 736.603 -1.32168 -0.834339 0
M  V30 7719 H 737.338 -0.445156 -3.2123 0
M  V30 7720 H 737.123 -2.21947 -3.23237 0
M  V30 7721 H 738.613 -1.48946 -3.90135 0
M  V30 7722 N 739.05 0.861098 -1.31996 0
M  V30 7723 C 740 1.95703 -1.1698 0
M  V30 7724 C 740.984 1.60709 -0.0784201 0
M  V30 7725 O 742.176 1.74365 -0.304262 0
M  V30 7726 C 739.305 3.31606 -0.888388 0
M  V30 7727 C 738.391 3.7284 -2.02117 0
M  V30 7728 N 738.782 3.85957 -3.26911 0
M  V30 7729 C 737.08 4.02419 -1.92289 0
M  V30 7730 C 737.781 4.21333 -4.01065 0
M  V30 7731 N 736.757 4.32502 -3.29307 0
M  V30 7732 H 740.559 2.03968 -2.11599 0
M  V30 7733 H 738.073 1.05245 -1.23682 0
M  V30 7734 H 740.07 4.09881 -0.761782 0
M  V30 7735 H 738.73 3.24662 0.0494898 0
M  V30 7736 H 739.741 3.70449 -3.61923 0
M  V30 7737 H 736.418 4.03814 -1.06022 0
M  V30 7738 H 737.808 4.39005 -5.08649 0
M  V30 7739 N 740.528 1.15101 1.07655 0
M  V30 7740 C 741.458 0.867864 2.16773 0
M  V30 7741 C 742.439 -0.180283 1.69142 0
M  V30 7742 O 743.624 -0.0353152 1.94168 0
M  V30 7743 C 740.754 0.35299 3.45501 0
M  V30 7744 C 739.708 1.33746 4.06566 0
M  V30 7745 C 739.034 0.681562 5.30338 0
M  V30 7746 C 740.334 2.7024 4.46954 0
M  V30 7747 H 742.028 1.78034 2.40716 0
M  V30 7748 H 739.574 0.857435 1.15689 0
M  V30 7749 H 741.527 0.142465 4.21159 0
M  V30 7750 H 740.251 -0.594945 3.21135 0
M  V30 7751 H 738.91 1.53429 3.32949 0
M  V30 7752 H 738.558 -0.272422 5.02262 0
M  V30 7753 H 738.258 1.33853 5.72151 0
M  V30 7754 H 739.782 0.48074 6.08705 0
M  V30 7755 H 741.196 2.5442 5.13754 0
M  V30 7756 H 739.593 3.32282 4.99709 0
M  V30 7757 H 740.663 3.26537 3.58471 0
M  V30 7758 N 742.006 -1.2595 0.947325 0
M  V30 7759 C 743.422 -1.45737 0.650597 0
M  V30 7760 C 743.622 -1.85189 -0.794188 0
M  V30 7761 O 742.678 -1.97738 -1.57022 0
M  V30 7762 C 743.991 -2.53505 1.61728 0
M  V30 7763 C 745.539 -2.67351 1.62765 0
M  V30 7764 C 746.014 -3.78296 2.58179 0
M  V30 7765 N 747.505 -3.85696 2.56501 0
M  V30 7766 C 748.24 -4.71012 3.2701 0
M  V30 7767 N 747.736 -5.60669 4.06966 0
M  V30 7768 N 749.529 -4.64912 3.15932 0
M  V30 7769 H 741.68 -0.986327 1.8811 0
M  V30 7770 H 743.943 -0.494639 0.808725 0
M  V30 7771 H 743.649 -2.31357 2.6489 0
M  V30 7772 H 743.523 -3.51281 1.3741 0
M  V30 7773 H 745.91 -2.88869 0.603241 0
M  V30 7774 H 745.991 -1.69998 1.91139 0
M  V30 7775 H 745.635 -3.5753 3.60742 0
M  V30 7776 H 745.565 -4.75117 2.27093 0
M  V30 7777 H 748.056 -3.21601 1.98447 0
M  V30 7778 H 748.369 -6.22677 4.57704 0
M  V30 7779 H 746.714 -5.60402 4.11066 0
M  V30 7780 H 749.905 -3.93874 2.52945 0
M  V30 7781 H 750.078 -5.3118 3.71149 0
M  V30 7782 N 743.484 -0.715051 -1.40445 0
M  V30 7783 C 744.447 -0.0708726 -2.2909 0
M  V30 7784 C 745.447 0.687926 -1.45342 0
M  V30 7785 O 746.637 0.519908 -1.66261 0
M  V30 7786 C 743.769 0.909528 -3.28543 0
M  V30 7787 H 744.962 -0.851611 -2.87555 0
M  V30 7788 H 742.515 -0.479674 -1.48758 0
M  V30 7789 H 743.25 1.71734 -2.75096 0
M  V30 7790 H 743.035 0.368318 -3.90366 0
M  V30 7791 H 744.525 1.35744 -3.94922 0
M  V30 7792 N 744.962 1.50701 -0.461195 0
M  V30 7793 C 745.912 2.25195 0.35653 0
M  V30 7794 C 746.896 1.2838 0.96992 0
M  V30 7795 O 748.088 1.53338 0.884108 0
M  V30 7796 C 745.217 3.11471 1.44364 0
M  V30 7797 C 744.303 4.15729 0.83847 0
M  V30 7798 N 744.694 5.05788 -0.0353198 0
M  V30 7799 C 742.992 4.32133 1.1035 0
M  V30 7800 C 743.693 5.80472 -0.37774 0
M  V30 7801 N 742.669 5.43049 0.24463 0
M  V30 7802 H 746.471 2.92188 -0.316746 0
M  V30 7803 H 743.985 1.60059 -0.274725 0
M  V30 7804 H 745.982 3.63436 2.04255 0
M  V30 7805 H 744.642 2.46025 2.11901 0
M  V30 7806 H 745.653 5.16326 -0.403465 0
M  V30 7807 H 742.33 3.77908 1.77458 0
M  V30 7808 H 743.72 6.62996 -1.09024 0
M  V30 7809 N 746.441 0.193421 1.56409 0
M  V30 7810 C 747.69 -0.445995 1.96707 0
M  V30 7811 C 748.003 -1.62876 1.08309 0
M  V30 7812 O 749.209 -2.33586 1.38383 0
M  V30 7813 C 747.665 -0.844863 3.49843 0
M  V30 7814 C 747.273 0.31352 4.46902 0
M  V30 7815 C 749.017 -1.45146 3.98915 0
M  V30 7816 C 746.924 -0.106214 5.91305 0
M  V30 7817 H 745.854 -0.170398 0.734493 0
M  V30 7818 H 748.505 0.285172 1.81271 0
M  V30 7819 H 746.887 -1.63265 3.60778 0
M  V30 7820 H 748.061 1.09103 4.47698 0
M  V30 7821 H 746.376 0.8315 4.08014 0
M  V30 7822 H 748.973 -1.77792 5.04276 0
M  V30 7823 H 749.316 -2.35734 3.43126 0
M  V30 7824 H 749.849 -0.727675 3.91088 0
M  V30 7825 H 746.588 0.765442 6.51016 0
M  V30 7826 H 746.108 -0.848623 5.93766 0
M  V30 7827 H 747.787 -0.542588 6.44721 0
M  V30 7828 N 747.919 -1.57396 -0.0801906 0
M  V30 7829 C 748.882 -2.02133 -1.0805 0
M  V30 7830 C 749.882 -0.91707 -1.32085 0
M  V30 7831 O 751.072 -1.18217 -1.27947 0
M  V30 7832 C 748.204 -2.39479 -2.42616 0
M  V30 7833 H 749.397 -2.91733 -0.6951 0
M  V30 7834 H 746.95 -1.52869 -0.325677 0
M  V30 7835 H 747.685 -1.52879 -2.86004 0
M  V30 7836 H 747.47 -3.20052 -2.26515 0
M  V30 7837 H 748.96 -2.74697 -3.14534 0
M  V30 7838 N 749.397 0.351382 -1.53633 0
M  V30 7839 C 750.637 1.10102 -1.72212 0
M  V30 7840 C 751.001 1.86128 -0.471198 0
M  V30 7841 O 752.202 2.63445 -0.533887 0
M  V30 7842 C 750.473 2.02348 -2.94602 0
M  V30 7843 S 752.032 2.84641 -3.33954 0
M  V30 7844 H 748.85 0.372145 -0.60583 0
M  V30 7845 H 751.452 0.38044 -1.91763 0
M  V30 7846 H 750.156 1.45283 -3.83824 0
M  V30 7847 H 749.687 2.78856 -2.77493 0
M  V30 7848 H 751.702 4.04724 -2.87076 0
M  V30 7849 N 750.875 1.45233 0.611969 0
M  V30 7850 C 752.291 1.29542 0.932251 0
M  V30 7851 C 752.491 0.24523 2.00002 0
M  V30 7852 O 751.547 -0.362333 2.49887 0
M  V30 7853 C 752.86 2.67301 1.37733 0
M  V30 7854 C 754.408 2.75163 1.49178 0
M  V30 7855 C 754.883 4.13437 1.97064 0
M  V30 7856 N 756.374 4.15709 2.04304 0
M  V30 7857 C 757.109 5.19566 2.42568 0
M  V30 7858 N 756.605 6.33771 2.79832 0
M  V30 7859 N 758.398 5.06923 2.42869 0
M  V30 7860 H 750.549 2.12192 -0.0938679 0
M  V30 7861 H 752.812 0.947775 0.0206569 0
M  V30 7862 H 752.518 3.45318 0.666951 0
M  V30 7863 H 752.392 2.95472 2.3447 0
M  V30 7864 H 754.779 1.97453 2.19309 0
M  V30 7865 H 754.86 2.50712 0.507674 0
M  V30 7866 H 754.504 4.91631 1.27521 0
M  V30 7867 H 754.434 4.35277 2.9638 0
M  V30 7868 H 756.925 3.33293 1.78113 0
M  V30 7869 H 757.238 7.08815 3.07898 0
M  V30 7870 H 755.583 6.37179 2.77538 0
M  V30 7871 H 758.774 4.1675 2.1316 0
M  V30 7872 H 758.947 5.87981 2.72364 0
M  V30 7873 N 752.353 -0.854086 1.3245 0
M  V30 7874 C 753.63 -1.59188 1.1366 0
M  V30 7875 C 754.01 -2.08917 -0.302807 0
M  V30 7876 O 753.358 -1.8795 -1.29951 0
M  V30 7877 C 753.568 -2.73757 2.16467 0
M  V30 7878 C 754.916 -3.43323 2.49829 0
M  V30 7879 O 755.94 -2.83983 2.15017 0
M  V30 7880 O 754.799 -4.50409 3.09506 0
M  V30 7881 H 751.893 -0.701092 0.438633 0
M  V30 7882 H 754.439 -0.898165 1.43983 0
M  V30 7883 H 753.211 -2.3454 3.1322 0
M  V30 7884 H 752.834 -3.50804 1.87142 0
M  V30 7885 N 753.831 -1.1567 -1.07043 0
M  V30 7886 C 754.761 -0.879348 -2.16309 0
M  V30 7887 C 755.742 0.171311 -1.69235 0
M  V30 7888 O 756.927 0.0250175 -1.94184 0
M  V30 7889 C 754.057 -0.371307 -3.45309 0
M  V30 7890 C 753.011 -1.359 -4.05851 0
M  V30 7891 C 752.337 -0.709678 -5.29969 0
M  V30 7892 C 753.637 -2.72606 -4.45514 0
M  V30 7893 H 755.331 -1.79308 -2.39768 0
M  V30 7894 H 752.877 -0.863558 -1.15233 0
M  V30 7895 H 754.83 -0.164798 -4.21078 0
M  V30 7896 H 753.554 0.577906 -3.21446 0
M  V30 7897 H 752.213 -1.55193 -3.32131 0
M  V30 7898 H 751.861 0.245782 -5.02399 0
M  V30 7899 H 751.561 -1.36886 -5.71433 0
M  V30 7900 H 753.085 -0.513015 -6.08441 0
M  V30 7901 H 754.499 -2.57141 -5.12398 0
M  V30 7902 H 752.896 -3.34927 -4.97939 0
M  V30 7903 H 753.966 -3.28434 -3.56734 0
M  V30 7904 N 755.309 1.25446 -0.953992 0
M  V30 7905 C 756.556 1.93143 -0.608429 0
M  V30 7906 C 756.884 1.74727 0.854451 0
M  V30 7907 O 756.139 1.0855 1.62836 0
M  V30 7908 C 756.438 3.45555 -0.912496 0
M  V30 7909 C 756.104 3.84126 -2.36131 0
M  V30 7910 C 754.766 3.94367 -2.75732 0
M  V30 7911 C 757.118 4.0324 -3.30223 0
M  V30 7912 C 754.446 4.21127 -4.08496 0
M  V30 7913 C 756.798 4.31493 -4.62598 0
M  V30 7914 C 755.462 4.3995 -5.01996 0
M  V30 7915 H 754.732 0.706762 -0.22264 0
M  V30 7916 H 757.379 1.49005 -1.20291 0
M  V30 7917 H 755.684 3.91091 -0.235618 0
M  V30 7918 H 757.381 3.9612 -0.623714 0
M  V30 7919 H 753.971 3.76711 -2.04418 0
M  V30 7920 H 758.155 3.94744 -3.00817 0
M  V30 7921 H 753.411 4.2589 -4.38665 0
M  V30 7922 H 757.585 4.45227 -5.35486 0
M  V30 7923 H 755.212 4.60439 -6.04896 0
M  V30 7924 N 756.787 0.722489 1.40064 0
M  V30 7925 C 757.719 0.0349057 2.29173 0
M  V30 7926 C 758.732 -0.716571 1.46182 0
M  V30 7927 O 759.921 -0.562806 1.69395 0
M  V30 7928 C 757.021 -0.974839 3.24577 0
M  V30 7929 C 756.194 -0.287471 4.36454 0
M  V30 7930 C 755.253 -1.20356 5.12251 0
M  V30 7931 O 754.279 -0.685753 5.65054 0
M  V30 7932 N 755.481 -2.53422 5.22262 0
M  V30 7933 H 758.246 0.800058 2.88824 0
M  V30 7934 H 755.807 0.57068 1.51509 0
M  V30 7935 H 757.799 -1.59002 3.72157 0
M  V30 7936 H 756.369 -1.6413 2.66046 0
M  V30 7937 H 755.589 0.508008 3.90913 0
M  V30 7938 H 756.877 0.189382 5.08447 0
M  V30 7939 H 756.275 -2.97981 4.80857 0
M  V30 7940 H 754.832 -3.10067 5.73325 0
M  V30 7941 N 758.265 -1.50454 0.469181 0
M  V30 7942 C 759.542 -1.9504 -0.147955 0
M  V30 7943 C 759.922 -1.40946 -1.57154 0
M  V30 7944 O 759.27 -0.609663 -2.20217 0
M  V30 7945 C 759.48 -3.48875 -0.0932198 0
M  V30 7946 C 760.828 -4.23655 -0.283056 0
M  V30 7947 O 761.852 -3.55795 -0.169892 0
M  V30 7948 O 760.711 -5.44102 -0.511396 0
M  V30 7949 H 757.805 -0.819283 -0.11271 0
M  V30 7950 H 760.351 -1.6123 0.529446 0
M  V30 7951 H 759.123 -3.80791 0.900784 0
M  V30 7952 H 758.746 -3.89217 -0.812161 0
M  V30 7953 N 759.743 -0.201713 -1.56304 0
M  V30 7954 C 760.971 0.440723 -2.02152 0
M  V30 7955 C 761.386 1.54735 -1.08179 0
M  V30 7956 O 760.743 1.82289 -0.0878196 0
M  V30 7957 C 760.794 0.990884 -3.47655 0
M  V30 7958 O 760.515 -0.0715937 -4.38041 0
M  V30 7959 C 762.016 1.70854 -4.09052 0
M  V30 7960 H 759.236 0.109987 -0.661924 0
M  V30 7961 H 761.78 -0.312358 -2.021 0
M  V30 7962 H 759.935 1.69432 -3.48384 0
M  V30 7963 H 760.349 0.338892 -5.23404 0
M  V30 7964 H 761.823 2.04572 -5.12693 0
M  V30 7965 H 762.3 2.61462 -3.52894 0
M  V30 7966 H 762.906 1.0508 -4.12114 0
M  V30 7967 N 761.222 1.57436 0.0718424 0
M  V30 7968 C 762.452 1.91196 0.782795 0
M  V30 7969 C 762.86 0.795927 1.71644 0
M  V30 7970 O 762.203 -0.239604 1.82131 0
M  V30 7971 C 762.265 3.20421 1.63005 0
M  V30 7972 C 761.929 4.48724 0.865782 0
M  V30 7973 C 762.926 5.19571 0.185051 0
M  V30 7974 C 760.611 4.95345 0.832971 0
M  V30 7975 C 762.605 6.3529 -0.518264 0
M  V30 7976 C 760.292 6.1097 0.125884 0
M  V30 7977 C 761.29 6.80794 -0.548533 0
M  V30 7978 O 760.978 7.94213 -1.24423 0
M  V30 7979 H 760.71 0.636486 0.227731 0
M  V30 7980 H 763.264 2.05348 0.0464187 0
M  V30 7981 H 761.494 3.02478 2.40923 0
M  V30 7982 H 763.183 3.39831 2.21968 0
M  V30 7983 H 763.949 4.8458 0.201707 0
M  V30 7984 H 759.828 4.40871 1.34737 0
M  V30 7985 H 763.372 6.89725 -1.04523 0
M  V30 7986 H 759.269 6.45411 0.107155 0
M  V30 7987 H 760.037 8.10331 -1.1535 0
M  V30 7988 N 762.7 -0.34323 1.53817 0
M  V30 7989 C 763.65 -1.42217 1.78208 0
M  V30 7990 C 764.634 -1.4774 0.637304 0
M  V30 7991 O 765.826 -1.52605 0.896705 0
M  V30 7992 C 762.955 -2.79354 1.9954 0
M  V30 7993 C 762.041 -2.78222 3.20084 0
M  V30 7994 N 762.432 -2.46719 4.41547 0
M  V30 7995 C 760.73 -3.09368 3.21259 0
M  V30 7996 C 761.431 -2.53828 5.23399 0
M  V30 7997 N 760.407 -2.89464 4.60121 0
M  V30 7998 H 764.209 -1.16759 2.69712 0
M  V30 7999 H 761.723 -0.551592 1.52746 0
M  V30 8000 H 763.72 -3.57095 2.15148 0
M  V30 8001 H 762.38 -3.05759 1.09278 0
M  V30 8002 H 763.391 -2.19912 4.68891 0
M  V30 8003 H 760.068 -3.40942 2.40966 0
M  V30 8004 H 761.458 -2.32629 6.30344 0
M  V30 8005 N 764.178 -1.45556 -0.604258 0
M  V30 8006 C 765.594 -1.30035 -0.925368 0
M  V30 8007 C 765.794 -0.255833 -1.99869 0
M  V30 8008 O 764.85 0.349076 -2.50075 0
M  V30 8009 C 766.163 -2.68028 -1.36314 0
M  V30 8010 C 767.711 -2.75951 -1.47717 0
M  V30 8011 C 768.186 -4.14476 -1.94868 0
M  V30 8012 N 769.677 -4.16787 -2.02097 0
M  V30 8013 C 770.412 -5.20845 -2.39809 0
M  V30 8014 N 769.908 -6.35246 -2.76467 0
M  V30 8015 N 771.701 -5.08204 -2.40177 0
M  V30 8016 H 763.852 -2.1214 0.10512 0
M  V30 8017 H 766.115 -0.947871 -0.0156303 0
M  V30 8018 H 765.821 -3.45667 -0.648628 0
M  V30 8019 H 765.695 -2.96711 -2.329 0
M  V30 8020 H 768.082 -1.98613 -2.18258 0
M  V30 8021 H 768.163 -2.50977 -0.494371 0
M  V30 8022 H 767.807 -4.923 -1.24912 0
M  V30 8023 H 767.737 -4.36843 -2.94068 0
M  V30 8024 H 770.228 -3.34233 -1.76343 0
M  V30 8025 H 770.541 -7.10438 -3.04134 0
M  V30 8026 H 768.886 -6.38642 -2.74155 0
M  V30 8027 H 772.077 -4.17874 -2.10947 0
M  V30 8028 H 772.25 -5.89417 -2.69242 0
M  V30 8029 N 765.656 0.84705 -1.32902 0
M  V30 8030 C 766.886 1.63166 -1.26729 0
M  V30 8031 C 767.294 1.88474 0.165595 0
M  V30 8032 O 766.637 1.45947 1.11558 0
M  V30 8033 C 766.699 3.0103 -1.96522 0
M  V30 8034 C 766.363 2.9873 -3.45846 0
M  V30 8035 C 767.36 2.75032 -4.41196 0
M  V30 8036 C 765.045 3.19125 -3.87898 0
M  V30 8037 C 767.039 2.71743 -5.76571 0
M  V30 8038 C 764.726 3.15462 -5.2338 0
M  V30 8039 C 765.724 2.91801 -6.17528 0
M  V30 8040 O 765.412 2.88027 -7.5053 0
M  V30 8041 H 765.144 0.51469 -0.438258 0
M  V30 8042 H 767.698 1.06383 -1.75704 0
M  V30 8043 H 765.928 3.59634 -1.42128 0
M  V30 8044 H 767.617 3.61821 -1.83958 0
M  V30 8045 H 768.383 2.59034 -4.10032 0
M  V30 8046 H 764.262 3.36565 -3.15032 0
M  V30 8047 H 767.806 2.53194 -6.5003 0
M  V30 8048 H 763.703 3.31006 -5.54171 0
M  V30 8049 H 764.471 3.03927 -7.59981 0
M  V30 8050 N 767.134 1.16236 1.06428 0
M  V30 8051 C 768.38 0.954417 1.79617 0
M  V30 8052 C 768.735 -0.512411 1.85451 0
M  V30 8053 O 768.028 -1.37523 1.33409 0
M  V30 8054 C 768.222 1.51396 3.2375 0
M  V30 8055 C 768.051 3.03367 3.31962 0
M  V30 8056 C 766.821 3.71996 3.41975 0
M  V30 8057 C 769.019 4.01075 3.21937 0
M  V30 8058 N 767.001 5.11688 3.39187 0
M  V30 8059 C 768.372 5.27142 3.26376 0
M  V30 8060 C 770.427 3.92917 3.05812 0
M  V30 8061 C 769.13 6.46 3.16348 0
M  V30 8062 C 771.156 5.11344 2.97121 0
M  V30 8063 C 770.518 6.36291 3.02181 0
M  V30 8064 H 766.617 0.403007 0.670156 0
M  V30 8065 H 769.201 1.47605 1.26968 0
M  V30 8066 H 767.372 1.01883 3.74799 0
M  V30 8067 H 769.104 1.2439 3.85109 0
M  V30 8068 H 765.859 3.22623 3.46715 0
M  V30 8069 H 766.283 5.84676 3.41297 0
M  V30 8070 H 770.925 2.97172 3.00746 0
M  V30 8071 H 768.643 7.41968 3.2017 0
M  V30 8072 H 772.229 5.06801 2.85734 0
M  V30 8073 H 771.109 7.26389 2.95513 0
M  V30 8074 N 768.612 -1.24939 0.960631 0
M  V30 8075 C 769.575 -2.239 0.49006 0
M  V30 8076 C 770.575 -1.55497 -0.409535 0
M  V30 8077 O 771.765 -1.72978 -0.205984 0
M  V30 8078 C 768.897 -3.39654 -0.291193 0
M  V30 8079 H 770.09 -2.67044 1.36482 0
M  V30 8080 H 767.643 -1.37429 0.744505 0
M  V30 8081 H 768.378 -3.01939 -1.18336 0
M  V30 8082 H 768.163 -3.90496 0.354276 0
M  V30 8083 H 769.653 -4.13125 -0.609693 0
M  V30 8084 N 770.09 -0.729906 -1.39679 0
M  V30 8085 C 771.315 -0.284345 -2.05442 0
M  V30 8086 C 771.74 1.07056 -1.54663 0
M  V30 8087 O 771.098 1.67732 -0.688157 0
M  V30 8088 C 771.146 -0.290089 -3.59431 0
M  V30 8089 O 770.25 0.723978 -4.05995 0
M  V30 8090 H 769.591 -0.130311 -0.651088 0
M  V30 8091 H 772.121 -0.994403 -1.78809 0
M  V30 8092 H 772.131 -0.132712 -4.07784 0
M  V30 8093 H 770.806 -1.27877 -3.95753 0
M  V30 8094 H 769.383 0.533154 -3.69069 0
M  V30 8095 N 771.568 1.50203 -0.477153 0
M  V30 8096 C 772.984 1.59056 -0.131663 0
M  V30 8097 C 773.184 1.48473 1.36227 0
M  V30 8098 O 772.24 1.34635 2.13611 0
M  V30 8099 C 773.553 2.92741 -0.687254 0
M  V30 8100 C 775.101 3.0615 -0.651223 0
M  V30 8101 C 775.576 4.42419 -1.18446 0
M  V30 8102 N 777.067 4.48847 -1.14413 0
M  V30 8103 C 777.802 5.52689 -1.52717 0
M  V30 8104 N 777.298 6.63754 -1.98499 0
M  V30 8105 N 779.091 5.43267 -1.44282 0
M  V30 8106 H 771.242 1.55325 -1.44872 0
M  V30 8107 H 773.505 0.734395 -0.599473 0
M  V30 8108 H 773.211 3.0598 -1.73405 0
M  V30 8109 H 773.085 3.76961 -0.134215 0
M  V30 8110 H 775.472 2.92556 0.386677 0
M  V30 8111 H 775.553 2.23673 -1.24114 0
M  V30 8112 H 775.197 4.56763 -2.22103 0
M  V30 8113 H 775.127 5.23498 -0.570709 0
M  V30 8114 H 777.618 3.69152 -0.808416 0
M  V30 8115 H 777.931 7.39059 -2.25859 0
M  V30 8116 H 776.276 6.64858 -2.02456 0
M  V30 8117 H 779.467 4.55387 -1.08352 0
M  V30 8118 H 779.64 6.24074 -1.74459 0
M  V30 8119 N 773.046 0.209999 1.56195 0
M  V30 8120 C 773.978 -0.736967 2.17029 0
M  V30 8121 C 774.991 -1.16599 1.13616 0
M  V30 8122 O 776.18 -1.09914 1.40646 0
M  V30 8123 C 773.28 -2.00852 2.72969 0
M  V30 8124 C 772.453 -1.73691 4.01435 0
M  V30 8125 C 771.512 -2.85439 4.42053 0
M  V30 8126 O 770.538 -2.54405 5.09183 0
M  V30 8127 N 771.74 -4.14135 4.06783 0
M  V30 8128 H 774.505 -0.216656 2.98916 0
M  V30 8129 H 772.066 0.0285672 1.61875 0
M  V30 8130 H 774.058 -2.74778 2.97118 0
M  V30 8131 H 772.628 -2.43963 1.95451 0
M  V30 8132 H 771.848 -0.834676 3.85262 0
M  V30 8133 H 773.136 -1.52961 4.85263 0
M  V30 8134 H 772.534 -4.42196 3.52816 0
M  V30 8135 H 771.091 -4.84642 4.35851 0
M  V30 8136 N 774.524 -1.57472 -0.0634922 0
M  V30 8137 C 775.935 -1.76303 -0.614337 0
M  V30 8138 C 776.286 -0.836578 -1.77471 0
M  V30 8139 O 775.411 -0.0227184 -2.16388 0
M  V30 8140 C 776.006 -3.19709 -1.12122 0
M  V30 8141 C 774.565 -3.39856 -1.61786 0
M  V30 8142 C 773.712 -2.71975 -0.540845 0
M  V30 8143 H 776.663 -1.57864 0.162702 0
M  V30 8144 H 776.684 -3.24326 -1.98979 0
M  V30 8145 H 776.196 -3.87114 -0.276472 0
M  V30 8146 H 774.297 -2.77578 -2.48558 0
M  V30 8147 H 774.41 -4.48338 -1.68908 0
M  V30 8148 H 772.774 -2.34763 -0.987854 0
M  V30 8149 H 773.557 -3.4204 0.293856 0
M  V30 8150 N 776.003 0.335068 -1.53997 0
M  V30 8151 C 777.28 1.09188 -1.62288 0
M  V30 8152 C 777.66 2.0626 -0.449458 0
M  V30 8153 O 777.008 2.21596 0.557444 0
M  V30 8154 C 777.218 1.80403 -2.98757 0
M  V30 8155 C 778.566 2.33841 -3.54406 0
M  V30 8156 O 779.59 1.90487 -3.00987 0
M  V30 8157 O 778.449 3.1318 -4.47862 0
M  V30 8158 H 775.543 0.502621 -0.656736 0
M  V30 8159 H 778.089 0.33588 -1.66343 0
M  V30 8160 H 776.861 1.09732 -3.75599 0
M  V30 8161 H 776.484 2.62841 -2.9833 0
M  V30 8162 N 777.481 1.45874 0.596531 0
M  V30 8163 C 778.444 1.54988 1.68853 0
M  V30 8164 C 779.444 0.428302 1.54991 0
M  V30 8165 O 780.634 0.692158 1.59859 0
M  V30 8166 C 777.766 1.457 3.08195 0
M  V30 8167 H 778.959 2.52294 1.62135 0
M  V30 8168 H 776.512 1.33479 0.813206 0
M  V30 8169 H 777.247 0.496204 3.20481 0
M  V30 8170 H 777.032 2.27061 3.19665 0
M  V30 8171 H 778.522 1.55133 3.87716 0
M  V30 8172 N 778.959 -0.83999 1.33349 0
M  V30 8173 C 779.922 -1.93128 1.23426 0
M  V30 8174 C 780.922 -1.60065 0.153599 0
M  V30 8175 O 782.112 -1.69425 0.405049 0
M  V30 8176 C 779.244 -3.28761 0.901622 0
M  V30 8177 H 780.437 -2.03352 2.20427 0
M  V30 8178 H 777.99 -1.03194 1.17391 0
M  V30 8179 H 778.725 -3.24233 -0.0659337 0
M  V30 8180 H 778.51 -3.54138 1.68311 0
M  V30 8181 H 780 -4.08714 0.856913 0
M  V30 8182 N 780.437 -1.16799 -1.0581 0
M  V30 8183 C 781.665 -0.97687 -1.82387 0
M  V30 8184 C 782.08 0.474917 -1.82729 0
M  V30 8185 O 781.437 1.3297 -1.25001 0
M  V30 8186 C 781.488 -1.50279 -3.28783 0
M  V30 8187 O 781.209 -2.89772 -3.28578 0
M  V30 8188 C 782.71 -1.35538 -4.22071 0
M  V30 8189 H 779.93 -0.345977 -0.574927 0
M  V30 8190 H 782.474 -1.54942 -1.33466 0
M  V30 8191 H 780.629 -0.972414 -3.74997 0
M  V30 8192 H 781.043 -3.13954 -4.20159 0
M  V30 8193 H 782.517 -1.7716 -5.22799 0
M  V30 8194 H 782.994 -0.301598 -4.38163 0
M  V30 8195 H 783.6 -1.87562 -3.81708 0
M  V30 8196 N 781.915 1.24427 -0.967243 0
M  V30 8197 C 782.878 2.23637 -0.501927 0
M  V30 8198 C 783.878 1.55712 0.401283 0
M  V30 8199 O 785.068 1.73085 0.196808 0
M  V30 8200 C 782.2 3.39804 0.273176 0
M  V30 8201 H 783.393 2.66317 -1.37897 0
M  V30 8202 H 780.946 1.37033 -0.751783 0
M  V30 8203 H 781.681 3.02562 1.16733 0
M  V30 8204 H 781.466 3.90303 -0.37498 0
M  V30 8205 H 782.956 4.13443 0.587776 0
M  V30 8206 N 783.393 0.737304 1.3929 0
M  V30 8207 C 784.641 0.285691 2.00071 0
M  V30 8208 C 784.962 -1.13169 1.58801 0
M  V30 8209 O 784.232 -1.77104 0.837308 0
M  V30 8210 H 782.812 0.102638 0.739915 0
M  V30 8211 H 785.474 0.947775 1.70303 0
M  V30 8212 H 784.57 0.335906 3.10287 0
M  V30 8213 N 784.871 -1.49948 0.485112 0
M  V30 8214 C 786.096 -2.073 -0.0645059 0
M  V30 8215 C 786.521 -1.345 -1.31497 0
M  V30 8216 O 785.879 -0.39687 -1.76903 0
M  V30 8217 C 785.927 -3.59201 -0.317304 0
M  V30 8218 O 785.031 -3.88085 -1.39514 0
M  V30 8219 H 784.372 -0.663723 0.0191822 0
M  V30 8220 H 786.902 -1.92963 0.680179 0
M  V30 8221 H 786.912 -4.04227 -0.553604 0
M  V30 8222 H 785.587 -4.11602 0.596387 0
M  V30 8223 H 784.164 -3.54885 -1.14504 0
M  V30 8224 N 786.349 -0.21828 -1.56081 0
M  V30 8225 C 787.279 0.687922 -2.23136 0
M  V30 8226 C 788.26 1.20357 -1.202 0
M  V30 8227 O 789.445 1.24817 -1.48776 0
M  V30 8228 C 786.575 1.89762 -2.90874 0
M  V30 8229 C 785.529 1.51595 -4.00254 0
M  V30 8230 C 784.855 2.80415 -4.55271 0
M  V30 8231 C 786.155 0.708404 -5.17474 0
M  V30 8232 H 787.849 0.128854 -2.99123 0
M  V30 8233 H 785.395 0.0605354 -1.43873 0
M  V30 8234 H 787.348 2.53699 -3.36474 0
M  V30 8235 H 786.072 2.4816 -2.1233 0
M  V30 8236 H 784.731 0.900058 -3.55379 0
M  V30 8237 H 784.379 3.36951 -3.73461 0
M  V30 8238 H 784.079 2.55613 -5.2909 0
M  V30 8239 H 785.603 3.453 -5.03587 0
M  V30 8240 H 787.017 1.2514 -5.59476 0
M  V30 8241 H 785.414 0.557593 -5.97504 0
M  V30 8242 H 786.484 -0.285679 -4.84058 0
M  V30 8243 N 787.827 1.57504 0.0551401 0
M  V30 8244 C 789.238 1.76626 0.604979 0
M  V30 8245 C 789.589 0.845978 1.77024 0
M  V30 8246 O 788.714 0.0341936 2.16373 0
M  V30 8247 C 789.309 3.203 1.10425 0
M  V30 8248 C 787.868 3.4071 1.59981 0
M  V30 8249 C 787.015 2.72258 0.526414 0
M  V30 8250 H 789.966 1.57775 -0.171072 0
M  V30 8251 H 789.987 3.25377 1.97256 0
M  V30 8252 H 789.499 3.87255 0.255939 0
M  V30 8253 H 787.6 2.78892 2.47083 0
M  V30 8254 H 787.713 4.49227 1.66528 0
M  V30 8255 H 786.077 2.35283 0.97539 0
M  V30 8256 H 786.86 3.41879 -0.311991 0
M  V30 8257 N 789.305 -0.326896 1.54172 0
M  V30 8258 C 790.533 -1.08486 1.76177 0
M  V30 8259 C 790.948 -1.81815 0.508788 0
M  V30 8260 O 790.305 -1.74924 -0.520362 0
M  V30 8261 C 790.356 -2.08552 2.95276 0
M  V30 8262 O 790.077 -1.38202 4.15731 0
M  V30 8263 C 791.578 -2.96593 3.29466 0
M  V30 8264 H 788.798 -0.322835 0.588233 0
M  V30 8265 H 791.342 -0.374036 2.0105 0
M  V30 8266 H 789.497 -2.75174 2.72687 0
M  V30 8267 H 789.911 -2.05186 4.827 0
M  V30 8268 H 791.385 -3.62708 4.16109 0
M  V30 8269 H 791.862 -3.63511 2.46487 0
M  V30 8270 H 792.468 -2.35537 3.54122 0
M  V30 8271 N 790.784 -1.46188 -0.588786 0
M  V30 8272 C 791.731 -1.56292 -1.69828 0
M  V30 8273 C 792.701 -0.407581 -1.61022 0
M  V30 8274 O 793.886 -0.623532 -1.80324 0
M  V30 8275 C 791.026 -1.55341 -3.08161 0
M  V30 8276 C 790.139 -2.81564 -3.27636 0
M  V30 8277 C 789.274 -2.72158 -4.56183 0
M  V30 8278 C 788.313 -3.93348 -4.68981 0
M  V30 8279 N 787.45 -3.82365 -5.88848 0
M  V30 8280 H 792.29 -2.51066 -1.6053 0
M  V30 8281 H 789.827 -1.24562 -0.782474 0
M  V30 8282 H 791.785 -1.52776 -3.88221 0
M  V30 8283 H 790.415 -0.641034 -3.16371 0
M  V30 8284 H 789.467 -2.94136 -2.41223 0
M  V30 8285 H 790.779 -3.714 -3.32962 0
M  V30 8286 H 789.933 -2.67665 -5.44464 0
M  V30 8287 H 788.672 -1.79953 -4.53286 0
M  V30 8288 H 787.677 -3.98181 -3.7912 0
M  V30 8289 H 788.902 -4.86643 -4.73662 0
M  V30 8290 H 786.848 -2.92942 -5.86959 0
M  V30 8291 H 786.765 -4.65851 -5.95415 0
M  V30 8292 H 788.033 -3.81836 -6.79575 0
M  V30 8293 N 792.262 0.832906 -1.33792 0
M  V30 8294 C 793.51 1.58539 -1.25338 0
M  V30 8295 C 793.831 1.94175 0.179204 0
M  V30 8296 O 793.101 1.61458 1.10941 0
M  V30 8297 H 791.681 0.58784 -0.460926 0
M  V30 8298 H 794.343 0.995064 -1.67584 0
M  V30 8299 H 793.439 2.51268 -1.85123 0
M  V30 8300 N 793.74 1.17359 1.05189 0
M  V30 8301 C 795.017 0.871914 1.75091 0
M  V30 8302 C 795.397 -0.627821 2.01548 0
M  V30 8303 O 794.745 -1.5791 1.65156 0
M  V30 8304 C 794.955 1.70687 3.04413 0
M  V30 8305 C 796.303 1.92684 3.78362 0
M  V30 8306 O 797.327 1.67645 3.14282 0
M  V30 8307 O 796.186 2.34765 4.93505 0
M  V30 8308 H 793.28 0.322831 0.761386 0
M  V30 8309 H 795.826 1.28054 1.11357 0
M  V30 8310 H 794.598 2.72405 2.80911 0
M  V30 8311 H 794.221 1.29602 3.75884 0
M  V30 8312 N 795.218 -1.23913 0.973828 0
M  V30 8313 C 796.443 -1.96735 0.656511 0
M  V30 8314 C 796.868 -1.71682 -0.768571 0
M  V30 8315 O 796.226 -0.984267 -1.52256 0
M  V30 8316 C 796.274 -3.48004 0.944735 0
M  V30 8317 O 795.378 -4.12387 0.0333357 0
M  V30 8318 H 794.719 -0.616119 0.247575 0
M  V30 8319 H 797.249 -1.57525 1.30564 0
M  V30 8320 H 797.259 -3.98424 0.87876 0
M  V30 8321 H 795.934 -3.65567 1.98328 0
M  V30 8322 H 794.511 -3.72585 0.153157 0
M  V30 8323 N 796.696 -0.74468 -1.38897 0
M  V30 8324 C 797.942 -0.306249 -2.01081 0
M  V30 8325 C 798.297 1.09724 -1.58046 0
M  V30 8326 O 797.59 1.73923 -0.803834 0
M  V30 8327 C 797.784 -0.357302 -3.55609 0
M  V30 8328 C 797.613 -1.76421 -4.13649 0
M  V30 8329 C 796.383 -2.3787 -4.4581 0
M  V30 8330 C 798.581 -2.71942 -4.36523 0
M  V30 8331 N 796.563 -3.70614 -4.89406 0
M  V30 8332 C 797.934 -3.89437 -4.8243 0
M  V30 8333 C 799.989 -2.69579 -4.18607 0
M  V30 8334 C 798.692 -5.04917 -5.123 0
M  V30 8335 C 800.718 -3.8421 -4.49596 0
M  V30 8336 C 800.08 -5.00442 -4.95719 0
M  V30 8337 H 796.179 -0.158531 -0.765762 0
M  V30 8338 H 798.763 -0.972726 -1.6866 0
M  V30 8339 H 796.934 0.278865 -3.87398 0
M  V30 8340 H 798.666 0.100599 -4.04575 0
M  V30 8341 H 795.421 -1.8971 -4.33943 0
M  V30 8342 H 795.845 -4.38791 -5.1555 0
M  V30 8343 H 800.487 -1.80905 -3.82143 0
M  V30 8344 H 798.205 -5.94213 -5.47665 0
M  V30 8345 H 801.791 -3.83691 -4.37347 0
M  V30 8346 H 800.671 -5.87671 -5.19242 0
M  V30 8347 N 798.174 1.49689 -0.493057 0
M  V30 8348 C 799.42 2.02727 0.0543518 0
M  V30 8349 C 799.753 1.37264 1.37376 0
M  V30 8350 O 799.028 0.505644 1.87812 0
M  V30 8351 C 799.311 3.59456 0.215226 0
M  V30 8352 C 799.164 4.35459 -1.12675 0
M  V30 8353 C 800.483 4.29511 0.959586 0
M  V30 8354 H 797.602 0.736773 0.0182786 0
M  V30 8355 H 800.244 1.78792 -0.642924 0
M  V30 8356 H 798.394 3.79981 0.809122 0
M  V30 8357 H 800.066 4.2645 -1.75891 0
M  V30 8358 H 798.309 3.9833 -1.71801 0
M  V30 8359 H 798.98 5.43454 -0.967578 0
M  V30 8360 H 801.456 4.13594 0.455977 0
M  V30 8361 H 800.332 5.38939 1.04098 0
M  V30 8362 H 800.593 3.94202 2.00144 0
M  V30 8363 N 799.652 0.226554 1.55963 0
M  V30 8364 C 800.929 -0.453058 1.90281 0
M  V30 8365 C 801.309 -1.77377 1.14458 0
M  V30 8366 O 800.657 -2.27067 0.255496 0
M  V30 8367 C 800.867 -0.641108 3.43061 0
M  V30 8368 C 802.215 -0.946265 4.13921 0
M  V30 8369 O 803.239 -0.727713 3.48687 0
M  V30 8370 O 802.098 -1.36131 5.29274 0
M  V30 8371 H 799.192 -0.240242 0.791336 0
M  V30 8372 H 801.738 0.26911 1.67553 0
M  V30 8373 H 800.51 0.290283 3.90222 0
M  V30 8374 H 800.133 -1.41458 3.71585 0
M  V30 8375 N 801.13 -1.57531 -0.0467866 0
M  V30 8376 C 802.541 -1.76945 -0.595603 0
M  V30 8377 C 802.892 -0.855354 -1.76573 0
M  V30 8378 O 802.017 -0.045668 -2.16352 0
M  V30 8379 C 802.612 -3.20881 -1.08725 0
M  V30 8380 C 801.171 -3.41553 -1.58172 0
M  V30 8381 C 800.318 -2.72533 -0.511968 0
M  V30 8382 H 803.269 -1.57682 0.179436 0
M  V30 8383 H 803.29 -3.26419 -1.95528 0
M  V30 8384 H 802.802 -3.87385 -0.235398 0
M  V30 8385 H 800.903 -2.80199 -2.456 0
M  V30 8386 H 801.016 -4.50104 -1.64143 0
M  V30 8387 H 799.38 -2.35797 -0.962899 0
M  V30 8388 H 800.163 -3.41709 0.330117 0
M  V30 8389 N 802.608 0.318715 -1.54344 0
M  V30 8390 C 803.833 1.07987 -1.77069 0
M  V30 8391 C 804.258 1.80766 -0.520117 0
M  V30 8392 O 803.616 1.73424 0.528566 0
M  V30 8393 C 803.664 2.04987 -2.96669 0
M  V30 8394 O 802.768 3.12974 -2.68554 0
M  V30 8395 H 802.109 0.311109 -0.586606 0
M  V30 8396 H 804.639 0.361533 -2.0138 0
M  V30 8397 H 804.649 2.47771 -3.2415 0
M  V30 8398 H 803.324 1.51417 -3.87357 0
M  V30 8399 H 801.901 2.74831 -2.52037 0
M  V30 8400 O 804.125 1.54671 0.464657 0
M  V30 8401 H 804.816 1.58115 1.1189 0
M  V30 END ATOM
M  V30 BEGIN BOND
M  V30 END BOND
M  V30 END CTAB
M  END
$$$$
