drugbank_target|Q8IZS8 Voltage-dependent calcium channel subunit alpha-2/delta-3 (DB00153; DB00228; DB00421; DB11148; DB13746)
 OpenBabel12092120343D

  0  0  0     0  0            999 V3000
M  V30 BEGIN CTAB
M  V30 COUNTS 17233 17420 0 0 0
M  V30 BEGIN ATOM
M  V30 1 H -0.908 1.98254 -0.117106 0
M  V30 2 N 0 1.576 0 0
M  V30 3 C 0.933 2.03868 1.02534 0
M  V30 4 C 1.911 0.928543 1.3348 0
M  V30 5 O 3.095 1.19667 1.45644 0
M  V30 6 C 0.222 2.43627 2.35294 0
M  V30 7 C -0.732 3.65373 2.2001 0
M  V30 8 S 0.101 5.13292 1.52614 0
M  V30 9 C 1.257 5.56322 2.86805 0
M  V30 10 H 1.49 2.90518 0.631377 0
M  V30 11 H -0.977 1.52953 0.210867 0
M  V30 12 H 0.981 2.67203 3.11629 0
M  V30 13 H -0.358 1.57376 2.7183 0
M  V30 14 H -1.165 3.90944 3.18086 0
M  V30 15 H -1.563 3.418 1.51819 0
M  V30 16 H 0.729 5.58782 3.83104 0
M  V30 17 H 1.672 6.56266 2.65933 0
M  V30 18 H 2.08 4.83886 2.90714 0
M  V30 19 N 1.4781 -0.272755 1.55222 0
M  V30 20 C 2.4411 -1.32041 1.87344 0
M  V30 21 C 3.4411 -1.42342 0.74803 0
M  V30 22 O 4.6311 -1.41488 1.0162 0
M  V30 23 C 1.7631 -2.70173 2.07893 0
M  V30 24 H 2.9561 -1.04789 2.80997 0
M  V30 25 H 0.5091 -0.51083 1.47717 0
M  V30 26 H 1.2441 -3.02605 1.16622 0
M  V30 27 H 1.0291 -2.64082 2.89833 0
M  V30 28 H 2.5191 -3.45869 2.34017 0
M  V30 29 N 2.9562 -1.48159 -0.537278 0
M  V30 30 C 4.2042 -1.55497 -1.29094 0
M  V30 31 C 4.5252 -0.227454 -1.93669 0
M  V30 32 O 3.7952 0.750386 -1.80959 0
M  V30 33 H 2.3752 -0.572832 -0.47945 0
M  V30 34 H 5.0372 -1.84579 -0.625818 0
M  V30 35 H 4.1332 -2.33216 -2.07405 0
M  V30 36 N 4.4343 0.785586 -1.36625 0
M  V30 37 C 5.8453 1.36101 -1.27803 0
M  V30 38 C 6.1963 1.96035 0.0804875 0
M  V30 39 O 5.3213 1.92834 0.982042 0
M  V30 40 C 5.9163 2.47442 -2.31426 0
M  V30 41 C 4.4753 3.00789 -2.26281 0
M  V30 42 C 3.6223 1.73896 -2.15999 0
M  V30 43 H 6.5733 0.586928 -1.47448 0
M  V30 44 H 6.5943 3.2656 -1.95291 0
M  V30 45 H 6.1063 2.03791 -3.30289 0
M  V30 46 H 4.2073 3.48851 -1.30896 0
M  V30 47 H 4.3203 3.57343 -3.19128 0
M  V30 48 H 2.6843 1.9628 -1.62316 0
M  V30 49 H 3.4673 1.32368 -3.16755 0
M  V30 50 N 5.9124 1.20967 1.01018 0
M  V30 51 C 7.1604 1.02172 1.74371 0
M  V30 52 C 7.4814 -0.446414 1.89821 0
M  V30 53 O 6.7514 -1.32234 1.44537 0
M  V30 54 H 5.3314 0.375066 0.646014 0
M  V30 55 H 7.9934 1.52187 1.21758 0
M  V30 56 H 7.0894 1.48538 2.74487 0
M  V30 57 N 7.3905 -1.2043 1.01659 0
M  V30 58 C 8.6155 -1.94318 0.724942 0
M  V30 59 C 9.0405 -1.74266 -0.708034 0
M  V30 60 O 8.3985 -1.03694 -1.48719 0
M  V30 61 C 8.4465 -3.44486 1.06591 0
M  V30 62 O 7.5505 -4.12017 0.177599 0
M  V30 63 H 6.8915 -0.60708 0.26898 0
M  V30 64 H 9.4215 -1.52861 1.35995 0
M  V30 65 H 9.4315 -3.95106 1.01762 0
M  V30 66 H 8.1065 -3.58404 2.10997 0
M  V30 67 H 6.6835 -3.71821 0.283421 0
M  V30 68 N 8.8686 -0.792821 -1.36206 0
M  V30 69 C 10.2796 -0.429513 -1.81692 0
M  V30 70 C 10.6306 1.04695 -1.65932 0
M  V30 71 O 9.7556 1.81256 -1.18218 0
M  V30 72 C 10.3506 -0.772831 -3.29868 0
M  V30 73 C 8.9096 -0.462307 -3.7355 0
M  V30 74 C 8.0566 -1.00569 -2.5842 0
M  V30 75 H 11.0076 -0.985672 -1.24379 0
M  V30 76 H 11.0286 -0.0651928 -3.80444 0
M  V30 77 H 10.5406 -1.84747 -3.41307 0
M  V30 78 H 8.6416 0.604158 -3.67669 0
M  V30 79 H 8.7546 -0.985299 -4.68859 0
M  V30 80 H 7.1186 -0.428734 -2.51066 0
M  V30 81 H 7.9016 -2.08616 -2.72643 0
M  V30 82 N 10.3467 1.47872 -0.545128 0
M  V30 83 C 11.7627 1.5829 -0.204032 0
M  V30 84 C 11.9627 1.54529 1.29317 0
M  V30 85 O 11.0187 1.44232 2.07252 0
M  V30 86 C 12.3317 2.89304 -0.819987 0
M  V30 87 C 13.8797 3.02864 -0.790105 0
M  V30 88 C 14.3547 4.3656 -1.38491 0
M  V30 89 N 15.8457 4.43165 -1.34755 0
M  V30 90 C 16.5807 5.45153 -1.77753 0
M  V30 91 N 16.0767 6.54016 -2.2855 0
M  V30 92 N 17.8697 5.36125 -1.68897 0
M  V30 93 H 10.0207 1.4856 -1.51802 0
M  V30 94 H 12.2837 0.706305 -0.632327 0
M  V30 95 H 11.9897 2.97757 -1.87173 0
M  V30 96 H 11.8637 3.75957 -0.305915 0
M  V30 97 H 14.2507 2.94014 0.252913 0
M  V30 98 H 14.3317 2.17782 -1.34181 0
M  V30 99 H 13.9757 4.46164 -2.42693 0
M  V30 100 H 13.9057 5.20353 -0.808754 0
M  V30 101 H 16.3967 3.65083 -0.975855 0
M  V30 102 H 16.7097 7.27994 -2.59314 0
M  V30 103 H 15.0547 6.54938 -2.32553 0
M  V30 104 H 18.2457 4.49975 -1.28998 0
M  V30 105 H 18.4187 6.15472 -2.02726 0
M  V30 106 N 11.8248 0.280983 1.55075 0
M  V30 107 C 13.2408 -0.0729964 1.59433 0
M  V30 108 C 13.4408 -1.5411 1.29817 0
M  V30 109 O 12.4968 -2.29086 1.06187 0
M  V30 110 C 13.8098 0.306921 2.9913 0
M  V30 111 C 15.3578 0.254023 3.11968 0
M  V30 112 C 15.8328 0.608467 4.5394 0
M  V30 113 N 17.3238 0.560241 4.59799 0
M  V30 114 C 18.0588 0.80722 5.6769 0
M  V30 115 N 17.5548 1.11912 6.83701 0
M  V30 116 N 19.3478 0.735623 5.57266 0
M  V30 117 H 11.4988 1.238 1.7259 0
M  V30 118 H 13.7618 0.500547 0.805082 0
M  V30 119 H 13.4678 1.32816 3.25657 0
M  V30 120 H 13.3418 -0.349363 3.75579 0
M  V30 121 H 15.7288 -0.75794 2.852 0
M  V30 122 H 15.8098 0.944649 2.37718 0
M  V30 123 H 15.4538 1.61814 4.81434 0
M  V30 124 H 15.3838 -0.104013 5.26497 0
M  V30 125 H 17.8748 0.329288 3.76463 0
M  V30 126 H 18.1878 1.29409 7.61888 0
M  V30 127 H 16.5328 1.15695 6.85303 0
M  V30 128 H 19.7238 0.491752 4.6551 0
M  V30 129 H 19.8968 0.931482 6.4127 0
M  V30 130 N 13.3029 -1.57598 0.00835791 0
M  V30 131 C 14.2659 -2.07884 -0.965242 0
M  V30 132 C 15.2659 -0.989825 -1.26725 0
M  V30 133 O 16.4559 -1.25218 -1.21104 0
M  V30 134 C 13.5879 -2.52731 -2.28779 0
M  V30 135 H 14.7809 -2.95178 -0.530112 0
M  V30 136 H 12.3339 -1.54458 -0.239283 0
M  V30 137 H 13.0689 -1.68705 -2.76964 0
M  V30 138 H 12.8539 -3.32272 -2.08177 0
M  V30 139 H 14.3439 -2.91933 -2.98605 0
M  V30 140 N 14.781 0.264519 -1.55364 0
M  V30 141 C 16.006 1.01726 -1.80739 0
M  V30 142 C 16.431 1.78836 -0.583044 0
M  V30 143 O 15.789 1.75167 0.467566 0
M  V30 144 C 15.837 1.94482 -3.03659 0
M  V30 145 O 14.941 3.03386 -2.7934 0
M  V30 146 H 14.282 0.290395 -0.597132 0
M  V30 147 H 16.812 0.290854 -2.02522 0
M  V30 148 H 16.822 2.36278 -3.32621 0
M  V30 149 H 15.497 1.37772 -3.92418 0
M  V30 150 H 14.074 2.65844 -2.61498 0
M  V30 151 N 16.2591 1.48442 0.529413 0
M  V30 152 C 17.6751 1.34575 0.858004 0
M  V30 153 C 17.8751 0.3572 1.98309 0
M  V30 154 O 16.9311 -0.221379 2.51528 0
M  V30 155 C 18.2441 2.74617 1.22499 0
M  V30 156 C 19.7921 2.83109 1.33484 0
M  V30 157 C 20.2671 4.23854 1.73526 0
M  V30 158 N 21.7581 4.2653 1.80628 0
M  V30 159 C 22.4931 5.32372 2.12997 0
M  V30 160 N 21.9891 6.48491 2.43786 0
M  V30 161 N 23.7821 5.19766 2.14008 0
M  V30 162 H 15.9331 2.1133 -0.212925 0
M  V30 163 H 18.1961 0.947439 -0.0326199 0
M  V30 164 H 17.9021 3.4852 0.471905 0
M  V30 165 H 17.7761 3.08177 2.17501 0
M  V30 166 H 20.1631 2.09462 2.0787 0
M  V30 167 H 20.2441 2.53168 0.366027 0
M  V30 168 H 19.8881 4.98018 0.997013 0
M  V30 169 H 19.8181 4.5124 2.71459 0
M  V30 170 H 22.3091 3.42772 1.59108 0
M  V30 171 H 22.6221 7.24993 2.67592 0
M  V30 172 H 20.9671 6.51765 2.41304 0
M  V30 173 H 24.1581 4.28066 1.89412 0
M  V30 174 H 24.3311 6.02354 2.38902 0
M  V30 175 N 17.7372 -0.778329 1.37039 0
M  V30 176 C 18.9852 -1.53361 1.31623 0
M  V30 177 C 19.3062 -1.94739 -0.100831 0
M  V30 178 O 18.5762 -1.65797 -1.04347 0
M  V30 179 H 17.1562 -0.568794 0.484234 0
M  V30 180 H 19.8182 -0.926742 1.71457 0
M  V30 181 H 18.9142 -2.43606 1.95096 0
M  V30 182 N 19.2153 -1.21501 -1.00376 0
M  V30 183 C 20.1783 -0.976927 -2.07337 0
M  V30 184 C 21.1783 0.0525322 -1.60714 0
M  V30 185 O 22.3683 -0.184869 -1.73216 0
M  V30 186 C 19.5003 -0.473423 -3.37597 0
M  V30 187 H 20.6933 -1.92587 -2.29892 0
M  V30 188 H 18.2463 -1.03217 -1.17371 0
M  V30 189 H 18.9813 0.480379 -3.20722 0
M  V30 190 H 18.7663 -1.216 -3.72768 0
M  V30 191 H 20.2563 -0.32675 -4.1632 0
M  V30 192 N 20.6934 1.19889 -1.02296 0
M  V30 193 C 21.9184 1.9393 -0.735237 0
M  V30 194 C 22.3434 1.74639 0.698782 0
M  V30 195 O 21.7014 1.04481 1.48167 0
M  V30 196 C 21.7494 3.43916 -1.08417 0
M  V30 197 O 20.8534 4.11917 -0.199446 0
M  V30 198 H 20.1944 0.605645 -0.272196 0
M  V30 199 H 22.7244 1.52137 -1.36804 0
M  V30 200 H 22.7344 3.9456 -1.03856 0
M  V30 201 H 21.4094 3.5728 -2.12894 0
M  V30 202 H 19.9864 3.71666 -0.303136 0
M  V30 203 N 22.1715 0.800033 1.35784 0
M  V30 204 C 23.1345 0.211565 2.28221 0
M  V30 205 C 24.1345 -0.59728 1.49296 0
M  V30 206 O 25.3245 -0.416721 1.69142 0
M  V30 207 C 22.4565 -0.705846 3.33513 0
M  V30 208 H 23.6495 1.02677 2.81776 0
M  V30 209 H 21.2025 0.570211 1.45528 0
M  V30 210 H 21.9375 -1.54498 2.85133 0
M  V30 211 H 21.7225 -0.127655 3.91892 0
M  V30 212 H 23.2125 -1.11211 4.02519 0
M  V30 213 N 23.6496 -1.47581 0.552962 0
M  V30 214 C 24.5796 -2.32762 -0.185451 0
M  V30 215 C 25.5606 -1.43527 -0.912905 0
M  V30 216 O 26.7456 -1.72388 -0.894201 0
M  V30 217 C 23.8756 -3.25219 -1.21859 0
M  V30 218 C 22.8296 -4.23661 -0.607864 0
M  V30 219 C 22.1556 -5.05413 -1.74533 0
M  V30 220 C 23.4556 -5.20481 0.435582 0
M  V30 221 H 25.1496 -2.94749 0.525684 0
M  V30 222 H 22.6956 -1.41738 0.254251 0
M  V30 223 H 24.6486 -3.8365 -1.7433 0
M  V30 224 H 23.3726 -2.61279 -1.95961 0
M  V30 225 H 22.0316 -3.66451 -0.104489 0
M  V30 226 H 21.6796 -4.3788 -2.47529 0
M  V30 227 H 21.3796 -5.72059 -1.34249 0
M  V30 228 H 22.9036 -5.66701 -2.27338 0
M  V30 229 H 24.3176 -5.733 -0.00290157 0
M  V30 230 H 22.7146 -5.95305 0.757067 0
M  V30 231 H 23.7846 -4.66217 1.33303 0
M  V30 232 N 25.1277 -0.289203 -1.54924 0
M  V30 233 C 26.0577 0.58549 -2.2604 0
M  V30 234 C 27.0387 1.14753 -1.25562 0
M  V30 235 O 28.2237 1.17906 -1.54311 0
M  V30 236 C 25.3537 1.76305 -2.99222 0
M  V30 237 C 24.3077 1.33191 -4.06748 0
M  V30 238 C 23.6337 2.5937 -4.6758 0
M  V30 239 C 24.9337 0.471775 -5.20165 0
M  V30 240 H 26.6277 -0.00763532 -2.99399 0
M  V30 241 H 24.1737 -0.00511229 -1.43999 0
M  V30 242 H 26.1267 2.38097 -3.47689 0
M  V30 243 H 24.8507 2.38223 -2.23422 0
M  V30 244 H 23.5097 0.737121 -3.59113 0
M  V30 245 H 23.1577 3.19576 -3.88433 0
M  V30 246 H 22.8577 2.31228 -5.40192 0
M  V30 247 H 24.3817 3.21985 -5.18804 0
M  V30 248 H 25.7957 0.995056 -5.64599 0
M  V30 249 H 24.1927 0.284639 -5.99425 0
M  V30 250 H 25.2627 -0.506041 -4.82252 0
M  V30 251 N 26.6058 1.57591 -0.0167156 0
M  V30 252 C 27.5688 2.08393 0.954204 0
M  V30 253 C 28.5688 0.996531 1.26198 0
M  V30 254 O 29.7588 1.25858 1.20438 0
M  V30 255 C 26.8908 2.5394 2.27436 0
M  V30 256 H 28.0838 2.95455 0.514451 0
M  V30 257 H 25.6368 1.54582 0.231089 0
M  V30 258 H 26.3718 1.70171 2.76066 0
M  V30 259 H 26.1568 3.33371 2.06412 0
M  V30 260 H 27.6468 2.93512 2.97053 0
M  V30 261 N 28.0839 -0.256276 1.55502 0
M  V30 262 C 29.0469 -1.30047 1.88734 0
M  V30 263 C 30.0469 -1.4154 0.763086 0
M  V30 264 O 31.2369 -1.40403 1.03115 0
M  V30 265 C 28.3689 -2.67953 2.10747 0
M  V30 266 H 29.5619 -1.01802 2.82093 0
M  V30 267 H 27.1149 -0.495134 1.4825 0
M  V30 268 H 27.8499 -3.01351 1.19825 0
M  V30 269 H 27.6349 -2.60993 2.92617 0
M  V30 270 H 29.1249 -3.43368 2.37673 0
M  V30 271 N 29.562 -1.4872 -0.521534 0
M  V30 272 C 30.525 -1.63379 -1.60748 0
M  V30 273 C 31.525 -0.50661 -1.52611 0
M  V30 274 O 32.715 -0.772601 -1.5613 0
M  V30 275 C 29.847 -1.61192 -3.00383 0
M  V30 276 H 31.04 -2.60217 -1.49087 0
M  V30 277 H 28.593 -1.37444 -0.744235 0
M  V30 278 H 29.328 -0.65863 -3.17541 0
M  V30 279 H 29.113 -2.43032 -3.07698 0
M  V30 280 H 30.603 -1.7466 -3.7932 0
M  V30 281 N 31.0401 0.771051 -1.3745 0
M  V30 282 C 31.9701 1.89827 -1.3597 0
M  V30 283 C 32.9511 1.68562 -0.228216 0
M  V30 284 O 34.1361 1.8941 -0.428675 0
M  V30 285 C 31.2661 3.2712 -1.16662 0
M  V30 286 C 30.2201 3.6295 -2.2683 0
M  V30 287 C 29.5461 4.98791 -1.92644 0
M  V30 288 C 30.8461 3.69627 -3.69017 0
M  V30 289 H 32.5401 1.91323 -2.30295 0
M  V30 290 H 30.0861 0.919082 -1.10855 0
M  V30 291 H 32.0391 4.05615 -1.14256 0
M  V30 292 H 30.7631 3.26059 -0.187926 0
M  V30 293 H 29.4221 2.86763 -2.28392 0
M  V30 294 H 29.0701 4.94271 -0.933021 0
M  V30 295 H 28.7701 5.23733 -2.66416 0
M  V30 296 H 30.2941 5.79685 -1.91826 0
M  V30 297 H 31.7081 4.38273 -3.69581 0
M  V30 298 H 30.1051 4.06067 -4.41848 0
M  V30 299 H 31.1751 2.70273 -4.02592 0
M  V30 300 N 32.5182 1.22032 0.997298 0
M  V30 301 C 33.4482 1.01065 2.10495 0
M  V30 302 C 34.4292 -0.0669542 1.69968 0
M  V30 303 O 35.6142 0.0943987 1.9397 0
M  V30 304 C 32.7442 0.582874 3.42374 0
M  V30 305 C 31.6982 1.60592 3.96729 0
M  V30 306 C 31.0242 1.03412 5.24605 0
M  V30 307 C 32.3242 2.99478 4.27914 0
M  V30 308 H 34.0182 1.93708 2.28292 0
M  V30 309 H 31.5642 0.932761 1.09707 0
M  V30 310 H 33.5172 0.423332 4.19268 0
M  V30 311 H 32.2412 -0.379213 3.24391 0
M  V30 312 H 30.9002 1.75316 3.21963 0
M  V30 313 H 30.5482 0.063518 5.0296 0
M  V30 314 H 30.2482 1.71754 5.61938 0
M  V30 315 H 31.7722 0.886066 6.04137 0
M  V30 316 H 33.1862 2.88153 4.95622 0
M  V30 317 H 31.5832 3.64903 4.76409 0
M  V30 318 H 32.6532 3.49742 3.3587 0
M  V30 319 N 33.9963 -1.19345 1.0293 0
M  V30 320 C 35.2263 -1.92717 0.744563 0
M  V30 321 C 35.6343 -1.75751 -0.700579 0
M  V30 322 O 34.9773 -1.07703 -1.48815 0
M  V30 323 C 35.0393 -3.44828 1.01657 0
M  V30 324 C 34.7033 -3.85564 2.45335 0
M  V30 325 C 35.7003 -3.90286 3.43472 0
M  V30 326 C 33.3853 -4.1719 2.79746 0
M  V30 327 C 35.3793 -4.26065 4.74075 0
M  V30 328 C 33.0663 -4.52642 4.10559 0
M  V30 329 C 34.0643 -4.57054 5.07534 0
M  V30 330 O 33.7523 -4.91685 6.36004 0
M  V30 331 H 33.4843 -0.618977 0.271742 0
M  V30 332 H 36.0383 -1.52415 1.37691 0
M  V30 333 H 34.2683 -3.85314 0.327084 0
M  V30 334 H 35.9573 -3.99437 0.721427 0
M  V30 335 H 36.7233 -3.66002 3.18225 0
M  V30 336 H 32.6023 -4.1294 2.04943 0
M  V30 337 H 36.1463 -4.29423 5.49765 0
M  V30 338 H 32.0433 -4.76383 4.35579 0
M  V30 339 H 32.8113 -5.09631 6.40483 0
M  V30 340 N 35.4744 -0.807222 -1.35358 0
M  V30 341 C 36.4374 -0.223665 -2.28106 0
M  V30 342 C 37.4374 0.589354 -1.4961 0
M  V30 343 O 38.6274 0.407745 -1.69361 0
M  V30 344 C 35.7594 0.688149 -3.33882 0
M  V30 345 H 36.9524 -1.04169 -2.81227 0
M  V30 346 H 34.5054 -0.577921 -1.45223 0
M  V30 347 H 35.2404 1.52984 -2.85948 0
M  V30 348 H 35.0254 0.10687 -3.91954 0
M  V30 349 H 36.5154 1.09075 -4.03104 0
M  V30 350 N 36.9525 1.47285 -0.560781 0
M  V30 351 C 37.9155 2.28535 0.174488 0
M  V30 352 C 38.9155 1.37153 0.839388 0
M  V30 353 O 40.1055 1.59748 0.694702 0
M  V30 354 C 37.2375 3.16934 1.25561 0
M  V30 355 H 38.4305 2.95012 -0.539262 0
M  V30 356 H 35.9835 1.53034 -0.317865 0
M  V30 357 H 36.7185 2.55157 2.00164 0
M  V30 358 H 36.5035 3.8419 0.783604 0
M  V30 359 H 37.9935 3.78143 1.77193 0
M  V30 360 N 38.4306 0.297415 1.54768 0
M  V30 361 C 39.3606 -0.573494 2.26348 0
M  V30 362 C 40.3416 -1.14085 1.26169 0
M  V30 363 O 41.5266 -1.17086 1.54934 0
M  V30 364 C 38.6566 -1.74716 3.00153 0
M  V30 365 C 37.6106 -1.31032 4.07449 0
M  V30 366 C 36.9366 -2.56887 4.68949 0
M  V30 367 C 38.2366 -0.444183 5.20408 0
M  V30 368 H 39.9306 0.0235131 2.99391 0
M  V30 369 H 37.4766 0.0127488 1.43994 0
M  V30 370 H 39.4296 -2.3625 3.48947 0
M  V30 371 H 38.1536 -2.37035 2.24682 0
M  V30 372 H 36.8126 -0.718066 3.59499 0
M  V30 373 H 36.4606 -3.17512 3.90122 0
M  V30 374 H 36.1606 -2.2836 5.41411 0
M  V30 375 H 37.6846 -3.19229 5.20505 0
M  V30 376 H 39.0986 -0.9651 5.65118 0
M  V30 377 H 37.4956 -0.252846 5.99567 0
M  V30 378 H 38.5656 0.531609 4.81977 0
M  V30 379 N 39.9087 -1.5758 0.0250728 0
M  V30 380 C 41.1567 -1.91255 -0.653151 0
M  V30 381 C 41.4777 -0.901691 -1.729 0
M  V30 382 O 40.7477 0.0573785 -1.95816 0
M  V30 383 H 39.3277 -0.705942 -0.244243 0
M  V30 384 H 41.9897 -1.94767 0.0719209 0
M  V30 385 H 41.0857 -2.91752 -1.10847 0
M  V30 386 N 41.3868 0.248026 -1.55636 0
M  V30 387 C 42.6638 0.998988 -1.68165 0
M  V30 388 C 43.0438 2.03409 -0.564621 0
M  V30 389 O 42.3918 2.24378 0.432076 0
M  V30 390 C 42.6018 1.63334 -3.0842 0
M  V30 391 C 43.9498 2.13562 -3.66983 0
M  V30 392 O 44.9738 1.73277 -3.11213 0
M  V30 393 O 43.8328 2.87526 -4.64749 0
M  V30 394 H 40.9268 0.464933 -0.683935 0
M  V30 395 H 43.4728 0.241902 -1.67967 0
M  V30 396 H 42.2448 0.884583 -3.8117 0
M  V30 397 H 41.8678 2.45666 -3.12624 0
M  V30 398 N 42.8649 1.48995 0.513639 0
M  V30 399 C 44.1109 1.58076 1.27042 0
M  V30 400 C 44.4439 0.261026 1.92438 0
M  V30 401 O 43.7189 -0.734393 1.80103 0
M  V30 402 C 44.0019 2.73091 2.34719 0
M  V30 403 C 43.8549 4.14821 1.73907 0
M  V30 404 C 45.1739 2.83796 3.36375 0
M  V30 405 H 42.2929 0.575391 0.460536 0
M  V30 406 H 44.9349 1.81232 0.570516 0
M  V30 407 H 43.0849 2.53479 2.94416 0
M  V30 408 H 44.7569 4.45917 1.18135 0
M  V30 409 H 42.9999 4.21058 1.0437 0
M  V30 410 H 43.6709 4.91147 2.51949 0
M  V30 411 H 46.1469 3.01611 2.86653 0
M  V30 412 H 45.0229 3.65971 4.09093 0
M  V30 413 H 45.2839 1.92624 3.9793 0
M  V30 414 N 44.343 -0.763751 1.37857 0
M  V30 415 C 45.589 -1.52483 1.33704 0
M  V30 416 C 45.922 -1.94051 -0.0759612 0
M  V30 417 O 45.197 -1.64675 -1.03501 0
M  V30 418 C 45.48 -2.78441 2.28348 0
M  V30 419 C 45.333 -2.43075 3.78463 0
M  V30 420 C 46.652 -3.80415 2.21298 0
M  V30 421 H 43.771 -0.553169 0.487005 0
M  V30 422 H 46.413 -0.875562 1.68624 0
M  V30 423 H 44.563 -3.33842 1.987 0
M  V30 424 H 46.235 -1.93527 4.18742 0
M  V30 425 H 44.478 -1.75666 3.96641 0
M  V30 426 H 45.149 -3.33149 4.40132 0
M  V30 427 H 47.625 -3.34527 2.47449 0
M  V30 428 H 46.501 -4.66257 2.89647 0
M  V30 429 H 46.762 -4.25262 1.20849 0
M  V30 430 N 45.8211 -1.22559 -0.990812 0
M  V30 431 C 47.2371 -0.985996 -1.255 0
M  V30 432 C 47.4371 0.319173 -1.98956 0
M  V30 433 O 46.4931 1.04127 -2.3003 0
M  V30 434 C 47.8061 -2.18607 -2.06474 0
M  V30 435 C 49.3541 -2.22985 -2.19651 0
M  V30 436 C 49.8291 -3.4255 -3.04012 0
M  V30 437 N 51.3201 -3.42725 -3.11599 0
M  V30 438 C 52.0551 -4.31892 -3.7717 0
M  V30 439 N 51.5511 -5.31279 -4.44651 0
M  V30 440 N 53.3441 -4.19662 -3.73952 0
M  V30 441 H 45.4951 -2.06469 -0.49841 0
M  V30 442 H 47.7581 -0.904853 -0.282747 0
M  V30 443 H 47.4641 -3.13267 -1.59865 0
M  V30 444 H 47.3381 -2.18838 -3.07229 0
M  V30 445 H 49.7251 -1.28871 -2.65474 0
M  V30 446 H 49.8061 -2.26791 -1.18319 0
M  V30 447 H 49.4501 -4.36965 -2.58889 0
M  V30 448 H 49.3801 -3.35984 -4.0549 0
M  V30 449 H 51.8711 -2.70807 -2.63575 0
M  V30 450 H 52.1841 -5.95593 -4.92431 0
M  V30 451 H 50.5291 -5.3519 -4.43392 0
M  V30 452 H 53.7201 -3.41268 -3.20396 0
M  V30 453 H 53.8931 -4.89358 -4.24774 0
M  V30 454 N 47.2992 1.18797 -1.03562 0
M  V30 455 C 48.5242 1.9314 -0.755764 0
M  V30 456 C 48.9492 1.7537 0.68022 0
M  V30 457 O 48.3072 1.06046 1.47051 0
M  V30 458 C 48.3552 3.42747 -1.12058 0
M  V30 459 O 47.4592 4.11683 -0.243124 0
M  V30 460 H 46.8002 0.602724 -0.278604 0
M  V30 461 H 49.3302 1.50678 -1.3841 0
M  V30 462 H 49.3402 3.93437 -1.08035 0
M  V30 463 H 48.0152 3.55002 -2.16672 0
M  V30 464 H 46.5922 3.71323 -0.342539 0
M  V30 465 N 48.7773 0.814389 1.34928 0
M  V30 466 C 49.6873 0.231978 2.3345 0
M  V30 467 C 50.7033 -0.629139 1.62228 0
M  V30 468 O 51.8793 -0.539052 1.94052 0
M  V30 469 C 48.9443 -0.603482 3.41407 0
M  V30 470 C 48.0053 0.279037 4.28392 0
M  V30 471 C 47.2383 -0.516643 5.31193 0
M  V30 472 O 47.4613 -1.75068 5.4287 0
M  V30 473 O 46.3953 0.0965652 6.01823 0
M  V30 474 H 50.2213 1.04721 2.85074 0
M  V30 475 H 47.8063 0.576343 1.37836 0
M  V30 476 H 49.6883 -1.07908 4.0735 0
M  V30 477 H 48.3633 -1.39618 2.92042 0
M  V30 478 H 47.2703 0.801948 3.65403 0
M  V30 479 H 48.6033 1.03588 4.81176 0
M  V30 480 N 50.2554 -1.46986 0.568584 0
M  V30 481 C 51.1874 -2.28233 -0.210337 0
M  V30 482 C 52.2004 -1.37682 -0.868767 0
M  V30 483 O 53.3894 -1.62406 -0.740705 0
M  V30 484 C 50.4894 -3.12293 -1.3163 0
M  V30 485 C 49.6624 -4.30878 -0.7525 0
M  V30 486 C 48.7214 -4.96445 -1.74439 0
M  V30 487 O 47.7474 -5.54482 -1.286 0
M  V30 488 N 48.9494 -4.92171 -3.07812 0
M  V30 489 H 51.7144 -2.95723 0.486648 0
M  V30 490 H 49.2754 -1.56742 0.405409 0
M  V30 491 H 51.2674 -3.53022 -1.97883 0
M  V30 492 H 49.8374 -2.46971 -1.91636 0
M  V30 493 H 49.0574 -3.94104 0.0871128 0
M  V30 494 H 50.3454 -5.07558 -0.35536 0
M  V30 495 H 49.7434 -4.46239 -3.47688 0
M  V30 496 H 48.3004 -5.36884 -3.69592 0
M  V30 497 N 51.7335 -0.305618 -1.54608 0
M  V30 498 C 52.6655 0.602161 -2.21149 0
M  V30 499 C 53.6785 1.09394 -1.20569 0
M  V30 500 O 54.8675 1.0106 -1.47136 0
M  V30 501 C 51.9675 1.83692 -2.84799 0
M  V30 502 C 51.1405 1.48686 -4.11353 0
M  V30 503 C 50.1995 2.57725 -4.58764 0
M  V30 504 O 49.2255 2.22623 -5.23858 0
M  V30 505 N 50.4275 3.88346 -4.31471 0
M  V30 506 H 53.1925 0.0324966 -2.99682 0
M  V30 507 H 50.7535 -0.128021 -1.61393 0
M  V30 508 H 52.7455 2.55994 -3.13448 0
M  V30 509 H 51.3155 2.31486 -2.10078 0
M  V30 510 H 50.5355 0.596269 -3.89664 0
M  V30 511 H 51.8235 1.22842 -4.93748 0
M  V30 512 H 51.2215 4.19671 -3.79331 0
M  V30 513 H 49.7785 4.56932 -4.64818 0
M  V30 514 N 53.2116 1.57565 -0.0334293 0
M  V30 515 C 54.4606 1.91155 0.643639 0
M  V30 516 C 54.7736 0.91192 1.73042 0
M  V30 517 O 55.9796 1.13923 2.46442 0
M  V30 518 C 54.4356 3.39443 1.1961 0
M  V30 519 C 54.0436 4.47774 0.142381 0
M  V30 520 C 55.7876 3.82094 1.84944 0
M  V30 521 C 53.6946 5.87162 0.706727 0
M  V30 522 H 52.6246 0.713368 0.244176 0
M  V30 523 H 55.2756 1.8323 -0.0994323 0
M  V30 524 H 53.6576 3.42313 1.99092 0
M  V30 525 H 54.8316 4.56469 -0.630296 0
M  V30 526 H 53.1466 4.14352 -0.412446 0
M  V30 527 H 55.7436 4.83591 2.2813 0
M  V30 528 H 56.0866 3.17386 2.69392 0
M  V30 529 H 56.6196 3.81665 1.12145 0
M  V30 530 H 53.3586 6.55424 -0.0997178 0
M  V30 531 H 52.8786 5.82064 1.44779 0
M  V30 532 H 54.5576 6.35866 1.19514 0
M  V30 533 N 54.6897 -0.239769 1.55765 0
M  V30 534 C 56.1007 -0.808263 1.68297 0
M  V30 535 C 56.4517 -1.85736 0.632181 0
M  V30 536 O 55.5767 -2.15277 -0.220204 0
M  V30 537 C 56.1717 -1.47284 3.05111 0
M  V30 538 C 54.7307 -1.98895 3.19559 0
M  V30 539 C 53.8777 -0.842575 2.64189 0
M  V30 540 H 56.8287 -0.0154422 1.58692 0
M  V30 541 H 56.8497 -2.34111 2.99954 0
M  V30 542 H 56.3617 -0.709053 3.81568 0
M  V30 543 H 54.4627 -2.78132 2.47938 0
M  V30 544 H 54.5757 -2.18143 4.26556 0
M  V30 545 H 52.9397 -1.24501 2.22197 0
M  V30 546 H 53.7227 -0.0917552 3.43177 0
M  V30 547 N 56.1678 -1.49265 -0.50573 0
M  V30 548 C 57.0978 -1.68495 -1.61653 0
M  V30 549 C 58.0788 -0.53366 -1.61512 0
M  V30 550 O 59.2638 -0.76897 -1.78327 0
M  V30 551 C 56.3938 -1.74709 -3.00157 0
M  V30 552 C 55.3478 -2.89581 -3.15162 0
M  V30 553 C 54.6738 -2.80903 -4.5497 0
M  V30 554 C 55.9738 -4.30578 -2.95634 0
M  V30 555 H 57.6678 -2.61493 -1.45814 0
M  V30 556 H 55.2138 -1.25838 -0.70005 0
M  V30 557 H 57.1668 -1.86748 -3.77761 0
M  V30 558 H 55.8908 -0.783067 -3.17074 0
M  V30 559 H 54.5498 -2.77136 -2.39982 0
M  V30 560 H 54.1978 -1.82419 -4.68756 0
M  V30 561 H 53.8978 -3.57999 -4.65951 0
M  V30 562 H 55.4218 -2.94944 -5.34641 0
M  V30 563 H 56.8358 -4.4373 -3.63011 0
M  V30 564 H 55.2328 -5.0886 -3.18091 0
M  V30 565 H 56.3028 -4.45352 -1.91806 0
M  V30 566 N 57.6459 0.756429 -1.3826 0
M  V30 567 C 58.8709 1.55077 -1.37717 0
M  V30 568 C 59.2959 1.88073 0.03164 0
M  V30 569 O 58.6539 1.50364 1.01293 0
M  V30 570 C 58.7019 2.8283 -2.23695 0
M  V30 571 O 57.8059 3.77862 -1.6521 0
M  V30 572 H 57.1469 0.469152 -0.469885 0
M  V30 573 H 59.6769 0.935019 -1.81985 0
M  V30 574 H 59.6869 3.31783 -2.37453 0
M  V30 575 H 58.3619 2.58144 -3.2609 0
M  V30 576 H 56.9389 3.36555 -1.60578 0
M  V30 577 N 59.124 1.23083 0.984299 0
M  V30 578 C 60.37 1.06214 1.72761 0
M  V30 579 C 60.703 -0.400584 1.90024 0
M  V30 580 O 59.978 -1.29672 1.44967 0
M  V30 581 C 60.261 1.78375 3.12817 0
M  V30 582 C 60.114 3.32296 3.03149 0
M  V30 583 C 61.433 1.54309 4.12161 0
M  V30 584 H 58.552 0.387251 0.627061 0
M  V30 585 H 61.194 1.51536 1.14616 0
M  V30 586 H 59.344 1.39848 3.62457 0
M  V30 587 H 61.016 3.8032 2.61064 0
M  V30 588 H 59.259 3.6153 2.39747 0
M  V30 589 H 59.93 3.77972 4.02295 0
M  V30 590 H 62.406 1.87791 3.71314 0
M  V30 591 H 61.282 2.07281 5.08258 0
M  V30 592 H 61.543 0.477572 4.39513 0
M  V30 593 N 60.6021 -1.18246 1.0419 0
M  V30 594 C 61.8481 -1.88536 0.747122 0
M  V30 595 C 62.1811 -1.80223 -0.723409 0
M  V30 596 O 61.4561 -1.20337 -1.52804 0
M  V30 597 C 61.7391 -3.38968 1.21544 0
M  V30 598 C 61.5921 -3.56084 2.74816 0
M  V30 599 C 62.9111 -4.32648 0.806482 0
M  V30 600 H 60.0301 -0.684619 0.272883 0
M  V30 601 H 62.6721 -1.39113 1.29413 0
M  V30 602 H 60.8221 -3.8119 0.750081 0
M  V30 603 H 62.4941 -3.22946 3.29399 0
M  V30 604 H 60.7371 -2.98699 3.14582 0
M  V30 605 H 61.4081 -4.61639 3.02644 0
M  V30 606 H 63.8841 -3.98211 1.20695 0
M  V30 607 H 62.7601 -5.36462 1.1619 0
M  V30 608 H 63.0211 -4.41146 -0.29029 0
M  V30 609 N 62.0802 -0.821533 -1.34494 0
M  V30 610 C 63.0272 -0.240397 -2.29545 0
M  V30 611 C 63.9972 0.634031 -1.53523 0
M  V30 612 O 65.1822 0.575966 -1.81899 0
M  V30 613 C 62.3222 0.592869 -3.39969 0
M  V30 614 C 61.4352 -0.30365 -4.30932 0
M  V30 615 C 60.5702 0.539049 -5.28458 0
M  V30 616 C 59.6092 -0.356942 -6.11058 0
M  V30 617 N 58.7462 0.446603 -7.00678 0
M  V30 618 H 63.5862 -1.05632 -2.7865 0
M  V30 619 H 61.1232 -0.532413 -1.37127 0
M  V30 620 H 63.0812 1.09129 -4.02675 0
M  V30 621 H 61.7112 1.37392 -2.92102 0
M  V30 622 H 60.7632 -0.920276 -3.691 0
M  V30 623 H 62.0752 -0.992661 -4.88823 0
M  V30 624 H 61.2292 1.102 -5.96608 0
M  V30 625 H 59.9682 1.26157 -4.71101 0
M  V30 626 H 58.9732 -0.932047 -5.41842 0
M  V30 627 H 60.1982 -1.07755 -6.70497 0
M  V30 628 H 58.1442 1.15282 -6.45791 0
M  V30 629 H 58.0612 -0.184048 -7.55776 0
M  V30 630 H 59.3292 0.992352 -7.73158 0
M  V30 631 N 63.5583 1.46682 -0.576371 0
M  V30 632 C 64.4883 2.33028 0.148397 0
M  V30 633 C 65.4693 1.44961 0.889956 0
M  V30 634 O 66.6543 1.73789 0.866662 0
M  V30 635 C 63.7843 3.27117 1.1667 0
M  V30 636 C 62.7383 4.24575 0.540386 0
M  V30 637 C 62.0643 5.08126 1.6647 0
M  V30 638 C 63.3643 5.19722 -0.518331 0
M  V30 639 H 65.0583 2.93875 -0.572509 0
M  V30 640 H 62.6043 1.41315 -0.276768 0
M  V30 641 H 64.5573 3.86374 1.68204 0
M  V30 642 H 63.2813 2.64364 1.9178 0
M  V30 643 H 61.9403 3.66571 0.0461769 0
M  V30 644 H 61.5883 4.41762 2.40531 0
M  V30 645 H 61.2883 5.74122 1.25131 0
M  V30 646 H 62.8123 5.70246 2.18293 0
M  V30 647 H 64.2263 5.73232 -0.0883058 0
M  V30 648 H 62.6233 5.94026 -0.851679 0
M  V30 649 H 63.6933 4.64037 -1.40703 0
M  V30 650 N 65.0364 0.313813 1.54444 0
M  V30 651 C 66.2824 -0.284918 2.01395 0
M  V30 652 C 66.6374 -1.50537 1.19818 0
M  V30 653 O 65.9304 -1.89692 0.269748 0
M  V30 654 C 66.1244 -0.680386 3.50864 0
M  V30 655 C 65.9534 0.500198 4.4691 0
M  V30 656 C 64.7234 0.996248 4.95382 0
M  V30 657 C 66.9214 1.34928 4.96285 0
M  V30 658 N 64.9034 2.14226 5.75309 0
M  V30 659 C 66.2744 2.3426 5.7404 0
M  V30 660 C 68.3294 1.37818 4.78446 0
M  V30 661 C 67.0324 3.36272 6.35856 0
M  V30 662 C 69.0584 2.38695 5.4109 0
M  V30 663 C 68.4204 3.36755 6.18688 0
M  V30 664 H 64.5194 -0.0683689 0.779006 0
M  V30 665 H 67.1034 0.44664 1.89508 0
M  V30 666 H 65.2744 -1.38109 3.63016 0
M  V30 667 H 67.0064 -1.25975 3.84594 0
M  V30 668 H 63.7614 0.56912 4.70168 0
M  V30 669 H 64.1854 2.72005 6.19953 0
M  V30 670 H 68.8274 0.633747 4.18023 0
M  V30 671 H 66.5454 4.11627 6.95405 0
M  V30 672 H 70.1314 2.41721 5.29209 0
M  V30 673 H 69.0114 4.13535 6.66302 0
M  V30 674 N 66.5145 -1.57545 0.0417849 0
M  V30 675 C 67.4775 -2.09885 -0.92093 0
M  V30 676 C 68.4775 -1.01648 -1.24596 0
M  V30 677 O 69.6675 -1.27759 -1.1842 0
M  V30 678 C 66.7995 -2.57527 -2.23367 0
M  V30 679 H 67.9925 -2.96236 -0.467382 0
M  V30 680 H 65.5455 -1.5493 -0.206467 0
M  V30 681 H 66.2805 -1.74542 -2.73323 0
M  V30 682 H 66.0655 -3.36613 -2.01083 0
M  V30 683 H 67.5555 -2.98201 -2.92346 0
M  V30 684 N 67.9926 0.231505 -1.5589 0
M  V30 685 C 69.2176 0.978689 -1.82856 0
M  V30 686 C 69.6426 1.77559 -0.620846 0
M  V30 687 O 69.0006 1.76119 0.430305 0
M  V30 688 C 69.0486 1.87997 -3.07716 0
M  V30 689 O 68.1526 2.97393 -2.85712 0
M  V30 690 H 67.4936 0.277663 -0.603158 0
M  V30 691 H 70.0236 0.24783 -2.03093 0
M  V30 692 H 70.0336 2.2917 -3.37558 0
M  V30 693 H 68.7086 1.29417 -3.95252 0
M  V30 694 H 67.2856 2.60238 -2.67078 0
M  V30 695 N 69.4707 1.49531 0.497807 0
M  V30 696 C 70.4337 1.65916 1.58128 0
M  V30 697 C 71.4337 0.530825 1.51786 0
M  V30 698 O 72.6237 0.797342 1.54881 0
M  V30 699 C 69.7557 1.65951 2.9778 0
M  V30 700 H 70.9487 2.62556 1.44929 0
M  V30 701 H 68.5017 1.38611 0.722275 0
M  V30 702 H 69.2367 0.709065 3.16453 0
M  V30 703 H 69.0217 2.47897 3.03792 0
M  V30 704 H 70.5117 1.80673 3.76493 0
M  V30 705 N 70.9488 -0.749086 1.3866 0
M  V30 706 C 72.1958 -1.50833 1.35114 0
M  V30 707 C 72.5238 -1.94415 -0.0574049 0
M  V30 708 O 71.7788 -1.66065 -1.03541 0
M  V30 709 C 72.0778 -2.7712 2.25697 0
M  V30 710 C 71.7438 -2.52477 3.73585 0
M  V30 711 C 70.4058 -2.45466 4.13884 0
M  V30 712 C 72.7578 -2.31066 4.67181 0
M  V30 713 C 70.0858 -2.15064 5.45861 0
M  V30 714 C 72.4378 -2.02183 5.9942 0
M  V30 715 C 71.1018 -1.93631 6.38798 0
M  V30 716 H 70.3718 -0.551936 0.494416 0
M  V30 717 H 73.0188 -0.860979 1.71054 0
M  V30 718 H 71.3238 -3.46528 1.82827 0
M  V30 719 H 73.0208 -3.35096 2.20254 0
M  V30 720 H 69.6108 -2.58807 3.41638 0
M  V30 721 H 73.7948 -2.35459 4.3689 0
M  V30 722 H 69.0508 -2.06954 5.75308 0
M  V30 723 H 73.2248 -1.8462 6.71482 0
M  V30 724 H 70.8518 -1.69839 7.40985 0
M  V30 725 N 72.4269 -1.23603 -0.977757 0
M  V30 726 C 73.6749 -1.06759 -1.71601 0
M  V30 727 C 73.9959 0.395929 -1.90938 0
M  V30 728 O 73.2659 1.28356 -1.47992 0
M  V30 729 H 71.8459 -0.392062 -0.635843 0
M  V30 730 H 74.5079 -1.55362 -1.1768 0
M  V30 731 H 73.6039 -1.55763 -2.70452 0
M  V30 732 N 73.905 1.17692 -1.04816 0
M  V30 733 C 75.153 1.87488 -0.754497 0
M  V30 734 C 75.474 1.81205 0.720407 0
M  V30 735 O 74.744 1.23544 1.52032 0
M  V30 736 H 73.324 0.694101 -0.276102 0
M  V30 737 H 75.986 1.42793 -1.32651 0
M  V30 738 H 75.082 2.93328 -1.06606 0
M  V30 739 N 75.3831 0.828654 1.34056 0
M  V30 740 C 76.2931 0.256725 2.33191 0
M  V30 741 C 77.3091 -0.611898 1.62886 0
M  V30 742 O 78.4851 -0.51844 1.94613 0
M  V30 743 C 75.5501 -0.567238 3.42028 0
M  V30 744 C 74.6111 0.324458 4.28072 0
M  V30 745 C 73.8441 -0.460274 5.31712 0
M  V30 746 O 74.0671 -1.693 5.44696 0
M  V30 747 O 73.0011 0.160391 6.01686 0
M  V30 748 H 76.8271 1.07739 2.83947 0
M  V30 749 H 74.4121 0.59093 1.37217 0
M  V30 750 H 76.2941 -1.03582 4.08471 0
M  V30 751 H 74.9691 -1.36513 2.93506 0
M  V30 752 H 73.8761 0.840659 3.64532 0
M  V30 753 H 75.2091 1.08685 4.8005 0
M  V30 754 N 76.8612 -1.46375 0.584142 0
M  V30 755 C 78.1102 -2.01585 0.0679741 0
M  V30 756 C 78.4232 -1.46109 -1.30045 0
M  V30 757 O 79.6292 -1.93148 -1.90804 0
M  V30 758 C 78.0852 -3.5983 0.0709207 0
M  V30 759 C 77.6932 -4.24303 1.43775 0
M  V30 760 C 79.4372 -4.22693 -0.391228 0
M  V30 761 C 77.3442 -5.74631 1.39834 0
M  V30 762 H 76.2742 -0.753689 0.0216421 0
M  V30 763 H 78.9252 -1.68093 0.736001 0
M  V30 764 H 77.3072 -3.90405 -0.663299 0
M  V30 765 H 78.4812 -4.05335 2.19181 0
M  V30 766 H 76.7962 -3.73539 1.84004 0
M  V30 767 H 79.3932 -5.3289 -0.439524 0
M  V30 768 H 79.7362 -3.91728 -1.40906 0
M  V30 769 H 80.2692 -3.96749 0.288974 0
M  V30 770 H 77.0082 -6.10258 2.39303 0
M  V30 771 H 76.5282 -5.95858 0.686505 0
M  V30 772 H 78.2072 -6.37375 1.11187 0
M  V30 773 N 78.3393 -0.321999 -1.54275 0
M  V30 774 C 79.2863 0.544664 -2.24281 0
M  V30 775 C 80.2563 1.1129 -1.23303 0
M  V30 776 O 81.4413 1.15354 -1.51981 0
M  V30 777 C 78.5813 1.70045 -3.00298 0
M  V30 778 C 77.6943 1.16159 -4.1609 0
M  V30 779 C 76.8293 2.28293 -4.79641 0
M  V30 780 C 75.8683 1.71648 -5.8754 0
M  V30 781 N 75.0053 2.77438 -6.44959 0
M  V30 782 H 79.8453 -0.0588907 -2.97942 0
M  V30 783 H 77.3823 -0.0408345 -1.47043 0
M  V30 784 H 79.3403 2.38054 -3.42616 0
M  V30 785 H 77.9703 2.27531 -2.28975 0
M  V30 786 H 77.0223 0.373092 -3.78566 0
M  V30 787 H 78.3343 0.707087 -4.93763 0
M  V30 788 H 77.4883 3.0421 -5.2492 0
M  V30 789 H 76.2273 2.77079 -4.01346 0
M  V30 790 H 75.2323 0.942282 -5.41665 0
M  V30 791 H 76.4573 1.23741 -6.67731 0
M  V30 792 H 74.4033 3.25519 -5.69538 0
M  V30 793 H 74.3203 2.36547 -7.1804 0
M  V30 794 H 75.5883 3.53189 -6.94894 0
M  V30 795 N 79.8174 1.5752 -0.0501392 0
M  V30 796 C 81.0424 1.97376 0.636997 0
M  V30 797 C 81.4674 0.927466 1.63645 0
M  V30 798 O 80.8254 -0.10941 1.8097 0
M  V30 799 C 80.8734 3.36304 1.30123 0
M  V30 800 O 79.9774 3.34156 2.41689 0
M  V30 801 H 79.3184 0.642998 0.165679 0
M  V30 802 H 81.8484 2.04258 -0.118233 0
M  V30 803 H 81.8584 3.73008 1.65315 0
M  V30 804 H 80.5334 4.11993 0.568746 0
M  V30 805 H 79.1104 3.09196 2.08451 0
M  V30 806 N 81.2955 -0.223234 1.56011 0
M  V30 807 C 82.5445 -0.945912 1.78144 0
M  V30 808 C 82.8575 -1.85567 0.618396 0
M  V30 809 O 84.0635 -2.61688 0.723318 0
M  V30 810 C 82.5195 -1.73216 3.15475 0
M  V30 811 C 82.1275 -0.868619 4.39499 0
M  V30 812 C 83.8715 -2.44615 3.46935 0
M  V30 813 C 81.7785 -1.65212 5.67855 0
M  V30 814 H 80.7085 -0.356929 0.664167 0
M  V30 815 H 83.3595 -0.199845 1.82409 0
M  V30 816 H 81.7415 -2.52107 3.05382 0
M  V30 817 H 82.9155 -0.120366 4.60643 0
M  V30 818 H 81.2305 -0.26683 4.15544 0
M  V30 819 H 83.8275 -3.03732 4.40058 0
M  V30 820 H 84.1705 -3.17417 2.69355 0
M  V30 821 H 84.7035 -1.72715 3.58349 0
M  V30 822 H 81.4425 -0.967407 6.48322 0
M  V30 823 H 80.9625 -2.37503 5.50774 0
M  V30 824 H 82.6415 -2.21322 6.07968 0
M  V30 825 N 82.7736 -1.49793 -0.48987 0
M  V30 826 C 83.7366 -1.66752 -1.57246 0
M  V30 827 C 84.7366 -0.538867 -1.51502 0
M  V30 828 O 85.9266 -0.805545 -1.54456 0
M  V30 829 C 83.0586 -1.67528 -2.96896 0
M  V30 830 H 84.2516 -2.63321 -1.43534 0
M  V30 831 H 81.8046 -1.38992 -0.714914 0
M  V30 832 H 82.5396 -0.725837 -3.16073 0
M  V30 833 H 82.3246 -2.49504 -3.02473 0
M  V30 834 H 83.8146 -1.82667 -3.7553 0
M  V30 835 N 84.2517 0.741722 -1.39055 0
M  V30 836 C 85.2147 1.83733 -1.37021 0
M  V30 837 C 86.2147 1.58542 -0.268534 0
M  V30 838 O 87.4047 1.66067 -0.526076 0
M  V30 839 C 84.5367 3.2141 -1.13617 0
M  V30 840 H 85.7297 1.86941 -2.34506 0
M  V30 841 H 83.2827 0.944676 -1.24521 0
M  V30 842 H 84.0177 3.23865 -0.167863 0
M  V30 843 H 83.8027 3.4109 -1.93391 0
M  V30 844 H 85.2927 4.01477 -1.14918 0
M  V30 845 N 85.7298 1.2412 0.971189 0
M  V30 846 C 86.6768 1.0305 2.06517 0
M  V30 847 C 87.6468 -0.0550666 1.66009 0
M  V30 848 O 88.8318 0.0988688 1.90544 0
M  V30 849 C 85.9718 0.637653 3.39158 0
M  V30 850 C 85.0848 1.79633 3.92882 0
M  V30 851 C 84.2198 1.34939 5.13775 0
M  V30 852 C 83.2588 2.47823 5.59687 0
M  V30 853 N 82.3958 2.04022 6.71803 0
M  V30 854 H 87.2358 1.96685 2.23873 0
M  V30 855 H 84.7728 0.979694 1.09729 0
M  V30 856 H 86.7308 0.390931 4.15364 0
M  V30 857 H 85.3608 -0.261693 3.21737 0
M  V30 858 H 84.4128 2.15681 3.13346 0
M  V30 859 H 85.7248 2.64466 4.22918 0
M  V30 860 H 84.8788 1.06134 5.97345 0
M  V30 861 H 83.6178 0.471557 4.85415 0
M  V30 862 H 82.6228 2.77392 4.74693 0
M  V30 863 H 83.8478 3.36158 5.90063 0
M  V30 864 H 81.7938 1.18632 6.45184 0
M  V30 865 H 81.7108 2.82409 7.01271 0
M  V30 866 H 82.9788 1.78347 7.58823 0
M  V30 867 N 87.2079 -1.17134 1.05439 0
M  V30 868 C 88.4379 -1.91094 0.785274 0
M  V30 869 C 88.8459 -1.77198 -0.663142 0
M  V30 870 O 88.1889 -1.10835 -1.46497 0
M  V30 871 C 88.2509 -3.42594 1.08949 0
M  V30 872 C 87.9149 -3.80274 2.53458 0
M  V30 873 C 88.9119 -3.82912 3.51673 0
M  V30 874 C 86.5969 -4.11162 2.88532 0
M  V30 875 C 88.5909 -4.15913 4.83006 0
M  V30 876 C 86.2779 -4.43831 4.20068 0
M  V30 877 C 87.2759 -4.46185 5.17115 0
M  V30 878 O 86.9639 -4.78083 6.46291 0
M  V30 879 H 86.6959 -0.613073 0.284811 0
M  V30 880 H 89.2499 -1.49461 1.40893 0
M  V30 881 H 87.4799 -3.84534 0.408741 0
M  V30 882 H 89.1689 -3.97817 0.805991 0
M  V30 883 H 89.9349 -3.5917 3.25917 0
M  V30 884 H 85.8139 -4.085 2.13656 0
M  V30 885 H 89.3579 -4.17665 5.5875 0
M  V30 886 H 85.2549 -4.67037 4.45586 0
M  V30 887 H 86.0229 -4.9593 6.51149 0
M  V30 888 N 88.686 -0.835752 -1.33615 0
M  V30 889 C 89.911 -0.442389 -2.02627 0
M  V30 890 C 90.336 0.947735 -1.62479 0
M  V30 891 O 89.694 1.61907 -0.815826 0
M  V30 892 C 89.742 -0.567216 -3.56111 0
M  V30 893 O 88.846 0.407799 -4.10379 0
M  V30 894 H 88.187 -0.180278 -0.639059 0
M  V30 895 H 90.717 -1.12972 -1.70583 0
M  V30 896 H 90.727 -0.447708 -4.05536 0
M  V30 897 H 89.402 -1.58103 -3.84677 0
M  V30 898 H 87.979 0.246107 -3.72087 0
M  V30 899 N 90.1641 1.46063 -0.591896 0
M  V30 900 C 91.4121 2.01938 -0.0808391 0
M  V30 901 C 91.7331 1.46475 1.28725 0
M  V30 902 O 91.0031 0.652944 1.84698 0
M  V30 903 H 89.5831 0.746516 -0.0268938 0
M  V30 904 H 92.2451 1.79055 -0.769752 0
M  V30 905 H 91.3411 3.12094 -0.0187578 0
M  V30 906 N 91.6422 0.330177 1.54103 0
M  V30 907 C 92.8672 -0.274893 2.0557 0
M  V30 908 C 93.2922 -1.44487 1.20437 0
M  V30 909 O 92.6502 -1.80021 0.214991 0
M  V30 910 C 92.6982 -0.68079 3.54115 0
M  V30 911 O 91.8022 -1.7824 3.71893 0
M  V30 912 H 91.1432 -0.0483849 0.662235 0
M  V30 913 H 93.6732 0.480508 1.98878 0
M  V30 914 H 93.6832 -0.961635 3.96505 0
M  V30 915 H 92.3582 0.174903 4.15532 0
M  V30 916 H 90.9352 -1.49985 3.41407 0
M  V30 917 N 93.1203 -1.57491 0.0584922 0
M  V30 918 C 94.0523 -2.08916 -0.942694 0
M  V30 919 C 95.0653 -1.0185 -1.27006 0
M  V30 920 O 96.2543 -1.29398 -1.22957 0
M  V30 921 C 93.3543 -2.52341 -2.26224 0
M  V30 922 C 92.5273 -3.82827 -2.1157 0
M  V30 923 C 91.5863 -4.12487 -3.26712 0
M  V30 924 O 90.6123 -4.82295 -3.02292 0
M  V30 925 N 91.8143 -3.64978 -4.5141 0
M  V30 926 H 94.5793 -2.95437 -0.503722 0
M  V30 927 H 92.1403 -1.61397 -0.12757 0
M  V30 928 H 94.1323 -2.69254 -3.02133 0
M  V30 929 H 92.7023 -1.7103 -2.61663 0
M  V30 930 H 91.9223 -3.75425 -1.20208 0
M  V30 931 H 93.2103 -4.68263 -1.99015 0
M  V30 932 H 92.6083 -3.08558 -4.7414 0
M  V30 933 H 91.1653 -3.87115 -5.2439 0
M  V30 934 N 94.5984 0.214957 -1.56127 0
M  V30 935 C 95.5284 1.2695 -1.95974 0
M  V30 936 C 96.5094 1.48539 -0.828868 0
M  V30 937 O 97.6944 1.60611 -1.09168 0
M  V30 938 C 94.8244 2.61794 -2.28214 0
M  V30 939 C 93.7784 2.54851 -3.43853 0
M  V30 940 C 93.1044 3.93785 -3.61715 0
M  V30 941 C 94.4044 2.09065 -4.78632 0
M  V30 942 H 96.0984 0.93846 -2.84312 0
M  V30 943 H 93.6444 0.449996 -1.36788 0
M  V30 944 H 95.5974 3.35731 -2.54682 0
M  V30 945 H 94.3214 2.96599 -1.36736 0
M  V30 946 H 92.9804 1.8337 -3.17444 0
M  V30 947 H 92.6284 4.25908 -2.67602 0
M  V30 948 H 92.3284 3.90019 -4.39498 0
M  V30 949 H 93.8524 4.69374 -3.90539 0
M  V30 950 H 95.2664 2.7275 -5.04262 0
M  V30 951 H 93.6634 2.16346 -5.59745 0
M  V30 952 H 94.7334 1.04315 -4.73547 0
M  V30 953 N 96.0765 1.50051 0.48192 0
M  V30 954 C 97.0065 1.71046 1.58951 0
M  V30 955 C 97.9875 0.559288 1.60642 0
M  V30 956 O 99.1725 0.797243 1.77081 0
M  V30 957 C 96.3025 1.79462 2.97339 0
M  V30 958 C 95.2565 2.94558 3.10515 0
M  V30 959 C 94.5825 2.88105 4.50444 0
M  V30 960 C 95.8825 4.35227 2.88747 0
M  V30 961 H 97.5765 2.6378 1.41635 0
M  V30 962 H 95.1225 1.26936 0.679942 0
M  V30 963 H 97.0755 1.92734 3.74742 0
M  V30 964 H 95.7995 0.833412 3.15788 0
M  V30 965 H 94.4585 2.80918 2.35543 0
M  V30 966 H 94.1065 1.89853 4.65795 0
M  V30 967 H 93.8065 3.65366 4.60197 0
M  V30 968 H 95.3305 3.03412 5.29881 0
M  V30 969 H 96.7445 4.49449 3.55905 0
M  V30 970 H 95.1415 5.13856 3.09955 0
M  V30 971 H 96.2115 4.48347 1.84696 0
M  V30 972 N 97.5546 -0.734337 1.39446 0
M  V30 973 C 98.4866 -1.85861 1.34121 0
M  V30 974 C 99.4996 -1.60871 0.249864 0
M  V30 975 O 100.689 -1.71093 0.508865 0
M  V30 976 C 97.7886 -3.21899 1.05991 0
M  V30 977 C 96.9616 -3.74239 2.26415 0
M  V30 978 C 96.0206 -4.88841 1.94733 0
M  V30 979 O 95.0466 -5.02468 2.67422 0
M  V30 980 N 96.2486 -5.73261 0.913884 0
M  V30 981 H 99.0136 -1.90934 2.31007 0
M  V30 982 H 96.5746 -0.915102 1.33557 0
M  V30 983 H 98.5666 -3.96136 0.828147 0
M  V30 984 H 97.1366 -3.12091 0.178361 0
M  V30 985 H 96.3566 -2.91347 2.65539 0
M  V30 986 H 97.6446 -4.05942 3.06738 0
M  V30 987 H 97.0426 -5.64842 0.311476 0
M  V30 988 H 95.5996 -6.47563 0.742015 0
M  V30 989 N 99.0327 -1.24633 -0.964593 0
M  V30 990 C 99.9797 -1.04144 -2.05968 0
M  V30 991 C 100.95 0.046262 -1.66036 0
M  V30 992 O 102.135 -0.108972 -1.90489 0
M  V30 993 C 99.2747 -0.65563 -3.38815 0
M  V30 994 C 98.3877 -1.81714 -3.91923 0
M  V30 995 C 97.5227 -1.37662 -5.13052 0
M  V30 996 C 96.5617 -2.50788 -5.58365 0
M  V30 997 N 95.6987 -2.07582 -6.70712 0
M  V30 998 H 100.539 -1.9787 -2.22827 0
M  V30 999 H 98.0757 -0.9855 -1.09208 0
M  V30 1000 H 100.034 -0.412954 -4.15151 0
M  V30 1001 H 98.6637 0.244627 -3.21872 0
M  V30 1002 H 97.7157 -2.1734 -3.12198 0
M  V30 1003 H 99.0277 -2.66705 -4.21509 0
M  V30 1004 H 98.1817 -1.093 -5.96773 0
M  V30 1005 H 96.9207 -0.497293 -4.85158 0
M  V30 1006 H 95.9257 -2.79906 -4.73215 0
M  V30 1007 H 97.1507 -3.39283 -5.88272 0
M  V30 1008 H 95.0967 -1.22051 -6.44546 0
M  V30 1009 H 95.0137 -2.86125 -6.99763 0
M  V30 1010 H 96.2817 -1.82369 -7.57867 0
M  V30 1011 N 100.511 1.16574 -1.06058 0
M  V30 1012 C 101.458 2.20883 -0.669263 0
M  V30 1013 C 102.428 1.62729 0.332918 0
M  V30 1014 O 103.613 1.895 0.222346 0
M  V30 1015 C 100.753 3.45049 -0.0593572 0
M  V30 1016 C 99.8658 4.17458 -1.11143 0
M  V30 1017 C 99.0008 5.29135 -0.467916 0
M  V30 1018 C 98.0398 5.93343 -1.50369 0
M  V30 1019 N 97.1768 6.96516 -0.883706 0
M  V30 1020 H 102.017 2.53709 -1.5632 0
M  V30 1021 H 99.5538 1.24616 -0.781625 0
M  V30 1022 H 101.512 4.16033 0.311771 0
M  V30 1023 H 100.142 3.12781 0.797992 0
M  V30 1024 H 99.1938 3.45101 -1.60029 0
M  V30 1025 H 100.506 4.61307 -1.89731 0
M  V30 1026 H 99.6598 6.06684 -0.0436871 0
M  V30 1027 H 98.3988 4.86443 0.349864 0
M  V30 1028 H 97.4038 5.14517 -1.93784 0
M  V30 1029 H 98.6288 6.38114 -2.32352 0
M  V30 1030 H 96.5748 6.55943 -0.086595 0
M  V30 1031 H 96.4918 7.38723 -1.607 0
M  V30 1032 H 97.7598 7.77993 -0.484543 0
M  V30 1033 N 101.989 0.842826 1.3317 0
M  V30 1034 C 103.219 0.453397 2.01564 0
M  V30 1035 C 103.627 -0.951147 1.63554 0
M  V30 1036 O 102.97 -1.63021 0.846746 0
M  V30 1037 C 103.032 0.499013 3.5602 0
M  V30 1038 C 102.696 1.86037 4.1742 0
M  V30 1039 C 103.693 2.82416 4.36506 0
M  V30 1040 C 101.378 2.15428 4.53757 0
M  V30 1041 C 103.372 4.06346 4.91082 0
M  V30 1042 C 101.059 3.39615 5.0804 0
M  V30 1043 C 102.057 4.3489 5.26649 0
M  V30 1044 O 101.745 5.5688 5.79776 0
M  V30 1045 H 101.477 0.177871 0.652179 0
M  V30 1046 H 104.031 1.13808 1.70988 0
M  V30 1047 H 102.261 -0.242467 3.85939 0
M  V30 1048 H 103.95 0.126852 4.05702 0
M  V30 1049 H 104.716 2.6101 4.08777 0
M  V30 1050 H 100.595 1.42061 4.38565 0
M  V30 1051 H 104.139 4.80722 5.05522 0
M  V30 1052 H 100.036 3.60876 5.352 0
M  V30 1053 H 100.804 5.58674 5.98185 0
M  V30 1054 N 103.467 -1.45747 0.599634 0
M  V30 1055 C 104.414 -2.30467 -0.123849 0
M  V30 1056 C 105.384 -1.41632 -0.86774 0
M  V30 1057 O 106.569 -1.70568 -0.855056 0
M  V30 1058 C 103.709 -3.26402 -1.12051 0
M  V30 1059 C 102.822 -4.3034 -0.37832 0
M  V30 1060 C 101.957 -5.13389 -1.364 0
M  V30 1061 C 100.996 -6.09061 -0.609171 0
M  V30 1062 N 100.133 -6.84918 -1.54374 0
M  V30 1063 H 104.973 -2.91802 0.604627 0
M  V30 1064 H 102.51 -1.43797 0.309972 0
M  V30 1065 H 104.468 -3.80482 -1.7114 0
M  V30 1066 H 103.098 -2.66839 -1.8165 0
M  V30 1067 H 102.15 -3.78984 0.327929 0
M  V30 1068 H 103.462 -4.98354 0.210997 0
M  V30 1069 H 102.616 -5.7183 -2.02719 0
M  V30 1070 H 101.355 -4.45376 -1.98725 0
M  V30 1071 H 100.36 -5.49758 0.0676979 0
M  V30 1072 H 101.585 -6.79099 0.00891991 0
M  V30 1073 H 99.531 -6.19601 -2.15478 0
M  V30 1074 H 99.448 -7.49254 -1.00766 0
M  V30 1075 H 100.716 -7.47906 -2.19676 0
M  V30 1076 N 104.945 -0.338344 -1.53925 0
M  V30 1077 C 105.855 0.529421 -2.28548 0
M  V30 1078 C 106.871 1.11645 -1.3346 0
M  V30 1079 O 108.047 1.13325 -1.66492 0
M  V30 1080 C 105.112 1.66713 -3.03987 0
M  V30 1081 C 104.173 1.11041 -4.14691 0
M  V30 1082 C 103.406 2.19389 -4.86522 0
M  V30 1083 O 103.629 3.40013 -4.57982 0
M  V30 1084 O 102.563 1.83976 -5.73094 0
M  V30 1085 H 106.389 -0.0770399 -3.03602 0
M  V30 1086 H 103.974 -0.103555 -1.49041 0
M  V30 1087 H 105.856 2.32918 -3.5118 0
M  V30 1088 H 104.531 2.25949 -2.31794 0
M  V30 1089 H 103.438 0.413024 -3.71813 0
M  V30 1090 H 104.771 0.562975 -4.8897 0
M  V30 1091 N 106.423 1.57458 -0.0668435 0
M  V30 1092 C 107.653 1.97337 0.611677 0
M  V30 1093 C 108.061 0.943744 1.63982 0
M  V30 1094 O 107.404 -0.0785584 1.83532 0
M  V30 1095 C 107.466 3.33511 1.34205 0
M  V30 1096 C 107.13 4.54598 0.467941 0
M  V30 1097 C 108.127 5.19186 -0.272439 0
M  V30 1098 C 105.812 5.0075 0.39427 0
M  V30 1099 C 107.806 6.28274 -1.07476 0
M  V30 1100 C 105.493 6.09711 -0.411729 0
M  V30 1101 C 106.491 6.73335 -1.14492 0
M  V30 1102 O 106.179 7.80199 -1.93763 0
M  V30 1103 H 105.911 0.654042 0.170893 0
M  V30 1104 H 108.465 2.04961 -0.134289 0
M  V30 1105 H 106.695 3.22487 2.13398 0
M  V30 1106 H 108.384 3.58029 1.91233 0
M  V30 1107 H 109.15 4.84477 -0.225086 0
M  V30 1108 H 105.029 4.51009 0.954569 0
M  V30 1109 H 108.573 6.77866 -1.64755 0
M  V30 1110 H 104.47 6.43854 -0.460664 0
M  V30 1111 H 105.238 7.97053 -1.86142 0
M  V30 1112 N 107.901 -0.206675 1.56239 0
M  V30 1113 C 108.811 -1.27686 1.96808 0
M  V30 1114 C 109.827 -1.50455 0.874035 0
M  V30 1115 O 111.003 -1.63295 1.17884 0
M  V30 1116 C 108.068 -2.60358 2.28942 0
M  V30 1117 C 107.129 -2.45762 3.51994 0
M  V30 1118 C 106.362 -3.72108 3.82585 0
M  V30 1119 O 106.585 -4.75776 3.14631 0
M  V30 1120 O 105.519 -3.6833 4.76043 0
M  V30 1121 H 109.345 -0.962593 2.88041 0
M  V30 1122 H 106.93 -0.410746 1.43643 0
M  V30 1123 H 108.812 -3.38687 2.50737 0
M  V30 1124 H 107.487 -2.91435 1.4088 0
M  V30 1125 H 106.394 -1.65584 3.35459 0
M  V30 1126 H 107.727 -2.19621 4.40486 0
M  V30 1127 N 109.379 -1.50304 -0.473955 0
M  V30 1128 C 110.326 -1.68959 -1.57231 0
M  V30 1129 C 111.296 -0.530899 -1.57387 0
M  V30 1130 O 112.481 -0.761133 -1.74961 0
M  V30 1131 C 109.621 -1.7871 -2.95223 0
M  V30 1132 C 108.734 -3.06061 -3.04878 0
M  V30 1133 C 107.869 -3.06626 -4.33767 0
M  V30 1134 C 106.908 -4.28443 -4.37154 0
M  V30 1135 N 106.045 -4.26763 -5.5751 0
M  V30 1136 H 110.885 -2.6273 -1.40631 0
M  V30 1137 H 108.422 -1.30241 -0.683789 0
M  V30 1138 H 110.38 -1.82344 -3.75242 0
M  V30 1139 H 109.01 -0.883806 -3.10465 0
M  V30 1140 H 108.062 -3.11911 -2.17751 0
M  V30 1141 H 109.374 -3.96039 -3.0324 0
M  V30 1142 H 108.528 -3.08973 -5.22131 0
M  V30 1143 H 107.267 -2.14473 -4.3801 0
M  V30 1144 H 106.272 -4.2631 -3.47188 0
M  V30 1145 H 107.497 -5.2182 -4.34605 0
M  V30 1146 H 105.443 -3.37462 -5.62544 0
M  V30 1147 H 105.36 -5.10507 -5.57601 0
M  V30 1148 H 106.628 -4.33253 -6.48006 0
M  V30 1149 N 110.857 0.726932 -1.39834 0
M  V30 1150 C 112.134 1.47902 -1.28001 0
M  V30 1151 C 112.514 2.1083 0.106789 0
M  V30 1152 O 111.862 1.99242 1.11869 0
M  V30 1153 C 112.072 2.52392 -2.41038 0
M  V30 1154 C 113.42 3.18546 -2.80737 0
M  V30 1155 O 114.444 2.62708 -2.40547 0
M  V30 1156 O 113.303 4.19604 -3.50135 0
M  V30 1157 H 110.397 0.657163 -0.502062 0
M  V30 1158 H 112.943 0.760071 -1.51727 0
M  V30 1159 H 111.715 2.04329 -3.33715 0
M  V30 1160 H 111.338 3.31837 -2.19021 0
M  V30 1161 N 112.336 1.25143 0.95797 0
M  V30 1162 C 113.582 1.09855 1.70469 0
M  V30 1163 C 113.915 -0.360187 1.90831 0
M  V30 1164 O 113.19 -1.26568 1.47685 0
M  V30 1165 C 113.473 1.8497 3.08963 0
M  V30 1166 C 113.326 3.38652 2.96032 0
M  V30 1167 C 114.645 1.63016 4.08795 0
M  V30 1168 H 111.764 0.400465 0.618706 0
M  V30 1169 H 114.406 1.53933 1.11376 0
M  V30 1170 H 112.556 1.47505 3.59409 0
M  V30 1171 H 114.228 3.85772 2.52938 0
M  V30 1172 H 112.471 3.66534 2.32025 0
M  V30 1173 H 113.142 3.8642 3.94187 0
M  V30 1174 H 115.618 1.95625 3.67247 0
M  V30 1175 H 114.494 2.18015 5.03747 0
M  V30 1176 H 114.755 0.570692 4.38401 0
M  V30 1177 N 113.814 -1.1601 1.06675 0
M  V30 1178 C 114.777 -2.18724 0.685001 0
M  V30 1179 C 115.777 -1.58496 -0.271246 0
M  V30 1180 O 116.967 -1.74119 -0.0531156 0
M  V30 1181 C 114.099 -3.40899 0.00853648 0
M  V30 1182 H 115.292 -2.54011 1.59431 0
M  V30 1183 H 112.845 -1.30352 0.862441 0
M  V30 1184 H 113.58 -3.11173 -0.913337 0
M  V30 1185 H 113.365 -3.8587 0.696204 0
M  V30 1186 H 114.855 -4.16886 -0.24414 0
M  V30 1187 N 115.292 -0.849877 -1.32721 0
M  V30 1188 C 116.541 -0.447175 -1.96681 0
M  V30 1189 C 116.854 1.00135 -1.68025 0
M  V30 1190 O 118.06 1.50926 -2.25685 0
M  V30 1191 C 116.516 -0.7487 -3.52026 0
M  V30 1192 C 116.124 -2.21264 -3.89546 0
M  V30 1193 C 117.868 -0.413487 -4.22481 0
M  V30 1194 C 115.775 -2.45763 -5.37917 0
M  V30 1195 H 114.705 -0.163486 -0.736063 0
M  V30 1196 H 117.356 -1.03999 -1.51183 0
M  V30 1197 H 115.738 -0.0853727 -3.95908 0
M  V30 1198 H 116.912 -2.91736 -3.56689 0
M  V30 1199 H 115.227 -2.5119 -3.32103 0
M  V30 1200 H 117.824 -0.574017 -5.3161 0
M  V30 1201 H 118.167 0.644492 -4.11281 0
M  V30 1202 H 118.7 -1.03251 -3.84167 0
M  V30 1203 H 115.439 -3.50168 -5.54132 0
M  V30 1204 H 114.959 -1.79864 -5.72197 0
M  V30 1205 H 116.638 -2.29471 -6.0494 0
M  V30 1206 N 116.77 1.45427 -0.607355 0
M  V30 1207 C 117.68 2.34325 0.113463 0
M  V30 1208 C 118.696 1.51226 0.860617 0
M  V30 1209 O 119.872 1.84029 0.818255 0
M  V30 1210 C 116.937 3.28839 1.09844 0
M  V30 1211 C 115.998 4.27844 0.353271 0
M  V30 1212 C 115.231 5.17842 1.29133 0
M  V30 1213 O 115.454 5.11264 2.52913 0
M  V30 1214 O 114.388 5.96713 0.788523 0
M  V30 1215 H 118.214 2.97364 -0.617094 0
M  V30 1216 H 115.799 1.44807 -0.367619 0
M  V30 1217 H 117.681 3.8708 1.66575 0
M  V30 1218 H 116.356 2.68365 1.81003 0
M  V30 1219 H 115.263 3.7322 -0.256494 0
M  V30 1220 H 116.596 4.91173 -0.317822 0
M  V30 1221 N 118.248 0.346503 1.53744 0
M  V30 1222 C 119.158 -0.517293 2.28826 0
M  V30 1223 C 120.174 -1.10935 1.3405 0
M  V30 1224 O 121.35 -1.1244 1.6709 0
M  V30 1225 C 118.415 -1.65098 3.04866 0
M  V30 1226 C 117.476 -1.0884 4.15274 0
M  V30 1227 C 116.709 -2.16806 4.87679 0
M  V30 1228 O 116.932 -3.3758 4.59778 0
M  V30 1229 O 115.866 -1.80934 5.74061 0
M  V30 1230 H 119.692 0.0931396 3.03557 0
M  V30 1231 H 117.277 0.111458 1.48984 0
M  V30 1232 H 119.159 -2.31053 3.5241 0
M  V30 1233 H 117.834 -2.24717 2.32989 0
M  V30 1234 H 116.741 -0.3933 3.72027 0
M  V30 1235 H 118.074 -0.537036 4.89261 0
M  V30 1236 N 119.726 -1.57421 0.075193 0
M  V30 1237 C 120.975 -1.92794 -0.592731 0
M  V30 1238 C 121.288 -0.957478 -1.70563 0
M  V30 1239 O 122.494 -1.20417 -2.43335 0
M  V30 1240 C 120.95 -3.42495 -1.10569 0
M  V30 1241 C 120.558 -4.47994 -0.0236121 0
M  V30 1242 C 122.302 -3.86864 -1.74748 0
M  V30 1243 C 120.209 -5.88829 -0.550803 0
M  V30 1244 H 119.139 -0.719591 -0.225177 0
M  V30 1245 H 121.79 -1.82902 0.147978 0
M  V30 1246 H 120.172 -3.47471 -1.89947 0
M  V30 1247 H 121.346 -4.54637 0.751099 0
M  V30 1248 H 119.661 -4.13113 0.522159 0
M  V30 1249 H 122.258 -4.8947 -2.15229 0
M  V30 1250 H 122.601 -3.24417 -2.60882 0
M  V30 1251 H 123.134 -3.84504 -1.01986 0
M  V30 1252 H 119.873 -6.54929 0.273457 0
M  V30 1253 H 119.393 -5.85698 -1.29296 0
M  V30 1254 H 121.072 -6.38811 -1.02613 0
M  V30 1255 N 121.204 0.198386 -1.56346 0
M  V30 1256 C 122.481 0.944982 -1.71258 0
M  V30 1257 C 122.861 2.0151 -0.629048 0
M  V30 1258 O 122.209 2.25639 0.360473 0
M  V30 1259 C 122.419 1.5344 -3.1346 0
M  V30 1260 C 123.767 2.01778 -3.73591 0
M  V30 1261 O 124.791 1.63288 -3.16568 0
M  V30 1262 O 123.65 2.72594 -4.73661 0
M  V30 1263 H 120.744 0.442939 -0.69838 0
M  V30 1264 H 123.29 0.188342 -1.68652 0
M  V30 1265 H 122.062 0.762869 -3.83792 0
M  V30 1266 H 121.685 2.35596 -3.20282 0
M  V30 1267 N 122.682 1.50554 0.465978 0
M  V30 1268 C 123.93 1.61479 1.21528 0
M  V30 1269 C 124.251 0.319596 1.92363 0
M  V30 1270 O 123.521 -0.663194 1.84333 0
M  V30 1271 H 122.101 0.595055 0.451573 0
M  V30 1272 H 124.763 1.87355 0.53704 0
M  V30 1273 H 123.859 2.42846 1.96042 0
M  V30 1274 N 124.16 -0.719506 1.40217 0
M  V30 1275 C 125.09 -1.8465 1.42922 0
M  V30 1276 C 126.071 -1.67599 0.29062 0
M  V30 1277 O 127.256 -1.87688 0.498677 0
M  V30 1278 C 124.386 -3.22565 1.28722 0
M  V30 1279 C 123.34 -3.54281 2.40144 0
M  V30 1280 C 122.666 -4.91298 2.11023 0
M  V30 1281 C 123.966 -3.55676 3.82481 0
M  V30 1282 H 125.66 -1.82644 2.37237 0
M  V30 1283 H 123.206 -0.877305 1.1419 0
M  V30 1284 H 125.159 -4.01095 1.29232 0
M  V30 1285 H 123.883 -3.25137 0.308811 0
M  V30 1286 H 122.542 -2.78088 2.38877 0
M  V30 1287 H 122.19 -4.90468 1.11582 0
M  V30 1288 H 121.89 -5.13485 2.8567 0
M  V30 1289 H 123.414 -5.72166 2.13209 0
M  V30 1290 H 124.828 -4.24254 3.85592 0
M  V30 1291 H 123.225 -3.89388 4.56614 0
M  V30 1292 H 124.295 -2.55144 4.12346 0
M  V30 1293 N 125.638 -1.25649 -0.95132 0
M  V30 1294 C 126.57 -1.02112 -2.05197 0
M  V30 1295 C 127.583 0.0150571 -1.62793 0
M  V30 1296 O 128.772 -0.223874 -1.77091 0
M  V30 1297 C 125.872 -0.522361 -3.3485 0
M  V30 1298 C 125.045 -1.62546 -4.06076 0
M  V30 1299 C 124.104 -1.12649 -5.14001 0
M  V30 1300 O 123.13 -1.82156 -5.39266 0
M  V30 1301 N 124.332 0.03047 -5.80492 0
M  V30 1302 H 127.097 -1.96885 -2.25957 0
M  V30 1303 H 124.658 -1.16899 -1.1201 0
M  V30 1304 H 126.65 -0.172961 -4.0433 0
M  V30 1305 H 125.22 0.33151 -3.10837 0
M  V30 1306 H 124.44 -2.14628 -3.30649 0
M  V30 1307 H 125.728 -2.36644 -4.50419 0
M  V30 1308 H 125.126 0.611169 -5.62389 0
M  V30 1309 H 123.683 0.320875 -6.5101 0
M  V30 1310 N 127.117 1.15442 -1.07289 0
M  V30 1311 C 128.047 2.22312 -0.714107 0
M  V30 1312 C 129.028 1.67467 0.298155 0
M  V30 1313 O 130.213 1.93445 0.171048 0
M  V30 1314 C 127.343 3.47124 -0.110448 0
M  V30 1315 C 126.297 4.14926 -1.04979 0
M  V30 1316 C 125.623 5.33807 -0.308924 0
M  V30 1317 C 126.923 4.64762 -2.38314 0
M  V30 1318 H 128.617 2.5258 -1.6076 0
M  V30 1319 H 126.163 1.21404 -0.77441 0
M  V30 1320 H 128.116 4.21124 0.152482 0
M  V30 1321 H 126.84 3.16187 0.81812 0
M  V30 1322 H 125.499 3.42866 -1.29764 0
M  V30 1323 H 125.147 4.99126 0.623084 0
M  V30 1324 H 124.847 5.80113 -0.935036 0
M  V30 1325 H 126.371 6.10576 -0.0537771 0
M  V30 1326 H 127.785 5.30292 -2.1786 0
M  V30 1327 H 126.182 5.21728 -2.96514 0
M  V30 1328 H 127.252 3.80434 -3.00663 0
M  V30 1329 N 128.595 0.856903 1.32268 0
M  V30 1330 C 129.841 0.462069 1.97466 0
M  V30 1331 C 130.174 -0.980298 1.67642 0
M  V30 1332 O 129.449 -1.68824 0.965858 0
M  V30 1333 C 129.732 0.704336 3.53145 0
M  V30 1334 C 129.585 2.19529 3.9259 0
M  V30 1335 C 130.904 0.1622 4.39801 0
M  V30 1336 H 128.023 0.169357 0.717278 0
M  V30 1337 H 130.665 1.07574 1.56614 0
M  V30 1338 H 128.815 0.181999 3.88073 0
M  V30 1339 H 130.487 2.78387 3.67829 0
M  V30 1340 H 128.73 2.67292 3.41668 0
M  V30 1341 H 129.401 2.31549 5.01088 0
M  V30 1342 H 131.877 0.608905 4.11621 0
M  V30 1343 H 130.753 0.361265 5.4771 0
M  V30 1344 H 131.014 -0.935158 4.32096 0
M  V30 1345 N 130.073 -1.45103 0.615059 0
M  V30 1346 C 131.02 -2.30586 -0.0993978 0
M  V30 1347 C 131.99 -1.42544 -0.852669 0
M  V30 1348 O 133.175 -1.71465 -0.836917 0
M  V30 1349 C 130.315 -3.27572 -1.08583 0
M  V30 1350 C 129.428 -4.30717 -0.332656 0
M  V30 1351 C 128.563 -5.14807 -1.30947 0
M  V30 1352 C 127.602 -6.09673 -0.544538 0
M  V30 1353 N 126.739 -6.86517 -1.47101 0
M  V30 1354 H 131.579 -2.91144 0.635542 0
M  V30 1355 H 129.116 -1.4346 0.325206 0
M  V30 1356 H 131.074 -3.82276 -1.67095 0
M  V30 1357 H 129.704 -2.68751 -1.78809 0
M  V30 1358 H 128.756 -3.78615 0.368107 0
M  V30 1359 H 130.068 -4.98102 0.263842 0
M  V30 1360 H 129.222 -5.73948 -1.96643 0
M  V30 1361 H 127.961 -4.47458 -1.9399 0
M  V30 1362 H 126.966 -5.49656 0.126003 0
M  V30 1363 H 128.191 -6.79052 0.080947 0
M  V30 1364 H 126.137 -6.21851 -2.08895 0
M  V30 1365 H 126.054 -7.50281 -0.928137 0
M  V30 1366 H 127.322 -7.50194 -2.11731 0
M  V30 1367 N 131.551 -0.354651 -1.53558 0
M  V30 1368 C 132.498 0.496968 -2.25386 0
M  V30 1369 C 133.468 1.0865 -1.25636 0
M  V30 1370 O 134.653 1.12104 -1.54394 0
M  V30 1371 C 131.793 1.63637 -3.03837 0
M  V30 1372 C 130.906 1.07307 -4.18461 0
M  V30 1373 C 130.041 2.18068 -4.84376 0
M  V30 1374 C 129.08 1.59147 -5.91049 0
M  V30 1375 N 128.217 2.63695 -6.50699 0
M  V30 1376 H 133.057 -0.122075 -2.9775 0
M  V30 1377 H 130.594 -0.0720154 -1.46924 0
M  V30 1378 H 132.552 2.30734 -3.47589 0
M  V30 1379 H 131.182 2.22623 -2.33749 0
M  V30 1380 H 130.234 0.292708 -3.79272 0
M  V30 1381 H 131.546 0.602193 -4.95152 0
M  V30 1382 H 130.7 2.93007 -5.31255 0
M  V30 1383 H 129.439 2.68504 -4.07133 0
M  V30 1384 H 128.444 0.827175 -5.43542 0
M  V30 1385 H 129.669 1.09549 -6.70206 0
M  V30 1386 H 127.615 3.13365 -5.76315 0
M  V30 1387 H 127.532 2.21263 -7.22896 0
M  V30 1388 H 128.8 3.3837 -7.02229 0
M  V30 1389 N 133.029 1.57378 -0.0835403 0
M  V30 1390 C 133.959 2.1641 0.87686 0
M  V30 1391 C 134.94 1.09429 1.30228 0
M  V30 1392 O 136.125 1.37516 1.37124 0
M  V30 1393 C 133.255 2.73517 2.14022 0
M  V30 1394 C 132.209 3.85769 1.85381 0
M  V30 1395 C 131.535 4.29529 3.18448 0
M  V30 1396 C 132.835 5.09486 1.14984 0
M  V30 1397 H 134.529 2.96914 0.385059 0
M  V30 1398 H 132.075 1.42823 0.18377 0
M  V30 1399 H 134.028 3.13463 2.81636 0
M  V30 1400 H 132.752 1.90252 2.65465 0
M  V30 1401 H 131.411 3.46345 1.20169 0
M  V30 1402 H 131.059 3.43169 3.67755 0
M  V30 1403 H 130.759 5.05204 3.00071 0
M  V30 1404 H 132.283 4.72099 3.8724 0
M  V30 1405 H 133.697 5.46674 1.72687 0
M  V30 1406 H 132.094 5.90515 1.06826 0
M  V30 1407 H 133.164 4.84724 0.130749 0
M  V30 1408 N 134.507 -0.190092 1.56449 0
M  V30 1409 C 135.47 -1.21925 1.9408 0
M  V30 1410 C 136.47 -1.38176 0.822431 0
M  V30 1411 O 137.66 -1.35903 1.08977 0
M  V30 1412 C 134.792 -2.58773 2.21922 0
M  V30 1413 H 135.985 -0.897464 2.86157 0
M  V30 1414 H 133.538 -0.43181 1.50217 0
M  V30 1415 H 134.273 -2.95998 1.32499 0
M  V30 1416 H 134.058 -2.48348 3.03424 0
M  V30 1417 H 135.548 -3.32978 2.52022 0
M  V30 1418 N 135.985 -1.50799 -0.457987 0
M  V30 1419 C 136.932 -1.70617 -1.5543 0
M  V30 1420 C 137.902 -0.547562 -1.56815 0
M  V30 1421 O 139.087 -0.779647 -1.74144 0
M  V30 1422 C 136.227 -1.81831 -2.93311 0
M  V30 1423 C 135.34 -3.09278 -3.01615 0
M  V30 1424 C 134.475 -3.11209 -4.30491 0
M  V30 1425 C 133.514 -4.33055 -4.32585 0
M  V30 1426 N 132.651 -4.32652 -5.52952 0
M  V30 1427 H 137.491 -2.64207 -1.37836 0
M  V30 1428 H 135.028 -1.30959 -0.669937 0
M  V30 1429 H 136.986 -1.86314 -3.73287 0
M  V30 1430 H 135.616 -0.916685 -3.0951 0
M  V30 1431 H 134.668 -3.14203 -2.1443 0
M  V30 1432 H 135.98 -3.99233 -2.99022 0
M  V30 1433 H 135.134 -3.14494 -5.18824 0
M  V30 1434 H 133.873 -2.19106 -4.35711 0
M  V30 1435 H 132.878 -4.29969 -3.42647 0
M  V30 1436 H 134.103 -5.264 -4.29046 0
M  V30 1437 H 132.049 -3.43409 -5.58933 0
M  V30 1438 H 131.966 -5.16392 -5.52155 0
M  V30 1439 H 133.234 -4.40101 -6.43375 0
M  V30 1440 N 137.463 0.71206 -1.40597 0
M  V30 1441 C 138.411 1.84746 -1.41321 0
M  V30 1442 C 139.405 1.66842 -0.293268 0
M  V30 1443 O 140.611 1.73904 -0.464481 0
M  V30 1444 H 136.986 0.608522 -0.441819 0
M  V30 1445 H 138.957 1.81252 -2.37045 0
M  V30 1446 C 137.706 3.22638 -1.29614 0
M  V30 1447 H 137.029 3.37023 -2.15071 0
M  V30 1448 H 138.469 4.02209 -1.3418 0
M  V30 1449 C 136.928 3.36899 -0.00673121 0
M  V30 1450 O 137.458 3.90186 0.954859 0
M  V30 1451 N 135.664 2.9053 0.0639327 0
M  V30 1452 H 135.211 2.47353 -0.719311 0
M  V30 1453 H 135.169 3.0045 0.926118 0
M  V30 1454 N 138.941 1.26152 0.944643 0
M  V30 1455 C 139.874 1.01729 2.04271 0
M  V30 1456 C 140.852 -0.0568101 1.62501 0
M  V30 1457 O 142.036 0.0848987 1.88309 0
M  V30 1458 C 139.163 0.539792 3.34371 0
M  V30 1459 C 138.209 1.60593 3.9511 0
M  V30 1460 S 139.042 3.19392 4.29825 0
M  V30 1461 C 140.198 2.73402 5.63029 0
M  V30 1462 H 140.431 1.94703 2.24673 0
M  V30 1463 H 137.964 1.09793 1.08558 0
M  V30 1464 H 139.922 0.270956 4.09605 0
M  V30 1465 H 138.583 -0.369609 3.11918 0
M  V30 1466 H 137.776 1.22275 4.88943 0
M  V30 1467 H 137.378 1.82596 3.26397 0
M  V30 1468 H 139.67 2.1765 6.41588 0
M  V30 1469 H 140.613 3.65913 6.06229 0
M  V30 1470 H 141.021 2.13077 5.22741 0
M  V30 1471 N 140.419 -1.14872 1.07899 0
M  V30 1472 C 141.329 -2.2341 0.715915 0
M  V30 1473 C 142.345 -1.71808 -0.275306 0
M  V30 1474 O 143.521 -2.01039 -0.120545 0
M  V30 1475 C 140.586 -3.46474 0.125168 0
M  V30 1476 C 139.647 -4.13039 1.17034 0
M  V30 1477 C 138.88 -5.30229 0.607688 0
M  V30 1478 O 139.103 -5.675 -0.574497 0
M  V30 1479 O 138.037 -5.86444 1.35526 0
M  V30 1480 H 141.863 -2.56808 1.62121 0
M  V30 1481 H 139.448 -1.22702 0.852322 0
M  V30 1482 H 141.33 -4.20917 -0.201729 0
M  V30 1483 H 140.005 -3.14811 -0.753364 0
M  V30 1484 H 138.912 -3.40493 1.54968 0
M  V30 1485 H 140.245 -4.48796 2.02097 0
M  V30 1486 N 141.898 -0.863906 -1.31812 0
M  V30 1487 C 142.808 -0.318461 -2.32428 0
M  V30 1488 C 143.824 0.568496 -1.64451 0
M  V30 1489 O 145 0.46666 -1.95919 0
M  V30 1490 C 142.065 0.476355 -3.43412 0
M  V30 1491 C 141.126 -0.43784 -4.27061 0
M  V30 1492 C 140.359 0.319138 -5.32745 0
M  V30 1493 O 140.582 1.54799 -5.48993 0
M  V30 1494 O 139.516 -0.319861 -6.01049 0
M  V30 1495 H 143.342 -1.15229 -2.80991 0
M  V30 1496 H 140.927 -0.627103 -1.35602 0
M  V30 1497 H 142.809 0.927156 -4.11074 0
M  V30 1498 H 141.484 1.28683 -2.97022 0
M  V30 1499 H 140.391 -0.937013 -3.62175 0
M  V30 1500 H 141.724 -1.21375 -4.77 0
M  V30 1501 N 143.376 1.44774 -0.622745 0
M  V30 1502 C 144.309 2.27792 0.136329 0
M  V30 1503 C 145.287 1.38041 0.859264 0
M  V30 1504 O 146.471 1.67478 0.86506 0
M  V30 1505 C 143.598 3.16776 1.19878 0
M  V30 1506 C 142.644 4.22575 0.57731 0
M  V30 1507 S 143.477 5.31825 -0.626294 0
M  V30 1508 C 144.633 6.24377 0.436378 0
M  V30 1509 H 144.866 2.91824 -0.567967 0
M  V30 1510 H 142.399 1.48838 -0.410677 0
M  V30 1511 H 144.357 3.68596 1.80686 0
M  V30 1512 H 143.018 2.5198 1.87523 0
M  V30 1513 H 142.211 4.84818 1.37721 0
M  V30 1514 H 141.813 3.73974 0.0440439 0
M  V30 1515 H 144.105 6.64689 1.31128 0
M  V30 1516 H 145.048 7.07941 -0.150271 0
M  V30 1517 H 145.456 5.59381 0.758513 0
M  V30 1518 N 144.854 0.36279 1.53368 0
M  V30 1519 C 146.101 -0.227776 2.01215 0
M  V30 1520 C 146.429 -1.49003 1.25014 0
M  V30 1521 O 145.684 -1.92876 0.331236 0
M  V30 1522 C 145.983 -0.568417 3.52851 0
M  V30 1523 C 145.649 0.59918 4.46901 0
M  V30 1524 C 144.311 0.919559 4.72332 0
M  V30 1525 C 146.663 1.38156 5.02556 0
M  V30 1526 C 143.991 2.02434 5.5067 0
M  V30 1527 C 146.343 2.47674 5.821 0
M  V30 1528 C 145.007 2.8025 6.05819 0
M  V30 1529 H 144.277 -0.083349 0.736297 0
M  V30 1530 H 146.924 0.494677 1.85001 0
M  V30 1531 H 145.229 -1.37185 3.66998 0
M  V30 1532 H 146.926 -1.03756 3.87344 0
M  V30 1533 H 143.516 0.339437 4.27254 0
M  V30 1534 H 147.7 1.14729 4.82857 0
M  V30 1535 H 142.956 2.28075 5.67267 0
M  V30 1536 H 147.13 3.08716 6.24234 0
M  V30 1537 H 144.757 3.65979 6.66306 0
M  V30 1538 N 146.332 -1.57332 0.0918853 0
M  V30 1539 C 147.282 -2.10385 -0.87876 0
M  V30 1540 C 148.266 -1.01814 -1.24591 0
M  V30 1541 O 149.458 -1.28093 -1.22152 0
M  V30 1542 C 146.587 -2.68517 -2.13901 0
M  V30 1543 C 145.673 -3.84126 -1.79744 0
M  V30 1544 N 146.064 -4.92288 -1.1613 0
M  V30 1545 C 144.362 -3.93801 -2.09373 0
M  V30 1546 C 145.063 -5.7295 -1.00513 0
M  V30 1547 N 144.039 -5.21876 -1.5214 0
M  V30 1548 H 147.841 -2.91395 -0.38293 0
M  V30 1549 H 145.355 -1.62017 -0.111423 0
M  V30 1550 H 147.352 -3.04852 -2.84378 0
M  V30 1551 H 146.012 -1.88961 -2.64053 0
M  V30 1552 H 147.023 -5.1123 -0.828504 0
M  V30 1553 H 143.7 -3.25249 -2.61762 0
M  V30 1554 H 145.09 -6.69978 -0.507902 0
M  V30 1555 N 147.81 0.181792 -1.56548 0
M  V30 1556 C 148.757 1.22521 -1.95595 0
M  V30 1557 C 149.727 1.4454 -0.818373 0
M  V30 1558 O 150.912 1.57454 -1.07763 0
M  V30 1559 C 148.052 2.56193 -2.31212 0
M  V30 1560 C 147.165 2.41641 -3.58097 0
M  V30 1561 C 146.3 3.68108 -3.82975 0
M  V30 1562 C 145.339 3.48445 -5.03242 0
M  V30 1563 N 144.476 4.66956 -5.24306 0
M  V30 1564 H 149.316 0.885226 -2.84548 0
M  V30 1565 H 146.853 0.425718 -1.40805 0
M  V30 1566 H 148.811 3.34088 -2.49882 0
M  V30 1567 H 147.441 2.88208 -1.45382 0
M  V30 1568 H 146.493 1.54976 -3.474 0
M  V30 1569 H 147.805 2.23052 -4.46149 0
M  V30 1570 H 146.959 4.54441 -4.01956 0
M  V30 1571 H 145.698 3.89666 -2.93278 0
M  V30 1572 H 144.703 2.60499 -4.8417 0
M  V30 1573 H 145.928 3.2832 -5.9446 0
M  V30 1574 H 143.874 4.88752 -4.37559 0
M  V30 1575 H 143.791 4.51242 -6.06561 0
M  V30 1576 H 145.059 5.54602 -5.47756 0
M  V30 1577 N 149.288 1.51039 0.449983 0
M  V30 1578 C 150.235 1.71439 1.54523 0
M  V30 1579 C 151.205 0.555871 1.56522 0
M  V30 1580 O 152.39 0.788871 1.73728 0
M  V30 1581 C 149.53 1.83384 2.92343 0
M  V30 1582 C 148.643 3.10873 2.9997 0
M  V30 1583 C 147.778 3.13488 4.28834 0
M  V30 1584 C 146.817 4.35343 4.30282 0
M  V30 1585 N 145.954 4.35579 5.5065 0
M  V30 1586 H 150.794 2.64934 1.36433 0
M  V30 1587 H 148.331 1.31312 0.662982 0
M  V30 1588 H 150.289 1.88291 3.72293 0
M  V30 1589 H 148.919 0.933086 3.0902 0
M  V30 1590 H 147.971 3.15336 2.12761 0
M  V30 1591 H 149.283 4.00814 2.96901 0
M  V30 1592 H 148.437 3.17241 5.17149 0
M  V30 1593 H 147.176 2.21414 4.34543 0
M  V30 1594 H 146.181 4.3178 3.40362 0
M  V30 1595 H 147.406 5.28668 4.26248 0
M  V30 1596 H 145.352 3.46369 5.57104 0
M  V30 1597 H 145.269 5.19313 5.49409 0
M  V30 1598 H 146.537 4.43507 6.41032 0
M  V30 1599 N 150.766 -0.704594 1.40972 0
M  V30 1600 C 151.991 -1.49858 1.43378 0
M  V30 1601 C 152.416 -1.88061 0.038184 0
M  V30 1602 O 151.774 -1.5402 -0.956425 0
M  V30 1603 C 151.822 -2.74333 2.34038 0
M  V30 1604 O 150.926 -3.7147 1.7912 0
M  V30 1605 H 150.267 -0.45139 0.486974 0
M  V30 1606 H 152.797 -0.866832 1.8533 0
M  V30 1607 H 152.807 -3.22741 2.49604 0
M  V30 1608 H 151.482 -2.45863 3.35446 0
M  V30 1609 H 150.059 -3.30363 1.72958 0
M  V30 1610 N 152.244 -1.26651 -0.937939 0
M  V30 1611 C 153.154 -1.10276 -2.07066 0
M  V30 1612 C 154.17 -0.0354197 -1.73964 0
M  V30 1613 O 155.346 -0.239816 -1.99967 0
M  V30 1614 C 152.411 -0.740887 -3.38691 0
M  V30 1615 C 151.472 -1.88799 -3.85556 0
M  V30 1616 C 150.705 -1.54329 -5.10899 0
M  V30 1617 O 150.928 -0.446494 -5.6865 0
M  V30 1618 O 149.862 -2.37911 -5.52885 0
M  V30 1619 H 153.688 -2.05309 -2.23789 0
M  V30 1620 H 151.273 -1.05743 -1.0554 0
M  V30 1621 H 153.155 -0.55195 -4.1777 0
M  V30 1622 H 151.83 0.180022 -3.23199 0
M  V30 1623 H 150.737 -2.13191 -3.07409 0
M  V30 1624 H 152.07 -2.78874 -4.05574 0
M  V30 1625 N 153.722 1.14298 -1.08507 0
M  V30 1626 C 154.685 2.17607 -0.719711 0
M  V30 1627 C 155.685 1.58907 0.245997 0
M  V30 1628 O 156.875 1.74181 0.0254081 0
M  V30 1629 C 154.007 3.40842 -0.0627695 0
M  V30 1630 H 155.2 2.51443 -1.63452 0
M  V30 1631 H 152.753 1.28963 -0.88307 0
M  V30 1632 H 153.488 3.12587 0.863716 0
M  V30 1633 H 153.273 3.84713 -0.757504 0
M  V30 1634 H 154.763 4.17221 0.177786 0
M  V30 1635 N 155.201 0.870884 1.31352 0
M  V30 1636 C 156.447 0.482987 1.96965 0
M  V30 1637 C 156.78 -0.962462 1.68672 0
M  V30 1638 O 156.055 -1.6779 0.98371 0
M  V30 1639 C 156.338 0.741752 3.52378 0
M  V30 1640 C 156.191 2.2368 3.9024 0
M  V30 1641 C 157.51 0.208838 4.39604 0
M  V30 1642 H 154.629 0.176955 0.715441 0
M  V30 1643 H 157.271 1.09229 1.55464 0
M  V30 1644 H 155.421 0.223149 3.87859 0
M  V30 1645 H 157.093 2.82273 3.64856 0
M  V30 1646 H 155.336 2.70901 3.38814 0
M  V30 1647 H 156.007 2.3685 4.98604 0
M  V30 1648 H 158.483 0.652529 4.10952 0
M  V30 1649 H 157.359 0.419336 5.47296 0
M  V30 1650 H 157.62 -0.889275 4.33064 0
M  V30 1651 N 156.679 -1.44442 0.630414 0
M  V30 1652 C 158.095 -1.56832 0.295973 0
M  V30 1653 C 158.295 -1.61806 -1.20088 0
M  V30 1654 O 157.351 -1.5607 -1.9849 0
M  V30 1655 C 158.664 -2.84031 0.987264 0
M  V30 1656 C 160.212 -2.97742 0.96534 0
M  V30 1657 C 160.687 -4.27743 1.63708 0
M  V30 1658 N 162.178 -4.34555 1.60364 0
M  V30 1659 C 162.913 -5.33862 2.09234 0
M  V30 1660 N 162.409 -6.39578 2.66292 0
M  V30 1661 N 164.202 -5.25366 1.99867 0
M  V30 1662 H 156.353 -1.39457 1.60205 0
M  V30 1663 H 158.616 -0.668237 0.672431 0
M  V30 1664 H 158.322 -2.86338 2.04215 0
M  V30 1665 H 158.196 -3.73534 0.524588 0
M  V30 1666 H 160.583 -2.94989 -0.0810639 0
M  V30 1667 H 160.664 -2.09589 1.4665 0
M  V30 1668 H 160.308 -4.31255 2.68293 0
M  V30 1669 H 160.238 -5.14752 1.11076 0
M  V30 1670 H 162.729 -3.58772 1.18705 0
M  V30 1671 H 163.042 -7.11637 3.01317 0
M  V30 1672 H 161.387 -6.40265 2.70343 0
M  V30 1673 H 164.578 -4.41688 1.55013 0
M  V30 1674 H 164.751 -6.02606 2.38265 0
M  V30 1675 N 158.157 -0.370918 -1.53173 0
M  V30 1676 C 159.573 -0.0200818 -1.59587 0
M  V30 1677 C 159.773 1.46279 -1.38581 0
M  V30 1678 O 158.829 2.22506 -1.19363 0
M  V30 1679 C 160.142 -0.4808 -2.96831 0
M  V30 1680 C 161.69 -0.435477 -3.09956 0
M  V30 1681 C 162.165 -0.872092 -4.4962 0
M  V30 1682 N 163.656 -0.827364 -4.55751 0
M  V30 1683 C 164.391 -1.13683 -5.62018 0
M  V30 1684 N 163.887 -1.51584 -6.76014 0
M  V30 1685 N 165.68 -1.05927 -5.52029 0
M  V30 1686 H 157.831 -1.33652 -1.65079 0
M  V30 1687 H 160.094 -0.546634 -0.774529 0
M  V30 1688 H 159.8 -1.51577 -3.1736 0
M  V30 1689 H 159.674 0.129796 -3.76977 0
M  V30 1690 H 162.061 0.590371 -2.89134 0
M  V30 1691 H 162.142 -1.08164 -2.31806 0
M  V30 1692 H 161.786 -1.89608 -4.71181 0
M  V30 1693 H 161.716 -0.203127 -5.26208 0
M  V30 1694 H 164.207 -0.548216 -3.73902 0
M  V30 1695 H 164.52 -1.73609 -7.53047 0
M  V30 1696 H 162.865 -1.55454 -6.77391 0
M  V30 1697 H 166.056 -0.762321 -4.61851 0
M  V30 1698 H 166.229 -1.30378 -6.34749 0
M  V30 1699 N 159.635 1.57281 -0.100228 0
M  V30 1700 C 160.565 2.17328 0.853857 0
M  V30 1701 C 161.546 1.10804 1.2906 0
M  V30 1702 O 162.731 1.38963 1.35657 0
M  V30 1703 C 159.861 2.75772 2.11109 0
M  V30 1704 C 158.815 3.87713 1.81279 0
M  V30 1705 C 158.141 4.32882 3.13874 0
M  V30 1706 C 159.441 5.10677 1.09574 0
M  V30 1707 H 161.135 2.97305 0.353545 0
M  V30 1708 H 158.681 1.43009 0.168612 0
M  V30 1709 H 160.634 3.16433 2.78296 0
M  V30 1710 H 159.358 1.93057 2.63432 0
M  V30 1711 H 158.017 3.476 1.16489 0
M  V30 1712 H 157.665 3.47051 3.64095 0
M  V30 1713 H 157.365 5.08358 2.94696 0
M  V30 1714 H 158.889 4.7618 3.82211 0
M  V30 1715 H 160.303 5.48474 1.66879 0
M  V30 1716 H 158.7 5.91615 1.00557 0
M  V30 1717 H 159.77 4.84835 0.0793299 0
M  V30 1718 N 161.113 -0.173488 1.56642 0
M  V30 1719 C 162.359 -0.891784 1.8214 0
M  V30 1720 C 162.692 -1.8199 0.677736 0
M  V30 1721 O 161.967 -1.91842 -0.320446 0
M  V30 1722 C 162.25 -1.68933 3.18015 0
M  V30 1723 C 162.103 -0.784487 4.42906 0
M  V30 1724 C 163.422 -2.65748 3.50808 0
M  V30 1725 H 160.541 -0.322761 0.662567 0
M  V30 1726 H 163.183 -0.158095 1.89341 0
M  V30 1727 H 161.333 -2.31482 3.12007 0
M  V30 1728 H 163.005 -0.172046 4.60979 0
M  V30 1729 H 161.248 -0.0924117 4.33702 0
M  V30 1730 H 161.919 -1.37799 5.34524 0
M  V30 1731 H 164.395 -2.13327 3.57255 0
M  V30 1732 H 163.271 -3.18619 4.4696 0
M  V30 1733 H 163.532 -3.45842 2.75401 0
M  V30 1734 N 162.591 -1.51276 -0.441967 0
M  V30 1735 C 163.501 -1.75092 -1.56141 0
M  V30 1736 C 164.517 -0.634963 -1.62001 0
M  V30 1737 O 165.693 -0.916686 -1.79329 0
M  V30 1738 C 162.758 -1.86666 -2.92158 0
M  V30 1739 C 161.819 -3.10506 -2.96453 0
M  V30 1740 C 161.052 -3.21519 -4.25982 0
M  V30 1741 O 161.275 -2.38586 -5.18105 0
M  V30 1742 O 160.209 -4.14465 -4.36466 0
M  V30 1743 H 164.035 -2.70044 -1.38961 0
M  V30 1744 H 161.62 -1.35722 -0.624499 0
M  V30 1745 H 163.502 -1.96292 -3.72891 0
M  V30 1746 H 162.177 -0.949014 -3.09476 0
M  V30 1747 H 161.084 -3.06363 -2.14692 0
M  V30 1748 H 162.417 -4.01945 -2.84079 0
M  V30 1749 N 164.069 0.697108 -1.41344 0
M  V30 1750 C 165.032 1.79281 -1.42797 0
M  V30 1751 C 166.032 1.57607 -0.318837 0
M  V30 1752 O 167.222 1.64309 -0.578642 0
M  V30 1753 C 164.354 3.17632 -1.23785 0
M  V30 1754 H 165.547 1.79385 -2.40335 0
M  V30 1755 H 163.1 0.904582 -1.27464 0
M  V30 1756 H 163.835 3.23167 -0.270814 0
M  V30 1757 H 163.62 3.34765 -2.04144 0
M  V30 1758 H 165.11 3.97617 -1.27633 0
M  V30 1759 N 165.547 1.27147 0.931209 0
M  V30 1760 C 166.51 1.09615 2.01289 0
M  V30 1761 C 167.51 0.0412581 1.60747 0
M  V30 1762 O 168.7 0.285545 1.71844 0
M  V30 1763 C 165.832 0.669447 3.34262 0
M  V30 1764 H 167.025 2.05662 2.18273 0
M  V30 1765 H 164.578 1.09885 1.11153 0
M  V30 1766 H 165.313 -0.292572 3.22978 0
M  V30 1767 H 165.098 1.43127 3.65044 0
M  V30 1768 H 166.588 0.568921 4.13706 0
M  V30 1769 N 167.025 -1.13721 1.09112 0
M  V30 1770 C 167.935 -2.22638 0.73957 0
M  V30 1771 C 168.951 -1.72091 -0.257068 0
M  V30 1772 O 170.127 -2.01155 -0.0992154 0
M  V30 1773 C 167.192 -3.46322 0.16191 0
M  V30 1774 C 166.253 -4.11775 1.21408 0
M  V30 1775 C 165.486 -5.29555 0.663891 0
M  V30 1776 O 165.709 -5.68077 -0.514274 0
M  V30 1777 O 164.643 -5.84973 1.41738 0
M  V30 1778 H 168.469 -2.55074 1.64836 0
M  V30 1779 H 166.054 -1.21791 0.865289 0
M  V30 1780 H 167.936 -4.21107 -0.157073 0
M  V30 1781 H 166.611 -3.15593 -0.719932 0
M  V30 1782 H 165.518 -3.3883 1.58571 0
M  V30 1783 H 166.851 -4.46627 2.06845 0
M  V30 1784 N 168.503 -0.877838 -1.30888 0
M  V30 1785 C 169.413 -0.343096 -2.32078 0
M  V30 1786 C 170.429 0.551022 -1.65045 0
M  V30 1787 O 171.605 0.445854 -1.96403 0
M  V30 1788 C 168.67 0.439905 -3.43898 0
M  V30 1789 C 167.731 -0.483111 -4.26573 0
M  V30 1790 C 166.964 0.262616 -5.33053 0
M  V30 1791 O 167.187 1.48967 -5.50604 0
M  V30 1792 O 166.121 -0.383593 -6.00676 0
M  V30 1793 H 169.947 -1.18203 -2.79753 0
M  V30 1794 H 167.532 -0.64145 -1.34929 0
M  V30 1795 H 169.414 0.883504 -4.12034 0
M  V30 1796 H 168.089 1.25526 -2.98371 0
M  V30 1797 H 166.996 -0.975374 -3.61161 0
M  V30 1798 H 168.329 -1.26427 -4.75686 0
M  V30 1799 N 169.982 1.44106 -0.638065 0
M  V30 1800 C 170.945 2.29138 0.0531013 0
M  V30 1801 C 171.945 1.41409 0.765506 0
M  V30 1802 O 173.135 1.63206 0.609046 0
M  V30 1803 C 170.267 3.23144 1.08584 0
M  V30 1804 H 171.46 2.91739 -0.694883 0
M  V30 1805 H 169.013 1.51134 -0.398538 0
M  V30 1806 H 169.748 2.65408 1.86357 0
M  V30 1807 H 169.533 3.87804 0.578852 0
M  V30 1808 H 171.023 3.87004 1.56899 0
M  V30 1809 N 171.46 0.379036 1.52974 0
M  V30 1810 C 172.41 -0.477772 2.22938 0
M  V30 1811 C 173.394 -1.03792 1.22948 0
M  V30 1812 O 174.586 -0.965725 1.48333 0
M  V30 1813 C 171.715 -1.60994 3.03209 0
M  V30 1814 C 170.801 -1.06203 4.10587 0
M  V30 1815 N 171.192 -0.238214 5.05239 0
M  V30 1816 C 169.49 -1.33554 4.25534 0
M  V30 1817 C 170.191 0.0633235 5.81666 0
M  V30 1818 N 169.167 -0.537901 5.40932 0
M  V30 1819 H 172.969 0.158295 2.93473 0
M  V30 1820 H 170.483 0.187778 1.61311 0
M  V30 1821 H 172.48 -2.23607 3.5186 0
M  V30 1822 H 171.14 -2.24893 2.34207 0
M  V30 1823 H 172.151 0.123695 5.17752 0
M  V30 1824 H 168.828 -1.97632 3.6776 0
M  V30 1825 H 170.218 0.730161 6.67921 0
M  V30 1826 N 172.938 -1.57226 0.108567 0
M  V30 1827 C 173.868 -2.17778 -0.84232 0
M  V30 1828 C 174.849 -1.11487 -1.2847 0
M  V30 1829 O 176.034 -1.39681 -1.34918 0
M  V30 1830 C 173.164 -2.76888 -2.09644 0
M  V30 1831 C 172.118 -3.88669 -1.79221 0
M  V30 1832 C 171.444 -4.34541 -3.11574 0
M  V30 1833 C 172.744 -5.11251 -1.06864 0
M  V30 1834 H 174.438 -2.97489 -0.337774 0
M  V30 1835 H 171.984 -1.43097 -0.161025 0
M  V30 1836 H 173.937 -3.17904 -2.76614 0
M  V30 1837 H 172.661 -1.94451 -2.62405 0
M  V30 1838 H 171.32 -3.48213 -1.14644 0
M  V30 1839 H 170.968 -3.48977 -3.62249 0
M  V30 1840 H 170.668 -5.09914 -2.91996 0
M  V30 1841 H 172.192 -4.782 -3.7968 0
M  V30 1842 H 173.606 -5.49352 -1.63968 0
M  V30 1843 H 172.003 -5.9214 -0.974178 0
M  V30 1844 H 173.073 -4.8487 -0.0536168 0
M  V30 1845 N 174.416 0.165178 -1.56732 0
M  V30 1846 C 175.363 1.2044 -1.96883 0
M  V30 1847 C 176.333 1.43664 -0.833657 0
M  V30 1848 O 177.518 1.56302 -1.09427 0
M  V30 1849 C 174.658 2.53727 -2.33916 0
M  V30 1850 C 173.771 2.3783 -3.6064 0
M  V30 1851 C 172.906 3.64026 -3.86857 0
M  V30 1852 C 171.945 3.43088 -5.06909 0
M  V30 1853 N 171.082 4.61369 -5.29229 0
M  V30 1854 H 175.922 0.854996 -2.85471 0
M  V30 1855 H 173.459 0.41076 -1.41249 0
M  V30 1856 H 175.417 3.31419 -2.53411 0
M  V30 1857 H 174.047 2.8665 -1.48431 0
M  V30 1858 H 173.099 1.51282 -3.49024 0
M  V30 1859 H 174.411 2.18308 -4.4849 0
M  V30 1860 H 173.565 4.50152 -4.06753 0
M  V30 1861 H 172.304 3.86533 -2.97394 0
M  V30 1862 H 171.309 2.55349 -4.86906 0
M  V30 1863 H 172.534 3.21997 -5.97909 0
M  V30 1864 H 170.48 4.84084 -4.42718 0
M  V30 1865 H 170.397 4.44783 -6.11313 0
M  V30 1866 H 171.665 5.48761 -5.53608 0
M  V30 1867 N 175.894 1.51508 0.433938 0
M  V30 1868 C 176.844 1.69451 1.52546 0
M  V30 1869 C 177.828 0.548474 1.51263 0
M  V30 1870 O 179.02 0.804529 1.57659 0
M  V30 1871 C 176.149 1.82604 2.90707 0
M  V30 1872 C 175.235 3.03002 2.96733 0
M  V30 1873 N 175.626 4.26121 2.72496 0
M  V30 1874 C 173.924 3.02327 3.27894 0
M  V30 1875 C 174.625 5.07407 2.84452 0
M  V30 1876 N 173.601 4.42126 3.16269 0
M  V30 1877 H 177.403 2.62305 1.32564 0
M  V30 1878 H 174.917 1.49202 0.641297 0
M  V30 1879 H 176.914 1.93569 3.69238 0
M  V30 1880 H 175.574 0.909339 3.11707 0
M  V30 1881 H 176.585 4.55009 2.4736 0
M  V30 1882 H 173.262 2.20301 3.54646 0
M  V30 1883 H 174.652 6.15422 2.69639 0
M  V30 1884 N 177.372 -0.689602 1.41712 0
M  V30 1885 C 178.282 -1.83314 1.46401 0
M  V30 1886 C 179.298 -1.7036 0.35405 0
M  V30 1887 O 180.474 -1.92171 0.602692 0
M  V30 1888 C 177.539 -3.19344 1.34982 0
M  V30 1889 C 176.6 -3.44363 2.56344 0
M  V30 1890 C 175.833 -4.73904 2.45461 0
M  V30 1891 O 176.056 -5.508 1.48241 0
M  V30 1892 O 174.99 -4.99839 3.35328 0
M  V30 1893 H 178.816 -1.82314 2.42889 0
M  V30 1894 H 176.401 -0.843438 1.23315 0
M  V30 1895 H 178.283 -4.00547 1.3092 0
M  V30 1896 H 176.958 -3.21014 0.41612 0
M  V30 1897 H 175.865 -2.63067 2.65982 0
M  V30 1898 H 177.198 -3.47512 3.48563 0
M  V30 1899 N 178.85 -1.27639 -0.924453 0
M  V30 1900 C 180.097 -1.14167 -1.67249 0
M  V30 1901 C 180.425 0.311863 -1.91984 0
M  V30 1902 O 179.68 1.24425 -1.51053 0
M  V30 1903 C 179.979 -1.87407 -3.04325 0
M  V30 1904 C 179.645 -3.37249 -2.99289 0
M  V30 1905 C 178.307 -3.7812 -2.97622 0
M  V30 1906 C 180.659 -4.32845 -2.90336 0
M  V30 1907 C 177.987 -5.12944 -2.8479 0
M  V30 1908 C 180.339 -5.6773 -2.79045 0
M  V30 1909 C 179.003 -6.07889 -2.7573 0
M  V30 1910 H 178.273 -0.417766 -0.612007 0
M  V30 1911 H 180.92 -1.58286 -1.07786 0
M  V30 1912 H 179.225 -1.35805 -3.67511 0
M  V30 1913 H 180.922 -1.74408 -3.61086 0
M  V30 1914 H 177.512 -3.04748 -3.01374 0
M  V30 1915 H 181.696 -4.02239 -2.90719 0
M  V30 1916 H 176.952 -5.432 -2.80612 0
M  V30 1917 H 181.126 -6.41472 -2.71083 0
M  V30 1918 H 178.753 -7.12314 -2.65544 0
M  V30 1919 N 180.328 1.1314 -1.09713 0
M  V30 1920 C 181.605 1.80762 -0.747302 0
M  V30 1921 C 181.985 1.96663 0.767265 0
M  V30 1922 O 181.333 1.53706 1.69076 0
M  V30 1923 C 181.543 3.15606 -1.48975 0
M  V30 1924 C 182.891 3.90914 -1.65746 0
M  V30 1925 O 183.915 3.25239 -1.45251 0
M  V30 1926 O 182.774 5.08718 -1.9967 0
M  V30 1927 H 179.868 0.782103 -0.268782 0
M  V30 1928 H 182.414 1.20041 -1.19951 0
M  V30 1929 H 181.186 2.99278 -2.52088 0
M  V30 1930 H 180.809 3.84029 -1.02991 0
M  V30 1931 N 181.806 0.884767 1.30421 0
M  V30 1932 C 182.769 0.356277 2.26414 0
M  V30 1933 C 183.769 -0.501124 1.52792 0
M  V30 1934 O 184.959 -0.30831 1.7145 0
M  V30 1935 C 182.091 -0.492316 3.37326 0
M  V30 1936 H 183.284 1.20389 2.74675 0
M  V30 1937 H 180.837 0.661607 1.41607 0
M  V30 1938 H 181.572 -1.36052 2.94381 0
M  V30 1939 H 181.357 0.121832 3.91911 0
M  V30 1940 H 182.847 -0.853871 4.08777 0
M  V30 1941 N 183.284 -1.43765 0.645699 0
M  V30 1942 C 184.561 -1.9541 0.0862963 0
M  V30 1943 C 184.941 -1.58725 -1.39175 0
M  V30 1944 O 184.289 -0.868581 -2.11348 0
M  V30 1945 C 184.499 -3.47488 0.324565 0
M  V30 1946 C 185.847 -4.24001 0.225497 0
M  V30 1947 O 186.871 -3.55274 0.256715 0
M  V30 1948 O 185.73 -5.46313 0.142801 0
M  V30 1949 H 182.824 -0.826882 -0.0139483 0
M  V30 1950 H 185.37 -1.53743 0.718415 0
M  V30 1951 H 184.142 -3.67289 1.3496 0
M  V30 1952 H 183.765 -3.96135 -0.340987 0
M  V30 1953 N 184.763 -0.387143 -1.52771 0
M  V30 1954 C 185.693 0.440551 -2.29306 0
M  V30 1955 C 186.674 1.06535 -1.32606 0
M  V30 1956 O 187.859 1.07853 -1.61497 0
M  V30 1957 C 184.989 1.56919 -3.09829 0
M  V30 1958 C 183.943 1.07054 -4.14395 0
M  V30 1959 C 183.269 2.29109 -4.83129 0
M  V30 1960 C 184.569 0.140015 -5.22112 0
M  V30 1961 H 186.263 -0.198026 -2.98744 0
M  V30 1962 H 183.809 -0.09668 -1.43675 0
M  V30 1963 H 185.762 2.15503 -3.62128 0
M  V30 1964 H 184.486 2.23532 -2.3812 0
M  V30 1965 H 183.145 0.507247 -3.63074 0
M  V30 1966 H 182.793 2.94227 -4.0797 0
M  V30 1967 H 182.493 1.96406 -5.53804 0
M  V30 1968 H 184.017 2.88339 -5.38231 0
M  V30 1969 H 185.431 0.633978 -5.69784 0
M  V30 1970 H 183.828 -0.0971485 -6.00021 0
M  V30 1971 H 184.898 -0.811711 -4.78058 0
M  V30 1972 N 186.241 1.57166 -0.116904 0
M  V30 1973 C 187.173 2.12271 0.864507 0
M  V30 1974 C 188.186 1.06494 1.23138 0
M  V30 1975 O 189.375 1.33873 1.18069 0
M  V30 1976 C 186.475 2.60564 2.16702 0
M  V30 1977 C 185.648 3.90416 1.97216 0
M  V30 1978 C 184.707 4.24329 3.11178 0
M  V30 1979 O 183.733 4.93182 2.84184 0
M  V30 1980 N 184.935 3.8148 4.37554 0
M  V30 1981 H 187.7 2.97102 0.393726 0
M  V30 1982 H 185.261 1.61759 0.0675805 0
M  V30 1983 H 187.253 2.80282 2.91932 0
M  V30 1984 H 185.823 1.80623 2.55135 0
M  V30 1985 H 185.043 3.79627 1.06192 0
M  V30 1986 H 186.331 4.75327 1.81499 0
M  V30 1987 H 185.729 3.25943 4.62361 0
M  V30 1988 H 184.286 4.06311 5.09661 0
M  V30 1989 N 187.719 -0.156864 1.56817 0
M  V30 1990 C 188.949 -0.885031 1.86684 0
M  V30 1991 C 189.357 -1.75696 0.701954 0
M  V30 1992 O 188.7 -1.80569 -0.337732 0
M  V30 1993 C 188.762 -1.80092 3.11138 0
M  V30 1994 C 188.426 -1.10714 4.43386 0
M  V30 1995 C 189.423 -0.465714 5.1781 0
M  V30 1996 C 187.108 -1.09959 4.90117 0
M  V30 1997 C 189.102 0.174002 6.37162 0
M  V30 1998 C 186.789 -0.456055 6.09396 0
M  V30 1999 C 187.787 0.179622 6.82764 0
M  V30 2000 O 187.475 0.812975 7.99779 0
M  V30 2001 H 187.207 -0.261813 0.623242 0
M  V30 2002 H 189.761 -0.157383 2.04796 0
M  V30 2003 H 187.991 -2.56926 2.89009 0
M  V30 2004 H 189.68 -2.40018 3.27332 0
M  V30 2005 H 190.446 -0.463427 4.82781 0
M  V30 2006 H 186.325 -1.58378 4.3294 0
M  V30 2007 H 189.869 0.670765 6.94368 0
M  V30 2008 H 185.766 -0.455975 6.43888 0
M  V30 2009 H 186.534 0.71366 8.15383 0
M  V30 2010 N 189.197 -1.51736 -0.425897 0
M  V30 2011 C 190.107 -1.76738 -1.54275 0
M  V30 2012 C 191.123 -0.65211 -1.61318 0
M  V30 2013 O 192.299 -0.935654 -1.78346 0
M  V30 2014 C 189.364 -1.89755 -2.90162 0
M  V30 2015 C 188.425 -3.13633 -2.93143 0
M  V30 2016 C 187.658 -3.2602 -4.22548 0
M  V30 2017 O 187.881 -2.44067 -5.15546 0
M  V30 2018 O 186.815 -4.19071 -4.32046 0
M  V30 2019 H 190.641 -2.71502 -1.36089 0
M  V30 2020 H 188.226 -1.36376 -0.610069 0
M  V30 2021 H 190.108 -2.00236 -3.70788 0
M  V30 2022 H 188.783 -0.981785 -3.08452 0
M  V30 2023 H 187.69 -3.08622 -2.11431 0
M  V30 2024 H 189.023 -4.04936 -2.798 0
M  V30 2025 N 190.675 0.682077 -1.42076 0
M  V30 2026 C 191.905 1.46844 -1.45329 0
M  V30 2027 C 192.313 1.89102 -0.0609328 0
M  V30 2028 O 191.656 1.58238 0.933082 0
M  V30 2029 C 191.718 2.75375 -2.31104 0
M  V30 2030 C 191.382 2.55238 -3.79081 0
M  V30 2031 C 192.379 2.20309 -4.70914 0
M  V30 2032 C 190.064 2.70459 -4.2327 0
M  V30 2033 C 192.058 2.00859 -6.04925 0
M  V30 2034 C 189.745 2.50624 -5.57343 0
M  V30 2035 C 190.743 2.15876 -6.47986 0
M  V30 2036 O 190.431 1.96227 -7.79583 0
M  V30 2037 H 190.163 0.4586 -0.496651 0
M  V30 2038 H 192.717 0.846131 -1.87162 0
M  V30 2039 H 190.947 3.40061 -1.84107 0
M  V30 2040 H 192.636 3.37231 -2.25898 0
M  V30 2041 H 193.402 2.08153 -4.38061 0
M  V30 2042 H 189.281 2.96485 -3.53012 0
M  V30 2043 H 192.825 1.7366 -6.75639 0
M  V30 2044 H 188.722 2.62375 -5.89771 0
M  V30 2045 H 189.49 2.10883 -7.90867 0
M  V30 2046 N 192.153 1.28127 0.917671 0
M  V30 2047 C 193.4 1.15052 1.66641 0
M  V30 2048 C 193.728 -0.301677 1.92146 0
M  V30 2049 O 192.983 -1.23622 1.51711 0
M  V30 2050 C 193.282 1.89018 3.03327 0
M  V30 2051 C 192.948 3.38832 2.97496 0
M  V30 2052 C 191.61 3.79693 2.95613 0
M  V30 2053 C 193.962 4.34378 2.88036 0
M  V30 2054 C 191.29 5.14447 2.82066 0
M  V30 2055 C 193.642 5.69201 2.7603 0
M  V30 2056 C 192.306 6.09343 2.72502 0
M  V30 2057 H 191.576 0.421006 0.609783 0
M  V30 2058 H 194.223 1.58855 1.06945 0
M  V30 2059 H 192.528 1.37752 3.66785 0
M  V30 2060 H 194.225 1.76321 3.60156 0
M  V30 2061 H 190.815 3.06342 2.99754 0
M  V30 2062 H 194.999 4.03775 2.88581 0
M  V30 2063 H 190.255 5.44681 2.77728 0
M  V30 2064 H 194.429 6.42901 2.67678 0
M  V30 2065 H 192.056 7.13712 2.61762 0
M  V30 2066 N 193.631 -1.12557 1.10312 0
M  V30 2067 C 194.579 -2.20325 0.745629 0
M  V30 2068 C 195.573 -1.67429 -0.25763 0
M  V30 2069 O 196.779 -1.79612 -0.118132 0
M  V30 2070 H 193.154 -0.718118 0.223182 0
M  V30 2071 H 195.125 -2.47733 1.66346 0
M  V30 2072 C 193.874 -3.47168 0.192262 0
M  V30 2073 H 193.197 -3.88215 0.955475 0
M  V30 2074 H 194.637 -4.23995 -0.0198274 0
M  V30 2075 C 193.096 -3.19298 -1.07472 0
M  V30 2076 O 193.626 -3.3891 -2.15645 0
M  V30 2077 N 191.832 -2.73113 -0.992847 0
M  V30 2078 H 191.379 -2.57354 -0.112474 0
M  V30 2079 H 191.337 -2.54842 -1.84127 0
M  V30 2080 N 195.109 -0.891671 -1.2995 0
M  V30 2081 C 196.072 -0.36828 -2.26222 0
M  V30 2082 C 197.072 0.493014 -1.53056 0
M  V30 2083 O 198.262 0.299213 -1.71611 0
M  V30 2084 C 195.394 0.47442 -3.37583 0
M  V30 2085 H 196.587 -1.21844 -2.74033 0
M  V30 2086 H 194.14 -0.669107 -1.41254 0
M  V30 2087 H 194.875 1.34489 -2.95099 0
M  V30 2088 H 194.66 -0.142615 -3.91841 0
M  V30 2089 H 196.15 0.83218 -4.09224 0
M  V30 2090 N 196.587 1.43421 -0.653314 0
M  V30 2091 C 197.833 2.02111 -0.166992 0
M  V30 2092 C 198.166 1.51423 1.21592 0
M  V30 2093 O 197.441 0.707389 1.8118 0
M  V30 2094 C 197.724 3.5966 -0.177948 0
M  V30 2095 C 197.577 4.20579 -1.59478 0
M  V30 2096 C 198.896 4.37413 0.4856 0
M  V30 2097 H 196.015 0.734374 -0.0621557 0
M  V30 2098 H 198.657 1.70717 -0.834016 0
M  V30 2099 H 196.807 3.86537 0.390032 0
M  V30 2100 H 198.479 4.04732 -2.21336 0
M  V30 2101 H 196.722 3.77226 -2.14204 0
M  V30 2102 H 197.393 5.29665 -1.5543 0
M  V30 2103 H 199.869 4.161 0.00234528 0
M  V30 2104 H 198.745 5.47075 0.447207 0
M  V30 2105 H 199.006 4.13672 1.55974 0
M  V30 2106 N 198.065 0.39524 1.52563 0
M  V30 2107 C 198.995 -0.428384 2.29537 0
M  V30 2108 C 199.976 -1.05831 1.33169 0
M  V30 2109 O 201.161 -1.06995 1.62067 0
M  V30 2110 C 198.291 -1.55274 3.10656 0
M  V30 2111 C 197.245 -1.04855 4.14957 0
M  V30 2112 C 196.571 -2.26543 4.84337 0
M  V30 2113 C 197.871 -0.112324 5.22179 0
M  V30 2114 H 199.565 0.213867 2.98635 0
M  V30 2115 H 197.111 0.104298 1.43622 0
M  V30 2116 H 199.064 -2.1358 3.63265 0
M  V30 2117 H 197.788 -2.22266 2.39302 0
M  V30 2118 H 196.447 -0.487985 3.63338 0
M  V30 2119 H 196.095 -2.92059 4.09525 0
M  V30 2120 H 195.795 -1.93466 5.54837 0
M  V30 2121 H 197.319 -2.85481 5.39753 0
M  V30 2122 H 198.733 -0.603752 5.70112 0
M  V30 2123 H 197.13 0.128968 5.99961 0
M  V30 2124 H 198.2 0.837052 4.77621 0
M  V30 2125 N 199.544 -1.57102 0.125237 0
M  V30 2126 C 200.793 -1.94582 -0.531095 0
M  V30 2127 C 201.106 -1.01126 -1.6743 0
M  V30 2128 O 202.312 -1.28097 -2.39381 0
M  V30 2129 C 200.768 -3.45839 -0.996164 0
M  V30 2130 C 200.376 -4.47842 0.118926 0
M  V30 2131 C 202.12 -3.92227 -1.62352 0
M  V30 2132 C 200.027 -5.90284 -0.363192 0
M  V30 2133 H 198.957 -0.726391 -0.20217 0
M  V30 2134 H 201.608 -1.82339 0.206092 0
M  V30 2135 H 199.99 -3.53338 -1.78796 0
M  V30 2136 H 201.164 -4.52018 0.895358 0
M  V30 2137 H 199.479 -4.11243 0.653324 0
M  V30 2138 H 202.076 -4.96069 -1.99548 0
M  V30 2139 H 202.419 -3.32552 -2.50429 0
M  V30 2140 H 202.952 -3.87554 -0.897019 0
M  V30 2141 H 199.691 -6.53728 0.481679 0
M  V30 2142 H 199.211 -5.89515 -1.10597 0
M  V30 2143 H 200.89 -6.41752 -0.822377 0
M  V30 2144 N 201.022 0.148545 -1.56898 0
M  V30 2145 C 201.97 1.20265 -1.99096 0
M  V30 2146 C 202.964 1.44559 -0.883123 0
M  V30 2147 O 204.17 1.4487 -1.0683 0
M  V30 2148 H 200.545 0.404786 -0.63376 0
M  V30 2149 H 202.516 0.82004 -2.86911 0
M  V30 2150 C 201.265 2.52886 -2.3863 0
M  V30 2151 H 200.588 2.35021 -3.23427 0
M  V30 2152 H 202.028 3.25274 -2.7198 0
M  V30 2153 C 200.487 3.13315 -1.23837 0
M  V30 2154 O 201.017 3.98077 -0.538268 0
M  V30 2155 N 199.223 2.72742 -1.00301 0
M  V30 2156 H 198.77 2.03912 -1.5741 0
M  V30 2157 H 198.728 3.13507 -0.236838 0
M  V30 2158 N 202.5 1.5196 0.417844 0
M  V30 2159 C 203.41 1.77554 1.53336 0
M  V30 2160 C 204.426 0.660655 1.6097 0
M  V30 2161 O 205.602 0.945099 1.77848 0
M  V30 2162 C 202.667 1.91291 2.89152 0
M  V30 2163 C 201.728 3.15183 2.91475 0
M  V30 2164 C 200.961 3.28256 4.20813 0
M  V30 2165 O 201.184 2.46798 5.14244 0
M  V30 2166 O 200.118 4.21356 4.29817 0
M  V30 2167 H 203.944 2.7222 1.34647 0
M  V30 2168 H 201.529 1.36698 0.602828 0
M  V30 2169 H 203.411 2.02199 3.69721 0
M  V30 2170 H 202.086 0.998129 3.07927 0
M  V30 2171 H 200.993 3.09739 2.09791 0
M  V30 2172 H 202.326 4.06414 2.77648 0
M  V30 2173 N 203.978 -0.674533 1.42435 0
M  V30 2174 C 205.394 -0.98769 1.25367 0
M  V30 2175 C 205.594 -2.00879 0.158044 0
M  V30 2176 O 204.65 -2.48075 -0.470633 0
M  V30 2177 C 205.963 -1.49224 2.6106 0
M  V30 2178 C 207.511 -1.61 2.68417 0
M  V30 2179 C 207.986 -2.14852 4.04478 0
M  V30 2180 N 209.477 -2.22185 4.06434 0
M  V30 2181 C 210.212 -2.64928 5.08528 0
M  V30 2182 N 209.708 -3.07121 6.21006 0
M  V30 2183 N 211.501 -2.64679 4.95885 0
M  V30 2184 H 203.652 0.00152503 2.124 0
M  V30 2185 H 205.915 -0.0618434 0.945981 0
M  V30 2186 H 205.621 -0.816453 3.42092 0
M  V30 2187 H 205.495 -2.47094 2.84999 0
M  V30 2188 H 207.882 -2.27686 1.87732 0
M  V30 2189 H 207.963 -0.616195 2.48267 0
M  V30 2190 H 207.607 -1.48775 4.85622 0
M  V30 2191 H 207.537 -3.15024 4.2198 0
M  V30 2192 H 210.028 -1.92435 3.25234 0
M  V30 2193 H 210.341 -3.38423 6.94759 0
M  V30 2194 H 208.686 -3.04978 6.24511 0
M  V30 2195 H 211.877 -2.31078 4.07088 0
M  V30 2196 H 212.05 -2.9767 5.75584 0
M  V30 2197 N 205.456 -1.28612 -0.910864 0
M  V30 2198 C 206.733 -1.06632 -1.63979 0
M  V30 2199 C 207.113 0.393351 -2.07403 0
M  V30 2200 O 206.461 1.37999 -1.82122 0
M  V30 2201 C 206.671 -2.0436 -2.8291 0
M  V30 2202 C 208.019 -2.34666 -3.5386 0
M  V30 2203 O 209.043 -2.02467 -2.93062 0
M  V30 2204 O 207.902 -2.89631 -4.63439 0
M  V30 2205 H 204.996 -0.407737 -0.7195 0
M  V30 2206 H 207.542 -1.39942 -0.959914 0
M  V30 2207 H 206.314 -3.02727 -2.47936 0
M  V30 2208 H 205.937 -1.71714 -3.58609 0
M  V30 2209 N 206.934 1.1197 -1.10907 0
M  V30 2210 C 207.881 2.17846 -0.762345 0
M  V30 2211 C 208.851 1.63995 0.263599 0
M  V30 2212 O 210.036 1.90273 0.141773 0
M  V30 2213 C 207.176 3.44487 -0.205651 0
M  V30 2214 C 206.289 4.12369 -1.28748 0
M  V30 2215 C 205.424 5.26674 -0.691919 0
M  V30 2216 C 204.463 5.86431 -1.75399 0
M  V30 2217 N 203.6 6.92142 -1.17833 0
M  V30 2218 H 208.44 2.46851 -1.6694 0
M  V30 2219 H 205.977 1.21188 -0.833776 0
M  V30 2220 H 207.935 4.16981 0.135037 0
M  V30 2221 H 206.565 3.15884 0.664613 0
M  V30 2222 H 205.617 3.38003 -1.74522 0
M  V30 2223 H 206.929 4.52844 -2.09125 0
M  V30 2224 H 206.083 6.05953 -0.300963 0
M  V30 2225 H 204.822 4.8749 0.143232 0
M  V30 2226 H 203.827 5.05835 -2.15432 0
M  V30 2227 H 205.052 6.27685 -2.59208 0
M  V30 2228 H 202.998 6.54985 -0.364725 0
M  V30 2229 H 202.915 7.31242 -1.91887 0
M  V30 2230 H 204.183 7.75237 -0.81408 0
M  V30 2231 N 208.412 0.89855 1.29475 0
M  V30 2232 C 209.689 0.443416 1.90508 0
M  V30 2233 C 210.069 -1.07685 1.81569 0
M  V30 2234 O 209.417 -1.9182 1.24166 0
M  V30 2235 C 209.627 0.956708 3.35631 0
M  V30 2236 C 210.975 0.999728 4.12663 0
M  V30 2237 O 211.999 0.904299 3.4453 0
M  V30 2238 O 210.858 1.14289 5.34416 0
M  V30 2239 H 207.952 0.138025 0.815401 0
M  V30 2240 H 210.498 0.98834 1.37949 0
M  V30 2241 H 209.27 2.00067 3.36287 0
M  V30 2242 H 208.893 0.391728 3.95666 0
M  V30 2243 N 209.89 -1.43072 0.660911 0
M  V30 2244 C 211.138 -2.01323 0.177094 0
M  V30 2245 C 211.459 -1.5245 -1.2159 0
M  V30 2246 O 210.729 -0.740322 -1.81373 0
M  V30 2247 H 209.309 -0.744382 0.0624804 0
M  V30 2248 H 211.971 -1.75179 0.854305 0
M  V30 2249 H 211.067 -3.11649 0.167641 0
M  V30 2250 N 211.368 -0.403325 -1.52352 0
M  V30 2251 C 212.316 0.439752 -2.28405 0
M  V30 2252 C 213.31 1.05089 -1.32863 0
M  V30 2253 O 214.516 0.989759 -1.50345 0
M  V30 2254 H 210.891 0.160587 -0.734653 0
M  V30 2255 H 212.862 -0.222983 -2.97566 0
M  V30 2256 C 211.611 1.54736 -3.11371 0
M  V30 2257 H 210.934 1.08643 -3.84755 0
M  V30 2258 H 212.374 2.1112 -3.67701 0
M  V30 2259 C 210.833 2.51141 -2.24566 0
M  V30 2260 O 211.363 3.54887 -1.88196 0
M  V30 2261 N 209.569 2.21213 -1.8845 0
M  V30 2262 H 209.116 1.36878 -2.18225 0
M  V30 2263 H 209.074 2.85963 -1.30662 0
M  V30 2264 N 212.846 1.57033 -0.133567 0
M  V30 2265 C 214.093 1.95686 0.520877 0
M  V30 2266 C 214.421 1.0177 1.6575 0
M  V30 2267 O 213.676 0.0443195 1.9565 0
M  V30 2268 C 213.975 3.40674 1.08057 0
M  V30 2269 C 213.641 4.50855 0.0637899 0
M  V30 2270 C 212.303 4.80716 -0.215757 0
M  V30 2271 C 214.655 5.17398 -0.62835 0
M  V30 2272 C 211.983 5.74433 -1.19348 0
M  V30 2273 C 214.335 6.12167 -1.5948 0
M  V30 2274 C 212.999 6.40414 -1.88218 0
M  V30 2275 H 212.269 0.716067 0.190602 0
M  V30 2276 H 214.916 1.9026 -0.217556 0
M  V30 2277 H 213.221 3.42865 1.89606 0
M  V30 2278 H 214.918 3.67902 1.59529 0
M  V30 2279 H 211.508 4.27605 0.291855 0
M  V30 2280 H 215.692 4.94472 -0.425562 0
M  V30 2281 H 210.948 5.94616 -1.42272 0
M  V30 2282 H 215.122 6.6281 -2.13671 0
M  V30 2283 H 212.749 7.12838 -2.64133 0
M  V30 2284 N 214.325 -0.140222 1.56975 0
M  V30 2285 C 215.255 -1.17456 2.01808 0
M  V30 2286 C 216.236 -1.44415 0.898794 0
M  V30 2287 O 217.421 -1.5522 1.16707 0
M  V30 2288 C 214.551 -2.50607 2.40444 0
M  V30 2289 C 213.505 -2.38155 3.55621 0
M  V30 2290 C 212.831 -3.76078 3.80091 0
M  V30 2291 C 214.131 -1.85991 4.88062 0
M  V30 2292 H 215.825 -0.801743 2.88466 0
M  V30 2293 H 213.371 -0.38422 1.38779 0
M  V30 2294 H 215.324 -3.23197 2.7041 0
M  V30 2295 H 214.048 -2.89737 1.50732 0
M  V30 2296 H 212.707 -1.68016 3.25832 0
M  V30 2297 H 212.355 -4.12656 2.87618 0
M  V30 2298 H 212.055 -3.68606 4.57606 0
M  V30 2299 H 213.579 -4.50206 4.12488 0
M  V30 2300 H 214.993 -2.4838 5.16701 0
M  V30 2301 H 213.39 -1.89393 5.6943 0
M  V30 2302 H 214.46 -0.816023 4.77984 0
M  V30 2303 N 215.803 -1.52179 -0.40978 0
M  V30 2304 C 216.713 -1.78364 -1.52392 0
M  V30 2305 C 217.729 -0.669183 -1.60617 0
M  V30 2306 O 218.905 -0.954518 -1.77344 0
M  V30 2307 C 215.97 -1.92822 -2.88133 0
M  V30 2308 C 215.031 -3.16725 -2.898 0
M  V30 2309 C 214.264 -3.30483 -4.19067 0
M  V30 2310 O 214.487 -2.49522 -5.12928 0
M  V30 2311 O 213.421 -4.2363 -4.27576 0
M  V30 2312 H 217.247 -2.72931 -1.33201 0
M  V30 2313 H 214.832 -1.37016 -0.59557 0
M  V30 2314 H 216.714 -2.04157 -3.68643 0
M  V30 2315 H 215.389 -1.01444 -3.07393 0
M  V30 2316 H 214.296 -3.10848 -2.08146 0
M  V30 2317 H 215.629 -4.07881 -2.75489 0
M  V30 2318 N 217.281 0.66697 -1.42791 0
M  V30 2319 C 218.211 1.79218 -1.49677 0
M  V30 2320 C 219.192 1.66405 -0.352623 0
M  V30 2321 O 220.377 1.85708 -0.567993 0
M  V30 2322 C 217.507 3.17565 -1.40605 0
M  V30 2323 C 216.461 3.45124 -2.53127 0
M  V30 2324 C 215.787 4.83127 -2.29112 0
M  V30 2325 C 217.087 3.41236 -3.95418 0
M  V30 2326 H 218.781 1.73713 -2.43853 0
M  V30 2327 H 216.327 0.83432 -1.17367 0
M  V30 2328 H 218.28 3.96022 -1.44029 0
M  V30 2329 H 217.004 3.23767 -0.429271 0
M  V30 2330 H 215.663 2.69031 -2.49034 0
M  V30 2331 H 215.311 4.85988 -1.29709 0
M  V30 2332 H 215.011 5.02528 -3.04531 0
M  V30 2333 H 216.535 5.63859 -2.34297 0
M  V30 2334 H 217.949 4.09651 -4.01073 0
M  V30 2335 H 216.346 3.72173 -4.70752 0
M  V30 2336 H 217.416 2.39665 -4.21532 0
M  V30 2337 N 218.759 1.29093 0.90403 0
M  V30 2338 C 220.007 1.16583 1.65085 0
M  V30 2339 C 220.328 -0.283933 1.92922 0
M  V30 2340 O 219.598 -1.19509 1.55224 0
M  V30 2341 H 218.178 0.428467 0.611903 0
M  V30 2342 H 220.84 1.61959 1.08422 0
M  V30 2343 H 219.936 1.71266 2.6091 0
M  V30 2344 N 220.237 -1.11381 1.11499 0
M  V30 2345 C 221.184 -2.17439 0.773887 0
M  V30 2346 C 222.154 -1.64132 -0.254899 0
M  V30 2347 O 223.339 -1.90345 -0.13168 0
M  V30 2348 C 220.479 -3.44373 0.223917 0
M  V30 2349 C 219.592 -4.1168 1.30934 0
M  V30 2350 C 218.727 -5.263 0.71984 0
M  V30 2351 C 217.766 -5.85493 1.78507 0
M  V30 2352 N 216.903 -6.91507 1.21502 0
M  V30 2353 H 221.743 -2.45962 1.68246 0
M  V30 2354 H 219.28 -1.20744 0.840191 0
M  V30 2355 H 221.238 -4.17047 -0.112921 0
M  V30 2356 H 219.868 -3.16232 -0.647851 0
M  V30 2357 H 218.92 -3.37073 1.76312 0
M  V30 2358 H 220.232 -4.51729 2.11524 0
M  V30 2359 H 219.386 -6.05785 0.333094 0
M  V30 2360 H 218.125 -4.87559 -0.117377 0
M  V30 2361 H 217.13 -5.04686 2.18111 0
M  V30 2362 H 218.355 -6.26301 2.62533 0
M  V30 2363 H 216.301 -6.54783 0.399455 0
M  V30 2364 H 216.218 -7.30214 1.95763 0
M  V30 2365 H 217.486 -7.74795 0.855181 0
M  V30 2366 N 221.715 -0.905404 -1.28997 0
M  V30 2367 C 222.625 -0.392246 -2.31298 0
M  V30 2368 C 223.641 0.515889 -1.66176 0
M  V30 2369 O 224.817 0.404093 -1.97304 0
M  V30 2370 C 221.882 0.36686 -3.44754 0
M  V30 2371 C 220.943 -0.573485 -4.25452 0
M  V30 2372 C 220.176 0.149488 -5.33491 0
M  V30 2373 O 220.399 1.37255 -5.5364 0
M  V30 2374 O 219.333 -0.510919 -5.99728 0
M  V30 2375 H 223.159 -1.2411 -2.77183 0
M  V30 2376 H 220.744 -0.669926 -1.33538 0
M  V30 2377 H 222.626 0.795907 -4.13816 0
M  V30 2378 H 221.301 1.19169 -3.00966 0
M  V30 2379 H 220.208 -1.05176 -3.59011 0
M  V30 2380 H 221.541 -1.36489 -4.72897 0
M  V30 2381 N 223.193 1.4272 -0.668489 0
M  V30 2382 C 224.44 2.01624 -0.18814 0
M  V30 2383 C 224.768 1.5282 1.20317 0
M  V30 2384 O 224.023 0.718323 1.8204 0
M  V30 2385 C 224.322 3.57021 -0.164499 0
M  V30 2386 C 223.988 4.25232 -1.49962 0
M  V30 2387 C 222.65 4.4358 -1.8652 0
M  V30 2388 C 225.002 4.63727 -2.37921 0
M  V30 2389 C 222.33 4.97694 -3.10674 0
M  V30 2390 C 224.682 5.19218 -3.6138 0
M  V30 2391 C 223.346 5.3578 -3.98115 0
M  V30 2392 H 222.616 0.737795 -0.0688454 0
M  V30 2393 H 225.263 1.70991 -0.862225 0
M  V30 2394 H 223.568 3.87285 0.593079 0
M  V30 2395 H 225.265 4.00372 0.224271 0
M  V30 2396 H 221.855 4.11306 -1.20522 0
M  V30 2397 H 226.039 4.4923 -2.10964 0
M  V30 2398 H 221.295 5.08702 -3.39164 0
M  V30 2399 H 225.469 5.4799 -4.29743 0
M  V30 2400 H 223.096 5.77475 -4.94395 0
M  V30 2401 N 224.671 0.411399 1.52136 0
M  V30 2402 C 225.92 -0.165009 2.01024 0
M  V30 2403 C 226.233 -1.4603 1.30133 0
M  V30 2404 O 227.439 -2.1181 1.69849 0
M  V30 2405 C 225.895 -0.344618 3.58246 0
M  V30 2406 C 225.503 0.938716 4.38055 0
M  V30 2407 C 227.247 -0.876195 4.15359 0
M  V30 2408 C 225.154 0.726172 5.86925 0
M  V30 2409 H 224.084 -0.0654407 0.751155 0
M  V30 2410 H 226.735 0.537192 1.75461 0
M  V30 2411 H 225.117 -1.10921 3.80148 0
M  V30 2412 H 226.291 1.70963 4.27912 0
M  V30 2413 H 224.606 1.39688 3.92271 0
M  V30 2414 H 227.203 -1.05128 5.24263 0
M  V30 2415 H 227.546 -1.85152 3.7286 0
M  V30 2416 H 228.079 -0.170607 3.97434 0
M  V30 2417 H 224.818 1.67312 6.33788 0
M  V30 2418 H 224.338 -0.00540283 5.998 0
M  V30 2419 H 226.017 0.369231 6.45946 0
M  V30 2420 N 226.149 -1.5696 0.141893 0
M  V30 2421 C 227.079 -2.19516 -0.795936 0
M  V30 2422 C 228.06 -1.14187 -1.26077 0
M  V30 2423 O 229.245 -1.42511 -1.31925 0
M  V30 2424 C 226.375 -2.81272 -2.03723 0
M  V30 2425 C 225.329 -3.92384 -1.70936 0
M  V30 2426 C 224.655 -4.41052 -3.02287 0
M  V30 2427 C 225.955 -5.13403 -0.959954 0
M  V30 2428 H 227.649 -2.98138 -0.274596 0
M  V30 2429 H 225.195 -1.43406 -0.130636 0
M  V30 2430 H 227.148 -3.237 -2.69808 0
M  V30 2431 H 225.872 -1.99973 -2.58221 0
M  V30 2432 H 224.531 -3.50566 -1.07232 0
M  V30 2433 H 224.179 -3.56582 -3.54765 0
M  V30 2434 H 223.879 -5.15993 -2.81114 0
M  V30 2435 H 225.403 -4.86146 -3.69451 0
M  V30 2436 H 226.817 -5.52706 -1.52279 0
M  V30 2437 H 225.214 -5.94073 -0.848357 0
M  V30 2438 H 226.284 -4.84875 0.0492434 0
M  V30 2439 N 227.627 0.131896 -1.57047 0
M  V30 2440 C 228.59 1.14638 -1.98471 0
M  V30 2441 C 229.59 1.35029 -0.873148 0
M  V30 2442 O 230.78 1.31764 -1.13946 0
M  V30 2443 C 227.912 2.50358 -2.31373 0
M  V30 2444 H 229.105 0.79064 -2.8929 0
M  V30 2445 H 226.658 0.375761 -1.51716 0
M  V30 2446 H 227.393 2.90876 -1.43393 0
M  V30 2447 H 227.178 2.36915 -3.12432 0
M  V30 2448 H 228.668 3.23395 -2.64207 0
M  V30 2449 N 229.106 1.52395 0.401703 0
M  V30 2450 C 230.517 1.58899 0.980202 0
M  V30 2451 C 230.868 0.434032 1.91339 0
M  V30 2452 O 229.993 -0.444619 2.11783 0
M  V30 2453 C 230.588 2.87994 1.78451 0
M  V30 2454 C 229.147 2.96953 2.31292 0
M  V30 2455 C 228.294 2.53903 1.11483 0
M  V30 2456 H 231.245 1.57657 0.18168 0
M  V30 2457 H 231.266 2.73765 2.64259 0
M  V30 2458 H 230.778 3.72035 1.10506 0
M  V30 2459 H 228.879 2.17422 3.02586 0
M  V30 2460 H 228.992 4.01344 2.61649 0
M  V30 2461 H 227.356 2.07925 1.47104 0
M  V30 2462 H 228.139 3.40326 0.450928 0
M  V30 2463 N 230.584 -0.659388 1.43143 0
M  V30 2464 C 231.532 -1.79374 1.4808 0
M  V30 2465 C 232.526 -1.65639 0.354988 0
M  V30 2466 O 233.732 -1.7206 0.528704 0
M  V30 2467 H 230.107 -0.591705 0.4641 0
M  V30 2468 H 232.078 -1.72329 2.43609 0
M  V30 2469 C 230.827 -3.17606 1.41499 0
M  V30 2470 H 230.15 -3.28809 2.27431 0
M  V30 2471 H 231.59 -3.96951 1.49015 0
M  V30 2472 C 230.049 -3.36642 0.131765 0
M  V30 2473 O 230.579 -3.93461 -0.809386 0
M  V30 2474 N 228.785 -2.90567 0.0439396 0
M  V30 2475 H 228.332 -2.44513 0.810619 0
M  V30 2476 H 228.29 -3.03681 -0.813969 0
M  V30 2477 N 232.062 -1.29571 -0.897171 0
M  V30 2478 C 233.339 -1.08365 -1.62839 0
M  V30 2479 C 233.719 0.371331 -2.07808 0
M  V30 2480 O 233.067 1.3606 -1.83576 0
M  V30 2481 C 233.277 -2.0735 -2.80726 0
M  V30 2482 C 234.625 -2.38406 -3.51351 0
M  V30 2483 O 235.649 -2.05564 -2.90898 0
M  V30 2484 O 234.508 -2.9453 -4.60341 0
M  V30 2485 H 231.602 -0.415345 -0.715134 0
M  V30 2486 H 234.148 -1.40952 -0.945018 0
M  V30 2487 H 232.92 -3.05339 -2.44711 0
M  V30 2488 H 232.543 -1.75507 -3.56767 0
M  V30 2489 N 233.54 1.10788 -1.12088 0
M  V30 2490 C 234.49 2.15158 -0.754401 0
M  V30 2491 C 235.474 1.59026 0.244846 0
M  V30 2492 O 236.666 1.76927 0.0509097 0
M  V30 2493 C 233.795 3.42677 -0.206657 0
M  V30 2494 C 232.881 4.05751 -1.23398 0
M  V30 2495 N 233.272 4.43582 -2.43041 0
M  V30 2496 C 231.57 4.32764 -1.07848 0
M  V30 2497 C 232.271 4.93085 -3.08613 0
M  V30 2498 N 231.247 4.89664 -2.36072 0
M  V30 2499 H 235.049 2.42195 -1.6649 0
M  V30 2500 H 232.563 1.27872 -1.00112 0
M  V30 2501 H 234.56 4.16834 0.0740646 0
M  V30 2502 H 233.22 3.17101 0.698342 0
M  V30 2503 H 234.231 4.35395 -2.80449 0
M  V30 2504 H 230.908 4.16863 -0.230483 0
M  V30 2505 H 232.298 5.31933 -4.10483 0
M  V30 2506 N 235.018 0.912232 1.28515 0
M  V30 2507 C 236.265 0.544599 1.95039 0
M  V30 2508 C 236.593 -0.911435 1.71823 0
M  V30 2509 O 235.848 -1.66317 1.03137 0
M  V30 2510 C 236.147 0.798392 3.48368 0
M  V30 2511 C 235.813 2.23374 3.91682 0
M  V30 2512 C 234.475 2.62617 4.03219 0
M  V30 2513 C 236.827 3.16786 4.13879 0
M  V30 2514 C 234.155 3.94429 4.3433 0
M  V30 2515 C 236.507 4.48161 4.46469 0
M  V30 2516 C 235.171 4.8726 4.56217 0
M  V30 2517 H 234.441 0.199283 0.7137 0
M  V30 2518 H 237.088 1.15327 1.52879 0
M  V30 2519 H 235.393 0.106908 3.91654 0
M  V30 2520 H 237.09 0.493141 3.97956 0
M  V30 2521 H 233.68 1.91922 3.83228 0
M  V30 2522 H 237.864 2.87677 4.0442 0
M  V30 2523 H 233.12 4.24426 4.40082 0
M  V30 2524 H 237.294 5.20559 4.62592 0
M  V30 2525 H 234.921 5.89431 4.80078 0
M  V30 2526 N 236.496 -1.42363 0.676048 0
M  V30 2527 C 237.444 -2.32596 -0.0131507 0
M  V30 2528 C 238.438 -1.49891 -0.789238 0
M  V30 2529 O 239.644 -1.65955 -0.697061 0
M  V30 2530 H 236.019 -0.751647 -0.0230481 0
M  V30 2531 H 237.99 -2.88421 0.765243 0
M  V30 2532 C 236.739 -3.34479 -0.949702 0
M  V30 2533 H 236.062 -3.98158 -0.361938 0
M  V30 2534 H 237.502 -4.00199 -1.4006 0
M  V30 2535 C 235.961 -2.66838 -2.05667 0
M  V30 2536 O 236.491 -2.50124 -3.14326 0
M  V30 2537 N 234.697 -2.25843 -1.82875 0
M  V30 2538 H 234.244 -2.39637 -0.945085 0
M  V30 2539 H 234.202 -1.80918 -2.5713 0
M  V30 2540 N 237.974 -0.419461 -1.51915 0
M  V30 2541 C 238.922 0.415502 -2.28859 0
M  V30 2542 C 239.916 1.03674 -1.3397 0
M  V30 2543 O 241.122 0.973757 -1.51387 0
M  V30 2544 H 237.497 0.152786 -0.736315 0
M  V30 2545 H 239.468 -0.254531 -2.97312 0
M  V30 2546 C 238.217 1.51425 -3.12995 0
M  V30 2547 H 237.54 1.04556 -3.85886 0
M  V30 2548 H 238.98 2.07208 -3.6992 0
M  V30 2549 C 237.439 2.48745 -2.27217 0
M  V30 2550 O 237.969 3.52871 -1.9195 0
M  V30 2551 N 236.175 2.19202 -1.90785 0
M  V30 2552 H 235.722 1.34556 -2.19664 0
M  V30 2553 H 235.68 2.84561 -1.33687 0
M  V30 2554 N 239.452 1.56882 -0.150215 0
M  V30 2555 C 240.382 2.19935 0.784284 0
M  V30 2556 C 241.363 1.14854 1.25469 0
M  V30 2557 O 242.548 1.43209 1.31168 0
M  V30 2558 C 239.678 2.82349 2.02229 0
M  V30 2559 C 238.632 3.93285 1.68853 0
M  V30 2560 C 237.958 4.42649 2.99944 0
M  V30 2561 C 239.258 5.13904 0.932714 0
M  V30 2562 H 240.952 2.9828 0.258781 0
M  V30 2563 H 238.498 1.43473 0.123029 0
M  V30 2564 H 240.451 3.25126 2.68088 0
M  V30 2565 H 239.175 2.0134 2.57157 0
M  V30 2566 H 237.834 3.5113 1.05371 0
M  V30 2567 H 237.482 3.58458 3.52869 0
M  V30 2568 H 237.182 5.17476 2.78374 0
M  V30 2569 H 238.706 4.88099 3.66868 0
M  V30 2570 H 240.12 5.53506 1.49345 0
M  V30 2571 H 238.517 5.94515 0.81684 0
M  V30 2572 H 239.587 4.84842 -0.0749568 0
M  V30 2573 N 240.93 -0.123565 1.57115 0
M  V30 2574 C 242.341 -0.681198 1.73829 0
M  V30 2575 C 242.692 -1.80535 0.768214 0
M  V30 2576 O 241.817 -2.16317 -0.0599103 0
M  V30 2577 C 242.412 -1.24246 3.15196 0
M  V30 2578 C 240.971 -1.74643 3.33432 0
M  V30 2579 C 240.118 -0.644284 2.69711 0
M  V30 2580 H 243.069 0.102315 1.5837 0
M  V30 2581 H 243.09 -2.11216 3.16493 0
M  V30 2582 H 242.602 -0.424062 3.85776 0
M  V30 2583 H 240.703 -2.58974 2.67886 0
M  V30 2584 H 240.816 -1.85902 4.41562 0
M  V30 2585 H 239.18 -1.07676 2.3082 0
M  V30 2586 H 239.963 0.163058 3.42913 0
M  V30 2587 N 242.408 -1.52605 -0.393616 0
M  V30 2588 C 243.654 -1.67672 -1.14079 0
M  V30 2589 C 243.987 -0.413121 -1.89755 0
M  V30 2590 O 243.262 0.588952 -1.85369 0
M  V30 2591 C 243.545 -2.9088 -2.12276 0
M  V30 2592 C 243.398 -4.27329 -1.40394 0
M  V30 2593 C 244.717 -3.09628 -3.12759 0
M  V30 2594 H 241.836 -0.610168 -0.413356 0
M  V30 2595 H 244.478 -1.85193 -0.424696 0
M  V30 2596 H 242.628 -2.76073 -2.73342 0
M  V30 2597 H 244.3 -4.53894 -0.82327 0
M  V30 2598 H 242.543 -4.2802 -0.705801 0
M  V30 2599 H 243.214 -5.09615 -2.12123 0
M  V30 2600 H 245.69 -3.23436 -2.61779 0
M  V30 2601 H 244.566 -3.97322 -3.78717 0
M  V30 2602 H 244.827 -2.23637 -3.81365 0
M  V30 2603 N 243.887 0.651787 -1.4349 0
M  V30 2604 C 244.835 1.78586 -1.49029 0
M  V30 2605 C 245.829 1.65448 -0.363767 0
M  V30 2606 O 247.035 1.71777 -0.537821 0
M  V30 2607 H 243.41 0.589236 -0.467231 0
M  V30 2608 H 245.381 1.71035 -2.44519 0
M  V30 2609 C 244.13 3.16851 -1.43181 0
M  V30 2610 H 243.453 3.27598 -2.29171 0
M  V30 2611 H 244.893 3.96156 -1.51118 0
M  V30 2612 C 243.352 3.36568 -0.149616 0
M  V30 2613 O 243.882 3.93885 0.788509 0
M  V30 2614 N 242.088 2.90539 -0.0593484 0
M  V30 2615 H 241.635 2.4408 -0.823575 0
M  V30 2616 H 241.593 3.04108 0.797853 0
M  V30 2617 N 245.365 1.30045 0.890287 0
M  V30 2618 C 246.614 1.17929 1.63633 0
M  V30 2619 C 246.927 -0.266204 1.9378 0
M  V30 2620 O 248.133 -0.508804 2.6669 0
M  V30 2621 C 246.589 2.06317 2.94892 0
M  V30 2622 C 246.197 3.55745 2.72305 0
M  V30 2623 C 247.941 2.0295 3.72843 0
M  V30 2624 C 245.848 4.36205 3.99348 0
M  V30 2625 H 244.778 0.437782 0.613892 0
M  V30 2626 H 247.429 1.54754 0.986075 0
M  V30 2627 H 245.811 1.6237 3.61182 0
M  V30 2628 H 246.985 4.07805 2.1455 0
M  V30 2629 H 245.3 3.6088 2.07737 0
M  V30 2630 H 247.897 2.60319 4.67053 0
M  V30 2631 H 248.24 1.0117 4.0382 0
M  V30 2632 H 248.773 2.4499 3.13408 0
M  V30 2633 H 245.512 5.38659 3.73533 0
M  V30 2634 H 245.032 3.8891 4.56628 0
M  V30 2635 H 246.711 4.47362 4.67415 0
M  V30 2636 N 246.843 -1.10192 1.12674 0
M  V30 2637 C 248.068 -1.86523 0.906853 0
M  V30 2638 C 248.493 -1.80221 -0.538711 0
M  V30 2639 O 247.851 -1.17396 -1.38158 0
M  V30 2640 C 247.899 -3.32758 1.3894 0
M  V30 2641 O 247.003 -4.08449 0.5695 0
M  V30 2642 H 246.344 -0.578678 0.325619 0
M  V30 2643 H 248.874 -1.39203 1.49946 0
M  V30 2644 H 248.884 -3.83608 1.38958 0
M  V30 2645 H 247.559 -3.36661 2.44197 0
M  V30 2646 H 246.136 -3.67427 0.636528 0
M  V30 2647 N 248.321 -0.919034 -1.28029 0
M  V30 2648 C 249.251 -0.428581 -2.29533 0
M  V30 2649 C 250.232 0.50659 -1.62381 0
M  V30 2650 O 251.417 0.413195 -1.89753 0
M  V30 2651 C 248.547 0.327388 -3.45753 0
M  V30 2652 C 247.501 -0.519137 -4.2484 0
M  V30 2653 C 246.827 0.365486 -5.33449 0
M  V30 2654 C 248.127 -1.77914 -4.91064 0
M  V30 2655 H 249.821 -1.27687 -2.70807 0
M  V30 2656 H 247.367 -0.615428 -1.30186 0
M  V30 2657 H 249.32 0.681378 -4.15855 0
M  V30 2658 H 248.044 1.20963 -3.03374 0
M  V30 2659 H 246.703 -0.855717 -3.56473 0
M  V30 2660 H 246.351 1.24642 -4.87312 0
M  V30 2661 H 246.051 -0.197356 -5.87268 0
M  V30 2662 H 247.575 0.715241 -6.06396 0
M  V30 2663 H 248.989 -1.49374 -5.53498 0
M  V30 2664 H 247.386 -2.2848 -5.54903 0
M  V30 2665 H 248.456 -2.50382 -4.15255 0
M  V30 2666 N 249.799 1.42003 -0.683588 0
M  V30 2667 C 251.024 2.06265 -0.216647 0
M  V30 2668 C 251.449 1.51059 1.12083 0
M  V30 2669 O 250.807 0.632638 1.69904 0
M  V30 2670 C 250.855 3.60191 -0.171759 0
M  V30 2671 O 249.959 4.03396 0.857069 0
M  V30 2672 H 249.3 0.65502 -0.108834 0
M  V30 2673 H 251.83 1.81982 -0.935077 0
M  V30 2674 H 251.84 4.08 0.0014303 0
M  V30 2675 H 250.515 3.99743 -1.14796 0
M  V30 2676 H 249.092 3.67117 0.654208 0
M  V30 2677 N 251.277 0.427512 1.51691 0
M  V30 2678 C 252.554 -0.201684 1.94557 0
M  V30 2679 C 252.934 -1.60981 1.36559 0
M  V30 2680 O 252.282 -2.21814 0.548702 0
M  V30 2681 C 252.492 -0.189394 3.48486 0
M  V30 2682 C 253.84 -0.39978 4.22714 0
M  V30 2683 O 254.864 -0.267945 3.55191 0
M  V30 2684 O 253.723 -0.661249 5.42485 0
M  V30 2685 H 250.817 -0.135261 0.815864 0
M  V30 2686 H 253.363 0.484782 1.62628 0
M  V30 2687 H 252.135 0.795431 3.8313 0
M  V30 2688 H 251.758 -0.919187 3.86829 0
M  V30 2689 N 252.755 -1.56801 0.158532 0
M  V30 2690 C 254.001 -1.96781 -0.490405 0
M  V30 2691 C 254.334 -1.04397 -1.63753 0
M  V30 2692 O 253.609 -0.0885805 -1.94298 0
M  V30 2693 C 253.892 -3.4635 -0.985594 0
M  V30 2694 C 253.745 -4.49512 0.160824 0
M  V30 2695 C 255.064 -3.98697 -1.86355 0
M  V30 2696 H 252.183 -0.715482 -0.176788 0
M  V30 2697 H 254.825 -1.88451 0.242088 0
M  V30 2698 H 252.975 -3.53579 -1.60978 0
M  V30 2699 H 254.647 -4.54353 0.797537 0
M  V30 2700 H 252.89 -4.26013 0.818256 0
M  V30 2701 H 253.561 -5.51531 -0.227569 0
M  V30 2702 H 256.037 -3.94019 -1.33746 0
M  V30 2703 H 254.913 -5.03792 -2.17909 0
M  V30 2704 H 255.174 -3.41744 -2.8047 0
M  V30 2705 N 254.233 0.115231 -1.57178 0
M  V30 2706 C 255.165 1.16694 -1.97269 0
M  V30 2707 C 256.178 1.37445 -0.872502 0
M  V30 2708 O 257.367 1.36454 -1.15077 0
M  V30 2709 C 254.467 2.52627 -2.25905 0
M  V30 2710 C 253.64 2.52427 -3.57211 0
M  V30 2711 C 252.699 3.70134 -3.74016 0
M  V30 2712 O 251.725 3.53546 -4.46087 0
M  V30 2713 N 252.927 4.88844 -3.13068 0
M  V30 2714 H 255.692 0.82588 -2.88096 0
M  V30 2715 H 253.253 0.304461 -1.59011 0
M  V30 2716 H 255.245 3.29937 -2.34359 0
M  V30 2717 H 253.815 2.789 -1.41186 0
M  V30 2718 H 253.035 1.60805 -3.5991 0
M  V30 2719 H 254.323 2.49353 -4.43509 0
M  V30 2720 H 253.721 5.05225 -2.54489 0
M  V30 2721 H 252.278 5.63817 -3.27037 0
M  V30 2722 N 255.711 1.52812 0.385517 0
M  V30 2723 C 256.957 1.68275 1.13188 0
M  V30 2724 C 257.29 0.423179 1.89533 0
M  V30 2725 O 256.565 -0.579113 1.85679 0
M  V30 2726 C 256.848 2.92001 2.1073 0
M  V30 2727 C 256.701 4.28067 1.38125 0
M  V30 2728 C 258.02 3.11283 3.11113 0
M  V30 2729 H 255.139 0.612352 0.410115 0
M  V30 2730 H 257.781 1.85415 0.414869 0
M  V30 2731 H 255.931 2.77519 2.71874 0
M  V30 2732 H 257.603 4.54324 0.799187 0
M  V30 2733 H 255.846 4.28388 0.683092 0
M  V30 2734 H 256.517 5.10733 2.09417 0
M  V30 2735 H 258.993 3.2482 2.6006 0
M  V30 2736 H 257.869 3.99325 3.76605 0
M  V30 2737 H 258.13 2.25656 3.80173 0
M  V30 2738 N 257.189 -0.644168 1.43834 0
M  V30 2739 C 258.6 -1.22554 1.40845 0
M  V30 2740 C 258.951 -1.9585 0.117115 0
M  V30 2741 O 258.076 -2.01734 -0.783086 0
M  V30 2742 C 258.671 -2.22907 2.55143 0
M  V30 2743 C 257.23 -2.76501 2.5539 0
M  V30 2744 C 256.377 -1.51287 2.32396 0
M  V30 2745 H 259.328 -0.43563 1.52604 0
M  V30 2746 H 259.349 -3.05259 2.2715 0
M  V30 2747 H 258.861 -1.69533 3.49114 0
M  V30 2748 H 256.962 -3.33914 1.65324 0
M  V30 2749 H 257.075 -3.23429 3.53455 0
M  V30 2750 H 255.439 -1.78957 1.81236 0
M  V30 2751 H 256.222 -0.998336 3.28463 0
M  V30 2752 N 258.668 -1.30515 -0.883378 0
M  V30 2753 C 259.896 -1.22359 -1.66841 0
M  V30 2754 C 260.311 0.213296 -1.87591 0
M  V30 2755 O 259.668 1.14075 -1.42454 0
M  V30 2756 C 259.719 -1.95011 -3.04389 0
M  V30 2757 O 259.44 -3.3309 -2.84575 0
M  V30 2758 C 260.941 -1.93532 -3.98824 0
M  V30 2759 H 258.161 -0.423371 -0.520575 0
M  V30 2760 H 260.705 -1.72167 -1.10357 0
M  V30 2761 H 258.86 -1.48997 -3.57601 0
M  V30 2762 H 259.274 -3.69907 -3.71846 0
M  V30 2763 H 260.748 -2.48902 -4.92699 0
M  V30 2764 H 261.225 -0.914627 -4.29571 0
M  V30 2765 H 261.831 -2.39364 -3.51547 0
M  V30 2766 N 260.146 1.09593 -1.13257 0
M  V30 2767 C 261.094 2.18271 -0.803783 0
M  V30 2768 C 262.088 1.68054 0.213148 0
M  V30 2769 O 263.294 1.79862 0.0704699 0
M  V30 2770 H 259.669 0.711949 -0.242143 0
M  V30 2771 H 261.64 2.43235 -1.72856 0
M  V30 2772 C 260.389 3.46536 -0.28424 0
M  V30 2773 H 259.712 3.85545 -1.05807 0
M  V30 2774 H 261.152 4.23899 -0.0925945 0
M  V30 2775 C 259.611 3.22036 0.989684 0
M  V30 2776 O 260.141 3.44509 2.06584 0
M  V30 2777 N 258.347 2.7565 0.920086 0
M  V30 2778 H 257.894 2.57562 0.0442019 0
M  V30 2779 H 257.852 2.59635 1.77306 0
M  V30 2780 N 261.624 0.925811 1.2754 0
M  V30 2781 C 262.557 0.367836 2.25216 0
M  V30 2782 C 263.535 -0.534738 1.53556 0
M  V30 2783 O 264.719 -0.475672 1.824 0
M  V30 2784 C 261.846 -0.47298 3.35381 0
M  V30 2785 C 260.892 0.365898 4.24928 0
M  V30 2786 S 261.725 1.78025 5.05042 0
M  V30 2787 C 262.881 0.947068 6.18693 0
M  V30 2788 H 263.114 1.19568 2.72196 0
M  V30 2789 H 260.647 0.727867 1.36167 0
M  V30 2790 H 262.605 -0.952242 3.99303 0
M  V30 2791 H 261.266 -1.27533 2.87044 0
M  V30 2792 H 260.459 -0.277582 5.03235 0
M  V30 2793 H 260.061 0.779261 3.65792 0
M  V30 2794 H 262.353 0.182201 6.77255 0
M  V30 2795 H 263.296 1.70309 6.87314 0
M  V30 2796 H 263.704 0.489913 5.6237 0
M  V30 2797 N 263.102 -1.41638 0.69111 0
M  V30 2798 C 264.332 -2.0533 0.228758 0
M  V30 2799 C 264.74 -1.52089 -1.12541 0
M  V30 2800 O 264.083 -0.662145 -1.71351 0
M  V30 2801 C 264.145 -3.59349 0.10407 0
M  V30 2802 C 263.809 -4.35362 1.38956 0
M  V30 2803 C 264.806 -4.64942 2.32648 0
M  V30 2804 C 262.491 -4.74714 1.64169 0
M  V30 2805 C 264.485 -5.32828 3.49818 0
M  V30 2806 C 262.172 -5.42338 2.81625 0
M  V30 2807 C 263.17 -5.71322 3.74273 0
M  V30 2808 O 262.858 -6.37554 4.89673 0
M  V30 2809 H 262.59 -0.667796 0.104997 0
M  V30 2810 H 265.144 -1.82477 0.942938 0
M  V30 2811 H 263.374 -3.80924 -0.665839 0
M  V30 2812 H 265.063 -4.04633 -0.320519 0
M  V30 2813 H 265.829 -4.35025 2.14425 0
M  V30 2814 H 261.708 -4.51538 0.929202 0
M  V30 2815 H 265.252 -5.55368 4.22152 0
M  V30 2816 H 261.149 -5.71673 2.99768 0
M  V30 2817 H 261.917 -6.56049 4.8943 0
M  V30 2818 N 264.58 -0.43555 -1.51462 0
M  V30 2819 C 265.528 0.391205 -2.29287 0
M  V30 2820 C 266.522 1.02247 -1.35062 0
M  V30 2821 O 267.728 0.957646 -1.52411 0
M  V30 2822 H 264.103 0.144968 -0.737895 0
M  V30 2823 H 266.074 -0.286051 -2.97026 0
M  V30 2824 C 264.823 1.48096 -3.14583 0
M  V30 2825 H 264.146 1.00457 -3.86973 0
M  V30 2826 H 265.586 2.03273 -3.72097 0
M  V30 2827 C 264.045 2.46321 -2.29843 0
M  V30 2828 O 264.575 3.50815 -1.95682 0
M  V30 2829 N 262.781 2.17166 -1.931 0
M  V30 2830 H 262.328 1.32218 -2.21079 0
M  V30 2831 H 262.286 2.83127 -1.36698 0
M  V30 2832 N 266.058 1.56714 -0.166846 0
M  V30 2833 C 267.005 2.17746 0.765193 0
M  V30 2834 C 267.975 1.11614 1.23011 0
M  V30 2835 O 269.16 1.39745 1.29908 0
M  V30 2836 C 266.3 2.81882 1.9909 0
M  V30 2837 C 265.413 4.02462 1.56997 0
M  V30 2838 C 264.548 4.54537 2.749 0
M  V30 2839 C 263.587 5.67538 2.29275 0
M  V30 2840 N 262.724 6.14142 3.40255 0
M  V30 2841 H 267.564 2.97048 0.237952 0
M  V30 2842 H 265.101 1.4672 0.105725 0
M  V30 2843 H 267.059 3.17221 2.70974 0
M  V30 2844 H 265.689 2.05191 2.49192 0
M  V30 2845 H 264.741 3.72973 0.748037 0
M  V30 2846 H 266.053 4.84273 1.19503 0
M  V30 2847 H 265.207 4.92035 3.54946 0
M  V30 2848 H 263.946 3.71774 3.1565 0
M  V30 2849 H 262.951 5.29597 1.47674 0
M  V30 2850 H 264.176 6.52099 1.89588 0
M  V30 2851 H 262.122 5.3431 3.8059 0
M  V30 2852 H 262.039 6.9093 3.06841 0
M  V30 2853 H 263.307 6.56289 4.206 0
M  V30 2854 N 267.536 -0.106894 1.57237 0
M  V30 2855 C 268.813 -0.843526 1.76477 0
M  V30 2856 C 269.193 -1.97499 0.745464 0
M  V30 2857 O 268.541 -2.27357 -0.228306 0
M  V30 2858 C 268.751 -1.34903 3.21873 0
M  V30 2859 C 270.099 -1.79654 3.8472 0
M  V30 2860 O 271.123 -1.44554 3.2555 0
M  V30 2861 O 269.982 -2.44515 4.88748 0
M  V30 2862 H 267.076 -0.401468 0.723016 0
M  V30 2863 H 269.622 -0.0896927 1.69463 0
M  V30 2864 H 268.394 -0.53781 3.87586 0
M  V30 2865 H 268.017 -2.16522 3.33473 0
M  V30 2866 N 269.014 -1.53014 -0.377408 0
M  V30 2867 C 270.425 -1.60438 -0.954798 0
M  V30 2868 C 270.776 -0.464418 -1.90624 0
M  V30 2869 O 269.901 0.41087 -2.12464 0
M  V30 2870 C 270.496 -2.90797 -1.73847 0
M  V30 2871 C 269.055 -3.00595 -2.26538 0
M  V30 2872 C 268.202 -2.55645 -1.07429 0
M  V30 2873 H 271.153 -1.57926 -0.156575 0
M  V30 2874 H 271.174 -2.77935 -2.5987 0
M  V30 2875 H 270.686 -3.73746 -1.04574 0
M  V30 2876 H 268.787 -2.22208 -2.99089 0
M  V30 2877 H 268.9 -4.05456 -2.5523 0
M  V30 2878 H 267.264 -2.10239 -1.43777 0
M  V30 2879 H 268.047 -3.41 -0.396728 0
M  V30 2880 N 270.492 0.636531 -1.44174 0
M  V30 2881 C 271.455 1.73063 -1.50273 0
M  V30 2882 C 272.455 1.56113 -0.385397 0
M  V30 2883 O 273.645 1.61707 -0.64781 0
M  V30 2884 C 270.777 3.12096 -1.37145 0
M  V30 2885 H 271.97 1.69031 -2.47727 0
M  V30 2886 H 269.523 0.849706 -1.31186 0
M  V30 2887 H 270.258 3.21728 -0.407636 0
M  V30 2888 H 270.043 3.25805 -2.18159 0
M  V30 2889 H 271.533 3.91846 -1.44382 0
M  V30 2890 N 271.97 1.30982 0.876444 0
M  V30 2891 C 273.219 1.19658 1.62373 0
M  V30 2892 C 273.532 -0.245636 1.94052 0
M  V30 2893 O 274.738 -0.48049 2.67214 0
M  V30 2894 C 273.194 2.09433 2.92687 0
M  V30 2895 C 272.802 3.58613 2.68516 0
M  V30 2896 C 274.546 2.06893 3.70669 0
M  V30 2897 C 272.453 4.40416 3.94699 0
M  V30 2898 H 271.383 0.444268 0.609214 0
M  V30 2899 H 274.034 1.55791 0.969605 0
M  V30 2900 H 272.416 1.66191 3.59439 0
M  V30 2901 H 273.59 4.10058 2.10212 0
M  V30 2902 H 271.905 3.63063 2.03898 0
M  V30 2903 H 274.502 2.65258 4.64265 0
M  V30 2904 H 274.845 1.05448 4.02724 0
M  V30 2905 H 275.378 2.48301 3.10792 0
M  V30 2906 H 272.117 5.42591 3.67798 0
M  V30 2907 H 271.637 3.93731 4.52477 0
M  V30 2908 H 273.316 4.52294 4.62644 0
M  V30 2909 N 273.449 -1.08991 1.13837 0
M  V30 2910 C 274.695 -1.81526 0.90422 0
M  V30 2911 C 275.028 -1.85706 -0.568066 0
M  V30 2912 O 274.303 -1.32855 -1.42056 0
M  V30 2913 C 274.586 -3.27447 1.49835 0
M  V30 2914 C 274.439 -3.31512 3.04006 0
M  V30 2915 C 275.758 -4.24256 1.17025 0
M  V30 2916 H 272.877 -0.659029 0.329923 0
M  V30 2917 H 275.519 -1.27644 1.40737 0
M  V30 2918 H 273.669 -3.73462 1.07044 0
M  V30 2919 H 275.341 -2.93867 3.55584 0
M  V30 2920 H 273.584 -2.70963 3.38765 0
M  V30 2921 H 274.255 -4.34329 3.40679 0
M  V30 2922 H 276.731 -3.86549 1.54009 0
M  V30 2923 H 275.607 -5.24684 1.61237 0
M  V30 2924 H 275.868 -4.42019 0.0846274 0
M  V30 2925 N 274.927 -0.932562 -1.27047 0
M  V30 2926 C 275.875 -0.42603 -2.28665 0
M  V30 2927 C 276.869 0.49219 -1.62092 0
M  V30 2928 O 278.075 0.371355 -1.76128 0
M  V30 2929 H 274.45 -0.119213 -0.742491 0
M  V30 2930 H 276.421 -1.29579 -2.68797 0
M  V30 2931 C 275.17 0.301426 -3.46391 0
M  V30 2932 H 274.493 -0.39595 -3.97834 0
M  V30 2933 H 275.933 0.6202 -4.1944 0
M  V30 2934 C 274.392 1.51616 -3.00856 0
M  V30 2935 O 274.922 2.61476 -3.04948 0
M  V30 2936 N 273.128 1.36969 -2.56296 0
M  V30 2937 H 272.675 0.475873 -2.53166 0
M  V30 2938 H 272.633 2.18368 -2.26192 0
M  V30 2939 N 276.405 1.4127 -0.698611 0
M  V30 2940 C 277.653 2.00782 -0.230409 0
M  V30 2941 C 277.974 1.5562 1.17505 0
M  V30 2942 O 277.244 0.78815 1.79346 0
M  V30 2943 H 275.824 0.742464 -0.0821944 0
M  V30 2944 H 278.486 1.72852 -0.90045 0
M  V30 2945 H 277.582 3.11095 -0.25021 0
M  V30 2946 N 277.883 0.443576 1.51229 0
M  V30 2947 C 279.129 -0.120975 2.02439 0
M  V30 2948 C 279.462 -1.41815 1.32674 0
M  V30 2949 O 278.737 -1.89373 0.443622 0
M  V30 2950 C 279.02 -0.333291 3.58554 0
M  V30 2951 C 278.873 0.982968 4.38928 0
M  V30 2952 C 280.192 -1.10028 4.26124 0
M  V30 2953 H 277.311 -0.0424923 0.735774 0
M  V30 2954 H 279.953 0.583794 1.80809 0
M  V30 2955 H 278.103 -0.933614 3.77115 0
M  V30 2956 H 279.775 1.61775 4.32003 0
M  V30 2957 H 278.018 1.58611 4.03763 0
M  V30 2958 H 278.689 0.788379 5.46341 0
M  V30 2959 H 281.165 -0.591711 4.11871 0
M  V30 2960 H 280.041 -1.21761 5.35225 0
M  V30 2961 H 280.302 -2.12996 3.87408 0
M  V30 2962 N 279.361 -1.56624 0.175154 0
M  V30 2963 C 280.591 -2.01082 -0.474283 0
M  V30 2964 C 280.999 -1.05447 -1.57091 0
M  V30 2965 O 280.342 -0.0480595 -1.83637 0
M  V30 2966 C 280.404 -3.41963 -1.10911 0
M  V30 2967 C 280.068 -4.56742 -0.153666 0
M  V30 2968 C 281.065 -5.16076 0.629448 0
M  V30 2969 C 278.75 -5.02277 -0.0483776 0
M  V30 2970 C 280.744 -6.19377 1.50501 0
M  V30 2971 C 278.431 -6.05427 0.830768 0
M  V30 2972 C 279.429 -6.63849 1.60605 0
M  V30 2973 O 279.117 -7.64998 2.47049 0
M  V30 2974 H 278.849 -0.664261 -0.125432 0
M  V30 2975 H 281.403 -2.03549 0.275163 0
M  V30 2976 H 279.633 -3.36422 -1.90676 0
M  V30 2977 H 281.322 -3.70352 -1.66114 0
M  V30 2978 H 282.088 -4.81776 0.558297 0
M  V30 2979 H 277.967 -4.56513 -0.641611 0
M  V30 2980 H 281.511 -6.64906 2.1106 0
M  V30 2981 H 277.408 -6.39151 0.903107 0
M  V30 2982 H 278.176 -7.82336 2.40607 0
M  V30 2983 N 280.839 0.0985539 -1.57292 0
M  V30 2984 C 282.085 0.798769 -1.87059 0
M  V30 2985 C 282.44 1.76514 -0.76555 0
M  V30 2986 O 281.733 1.90181 0.232752 0
M  V30 2987 C 281.927 1.56927 -3.21105 0
M  V30 2988 C 281.756 0.679026 -4.44544 0
M  V30 2989 C 280.526 0.326071 -5.04247 0
M  V30 2990 C 282.724 -0.0124715 -5.14298 0
M  V30 2991 N 280.706 -0.572702 -6.11223 0
M  V30 2992 C 282.077 -0.769446 -6.15207 0
M  V30 2993 C 284.132 -0.0867545 -4.97824 0
M  V30 2994 C 282.835 -1.59376 -7.01421 0
M  V30 2995 C 284.861 -0.897955 -5.84543 0
M  V30 2996 C 284.223 -1.64306 -6.84969 0
M  V30 2997 H 280.322 0.268568 -0.734435 0
M  V30 2998 H 282.906 0.0614664 -1.94603 0
M  V30 2999 H 281.077 2.27748 -3.1462 0
M  V30 3000 H 282.809 2.21641 -3.38611 0
M  V30 3001 H 279.564 0.67295 -4.68795 0
M  V30 3002 H 279.988 -1.01454 -6.69355 0
M  V30 3003 H 284.63 0.474963 -4.20124 0
M  V30 3004 H 282.348 -2.16655 -7.78515 0
M  V30 3005 H 285.934 -0.958059 -5.73858 0
M  V30 3006 H 284.814 -2.26065 -7.50909 0
M  V30 3007 N 282.317 1.53212 0.369288 0
M  V30 3008 C 283.542 1.73423 1.1375 0
M  V30 3009 C 283.967 0.460404 1.82378 0
M  V30 3010 O 283.325 -0.585298 1.71592 0
M  V30 3011 C 283.373 2.89769 2.1463 0
M  V30 3012 O 282.477 2.58119 3.21634 0
M  V30 3013 H 281.818 0.576061 0.330227 0
M  V30 3014 H 284.348 2.00083 0.427547 0
M  V30 3015 H 284.358 3.15829 2.58294 0
M  V30 3016 H 283.033 3.8217 1.64071 0
M  V30 3017 H 281.61 2.42864 2.82969 0
M  V30 3018 N 283.795 -0.628877 1.44509 0
M  V30 3019 C 284.705 -1.7694 1.54044 0
M  V30 3020 C 285.721 -1.68705 0.425987 0
M  V30 3021 O 286.897 -1.89442 0.683656 0
M  V30 3022 C 283.962 -3.13332 1.48405 0
M  V30 3023 C 283.023 -3.33181 2.70719 0
M  V30 3024 C 282.256 -4.63067 2.6534 0
M  V30 3025 O 282.479 -5.44017 1.71469 0
M  V30 3026 O 281.413 -4.85167 3.56226 0
M  V30 3027 H 285.239 -1.71848 2.50403 0
M  V30 3028 H 282.824 -0.790378 1.26781 0
M  V30 3029 H 284.706 -3.94634 1.47791 0
M  V30 3030 H 283.381 -3.1896 0.551898 0
M  V30 3031 H 282.288 -2.51549 2.769 0
M  V30 3032 H 283.621 -3.32416 3.62988 0
M  V30 3033 N 285.273 -1.31445 -0.869486 0
M  V30 3034 C 286.498 -1.24256 -1.66058 0
M  V30 3035 C 286.923 0.188928 -1.87149 0
M  V30 3036 O 286.281 1.13522 -1.4136 0
M  V30 3037 C 286.329 -1.9924 -3.00559 0
M  V30 3038 O 285.433 -1.33007 -3.90362 0
M  V30 3039 H 284.774 -0.428973 -0.506831 0
M  V30 3040 H 287.304 -1.73521 -1.08404 0
M  V30 3041 H 287.314 -2.08854 -3.50491 0
M  V30 3042 H 285.989 -3.03342 -2.84528 0
M  V30 3043 H 284.566 -1.31848 -3.48813 0
M  V30 3044 N 286.751 1.08385 -1.14413 0
M  V30 3045 C 287.681 2.17321 -0.854044 0
M  V30 3046 C 288.662 1.69024 0.191049 0
M  V30 3047 O 289.847 1.94141 0.0476779 0
M  V30 3048 C 286.977 3.45719 -0.330983 0
M  V30 3049 C 285.931 4.07409 -1.31155 0
M  V30 3050 C 285.257 5.30762 -0.64778 0
M  V30 3051 C 286.557 4.48665 -2.67388 0
M  V30 3052 H 288.251 2.41845 -1.76498 0
M  V30 3053 H 285.797 1.16233 -0.850051 0
M  V30 3054 H 287.75 4.21241 -0.115645 0
M  V30 3055 H 286.474 3.2075 0.615381 0
M  V30 3056 H 285.133 3.33919 -1.51306 0
M  V30 3057 H 284.781 5.02078 0.304398 0
M  V30 3058 H 284.481 5.72992 -1.30207 0
M  V30 3059 H 286.005 6.08998 -0.441972 0
M  V30 3060 H 287.419 5.15364 -2.51143 0
M  V30 3061 H 285.816 5.01814 -3.29093 0
M  V30 3062 H 286.886 3.60543 -3.24248 0
M  V30 3063 N 288.23 0.939286 1.26551 0
M  V30 3064 C 289.178 0.43815 2.28436 0
M  V30 3065 C 290.172 -0.483587 1.62351 0
M  V30 3066 O 291.378 -0.362009 1.76322 0
M  V30 3067 H 287.753 0.123149 0.741848 0
M  V30 3068 H 289.724 1.31002 2.68106 0
M  V30 3069 C 288.473 -0.283052 3.46546 0
M  V30 3070 H 287.796 0.417043 3.97619 0
M  V30 3071 H 289.236 -0.597948 4.19763 0
M  V30 3072 C 287.695 -1.50018 3.01656 0
M  V30 3073 O 288.225 -2.59855 3.0633 0
M  V30 3074 N 286.431 -1.35608 2.57019 0
M  V30 3075 H 285.978 -0.46244 2.53415 0
M  V30 3076 H 285.936 -2.17165 2.27347 0
M  V30 3077 N 289.708 -1.40897 0.706093 0
M  V30 3078 C 290.655 -2.30751 0.0474474 0
M  V30 3079 C 291.625 -1.47678 -0.76029 0
M  V30 3080 O 292.81 -1.76441 -0.726177 0
M  V30 3081 C 289.95 -3.33815 -0.875309 0
M  V30 3082 C 289.063 -4.31961 -0.0580623 0
M  V30 3083 C 288.198 -5.22093 -0.979425 0
M  V30 3084 C 287.237 -6.11902 -0.155706 0
M  V30 3085 N 286.374 -6.94482 -1.03144 0
M  V30 3086 H 291.214 -2.86513 0.819413 0
M  V30 3087 H 288.751 -1.41102 0.415783 0
M  V30 3088 H 290.709 -3.92129 -1.42446 0
M  V30 3089 H 289.339 -2.79579 -1.61356 0
M  V30 3090 H 288.391 -3.75507 0.608147 0
M  V30 3091 H 289.703 -4.95415 0.580082 0
M  V30 3092 H 288.857 -5.85292 -1.59744 0
M  V30 3093 H 287.596 -4.5889 -1.65141 0
M  V30 3094 H 286.601 -5.47742 0.475309 0
M  V30 3095 H 287.826 -6.77162 0.512635 0
M  V30 3096 H 285.772 -6.33877 -1.68924 0
M  V30 3097 H 285.689 -7.54665 -0.449108 0
M  V30 3098 H 286.957 -7.6214 -1.63593 0
M  V30 3099 N 291.186 -0.45159 -1.50991 0
M  V30 3100 C 292.432 0.110237 -2.025 0
M  V30 3101 C 292.765 1.41109 -1.33424 0
M  V30 3102 O 292.04 1.89135 -0.453659 0
M  V30 3103 C 292.323 0.314271 -3.58726 0
M  V30 3104 C 292.176 -1.00623 -4.38401 0
M  V30 3105 C 293.495 1.07767 -4.26702 0
M  V30 3106 H 290.614 0.0385897 -0.735989 0
M  V30 3107 H 293.256 -0.593374 -1.80497 0
M  V30 3108 H 291.406 0.913601 -3.77605 0
M  V30 3109 H 293.078 -1.64064 -4.31139 0
M  V30 3110 H 291.321 -1.6075 -4.02917 0
M  V30 3111 H 291.992 -0.817341 -5.45915 0
M  V30 3112 H 294.468 0.56986 -4.12179 0
M  V30 3113 H 293.344 1.18921 -5.35863 0
M  V30 3114 H 293.605 2.10939 -3.88532 0
M  V30 3115 N 292.664 1.56529 -0.183458 0
M  V30 3116 C 293.911 1.97244 0.458357 0
M  V30 3117 C 294.239 1.06992 1.62428 0
M  V30 3118 O 293.494 0.106542 1.9541 0
M  V30 3119 C 293.793 3.43939 0.971637 0
M  V30 3120 C 293.459 4.5083 -0.0796784 0
M  V30 3121 C 292.121 4.79786 -0.368584 0
M  V30 3122 C 294.473 5.15138 -0.792638 0
M  V30 3123 C 291.801 5.70345 -1.37563 0
M  V30 3124 C 294.153 6.06784 -1.78875 0
M  V30 3125 C 292.817 6.34102 -2.08497 0
M  V30 3126 H 292.087 0.721768 0.167725 0
M  V30 3127 H 294.734 1.89472 -0.277976 0
M  V30 3128 H 293.039 3.48724 1.78602 0
M  V30 3129 H 294.736 3.72791 1.47744 0
M  V30 3130 H 291.326 4.28317 0.155668 0
M  V30 3131 H 295.51 4.92868 -0.582659 0
M  V30 3132 H 290.766 5.89789 -1.61118 0
M  V30 3133 H 294.94 6.55677 -2.3465 0
M  V30 3134 H 292.567 7.04074 -2.86678 0
M  V30 3135 N 294.142 -0.090211 1.57342 0
M  V30 3136 C 295.388 -0.793982 1.86611 0
M  V30 3137 C 295.721 -1.78142 0.773252 0
M  V30 3138 O 294.996 -1.93271 -0.218304 0
M  V30 3139 C 295.279 -1.51839 3.26523 0
M  V30 3140 C 295.132 -0.548609 4.46442 0
M  V30 3141 C 296.451 -2.46779 3.64401 0
M  V30 3142 H 293.57 -0.287186 0.678744 0
M  V30 3143 H 296.212 -0.0575076 1.89913 0
M  V30 3144 H 294.362 -2.14617 3.23839 0
M  V30 3145 H 296.034 0.0725513 4.61243 0
M  V30 3146 H 294.277 0.137614 4.33582 0
M  V30 3147 H 294.948 -1.09271 5.41076 0
M  V30 3148 H 297.424 -1.94089 3.68061 0
M  V30 3149 H 296.3 -2.94479 4.63221 0
M  V30 3150 H 296.561 -3.30758 2.93346 0
M  V30 3151 N 295.62 -1.53406 -0.361157 0
M  V30 3152 C 296.897 -1.60411 -1.11927 0
M  V30 3153 C 297.277 -0.414385 -2.06993 0
M  V30 3154 O 296.625 0.594976 -2.20618 0
M  V30 3155 C 296.835 -2.95652 -1.85448 0
M  V30 3156 C 298.183 -3.50386 -2.39823 0
M  V30 3157 O 299.207 -2.97711 -1.95568 0
M  V30 3158 O 298.066 -4.42482 -3.20737 0
M  V30 3159 H 295.16 -0.64811 -0.513695 0
M  V30 3160 H 297.706 -1.65749 -0.364065 0
M  V30 3161 H 296.478 -3.73682 -1.16091 0
M  V30 3162 H 296.101 -2.93825 -2.67866 0
M  V30 3163 N 297.098 0.621204 -1.44841 0
M  V30 3164 C 298.046 1.75385 -1.52784 0
M  V30 3165 C 299.04 1.64639 -0.398779 0
M  V30 3166 O 300.246 1.70598 -0.574137 0
M  V30 3167 H 296.621 0.579193 -0.479625 0
M  V30 3168 H 298.592 1.6581 -2.48092 0
M  V30 3169 C 297.341 3.13742 -1.4987 0
M  V30 3170 H 296.664 3.22663 -2.36069 0
M  V30 3171 H 298.104 3.92861 -1.59487 0
M  V30 3172 C 296.563 3.36175 -0.220973 0
M  V30 3173 O 297.093 3.95469 0.704782 0
M  V30 3174 N 295.299 2.90348 -0.120963 0
M  V30 3175 H 294.846 2.42278 -0.875162 0
M  V30 3176 H 294.804 3.05732 0.733168 0
M  V30 3177 N 298.576 1.31904 0.862503 0
M  V30 3178 C 299.823 1.22017 1.61611 0
M  V30 3179 C 300.151 -0.21991 1.93253 0
M  V30 3180 O 299.406 -1.17076 1.56817 0
M  V30 3181 C 299.705 2.01713 2.95037 0
M  V30 3182 C 299.371 3.51145 2.82857 0
M  V30 3183 C 298.033 3.91889 2.79243 0
M  V30 3184 C 300.385 4.46204 2.69353 0
M  V30 3185 C 297.713 5.25947 2.59993 0
M  V30 3186 C 300.065 5.80397 2.5164 0
M  V30 3187 C 298.729 6.20352 2.46413 0
M  V30 3188 H 297.999 0.44649 0.591378 0
M  V30 3189 H 300.646 1.63248 1.00111 0
M  V30 3190 H 298.951 1.53185 3.60613 0
M  V30 3191 H 300.648 1.91437 3.52353 0
M  V30 3192 H 297.238 3.1878 2.86491 0
M  V30 3193 H 301.422 4.15652 2.71196 0
M  V30 3194 H 296.678 5.5597 2.54376 0
M  V30 3195 H 300.852 6.53676 2.40169 0
M  V30 3196 H 298.479 7.24172 2.31256 0
M  V30 3197 N 300.054 -1.07777 1.14986 0
M  V30 3198 C 301.331 -1.7699 0.832695 0
M  V30 3199 C 301.711 -2.001 -0.672561 0
M  V30 3200 O 301.059 -1.61598 -1.6155 0
M  V30 3201 C 301.269 -3.08139 1.63863 0
M  V30 3202 C 302.617 -3.8256 1.84208 0
M  V30 3203 O 303.641 -3.17939 1.60603 0
M  V30 3204 O 302.5 -4.98612 2.23714 0
M  V30 3205 H 299.594 -0.768389 0.305791 0
M  V30 3206 H 302.14 -1.14182 1.25541 0
M  V30 3207 H 300.912 -2.86909 2.6608 0
M  V30 3208 H 300.535 -3.78678 1.21197 0
M  V30 3209 N 301.532 -0.945985 -1.26051 0
M  V30 3210 C 302.948 -0.649045 -1.45807 0
M  V30 3211 C 303.148 0.796158 -1.85104 0
M  V30 3212 O 302.204 1.57233 -1.97571 0
M  V30 3213 C 303.517 -1.61458 -2.53677 0
M  V30 3214 C 305.065 -1.62481 -2.67524 0
M  V30 3215 C 305.54 -2.57776 -3.7857 0
M  V30 3216 N 307.031 -2.5609 -3.85969 0
M  V30 3217 C 307.766 -3.26508 -4.7136 0
M  V30 3218 N 307.262 -4.0637 -5.61102 0
M  V30 3219 N 309.055 -3.15437 -4.65248 0
M  V30 3220 H 301.206 -1.88005 -0.988328 0
M  V30 3221 H 303.469 -0.808198 -0.4955 0
M  V30 3222 H 303.175 -2.64644 -2.31638 0
M  V30 3223 H 303.049 -1.37036 -3.51427 0
M  V30 3224 H 305.436 -0.600167 -2.88933 0
M  V30 3225 H 305.517 -1.90958 -1.70202 0
M  V30 3226 H 305.161 -3.60361 -3.57913 0
M  V30 3227 H 305.091 -2.26587 -4.75359 0
M  V30 3228 H 307.582 -1.98105 -3.21812 0
M  V30 3229 H 307.895 -4.57042 -6.23164 0
M  V30 3230 H 306.24 -4.10469 -5.60839 0
M  V30 3231 H 309.431 -2.52525 -3.94143 0
M  V30 3232 H 309.604 -3.70584 -5.31575 0
M  V30 3233 N 303.011 1.40521 -0.713556 0
M  V30 3234 C 304.288 1.94775 -0.17943 0
M  V30 3235 C 304.668 1.65184 1.31444 0
M  V30 3236 O 304.016 0.968429 2.06963 0
M  V30 3237 C 304.226 3.45543 -0.489986 0
M  V30 3238 C 305.574 4.22442 -0.427536 0
M  V30 3239 O 306.598 3.53644 -0.425929 0
M  V30 3240 O 305.457 5.4501 -0.403292 0
M  V30 3241 H 302.551 0.826606 -0.0255192 0
M  V30 3242 H 305.097 1.5014 -0.790949 0
M  V30 3243 H 303.869 3.60432 -1.5233 0
M  V30 3244 H 303.492 3.97311 0.151598 0
M  V30 3245 N 304.489 0.459591 1.5075 0
M  V30 3246 C 305.9 0.00171547 1.867 0
M  V30 3247 C 306.251 -1.39934 1.37525 0
M  V30 3248 O 305.376 -2.03523 0.735349 0
M  V30 3249 C 305.971 -0.00366298 3.388 0
M  V30 3250 C 304.53 -0.406026 3.74204 0
M  V30 3251 C 303.677 0.38673 2.7459 0
M  V30 3252 H 306.628 0.674413 1.43657 0
M  V30 3253 H 306.649 -0.808371 3.71814 0
M  V30 3254 H 306.161 1.01617 3.74561 0
M  V30 3255 H 304.262 -1.43063 3.4404 0
M  V30 3256 H 304.375 -0.115362 4.78961 0
M  V30 3257 H 302.739 -0.158019 2.54209 0
M  V30 3258 H 303.522 1.40585 3.13194 0
M  V30 3259 N 305.967 -1.56429 0.191757 0
M  V30 3260 C 307.192 -2.02309 -0.456706 0
M  V30 3261 C 307.617 -1.07103 -1.5463 0
M  V30 3262 O 306.975 -0.0539677 -1.8122 0
M  V30 3263 C 307.023 -3.46654 -0.993159 0
M  V30 3264 O 306.127 -3.54559 -2.10622 0
M  V30 3265 H 305.468 -0.655303 -0.107114 0
M  V30 3266 H 307.998 -2.02364 0.301653 0
M  V30 3267 H 308.008 -3.86377 -1.31061 0
M  V30 3268 H 306.683 -4.1544 -0.195504 0
M  V30 3269 H 305.26 -3.26708 -1.79767 0
M  V30 3270 N 307.445 0.0818655 -1.57387 0
M  V30 3271 C 308.375 1.09885 -2.06028 0
M  V30 3272 C 309.356 1.4098 -0.951774 0
M  V30 3273 O 310.541 1.50781 -1.22387 0
M  V30 3274 C 307.671 2.4151 -2.4958 0
M  V30 3275 C 306.625 2.24792 -3.64215 0
M  V30 3276 C 305.951 3.61712 -3.93787 0
M  V30 3277 C 307.251 1.67749 -4.94629 0
M  V30 3278 H 308.945 0.694128 -2.91243 0
M  V30 3279 H 306.491 0.332448 -1.4011 0
M  V30 3280 H 308.444 3.12939 -2.82219 0
M  V30 3281 H 307.168 2.83943 -1.61381 0
M  V30 3282 H 305.827 1.55807 -3.31843 0
M  V30 3283 H 305.475 4.01697 -3.02735 0
M  V30 3284 H 305.175 3.51368 -4.70971 0
M  V30 3285 H 306.699 4.34587 -4.28913 0
M  V30 3286 H 308.113 2.29032 -5.25564 0
M  V30 3287 H 306.51 1.68128 -5.76067 0
M  V30 3288 H 307.58 0.638059 -4.80684 0
M  V30 3289 N 308.923 1.53595 0.353017 0
M  V30 3290 C 310.172 1.69603 1.09168 0
M  V30 3291 C 310.485 0.460925 1.90092 0
M  V30 3292 O 311.691 0.501774 2.66823 0
M  V30 3293 C 310.147 2.99872 1.9901 0
M  V30 3294 C 309.755 4.30687 1.23339 0
M  V30 3295 C 311.499 3.25246 2.72792 0
M  V30 3296 C 309.406 5.52036 2.12156 0
M  V30 3297 H 308.336 0.631966 0.411261 0
M  V30 3298 H 310.987 1.80096 0.351802 0
M  V30 3299 H 309.369 2.83212 2.7678 0
M  V30 3300 H 310.543 4.58019 0.505456 0
M  V30 3301 H 308.858 4.11853 0.613663 0
M  V30 3302 H 311.455 4.13095 3.39495 0
M  V30 3303 H 311.798 2.41846 3.38846 0
M  V30 3304 H 312.331 3.42638 2.021 0
M  V30 3305 H 309.07 6.37951 1.50659 0
M  V30 3306 H 308.59 5.28966 2.82764 0
M  V30 3307 H 310.269 5.87313 2.71427 0
M  V30 3308 N 310.401 -0.613514 1.45168 0
M  V30 3309 C 311.647 -1.37279 1.50087 0
M  V30 3310 C 312.002 -1.91902 0.138294 0
M  V30 3311 O 311.295 -1.71764 -0.84899 0
M  V30 3312 C 311.489 -2.54347 2.51083 0
M  V30 3313 C 311.318 -2.11186 3.97027 0
M  V30 3314 C 310.088 -1.97636 4.65046 0
M  V30 3315 C 312.286 -1.69016 4.85735 0
M  V30 3316 N 310.268 -1.48224 5.95737 0
M  V30 3317 C 311.639 -1.30976 6.06008 0
M  V30 3318 C 313.694 -1.56555 4.72647 0
M  V30 3319 C 312.397 -0.817197 7.14643 0
M  V30 3320 C 314.423 -1.08702 5.81324 0
M  V30 3321 C 313.785 -0.716233 7.00749 0
M  V30 3322 H 309.884 -0.496478 0.60418 0
M  V30 3323 H 312.468 -0.701988 1.81605 0
M  V30 3324 H 310.639 -3.19031 2.21527 0
M  V30 3325 H 312.371 -3.21208 2.46187 0
M  V30 3326 H 309.126 -2.18638 4.20112 0
M  V30 3327 H 309.55 -1.25767 6.65216 0
M  V30 3328 H 314.192 -1.83849 3.80736 0
M  V30 3329 H 311.91 -0.531797 8.06348 0
M  V30 3330 H 315.496 -0.994943 5.7323 0
M  V30 3331 H 314.376 -0.351642 7.83411 0
M  V30 3332 N 311.879 -1.3236 -0.855495 0
M  V30 3333 C 312.811 -1.17052 -1.97057 0
M  V30 3334 C 313.824 -0.10574 -1.62456 0
M  V30 3335 O 315.013 -0.354619 -1.74942 0
M  V30 3336 C 312.113 -0.769305 -3.30053 0
M  V30 3337 C 311.286 -1.9222 -3.929 0
M  V30 3338 C 310.345 -1.50466 -5.04228 0
M  V30 3339 O 309.371 -2.21655 -5.24269 0
M  V30 3340 N 310.573 -0.400209 -5.79119 0
M  V30 3341 H 313.338 -2.13103 -2.1073 0
M  V30 3342 H 310.899 -1.24885 -1.0303 0
M  V30 3343 H 312.891 -0.472407 -4.01933 0
M  V30 3344 H 311.461 0.100025 -3.1244 0
M  V30 3345 H 310.681 -2.38563 -3.13817 0
M  V30 3346 H 311.969 -2.69403 -4.31624 0
M  V30 3347 H 311.367 0.192319 -5.65373 0
M  V30 3348 H 309.924 -0.162912 -6.51596 0
M  V30 3349 N 313.357 1.07166 -1.15556 0
M  V30 3350 C 314.587 1.83248 -0.954133 0
M  V30 3351 C 314.995 1.82449 0.500911 0
M  V30 3352 O 314.338 1.23575 1.35923 0
M  V30 3353 C 314.4 3.31393 -1.39351 0
M  V30 3354 C 314.064 3.5591 -2.86666 0
M  V30 3355 C 315.061 3.49695 -3.8472 0
M  V30 3356 C 312.746 3.83515 -3.24379 0
M  V30 3357 C 314.74 3.70737 -5.18491 0
M  V30 3358 C 312.427 4.04209 -4.58321 0
M  V30 3359 C 313.425 3.97815 -5.55186 0
M  V30 3360 O 313.113 4.17954 -6.86709 0
M  V30 3361 H 312.845 0.584941 -0.338851 0
M  V30 3362 H 315.399 1.36169 -1.53777 0
M  V30 3363 H 313.629 3.79292 -0.75329 0
M  V30 3364 H 315.318 3.88945 -1.16089 0
M  V30 3365 H 316.084 3.28368 -3.56931 0
M  V30 3366 H 311.963 3.87605 -2.49567 0
M  V30 3367 H 315.507 3.65663 -5.94085 0
M  V30 3368 H 311.404 4.25023 -4.85825 0
M  V30 3369 H 312.172 4.35291 -6.93155 0
M  V30 3370 N 314.835 0.952656 1.25548 0
M  V30 3371 C 316.082 0.606373 1.93208 0
M  V30 3372 C 316.41 -0.85631 1.74636 0
M  V30 3373 O 315.665 -1.62951 1.08376 0
M  V30 3374 C 315.964 0.908818 3.45652 0
M  V30 3375 C 315.63 2.35722 3.84378 0
M  V30 3376 C 314.292 2.75312 3.9466 0
M  V30 3377 C 316.644 3.29793 4.03591 0
M  V30 3378 C 313.972 4.08047 4.21562 0
M  V30 3379 C 316.324 4.62138 4.31985 0
M  V30 3380 C 314.988 5.01528 4.40484 0
M  V30 3381 H 314.258 0.221888 0.706998 0
M  V30 3382 H 316.905 1.20132 1.49133 0
M  V30 3383 H 315.21 0.231456 3.91116 0
M  V30 3384 H 316.907 0.619498 3.96186 0
M  V30 3385 H 313.497 2.04017 3.76928 0
M  V30 3386 H 317.681 3.00397 3.95064 0
M  V30 3387 H 312.937 4.38212 4.26357 0
M  V30 3388 H 317.111 5.35012 4.45797 0
M  V30 3389 H 314.738 6.04406 4.61083 0
M  V30 3390 N 316.313 -1.40141 0.720998 0
M  V30 3391 C 317.561 -2.0039 0.262323 0
M  V30 3392 C 317.882 -1.57469 -1.15015 0
M  V30 3393 O 317.152 -0.816582 -1.78069 0
M  V30 3394 H 315.732 -0.741063 0.093996 0
M  V30 3395 H 318.394 -1.71398 0.927835 0
M  V30 3396 H 317.49 -3.10658 0.299671 0
M  V30 3397 N 317.792 -0.46758 -1.50504 0
M  V30 3398 C 319.017 0.0886943 -2.0721 0
M  V30 3399 C 319.442 1.33057 -1.32956 0
M  V30 3400 O 318.8 1.77354 -0.376197 0
M  V30 3401 C 318.848 0.359202 -3.58806 0
M  V30 3402 O 317.952 1.44034 -3.8643 0
M  V30 3403 H 317.293 -0.0114349 -0.663902 0
M  V30 3404 H 319.823 -0.657613 -1.93744 0
M  V30 3405 H 319.833 0.600742 -4.03553 0
M  V30 3406 H 318.508 -0.548311 -4.1227 0
M  V30 3407 H 317.085 1.18638 -3.53524 0
M  V30 3408 N 319.27 1.56325 -0.20005 0
M  V30 3409 C 320.233 2.18084 0.705132 0
M  V30 3410 C 321.233 1.13666 1.1374 0
M  V30 3411 O 322.423 1.39023 1.04968 0
M  V30 3412 C 319.555 2.78689 1.96329 0
M  V30 3413 H 320.748 2.99435 0.167023 0
M  V30 3414 H 318.301 1.56221 0.0495725 0
M  V30 3415 H 319.036 2.0115 2.5438 0
M  V30 3416 H 318.821 3.55133 1.66202 0
M  V30 3417 H 320.311 3.26096 2.60866 0
M  V30 3418 N 320.748 -0.0735177 1.57428 0
M  V30 3419 C 321.695 -1.08756 2.0357 0
M  V30 3420 C 322.665 -1.38559 0.916 0
M  V30 3421 O 323.85 -1.49656 1.18354 0
M  V30 3422 C 320.99 -2.39657 2.48311 0
M  V30 3423 C 320.103 -2.16399 3.73892 0
M  V30 3424 C 319.238 -3.40852 4.07423 0
M  V30 3425 C 318.277 -3.1295 5.2605 0
M  V30 3426 N 317.414 -4.29729 5.55228 0
M  V30 3427 H 322.254 -0.687104 2.8997 0
M  V30 3428 H 319.791 -0.327709 1.43403 0
M  V30 3429 H 321.749 -3.16081 2.72303 0
M  V30 3430 H 320.379 -2.77508 1.64891 0
M  V30 3431 H 319.431 -1.30676 3.57251 0
M  V30 3432 H 320.743 -1.91788 4.60455 0
M  V30 3433 H 319.897 -4.25671 4.32306 0
M  V30 3434 H 318.636 -3.68537 3.19425 0
M  V30 3435 H 317.641 -2.26526 5.00965 0
M  V30 3436 H 318.866 -2.86589 6.15665 0
M  V30 3437 H 316.812 -4.57448 4.70188 0
M  V30 3438 H 316.729 -4.08385 6.36206 0
M  V30 3439 H 317.997 -5.1555 5.84661 0
M  V30 3440 N 322.226 -1.5378 -0.344866 0
M  V30 3441 C 323.474 -1.70625 -1.08311 0
M  V30 3442 C 323.795 -0.471447 -1.89215 0
M  V30 3443 O 323.065 0.514616 -1.8902 0
M  V30 3444 H 321.645 -0.629058 -0.402859 0
M  V30 3445 H 324.307 -1.9103 -0.386459 0
M  V30 3446 H 323.403 -2.57656 -1.76124 0
M  V30 3447 N 323.704 0.605807 -1.45491 0
M  V30 3448 C 324.951 1.36476 -1.49601 0
M  V30 3449 C 325.279 1.94007 -0.138452 0
M  V30 3450 O 324.534 1.75638 0.863114 0
M  V30 3451 C 324.833 2.53012 -2.52428 0
M  V30 3452 C 324.499 2.13617 -3.97087 0
M  V30 3453 C 323.161 2.02587 -4.36477 0
M  V30 3454 C 325.513 1.82899 -4.88055 0
M  V30 3455 C 322.841 1.59064 -5.64726 0
M  V30 3456 C 325.193 1.40861 -6.16718 0
M  V30 3457 C 323.857 1.28391 -6.55036 0
M  V30 3458 H 323.127 0.499402 -0.547429 0
M  V30 3459 H 325.774 0.684546 -1.78847 0
M  V30 3460 H 324.079 3.26379 -2.16758 0
M  V30 3461 H 325.776 3.1124 -2.52845 0
M  V30 3462 H 322.366 2.23129 -3.65939 0
M  V30 3463 H 326.55 1.90317 -4.58359 0
M  V30 3464 H 321.806 1.48034 -5.93208 0
M  V30 3465 H 325.98 1.16138 -6.86648 0
M  V30 3466 H 323.607 0.944403 -7.54311 0
M  V30 3467 N 325.182 1.32811 0.848464 0
M  V30 3468 C 326.429 1.23724 1.60308 0
M  V30 3469 C 326.757 -0.1994 1.93475 0
M  V30 3470 O 326.012 -1.15406 1.5805 0
M  V30 3471 C 326.311 2.04831 2.92881 0
M  V30 3472 C 325.977 3.54125 2.79117 0
M  V30 3473 C 324.639 3.94829 2.7507 0
M  V30 3474 C 326.991 4.49036 2.64606 0
M  V30 3475 C 324.319 5.28675 2.544 0
M  V30 3476 C 326.671 5.83033 2.4547 0
M  V30 3477 C 325.335 6.22931 2.39819 0
M  V30 3478 H 324.605 0.452737 0.586609 0
M  V30 3479 H 327.252 1.64301 0.983743 0
M  V30 3480 H 325.557 1.57001 3.58968 0
M  V30 3481 H 327.254 1.95164 3.50303 0
M  V30 3482 H 323.844 3.21801 2.83094 0
M  V30 3483 H 328.028 4.18505 2.66772 0
M  V30 3484 H 323.284 5.58637 2.48465 0
M  V30 3485 H 327.458 6.56186 2.33222 0
M  V30 3486 H 325.085 7.26584 2.23562 0
M  V30 3487 N 326.66 -1.06551 1.16123 0
M  V30 3488 C 328.076 -1.3142 0.905585 0
M  V30 3489 C 328.276 -1.96571 -0.442964 0
M  V30 3490 O 327.332 -2.23068 -1.18308 0
M  V30 3491 C 328.645 -2.19741 2.05267 0
M  V30 3492 C 330.193 -2.33165 2.08813 0
M  V30 3493 C 330.668 -3.24838 3.22868 0
M  V30 3494 N 332.159 -3.32421 3.22568 0
M  V30 3495 C 332.894 -4.0344 4.0746 0
M  V30 3496 N 332.39 -4.77003 5.02434 0
M  V30 3497 N 334.183 -3.99464 3.95456 0
M  V30 3498 H 326.334 -0.626548 2.02949 0
M  V30 3499 H 328.597 -0.338777 0.8854 0
M  V30 3500 H 328.303 -1.79142 3.02657 0
M  V30 3501 H 328.177 -3.20313 1.99198 0
M  V30 3502 H 330.564 -2.73013 1.12018 0
M  V30 3503 H 330.645 -1.3227 2.18948 0
M  V30 3504 H 330.289 -2.85708 4.19921 0
M  V30 3505 H 330.219 -4.25707 3.0997 0
M  V30 3506 H 332.71 -2.79994 2.53795 0
M  V30 3507 H 333.023 -5.28712 5.63634 0
M  V30 3508 H 331.368 -4.75992 5.06415 0
M  V30 3509 H 334.559 -3.4111 3.20564 0
M  V30 3510 H 334.732 -4.54544 4.61837 0
M  V30 3511 N 328.138 -0.959301 -1.25041 0
M  V30 3512 C 329.07 -0.440543 -2.24926 0
M  V30 3513 C 330.083 0.446131 -1.56568 0
M  V30 3514 O 331.272 0.253657 -1.76689 0
M  V30 3515 C 328.372 0.38412 -3.36716 0
M  V30 3516 C 327.545 -0.490658 -4.34639 0
M  V30 3517 C 326.604 0.276587 -5.25473 0
M  V30 3518 O 325.63 -0.326614 -5.68262 0
M  V30 3519 N 326.832 1.56844 -5.5891 0
M  V30 3520 H 329.597 -1.29931 -2.70071 0
M  V30 3521 H 327.158 -0.830181 -1.38995 0
M  V30 3522 H 329.15 0.905228 -3.94446 0
M  V30 3523 H 327.72 1.14377 -2.90924 0
M  V30 3524 H 326.94 -1.19282 -3.7572 0
M  V30 3525 H 328.228 -1.08756 -4.97041 0
M  V30 3526 H 327.626 2.08036 -5.26059 0
M  V30 3527 H 326.183 2.03541 -6.19205 0
M  V30 3528 N 329.616 1.39756 -0.72842 0
M  V30 3529 C 330.846 2.04651 -0.283117 0
M  V30 3530 C 331.254 1.5502 1.08469 0
M  V30 3531 O 330.597 0.707343 1.69536 0
M  V30 3532 C 330.659 3.58947 -0.199309 0
M  V30 3533 C 330.323 4.31525 -1.5045 0
M  V30 3534 C 331.32 4.5861 -2.44894 0
M  V30 3535 C 329.005 4.70195 -1.76698 0
M  V30 3536 C 330.999 5.23366 -3.63822 0
M  V30 3537 C 328.686 5.3468 -2.95906 0
M  V30 3538 C 329.684 5.61198 -3.89289 0
M  V30 3539 O 329.372 6.24347 -5.06404 0
M  V30 3540 H 329.104 0.664777 -0.122666 0
M  V30 3541 H 331.658 1.79913 -0.990987 0
M  V30 3542 H 329.888 3.82556 0.56461 0
M  V30 3543 H 331.577 4.0534 0.213125 0
M  V30 3544 H 332.343 4.29187 -2.25883 0
M  V30 3545 H 328.222 4.48916 -1.04859 0
M  V30 3546 H 331.766 5.4398 -4.36728 0
M  V30 3547 H 327.663 5.63524 -3.14819 0
M  V30 3548 H 328.431 6.42842 -5.06652 0
M  V30 3549 N 331.094 0.475555 1.50254 0
M  V30 3550 C 332.505 0.0215174 1.86688 0
M  V30 3551 C 332.856 -1.38467 1.39001 0
M  V30 3552 O 331.981 -2.02732 0.756894 0
M  V30 3553 C 332.576 0.0322715 3.38785 0
M  V30 3554 C 331.135 -0.366314 3.74613 0
M  V30 3555 C 330.282 0.415832 2.74164 0
M  V30 3556 H 333.233 0.689612 1.42934 0
M  V30 3557 H 333.254 -0.76889 3.7265 0
M  V30 3558 H 332.766 1.05584 3.73462 0
M  V30 3559 H 330.867 -1.39406 3.45538 0
M  V30 3560 H 330.98 -0.064555 4.79057 0
M  V30 3561 H 329.344 -0.131048 2.54363 0
M  V30 3562 H 330.127 1.43899 3.11686 0
M  V30 3563 N 332.573 -1.56217 0.208337 0
M  V30 3564 C 333.821 -1.97558 -0.426076 0
M  V30 3565 C 334.142 -1.09683 -1.61229 0
M  V30 3566 O 333.412 -0.170956 -1.95153 0
M  V30 3567 H 331.992 -0.729575 -0.160405 0
M  V30 3568 H 334.654 -1.92606 0.298155 0
M  V30 3569 H 333.75 -3.02672 -0.761312 0
M  V30 3570 N 334.051 0.0651679 -1.57465 0
M  V30 3571 C 335.3 0.761916 -1.86756 0
M  V30 3572 C 335.613 1.78406 -0.801925 0
M  V30 3573 O 336.819 2.53084 -0.982885 0
M  V30 3574 C 335.275 1.40603 -3.31299 0
M  V30 3575 C 334.883 0.422115 -4.46007 0
M  V30 3576 C 336.627 2.08476 -3.69781 0
M  V30 3577 C 334.534 1.07252 -5.81593 0
M  V30 3578 H 333.464 0.288308 -0.696702 0
M  V30 3579 H 336.115 0.015344 -1.83494 0
M  V30 3580 H 334.497 2.20109 -3.29193 0
M  V30 3581 H 335.671 -0.343613 -4.59517 0
M  V30 3582 H 333.986 -0.152527 -4.16121 0
M  V30 3583 H 336.583 2.57925 -4.68379 0
M  V30 3584 H 336.926 2.88712 -2.99919 0
M  V30 3585 H 337.459 1.35792 -3.73905 0
M  V30 3586 H 334.198 0.310342 -6.54765 0
M  V30 3587 H 333.718 1.80895 -5.71872 0
M  V30 3588 H 335.397 1.59043 -6.27148 0
M  V30 3589 N 335.529 1.53961 0.336706 0
M  V30 3590 C 336.476 1.82428 1.41381 0
M  V30 3591 C 337.446 0.670444 1.51968 0
M  V30 3592 O 338.631 0.915565 1.67398 0
M  V30 3593 C 335.771 2.04564 2.77934 0
M  V30 3594 C 334.884 3.32267 2.76084 0
M  V30 3595 C 334.019 3.44434 4.04399 0
M  V30 3596 C 333.058 4.66061 3.96804 0
M  V30 3597 N 332.195 4.75224 5.16823 0
M  V30 3598 H 337.035 2.74324 1.16405 0
M  V30 3599 H 334.572 1.35869 0.563752 0
M  V30 3600 H 336.53 2.15388 3.57301 0
M  V30 3601 H 335.16 1.15974 3.01247 0
M  V30 3602 H 334.212 3.3025 1.88784 0
M  V30 3603 H 335.524 4.21733 2.66351 0
M  V30 3604 H 334.678 3.54728 4.92192 0
M  V30 3605 H 333.417 2.53037 4.16921 0
M  V30 3606 H 332.422 4.55838 3.07396 0
M  V30 3607 H 333.647 5.58829 3.85858 0
M  V30 3608 H 331.593 3.86739 5.29876 0
M  V30 3609 H 331.51 5.58636 5.09374 0
M  V30 3610 H 332.778 4.89835 6.06367 0
M  V30 3611 N 337.007 -0.598083 1.45811 0
M  V30 3612 C 338.253 -1.35679 1.51535 0
M  V30 3613 C 338.608 -1.91745 0.15864 0
M  V30 3614 O 337.901 -1.72654 -0.830724 0
M  V30 3615 C 338.095 -2.51669 2.53766 0
M  V30 3616 C 337.924 -2.06963 3.99245 0
M  V30 3617 C 336.694 -1.92693 4.67116 0
M  V30 3618 C 338.892 -1.63855 4.875 0
M  V30 3619 N 336.874 -1.41897 5.97276 0
M  V30 3620 C 338.245 -1.24541 6.07363 0
M  V30 3621 C 340.3 -1.51533 4.74281 0
M  V30 3622 C 339.003 -0.741354 7.15469 0
M  V30 3623 C 341.029 -1.0253 5.82444 0
M  V30 3624 C 340.391 -0.641869 7.01469 0
M  V30 3625 H 336.49 -0.490042 0.609412 0
M  V30 3626 H 339.074 -0.682687 1.82339 0
M  V30 3627 H 337.245 -3.16663 2.24898 0
M  V30 3628 H 338.977 -3.18578 2.4958 0
M  V30 3629 H 335.732 -2.1417 4.22408 0
M  V30 3630 H 336.156 -1.18704 6.66512 0
M  V30 3631 H 340.798 -1.798 3.82664 0
M  V30 3632 H 338.516 -0.446243 8.06867 0
M  V30 3633 H 342.102 -0.934088 5.74253 0
M  V30 3634 H 340.982 -0.268531 7.8374 0
M  V30 3635 N 338.485 -1.33259 -0.841409 0
M  V30 3636 C 339.395 -1.25332 -1.98316 0
M  V30 3637 C 340.411 -0.164364 -1.73222 0
M  V30 3638 O 341.587 -0.387486 -1.97637 0
M  V30 3639 C 338.652 -0.990078 -3.32262 0
M  V30 3640 C 337.713 -2.16879 -3.70489 0
M  V30 3641 C 336.946 -1.91801 -4.98044 0
M  V30 3642 O 337.169 -0.867075 -5.63771 0
M  V30 3643 O 336.103 -2.78267 -5.33714 0
M  V30 3644 H 339.929 -2.21344 -2.07944 0
M  V30 3645 H 337.514 -1.1328 -0.974058 0
M  V30 3646 H 339.396 -0.860321 -4.12524 0
M  V30 3647 H 338.071 -0.0602155 -3.23644 0
M  V30 3648 H 336.978 -2.35407 -2.90748 0
M  V30 3649 H 338.311 -3.0819 -3.8377 0
M  V30 3650 N 339.963 1.05934 -1.16686 0
M  V30 3651 C 341.374 1.60263 -0.957745 0
M  V30 3652 C 341.725 1.89789 0.49745 0
M  V30 3653 O 340.85 1.67401 1.37135 0
M  V30 3654 C 341.445 2.91172 -1.73218 0
M  V30 3655 C 340.004 3.42188 -1.56794 0
M  V30 3656 C 339.151 2.16028 -1.73859 0
M  V30 3657 H 342.102 0.888392 -1.31504 0
M  V30 3658 H 342.123 3.60744 -1.21014 0
M  V30 3659 H 341.635 2.6965 -2.79124 0
M  V30 3660 H 339.736 3.68762 -0.533437 0
M  V30 3661 H 339.849 4.17273 -2.35414 0
M  V30 3662 H 338.213 2.26426 -1.16633 0
M  V30 3663 H 338.996 1.96985 -2.81161 0
M  V30 3664 N 341.441 0.965919 1.2453 0
M  V30 3665 C 342.718 0.543777 1.87889 0
M  V30 3666 C 343.098 -0.97909 1.87021 0
M  V30 3667 O 342.446 -1.84969 1.3416 0
M  V30 3668 C 342.656 1.13327 3.30088 0
M  V30 3669 C 344.004 1.21707 4.06783 0
M  V30 3670 O 345.028 1.08566 3.39252 0
M  V30 3671 O 343.887 1.42456 5.27606 0
M  V30 3672 H 340.981 0.181054 0.806938 0
M  V30 3673 H 343.527 1.06007 1.32516 0
M  V30 3674 H 342.299 2.17612 3.25209 0
M  V30 3675 H 341.922 0.600911 3.93033 0
M  V30 3676 N 342.919 -1.39368 0.735821 0
M  V30 3677 C 343.829 -2.34395 0.0979693 0
M  V30 3678 C 344.845 -1.58361 -0.720968 0
M  V30 3679 O 346.021 -1.90648 -0.649245 0
M  V30 3680 C 343.086 -3.37393 -0.797916 0
M  V30 3681 C 342.147 -4.29287 0.0333662 0
M  V30 3682 C 341.38 -5.27365 -0.819854 0
M  V30 3683 O 341.603 -5.31959 -2.05855 0
M  V30 3684 O 340.537 -6.01389 -0.248079 0
M  V30 3685 H 344.363 -2.90601 0.882315 0
M  V30 3686 H 341.948 -1.40909 0.4965 0
M  V30 3687 H 343.83 -4.00505 -1.31048 0
M  V30 3688 H 342.505 -2.83571 -1.56106 0
M  V30 3689 H 341.412 -3.69395 0.591475 0
M  V30 3690 H 342.745 -4.86317 0.758752 0
M  V30 3691 N 344.397 -0.483516 -1.5 0
M  V30 3692 C 345.345 0.318061 -2.30415 0
M  V30 3693 C 346.339 0.978988 -1.38247 0
M  V30 3694 O 347.545 0.908673 -1.55381 0
M  V30 3695 H 343.92 0.121419 -0.742133 0
M  V30 3696 H 345.891 -0.380403 -2.95965 0
M  V30 3697 C 344.64 1.38013 -3.19136 0
M  V30 3698 H 343.963 0.880952 -3.89973 0
M  V30 3699 H 345.403 1.91332 -3.78375 0
M  V30 3700 C 343.862 2.38884 -2.37563 0
M  V30 3701 O 344.392 3.44412 -2.06744 0
M  V30 3702 N 342.598 2.10912 -1.99911 0
M  V30 3703 H 342.145 1.25118 -2.25174 0
M  V30 3704 H 342.103 2.78635 -1.45636 0
M  V30 3705 N 345.875 1.56104 -0.216619 0
M  V30 3706 C 347.123 1.97781 0.415593 0
M  V30 3707 C 347.444 1.10536 1.60645 0
M  V30 3708 O 346.714 0.181303 1.95059 0
M  V30 3709 H 345.294 0.730415 0.156534 0
M  V30 3710 H 347.956 1.92445 -0.308366 0
M  V30 3711 H 347.052 3.03072 0.74525 0
M  V30 3712 N 347.353 -0.0568162 1.57498 0
M  V30 3713 C 348.599 -0.75422 1.88253 0
M  V30 3714 C 348.932 -1.76461 0.810865 0
M  V30 3715 O 348.207 -1.93691 -0.177259 0
M  V30 3716 C 348.49 -1.44878 3.2967 0
M  V30 3717 C 348.343 -0.453789 4.47505 0
M  V30 3718 C 349.662 -2.38994 3.69554 0
M  V30 3719 H 346.781 -0.272724 0.684683 0
M  V30 3720 H 349.423 -0.0172113 1.89992 0
M  V30 3721 H 347.573 -2.077 3.28318 0
M  V30 3722 H 349.245 0.170371 4.60985 0
M  V30 3723 H 347.488 0.229552 4.33192 0
M  V30 3724 H 348.159 -0.977699 5.43273 0
M  V30 3725 H 350.635 -1.86239 3.72095 0
M  V30 3726 H 349.511 -2.84587 4.69363 0
M  V30 3727 H 349.772 -3.24461 3.00296 0
M  V30 3728 N 348.832 -1.54138 -0.328536 0
M  V30 3729 C 350.081 -1.71318 -1.06456 0
M  V30 3730 C 350.394 -0.491109 -1.89334 0
M  V30 3731 O 351.6 -0.54416 -2.65991 0
M  V30 3732 C 350.056 -3.03 -1.94214 0
M  V30 3733 C 349.664 -4.32595 -1.16471 0
M  V30 3734 C 351.408 -3.29544 -2.67583 0
M  V30 3735 C 349.315 -5.55341 -2.03347 0
M  V30 3736 H 348.245 -0.638429 -0.401155 0
M  V30 3737 H 350.896 -1.80633 -0.323106 0
M  V30 3738 H 349.278 -2.87579 -2.72239 0
M  V30 3739 H 350.452 -4.58766 -0.432525 0
M  V30 3740 H 348.767 -4.12777 -0.548063 0
M  V30 3741 H 351.364 -4.18444 -3.3288 0
M  V30 3742 H 351.707 -2.47206 -3.34955 0
M  V30 3743 H 352.24 -3.45809 -1.96623 0
M  V30 3744 H 348.979 -6.40268 -1.40491 0
M  V30 3745 H 348.499 -5.33397 -2.74313 0
M  V30 3746 H 350.178 -5.91557 -2.62049 0
M  V30 3747 N 350.31 0.590341 -1.46126 0
M  V30 3748 C 351.273 1.68194 -1.55703 0
M  V30 3749 C 352.273 1.54808 -0.434868 0
M  V30 3750 O 353.463 1.59564 -0.698928 0
M  V30 3751 C 350.595 3.07575 -1.47005 0
M  V30 3752 H 351.788 1.61064 -2.52979 0
M  V30 3753 H 349.341 0.807541 -1.33823 0
M  V30 3754 H 350.076 3.20268 -0.509785 0
M  V30 3755 H 349.861 3.187 -2.28414 0
M  V30 3756 H 351.351 3.87055 -1.56776 0
M  V30 3757 N 351.788 1.33704 0.83433 0
M  V30 3758 C 353.035 1.25417 1.58987 0
M  V30 3759 C 353.363 -0.178869 1.93676 0
M  V30 3760 O 352.618 -1.13723 1.59265 0
M  V30 3761 C 352.917 2.07926 2.90692 0
M  V30 3762 C 352.583 3.57066 2.75345 0
M  V30 3763 C 351.245 3.97724 2.70867 0
M  V30 3764 C 353.597 4.51817 2.59828 0
M  V30 3765 C 350.925 5.31344 2.48778 0
M  V30 3766 C 353.277 5.85604 2.39272 0
M  V30 3767 C 351.941 6.25439 2.33199 0
M  V30 3768 H 351.211 0.458934 0.581774 0
M  V30 3769 H 353.858 1.65335 0.966261 0
M  V30 3770 H 352.163 1.608 3.57282 0
M  V30 3771 H 353.86 1.98868 3.48213 0
M  V30 3772 H 350.45 3.24785 2.79665 0
M  V30 3773 H 354.634 4.21311 2.62319 0
M  V30 3774 H 349.89 5.61241 2.42526 0
M  V30 3775 H 354.064 6.58623 2.2625 0
M  V30 3776 H 351.691 7.28914 2.15843 0
M  V30 3777 N 353.266 -1.05314 1.17247 0
M  V30 3778 C 354.543 -1.75184 0.87005 0
M  V30 3779 C 354.923 -2.01481 -0.629965 0
M  V30 3780 O 354.271 -1.64988 -1.58086 0
M  V30 3781 C 354.481 -3.04594 1.70363 0
M  V30 3782 C 355.829 -3.78567 1.92281 0
M  V30 3783 O 356.853 -3.14461 1.67311 0
M  V30 3784 O 355.712 -4.93755 2.3424 0
M  V30 3785 H 352.806 -0.761729 0.322021 0
M  V30 3786 H 355.352 -1.11493 1.27935 0
M  V30 3787 H 354.124 -2.81201 2.72106 0
M  V30 3788 H 353.747 -3.76022 1.29202 0
M  V30 3789 N 354.744 -0.972509 -1.24016 0
M  V30 3790 C 355.984 -0.644951 -1.93958 0
M  V30 3791 C 356.348 0.80559 -1.74282 0
M  V30 3792 O 357.549 1.2436 -2.38302 0
M  V30 3793 C 355.82 -1.01521 -3.42678 0
M  V30 3794 S 357.379 -0.802927 -4.31391 0
M  V30 3795 H 354.197 -0.236452 -0.670531 0
M  V30 3796 H 356.799 -1.25048 -1.50277 0
M  V30 3797 H 355.503 -2.06769 -3.54506 0
M  V30 3798 H 355.034 -0.400648 -3.91355 0
M  V30 3799 H 357.049 0.317256 -4.95185 0
M  V30 3800 N 356.222 1.38976 -0.743202 0
M  V30 3801 C 357.638 1.53984 -0.419664 0
M  V30 3802 C 357.838 1.70837 1.0685 0
M  V30 3803 O 356.894 1.7135 1.8546 0
M  V30 3804 C 358.207 2.75287 -1.20985 0
M  V30 3805 C 359.755 2.89129 -1.19889 0
M  V30 3806 C 360.23 4.13381 -1.97181 0
M  V30 3807 N 361.721 4.20437 -1.94389 0
M  V30 3808 C 362.456 5.15547 -2.50996 0
M  V30 3809 N 361.952 6.16395 -3.16274 0
M  V30 3810 N 363.745 5.07822 -2.40984 0
M  V30 3811 H 355.896 1.26285 -1.7078 0
M  V30 3812 H 358.159 0.612689 -0.723406 0
M  V30 3813 H 357.865 2.69204 -2.26323 0
M  V30 3814 H 357.739 3.68184 -0.819759 0
M  V30 3815 H 360.126 2.947 -0.153606 0
M  V30 3816 H 360.207 1.97272 -1.62841 0
M  V30 3817 H 359.851 4.08572 -3.01714 0
M  V30 3818 H 359.781 5.04298 -1.51629 0
M  V30 3819 H 362.272 3.48205 -1.46839 0
M  V30 3820 H 362.585 6.85443 -3.56915 0
M  V30 3821 H 360.93 6.16758 -3.20367 0
M  V30 3822 H 364.121 4.27973 -1.89622 0
M  V30 3823 H 364.294 5.81767 -2.85397 0
M  V30 3824 N 357.7 0.491464 1.49741 0
M  V30 3825 C 358.648 -0.305837 2.30581 0
M  V30 3826 C 359.642 -0.971642 1.38764 0
M  V30 3827 O 360.848 -0.90042 1.5586 0
M  V30 3828 H 357.223 -0.117482 0.742767 0
M  V30 3829 H 359.194 0.396093 2.95759 0
M  V30 3830 C 357.943 -1.36319 3.19863 0
M  V30 3831 H 357.266 -0.860258 3.90435 0
M  V30 3832 H 358.706 -1.89323 3.79385 0
M  V30 3833 C 357.165 -2.37621 2.38826 0
M  V30 3834 O 357.695 -3.43311 2.08567 0
M  V30 3835 N 355.901 -2.09849 2.01026 0
M  V30 3836 H 355.448 -1.23922 2.25834 0
M  V30 3837 H 355.406 -2.77859 1.47112 0
M  V30 3838 N 359.178 -1.55987 0.224894 0
M  V30 3839 C 360.594 -1.59066 -0.130426 0
M  V30 3840 C 360.794 -1.24176 -1.5869 0
M  V30 3841 O 359.85 -0.978592 -2.32766 0
M  V30 3842 C 361.163 -3.00042 0.198883 0
M  V30 3843 C 362.711 -3.1268 0.141391 0
M  V30 3844 C 363.186 -4.55839 0.444422 0
M  V30 3845 N 364.677 -4.6152 0.394115 0
M  V30 3846 C 365.412 -5.70231 0.602038 0
M  V30 3847 N 364.908 -6.87291 0.871914 0
M  V30 3848 N 366.701 -5.59555 0.534245 0
M  V30 3849 H 358.852 -1.76941 1.17497 0
M  V30 3850 H 361.115 -0.822604 0.471197 0
M  V30 3851 H 360.821 -3.30234 1.2099 0
M  V30 3852 H 360.695 -3.74075 -0.484535 0
M  V30 3853 H 363.082 -2.82283 -0.860265 0
M  V30 3854 H 363.163 -2.40969 0.858335 0
M  V30 3855 H 362.807 -4.86954 1.44353 0
M  V30 3856 H 362.737 -5.2578 -0.293752 0
M  V30 3857 H 365.228 -3.77405 0.193356 0
M  V30 3858 H 365.541 -7.66058 1.01858 0
M  V30 3859 H 363.886 -6.89028 0.909145 0
M  V30 3860 H 367.077 -4.6698 0.323612 0
M  V30 3861 H 367.25 -6.44211 0.699693 0
M  V30 3862 N 360.656 0.0484629 -1.57525 0
M  V30 3863 C 361.603 1.05504 -2.05275 0
M  V30 3864 C 362.573 1.37084 -0.937927 0
M  V30 3865 O 363.758 1.47754 -1.2072 0
M  V30 3866 C 360.898 2.35676 -2.52093 0
M  V30 3867 C 360.011 2.10423 -3.77288 0
M  V30 3868 C 359.146 3.34327 -4.12794 0
M  V30 3869 C 358.185 3.04542 -5.30962 0
M  V30 3870 N 357.322 4.20841 -5.61994 0
M  V30 3871 H 362.162 0.640885 -2.91027 0
M  V30 3872 H 359.699 0.304854 -1.43906 0
M  V30 3873 H 361.657 3.11709 -2.77297 0
M  V30 3874 H 360.287 2.7485 -1.69285 0
M  V30 3875 H 359.339 1.24976 -3.59284 0
M  V30 3876 H 360.651 1.84438 -4.63448 0
M  V30 3877 H 359.805 4.1874 -4.39024 0
M  V30 3878 H 358.544 3.63408 -3.25247 0
M  V30 3879 H 357.549 2.18528 -5.04505 0
M  V30 3880 H 358.774 2.76758 -6.20146 0
M  V30 3881 H 356.72 4.4991 -4.77406 0
M  V30 3882 H 356.637 3.98212 -6.42622 0
M  V30 3883 H 357.905 5.06184 -5.92789 0
M  V30 3884 N 362.134 1.5431 0.320358 0
M  V30 3885 C 363.38 1.73859 1.05568 0
M  V30 3886 C 363.735 0.507807 1.85578 0
M  V30 3887 O 363.028 -0.499789 1.84967 0
M  V30 3888 C 363.222 2.95639 2.00828 0
M  V30 3889 C 363.051 4.30444 1.30186 0
M  V30 3890 C 361.821 4.94544 1.03703 0
M  V30 3891 C 364.019 5.0929 0.716138 0
M  V30 3892 N 362.001 6.13172 0.298846 0
M  V30 3893 C 363.372 6.19903 0.109729 0
M  V30 3894 C 365.427 4.94034 0.619269 0
M  V30 3895 C 364.13 7.16924 -0.584153 0
M  V30 3896 C 366.156 5.91369 -0.0609184 0
M  V30 3897 C 365.518 7.01336 -0.656258 0
M  V30 3898 H 361.617 0.688988 0.36989 0
M  V30 3899 H 364.201 1.9177 0.336494 0
M  V30 3900 H 362.372 2.79188 2.70016 0
M  V30 3901 H 364.104 3.03802 2.6737 0
M  V30 3902 H 360.859 4.54536 1.33019 0
M  V30 3903 H 361.283 6.76977 -0.0561964 0
M  V30 3904 H 365.925 4.0916 1.06526 0
M  V30 3905 H 363.643 8.01354 -1.04197 0
M  V30 3906 H 367.229 5.81642 -0.135552 0
M  V30 3907 H 366.109 7.75359 -1.17423 0
M  V30 3908 N 363.613 -0.582584 1.46437 0
M  V30 3909 C 364.843 -1.36484 1.55099 0
M  V30 3910 C 365.251 -1.88233 0.191056 0
M  V30 3911 O 364.594 -1.6429 -0.821858 0
M  V30 3912 C 364.656 -2.588 2.49525 0
M  V30 3913 C 364.32 -2.28517 3.95764 0
M  V30 3914 C 365.317 -1.87346 4.84972 0
M  V30 3915 C 363.002 -2.40658 4.40896 0
M  V30 3916 C 364.996 -1.5871 6.17325 0
M  V30 3917 C 362.683 -2.11635 5.73284 0
M  V30 3918 C 363.681 -1.70725 6.61318 0
M  V30 3919 O 363.369 -1.42057 7.91249 0
M  V30 3920 H 363.101 -0.423297 0.527063 0
M  V30 3921 H 365.655 -0.715188 1.92547 0
M  V30 3922 H 363.885 -3.26571 2.07095 0
M  V30 3923 H 365.574 -3.20868 2.48593 0
M  V30 3924 H 366.34 -1.77481 4.5136 0
M  V30 3925 H 362.219 -2.71463 3.72598 0
M  V30 3926 H 365.763 -1.26704 6.85997 0
M  V30 3927 H 361.66 -2.21124 6.06444 0
M  V30 3928 H 362.428 -1.55901 8.03515 0
M  V30 3929 N 365.091 -1.34144 -0.827227 0
M  V30 3930 C 366.34 -1.25602 -1.5782 0
M  V30 3931 C 366.653 0.173445 -1.94829 0
M  V30 3932 O 367.859 0.380984 -2.68814 0
M  V30 3933 C 366.315 -2.20151 -2.84713 0
M  V30 3934 C 365.923 -3.68331 -2.55021 0
M  V30 3935 C 367.667 -2.20508 -3.62735 0
M  V30 3936 C 365.574 -4.54762 -3.78082 0
M  V30 3937 H 364.504 -0.466573 -0.592306 0
M  V30 3938 H 367.155 -1.59283 -0.911116 0
M  V30 3939 H 365.537 -1.79417 -3.53023 0
M  V30 3940 H 366.711 -4.17577 -1.94849 0
M  V30 3941 H 365.026 -3.7038 -1.90283 0
M  V30 3942 H 367.623 -2.82306 -4.54101 0
M  V30 3943 H 367.966 -1.20322 -3.98533 0
M  V30 3944 H 368.499 -2.59664 -3.01362 0
M  V30 3945 H 365.238 -5.55867 -3.47407 0
M  V30 3946 H 364.758 -4.10254 -4.37552 0
M  V30 3947 H 366.437 -4.69153 -4.45538 0
M  V30 3948 N 366.569 1.04691 -1.17803 0
M  V30 3949 C 367.501 2.12571 -0.857097 0
M  V30 3950 C 368.514 1.62174 0.142647 0
M  V30 3951 O 369.703 1.78301 -0.0843387 0
M  V30 3952 C 366.803 3.37915 -0.258216 0
M  V30 3953 C 365.976 4.1757 -1.30207 0
M  V30 3954 C 365.035 5.2125 -0.720029 0
M  V30 3955 O 364.061 5.51888 -1.39314 0
M  V30 3956 N 365.263 5.78466 0.485507 0
M  V30 3957 H 368.028 2.40698 -1.78562 0
M  V30 3958 H 365.589 1.20831 -1.07757 0
M  V30 3959 H 367.581 4.04442 0.144584 0
M  V30 3960 H 366.151 3.07281 0.574199 0
M  V30 3961 H 365.371 3.46458 -1.88043 0
M  V30 3962 H 366.659 4.67586 -2.00601 0
M  V30 3963 H 366.057 5.55866 1.05022 0
M  V30 3964 H 364.614 6.4649 0.830307 0
M  V30 3965 N 368.047 0.979072 1.23499 0
M  V30 3966 C 369.01 0.523244 2.23147 0
M  V30 3967 C 370.01 -0.386406 1.56088 0
M  V30 3968 O 371.2 -0.180283 1.73265 0
M  V30 3969 C 368.332 -0.240739 3.40049 0
M  V30 3970 H 369.525 1.40432 2.64989 0
M  V30 3971 H 367.078 0.764824 1.36309 0
M  V30 3972 H 367.813 -1.13841 3.03662 0
M  V30 3973 H 367.598 0.412207 3.89927 0
M  V30 3974 H 369.088 -0.548297 4.13985 0
M  V30 3975 N 369.525 -1.3858 0.750561 0
M  V30 3976 C 370.488 -2.28836 0.129152 0
M  V30 3977 C 371.488 -1.47045 -0.650714 0
M  V30 3978 O 372.678 -1.6753 -0.477428 0
M  V30 3979 C 369.81 -3.30751 -0.825622 0
M  V30 3980 H 371.003 -2.85294 0.924516 0
M  V30 3981 H 368.556 -1.47489 0.517376 0
M  V30 3982 H 369.291 -2.79378 -1.64677 0
M  V30 3983 H 369.076 -3.91177 -0.268852 0
M  V30 3984 H 370.566 -3.98249 -1.2565 0
M  V30 3985 N 371.003 -0.499398 -1.49478 0
M  V30 3986 C 372.231 0.0425456 -2.06856 0
M  V30 3987 C 372.646 1.30964 -1.35992 0
M  V30 3988 O 372.003 1.77172 -0.437762 0
M  V30 3989 C 372.054 0.301735 -3.60239 0
M  V30 3990 O 371.775 -0.915127 -4.28436 0
M  V30 3991 C 373.276 0.887499 -4.34325 0
M  V30 3992 H 370.496 -0.0197482 -0.670709 0
M  V30 3993 H 373.04 -0.696297 -1.92281 0
M  V30 3994 H 371.195 0.990556 -3.74522 0
M  V30 3995 H 371.609 -0.676993 -5.20113 0
M  V30 3996 H 373.083 1.01845 -5.42523 0
M  V30 3997 H 373.56 1.88488 -3.96698 0
M  V30 3998 H 374.166 0.236196 -4.24644 0
M  V30 3999 N 372.481 1.55866 -0.233164 0
M  V30 4000 C 373.706 2.03449 0.402906 0
M  V30 4001 C 374.131 1.11166 1.51736 0
M  V30 4002 O 373.489 0.101996 1.81013 0
M  V30 4003 C 373.537 3.49165 0.9009 0
M  V30 4004 O 372.641 3.60019 2.01147 0
M  V30 4005 H 371.982 0.657913 0.0897025 0
M  V30 4006 H 374.512 2.01493 -0.355201 0
M  V30 4007 H 374.522 3.89716 1.2077 0
M  V30 4008 H 373.197 4.15813 0.0852889 0
M  V30 4009 H 371.774 3.3136 1.71042 0
M  V30 4010 N 373.959 -0.0401083 1.57549 0
M  V30 4011 C 375.37 -0.588097 1.77196 0
M  V30 4012 C 375.721 -1.76209 0.862832 0
M  V30 4013 O 374.846 -2.16331 0.0548389 0
M  V30 4014 C 375.441 -1.07363 3.21339 0
M  V30 4015 C 374 -1.56723 3.42221 0
M  V30 4016 C 373.147 -0.50041 2.72747 0
M  V30 4017 H 376.098 0.186119 1.57605 0
M  V30 4018 H 376.119 -1.94143 3.27244 0
M  V30 4019 H 375.631 -0.218975 3.87482 0
M  V30 4020 H 373.732 -2.4441 2.81237 0
M  V30 4021 H 373.845 -1.62234 4.50796 0
M  V30 4022 H 372.209 -0.952894 2.36203 0
M  V30 4023 H 372.992 0.344599 3.41566 0
M  V30 4024 N 375.437 -1.54477 -0.31217 0
M  V30 4025 C 376.384 -1.84655 -1.38461 0
M  V30 4026 C 377.354 -0.694536 -1.50882 0
M  V30 4027 O 378.539 -0.942081 -1.6592 0
M  V30 4028 C 375.679 -2.0896 -2.74645 0
M  V30 4029 C 374.792 -3.36618 -2.70763 0
M  V30 4030 C 373.927 -3.50824 -3.98868 0
M  V30 4031 C 372.966 -4.72315 -3.89339 0
M  V30 4032 N 372.103 -4.83387 -5.09197 0
M  V30 4033 H 376.943 -2.76142 -1.12026 0
M  V30 4034 H 374.48 -1.36748 -0.542065 0
M  V30 4035 H 376.438 -2.21045 -3.53829 0
M  V30 4036 H 375.068 -1.20752 -2.99364 0
M  V30 4037 H 374.12 -3.33211 -1.83506 0
M  V30 4038 H 375.432 -4.25917 -2.59608 0
M  V30 4039 H 374.586 -3.62513 -4.86486 0
M  V30 4040 H 373.325 -2.59638 -4.12843 0
M  V30 4041 H 372.33 -4.6067 -3.00105 0
M  V30 4042 H 373.555 -5.64897 -3.76919 0
M  V30 4043 H 371.501 -3.9512 -5.23657 0
M  V30 4044 H 371.418 -5.66669 -5.00422 0
M  V30 4045 H 372.686 -4.9942 -5.98498 0
M  V30 4046 N 376.915 0.57481 -1.46744 0
M  V30 4047 C 378.192 1.3352 -1.4294 0
M  V30 4048 C 378.572 2.10775 -0.117009 0
M  V30 4049 O 377.92 2.09966 0.901474 0
M  V30 4050 C 378.13 2.25456 -2.66403 0
M  V30 4051 C 379.478 2.87035 -3.12883 0
M  V30 4052 O 380.502 2.35766 -2.67007 0
M  V30 4053 O 379.361 3.80179 -3.92589 0
M  V30 4054 H 376.455 0.600318 -0.568812 0
M  V30 4055 H 379.001 0.595171 -1.58921 0
M  V30 4056 H 377.773 1.67851 -3.53471 0
M  V30 4057 H 377.396 3.06785 -2.52921 0
M  V30 4058 N 378.394 1.34581 0.820102 0
M  V30 4059 C 379.64 1.27285 1.57881 0
M  V30 4060 C 379.973 -0.156137 1.93571 0
M  V30 4061 O 379.248 -1.10222 1.60254 0
M  V30 4062 C 379.531 2.16639 2.87645 0
M  V30 4063 C 379.384 3.68088 2.58517 0
M  V30 4064 C 380.703 2.05378 3.8924 0
M  V30 4065 H 377.822 0.463714 0.572833 0
M  V30 4066 H 380.464 1.64859 0.944539 0
M  V30 4067 H 378.614 1.84725 3.41773 0
M  V30 4068 H 380.286 4.10382 2.10676 0
M  V30 4069 H 378.529 3.89038 1.91917 0
M  V30 4070 H 379.2 4.2598 3.51063 0
M  V30 4071 H 381.676 2.33404 3.44473 0
M  V30 4072 H 380.552 2.7012 4.77835 0
M  V30 4073 H 380.813 1.0316 4.29896 0
M  V30 4074 N 379.872 -1.04064 1.18357 0
M  V30 4075 C 381.118 -1.77528 0.980397 0
M  V30 4076 C 381.451 -1.87948 -0.48879 0
M  V30 4077 O 380.726 -1.3876 -1.36293 0
M  V30 4078 C 381.009 -3.20797 1.63588 0
M  V30 4079 C 380.862 -3.1832 3.17793 0
M  V30 4080 C 382.181 -4.18911 1.34914 0
M  V30 4081 H 379.3 -0.644443 0.357578 0
M  V30 4082 H 381.942 -1.2156 1.46024 0
M  V30 4083 H 380.092 -3.68586 1.22788 0
M  V30 4084 H 381.764 -2.78521 3.67728 0
M  V30 4085 H 380.007 -2.56351 3.49952 0
M  V30 4086 H 380.678 -4.19489 3.58794 0
M  V30 4087 H 383.154 -3.7967 1.70265 0
M  V30 4088 H 382.03 -5.17374 1.83346 0
M  V30 4089 H 382.291 -4.41262 0.272027 0
M  V30 4090 N 381.35 -0.985608 -1.22978 0
M  V30 4091 C 382.599 -0.652881 -1.90841 0
M  V30 4092 C 382.912 0.817842 -1.77681 0
M  V30 4093 O 384.118 1.26185 -2.40395 0
M  V30 4094 C 382.574 -1.11717 -3.42122 0
M  V30 4095 C 382.182 -2.6126 -3.63933 0
M  V30 4096 C 383.926 -0.85843 -4.1573 0
M  V30 4097 C 381.833 -3.0133 -5.08876 0
M  V30 4098 H 380.763 -0.240491 -0.714619 0
M  V30 4099 H 383.414 -1.1942 -1.39324 0
M  V30 4100 H 381.796 -0.504027 -3.92779 0
M  V30 4101 H 382.97 -3.27858 -3.23799 0
M  V30 4102 H 381.285 -2.84937 -3.03644 0
M  V30 4103 H 383.882 -1.13359 -5.22546 0
M  V30 4104 H 384.225 0.205461 -4.15793 0
M  V30 4105 H 384.758 -1.43341 -3.71077 0
M  V30 4106 H 381.497 -4.06864 -5.13947 0
M  V30 4107 H 381.017 -2.3943 -5.49939 0
M  V30 4108 H 382.696 -2.92224 -5.77247 0
M  V30 4109 N 382.828 1.3818 -0.7579 0
M  V30 4110 C 383.758 2.33027 -0.148597 0
M  V30 4111 C 384.739 1.55085 0.69875 0
M  V30 4112 O 385.924 1.83384 0.639053 0
M  V30 4113 C 383.054 3.3928 0.742034 0
M  V30 4114 C 382.008 4.28 -0.00291946 0
M  V30 4115 C 381.334 5.25146 1.00625 0
M  V30 4116 C 382.634 5.08938 -1.17385 0
M  V30 4117 H 384.328 2.84231 -0.940909 0
M  V30 4118 H 381.874 1.36659 -0.453908 0
M  V30 4119 H 383.827 4.046 1.17799 0
M  V30 4120 H 382.551 2.86569 1.56671 0
M  V30 4121 H 381.21 3.64192 -0.419504 0
M  V30 4122 H 380.858 4.68721 1.8251 0
M  V30 4123 H 380.558 5.85361 0.512428 0
M  V30 4124 H 382.082 5.93342 1.44143 0
M  V30 4125 H 383.496 5.67474 -0.815224 0
M  V30 4126 H 381.893 5.7841 -1.59882 0
M  V30 4127 H 382.963 4.42424 -1.98468 0
M  V30 4128 N 384.306 0.507319 1.49211 0
M  V30 4129 C 385.552 -0.0350047 2.0277 0
M  V30 4130 C 385.885 -1.3606 1.38569 0
M  V30 4131 O 385.16 -1.87321 0.523542 0
M  V30 4132 C 385.443 -0.180916 3.59645 0
M  V30 4133 C 385.296 1.16825 4.34364 0
M  V30 4134 C 386.615 -0.918558 4.30407 0
M  V30 4135 H 383.734 -0.0112473 0.736914 0
M  V30 4136 H 386.376 0.659956 1.7817 0
M  V30 4137 H 384.526 -0.772826 3.80736 0
M  V30 4138 H 386.198 1.79952 4.24753 0
M  V30 4139 H 384.441 1.75594 3.96673 0
M  V30 4140 H 385.112 1.01939 5.42506 0
M  V30 4141 H 387.588 -0.41649 4.1401 0
M  V30 4142 H 386.464 -0.989505 5.39907 0
M  V30 4143 H 386.725 -1.96373 3.96093 0
M  V30 4144 N 385.784 -1.5574 0.241426 0
M  V30 4145 C 387.061 -1.90704 -0.434881 0
M  V30 4146 C 387.441 -1.16145 -1.76277 0
M  V30 4147 O 386.789 -0.277152 -2.26813 0
M  V30 4148 C 386.999 -3.43657 -0.608343 0
M  V30 4149 C 388.347 -4.14806 -0.906725 0
M  V30 4150 O 389.371 -3.49366 -0.694408 0
M  V30 4151 O 388.23 -5.30548 -1.31075 0
M  V30 4152 H 385.324 -0.793592 -0.23268 0
M  V30 4153 H 387.87 -1.67288 0.285086 0
M  V30 4154 H 386.642 -3.89927 0.327505 0
M  V30 4155 H 386.265 -3.72918 -1.37906 0
M  V30 4156 N 387.262 0.0317525 -1.57568 0
M  V30 4157 C 388.508 0.724175 -1.8943 0
M  V30 4158 C 388.841 1.75149 -0.838836 0
M  V30 4159 O 388.116 1.93948 0.146422 0
M  V30 4160 C 388.399 1.39615 -3.31933 0
M  V30 4161 C 388.252 0.382537 -4.4817 0
M  V30 4162 C 389.571 2.33084 -3.73309 0
M  V30 4163 H 386.69 0.261797 -0.688935 0
M  V30 4164 H 389.332 -0.013017 -1.89996 0
M  V30 4165 H 387.482 2.02451 -3.31581 0
M  V30 4166 H 389.154 -0.243689 -4.60656 0
M  V30 4167 H 387.397 -0.29844 -4.32772 0
M  V30 4168 H 388.068 0.891145 -5.44759 0
M  V30 4169 H 390.544 1.80295 -3.7501 0
M  V30 4170 H 389.42 2.77084 -4.73831 0
M  V30 4171 H 389.681 3.19643 -3.05419 0
M  V30 4172 N 388.74 1.54641 0.303973 0
M  V30 4173 C 389.965 1.78092 1.06292 0
M  V30 4174 C 390.39 0.537342 1.80262 0
M  V30 4175 O 389.748 -0.511993 1.7392 0
M  V30 4176 C 389.796 2.98612 2.02147 0
M  V30 4177 O 388.9 2.71528 3.10397 0
M  V30 4178 H 388.241 0.589548 0.305497 0
M  V30 4179 H 390.771 2.01716 0.3423 0
M  V30 4180 H 390.781 3.265 2.44667 0
M  V30 4181 H 389.456 3.88785 1.47714 0
M  V30 4182 H 388.033 2.54648 2.72413 0
M  V30 4183 N 390.218 -0.567019 1.47046 0
M  V30 4184 C 391.466 -1.322 1.52864 0
M  V30 4185 C 391.787 -1.94088 0.188388 0
M  V30 4186 O 391.057 -1.7941 -0.786693 0
M  V30 4187 H 389.637 -0.490894 0.563056 0
M  V30 4188 H 392.299 -0.662879 1.83281 0
M  V30 4189 H 391.395 -2.12062 2.2899 0
M  V30 4190 N 391.696 -1.35014 -0.812953 0
M  V30 4191 C 392.921 -1.31187 -1.60639 0
M  V30 4192 C 393.346 0.109382 -1.87782 0
M  V30 4193 O 392.704 1.07424 -1.46047 0
M  V30 4194 C 392.752 -2.11809 -2.91838 0
M  V30 4195 O 391.856 -1.49444 -3.8437 0
M  V30 4196 H 391.197 -0.450084 -0.488181 0
M  V30 4197 H 393.727 -1.77963 -1.00947 0
M  V30 4198 H 393.737 -2.23531 -3.41318 0
M  V30 4199 H 392.412 -3.15137 -2.71407 0
M  V30 4200 H 390.989 -1.46524 -3.42907 0
M  V30 4201 N 393.175 1.03435 -1.18907 0
M  V30 4202 C 394.108 2.11162 -0.86521 0
M  V30 4203 C 395.086 1.6165 0.175473 0
M  V30 4204 O 396.27 1.88425 0.0530129 0
M  V30 4205 C 393.397 3.37423 -0.293868 0
M  V30 4206 C 392.443 4.05795 -1.31274 0
M  V30 4207 S 393.276 4.52027 -2.8711 0
M  V30 4208 C 394.432 5.81513 -2.31504 0
M  V30 4209 H 394.665 2.38308 -1.77754 0
M  V30 4210 H 392.198 1.16295 -1.01562 0
M  V30 4211 H 394.156 4.1049 0.0292572 0
M  V30 4212 H 392.817 3.0838 0.596682 0
M  V30 4213 H 392.01 4.96574 -0.86198 0
M  V30 4214 H 391.612 3.38874 -1.58242 0
M  V30 4215 H 393.904 6.55784 -1.70157 0
M  V30 4216 H 394.847 6.3136 -3.20608 0
M  V30 4217 H 395.255 5.36921 -1.74286 0
M  V30 4218 N 394.653 0.992116 1.22453 0
M  V30 4219 C 395.6 0.541731 2.24352 0
M  V30 4220 C 396.57 -0.425519 1.60557 0
M  V30 4221 O 397.755 -0.330453 1.87917 0
M  V30 4222 C 394.895 -0.138248 3.44823 0
M  V30 4223 C 394.008 0.870649 4.23136 0
M  V30 4224 C 393.143 0.164269 5.30946 0
M  V30 4225 C 392.182 1.16159 6.00977 0
M  V30 4226 N 391.319 0.483568 7.00433 0
M  V30 4227 H 396.159 1.41541 2.62241 0
M  V30 4228 H 393.696 0.709013 1.28885 0
M  V30 4229 H 395.654 -0.5494 4.13567 0
M  V30 4230 H 394.284 -0.975721 3.077 0
M  V30 4231 H 393.336 1.40013 3.53696 0
M  V30 4232 H 394.648 1.63014 4.7141 0
M  V30 4233 H 393.802 -0.303653 6.0594 0
M  V30 4234 H 392.541 -0.627733 4.83643 0
M  V30 4235 H 391.546 1.64015 5.24766 0
M  V30 4236 H 392.771 1.95445 6.50368 0
M  V30 4237 H 390.717 -0.289012 6.55363 0
M  V30 4238 H 390.634 1.18152 7.4671 0
M  V30 4239 H 391.902 0.0384219 7.79491 0
M  V30 4240 N 396.131 -1.37776 0.765217 0
M  V30 4241 C 397.379 -1.99454 0.325943 0
M  V30 4242 C 397.7 -1.61049 -1.09947 0
M  V30 4243 O 396.97 -0.872821 -1.75381 0
M  V30 4244 H 395.55 -0.737697 0.117525 0
M  V30 4245 H 398.212 -1.68359 0.981895 0
M  V30 4246 H 397.308 -3.09547 0.398353 0
M  V30 4247 N 397.609 -0.515225 -1.4894 0
M  V30 4248 C 398.539 0.244628 -2.32215 0
M  V30 4249 C 399.52 0.949136 -1.41157 0
M  V30 4250 O 400.705 0.937783 -1.70057 0
M  V30 4251 C 397.835 1.30096 -3.22013 0
M  V30 4252 C 396.789 0.715486 -4.21977 0
M  V30 4253 C 396.115 1.87339 -5.00808 0
M  V30 4254 C 397.415 -0.302982 -5.2142 0
M  V30 4255 H 399.109 -0.450501 -2.95991 0
M  V30 4256 H 396.655 -0.218098 -1.42339 0
M  V30 4257 H 398.608 1.84037 -3.79089 0
M  V30 4258 H 397.332 2.02547 -2.56207 0
M  V30 4259 H 395.991 0.197715 -3.66066 0
M  V30 4260 H 395.639 2.58592 -4.31438 0
M  V30 4261 H 395.339 1.48764 -5.68457 0
M  V30 4262 H 396.863 2.41686 -5.60732 0
M  V30 4263 H 398.277 0.148802 -5.73107 0
M  V30 4264 H 396.674 -0.60532 -5.97039 0
M  V30 4265 H 397.744 -1.21395 -4.69459 0
M  V30 4266 N 399.087 1.5561 -0.249682 0
M  V30 4267 C 400.503 1.59254 0.105103 0
M  V30 4268 C 400.703 1.26685 1.56694 0
M  V30 4269 O 399.759 1.0155 2.31179 0
M  V30 4270 C 401.072 2.99687 -0.246592 0
M  V30 4271 C 402.62 3.12416 -0.191118 0
M  V30 4272 C 403.095 4.55074 -0.516885 0
M  V30 4273 N 404.586 4.60835 -0.467489 0
M  V30 4274 C 405.321 5.69201 -0.69268 0
M  V30 4275 N 404.817 6.85817 -0.981146 0
M  V30 4276 N 406.61 5.58635 -0.623198 0
M  V30 4277 H 398.761 1.75049 -1.20298 0
M  V30 4278 H 401.024 0.815003 -0.484225 0
M  V30 4279 H 400.73 3.28267 -1.26228 0
M  V30 4280 H 400.604 3.74798 0.424962 0
M  V30 4281 H 402.991 2.83615 0.815247 0
M  V30 4282 H 403.072 2.39573 -0.896563 0
M  V30 4283 H 402.716 4.84596 -1.52082 0
M  V30 4284 H 402.646 5.26181 0.210068 0
M  V30 4285 H 405.137 3.7705 -0.253373 0
M  V30 4286 H 405.45 7.64341 -1.14032 0
M  V30 4287 H 403.795 6.87494 -1.01865 0
M  V30 4288 H 406.986 4.66406 -0.397863 0
M  V30 4289 H 407.159 6.43017 -0.802093 0
M  V30 4290 N 400.565 -0.0233959 1.57583 0
M  V30 4291 C 401.495 -1.02162 2.09965 0
M  V30 4292 C 402.476 -1.3735 1.00344 0
M  V30 4293 O 403.661 -1.46135 1.27899 0
M  V30 4294 C 400.791 -2.32081 2.58371 0
M  V30 4295 C 399.745 -2.1112 3.72307 0
M  V30 4296 C 399.071 -3.46848 4.06941 0
M  V30 4297 C 400.371 -1.49276 5.00514 0
M  V30 4298 H 402.065 -0.585557 2.93618 0
M  V30 4299 H 399.611 -0.280218 1.41247 0
M  V30 4300 H 401.564 -3.02249 2.93639 0
M  V30 4301 H 400.288 -2.77758 1.71808 0
M  V30 4302 H 398.947 -1.43384 3.37397 0
M  V30 4303 H 398.595 -3.90184 3.17436 0
M  V30 4304 H 398.295 -3.33646 4.83688 0
M  V30 4305 H 399.819 -4.18369 4.44747 0
M  V30 4306 H 401.233 -2.09368 5.33702 0
M  V30 4307 H 399.63 -1.46632 5.8191 0
M  V30 4308 H 400.7 -0.459217 4.82721 0
M  V30 4309 N 402.043 -1.548 -0.295768 0
M  V30 4310 C 403.271 -1.78327 -1.04914 0
M  V30 4311 C 403.686 -0.545316 -1.80753 0
M  V30 4312 O 403.043 0.485013 -1.75937 0
M  V30 4313 C 403.094 -2.99418 -2.02561 0
M  V30 4314 O 402.815 -4.18431 -1.29798 0
M  V30 4315 C 404.316 -3.35375 -2.89895 0
M  V30 4316 H 401.536 -0.594618 -0.310918 0
M  V30 4317 H 404.08 -2.01763 -0.333454 0
M  V30 4318 H 402.235 -2.78175 -2.69624 0
M  V30 4319 H 402.649 -4.86736 -1.95419 0
M  V30 4320 H 404.123 -4.23332 -3.54251 0
M  V30 4321 H 404.6 -2.53761 -3.58472 0
M  V30 4322 H 405.206 -3.58796 -2.28355 0
M  V30 4323 N 403.521 0.559213 -1.47345 0
M  V30 4324 C 404.77 1.31281 -1.53128 0
M  V30 4325 C 405.083 1.94602 -0.197344 0
M  V30 4326 O 406.289 2.71173 -0.133154 0
M  V30 4327 C 404.745 2.38051 -2.69925 0
M  V30 4328 C 404.353 1.8093 -4.0984 0
M  V30 4329 C 406.097 3.14604 -2.84999 0
M  V30 4330 C 404.004 2.85468 -5.1794 0
M  V30 4331 H 402.934 0.493614 -0.569966 0
M  V30 4332 H 405.585 0.594155 -1.73615 0
M  V30 4333 H 403.967 3.12822 -2.42814 0
M  V30 4334 H 405.141 1.12544 -4.46845 0
M  V30 4335 H 403.456 1.16967 -3.99634 0
M  V30 4336 H 406.053 3.92666 -3.62929 0
M  V30 4337 H 406.396 3.68665 -1.93369 0
M  V30 4338 H 406.929 2.46945 -3.1187 0
M  V30 4339 H 403.668 2.36264 -6.1144 0
M  V30 4340 H 403.188 3.52269 -4.85455 0
M  V30 4341 H 404.867 3.48996 -5.44803 0
M  V30 4342 N 404.999 1.35443 0.805782 0
M  V30 4343 C 405.962 1.28301 1.89925 0
M  V30 4344 C 406.962 0.194285 1.59622 0
M  V30 4345 O 408.152 0.448036 1.6834 0
M  V30 4346 C 405.284 0.984997 3.2636 0
M  V30 4347 H 406.477 2.2553 1.97677 0
M  V30 4348 H 404.03 1.19979 1.00173 0
M  V30 4349 H 404.765 0.016603 3.24296 0
M  V30 4350 H 404.55 1.77269 3.4974 0
M  V30 4351 H 406.04 0.960651 4.064 0
M  V30 4352 N 406.477 -1.02803 1.19454 0
M  V30 4353 C 407.424 -2.11099 0.933046 0
M  V30 4354 C 408.394 -1.65571 -0.132447 0
M  V30 4355 O 409.579 -1.90797 0.00987576 0
M  V30 4356 C 406.719 -3.41763 0.478747 0
M  V30 4357 C 405.832 -4.00833 1.6111 0
M  V30 4358 C 404.967 -5.19511 1.10825 0
M  V30 4359 C 404.006 -5.70639 2.21445 0
M  V30 4360 N 403.143 -6.80589 1.72461 0
M  V30 4361 H 407.983 -2.32804 1.86028 0
M  V30 4362 H 405.52 -1.14179 0.927441 0
M  V30 4363 H 407.478 -4.16736 0.196745 0
M  V30 4364 H 406.108 -3.20166 -0.411493 0
M  V30 4365 H 405.16 -3.23066 2.00829 0
M  V30 4366 H 406.472 -4.34794 2.4445 0
M  V30 4367 H 405.626 -6.01645 0.781533 0
M  V30 4368 H 404.365 -4.87086 0.244606 0
M  V30 4369 H 403.37 -4.87116 2.54947 0
M  V30 4370 H 404.595 -6.05102 3.08267 0
M  V30 4371 H 402.541 -6.50016 0.884056 0
M  V30 4372 H 402.458 -7.13681 2.49389 0
M  V30 4373 H 403.726 -7.66317 1.42755 0
M  V30 4374 N 407.956 -0.998596 -1.21925 0
M  V30 4375 C 408.888 -0.511879 -2.23411 0
M  V30 4376 C 409.901 0.396094 -1.57908 0
M  V30 4377 O 411.09 0.197316 -1.77406 0
M  V30 4378 C 408.19 0.276802 -3.37768 0
M  V30 4379 C 407.363 -0.628687 -4.32858 0
M  V30 4380 C 406.422 0.109272 -5.26087 0
M  V30 4381 O 405.448 -0.507237 -5.66935 0
M  V30 4382 N 406.65 1.38983 -5.63617 0
M  V30 4383 H 409.415 -1.38457 -2.658 0
M  V30 4384 H 406.976 -0.873981 -1.36283 0
M  V30 4385 H 408.968 0.77928 -3.97126 0
M  V30 4386 H 407.538 1.05063 -2.94415 0
M  V30 4387 H 406.758 -1.31175 -3.71735 0
M  V30 4388 H 408.046 -1.24514 -4.93329 0
M  V30 4389 H 407.444 1.91194 -5.32411 0
M  V30 4390 H 406.001 1.83739 -6.25367 0
M  V30 4391 N 409.434 1.37368 -0.772513 0
M  V30 4392 C 410.662 2.03942 -0.348588 0
M  V30 4393 C 411.077 1.58264 1.02947 0
M  V30 4394 O 410.434 0.764246 1.65727 0
M  V30 4395 C 410.485 3.5946 -0.38351 0
M  V30 4396 O 410.206 4.03468 -1.70721 0
M  V30 4397 C 411.707 4.4327 0.0519152 0
M  V30 4398 H 408.927 0.654931 -0.145966 0
M  V30 4399 H 411.471 1.75686 -1.04665 0
M  V30 4400 H 409.626 3.86486 0.265978 0
M  V30 4401 H 410.04 4.97991 -1.64636 0
M  V30 4402 H 411.514 5.51995 -0.0236733 0
M  V30 4403 H 411.991 4.2514 1.10238 0
M  V30 4404 H 412.597 4.21471 -0.569415 0
M  V30 4405 N 410.912 0.523116 1.48665 0
M  V30 4406 C 412.158 -0.0134963 2.02796 0
M  V30 4407 C 412.491 -1.34582 1.40004 0
M  V30 4408 O 411.766 -1.86756 0.543381 0
M  V30 4409 C 412.049 -0.14276 3.59817 0
M  V30 4410 C 411.902 1.21425 4.331 0
M  V30 4411 C 413.221 -0.872856 4.31357 0
M  V30 4412 H 410.34 -0.00343074 0.736992 0
M  V30 4413 H 412.982 0.678816 1.7746 0
M  V30 4414 H 411.132 -0.732401 3.81534 0
M  V30 4415 H 412.804 1.84447 4.2282 0
M  V30 4416 H 411.047 1.79791 3.94788 0
M  V30 4417 H 411.718 1.07687 5.41394 0
M  V30 4418 H 414.194 -0.372555 4.14429 0
M  V30 4419 H 413.07 -0.932185 5.40927 0
M  V30 4420 H 413.331 -1.92161 3.98154 0
M  V30 4421 N 412.39 -1.55475 0.257931 0
M  V30 4422 C 413.615 -2.04064 -0.370488 0
M  V30 4423 C 414.04 -1.13565 -1.49948 0
M  V30 4424 O 413.398 -0.130781 -1.80828 0
M  V30 4425 C 413.446 -3.50554 -0.845237 0
M  V30 4426 O 412.55 -3.63173 -1.95394 0
M  V30 4427 H 411.891 -0.659257 -0.0792243 0
M  V30 4428 H 414.421 -2.00903 0.387212 0
M  V30 4429 H 414.431 -3.91588 -1.14555 0
M  V30 4430 H 413.106 -4.15896 -0.0191259 0
M  V30 4431 H 411.683 -3.34039 -1.65748 0
M  V30 4432 N 413.868 0.0150385 -1.57593 0
M  V30 4433 C 415.093 0.718067 -1.94573 0
M  V30 4434 C 415.518 1.6734 -0.859005 0
M  V30 4435 O 414.876 1.80362 0.184147 0
M  V30 4436 C 414.924 1.43918 -3.30636 0
M  V30 4437 O 414.028 2.55299 -3.23876 0
M  V30 4438 H 413.369 0.192125 -0.635597 0
M  V30 4439 H 415.899 -0.0336708 -2.04572 0
M  V30 4440 H 415.909 1.80598 -3.65853 0
M  V30 4441 H 414.584 0.738619 -4.09289 0
M  V30 4442 H 413.161 2.21058 -3.00312 0
M  V30 4443 N 415.346 1.54954 0.287554 0
M  V30 4444 C 416.595 1.74081 1.01877 0
M  V30 4445 C 416.908 0.541135 1.87966 0
M  V30 4446 O 418.114 0.614491 2.64455 0
M  V30 4447 C 416.57 3.08042 1.86113 0
M  V30 4448 C 416.178 4.35531 1.04961 0
M  V30 4449 C 417.922 3.36523 2.58752 0
M  V30 4450 C 415.829 5.60538 1.88551 0
M  V30 4451 H 414.759 0.64884 0.384087 0
M  V30 4452 H 417.41 1.81426 0.275101 0
M  V30 4453 H 415.792 2.94696 2.64519 0
M  V30 4454 H 416.966 4.59751 0.31074 0
M  V30 4455 H 415.281 4.14085 0.43843 0
M  V30 4456 H 417.878 4.27122 3.21668 0
M  V30 4457 H 418.221 2.56 3.28283 0
M  V30 4458 H 418.754 3.50901 1.87386 0
M  V30 4459 H 415.493 6.43767 1.23466 0
M  V30 4460 H 415.013 5.40483 2.60074 0
M  V30 4461 H 416.692 5.98297 2.46273 0
M  V30 4462 N 416.824 -0.551391 1.4764 0
M  V30 4463 C 417.754 -1.66757 1.63445 0
M  V30 4464 C 418.735 -1.63077 0.483742 0
M  V30 4465 O 419.92 -1.80607 0.71377 0
M  V30 4466 C 417.05 -3.05387 1.65396 0
M  V30 4467 C 416.004 -3.23918 2.79752 0
M  V30 4468 C 415.33 -4.63393 2.66779 0
M  V30 4469 C 416.63 -3.08735 4.21284 0
M  V30 4470 H 418.324 -1.53786 2.56886 0
M  V30 4471 H 415.87 -0.738415 1.23626 0
M  V30 4472 H 417.823 -3.83325 1.75043 0
M  V30 4473 H 416.547 -3.19332 0.685195 0
M  V30 4474 H 415.206 -2.48391 2.69625 0
M  V30 4475 H 414.854 -4.74144 1.67918 0
M  V30 4476 H 414.554 -4.7674 3.43501 0
M  V30 4477 H 416.078 -5.43458 2.78364 0
M  V30 4478 H 417.492 -3.76484 4.32357 0
M  V30 4479 H 415.889 -3.33588 4.98838 0
M  V30 4480 H 416.959 -2.0541 4.39243 0
M  V30 4481 N 418.302 -1.35869 -0.798587 0
M  V30 4482 C 419.579 -1.20145 -1.54352 0
M  V30 4483 C 419.959 0.216161 -2.0999 0
M  V30 4484 O 419.307 1.22068 -1.93162 0
M  V30 4485 C 419.517 -2.27602 -2.64572 0
M  V30 4486 C 420.865 -2.63811 -3.32699 0
M  V30 4487 O 421.889 -2.26576 -2.74849 0
M  V30 4488 O 420.748 -3.27866 -4.37226 0
M  V30 4489 H 417.842 -0.467248 -0.682355 0
M  V30 4490 H 420.388 -1.47574 -0.837859 0
M  V30 4491 H 419.16 -3.2265 -2.21388 0
M  V30 4492 H 418.783 -2.01488 -3.42766 0
M  V30 4493 N 419.78 1.02168 -1.19998 0
M  V30 4494 C 421.008 1.79296 -1.03249 0
M  V30 4495 C 421.423 1.84103 0.418502 0
M  V30 4496 O 420.78 1.29031 1.29063 0
M  V30 4497 C 420.831 3.24007 -1.60319 0
M  V30 4498 O 420.552 3.19512 -2.99739 0
M  V30 4499 C 422.053 4.17704 -1.48453 0
M  V30 4500 H 419.273 0.564016 -0.363493 0
M  V30 4501 H 421.817 1.28639 -1.58973 0
M  V30 4502 H 419.972 3.7183 -1.08727 0
M  V30 4503 H 420.386 4.10306 -3.26725 0
M  V30 4504 H 421.86 5.17104 -1.93153 0
M  V30 4505 H 422.337 4.37029 -0.436193 0
M  V30 4506 H 422.943 3.7576 -1.99211 0
M  V30 4507 N 421.258 1.00505 1.21394 0
M  V30 4508 C 422.188 0.585684 2.26035 0
M  V30 4509 C 423.169 -0.393525 1.65485 0
M  V30 4510 O 424.354 -0.281497 1.92149 0
M  V30 4511 C 421.484 -0.0884283 3.47187 0
M  V30 4512 C 420.438 0.810567 4.20254 0
M  V30 4513 C 419.764 0.00286382 5.347 0
M  V30 4514 C 421.064 2.1132 4.77641 0
M  V30 4515 H 422.758 1.46039 2.61368 0
M  V30 4516 H 420.304 0.703648 1.25638 0
M  V30 4517 H 422.257 -0.393286 4.19561 0
M  V30 4518 H 420.981 -0.997766 3.10986 0
M  V30 4519 H 419.64 1.09925 3.49731 0
M  V30 4520 H 419.288 -0.907765 4.94741 0
M  V30 4521 H 418.988 0.601444 5.84514 0
M  V30 4522 H 420.512 -0.295808 6.09883 0
M  V30 4523 H 421.926 1.87148 5.41893 0
M  V30 4524 H 420.323 2.66164 5.37845 0
M  V30 4525 H 421.393 2.78393 3.9702 0
M  V30 4526 N 422.737 -1.36956 0.779787 0
M  V30 4527 C 423.985 -1.99097 0.347079 0
M  V30 4528 C 424.306 -1.62206 -1.08232 0
M  V30 4529 O 423.576 -0.891373 -1.74446 0
M  V30 4530 H 422.156 -0.736409 0.125342 0
M  V30 4531 H 424.818 -1.67308 0.999696 0
M  V30 4532 H 423.914 -3.09107 0.431162 0
M  V30 4533 N 424.215 -0.530993 -1.48385 0
M  V30 4534 C 425.492 0.0671788 -1.95485 0
M  V30 4535 C 425.872 1.51191 -1.47324 0
M  V30 4536 O 425.22 2.17507 -0.700202 0
M  V30 4537 C 425.43 -0.0511206 -3.48963 0
M  V30 4538 C 426.778 0.107632 -4.24464 0
M  V30 4539 O 427.802 0.0226248 -3.56193 0
M  V30 4540 O 426.661 0.285972 -5.45751 0
M  V30 4541 H 423.755 0.0787365 -0.823243 0
M  V30 4542 H 426.301 -0.595662 -1.58902 0
M  V30 4543 H 425.073 -1.05747 -3.7674 0
M  V30 4544 H 424.696 0.650525 -3.92242 0
M  V30 4545 N 425.693 1.55336 -0.266172 0
M  V30 4546 C 426.97 1.91372 0.404486 0
M  V30 4547 C 427.35 1.18935 1.74407 0
M  V30 4548 O 426.698 0.3132 2.26343 0
M  V30 4549 C 426.908 3.44581 0.553593 0
M  V30 4550 C 428.256 4.16196 0.840618 0
M  V30 4551 O 429.28 3.50426 0.638739 0
M  V30 4552 O 428.139 5.32567 1.22618 0
M  V30 4553 H 425.233 0.797194 0.220025 0
M  V30 4554 H 427.779 1.66813 -0.311664 0
M  V30 4555 H 426.551 3.89357 -0.389498 0
M  V30 4556 H 426.174 3.75065 1.31955 0
M  V30 4557 N 427.171 -0.0066808 1.57599 0
M  V30 4558 C 428.448 -0.729586 1.81484 0
M  V30 4559 C 428.828 -1.92359 0.869558 0
M  V30 4560 O 428.176 -2.28348 -0.0832533 0
M  V30 4561 C 428.386 -1.1416 3.29801 0
M  V30 4562 C 429.734 -1.54823 3.95367 0
M  V30 4563 O 430.758 -1.23558 3.34084 0
M  V30 4564 O 429.617 -2.12937 5.03309 0
M  V30 4565 H 426.711 -0.354674 0.747085 0
M  V30 4566 H 429.257 0.0182609 1.6969 0
M  V30 4567 H 428.029 -0.290231 3.90222 0
M  V30 4568 H 427.652 -1.94876 3.46568 0
M  V30 4569 N 428.649 -1.55105 -0.279332 0
M  V30 4570 C 429.896 -1.75412 -1.01177 0
M  V30 4571 C 430.224 -0.551728 -1.86511 0
M  V30 4572 O 429.479 0.465919 -1.90073 0
M  V30 4573 C 429.778 -3.0086 -1.92919 0
M  V30 4574 C 429.444 -4.33689 -1.23387 0
M  V30 4575 C 428.106 -4.69792 -1.04159 0
M  V30 4576 C 430.458 -5.15941 -0.738562 0
M  V30 4577 C 427.786 -5.85707 -0.341166 0
M  V30 4578 C 430.138 -6.32579 -0.0517636 0
M  V30 4579 C 428.802 -6.67326 0.152292 0
M  V30 4580 H 428.072 -0.641879 -0.370233 0
M  V30 4581 H 430.719 -1.89373 -0.284627 0
M  V30 4582 H 429.024 -2.81773 -2.72234 0
M  V30 4583 H 430.721 -3.13768 -2.49701 0
M  V30 4584 H 427.311 -4.05309 -1.39364 0
M  V30 4585 H 431.495 -4.8853 -0.874764 0
M  V30 4586 H 426.751 -6.11157 -0.172287 0
M  V30 4587 H 430.925 -6.9557 0.339828 0
M  V30 4588 H 428.552 -7.56998 0.697014 0
M  V30 4589 N 430.127 0.543554 -1.4793 0
M  V30 4590 C 431.374 1.30008 -1.55255 0
M  V30 4591 C 431.702 1.93245 -0.220612 0
M  V30 4592 O 430.957 1.79141 0.787843 0
M  V30 4593 C 431.256 2.42078 -2.62932 0
M  V30 4594 C 430.922 1.96583 -4.0579 0
M  V30 4595 C 429.584 1.83893 -4.44676 0
M  V30 4596 C 431.936 1.62034 -4.95373 0
M  V30 4597 C 429.264 1.34969 -5.70964 0
M  V30 4598 C 431.616 1.14577 -6.22137 0
M  V30 4599 C 430.28 1.00493 -6.59892 0
M  V30 4600 H 429.55 0.475735 -0.568117 0
M  V30 4601 H 432.197 0.608075 -1.81589 0
M  V30 4602 H 430.502 3.16892 -2.30406 0
M  V30 4603 H 432.199 3.00236 -2.65818 0
M  V30 4604 H 428.789 2.07407 -3.75074 0
M  V30 4605 H 432.973 1.70705 -4.66019 0
M  V30 4606 H 428.229 1.2274 -5.98953 0
M  V30 4607 H 432.403 0.869109 -6.90955 0
M  V30 4608 H 430.03 0.623624 -7.57638 0
M  V30 4609 N 431.605 1.3629 0.791371 0
M  V30 4610 C 432.553 1.30514 1.92533 0
M  V30 4611 C 433.547 0.197285 1.68247 0
M  V30 4612 O 434.753 0.364176 1.76278 0
M  V30 4613 H 431.128 0.406263 0.632815 0
M  V30 4614 H 433.099 2.26282 1.94523 0
M  V30 4615 C 431.848 1.10933 3.29529 0
M  V30 4616 H 431.171 1.95427 3.48781 0
M  V30 4617 H 432.611 1.10937 4.0923 0
M  V30 4618 C 431.07 -0.186123 3.36385 0
M  V30 4619 O 431.6 -1.17664 3.84081 0
M  V30 4620 N 429.806 -0.230128 2.89687 0
M  V30 4621 H 429.353 0.576545 2.51065 0
M  V30 4622 H 429.311 -1.09658 2.94657 0
M  V30 4623 N 433.083 -1.0153 1.20538 0
M  V30 4624 C 434.332 -1.74558 1.01057 0
M  V30 4625 C 434.645 -1.90168 -0.457756 0
M  V30 4626 O 435.851 -2.60301 -0.771722 0
M  V30 4627 C 434.307 -3.13963 1.75941 0
M  V30 4628 C 433.915 -3.06361 3.26875 0
M  V30 4629 C 435.659 -3.91191 1.64832 0
M  V30 4630 C 433.566 -4.40782 3.94291 0
M  V30 4631 H 432.496 -0.654417 0.374505 0
M  V30 4632 H 435.147 -1.13521 1.44171 0
M  V30 4633 H 433.529 -3.75549 1.25614 0
M  V30 4634 H 434.703 -2.54074 3.84425 0
M  V30 4635 H 433.018 -2.42625 3.38411 0
M  V30 4636 H 435.615 -4.90644 2.12539 0
M  V30 4637 H 435.958 -4.11884 0.604745 0
M  V30 4638 H 436.491 -3.36236 2.12579 0
M  V30 4639 H 433.23 -4.25292 4.98805 0
M  V30 4640 H 432.75 -4.9307 3.41529 0
M  V30 4641 H 434.429 -5.09621 3.98617 0
M  V30 4642 N 434.561 -1.01147 -1.20859 0
M  V30 4643 C 435.81 -0.693214 -1.89413 0
M  V30 4644 C 436.123 0.779969 -1.79376 0
M  V30 4645 O 437.329 1.21057 -2.43017 0
M  V30 4646 C 435.785 -1.18949 -3.39675 0
M  V30 4647 C 435.393 -2.68921 -3.58309 0
M  V30 4648 C 437.137 -0.94642 -4.13815 0
M  V30 4649 C 435.044 -3.12056 -5.0237 0
M  V30 4650 H 433.974 -0.255595 -0.709357 0
M  V30 4651 H 436.625 -1.22349 -1.36759 0
M  V30 4652 H 435.007 -0.587228 -3.91622 0
M  V30 4653 H 436.181 -3.34652 -3.16772 0
M  V30 4654 H 434.496 -2.91314 -2.97532 0
M  V30 4655 H 437.093 -1.24417 -5.20023 0
M  V30 4656 H 437.436 0.117219 -4.16135 0
M  V30 4657 H 437.969 -1.5118 -3.67953 0
M  V30 4658 H 434.708 -4.17674 -5.05202 0
M  V30 4659 H 434.228 -2.51041 -5.44737 0
M  V30 4660 H 435.907 -3.04403 -5.70918 0
M  V30 4661 N 436.039 1.36541 -0.78704 0
M  V30 4662 C 437.002 2.28413 -0.189778 0
M  V30 4663 C 438.002 1.48719 0.611499 0
M  V30 4664 O 439.192 1.68737 0.432842 0
M  V30 4665 C 436.324 3.32824 0.737638 0
M  V30 4666 H 437.517 2.82743 -0.999831 0
M  V30 4667 H 435.07 1.46065 -0.556298 0
M  V30 4668 H 435.805 2.83646 1.57212 0
M  V30 4669 H 435.59 3.91752 0.165044 0
M  V30 4670 H 437.08 4.0144 1.15047 0
M  V30 4671 N 437.518 0.538854 1.48102 0
M  V30 4672 C 438.748 0.0122958 2.06596 0
M  V30 4673 C 439.156 -1.27861 1.39457 0
M  V30 4674 O 438.499 -1.77348 0.478907 0
M  V30 4675 C 438.561 -0.273131 3.58461 0
M  V30 4676 C 438.225 0.92561 4.47528 0
M  V30 4677 C 439.222 1.82637 4.86765 0
M  V30 4678 C 436.907 1.13511 4.89306 0
M  V30 4679 C 438.901 2.92047 5.66558 0
M  V30 4680 C 436.588 2.23233 5.68868 0
M  V30 4681 C 437.586 3.12333 6.07402 0
M  V30 4682 O 437.274 4.20155 6.85365 0
M  V30 4683 H 437.006 0.0344283 0.675123 0
M  V30 4684 H 439.56 0.746494 1.91355 0
M  V30 4685 H 437.79 -1.06141 3.71848 0
M  V30 4686 H 439.479 -0.742842 3.99045 0
M  V30 4687 H 440.245 1.67649 4.55103 0
M  V30 4688 H 436.124 0.450835 4.5879 0
M  V30 4689 H 439.668 3.6162 5.96554 0
M  V30 4690 H 435.565 2.38201 5.99942 0
M  V30 4691 H 436.333 4.17975 7.03732 0
M  V30 4692 N 438.996 -1.55193 0.274407 0
M  V30 4693 C 439.944 -2.23924 -0.629362 0
M  V30 4694 C 440.938 -1.23602 -1.1584 0
M  V30 4695 O 442.144 -1.41535 -1.11211 0
M  V30 4696 H 438.519 -0.718637 -0.221507 0
M  V30 4697 H 440.49 -2.98388 -0.0268322 0
M  V30 4698 C 439.239 -2.97329 -1.80252 0
M  V30 4699 H 438.562 -3.74313 -1.40462 0
M  V30 4700 H 440.002 -3.48743 -2.41152 0
M  V30 4701 C 438.461 -2.0276 -2.69054 0
M  V30 4702 O 438.991 -1.57836 -3.69392 0
M  V30 4703 N 437.197 -1.69275 -2.36208 0
M  V30 4704 H 436.744 -2.06004 -1.54661 0
M  V30 4705 H 436.702 -1.06271 -2.95895 0
M  V30 4706 N 440.474 -0.00167713 -1.576 0
M  V30 4707 C 441.384 1.00548 -2.1196 0
M  V30 4708 C 442.4 1.3758 -1.06526 0
M  V30 4709 O 443.576 1.46278 -1.38436 0
M  V30 4710 C 440.641 2.27809 -2.6135 0
M  V30 4711 C 439.702 1.97074 -3.81393 0
M  V30 4712 C 438.935 3.18267 -4.28417 0
M  V30 4713 O 439.158 4.30009 -3.74765 0
M  V30 4714 O 438.092 3.02167 -5.20556 0
M  V30 4715 H 441.918 0.573373 -2.98238 0
M  V30 4716 H 439.503 0.217255 -1.47812 0
M  V30 4717 H 441.385 3.02568 -2.93309 0
M  V30 4718 H 440.06 2.70254 -1.78169 0
M  V30 4719 H 438.967 1.19785 -3.54404 0
M  V30 4720 H 440.3 1.59464 -4.65652 0
M  V30 4721 N 441.952 1.55251 0.271103 0
M  V30 4722 C 442.862 1.9136 1.35714 0
M  V30 4723 C 443.878 0.811075 1.5394 0
M  V30 4724 O 445.054 1.11031 1.6803 0
M  V30 4725 C 442.119 2.1798 2.69603 0
M  V30 4726 C 441.18 3.4153 2.60107 0
M  V30 4727 C 440.413 3.66871 3.8761 0
M  V30 4728 O 440.636 2.94689 4.8838 0
M  V30 4729 O 439.57 4.60405 3.87699 0
M  V30 4730 H 443.396 2.83815 1.08088 0
M  V30 4731 H 440.981 1.41821 0.469792 0
M  V30 4732 H 442.863 2.36518 3.48765 0
M  V30 4733 H 441.538 1.28708 2.97012 0
M  V30 4734 H 440.445 3.28325 1.79314 0
M  V30 4735 H 441.778 4.31027 2.37647 0
M  V30 4736 N 443.43 -0.535701 1.48216 0
M  V30 4737 C 444.36 -1.65014 1.65204 0
M  V30 4738 C 445.341 -1.62554 0.501011 0
M  V30 4739 O 446.526 -1.7984 0.732886 0
M  V30 4740 C 443.656 -3.03616 1.68626 0
M  V30 4741 C 442.61 -3.20932 2.83172 0
M  V30 4742 C 441.936 -4.60537 2.71679 0
M  V30 4743 C 443.236 -3.04249 4.24535 0
M  V30 4744 H 444.93 -1.51053 2.58502 0
M  V30 4745 H 442.476 -0.725262 1.24402 0
M  V30 4746 H 444.429 -3.81446 1.79099 0
M  V30 4747 H 443.153 -3.18587 0.719026 0
M  V30 4748 H 441.812 -2.45517 2.72244 0
M  V30 4749 H 441.46 -4.72336 1.72937 0
M  V30 4750 H 441.16 -4.73069 3.48538 0
M  V30 4751 H 442.684 -5.40475 2.84112 0
M  V30 4752 H 444.098 -3.71877 4.36326 0
M  V30 4753 H 442.495 -3.28278 5.02348 0
M  V30 4754 H 443.565 -2.00739 4.41397 0
M  V30 4755 N 444.908 -1.36708 -0.784132 0
M  V30 4756 C 445.858 -1.2799 -1.88686 0
M  V30 4757 C 446.842 -0.170282 -1.59996 0
M  V30 4758 O 448.034 -0.403571 -1.72338 0
M  V30 4759 C 445.163 -1.07674 -3.25977 0
M  V30 4760 C 444.249 -2.23127 -3.60659 0
M  V30 4761 N 444.64 -3.48467 -3.66612 0
M  V30 4762 C 442.938 -2.15009 -3.90752 0
M  V30 4763 C 443.639 -4.24525 -3.97685 0
M  V30 4764 N 442.615 -3.53524 -4.12943 0
M  V30 4765 H 446.417 -2.22927 -1.91522 0
M  V30 4766 H 443.931 -1.29503 -0.979933 0
M  V30 4767 H 445.928 -0.995151 -4.04849 0
M  V30 4768 H 444.588 -0.13643 -3.24413 0
M  V30 4769 H 445.599 -3.82534 -3.49125 0
M  V30 4770 H 442.276 -1.28963 -3.97083 0
M  V30 4771 H 443.666 -5.32944 -4.0917 0
M  V30 4772 N 446.386 1.0089 -1.21074 0
M  V30 4773 C 447.616 1.77933 -1.04993 0
M  V30 4774 C 448.024 1.84847 0.403495 0
M  V30 4775 O 447.367 1.30606 1.29181 0
M  V30 4776 C 447.429 3.23541 -1.56722 0
M  V30 4777 C 447.093 3.40214 -3.05129 0
M  V30 4778 C 448.09 3.2881 -4.02716 0
M  V30 4779 C 445.775 3.65781 -3.44252 0
M  V30 4780 C 447.769 3.42732 -5.37414 0
M  V30 4781 C 445.456 3.79346 -4.79103 0
M  V30 4782 C 446.454 3.67827 -5.75493 0
M  V30 4783 O 446.142 3.80965 -7.07899 0
M  V30 4784 H 445.874 0.566157 -0.369381 0
M  V30 4785 H 448.428 1.27826 -1.60779 0
M  V30 4786 H 446.658 3.74766 -0.953285 0
M  V30 4787 H 448.347 3.82245 -1.36543 0
M  V30 4788 H 449.113 3.08986 -3.73835 0
M  V30 4789 H 444.992 3.73831 -2.69762 0
M  V30 4790 H 448.536 3.33658 -6.12632 0
M  V30 4791 H 444.433 3.98672 -5.07672 0
M  V30 4792 H 445.201 3.97937 -7.15254 0
M  V30 4793 N 447.864 1.01787 1.20321 0
M  V30 4794 C 449.11 0.708985 1.90003 0
M  V30 4795 C 449.443 -0.759572 1.78729 0
M  V30 4796 O 448.718 -1.55198 1.17234 0
M  V30 4797 C 449.001 1.1469 3.41348 0
M  V30 4798 C 448.854 2.67586 3.61549 0
M  V30 4799 C 450.173 0.71915 4.34185 0
M  V30 4800 H 447.292 0.259034 0.689978 0
M  V30 4801 H 449.934 1.26584 1.41692 0
M  V30 4802 H 448.084 0.673128 3.82624 0
M  V30 4803 H 449.756 3.22826 3.29517 0
M  V30 4804 H 447.999 3.085 3.04976 0
M  V30 4805 H 448.67 2.93281 4.67643 0
M  V30 4806 H 451.146 1.12647 4.00562 0
M  V30 4807 H 450.022 1.05358 5.38694 0
M  V30 4808 H 450.283 -0.379111 4.40472 0
M  V30 4809 N 449.342 -1.36122 0.79427 0
M  V30 4810 C 450.252 -2.33769 0.197296 0
M  V30 4811 C 451.268 -1.61276 -0.653153 0
M  V30 4812 O 452.444 -1.9323 -0.5678 0
M  V30 4813 C 449.509 -3.40474 -0.654098 0
M  V30 4814 C 448.57 -4.28759 0.215411 0
M  V30 4815 C 447.803 -5.30368 -0.595443 0
M  V30 4816 O 448.026 -5.40211 -1.83107 0
M  V30 4817 O 446.96 -6.019 0.00721351 0
M  V30 4818 H 450.786 -2.86597 1.00478 0
M  V30 4819 H 448.371 -1.38676 0.555818 0
M  V30 4820 H 450.253 -4.05703 -1.13944 0
M  V30 4821 H 448.928 -2.89937 -1.43938 0
M  V30 4822 H 447.835 -3.66554 0.747615 0
M  V30 4823 H 449.168 -4.82661 0.964332 0
M  V30 4824 N 450.82 -0.546701 -1.47814 0
M  V30 4825 C 452.231 -0.110564 -1.86372 0
M  V30 4826 C 452.582 1.31678 -1.45449 0
M  V30 4827 O 451.707 1.98889 -0.852758 0
M  V30 4828 C 452.302 -0.193873 -3.38245 0
M  V30 4829 C 450.861 0.187164 -3.75934 0
M  V30 4830 C 450.008 -0.546166 -2.71868 0
M  V30 4831 H 452.959 -0.757022 -1.39481 0
M  V30 4832 H 452.98 0.590218 -3.75895 0
M  V30 4833 H 452.492 -1.23282 -3.67999 0
M  V30 4834 H 450.593 1.22762 -3.51796 0
M  V30 4835 H 450.706 -0.164083 -4.78819 0
M  V30 4836 H 449.07 0.00953904 -2.54698 0
M  V30 4837 H 449.853 -1.58606 -3.04465 0
M  V30 4838 N 452.299 1.55045 -0.282633 0
M  V30 4839 C 453.539 2.01668 0.333088 0
M  V30 4840 C 453.903 1.1667 1.52486 0
M  V30 4841 O 455.104 1.52907 2.21072 0
M  V30 4842 C 453.375 3.50509 0.698442 0
M  V30 4843 S 454.934 4.19112 1.29963 0
M  V30 4844 H 451.752 0.703468 0.103219 0
M  V30 4845 H 454.354 1.91233 -0.406222 0
M  V30 4846 H 453.058 4.10015 -0.177693 0
M  V30 4847 H 452.589 3.64943 1.46902 0
M  V30 4848 H 454.604 4.23362 2.58803 0
M  V30 4849 N 453.777 0.010035 1.57597 0
M  V30 4850 C 454.707 -0.976857 2.12084 0
M  V30 4851 C 455.688 -1.35191 1.03235 0
M  V30 4852 O 456.873 -1.43389 1.3097 0
M  V30 4853 C 454.003 -2.26548 2.63236 0
M  V30 4854 C 452.957 -2.03175 3.76701 0
M  V30 4855 C 452.283 -3.38138 4.14206 0
M  V30 4856 C 453.583 -1.38625 5.03568 0
M  V30 4857 H 455.277 -0.523145 2.94794 0
M  V30 4858 H 452.823 -0.250195 1.4181 0
M  V30 4859 H 454.776 -2.95952 2.99984 0
M  V30 4860 H 453.5 -2.74051 1.77661 0
M  V30 4861 H 452.159 -1.36195 3.40362 0
M  V30 4862 H 451.807 -3.83363 3.25641 0
M  V30 4863 H 451.507 -3.23312 4.90656 0
M  V30 4864 H 453.031 -4.08841 4.53521 0
M  V30 4865 H 454.445 -1.98 5.38023 0
M  V30 4866 H 452.842 -1.34256 5.84889 0
M  V30 4867 H 453.912 -0.356722 4.83586 0
M  V30 4868 N 455.255 -1.55392 -0.262866 0
M  V30 4869 C 456.203 -1.8977 -1.345 0
M  V30 4870 C 457.197 -0.775063 -1.50629 0
M  V30 4871 O 458.403 -0.959519 -1.52293 0
M  V30 4872 H 454.778 -0.602467 -0.450041 0
M  V30 4873 H 456.749 -2.80147 -1.02762 0
M  V30 4874 C 455.498 -2.19501 -2.69657 0
M  V30 4875 H 454.821 -3.05378 -2.5804 0
M  V30 4876 H 456.261 -2.47469 -3.44289 0
M  V30 4877 C 454.72 -1.00597 -3.21531 0
M  V30 4878 O 455.25 -0.245768 -4.00947 0
M  V30 4879 N 453.456 -0.800911 -2.79345 0
M  V30 4880 H 453.003 -1.42079 -2.14875 0
M  V30 4881 H 452.961 -0.00697996 -3.14399 0
M  V30 4882 N 456.733 0.527833 -1.48498 0
M  V30 4883 C 457.981 1.28101 -1.56316 0
M  V30 4884 C 458.302 1.9352 -0.239781 0
M  V30 4885 O 457.572 1.81433 0.738849 0
M  V30 4886 H 456.152 0.475793 -0.575873 0
M  V30 4887 H 458.814 0.614052 -1.84974 0
M  V30 4888 H 457.91 2.05916 -2.34532 0
M  V30 4889 N 458.211 1.37122 0.776871 0
M  V30 4890 C 459.439 1.3523 1.5659 0
M  V30 4891 C 459.854 -0.0635518 1.88693 0
M  V30 4892 O 459.211 -1.02394 1.51069 0
M  V30 4893 C 459.262 2.18583 2.8793 0
M  V30 4894 O 458.983 3.5465 2.57206 0
M  V30 4895 C 460.484 2.24612 3.82183 0
M  V30 4896 H 457.704 0.4634 0.485285 0
M  V30 4897 H 460.248 1.80392 0.963266 0
M  V30 4898 H 458.403 1.76943 3.4463 0
M  V30 4899 H 458.817 3.98286 3.41275 0
M  V30 4900 H 460.291 2.87267 4.71361 0
M  V30 4901 H 460.768 1.25309 4.20944 0
M  V30 4902 H 461.374 2.66543 3.31414 0
M  V30 4903 N 459.689 -1.00246 1.21608 0
M  V30 4904 C 460.619 -2.10921 1.00172 0
M  V30 4905 C 461.6 -1.69938 -0.0741587 0
M  V30 4906 O 462.785 -1.94009 0.0861753 0
M  V30 4907 C 459.915 -3.42618 0.568355 0
M  V30 4908 C 458.869 -3.97407 1.58909 0
M  V30 4909 C 458.195 -5.25038 1.01187 0
M  V30 4910 C 459.495 -4.2918 2.97661 0
M  V30 4911 H 461.189 -2.29112 1.92739 0
M  V30 4912 H 458.735 -1.10101 0.928102 0
M  V30 4913 H 460.688 -4.19444 0.405555 0
M  V30 4914 H 459.412 -3.24227 -0.392961 0
M  V30 4915 H 458.071 -3.22703 1.73949 0
M  V30 4916 H 457.719 -5.02982 0.0421965 0
M  V30 4917 H 457.419 -5.62661 1.6937 0
M  V30 4918 H 458.943 -6.04507 0.860448 0
M  V30 4919 H 460.357 -4.96839 2.86049 0
M  V30 4920 H 458.754 -4.77952 3.6288 0
M  V30 4921 H 459.824 -3.3735 3.48315 0
M  V30 4922 N 461.167 -1.02423 -1.1978 0
M  V30 4923 C 462.413 -0.719051 -1.89625 0
M  V30 4924 C 462.746 0.750083 -1.7913 0
M  V30 4925 O 462.021 1.54574 -1.18056 0
M  V30 4926 C 462.304 -1.16499 -3.40735 0
M  V30 4927 C 462.157 -2.695 -3.60125 0
M  V30 4928 C 463.476 -0.742166 -4.33797 0
M  V30 4929 H 460.595 -0.26269 -0.688595 0
M  V30 4930 H 463.237 -1.27333 -1.41018 0
M  V30 4931 H 461.387 -0.69341 -3.82262 0
M  V30 4932 H 463.059 -3.24569 -3.278 0
M  V30 4933 H 461.302 -3.10113 -3.03336 0
M  V30 4934 H 461.973 -2.95757 -4.66081 0
M  V30 4935 H 464.449 -1.1477 -3.99959 0
M  V30 4936 H 463.325 -1.08213 -5.38127 0
M  V30 4937 H 463.586 0.355747 -4.40666 0
M  V30 4938 N 462.645 1.35699 -0.801477 0
M  V30 4939 C 463.577 2.28598 -0.166028 0
M  V30 4940 C 464.59 1.50044 0.631721 0
M  V30 4941 O 465.779 1.72339 0.464921 0
M  V30 4942 C 462.879 3.29625 0.787451 0
M  V30 4943 C 462.052 4.37384 0.037171 0
M  V30 4944 C 461.111 5.183 0.908375 0
M  V30 4945 O 460.137 5.68053 0.361189 0
M  V30 4946 N 461.339 5.35912 2.23112 0
M  V30 4947 H 464.104 2.83771 -0.964071 0
M  V30 4948 H 461.665 1.47994 -0.656469 0
M  V30 4949 H 463.657 3.80648 1.37439 0
M  V30 4950 H 462.227 2.75004 1.48632 0
M  V30 4951 H 461.447 3.87364 -0.730935 0
M  V30 4952 H 462.735 5.0653 -0.480109 0
M  V30 4953 H 462.133 4.97125 2.69968 0
M  V30 4954 H 460.69 5.90133 2.76741 0
M  V30 4955 N 464.123 0.554532 1.47522 0
M  V30 4956 C 465.086 -0.184174 2.28459 0
M  V30 4957 C 466.086 -0.845195 1.36796 0
M  V30 4958 O 467.276 -0.701467 1.59452 0
M  V30 4959 C 464.408 -1.26903 3.16399 0
M  V30 4960 H 465.601 0.526751 2.95238 0
M  V30 4961 H 463.154 0.311375 1.53167 0
M  V30 4962 H 463.889 -2.01244 2.54306 0
M  V30 4963 H 463.674 -0.799883 3.83854 0
M  V30 4964 H 465.164 -1.78794 3.77389 0
M  V30 4965 N 465.601 -1.54893 0.290851 0
M  V30 4966 C 466.878 -1.91991 -0.373989 0
M  V30 4967 C 467.258 -1.21694 -1.72493 0
M  V30 4968 O 466.606 -0.34917 -2.25816 0
M  V30 4969 C 466.816 -3.45419 -0.498703 0
M  V30 4970 C 468.164 -4.1748 -0.774298 0
M  V30 4971 O 469.188 -3.51398 -0.582908 0
M  V30 4972 O 468.047 -5.3445 -1.14129 0
M  V30 4973 H 465.141 -0.800593 -0.207315 0
M  V30 4974 H 467.687 -1.66297 0.338164 0
M  V30 4975 H 466.459 -3.88688 0.451392 0
M  V30 4976 H 466.082 -3.77117 -1.25972 0
M  V30 4977 N 467.08 -0.0183926 -1.57589 0
M  V30 4978 C 468.496 0.337897 -1.55982 0
M  V30 4979 C 468.696 1.73604 -1.02294 0
M  V30 4980 O 467.752 2.43589 -0.664895 0
M  V30 4981 C 469.065 0.196305 -3.00059 0
M  V30 4982 C 470.613 0.269875 -3.11834 0
M  V30 4983 C 471.088 0.157197 -4.5773 0
M  V30 4984 N 472.579 0.214521 -4.62703 0
M  V30 4985 C 473.314 0.150955 -5.73201 0
M  V30 4986 N 472.81 0.0369212 -6.9279 0
M  V30 4987 N 474.603 0.204162 -5.61729 0
M  V30 4988 H 466.754 -0.93279 -1.90821 0
M  V30 4989 H 469.017 -0.359253 -0.877292 0
M  V30 4990 H 468.723 -0.766383 -3.43248 0
M  V30 4991 H 468.597 0.970908 -3.6449 0
M  V30 4992 H 470.984 1.22302 -2.68563 0
M  V30 4993 H 471.065 -0.534918 -2.50144 0
M  V30 4994 H 470.709 -0.792479 -5.01679 0
M  V30 4995 H 470.639 0.980717 -5.17387 0
M  V30 4996 H 473.13 0.303238 -3.76681 0
M  V30 4997 H 473.443 -0.00518321 -7.728 0
M  V30 4998 H 471.788 0.0022886 -6.95 0
M  V30 4999 H 474.979 0.291575 -4.67191 0
M  V30 5000 H 475.152 0.15116 -6.47824 0
M  V30 5001 N 468.558 1.5553 0.254621 0
M  V30 5002 C 469.786 1.81046 1.00149 0
M  V30 5003 C 470.201 0.593047 1.79244 0
M  V30 5004 O 469.558 -0.438196 1.77161 0
M  V30 5005 C 469.609 3.04684 1.94551 0
M  V30 5006 O 469.33 4.21725 1.18658 0
M  V30 5007 C 470.831 3.42943 2.80901 0
M  V30 5008 H 468.051 0.602653 0.295044 0
M  V30 5009 H 470.595 2.02576 0.279842 0
M  V30 5010 H 468.75 2.85226 2.62154 0
M  V30 5011 H 469.164 4.91746 1.82445 0
M  V30 5012 H 470.638 4.32576 3.42902 0
M  V30 5013 H 471.115 2.63176 3.51617 0
M  V30 5014 H 471.721 3.64724 2.18762 0
M  V30 5015 N 470.036 -0.519951 1.48776 0
M  V30 5016 C 470.984 -1.64443 1.64503 0
M  V30 5017 C 471.978 -1.61501 0.511248 0
M  V30 5018 O 473.184 -1.66238 0.690294 0
M  V30 5019 H 469.559 -0.544776 0.518385 0
M  V30 5020 H 471.53 -1.48325 2.58925 0
M  V30 5021 C 470.279 -3.02673 1.71127 0
M  V30 5022 H 469.602 -3.05635 2.57735 0
M  V30 5023 H 471.042 -3.80941 1.86172 0
M  V30 5024 C 469.501 -3.33854 0.452032 0
M  V30 5025 O 470.031 -3.99385 -0.430678 0
M  V30 5026 N 468.237 -2.88825 0.32069 0
M  V30 5027 H 467.784 -2.35674 1.03998 0
M  V30 5028 H 467.742 -3.10056 -0.520814 0
M  V30 5029 N 471.514 -1.37532 -0.769588 0
M  V30 5030 C 472.461 -1.3347 -1.88293 0
M  V30 5031 C 473.431 -0.199891 -1.64893 0
M  V30 5032 O 474.616 -0.389594 -1.8678 0
M  V30 5033 C 471.756 -1.14968 -3.25387 0
M  V30 5034 C 470.869 -2.37698 -3.60727 0
M  V30 5035 C 470.004 -2.12051 -4.8704 0
M  V30 5036 C 469.043 -3.30636 -5.15117 0
M  V30 5037 N 468.18 -3.04527 -6.3262 0
M  V30 5038 H 473.02 -2.28658 -1.911 0
M  V30 5039 H 470.557 -1.13622 -0.934257 0
M  V30 5040 H 472.515 -1.02261 -4.04473 0
M  V30 5041 H 471.145 -0.234263 -3.21949 0
M  V30 5042 H 470.197 -2.61137 -2.76608 0
M  V30 5043 H 471.509 -3.26131 -3.77413 0
M  V30 5044 H 470.663 -1.96388 -5.74035 0
M  V30 5045 H 469.402 -1.20959 -4.72462 0
M  V30 5046 H 468.407 -3.46836 -4.26597 0
M  V30 5047 H 469.632 -4.22582 -5.31603 0
M  V30 5048 H 467.578 -2.16067 -6.19396 0
M  V30 5049 H 467.495 -3.86503 -6.49732 0
M  V30 5050 H 468.763 -2.92485 -7.22546 0
M  V30 5051 N 472.992 0.995999 -1.22138 0
M  V30 5052 C 473.902 2.11985 -1.00496 0
M  V30 5053 C 474.918 1.7394 0.0457701 0
M  V30 5054 O 476.094 2.00868 -0.146273 0
M  V30 5055 C 473.159 3.41779 -0.582086 0
M  V30 5056 C 472.22 3.93943 -1.70608 0
M  V30 5057 C 471.453 5.17542 -1.30328 0
M  V30 5058 O 471.676 5.70114 -0.180743 0
M  V30 5059 O 470.61 5.63382 -2.11861 0
M  V30 5060 H 474.436 2.33123 -1.94647 0
M  V30 5061 H 472.021 1.10358 -1.00705 0
M  V30 5062 H 473.903 4.1989 -0.356467 0
M  V30 5063 H 472.578 3.22007 0.330592 0
M  V30 5064 H 471.485 3.17019 -1.98619 0
M  V30 5065 H 472.818 4.18141 -2.59651 0
M  V30 5066 N 474.47 1.03057 1.19235 0
M  V30 5067 C 475.42 0.583386 2.2041 0
M  V30 5068 C 476.404 -0.368776 1.56617 0
M  V30 5069 O 477.596 -0.189471 1.75983 0
M  V30 5070 C 474.725 -0.0626534 3.43243 0
M  V30 5071 C 473.811 0.91205 4.14177 0
M  V30 5072 N 474.202 2.07514 4.61272 0
M  V30 5073 C 472.5 0.735859 4.39888 0
M  V30 5074 C 473.201 2.69003 5.15764 0
M  V30 5075 N 472.177 1.96954 5.06666 0
M  V30 5076 H 475.979 1.46988 2.54503 0
M  V30 5077 H 473.493 0.897785 1.35328 0
M  V30 5078 H 475.49 -0.400653 4.1497 0
M  V30 5079 H 474.15 -0.944813 3.1065 0
M  V30 5080 H 475.161 2.45448 4.56043 0
M  V30 5081 H 471.838 -0.0970656 4.17387 0
M  V30 5082 H 473.228 3.67514 5.6248 0
M  V30 5083 N 475.948 -1.35272 0.808662 0
M  V30 5084 C 477.195 -1.98709 0.390003 0
M  V30 5085 C 477.523 -1.64148 -1.04335 0
M  V30 5086 O 476.778 -0.897797 -1.73891 0
M  V30 5087 C 477.077 -3.53556 0.522798 0
M  V30 5088 C 476.743 -4.0799 1.91977 0
M  V30 5089 C 475.405 -4.22568 2.30195 0
M  V30 5090 C 477.757 -4.37442 2.83361 0
M  V30 5091 C 475.085 -4.63918 3.59162 0
M  V30 5092 C 477.437 -4.80232 4.11776 0
M  V30 5093 C 476.101 -4.93016 4.49991 0
M  V30 5094 H 475.371 -0.727127 0.142712 0
M  V30 5095 H 478.018 -1.6145 1.02985 0
M  V30 5096 H 476.323 -3.91287 -0.200494 0
M  V30 5097 H 478.02 -4.00598 0.179608 0
M  V30 5098 H 474.61 -3.97096 1.61284 0
M  V30 5099 H 478.794 -4.25731 2.55083 0
M  V30 5100 H 474.05 -4.72005 3.88615 0
M  V30 5101 H 478.224 -5.01982 4.82687 0
M  V30 5102 H 475.851 -5.24814 5.49976 0
M  V30 5103 N 477.426 -0.562348 -1.47226 0
M  V30 5104 C 478.842 -0.222492 -1.58042 0
M  V30 5105 C 479.042 1.27505 -1.56028 0
M  V30 5106 O 478.098 2.05555 -1.46641 0
M  V30 5107 C 479.411 -0.853694 -2.88327 0
M  V30 5108 C 480.959 -0.825397 -3.01921 0
M  V30 5109 C 481.434 -1.43576 -4.34914 0
M  V30 5110 N 482.925 -1.39918 -4.41562 0
M  V30 5111 C 483.66 -1.84103 -5.43041 0
M  V30 5112 N 483.156 -2.36167 -6.51304 0
M  V30 5113 N 484.949 -1.75142 -5.34118 0
M  V30 5114 H 477.1 -1.53525 -1.46778 0
M  V30 5115 H 479.363 -0.640527 -0.698877 0
M  V30 5116 H 479.069 -1.90635 -2.95552 0
M  V30 5117 H 478.943 -0.34977 -3.75575 0
M  V30 5118 H 481.33 0.218583 -2.94289 0
M  V30 5119 H 481.411 -1.36713 -2.16202 0
M  V30 5120 H 481.055 -2.47884 -4.43301 0
M  V30 5121 H 480.985 -0.869427 -5.19373 0
M  V30 5122 H 483.476 -1.0184 -3.63919 0
M  V30 5123 H 483.789 -2.67793 -7.24919 0
M  V30 5124 H 482.134 -2.40181 -6.52179 0
M  V30 5125 H 485.325 -1.34241 -4.48439 0
M  V30 5126 H 485.498 -2.09895 -6.13065 0
M  V30 5127 N 478.904 1.54736 -0.299062 0
M  V30 5128 C 479.814 2.27127 0.587413 0
M  V30 5129 C 480.83 1.30575 1.15005 0
M  V30 5130 O 482.006 1.63554 1.17525 0
M  V30 5131 C 479.071 2.99645 1.74395 0
M  V30 5132 C 478.132 4.11731 1.21559 0
M  V30 5133 C 477.365 4.80781 2.317 0
M  V30 5134 O 477.588 4.4918 3.51558 0
M  V30 5135 O 476.522 5.68226 1.98501 0
M  V30 5136 H 480.348 3.037 0.000250109 0
M  V30 5137 H 477.933 1.49256 -0.0655919 0
M  V30 5138 H 479.815 3.45138 2.4178 0
M  V30 5139 H 478.49 2.25969 2.31775 0
M  V30 5140 H 477.397 3.70641 0.507514 0
M  V30 5141 H 478.73 4.87379 0.687233 0
M  V30 5142 N 480.382 0.0267497 1.57577 0
M  V30 5143 C 481.332 -0.965003 2.06571 0
M  V30 5144 C 482.316 -1.28694 0.965746 0
M  V30 5145 O 483.508 -1.27345 1.22932 0
M  V30 5146 C 480.637 -2.24821 2.59443 0
M  V30 5147 C 479.723 -1.95474 3.76365 0
M  V30 5148 N 480.114 -1.36387 4.87065 0
M  V30 5149 C 478.412 -2.25478 3.84806 0
M  V30 5150 C 479.113 -1.24119 5.68304 0
M  V30 5151 N 478.089 -1.7359 5.15138 0
M  V30 5152 H 481.891 -0.503095 2.89562 0
M  V30 5153 H 479.405 -0.178322 1.61418 0
M  V30 5154 H 481.402 -2.9674 2.92833 0
M  V30 5155 H 480.062 -2.7164 1.77881 0
M  V30 5156 H 481.073 -1.03919 5.07367 0
M  V30 5157 H 477.75 -2.74987 3.14147 0
M  V30 5158 H 479.14 -0.784504 6.67304 0
M  V30 5159 N 481.861 -1.55662 -0.24637 0
M  V30 5160 C 482.791 -1.93377 -1.30873 0
M  V30 5161 C 483.772 -0.798773 -1.50179 0
M  V30 5162 O 484.957 -1.0591 -1.62778 0
M  V30 5163 C 482.087 -2.22893 -2.66338 0
M  V30 5164 C 481.041 -3.38649 -2.61727 0
M  V30 5165 C 480.367 -3.53708 -4.00992 0
M  V30 5166 C 481.667 -4.74323 -2.18666 0
M  V30 5167 H 483.361 -2.82363 -0.995552 0
M  V30 5168 H 480.907 -1.35854 -0.477464 0
M  V30 5169 H 482.86 -2.47866 -3.40794 0
M  V30 5170 H 481.584 -1.30733 -2.99293 0
M  V30 5171 H 480.243 -3.13685 -1.89729 0
M  V30 5172 H 479.891 -2.58967 -4.31214 0
M  V30 5173 H 479.591 -4.31551 -3.98795 0
M  V30 5174 H 481.115 -3.81003 -4.77147 0
M  V30 5175 H 482.529 -4.98665 -2.82854 0
M  V30 5176 H 480.926 -5.55273 -2.27579 0
M  V30 5177 H 481.996 -4.71349 -1.13834 0
M  V30 5178 N 483.339 0.512053 -1.4905 0
M  V30 5179 C 484.616 1.27337 -1.48474 0
M  V30 5180 C 484.996 2.1009 -0.206301 0
M  V30 5181 O 484.344 2.136 0.811609 0
M  V30 5182 C 484.554 2.13954 -2.75726 0
M  V30 5183 C 485.902 2.73507 -3.24776 0
M  V30 5184 O 486.926 2.24229 -2.76767 0
M  V30 5185 O 485.785 3.63186 -4.08361 0
M  V30 5186 H 482.879 0.575652 -0.593762 0
M  V30 5187 H 485.425 0.527232 -1.61302 0
M  V30 5188 H 484.197 1.52709 -3.60272 0
M  V30 5189 H 483.82 2.95782 -2.65705 0
M  V30 5190 N 484.817 1.37938 0.762283 0
M  V30 5191 C 485.764 1.34467 1.87583 0
M  V30 5192 C 486.734 0.208633 1.64785 0
M  V30 5193 O 487.919 0.399494 1.86571 0
M  V30 5194 C 485.059 1.16692 3.24772 0
M  V30 5195 C 484.172 2.39608 3.59461 0
M  V30 5196 C 483.307 2.14631 4.85908 0
M  V30 5197 C 482.346 3.33364 5.13357 0
M  V30 5198 N 481.483 3.07877 6.30996 0
M  V30 5199 H 486.323 2.29669 1.89885 0
M  V30 5200 H 483.86 1.14116 0.928219 0
M  V30 5201 H 485.818 1.04405 4.03925 0
M  V30 5202 H 484.448 0.251333 3.2182 0
M  V30 5203 H 483.5 2.626 2.75219 0
M  V30 5204 H 484.812 3.28128 3.75678 0
M  V30 5205 H 483.966 1.99429 5.72986 0
M  V30 5206 H 482.705 1.23463 4.71814 0
M  V30 5207 H 481.71 3.49094 4.24751 0
M  V30 5208 H 482.935 4.25395 5.29354 0
M  V30 5209 H 480.881 2.19348 6.18241 0
M  V30 5210 H 480.798 3.89944 6.47673 0
M  V30 5211 H 482.066 2.96313 7.20985 0
M  V30 5212 N 486.295 -0.989507 1.22664 0
M  V30 5213 C 487.225 -2.09847 1.02404 0
M  V30 5214 C 488.206 -1.70007 -0.0561303 0
M  V30 5215 O 489.391 -1.93906 0.106748 0
M  V30 5216 C 486.521 -3.41996 0.604663 0
M  V30 5217 C 485.475 -3.95699 1.63115 0
M  V30 5218 C 484.801 -5.23936 1.0675 0
M  V30 5219 C 486.101 -4.25999 3.02196 0
M  V30 5220 H 487.795 -2.27054 1.95158 0
M  V30 5221 H 485.341 -1.09111 0.939727 0
M  V30 5222 H 487.294 -4.1899 0.45002 0
M  V30 5223 H 486.018 -3.24626 -0.35855 0
M  V30 5224 H 484.677 -3.2084 1.77362 0
M  V30 5225 H 484.325 -5.02909 0.0955422 0
M  V30 5226 H 484.025 -5.60833 1.75328 0
M  V30 5227 H 485.549 -6.0356 0.924516 0
M  V30 5228 H 486.963 -4.93777 2.91303 0
M  V30 5229 H 485.36 -4.74076 3.67929 0
M  V30 5230 H 486.43 -3.33636 3.51873 0
M  V30 5231 N 487.773 -1.03688 -1.18687 0
M  V30 5232 C 489.02 -0.73803 -1.88572 0
M  V30 5233 C 489.348 0.733973 -1.8012 0
M  V30 5234 O 488.603 1.55098 -1.19344 0
M  V30 5235 C 488.902 -1.14477 -3.3857 0
M  V30 5236 C 488.568 -2.61641 -3.67226 0
M  V30 5237 C 487.23 -3.01846 -3.74757 0
M  V30 5238 C 489.582 -3.56812 -3.79914 0
M  V30 5239 C 486.91 -4.36118 -3.92451 0
M  V30 5240 C 489.262 -4.90799 -3.99123 0
M  V30 5241 C 487.926 -5.3068 -4.04888 0
M  V30 5242 H 487.196 -0.270064 -0.690034 0
M  V30 5243 H 489.843 -1.3012 -1.40503 0
M  V30 5244 H 488.148 -0.500337 -3.88592 0
M  V30 5245 H 489.845 -0.89095 -3.90977 0
M  V30 5246 H 486.435 -2.29498 -3.61979 0
M  V30 5247 H 490.619 -3.26899 -3.73431 0
M  V30 5248 H 485.875 -4.66542 -3.95157 0
M  V30 5249 H 490.049 -5.64451 -4.07882 0
M  V30 5250 H 487.676 -6.34733 -4.18351 0
M  V30 5251 N 489.251 1.34841 -0.815825 0
M  V30 5252 C 490.214 2.27959 -0.238185 0
M  V30 5253 C 491.214 1.49983 0.579816 0
M  V30 5254 O 492.404 1.69617 0.396953 0
M  V30 5255 C 489.536 3.34314 0.666876 0
M  V30 5256 H 490.729 2.80558 -1.05958 0
M  V30 5257 H 488.282 1.44852 -0.587156 0
M  V30 5258 H 489.017 2.86916 1.5116 0
M  V30 5259 H 488.802 3.92014 0.0819106 0
M  V30 5260 H 490.292 4.0379 1.06506 0
M  V30 5261 N 490.729 0.570148 1.46925 0
M  V30 5262 C 491.676 -0.170257 2.30171 0
M  V30 5263 C 492.646 -0.896099 1.39855 0
M  V30 5264 O 493.831 -0.889248 1.68811 0
M  V30 5265 C 490.971 -1.18605 3.24079 0
M  V30 5266 C 490.084 -0.464947 4.29491 0
M  V30 5267 C 489.219 -1.46716 5.10537 0
M  V30 5268 C 488.258 -0.731758 6.0771 0
M  V30 5269 N 487.395 -1.68142 6.81669 0
M  V30 5270 H 492.235 0.545713 2.92961 0
M  V30 5271 H 489.772 0.280938 1.44392 0
M  V30 5272 H 491.73 -1.78771 3.76957 0
M  V30 5273 H 490.36 -1.86989 2.63125 0
M  V30 5274 H 489.412 0.251506 3.79568 0
M  V30 5275 H 490.724 0.110548 4.98677 0
M  V30 5276 H 489.878 -2.14199 5.6763 0
M  V30 5277 H 488.617 -2.07658 4.41282 0
M  V30 5278 H 487.622 -0.0430787 5.49783 0
M  V30 5279 H 488.847 -0.127904 6.7898 0
M  V30 5280 H 486.793 -2.27918 6.15134 0
M  V30 5281 H 486.71 -1.15841 7.47072 0
M  V30 5282 H 487.978 -2.347 7.43328 0
M  V30 5283 N 492.207 -1.54576 0.307264 0
M  V30 5284 C 493.455 -1.99867 -0.299574 0
M  V30 5285 C 493.776 -1.19714 -1.53927 0
M  V30 5286 O 493.046 -0.29472 -1.9367 0
M  V30 5287 H 491.626 -0.738299 -0.113683 0
M  V30 5288 H 494.288 -1.9032 0.420042 0
M  V30 5289 H 493.384 -3.06901 -0.567283 0
M  V30 5290 N 493.685 -0.035106 -1.57561 0
M  V30 5291 C 494.934 0.641604 -1.91223 0
M  V30 5292 C 495.247 1.72944 -0.913761 0
M  V30 5293 O 496.453 2.46321 -1.14185 0
M  V30 5294 C 494.909 1.19249 -3.3957 0
M  V30 5295 C 494.517 0.137616 -4.47789 0
M  V30 5296 C 496.261 1.84537 -3.82291 0
M  V30 5297 C 494.168 0.700478 -5.87237 0
M  V30 5298 H 493.098 0.243417 -0.713627 0
M  V30 5299 H 495.749 -0.101382 -1.8322 0
M  V30 5300 H 494.131 1.98728 -3.42525 0
M  V30 5301 H 495.305 -0.635153 -4.56402 0
M  V30 5302 H 493.62 -0.416855 -4.14308 0
M  V30 5303 H 496.217 2.27616 -4.83834 0
M  V30 5304 H 496.56 2.69054 -3.17672 0
M  V30 5305 H 497.093 1.11739 -3.81784 0
M  V30 5306 H 493.832 -0.106693 -6.55413 0
M  V30 5307 H 493.352 1.4416 -5.82218 0
M  V30 5308 H 495.031 1.18837 -6.35993 0
M  V30 5309 N 495.163 1.55791 0.238111 0
M  V30 5310 C 496.411 1.77681 0.963001 0
M  V30 5311 C 496.732 0.600674 1.85518 0
M  V30 5312 O 496.002 -0.383182 1.92116 0
M  V30 5313 H 494.582 0.655315 0.358568 0
M  V30 5314 H 497.244 1.93239 0.253945 0
M  V30 5315 H 496.34 2.69177 1.57956 0
M  V30 5316 N 496.642 -0.504142 1.49319 0
M  V30 5317 C 497.575 -1.62361 1.60356 0
M  V30 5318 C 498.553 -1.56169 0.45277 0
M  V30 5319 O 499.737 -1.76271 0.667892 0
M  V30 5320 C 496.864 -3.00864 1.55559 0
M  V30 5321 C 495.91 -3.25328 2.75797 0
M  V30 5322 S 496.743 -3.08791 4.37503 0
M  V30 5323 C 497.899 -4.49695 4.35345 0
M  V30 5324 H 498.132 -1.52753 2.55056 0
M  V30 5325 H 495.665 -0.689065 1.38171 0
M  V30 5326 H 497.623 -3.8073 1.53477 0
M  V30 5327 H 496.284 -3.0789 0.621515 0
M  V30 5328 H 495.477 -4.2643 2.68651 0
M  V30 5329 H 495.079 -2.53179 2.75275 0
M  V30 5330 H 497.371 -5.41721 4.06871 0
M  V30 5331 H 498.314 -4.61891 5.36714 0
M  V30 5332 H 498.722 -4.30227 3.65465 0
M  V30 5333 N 498.12 -1.38341 -0.754957 0
M  V30 5334 C 499.05 -1.38176 -1.88227 0
M  V30 5335 C 500.031 -0.247873 -1.68284 0
M  V30 5336 O 501.216 -0.45075 -1.88896 0
M  V30 5337 C 498.346 -1.20471 -3.25736 0
M  V30 5338 C 497.3 -2.3105 -3.60278 0
M  V30 5339 C 496.626 -1.98452 -4.96509 0
M  V30 5340 C 497.926 -3.73305 -3.65295 0
M  V30 5341 H 499.62 -2.32512 -1.88622 0
M  V30 5342 H 497.166 -1.1192 -0.906082 0
M  V30 5343 H 499.119 -1.18982 -4.04254 0
M  V30 5344 H 497.843 -0.225965 -3.25817 0
M  V30 5345 H 496.502 -2.31723 -2.84078 0
M  V30 5346 H 496.15 -0.990641 -4.93148 0
M  V30 5347 H 495.85 -2.7251 -5.20588 0
M  V30 5348 H 497.374 -1.98578 -5.77407 0
M  V30 5349 H 498.788 -3.7467 -4.3393 0
M  V30 5350 H 497.185 -4.46557 -4.00883 0
M  V30 5351 H 498.255 -4.05719 -2.65556 0
M  V30 5352 N 499.598 0.982988 -1.23187 0
M  V30 5353 C 500.875 1.69814 -0.970707 0
M  V30 5354 C 501.255 2.04811 0.511424 0
M  V30 5355 O 500.603 1.73924 1.48198 0
M  V30 5356 C 500.813 2.94143 -1.87831 0
M  V30 5357 C 502.161 3.66712 -2.14026 0
M  V30 5358 O 503.185 3.04171 -1.8536 0
M  V30 5359 O 502.044 4.79258 -2.62629 0
M  V30 5360 H 499.138 0.741659 -0.365884 0
M  V30 5361 H 501.684 1.03844 -1.34218 0
M  V30 5362 H 500.456 2.64858 -2.88038 0
M  V30 5363 H 500.079 3.6785 -1.50905 0
M  V30 5364 N 501.076 1.04316 1.18135 0
M  V30 5365 C 502.325 0.74319 1.87509 0
M  V30 5366 C 502.638 -0.732136 1.81381 0
M  V30 5367 O 503.844 -1.14572 2.46141 0
M  V30 5368 C 502.3 1.27913 3.36402 0
M  V30 5369 C 501.908 2.78326 3.51053 0
M  V30 5370 C 503.652 1.0558 4.11161 0
M  V30 5371 C 501.559 3.25266 4.93919 0
M  V30 5372 H 500.489 0.274313 0.702331 0
M  V30 5373 H 503.14 1.25931 1.33467 0
M  V30 5374 H 501.522 0.690853 3.89927 0
M  V30 5375 H 502.696 3.42933 3.07788 0
M  V30 5376 H 501.011 2.991 2.89704 0
M  V30 5377 H 503.608 1.38161 5.16542 0
M  V30 5378 H 503.951 -0.00684729 4.16299 0
M  V30 5379 H 504.484 1.60882 3.63816 0
M  V30 5380 H 501.223 4.30922 4.9395 0
M  V30 5381 H 500.743 2.65396 5.3789 0
M  V30 5382 H 502.422 3.19433 5.62647 0
M  V30 5383 N 502.554 -1.34406 0.822964 0
M  V30 5384 C 503.517 -2.2783 0.250271 0
M  V30 5385 C 504.517 -1.50288 -0.571854 0
M  V30 5386 O 505.707 -1.69825 -0.387952 0
M  V30 5387 C 502.839 -3.34663 -0.649137 0
M  V30 5388 H 504.032 -2.79992 1.07444 0
M  V30 5389 H 501.585 -1.44539 0.594829 0
M  V30 5390 H 502.32 -2.87714 -1.49637 0
M  V30 5391 H 502.105 -3.92052 -0.0611199 0
M  V30 5392 H 503.595 -4.04349 -1.04363 0
M  V30 5393 N 504.032 -0.577932 -1.46621 0
M  V30 5394 C 504.962 0.145917 -2.33044 0
M  V30 5395 C 505.943 0.888412 -1.45056 0
M  V30 5396 O 507.128 0.864812 -1.73881 0
M  V30 5397 C 504.258 1.16322 -3.27241 0
M  V30 5398 C 503.212 0.535868 -4.24632 0
M  V30 5399 C 502.538 1.65929 -5.08303 0
M  V30 5400 C 503.838 -0.523861 -5.19666 0
M  V30 5401 H 505.532 -0.575636 -2.93814 0
M  V30 5402 H 503.078 -0.278272 -1.41286 0
M  V30 5403 H 505.031 1.67793 -3.86553 0
M  V30 5404 H 503.755 1.91498 -2.64567 0
M  V30 5405 H 502.414 0.0422759 -3.66576 0
M  V30 5406 H 502.062 2.40061 -4.42018 0
M  V30 5407 H 501.762 1.2452 -5.74255 0
M  V30 5408 H 503.286 2.17686 -5.70478 0
M  V30 5409 H 504.7 -0.0944059 -5.73222 0
M  V30 5410 H 503.097 -0.858 -5.93935 0
M  V30 5411 H 504.167 -1.41197 -4.63887 0
M  V30 5412 N 505.51 1.54411 -0.315457 0
M  V30 5413 C 506.458 2.25514 0.569771 0
M  V30 5414 C 507.452 1.2663 1.12522 0
M  V30 5415 O 508.658 1.44434 1.07419 0
M  V30 5416 H 505.033 0.724257 0.202376 0
M  V30 5417 H 507.004 2.98354 -0.0522895 0
M  V30 5418 C 505.753 3.02004 1.72305 0
M  V30 5419 H 505.076 3.77906 1.30488 0
M  V30 5420 H 506.516 3.55014 2.31821 0
M  V30 5421 C 504.975 2.09822 2.63583 0
M  V30 5422 O 505.505 1.67574 3.65078 0
M  V30 5423 N 503.711 1.75478 2.31637 0
M  V30 5424 H 503.258 2.10032 1.49145 0
M  V30 5425 H 503.216 1.14079 2.92973 0
M  V30 5426 N 506.988 0.0434614 1.5754 0
M  V30 5427 C 507.898 -0.94893 2.14552 0
M  V30 5428 C 508.914 -1.34707 1.10136 0
M  V30 5429 O 510.09 -1.42557 1.42266 0
M  V30 5430 C 507.155 -2.208 2.67298 0
M  V30 5431 C 506.216 -1.86893 3.86484 0
M  V30 5432 C 505.449 -3.06797 4.36705 0
M  V30 5433 O 505.672 -4.19921 3.86034 0
M  V30 5434 O 504.606 -2.8826 5.28384 0
M  V30 5435 H 508.432 -0.494099 2.99654 0
M  V30 5436 H 506.017 -0.177989 1.48336 0
M  V30 5437 H 507.899 -2.94686 3.01228 0
M  V30 5438 H 506.574 -2.65436 1.85272 0
M  V30 5439 H 505.481 -1.10347 3.57455 0
M  V30 5440 H 506.814 -1.47062 4.69716 0
M  V30 5441 N 508.466 -1.55915 -0.229846 0
M  V30 5442 C 509.429 -1.90914 -1.26824 0
M  V30 5443 C 510.429 -0.786999 -1.40225 0
M  V30 5444 O 511.619 -1.05484 -1.38632 0
M  V30 5445 C 508.751 -2.15264 -2.64337 0
M  V30 5446 H 509.944 -2.8378 -0.969998 0
M  V30 5447 H 507.497 -1.49069 -0.4699 0
M  V30 5448 H 508.232 -1.24923 -2.99274 0
M  V30 5449 H 508.017 -2.97005 -2.55989 0
M  V30 5450 H 509.507 -2.43467 -3.39284 0
M  V30 5451 N 509.944 0.496216 -1.49584 0
M  V30 5452 C 511.191 1.25003 -1.59312 0
M  V30 5453 C 511.519 1.92445 -0.28198 0
M  V30 5454 O 510.774 1.81557 0.730452 0
M  V30 5455 C 511.073 2.3359 -2.705 0
M  V30 5456 C 510.739 1.83574 -4.11839 0
M  V30 5457 C 509.401 1.69653 -4.50302 0
M  V30 5458 C 511.753 1.46193 -5.00277 0
M  V30 5459 C 509.081 1.16736 -5.74969 0
M  V30 5460 C 511.433 0.947265 -6.25468 0
M  V30 5461 C 510.097 0.794485 -6.62755 0
M  V30 5462 H 509.367 0.45742 -0.582965 0
M  V30 5463 H 512.014 0.549996 -1.83432 0
M  V30 5464 H 510.319 3.09401 -2.40371 0
M  V30 5465 H 512.016 2.91627 -2.75235 0
M  V30 5466 H 508.606 1.9537 -3.81482 0
M  V30 5467 H 512.79 1.55793 -4.71214 0
M  V30 5468 H 508.046 1.03623 -6.02555 0
M  V30 5469 H 512.22 0.648846 -6.93371 0
M  V30 5470 H 509.847 0.382271 -7.59238 0
M  V30 5471 N 511.423 1.38739 0.74761 0
M  V30 5472 C 512.371 1.36573 1.88283 0
M  V30 5473 C 513.365 0.250712 1.67534 0
M  V30 5474 O 514.571 0.420073 1.7503 0
M  V30 5475 H 510.946 0.42619 0.619569 0
M  V30 5476 H 512.917 2.32356 1.87226 0
M  V30 5477 C 511.666 1.21361 3.25832 0
M  V30 5478 H 510.989 2.06424 3.42388 0
M  V30 5479 H 512.429 1.23901 4.05493 0
M  V30 5480 C 510.888 -0.0790099 3.36807 0
M  V30 5481 O 511.418 -1.05385 3.8763 0
M  V30 5482 N 509.624 -0.13785 2.90273 0
M  V30 5483 H 509.171 0.656128 2.49104 0
M  V30 5484 H 509.129 -1.00228 2.97996 0
M  V30 5485 N 512.901 -0.976442 1.23707 0
M  V30 5486 C 514.15 -1.71254 1.06559 0
M  V30 5487 C 514.463 -1.91528 -0.397024 0
M  V30 5488 O 515.669 -2.62625 -0.688518 0
M  V30 5489 C 514.125 -3.08207 1.8584 0
M  V30 5490 C 513.733 -2.95806 3.36456 0
M  V30 5491 C 515.477 -3.85749 1.77194 0
M  V30 5492 C 513.384 -4.28015 4.08114 0
M  V30 5493 H 512.314 -0.642171 0.395136 0
M  V30 5494 H 514.965 -1.08877 1.4771 0
M  V30 5495 H 513.347 -3.71363 1.37498 0
M  V30 5496 H 514.521 -2.41716 3.92314 0
M  V30 5497 H 512.836 -2.31736 3.45959 0
M  V30 5498 H 515.433 -4.83633 2.28041 0
M  V30 5499 H 515.776 -4.09752 0.735477 0
M  V30 5500 H 516.309 -3.29303 2.23169 0
M  V30 5501 H 513.048 -4.09208 5.12083 0
M  V30 5502 H 512.568 -4.81955 3.57043 0
M  V30 5503 H 514.247 -4.96681 4.14629 0
M  V30 5504 N 514.379 -1.04941 -1.1758 0
M  V30 5505 C 515.309 -0.669172 -2.23706 0
M  V30 5506 C 516.29 0.331835 -1.66832 0
M  V30 5507 O 517.475 0.209988 -1.93061 0
M  V30 5508 C 514.605 -0.0404889 -3.47276 0
M  V30 5509 C 513.559 -0.965983 -4.16957 0
M  V30 5510 C 512.885 -0.201312 -5.34321 0
M  V30 5511 C 514.185 -2.28902 -4.69469 0
M  V30 5512 H 515.879 -1.55639 -2.55767 0
M  V30 5513 H 513.425 -0.749793 -1.22939 0
M  V30 5514 H 515.378 0.237298 -4.20731 0
M  V30 5515 H 514.102 0.881658 -3.14475 0
M  V30 5516 H 512.761 -1.22829 -3.45411 0
M  V30 5517 H 512.409 0.723519 -4.97769 0
M  V30 5518 H 512.109 -0.817968 -5.81879 0
M  V30 5519 H 513.633 0.0692499 -6.10561 0
M  V30 5520 H 515.047 -2.07132 -5.34574 0
M  V30 5521 H 513.444 -2.85942 -5.27596 0
M  V30 5522 H 514.514 -2.92937 -3.86414 0
M  V30 5523 N 515.857 1.33968 -0.830081 0
M  V30 5524 C 517.082 2.02813 -0.433796 0
M  V30 5525 C 517.507 1.62076 0.954614 0
M  V30 5526 O 516.865 0.808955 1.62252 0
M  V30 5527 C 516.913 3.56348 -0.552115 0
M  V30 5528 O 516.017 4.10202 0.425191 0
M  V30 5529 H 515.358 0.639817 -0.177567 0
M  V30 5530 H 517.888 1.7106 -1.12248 0
M  V30 5531 H 517.898 4.05722 -0.430513 0
M  V30 5532 H 516.573 3.85344 -1.56471 0
M  V30 5533 H 515.15 3.71979 0.261878 0
M  V30 5534 N 517.335 0.585699 1.46312 0
M  V30 5535 C 518.612 0.00542031 1.95599 0
M  V30 5536 C 518.992 -1.45619 1.52834 0
M  V30 5537 O 518.34 -2.14759 0.780446 0
M  V30 5538 C 518.55 0.180601 3.48532 0
M  V30 5539 C 519.898 0.049979 4.24571 0
M  V30 5540 O 520.922 0.109589 3.56031 0
M  V30 5541 O 519.781 -0.0832226 5.46437 0
M  V30 5542 H 516.875 -0.0481281 0.825598 0
M  V30 5543 H 519.421 0.654227 1.56582 0
M  V30 5544 H 518.193 1.19657 3.72556 0
M  V30 5545 H 517.816 -0.504498 3.94386 0
M  V30 5546 N 518.813 -1.54241 0.323641 0
M  V30 5547 C 520.06 -2.0057 -0.27891 0
M  V30 5548 C 520.388 -1.21181 -1.52136 0
M  V30 5549 O 519.643 -0.282043 -1.93657 0
M  V30 5550 C 519.942 -3.5129 -0.658031 0
M  V30 5551 C 519.608 -4.48281 0.485252 0
M  V30 5552 C 518.27 -4.74519 0.799055 0
M  V30 5553 C 520.622 -5.05909 1.25322 0
M  V30 5554 C 517.95 -5.55643 1.88354 0
M  V30 5555 C 520.302 -5.88215 2.32779 0
M  V30 5556 C 518.966 -6.12755 2.64741 0
M  V30 5557 H 518.236 -0.733938 -0.10206 0
M  V30 5558 H 520.883 -1.862 0.447435 0
M  V30 5559 H 519.188 -3.63388 -1.4648 0
M  V30 5560 H 520.885 -3.84578 -1.1358 0
M  V30 5561 H 517.475 -4.27979 0.230593 0
M  V30 5562 H 521.659 -4.8562 1.02404 0
M  V30 5563 H 516.915 -5.72888 2.13564 0
M  V30 5564 H 521.089 -6.31888 2.92729 0
M  V30 5565 H 518.716 -6.75404 3.48904 0
M  V30 5566 N 520.291 -0.0518155 -1.57515 0
M  V30 5567 C 521.239 0.940195 -2.12751 0
M  V30 5568 C 522.233 1.3218 -1.05948 0
M  V30 5569 O 523.439 1.30138 -1.24355 0
M  V30 5570 H 519.814 0.321066 -0.680015 0
M  V30 5571 H 521.785 0.449217 -2.94999 0
M  V30 5572 C 520.534 2.2055 -2.68799 0
M  V30 5573 H 519.857 1.92066 -3.50643 0
M  V30 5574 H 521.297 2.88119 -3.11068 0
M  V30 5575 C 519.756 2.95061 -1.62605 0
M  V30 5576 O 520.286 3.88025 -1.03921 0
M  V30 5577 N 518.492 2.57804 -1.34111 0
M  V30 5578 H 518.039 1.82281 -1.8202 0
M  V30 5579 H 517.997 3.07964 -0.632872 0
M  V30 5580 N 521.769 1.56035 0.221574 0
M  V30 5581 C 522.719 1.8881 1.27807 0
M  V30 5582 C 523.703 0.751177 1.42289 0
M  V30 5583 O 524.895 1.01359 1.45104 0
M  V30 5584 C 522.024 2.20828 2.6285 0
M  V30 5585 C 521.11 3.40912 2.52269 0
M  V30 5586 N 521.501 4.59531 2.1134 0
M  V30 5587 C 519.799 3.44526 2.83228 0
M  V30 5588 C 520.5 5.41689 2.1201 0
M  V30 5589 N 519.476 4.814 2.52497 0
M  V30 5590 H 523.278 2.78036 0.952529 0
M  V30 5591 H 520.792 1.566 0.430134 0
M  V30 5592 H 522.789 2.42483 3.39127 0
M  V30 5593 H 521.449 1.32914 2.9625 0
M  V30 5594 H 522.46 4.8469 1.82472 0
M  V30 5595 H 519.137 2.66956 3.21 0
M  V30 5596 H 520.527 6.46643 1.82491 0
M  V30 5597 N 523.247 -0.488276 1.49845 0
M  V30 5598 C 524.475 -1.26527 1.63702 0
M  V30 5599 C 524.89 -1.8618 0.313447 0
M  V30 5600 O 524.247 -1.68432 -0.702624 0
M  V30 5601 C 524.298 -2.3864 2.71538 0
M  V30 5602 O 524.019 -1.81437 3.98763 0
M  V30 5603 C 525.52 -3.29805 2.96215 0
M  V30 5604 H 522.74 -0.383295 0.55075 0
M  V30 5605 H 525.284 -0.584779 1.95961 0
M  V30 5606 H 523.439 -3.02496 2.42023 0
M  V30 5607 H 523.853 -2.55135 4.58265 0
M  V30 5608 H 525.327 -4.04722 3.75372 0
M  V30 5609 H 525.804 -3.87563 2.06619 0
M  V30 5610 H 526.41 -2.71703 3.27196 0
M  V30 5611 N 524.725 -1.39134 -0.740242 0
M  V30 5612 C 525.973 -1.35803 -1.49673 0
M  V30 5613 C 526.294 0.0470897 -1.94943 0
M  V30 5614 O 525.564 0.997347 -1.68611 0
M  V30 5615 H 524.144 -0.499736 -0.555224 0
M  V30 5616 H 526.806 -1.73947 -0.879107 0
M  V30 5617 H 525.902 -2.0174 -2.38133 0
M  V30 5618 N 526.204 0.969867 -1.24223 0
M  V30 5619 C 527.136 2.0669 -0.99055 0
M  V30 5620 C 528.149 1.62753 0.0392222 0
M  V30 5621 O 529.338 1.77403 -0.197561 0
M  V30 5622 C 526.438 3.35589 -0.472594 0
M  V30 5623 C 525.611 4.08444 -1.56499 0
M  V30 5624 C 524.67 5.15616 -1.05007 0
M  V30 5625 O 523.696 5.41911 -1.7413 0
M  V30 5626 N 524.898 5.80383 0.116641 0
M  V30 5627 H 527.663 2.28855 -1.93508 0
M  V30 5628 H 525.224 1.13733 -1.15223 0
M  V30 5629 H 527.216 4.04542 -0.112919 0
M  V30 5630 H 525.786 3.10311 0.377617 0
M  V30 5631 H 525.006 3.33798 -2.09696 0
M  V30 5632 H 526.294 4.53882 -2.29932 0
M  V30 5633 H 525.692 5.6142 0.694589 0
M  V30 5634 H 524.249 6.50462 0.417483 0
M  V30 5635 N 527.682 1.05563 1.17022 0
M  V30 5636 C 528.93 0.76642 1.87004 0
M  V30 5637 C 529.251 -0.708854 1.8166 0
M  V30 5638 O 528.521 -1.51242 1.2451 0
M  V30 5639 H 527.101 0.280516 0.692329 0
M  V30 5640 H 529.763 1.33557 1.41945 0
M  V30 5641 H 528.859 1.08472 2.92644 0
M  V30 5642 N 529.16 -1.33526 0.837174 0
M  V30 5643 C 530.385 -2.0258 0.444545 0
M  V30 5644 C 530.81 -1.6258 -0.946006 0
M  V30 5645 O 530.168 -0.817548 -1.6182 0
M  V30 5646 C 530.216 -3.5605 0.571006 0
M  V30 5647 O 529.32 -4.10422 -0.403431 0
M  V30 5648 H 528.661 -0.638866 0.180958 0
M  V30 5649 H 531.191 -1.70462 1.13154 0
M  V30 5650 H 531.201 -4.05488 0.452024 0
M  V30 5651 H 529.876 -3.84509 1.58512 0
M  V30 5652 H 528.453 -3.72113 -0.242147 0
M  V30 5653 N 530.638 -0.59345 -1.46 0
M  V30 5654 C 531.887 -0.0808084 -2.01538 0
M  V30 5655 C 532.2 1.29112 -1.46934 0
M  V30 5656 O 533.406 1.8957 -1.94359 0
M  V30 5657 C 531.862 -0.0938311 -3.59778 0
M  V30 5658 C 531.47 -1.46474 -4.23379 0
M  V30 5659 C 533.214 0.364306 -4.22934 0
M  V30 5660 C 531.121 -1.4349 -5.73729 0
M  V30 5661 H 530.051 -0.0264407 -0.753536 0
M  V30 5662 H 532.702 -0.746689 -1.67621 0
M  V30 5663 H 531.084 0.638427 -3.9082 0
M  V30 5664 H 532.258 -2.21758 -4.03931 0
M  V30 5665 H 530.573 -1.86379 -3.7236 0
M  V30 5666 H 533.17 0.405584 -5.3316 0
M  V30 5667 H 533.513 1.38409 -3.92618 0
M  V30 5668 H 534.046 -0.31423 -3.96557 0
M  V30 5669 H 530.785 -2.43184 -6.08722 0
M  V30 5670 H 530.305 -0.724431 -5.95409 0
M  V30 5671 H 531.984 -1.15243 -6.36654 0
M  V30 5672 N 532.116 1.54067 -0.331816 0
M  V30 5673 C 533.356 2.02625 0.26876 0
M  V30 5674 C 533.72 1.21462 1.48697 0
M  V30 5675 O 534.921 1.59863 2.16096 0
M  V30 5676 C 533.192 3.52554 0.586577 0
M  V30 5677 S 534.751 4.23035 1.16563 0
M  V30 5678 H 531.569 0.706395 0.0807862 0
M  V30 5679 H 534.171 1.89844 -0.466856 0
M  V30 5680 H 532.875 4.09242 -0.308046 0
M  V30 5681 H 532.406 3.69432 1.35217 0
M  V30 5682 H 534.421 4.31382 2.45203 0
M  V30 5683 N 533.594 0.0601682 1.57485 0
M  V30 5684 C 534.819 -0.624416 1.97777 0
M  V30 5685 C 535.244 -1.63051 0.937867 0
M  V30 5686 O 534.602 -1.81036 -0.0978845 0
M  V30 5687 C 534.65 -1.27979 3.37126 0
M  V30 5688 O 533.754 -2.39556 3.35688 0
M  V30 5689 H 533.095 -0.161581 0.64404 0
M  V30 5690 H 535.625 0.131237 2.04179 0
M  V30 5691 H 535.635 -1.62937 3.74053 0
M  V30 5692 H 534.31 -0.542501 4.12347 0
M  V30 5693 H 532.887 -2.06478 3.10517 0
M  V30 5694 N 535.072 -1.5615 -0.213296 0
M  V30 5695 C 536.004 -1.89586 -1.28802 0
M  V30 5696 C 537.017 -0.784844 -1.42633 0
M  V30 5697 O 538.206 -1.06319 -1.43383 0
M  V30 5698 C 535.306 -2.09665 -2.66259 0
M  V30 5699 C 534.479 -3.40726 -2.7427 0
M  V30 5700 C 533.538 -3.50137 -3.92798 0
M  V30 5701 O 532.564 -4.23105 -3.8075 0
M  V30 5702 N 533.766 -2.81886 -5.07465 0
M  V30 5703 H 536.531 -2.82368 -1.00442 0
M  V30 5704 H 534.092 -1.56796 -0.403302 0
M  V30 5705 H 536.084 -2.13268 -3.43946 0
M  V30 5706 H 534.654 -1.23469 -2.87183 0
M  V30 5707 H 533.874 -3.4915 -1.82997 0
M  V30 5708 H 535.162 -4.27048 -2.76599 0
M  V30 5709 H 534.56 -2.22397 -5.2015 0
M  V30 5710 H 533.117 -2.91139 -5.83165 0
M  V30 5711 N 536.55 0.480323 -1.50102 0
M  V30 5712 C 537.513 1.56181 -1.6775 0
M  V30 5713 C 538.513 1.51156 -0.548503 0
M  V30 5714 O 539.703 1.5394 -0.815363 0
M  V30 5715 C 536.835 2.95823 -1.69415 0
M  V30 5716 H 538.028 1.41855 -2.6423 0
M  V30 5717 H 535.581 0.70605 -1.39444 0
M  V30 5718 H 536.316 3.15604 -0.745948 0
M  V30 5719 H 536.101 3.00878 -2.51425 0
M  V30 5720 H 537.591 3.74359 -1.85054 0
M  V30 5721 N 538.028 1.39524 0.732853 0
M  V30 5722 C 539.277 1.36175 1.48792 0
M  V30 5723 C 539.59 -0.0388195 1.95561 0
M  V30 5724 O 540.796 -0.194899 2.708 0
M  V30 5725 C 539.252 2.39242 2.68871 0
M  V30 5726 C 538.86 3.85024 2.29042 0
M  V30 5727 C 540.604 2.44972 3.46683 0
M  V30 5728 C 538.511 4.79727 3.45856 0
M  V30 5729 H 537.441 0.506267 0.558757 0
M  V30 5730 H 540.092 1.65181 0.799226 0
M  V30 5731 H 538.474 2.0331 3.39825 0
M  V30 5732 H 539.648 4.30008 1.6562 0
M  V30 5733 H 537.963 3.82609 1.64316 0
M  V30 5734 H 540.56 3.12918 4.33574 0
M  V30 5735 H 540.903 1.4749 3.89297 0
M  V30 5736 H 541.436 2.79808 2.82759 0
M  V30 5737 H 538.175 5.78479 3.08289 0
M  V30 5738 H 537.695 4.39421 4.08251 0
M  V30 5739 H 539.374 4.98731 4.12161 0
M  V30 5740 N 539.506 -0.963266 1.24736 0
M  V30 5741 C 540.439 -2.05758 0.986852 0
M  V30 5742 C 541.417 -1.62398 -0.0809272 0
M  V30 5743 O 542.601 -1.88414 0.0569347 0
M  V30 5744 C 539.728 -3.35135 0.490095 0
M  V30 5745 C 538.774 -3.97451 1.54709 0
M  V30 5746 S 539.607 -4.34519 3.12976 0
M  V30 5747 C 540.763 -5.67026 2.65014 0
M  V30 5748 H 540.996 -2.27539 1.91346 0
M  V30 5749 H 538.529 -1.10176 1.08169 0
M  V30 5750 H 540.487 -4.09962 0.21012 0
M  V30 5751 H 539.148 -3.11335 -0.415873 0
M  V30 5752 H 538.341 -4.90704 1.15003 0
M  V30 5753 H 537.943 -3.29071 1.77731 0
M  V30 5754 H 540.235 -6.44748 2.08102 0
M  V30 5755 H 541.178 -6.11594 3.56873 0
M  V30 5756 H 541.586 -5.25847 2.05294 0
M  V30 5757 N 540.985 -1.06182 -1.16461 0
M  V30 5758 C 541.915 -0.692861 -2.22984 0
M  V30 5759 C 542.896 0.314122 -1.67174 0
M  V30 5760 O 544.081 0.189499 -1.93273 0
M  V30 5761 C 541.211 -0.07732 -3.47214 0
M  V30 5762 C 540.165 -1.01015 -4.15909 0
M  V30 5763 C 539.491 -0.257973 -5.34077 0
M  V30 5764 C 540.791 -2.33868 -4.67015 0
M  V30 5765 H 542.485 -1.58343 -2.54102 0
M  V30 5766 H 540.031 -0.76279 -1.22137 0
M  V30 5767 H 541.984 0.19266 -4.20959 0
M  V30 5768 H 540.708 0.848254 -3.15392 0
M  V30 5769 H 539.367 -1.26486 -3.44088 0
M  V30 5770 H 539.015 0.670684 -4.98509 0
M  V30 5771 H 538.715 -0.879638 -5.80979 0
M  V30 5772 H 540.239 0.00448788 -6.106 0
M  V30 5773 H 541.653 -2.1279 -5.32347 0
M  V30 5774 H 540.05 -2.91522 -5.24533 0
M  V30 5775 H 541.12 -2.97019 -3.83286 0
M  V30 5776 N 542.463 1.3308 -0.844243 0
M  V30 5777 C 543.712 1.96868 -0.438833 0
M  V30 5778 C 544.025 1.67599 1.00846 0
M  V30 5779 O 545.231 2.25043 1.51881 0
M  V30 5780 C 543.687 3.5234 -0.73377 0
M  V30 5781 C 543.295 3.90481 -2.1961 0
M  V30 5782 C 545.039 4.22653 -0.395574 0
M  V30 5783 C 542.946 5.38954 -2.43481 0
M  V30 5784 H 541.876 0.736749 -0.160364 0
M  V30 5785 H 544.527 1.51623 -1.03358 0
M  V30 5786 H 542.909 3.95941 -0.068589 0
M  V30 5787 H 544.083 3.57922 -2.90221 0
M  V30 5788 H 542.398 3.33165 -2.4978 0
M  V30 5789 H 544.995 5.31848 -0.551477 0
M  V30 5790 H 545.338 4.11004 0.661921 0
M  V30 5791 H 545.871 3.84601 -1.01621 0
M  V30 5792 H 542.61 5.55612 -3.47816 0
M  V30 5793 H 542.13 5.72954 -1.77437 0
M  V30 5794 H 543.809 6.05907 -2.26905 0
M  V30 5795 N 543.941 0.601185 1.45683 0
M  V30 5796 C 545.169 0.100054 2.06658 0
M  V30 5797 C 545.584 -1.21285 1.44691 0
M  V30 5798 O 544.941 -1.73735 0.558772 0
M  V30 5799 C 544.992 -0.0528579 3.61461 0
M  V30 5800 O 544.713 1.20809 4.21114 0
M  V30 5801 C 546.214 -0.586193 4.39407 0
M  V30 5802 H 543.434 0.065905 0.667756 0
M  V30 5803 H 545.978 0.827101 1.87028 0
M  V30 5804 H 544.133 -0.730203 3.80456 0
M  V30 5805 H 544.547 1.03368 5.14213 0
M  V30 5806 H 546.021 -0.642297 5.4825 0
M  V30 5807 H 546.498 -1.60713 4.0874 0
M  V30 5808 H 547.104 0.0568935 4.25262 0
M  V30 5809 N 545.419 -1.53889 0.339982 0
M  V30 5810 C 546.696 -1.93084 -0.312719 0
M  V30 5811 C 547.076 -1.2712 -1.68534 0
M  V30 5812 O 546.424 -0.420835 -2.24591 0
M  V30 5813 C 546.634 -3.4683 -0.388558 0
M  V30 5814 C 547.982 -4.19732 -0.641088 0
M  V30 5815 O 549.006 -3.53075 -0.470818 0
M  V30 5816 O 547.865 -5.3781 -0.970685 0
M  V30 5817 H 544.959 -0.806784 -0.18174 0
M  V30 5818 H 547.505 -1.65137 0.390898 0
M  V30 5819 H 546.277 -3.87055 0.574821 0
M  V30 5820 H 545.9 -3.80933 -1.1391 0
M  V30 5821 N 546.897 -0.0685191 -1.57451 0
M  V30 5822 C 548.145 0.60016 -1.92983 0
M  V30 5823 C 548.466 1.70348 -0.949028 0
M  V30 5824 O 547.736 1.959 0.00335647 0
M  V30 5825 H 546.316 0.224682 -0.712409 0
M  V30 5826 H 548.978 -0.125605 -1.94495 0
M  V30 5827 H 548.074 1.02759 -2.94698 0
M  V30 5828 N 548.375 1.56261 0.205012 0
M  V30 5829 C 549.338 1.92908 1.23771 0
M  V30 5830 C 550.338 0.809208 1.38955 0
M  V30 5831 O 551.528 1.07676 1.36936 0
M  V30 5832 C 548.66 2.19442 2.60879 0
M  V30 5833 H 549.853 2.85287 0.924728 0
M  V30 5834 H 547.406 1.49798 0.446125 0
M  V30 5835 H 548.141 1.29668 2.97248 0
M  V30 5836 H 547.926 3.0104 2.51232 0
M  V30 5837 H 549.416 2.48833 3.35368 0
M  V30 5838 N 549.853 -0.472356 1.50355 0
M  V30 5839 C 551.099 -1.22634 1.6152 0
M  V30 5840 C 551.432 -1.91645 0.313995 0
M  V30 5841 O 550.707 -1.82059 -0.684446 0
M  V30 5842 C 550.99 -2.27099 2.7946 0
M  V30 5843 C 550.843 -1.62402 4.19459 0
M  V30 5844 C 552.162 -3.28421 2.92964 0
M  V30 5845 H 549.281 -0.444494 0.587873 0
M  V30 5846 H 551.923 -0.520321 1.82737 0
M  V30 5847 H 550.073 -2.87314 2.61501 0
M  V30 5848 H 551.745 -1.05793 4.49005 0
M  V30 5849 H 549.988 -0.927184 4.23776 0
M  V30 5850 H 550.659 -2.38309 4.97909 0
M  V30 5851 H 553.135 -2.78227 3.09401 0
M  V30 5852 H 552.011 -3.98845 3.77113 0
M  V30 5853 H 552.272 -3.92467 2.03525 0
M  V30 5854 N 551.331 -1.39911 -0.725443 0
M  V30 5855 C 552.608 -1.28158 -1.47766 0
M  V30 5856 C 552.988 0.104545 -2.10841 0
M  V30 5857 O 552.336 1.11657 -1.99361 0
M  V30 5858 C 552.546 -2.41306 -2.52135 0
M  V30 5859 C 553.894 -2.81076 -3.18247 0
M  V30 5860 O 554.918 -2.40827 -2.62452 0
M  V30 5861 O 553.777 -3.50581 -4.19231 0
M  V30 5862 H 550.871 -0.502761 -0.656628 0
M  V30 5863 H 553.417 -1.51808 -0.758456 0
M  V30 5864 H 552.189 -3.33932 -2.03974 0
M  V30 5865 H 551.812 -2.19374 -3.31603 0
M  V30 5866 N 552.809 0.956637 -1.25245 0
M  V30 5867 C 554.037 1.73571 -1.12608 0
M  V30 5868 C 554.452 1.86063 0.320324 0
M  V30 5869 O 553.809 1.35691 1.22042 0
M  V30 5870 C 553.86 3.15053 -1.77268 0
M  V30 5871 O 553.581 3.03174 -3.16255 0
M  V30 5872 C 555.082 4.09248 -1.70386 0
M  V30 5873 H 552.302 0.543955 -0.392879 0
M  V30 5874 H 554.846 1.20031 -1.65568 0
M  V30 5875 H 553.001 3.65543 -1.28284 0
M  V30 5876 H 553.415 3.9241 -3.48015 0
M  V30 5877 H 554.889 5.06138 -2.20291 0
M  V30 5878 H 555.366 4.34102 -0.667239 0
M  V30 5879 H 555.972 3.64672 -2.18849 0
M  V30 5880 N 554.287 1.06798 1.15896 0
M  V30 5881 C 555.517 0.807522 1.90165 0
M  V30 5882 C 555.925 -0.642417 1.7796 0
M  V30 5883 O 555.268 -1.45193 1.12537 0
M  V30 5884 C 555.33 1.12939 3.41299 0
M  V30 5885 C 554.994 2.57879 3.7729 0
M  V30 5886 C 555.991 3.56118 3.78782 0
M  V30 5887 C 553.676 2.93311 4.07767 0
M  V30 5888 C 555.67 4.87827 4.10248 0
M  V30 5889 C 553.357 4.25219 4.38899 0
M  V30 5890 C 554.355 5.22287 4.4012 0
M  V30 5891 O 554.043 6.51826 4.70508 0
M  V30 5892 H 553.775 0.291946 0.609708 0
M  V30 5893 H 556.329 1.42627 1.47806 0
M  V30 5894 H 554.559 0.45359 3.84031 0
M  V30 5895 H 556.248 0.852363 3.9685 0
M  V30 5896 H 557.014 3.30086 3.55342 0
M  V30 5897 H 552.893 2.18409 4.05979 0
M  V30 5898 H 556.437 5.63586 4.11116 0
M  V30 5899 H 552.334 4.51006 4.61805 0
M  V30 5900 H 553.102 6.56893 4.88298 0
M  V30 5901 N 555.766 -1.3263 0.851289 0
M  V30 5902 C 557.043 -1.91982 0.374448 0
M  V30 5903 C 557.423 -1.77568 -1.14161 0
M  V30 5904 O 556.771 -1.1717 -1.96172 0
M  V30 5905 C 556.981 -3.38862 0.835088 0
M  V30 5906 C 558.329 -4.15999 0.850309 0
M  V30 5907 O 559.353 -3.47566 0.779505 0
M  V30 5908 O 558.212 -5.38189 0.949481 0
M  V30 5909 H 555.306 -0.819846 0.10854 0
M  V30 5910 H 557.852 -1.41422 0.937966 0
M  V30 5911 H 556.624 -3.43281 1.87814 0
M  V30 5912 H 556.247 -3.96821 0.248833 0
M  V30 5913 N 557.244 -0.608902 -1.45362 0
M  V30 5914 C 558.472 -0.111013 -2.06602 0
M  V30 5915 C 558.887 1.20516 -1.45332 0
M  V30 5916 O 558.244 1.73437 -0.567978 0
M  V30 5917 C 558.295 0.033688 -3.61484 0
M  V30 5918 O 558.016 -1.23041 -4.20467 0
M  V30 5919 C 559.517 0.562882 -4.39712 0
M  V30 5920 H 556.737 -0.0694453 -0.667397 0
M  V30 5921 H 559.281 -0.837008 -1.86586 0
M  V30 5922 H 557.436 0.710016 -3.80838 0
M  V30 5923 H 557.85 -1.06094 -5.13658 0
M  V30 5924 H 559.324 0.613213 -5.48583 0
M  V30 5925 H 559.801 1.58543 -4.09586 0
M  V30 5926 H 560.407 -0.0794454 -4.25226 0
M  V30 5927 N 558.722 1.53707 -0.348139 0
M  V30 5928 C 559.971 2.0017 0.247992 0
M  V30 5929 C 560.284 1.23983 1.51286 0
M  V30 5930 O 561.49 1.60946 2.18652 0
M  V30 5931 C 559.946 3.56515 0.492459 0
M  V30 5932 C 559.554 4.41562 -0.756777 0
M  V30 5933 C 561.298 4.11381 1.0472 0
M  V30 5934 C 559.205 5.89426 -0.482856 0
M  V30 5935 H 558.135 0.747806 0.0964452 0
M  V30 5936 H 560.786 1.77532 -0.464179 0
M  V30 5937 H 559.168 3.75236 1.26545 0
M  V30 5938 H 560.342 4.34615 -1.53122 0
M  V30 5939 H 558.657 3.97711 -1.23348 0
M  V30 5940 H 561.254 5.19468 1.26717 0
M  V30 5941 H 561.597 3.64885 2.00411 0
M  V30 5942 H 562.13 3.96389 0.334801 0
M  V30 5943 H 558.869 6.40164 -1.40962 0
M  V30 5944 H 558.389 5.99264 0.253416 0
M  V30 5945 H 560.068 6.4692 -0.101816 0
M  V30 5946 N 560.2 0.0768682 1.57412 0
M  V30 5947 C 561.447 -0.591085 1.93681 0
M  V30 5948 C 561.775 -1.69311 0.957286 0
M  V30 5949 O 561.03 -1.95682 -0.0262428 0
M  V30 5950 C 561.329 -1.20268 3.36557 0
M  V30 5951 C 560.995 -0.226286 4.50332 0
M  V30 5952 C 559.657 0.0423142 4.81181 0
M  V30 5953 C 562.009 0.441415 5.19327 0
M  V30 5954 C 559.337 0.985616 5.78362 0
M  V30 5955 C 561.689 1.37307 6.17519 0
M  V30 5956 C 560.353 1.65009 6.46783 0
M  V30 5957 H 559.623 -0.216293 0.70873 0
M  V30 5958 H 562.27 0.148824 1.90921 0
M  V30 5959 H 560.575 -2.01844 3.35807 0
M  V30 5960 H 562.272 -1.72688 3.61911 0
M  V30 5961 H 558.862 -0.445821 4.26275 0
M  V30 5962 H 563.046 0.247023 4.95685 0
M  V30 5963 H 558.302 1.20743 5.99359 0
M  V30 5964 H 562.476 1.89637 6.70083 0
M  V30 5965 H 560.103 2.38263 7.21897 0
M  V30 5966 N 561.678 -1.56367 -0.196722 0
M  V30 5967 C 562.641 -1.93561 -1.22746 0
M  V30 5968 C 563.641 -0.816566 -1.38524 0
M  V30 5969 O 564.831 -1.084 -1.36363 0
M  V30 5970 C 561.963 -2.20823 -2.59712 0
M  V30 5971 H 563.156 -2.85774 -0.909586 0
M  V30 5972 H 560.709 -1.50032 -0.438174 0
M  V30 5973 H 561.444 -1.31243 -2.96557 0
M  V30 5974 H 561.229 -3.02368 -2.49632 0
M  V30 5975 H 562.719 -2.50608 -3.34044 0
M  V30 5976 N 563.156 0.464375 -1.50603 0
M  V30 5977 C 564.103 1.56152 -1.69956 0
M  V30 5978 C 565.073 1.57046 -0.54091 0
M  V30 5979 O 566.258 1.74473 -0.772258 0
M  V30 5980 C 563.398 2.94079 -1.80586 0
M  V30 5981 C 562.511 3.02923 -3.07996 0
M  V30 5982 C 561.646 4.31806 -3.09382 0
M  V30 5983 C 560.685 4.34417 -4.31218 0
M  V30 5984 N 559.822 5.54782 -4.30304 0
M  V30 5985 H 564.662 1.38955 -2.6362 0
M  V30 5986 H 562.199 0.675482 -1.30674 0
M  V30 5987 H 564.157 3.74073 -1.8473 0
M  V30 5988 H 562.787 3.09896 -0.903556 0
M  V30 5989 H 561.839 2.1576 -3.13292 0
M  V30 5990 H 563.151 3.00712 -3.97962 0
M  V30 5991 H 562.305 5.20153 -3.12292 0
M  V30 5992 H 561.044 4.36636 -2.17257 0
M  V30 5993 H 560.049 3.44467 -4.28512 0
M  V30 5994 H 561.274 4.31273 -5.24576 0
M  V30 5995 H 559.22 5.60384 -3.41037 0
M  V30 5996 H 559.137 5.54339 -5.14047 0
M  V30 5997 H 560.405 6.45235 -4.3737 0
M  V30 5998 N 564.634 1.40294 0.718013 0
M  V30 5999 C 565.864 1.41544 1.50495 0
M  V30 6000 C 566.272 0.0127877 1.89196 0
M  V30 6001 O 565.615 -0.97305 1.55812 0
M  V30 6002 C 565.677 2.24021 2.81167 0
M  V30 6003 C 565.341 3.72463 2.64803 0
M  V30 6004 C 566.338 4.65154 2.32223 0
M  V30 6005 C 564.023 4.1625 2.81143 0
M  V30 6006 C 566.017 5.99618 2.16189 0
M  V30 6007 C 563.704 5.50784 2.64727 0
M  V30 6008 C 564.702 6.42283 2.32297 0
M  V30 6009 O 564.39 7.74337 2.16004 0
M  V30 6010 H 564.122 0.484819 0.471091 0
M  V30 6011 H 566.676 1.84948 0.893488 0
M  V30 6012 H 564.906 1.75393 3.44636 0
M  V30 6013 H 566.595 2.17243 3.42871 0
M  V30 6014 H 567.361 4.32622 2.19234 0
M  V30 6015 H 563.24 3.45352 3.05373 0
M  V30 6016 H 566.784 6.71 1.90799 0
M  V30 6017 H 562.681 5.82902 2.773 0
M  V30 6018 H 563.449 7.85244 2.30942 0
M  V30 6019 N 566.112 -0.949982 1.2575 0
M  V30 6020 C 567.06 -2.06869 1.06339 0
M  V30 6021 C 568.054 -1.69399 -0.00708901 0
M  V30 6022 O 569.26 -1.79383 0.148897 0
M  V30 6023 H 565.635 -0.677197 0.326969 0
M  V30 6024 H 567.606 -2.20396 2.01167 0
M  V30 6025 C 566.355 -3.40503 0.703769 0
M  V30 6026 H 565.678 -3.69807 1.51931 0
M  V30 6027 H 567.118 -4.19623 0.607677 0
M  V30 6028 C 565.577 -3.31685 -0.5905 0
M  V30 6029 O 566.107 -3.67085 -1.63131 0
M  V30 6030 N 564.313 -2.84797 -0.577859 0
M  V30 6031 H 563.86 -2.56186 0.26951 0
M  V30 6032 H 563.818 -2.79279 -1.44398 0
M  V30 6033 N 567.59 -1.07411 -1.15328 0
M  V30 6034 C 568.836 -0.808666 -1.86634 0
M  V30 6035 C 569.191 0.65816 -1.80793 0
M  V30 6036 O 568.484 1.47689 -1.22059 0
M  V30 6037 C 568.678 -1.25191 -3.34757 0
M  V30 6038 C 568.507 -2.76028 -3.55019 0
M  V30 6039 C 567.277 -3.43644 -3.70455 0
M  V30 6040 C 569.475 -3.74224 -3.5279 0
M  V30 6041 N 567.457 -4.83117 -3.78776 0
M  V30 6042 C 568.828 -4.9954 -3.67233 0
M  V30 6043 C 570.883 -3.67373 -3.36068 0
M  V30 6044 C 569.586 -6.18819 -3.66682 0
M  V30 6045 C 571.612 -4.86116 -3.36816 0
M  V30 6046 C 570.974 -6.10266 -3.51789 0
M  V30 6047 H 567.073 -0.348478 -0.700062 0
M  V30 6048 H 569.657 -1.37049 -1.38295 0
M  V30 6049 H 567.828 -0.717775 -3.8171 0
M  V30 6050 H 569.56 -0.933936 -3.93776 0
M  V30 6051 H 566.315 -2.94051 -3.71256 0
M  V30 6052 H 566.739 -5.55705 -3.86679 0
M  V30 6053 H 571.381 -2.72334 -3.2341 0
M  V30 6054 H 569.099 -7.14179 -3.78118 0
M  V30 6055 H 572.685 -4.82492 -3.25103 0
M  V30 6056 H 571.565 -7.00609 -3.52301 0
M  V30 6057 N 569.068 1.32177 -0.85831 0
M  V30 6058 C 570.479 1.79381 -0.517621 0
M  V30 6059 C 570.83 1.70841 0.964769 0
M  V30 6060 O 569.955 1.26917 1.75274 0
M  V30 6061 C 570.55 3.25706 -0.932801 0
M  V30 6062 C 569.109 3.70851 -0.643953 0
M  V30 6063 C 568.256 2.53208 -1.13054 0
M  V30 6064 H 571.207 1.19424 -1.04516 0
M  V30 6065 H 571.228 3.79673 -0.250674 0
M  V30 6066 H 570.74 3.31889 -2.01174 0
M  V30 6067 H 568.841 3.70178 0.424112 0
M  V30 6068 H 568.954 4.63495 -1.21281 0
M  V30 6069 H 567.318 2.48676 -0.550679 0
M  V30 6070 H 568.101 2.62143 -2.21666 0
M  V30 6071 N 570.547 0.616602 1.45037 0
M  V30 6072 C 571.824 0.0469086 1.95544 0
M  V30 6073 C 572.204 -1.42345 1.55888 0
M  V30 6074 O 571.552 -2.13055 0.825824 0
M  V30 6075 C 571.762 0.254489 3.48071 0
M  V30 6076 C 573.11 0.140025 4.24369 0
M  V30 6077 O 574.134 0.185084 3.55719 0
M  V30 6078 O 572.993 0.0327034 5.4649 0
M  V30 6079 H 570.087 -0.0306051 0.826433 0
M  V30 6080 H 572.633 0.687293 1.55159 0
M  V30 6081 H 571.405 1.27532 3.69934 0
M  V30 6082 H 571.028 -0.42073 3.95368 0
M  V30 6083 N 572.025 -1.5352 0.356285 0
M  V30 6084 C 573.441 -1.59599 0.00485267 0
M  V30 6085 C 573.641 -1.37179 -1.47595 0
M  V30 6086 O 572.697 -1.17234 -2.23635 0
M  V30 6087 C 574.01 -2.97277 0.452454 0
M  V30 6088 C 575.558 -3.10357 0.405881 0
M  V30 6089 C 576.033 -4.50432 0.829148 0
M  V30 6090 N 577.524 -4.5652 0.783838 0
M  V30 6091 C 578.259 -5.63077 1.08315 0
M  V30 6092 N 577.755 -6.77429 1.45126 0
M  V30 6093 N 579.548 -5.53014 1.00655 0
M  V30 6094 H 571.699 -1.66346 1.32071 0
M  V30 6095 H 573.962 -0.77971 0.539218 0
M  V30 6096 H 573.668 -3.18792 1.48542 0
M  V30 6097 H 573.542 -3.76836 -0.165762 0
M  V30 6098 H 575.929 -2.88558 -0.617934 0
M  V30 6099 H 576.01 -2.32828 1.05947 0
M  V30 6100 H 575.654 -4.72968 1.85103 0
M  V30 6101 H 575.584 -5.26378 0.152906 0
M  V30 6102 H 578.075 -3.74408 0.512513 0
M  V30 6103 H 578.388 -7.54669 1.66415 0
M  V30 6104 H 576.733 -6.78844 1.48983 0
M  V30 6105 H 579.924 -4.62557 0.718215 0
M  V30 6106 H 580.097 -6.35964 1.24315 0
M  V30 6107 N 573.503 -0.0852151 -1.57369 0
M  V30 6108 C 574.45 0.877268 -2.13478 0
M  V30 6109 C 575.42 1.28642 -1.05073 0
M  V30 6110 O 576.605 1.36992 -1.32808 0
M  V30 6111 C 573.745 2.13464 -2.71159 0
M  V30 6112 C 572.858 1.77691 -3.93764 0
M  V30 6113 C 571.993 2.98139 -4.39643 0
M  V30 6114 C 571.032 2.58447 -5.54862 0
M  V30 6115 N 570.169 3.71698 -5.95639 0
M  V30 6116 H 575.009 0.391933 -2.95411 0
M  V30 6117 H 572.546 0.181796 -1.45972 0
M  V30 6118 H 574.504 2.87086 -3.02717 0
M  V30 6119 H 573.134 2.59514 -1.91969 0
M  V30 6120 H 572.186 0.940768 -3.68583 0
M  V30 6121 H 573.498 1.44497 -4.77412 0
M  V30 6122 H 572.652 3.80026 -4.72933 0
M  V30 6123 H 571.391 3.34536 -3.54876 0
M  V30 6124 H 570.396 1.74984 -5.21211 0
M  V30 6125 H 571.621 2.23205 -6.41371 0
M  V30 6126 H 569.567 4.07831 -5.13819 0
M  V30 6127 H 569.484 3.42317 -6.74059 0
M  V30 6128 H 570.752 4.54123 -6.33555 0
M  V30 6129 N 574.981 1.5647 0.188427 0
M  V30 6130 C 576.227 1.81281 0.909124 0
M  V30 6131 C 576.56 0.66034 1.82628 0
M  V30 6132 O 575.835 -0.338737 1.91528 0
M  V30 6133 C 576.118 3.16388 1.7196 0
M  V30 6134 C 575.971 4.42137 0.826714 0
M  V30 6135 C 577.29 3.48256 2.69083 0
M  V30 6136 H 574.409 0.659457 0.329068 0
M  V30 6137 H 577.051 1.89182 0.176156 0
M  V30 6138 H 575.201 3.09784 2.34448 0
M  V30 6139 H 576.873 4.60794 0.216025 0
M  V30 6140 H 575.116 4.33594 0.133792 0
M  V30 6141 H 575.787 5.33184 1.42893 0
M  V30 6142 H 578.263 3.55203 2.16726 0
M  V30 6143 H 577.139 4.43899 3.2287 0
M  V30 6144 H 577.4 2.72088 3.48455 0
M  V30 6145 N 576.459 -0.456382 1.50847 0
M  V30 6146 C 577.875 -0.791345 1.386 0
M  V30 6147 C 578.075 -1.9633 0.453498 0
M  V30 6148 O 577.131 -2.52308 -0.0984353 0
M  V30 6149 C 578.444 -1.08959 2.80265 0
M  V30 6150 C 579.992 -1.19517 2.89283 0
M  V30 6151 C 580.467 -1.52647 4.31814 0
M  V30 6152 N 581.958 -1.59609 4.34832 0
M  V30 6153 C 582.693 -1.86777 5.42127 0
M  V30 6154 N 582.189 -2.11866 6.59609 0
M  V30 6155 N 583.982 -1.88402 5.29586 0
M  V30 6156 H 576.133 0.315746 2.1004 0
M  V30 6157 H 578.396 0.0787916 0.94472 0
M  V30 6158 H 578.102 -0.301355 3.50407 0
M  V30 6159 H 577.976 -2.02211 3.18419 0
M  V30 6160 H 580.363 -1.97406 2.19351 0
M  V30 6161 H 580.444 -0.242111 2.54652 0
M  V30 6162 H 580.088 -0.752922 5.02288 0
M  V30 6163 H 580.018 -2.49127 4.63943 0
M  V30 6164 H 582.509 -1.42201 3.50125 0
M  V30 6165 H 582.822 -2.31912 7.37182 0
M  V30 6166 H 581.167 -2.09228 6.62758 0
M  V30 6167 H 584.358 -1.68307 4.36795 0
M  V30 6168 H 584.531 -2.09238 6.13289 0
M  V30 6169 N 577.937 -1.40673 -0.710563 0
M  V30 6170 C 579.186 -1.38525 -1.46607 0
M  V30 6171 C 579.499 0.0077024 -1.95598 0
M  V30 6172 O 580.705 0.151792 -2.71075 0
M  V30 6173 C 579.161 -2.43489 -2.6503 0
M  V30 6174 C 578.769 -3.88619 -2.22888 0
M  V30 6175 C 580.513 -2.50456 -3.42742 0
M  V30 6176 C 578.42 -4.85168 -3.3818 0
M  V30 6177 H 577.35 -0.515092 -0.550632 0
M  V30 6178 H 580.001 -1.66431 -0.772846 0
M  V30 6179 H 578.383 -2.0869 -3.36548 0
M  V30 6180 H 579.557 -4.32588 -1.58758 0
M  V30 6181 H 577.872 -3.85174 -1.58208 0
M  V30 6182 H 580.469 -3.19776 -4.28541 0
M  V30 6183 H 580.812 -1.53665 -3.86902 0
M  V30 6184 H 581.345 -2.84271 -2.78271 0
M  V30 6185 H 578.084 -5.8331 -2.99047 0
M  V30 6186 H 577.604 -4.4586 -4.01209 0
M  V30 6187 H 579.283 -5.05225 -4.04174 0
M  V30 6188 N 579.415 0.9433 -1.26252 0
M  V30 6189 C 580.662 1.68925 -1.11672 0
M  V30 6190 C 580.99 1.91499 0.340329 0
M  V30 6191 O 580.245 1.49189 1.26653 0
M  V30 6192 C 580.544 3.07073 -1.82868 0
M  V30 6193 C 580.21 3.04262 -3.32769 0
M  V30 6194 C 578.872 3.03203 -3.7366 0
M  V30 6195 C 581.224 2.96729 -4.28487 0
M  V30 6196 C 578.552 2.92373 -5.0866 0
M  V30 6197 C 580.904 2.87442 -5.63525 0
M  V30 6198 C 579.568 2.84724 -6.03729 0
M  V30 6199 H 578.838 0.618141 -0.408635 0
M  V30 6200 H 581.485 1.10124 -1.56668 0
M  V30 6201 H 579.79 3.69486 -1.30335 0
M  V30 6202 H 581.487 3.63635 -1.69029 0
M  V30 6203 H 578.077 3.05865 -3.00241 0
M  V30 6204 H 582.261 2.96658 -3.97879 0
M  V30 6205 H 577.517 2.88645 -5.38975 0
M  V30 6206 H 581.691 2.80576 -6.37377 0
M  V30 6207 H 579.318 2.76089 -7.08293 0
M  V30 6208 N 580.893 1.08022 1.14757 0
M  V30 6209 C 582.121 0.828847 1.89572 0
M  V30 6210 C 582.536 -0.618621 1.78377 0
M  V30 6211 O 581.893 -1.42482 1.1404 0
M  V30 6212 C 581.944 1.23677 3.39685 0
M  V30 6213 O 581.665 2.62746 3.50566 0
M  V30 6214 C 583.166 1.01569 4.31507 0
M  V30 6215 H 580.386 0.299196 0.600602 0
M  V30 6216 H 582.93 1.43846 1.45357 0
M  V30 6217 H 581.085 0.671347 3.81539 0
M  V30 6218 H 581.499 2.79573 4.43778 0
M  V30 6219 H 582.973 1.35055 5.35223 0
M  V30 6220 H 583.45 -0.0475433 4.39174 0
M  V30 6221 H 584.056 1.56636 3.95405 0
M  V30 6222 N 582.371 -1.3172 0.865308 0
M  V30 6223 C 583.601 -2.00765 0.487543 0
M  V30 6224 C 584.009 -1.65145 -0.92325 0
M  V30 6225 O 583.352 -0.874294 -1.61561 0
M  V30 6226 C 583.414 -3.55122 0.559369 0
M  V30 6227 C 583.078 -4.14202 1.93095 0
M  V30 6228 C 584.075 -4.3165 2.89784 0
M  V30 6229 C 581.76 -4.50036 2.23099 0
M  V30 6230 C 583.754 -4.84114 4.14623 0
M  V30 6231 C 581.441 -5.02203 3.48189 0
M  V30 6232 C 582.439 -5.19192 4.43767 0
M  V30 6233 O 582.127 -5.70241 5.6664 0
M  V30 6234 H 581.859 -0.649066 0.188915 0
M  V30 6235 H 584.413 -1.69032 1.16694 0
M  V30 6236 H 582.643 -3.86295 -0.176926 0
M  V30 6237 H 584.332 -4.05428 0.195694 0
M  V30 6238 H 585.098 -4.04288 2.6791 0
M  V30 6239 H 580.977 -4.36091 1.49485 0
M  V30 6240 H 584.521 -4.9729 4.89233 0
M  V30 6241 H 580.418 -5.28997 3.69908 0
M  V30 6242 H 581.186 -5.88617 5.68746 0
M  V30 6243 N 583.85 -0.624285 -1.44708 0
M  V30 6244 C 584.779 0.0717025 -2.3339 0
M  V30 6245 C 585.76 0.841814 -1.47809 0
M  V30 6246 O 586.946 0.809056 -1.76544 0
M  V30 6247 C 584.076 1.05852 -3.30776 0
M  V30 6248 C 583.029 0.400503 -4.26122 0
M  V30 6249 C 582.356 1.49674 -5.13324 0
M  V30 6250 C 583.656 -0.688924 -5.17737 0
M  V30 6251 H 585.35 -0.668819 -2.91834 0
M  V30 6252 H 582.896 -0.32308 -1.40329 0
M  V30 6253 H 584.849 1.5541 -3.91696 0
M  V30 6254 H 583.572 1.82984 -2.70526 0
M  V30 6255 H 582.231 -0.0743687 -3.66525 0
M  V30 6256 H 581.88 2.25877 -4.49431 0
M  V30 6257 H 581.58 1.06188 -5.77926 0
M  V30 6258 H 583.104 1.99427 -5.77115 0
M  V30 6259 H 584.518 -0.276724 -5.72632 0
M  V30 6260 H 582.915 -1.04652 -5.90904 0
M  V30 6261 H 583.985 -1.55884 -4.5916 0
M  V30 6262 N 585.328 1.53329 -0.364422 0
M  V30 6263 C 586.577 2.00421 0.226747 0
M  V30 6264 C 586.89 1.25581 1.49963 0
M  V30 6265 O 588.096 1.63256 2.16933 0
M  V30 6266 C 586.552 3.57017 0.454618 0
M  V30 6267 C 586.16 4.40734 -0.803568 0
M  V30 6268 C 587.904 4.12468 1.00351 0
M  V30 6269 C 585.811 5.8888 -0.545345 0
M  V30 6270 H 584.741 0.748787 0.0885082 0
M  V30 6271 H 587.392 1.7703 -0.482983 0
M  V30 6272 H 585.774 3.76558 1.22558 0
M  V30 6273 H 586.948 4.32967 -1.57723 0
M  V30 6274 H 585.263 3.96381 -1.27559 0
M  V30 6275 H 587.86 5.20783 1.212 0
M  V30 6276 H 588.203 3.6699 1.9653 0
M  V30 6277 H 588.736 3.96721 0.29274 0
M  V30 6278 H 585.475 6.38633 -1.47743 0
M  V30 6279 H 584.995 5.99499 0.189842 0
M  V30 6280 H 586.674 6.46776 -0.170425 0
M  V30 6281 N 586.806 0.0935595 1.57322 0
M  V30 6282 C 588.054 -0.569383 1.93913 0
M  V30 6283 C 588.375 -1.68817 0.976009 0
M  V30 6284 O 587.645 -1.9588 0.0278099 0
M  V30 6285 H 586.225 -0.21332 0.715894 0
M  V30 6286 H 588.887 0.156531 1.9427 0
M  V30 6287 H 587.983 -0.980577 2.96296 0
M  V30 6288 N 588.284 -1.56567 -0.180126 0
M  V30 6289 C 589.7 -1.50488 -0.531559 0
M  V30 6290 C 589.9 -0.796267 -1.851 0
M  V30 6291 O 588.956 -0.352978 -2.50021 0
M  V30 6292 C 590.269 -2.95201 -0.572456 0
M  V30 6293 C 591.817 -3.05957 -0.660264 0
M  V30 6294 C 592.292 -4.5211 -0.732135 0
M  V30 6295 N 593.783 -4.56322 -0.795262 0
M  V30 6296 C 594.518 -5.66742 -0.871296 0
M  V30 6297 N 594.014 -6.86815 -0.908708 0
M  V30 6298 N 595.807 -5.54691 -0.909639 0
M  V30 6299 H 587.958 -2.01045 0.685165 0
M  V30 6300 H 590.221 -0.915536 0.245962 0
M  V30 6301 H 589.927 -3.50165 0.328208 0
M  V30 6302 H 589.801 -3.49369 -1.422 0
M  V30 6303 H 592.188 -2.51032 -1.55136 0
M  V30 6304 H 592.269 -2.54888 0.215783 0
M  V30 6305 H 591.913 -5.07664 0.154664 0
M  V30 6306 H 591.843 -5.00926 -1.6242 0
M  V30 6307 H 594.334 -3.69868 -0.77499 0
M  V30 6308 H 594.647 -7.66718 -0.967654 0
M  V30 6309 H 592.992 -6.89443 -0.877132 0
M  V30 6310 H 596.183 -4.59804 -0.877353 0
M  V30 6311 H 596.356 -6.40768 -0.965434 0
M  V30 6312 N 589.762 0.448376 -1.51087 0
M  V30 6313 C 590.672 1.56882 -1.74428 0
M  V30 6314 C 591.688 1.62268 -0.62809 0
M  V30 6315 O 592.864 1.79716 -0.909075 0
M  V30 6316 C 589.929 2.92947 -1.85426 0
M  V30 6317 C 588.99 2.97766 -3.09247 0
M  V30 6318 C 588.223 4.27341 -3.19711 0
M  V30 6319 O 588.446 5.19112 -2.36387 0
M  V30 6320 O 587.38 4.38219 -4.12611 0
M  V30 6321 H 591.206 1.40104 -2.69452 0
M  V30 6322 H 588.791 0.630247 -1.35456 0
M  V30 6323 H 590.673 3.73719 -1.94709 0
M  V30 6324 H 589.348 3.09876 -0.935887 0
M  V30 6325 H 588.255 2.15989 -3.0545 0
M  V30 6326 H 589.588 2.8578 -4.00738 0
M  V30 6327 N 591.24 1.41047 0.703093 0
M  V30 6328 C 592.203 1.42036 1.79884 0
M  V30 6329 C 593.203 0.312153 1.57741 0
M  V30 6330 O 594.393 0.571672 1.64553 0
M  V30 6331 C 591.525 1.22437 3.18154 0
M  V30 6332 H 592.718 2.39572 1.80403 0
M  V30 6333 H 590.271 1.27079 0.909977 0
M  V30 6334 H 591.006 0.257112 3.23279 0
M  V30 6335 H 590.791 2.02723 3.35627 0
M  V30 6336 H 592.281 1.25946 3.98155 0
M  V30 6337 N 592.718 -0.936591 1.26751 0
M  V30 6338 C 593.681 -2.01752 1.08761 0
M  V30 6339 C 594.681 -1.60763 0.0344435 0
M  V30 6340 O 595.871 -1.71963 0.278258 0
M  V30 6341 C 593.003 -3.34543 0.655271 0
M  V30 6342 H 594.196 -2.19143 2.04735 0
M  V30 6343 H 591.749 -1.11618 1.09413 0
M  V30 6344 H 592.484 -3.22851 -0.30626 0
M  V30 6345 H 592.269 -3.65647 1.41578 0
M  V30 6346 H 593.759 -4.13944 0.551378 0
M  V30 6347 N 594.196 -1.08629 -1.14182 0
M  V30 6348 C 595.443 -0.817345 -1.85272 0
M  V30 6349 C 595.771 0.656917 -1.83071 0
M  V30 6350 O 595.026 1.49897 -1.25815 0
M  V30 6351 C 595.325 -1.28734 -3.3341 0
M  V30 6352 C 594.991 -2.76981 -3.55798 0
M  V30 6353 C 593.653 -3.17469 -3.61617 0
M  V30 6354 C 596.005 -3.72605 -3.64438 0
M  V30 6355 C 593.333 -4.52371 -3.736 0
M  V30 6356 C 595.685 -5.07286 -3.77947 0
M  V30 6357 C 594.349 -5.47376 -3.82016 0
M  V30 6358 H 593.619 -0.299088 -0.677958 0
M  V30 6359 H 596.266 -1.35962 -1.34857 0
M  V30 6360 H 594.571 -0.664702 -3.8612 0
M  V30 6361 H 596.268 -1.05598 -3.86846 0
M  V30 6362 H 592.858 -2.44644 -3.51919 0
M  V30 6363 H 597.042 -3.42443 -3.5923 0
M  V30 6364 H 592.298 -4.82882 -3.75013 0
M  V30 6365 H 596.472 -5.81243 -3.83575 0
M  V30 6366 H 594.099 -6.51906 -3.91054 0
M  V30 6367 N 595.674 1.31259 -0.872281 0
M  V30 6368 C 596.637 2.26744 -0.334656 0
M  V30 6369 C 597.637 1.52307 0.515681 0
M  V30 6370 O 598.827 1.71148 0.324656 0
M  V30 6371 C 595.959 3.36841 0.524482 0
M  V30 6372 H 597.152 2.75812 -1.17762 0
M  V30 6373 H 594.705 1.42232 -0.648064 0
M  V30 6374 H 595.44 2.93069 1.38855 0
M  V30 6375 H 595.225 3.92009 -0.0844299 0
M  V30 6376 H 596.715 4.07944 0.892838 0
M  V30 6377 N 597.152 0.631951 1.44375 0
M  V30 6378 C 598.429 0.067646 1.95483 0
M  V30 6379 C 598.809 -1.40683 1.57389 0
M  V30 6380 O 598.157 -2.12167 0.848375 0
M  V30 6381 C 598.367 0.291392 3.47781 0
M  V30 6382 C 599.715 0.185028 4.24197 0
M  V30 6383 O 600.739 0.222803 3.55503 0
M  V30 6384 O 599.598 0.0906642 5.46425 0
M  V30 6385 H 596.692 -0.0218379 0.826712 0
M  V30 6386 H 599.238 0.703711 1.54421 0
M  V30 6387 H 598.01 1.31449 3.68561 0
M  V30 6388 H 597.633 -0.378772 3.95792 0
M  V30 6389 N 598.631 -1.53133 0.372548 0
M  V30 6390 C 599.579 -2.27473 -0.485681 0
M  V30 6391 C 600.573 -1.30719 -1.07745 0
M  V30 6392 O 601.779 -1.48321 -1.01985 0
M  V30 6393 H 598.154 -0.731269 -0.175356 0
M  V30 6394 H 600.125 -2.97955 0.162986 0
M  V30 6395 C 598.874 -3.08191 -1.60978 0
M  V30 6396 H 598.197 -3.82488 -1.16373 0
M  V30 6397 H 599.637 -3.63373 -2.18485 0
M  V30 6398 C 598.096 -2.19461 -2.55614 0
M  V30 6399 O 598.626 -1.81008 -3.58607 0
M  V30 6400 N 596.832 -1.83955 -2.24965 0
M  V30 6401 H 596.379 -2.15423 -1.41247 0
M  V30 6402 H 596.337 -1.24874 -2.88538 0
M  V30 6403 N 600.109 -0.101901 -1.5727 0
M  V30 6404 C 601.039 0.851544 -2.17419 0
M  V30 6405 C 602.02 1.28942 -1.10941 0
M  V30 6406 O 603.205 1.35509 -1.39107 0
M  V30 6407 C 600.335 2.10816 -2.75996 0
M  V30 6408 C 599.289 1.80867 -3.87906 0
M  V30 6409 C 598.615 3.13413 -4.33216 0
M  V30 6410 C 599.915 1.0903 -5.10793 0
M  V30 6411 H 601.609 0.350381 -2.97343 0
M  V30 6412 H 599.155 0.16709 -1.43027 0
M  V30 6413 H 601.108 2.77959 -3.16729 0
M  V30 6414 H 599.832 2.63227 -1.93337 0
M  V30 6415 H 598.491 1.16119 -3.47724 0
M  V30 6416 H 598.139 3.63725 -3.47438 0
M  V30 6417 H 597.839 2.94155 -5.08671 0
M  V30 6418 H 599.363 3.81704 -4.76586 0
M  V30 6419 H 600.777 1.66295 -5.48652 0
M  V30 6420 H 599.174 0.99927 -5.91722 0
M  V30 6421 H 600.244 0.0741704 -4.84843 0
M  V30 6422 N 601.587 1.56661 0.17182 0
M  V30 6423 C 602.534 1.96371 1.21273 0
M  V30 6424 C 603.504 0.82756 1.44016 0
M  V30 6425 O 604.689 1.08764 1.56764 0
M  V30 6426 C 601.829 2.32838 2.54716 0
M  V30 6427 C 600.942 3.59628 2.39356 0
M  V30 6428 C 600.077 3.85311 3.65662 0
M  V30 6429 C 599.116 5.0545 3.45234 0
M  V30 6430 N 598.253 5.27268 4.63608 0
M  V30 6431 H 603.093 2.85106 0.86709 0
M  V30 6432 H 600.63 1.41073 0.416744 0
M  V30 6433 H 602.588 2.52004 3.3249 0
M  V30 6434 H 601.218 1.47214 2.87277 0
M  V30 6435 H 600.27 3.4838 1.52761 0
M  V30 6436 H 601.582 4.4756 2.20207 0
M  V30 6437 H 600.736 4.04841 4.51872 0
M  V30 6438 H 599.475 2.95753 3.8779 0
M  V30 6439 H 598.48 4.85819 2.5741 0
M  V30 6440 H 599.705 5.96538 3.24529 0
M  V30 6441 H 597.651 4.40662 4.85956 0
M  V30 6442 H 597.568 6.09422 4.4737 0
M  V30 6443 H 598.836 5.51277 5.51103 0
M  V30 6444 N 603.065 -0.440357 1.51323 0
M  V30 6445 C 604.311 -1.18874 1.65047 0
M  V30 6446 C 604.666 -1.88988 0.360742 0
M  V30 6447 O 603.959 -1.80479 -0.643272 0
M  V30 6448 C 604.153 -2.2339 2.78984 0
M  V30 6449 C 603.982 -1.63534 4.18911 0
M  V30 6450 C 602.752 -1.42158 4.84891 0
M  V30 6451 C 604.95 -1.11324 5.02107 0
M  V30 6452 N 602.932 -0.778679 6.08942 0
M  V30 6453 C 604.303 -0.595421 6.17134 0
M  V30 6454 C 606.358 -1.00471 4.87658 0
M  V30 6455 C 605.061 0.0202557 7.19297 0
M  V30 6456 C 607.087 -0.402928 5.90026 0
M  V30 6457 C 606.449 0.10436 7.04323 0
M  V30 6458 H 602.548 -0.422771 0.657866 0
M  V30 6459 H 605.132 -0.485814 1.88542 0
M  V30 6460 H 603.303 -2.91074 2.57158 0
M  V30 6461 H 605.035 -2.90366 2.81904 0
M  V30 6462 H 601.79 -1.68247 4.42707 0
M  V30 6463 H 602.214 -0.474755 6.75333 0
M  V30 6464 H 606.856 -1.38278 3.99548 0
M  V30 6465 H 604.574 0.410468 8.07057 0
M  V30 6466 H 608.16 -0.320897 5.80914 0
M  V30 6467 H 607.04 0.562697 7.82179 0
M  V30 6468 N 604.543 -1.41418 -0.695603 0
M  V30 6469 C 605.476 -1.3768 -1.81988 0
M  V30 6470 C 606.454 -0.244061 -1.60758 0
M  V30 6471 O 607.638 -0.430965 -1.83507 0
M  V30 6472 C 604.765 -1.1476 -3.18666 0
M  V30 6473 C 603.811 -2.30752 -3.58686 0
M  V30 6474 S 604.644 -3.9323 -3.63498 0
M  V30 6475 C 605.8 -3.72613 -5.02902 0
M  V30 6476 H 606.033 -2.32822 -1.84882 0
M  V30 6477 H 603.566 -1.27942 -0.86431 0
M  V30 6478 H 605.524 -1.02223 -3.97569 0
M  V30 6479 H 604.185 -0.212385 -3.13381 0
M  V30 6480 H 603.378 -2.10409 -4.57978 0
M  V30 6481 H 602.98 -2.39696 -2.87092 0
M  V30 6482 H 605.272 -3.32317 -5.904 0
M  V30 6483 H 606.215 -4.71507 -5.28286 0
M  V30 6484 H 606.623 -3.0589 -4.74438 0
M  V30 6485 N 606.021 0.929856 -1.27246 0
M  V30 6486 C 606.984 2.01172 -1.09829 0
M  V30 6487 C 607.984 1.60743 -0.0429687 0
M  V30 6488 O 609.174 1.71813 -0.287373 0
M  V30 6489 C 606.306 3.34191 -0.673003 0
M  V30 6490 H 607.499 2.18054 -2.05895 0
M  V30 6491 H 605.052 1.11036 -1.10003 0
M  V30 6492 H 605.787 3.23009 0.289134 0
M  V30 6493 H 605.572 3.64892 -1.43515 0
M  V30 6494 H 607.062 4.13646 -0.573323 0
M  V30 6495 N 607.499 1.09233 1.13605 0
M  V30 6496 C 608.739 0.836786 1.86487 0
M  V30 6497 C 609.103 -0.626191 1.81502 0
M  V30 6498 O 610.304 -0.99758 2.49603 0
M  V30 6499 C 608.575 1.35476 3.30728 0
M  V30 6500 S 610.134 1.2328 4.21126 0
M  V30 6501 H 606.952 0.302702 0.643345 0
M  V30 6502 H 609.554 1.3953 1.36936 0
M  V30 6503 H 608.258 2.41381 3.31909 0
M  V30 6504 H 607.789 0.792286 3.85339 0
M  V30 6505 H 609.804 0.182468 4.95864 0
M  V30 6506 N 608.977 -1.30795 0.87923 0
M  V30 6507 C 609.94 -2.26563 0.346676 0
M  V30 6508 C 610.94 -1.52578 -0.507597 0
M  V30 6509 O 612.13 -1.71318 -0.315575 0
M  V30 6510 C 609.262 -3.37115 -0.506611 0
M  V30 6511 H 610.455 -2.75183 1.19223 0
M  V30 6512 H 608.008 -1.41886 0.655598 0
M  V30 6513 H 608.743 -2.93802 -1.37299 0
M  V30 6514 H 608.528 -3.91959 0.105218 0
M  V30 6515 H 610.018 -4.08412 -0.871192 0
M  V30 6516 N 610.455 -0.639598 -1.44038 0
M  V30 6517 C 611.403 0.0723409 -2.32487 0
M  V30 6518 C 612.397 0.827129 -1.47834 0
M  V30 6519 O 613.603 0.73907 -1.64127 0
M  V30 6520 H 609.978 0.0421696 -0.750817 0
M  V30 6521 H 611.949 -0.691593 -2.90275 0
M  V30 6522 C 610.698 1.03452 -3.31953 0
M  V30 6523 H 610.021 0.46315 -3.97108 0
M  V30 6524 H 611.461 1.502 -3.96505 0
M  V30 6525 C 609.92 2.12392 -2.61518 0
M  V30 6526 O 610.45 3.2059 -2.42044 0
M  V30 6527 N 608.656 1.88563 -2.21116 0
M  V30 6528 H 608.203 1.00577 -2.37154 0
M  V30 6529 H 608.161 2.61651 -1.74316 0
M  V30 6530 N 611.933 1.52934 -0.380664 0
M  V30 6531 C 612.88 2.26197 0.458641 0
M  V30 6532 C 613.85 1.27462 1.06502 0
M  V30 6533 O 615.035 1.56274 1.09467 0
M  V30 6534 C 612.175 3.06571 1.58456 0
M  V30 6535 C 611.288 4.20222 1.00189 0
M  V30 6536 C 610.423 4.88007 2.09815 0
M  V30 6537 C 609.462 5.93665 1.49092 0
M  V30 6538 N 608.599 6.55081 2.52613 0
M  V30 6539 H 613.439 2.975 -0.172595 0
M  V30 6540 H 610.976 1.4678 -0.0969426 0
M  V30 6541 H 612.934 3.51455 2.24801 0
M  V30 6542 H 611.564 2.37494 2.18624 0
M  V30 6543 H 610.616 3.79714 0.228292 0
M  V30 6544 H 611.928 4.96102 0.518064 0
M  V30 6545 H 611.082 5.36151 2.83948 0
M  V30 6546 H 609.821 4.11632 2.61555 0
M  V30 6547 H 608.826 5.44868 0.7348 0
M  V30 6548 H 610.051 6.71969 0.981582 0
M  V30 6549 H 607.997 5.8155 3.03538 0
M  V30 6550 H 607.914 7.26548 2.08961 0
M  V30 6551 H 609.182 7.07871 3.26402 0
M  V30 6552 N 613.412 0.11024 1.57214 0
M  V30 6553 C 614.66 -0.548783 1.94506 0
M  V30 6554 C 614.981 -1.67772 0.99386 0
M  V30 6555 O 614.251 -1.9584 0.0485841 0
M  V30 6556 H 612.831 -0.205715 0.718116 0
M  V30 6557 H 615.493 0.177127 1.94093 0
M  V30 6558 H 614.589 -0.949096 2.97319 0
M  V30 6559 N 614.89 -1.56749 -0.16351 0
M  V30 6560 C 616.137 -1.82434 -0.878866 0
M  V30 6561 C 616.465 -0.688557 -1.81904 0
M  V30 6562 O 615.72 0.323644 -1.93005 0
M  V30 6563 C 616.019 -3.14342 -1.70071 0
M  V30 6564 C 615.685 -4.41647 -0.908775 0
M  V30 6565 C 614.347 -4.76224 -0.690236 0
M  V30 6566 C 616.699 -5.19998 -0.353815 0
M  V30 6567 C 614.027 -5.86624 0.0942374 0
M  V30 6568 C 616.379 -6.3122 0.41761 0
M  V30 6569 C 615.043 -6.64358 0.646879 0
M  V30 6570 H 614.313 -0.667574 -0.3216 0
M  V30 6571 H 616.96 -1.90963 -0.14337 0
M  V30 6572 H 615.265 -3.0119 -2.50583 0
M  V30 6573 H 616.962 -3.31426 -2.25738 0
M  V30 6574 H 613.552 -4.1453 -1.08916 0
M  V30 6575 H 617.736 -4.93673 -0.509975 0
M  V30 6576 H 612.992 -6.10751 0.281529 0
M  V30 6577 H 617.166 -6.91133 0.854849 0
M  V30 6578 H 614.793 -7.49742 1.25662 0
M  V30 6579 N 616.368 0.432326 -1.51554 0
M  V30 6580 C 617.615 1.18134 -1.64471 0
M  V30 6581 C 617.943 1.91076 -0.363349 0
M  V30 6582 O 617.198 1.84492 0.65279 0
M  V30 6583 C 617.497 2.21907 -2.80164 0
M  V30 6584 C 617.163 1.65941 -4.19255 0
M  V30 6585 C 615.825 1.50401 -4.57092 0
M  V30 6586 C 618.177 1.24843 -5.06027 0
M  V30 6587 C 615.505 0.922443 -5.79403 0
M  V30 6588 C 617.857 0.68113 -6.28922 0
M  V30 6589 C 616.521 0.512673 -6.65528 0
M  V30 6590 H 615.791 0.432283 -0.601841 0
M  V30 6591 H 618.438 0.471701 -1.856 0
M  V30 6592 H 616.743 2.98928 -2.53277 0
M  V30 6593 H 618.44 2.79691 -2.87357 0
M  V30 6594 H 615.03 1.79014 -3.89425 0
M  V30 6595 H 619.214 1.35667 -4.77397 0
M  V30 6596 H 614.47 0.779733 -6.06408 0
M  V30 6597 H 618.644 0.35418 -6.95499 0
M  V30 6598 H 616.271 0.0599084 -7.60176 0
M  V30 6599 N 617.846 1.41785 0.688094 0
M  V30 6600 C 619.074 1.44915 1.47673 0
M  V30 6601 C 619.489 0.0565786 1.88715 0
M  V30 6602 O 618.846 -0.92579 1.57275 0
M  V30 6603 C 618.897 2.36452 2.73446 0
M  V30 6604 O 618.618 3.7029 2.34131 0
M  V30 6605 C 620.119 2.48463 3.67125 0
M  V30 6606 H 617.339 0.493324 0.454832 0
M  V30 6607 H 619.883 1.86153 0.846594 0
M  V30 6608 H 618.038 1.98502 3.3268 0
M  V30 6609 H 618.452 4.19183 3.15255 0
M  V30 6610 H 619.926 3.16662 4.52138 0
M  V30 6611 H 620.403 1.51826 4.12123 0
M  V30 6612 H 621.009 2.8708 3.13792 0
M  V30 6613 N 619.324 -0.923095 1.27737 0
M  V30 6614 C 620.256 -2.02871 1.06658 0
M  V30 6615 C 621.269 -1.62786 0.0212095 0
M  V30 6616 O 622.458 -1.76548 0.263267 0
M  V30 6617 C 619.558 -3.33603 0.59682 0
M  V30 6618 C 618.731 -4.02354 1.71551 0
M  V30 6619 C 617.79 -5.11364 1.24071 0
M  V30 6620 O 616.816 -5.35075 1.94123 0
M  V30 6621 N 618.018 -5.80416 0.0988444 0
M  V30 6622 H 620.783 -2.21515 2.01869 0
M  V30 6623 H 618.344 -1.09378 1.19365 0
M  V30 6624 H 620.336 -4.03845 0.262984 0
M  V30 6625 H 618.906 -3.11499 -0.262187 0
M  V30 6626 H 618.126 -3.25786 2.2194 0
M  V30 6627 H 619.414 -4.45035 2.46619 0
M  V30 6628 H 618.812 -5.63611 -0.485743 0
M  V30 6629 H 617.369 -6.51563 -0.17578 0
M  V30 6630 N 620.802 -1.09834 -1.13024 0
M  V30 6631 C 622.051 -0.831806 -1.83749 0
M  V30 6632 C 622.364 0.644763 -1.84668 0
M  V30 6633 O 623.57 1.02697 -2.51327 0
M  V30 6634 C 622.026 -1.43817 -3.29916 0
M  V30 6635 C 621.634 -2.94759 -3.37374 0
M  V30 6636 C 623.378 -1.25077 -4.05655 0
M  V30 6637 C 621.285 -3.48461 -4.77838 0
M  V30 6638 H 620.215 -0.30751 -0.688443 0
M  V30 6639 H 622.866 -1.32156 -1.27307 0
M  V30 6640 H 621.248 -0.876106 -3.86187 0
M  V30 6641 H 622.422 -3.57228 -2.91076 0
M  V30 6642 H 620.737 -3.12581 -2.75103 0
M  V30 6643 H 623.334 -1.62649 -5.09362 0
M  V30 6644 H 623.677 -0.191782 -4.15858 0
M  V30 6645 H 624.21 -1.78057 -3.55725 0
M  V30 6646 H 620.949 -4.53998 -4.72828 0
M  V30 6647 H 620.469 -2.90757 -5.24615 0
M  V30 6648 H 622.148 -3.45914 -5.46766 0
M  V30 6649 N 622.28 1.30327 -0.886154 0
M  V30 6650 C 623.505 2.0079 -0.519425 0
M  V30 6651 C 623.93 1.65979 0.885013 0
M  V30 6652 O 623.288 0.877043 1.58675 0
M  V30 6653 C 623.336 3.53686 -0.702758 0
M  V30 6654 O 622.44 4.11637 0.250828 0
M  V30 6655 H 621.781 0.63171 -0.204544 0
M  V30 6656 H 624.311 1.66145 -1.19402 0
M  V30 6657 H 624.321 4.03531 -0.602207 0
M  V30 6658 H 622.996 3.78361 -1.72673 0
M  V30 6659 H 621.573 3.72755 0.103873 0
M  V30 6660 N 623.758 0.647228 1.43697 0
M  V30 6661 C 624.986 0.16575 2.06235 0
M  V30 6662 C 625.401 -1.1662 1.48476 0
M  V30 6663 O 624.758 -1.7187 0.613762 0
M  V30 6664 C 624.809 0.0621651 3.61447 0
M  V30 6665 O 624.53 1.34146 4.17057 0
M  V30 6666 C 626.031 -0.446102 4.4105 0
M  V30 6667 H 623.251 0.0871158 0.665321 0
M  V30 6668 H 625.795 0.886183 1.84301 0
M  V30 6669 H 623.95 -0.608794 3.82587 0
M  V30 6670 H 624.364 1.19675 5.10664 0
M  V30 6671 H 625.838 -0.46755 5.50016 0
M  V30 6672 H 626.315 -1.47627 4.13646 0
M  V30 6673 H 626.921 0.192159 4.24866 0
M  V30 6674 N 625.236 -1.5273 0.388769 0
M  V30 6675 C 626.166 -2.29353 -0.438111 0
M  V30 6676 C 627.147 -1.32719 -1.06394 0
M  V30 6677 O 628.332 -1.61612 -1.07681 0
M  V30 6678 C 625.462 -3.09995 -1.56589 0
M  V30 6679 C 624.416 -4.14509 -1.06613 0
M  V30 6680 C 623.742 -4.83372 -2.28594 0
M  V30 6681 C 625.042 -5.22127 -0.134459 0
M  V30 6682 H 626.736 -2.98723 0.201206 0
M  V30 6683 H 624.282 -1.43665 0.0982089 0
M  V30 6684 H 626.235 -3.62357 -2.15118 0
M  V30 6685 H 624.959 -2.38357 -2.23279 0
M  V30 6686 H 623.618 -3.63128 -0.503383 0
M  V30 6687 H 623.266 -4.08283 -2.93792 0
M  V30 6688 H 622.966 -5.54012 -1.95817 0
M  V30 6689 H 624.49 -5.38538 -2.87766 0
M  V30 6690 H 625.904 -5.69851 -0.627914 0
M  V30 6691 H 624.301 -6.00011 0.103534 0
M  V30 6692 H 625.371 -4.77971 0.816798 0
M  V30 6693 N 626.714 -0.118576 -1.57153 0
M  V30 6694 C 627.677 0.817464 -2.14127 0
M  V30 6695 C 628.677 1.1949 -1.07604 0
M  V30 6696 O 629.867 1.12048 -1.33382 0
M  V30 6697 C 626.999 2.10541 -2.68115 0
M  V30 6698 H 628.192 0.322339 -2.98163 0
M  V30 6699 H 625.745 0.130655 -1.55753 0
M  V30 6700 H 626.48 2.64485 -1.87665 0
M  V30 6701 H 626.265 1.84425 -3.4602 0
M  V30 6702 H 627.755 2.77453 -3.12105 0
M  V30 6703 N 628.193 1.56834 0.155195 0
M  V30 6704 C 629.47 1.73799 0.897395 0
M  V30 6705 C 629.85 0.684379 1.99698 0
M  V30 6706 O 629.198 -0.298111 2.26547 0
M  V30 6707 C 629.408 3.17572 1.44737 0
M  V30 6708 C 630.756 3.79014 1.91399 0
M  V30 6709 O 631.78 3.20951 1.54496 0
M  V30 6710 O 630.639 4.80998 2.59429 0
M  V30 6711 H 627.733 0.710329 0.423511 0
M  V30 6712 H 630.279 1.69107 0.141761 0
M  V30 6713 H 629.051 3.85749 0.656741 0
M  V30 6714 H 628.674 3.26657 2.26674 0
M  V30 6715 N 629.671 -0.424282 1.51781 0
M  V30 6716 C 630.917 -1.17434 1.6534 0
M  V30 6717 C 631.25 -1.90549 0.374806 0
M  V30 6718 O 630.525 -1.84145 -0.626179 0
M  V30 6719 C 630.808 -2.18093 2.86544 0
M  V30 6720 C 630.661 -1.48975 4.24413 0
M  V30 6721 C 631.98 -3.18934 3.03264 0
M  V30 6722 H 629.099 -0.425566 0.601716 0
M  V30 6723 H 631.741 -0.461921 1.84299 0
M  V30 6724 H 629.891 -2.78849 2.7051 0
M  V30 6725 H 631.563 -0.914551 4.52143 0
M  V30 6726 H 629.806 -0.791893 4.26511 0
M  V30 6727 H 630.477 -2.22347 5.05238 0
M  V30 6728 H 632.953 -2.68243 3.18096 0
M  V30 6729 H 631.829 -3.86645 3.89611 0
M  V30 6730 H 632.09 -3.85793 2.15908 0
M  V30 6731 N 631.149 -1.42148 -0.680565 0
M  V30 6732 C 632.081 -1.41119 -1.80605 0
M  V30 6733 C 633.094 -0.311099 -1.598 0
M  V30 6734 O 634.283 -0.573813 -1.69026 0
M  V30 6735 C 631.383 -1.18204 -3.17618 0
M  V30 6736 C 630.556 -2.40537 -3.65322 0
M  V30 6737 C 629.615 -2.13254 -4.8105 0
M  V30 6738 O 628.641 -2.8641 -4.91892 0
M  V30 6739 N 629.843 -1.13208 -5.69354 0
M  V30 6740 H 632.608 -2.38128 -1.81975 0
M  V30 6741 H 630.169 -1.36953 -0.863446 0
M  V30 6742 H 632.161 -0.97878 -3.92686 0
M  V30 6743 H 630.731 -0.29738 -3.11182 0
M  V30 6744 H 629.951 -2.76468 -2.80996 0
M  V30 6745 H 631.239 -3.22012 -3.93936 0
M  V30 6746 H 630.637 -0.526893 -5.63241 0
M  V30 6747 H 629.194 -0.988699 -6.44258 0
M  V30 6748 N 632.627 0.916307 -1.28225 0
M  V30 6749 C 633.537 2.05165 -1.13775 0
M  V30 6750 C 634.553 1.73879 -0.0649418 0
M  V30 6751 O 635.729 1.99531 -0.273722 0
M  V30 6752 C 632.794 3.37385 -0.798267 0
M  V30 6753 C 631.855 3.82296 -1.95316 0
M  V30 6754 C 631.088 5.08206 -1.62978 0
M  V30 6755 O 631.311 5.6781 -0.542948 0
M  V30 6756 O 630.245 5.48768 -2.47261 0
M  V30 6757 H 634.071 2.20273 -2.09078 0
M  V30 6758 H 631.656 1.0373 -1.07519 0
M  V30 6759 H 633.538 4.16773 -0.62278 0
M  V30 6760 H 632.213 3.23458 0.125139 0
M  V30 6761 H 631.12 3.03746 -2.18378 0
M  V30 6762 H 632.453 4.00782 -2.85718 0
M  V30 6763 N 634.105 1.10431 1.1244 0
M  V30 6764 C 635.053 0.747974 2.20246 0
M  V30 6765 C 636.047 -0.255848 1.67457 0
M  V30 6766 O 637.253 -0.116221 1.79624 0
M  V30 6767 H 633.628 0.223946 0.71788 0
M  V30 6768 H 635.599 1.6661 2.47556 0
M  V30 6769 C 634.348 0.195957 3.47147 0
M  V30 6770 H 633.671 0.959606 3.88113 0
M  V30 6771 H 635.111 -0.0153154 4.23997 0
M  V30 6772 C 633.57 -1.07132 3.19413 0
M  V30 6773 O 634.1 -2.15284 3.3914 0
M  V30 6774 N 632.306 -0.98994 2.73219 0
M  V30 6775 H 631.853 -0.109736 2.57366 0
M  V30 6776 H 631.811 -1.83856 2.55038 0
M  V30 6777 N 635.583 -1.29855 0.893053 0
M  V30 6778 C 636.829 -1.96116 0.516349 0
M  V30 6779 C 637.162 -1.70281 -0.933695 0
M  V30 6780 O 636.437 -1.01205 -1.66096 0
M  V30 6781 C 636.72 -3.51068 0.801455 0
M  V30 6782 C 636.573 -3.86387 2.30272 0
M  V30 6783 C 637.892 -4.39186 0.283423 0
M  V30 6784 H 635.011 -0.712335 0.189072 0
M  V30 6785 H 637.653 -1.53587 1.11852 0
M  V30 6786 H 635.803 -3.87424 0.288949 0
M  V30 6787 H 637.475 -3.60012 2.88425 0
M  V30 6788 H 635.718 -3.34167 2.76613 0
M  V30 6789 H 636.389 -4.94512 2.45279 0
M  V30 6790 H 638.865 -4.09785 0.722187 0
M  V30 6791 H 637.741 -5.46505 0.512169 0
M  V30 6792 H 638.002 -4.34511 -0.815643 0
M  V30 6793 N 637.061 -0.65484 -1.43351 0
M  V30 6794 C 637.994 0.0855537 -2.2804 0
M  V30 6795 C 638.972 0.828301 -1.39921 0
M  V30 6796 O 640.156 0.827539 -1.69364 0
M  V30 6797 C 637.283 1.12792 -3.19368 0
M  V30 6798 C 636.329 0.483037 -4.23756 0
M  V30 6799 S 637.162 -0.744605 -5.30298 0
M  V30 6800 C 638.318 0.297187 -6.25194 0
M  V30 6801 H 638.551 -0.632831 -2.90487 0
M  V30 6802 H 636.084 -0.44373 -1.47886 0
M  V30 6803 H 638.042 1.7243 -3.72529 0
M  V30 6804 H 636.703 1.81863 -2.56095 0
M  V30 6805 H 635.896 1.26888 -4.87766 0
M  V30 6806 H 635.498 -0.0392713 -3.73979 0
M  V30 6807 H 637.79 1.1629 -6.67445 0
M  V30 6808 H 638.733 -0.30793 -7.0743 0
M  V30 6809 H 639.141 0.633721 -5.60932 0
M  V30 6810 N 638.539 1.52521 -0.396863 0
M  V30 6811 C 639.449 2.30403 0.44178 0
M  V30 6812 C 640.465 1.37625 1.06468 0
M  V30 6813 O 641.641 1.70697 1.06886 0
M  V30 6814 C 638.706 3.1013 1.54986 0
M  V30 6815 C 637.767 4.18628 0.951279 0
M  V30 6816 C 637 4.94543 2.00655 0
M  V30 6817 O 637.223 4.70629 3.22281 0
M  V30 6818 O 636.157 5.797 1.61962 0
M  V30 6819 H 639.983 3.03087 -0.192892 0
M  V30 6820 H 637.568 1.48537 -0.16038 0
M  V30 6821 H 639.45 3.59816 2.19341 0
M  V30 6822 H 638.125 2.40251 2.16935 0
M  V30 6823 H 637.032 3.73119 0.270773 0
M  V30 6824 H 638.365 4.90763 0.375887 0
M  V30 6825 N 640.017 0.126909 1.57088 0
M  V30 6826 C 641.247 -0.535892 1.99529 0
M  V30 6827 C 641.655 -1.60259 1.00566 0
M  V30 6828 O 640.998 -1.83698 -0.00843269 0
M  V30 6829 C 641.06 -1.21374 3.38391 0
M  V30 6830 C 640.724 -0.294044 4.56053 0
M  V30 6831 C 641.721 0.470454 5.17767 0
M  V30 6832 C 639.406 -0.202808 5.0189 0
M  V30 6833 C 641.4 1.31384 6.23712 0
M  V30 6834 C 639.087 0.644203 6.07695 0
M  V30 6835 C 640.085 1.40115 6.68473 0
M  V30 6836 O 639.773 2.23408 7.72233 0
M  V30 6837 H 639.505 -0.145799 0.66009 0
M  V30 6838 H 642.059 0.212441 2.04298 0
M  V30 6839 H 640.289 -2.00931 3.30399 0
M  V30 6840 H 641.978 -1.77424 3.65069 0
M  V30 6841 H 642.744 0.409884 4.83265 0
M  V30 6842 H 638.623 -0.781688 4.54324 0
M  V30 6843 H 642.167 1.90514 6.71081 0
M  V30 6844 H 638.064 0.706137 6.41626 0
M  V30 6845 H 638.832 2.16436 7.89365 0
M  V30 6846 N 641.495 -1.56914 -0.146875 0
M  V30 6847 C 642.425 -2.01308 -1.1831 0
M  V30 6848 C 643.406 -0.892664 -1.44795 0
M  V30 6849 O 644.591 -1.16048 -1.55713 0
M  V30 6850 C 641.721 -2.3938 -2.51624 0
M  V30 6851 C 640.675 -3.54608 -2.3966 0
M  V30 6852 C 640.001 -3.78493 -3.77686 0
M  V30 6853 C 641.301 -4.87269 -1.88058 0
M  V30 6854 H 642.995 -2.88123 -0.813964 0
M  V30 6855 H 640.541 -1.38615 -0.3901 0
M  V30 6856 H 642.494 -2.69037 -3.24341 0
M  V30 6857 H 641.218 -1.49502 -2.90373 0
M  V30 6858 H 639.877 -3.25116 -1.69396 0
M  V30 6859 H 639.525 -2.85866 -4.13871 0
M  V30 6860 H 639.225 -4.56039 -3.70543 0
M  V30 6861 H 640.749 -4.10576 -4.51951 0
M  V30 6862 H 642.163 -5.15644 -2.50568 0
M  V30 6863 H 640.56 -5.68622 -1.91805 0
M  V30 6864 H 641.63 -4.77634 -0.836277 0
M  V30 6865 N 642.974 0.416227 -1.52004 0
M  V30 6866 C 643.924 1.50558 -1.7122 0
M  V30 6867 C 644.908 1.50613 -0.56609 0
M  V30 6868 O 646.1 1.56709 -0.822874 0
M  V30 6869 C 643.229 2.88556 -1.85984 0
M  V30 6870 C 642.315 2.93177 -3.06445 0
M  V30 6871 N 642.706 2.67505 -4.29272 0
M  V30 6872 C 641.004 3.24343 -3.06133 0
M  V30 6873 C 641.705 2.78511 -5.10692 0
M  V30 6874 N 640.681 3.11087 -4.45787 0
M  V30 6875 H 644.483 1.29494 -2.63834 0
M  V30 6876 H 641.997 0.62384 -1.4994 0
M  V30 6877 H 643.994 3.66954 -1.97865 0
M  V30 6878 H 642.654 3.10624 -0.945654 0
M  V30 6879 H 643.665 2.42033 -4.57865 0
M  V30 6880 H 640.342 3.52051 -2.24425 0
M  V30 6881 H 641.732 2.62438 -6.18527 0
M  V30 6882 N 644.452 1.42507 0.673017 0
M  V30 6883 C 645.698 1.43284 1.43519 0
M  V30 6884 C 646.031 0.049668 1.94136 0
M  V30 6885 O 645.306 -0.926369 1.71022 0
M  V30 6886 C 645.589 2.45874 2.63093 0
M  V30 6887 C 645.442 3.93388 2.18096 0
M  V30 6888 C 646.761 2.45431 3.6531 0
M  V30 6889 H 643.88 0.521752 0.520522 0
M  V30 6890 H 646.522 1.73932 0.764701 0
M  V30 6891 H 644.672 2.19869 3.20296 0
M  V30 6892 H 646.344 4.30379 1.66046 0
M  V30 6893 H 644.587 4.07169 1.49652 0
M  V30 6894 H 645.258 4.60752 3.03993 0
M  V30 6895 H 647.734 2.68561 3.17827 0
M  V30 6896 H 646.61 3.19189 4.46553 0
M  V30 6897 H 646.871 1.48092 4.16559 0
M  V30 6898 N 645.93 -0.909495 1.28709 0
M  V30 6899 C 646.86 -2.0291 1.15542 0
M  V30 6900 C 647.841 -1.7002 0.0521017 0
M  V30 6901 O 649.026 -1.92835 0.229849 0
M  V30 6902 C 646.156 -3.37458 0.820935 0
M  V30 6903 C 645.11 -3.84524 1.87949 0
M  V30 6904 C 644.436 -5.16086 1.39854 0
M  V30 6905 C 645.736 -4.05918 3.28676 0
M  V30 6906 H 647.43 -2.14183 2.09203 0
M  V30 6907 H 644.976 -1.02913 1.00722 0
M  V30 6908 H 646.929 -4.1528 0.715571 0
M  V30 6909 H 645.653 -3.26249 -0.151374 0
M  V30 6910 H 644.312 -3.08911 1.97408 0
M  V30 6911 H 643.96 -5.01284 0.41518 0
M  V30 6912 H 643.66 -5.48547 2.1064 0
M  V30 6913 H 645.184 -5.96459 1.30649 0
M  V30 6914 H 646.598 -4.74252 3.22115 0
M  V30 6915 H 644.995 -4.49717 3.97334 0
M  V30 6916 H 646.065 -3.10583 3.72379 0
M  V30 6917 N 647.408 -1.11026 -1.11852 0
M  V30 6918 C 648.633 -0.879064 -1.87849 0
M  V30 6919 C 649.058 0.565406 -1.79401 0
M  V30 6920 O 648.416 1.39886 -1.15333 0
M  V30 6921 C 648.464 -1.33985 -3.34784 0
M  V30 6922 O 647.568 -0.508803 -4.09249 0
M  V30 6923 H 646.909 -0.316992 -0.583448 0
M  V30 6924 H 649.439 -1.47863 -1.41413 0
M  V30 6925 H 649.449 -1.33248 -3.85628 0
M  V30 6926 H 648.124 -2.39172 -3.40249 0
M  V30 6927 H 646.701 -0.581913 -3.68332 0
M  V30 6928 N 648.886 1.2938 -0.899927 0
M  V30 6929 C 650.302 1.48052 -0.596059 0
M  V30 6930 C 650.502 1.82114 0.862372 0
M  V30 6931 O 649.558 1.91774 1.64253 0
M  V30 6932 C 650.871 2.59332 -1.52208 0
M  V30 6933 C 652.419 2.73208 -1.5273 0
M  V30 6934 C 652.894 3.87617 -2.43961 0
M  V30 6935 N 654.385 3.9495 -2.42009 0
M  V30 6936 C 655.12 4.82824 -3.09303 0
M  V30 6937 N 654.616 5.75387 -3.85877 0
M  V30 6938 N 656.409 4.76317 -2.98459 0
M  V30 6939 H 648.56 1.05546 -1.8432 0
M  V30 6940 H 650.823 0.524314 -0.78981 0
M  V30 6941 H 650.529 2.41029 -2.56121 0
M  V30 6942 H 650.403 3.56139 -1.24278 0
M  V30 6943 H 652.79 2.90908 -0.495614 0
M  V30 6944 H 652.871 1.76975 -1.84698 0
M  V30 6945 H 652.515 3.70672 -3.47224 0
M  V30 6946 H 652.445 4.83218 -2.09303 0
M  V30 6947 H 654.936 3.28744 -1.86375 0
M  V30 6948 H 655.249 6.39235 -4.34279 0
M  V30 6949 H 653.594 5.75272 -3.89984 0
M  V30 6950 H 656.785 4.0299 -2.38152 0
M  V30 6951 H 656.958 5.44589 -3.51179 0
M  V30 6952 N 650.364 0.662433 1.43002 0
M  V30 6953 C 651.775 0.258315 1.84904 0
M  V30 6954 C 652.126 -1.19703 1.55453 0
M  V30 6955 O 651.251 -1.91484 1.00811 0
M  V30 6956 C 651.846 0.462047 3.35635 0
M  V30 6957 C 650.405 0.112165 3.76233 0
M  V30 6958 C 649.552 0.760479 2.66668 0
M  V30 6959 H 652.503 0.865467 1.33024 0
M  V30 6960 H 652.524 -0.289646 3.79396 0
M  V30 6961 H 652.036 1.52135 3.57039 0
M  V30 6962 H 650.137 -0.944179 3.60439 0
M  V30 6963 H 650.25 0.544058 4.76001 0
M  V30 6964 H 648.614 0.192887 2.53969 0
M  V30 6965 H 649.397 1.82299 2.90898 0
M  V30 6966 N 651.842 -1.52309 0.404946 0
M  V30 6967 C 652.789 -2.26898 -0.422597 0
M  V30 6968 C 653.759 -1.2914 -1.04461 0
M  V30 6969 O 654.944 -1.57996 -1.06967 0
M  V30 6970 C 652.084 -3.09053 -1.53559 0
M  V30 6971 C 651.197 -4.21762 -0.934908 0
M  V30 6972 C 650.332 -4.91283 -2.02025 0
M  V30 6973 C 649.371 -5.95962 -1.39628 0
M  V30 6974 N 648.508 -6.59017 -2.42159 0
M  V30 6975 H 653.348 -2.97188 0.219903 0
M  V30 6976 H 650.885 -1.46607 0.120282 0
M  V30 6977 H 652.843 -3.54987 -2.19181 0
M  V30 6978 H 651.473 -2.40942 -2.14818 0
M  V30 6979 H 650.525 -3.80029 -0.167854 0
M  V30 6980 H 651.837 -4.96864 -0.439073 0
M  V30 6981 H 650.991 -5.40601 -2.75383 0
M  V30 6982 H 649.73 -4.15741 -2.54973 0
M  V30 6983 H 648.735 -5.45968 -0.648023 0
M  V30 6984 H 649.96 -6.73445 -0.874553 0
M  V30 6985 H 647.906 -5.86306 -2.94247 0
M  V30 6986 H 647.823 -7.2978 -1.97376 0
M  V30 6987 H 649.091 -7.12974 -3.15099 0
M  V30 6988 N 653.32 -0.135238 -1.57019 0
M  V30 6989 C 654.566 0.519563 -1.96032 0
M  V30 6990 C 654.899 1.65284 -1.01955 0
M  V30 6991 O 654.174 1.94408 -0.059727 0
M  V30 6992 C 654.457 1.0369 -3.44848 0
M  V30 6993 C 654.31 -0.0940754 -4.49702 0
M  V30 6994 C 655.629 1.92254 -3.95887 0
M  V30 6995 H 652.748 0.18739 -0.712779 0
M  V30 6996 H 655.39 -0.214086 -1.8879 0
M  V30 6997 H 653.54 1.66209 -3.5115 0
M  V30 6998 H 655.212 -0.73 -4.55487 0
M  V30 6999 H 653.455 -0.754924 -4.27181 0
M  V30 7000 H 654.126 0.309419 -5.51132 0
M  V30 7001 H 656.602 1.39581 -3.9199 0
M  V30 7002 H 655.478 2.25364 -5.00502 0
M  V30 7003 H 655.739 2.85513 -3.37543 0
M  V30 7004 N 654.798 1.5699 0.138552 0
M  V30 7005 C 656.047 1.82998 0.848205 0
M  V30 7006 C 656.36 0.717829 1.81952 0
M  V30 7007 O 657.566 0.863756 2.57394 0
M  V30 7008 C 656.022 3.24379 1.55904 0
M  V30 7009 C 655.63 4.43552 0.62971 0
M  V30 7010 C 657.374 3.59654 2.25498 0
M  V30 7011 C 655.281 5.75957 1.34266 0
M  V30 7012 H 654.211 0.682495 0.320495 0
M  V30 7013 H 656.862 1.83222 0.100924 0
M  V30 7014 H 655.244 3.18567 2.35226 0
M  V30 7015 H 656.418 4.6062 -0.128882 0
M  V30 7016 H 654.733 4.16379 0.0417526 0
M  V30 7017 H 657.33 4.55837 2.79493 0
M  V30 7018 H 657.673 2.86124 3.02388 0
M  V30 7019 H 658.206 3.67164 1.53087 0
M  V30 7020 H 654.945 6.52604 0.615441 0
M  V30 7021 H 654.465 5.62811 2.07375 0
M  V30 7022 H 656.144 6.19046 1.88126 0
M  V30 7023 N 656.276 -0.40816 1.52223 0
M  V30 7024 C 657.553 -1.16807 1.56893 0
M  V30 7025 C 657.933 -2.08169 0.350537 0
M  V30 7026 O 657.281 -2.18684 -0.662536 0
M  V30 7027 C 657.491 -1.94451 2.8981 0
M  V30 7028 C 658.839 -2.50484 3.42845 0
M  V30 7029 O 659.863 -2.0463 2.91556 0
M  V30 7030 O 658.722 -3.34192 4.3241 0
M  V30 7031 H 655.816 -0.533382 0.632007 0
M  V30 7032 H 658.362 -0.414862 1.64551 0
M  V30 7033 H 657.134 -1.27527 3.69936 0
M  V30 7034 H 656.757 -2.76775 2.85449 0
M  V30 7035 N 657.755 -1.42862 -0.66545 0
M  V30 7036 C 658.687 -1.43026 -1.79098 0
M  V30 7037 C 659.7 -0.32803 -1.59461 0
M  V30 7038 O 660.889 -0.591709 -1.68407 0
M  V30 7039 C 657.989 -1.21566 -3.16346 0
M  V30 7040 C 657.162 -2.44399 -3.62751 0
M  V30 7041 C 656.221 -2.18344 -4.78761 0
M  V30 7042 O 655.247 -2.91611 -4.88827 0
M  V30 7043 N 656.449 -1.1924 -5.68122 0
M  V30 7044 H 659.214 -2.40045 -1.79439 0
M  V30 7045 H 656.775 -1.37861 -0.848872 0
M  V30 7046 H 658.767 -1.02037 -3.91625 0
M  V30 7047 H 657.337 -0.330368 -3.10849 0
M  V30 7048 H 656.557 -2.79433 -2.78048 0
M  V30 7049 H 657.845 -3.26173 -3.90498 0
M  V30 7050 H 657.243 -0.586603 -5.6265 0
M  V30 7051 H 655.8 -1.05698 -6.43173 0
M  V30 7052 N 659.233 0.902656 -1.29189 0
M  V30 7053 C 660.143 2.03946 -1.15944 0
M  V30 7054 C 661.159 1.738 -0.0833803 0
M  V30 7055 O 662.335 1.9923 -0.29487 0
M  V30 7056 C 659.4 3.36519 -0.834006 0
M  V30 7057 C 658.461 3.80203 -1.9936 0
M  V30 7058 C 657.694 5.06449 -1.68359 0
M  V30 7059 O 657.917 5.67202 -0.603141 0
M  V30 7060 O 656.851 5.46114 -2.53067 0
M  V30 7061 H 660.677 2.18043 -2.11403 0
M  V30 7062 H 658.262 1.02584 -1.08613 0
M  V30 7063 H 660.144 4.16089 -0.666949 0
M  V30 7064 H 658.819 3.23573 0.0908245 0
M  V30 7065 H 657.726 3.01413 -2.21588 0
M  V30 7066 H 659.059 3.97729 -2.89952 0
M  V30 7067 N 660.711 1.11618 1.11262 0
M  V30 7068 C 661.661 0.745274 2.15475 0
M  V30 7069 C 662.645 -0.251585 1.58921 0
M  V30 7070 O 663.837 -0.0584093 1.76904 0
M  V30 7071 C 660.966 0.192128 3.42762 0
M  V30 7072 C 660.052 1.21676 4.0627 0
M  V30 7073 N 660.443 2.41158 4.44608 0
M  V30 7074 C 658.741 1.06013 4.33217 0
M  V30 7075 C 659.442 3.0652 4.94389 0
M  V30 7076 N 658.418 2.33994 4.9066 0
M  V30 7077 H 662.22 1.65462 2.42898 0
M  V30 7078 H 659.734 0.995695 1.28295 0
M  V30 7079 H 661.731 -0.0917339 4.16799 0
M  V30 7080 H 660.391 -0.711778 3.16802 0
M  V30 7081 H 661.402 2.786 4.3658 0
M  V30 7082 H 658.079 0.212809 4.16957 0
M  V30 7083 H 659.469 4.08225 5.33669 0
M  V30 7084 N 662.189 -1.289 0.906776 0
M  V30 7085 C 663.466 -1.90221 0.455537 0
M  V30 7086 C 663.846 -1.82251 -1.06527 0
M  V30 7087 O 663.194 -1.25385 -1.91026 0
M  V30 7088 C 663.404 -3.35015 0.97806 0
M  V30 7089 C 664.752 -4.12018 1.02598 0
M  V30 7090 O 665.776 -3.43947 0.926218 0
M  V30 7091 O 664.635 -5.33677 1.17689 0
M  V30 7092 H 661.729 -0.814505 0.143214 0
M  V30 7093 H 664.275 -1.37317 0.997104 0
M  V30 7094 H 663.047 -3.35006 2.02204 0
M  V30 7095 H 662.67 -3.95408 0.416914 0
M  V30 7096 N 663.667 -0.670007 -1.42649 0
M  V30 7097 C 664.913 -0.190568 -2.01903 0
M  V30 7098 C 665.246 1.19817 -1.52832 0
M  V30 7099 O 664.521 1.80342 -0.728485 0
M  V30 7100 C 664.804 -0.21991 -3.59428 0
M  V30 7101 C 664.657 -1.64376 -4.18689 0
M  V30 7102 C 665.976 0.434519 -4.3795 0
M  V30 7103 H 663.095 -0.0707219 -0.733599 0
M  V30 7104 H 665.737 -0.853883 -1.69732 0
M  V30 7105 H 663.887 0.344894 -3.86966 0
M  V30 7106 H 665.559 -2.26044 -4.02122 0
M  V30 7107 H 663.802 -2.18591 -3.747 0
M  V30 7108 H 664.473 -1.61601 -5.27815 0
M  V30 7109 H 666.949 -0.0462156 -4.16074 0
M  V30 7110 H 665.825 0.38333 -5.4756 0
M  V30 7111 H 666.086 1.51135 -4.15464 0
M  V30 7112 N 665.145 1.52092 -0.413018 0
M  V30 7113 C 666.391 2.02154 0.161737 0
M  V30 7114 C 666.724 1.29789 1.44459 0
M  V30 7115 O 665.999 0.405378 1.90229 0
M  V30 7116 C 666.282 3.5781 0.405463 0
M  V30 7117 C 666.135 4.40819 -0.894335 0
M  V30 7118 C 667.454 4.23821 1.18591 0
M  V30 7119 H 664.573 0.734769 0.0573077 0
M  V30 7120 H 667.215 1.81948 -0.547247 0
M  V30 7121 H 665.365 3.75158 1.0094 0
M  V30 7122 H 667.037 4.35175 -1.53039 0
M  V30 7123 H 665.28 4.06877 -1.50444 0
M  V30 7124 H 665.951 5.47819 -0.678144 0
M  V30 7125 H 668.427 4.10596 0.674573 0
M  V30 7126 H 667.303 5.32663 1.3252 0
M  V30 7127 H 667.564 3.83038 2.20758 0
M  V30 7128 N 666.623 0.143563 1.56945 0
M  V30 7129 C 667.869 -0.502787 1.97088 0
M  V30 7130 C 668.224 -1.62703 1.02691 0
M  V30 7131 O 667.517 -1.91502 0.0613323 0
M  V30 7132 C 667.711 -1.05885 3.41355 0
M  V30 7133 C 667.54 0.00998209 4.49699 0
M  V30 7134 C 666.31 0.450229 5.0329 0
M  V30 7135 C 668.508 0.800174 5.08037 0
M  V30 7136 N 666.49 1.50227 5.95235 0
M  V30 7137 C 667.861 1.70279 5.96158 0
M  V30 7138 C 669.916 0.848344 4.9062 0
M  V30 7139 C 668.619 2.64945 6.68728 0
M  V30 7140 C 670.645 1.78281 5.63888 0
M  V30 7141 C 670.007 2.67296 6.51715 0
M  V30 7142 H 666.106 -0.152891 0.766908 0
M  V30 7143 H 668.69 0.23737 1.93248 0
M  V30 7144 H 666.861 -1.76863 3.45795 0
M  V30 7145 H 668.593 -1.67154 3.68567 0
M  V30 7146 H 665.348 0.0531355 4.7357 0
M  V30 7147 H 665.772 2.02795 6.45913 0
M  V30 7148 H 670.414 0.174228 4.22441 0
M  V30 7149 H 668.132 3.33358 7.36137 0
M  V30 7150 H 671.718 1.82584 5.52408 0
M  V30 7151 H 670.598 3.38428 7.07415 0
M  V30 7152 N 668.101 -1.57061 -0.130224 0
M  V30 7153 C 669.329 -1.88432 -0.854456 0
M  V30 7154 C 669.744 -0.733608 -1.73964 0
M  V30 7155 O 669.101 0.296029 -1.80083 0
M  V30 7156 C 669.152 -3.1918 -1.69724 0
M  V30 7157 O 668.873 -4.2982 -0.847705 0
M  V30 7158 C 670.374 -3.6418 -2.5276 0
M  V30 7159 H 667.594 -0.624193 -0.246221 0
M  V30 7160 H 670.138 -2.04159 -0.11798 0
M  V30 7161 H 668.293 -3.05156 -2.3866 0
M  V30 7162 H 668.707 -5.04689 -1.42792 0
M  V30 7163 H 670.181 -4.58457 -3.07443 0
M  V30 7164 H 670.658 -2.90285 -3.29592 0
M  V30 7165 H 671.264 -3.80954 -1.89087 0
M  V30 7166 N 669.579 0.400081 -1.52437 0
M  V30 7167 C 670.489 1.51253 -1.79331 0
M  V30 7168 C 671.505 1.60188 -0.679396 0
M  V30 7169 O 672.681 1.76733 -0.965791 0
M  V30 7170 C 669.746 2.869 -1.94652 0
M  V30 7171 C 668.807 2.87777 -3.18564 0
M  V30 7172 C 668.04 4.16954 -3.33145 0
M  V30 7173 O 668.263 5.11329 -2.52783 0
M  V30 7174 O 667.197 4.2487 -4.26343 0
M  V30 7175 H 671.023 1.31461 -2.73773 0
M  V30 7176 H 668.608 0.586834 -1.37392 0
M  V30 7177 H 670.49 3.67336 -2.065 0
M  V30 7178 H 669.165 3.06741 -1.034 0
M  V30 7179 H 668.072 2.06162 -3.12167 0
M  V30 7180 H 669.405 2.72886 -4.09627 0
M  V30 7181 N 671.057 1.43213 0.657864 0
M  V30 7182 C 672.02 1.47687 1.75275 0
M  V30 7183 C 673.02 0.362179 1.56668 0
M  V30 7184 O 674.21 0.623734 1.62651 0
M  V30 7185 C 671.342 1.32497 3.14098 0
M  V30 7186 H 672.535 2.4519 1.7269 0
M  V30 7187 H 670.088 1.2991 0.869087 0
M  V30 7188 H 670.823 0.359831 3.22298 0
M  V30 7189 H 670.608 2.13299 3.29008 0
M  V30 7190 H 672.098 1.38549 3.93946 0
M  V30 7191 N 672.536 -0.895792 1.29666 0
M  V30 7192 C 673.766 -1.67757 1.20586 0
M  V30 7193 C 674.174 -1.87729 -0.235432 0
M  V30 7194 O 673.517 -1.41706 -1.16898 0
M  V30 7195 C 673.579 -3.08117 1.85215 0
M  V30 7196 C 673.243 -3.1136 3.3452 0
M  V30 7197 C 674.24 -2.91217 4.30684 0
M  V30 7198 C 671.925 -3.33302 3.75786 0
M  V30 7199 C 673.919 -2.92955 5.66089 0
M  V30 7200 C 671.606 -3.3467 5.11311 0
M  V30 7201 C 672.604 -3.14519 6.06273 0
M  V30 7202 O 672.292 -3.15684 7.39323 0
M  V30 7203 H 672.024 -0.530601 0.418854 0
M  V30 7204 H 674.578 -1.12831 1.71634 0
M  V30 7205 H 672.808 -3.64661 1.28683 0
M  V30 7206 H 674.497 -3.68399 1.70403 0
M  V30 7207 H 675.263 -2.74074 4.00136 0
M  V30 7208 H 671.142 -3.48025 3.02324 0
M  V30 7209 H 674.686 -2.77145 6.40185 0
M  V30 7210 H 670.583 -3.51346 5.41504 0
M  V30 7211 H 671.351 -3.31924 7.48177 0
M  V30 7212 N 674.014 -1.12206 -1.10668 0
M  V30 7213 C 675.263 -0.870595 -1.81944 0
M  V30 7214 C 675.576 0.605447 -1.85994 0
M  V30 7215 O 676.782 0.973433 -2.53449 0
M  V30 7216 C 675.238 -1.50783 -3.26791 0
M  V30 7217 C 674.846 -3.01849 -3.31046 0
M  V30 7218 C 676.59 -1.33653 -4.02911 0
M  V30 7219 C 674.497 -3.58518 -4.70339 0
M  V30 7220 H 673.427 -0.322043 -0.681765 0
M  V30 7221 H 676.078 -1.34827 -1.24475 0
M  V30 7222 H 674.46 -0.957825 -3.84242 0
M  V30 7223 H 675.634 -3.63321 -2.83433 0
M  V30 7224 H 673.949 -3.18346 -2.68411 0
M  V30 7225 H 676.546 -1.73416 -5.05797 0
M  V30 7226 H 676.889 -0.279949 -4.15358 0
M  V30 7227 H 677.422 -1.85562 -3.51868 0
M  V30 7228 H 674.161 -4.63925 -4.63091 0
M  V30 7229 H 673.681 -3.01819 -5.18329 0
M  V30 7230 H 675.36 -3.57434 -5.39305 0
M  V30 7231 N 675.492 1.28418 -0.913599 0
M  V30 7232 C 676.769 1.89977 -0.465619 0
M  V30 7233 C 677.149 1.82813 1.05559 0
M  V30 7234 O 676.497 1.26397 1.90358 0
M  V30 7235 C 676.707 3.34492 -0.995813 0
M  V30 7236 C 678.055 4.11468 -1.04782 0
M  V30 7237 O 679.079 3.43451 -0.944445 0
M  V30 7238 O 677.938 5.33046 -1.20518 0
M  V30 7239 H 675.032 0.813734 -0.147532 0
M  V30 7240 H 677.578 1.36786 -1.00437 0
M  V30 7241 H 676.35 3.33929 -2.03978 0
M  V30 7242 H 675.973 3.95181 -0.437878 0
M  V30 7243 N 676.97 0.677563 1.42291 0
M  V30 7244 C 678.195 0.207901 2.06355 0
M  V30 7245 C 678.62 -1.12723 1.50583 0
M  V30 7246 O 677.978 -1.70171 0.62543 0
M  V30 7247 C 678.026 0.156489 3.6026 0
M  V30 7248 O 677.13 -0.874162 4.03029 0
M  V30 7249 H 676.471 0.106056 0.655475 0
M  V30 7250 H 679.001 0.927354 1.82377 0
M  V30 7251 H 679.011 -0.0187258 4.07996 0
M  V30 7252 H 677.686 1.13101 4.00226 0
M  V30 7253 H 676.263 -0.669764 3.66836 0
M  V30 7254 N 678.448 -1.51871 0.421078 0
M  V30 7255 C 679.676 -2.06356 -0.14994 0
M  V30 7256 C 680.091 -1.29006 -1.37851 0
M  V30 7257 O 679.448 -0.345139 -1.79207 0
M  V30 7258 C 679.499 -3.58185 -0.488454 0
M  V30 7259 O 679.22 -4.32611 0.691341 0
M  V30 7260 C 680.721 -4.29129 -1.11191 0
M  V30 7261 H 677.941 -0.67083 -0.0151186 0
M  V30 7262 H 680.485 -1.95638 0.595476 0
M  V30 7263 H 678.64 -3.68871 -1.18376 0
M  V30 7264 H 679.054 -5.22927 0.405906 0
M  V30 7265 H 680.528 -5.36501 -1.29889 0
M  V30 7266 H 681.005 -3.86371 -2.0884 0
M  V30 7267 H 681.611 -4.22843 -0.456458 0
M  V30 7268 N 679.926 -0.151884 -1.56866 0
M  V30 7269 C 680.856 0.781943 -2.20018 0
M  V30 7270 C 681.837 1.25347 -1.14987 0
M  V30 7271 O 683.022 1.31015 -1.43348 0
M  V30 7272 C 680.152 2.01928 -2.82564 0
M  V30 7273 C 679.106 1.68434 -3.93464 0
M  V30 7274 C 678.432 2.99472 -4.42968 0
M  V30 7275 C 679.732 0.927244 -5.14003 0
M  V30 7276 H 681.426 0.255607 -2.98307 0
M  V30 7277 H 678.972 0.121502 -1.43486 0
M  V30 7278 H 680.925 2.67741 -3.25411 0
M  V30 7279 H 679.649 2.56943 -2.01614 0
M  V30 7280 H 678.308 1.04998 -3.51242 0
M  V30 7281 H 677.956 3.52488 -3.58834 0
M  V30 7282 H 677.656 2.77823 -5.17772 0
M  V30 7283 H 679.18 3.66348 -4.88489 0
M  V30 7284 H 680.594 1.48756 -5.53665 0
M  V30 7285 H 678.991 0.810513 -5.94601 0
M  V30 7286 H 680.061 -0.0801163 -4.84834 0
M  V30 7287 N 681.404 1.57128 0.121893 0
M  V30 7288 C 682.815 1.73902 0.679348 0
M  V30 7289 C 683.166 0.770135 1.80453 0
M  V30 7290 O 682.291 -0.0576083 2.16323 0
M  V30 7291 C 682.886 3.15328 1.2391 0
M  V30 7292 C 681.445 3.33618 1.74288 0
M  V30 7293 C 680.592 2.6978 0.641414 0
M  V30 7294 H 683.543 1.58359 -0.104 0
M  V30 7295 H 683.564 3.16718 2.10879 0
M  V30 7296 H 683.076 3.85821 0.419957 0
M  V30 7297 H 681.177 2.68162 2.58689 0
M  V30 7298 H 681.29 4.4176 1.85432 0
M  V30 7299 H 679.654 2.30935 1.0743 0
M  V30 7300 H 680.437 3.42895 -0.166707 0
M  V30 7301 N 682.882 -0.391992 1.52647 0
M  V30 7302 C 683.814 -1.49811 1.73463 0
M  V30 7303 C 684.827 -1.50734 0.615078 0
M  V30 7304 O 686.016 -1.5469 0.890696 0
M  V30 7305 C 683.116 -2.88667 1.77552 0
M  V30 7306 C 682.289 -3.11743 3.06815 0
M  V30 7307 C 681.348 -4.30564 3.02491 0
M  V30 7308 O 680.374 -4.27014 3.76361 0
M  V30 7309 N 681.576 -5.36593 2.21468 0
M  V30 7310 H 684.341 -1.32343 2.68897 0
M  V30 7311 H 681.902 -0.581475 1.51098 0
M  V30 7312 H 683.894 -3.66251 1.7217 0
M  V30 7313 H 682.464 -2.99508 0.895181 0
M  V30 7314 H 681.684 -2.2205 3.25711 0
M  V30 7315 H 682.972 -3.24013 3.92292 0
M  V30 7316 H 682.37 -5.42332 1.60913 0
M  V30 7317 H 680.927 -6.12855 2.21928 0
M  V30 7318 N 684.36 -1.4356 -0.65026 0
M  V30 7319 C 685.323 -1.48615 -1.74489 0
M  V30 7320 C 686.323 -0.370483 -1.56474 0
M  V30 7321 O 687.513 -0.632351 -1.62317 0
M  V30 7322 C 684.645 -1.34161 -3.13391 0
M  V30 7323 H 685.838 -2.46103 -1.71387 0
M  V30 7324 H 683.391 -1.30369 -0.862186 0
M  V30 7325 H 684.126 -0.376918 -3.22102 0
M  V30 7326 H 683.911 -2.1504 -3.27872 0
M  V30 7327 H 685.401 -1.40637 -3.93206 0
M  V30 7328 N 685.838 0.888903 -1.30139 0
M  V30 7329 C 686.77 1.99972 -1.11999 0
M  V30 7330 C 687.783 1.62673 -0.0643619 0
M  V30 7331 O 688.972 1.75788 -0.309983 0
M  V30 7332 C 686.072 3.31904 -0.685059 0
M  V30 7333 C 685.245 3.97665 -1.82158 0
M  V30 7334 C 684.304 5.07894 -1.37585 0
M  V30 7335 O 683.33 5.2974 -2.08241 0
M  V30 7336 N 684.532 5.7995 -0.252697 0
M  V30 7337 H 687.297 2.16085 -2.07671 0
M  V30 7338 H 684.858 1.06175 -1.22223 0
M  V30 7339 H 686.85 4.03005 -0.369964 0
M  V30 7340 H 685.42 3.12084 0.179507 0
M  V30 7341 H 684.64 3.19787 -2.305 0
M  V30 7342 H 685.928 4.3834 -2.58332 0
M  V30 7343 H 685.326 5.647 0.336141 0
M  V30 7344 H 683.883 6.518 0.00296813 0
M  V30 7345 N 687.317 1.12792 1.10072 0
M  V30 7346 C 688.264 0.79921 2.16521 0
M  V30 7347 C 689.234 -0.235726 1.64419 0
M  V30 7348 O 690.419 -0.109457 1.90486 0
M  V30 7349 C 687.559 0.264091 3.44088 0
M  V30 7350 C 686.672 1.35729 4.10124 0
M  V30 7351 C 685.807 0.781212 5.25424 0
M  V30 7352 C 684.846 1.85327 5.8337 0
M  V30 7353 N 683.983 1.29564 6.90042 0
M  V30 7354 H 688.823 1.71105 2.43981 0
M  V30 7355 H 686.36 0.854225 1.19756 0
M  V30 7356 H 688.318 -0.0642423 4.17151 0
M  V30 7357 H 686.948 -0.610901 3.16967 0
M  V30 7358 H 686 1.80234 3.34993 0
M  V30 7359 H 687.312 2.16782 4.4923 0
M  V30 7360 H 686.466 0.403769 6.05355 0
M  V30 7361 H 685.205 -0.0604686 4.87663 0
M  V30 7362 H 684.21 2.23986 5.02106 0
M  V30 7363 H 685.435 2.69824 6.23195 0
M  V30 7364 H 683.381 0.475844 6.54272 0
M  V30 7365 H 683.298 2.04271 7.2788 0
M  V30 7366 H 684.566 0.945545 7.73744 0
M  V30 7367 N 688.795 -1.27931 0.920396 0
M  V30 7368 C 689.725 -2.29487 0.431024 0
M  V30 7369 C 690.706 -1.62435 -0.504861 0
M  V30 7370 O 691.891 -1.89797 -0.411176 0
M  V30 7371 C 689.021 -3.45788 -0.323709 0
M  V30 7372 C 687.975 -4.24784 0.523658 0
M  V30 7373 C 687.301 -5.33488 -0.359809 0
M  V30 7374 C 688.601 -4.90874 1.78437 0
M  V30 7375 H 690.295 -2.70671 1.27975 0
M  V30 7376 H 687.841 -1.30121 0.616813 0
M  V30 7377 H 689.794 -4.15927 -0.676952 0
M  V30 7378 H 688.518 -3.03502 -1.2064 0
M  V30 7379 H 687.177 -3.56382 0.85951 0
M  V30 7380 H 686.825 -4.87445 -1.24124 0
M  V30 7381 H 686.525 -5.87247 0.203605 0
M  V30 7382 H 688.049 -6.06472 -0.708787 0
M  V30 7383 H 689.463 -5.53339 1.49963 0
M  V30 7384 H 687.86 -5.54659 2.29071 0
M  V30 7385 H 688.93 -4.14988 2.50824 0
M  V30 7386 N 690.273 -0.685099 -1.4193 0
M  V30 7387 C 691.501 -0.220372 -2.05723 0
M  V30 7388 C 691.916 1.12642 -1.51516 0
M  V30 7389 O 691.273 1.70182 -0.659114 0
M  V30 7390 C 691.324 -0.157974 -3.61155 0
M  V30 7391 O 691.045 -1.45156 -4.13354 0
M  V30 7392 C 692.546 0.329009 -4.42077 0
M  V30 7393 H 689.766 -0.104725 -0.662777 0
M  V30 7394 H 692.31 -0.934736 -1.81887 0
M  V30 7395 H 690.465 0.507144 -3.84066 0
M  V30 7396 H 690.879 -1.33172 -5.07312 0
M  V30 7397 H 692.353 0.321559 -5.51063 0
M  V30 7398 H 692.83 1.36608 -4.17414 0
M  V30 7399 H 693.436 -0.304737 -4.24207 0
M  V30 7400 N 691.751 1.51645 -0.429126 0
M  V30 7401 C 693.028 1.94579 0.199614 0
M  V30 7402 C 693.408 1.3673 1.60836 0
M  V30 7403 O 692.756 0.551062 2.21756 0
M  V30 7404 C 692.966 3.48506 0.185685 0
M  V30 7405 C 694.314 4.22756 0.395282 0
M  V30 7406 O 695.338 3.55219 0.264165 0
M  V30 7407 O 694.197 5.42555 0.655475 0
M  V30 7408 H 691.291 0.816007 0.134393 0
M  V30 7409 H 693.837 1.62577 -0.486513 0
M  V30 7410 H 692.609 3.83045 -0.799508 0
M  V30 7411 H 692.232 3.86927 0.91507 0
M  V30 7412 N 693.229 0.160201 1.56784 0
M  V30 7413 C 694.506 -0.533355 1.88188 0
M  V30 7414 C 694.886 -1.82072 1.06831 0
M  V30 7415 O 694.234 -2.27946 0.158959 0
M  V30 7416 C 694.444 -0.786034 3.40033 0
M  V30 7417 C 695.792 -1.12097 4.09536 0
M  V30 7418 O 696.816 -0.874949 3.45287 0
M  V30 7419 O 695.675 -1.58457 5.23023 0
M  V30 7420 H 692.769 -0.273589 0.780434 0
M  V30 7421 H 695.315 0.197803 1.68543 0
M  V30 7422 H 694.087 0.124515 3.91102 0
M  V30 7423 H 693.71 -1.57091 3.65251 0
M  V30 7424 N 694.707 -1.5719 -0.113559 0
M  V30 7425 C 695.639 -1.97393 -1.16484 0
M  V30 7426 C 696.652 -0.873964 -1.37352 0
M  V30 7427 O 697.841 -1.15222 -1.36331 0
M  V30 7428 C 694.941 -2.26174 -2.52386 0
M  V30 7429 C 694.114 -3.57479 -2.52046 0
M  V30 7430 C 693.173 -3.74409 -3.69735 0
M  V30 7431 O 692.199 -4.46463 -3.53071 0
M  V30 7432 N 693.401 -3.13588 -4.88511 0
M  V30 7433 H 696.166 -2.88184 -0.822814 0
M  V30 7434 H 693.727 -1.59044 -0.302769 0
M  V30 7435 H 695.719 -2.3471 -3.29687 0
M  V30 7436 H 694.289 -1.41483 -2.7875 0
M  V30 7437 H 693.509 -3.60081 -1.60421 0
M  V30 7438 H 694.797 -4.43775 -2.48881 0
M  V30 7439 H 694.195 -2.55026 -5.04953 0
M  V30 7440 H 692.752 -3.27637 -5.63469 0
M  V30 7441 N 696.185 0.383891 -1.52853 0
M  V30 7442 C 697.433 1.12619 -1.67814 0
M  V30 7443 C 697.754 1.90354 -0.423141 0
M  V30 7444 O 697.024 1.87649 0.562554 0
M  V30 7445 H 695.604 0.418738 -0.618601 0
M  V30 7446 H 698.266 0.43495 -1.89985 0
M  V30 7447 H 697.362 1.82624 -2.5309 0
M  V30 7448 N 697.663 1.43903 0.642637 0
M  V30 7449 C 699.074 1.40975 1.22404 0
M  V30 7450 C 699.425 0.1192 1.95838 0
M  V30 7451 O 698.55 -0.780939 2.01818 0
M  V30 7452 C 699.145 2.5538 2.22636 0
M  V30 7453 C 697.704 2.55684 2.76229 0
M  V30 7454 C 696.851 2.32556 1.51039 0
M  V30 7455 H 699.802 1.5265 0.434006 0
M  V30 7456 H 699.823 2.27474 3.05017 0
M  V30 7457 H 699.335 3.49294 1.69161 0
M  V30 7458 H 697.436 1.65679 3.33738 0
M  V30 7459 H 697.549 3.53799 3.23053 0
M  V30 7460 H 695.913 1.81427 1.78764 0
M  V30 7461 H 696.696 3.28569 0.99484 0
M  V30 7462 N 699.141 -0.881989 1.30609 0
M  V30 7463 C 700.387 -1.63647 1.19781 0
M  V30 7464 C 700.72 -1.92632 -0.246265 0
M  V30 7465 O 699.995 -1.54938 -1.17577 0
M  V30 7466 C 700.278 -2.97437 2.02985 0
M  V30 7467 C 700.131 -2.75406 3.55628 0
M  V30 7468 C 701.45 -3.98397 1.86997 0
M  V30 7469 H 698.569 -0.593841 0.436488 0
M  V30 7470 H 701.211 -1.02041 1.60273 0
M  V30 7471 H 699.361 -3.50018 1.68581 0
M  V30 7472 H 701.033 -2.2959 4.00107 0
M  V30 7473 H 699.276 -2.09856 3.79662 0
M  V30 7474 H 699.947 -3.70552 4.09139 0
M  V30 7475 H 702.423 -3.54986 2.17081 0
M  V30 7476 H 701.299 -4.89916 2.47536 0
M  V30 7477 H 701.56 -4.3424 0.829943 0
M  V30 7478 N 700.619 -1.13374 -1.09472 0
M  V30 7479 C 701.549 -0.833268 -2.18126 0
M  V30 7480 C 702.53 0.207169 -1.68834 0
M  V30 7481 O 703.715 0.0662012 -1.94087 0
M  V30 7482 C 700.845 -0.297979 -3.46019 0
M  V30 7483 C 699.799 -1.27261 -4.08642 0
M  V30 7484 C 699.125 -0.597104 -5.31356 0
M  V30 7485 C 700.425 -2.63095 -4.51197 0
M  V30 7486 H 702.119 -1.74182 -2.43518 0
M  V30 7487 H 699.665 -0.838921 -1.17039 0
M  V30 7488 H 701.618 -0.0754444 -4.21332 0
M  V30 7489 H 700.342 0.645959 -3.20148 0
M  V30 7490 H 699.001 -1.48113 -3.35348 0
M  V30 7491 H 698.649 0.352293 -5.01765 0
M  V30 7492 H 698.349 -1.24734 -5.74208 0
M  V30 7493 H 699.873 -0.38384 -6.09392 0
M  V30 7494 H 701.287 -2.46214 -5.17737 0
M  V30 7495 H 699.684 -3.2429 -5.04932 0
M  V30 7496 H 700.754 -3.20793 -3.6362 0
M  V30 7497 N 702.098 1.27442 -0.927168 0
M  V30 7498 C 703.031 2.25177 -0.370232 0
M  V30 7499 C 704.009 1.53612 0.533103 0
M  V30 7500 O 705.193 1.8245 0.47373 0
M  V30 7501 C 702.32 3.35431 0.469411 0
M  V30 7502 C 701.366 4.24888 -0.370419 0
M  V30 7503 S 702.199 5.04852 -1.78562 0
M  V30 7504 C 703.355 6.18592 -0.953651 0
M  V30 7505 H 703.588 2.72069 -1.19858 0
M  V30 7506 H 701.121 1.36089 -0.729316 0
M  V30 7507 H 703.079 3.99404 0.947992 0
M  V30 7508 H 701.74 2.87179 1.27228 0
M  V30 7509 H 700.933 5.03264 0.272226 0
M  V30 7510 H 700.535 3.65709 -0.783153 0
M  V30 7511 H 702.827 6.77235 -0.189408 0
M  V30 7512 H 703.77 6.87132 -1.7104 0
M  V30 7513 H 704.178 5.62318 -0.495897 0
M  V30 7514 N 703.576 0.692616 1.41565 0
M  V30 7515 C 704.804 0.231279 2.05603 0
M  V30 7516 C 705.219 -1.11837 1.52111 0
M  V30 7517 O 704.576 -1.6983 0.66813 0
M  V30 7518 C 704.627 0.177125 3.61066 0
M  V30 7519 O 704.348 1.47346 4.12578 0
M  V30 7520 C 705.849 -0.30556 4.42246 0
M  V30 7521 H 703.069 0.108238 0.662213 0
M  V30 7522 H 705.613 0.944369 1.81389 0
M  V30 7523 H 703.768 -0.486769 3.8433 0
M  V30 7524 H 704.182 1.35861 5.06599 0
M  V30 7525 H 705.656 -0.29233 5.51225 0
M  V30 7526 H 706.133 -1.34393 4.18133 0
M  V30 7527 H 706.739 0.327229 4.24039 0
M  V30 7528 N 705.054 -1.51416 0.437162 0
M  V30 7529 C 706.282 -2.06503 -0.128045 0
M  V30 7530 C 706.697 -1.30461 -1.36475 0
M  V30 7531 O 706.054 -0.364127 -1.78831 0
M  V30 7532 C 706.105 -3.58683 -0.450437 0
M  V30 7533 O 705.826 -4.31853 0.737186 0
M  V30 7534 C 707.327 -4.30284 -1.06633 0
M  V30 7535 H 704.547 -0.670952 -0.00800269 0
M  V30 7536 H 707.091 -1.94996 0.616193 0
M  V30 7537 H 705.246 -3.70106 -1.14457 0
M  V30 7538 H 705.66 -5.22467 0.461347 0
M  V30 7539 H 707.134 -5.37848 -1.24191 0
M  V30 7540 H 707.611 -3.88564 -2.0473 0
M  V30 7541 H 708.217 -4.23304 -0.411585 0
M  V30 7542 N 706.532 -0.168513 -1.56696 0
M  V30 7543 C 707.778 0.477865 -1.9709 0
M  V30 7544 C 708.111 1.63084 -1.05438 0
M  V30 7545 O 707.386 1.94238 -0.10095 0
M  V30 7546 C 707.669 0.963521 -3.4697 0
M  V30 7547 C 707.522 -0.189443 -4.49401 0
M  V30 7548 C 708.841 1.83813 -3.99876 0
M  V30 7549 H 705.96 0.172229 -0.716593 0
M  V30 7550 H 708.602 -0.254083 -1.88293 0
M  V30 7551 H 706.752 1.58724 -3.54597 0
M  V30 7552 H 708.424 -0.826451 -4.53836 0
M  V30 7553 H 706.667 -0.845366 -4.25483 0
M  V30 7554 H 707.338 0.192446 -5.51664 0
M  V30 7555 H 709.814 1.31235 -3.94863 0
M  V30 7556 H 708.69 2.14697 -5.0517 0
M  V30 7557 H 708.951 2.78289 -3.43523 0
M  V30 7558 N 708.01 1.57248 0.105221 0
M  V30 7559 C 708.973 2.00388 1.11252 0
M  V30 7560 C 709.973 0.89594 1.33527 0
M  V30 7561 O 711.163 1.16166 1.29811 0
M  V30 7562 C 708.295 2.35589 2.46395 0
M  V30 7563 H 709.488 2.90591 0.741424 0
M  V30 7564 H 707.041 1.52332 0.349956 0
M  V30 7565 H 707.776 1.4831 2.884 0
M  V30 7566 H 707.561 3.16408 2.31578 0
M  V30 7567 H 709.051 2.69658 3.18864 0
M  V30 7568 N 709.488 -0.375779 1.53054 0
M  V30 7569 C 710.421 -1.48187 1.7354 0
M  V30 7570 C 711.399 -1.5177 0.583495 0
M  V30 7571 O 712.583 -1.69976 0.81488 0
M  V30 7572 C 709.71 -2.86598 1.80497 0
M  V30 7573 C 708.756 -3.00784 3.02376 0
M  V30 7574 S 709.589 -2.70601 4.62099 0
M  V30 7575 C 710.745 -4.11181 4.71891 0
M  V30 7576 H 710.978 -1.30587 2.67085 0
M  V30 7577 H 708.511 -0.569485 1.43514 0
M  V30 7578 H 710.469 -3.66353 1.85192 0
M  V30 7579 H 709.13 -3.01514 0.880217 0
M  V30 7580 H 708.323 -4.02128 3.03824 0
M  V30 7581 H 707.925 -2.28939 2.95742 0
M  V30 7582 H 710.217 -5.0529 4.51319 0
M  V30 7583 H 711.16 -4.14742 5.73929 0
M  V30 7584 H 711.568 -3.97706 4.00612 0
M  V30 7585 N 710.966 -1.44241 -0.634997 0
M  V30 7586 C 712.377 -1.41622 -1.21655 0
M  V30 7587 C 712.728 -0.129584 -1.95772 0
M  V30 7588 O 711.853 0.770225 -2.02229 0
M  V30 7589 C 712.448 -2.56557 -2.21278 0
M  V30 7590 C 711.007 -2.57145 -2.7487 0
M  V30 7591 C 710.154 -2.33354 -1.49804 0
M  V30 7592 H 713.105 -1.52878 -0.425905 0
M  V30 7593 H 713.126 -2.29089 -3.03807 0
M  V30 7594 H 712.638 -3.50186 -1.67306 0
M  V30 7595 H 710.739 -1.67447 -3.32855 0
M  V30 7596 H 710.852 -3.55507 -3.21172 0
M  V30 7597 H 709.216 -1.82372 -1.77799 0
M  V30 7598 H 709.999 -3.29092 -0.977402 0
M  V30 7599 N 712.444 0.87505 -1.31075 0
M  V30 7600 C 713.69 1.63009 -1.20647 0
M  V30 7601 C 714.023 1.9276 0.236045 0
M  V30 7602 O 713.298 1.55559 1.16754 0
M  V30 7603 C 713.581 2.96357 -2.0456 0
M  V30 7604 C 713.434 2.73516 -3.57084 0
M  V30 7605 C 714.753 3.974 -1.89107 0
M  V30 7606 H 711.872 0.591518 -0.439631 0
M  V30 7607 H 714.514 1.0119 -1.60812 0
M  V30 7608 H 712.664 3.49119 -1.70435 0
M  V30 7609 H 714.336 2.27465 -4.01319 0
M  V30 7610 H 712.579 2.0784 -3.80769 0
M  V30 7611 H 713.25 3.68377 -4.11099 0
M  V30 7612 H 715.726 3.5383 -2.18961 0
M  V30 7613 H 714.602 4.88596 -2.5013 0
M  V30 7614 H 714.863 4.33794 -0.85296 0
M  V30 7615 N 713.922 1.13953 1.08869 0
M  V30 7616 C 715.169 0.90481 1.81161 0
M  V30 7617 C 715.497 -0.568824 1.85996 0
M  V30 7618 O 714.752 -1.43723 1.32823 0
M  V30 7619 C 715.051 1.44495 3.26888 0
M  V30 7620 C 714.717 2.93641 3.42178 0
M  V30 7621 C 713.379 3.34361 3.46059 0
M  V30 7622 C 715.731 3.89568 3.46246 0
M  V30 7623 C 713.059 4.69681 3.51592 0
M  V30 7624 C 715.411 5.2474 3.53314 0
M  V30 7625 C 714.075 5.64979 3.55465 0
M  V30 7626 H 713.345 0.331094 0.662916 0
M  V30 7627 H 715.992 1.42242 1.28217 0
M  V30 7628 H 714.297 0.848169 3.82509 0
M  V30 7629 H 715.994 1.23934 3.81368 0
M  V30 7630 H 712.584 2.61156 3.39846 0
M  V30 7631 H 716.768 3.59192 3.42483 0
M  V30 7632 H 712.024 5.00224 3.51547 0
M  V30 7633 H 716.198 5.98882 3.55406 0
M  V30 7634 H 713.825 6.69821 3.59505 0
M  V30 7635 N 715.4 -1.26948 0.933913 0
M  V30 7636 C 716.625 -1.98724 0.593589 0
M  V30 7637 C 717.05 -1.6915 -0.822801 0
M  V30 7638 O 716.408 -0.93533 -1.5531 0
M  V30 7639 C 716.456 -3.50834 0.833542 0
M  V30 7640 O 715.56 -4.12284 -0.0978788 0
M  V30 7641 H 714.901 -0.623683 0.227849 0
M  V30 7642 H 717.431 -1.61599 1.25486 0
M  V30 7643 H 717.441 -4.01018 0.75156 0
M  V30 7644 H 716.116 -3.71691 1.86597 0
M  V30 7645 H 714.693 -3.72884 0.0345443 0
M  V30 7646 N 716.879 -0.700114 -1.41195 0
M  V30 7647 C 717.826 -0.0376652 -2.30769 0
M  V30 7648 C 718.796 0.766544 -1.47354 0
M  V30 7649 O 719.981 0.73365 -1.76131 0
M  V30 7650 C 717.121 0.889452 -3.33441 0
M  V30 7651 C 716.234 0.076373 -4.31932 0
M  V30 7652 C 715.369 1.00155 -5.21673 0
M  V30 7653 C 714.408 0.181644 -6.1183 0
M  V30 7654 N 713.545 1.06087 -6.94039 0
M  V30 7655 H 718.385 -0.80726 -2.86858 0
M  V30 7656 H 715.922 -0.409798 -1.41277 0
M  V30 7657 H 717.88 1.44107 -3.91522 0
M  V30 7658 H 716.51 1.6254 -2.78892 0
M  V30 7659 H 715.562 -0.592223 -3.75762 0
M  V30 7660 H 716.874 -0.559076 -4.95657 0
M  V30 7661 H 716.028 1.62223 -5.8461 0
M  V30 7662 H 714.767 1.67085 -4.58186 0
M  V30 7663 H 713.772 -0.452085 -5.47938 0
M  V30 7664 H 714.997 -0.483925 -6.77374 0
M  V30 7665 H 712.943 1.7161 -6.33156 0
M  V30 7666 H 712.86 0.481094 -7.54468 0
M  V30 7667 H 714.128 1.66822 -7.6144 0
M  V30 7668 N 718.357 1.51182 -0.445186 0
M  V30 7669 C 719.289 2.25714 0.398206 0
M  V30 7670 C 720.302 1.30032 0.979562 0
M  V30 7671 O 721.491 1.55731 0.872368 0
M  V30 7672 C 718.591 3.00348 1.56985 0
M  V30 7673 C 717.764 4.23187 1.10596 0
M  V30 7674 C 716.823 4.80334 2.14863 0
M  V30 7675 O 715.849 5.4196 1.73977 0
M  V30 7676 N 717.051 4.65053 3.47427 0
M  V30 7677 H 719.816 2.98732 -0.240629 0
M  V30 7678 H 717.377 1.59556 -0.274507 0
M  V30 7679 H 719.369 3.35464 2.26376 0
M  V30 7680 H 717.939 2.30291 2.11387 0
M  V30 7681 H 717.159 3.93476 0.238832 0
M  V30 7682 H 718.447 5.02886 0.773537 0
M  V30 7683 H 717.845 4.15984 3.83372 0
M  V30 7684 H 716.402 5.04509 4.12691 0
M  V30 7685 N 719.835 0.176821 1.56605 0
M  V30 7686 C 720.783 -0.768159 2.1955 0
M  V30 7687 C 721.777 -1.23343 1.16116 0
M  V30 7688 O 722.983 -1.19844 1.34303 0
M  V30 7689 H 719.358 -0.266013 0.703378 0
M  V30 7690 H 721.329 -0.213374 2.97636 0
M  V30 7691 C 720.078 -1.98492 2.85475 0
M  V30 7692 H 719.401 -1.63595 3.64797 0
M  V30 7693 H 720.841 -2.62489 3.3298 0
M  V30 7694 C 719.3 -2.81207 1.85538 0
M  V30 7695 O 719.83 -3.7854 1.34427 0
M  V30 7696 N 718.036 -2.46331 1.54173 0
M  V30 7697 H 717.583 -1.67241 1.95929 0
M  V30 7698 H 717.541 -3.01961 0.875595 0
M  V30 7699 N 721.313 -1.57302 -0.09688 0
M  V30 7700 C 722.223 -2.05258 -1.13606 0
M  V30 7701 C 723.239 -0.977137 -1.43972 0
M  V30 7702 O 724.415 -1.29018 -1.54649 0
M  V30 7703 C 721.48 -2.46593 -2.43706 0
M  V30 7704 C 720.541 -3.68322 -2.20538 0
M  V30 7705 C 719.774 -4.07676 -3.44435 0
M  V30 7706 O 719.997 -3.47141 -4.52603 0
M  V30 7707 O 718.931 -5.00641 -3.34129 0
M  V30 7708 H 722.757 -2.94069 -0.758752 0
M  V30 7709 H 720.342 -1.46164 -0.309263 0
M  V30 7710 H 722.224 -2.73814 -3.20318 0
M  V30 7711 H 720.899 -1.6092 -2.80867 0
M  V30 7712 H 719.806 -3.4622 -1.41713 0
M  V30 7713 H 721.139 -4.54769 -1.88271 0
M  V30 7714 N 722.791 0.367657 -1.53252 0
M  V30 7715 C 724.019 1.13119 -1.73239 0
M  V30 7716 C 724.434 1.831 -0.460404 0
M  V30 7717 O 723.791 1.73483 0.566557 0
M  V30 7718 C 723.842 2.16308 -2.89643 0
M  V30 7719 O 723.563 1.49175 -4.1192 0
M  V30 7720 C 725.064 3.05224 -3.21486 0
M  V30 7721 H 722.284 0.338318 -0.579467 0
M  V30 7722 H 724.828 0.42721 -1.99988 0
M  V30 7723 H 722.983 2.82307 -2.65295 0
M  V30 7724 H 723.397 2.17912 -4.7709 0
M  V30 7725 H 724.871 3.73613 -4.06346 0
M  V30 7726 H 725.348 3.69919 -2.36763 0
M  V30 7727 H 725.954 2.44843 -3.47753 0
M  V30 7728 N 724.269 1.44576 0.627338 0
M  V30 7729 C 725.685 1.28546 0.945938 0
M  V30 7730 C 725.885 0.224003 2.00251 0
M  V30 7731 O 724.941 -0.388817 2.49488 0
M  V30 7732 C 726.254 2.65825 1.40561 0
M  V30 7733 C 727.802 2.73566 1.52088 0
M  V30 7734 C 728.277 4.11323 2.01438 0
M  V30 7735 N 729.768 4.13519 2.08702 0
M  V30 7736 C 730.503 5.16964 2.48065 0
M  V30 7737 N 729.999 6.30768 2.86538 0
M  V30 7738 N 731.792 5.04319 2.48232 0
M  V30 7739 H 723.943 2.1228 -0.0713567 0
M  V30 7740 H 726.206 0.947503 0.0307081 0
M  V30 7741 H 725.912 3.44591 0.703539 0
M  V30 7742 H 725.786 2.92969 2.37591 0
M  V30 7743 H 728.173 1.95116 2.21391 0
M  V30 7744 H 728.254 2.50159 0.534237 0
M  V30 7745 H 727.898 4.9025 1.32729 0
M  V30 7746 H 727.828 4.32109 3.0098 0
M  V30 7747 H 730.319 3.31385 1.81638 0
M  V30 7748 H 730.632 7.0551 3.15398 0
M  V30 7749 H 728.977 6.342 2.84281 0
M  V30 7750 H 732.168 4.14465 2.17569 0
M  V30 7751 H 732.341 5.85059 2.78585 0
M  V30 7752 N 725.747 -0.868086 1.31537 0
M  V30 7753 C 726.972 -1.65926 1.24432 0
M  V30 7754 C 727.397 -1.87169 -0.186936 0
M  V30 7755 O 726.755 -1.4148 -1.13371 0
M  V30 7756 C 726.803 -3.00347 1.9956 0
M  V30 7757 O 725.907 -3.90221 1.33422 0
M  V30 7758 H 725.248 -0.506375 0.429512 0
M  V30 7759 H 727.778 -1.0822 1.73637 0
M  V30 7760 H 727.788 -3.50269 2.09226 0
M  V30 7761 H 726.463 -2.84205 3.03645 0
M  V30 7762 H 725.04 -3.48672 1.32219 0
M  V30 7763 N 727.225 -1.14528 -1.08264 0
M  V30 7764 C 728.172 -0.833556 -2.15222 0
M  V30 7765 C 729.142 0.209539 -1.64773 0
M  V30 7766 O 730.327 0.0791388 -1.90636 0
M  V30 7767 C 727.467 -0.318799 -3.43624 0
M  V30 7768 C 726.58 -1.42237 -4.07913 0
M  V30 7769 C 725.715 -0.864704 -5.24115 0
M  V30 7770 C 724.754 -1.94585 -5.80347 0
M  V30 7771 N 723.891 -1.40525 -6.87893 0
M  V30 7772 H 728.731 -1.74965 -2.41228 0
M  V30 7773 H 726.268 -0.873169 -1.18381 0
M  V30 7774 H 728.226 -0.00213088 -4.172 0
M  V30 7775 H 726.856 0.560397 -3.17898 0
M  V30 7776 H 725.908 -1.8554 -3.32083 0
M  V30 7777 H 727.22 -2.23901 -4.45724 0
M  V30 7778 H 726.374 -0.500025 -6.04636 0
M  V30 7779 H 725.113 -0.0171219 -4.87697 0
M  V30 7780 H 724.118 -2.31946 -4.98479 0
M  V30 7781 H 725.343 -2.79704 -6.18823 0
M  V30 7782 H 723.289 -0.579873 -6.53432 0
M  V30 7783 H 723.206 -2.15825 -7.24538 0
M  V30 7784 H 724.474 -1.06852 -7.72142 0
M  V30 7785 N 728.703 1.26451 -0.940633 0
M  V30 7786 C 729.951 1.93395 -0.586748 0
M  V30 7787 C 730.272 1.7417 0.876921 0
M  V30 7788 O 729.542 1.097 1.62304 0
M  V30 7789 H 728.122 0.715687 -0.214012 0
M  V30 7790 H 730.784 1.53902 -1.19584 0
M  V30 7791 H 729.88 3.01565 -0.804059 0
M  V30 7792 N 730.181 0.707592 1.40822 0
M  V30 7793 C 731.43 0.240705 2.00259 0
M  V30 7794 C 731.743 -1.17027 1.56729 0
M  V30 7795 O 732.949 -1.73526 2.08809 0
M  V30 7796 C 731.405 0.379432 3.57894 0
M  V30 7797 C 731.013 1.79654 4.104 0
M  V30 7798 C 732.757 -0.0270684 4.24491 0
M  V30 7799 C 730.664 1.88628 5.60512 0
M  V30 7800 H 729.594 0.0862369 0.749052 0
M  V30 7801 H 732.245 0.877528 1.61157 0
M  V30 7802 H 730.627 -0.325842 3.94657 0
M  V30 7803 H 731.801 2.53155 3.85032 0
M  V30 7804 H 730.116 2.15379 3.56372 0
M  V30 7805 H 732.713 0.0193743 5.34696 0
M  V30 7806 H 733.056 -1.06772 4.02375 0
M  V30 7807 H 733.589 0.628361 3.92806 0
M  V30 7808 H 730.328 2.90787 5.87472 0
M  V30 7809 H 729.848 1.19528 5.8777 0
M  V30 7810 H 731.527 1.6547 6.25483 0
M  V30 7811 N 731.66 -1.50943 0.453197 0
M  V30 7812 C 732.59 -2.31005 -0.34044 0
M  V30 7813 C 733.571 -1.37112 -1.00669 0
M  V30 7814 O 734.756 -1.66033 -1.0073 0
M  V30 7815 C 731.886 -3.16358 -1.433 0
M  V30 7816 C 730.84 -4.18658 -0.889363 0
M  V30 7817 C 730.166 -4.92633 -2.07887 0
M  V30 7818 C 731.466 -5.22227 0.0871142 0
M  V30 7819 H 733.16 -2.97601 0.327723 0
M  V30 7820 H 730.706 -1.43119 0.159054 0
M  V30 7821 H 732.659 -3.71155 -1.99555 0
M  V30 7822 H 731.383 -2.47613 -2.12968 0
M  V30 7823 H 730.042 -3.64936 -0.348915 0
M  V30 7824 H 729.69 -4.20376 -2.76211 0
M  V30 7825 H 729.39 -5.61819 -1.72143 0
M  V30 7826 H 730.914 -5.50258 -2.64666 0
M  V30 7827 H 732.328 -5.72001 -0.385656 0
M  V30 7828 H 730.725 -5.99032 0.357926 0
M  V30 7829 H 731.795 -4.74077 1.01879 0
M  V30 7830 N 733.138 -0.185124 -1.56509 0
M  V30 7831 C 734.068 0.735098 -2.21627 0
M  V30 7832 C 735.049 1.2288 -1.1762 0
M  V30 7833 O 736.234 1.27945 -1.46095 0
M  V30 7834 C 733.364 1.95889 -2.86783 0
M  V30 7835 C 732.318 1.6005 -3.96948 0
M  V30 7836 C 731.644 2.90009 -4.4922 0
M  V30 7837 C 732.944 0.818008 -5.15855 0
M  V30 7838 H 734.638 0.192274 -2.98782 0
M  V30 7839 H 732.184 0.0910393 -1.43712 0
M  V30 7840 H 734.137 2.60779 -3.31017 0
M  V30 7841 H 732.861 2.52608 -2.07018 0
M  V30 7842 H 731.52 0.975237 -3.5339 0
M  V30 7843 H 731.168 3.44797 -3.6623 0
M  V30 7844 H 730.868 2.66778 -5.23549 0
M  V30 7845 H 732.392 3.55904 -4.9615 0
M  V30 7846 H 733.806 1.36979 -5.56695 0
M  V30 7847 H 732.203 0.684207 -5.96187 0
M  V30 7848 H 733.273 -0.182939 -4.84555 0
M  V30 7849 N 734.616 1.57351 0.0885366 0
M  V30 7850 C 735.864 1.86051 0.789262 0
M  V30 7851 C 736.185 0.774763 1.78948 0
M  V30 7852 O 735.455 -0.198324 1.94894 0
M  V30 7853 H 734.035 0.686508 0.294475 0
M  V30 7854 H 736.697 1.94779 0.0686055 0
M  V30 7855 H 735.793 2.83007 1.31581 0
M  V30 7856 N 736.094 -0.359525 1.53444 0
M  V30 7857 C 737.34 -1.10315 1.70172 0
M  V30 7858 C 737.673 -1.88788 0.455287 0
M  V30 7859 O 736.948 -1.86635 -0.547514 0
M  V30 7860 C 737.231 -2.05744 2.95536 0
M  V30 7861 C 737.084 -1.3084 4.3035 0
M  V30 7862 C 738.403 -3.05784 3.16518 0
M  V30 7863 H 735.522 -0.399662 0.619225 0
M  V30 7864 H 738.164 -0.383338 1.86093 0
M  V30 7865 H 736.314 -2.67125 2.82093 0
M  V30 7866 H 737.986 -0.721959 4.55615 0
M  V30 7867 H 736.229 -0.610283 4.29486 0
M  V30 7868 H 736.9 -2.00718 5.14214 0
M  V30 7869 H 739.376 -2.5451 3.29187 0
M  V30 7870 H 738.252 -3.69772 4.05659 0
M  V30 7871 H 738.513 -3.76289 2.32076 0
M  V30 7872 N 737.572 -1.44907 -0.619662 0
M  V30 7873 C 738.818 -1.48512 -1.38102 0
M  V30 7874 C 739.151 -0.121686 -1.93818 0
M  V30 7875 O 738.426 0.862256 -1.74343 0
M  V30 7876 C 738.709 -2.55469 -2.53787 0
M  V30 7877 C 738.562 -4.01212 -2.03345 0
M  V30 7878 C 739.881 -2.58821 -3.55949 0
M  V30 7879 H 737 -0.540712 -0.500799 0
M  V30 7880 H 739.642 -1.7665 -0.69962 0
M  V30 7881 H 737.792 -2.31606 -3.11915 0
M  V30 7882 H 739.464 -4.36245 -1.49959 0
M  V30 7883 H 737.707 -4.12443 -1.34438 0
M  V30 7884 H 738.378 -4.71717 -2.86683 0
M  V30 7885 H 740.854 -2.80172 -3.07641 0
M  V30 7886 H 739.73 -3.35542 -4.34399 0
M  V30 7887 H 739.991 -1.63451 -4.10775 0
M  V30 7888 N 739.05 0.861098 -1.31996 0
M  V30 7889 C 740.298 1.61162 -1.21947 0
M  V30 7890 C 740.619 1.93751 0.220351 0
M  V30 7891 O 739.889 1.59069 1.14341 0
M  V30 7892 H 738.469 0.597485 -0.448353 0
M  V30 7893 H 741.131 1.03039 -1.65436 0
M  V30 7894 H 740.227 2.55138 -1.79752 0
M  V30 7895 N 740.528 1.15101 1.07655 0
M  V30 7896 C 741.756 0.947731 1.83918 0
M  V30 7897 C 742.171 -0.503927 1.81951 0
M  V30 7898 O 741.528 -1.34941 1.2287 0
M  V30 7899 C 741.579 1.4503 3.31132 0
M  V30 7900 O 741.3 2.84508 3.33146 0
M  V30 7901 C 742.801 1.28806 4.24174 0
M  V30 7902 H 740.021 0.336786 0.580358 0
M  V30 7903 H 742.565 1.52799 1.35914 0
M  V30 7904 H 740.72 0.912632 3.76497 0
M  V30 7905 H 741.134 3.0723 4.251 0
M  V30 7906 H 742.608 1.6882 5.25551 0
M  V30 7907 H 743.085 0.231851 4.38588 0
M  V30 7908 H 743.691 1.81465 3.84643 0
M  V30 7909 N 742.006 -1.2595 0.947325 0
M  V30 7910 C 743.283 -1.88676 0.515824 0
M  V30 7911 C 743.663 -1.85547 -1.00675 0
M  V30 7912 O 743.011 -1.31399 -1.8694 0
M  V30 7913 C 743.221 -3.31734 1.08415 0
M  V30 7914 C 744.569 -4.08545 1.15654 0
M  V30 7915 O 745.593 -3.40826 1.03517 0
M  V30 7916 O 744.452 -5.29663 1.34608 0
M  V30 7917 H 741.546 -0.809537 0.169055 0
M  V30 7918 H 744.092 -1.34075 1.04029 0
M  V30 7919 H 742.864 -3.28404 2.1276 0
M  V30 7920 H 742.487 -3.93882 0.542499 0
M  V30 7921 N 743.484 -0.715051 -1.40445 0
M  V30 7922 C 744.73 -0.254705 -2.01194 0
M  V30 7923 C 745.063 1.14894 -1.56567 0
M  V30 7924 O 744.338 1.77933 -0.785491 0
M  V30 7925 C 744.621 -0.334148 -3.58546 0
M  V30 7926 C 744.474 -1.77613 -4.13248 0
M  V30 7927 C 745.793 0.294968 -4.3911 0
M  V30 7928 H 742.912 -0.094025 -0.730978 0
M  V30 7929 H 745.554 -0.907449 -1.66929 0
M  V30 7930 H 743.704 0.221609 -3.87867 0
M  V30 7931 H 745.376 -2.38723 -3.94727 0
M  V30 7932 H 743.619 -2.30402 -3.67556 0
M  V30 7933 H 744.29 -1.78311 -5.22407 0
M  V30 7934 H 746.766 -0.178563 -4.15717 0
M  V30 7935 H 745.642 0.208934 -5.48502 0
M  V30 7936 H 745.903 1.37841 -4.20062 0
M  V30 7937 N 744.962 1.50701 -0.461195 0
M  V30 7938 C 746.373 1.867 -0.00370227 0
M  V30 7939 C 746.724 1.37673 1.39787 0
M  V30 7940 O 745.849 0.737515 2.03445 0
M  V30 7941 C 746.444 3.388 5.75786e-05 0
M  V30 7942 C 745.003 3.74247 0.402044 0
M  V30 7943 C 744.15 2.74549 -0.389652 0
M  V30 7944 H 747.101 1.43585 -0.675942 0
M  V30 7945 H 747.122 3.719 0.804414 0
M  V30 7946 H 746.634 3.74452 -1.02015 0
M  V30 7947 H 744.735 3.44192 1.42697 0
M  V30 7948 H 744.848 4.78973 0.110265 0
M  V30 7949 H 743.212 2.54226 0.155314 0
M  V30 7950 H 743.995 3.13044 -1.40919 0
M  V30 7951 N 746.441 0.193421 1.56409 0
M  V30 7952 C 747.687 -0.446449 1.97825 0
M  V30 7953 C 748.02 -1.61386 1.08019 0
M  V30 7954 O 747.295 -1.94053 0.131839 0
M  V30 7955 C 747.578 -0.908199 3.48459 0
M  V30 7956 C 747.431 0.260914 4.49043 0
M  V30 7957 C 748.75 -1.77428 4.0275 0
M  V30 7958 H 745.869 -0.160807 0.719243 0
M  V30 7959 H 748.511 0.284006 1.87865 0
M  V30 7960 H 746.661 -1.53062 3.57077 0
M  V30 7961 H 748.333 0.898548 4.52464 0
M  V30 7962 H 746.576 0.912949 4.24085 0
M  V30 7963 H 747.247 -0.104657 5.51901 0
M  V30 7964 H 749.723 -1.24936 3.96901 0
M  V30 7965 H 748.599 -2.06633 5.08521 0
M  V30 7966 H 748.86 -2.72788 3.47907 0
M  V30 7967 N 747.919 -1.57396 -0.0801906 0
M  V30 7968 C 748.866 -2.03107 -1.09618 0
M  V30 7969 C 749.836 -0.910118 -1.38946 0
M  V30 7970 O 751.021 -1.17719 -1.50156 0
M  V30 7971 C 748.161 -2.47293 -2.40708 0
M  V30 7972 C 747.274 -3.72972 -2.17982 0
M  V30 7973 C 746.409 -4.05975 -3.42576 0
M  V30 7974 C 745.448 -5.24719 -3.15177 0
M  V30 7975 N 744.585 -5.53401 -4.32078 0
M  V30 7976 H 749.425 -2.89677 -0.69939 0
M  V30 7977 H 746.962 -1.43263 -0.333785 0
M  V30 7978 H 748.92 -2.7096 -3.17232 0
M  V30 7979 H 747.55 -1.63713 -2.78205 0
M  V30 7980 H 746.602 -3.56693 -1.32189 0
M  V30 7981 H 747.914 -4.59638 -1.93738 0
M  V30 7982 H 747.068 -4.30498 -4.275 0
M  V30 7983 H 745.807 -3.17859 -3.69887 0
M  V30 7984 H 744.812 -5 -2.28648 0
M  V30 7985 H 746.037 -6.14445 -2.89197 0
M  V30 7986 H 743.983 -4.68245 -4.59437 0
M  V30 7987 H 743.9 -6.34469 -4.11078 0
M  V30 7988 H 745.168 -5.8247 -5.18024 0
M  V30 7989 N 749.397 0.351382 -1.53633 0
M  V30 7990 C 750.307 1.45471 -1.84052 0
M  V30 7991 C 751.323 1.57945 -0.730015 0
M  V30 7992 O 752.499 1.73571 -1.02153 0
M  V30 7993 C 749.564 2.80562 -2.03681 0
M  V30 7994 C 748.625 2.77497 -3.27558 0
M  V30 7995 C 747.858 4.06144 -3.46241 0
M  V30 7996 O 748.081 5.03028 -2.68922 0
M  V30 7997 O 747.015 4.11092 -4.39645 0
M  V30 7998 H 750.841 1.22684 -2.77817 0
M  V30 7999 H 748.426 0.542827 -1.3919 0
M  V30 8000 H 750.308 3.6058 -2.18082 0
M  V30 8001 H 748.983 3.03296 -1.13106 0
M  V30 8002 H 747.89 1.96126 -3.18568 0
M  V30 8003 H 749.223 2.59716 -4.18101 0
M  V30 8004 N 750.875 1.45233 0.611969 0
M  V30 8005 C 751.805 1.5641 1.73373 0
M  V30 8006 C 752.786 0.415896 1.64937 0
M  V30 8007 O 753.971 0.638478 1.83404 0
M  V30 8008 C 751.101 1.52627 3.11965 0
M  V30 8009 C 750.055 2.66119 3.35208 0
M  V30 8010 C 749.381 2.4739 4.74028 0
M  V30 8011 C 750.681 4.08157 3.25891 0
M  V30 8012 H 752.375 2.50307 1.64277 0
M  V30 8013 H 749.921 1.20467 0.788904 0
M  V30 8014 H 751.874 1.59043 3.90235 0
M  V30 8015 H 750.598 0.552564 3.21892 0
M  V30 8016 H 749.257 2.59123 2.59327 0
M  V30 8017 H 748.905 1.48168 4.80682 0
M  V30 8018 H 748.605 3.23494 4.90536 0
M  V30 8019 H 750.129 2.55653 5.54503 0
M  V30 8020 H 751.543 4.1642 3.9404 0
M  V30 8021 H 749.94 4.84617 3.5393 0
M  V30 8022 H 751.01 4.30374 2.23397 0
M  V30 8023 N 752.353 -0.854086 1.3245 0
M  V30 8024 C 753.283 -1.97827 1.24044 0
M  V30 8025 C 754.264 -1.69646 0.124166 0
M  V30 8026 O 755.449 -1.91687 0.31143 0
M  V30 8027 C 752.579 -3.33673 0.963324 0
M  V30 8028 C 751.533 -3.76207 2.04089 0
M  V30 8029 C 750.859 -5.0969 1.61618 0
M  V30 8030 C 752.159 -3.91612 3.45597 0
M  V30 8031 H 753.853 -2.05118 2.18099 0
M  V30 8032 H 751.399 -0.985489 1.04996 0
M  V30 8033 H 753.352 -4.11871 0.891061 0
M  V30 8034 H 752.076 -3.26597 -0.0128649 0
M  V30 8035 H 750.735 -3.0026 2.10332 0
M  V30 8036 H 750.383 -4.99072 0.627418 0
M  V30 8037 H 750.083 -5.3912 2.33717 0
M  V30 8038 H 751.607 -5.90381 1.55829 0
M  V30 8039 H 753.021 -4.60163 3.4194 0
M  V30 8040 H 751.418 -4.3246 4.16051 0
M  V30 8041 H 752.488 -2.9451 3.85217 0
M  V30 8042 N 753.831 -1.1567 -1.07043 0
M  V30 8043 C 754.778 -0.856336 -2.14326 0
M  V30 8044 C 755.748 0.192051 -1.64986 0
M  V30 8045 O 756.933 0.0589148 -1.90709 0
M  V30 8046 C 754.073 -0.355227 -3.43267 0
M  V30 8047 C 753.186 -1.46555 -4.06381 0
M  V30 8048 C 752.321 -0.920245 -5.23168 0
M  V30 8049 C 751.36 -2.00729 -5.78251 0
M  V30 8050 N 750.497 -1.47813 -6.86364 0
M  V30 8051 H 755.337 -1.77514 -2.39359 0
M  V30 8052 H 752.874 -0.885676 -1.17449 0
M  V30 8053 H 754.832 -0.0463804 -4.17174 0
M  V30 8054 H 753.462 0.526649 -3.18475 0
M  V30 8055 H 752.514 -1.89052 -3.30096 0
M  V30 8056 H 753.826 -2.28616 -4.43324 0
M  V30 8057 H 752.98 -0.564127 -6.04072 0
M  V30 8058 H 751.719 -0.0688477 -4.87651 0
M  V30 8059 H 750.724 -2.3722 -4.95991 0
M  V30 8060 H 751.949 -2.86252 -6.15822 0
M  V30 8061 H 749.895 -0.649145 -6.5278 0
M  V30 8062 H 749.812 -2.23498 -7.22208 0
M  V30 8063 H 751.08 -1.15036 -7.70965 0
M  V30 8064 N 755.309 1.25446 -0.953992 0
M  V30 8065 C 756.537 1.97215 -0.625595 0
M  V30 8066 C 756.952 1.70911 0.802168 0
M  V30 8067 O 756.309 0.984782 1.5365 0
M  V30 8068 C 756.36 3.50777 -0.873943 0
M  V30 8069 O 756.081 3.76173 -2.24556 0
M  V30 8070 C 757.582 4.39776 -0.557845 0
M  V30 8071 H 754.802 0.628652 -0.2346 0
M  V30 8072 H 757.346 1.59632 -1.27819 0
M  V30 8073 H 755.501 3.86474 -0.267765 0
M  V30 8074 H 755.915 4.70636 -2.31522 0
M  V30 8075 H 757.389 5.46431 -0.782157 0
M  V30 8076 H 757.866 4.36257 0.507573 0
M  V30 8077 H 758.472 4.09644 -1.14332 0
M  V30 8078 N 756.787 0.722489 1.40064 0
M  V30 8079 C 758.036 0.261932 1.99992 0
M  V30 8080 C 758.349 -1.15358 1.57961 0
M  V30 8081 O 759.555 -1.71301 2.10637 0
M  V30 8082 C 758.011 0.41737 3.57472 0
M  V30 8083 C 757.619 1.83997 4.08472 0
M  V30 8084 C 759.363 0.0179561 4.24496 0
M  V30 8085 C 757.27 1.94563 5.5848 0
M  V30 8086 H 756.2 0.0941768 0.748095 0
M  V30 8087 H 758.851 0.894572 1.60218 0
M  V30 8088 H 757.233 -0.283965 3.94981 0
M  V30 8089 H 758.407 2.57224 3.82325 0
M  V30 8090 H 756.722 2.19147 3.54067 0
M  V30 8091 H 759.319 0.076085 5.34646 0
M  V30 8092 H 759.662 -1.02498 4.03485 0
M  V30 8093 H 760.195 0.669988 3.92117 0
M  V30 8094 H 756.934 2.97001 5.84355 0
M  V30 8095 H 756.454 1.25756 5.86469 0
M  V30 8096 H 758.133 1.72095 6.23692 0
M  V30 8097 N 758.265 -1.50454 0.469181 0
M  V30 8098 C 759.676 -1.86695 0.0136034 0
M  V30 8099 C 760.027 -1.38413 -1.39055 0
M  V30 8100 O 759.152 -0.748294 -2.03051 0
M  V30 8101 C 759.747 -3.38795 0.0179098 0
M  V30 8102 C 758.306 -3.74455 -0.382191 0
M  V30 8103 C 757.453 -2.74338 0.404207 0
M  V30 8104 H 760.404 -1.43225 0.683547 0
M  V30 8105 H 760.425 -3.72321 -0.78468 0
M  V30 8106 H 759.937 -3.73906 1.04 0
M  V30 8107 H 758.038 -3.44944 -1.4087 0
M  V30 8108 H 758.151 -4.79025 -0.084862 0
M  V30 8109 H 756.515 -2.54305 -0.141829 0
M  V30 8110 H 757.298 -3.12293 1.42577 0
M  V30 8111 N 759.743 -0.201713 -1.56304 0
M  V30 8112 C 760.69 0.716499 -2.19397 0
M  V30 8113 C 761.66 1.20494 -1.14326 0
M  V30 8114 O 762.845 1.26763 -1.42604 0
M  V30 8115 C 759.985 1.92762 -2.86246 0
M  V30 8116 C 759.098 1.47993 -4.0586 0
M  V30 8117 C 758.233 2.64706 -4.60547 0
M  V30 8118 C 757.272 2.16576 -5.72504 0
M  V30 8119 N 756.409 3.26491 -6.21569 0
M  V30 8120 H 761.249 0.171724 -2.97505 0
M  V30 8121 H 758.786 0.073016 -1.46919 0
M  V30 8122 H 760.744 2.6384 -3.23178 0
M  V30 8123 H 759.374 2.44559 -2.10691 0
M  V30 8124 H 758.426 0.66477 -3.74546 0
M  V30 8125 H 759.738 1.08686 -4.86815 0
M  V30 8126 H 758.892 3.43898 -4.99819 0
M  V30 8127 H 757.631 3.0729 -3.78713 0
M  V30 8128 H 756.636 1.3584 -5.32755 0
M  V30 8129 H 757.861 1.75015 -6.56161 0
M  V30 8130 H 755.807 3.68594 -5.42655 0
M  V30 8131 H 755.724 2.91374 -6.97594 0
M  V30 8132 H 756.992 4.05877 -6.65495 0
M  V30 8133 N 761.222 1.57436 0.0718424 0
M  V30 8134 C 762.452 1.91196 0.782795 0
M  V30 8135 C 762.86 0.795927 1.71644 0
M  V30 8136 O 762.203 -0.239604 1.82131 0
M  V30 8137 C 762.265 3.20421 1.63005 0
M  V30 8138 C 761.929 4.48724 0.865782 0
M  V30 8139 C 762.926 5.19571 0.185051 0
M  V30 8140 C 760.611 4.95345 0.832971 0
M  V30 8141 C 762.605 6.3529 -0.518264 0
M  V30 8142 C 760.292 6.1097 0.125884 0
M  V30 8143 C 761.29 6.80794 -0.548533 0
M  V30 8144 O 760.978 7.94213 -1.24423 0
M  V30 8145 H 760.71 0.636486 0.227731 0
M  V30 8146 H 763.264 2.05348 0.0464187 0
M  V30 8147 H 761.494 3.02478 2.40923 0
M  V30 8148 H 763.183 3.39831 2.21968 0
M  V30 8149 H 763.949 4.8458 0.201707 0
M  V30 8150 H 759.828 4.40871 1.34737 0
M  V30 8151 H 763.372 6.89725 -1.04523 0
M  V30 8152 H 759.269 6.45411 0.107155 0
M  V30 8153 H 760.037 8.10331 -1.1535 0
M  V30 8154 N 762.7 -0.34323 1.53817 0
M  V30 8155 C 763.647 -1.42153 1.81827 0
M  V30 8156 C 764.617 -1.52251 0.663996 0
M  V30 8157 O 765.802 -1.67784 0.908461 0
M  V30 8158 C 762.942 -2.78799 2.03384 0
M  V30 8159 C 762.055 -2.7749 3.31094 0
M  V30 8160 C 761.19 -4.05856 3.42717 0
M  V30 8161 C 760.229 -3.98776 4.64375 0
M  V30 8162 N 759.366 -5.18833 4.73029 0
M  V30 8163 H 764.206 -1.17567 2.73829 0
M  V30 8164 H 761.743 -0.569506 1.35628 0
M  V30 8165 H 763.701 -3.58211 2.13872 0
M  V30 8166 H 762.331 -3.01736 1.14696 0
M  V30 8167 H 761.383 -1.90182 3.29446 0
M  V30 8168 H 762.695 -2.68137 4.206 0
M  V30 8169 H 761.849 -4.93691 3.52638 0
M  V30 8170 H 760.588 -4.1799 2.51267 0
M  V30 8171 H 759.593 -3.09325 4.5453 0
M  V30 8172 H 760.818 -3.88224 5.57189 0
M  V30 8173 H 758.764 -5.31511 3.84489 0
M  V30 8174 H 758.681 -5.11737 5.56472 0
M  V30 8175 H 759.949 -6.08439 4.87261 0
M  V30 8176 N 764.178 -1.45556 -0.604258 0
M  V30 8177 C 765.108 -1.57327 -1.72541 0
M  V30 8178 C 766.089 -0.424637 -1.64714 0
M  V30 8179 O 767.274 -0.648196 -1.83063 0
M  V30 8180 C 764.404 -1.54279 -3.11152 0
M  V30 8181 C 763.358 -2.67893 -3.33792 0
M  V30 8182 C 762.684 -2.499 -4.72709 0
M  V30 8183 C 763.984 -4.0988 -3.23722 0
M  V30 8184 H 765.678 -2.51175 -1.62947 0
M  V30 8185 H 763.224 -1.20884 -0.782504 0
M  V30 8186 H 765.177 -1.6111 -3.89386 0
M  V30 8187 H 763.901 -0.569627 -3.21594 0
M  V30 8188 H 762.56 -2.60495 -2.57949 0
M  V30 8189 H 762.208 -1.50715 -4.79889 0
M  V30 8190 H 761.908 -3.26091 -4.88813 0
M  V30 8191 H 763.432 -2.5859 -5.5314 0
M  V30 8192 H 764.846 -4.18503 -3.91826 0
M  V30 8193 H 763.243 -4.86487 -3.51355 0
M  V30 8194 H 764.313 -4.31553 -2.21111 0
M  V30 8195 N 765.656 0.84705 -1.32902 0
M  V30 8196 C 766.904 1.5986 -1.2365 0
M  V30 8197 C 767.225 1.93974 0.199789 0
M  V30 8198 O 766.495 1.60273 1.12648 0
M  V30 8199 H 765.075 0.592696 -0.454665 0
M  V30 8200 H 767.737 1.01278 -1.66519 0
M  V30 8201 H 766.833 2.53218 -1.82448 0
M  V30 8202 N 767.134 1.16236 1.06428 0
M  V30 8203 C 768.383 0.937523 1.78587 0
M  V30 8204 C 768.696 -0.536 1.88113 0
M  V30 8205 O 769.902 -0.878697 2.56887 0
M  V30 8206 C 768.358 1.62808 3.2097 0
M  V30 8207 C 767.966 3.13927 3.19615 0
M  V30 8208 C 769.71 1.48515 3.97673 0
M  V30 8209 C 767.617 3.75727 4.56709 0
M  V30 8210 H 766.547 0.347125 0.669343 0
M  V30 8211 H 769.198 1.39353 1.19385 0
M  V30 8212 H 767.58 1.09977 3.80422 0
M  V30 8213 H 768.754 3.7359 2.69753 0
M  V30 8214 H 767.069 3.28089 2.56411 0
M  V30 8215 H 769.666 1.92069 4.99013 0
M  V30 8216 H 770.009 0.433913 4.14032 0
M  V30 8217 H 770.542 1.98494 3.44739 0
M  V30 8218 H 767.281 4.80793 4.45554 0
M  V30 8219 H 766.801 3.20849 5.0677 0
M  V30 8220 H 768.48 3.77203 5.25668 0
M  V30 8221 N 768.612 -1.24939 0.960631 0
M  V30 8222 C 769.562 -2.23388 0.456266 0
M  V30 8223 C 770.546 -1.54249 -0.45782 0
M  V30 8224 O 771.738 -1.7461 -0.289894 0
M  V30 8225 C 768.867 -3.42321 -0.259024 0
M  V30 8226 C 767.953 -4.18718 0.673478 0
M  V30 8227 N 768.344 -4.72394 1.8077 0
M  V30 8228 C 766.642 -4.43378 0.482859 0
M  V30 8229 C 767.343 -5.30316 2.3904 0
M  V30 8230 N 766.319 -5.17109 1.67629 0
M  V30 8231 H 770.121 -2.62499 1.32179 0
M  V30 8232 H 767.635 -1.40245 0.818851 0
M  V30 8233 H 769.632 -4.11997 -0.637527 0
M  V30 8234 H 768.292 -3.04732 -1.12108 0
M  V30 8235 H 769.303 -4.69345 2.18942 0
M  V30 8236 H 765.98 -4.16147 -0.335821 0
M  V30 8237 H 767.37 -5.82594 3.34715 0
M  V30 8238 N 770.09 -0.729906 -1.39679 0
M  V30 8239 C 771.338 -0.275077 -2.00219 0
M  V30 8240 C 771.659 1.1401 -1.58199 0
M  V30 8241 O 770.929 1.77546 -0.827904 0
M  V30 8242 H 769.509 -0.0987127 -0.740449 0
M  V30 8243 H 772.171 -0.93873 -1.70804 0
M  V30 8244 H 771.267 -0.319446 -3.10461 0
M  V30 8245 N 771.568 1.50203 -0.477153 0
M  V30 8246 C 772.798 2.0647 0.0731427 0
M  V30 8247 C 773.206 1.3405 1.33518 0
M  V30 8248 O 772.549 0.405164 1.79176 0
M  V30 8249 C 772.611 3.57025 0.421121 0
M  V30 8250 C 772.275 4.50973 -0.739765 0
M  V30 8251 C 773.272 4.939 -1.62353 0
M  V30 8252 C 770.957 4.93581 -0.93181 0
M  V30 8253 C 772.951 5.78149 -2.6837 0
M  V30 8254 C 770.638 5.77612 -1.99519 0
M  V30 8255 C 771.636 6.19798 -2.86949 0
M  V30 8256 O 771.324 7.02152 -3.91456 0
M  V30 8257 H 771.056 0.675969 -0.00648243 0
M  V30 8258 H 773.61 1.94278 -0.66673 0
M  V30 8259 H 771.84 3.67141 1.21426 0
M  V30 8260 H 773.529 3.95632 0.907213 0
M  V30 8261 H 774.295 4.61646 -1.48687 0
M  V30 8262 H 770.174 4.60262 -0.260739 0
M  V30 8263 H 773.718 6.10997 -3.36643 0
M  V30 8264 H 769.615 6.09279 -2.13189 0
M  V30 8265 H 770.383 7.20414 -3.88518 0
M  V30 8266 N 773.046 0.209999 1.56195 0
M  V30 8267 C 774.009 -0.691232 2.18528 0
M  V30 8268 C 775.009 -1.13013 1.14388 0
M  V30 8269 O 776.199 -1.04081 1.39688 0
M  V30 8270 C 773.331 -1.94551 2.79934 0
M  V30 8271 H 774.524 -0.147953 2.99535 0
M  V30 8272 H 772.077 -0.0396243 1.5625 0
M  V30 8273 H 772.812 -2.53094 2.02766 0
M  V30 8274 H 772.597 -1.63938 3.56184 0
M  V30 8275 H 774.087 -2.58785 3.2775 0
M  V30 8276 N 774.524 -1.57472 -0.0634922 0
M  V30 8277 C 775.771 -1.87654 -0.761066 0
M  V30 8278 C 776.099 -0.802847 -1.77157 0
M  V30 8279 O 775.354 0.200244 -1.94673 0
M  V30 8280 C 775.653 -3.24521 -1.49736 0
M  V30 8281 C 775.319 -4.46532 -0.626065 0
M  V30 8282 C 773.981 -4.7965 -0.385978 0
M  V30 8283 C 776.333 -5.21195 -0.0224001 0
M  V30 8284 C 773.661 -5.84837 0.467118 0
M  V30 8285 C 776.013 -6.27286 0.818198 0
M  V30 8286 C 774.677 -6.58899 1.06808 0
M  V30 8287 H 773.947 -0.686675 -0.278494 0
M  V30 8288 H 776.594 -1.91488 -0.0216348 0
M  V30 8289 H 774.899 -3.16516 -2.30921 0
M  V30 8290 H 776.596 -3.45111 -2.04204 0
M  V30 8291 H 773.186 -4.20618 -0.823325 0
M  V30 8292 H 777.37 -4.95917 -0.194985 0
M  V30 8293 H 772.626 -6.07725 0.669375 0
M  V30 8294 H 776.8 -6.84298 1.29265 0
M  V30 8295 H 774.427 -7.40233 1.73088 0
M  V30 8296 N 776.003 0.335068 -1.53997 0
M  V30 8297 C 776.966 1.39481 -1.81872 0
M  V30 8298 C 777.966 1.4524 -0.690078 0
M  V30 8299 O 779.156 1.45467 -0.958377 0
M  V30 8300 C 776.288 2.78329 -1.9684 0
M  V30 8301 H 777.481 1.16024 -2.76547 0
M  V30 8302 H 775.034 0.569926 -1.45539 0
M  V30 8303 H 775.769 3.07058 -1.04337 0
M  V30 8304 H 775.554 2.75544 -2.78958 0
M  V30 8305 H 777.044 3.55016 -2.19894 0
M  V30 8306 N 777.481 1.45874 0.596531 0
M  V30 8307 C 778.73 1.49737 1.35135 0
M  V30 8308 C 779.043 0.147755 1.95041 0
M  V30 8309 O 780.249 0.0640984 2.71424 0
M  V30 8310 C 778.705 2.6378 2.44843 0
M  V30 8311 C 778.313 4.05102 1.91301 0
M  V30 8312 C 780.057 2.769 3.21755 0
M  V30 8313 C 777.964 5.10508 2.98557 0
M  V30 8314 H 776.894 0.557219 0.507959 0
M  V30 8315 H 779.545 1.72046 0.638147 0
M  V30 8316 H 777.927 2.34774 3.189 0
M  V30 8317 H 779.101 4.43836 1.2388 0
M  V30 8318 H 777.416 3.96528 1.271 0
M  V30 8319 H 780.013 3.52819 4.01775 0
M  V30 8320 H 780.356 1.83924 3.73467 0
M  V30 8321 H 780.889 3.05485 2.54802 0
M  V30 8322 H 777.628 6.0523 2.51749 0
M  V30 8323 H 777.148 4.76332 3.6451 0
M  V30 8324 H 778.827 5.35745 3.62748 0
M  V30 8325 N 778.959 -0.83999 1.33349 0
M  V30 8326 C 780.187 -1.62728 1.27778 0
M  V30 8327 C 780.602 -1.88191 -0.151505 0
M  V30 8328 O 779.959 -1.46128 -1.09329 0
M  V30 8329 C 780.01 -2.97813 2.04913 0
M  V30 8330 O 779.731 -2.73469 3.42266 0
M  V30 8331 C 781.232 -3.92245 2.0654 0
M  V30 8332 H 778.452 -0.506374 0.440257 0
M  V30 8333 H 780.996 -1.04637 1.75703 0
M  V30 8334 H 779.151 -3.52509 1.60674 0
M  V30 8335 H 779.565 -3.59483 3.81932 0
M  V30 8336 H 781.039 -4.84249 2.64966 0
M  V30 8337 H 781.516 -4.26332 1.05537 0
M  V30 8338 H 782.122 -3.43487 2.50793 0
M  V30 8339 N 780.437 -1.16799 -1.0581 0
M  V30 8340 C 781.385 -0.875111 -2.1551 0
M  V30 8341 C 782.379 0.157781 -1.68664 0
M  V30 8342 O 783.585 0.011297 -1.79996 0
M  V30 8343 H 779.96 -0.26542 -0.703602 0
M  V30 8344 H 781.931 -1.8076 -2.37421 0
M  V30 8345 C 780.68 -0.39802 -3.45414 0
M  V30 8346 H 780.003 -1.18425 -3.81858 0
M  V30 8347 H 781.443 -0.231913 -4.23365 0
M  V30 8348 C 779.902 0.88327 -3.25115 0
M  V30 8349 O 780.432 1.95145 -3.51114 0
M  V30 8350 N 778.638 0.828961 -2.78526 0
M  V30 8351 H 778.185 -0.0405029 -2.57568 0
M  V30 8352 H 778.143 1.68673 -2.65324 0
M  V30 8353 N 781.915 1.24427 -0.967243 0
M  V30 8354 C 782.863 2.27403 -0.488927 0
M  V30 8355 C 783.857 1.63388 0.447302 0
M  V30 8356 O 785.063 1.77085 0.322643 0
M  V30 8357 H 781.438 0.738921 -0.139643 0
M  V30 8358 H 783.409 2.65122 -1.36942 0
M  V30 8359 C 782.158 3.4709 0.205787 0
M  V30 8360 H 781.481 3.96591 -0.50551 0
M  V30 8361 H 782.921 4.2099 0.504296 0
M  V30 8362 C 781.38 3.04923 1.43261 0
M  V30 8363 O 781.91 3.12043 2.52967 0
M  V30 8364 N 780.116 2.59976 1.29849 0
M  V30 8365 H 779.663 2.54382 0.405876 0
M  V30 8366 H 779.621 2.32128 2.12047 0
M  V30 8367 N 783.393 0.737304 1.3929 0
M  V30 8368 C 784.641 0.285691 2.00071 0
M  V30 8369 C 784.962 -1.13169 1.58801 0
M  V30 8370 O 784.232 -1.77104 0.837308 0
M  V30 8371 H 782.812 0.102638 0.739915 0
M  V30 8372 H 785.474 0.947775 1.70303 0
M  V30 8373 H 784.57 0.335906 3.10287 0
M  V30 8374 N 784.871 -1.49948 0.485112 0
M  V30 8375 C 786.101 -2.06506 -0.0621921 0
M  V30 8376 C 786.509 -1.34756 -1.32806 0
M  V30 8377 O 785.852 -0.41466 -1.78959 0
M  V30 8378 C 785.914 -3.57243 -0.402182 0
M  V30 8379 C 785.578 -4.50574 0.763671 0
M  V30 8380 C 786.575 -4.93032 1.6497 0
M  V30 8381 C 784.26 -4.9308 0.957973 0
M  V30 8382 C 786.254 -5.76718 2.71432 0
M  V30 8383 C 783.941 -5.76546 2.0258 0
M  V30 8384 C 784.939 -6.18267 2.90232 0
M  V30 8385 O 784.627 -7.00066 3.95174 0
M  V30 8386 H 784.359 -0.675925 0.0100672 0
M  V30 8387 H 786.913 -1.93922 0.677023 0
M  V30 8388 H 785.143 -3.6778 -1.19478 0
M  V30 8389 H 786.832 -3.96107 -0.886219 0
M  V30 8390 H 787.598 -4.60851 1.51134 0
M  V30 8391 H 783.477 -4.60117 0.285144 0
M  V30 8392 H 787.021 -6.09203 3.39878 0
M  V30 8393 H 782.918 -6.0814 2.16417 0
M  V30 8394 H 783.686 -7.18343 3.92333 0
M  V30 8395 N 786.349 -0.21828 -1.56081 0
M  V30 8396 C 787.598 0.414644 -1.97392 0
M  V30 8397 C 787.911 1.61132 -1.10887 0
M  V30 8398 O 789.117 2.31355 -1.42082 0
M  V30 8399 C 787.573 0.789099 -3.51143 0
M  V30 8400 C 787.181 -0.384578 -4.46346 0
M  V30 8401 C 788.925 1.38781 -4.01173 0
M  V30 8402 C 786.832 0.0121288 -5.91399 0
M  V30 8403 H 785.762 0.158691 -0.737111 0
M  V30 8404 H 788.413 -0.313974 -1.80794 0
M  V30 8405 H 786.795 1.57505 -3.6333 0
M  V30 8406 H 787.969 -1.16212 -4.45905 0
M  V30 8407 H 786.284 -0.896306 -4.06639 0
M  V30 8408 H 788.881 1.69746 -5.07041 0
M  V30 8409 H 789.224 2.30245 -3.46833 0
M  V30 8410 H 789.757 0.665364 -3.92196 0
M  V30 8411 H 786.496 -0.868917 -6.49715 0
M  V30 8412 H 786.016 0.754053 -5.95041 0
M  V30 8413 H 787.695 0.439949 -6.45502 0
M  V30 8414 N 787.827 1.57504 0.0551401 0
M  V30 8415 C 788.757 2.07864 1.06372 0
M  V30 8416 C 789.738 0.975565 1.39344 0
M  V30 8417 O 790.923 1.24929 1.48682 0
M  V30 8418 C 788.053 2.53643 2.3724 0
M  V30 8419 C 787.007 3.67978 2.18578 0
M  V30 8420 C 786.333 3.9987 3.54976 0
M  V30 8421 C 787.633 4.97405 1.59329 0
M  V30 8422 H 789.327 2.92379 0.644595 0
M  V30 8423 H 786.873 1.40654 0.308619 0
M  V30 8424 H 788.826 2.8749 3.08103 0
M  V30 8425 H 787.55 1.66177 2.81163 0
M  V30 8426 H 786.209 3.3444 1.50152 0
M  V30 8427 H 785.857 3.0951 3.965 0
M  V30 8428 H 785.557 4.76867 3.43324 0
M  V30 8429 H 787.081 4.36228 4.27244 0
M  V30 8430 H 788.495 5.29375 2.20078 0
M  V30 8431 H 786.892 5.78837 1.58327 0
M  V30 8432 H 787.962 4.81697 0.55638 0
M  V30 8433 N 789.305 -0.326896 1.54172 0
M  V30 8434 C 790.533 -1.08486 1.76177 0
M  V30 8435 C 790.948 -1.81815 0.508788 0
M  V30 8436 O 790.305 -1.74924 -0.520362 0
M  V30 8437 C 790.356 -2.08552 2.95276 0
M  V30 8438 O 790.077 -1.38202 4.15731 0
M  V30 8439 C 791.578 -2.96593 3.29466 0
M  V30 8440 H 788.798 -0.322835 0.588233 0
M  V30 8441 H 791.342 -0.374036 2.0105 0
M  V30 8442 H 789.497 -2.75174 2.72687 0
M  V30 8443 H 789.911 -2.05186 4.827 0
M  V30 8444 H 791.385 -3.62708 4.16109 0
M  V30 8445 H 791.862 -3.63511 2.46487 0
M  V30 8446 H 792.468 -2.35537 3.54122 0
M  V30 8447 N 790.784 -1.46188 -0.588786 0
M  V30 8448 C 791.734 -1.5271 -1.69303 0
M  V30 8449 C 792.718 -0.388578 -1.56137 0
M  V30 8450 O 793.91 -0.636616 -1.65155 0
M  V30 8451 C 791.039 -1.51457 -3.08084 0
M  V30 8452 C 790.125 -2.70581 -3.26568 0
M  V30 8453 N 790.516 -3.9555 -3.15236 0
M  V30 8454 C 788.814 -2.66676 -3.57491 0
M  V30 8455 C 789.515 -4.75157 -3.35561 0
M  V30 8456 N 788.491 -4.06927 -3.60432 0
M  V30 8457 H 792.293 -2.47136 -1.59063 0
M  V30 8458 H 789.807 -1.41743 -0.792632 0
M  V30 8459 H 791.804 -1.54216 -3.87328 0
M  V30 8460 H 790.464 -0.581036 -3.19459 0
M  V30 8461 H 791.475 -4.2689 -2.93232 0
M  V30 8462 H 788.152 -1.82317 -3.75588 0
M  V30 8463 H 789.542 -5.84126 -3.32034 0
M  V30 8464 N 792.262 0.832906 -1.33792 0
M  V30 8465 C 793.673 1.40489 -1.22963 0
M  V30 8466 C 794.024 1.95633 0.149026 0
M  V30 8467 O 793.149 1.8928 1.04891 0
M  V30 8468 C 793.744 2.55387 -2.22627 0
M  V30 8469 C 792.303 3.08522 -2.15618 0
M  V30 8470 C 791.45 1.81347 -2.09782 0
M  V30 8471 H 794.401 0.638156 -1.45304 0
M  V30 8472 H 794.422 3.33193 -1.83746 0
M  V30 8473 H 793.934 2.15222 -3.22957 0
M  V30 8474 H 792.035 3.53217 -1.18611 0
M  V30 8475 H 792.148 3.6829 -3.0643 0
M  V30 8476 H 790.512 2.01839 -1.55349 0
M  V30 8477 H 791.295 1.43369 -3.1193 0
M  V30 8478 N 793.74 1.17359 1.05189 0
M  V30 8479 C 794.65 0.904984 2.16442 0
M  V30 8480 C 795.666 -0.12686 1.73537 0
M  V30 8481 O 796.842 0.0524127 2.01332 0
M  V30 8482 C 793.907 0.422019 3.44122 0
M  V30 8483 C 792.968 1.52045 4.01473 0
M  V30 8484 C 792.201 1.06044 5.23059 0
M  V30 8485 O 792.424 -0.0854023 5.70336 0
M  V30 8486 O 791.358 1.85349 5.72651 0
M  V30 8487 H 795.184 1.8356 2.41949 0
M  V30 8488 H 792.769 0.95447 1.14936 0
M  V30 8489 H 794.651 0.160208 4.21095 0
M  V30 8490 H 793.326 -0.480444 3.20115 0
M  V30 8491 H 792.233 1.83615 3.25939 0
M  V30 8492 H 793.566 2.39863 4.29798 0
M  V30 8493 N 795.218 -1.23913 0.973828 0
M  V30 8494 C 796.148 -2.27453 0.527969 0
M  V30 8495 C 797.129 -1.6443 -0.435513 0
M  V30 8496 O 798.314 -1.9137 -0.330306 0
M  V30 8497 C 795.444 -3.4685 -0.176757 0
M  V30 8498 C 794.398 -4.22181 0.703352 0
M  V30 8499 C 793.724 -5.34534 -0.133215 0
M  V30 8500 C 795.024 -4.82865 1.99096 0
M  V30 8501 H 796.718 -2.65 1.3934 0
M  V30 8502 H 794.264 -1.27388 0.671446 0
M  V30 8503 H 796.217 -4.18424 -0.499934 0
M  V30 8504 H 794.941 -3.08346 -1.07659 0
M  V30 8505 H 793.6 -3.52416 1.00989 0
M  V30 8506 H 793.248 -4.92271 -1.03338 0
M  V30 8507 H 792.948 -5.85855 0.452494 0
M  V30 8508 H 794.472 -6.08933 -0.450924 0
M  V30 8509 H 795.886 -5.46481 1.73297 0
M  V30 8510 H 794.283 -5.44444 2.52389 0
M  V30 8511 H 795.353 -4.03977 2.68199 0
M  V30 8512 N 796.696 -0.74468 -1.38897 0
M  V30 8513 C 798.112 -0.421302 -1.53939 0
M  V30 8514 C 798.312 1.06668 -1.70951 0
M  V30 8515 O 797.368 1.85278 -1.71547 0
M  V30 8516 C 798.681 -1.21278 -2.75159 0
M  V30 8517 C 800.229 -1.20196 -2.89001 0
M  V30 8518 C 800.704 -1.97621 -4.13171 0
M  V30 8519 N 802.195 -1.94836 -4.2023 0
M  V30 8520 C 802.93 -2.51545 -5.15279 0
M  V30 8521 N 802.426 -3.1693 -6.16058 0
M  V30 8522 N 804.219 -2.41524 -5.07565 0
M  V30 8523 H 796.37 -1.70914 -1.26103 0
M  V30 8524 H 798.633 -0.724058 -0.611919 0
M  V30 8525 H 798.339 -2.26609 -2.68963 0
M  V30 8526 H 798.213 -0.823677 -3.68097 0
M  V30 8527 H 800.6 -0.156742 -2.94683 0
M  V30 8528 H 800.681 -1.63051 -1.97099 0
M  V30 8529 H 800.325 -3.02149 -4.0825 0
M  V30 8530 H 800.255 -1.52166 -5.04136 0
M  V30 8531 H 802.746 -1.4721 -3.48048 0
M  V30 8532 H 803.059 -3.57644 -6.85062 0
M  V30 8533 H 801.404 -3.21023 -6.16417 0
M  V30 8534 H 804.595 -1.90077 -4.27771 0
M  V30 8535 H 804.768 -2.86016 -5.81462 0
M  V30 8536 N 798.174 1.49689 -0.493057 0
M  V30 8537 C 799.104 2.31826 0.279073 0
M  V30 8538 C 800.085 1.39733 0.969987 0
M  V30 8539 O 801.27 1.68646 0.962925 0
M  V30 8540 C 798.4 3.20046 1.34862 0
M  V30 8541 C 797.354 4.20869 0.77805 0
M  V30 8542 C 796.68 4.97971 1.94753 0
M  V30 8543 C 797.98 5.21813 -0.225543 0
M  V30 8544 H 799.674 2.96627 -0.406512 0
M  V30 8545 H 797.22 1.42647 -0.196943 0
M  V30 8546 H 799.173 3.76315 1.89645 0
M  V30 8547 H 797.897 2.53172 2.06328 0
M  V30 8548 H 796.556 3.65733 0.252036 0
M  V30 8549 H 796.204 4.27552 2.64969 0
M  V30 8550 H 795.904 5.66186 1.57187 0
M  V30 8551 H 797.428 5.57082 2.49984 0
M  V30 8552 H 798.842 5.72823 0.233864 0
M  V30 8553 H 797.239 5.97872 -0.516622 0
M  V30 8554 H 798.309 4.71209 -1.14412 0
M  V30 8555 N 799.652 0.226554 1.55963 0
M  V30 8556 C 800.582 -0.676079 2.23498 0
M  V30 8557 C 801.563 -1.19718 1.20837 0
M  V30 8558 O 802.748 -1.24027 1.49436 0
M  V30 8559 C 799.878 -1.88217 2.91876 0
M  V30 8560 C 798.832 -1.4947 4.01052 0
M  V30 8561 C 798.158 -2.77997 4.56751 0
M  V30 8562 C 799.458 -0.680951 5.17842 0
M  V30 8563 H 801.152 -0.112989 2.99187 0
M  V30 8564 H 798.698 -0.0529046 1.43903 0
M  V30 8565 H 800.651 -2.51911 3.37815 0
M  V30 8566 H 799.375 -2.47031 2.13643 0
M  V30 8567 H 798.034 -0.881199 3.55852 0
M  V30 8568 H 797.682 -3.34966 3.75243 0
M  V30 8569 H 797.382 -2.52803 5.30438 0
M  V30 8570 H 798.906 -3.42625 5.05411 0
M  V30 8571 H 800.32 -1.22171 5.60131 0
M  V30 8572 H 798.717 -0.525898 5.97791 0
M  V30 8573 H 799.787 0.311346 4.83899 0
M  V30 8574 N 801.13 -1.57531 -0.0467866 0
M  V30 8575 C 802.36 -1.92417 -0.752279 0
M  V30 8576 C 802.768 -0.823134 -1.70356 0
M  V30 8577 O 802.111 0.210598 -1.82489 0
M  V30 8578 C 802.173 -3.22974 -1.57887 0
M  V30 8579 C 801.837 -4.50045 -0.794285 0
M  V30 8580 C 802.834 -5.19799 -0.102368 0
M  V30 8581 C 800.519 -4.96608 -0.754061 0
M  V30 8582 C 802.513 -6.34385 0.619267 0
M  V30 8583 C 800.2 -6.11093 -0.0286682 0
M  V30 8584 C 801.198 -6.79835 0.656772 0
M  V30 8585 O 800.886 -7.92133 1.37042 0
M  V30 8586 H 800.618 -0.640029 -0.217576 0
M  V30 8587 H 803.172 -2.05395 -0.0137438 0
M  V30 8588 H 801.402 -3.06273 -2.3608 0
M  V30 8589 H 803.091 -3.43319 -2.16533 0
M  V30 8590 H 803.857 -4.8484 -0.124589 0
M  V30 8591 H 799.736 -4.42958 -1.27706 0
M  V30 8592 H 803.28 -6.87975 1.15483 0
M  V30 8593 H 799.177 -6.455 -0.00446214 0
M  V30 8594 H 799.945 -8.08394 1.28227 0
M  V30 8595 N 802.608 0.318715 -1.54344 0
M  V30 8596 C 803.518 1.41535 -1.87097 0
M  V30 8597 C 804.534 1.56361 -0.763353 0
M  V30 8598 O 805.71 1.71365 -1.05811 0
M  V30 8599 C 802.775 2.76178 -2.09587 0
M  V30 8600 C 801.836 2.70486 -3.3337 0
M  V30 8601 C 801.069 3.98708 -3.54778 0
M  V30 8602 O 801.292 4.9721 -2.79532 0
M  V30 8603 O 800.226 4.01674 -4.48266 0
M  V30 8604 H 804.052 1.16764 -2.80357 0
M  V30 8605 H 801.637 0.51318 -1.4031 0
M  V30 8606 H 803.519 3.55873 -2.25682 0
M  V30 8607 H 802.194 3.00829 -1.19514 0
M  V30 8608 H 801.101 1.89325 -3.22656 0
M  V30 8609 H 802.434 2.50789 -4.23516 0
M  V30 8610 N 804.086 1.46499 0.581025 0
M  V30 8611 C 804.996 1.59778 1.71779 0
M  V30 8612 C 806.012 0.481223 1.67213 0
M  V30 8613 O 807.188 0.74557 1.87091 0
M  V30 8614 C 804.253 1.58626 3.08283 0
M  V30 8615 C 803.314 2.81527 3.241 0
M  V30 8616 C 802.547 2.80421 4.54092 0
M  V30 8617 O 802.77 1.89262 5.38085 0
M  V30 8618 O 801.704 3.71984 4.73193 0
M  V30 8619 H 805.53 2.55918 1.63523 0
M  V30 8620 H 803.115 1.29311 0.748267 0
M  V30 8621 H 804.997 1.60686 3.89561 0
M  V30 8622 H 803.672 0.656467 3.16973 0
M  V30 8623 H 802.579 2.85021 2.42309 0
M  V30 8624 H 803.912 3.73721 3.20302 0
M  V30 8625 N 805.565 -0.825799 1.34232 0
M  V30 8626 C 806.813 -1.57873 1.26177 0
M  V30 8627 C 807.134 -1.94267 -0.168904 0
M  V30 8628 O 806.404 -1.62045 -1.10084 0
M  V30 8629 H 804.984 -0.585388 0.464037 0
M  V30 8630 H 807.646 -0.986163 1.6811 0
M  V30 8631 H 806.742 -2.50283 1.86453 0
M  V30 8632 N 807.043 -1.17915 -1.04565 0
M  V30 8633 C 807.99 -0.901605 -2.12461 0
M  V30 8634 C 808.96 0.157011 -1.65356 0
M  V30 8635 O 810.145 0.0184494 -1.90791 0
M  V30 8636 C 807.285 -0.42796 -3.42436 0
M  V30 8637 C 806.398 -1.55142 -4.03181 0
M  V30 8638 C 805.533 -1.03101 -5.21098 0
M  V30 8639 C 804.572 -2.1295 -5.73863 0
M  V30 8640 N 803.709 -1.62339 -6.83074 0
M  V30 8641 H 808.549 -1.82551 -2.3554 0
M  V30 8642 H 806.086 -0.910389 -1.15544 0
M  V30 8643 H 808.044 -0.134859 -4.16982 0
M  V30 8644 H 806.674 0.458977 -3.1952 0
M  V30 8645 H 805.726 -1.96011 -3.26012 0
M  V30 8646 H 807.038 -2.37968 -4.38375 0
M  V30 8647 H 806.192 -0.692132 -6.02739 0
M  V30 8648 H 804.931 -0.17227 -4.87396 0
M  V30 8649 H 803.936 -2.47687 -4.90847 0
M  V30 8650 H 805.161 -2.9925 -6.09611 0
M  V30 8651 H 803.107 -0.787464 -6.51256 0
M  V30 8652 H 803.024 -2.38767 -7.17305 0
M  V30 8653 H 804.292 -1.31363 -7.68351 0
M  V30 8654 N 808.521 1.23394 -0.980386 0
M  V30 8655 C 809.468 2.24859 -0.520298 0
M  V30 8656 C 810.438 1.60144 0.440821 0
M  V30 8657 O 811.623 1.87593 0.348369 0
M  V30 8658 C 808.763 3.44675 0.171145 0
M  V30 8659 C 807.876 4.23947 -0.830233 0
M  V30 8660 C 807.011 5.31079 -0.113597 0
M  V30 8661 C 806.05 6.02058 -1.10419 0
M  V30 8662 N 805.187 7.00862 -0.416709 0
M  V30 8663 H 810.027 2.63579 -1.39032 0
M  V30 8664 H 807.564 1.29556 -0.696682 0
M  V30 8665 H 809.522 4.13024 0.588838 0
M  V30 8666 H 808.152 3.06755 1.00504 0
M  V30 8667 H 807.204 3.55016 -1.36631 0
M  V30 8668 H 808.516 4.72945 -1.58508 0
M  V30 8669 H 807.67 6.05622 0.36146 0
M  V30 8670 H 806.409 4.83022 0.673854 0
M  V30 8671 H 805.414 5.26307 -1.59 0
M  V30 8672 H 806.639 6.52203 -1.8923 0
M  V30 8673 H 804.585 6.55057 0.351535 0
M  V30 8674 H 804.502 7.47804 -1.11021 0
M  V30 8675 H 805.77 7.79492 0.0359606 0
M  V30 8676 N 809.999 0.752036 1.385 0
M  V30 8677 C 811.415 0.42946 1.53713 0
M  V30 8678 C 811.615 -1.0576 1.71514 0
M  V30 8679 O 810.671 -1.84366 1.72527 0
M  V30 8680 C 811.984 1.22735 2.74511 0
M  V30 8681 C 813.532 1.21727 2.8836 0
M  V30 8682 C 814.007 1.99809 4.12117 0
M  V30 8683 N 815.498 1.97062 4.19191 0
M  V30 8684 C 816.233 2.54274 5.13938 0
M  V30 8685 N 815.729 3.20193 6.14368 0
M  V30 8686 N 817.522 2.44212 5.06277 0
M  V30 8687 H 809.673 1.71581 1.25195 0
M  V30 8688 H 811.936 0.727293 0.60807 0
M  V30 8689 H 811.642 2.28032 2.67758 0
M  V30 8690 H 811.516 0.843186 3.67655 0
M  V30 8691 H 813.903 0.172367 2.94596 0
M  V30 8692 H 813.984 1.64094 1.96232 0
M  V30 8693 H 813.628 3.0431 4.06642 0
M  V30 8694 H 813.558 1.54837 5.03322 0
M  V30 8695 H 816.049 1.49054 3.47263 0
M  V30 8696 H 816.362 3.61272 6.83156 0
M  V30 8697 H 814.707 3.24287 6.14705 0
M  V30 8698 H 817.898 1.92343 4.26757 0
M  V30 8699 H 818.071 2.89096 5.79937 0
M  V30 8700 N 811.477 -1.49425 0.500989 0
M  V30 8701 C 812.893 -1.58826 0.156951 0
M  V30 8702 C 813.093 -1.50622 -1.33848 0
M  V30 8703 O 812.149 -1.38016 -2.11442 0
M  V30 8704 C 813.462 -2.91611 0.73374 0
M  V30 8705 C 815.01 -3.05076 0.699846 0
M  V30 8706 C 815.485 -4.40479 1.2547 0
M  V30 8707 N 816.976 -4.4697 1.2154 0
M  V30 8708 C 817.711 -5.50189 1.6149 0
M  V30 8709 N 817.207 -6.60512 2.09034 0
M  V30 8710 N 819 -5.40903 1.52907 0
M  V30 8711 H 811.151 -1.53001 1.47324 0
M  V30 8712 H 813.414 -0.724765 0.61108 0
M  V30 8713 H 813.12 -3.03182 1.78251 0
M  V30 8714 H 812.994 -3.767 0.19417 0
M  V30 8715 H 815.381 -2.93134 -0.340085 0
M  V30 8716 H 815.462 -2.2167 1.27656 0
M  V30 8717 H 815.106 -4.53172 2.29341 0
M  V30 8718 H 815.036 -5.22524 0.653921 0
M  V30 8719 H 817.527 -3.67819 0.867043 0
M  V30 8720 H 817.84 -7.35372 2.37588 0
M  V30 8721 H 816.185 -6.61553 2.13008 0
M  V30 8722 H 819.376 -4.53606 1.15583 0
M  V30 8723 H 819.549 -6.21219 1.84365 0
M  V30 8724 N 812.955 -0.234822 -1.55841 0
M  V30 8725 C 813.902 0.6698 -2.20867 0
M  V30 8726 C 814.872 1.18042 -1.16856 0
M  V30 8727 O 816.057 1.23709 -1.45261 0
M  V30 8728 C 813.197 1.86646 -2.90271 0
M  V30 8729 C 812.31 1.39351 -4.08908 0
M  V30 8730 C 811.445 2.54878 -4.66059 0
M  V30 8731 C 810.484 2.04384 -5.76969 0
M  V30 8732 N 809.621 3.13233 -6.28355 0
M  V30 8733 H 814.461 0.10858 -2.97802 0
M  V30 8734 H 811.998 0.041836 -1.4704 0
M  V30 8735 H 813.956 2.56926 -3.28702 0
M  V30 8736 H 812.586 2.40035 -2.15831 0
M  V30 8737 H 811.638 0.585173 -3.75872 0
M  V30 8738 H 812.95 0.983356 -4.89011 0
M  V30 8739 H 812.104 3.33219 -5.07001 0
M  V30 8740 H 810.843 2.99188 -3.85146 0
M  V30 8741 H 809.848 1.24509 -5.35516 0
M  V30 8742 H 811.073 1.61057 -6.59725 0
M  V30 8743 H 809.019 3.57 -5.50352 0
M  V30 8744 H 808.936 2.76511 -7.03618 0
M  V30 8745 H 810.204 3.91669 -6.73955 0
M  V30 8746 N 814.433 1.57553 0.0384317 0
M  V30 8747 C 815.844 1.77258 0.586211 0
M  V30 8748 C 816.195 0.864706 1.76117 0
M  V30 8749 O 815.32 0.057141 2.16325 0
M  V30 8750 C 815.915 3.21453 1.07021 0
M  V30 8751 C 814.474 3.42387 1.56358 0
M  V30 8752 C 813.621 2.72801 0.497508 0
M  V30 8753 H 816.572 1.57585 -0.187796 0
M  V30 8754 H 816.593 3.27451 1.93794 0
M  V30 8755 H 816.105 3.87505 0.214851 0
M  V30 8756 H 814.206 2.81497 2.44111 0
M  V30 8757 H 814.319 4.50968 1.61754 0
M  V30 8758 H 812.683 2.36305 0.95038 0
M  V30 8759 H 813.466 3.41529 -0.348234 0
M  V30 8760 N 815.911 -0.310526 1.54511 0
M  V30 8761 C 816.859 -1.40272 1.85544 0
M  V30 8762 C 817.853 -1.52941 0.728377 0
M  V30 8763 O 819.059 -1.55172 0.912234 0
M  V30 8764 H 815.434 -0.468355 0.588343 0
M  V30 8765 H 817.405 -1.11329 2.76855 0
M  V30 8766 C 816.154 -2.76279 2.11105 0
M  V30 8767 H 815.477 -2.67308 2.97298 0
M  V30 8768 H 816.917 -3.51736 2.36765 0
M  V30 8769 C 815.376 -3.24472 0.906618 0
M  V30 8770 O 815.906 -4.01514 0.122358 0
M  V30 8771 N 814.112 -2.81676 0.714632 0
M  V30 8772 H 813.659 -2.19143 1.35404 0
M  V30 8773 H 813.617 -3.14272 -0.089703 0
M  V30 8774 N 817.389 -1.46805 -0.573248 0
M  V30 8775 C 818.619 -1.55965 -1.35494 0
M  V30 8776 C 819.027 -0.203038 -1.88107 0
M  V30 8777 O 818.37 0.81138 -1.6481 0
M  V30 8778 C 818.432 -2.51168 -2.57206 0
M  V30 8779 C 818.096 -3.97211 -2.25993 0
M  V30 8780 C 819.093 -4.86155 -1.84254 0
M  V30 8781 C 816.778 -4.42419 -2.37846 0
M  V30 8782 C 818.772 -6.18323 -1.54776 0
M  V30 8783 C 816.459 -5.74619 -2.0798 0
M  V30 8784 C 817.457 -6.62392 -1.66511 0
M  V30 8785 O 817.145 -7.92137 -1.37016 0
M  V30 8786 H 816.877 -0.529748 -0.419932 0
M  V30 8787 H 819.431 -1.92998 -0.702914 0
M  V30 8788 H 817.661 -2.09171 -3.25245 0
M  V30 8789 H 819.35 -2.50631 -3.19279 0
M  V30 8790 H 820.116 -4.52481 -1.74603 0
M  V30 8791 H 815.995 -3.74319 -2.69085 0
M  V30 8792 H 819.539 -6.8679 -1.22334 0
M  V30 8793 H 815.436 -6.0784 -2.17258 0
M  V30 8794 H 816.204 -8.04492 -1.50782 0
M  V30 8795 N 818.867 0.818669 -1.34668 0
M  V30 8796 C 820.092 1.61193 -1.30505 0
M  V30 8797 C 820.517 1.87734 0.117341 0
M  V30 8798 O 819.875 1.45591 1.08042 0
M  V30 8799 C 819.923 2.92733 -2.1057 0
M  V30 8800 O 819.027 3.85 -1.47813 0
M  V30 8801 H 818.368 0.490085 -0.44801 0
M  V30 8802 H 820.898 1.01701 -1.77534 0
M  V30 8803 H 820.908 3.42262 -2.22082 0
M  V30 8804 H 819.583 2.7274 -3.13984 0
M  V30 8805 H 818.16 3.43525 -1.45069 0
M  V30 8806 N 820.346 1.18468 1.03938 0
M  V30 8807 C 821.571 1.00638 1.81347 0
M  V30 8808 C 821.996 -0.440477 1.8287 0
M  V30 8809 O 821.354 -1.31609 1.24695 0
M  V30 8810 C 821.402 1.5673 3.24759 0
M  V30 8811 O 820.506 0.789517 4.04772 0
M  V30 8812 H 819.847 0.356432 0.560225 0
M  V30 8813 H 822.377 1.57253 1.30891 0
M  V30 8814 H 822.387 1.59496 3.75533 0
M  V30 8815 H 821.062 2.62043 3.22965 0
M  V30 8816 H 819.639 0.834267 3.63448 0
M  V30 8817 N 821.824 -1.22873 0.986916 0
M  V30 8818 C 823.07 -1.91746 0.660401 0
M  V30 8819 C 823.403 -1.76738 -0.804812 0
M  V30 8820 O 822.678 -1.13246 -1.58131 0
M  V30 8821 C 822.961 -3.44156 1.05966 0
M  V30 8822 C 822.814 -3.68242 2.58298 0
M  V30 8823 C 824.133 -4.35874 0.60842 0
M  V30 8824 H 821.252 -0.696347 0.241391 0
M  V30 8825 H 823.894 -1.44867 1.22937 0
M  V30 8826 H 822.044 -3.84213 0.575534 0
M  V30 8827 H 823.716 -3.37626 3.14335 0
M  V30 8828 H 821.959 -3.12728 3.00638 0
M  V30 8829 H 822.63 -4.74956 2.81285 0
M  V30 8830 H 825.106 -4.03299 1.02417 0
M  V30 8831 H 823.982 -5.41201 0.916142 0
M  V30 8832 H 824.243 -4.39364 -0.491086 0
M  V30 8833 N 823.302 -0.75937 -1.38099 0
M  V30 8834 C 824.579 -0.243371 -1.9408 0
M  V30 8835 C 824.959 1.25942 -1.69416 0
M  V30 8836 O 824.307 2.03667 -1.03595 0
M  V30 8837 C 824.517 -0.603328 -3.43745 0
M  V30 8838 C 825.865 -0.566195 -4.20808 0
M  V30 8839 O 826.889 -0.541969 -3.52053 0
M  V30 8840 O 825.748 -0.582261 -5.43389 0
M  V30 8841 H 822.842 -0.0526825 -0.82532 0
M  V30 8842 H 825.388 -0.839884 -1.47459 0
M  V30 8843 H 824.16 -1.64098 -3.55229 0
M  V30 8844 H 823.783 0.0208887 -3.97595 0
M  V30 8845 N 824.78 1.49157 -0.508906 0
M  V30 8846 C 825.71 2.32109 0.254469 0
M  V30 8847 C 826.691 1.40754 0.955111 0
M  V30 8848 O 827.876 1.69658 0.944983 0
M  V30 8849 C 825.006 3.21458 1.3146 0
M  V30 8850 C 823.96 4.2167 0.733368 0
M  V30 8851 C 823.286 5.00009 1.8946 0
M  V30 8852 C 824.586 5.21544 -0.280875 0
M  V30 8853 H 826.28 2.9618 -0.43795 0
M  V30 8854 H 823.826 1.4243 -0.212062 0
M  V30 8855 H 825.779 3.78305 1.85643 0
M  V30 8856 H 824.503 2.55346 2.03632 0
M  V30 8857 H 823.162 3.65979 0.213231 0
M  V30 8858 H 822.81 4.30338 2.60419 0
M  V30 8859 H 822.51 5.67821 1.51173 0
M  V30 8860 H 824.034 5.59702 2.44061 0
M  V30 8861 H 825.448 5.73039 0.173095 0
M  V30 8862 H 823.845 5.97291 -0.580006 0
M  V30 8863 H 824.915 4.69969 -1.19404 0
M  V30 8864 N 826.258 0.243083 1.55714 0
M  V30 8865 C 827.483 -0.389944 2.03701 0
M  V30 8866 C 827.908 -1.51025 1.12129 0
M  V30 8867 O 827.266 -1.80944 0.11352 0
M  V30 8868 C 827.314 -0.878649 3.49731 0
M  V30 8869 O 826.418 -1.98851 3.61292 0
M  V30 8870 H 825.759 -0.0855115 0.658471 0
M  V30 8871 H 828.289 0.368023 2.01263 0
M  V30 8872 H 828.299 -1.18287 3.90477 0
M  V30 8873 H 826.974 -0.0588107 4.15858 0
M  V30 8874 H 825.551 -1.68928 3.32442 0
M  V30 8875 N 827.736 -1.57571 -0.0300757 0
M  V30 8876 C 828.646 -2.09892 -1.04798 0
M  V30 8877 C 829.662 -1.03732 -1.39698 0
M  V30 8878 O 830.838 -1.35461 -1.49038 0
M  V30 8879 C 827.903 -2.56707 -2.33028 0
M  V30 8880 C 826.964 -3.77345 -2.04718 0
M  V30 8881 C 826.197 -4.21918 -3.26834 0
M  V30 8882 O 826.42 -3.66025 -4.37472 0
M  V30 8883 O 825.354 -5.14362 -3.12594 0
M  V30 8884 H 829.18 -2.97023 -0.633344 0
M  V30 8885 H 826.765 -1.47344 -0.246991 0
M  V30 8886 H 828.647 -2.87154 -3.08417 0
M  V30 8887 H 827.322 -1.72688 -2.73789 0
M  V30 8888 H 826.229 -3.51919 -1.26901 0
M  V30 8889 H 827.562 -4.62345 -1.68813 0
M  V30 8890 N 829.214 0.302327 -1.54673 0
M  V30 8891 C 830.46 1.03924 -1.74149 0
M  V30 8892 C 830.793 1.86968 -0.525041 0
M  V30 8893 O 830.068 1.88538 0.477868 0
M  V30 8894 C 830.351 1.94633 -3.02969 0
M  V30 8895 C 830.204 1.14778 -4.34909 0
M  V30 8896 C 831.523 2.93826 -3.27649 0
M  V30 8897 H 828.642 0.376405 -0.633631 0
M  V30 8898 H 831.284 0.314007 -1.87387 0
M  V30 8899 H 829.434 2.56471 -2.91813 0
M  V30 8900 H 831.106 0.552363 -4.57981 0
M  V30 8901 H 829.349 0.450462 -4.31455 0
M  V30 8902 H 830.02 1.81495 -5.21309 0
M  V30 8903 H 832.496 2.42117 -3.38406 0
M  V30 8904 H 831.372 3.54462 -4.19104 0
M  V30 8905 H 831.633 3.67416 -2.45882 0
M  V30 8906 N 830.692 1.47107 0.565454 0
M  V30 8907 C 831.602 1.61591 1.70075 0
M  V30 8908 C 832.618 0.498931 1.66693 0
M  V30 8909 O 833.794 0.765372 1.8629 0
M  V30 8910 C 830.859 1.61887 3.06583 0
M  V30 8911 C 829.92 2.84949 3.21096 0
M  V30 8912 C 829.153 2.85221 4.51093 0
M  V30 8913 O 829.376 1.94959 5.36048 0
M  V30 8914 O 828.31 3.76982 4.69221 0
M  V30 8915 H 832.136 2.57638 1.60799 0
M  V30 8916 H 829.721 1.30097 0.73451 0
M  V30 8917 H 831.603 1.64809 3.87835 0
M  V30 8918 H 830.278 0.69005 3.16259 0
M  V30 8919 H 829.185 2.87575 2.39273 0
M  V30 8920 H 830.518 3.77098 3.1632 0
M  V30 8921 N 832.17 -0.811516 1.35101 0
M  V30 8922 C 833.416 -1.57016 1.29296 0
M  V30 8923 C 833.771 -1.91941 -0.13288 0
M  V30 8924 O 833.064 -1.58121 -1.08204 0
M  V30 8925 C 833.258 -2.87121 2.1283 0
M  V30 8926 C 833.087 -2.64908 3.63392 0
M  V30 8927 C 831.857 -2.61055 4.32641 0
M  V30 8928 C 834.055 -2.35628 4.57148 0
M  V30 8929 N 832.037 -2.30508 5.68981 0
M  V30 8930 C 833.408 -2.14876 5.81574 0
M  V30 8931 C 835.463 -2.2145 4.45942 0
M  V30 8932 C 834.166 -1.81381 6.96055 0
M  V30 8933 C 836.192 -1.89352 5.60267 0
M  V30 8934 C 835.554 -1.69432 6.83719 0
M  V30 8935 H 831.653 -0.57649 0.528378 0
M  V30 8936 H 834.237 -0.950338 1.69931 0
M  V30 8937 H 832.408 -3.47007 1.74473 0
M  V30 8938 H 834.14 -3.52629 1.98582 0
M  V30 8939 H 830.895 -2.75531 3.85201 0
M  V30 8940 H 831.319 -2.18042 6.40927 0
M  V30 8941 H 835.961 -2.35551 3.51106 0
M  V30 8942 H 833.679 -1.66018 7.90863 0
M  V30 8943 H 837.265 -1.79098 5.53548 0
M  V30 8944 H 836.145 -1.44957 7.70686 0
M  V30 8945 N 833.648 -1.19017 -1.03309 0
M  V30 8946 C 834.558 -0.939303 -2.14975 0
M  V30 8947 C 835.574 0.0992359 -1.73717 0
M  V30 8948 O 836.75 -0.0844362 -2.01223 0
M  V30 8949 C 833.815 -0.476712 -3.43407 0
M  V30 8950 C 832.876 -1.58413 -3.99003 0
M  V30 8951 C 832.109 -1.14352 -5.21305 0
M  V30 8952 O 832.332 -0.00534408 -5.704 0
M  V30 8953 O 831.266 -1.94436 -5.6963 0
M  V30 8954 H 835.092 -1.87386 -2.38998 0
M  V30 8955 H 832.677 -0.972635 -1.13403 0
M  V30 8956 H 834.559 -0.22718 -4.20787 0
M  V30 8957 H 833.234 0.429455 -3.20839 0
M  V30 8958 H 832.141 -1.88777 -3.22977 0
M  V30 8959 H 833.474 -2.4667 -4.25928 0
M  V30 8960 N 835.127 1.22348 -0.993418 0
M  V30 8961 C 836.404 1.86632 -0.585495 0
M  V30 8962 C 836.784 1.89156 0.937187 0
M  V30 8963 O 836.132 1.38247 1.81934 0
M  V30 8964 C 836.342 3.27481 -1.20652 0
M  V30 8965 C 837.69 4.03971 -1.30738 0
M  V30 8966 O 838.714 3.3675 -1.16096 0
M  V30 8967 O 837.573 5.24302 -1.54173 0
M  V30 8968 H 834.667 0.802704 -0.198984 0
M  V30 8969 H 837.213 1.30122 -1.08933 0
M  V30 8970 H 835.985 3.20281 -2.24802 0
M  V30 8971 H 835.608 3.91597 -0.688312 0
M  V30 8972 N 836.605 0.766683 1.37694 0
M  V30 8973 C 838.021 0.445739 1.53249 0
M  V30 8974 C 838.221 -1.03935 1.72626 0
M  V30 8975 O 837.277 -1.82525 1.74473 0
M  V30 8976 C 838.59 1.2564 2.73194 0
M  V30 8977 C 840.138 1.24779 2.87053 0
M  V30 8978 C 840.613 2.04169 4.09974 0
M  V30 8979 N 842.104 2.01497 4.17077 0
M  V30 8980 C 842.839 2.5971 5.11212 0
M  V30 8981 N 842.335 3.26691 6.10938 0
M  V30 8982 N 844.128 2.49568 5.03659 0
M  V30 8983 H 836.279 1.72899 1.23368 0
M  V30 8984 H 838.542 0.733701 0.600322 0
M  V30 8985 H 838.248 2.30859 2.65324 0
M  V30 8986 H 838.122 0.882133 3.6674 0
M  V30 8987 H 840.509 0.203603 2.94397 0
M  V30 8988 H 840.59 1.66166 1.9448 0
M  V30 8989 H 840.234 3.08606 4.03392 0
M  V30 8990 H 840.164 1.60167 5.01651 0
M  V30 8991 H 842.655 1.52728 3.45662 0
M  V30 8992 H 842.968 3.68497 6.79286 0
M  V30 8993 H 841.313 3.30789 6.11231 0
M  V30 8994 H 844.504 1.96859 4.24693 0
M  V30 8995 H 844.677 2.95231 5.76839 0
M  V30 8996 N 838.083 -1.48885 0.516809 0
M  V30 8997 C 839.36 -1.95412 -0.0858293 0
M  V30 8998 C 839.74 -1.45875 -1.5259 0
M  V30 8999 O 839.088 -0.679415 -2.18166 0
M  V30 9000 C 839.298 -3.48995 0.0178194 0
M  V30 9001 C 840.646 -4.24342 -0.14813 0
M  V30 9002 O 841.67 -3.56155 -0.0566125 0
M  V30 9003 O 840.529 -5.45454 -0.338035 0
M  V30 9004 H 837.623 -0.822455 -0.0865884 0
M  V30 9005 H 840.169 -1.59464 0.580472 0
M  V30 9006 H 838.941 -3.77732 1.02147 0
M  V30 9007 H 838.564 -3.91604 -0.687924 0
M  V30 9008 N 839.561 -0.251338 -1.55583 0
M  V30 9009 C 840.838 0.422729 -1.90977 0
M  V30 9010 C 841.218 1.75534 -1.17265 0
M  V30 9011 O 840.566 2.26632 -0.291588 0
M  V30 9012 C 840.776 0.586448 -3.44037 0
M  V30 9013 C 842.124 0.880294 -4.15375 0
M  V30 9014 O 843.148 0.672148 -3.49801 0
M  V30 9015 O 842.007 1.27694 -5.31372 0
M  V30 9016 H 839.101 0.227622 -0.795058 0
M  V30 9017 H 841.647 -0.295733 -1.67103 0
M  V30 9018 H 840.419 -0.352327 -3.89711 0
M  V30 9019 H 840.042 1.35528 -3.73789 0
M  V30 9020 N 841.039 1.57585 0.0217189 0
M  V30 9021 C 842.285 1.89887 0.712099 0
M  V30 9022 C 842.618 0.849971 1.74611 0
M  V30 9023 O 841.893 -0.13407 1.94037 0
M  V30 9024 C 842.176 3.32815 1.37499 0
M  V30 9025 C 842.029 4.48405 0.353993 0
M  V30 9026 C 843.348 3.74786 2.30703 0
M  V30 9027 H 840.467 0.690588 0.257405 0
M  V30 9028 H 843.109 1.89983 -0.0251145 0
M  V30 9029 H 841.259 3.32863 2.00335 0
M  V30 9030 H 842.931 4.60491 -0.273015 0
M  V30 9031 H 841.174 4.32573 -0.32599 0
M  V30 9032 H 841.845 5.45316 0.85644 0
M  V30 9033 H 844.321 3.76151 1.77904 0
M  V30 9034 H 843.197 4.75585 2.74061 0
M  V30 9035 H 843.458 3.07449 3.17691 0
M  V30 9036 N 842.517 -0.29412 1.54831 0
M  V30 9037 C 843.447 -1.36757 1.89261 0
M  V30 9038 C 844.428 -1.52564 0.752214 0
M  V30 9039 O 845.613 -1.65958 1.00855 0
M  V30 9040 C 842.743 -2.73066 2.14597 0
M  V30 9041 C 841.697 -2.72017 3.3044 0
M  V30 9042 C 841.023 -4.11679 3.4121 0
M  V30 9043 C 842.323 -2.33149 4.67375 0
M  V30 9044 H 844.017 -1.08191 2.79169 0
M  V30 9045 H 841.563 -0.519014 1.34321 0
M  V30 9046 H 843.516 -3.48255 2.37269 0
M  V30 9047 H 842.24 -3.03172 1.21467 0
M  V30 9048 H 840.899 -1.99285 3.07703 0
M  V30 9049 H 840.547 -4.38973 2.45584 0
M  V30 9050 H 840.247 -4.11877 4.19084 0
M  V30 9051 H 841.771 -4.88637 3.6615 0
M  V30 9052 H 843.185 -2.98054 4.89731 0
M  V30 9053 H 841.582 -2.44546 5.48012 0
M  V30 9054 H 842.652 -1.28275 4.67626 0
M  V30 9055 N 843.995 -1.47404 -0.557645 0
M  V30 9056 C 845.411 -1.32913 -0.88353 0
M  V30 9057 C 845.611 -0.31929 -1.98954 0
M  V30 9058 O 844.667 0.26934 -2.51059 0
M  V30 9059 C 845.98 -2.72229 -1.27718 0
M  V30 9060 C 847.528 -2.8051 -1.38863 0
M  V30 9061 C 848.003 -4.20466 -1.81583 0
M  V30 9062 N 849.494 -4.23005 -1.88735 0
M  V30 9063 C 850.229 -5.2821 -2.23118 0
M  V30 9064 N 849.725 -6.4372 -2.56117 0
M  V30 9065 N 851.518 -5.15588 -2.23888 0
M  V30 9066 H 843.669 -2.11698 0.172557 0
M  V30 9067 H 845.932 -0.947889 0.0145334 0
M  V30 9068 H 845.638 -3.47556 -0.538329 0
M  V30 9069 H 845.512 -3.03971 -2.23342 0
M  V30 9070 H 847.899 -2.05457 -2.11829 0
M  V30 9071 H 847.98 -2.52423 -0.414274 0
M  V30 9072 H 847.624 -4.96025 -1.09187 0
M  V30 9073 H 847.554 -4.45977 -2.80021 0
M  V30 9074 H 850.045 -3.39674 -1.65621 0
M  V30 9075 H 850.358 -7.19754 -2.81378 0
M  V30 9076 H 848.703 -6.47041 -2.53698 0
M  V30 9077 H 851.894 -4.24374 -1.97546 0
M  V30 9078 H 852.067 -5.97685 -2.50353 0
M  V30 9079 N 845.473 0.80434 -1.35529 0
M  V30 9080 C 846.421 1.93769 -1.28671 0
M  V30 9081 C 847.415 1.68428 -0.181222 0
M  V30 9082 O 848.621 1.76617 -0.347338 0
M  V30 9083 H 844.996 0.636663 -0.400206 0
M  V30 9084 H 846.967 1.96673 -2.24415 0
M  V30 9085 C 845.716 3.30572 -1.07784 0
M  V30 9086 H 845.039 3.5063 -1.9209 0
M  V30 9087 H 846.479 4.1027 -1.07027 0
M  V30 9088 C 844.938 3.36193 0.218213 0
M  V30 9089 O 845.468 3.82941 1.21323 0
M  V30 9090 N 843.674 2.89455 0.257761 0
M  V30 9091 H 843.221 2.51604 -0.552562 0
M  V30 9092 H 843.179 2.93597 1.12465 0
M  V30 9093 N 846.951 1.19563 1.02676 0
M  V30 9094 C 847.914 0.937182 2.09164 0
M  V30 9095 C 848.914 -0.0831927 1.60585 0
M  V30 9096 O 850.104 0.15178 1.73538 0
M  V30 9097 C 847.236 0.408912 3.38439 0
M  V30 9098 H 848.429 1.88164 2.33526 0
M  V30 9099 H 845.982 1.00959 1.19319 0
M  V30 9100 H 846.717 -0.541497 3.19747 0
M  V30 9101 H 846.502 1.14464 3.7502 0
M  V30 9102 H 847.992 0.247242 4.16867 0
M  V30 9103 N 848.429 -1.21819 0.999893 0
M  V30 9104 C 849.362 -2.22635 0.500887 0
M  V30 9105 C 850.34 -1.56459 -0.442636 0
M  V30 9106 O 851.524 -1.84902 -0.366551 0
M  V30 9107 C 848.651 -3.37598 -0.273046 0
M  V30 9108 C 847.697 -4.22006 0.617511 0
M  V30 9109 S 848.53 -4.93583 2.07693 0
M  V30 9110 C 849.686 -6.1198 1.31269 0
M  V30 9111 H 849.919 -2.64618 1.35516 0
M  V30 9112 H 847.452 -1.31606 0.807419 0
M  V30 9113 H 849.41 -4.04251 -0.713515 0
M  V30 9114 H 848.071 -2.94108 -1.10268 0
M  V30 9115 H 847.264 -5.03995 0.0216543 0
M  V30 9116 H 846.866 -3.6052 0.99504 0
M  V30 9117 H 849.158 -6.74979 0.583933 0
M  V30 9118 H 850.101 -6.75991 2.10811 0
M  V30 9119 H 850.509 -5.5847 0.822901 0
M  V30 9120 N 849.908 -0.773975 -1.37286 0
M  V30 9121 C 851.154 -0.339809 -1.99933 0
M  V30 9122 C 851.487 1.0815 -1.61299 0
M  V30 9123 O 850.762 1.74442 -0.860252 0
M  V30 9124 C 851.045 -0.485919 -3.56806 0
M  V30 9125 C 850.898 -1.9498 -4.05343 0
M  V30 9126 C 852.217 0.108461 -4.39966 0
M  V30 9127 H 849.336 -0.124944 -0.726332 0
M  V30 9128 H 851.978 -0.977433 -1.6293 0
M  V30 9129 H 850.128 0.0569023 -3.88458 0
M  V30 9130 H 851.8 -2.5525 -3.84246 0
M  V30 9131 H 850.043 -2.45784 -3.57453 0
M  V30 9132 H 850.714 -2.00308 -5.14374 0
M  V30 9133 H 853.19 -0.354722 -4.14585 0
M  V30 9134 H 852.066 -0.0238926 -5.48895 0
M  V30 9135 H 852.327 1.19901 -4.25531 0
M  V30 9136 N 851.386 1.48609 -0.524698 0
M  V30 9137 C 852.334 2.31205 0.254398 0
M  V30 9138 C 853.328 1.40894 0.940491 0
M  V30 9139 O 854.534 1.57827 0.865478 0
M  V30 9140 H 850.909 0.745199 0.100907 0
M  V30 9141 H 852.88 2.94804 -0.461876 0
M  V30 9142 C 851.629 3.2282 1.2916 0
M  V30 9143 H 850.952 3.92255 0.773074 0
M  V30 9144 H 852.392 3.83508 1.80825 0
M  V30 9145 C 850.851 2.4406 2.32242 0
M  V30 9146 O 851.381 2.16163 3.3858 0
M  V30 9147 N 849.587 2.05651 2.05319 0
M  V30 9148 H 849.134 2.28539 1.18861 0
M  V30 9149 H 849.092 1.53265 2.74513 0
M  V30 9150 N 852.864 0.259585 1.55447 0
M  V30 9151 C 854.28 -0.094961 1.59317 0
M  V30 9152 C 854.48 -1.55884 1.2768 0
M  V30 9153 O 853.536 -2.30528 1.0302 0
M  V30 9154 C 854.849 0.265669 2.99524 0
M  V30 9155 C 856.397 0.211007 3.12288 0
M  V30 9156 C 856.872 0.545851 4.54736 0
M  V30 9157 N 858.363 0.496823 4.60528 0
M  V30 9158 C 859.098 0.728909 5.68748 0
M  V30 9159 N 858.594 1.02479 6.85179 0
M  V30 9160 N 860.387 0.658756 5.58226 0
M  V30 9161 H 852.538 1.2141 1.7428 0
M  V30 9162 H 854.801 0.489404 0.811904 0
M  V30 9163 H 854.507 1.28316 3.27457 0
M  V30 9164 H 854.381 -0.401089 3.75061 0
M  V30 9165 H 856.768 -0.797172 2.84129 0
M  V30 9166 H 856.849 0.911799 2.38998 0
M  V30 9167 H 856.493 1.55164 4.83618 0
M  V30 9168 H 856.423 -0.17656 5.26304 0
M  V30 9169 H 858.914 0.277376 3.76881 0
M  V30 9170 H 859.227 1.18897 7.63599 0
M  V30 9171 H 857.572 1.0624 6.86832 0
M  V30 9172 H 860.763 0.427553 4.66143 0
M  V30 9173 H 860.936 0.84302 6.42493 0
M  V30 9174 N 854.342 -1.57594 -0.0133615 0
M  V30 9175 C 855.289 -2.07574 -1.00905 0
M  V30 9176 C 856.259 -0.968231 -1.34961 0
M  V30 9177 O 857.444 -1.23981 -1.45028 0
M  V30 9178 C 854.584 -2.5728 -2.30002 0
M  V30 9179 C 853.697 -3.81881 -2.01967 0
M  V30 9180 C 852.832 -4.20139 -3.25049 0
M  V30 9181 C 851.871 -5.37614 -2.92639 0
M  V30 9182 N 851.008 -5.71229 -4.08218 0
M  V30 9183 H 855.848 -2.92382 -0.575899 0
M  V30 9184 H 853.385 -1.4455 -0.272722 0
M  V30 9185 H 855.343 -2.84171 -3.05454 0
M  V30 9186 H 853.973 -1.75365 -2.71011 0
M  V30 9187 H 853.025 -3.61979 -1.16942 0
M  V30 9188 H 854.337 -4.67441 -1.74069 0
M  V30 9189 H 853.491 -4.48242 -4.08857 0
M  V30 9190 H 852.23 -3.33262 -3.56073 0
M  V30 9191 H 851.235 -5.09248 -2.07235 0
M  V30 9192 H 852.46 -6.26157 -2.62876 0
M  V30 9193 H 850.406 -4.8731 -4.39164 0
M  V30 9194 H 850.323 -6.51333 -3.83799 0
M  V30 9195 H 851.591 -6.03917 -4.92854 0
M  V30 9196 N 855.82 0.285905 -1.54985 0
M  V30 9197 C 857.048 1.03776 -1.78992 0
M  V30 9198 C 857.463 1.80402 -0.556814 0
M  V30 9199 O 856.82 1.76242 0.473801 0
M  V30 9200 C 856.871 2.0065 -3.00702 0
M  V30 9201 O 856.592 1.27131 -4.19249 0
M  V30 9202 C 858.093 2.87753 -3.37214 0
M  V30 9203 H 855.313 0.307126 -0.596586 0
M  V30 9204 H 857.857 0.3206 -2.01971 0
M  V30 9205 H 856.012 2.67847 -2.79887 0
M  V30 9206 H 856.426 1.92316 -4.8797 0
M  V30 9207 H 857.9 3.51548 -4.2558 0
M  V30 9208 H 858.377 3.56848 -2.56039 0
M  V30 9209 H 858.983 2.26065 -3.60242 0
M  V30 9210 N 857.298 1.47698 0.54982 0
M  V30 9211 C 858.546 1.54397 1.30407 0
M  V30 9212 C 858.867 0.211026 1.93855 0
M  V30 9213 O 858.137 -0.765701 1.80316 0
M  V30 9214 H 856.717 0.568747 0.484289 0
M  V30 9215 H 859.379 1.84042 0.641444 0
M  V30 9216 H 858.475 2.31449 2.09375 0
M  V30 9217 N 858.776 -0.797141 1.35954 0
M  V30 9218 C 859.723 -1.90944 1.2965 0
M  V30 9219 C 860.693 -1.65262 0.166628 0
M  V30 9220 O 861.878 -1.87527 0.351883 0
M  V30 9221 C 859.018 -3.27637 1.08389 0
M  V30 9222 C 858.131 -3.65442 2.30382 0
M  V30 9223 C 857.266 -4.91213 2.02195 0
M  V30 9224 C 856.305 -5.21674 3.20191 0
M  V30 9225 N 855.442 -6.38627 2.91719 0
M  V30 9226 H 860.282 -1.95668 2.24762 0
M  V30 9227 H 857.819 -0.95696 1.11717 0
M  V30 9228 H 859.777 -4.06451 0.940912 0
M  V30 9229 H 858.407 -3.22355 0.169351 0
M  V30 9230 H 857.459 -2.81813 2.55511 0
M  V30 9231 H 858.771 -3.83907 3.18461 0
M  V30 9232 H 857.925 -5.77876 1.84783 0
M  V30 9233 H 856.664 -4.74803 1.11416 0
M  V30 9234 H 855.669 -4.33498 3.38171 0
M  V30 9235 H 856.894 -5.40009 4.11786 0
M  V30 9236 H 854.84 -6.23623 2.03543 0
M  V30 9237 H 854.757 -6.57387 3.73334 0
M  V30 9238 H 856.025 -7.28292 2.77868 0
M  V30 9239 N 860.254 -1.20106 -1.0204 0
M  V30 9240 C 861.501 -1.00889 -1.75578 0
M  V30 9241 C 861.829 0.459415 -1.88996 0
M  V30 9242 O 861.084 1.35735 -1.40977 0
M  V30 9243 C 861.383 -1.63308 -3.17908 0
M  V30 9244 C 861.049 -3.13091 -3.24476 0
M  V30 9245 C 859.711 -3.53968 -3.25976 0
M  V30 9246 C 862.063 -4.09093 -3.22944 0
M  V30 9247 C 859.391 -4.89381 -3.2361 0
M  V30 9248 C 861.743 -5.44447 -3.22119 0
M  V30 9249 C 860.407 -5.84742 -3.2192 0
M  V30 9250 H 859.677 -0.36918 -0.642485 0
M  V30 9251 H 862.324 -1.49475 -1.19706 0
M  V30 9252 H 860.629 -1.06974 -3.76914 0
M  V30 9253 H 862.326 -1.45958 -3.73493 0
M  V30 9254 H 858.916 -2.80526 -3.24042 0
M  V30 9255 H 863.1 -3.78549 -3.20958 0
M  V30 9256 H 858.356 -5.1987 -3.21785 0
M  V30 9257 H 862.53 -6.18584 -3.19885 0
M  V30 9258 H 860.157 -6.89642 -3.19841 0
M  V30 9259 N 861.732 1.21287 -1.00634 0
M  V30 9260 C 862.957 1.94925 -0.708441 0
M  V30 9261 C 863.382 1.73659 0.722783 0
M  V30 9262 O 862.74 1.02429 1.49593 0
M  V30 9263 C 862.788 3.45377 -1.03667 0
M  V30 9264 O 861.892 4.12153 -0.142661 0
M  V30 9265 H 861.233 0.609338 -0.263824 0
M  V30 9266 H 863.763 1.54008 -1.34695 0
M  V30 9267 H 863.773 3.95954 -0.984086 0
M  V30 9268 H 862.448 3.6018 -2.0795 0
M  V30 9269 H 861.025 3.72048 -0.251888 0
M  V30 9270 N 863.21 0.781244 1.36873 0
M  V30 9271 C 864.143 0.120106 2.27884 0
M  V30 9272 C 865.121 -0.698961 1.4681 0
M  V30 9273 O 866.305 -0.671694 1.76126 0
M  V30 9274 C 863.432 -0.835804 3.28226 0
M  V30 9275 C 862.478 -0.0995527 4.26384 0
M  V30 9276 S 863.311 1.21903 5.2144 0
M  V30 9277 C 864.467 0.266904 6.25331 0
M  V30 9278 H 864.7 0.891796 2.83609 0
M  V30 9279 H 862.233 0.575075 1.43291 0
M  V30 9280 H 864.191 -1.3819 3.86541 0
M  V30 9281 H 862.852 -1.58068 2.71428 0
M  V30 9282 H 862.045 -0.82457 4.97209 0
M  V30 9283 H 861.647 0.375818 3.72107 0
M  V30 9284 H 863.939 -0.55725 6.75204 0
M  V30 9285 H 864.882 0.943603 7.01785 0
M  V30 9286 H 865.29 -0.126121 5.64359 0
M  V30 9287 N 864.689 -1.48329 0.532571 0
M  V30 9288 C 865.599 -2.33445 -0.232546 0
M  V30 9289 C 866.615 -1.46651 -0.93645 0
M  V30 9290 O 867.791 -1.79627 -0.910834 0
M  V30 9291 C 864.856 -3.22824 -1.26434 0
M  V30 9292 C 863.917 -4.25492 -0.570511 0
M  V30 9293 C 863.15 -5.10601 -1.55315 0
M  V30 9294 O 863.373 -4.97733 -2.78599 0
M  V30 9295 O 862.307 -5.91927 -1.09112 0
M  V30 9296 H 866.133 -3.00119 0.464988 0
M  V30 9297 H 863.718 -1.46489 0.293462 0
M  V30 9298 H 865.6 -3.78103 -1.86055 0
M  V30 9299 H 864.275 -2.58807 -1.94424 0
M  V30 9300 H 863.182 -3.74041 0.0662587 0
M  V30 9301 H 864.515 -4.92154 0.0674904 0
M  V30 9302 N 866.167 -0.267825 -1.55308 0
M  V30 9303 C 867.413 0.351556 -1.9973 0
M  V30 9304 C 867.746 1.56049 -1.15596 0
M  V30 9305 O 867.021 1.93203 -0.224274 0
M  V30 9306 C 867.304 0.74091 -3.52395 0
M  V30 9307 C 867.157 -0.474861 -4.47286 0
M  V30 9308 C 868.476 1.5801 -4.10756 0
M  V30 9309 H 865.595 0.126308 -0.726096 0
M  V30 9310 H 868.237 -0.373316 -1.86296 0
M  V30 9311 H 866.387 1.35851 -3.63973 0
M  V30 9312 H 868.059 -1.1134 -4.47662 0
M  V30 9313 H 866.302 -1.11425 -4.19246 0
M  V30 9314 H 866.973 -0.158782 -5.51772 0
M  V30 9315 H 869.449 1.05857 -4.0241 0
M  V30 9316 H 868.325 1.82135 -5.17801 0
M  V30 9317 H 868.586 2.55878 -3.60526 0
M  V30 9318 N 867.645 1.57599 0.00500368 0
M  V30 9319 C 868.592 2.08106 0.998025 0
M  V30 9320 C 869.562 0.975374 1.34446 0
M  V30 9321 O 870.747 1.24749 1.44369 0
M  V30 9322 C 867.887 2.58496 2.28635 0
M  V30 9323 C 867 3.82947 1.99939 0
M  V30 9324 C 866.135 4.21857 3.22816 0
M  V30 9325 C 865.174 5.39159 2.89783 0
M  V30 9326 N 864.311 5.73386 4.05183 0
M  V30 9327 H 869.151 2.92684 0.560385 0
M  V30 9328 H 866.688 1.44692 0.265053 0
M  V30 9329 H 868.646 2.85787 3.03943 0
M  V30 9330 H 867.276 1.768 2.70077 0
M  V30 9331 H 866.328 3.62594 1.1502 0
M  V30 9332 H 867.64 4.68358 1.71588 0
M  V30 9333 H 866.794 4.50404 4.06474 0
M  V30 9334 H 865.533 3.35145 3.54301 0
M  V30 9335 H 864.538 5.1034 2.04532 0
M  V30 9336 H 865.763 6.27543 2.59551 0
M  V30 9337 H 863.709 4.89632 4.36574 0
M  V30 9338 H 863.626 6.53359 3.80339 0
M  V30 9339 H 864.894 6.06522 4.89644 0
M  V30 9340 N 869.123 -0.277682 1.55134 0
M  V30 9341 C 870.07 -1.34313 1.87693 0
M  V30 9342 C 871.04 -1.49298 0.727973 0
M  V30 9343 O 872.225 -1.6378 0.978807 0
M  V30 9344 C 869.365 -2.69922 2.15026 0
M  V30 9345 C 868.478 -2.63197 3.42565 0
M  V30 9346 C 867.613 -3.90955 3.59622 0
M  V30 9347 C 866.652 -3.78722 4.8087 0
M  V30 9348 N 865.789 -4.98303 4.94609 0
M  V30 9349 H 870.629 -1.05847 2.78569 0
M  V30 9350 H 868.166 -0.511469 1.37922 0
M  V30 9351 H 870.124 -3.48817 2.28872 0
M  V30 9352 H 868.754 -2.966 1.2739 0
M  V30 9353 H 867.806 -1.76038 3.37216 0
M  V30 9354 H 869.118 -2.50056 4.31594 0
M  V30 9355 H 868.272 -4.78291 3.7326 0
M  V30 9356 H 867.011 -4.06957 2.6877 0
M  V30 9357 H 866.016 -2.89769 4.67241 0
M  V30 9358 H 867.241 -3.64242 5.73153 0
M  V30 9359 H 865.187 -5.14725 4.06687 0
M  V30 9360 H 865.104 -4.87675 5.77676 0
M  V30 9361 H 866.372 -5.87225 5.12628 0
M  V30 9362 N 870.601 -1.47988 -0.541979 0
M  V30 9363 C 871.829 -1.59034 -1.32347 0
M  V30 9364 C 872.244 -0.246123 -1.87189 0
M  V30 9365 O 871.601 0.762889 -1.6579 0
M  V30 9366 C 871.652 -2.62759 -2.48274 0
M  V30 9367 O 871.373 -3.91963 -1.95695 0
M  V30 9368 C 872.874 -2.84133 -3.4027 0
M  V30 9369 H 870.094 -0.536574 -0.402901 0
M  V30 9370 H 872.638 -1.93725 -0.655045 0
M  V30 9371 H 870.793 -2.3096 -3.11025 0
M  V30 9372 H 871.207 -4.48769 -2.7149 0
M  V30 9373 H 872.681 -3.60538 -4.17991 0
M  V30 9374 H 873.158 -1.92512 -3.9476 0
M  V30 9375 H 873.764 -3.17188 -2.83322 0
M  V30 9376 N 872.079 0.78992 -1.36375 0
M  V30 9377 C 873.325 1.55007 -1.3077 0
M  V30 9378 C 873.658 1.93871 0.112979 0
M  V30 9379 O 872.933 1.6267 1.06625 0
M  V30 9380 C 873.216 2.82748 -2.22993 0
M  V30 9381 C 873.069 2.50253 -3.73756 0
M  V30 9382 C 874.388 3.84569 -2.13998 0
M  V30 9383 H 871.507 0.562362 -0.476359 0
M  V30 9384 H 874.149 0.907582 -1.66922 0
M  V30 9385 H 872.299 3.37573 -1.92292 0
M  V30 9386 H 873.971 2.01482 -4.14973 0
M  V30 9387 H 872.214 1.83203 -3.93216 0
M  V30 9388 H 872.885 3.41487 -4.33694 0
M  V30 9389 H 875.361 3.39188 -2.4102 0
M  V30 9390 H 874.237 4.717 -2.80697 0
M  V30 9391 H 874.498 4.27491 -1.12711 0
M  V30 9392 N 873.557 1.20646 1.01402 0
M  V30 9393 C 874.834 0.927176 1.72229 0
M  V30 9394 C 875.214 -0.563382 2.03443 0
M  V30 9395 O 874.562 -1.52576 1.70096 0
M  V30 9396 C 874.772 1.80285 2.98828 0
M  V30 9397 C 876.12 2.04624 3.72041 0
M  V30 9398 O 877.144 1.77559 3.0879 0
M  V30 9399 O 876.003 2.50347 4.85787 0
M  V30 9400 H 873.097 0.346891 0.75073 0
M  V30 9401 H 875.643 1.31532 1.07227 0
M  V30 9402 H 874.415 2.81204 2.72102 0
M  V30 9403 H 874.038 1.41495 3.71571 0
M  V30 9404 N 875.035 -1.20752 1.01276 0
M  V30 9405 C 875.982 -2.234 0.579732 0
M  V30 9406 C 876.952 -1.61256 -0.398206 0
M  V30 9407 O 878.137 -1.8845 -0.29851 0
M  V30 9408 C 875.277 -3.45008 -0.0797006 0
M  V30 9409 C 874.39 -4.21597 0.942343 0
M  V30 9410 C 873.525 -5.30591 0.254364 0
M  V30 9411 C 872.564 -5.98919 1.26343 0
M  V30 9412 N 871.701 -6.99511 0.602384 0
M  V30 9413 H 876.541 -2.59801 1.45971 0
M  V30 9414 H 874.078 -1.27663 0.730787 0
M  V30 9415 H 876.036 -4.1444 -0.479125 0
M  V30 9416 H 874.666 -3.09312 -0.923354 0
M  V30 9417 H 873.718 -3.51268 1.45996 0
M  V30 9418 H 875.03 -4.68576 1.70992 0
M  V30 9419 H 874.184 -6.06368 -0.200763 0
M  V30 9420 H 872.923 -4.84639 -0.545553 0
M  V30 9421 H 871.928 -5.21906 1.72898 0
M  V30 9422 H 873.153 -6.46957 2.06456 0
M  V30 9423 H 871.099 -6.55759 -0.177734 0
M  V30 9424 H 871.016 -7.44597 1.30809 0
M  V30 9425 H 872.284 -7.79313 0.17072 0
M  V30 9426 N 876.513 -0.788492 -1.36457 0
M  V30 9427 C 877.761 -0.359749 -1.98872 0
M  V30 9428 C 878.082 1.07197 -1.62892 0
M  V30 9429 O 877.352 1.73875 -0.902463 0
M  V30 9430 H 875.932 -0.130029 -0.735596 0
M  V30 9431 H 878.594 -1.01033 -1.66668 0
M  V30 9432 H 877.69 -0.450835 -3.08827 0
M  V30 9433 N 877.991 1.48044 -0.54043 0
M  V30 9434 C 878.938 2.29781 0.216597 0
M  V30 9435 C 879.908 1.38021 0.924094 0
M  V30 9436 O 881.093 1.66985 0.923078 0
M  V30 9437 C 878.233 3.21623 1.2511 0
M  V30 9438 C 877.346 4.28467 0.551384 0
M  V30 9439 C 876.481 5.07477 1.56972 0
M  V30 9440 C 875.52 6.06113 0.854048 0
M  V30 9441 N 874.657 6.78143 1.81842 0
M  V30 9442 H 879.497 2.94001 -0.486578 0
M  V30 9443 H 877.034 1.44929 -0.251789 0
M  V30 9444 H 878.992 3.73279 1.8633 0
M  V30 9445 H 877.622 2.59305 1.92252 0
M  V30 9446 H 876.674 3.79997 -0.174982 0
M  V30 9447 H 877.986 4.98799 -0.0100542 0
M  V30 9448 H 877.14 5.63199 2.25592 0
M  V30 9449 H 875.879 4.37008 2.16507 0
M  V30 9450 H 874.884 5.49585 0.153838 0
M  V30 9451 H 876.109 6.78584 0.264675 0
M  V30 9452 H 874.055 6.10417 2.40265 0
M  V30 9453 H 873.972 7.44587 1.3087 0
M  V30 9454 H 875.24 7.38448 2.49628 0
M  V30 9455 N 879.47 0.276058 1.55163 0
M  V30 9456 C 880.886 -0.0780579 1.59409 0
M  V30 9457 C 881.086 -1.54521 1.29327 0
M  V30 9458 O 880.142 -2.29422 1.05459 0
M  V30 9459 C 881.455 0.297422 2.99225 0
M  V30 9460 C 883.003 0.244117 3.12047 0
M  V30 9461 C 883.478 0.594051 4.54131 0
M  V30 9462 N 884.969 0.54564 4.59975 0
M  V30 9463 C 885.704 0.789192 5.67943 0
M  V30 9464 N 885.2 1.09741 6.84053 0
M  V30 9465 N 886.993 0.717926 5.57496 0
M  V30 9466 H 879.144 1.23251 1.72982 0
M  V30 9467 H 881.407 0.497988 0.806667 0
M  V30 9468 H 881.113 1.31782 3.26077 0
M  V30 9469 H 880.987 -0.361286 3.75466 0
M  V30 9470 H 883.374 -0.766992 2.84958 0
M  V30 9471 H 883.455 0.937097 2.38017 0
M  V30 9472 H 883.099 1.60285 4.81945 0
M  V30 9473 H 883.029 -0.120728 5.26462 0
M  V30 9474 H 885.52 0.317334 3.76565 0
M  V30 9475 H 885.833 1.26989 7.62295 0
M  V30 9476 H 884.178 1.13519 6.85666 0
M  V30 9477 H 887.369 0.47697 4.65664 0
M  V30 9478 H 887.542 0.911118 6.41563 0
M  V30 9479 N 880.948 -1.576 0.00335426 0
M  V30 9480 C 882.194 -1.90996 -0.681799 0
M  V30 9481 C 882.527 -0.877643 -1.73237 0
M  V30 9482 O 881.802 0.103183 -1.94226 0
M  V30 9483 C 882.085 -3.34961 -1.32187 0
M  V30 9484 C 881.938 -4.48911 -0.28261 0
M  V30 9485 C 883.257 -3.78408 -2.24711 0
M  V30 9486 H 880.376 -0.694596 -0.246386 0
M  V30 9487 H 883.018 -1.89919 0.055336 0
M  V30 9488 H 881.168 -3.36008 -1.95014 0
M  V30 9489 H 882.84 -4.59999 0.346241 0
M  V30 9490 H 881.083 -4.32 0.394768 0
M  V30 9491 H 881.754 -5.46609 -0.769576 0
M  V30 9492 H 884.23 -3.78934 -1.71897 0
M  V30 9493 H 883.106 -4.79885 -2.66461 0
M  V30 9494 H 883.367 -3.12464 -3.1276 0
M  V30 9495 N 882.426 0.269451 -1.5528 0
M  V30 9496 C 883.356 1.33729 -1.91413 0
M  V30 9497 C 884.337 1.51348 -0.776391 0
M  V30 9498 O 885.522 1.64332 -1.03482 0
M  V30 9499 C 882.652 2.69618 -2.18914 0
M  V30 9500 C 881.606 2.66725 -3.34726 0
M  V30 9501 C 880.932 4.06199 -3.47716 0
M  V30 9502 C 882.232 2.25684 -4.71025 0
M  V30 9503 H 883.926 1.03736 -2.80854 0
M  V30 9504 H 881.472 0.497579 -1.3513 0
M  V30 9505 H 883.425 3.44436 -2.42779 0
M  V30 9506 H 882.149 3.01201 -1.26275 0
M  V30 9507 H 880.808 1.94365 -3.10834 0
M  V30 9508 H 880.456 4.3501 -2.52537 0
M  V30 9509 H 880.156 4.05157 -4.25583 0
M  V30 9510 H 881.68 4.8275 -3.73877 0
M  V30 9511 H 883.094 2.90225 -4.94411 0
M  V30 9512 H 881.491 2.35797 -5.51833 0
M  V30 9513 H 882.561 1.20819 -4.69607 0
M  V30 9514 N 883.904 1.48273 0.534124 0
M  V30 9515 C 885.15 1.56311 1.29208 0
M  V30 9516 C 885.483 0.234481 1.92779 0
M  V30 9517 O 884.758 -0.759143 1.79073 0
M  V30 9518 C 885.041 2.69831 2.3846 0
M  V30 9519 C 884.894 4.12385 1.79608 0
M  V30 9520 C 886.213 2.79133 3.40254 0
M  V30 9521 H 883.332 0.56899 0.468422 0
M  V30 9522 H 885.974 1.80429 0.595438 0
M  V30 9523 H 884.124 2.49397 2.97881 0
M  V30 9524 H 885.796 4.44246 1.24269 0
M  V30 9525 H 884.039 4.19579 1.10162 0
M  V30 9526 H 884.71 4.87629 2.58693 0
M  V30 9527 H 887.186 2.97632 2.90783 0
M  V30 9528 H 886.062 3.60298 4.14097 0
M  V30 9529 H 886.323 1.87122 4.00547 0
M  V30 9530 N 885.382 -0.782676 1.36792 0
M  V30 9531 C 886.315 -1.90241 1.2603 0
M  V30 9532 C 887.293 -1.61969 0.143055 0
M  V30 9533 O 888.477 -1.85843 0.315366 0
M  V30 9534 C 885.604 -3.25218 0.946082 0
M  V30 9535 C 884.65 -3.72414 2.0787 0
M  V30 9536 S 885.483 -3.87376 3.69729 0
M  V30 9537 C 886.639 -5.25219 3.40435 0
M  V30 9538 H 886.872 -1.99079 2.20805 0
M  V30 9539 H 884.405 -0.942625 1.22286 0
M  V30 9540 H 886.363 -4.03183 0.771612 0
M  V30 9541 H 885.024 -3.14096 0.0159991 0
M  V30 9542 H 884.217 -4.7024 1.81358 0
M  V30 9543 H 883.819 -3.01519 2.21274 0
M  V30 9544 H 886.111 -6.10025 2.94746 0
M  V30 9545 H 887.054 -5.56738 4.37549 0
M  V30 9546 H 887.462 -4.92638 2.75622 0
M  V30 9547 N 886.86 -1.21182 -1.00761 0
M  V30 9548 C 888.088 -1.05335 -1.78079 0
M  V30 9549 C 888.503 0.396988 -1.84579 0
M  V30 9550 O 887.86 1.27548 -1.30529 0
M  V30 9551 C 887.911 -1.64089 -3.22113 0
M  V30 9552 O 887.632 -3.03448 -3.15992 0
M  V30 9553 C 889.133 -1.53318 -4.15943 0
M  V30 9554 H 886.353 -0.37005 -0.559736 0
M  V30 9555 H 888.897 -1.60463 -1.26775 0
M  V30 9556 H 887.052 -1.13059 -3.70535 0
M  V30 9557 H 887.466 -3.31492 -4.06465 0
M  V30 9558 H 888.94 -1.99174 -5.14814 0
M  V30 9559 H 889.417 -0.487166 -4.3649 0
M  V30 9560 H 890.023 -2.03582 -3.73409 0
M  V30 9561 N 888.338 1.20213 -1.01915 0
M  V30 9562 C 889.286 2.25125 -0.584936 0
M  V30 9563 C 890.28 1.65138 0.377602 0
M  V30 9564 O 891.486 1.78294 0.247245 0
M  V30 9565 H 887.861 0.732333 -0.170858 0
M  V30 9566 H 889.832 2.59075 -1.48063 0
M  V30 9567 C 888.581 3.47651 0.058389 0
M  V30 9568 H 887.904 3.9409 -0.673263 0
M  V30 9569 H 889.344 4.2275 0.325285 0
M  V30 9570 C 887.803 3.10725 1.30199 0
M  V30 9571 O 888.333 3.22491 2.39505 0
M  V30 9572 N 886.539 2.6525 1.18706 0
M  V30 9573 H 886.086 2.55875 0.297618 0
M  V30 9574 H 886.044 2.40913 2.02011 0
M  V30 9575 N 889.816 0.795718 1.36037 0
M  V30 9576 C 891.093 0.294743 1.93367 0
M  V30 9577 C 891.473 -1.21406 1.72696 0
M  V30 9578 O 890.821 -2.00849 1.08959 0
M  V30 9579 C 891.031 0.694254 3.42025 0
M  V30 9580 C 892.379 0.677566 4.19159 0
M  V30 9581 O 893.403 0.635119 3.50492 0
M  V30 9582 O 892.262 0.726127 5.41655 0
M  V30 9583 H 889.356 0.0745459 0.823633 0
M  V30 9584 H 891.902 0.878685 1.4518 0
M  V30 9585 H 890.674 1.73458 3.50753 0
M  V30 9586 H 890.297 0.0845338 3.9751 0
M  V30 9587 N 891.294 -1.47756 0.548274 0
M  V30 9588 C 892.524 -2.06584 0.0254503 0
M  V30 9589 C 892.932 -1.40268 -1.26971 0
M  V30 9590 O 892.275 -0.49019 -1.77039 0
M  V30 9591 C 892.337 -3.58628 -0.250301 0
M  V30 9592 C 892.001 -4.4693 0.954087 0
M  V30 9593 C 892.998 -4.85592 1.85733 0
M  V30 9594 C 890.683 -4.88573 1.16624 0
M  V30 9595 C 892.677 -5.64686 2.95648 0
M  V30 9596 C 890.364 -5.67435 2.2685 0
M  V30 9597 C 891.362 -6.05401 3.16194 0
M  V30 9598 O 891.05 -6.82676 4.24511 0
M  V30 9599 H 890.782 -0.67489 0.0387264 0
M  V30 9600 H 893.336 -1.90876 0.758663 0
M  V30 9601 H 891.566 -3.72516 -1.03771 0
M  V30 9602 H 893.255 -3.9951 -0.717419 0
M  V30 9603 H 894.021 -4.54026 1.70544 0
M  V30 9604 H 889.9 -4.58494 0.480039 0
M  V30 9605 H 893.444 -5.9424 3.65411 0
M  V30 9606 H 889.341 -5.98413 2.42016 0
M  V30 9607 H 890.109 -7.01057 4.22447 0
M  V30 9608 N 892.772 -0.284283 -1.55015 0
M  V30 9609 C 894.002 0.332465 -2.03907 0
M  V30 9610 C 894.41 1.49331 -1.16177 0
M  V30 9611 O 893.753 1.82851 -0.176395 0
M  V30 9612 C 893.815 0.867193 -3.48884 0
M  V30 9613 C 893.479 -0.166198 -4.56698 0
M  V30 9614 C 894.476 -0.988898 -5.10408 0
M  V30 9615 C 892.161 -0.303081 -5.01385 0
M  V30 9616 C 894.155 -1.93458 -6.07333 0
M  V30 9617 C 891.842 -1.25223 -5.98133 0
M  V30 9618 C 892.84 -2.06647 -6.50988 0
M  V30 9619 O 892.528 -2.99955 -7.45843 0
M  V30 9620 H 892.26 0.0786597 -0.671408 0
M  V30 9621 H 894.814 -0.416871 -2.01125 0
M  V30 9622 H 893.044 1.66676 -3.48935 0
M  V30 9623 H 894.733 1.39802 -3.81065 0
M  V30 9624 H 895.499 -0.89393 -4.76691 0
M  V30 9625 H 891.378 0.320711 -4.59883 0
M  V30 9626 H 894.922 -2.57053 -6.48513 0
M  V30 9627 H 890.819 -1.34798 -6.31268 0
M  V30 9628 H 891.587 -2.94742 -7.6359 0
M  V30 9629 N 894.251 1.57596 -0.0117121 0
M  V30 9630 C 895.481 1.95077 0.680346 0
M  V30 9631 C 895.889 0.885793 1.67184 0
M  V30 9632 O 895.232 -0.142723 1.83145 0
M  V30 9633 C 895.294 3.28611 1.45791 0
M  V30 9634 C 894.958 4.52682 0.626706 0
M  V30 9635 C 895.955 5.19821 -0.0906223 0
M  V30 9636 C 893.64 4.99064 0.569229 0
M  V30 9637 C 895.634 6.31649 -0.854289 0
M  V30 9638 C 893.321 6.10779 -0.198155 0
M  V30 9639 C 894.319 6.76929 -0.908636 0
M  V30 9640 O 894.007 7.86501 -1.66348 0
M  V30 9641 H 893.739 0.647663 0.193672 0
M  V30 9642 H 896.293 2.05305 -0.0624969 0
M  V30 9643 H 894.523 3.14824 2.2455 0
M  V30 9644 H 896.212 3.51119 2.03642 0
M  V30 9645 H 896.978 4.84968 -0.0554421 0
M  V30 9646 H 892.857 4.47393 1.11178 0
M  V30 9647 H 896.401 6.83215 -1.40937 0
M  V30 9648 H 892.298 6.45072 -0.235114 0
M  V30 9649 H 893.066 8.03078 -1.58141 0
M  V30 9650 N 895.729 -0.261212 1.5542 0
M  V30 9651 C 896.957 -1.00916 1.8062 0
M  V30 9652 C 897.372 -1.79494 0.585444 0
M  V30 9653 O 896.729 -1.76974 -0.445702 0
M  V30 9654 C 896.78 -1.95841 3.03856 0
M  V30 9655 O 896.501 -1.20445 4.21218 0
M  V30 9656 C 898.002 -2.82352 3.41749 0
M  V30 9657 H 895.222 -0.297596 0.601397 0
M  V30 9658 H 897.766 -0.288427 2.02456 0
M  V30 9659 H 895.921 -2.63361 2.84112 0
M  V30 9660 H 896.335 -1.84528 4.90968 0
M  V30 9661 H 897.809 -3.44733 4.31118 0
M  V30 9662 H 898.286 -3.5273 2.61683 0
M  V30 9663 H 898.892 -2.20306 3.63793 0
M  V30 9664 N 897.207 -1.48554 -0.526253 0
M  V30 9665 C 898.484 -1.47252 -1.28748 0
M  V30 9666 C 898.864 -0.186245 -2.10277 0
M  V30 9667 O 898.212 0.831954 -2.12816 0
M  V30 9668 C 898.422 -2.73672 -2.16575 0
M  V30 9669 C 899.77 -3.22151 -2.76593 0
M  V30 9670 O 900.794 -2.74614 -2.2686 0
M  V30 9671 O 899.653 -4.04877 -3.67066 0
M  V30 9672 H 896.747 -0.588242 -0.581292 0
M  V30 9673 H 899.293 -1.60792 -0.5426 0
M  V30 9674 H 898.065 -3.58798 -1.56139 0
M  V30 9675 H 897.688 -2.6287 -2.98304 0
M  V30 9676 N 898.685 0.775411 -1.37205 0
M  V30 9677 C 899.934 1.52909 -1.31536 0
M  V30 9678 C 900.247 1.9535 0.0989374 0
M  V30 9679 O 901.453 2.70072 0.278079 0
M  V30 9680 C 899.909 2.761 -2.30861 0
M  V30 9681 C 899.517 2.40773 -3.77799 0
M  V30 9682 C 901.261 3.54052 -2.34195 0
M  V30 9683 C 899.168 3.60444 -4.68865 0
M  V30 9684 H 898.098 0.574061 -0.488845 0
M  V30 9685 H 900.749 0.849642 -1.62645 0
M  V30 9686 H 899.131 3.45916 -1.92764 0
M  V30 9687 H 900.305 1.78764 -4.24712 0
M  V30 9688 H 898.62 1.76004 -3.77375 0
M  V30 9689 H 901.217 4.42992 -2.99437 0
M  V30 9690 H 901.56 3.93649 -1.35449 0
M  V30 9691 H 902.093 2.91229 -2.7098 0
M  V30 9692 H 898.832 3.25932 -5.68725 0
M  V30 9693 H 898.352 4.21571 -4.26659 0
M  V30 9694 H 900.031 4.27302 -4.85821 0
M  V30 9695 N 900.163 1.21714 1.00117 0
M  V30 9696 C 901.11 0.979837 2.08968 0
M  V30 9697 C 902.08 -0.0955324 1.65825 0
M  V30 9698 O 903.265 0.0523742 1.90728 0
M  V30 9699 C 900.405 0.554758 3.40612 0
M  V30 9700 C 899.518 1.69999 3.97145 0
M  V30 9701 C 898.653 1.2237 5.16913 0
M  V30 9702 C 897.692 2.34101 5.65564 0
M  V30 9703 N 896.829 1.87579 6.76579 0
M  V30 9704 H 901.669 1.91167 2.28602 0
M  V30 9705 H 899.206 0.952645 1.12085 0
M  V30 9706 H 901.164 0.289526 4.16194 0
M  V30 9707 H 899.794 -0.340073 3.21004 0
M  V30 9708 H 898.846 2.07976 3.18512 0
M  V30 9709 H 900.158 2.54074 4.29241 0
M  V30 9710 H 899.312 0.915358 5.99755 0
M  V30 9711 H 898.051 0.353045 4.8642 0
M  V30 9712 H 897.056 2.65734 4.81316 0
M  V30 9713 H 898.281 3.21669 5.98085 0
M  V30 9714 H 896.227 1.02863 6.47885 0
M  V30 9715 H 896.144 2.65225 7.07949 0
M  V30 9716 H 897.412 1.5979 7.62947 0
M  V30 9717 N 901.641 -1.19671 1.02551 0
M  V30 9718 C 902.889 -1.88894 0.71858 0
M  V30 9719 C 903.21 -1.79797 -0.754856 0
M  V30 9720 O 902.48 -1.20621 -1.54362 0
M  V30 9721 H 901.06 -0.699244 0.262806 0
M  V30 9722 H 903.722 -1.45298 1.29902 0
M  V30 9723 H 902.818 -2.95309 1.00989 0
M  V30 9724 N 903.119 -0.802921 -1.35613 0
M  V30 9725 C 904.347 -0.39393 -2.03115 0
M  V30 9726 C 904.762 0.993961 -1.60517 0
M  V30 9727 O 904.119 1.63984 -0.800973 0
M  V30 9728 C 904.17 -0.463486 -3.58516 0
M  V30 9729 O 903.891 -1.79666 -3.99565 0
M  V30 9730 C 905.392 -0.0468377 -4.43275 0
M  V30 9731 H 902.612 -0.160519 -0.651517 0
M  V30 9732 H 905.156 -1.08552 -1.73311 0
M  V30 9733 H 903.311 0.179821 -3.86982 0
M  V30 9734 H 903.725 -1.75688 -4.942 0
M  V30 9735 H 905.199 -0.146626 -5.51805 0
M  V30 9736 H 905.676 1.00741 -4.2749 0
M  V30 9737 H 906.282 -0.663158 -4.20098 0
M  V30 9738 N 904.597 1.47463 -0.556102 0
M  V30 9739 C 906.008 1.86298 -0.122429 0
M  V30 9740 C 906.359 1.46285 1.30749 0
M  V30 9741 O 905.484 0.865405 1.98342 0
M  V30 9742 C 906.079 3.38115 -0.215407 0
M  V30 9743 C 904.638 3.76046 0.163223 0
M  V30 9744 C 903.785 2.71515 -0.563466 0
M  V30 9745 H 906.736 1.38996 -0.765888 0
M  V30 9746 H 906.757 3.76263 0.566271 0
M  V30 9747 H 906.269 3.67207 -1.25622 0
M  V30 9748 H 904.37 3.5257 1.20519 0
M  V30 9749 H 904.483 4.78705 -0.194568 0
M  V30 9750 H 902.847 2.54699 -0.00667879 0
M  V30 9751 H 903.63 3.03449 -1.60542 0
M  V30 9752 N 906.075 0.2925 1.54862 0
M  V30 9753 C 907.322 -0.319263 1.99967 0
M  V30 9754 C 907.65 -1.54547 1.18092 0
M  V30 9755 O 906.905 -1.94186 0.242969 0
M  V30 9756 C 907.204 -0.728674 3.49893 0
M  V30 9757 C 906.87 0.394836 4.49168 0
M  V30 9758 C 905.532 0.703289 4.76033 0
M  V30 9759 C 907.884 1.15103 5.08331 0
M  V30 9760 C 905.212 1.77121 5.59325 0
M  V30 9761 C 907.564 2.20881 5.92785 0
M  V30 9762 C 906.228 2.52342 6.17964 0
M  V30 9763 H 905.498 -0.116827 0.731733 0
M  V30 9764 H 908.145 0.40983 1.87063 0
M  V30 9765 H 906.45 -1.53772 3.60363 0
M  V30 9766 H 908.147 -1.21305 3.82212 0
M  V30 9767 H 904.737 0.144319 4.28357 0
M  V30 9768 H 908.921 0.92599 4.87585 0
M  V30 9769 H 904.177 2.01978 5.77074 0
M  V30 9770 H 908.351 2.79939 6.37657 0
M  V30 9771 H 905.978 3.35225 6.82296 0
M  V30 9772 N 907.553 -1.57587 0.0200696 0
M  V30 9773 C 908.778 -1.96124 -0.674547 0
M  V30 9774 C 909.203 -0.896068 -1.65385 0
M  V30 9775 O 908.561 0.143925 -1.80728 0
M  V30 9776 C 908.609 -3.3376 -1.36517 0
M  V30 9777 O 907.713 -3.29483 -2.48022 0
M  V30 9778 H 907.054 -0.639719 -0.177919 0
M  V30 9779 H 909.584 -2.04447 0.0792317 0
M  V30 9780 H 909.594 -3.69785 -1.72403 0
M  V30 9781 H 908.269 -4.10832 -0.647265 0
M  V30 9782 H 906.846 -3.05162 -2.14314 0
M  V30 9783 N 909.032 0.252966 -1.55557 0
M  V30 9784 C 909.962 1.31691 -1.9282 0
M  V30 9785 C 910.943 1.50516 -0.7924 0
M  V30 9786 O 912.128 1.63225 -1.05219 0
M  V30 9787 C 909.258 2.67281 -2.21762 0
M  V30 9788 C 908.212 2.6316 -3.37536 0
M  V30 9789 C 907.538 4.02488 -3.52005 0
M  V30 9790 C 908.838 2.20675 -4.73392 0
M  V30 9791 H 910.532 1.00751 -2.81939 0
M  V30 9792 H 908.078 0.483219 -1.3565 0
M  V30 9793 H 910.031 3.41842 -2.46419 0
M  V30 9794 H 908.755 2.99845 -1.29463 0
M  V30 9795 H 907.414 1.91057 -3.12878 0
M  V30 9796 H 907.062 4.32307 -2.57137 0
M  V30 9797 H 906.762 4.00621 -4.29857 0
M  V30 9798 H 908.286 4.78758 -3.78977 0
M  V30 9799 H 909.7 2.84965 -4.97461 0
M  V30 9800 H 908.097 2.29931 -5.54303 0
M  V30 9801 H 909.167 1.15831 -4.70862 0
M  V30 9802 N 910.51 1.48831 0.518367 0
M  V30 9803 C 911.758 1.57128 1.27103 0
M  V30 9804 C 912.079 0.252098 1.93364 0
M  V30 9805 O 911.349 -0.727281 1.819 0
M  V30 9806 H 909.929 0.578891 0.472116 0
M  V30 9807 H 912.591 1.85361 0.602262 0
M  V30 9808 H 911.687 2.35838 2.04418 0
M  V30 9809 N 911.988 -0.768124 1.37614 0
M  V30 9810 C 913.234 -1.52907 1.33219 0
M  V30 9811 C 913.567 -1.94026 -0.0821218 0
M  V30 9812 O 912.842 -1.64345 -1.04023 0
M  V30 9813 C 913.125 -2.79164 2.27463 0
M  V30 9814 C 912.978 -2.44276 3.7769 0
M  V30 9815 C 914.297 -3.81115 2.20089 0
M  V30 9816 H 911.416 -0.554712 0.485246 0
M  V30 9817 H 914.058 -0.880911 1.68345 0
M  V30 9818 H 912.208 -3.34472 1.97639 0
M  V30 9819 H 913.88 -1.94855 4.18126 0
M  V30 9820 H 912.123 -1.76925 3.96081 0
M  V30 9821 H 912.794 -3.34544 4.39072 0
M  V30 9822 H 915.27 -3.35311 2.46386 0
M  V30 9823 H 914.146 -4.67174 2.88166 0
M  V30 9824 H 914.407 -4.25644 1.19498 0
M  V30 9825 N 913.466 -1.22244 -0.994698 0
M  V30 9826 C 914.429 -0.992308 -2.06606 0
M  V30 9827 C 915.429 0.0405872 -1.60749 0
M  V30 9828 O 916.619 -0.197737 -1.73074 0
M  V30 9829 C 913.751 -0.498499 -3.37236 0
M  V30 9830 H 914.944 -1.9429 -2.28455 0
M  V30 9831 H 912.497 -1.04087 -1.166 0
M  V30 9832 H 913.232 0.456531 -3.21071 0
M  V30 9833 H 913.017 -1.24367 -3.71854 0
M  V30 9834 H 914.507 -0.35768 -4.16065 0
M  V30 9835 N 914.944 1.19125 -1.03184 0
M  V30 9836 C 915.874 2.24675 -0.635889 0
M  V30 9837 C 916.855 1.66321 0.356565 0
M  V30 9838 O 918.04 1.92728 0.238625 0
M  V30 9839 C 915.17 3.47298 0.011069 0
M  V30 9840 C 914.124 4.18345 -0.903979 0
M  V30 9841 C 913.45 5.34561 -0.12197 0
M  V30 9842 C 914.75 4.72816 -2.21907 0
M  V30 9843 H 916.444 2.5805 -1.51825 0
M  V30 9844 H 913.99 1.24039 -0.73146 0
M  V30 9845 H 915.943 4.20333 0.299729 0
M  V30 9846 H 914.667 3.13131 0.928245 0
M  V30 9847 H 913.326 3.47196 -1.17688 0
M  V30 9848 H 912.974 4.9664 0.797334 0
M  V30 9849 H 912.674 5.83029 -0.731498 0
M  V30 9850 H 914.198 6.10391 0.159881 0
M  V30 9851 H 915.612 5.3759 -1.99173 0
M  V30 9852 H 914.009 5.31782 -2.78078 0
M  V30 9853 H 915.079 3.9072 -2.87168 0
M  V30 9854 N 916.422 0.810101 1.35185 0
M  V30 9855 C 917.647 0.40364 2.03434 0
M  V30 9856 C 918.072 -0.97857 1.60641 0
M  V30 9857 O 917.43 -1.63435 0.784779 0
M  V30 9858 C 917.478 0.499154 3.57129 0
M  V30 9859 O 916.582 -0.486039 4.09526 0
M  V30 9860 H 915.923 0.168049 0.642383 0
M  V30 9861 H 918.453 1.09696 1.72708 0
M  V30 9862 H 918.463 0.370236 4.06317 0
M  V30 9863 H 917.138 1.50733 3.87624 0
M  V30 9864 H 915.715 -0.31707 3.7155 0
M  V30 9865 N 917.9 -1.47166 0.563914 0
M  V30 9866 C 919.316 -1.58018 0.224173 0
M  V30 9867 C 919.516 -1.56163 -1.27339 0
M  V30 9868 O 918.572 -1.4686 -2.05398 0
M  V30 9869 C 919.885 -2.88236 0.856762 0
M  V30 9870 C 921.433 -3.01833 0.82861 0
M  V30 9871 C 921.908 -4.34761 1.44039 0
M  V30 9872 N 923.399 -4.41413 1.40388 0
M  V30 9873 C 924.134 -5.42845 1.84681 0
M  V30 9874 N 923.63 -6.51052 2.3686 0
M  V30 9875 N 925.423 -5.33931 1.75711 0
M  V30 9876 H 917.574 -1.46615 1.53681 0
M  V30 9877 H 919.837 -0.698195 0.64127 0
M  V30 9878 H 919.543 -2.95349 1.90949 0
M  V30 9879 H 919.417 -3.75537 0.353766 0
M  V30 9880 H 921.804 -2.94312 -0.215451 0
M  V30 9881 H 921.885 -2.16056 1.36943 0
M  V30 9882 H 921.529 -4.43037 2.48355 0
M  V30 9883 H 921.459 -5.1928 0.874953 0
M  V30 9884 H 923.95 -3.63811 1.02227 0
M  V30 9885 H 924.263 -7.24633 2.68564 0
M  V30 9886 H 922.608 -6.51924 2.40875 0
M  V30 9887 H 925.799 -4.48295 1.34718 0
M  V30 9888 H 925.972 -6.12841 2.10547 0
M  V30 9889 N 919.378 -0.300708 -1.54705 0
M  V30 9890 C 920.626 0.308044 -1.99739 0
M  V30 9891 C 920.947 1.54433 -1.19061 0
M  V30 9892 O 920.217 1.93794 -0.286507 0
M  V30 9893 H 918.797 0.116811 -0.73781 0
M  V30 9894 H 921.459 -0.41197 -1.90496 0
M  V30 9895 H 920.555 0.580287 -3.06658 0
M  V30 9896 N 920.856 1.57574 -0.0284266 0
M  V30 9897 C 921.806 2.06674 0.962804 0
M  V30 9898 C 922.79 0.967115 1.28591 0
M  V30 9899 O 923.982 1.23068 1.27214 0
M  V30 9900 C 921.111 2.59682 2.24545 0
M  V30 9901 C 920.197 3.76573 1.95073 0
M  V30 9902 N 920.588 4.8721 1.35869 0
M  V30 9903 C 918.886 3.85046 2.25068 0
M  V30 9904 C 919.587 5.68436 1.23514 0
M  V30 9905 N 918.563 5.15323 1.73041 0
M  V30 9906 H 922.365 2.89615 0.500013 0
M  V30 9907 H 919.879 1.61437 0.176604 0
M  V30 9908 H 921.876 2.93148 2.96428 0
M  V30 9909 H 920.536 1.7817 2.71451 0
M  V30 9910 H 921.547 5.07477 1.03379 0
M  V30 9911 H 918.224 3.14439 2.74653 0
M  V30 9912 H 919.614 6.67387 0.777403 0
M  V30 9913 N 922.334 -0.244713 1.55689 0
M  V30 9914 C 923.582 -0.970525 1.77272 0
M  V30 9915 C 923.903 -1.85771 0.592804 0
M  V30 9916 O 923.173 -1.91952 -0.391323 0
M  V30 9917 H 921.753 -0.361342 0.653789 0
M  V30 9918 H 924.415 -0.262134 1.93129 0
M  V30 9919 H 923.511 -1.59096 2.68505 0
M  V30 9920 N 923.813 -1.49104 -0.510467 0
M  V30 9921 C 924.76 -1.65074 -1.61305 0
M  V30 9922 C 925.73 -0.492362 -1.58635 0
M  V30 9923 O 926.915 -0.718241 -1.76765 0
M  V30 9924 C 924.055 -1.71457 -2.99493 0
M  V30 9925 C 923.168 -2.98536 -3.12251 0
M  V30 9926 C 922.303 -2.95957 -4.41116 0
M  V30 9927 C 921.342 -4.17655 -4.47471 0
M  V30 9928 N 920.479 -4.13041 -5.67751 0
M  V30 9929 H 925.319 -2.59222 -1.46996 0
M  V30 9930 H 922.856 -1.28535 -0.715346 0
M  V30 9931 H 924.814 -1.7314 -3.79577 0
M  V30 9932 H 923.444 -0.807834 -3.12528 0
M  V30 9933 H 922.496 -3.06509 -2.25292 0
M  V30 9934 H 923.808 -3.88527 -3.12807 0
M  V30 9935 H 922.962 -2.96149 -5.2951 0
M  V30 9936 H 921.701 -2.03728 -4.4311 0
M  V30 9937 H 920.706 -4.17717 -3.57481 0
M  V30 9938 H 921.931 -5.11066 -4.472 0
M  V30 9939 H 919.877 -3.23643 -5.70606 0
M  V30 9940 H 919.794 -4.96757 -5.69884 0
M  V30 9941 H 921.062 -4.17322 -6.58379 0
M  V30 9942 N 925.291 0.760815 -1.38019 0
M  V30 9943 C 926.521 1.54776 -1.3685 0
M  V30 9944 C 926.929 1.89146 0.0453971 0
M  V30 9945 O 926.272 1.52746 1.0205 0
M  V30 9946 C 926.334 2.87923 -2.15269 0
M  V30 9947 C 925.998 2.76131 -3.64144 0
M  V30 9948 C 926.995 2.46417 -4.57794 0
M  V30 9949 C 924.68 2.9381 -4.07408 0
M  V30 9950 C 926.674 2.34525 -5.92686 0
M  V30 9951 C 924.361 2.81539 -5.42383 0
M  V30 9952 C 925.359 2.51938 -6.34836 0
M  V30 9953 O 925.047 2.39713 -7.67329 0
M  V30 9954 H 924.779 0.485776 -0.470104 0
M  V30 9955 H 927.333 0.949939 -1.82113 0
M  V30 9956 H 925.563 3.49867 -1.64712 0
M  V30 9957 H 927.252 3.49389 -2.06596 0
M  V30 9958 H 928.018 2.32433 -4.25676 0
M  V30 9959 H 923.897 3.15849 -3.35799 0
M  V30 9960 H 927.441 2.11342 -6.64816 0
M  V30 9961 H 923.338 2.95093 -5.741 0
M  V30 9962 H 924.106 2.5498 -7.77771 0
M  V30 9963 N 926.769 1.22769 0.988202 0
M  V30 9964 C 928.016 1.05509 1.72841 0
M  V30 9965 C 928.344 -0.409145 1.90148 0
M  V30 9966 O 927.599 -1.3195 1.44526 0
M  V30 9967 C 927.898 1.71679 3.13466 0
M  V30 9968 C 927.564 3.21584 3.16061 0
M  V30 9969 C 926.226 3.62486 3.16476 0
M  V30 9970 C 928.578 4.17511 3.11984 0
M  V30 9971 C 925.906 4.97789 3.10521 0
M  V30 9972 C 928.258 5.52796 3.0757 0
M  V30 9973 C 926.922 5.93072 3.06304 0
M  V30 9974 H 926.192 0.386085 0.632471 0
M  V30 9975 H 928.839 1.52596 1.157 0
M  V30 9976 H 927.144 1.1693 3.73945 0
M  V30 9977 H 928.841 1.55809 3.69492 0
M  V30 9978 H 925.431 2.89019 3.1649 0
M  V30 9979 H 929.615 3.86926 3.10809 0
M  V30 9980 H 924.871 5.28218 3.07888 0
M  V30 9981 H 929.045 6.26848 3.03372 0
M  V30 9982 H 926.672 6.97879 3.01444 0
M  V30 9983 N 928.247 -1.18576 1.03814 0
M  V30 9984 C 929.494 -1.88493 0.740036 0
M  V30 9985 C 929.822 -1.80198 -0.732056 0
M  V30 9986 O 929.077 -1.19509 -1.54971 0
M  V30 9987 C 929.376 -3.38448 1.14837 0
M  V30 9988 C 929.042 -3.66947 2.62031 0
M  V30 9989 C 927.704 -3.74435 3.02244 0
M  V30 9990 C 930.056 -3.79534 3.57217 0
M  V30 9991 C 927.384 -3.91986 4.36536 0
M  V30 9992 C 929.736 -3.986 4.91223 0
M  V30 9993 C 928.4 -4.04323 5.31111 0
M  V30 9994 H 927.67 -0.689746 0.270798 0
M  V30 9995 H 930.317 -1.40364 1.3027 0
M  V30 9996 H 928.622 -3.88539 0.504472 0
M  V30 9997 H 930.319 -3.90882 0.89511 0
M  V30 9998 H 926.909 -3.61734 2.29883 0
M  V30 9999 H 931.093 -3.73083 3.27296 0
M  V30 10000 H 926.349 -3.9466 4.66962 0
M  V30 10001 H 930.523 -4.07281 5.64885 0
M  V30 10002 H 928.15 -4.17676 6.35178 0
M  V30 10003 N 929.725 -0.817259 -1.34754 0
M  V30 10004 C 931.141 -0.502309 -1.51489 0
M  V30 10005 C 931.341 0.974568 -1.76364 0
M  V30 10006 O 930.397 1.75924 -1.81127 0
M  V30 10007 C 931.71 -1.35693 -2.68343 0
M  V30 10008 C 933.258 -1.35347 -2.82224 0
M  V30 10009 C 933.733 -2.19244 -4.02114 0
M  V30 10010 N 935.224 -2.16837 -4.09311 0
M  V30 10011 C 935.959 -2.78505 -5.01221 0
M  V30 10012 N 935.455 -3.4914 -5.98392 0
M  V30 10013 N 937.248 -2.68089 -4.94049 0
M  V30 10014 H 929.399 -1.77359 -1.16866 0
M  V30 10015 H 931.662 -0.755476 -0.572678 0
M  V30 10016 H 931.368 -2.40548 -2.56573 0
M  V30 10017 H 931.242 -1.01764 -3.63213 0
M  V30 10018 H 933.629 -0.312727 -2.93438 0
M  V30 10019 H 933.71 -1.7327 -1.88179 0
M  V30 10020 H 933.354 -3.23365 -3.9166 0
M  V30 10021 H 933.284 -1.78675 -4.95361 0
M  V30 10022 H 935.775 -1.65452 -3.39756 0
M  V30 10023 H 936.088 -3.93455 -6.65141 0
M  V30 10024 H 934.433 -3.53246 -5.98533 0
M  V30 10025 H 937.624 -2.12485 -4.17094 0
M  V30 10026 H 937.797 -3.16436 -5.65484 0
M  V30 10027 N 931.203 1.46865 -0.571711 0
M  V30 10028 C 932.451 2.0203 -0.0530022 0
M  V30 10029 C 932.772 1.44687 1.30731 0
M  V30 10030 O 932.042 0.627429 1.85581 0
M  V30 10031 H 930.622 0.746815 -0.0166035 0
M  V30 10032 H 933.284 1.80099 -0.745003 0
M  V30 10033 H 932.38 3.12091 0.0242538 0
M  V30 10034 N 932.681 0.308908 1.54543 0
M  V30 10035 C 933.629 -0.579326 2.2527 0
M  V30 10036 C 934.623 -1.13058 1.26152 0
M  V30 10037 O 935.829 -1.08031 1.43977 0
M  V30 10038 H 932.204 -0.205444 0.723392 0
M  V30 10039 H 934.175 0.0396415 2.98374 0
M  V30 10040 C 932.924 -1.73584 3.01271 0
M  V30 10041 H 932.247 -1.32089 3.77349 0
M  V30 10042 H 933.687 -2.33324 3.54028 0
M  V30 10043 C 932.146 -2.6447 2.08703 0
M  V30 10044 O 932.676 -3.65785 1.66025 0
M  V30 10045 N 930.882 -2.32379 1.74495 0
M  V30 10046 H 930.429 -1.50034 2.09398 0
M  V30 10047 H 930.387 -2.93454 1.12836 0
M  V30 10048 N 934.159 -1.57557 0.0367827 0
M  V30 10049 C 935.405 -1.92399 -0.641133 0
M  V30 10050 C 935.738 -0.914191 -1.71336 0
M  V30 10051 O 935.013 0.0619616 -1.94401 0
M  V30 10052 C 935.296 -3.37689 -1.25052 0
M  V30 10053 C 935.149 -4.4941 -0.187326 0
M  V30 10054 C 936.468 -3.8309 -2.16634 0
M  V30 10055 H 933.587 -0.699666 -0.231597 0
M  V30 10056 H 936.229 -1.89759 0.0956083 0
M  V30 10057 H 934.379 -3.40069 -1.87843 0
M  V30 10058 H 936.051 -4.59161 0.443736 0
M  V30 10059 H 934.294 -4.31065 0.486313 0
M  V30 10060 H 934.965 -5.48119 -0.653459 0
M  V30 10061 H 937.441 -3.82494 -1.63821 0
M  V30 10062 H 936.317 -4.85429 -2.56222 0
M  V30 10063 H 936.578 -3.19028 -3.06062 0
M  V30 10064 N 935.637 0.236453 -1.55816 0
M  V30 10065 C 936.865 0.980295 -1.82203 0
M  V30 10066 C 937.28 1.7854 -0.613926 0
M  V30 10067 O 936.637 1.77661 0.417491 0
M  V30 10068 C 936.688 1.90982 -3.06933 0
M  V30 10069 O 936.409 1.13728 -4.23081 0
M  V30 10070 C 937.91 2.76879 -3.46198 0
M  V30 10071 H 935.13 0.28799 -0.606055 0
M  V30 10072 H 937.674 0.256182 -2.02889 0
M  V30 10073 H 935.829 2.58808 -2.88266 0
M  V30 10074 H 936.243 1.76694 -4.93842 0
M  V30 10075 H 937.717 3.37831 -4.36548 0
M  V30 10076 H 938.194 3.48522 -2.67262 0
M  V30 10077 H 938.8 2.1449 -3.67252 0
M  V30 10078 N 937.115 1.49373 0.502552 0
M  V30 10079 C 938.364 1.58028 1.25339 0
M  V30 10080 C 938.677 0.271494 1.93707 0
M  V30 10081 O 939.883 0.236584 2.70467 0
M  V30 10082 C 938.339 2.78817 2.27572 0
M  V30 10083 C 937.947 4.16448 1.65151 0
M  V30 10084 C 939.691 2.96802 3.03494 0
M  V30 10085 C 937.598 5.28461 2.65486 0
M  V30 10086 H 936.528 0.588396 0.471494 0
M  V30 10087 H 939.179 1.75756 0.52744 0
M  V30 10088 H 937.561 2.5458 3.03323 0
M  V30 10089 H 938.735 4.50816 0.954029 0
M  V30 10090 H 937.05 4.03809 1.01625 0
M  V30 10091 H 939.647 3.77656 3.78524 0
M  V30 10092 H 939.99 2.07303 3.61014 0
M  V30 10093 H 940.523 3.21071 2.34858 0
M  V30 10094 H 937.262 6.20015 2.12749 0
M  V30 10095 H 936.782 4.9855 3.33479 0
M  V30 10096 H 938.461 5.5773 3.27943 0
M  V30 10097 N 938.594 -0.753485 1.38421 0
M  V30 10098 C 939.504 -1.89797 1.37892 0
M  V30 10099 C 940.52 -1.71797 0.276023 0
M  V30 10100 O 941.696 -1.94718 0.514464 0
M  V30 10101 C 938.761 -3.25166 1.20284 0
M  V30 10102 C 937.822 -3.55691 2.4038 0
M  V30 10103 C 937.055 -4.84601 2.23602 0
M  V30 10104 O 937.278 -5.56985 1.22979 0
M  V30 10105 O 936.212 -5.14605 3.12194 0
M  V30 10106 H 940.038 -1.93197 2.34326 0
M  V30 10107 H 937.623 -0.898775 1.19342 0
M  V30 10108 H 939.505 -4.06099 1.12525 0
M  V30 10109 H 938.18 -3.22577 0.269352 0
M  V30 10110 H 937.087 -2.74919 2.53714 0
M  V30 10111 H 938.42 -3.6304 3.32359 0
M  V30 10112 N 940.072 -1.23292 -0.981677 0
M  V30 10113 C 940.982 -1.02964 -2.10798 0
M  V30 10114 C 941.998 0.0254674 -1.73981 0
M  V30 10115 O 943.174 -0.169706 -2.00684 0
M  V30 10116 C 940.239 -0.621934 -3.41076 0
M  V30 10117 C 939.3 -1.75194 -3.91926 0
M  V30 10118 C 938.533 -1.36359 -5.15986 0
M  V30 10119 O 938.756 -0.247265 -5.69864 0
M  V30 10120 O 937.69 -2.18421 -5.60871 0
M  V30 10121 H 941.516 -1.97354 -2.30836 0
M  V30 10122 H 939.101 -1.01986 -1.09175 0
M  V30 10123 H 940.983 -0.405446 -4.19445 0
M  V30 10124 H 939.658 0.29299 -3.22371 0
M  V30 10125 H 938.565 -2.02305 -3.1468 0
M  V30 10126 H 939.898 -2.64513 -4.15083 0
M  V30 10127 N 941.55 1.18024 -1.04442 0
M  V30 10128 C 942.798 1.87727 -0.74854 0
M  V30 10129 C 943.119 1.80975 0.726156 0
M  V30 10130 O 942.389 1.23061 1.52423 0
M  V30 10131 H 940.969 0.694974 -0.273897 0
M  V30 10132 H 943.631 1.43213 -1.32197 0
M  V30 10133 H 942.727 2.93665 -1.05674 0
M  V30 10134 N 943.028 0.824394 1.34319 0
M  V30 10135 C 943.958 0.262077 2.32025 0
M  V30 10136 C 944.939 -0.622277 1.58309 0
M  V30 10137 O 946.124 -0.548848 1.86283 0
M  V30 10138 C 943.254 -0.57567 3.42496 0
M  V30 10139 C 942.208 0.21167 4.27476 0
M  V30 10140 C 941.534 -0.748913 5.29429 0
M  V30 10141 C 942.834 1.42068 5.02607 0
M  V30 10142 H 944.528 1.07842 2.79304 0
M  V30 10143 H 942.074 0.520022 1.34282 0
M  V30 10144 H 944.027 -0.979251 4.09864 0
M  V30 10145 H 942.751 -1.42508 2.93869 0
M  V30 10146 H 941.41 0.596636 3.61712 0
M  V30 10147 H 941.058 -1.59432 4.77064 0
M  V30 10148 H 940.758 -0.226313 5.87164 0
M  V30 10149 H 942.282 -1.15032 5.99667 0
M  V30 10150 H 943.696 1.09103 5.62823 0
M  V30 10151 H 942.093 1.87903 5.69923 0
M  V30 10152 H 943.163 2.1981 4.32217 0
M  V30 10153 N 944.506 -1.46559 0.579492 0
M  V30 10154 C 945.456 -2.27316 -0.17645 0
M  V30 10155 C 946.44 -1.35681 -0.864835 0
M  V30 10156 O 947.632 -1.59879 -0.759462 0
M  V30 10157 C 944.761 -3.21957 -1.19157 0
M  V30 10158 C 943.847 -4.21077 -0.505459 0
M  V30 10159 N 944.238 -5.03908 0.437133 0
M  V30 10160 C 942.536 -4.39535 -0.75661 0
M  V30 10161 C 943.237 -5.75635 0.837819 0
M  V30 10162 N 942.213 -5.43276 0.187679 0
M  V30 10163 H 946.015 -2.88747 0.547932 0
M  V30 10164 H 943.529 -1.5737 0.401048 0
M  V30 10165 H 945.526 -3.78518 -1.74728 0
M  V30 10166 H 944.186 -2.62085 -1.9168 0
M  V30 10167 H 945.197 -5.11487 0.812488 0
M  V30 10168 H 941.874 -3.90815 -1.46867 0
M  V30 10169 H 943.264 -6.52235 1.61364 0
M  V30 10170 N 945.984 -0.3171 -1.54377 0
M  V30 10171 C 947.261 0.341348 -1.92598 0
M  V30 10172 C 947.641 1.70402 -1.24605 0
M  V30 10173 O 946.989 2.25191 -0.387448 0
M  V30 10174 C 947.199 0.440003 -3.46215 0
M  V30 10175 C 948.547 0.703327 -4.18734 0
M  V30 10176 O 949.571 0.523181 -3.52337 0
M  V30 10177 O 948.43 1.05042 -5.3631 0
M  V30 10178 H 945.524 0.193696 -0.803997 0
M  V30 10179 H 948.07 -0.366341 -1.65699 0
M  V30 10180 H 946.842 -0.517299 -3.87866 0
M  V30 10181 H 946.465 1.19553 -3.792 0
M  V30 10182 N 947.462 1.57535 -0.0451378 0
M  V30 10183 C 948.392 2.14208 0.929372 0
M  V30 10184 C 949.373 1.06221 1.32858 0
M  V30 10185 O 950.558 1.34132 1.40436 0
M  V30 10186 C 947.688 2.68217 2.20629 0
M  V30 10187 C 946.642 3.81134 1.94734 0
M  V30 10188 C 945.968 4.21636 3.28828 0
M  V30 10189 C 947.268 5.06531 1.27374 0
M  V30 10190 H 948.962 2.95886 0.457348 0
M  V30 10191 H 946.508 1.42332 0.218544 0
M  V30 10192 H 948.461 3.06502 2.89196 0
M  V30 10193 H 947.185 1.83722 2.70026 0
M  V30 10194 H 945.844 3.43312 1.28579 0
M  V30 10195 H 945.492 3.34099 3.76014 0
M  V30 10196 H 945.192 4.97736 3.12302 0
M  V30 10197 H 946.716 4.62516 3.98637 0
M  V30 10198 H 948.13 5.423 1.85967 0
M  V30 10199 H 946.527 5.87735 1.21194 0
M  V30 10200 H 947.597 4.84261 0.248913 0
M  V30 10201 N 948.94 -0.228186 1.55939 0
M  V30 10202 C 949.85 -1.30386 1.9503 0
M  V30 10203 C 950.866 -1.51645 0.853218 0
M  V30 10204 O 952.042 -1.64904 1.15623 0
M  V30 10205 C 949.107 -2.63489 2.25332 0
M  V30 10206 C 948.168 -2.5059 3.48573 0
M  V30 10207 C 947.401 -3.77345 3.7742 0
M  V30 10208 O 947.624 -4.80067 3.08045 0
M  V30 10209 O 946.558 -3.74855 4.70922 0
M  V30 10210 H 950.384 -1.0022 2.86687 0
M  V30 10211 H 947.969 -0.430503 1.43063 0
M  V30 10212 H 949.851 -3.4211 2.46046 0
M  V30 10213 H 948.526 -2.93349 1.3685 0
M  V30 10214 H 947.433 -1.70191 3.33145 0
M  V30 10215 H 948.766 -2.2567 4.37417 0
M  V30 10216 N 950.418 -1.49637 -0.494624 0
M  V30 10217 C 951.368 -1.63168 -1.59249 0
M  V30 10218 C 952.352 -0.487089 -1.5335 0
M  V30 10219 O 953.544 -0.74036 -1.60772 0
M  V30 10220 C 950.673 -1.70744 -2.97828 0
M  V30 10221 C 949.759 -2.90802 -3.08699 0
M  V30 10222 N 950.15 -4.14797 -2.89442 0
M  V30 10223 C 948.448 -2.88871 -3.39808 0
M  V30 10224 C 949.149 -4.95535 -3.04663 0
M  V30 10225 N 948.125 -4.29025 -3.33824 0
M  V30 10226 H 951.927 -2.56751 -1.43024 0
M  V30 10227 H 949.441 -1.46497 -0.700885 0
M  V30 10228 H 951.438 -1.78537 -3.76736 0
M  V30 10229 H 950.098 -0.783024 -3.15117 0
M  V30 10230 H 951.109 -4.44675 -2.6549 0
M  V30 10231 H 947.786 -2.05834 -3.63233 0
M  V30 10232 H 949.176 -6.0406 -2.94214 0
M  V30 10233 N 951.896 0.746133 -1.38819 0
M  V30 10234 C 953.307 1.32384 -1.31648 0
M  V30 10235 C 953.658 1.96185 0.0243086 0
M  V30 10236 O 952.783 1.95567 0.92641 0
M  V30 10237 C 953.378 2.40712 -2.38418 0
M  V30 10238 C 951.937 2.94185 -2.34803 0
M  V30 10239 C 951.084 1.67639 -2.20891 0
M  V30 10240 H 954.035 0.544457 -1.49068 0
M  V30 10241 H 954.056 3.20833 -2.04564 0
M  V30 10242 H 953.568 1.94247 -3.3599 0
M  V30 10243 H 951.669 3.44959 -1.40834 0
M  V30 10244 H 951.782 3.48057 -3.29231 0
M  V30 10245 H 950.146 1.9155 -1.67871 0
M  V30 10246 H 950.929 1.23242 -3.20416 0
M  V30 10247 N 953.375 1.23811 0.975125 0
M  V30 10248 C 954.652 0.9815 1.69192 0
M  V30 10249 C 955.032 -0.498373 2.05133 0
M  V30 10250 O 954.38 -1.47087 1.74864 0
M  V30 10251 C 954.59 1.89701 2.92941 0
M  V30 10252 C 955.938 2.16357 3.65342 0
M  V30 10253 O 956.962 1.87293 3.02985 0
M  V30 10254 O 955.821 2.65675 4.77576 0
M  V30 10255 H 952.915 0.370599 0.739314 0
M  V30 10256 H 955.461 1.34876 1.02988 0
M  V30 10257 H 954.233 2.89719 2.63018 0
M  V30 10258 H 953.856 1.53244 3.66881 0
M  V30 10259 N 954.853 -1.17469 1.05066 0
M  V30 10260 C 956.099 -1.87976 0.761113 0
M  V30 10261 C 956.432 -1.80756 -0.709995 0
M  V30 10262 O 955.707 -1.21469 -1.51906 0
M  V30 10263 C 955.99 -3.38055 1.2406 0
M  V30 10264 C 955.843 -3.54032 2.77455 0
M  V30 10265 C 957.162 -4.32036 0.838612 0
M  V30 10266 H 954.281 -0.682573 0.277963 0
M  V30 10267 H 956.923 -1.38147 1.30443 0
M  V30 10268 H 955.073 -3.80622 0.778388 0
M  V30 10269 H 956.745 -3.20489 3.3179 0
M  V30 10270 H 954.988 -2.96352 3.16793 0
M  V30 10271 H 955.659 -4.59377 3.06066 0
M  V30 10272 H 958.135 -3.97303 1.23651 0
M  V30 10273 H 957.011 -5.35583 1.20173 0
M  V30 10274 H 957.272 -4.41349 -0.257498 0
M  V30 10275 N 956.331 -0.831506 -1.3388 0
M  V30 10276 C 957.556 -0.435954 -2.02766 0
M  V30 10277 C 957.981 0.952889 -1.62178 0
M  V30 10278 O 957.339 1.62166 -0.810681 0
M  V30 10279 C 957.387 -0.555907 -3.56289 0
M  V30 10280 O 956.491 0.420826 -4.10247 0
M  V30 10281 H 955.832 -0.178248 -0.639628 0
M  V30 10282 H 958.362 -1.1243 -1.70941 0
M  V30 10283 H 958.372 -0.434831 -4.05676 0
M  V30 10284 H 957.047 -1.56881 -3.85177 0
M  V30 10285 H 955.624 0.257919 -3.72007 0
M  V30 10286 N 957.809 1.4625 -0.587256 0
M  V30 10287 C 958.739 2.33132 0.131076 0
M  V30 10288 C 959.72 1.45619 0.879158 0
M  V30 10289 O 960.905 1.74428 0.853723 0
M  V30 10290 C 958.035 3.27975 1.14236 0
M  V30 10291 C 956.989 4.24965 0.508819 0
M  V30 10292 C 956.315 5.09349 1.62689 0
M  V30 10293 C 957.615 5.19322 -0.55694 0
M  V30 10294 H 959.309 2.93442 -0.594333 0
M  V30 10295 H 956.855 1.41106 -0.287263 0
M  V30 10296 H 958.808 3.87614 1.65328 0
M  V30 10297 H 957.532 2.65781 1.8981 0
M  V30 10298 H 956.191 3.66595 0.0189337 0
M  V30 10299 H 955.839 4.43537 2.37242 0
M  V30 10300 H 955.539 5.75036 1.20861 0
M  V30 10301 H 957.063 5.71852 2.14049 0
M  V30 10302 H 958.477 5.73151 -0.130903 0
M  V30 10303 H 956.874 5.93376 -0.895801 0
M  V30 10304 H 957.944 4.62979 -1.44148 0
M  V30 10305 N 959.287 0.325282 1.54207 0
M  V30 10306 C 960.25 -0.527228 2.23054 0
M  V30 10307 C 961.25 -1.04217 1.22456 0
M  V30 10308 O 962.44 -0.934325 1.47024 0
M  V30 10309 C 959.572 -1.7325 2.93594 0
M  V30 10310 H 960.765 0.0746423 2.99807 0
M  V30 10311 H 958.318 0.0763872 1.56113 0
M  V30 10312 H 959.053 -2.37356 2.20981 0
M  V30 10313 H 958.838 -1.37065 3.67363 0
M  V30 10314 H 960.328 -2.3376 3.46043 0
M  V30 10315 N 960.765 -1.57509 0.0534917 0
M  V30 10316 C 962.042 -1.84137 -0.659767 0
M  V30 10317 C 962.422 -0.942362 -1.88899 0
M  V30 10318 O 961.77 -0.00398566 -2.285 0
M  V30 10319 C 961.98 -3.33919 -1.01486 0
M  V30 10320 C 963.328 -4.00989 -1.39616 0
M  V30 10321 O 964.352 -3.38557 -1.10713 0
M  V30 10322 O 963.211 -5.11071 -1.93567 0
M  V30 10323 H 960.305 -0.760081 -0.325893 0
M  V30 10324 H 962.851 -1.69497 0.0830315 0
M  V30 10325 H 961.623 -3.91046 -0.141041 0
M  V30 10326 H 961.246 -3.53755 -1.81503 0
M  V30 10327 N 962.243 0.219913 -1.56058 0
M  V30 10328 C 963.153 1.29349 -1.95719 0
M  V30 10329 C 964.169 1.5119 -0.861248 0
M  V30 10330 O 965.345 1.64289 -1.16495 0
M  V30 10331 C 962.41 2.6229 -2.26726 0
M  V30 10332 C 961.471 2.48738 -3.49897 0
M  V30 10333 C 960.704 3.75339 -3.79416 0
M  V30 10334 O 960.927 4.78427 -3.10586 0
M  V30 10335 O 959.861 3.72352 -4.72903 0
M  V30 10336 H 963.687 0.986979 -2.87215 0
M  V30 10337 H 961.272 0.42291 -1.43289 0
M  V30 10338 H 963.154 3.408 -2.47857 0
M  V30 10339 H 961.829 2.92619 -1.38404 0
M  V30 10340 H 960.736 1.68422 -3.34043 0
M  V30 10341 H 962.069 2.23347 -4.38608 0
M  V30 10342 N 963.721 1.49897 0.486681 0
M  V30 10343 C 964.967 1.61313 1.23893 0
M  V30 10344 C 965.322 0.302457 1.90008 0
M  V30 10345 O 964.615 -0.698466 1.78415 0
M  V30 10346 C 964.809 2.71982 2.31863 0
M  V30 10347 C 964.638 4.13685 1.76338 0
M  V30 10348 C 963.408 4.8029 1.57002 0
M  V30 10349 C 965.606 4.98446 1.26711 0
M  V30 10350 N 963.588 6.06259 0.965564 0
M  V30 10351 C 964.959 6.15011 0.784912 0
M  V30 10352 C 967.014 4.84338 1.15419 0
M  V30 10353 C 965.717 7.19019 0.200942 0
M  V30 10354 C 967.743 5.88508 0.584173 0
M  V30 10355 C 967.105 7.04311 0.112272 0
M  V30 10356 H 963.204 0.644555 0.442801 0
M  V30 10357 H 965.788 1.86959 0.543562 0
M  V30 10358 H 963.959 2.48086 2.98844 0
M  V30 10359 H 965.691 2.72842 2.98897 0
M  V30 10360 H 962.446 4.37324 1.81781 0
M  V30 10361 H 962.87 6.73554 0.6822 0
M  V30 10362 H 967.512 3.95107 1.50499 0
M  V30 10363 H 965.23 8.07937 -0.162099 0
M  V30 10364 H 968.816 5.79653 0.49938 0
M  V30 10365 H 967.696 7.83539 -0.321907 0
M  V30 10366 N 965.199 -0.738761 1.39212 0
M  V30 10367 C 966.424 -1.5331 1.39681 0
M  V30 10368 C 966.849 -1.88098 -0.00768715 0
M  V30 10369 O 966.207 -1.51642 -0.993699 0
M  V30 10370 C 966.255 -2.79958 2.27279 0
M  V30 10371 O 965.359 -3.75727 1.70008 0
M  V30 10372 H 964.7 -0.463131 0.475821 0
M  V30 10373 H 967.23 -0.911768 1.83161 0
M  V30 10374 H 967.24 -3.28732 2.41659 0
M  V30 10375 H 965.915 -2.5397 3.29351 0
M  V30 10376 H 964.492 -3.34483 1.64851 0
M  V30 10377 N 966.677 -1.24326 -0.968545 0
M  V30 10378 C 967.907 -1.10786 -1.74385 0
M  V30 10379 C 968.315 0.342503 -1.86074 0
M  V30 10380 O 967.658 1.24817 -1.34782 0
M  V30 10381 C 967.72 -1.67274 -3.18213 0
M  V30 10382 C 967.384 -3.1615 -3.29998 0
M  V30 10383 C 968.381 -4.13309 -3.15392 0
M  V30 10384 C 966.066 -3.56092 -3.54265 0
M  V30 10385 C 968.06 -5.48392 -3.24878 0
M  V30 10386 C 965.747 -4.91316 -3.63389 0
M  V30 10387 C 966.745 -5.87275 -3.48707 0
M  V30 10388 O 966.433 -7.20041 -3.57485 0
M  V30 10389 H 966.165 -0.387795 -0.553706 0
M  V30 10390 H 968.719 -1.64894 -1.22471 0
M  V30 10391 H 966.949 -1.07598 -3.71429 0
M  V30 10392 H 968.638 -1.49036 -3.77549 0
M  V30 10393 H 969.404 -3.83792 -2.96528 0
M  V30 10394 H 965.283 -2.81907 -3.6476 0
M  V30 10395 H 968.827 -6.23271 -3.13335 0
M  V30 10396 H 964.724 -5.20505 -3.81766 0
M  V30 10397 H 965.492 -7.27951 -3.74205 0
M  V30 10398 N 968.156 1.1691 -1.05688 0
M  V30 10399 C 969.396 1.88972 -0.779044 0
M  V30 10400 C 969.76 1.7949 0.681708 0
M  V30 10401 O 970.961 2.46418 1.07386 0
M  V30 10402 C 969.232 3.34737 -1.25242 0
M  V30 10403 S 970.791 4.24718 -1.10272 0
M  V30 10404 H 967.609 0.652349 -0.282776 0
M  V30 10405 H 970.211 1.41162 -1.35254 0
M  V30 10406 H 968.915 3.39175 -2.3106 0
M  V30 10407 H 968.446 3.87593 -0.673417 0
M  V30 10408 H 970.461 4.96191 -0.0299004 0
M  V30 10409 N 969.634 0.838594 1.33437 0
M  V30 10410 C 970.582 0.260158 2.31141 0
M  V30 10411 C 971.576 -0.607706 1.58124 0
M  V30 10412 O 972.782 -0.497298 1.72994 0
M  V30 10413 H 969.157 0.0654031 0.74915 0
M  V30 10414 H 971.128 1.09874 2.77435 0
M  V30 10415 C 969.877 -0.550234 3.43319 0
M  V30 10416 H 969.2 0.108262 3.99653 0
M  V30 10417 H 970.64 -0.920815 4.1388 0
M  V30 10418 C 969.099 -1.729 2.89149 0
M  V30 10419 O 969.629 -2.82769 2.85315 0
M  V30 10420 N 967.835 -1.5508 2.45761 0
M  V30 10421 H 967.382 -0.657055 2.49079 0
M  V30 10422 H 967.34 -2.34099 2.0987 0
M  V30 10423 N 971.112 -1.45937 0.595003 0
M  V30 10424 C 972.34 -2.06698 0.091293 0
M  V30 10425 C 972.755 -1.44176 -1.21897 0
M  V30 10426 O 972.112 -0.551402 -1.73971 0
M  V30 10427 C 972.163 -3.61436 -0.0681801 0
M  V30 10428 O 971.884 -4.21622 1.19023 0
M  V30 10429 C 973.385 -4.39155 -0.604814 0
M  V30 10430 H 970.605 -0.668029 0.0630737 0
M  V30 10431 H 973.149 -1.87376 0.819165 0
M  V30 10432 H 971.304 -3.80143 -0.746324 0
M  V30 10433 H 971.718 -5.14647 1.01187 0
M  V30 10434 H 973.192 -5.47973 -0.665532 0
M  V30 10435 H 973.669 -4.08055 -1.62444 0
M  V30 10436 H 974.275 -4.25282 0.0388658 0
M  V30 10437 N 972.59 -0.333456 -1.54032 0
M  V30 10438 C 973.867 0.320902 -1.9295 0
M  V30 10439 C 974.247 1.69071 -1.26405 0
M  V30 10440 O 973.595 2.24768 -0.411311 0
M  V30 10441 C 973.805 0.403257 -3.46662 0
M  V30 10442 C 975.153 0.658875 -4.19457 0
M  V30 10443 O 976.177 0.485781 -3.52872 0
M  V30 10444 O 975.036 0.993475 -5.37394 0
M  V30 10445 H 972.13 0.185158 -0.806006 0
M  V30 10446 H 974.676 -0.383895 -1.65301 0
M  V30 10447 H 973.448 -0.558409 -3.87295 0
M  V30 10448 H 973.071 1.15524 -3.80447 0
M  V30 10449 N 974.068 1.57479 -0.061844 0
M  V30 10450 C 974.998 2.15181 0.9066 0
M  V30 10451 C 975.979 1.07624 1.31724 0
M  V30 10452 O 977.164 1.35614 1.39006 0
M  V30 10453 C 974.294 2.70542 2.17771 0
M  V30 10454 C 973.248 3.83178 1.9068 0
M  V30 10455 C 972.574 4.25099 3.24337 0
M  V30 10456 C 973.874 5.07853 1.21994 0
M  V30 10457 H 975.568 2.96355 0.42594 0
M  V30 10458 H 973.114 1.42556 0.203435 0
M  V30 10459 H 975.067 3.09552 2.85929 0
M  V30 10460 H 973.791 1.86575 2.68062 0
M  V30 10461 H 972.45 3.44656 1.24931 0
M  V30 10462 H 972.098 3.38069 3.72449 0
M  V30 10463 H 971.798 5.01021 3.07005 0
M  V30 10464 H 973.322 4.66718 3.93709 0
M  V30 10465 H 974.736 5.44242 1.80204 0
M  V30 10466 H 973.133 5.88987 1.14954 0
M  V30 10467 H 974.203 4.84497 0.197536 0
M  V30 10468 N 975.546 -0.211634 1.56173 0
M  V30 10469 C 976.496 -1.26602 1.8962 0
M  V30 10470 C 977.48 -1.41808 0.760222 0
M  V30 10471 O 978.672 -1.44456 1.02281 0
M  V30 10472 C 975.801 -2.61438 2.22497 0
M  V30 10473 C 974.887 -2.50094 3.42511 0
M  V30 10474 N 975.278 -2.0841 4.60868 0
M  V30 10475 C 973.576 -2.81028 3.46322 0
M  V30 10476 C 974.277 -2.08557 5.43028 0
M  V30 10477 N 973.253 -2.49427 4.82998 0
M  V30 10478 H 977.055 -0.934806 2.78637 0
M  V30 10479 H 974.569 -0.420154 1.56871 0
M  V30 10480 H 976.566 -3.37577 2.44638 0
M  V30 10481 H 975.226 -2.95397 1.34798 0
M  V30 10482 H 976.237 -1.79382 4.85842 0
M  V30 10483 H 972.914 -3.19294 2.68994 0
M  V30 10484 H 974.304 -1.7837 6.47791 0
M  V30 10485 N 977.024 -1.50153 -0.478725 0
M  V30 10486 C 978.435 -1.53706 -1.05978 0
M  V30 10487 C 978.786 -0.336112 -1.933 0
M  V30 10488 O 977.911 0.551803 -2.09246 0
M  V30 10489 C 978.506 -2.78541 -1.92874 0
M  V30 10490 C 977.065 -2.848 -2.46102 0
M  V30 10491 C 976.212 -2.47902 -1.24257 0
M  V30 10492 H 979.163 -1.56528 -0.261664 0
M  V30 10493 H 979.184 -2.59964 -2.77847 0
M  V30 10494 H 978.696 -3.6593 -1.29293 0
M  V30 10495 H 976.797 -2.01744 -3.13257 0
M  V30 10496 H 976.91 -3.87511 -2.81731 0
M  V30 10497 H 975.274 -2.0017 -1.57493 0
M  V30 10498 H 976.057 -3.3759 -0.62351 0
M  V30 10499 N 978.502 0.731368 -1.39602 0
M  V30 10500 C 979.412 1.87579 -1.40894 0
M  V30 10501 C 980.428 1.71336 -0.303319 0
M  V30 10502 O 981.604 1.93875 -0.545377 0
M  V30 10503 C 978.669 3.23211 -1.25442 0
M  V30 10504 C 977.73 3.51822 -2.46008 0
M  V30 10505 C 976.963 4.80982 -2.31284 0
M  V30 10506 O 977.186 5.54958 -1.31824 0
M  V30 10507 O 976.12 5.09574 -3.20341 0
M  V30 10508 H 979.946 1.89444 -2.3737 0
M  V30 10509 H 977.531 0.879675 -1.20756 0
M  V30 10510 H 979.413 4.04257 -1.18972 0
M  V30 10511 H 978.088 3.22108 -0.320637 0
M  V30 10512 H 976.995 2.70847 -2.58055 0
M  V30 10513 H 978.328 3.57707 -3.38093 0
M  V30 10514 N 979.98 1.24838 0.961938 0
M  V30 10515 C 980.93 1.01276 2.04272 0
M  V30 10516 C 981.914 -0.0478239 1.60829 0
M  V30 10517 O 983.106 0.166616 1.76214 0
M  V30 10518 C 980.235 0.625659 3.37551 0
M  V30 10519 C 979.321 1.72262 3.87539 0
M  V30 10520 N 979.712 2.95644 4.104 0
M  V30 10521 C 978.01 1.60146 4.16256 0
M  V30 10522 C 978.711 3.66796 4.51482 0
M  V30 10523 N 977.687 2.94383 4.56989 0
M  V30 10524 H 981.489 1.94956 2.19931 0
M  V30 10525 H 979.003 1.15049 1.14619 0
M  V30 10526 H 981 0.438072 4.14592 0
M  V30 10527 H 979.66 -0.303887 3.23275 0
M  V30 10528 H 980.671 3.31764 3.97685 0
M  V30 10529 H 977.348 0.740353 4.10883 0
M  V30 10530 H 978.738 4.72664 4.77534 0
M  V30 10531 N 981.458 -1.16348 1.06306 0
M  V30 10532 C 982.874 -1.38873 0.786543 0
M  V30 10533 C 983.074 -1.91915 -0.614061 0
M  V30 10534 O 982.13 -2.11804 -1.3746 0
M  V30 10535 C 983.443 -2.36936 1.85154 0
M  V30 10536 C 984.991 -2.5062 1.87506 0
M  V30 10537 C 985.466 -3.51965 2.9306 0
M  V30 10538 N 986.957 -3.59492 2.92095 0
M  V30 10539 C 987.692 -4.37699 3.70415 0
M  V30 10540 N 987.188 -5.19327 4.58553 0
M  V30 10541 N 988.981 -4.32683 3.58806 0
M  V30 10542 H 981.132 -0.802542 1.96655 0
M  V30 10543 H 983.395 -0.415304 0.852189 0
M  V30 10544 H 983.101 -2.05056 2.85736 0
M  V30 10545 H 982.975 -3.36585 1.70267 0
M  V30 10546 H 985.362 -2.81804 0.875827 0
M  V30 10547 H 985.443 -1.51006 2.06472 0
M  V30 10548 H 985.087 -3.21518 3.93177 0
M  V30 10549 H 985.017 -4.51309 2.71344 0
M  V30 10550 H 987.508 -3.01222 2.28197 0
M  V30 10551 H 987.821 -5.76216 5.1497 0
M  V30 10552 H 986.166 -5.1867 4.62608 0
M  V30 10553 H 989.357 -3.67971 2.89335 0
M  V30 10554 H 989.53 -4.93386 4.20088 0
M  V30 10555 N 982.937 -0.845659 -1.3299 0
M  V30 10556 C 983.887 -0.2557 -2.26562 0
M  V30 10557 C 984.871 0.593245 -1.49564 0
M  V30 10558 O 986.063 0.444101 -1.71338 0
M  V30 10559 C 983.192 0.562573 -3.38659 0
M  V30 10560 C 982.278 -0.298259 -4.2305 0
M  V30 10561 N 982.669 -1.38023 -4.86604 0
M  V30 10562 C 980.967 -0.0864539 -4.45916 0
M  V30 10563 C 981.668 -1.90907 -5.49481 0
M  V30 10564 N 980.644 -1.20955 -5.29973 0
M  V30 10565 H 984.446 -1.083 -2.73219 0
M  V30 10566 H 981.96 -0.690823 -1.46974 0
M  V30 10567 H 983.957 1.00157 -4.0469 0
M  V30 10568 H 982.617 1.38777 -2.93549 0
M  V30 10569 H 983.628 -1.76314 -4.86964 0
M  V30 10570 H 980.305 0.70475 -4.11509 0
M  V30 10571 H 981.695 -2.81552 -6.10064 0
M  V30 10572 N 984.415 1.45619 -0.602734 0
M  V30 10573 C 985.345 2.33258 0.106342 0
M  V30 10574 C 986.326 1.46543 0.863664 0
M  V30 10575 O 987.511 1.75324 0.835175 0
M  V30 10576 C 984.641 3.29168 1.10751 0
M  V30 10577 C 983.595 4.25481 0.463717 0
M  V30 10578 C 982.921 5.11046 1.57278 0
M  V30 10579 C 984.221 5.18702 -0.61199 0
M  V30 10580 H 985.915 2.92795 -0.625423 0
M  V30 10581 H 983.461 1.40793 -0.302213 0
M  V30 10582 H 985.414 3.89346 1.61208 0
M  V30 10583 H 984.138 2.6778 1.8698 0
M  V30 10584 H 982.797 3.66595 -0.0199496 0
M  V30 10585 H 982.445 4.46029 2.32524 0
M  V30 10586 H 982.145 5.76286 1.14755 0
M  V30 10587 H 983.669 5.74091 2.07972 0
M  V30 10588 H 985.083 5.72979 -0.191686 0
M  V30 10589 H 983.48 5.92393 -0.958686 0
M  V30 10590 H 984.55 4.61424 -1.4905 0
M  V30 10591 N 985.893 0.34162 1.53853 0
M  V30 10592 C 987.118 -0.259608 2.05769 0
M  V30 10593 C 987.543 -1.43588 1.21507 0
M  V30 10594 O 986.901 -1.79856 0.228364 0
M  V30 10595 C 986.949 -0.654455 3.54611 0
M  V30 10596 O 986.053 -1.75472 3.73207 0
M  V30 10597 H 985.394 -0.0434621 0.662576 0
M  V30 10598 H 987.924 0.495274 1.98515 0
M  V30 10599 H 987.934 -0.932142 3.97209 0
M  V30 10600 H 986.609 0.205779 4.15391 0
M  V30 10601 H 985.186 -1.47444 3.42512 0
M  V30 10602 N 987.371 -1.57444 0.0701946 0
M  V30 10603 C 988.303 -2.09611 -0.927142 0
M  V30 10604 C 989.316 -1.02791 -1.26245 0
M  V30 10605 O 990.505 -1.30309 -1.21992 0
M  V30 10606 C 987.605 -2.54015 -2.24342 0
M  V30 10607 C 986.778 -3.84389 -2.08719 0
M  V30 10608 C 985.837 -4.14904 -3.23638 0
M  V30 10609 O 984.863 -4.84528 -2.98699 0
M  V30 10610 N 986.065 -3.68322 -4.48686 0
M  V30 10611 H 988.83 -2.95803 -0.481753 0
M  V30 10612 H 986.391 -1.61487 -0.115572 0
M  V30 10613 H 988.383 -2.71492 -3.00124 0
M  V30 10614 H 986.953 -1.72969 -2.60385 0
M  V30 10615 H 986.173 -3.76308 -1.17415 0
M  V30 10616 H 987.461 -4.69729 -1.9553 0
M  V30 10617 H 986.859 -3.12073 -4.71834 0
M  V30 10618 H 985.416 -3.91002 -5.21499 0
M  V30 10619 N 988.849 0.203349 -1.56283 0
M  V30 10620 C 989.779 1.2549 -1.96912 0
M  V30 10621 C 990.76 1.47919 -0.839884 0
M  V30 10622 O 991.945 1.59795 -1.10359 0
M  V30 10623 C 989.075 2.6009 -2.30153 0
M  V30 10624 C 988.029 2.52289 -3.45738 0
M  V30 10625 C 987.355 3.91086 -3.64632 0
M  V30 10626 C 988.655 2.05503 -4.80173 0
M  V30 10627 H 990.349 0.917306 -2.85002 0
M  V30 10628 H 987.895 0.439818 -1.37119 0
M  V30 10629 H 989.848 3.33829 -2.5717 0
M  V30 10630 H 988.572 2.95574 -1.38937 0
M  V30 10631 H 987.231 1.81006 -3.18798 0
M  V30 10632 H 986.879 4.23908 -2.7076 0
M  V30 10633 H 986.579 3.86742 -4.42385 0
M  V30 10634 H 988.103 4.66459 -3.94016 0
M  V30 10635 H 989.517 2.68995 -5.06275 0
M  V30 10636 H 987.914 2.1218 -5.61337 0
M  V30 10637 H 988.984 1.00793 -4.74309 0
M  V30 10638 N 990.327 1.50405 0.470755 0
M  V30 10639 C 991.237 1.7208 1.59454 0
M  V30 10640 C 992.253 0.603932 1.63183 0
M  V30 10641 O 993.429 0.882296 1.81046 0
M  V30 10642 C 990.494 1.81057 2.95667 0
M  V30 10643 C 989.555 3.04792 3.02324 0
M  V30 10644 C 988.788 3.13332 4.3204 0
M  V30 10645 O 989.011 2.28655 5.22564 0
M  V30 10646 O 987.945 4.0606 4.44296 0
M  V30 10647 H 991.771 2.67343 1.44089 0
M  V30 10648 H 989.356 1.34505 0.650286 0
M  V30 10649 H 991.238 1.8914 3.76569 0
M  V30 10650 H 989.913 0.889782 3.11231 0
M  V30 10651 H 988.82 3.0221 2.205 0
M  V30 10652 H 990.153 3.96451 2.91698 0
M  V30 10653 N 991.805 -0.723954 1.39988 0
M  V30 10654 C 992.768 -1.81973 1.3935 0
M  V30 10655 C 993.768 -1.58187 0.288702 0
M  V30 10656 O 994.958 -1.65383 0.547181 0
M  V30 10657 C 992.09 -3.19937 1.177 0
M  V30 10658 H 993.283 -1.83939 2.36868 0
M  V30 10659 H 990.836 -0.928742 1.25714 0
M  V30 10660 H 991.571 -3.23625 0.209093 0
M  V30 10661 H 991.356 -3.386 1.97719 0
M  V30 10662 H 992.846 -3.99981 1.20022 0
M  V30 10663 N 993.283 -1.25346 -0.955304 0
M  V30 10664 C 994.532 -1.0945 -1.69421 0
M  V30 10665 C 994.845 0.364459 -1.92175 0
M  V30 10666 O 996.051 0.643843 -2.63755 0
M  V30 10667 C 994.507 -1.91045 -3.05008 0
M  V30 10668 C 994.115 -3.41428 -2.90053 0
M  V30 10669 C 995.859 -1.83716 -3.82686 0
M  V30 10670 C 993.766 -4.1532 -4.21026 0
M  V30 10671 H 992.696 -0.405978 -0.635372 0
M  V30 10672 H 995.347 -1.49536 -1.06354 0
M  V30 10673 H 993.729 -1.43781 -3.68975 0
M  V30 10674 H 994.903 -3.9636 -2.35022 0
M  V30 10675 H 993.218 -3.49842 -2.25831 0
M  V30 10676 H 995.815 -2.36217 -4.79693 0
M  V30 10677 H 996.158 -0.804919 -4.08444 0
M  V30 10678 H 996.691 -2.28726 -3.25468 0
M  V30 10679 H 993.43 -5.18955 -4.00457 0
M  V30 10680 H 992.95 -3.65172 -4.75825 0
M  V30 10681 H 994.629 -4.22999 -4.89572 0
M  V30 10682 N 994.761 1.15782 -1.06922 0
M  V30 10683 C 995.708 2.2038 -0.685659 0
M  V30 10684 C 996.678 1.62972 0.320816 0
M  V30 10685 O 997.863 1.8966 0.208258 0
M  V30 10686 C 995.003 3.44995 -0.084998 0
M  V30 10687 C 994.116 4.16621 -1.14242 0
M  V30 10688 C 993.251 5.28773 -0.507226 0
M  V30 10689 C 992.29 5.92209 -1.54774 0
M  V30 10690 N 991.427 6.9584 -0.935443 0
M  V30 10691 H 996.267 2.5254 -1.58201 0
M  V30 10692 H 993.804 1.24031 -0.790864 0
M  V30 10693 H 995.762 4.16254 0.280845 0
M  V30 10694 H 994.392 3.13365 0.774725 0
M  V30 10695 H 993.444 3.43903 -1.62589 0
M  V30 10696 H 994.756 4.59884 -1.93154 0
M  V30 10697 H 993.91 6.06635 -0.0887719 0
M  V30 10698 H 992.649 4.8669 0.313704 0
M  V30 10699 H 991.654 5.13063 -1.97602 0
M  V30 10700 H 992.879 6.3637 -2.37088 0
M  V30 10701 H 990.825 6.5586 -0.135339 0
M  V30 10702 H 990.742 7.37508 -1.66186 0
M  V30 10703 H 992.01 7.77611 -0.542346 0
M  V30 10704 N 996.239 0.8527 1.3254 0
M  V30 10705 C 997.169 0.311234 2.31416 0
M  V30 10706 C 998.15 -0.588557 1.59593 0
M  V30 10707 O 999.335 -0.509211 1.87405 0
M  V30 10708 C 996.465 -0.502892 3.4364 0
M  V30 10709 C 995.419 0.302296 4.26931 0
M  V30 10710 C 994.745 -0.636445 5.30899 0
M  V30 10711 C 996.045 1.52697 4.99481 0
M  V30 10712 H 997.739 1.13742 2.76953 0
M  V30 10713 H 995.285 0.548389 1.33149 0
M  V30 10714 H 997.238 -0.892092 4.11849 0
M  V30 10715 H 995.962 -1.36242 2.96826 0
M  V30 10716 H 994.621 0.673226 3.60365 0
M  V30 10717 H 994.269 -1.49277 4.80339 0
M  V30 10718 H 993.969 -0.101716 5.87512 0
M  V30 10719 H 995.493 -1.02286 6.01972 0
M  V30 10720 H 996.907 1.21017 5.60382 0
M  V30 10721 H 995.304 1.9995 5.65809 0
M  V30 10722 H 996.374 2.28929 4.27457 0
M  V30 10723 N 997.718 -1.45297 0.610449 0
M  V30 10724 C 998.948 -2.0629 0.113047 0
M  V30 10725 C 999.356 -1.45527 -1.20907 0
M  V30 10726 O 998.699 -0.564837 -1.74801 0
M  V30 10727 C 998.761 -3.59366 -0.0979692 0
M  V30 10728 C 998.425 -4.42481 1.14279 0
M  V30 10729 C 999.422 -4.77277 2.06161 0
M  V30 10730 C 997.107 -4.83187 1.37241 0
M  V30 10731 C 999.101 -5.51639 3.19333 0
M  V30 10732 C 996.788 -5.57303 2.50713 0
M  V30 10733 C 997.786 -5.91445 3.41587 0
M  V30 10734 O 997.474 -6.64056 4.53083 0
M  V30 10735 H 997.206 -0.67264 0.0673159 0
M  V30 10736 H 999.76 -1.87486 0.838937 0
M  V30 10737 H 997.99 -3.76582 -0.878783 0
M  V30 10738 H 999.679 -4.02193 -0.547327 0
M  V30 10739 H 1000.44 -4.46384 1.89647 0
M  V30 10740 H 996.324 -4.56045 0.67407 0
M  V30 10741 H 999.868 -5.78207 3.90286 0
M  V30 10742 H 995.765 -5.8761 2.67179 0
M  V30 10743 H 996.533 -6.82509 4.51801 0
M  V30 10744 N 999.196 -0.349774 -1.5367 0
M  V30 10745 C 1000.13 0.496338 -2.28164 0
M  V30 10746 C 1001.11 1.09737 -1.29968 0
M  V30 10747 O 1002.29 1.11759 -1.58819 0
M  V30 10748 C 999.422 1.64428 -3.0591 0
M  V30 10749 C 998.376 1.17127 -4.11661 0
M  V30 10750 C 997.702 2.40822 -4.77398 0
M  V30 10751 C 999.002 0.267293 -5.21616 0
M  V30 10752 H 1000.7 -0.125117 -2.99138 0
M  V30 10753 H 998.242 -0.0616152 -1.43868 0
M  V30 10754 H 1000.19 2.2427 -3.56765 0
M  V30 10755 H 998.919 2.29272 -2.32598 0
M  V30 10756 H 997.578 0.595634 -3.61729 0
M  V30 10757 H 997.226 3.04088 -4.00674 0
M  V30 10758 H 996.926 2.09852 -5.48849 0
M  V30 10759 H 998.45 3.01378 -5.3104 0
M  V30 10760 H 999.864 0.772734 -5.68068 0
M  V30 10761 H 998.261 0.0491991 -6.0008 0
M  V30 10762 H 999.331 -0.694892 -4.79895 0
M  V30 10763 N 1000.67 1.57404 -0.0785433 0
M  V30 10764 C 1001.62 2.13104 0.88631 0
M  V30 10765 C 1002.59 1.04527 1.29086 0
M  V30 10766 O 1003.78 1.32226 1.37553 0
M  V30 10767 C 1000.92 2.70252 2.14611 0
M  V30 10768 C 1000.03 3.93007 1.79358 0
M  V30 10769 C 999.164 4.38376 3 0
M  V30 10770 C 998.203 5.53761 2.60796 0
M  V30 10771 N 997.34 5.94058 3.74219 0
M  V30 10772 H 1002.18 2.95243 0.404452 0
M  V30 10773 H 999.717 1.45894 0.187982 0
M  V30 10774 H 1001.67 3.01497 2.88367 0
M  V30 10775 H 1000.3 1.90868 2.60326 0
M  V30 10776 H 999.357 3.68181 0.956384 0
M  V30 10777 H 1000.67 4.76795 1.4652 0
M  V30 10778 H 999.823 4.71317 3.82027 0
M  V30 10779 H 998.562 3.53455 3.36037 0
M  V30 10780 H 997.567 5.20464 1.77192 0
M  V30 10781 H 998.792 6.40419 2.25922 0
M  V30 10782 H 996.738 5.12085 4.10005 0
M  V30 10783 H 996.655 6.72602 3.45171 0
M  V30 10784 H 997.923 6.31624 4.56805 0
M  V30 10785 N 1002.15 -0.195058 1.56388 0
M  V30 10786 C 1003.4 -0.913636 1.8027 0
M  V30 10787 C 1003.72 -1.83791 0.651606 0
M  V30 10788 O 1002.99 -1.931 -0.330057 0
M  V30 10789 H 1001.57 -0.34036 0.664954 0
M  V30 10790 H 1004.23 -0.200559 1.93865 0
M  V30 10791 H 1003.33 -1.50473 2.7343 0
M  V30 10792 N 1003.63 -1.50653 -0.462772 0
M  V30 10793 C 1004.58 -1.70122 -1.55971 0
M  V30 10794 C 1005.55 -0.542581 -1.56988 0
M  V30 10795 O 1006.73 -0.774114 -1.74391 0
M  V30 10796 C 1003.87 -1.80899 -2.93887 0
M  V30 10797 C 1002.98 -3.08318 -3.02595 0
M  V30 10798 C 1002.12 -3.09841 -4.31477 0
M  V30 10799 C 1001.16 -4.3168 -4.33957 0
M  V30 10800 N 1000.3 -4.30894 -5.54323 0
M  V30 10801 H 1005.14 -2.63768 -1.38674 0
M  V30 10802 H 1002.67 -1.30746 -0.674091 0
M  V30 10803 H 1004.63 -1.85128 -3.73876 0
M  V30 10804 H 1003.26 -0.906854 -3.098 0
M  V30 10805 H 1002.31 -3.13521 -2.15427 0
M  V30 10806 H 1003.62 -3.98282 -3.00288 0
M  V30 10807 H 1002.78 -3.12845 -5.1982 0
M  V30 10808 H 1001.52 -2.17722 -4.36404 0
M  V30 10809 H 1000.52 -4.28879 -3.4401 0
M  V30 10810 H 1001.75 -5.25035 -4.30715 0
M  V30 10811 H 999.694 -3.41633 -5.6002 0
M  V30 10812 H 999.611 -5.14636 -5.53792 0
M  V30 10813 H 1000.88 -4.38056 -6.44769 0
M  V30 10814 N 1005.11 0.71652 -1.4037 0
M  V30 10815 C 1006.02 1.86074 -1.42876 0
M  V30 10816 C 1007.03 1.71005 -0.321475 0
M  V30 10817 O 1008.21 1.93286 -0.565909 0
M  V30 10818 C 1005.28 3.21862 -1.28863 0
M  V30 10819 C 1004.34 3.49193 -2.49726 0
M  V30 10820 C 1003.57 4.78502 -2.36372 0
M  V30 10821 O 1003.79 5.53529 -1.37703 0
M  V30 10822 O 1002.73 5.06147 -3.25728 0
M  V30 10823 H 1006.55 1.86916 -2.39366 0
M  V30 10824 H 1004.14 0.866818 -1.21683 0
M  V30 10825 H 1006.02 4.02972 -1.23253 0
M  V30 10826 H 1004.69 3.2175 -0.354783 0
M  V30 10827 H 1003.6 2.68095 -2.60913 0
M  V30 10828 H 1004.93 3.54101 -3.41868 0
M  V30 10829 N 1006.59 1.25851 0.948643 0
M  V30 10830 C 1008 1.09975 1.50872 0
M  V30 10831 C 1008.35 -0.322497 1.93531 0
M  V30 10832 O 1007.47 -1.21316 1.79197 0
M  V30 10833 C 1008.07 1.99021 2.74182 0
M  V30 10834 C 1006.63 1.87313 3.26483 0
M  V30 10835 C 1005.77 1.92815 1.99293 0
M  V30 10836 H 1008.73 1.3905 0.764908 0
M  V30 10837 H 1008.75 1.53372 3.4822 0
M  V30 10838 H 1008.26 3.02527 2.43103 0
M  V30 10839 H 1006.36 0.867136 3.62369 0
M  V30 10840 H 1006.47 2.72446 3.94094 0
M  V30 10841 H 1004.84 1.36774 2.1486 0
M  V30 10842 H 1005.62 2.97936 1.70554 0
M  V30 10843 N 1008.06 -1.15214 1.07534 0
M  V30 10844 C 1008.99 -2.2216 0.718837 0
M  V30 10845 C 1009.98 -1.6753 -0.29459 0
M  V30 10846 O 1011.16 -1.93481 -0.166931 0
M  V30 10847 C 1008.29 -3.471 0.117836 0
M  V30 10848 C 1007.24 -4.14701 1.05862 0
M  V30 10849 C 1006.57 -5.3374 0.320284 0
M  V30 10850 C 1007.87 -4.64254 2.39302 0
M  V30 10851 H 1009.56 -2.52237 1.61297 0
M  V30 10852 H 1007.11 -1.21239 0.776992 0
M  V30 10853 H 1009.06 -4.21156 -0.143519 0
M  V30 10854 H 1007.79 -3.16361 -0.811389 0
M  V30 10855 H 1006.45 -3.42589 1.30493 0
M  V30 10856 H 1006.09 -4.99257 -0.61246 0
M  V30 10857 H 1005.79 -5.79912 0.947381 0
M  V30 10858 H 1007.32 -6.10563 0.0667721 0
M  V30 10859 H 1008.73 -5.29827 2.18988 0
M  V30 10860 H 1007.13 -5.21095 2.97623 0
M  V30 10861 H 1008.2 -3.79793 3.01472 0
M  V30 10862 N 1009.54 -0.859717 -1.32086 0
M  V30 10863 C 1010.47 -0.323502 -2.31248 0
M  V30 10864 C 1011.45 0.580085 -1.59903 0
M  V30 10865 O 1012.64 0.499265 -1.87673 0
M  V30 10866 C 1009.77 0.484661 -3.43902 0
M  V30 10867 C 1008.72 -0.324933 -4.26765 0
M  V30 10868 C 1008.05 0.608281 -5.31229 0
M  V30 10869 C 1009.35 -1.55344 -4.98664 0
M  V30 10870 H 1011.04 -1.15209 -2.76346 0
M  V30 10871 H 1008.59 -0.555442 -1.32856 0
M  V30 10872 H 1010.54 0.870238 -4.12316 0
M  V30 10873 H 1009.27 1.34666 -2.97544 0
M  V30 10874 H 1007.92 -0.692328 -3.60003 0
M  V30 10875 H 1007.57 1.46727 -4.81124 0
M  V30 10876 H 1007.27 0.0705571 -5.87558 0
M  V30 10877 H 1008.8 0.990925 -6.02506 0
M  V30 10878 H 1010.21 -1.23987 -5.59732 0
M  V30 10879 H 1008.61 -2.02947 -5.64741 0
M  V30 10880 H 1009.68 -2.31192 -4.26237 0
M  V30 10881 N 1011.02 1.44971 -0.618145 0
M  V30 10882 C 1011.95 2.28815 0.132751 0
M  V30 10883 C 1012.97 1.40551 0.821535 0
M  V30 10884 O 1014.15 1.64827 0.685155 0
M  V30 10885 C 1011.25 3.1658 1.20955 0
M  V30 10886 C 1010.43 4.33184 0.605821 0
M  V30 10887 C 1009.49 5.0208 1.57488 0
M  V30 10888 O 1008.51 5.58528 1.09706 0
M  V30 10889 N 1009.71 5.02335 2.9093 0
M  V30 10890 H 1012.48 2.939 -0.58674 0
M  V30 10891 H 1010.04 1.55276 -0.458375 0
M  V30 10892 H 1012.03 3.59535 1.85787 0
M  V30 10893 H 1010.6 2.53333 1.83143 0
M  V30 10894 H 1009.82 3.93581 -0.220827 0
M  V30 10895 H 1011.11 5.08471 0.182883 0
M  V30 10896 H 1010.51 4.57783 3.32342 0
M  V30 10897 H 1009.07 5.49119 3.51157 0
M  V30 10898 N 1012.5 0.357919 1.53482 0
M  V30 10899 C 1013.74 -0.23433 2.03052 0
M  V30 10900 C 1014.1 -1.46614 1.23969 0
M  V30 10901 O 1015.3 -2.13351 1.63508 0
M  V30 10902 C 1013.57 -0.526653 3.53498 0
M  V30 10903 S 1015.13 -1.09366 4.24952 0
M  V30 10904 H 1011.95 -0.0687848 0.707665 0
M  V30 10905 H 1014.55 0.499011 1.89024 0
M  V30 10906 H 1013.26 0.377463 4.0866 0
M  V30 10907 H 1012.79 -1.28927 3.71674 0
M  V30 10908 H 1014.8 -2.37845 4.35481 0
M  V30 10909 N 1013.98 -1.5736 0.0868897 0
M  V30 10910 C 1015.25 -1.85495 -0.620561 0
M  V30 10911 C 1015.63 -0.982218 -1.86857 0
M  V30 10912 O 1014.98 -0.0524529 -2.2844 0
M  V30 10913 C 1015.19 -3.35996 -0.943798 0
M  V30 10914 C 1016.54 -4.03861 -1.31079 0
M  V30 10915 O 1017.56 -3.4083 -1.03507 0
M  V30 10916 O 1016.42 -5.15062 -1.82683 0
M  V30 10917 H 1013.52 -0.766822 -0.309697 0
M  V30 10918 H 1016.06 -1.69282 0.118966 0
M  V30 10919 H 1014.83 -3.91257 -0.0580628 0
M  V30 10920 H 1014.46 -3.57525 -1.73958 0
M  V30 10921 N 1015.45 0.186762 -1.56489 0
M  V30 10922 C 1016.4 1.23141 -1.95205 0
M  V30 10923 C 1017.37 1.44799 -0.81378 0
M  V30 10924 O 1018.56 1.57795 -1.07263 0
M  V30 10925 C 1015.7 2.56926 -2.30397 0
M  V30 10926 C 1014.81 2.42777 -3.57328 0
M  V30 10927 C 1013.94 3.69323 -3.81804 0
M  V30 10928 C 1012.98 3.50041 -5.02133 0
M  V30 10929 N 1012.12 4.68619 -5.2282 0
M  V30 10930 H 1016.96 0.894256 -2.84266 0
M  V30 10931 H 1014.5 0.430187 -1.40669 0
M  V30 10932 H 1016.46 3.3488 -2.4882 0
M  V30 10933 H 1015.09 2.88668 -1.44466 0
M  V30 10934 H 1014.14 1.56078 -3.46906 0
M  V30 10935 H 1015.45 2.24468 -4.45439 0
M  V30 10936 H 1014.6 4.55715 -4.00511 0
M  V30 10937 H 1013.34 3.90595 -2.92039 0
M  V30 10938 H 1012.35 2.62034 -4.8334 0
M  V30 10939 H 1013.57 3.30206 -5.93414 0
M  V30 10940 H 1011.52 4.90139 -4.36005 0
M  V30 10941 H 1011.44 4.53165 -6.05126 0
M  V30 10942 H 1012.7 5.56338 -5.45993 0
M  V30 10943 N 1016.93 1.50896 0.454776 0
M  V30 10944 C 1017.84 1.73762 1.5762 0
M  V30 10945 C 1018.86 0.621206 1.62533 0
M  V30 10946 O 1020.03 0.901449 1.801 0
M  V30 10947 C 1017.1 1.84183 2.9373 0
M  V30 10948 C 1016.16 3.07982 2.99075 0
M  V30 10949 C 1015.39 3.17896 4.28693 0
M  V30 10950 O 1015.62 2.34184 5.20109 0
M  V30 10951 O 1014.55 4.10749 4.39964 0
M  V30 10952 H 1018.38 2.68856 1.41245 0
M  V30 10953 H 1015.96 1.35187 0.635984 0
M  V30 10954 H 1017.84 1.93123 3.74542 0
M  V30 10955 H 1016.52 0.922742 3.10269 0
M  V30 10956 H 1015.43 3.04531 2.17282 0
M  V30 10957 H 1016.76 3.99523 2.87476 0
M  V30 10958 N 1018.41 -0.709066 1.40748 0
M  V30 10959 C 1019.34 -1.83583 1.4429 0
M  V30 10960 C 1020.32 -1.67378 0.303067 0
M  V30 10961 O 1021.51 -1.87312 0.512612 0
M  V30 10962 C 1018.64 -3.21599 1.31116 0
M  V30 10963 C 1017.59 -3.52486 2.4277 0
M  V30 10964 C 1016.92 -4.89716 2.14668 0
M  V30 10965 C 1018.22 -3.52824 3.85113 0
M  V30 10966 H 1019.91 -1.80876 2.38588 0
M  V30 10967 H 1017.46 -0.868795 1.14839 0
M  V30 10968 H 1019.41 -4.00123 1.32209 0
M  V30 10969 H 1018.13 -3.24898 0.332965 0
M  V30 10970 H 1016.79 -2.76305 2.40937 0
M  V30 10971 H 1016.44 -4.89625 1.15224 0
M  V30 10972 H 1016.14 -5.11347 2.89478 0
M  V30 10973 H 1017.66 -5.70566 2.17455 0
M  V30 10974 H 1019.08 -4.21377 3.88734 0
M  V30 10975 H 1017.48 -3.85984 4.59496 0
M  V30 10976 H 1018.55 -2.52073 4.14231 0
M  V30 10977 N 1019.89 -1.26353 -0.941956 0
M  V30 10978 C 1021.14 -1.11241 -1.68251 0
M  V30 10979 C 1021.45 0.344055 -1.9255 0
M  V30 10980 O 1022.66 0.615832 -2.64423 0
M  V30 10981 C 1021.11 -1.94269 -3.02965 0
M  V30 10982 C 1020.72 -3.44485 -2.86415 0
M  V30 10983 C 1022.47 -1.87764 -3.80716 0
M  V30 10984 C 1020.37 -4.19763 -4.16597 0
M  V30 10985 H 1019.3 -0.412694 -0.63103 0
M  V30 10986 H 1021.95 -1.50656 -1.04762 0
M  V30 10987 H 1020.34 -1.47687 -3.6743 0
M  V30 10988 H 1021.51 -3.9883 -2.30805 0
M  V30 10989 H 1019.82 -3.52218 -2.22107 0
M  V30 10990 H 1022.42 -2.41292 -4.77161 0
M  V30 10991 H 1022.76 -0.848195 -4.07568 0
M  V30 10992 H 1023.3 -2.32165 -3.23024 0
M  V30 10993 H 1020.04 -5.23173 -3.9493 0
M  V30 10994 H 1019.56 -3.70198 -4.71925 0
M  V30 10995 H 1021.24 -4.28168 -4.85058 0
M  V30 10996 N 1021.37 1.14642 -1.08144 0
M  V30 10997 C 1022.3 2.19283 -0.6669 0
M  V30 10998 C 1023.31 1.60292 0.284668 0
M  V30 10999 O 1024.5 1.78352 0.0727383 0
M  V30 11000 C 1021.6 3.38877 0.0398572 0
M  V30 11001 C 1020.77 4.274 -0.929929 0
M  V30 11002 C 1019.83 5.25562 -0.258991 0
M  V30 11003 O 1018.86 5.61999 -0.902563 0
M  V30 11004 N 1020.06 5.71958 0.992177 0
M  V30 11005 H 1022.83 2.55464 -1.5671 0
M  V30 11006 H 1020.39 1.29836 -0.96717 0
M  V30 11007 H 1022.38 4.01605 0.499583 0
M  V30 11008 H 1020.95 3.01043 0.842118 0
M  V30 11009 H 1020.17 3.61649 -1.56857 0
M  V30 11010 H 1021.46 4.83411 -1.58717 0
M  V30 11011 H 1020.86 5.44481 1.53484 0
M  V30 11012 H 1019.41 6.36687 1.39544 0
M  V30 11013 N 1022.85 0.866709 1.31628 0
M  V30 11014 C 1023.76 0.323408 2.3236 0
M  V30 11015 C 1024.77 -0.564995 1.64572 0
M  V30 11016 O 1025.95 -0.462489 1.96018 0
M  V30 11017 C 1023.01 -0.469045 3.43513 0
M  V30 11018 C 1022.07 0.446928 4.26967 0
M  V30 11019 C 1021.31 -0.307799 5.32812 0
M  V30 11020 O 1021.53 -1.5363 5.49321 0
M  V30 11021 O 1020.46 0.332653 6.0098 0
M  V30 11022 H 1024.29 1.15827 2.80745 0
M  V30 11023 H 1021.87 0.629987 1.35468 0
M  V30 11024 H 1023.76 -0.918405 4.1127 0
M  V30 11025 H 1022.43 -1.28051 2.97296 0
M  V30 11026 H 1021.34 0.944719 3.61975 0
M  V30 11027 H 1022.67 1.2239 4.76741 0
M  V30 11028 N 1024.32 -1.44642 0.625825 0
M  V30 11029 C 1025.57 -2.02393 0.128391 0
M  V30 11030 C 1025.9 -1.49075 -1.2446 0
M  V30 11031 O 1025.18 -0.672684 -1.82497 0
M  V30 11032 C 1025.46 -3.59934 0.109279 0
M  V30 11033 C 1025.31 -4.23546 1.51423 0
M  V30 11034 C 1026.63 -4.36406 -0.568985 0
M  V30 11035 H 1023.75 -0.735427 0.0481299 0
M  V30 11036 H 1026.39 -1.72277 0.801286 0
M  V30 11037 H 1024.54 -3.85722 -0.463726 0
M  V30 11038 H 1026.22 -4.08882 2.13572 0
M  V30 11039 H 1024.46 -3.81245 2.06966 0
M  V30 11040 H 1025.13 -5.32535 1.45294 0
M  V30 11041 H 1027.61 -4.1602 -0.0817516 0
M  V30 11042 H 1026.48 -5.46122 -0.551527 0
M  V30 11043 H 1026.74 -4.1062 -1.6384 0
M  V30 11044 N 1025.8 -0.366053 -1.5329 0
M  V30 11045 C 1026.73 0.47211 -2.28677 0
M  V30 11046 C 1027.71 1.08353 -1.31125 0
M  V30 11047 O 1028.9 1.10069 -1.59995 0
M  V30 11048 C 1026.03 1.61174 -3.07637 0
M  V30 11049 C 1024.98 1.12755 -4.12881 0
M  V30 11050 C 1024.31 2.35745 -4.79925 0
M  V30 11051 C 1025.61 0.211954 -5.2187 0
M  V30 11052 H 1027.3 -0.156838 -2.98989 0
M  V30 11053 H 1024.85 -0.0768709 -1.43795 0
M  V30 11054 H 1026.8 2.20473 -3.59123 0
M  V30 11055 H 1025.52 2.26793 -2.35016 0
M  V30 11056 H 1024.18 0.557234 -3.6234 0
M  V30 11057 H 1023.83 2.99821 -4.03877 0
M  V30 11058 H 1023.53 2.04019 -5.51044 0
M  V30 11059 H 1025.06 2.95729 -5.34207 0
M  V30 11060 H 1026.47 0.71244 -5.68856 0
M  V30 11061 H 1024.87 -0.0144501 -6.00098 0
M  V30 11062 H 1025.94 -0.745753 -4.79131 0
M  V30 11063 N 1027.28 1.57312 -0.0952337 0
M  V30 11064 C 1028.53 1.94358 0.568442 0
M  V30 11065 C 1028.85 0.97698 1.68182 0
M  V30 11066 O 1028.11 -0.00340398 1.957 0
M  V30 11067 C 1028.41 3.37937 1.16332 0
M  V30 11068 C 1028.07 4.50565 0.173715 0
M  V30 11069 C 1026.74 4.81099 -0.0984673 0
M  V30 11070 C 1029.09 5.18777 -0.501992 0
M  V30 11071 C 1026.42 5.77172 -1.05305 0
M  V30 11072 C 1028.77 6.15874 -1.44505 0
M  V30 11073 C 1027.43 6.44813 -1.72546 0
M  V30 11074 H 1026.7 0.711206 0.208007 0
M  V30 11075 H 1029.35 1.90734 -0.171096 0
M  V30 11076 H 1027.65 3.3814 1.97911 0
M  V30 11077 H 1029.35 3.63902 1.68453 0
M  V30 11078 H 1025.94 4.26766 0.396042 0
M  V30 11079 H 1030.13 4.95363 -0.304855 0
M  V30 11080 H 1025.38 5.97909 -1.2773 0
M  V30 11081 H 1029.56 6.67824 -1.97444 0
M  V30 11082 H 1027.18 7.19067 -2.46671 0
M  V30 11083 N 1028.76 -0.17846 1.56586 0
M  V30 11084 C 1030.03 -0.923096 1.72448 0
M  V30 11085 C 1030.41 -2.00692 0.654659 0
M  V30 11086 O 1029.76 -2.26079 -0.33171 0
M  V30 11087 C 1029.97 -1.49435 3.15389 0
M  V30 11088 C 1031.32 -1.97005 3.76131 0
M  V30 11089 O 1032.34 -1.59244 3.18622 0
M  V30 11090 O 1031.2 -2.66541 4.77094 0
M  V30 11091 H 1028.3 -0.434009 0.703964 0
M  V30 11092 H 1030.84 -0.16685 1.68878 0
M  V30 11093 H 1029.62 -0.713933 3.84732 0
M  V30 11094 H 1029.24 -2.31498 3.23256 0
M  V30 11095 N 1030.24 -1.51135 -0.446768 0
M  V30 11096 C 1031.2 -1.71187 -1.52406 0
M  V30 11097 C 1032.2 -0.582037 -1.49897 0
M  V30 11098 O 1033.39 -0.849452 -1.52085 0
M  V30 11099 C 1030.52 -1.75962 -2.91976 0
M  V30 11100 H 1031.71 -2.67324 -1.35934 0
M  V30 11101 H 1029.27 -1.40982 -0.674813 0
M  V30 11102 H 1030 -0.816065 -3.13864 0
M  V30 11103 H 1029.79 -2.58065 -2.95203 0
M  V30 11104 H 1031.28 -1.93347 -3.70144 0
M  V30 11105 N 1031.71 0.701592 -1.41122 0
M  V30 11106 C 1032.96 1.46376 -1.40363 0
M  V30 11107 C 1033.29 1.94197 -0.0105442 0
M  V30 11108 O 1032.57 1.69121 0.960637 0
M  V30 11109 C 1032.85 2.67994 -2.40523 0
M  V30 11110 C 1032.7 2.25977 -3.88914 0
M  V30 11111 C 1034.02 3.70181 -2.38022 0
M  V30 11112 H 1031.14 0.530929 -0.511159 0
M  V30 11113 H 1033.78 0.799588 -1.72356 0
M  V30 11114 H 1031.93 3.24661 -2.13372 0
M  V30 11115 H 1033.61 1.74684 -4.26946 0
M  V30 11116 H 1031.85 1.57826 -4.04071 0
M  V30 11117 H 1032.52 3.13215 -4.54533 0
M  V30 11118 H 1035 3.23174 -2.62103 0
M  V30 11119 H 1033.87 4.52894 -3.10127 0
M  V30 11120 H 1034.13 4.19458 -1.3967 0
M  V30 11121 N 1033.19 1.2685 0.935242 0
M  V30 11122 C 1034.44 1.12912 1.6846 0
M  V30 11123 C 1034.77 -0.325708 1.91449 0
M  V30 11124 O 1034.05 -1.23884 1.49944 0
M  V30 11125 C 1034.33 1.90513 3.05576 0
M  V30 11126 C 1034.18 3.43936 2.89876 0
M  V30 11127 C 1035.5 1.70363 4.05789 0
M  V30 11128 H 1032.62 0.411559 0.611382 0
M  V30 11129 H 1035.26 1.55917 1.08582 0
M  V30 11130 H 1033.41 1.53963 3.5669 0
M  V30 11131 H 1035.08 3.90272 2.45939 0
M  V30 11132 H 1033.33 3.70659 2.25376 0
M  V30 11133 H 1034 3.93467 3.87153 0
M  V30 11134 H 1036.47 2.02217 3.63659 0
M  V30 11135 H 1035.35 2.27066 4.99732 0
M  V30 11136 H 1035.61 0.649674 4.373 0
M  V30 11137 N 1034.67 -1.14067 1.0875 0
M  V30 11138 C 1035.9 -1.89582 0.841038 0
M  V30 11139 C 1036.32 -1.78226 -0.601436 0
M  V30 11140 O 1035.68 -1.12491 -1.42181 0
M  V30 11141 C 1035.73 -3.37415 1.27213 0
M  V30 11142 O 1034.83 -4.10191 0.426246 0
M  V30 11143 H 1034.17 -0.589716 0.305173 0
M  V30 11144 H 1036.7 -1.44364 1.44984 0
M  V30 11145 H 1036.71 -3.88234 1.25451 0
M  V30 11146 H 1035.39 -3.44999 2.32268 0
M  V30 11147 H 1033.96 -3.69429 0.507585 0
M  V30 11148 N 1036.15 -0.873678 -1.31166 0
M  V30 11149 C 1037.11 -0.337069 -2.26708 0
M  V30 11150 C 1038.11 0.51406 -1.52362 0
M  V30 11151 O 1039.3 0.322834 -1.71182 0
M  V30 11152 C 1036.43 0.520897 -3.36897 0
M  V30 11153 H 1037.63 -1.18056 -2.75686 0
M  V30 11154 H 1035.18 -0.649577 -1.42163 0
M  V30 11155 H 1035.91 1.38543 -2.93217 0
M  V30 11156 H 1035.7 -0.0886015 -3.92 0
M  V30 11157 H 1037.19 0.888497 -4.08039 0
M  V30 11158 N 1037.63 1.44308 -0.633487 0
M  V30 11159 C 1039.04 1.85387 -0.221009 0
M  V30 11160 C 1039.39 1.5301 1.22811 0
M  V30 11161 O 1038.51 0.969325 1.93476 0
M  V30 11162 C 1039.11 3.36497 -0.394331 0
M  V30 11163 C 1037.67 3.76382 -0.0363405 0
M  V30 11164 C 1036.81 2.68146 -0.706598 0
M  V30 11165 H 1039.77 1.34741 -0.83849 0
M  V30 11166 H 1039.79 3.78735 0.366026 0
M  V30 11167 H 1039.3 3.60031 -1.44911 0
M  V30 11168 H 1037.4 3.58463 1.01661 0
M  V30 11169 H 1037.51 4.77 -0.448045 0
M  V30 11170 H 1035.88 2.54306 -0.14168 0
M  V30 11171 H 1036.66 2.94512 -1.76401 0
M  V30 11172 N 1039.1 0.374177 1.53094 0
M  V30 11173 C 1040.35 -0.213981 2.00562 0
M  V30 11174 C 1040.67 -1.4916 1.26533 0
M  V30 11175 O 1041.87 -2.15889 1.64634 0
M  V30 11176 C 1040.33 -0.431876 3.57299 0
M  V30 11177 C 1039.94 0.831615 4.40214 0
M  V30 11178 C 1041.68 -0.977222 4.13099 0
M  V30 11179 C 1039.59 0.582831 5.88521 0
M  V30 11180 H 1038.52 -0.0837386 0.749336 0
M  V30 11181 H 1041.17 0.494245 1.76719 0
M  V30 11182 H 1039.55 -1.20158 3.7733 0
M  V30 11183 H 1040.72 1.60477 4.31953 0
M  V30 11184 H 1039.04 1.30081 3.9556 0
M  V30 11185 H 1041.64 -1.17881 5.21544 0
M  V30 11186 H 1041.98 -1.94189 3.68234 0
M  V30 11187 H 1042.51 -0.267473 3.969 0
M  V30 11188 H 1039.25 1.51807 6.37679 0
M  V30 11189 H 1038.77 -0.151666 5.99608 0
M  V30 11190 H 1040.45 0.211604 6.46654 0
M  V30 11191 N 1040.58 -1.57259 0.103575 0
M  V30 11192 C 1041.49 -2.18018 -0.866327 0
M  V30 11193 C 1042.51 -1.15198 -1.30404 0
M  V30 11194 O 1043.68 -1.47605 -1.37021 0
M  V30 11195 C 1040.75 -2.75533 -2.10434 0
M  V30 11196 C 1039.81 -3.93337 -1.72002 0
M  V30 11197 C 1039.04 -4.481 -2.89901 0
M  V30 11198 O 1039.27 -4.01784 -4.04877 0
M  V30 11199 O 1038.2 -5.39004 -2.67877 0
M  V30 11200 H 1042.03 -3.01322 -0.379338 0
M  V30 11201 H 1039.61 -1.48907 -0.121228 0
M  V30 11202 H 1041.49 -3.12259 -2.8297 0
M  V30 11203 H 1040.17 -1.9527 -2.58169 0
M  V30 11204 H 1039.08 -3.61408 -0.966193 0
M  V30 11205 H 1040.41 -4.74989 -1.29022 0
M  V30 11206 N 1042.06 0.170153 -1.56679 0
M  V30 11207 C 1043.02 1.19443 -1.95617 0
M  V30 11208 C 1044.02 1.37118 -0.83996 0
M  V30 11209 O 1045.21 1.34504 -1.10699 0
M  V30 11210 C 1042.35 2.55926 -2.25199 0
M  V30 11211 H 1043.54 0.86095 -2.87276 0
M  V30 11212 H 1041.09 0.412646 -1.50755 0
M  V30 11213 H 1041.83 2.94286 -1.36257 0
M  V30 11214 H 1041.61 2.44464 -3.06562 0
M  V30 11215 H 1043.1 3.29742 -2.56242 0
M  V30 11216 N 1043.54 1.5137 0.438746 0
M  V30 11217 C 1044.77 1.6753 1.20901 0
M  V30 11218 C 1045.18 0.371573 1.85515 0
M  V30 11219 O 1044.52 -0.659701 1.71446 0
M  V30 11220 C 1044.58 2.73305 2.33548 0
M  V30 11221 C 1044.25 4.15944 1.89313 0
M  V30 11222 C 1045.24 5.00769 1.39736 0
M  V30 11223 C 1042.93 4.62036 1.97047 0
M  V30 11224 C 1044.92 6.29747 0.984773 0
M  V30 11225 C 1042.61 5.91011 1.554 0
M  V30 11226 C 1043.61 6.74693 1.06197 0
M  V30 11227 O 1043.29 8.01256 0.651407 0
M  V30 11228 H 1043.03 0.565404 0.370532 0
M  V30 11229 H 1045.58 1.98543 0.526296 0
M  V30 11230 H 1043.81 2.37604 3.05092 0
M  V30 11231 H 1045.5 2.78359 2.95417 0
M  V30 11232 H 1046.27 4.66363 1.33156 0
M  V30 11233 H 1042.14 3.97025 2.34291 0
M  V30 11234 H 1045.69 6.95015 0.600029 0
M  V30 11235 H 1041.59 6.24932 1.6165 0
M  V30 11236 H 1042.35 8.148 0.777382 0
M  V30 11237 N 1045.02 -0.694098 1.41492 0
M  V30 11238 C 1046.26 -1.45493 1.42138 0
M  V30 11239 C 1046.62 -1.92376 0.0302688 0
M  V30 11240 O 1045.91 -1.66723 -0.944142 0
M  V30 11241 C 1046.1 -2.6805 2.36398 0
M  V30 11242 C 1045.93 -2.33157 3.84536 0
M  V30 11243 C 1044.7 -2.2345 4.53209 0
M  V30 11244 C 1046.9 -1.96037 4.75473 0
M  V30 11245 N 1044.88 -1.81457 5.8647 0
M  V30 11246 C 1046.25 -1.64814 5.97693 0
M  V30 11247 C 1048.31 -1.8286 4.63106 0
M  V30 11248 C 1047.01 -1.21738 7.08923 0
M  V30 11249 C 1049.04 -1.41188 5.74299 0
M  V30 11250 C 1048.4 -1.10877 6.95619 0
M  V30 11251 H 1044.5 -0.529635 0.575335 0
M  V30 11252 H 1047.08 -0.802901 1.77374 0
M  V30 11253 H 1045.25 -3.30972 2.03254 0
M  V30 11254 H 1046.99 -3.34531 2.27753 0
M  V30 11255 H 1043.74 -2.41894 4.07166 0
M  V30 11256 H 1044.17 -1.62938 6.571 0
M  V30 11257 H 1048.81 -2.04947 3.69806 0
M  V30 11258 H 1046.53 -0.983947 8.02087 0
M  V30 11259 H 1050.11 -1.3154 5.66735 0
M  V30 11260 H 1048.99 -0.791191 7.80199 0
M  V30 11261 N 1046.49 -1.27344 -0.928501 0
M  V30 11262 C 1047.72 -1.16447 -1.7102 0
M  V30 11263 C 1048.14 0.278799 -1.8673 0
M  V30 11264 O 1047.49 1.18989 -1.38376 0
M  V30 11265 C 1047.55 -1.84242 -3.11026 0
M  V30 11266 O 1047.27 -3.2293 -2.96054 0
M  V30 11267 C 1048.77 -1.7946 -4.05351 0
M  V30 11268 H 1045.99 -0.404898 -0.535069 0
M  V30 11269 H 1048.53 -1.68201 -1.16313 0
M  V30 11270 H 1046.69 -1.36395 -3.62595 0
M  V30 11271 H 1047.1 -3.5667 -3.8456 0
M  V30 11272 H 1048.57 -2.31511 -5.01105 0
M  V30 11273 H 1049.05 -0.763771 -4.32508 0
M  V30 11274 H 1049.66 -2.26918 -3.59706 0
M  V30 11275 N 1047.97 1.13488 -1.09353 0
M  V30 11276 C 1049.2 1.89133 -0.85108 0
M  V30 11277 C 1049.62 1.78542 0.591976 0
M  V30 11278 O 1048.98 1.13243 1.41583 0
M  V30 11279 C 1049.03 3.36736 -1.29001 0
M  V30 11280 O 1048.13 4.09959 -0.447993 0
M  V30 11281 H 1047.47 0.58809 -0.308296 0
M  V30 11282 H 1050 1.43593 -1.45747 0
M  V30 11283 H 1050.01 3.87564 -1.27508 0
M  V30 11284 H 1048.69 3.43762 -2.34095 0
M  V30 11285 H 1047.27 3.69155 -0.52717 0
M  V30 11286 N 1049.45 0.880621 1.30701 0
M  V30 11287 C 1050.38 0.360251 2.30704 0
M  V30 11288 C 1051.36 -0.554572 1.60806 0
M  V30 11289 O 1052.55 -0.469345 1.88443 0
M  V30 11290 C 1049.68 -0.429888 3.44629 0
M  V30 11291 C 1048.63 0.392786 4.26194 0
M  V30 11292 C 1047.96 -0.52369 5.32129 0
M  V30 11293 C 1049.26 1.63258 4.96129 0
M  V30 11294 H 1050.95 1.19591 2.74478 0
M  V30 11295 H 1048.5 0.576508 1.31956 0
M  V30 11296 H 1050.45 -0.804532 4.13649 0
M  V30 11297 H 1049.17 -1.29916 2.99649 0
M  V30 11298 H 1047.83 0.749514 3.58856 0
M  V30 11299 H 1047.48 -1.39054 4.83397 0
M  V30 11300 H 1047.18 0.0229272 5.87596 0
M  V30 11301 H 1048.71 -0.894946 6.04006 0
M  V30 11302 H 1050.12 1.32877 5.57689 0
M  V30 11303 H 1048.52 2.11906 5.61441 0
M  V30 11304 H 1049.59 2.37944 4.22505 0
M  V30 11305 N 1050.93 -1.4397 0.641131 0
M  V30 11306 C 1051.89 -2.29149 -0.0482243 0
M  V30 11307 C 1052.89 -1.41572 -0.762495 0
M  V30 11308 O 1054.08 -1.63335 -0.605571 0
M  V30 11309 C 1051.21 -3.23375 -1.07896 0
M  V30 11310 H 1052.41 -2.9159 0.70109 0
M  V30 11311 H 1049.96 -1.51048 0.401754 0
M  V30 11312 H 1050.7 -2.65804 -1.85792 0
M  V30 11313 H 1050.48 -3.87926 -0.570597 0
M  V30 11314 H 1051.97 -3.87337 -1.56075 0
M  V30 11315 N 1052.41 -0.382291 -1.52893 0
M  V30 11316 C 1053.34 0.447829 -2.29165 0
M  V30 11317 C 1054.32 1.06956 -1.32267 0
M  V30 11318 O 1055.5 1.08365 -1.61154 0
M  V30 11319 C 1052.63 1.57902 -3.09329 0
M  V30 11320 C 1051.59 1.08369 -4.14053 0
M  V30 11321 C 1050.91 2.30641 -4.82399 0
M  V30 11322 C 1052.21 0.156591 -5.22065 0
M  V30 11323 H 1053.91 -0.188541 -2.98806 0
M  V30 11324 H 1051.45 -0.0921179 -1.43705 0
M  V30 11325 H 1053.41 2.16652 -3.61442 0
M  V30 11326 H 1052.13 2.24287 -2.37409 0
M  V30 11327 H 1050.79 0.518772 -3.62911 0
M  V30 11328 H 1050.44 2.9552 -4.07034 0
M  V30 11329 H 1050.14 1.98163 -5.53177 0
M  V30 11330 H 1051.66 2.90047 -5.37313 0
M  V30 11331 H 1053.08 0.652065 -5.6958 0
M  V30 11332 H 1051.47 -0.0780978 -6.00049 0
M  V30 11333 H 1052.54 -0.796529 -4.78313 0
M  V30 11334 N 1053.89 1.57202 -0.111913 0
M  V30 11335 C 1054.83 2.16186 0.858286 0
M  V30 11336 C 1055.83 1.10917 1.28039 0
M  V30 11337 O 1057.03 1.29233 1.25295 0
M  V30 11338 H 1053.41 0.691777 0.29487 0
M  V30 11339 H 1055.38 2.96499 0.336265 0
M  V30 11340 C 1054.13 2.77024 2.10127 0
M  V30 11341 H 1053.45 3.5772 1.78539 0
M  V30 11342 H 1054.89 3.21841 2.76033 0
M  V30 11343 C 1053.35 1.73752 2.88638 0
M  V30 11344 O 1053.88 1.18659 3.83774 0
M  V30 11345 N 1052.09 1.43855 2.52496 0
M  V30 11346 H 1051.63 1.88846 1.75199 0
M  V30 11347 H 1051.59 0.749985 3.05324 0
M  V30 11348 N 1055.36 -0.161842 1.56767 0
M  V30 11349 C 1056.31 -1.2002 1.97139 0
M  V30 11350 C 1057.28 -1.43486 0.836713 0
M  V30 11351 O 1058.47 -1.56069 1.0976 0
M  V30 11352 C 1055.61 -2.53228 2.34456 0
M  V30 11353 C 1054.72 -2.37062 3.61145 0
M  V30 11354 C 1053.85 -3.63202 3.87631 0
M  V30 11355 C 1052.89 -3.42008 5.07638 0
M  V30 11356 N 1052.03 -4.60242 5.30209 0
M  V30 11357 H 1056.87 -0.848918 2.85653 0
M  V30 11358 H 1054.41 -0.407753 1.41336 0
M  V30 11359 H 1056.36 -3.30879 2.54116 0
M  V30 11360 H 1054.99 -2.86333 1.4904 0
M  V30 11361 H 1054.05 -1.50539 3.49345 0
M  V30 11362 H 1055.36 -2.17353 4.48953 0
M  V30 11363 H 1054.51 -4.49285 4.0771 0
M  V30 11364 H 1053.25 -3.85899 2.98216 0
M  V30 11365 H 1052.26 -2.54312 4.87448 0
M  V30 11366 H 1053.48 -3.20724 5.98593 0
M  V30 11367 H 1051.43 -4.8314 4.43747 0
M  V30 11368 H 1051.34 -4.43481 6.12259 0
M  V30 11369 H 1052.61 -5.47581 5.54775 0
M  V30 11370 N 1056.84 -1.516 -0.430713 0
M  V30 11371 C 1058.07 -1.687 -1.20644 0
M  V30 11372 C 1058.49 -0.386555 -1.84085 0
M  V30 11373 O 1057.85 0.653952 -1.69095 0
M  V30 11374 C 1057.9 -2.80887 -2.2613 0
M  V30 11375 O 1057 -2.44952 -3.31772 0
M  V30 11376 H 1056.34 -0.562289 -0.353167 0
M  V30 11377 H 1058.87 -1.98198 -0.507807 0
M  V30 11378 H 1058.88 -3.05167 -2.70809 0
M  V30 11379 H 1057.56 -3.75249 -1.79334 0
M  V30 11380 H 1056.13 -2.31267 -2.92523 0
M  V30 11381 N 1058.32 0.686584 -1.41858 0
M  V30 11382 C 1059.23 1.83002 -1.46791 0
M  V30 11383 C 1060.25 1.70284 -0.357675 0
M  V30 11384 O 1061.42 1.92042 -0.606781 0
M  V30 11385 C 1058.49 3.19056 -1.35661 0
M  V30 11386 C 1057.55 3.43817 -2.57077 0
M  V30 11387 C 1056.78 4.7338 -2.46469 0
M  V30 11388 O 1057 5.50483 -1.49413 0
M  V30 11389 O 1055.94 4.99124 -3.36391 0
M  V30 11390 H 1059.76 1.81797 -2.43277 0
M  V30 11391 H 1057.35 0.840812 -1.23494 0
M  V30 11392 H 1059.23 4.00267 -1.31773 0
M  V30 11393 H 1057.91 3.20925 -0.422951 0
M  V30 11394 H 1056.81 2.625 -2.66541 0
M  V30 11395 H 1058.15 3.4677 -3.49302 0
M  V30 11396 N 1059.8 1.27835 0.921735 0
M  V30 11397 C 1060.75 1.1092 2.04449 0
M  V30 11398 C 1061.74 0.0306469 1.69372 0
M  V30 11399 O 1062.95 0.188818 1.79007 0
M  V30 11400 H 1059.32 0.341973 0.669745 0
M  V30 11401 H 1061.29 2.06026 2.1586 0
M  V30 11402 C 1060.04 0.779443 3.38851 0
M  V30 11403 H 1059.36 1.60131 3.66331 0
M  V30 11404 H 1060.8 0.700999 4.18165 0
M  V30 11405 C 1059.26 -0.51647 3.32918 0
M  V30 11406 O 1059.79 -1.54914 3.70627 0
M  V30 11407 N 1058 -0.514276 2.86013 0
M  V30 11408 H 1057.55 0.32651 2.55522 0
M  V30 11409 H 1057.5 -1.38141 2.82426 0
M  V30 11410 N 1061.28 -1.12907 1.09954 0
M  V30 11411 C 1062.5 -1.88679 0.861099 0
M  V30 11412 C 1062.93 -1.78853 -0.582499 0
M  V30 11413 O 1062.28 -1.13992 -1.4098 0
M  V30 11414 C 1062.33 -3.36047 1.30785 0
M  V30 11415 O 1061.44 -4.09716 0.469728 0
M  V30 11416 H 1060.78 -0.586447 0.31141 0
M  V30 11417 H 1063.31 -1.42818 1.46507 0
M  V30 11418 H 1063.32 -3.86882 1.29562 0
M  V30 11419 H 1061.99 -3.42516 2.35914 0
M  V30 11420 H 1060.57 -3.6887 0.54674 0
M  V30 11421 N 1062.75 -0.88754 -1.30232 0
M  V30 11422 C 1064.03 -0.427249 -1.90877 0
M  V30 11423 C 1064.41 1.0922 -1.80649 0
M  V30 11424 O 1063.76 1.92866 -1.22536 0
M  V30 11425 C 1063.97 -0.928219 -3.3643 0
M  V30 11426 C 1065.32 -0.964706 -4.13496 0
M  V30 11427 O 1066.34 -0.875057 -3.45284 0
M  V30 11428 O 1065.2 -1.09754 -5.35366 0
M  V30 11429 H 1062.29 -0.131107 -0.816541 0
M  V30 11430 H 1064.84 -0.976609 -1.38782 0
M  V30 11431 H 1063.61 -1.97209 -3.37971 0
M  V30 11432 H 1063.23 -0.358169 -3.95983 0
M  V30 11433 N 1064.23 1.43628 -0.648757 0
M  V30 11434 C 1065.18 2.30755 0.0455536 0
M  V30 11435 C 1066.15 1.44495 0.819168 0
M  V30 11436 O 1067.33 1.73372 0.79667 0
M  V30 11437 C 1064.47 3.30017 1.00908 0
M  V30 11438 C 1063.59 4.31376 0.232039 0
M  V30 11439 C 1062.72 5.17723 1.18897 0
M  V30 11440 C 1061.76 6.10778 0.402096 0
M  V30 11441 N 1060.9 6.89763 1.31038 0
M  V30 11442 H 1065.74 2.89581 -0.70332 0
M  V30 11443 H 1063.28 1.42662 -0.3586 0
M  V30 11444 H 1065.23 3.86072 1.58128 0
M  V30 11445 H 1063.86 2.72851 1.72488 0
M  V30 11446 H 1062.92 3.77652 -0.456373 0
M  V30 11447 H 1064.23 4.9735 -0.380023 0
M  V30 11448 H 1063.38 5.78381 1.83194 0
M  V30 11449 H 1062.12 4.51864 1.83494 0
M  V30 11450 H 1061.13 5.49212 -0.254255 0
M  V30 11451 H 1062.35 6.78678 -0.239411 0
M  V30 11452 H 1060.3 6.26557 1.94324 0
M  V30 11453 H 1060.21 7.52243 0.752774 0
M  V30 11454 H 1061.48 7.54931 1.94164 0
M  V30 11455 N 1065.71 0.390394 1.52688 0
M  V30 11456 C 1066.96 -0.191067 2.01195 0
M  V30 11457 C 1067.28 -1.47229 1.27862 0
M  V30 11458 O 1066.55 -1.91793 0.399007 0
M  V30 11459 H 1065.13 -0.073596 0.743366 0
M  V30 11460 H 1067.79 0.522334 1.8777 0
M  V30 11461 H 1066.89 -0.40051 3.0952 0
M  V30 11462 N 1067.19 -1.57141 0.120249 0
M  V30 11463 C 1068.43 -1.95527 -0.538245 0
M  V30 11464 C 1068.77 -1.00373 -1.6625 0
M  V30 11465 O 1068.04 -0.0411734 -1.94456 0
M  V30 11466 C 1068.33 -3.43843 -1.06976 0
M  V30 11467 C 1068.18 -4.49771 0.0511596 0
M  V30 11468 C 1069.5 -3.94035 -1.96022 0
M  V30 11469 H 1066.62 -0.710958 -0.194183 0
M  V30 11470 H 1069.26 -1.88986 0.196061 0
M  V30 11471 H 1067.41 -3.49548 -1.69553 0
M  V30 11472 H 1069.08 -4.56163 0.686503 0
M  V30 11473 H 1067.32 -4.27882 0.714127 0
M  V30 11474 H 1067.99 -5.50812 -0.361995 0
M  V30 11475 H 1070.47 -3.9064 -1.43315 0
M  V30 11476 H 1069.35 -4.98329 -2.3013 0
M  V30 11477 H 1069.61 -3.34803 -2.8872 0
M  V30 11478 N 1068.67 0.153526 -1.5685 0
M  V30 11479 C 1069.58 1.20932 -2.01029 0
M  V30 11480 C 1070.59 1.47401 -0.924598 0
M  V30 11481 O 1071.77 1.592 -1.23359 0
M  V30 11482 C 1068.83 2.52438 -2.37647 0
M  V30 11483 C 1067.89 2.33673 -3.60132 0
M  V30 11484 C 1067.13 3.58909 -3.94994 0
M  V30 11485 O 1067.35 4.64823 -3.30599 0
M  V30 11486 O 1066.28 3.5196 -4.8827 0
M  V30 11487 H 1070.11 0.864273 -2.91143 0
M  V30 11488 H 1067.7 0.361755 -1.44954 0
M  V30 11489 H 1069.58 3.29981 -2.62088 0
M  V30 11490 H 1068.25 2.86486 -1.5069 0
M  V30 11491 H 1067.16 1.54102 -3.40886 0
M  V30 11492 H 1068.49 2.04544 -4.47686 0
M  V30 11493 N 1070.14 1.51827 0.422667 0
M  V30 11494 C 1071.39 1.65464 1.17258 0
M  V30 11495 C 1071.72 0.376834 1.90509 0
M  V30 11496 O 1071 -0.624219 1.84211 0
M  V30 11497 C 1071.28 2.86776 2.17788 0
M  V30 11498 C 1071.13 4.24571 1.48523 0
M  V30 11499 C 1072.45 3.03603 3.18611 0
M  V30 11500 H 1069.57 0.602169 0.424925 0
M  V30 11501 H 1072.21 1.84349 0.45996 0
M  V30 11502 H 1070.36 2.70806 2.78561 0
M  V30 11503 H 1072.04 4.5224 0.909739 0
M  V30 11504 H 1070.28 4.26595 0.787354 0
M  V30 11505 H 1070.95 5.05475 2.2181 0
M  V30 11506 H 1073.43 3.18381 2.67904 0
M  V30 11507 H 1072.3 3.90022 3.8623 0
M  V30 11508 H 1072.56 2.16318 3.85563 0
M  V30 11509 N 1071.62 -0.679052 1.4222 0
M  V30 11510 C 1072.59 -1.77448 1.45069 0
M  V30 11511 C 1073.59 -1.57189 0.338882 0
M  V30 11512 O 1074.78 -1.63559 0.599519 0
M  V30 11513 C 1071.91 -3.1603 1.27819 0
M  V30 11514 H 1073.1 -1.7631 2.426 0
M  V30 11515 H 1070.65 -0.888277 1.28605 0
M  V30 11516 H 1071.39 -3.22796 0.311946 0
M  V30 11517 H 1071.17 -3.32138 2.08391 0
M  V30 11518 H 1072.66 -3.9596 1.32686 0
M  V30 11519 N 1073.1 -1.28322 -0.914942 0
M  V30 11520 C 1074.35 -1.15407 -1.66396 0
M  V30 11521 C 1074.68 0.297587 -1.9221 0
M  V30 11522 O 1073.93 1.23299 -1.51973 0
M  V30 11523 C 1074.23 -1.89663 -3.02924 0
M  V30 11524 C 1073.9 -3.39464 -2.96774 0
M  V30 11525 C 1072.56 -3.80321 -2.94804 0
M  V30 11526 C 1074.91 -4.3499 -2.87111 0
M  V30 11527 C 1072.24 -5.15046 -2.8097 0
M  V30 11528 C 1074.59 -5.69788 -2.74818 0
M  V30 11529 C 1073.25 -6.09921 -2.71205 0
M  V30 11530 H 1072.52 -0.422303 -0.608885 0
M  V30 11531 H 1075.17 -1.59082 -1.06607 0
M  V30 11532 H 1073.48 -1.38533 -3.66491 0
M  V30 11533 H 1075.17 -1.77087 -3.59779 0
M  V30 11534 H 1071.76 -3.06979 -2.99101 0
M  V30 11535 H 1075.95 -4.04389 -2.87721 0
M  V30 11536 H 1071.2 -5.45271 -2.76568 0
M  V30 11537 H 1075.38 -6.43469 -2.66309 0
M  V30 11538 H 1073 -7.14267 -2.60243 0
M  V30 11539 N 1074.58 1.12322 -1.10551 0
M  V30 11540 C 1075.51 2.20176 -0.777486 0
M  V30 11541 C 1076.49 1.68252 0.250069 0
M  V30 11542 O 1077.67 1.93856 0.115574 0
M  V30 11543 C 1074.8 3.46666 -0.209822 0
M  V30 11544 C 1073.76 4.11749 -1.1682 0
M  V30 11545 C 1073.08 5.32703 -0.461684 0
M  V30 11546 C 1074.38 4.57746 -2.51527 0
M  V30 11547 H 1076.08 2.47872 -1.67928 0
M  V30 11548 H 1073.62 1.19136 -0.808863 0
M  V30 11549 H 1075.58 4.21388 0.0318068 0
M  V30 11550 H 1074.3 3.18401 0.727226 0
M  V30 11551 H 1072.96 3.39009 -1.3953 0
M  V30 11552 H 1072.61 5.00706 0.479875 0
M  V30 11553 H 1072.31 5.77197 -1.1008 0
M  V30 11554 H 1073.83 6.10172 -0.228629 0
M  V30 11555 H 1075.25 5.23835 -2.32958 0
M  V30 11556 H 1073.64 5.13021 -3.11335 0
M  V30 11557 H 1074.71 3.71667 -3.11435 0
M  V30 11558 N 1076.06 0.894434 1.2976 0
M  V30 11559 C 1077.3 0.516646 1.95385 0
M  V30 11560 C 1077.63 -0.939141 1.70895 0
M  V30 11561 O 1076.9 -1.66153 1.03778 0
M  V30 11562 H 1075.48 0.188072 0.722937 0
M  V30 11563 H 1078.14 1.13958 1.58113 0
M  V30 11564 H 1077.23 0.694819 3.04267 0
M  V30 11565 N 1077.53 -1.43282 0.656365 0
M  V30 11566 C 1078.76 -2.06125 0.178879 0
M  V30 11567 C 1079.18 -1.49216 -1.15672 0
M  V30 11568 O 1078.53 -0.624693 -1.71475 0
M  V30 11569 C 1078.59 -3.614 0.0851785 0
M  V30 11570 O 1078.31 -4.16194 1.36798 0
M  V30 11571 C 1079.81 -4.41325 -0.41801 0
M  V30 11572 H 1077.03 -0.664753 0.0913504 0
M  V30 11573 H 1079.57 -1.83733 0.897901 0
M  V30 11574 H 1077.73 -3.82966 -0.584421 0
M  V30 11575 H 1078.14 -5.09892 1.22924 0
M  V30 11576 H 1079.61 -5.50303 -0.432519 0
M  V30 11577 H 1080.09 -4.14577 -1.44991 0
M  V30 11578 H 1080.7 -4.24735 0.219208 0
M  V30 11579 N 1079.01 -0.398486 -1.52479 0
M  V30 11580 C 1080.43 -0.0488635 -1.59525 0
M  V30 11581 C 1080.63 1.43756 -1.41197 0
M  V30 11582 O 1079.69 2.20317 -1.23357 0
M  V30 11583 C 1081 -0.534262 -2.95916 0
M  V30 11584 C 1082.55 -0.491314 -3.0912 0
M  V30 11585 C 1083.02 -0.953049 -4.47974 0
M  V30 11586 N 1084.51 -0.909434 -4.54184 0
M  V30 11587 C 1085.25 -1.23801 -5.59876 0
M  V30 11588 N 1084.74 -1.63752 -6.73169 0
M  V30 11589 N 1086.54 -1.15867 -5.50028 0
M  V30 11590 H 1078.69 -1.36608 -1.62641 0
M  V30 11591 H 1080.95 -0.560515 -0.764544 0
M  V30 11592 H 1080.66 -1.57277 -3.14574 0
M  V30 11593 H 1080.53 0.0617787 -3.77149 0
M  V30 11594 H 1082.92 0.538123 -2.90152 0
M  V30 11595 H 1083 -1.12327 -2.29818 0
M  V30 11596 H 1082.64 -1.98076 -4.67684 0
M  V30 11597 H 1082.57 -0.298007 -5.25756 0
M  V30 11598 H 1085.06 -0.615569 -3.72853 0
M  V30 11599 H 1085.38 -1.87163 -7.49793 0
M  V30 11600 H 1083.72 -1.67647 -6.74477 0
M  V30 11601 H 1086.91 -0.845502 -4.60401 0
M  V30 11602 H 1087.09 -1.41805 -6.32294 0
M  V30 11603 N 1080.49 1.57075 -0.12858 0
M  V30 11604 C 1081.72 1.99876 0.534544 0
M  V30 11605 C 1082.13 1.00843 1.59612 0
M  V30 11606 O 1081.49 0.00268947 1.825 0
M  V30 11607 C 1081.54 3.42654 1.15198 0
M  V30 11608 O 1081.26 4.37899 0.132823 0
M  V30 11609 C 1082.76 4.00637 1.8975 0
M  V30 11610 H 1079.98 0.656073 0.140744 0
M  V30 11611 H 1082.53 2.03337 -0.217742 0
M  V30 11612 H 1080.68 3.40101 1.85499 0
M  V30 11613 H 1081.1 5.21253 0.582682 0
M  V30 11614 H 1082.57 5.02592 2.28266 0
M  V30 11615 H 1083.05 3.40313 2.7764 0
M  V30 11616 H 1083.65 4.06764 1.2419 0
M  V30 11617 N 1081.97 -0.145205 1.5693 0
M  V30 11618 C 1083.22 -0.855822 1.83085 0
M  V30 11619 C 1083.54 -1.81625 0.709747 0
M  V30 11620 O 1082.81 -1.94052 -0.268456 0
M  V30 11621 H 1081.39 -0.319032 0.675446 0
M  V30 11622 H 1084.05 -0.138781 1.94405 0
M  V30 11623 H 1083.15 -1.41698 2.78079 0
M  V30 11624 N 1083.45 -1.52049 -0.414609 0
M  V30 11625 C 1084.38 -1.77956 -1.51175 0
M  V30 11626 C 1085.36 -0.630282 -1.57992 0
M  V30 11627 O 1086.54 -0.875324 -1.73354 0
M  V30 11628 C 1083.67 -1.92527 -2.89051 0
M  V30 11629 C 1082.63 -3.08096 -2.97087 0
M  V30 11630 C 1081.95 -3.07882 -4.37164 0
M  V30 11631 C 1083.25 -4.47656 -2.69075 0
M  V30 11632 H 1084.95 -2.69827 -1.29746 0
M  V30 11633 H 1082.49 -1.29839 -0.62273 0
M  V30 11634 H 1084.45 -2.09234 -3.65786 0
M  V30 11635 H 1083.17 -0.973235 -3.11762 0
M  V30 11636 H 1081.83 -2.91131 -2.22797 0
M  V30 11637 H 1081.48 -2.10411 -4.56877 0
M  V30 11638 H 1081.18 -3.85501 -4.43467 0
M  V30 11639 H 1082.7 -3.26712 -5.15841 0
M  V30 11640 H 1084.12 -4.64855 -3.35534 0
M  V30 11641 H 1082.51 -5.27151 -2.8676 0
M  V30 11642 H 1083.58 -4.56129 -1.64544 0
M  V30 11643 N 1084.93 0.6715 -1.42579 0
M  V30 11644 C 1086.15 1.46471 -1.46836 0
M  V30 11645 C 1086.58 1.87921 -0.0820658 0
M  V30 11646 O 1085.93 1.5621 0.920217 0
M  V30 11647 C 1085.98 2.68796 -2.40377 0
M  V30 11648 O 1085.09 3.67188 -1.87741 0
M  V30 11649 H 1084.43 0.439901 -0.497376 0
M  V30 11650 H 1086.96 0.823342 -1.87303 0
M  V30 11651 H 1086.97 3.16828 -2.57068 0
M  V30 11652 H 1085.64 2.37967 -3.41093 0
M  V30 11653 H 1084.22 3.26237 -1.80621 0
M  V30 11654 N 1086.4 1.28806 0.908124 0
M  V30 11655 C 1087.82 1.06634 1.18749 0
M  V30 11656 C 1088.02 -0.187729 2.00624 0
M  V30 11657 O 1087.08 -0.88784 2.36376 0
M  V30 11658 C 1088.39 2.31703 1.91661 0
M  V30 11659 C 1089.94 2.36939 2.04521 0
M  V30 11660 C 1090.41 3.61789 2.80843 0
M  V30 11661 N 1091.9 3.62462 2.88402 0
M  V30 11662 C 1092.64 4.55746 3.47971 0
M  V30 11663 N 1092.13 5.59353 4.08774 0
M  V30 11664 N 1093.93 4.43331 3.45564 0
M  V30 11665 H 1086.08 2.09299 0.36164 0
M  V30 11666 H 1088.34 0.921479 0.222668 0
M  V30 11667 H 1088.05 3.23096 1.38931 0
M  V30 11668 H 1087.92 2.38556 2.92183 0
M  V30 11669 H 1090.31 1.4604 2.5643 0
M  V30 11670 H 1090.39 2.34077 1.03159 0
M  V30 11671 H 1090.03 4.53035 2.29612 0
M  V30 11672 H 1089.96 3.61907 3.82532 0
M  V30 11673 H 1092.45 2.87544 2.45208 0
M  V30 11674 H 1092.77 6.26668 4.52224 0
M  V30 11675 H 1091.11 5.63173 4.07261 0
M  V30 11676 H 1094.3 3.61587 2.97276 0
M  V30 11677 H 1094.48 5.16216 3.91695 0
M  V30 11678 N 1087.88 -1.11734 1.11145 0
M  V30 11679 C 1089.13 -1.82766 0.853194 0
M  V30 11680 C 1089.44 -1.85408 -0.623168 0
M  V30 11681 O 1090.65 -2.52509 -0.997574 0
M  V30 11682 C 1089.11 -3.28215 1.47658 0
M  V30 11683 C 1088.71 -3.33911 2.98676 0
M  V30 11684 C 1090.46 -4.04168 1.29803 0
M  V30 11685 C 1088.36 -4.73739 3.54013 0
M  V30 11686 H 1087.29 -0.684807 0.315523 0
M  V30 11687 H 1089.95 -1.25756 1.33633 0
M  V30 11688 H 1088.33 -3.85138 0.921116 0
M  V30 11689 H 1089.5 -2.86887 3.606 0
M  V30 11690 H 1087.82 -2.71437 3.15771 0
M  V30 11691 H 1090.41 -5.07429 1.68582 0
M  V30 11692 H 1090.76 -4.15606 0.240302 0
M  V30 11693 H 1091.29 -3.53623 1.82196 0
M  V30 11694 H 1088.03 -4.67497 4.59485 0
M  V30 11695 H 1087.55 -5.21186 2.9686 0
M  V30 11696 H 1089.23 -5.42691 3.52271 0
M  V30 11697 N 1089.36 -0.901303 -1.29284 0
M  V30 11698 C 1090.31 -0.370142 -2.29636 0
M  V30 11699 C 1091.3 0.53157 -1.60844 0
M  V30 11700 O 1092.51 0.414194 -1.7517 0
M  V30 11701 H 1088.88 -0.101072 -0.745177 0
M  V30 11702 H 1090.85 -1.22985 -2.71877 0
M  V30 11703 C 1089.6 0.385806 -3.45553 0
M  V30 11704 H 1088.93 -0.298818 -3.98682 0
M  V30 11705 H 1090.37 0.722299 -4.17802 0
M  V30 11706 C 1088.82 1.58907 -2.97069 0
M  V30 11707 O 1089.35 2.68835 -2.98481 0
M  V30 11708 N 1087.56 1.43178 -2.5288 0
M  V30 11709 H 1087.11 0.537467 -2.51931 0
M  V30 11710 H 1087.07 2.23819 -2.208 0
M  V30 11711 N 1090.84 1.42931 -0.663954 0
M  V30 11712 C 1091.77 2.33499 0.00731327 0
M  V30 11713 C 1092.75 1.50074 0.800733 0
M  V30 11714 O 1093.93 1.78708 0.760062 0
M  V30 11715 C 1091.06 3.33569 0.966897 0
M  V30 11716 C 1090.02 4.27064 0.282839 0
M  V30 11717 C 1089.34 5.17257 1.35461 0
M  V30 11718 C 1090.64 5.1564 -0.831438 0
M  V30 11719 H 1092.34 2.89879 -0.749044 0
M  V30 11720 H 1089.88 1.39385 -0.361656 0
M  V30 11721 H 1091.84 3.95833 1.44549 0
M  V30 11722 H 1090.56 2.75469 1.75455 0
M  V30 11723 H 1089.22 3.6618 -0.175417 0
M  V30 11724 H 1088.87 4.5549 2.13397 0
M  V30 11725 H 1088.57 5.80634 0.902098 0
M  V30 11726 H 1090.09 5.82395 1.83436 0
M  V30 11727 H 1091.51 5.71651 -0.434534 0
M  V30 11728 H 1089.9 5.87794 -1.20908 0
M  V30 11729 H 1090.97 4.54687 -1.68487 0
M  V30 11730 N 1092.32 0.406567 1.52266 0
M  V30 11731 C 1093.56 -0.170053 2.01785 0
M  V30 11732 C 1093.89 -1.45361 1.2923 0
M  V30 11733 O 1093.15 -1.91849 0.386342 0
M  V30 11734 C 1093.44 -0.467124 3.54334 0
M  V30 11735 C 1093.11 0.72693 4.45002 0
M  V30 11736 C 1091.77 1.05446 4.69505 0
M  V30 11737 C 1094.12 1.52493 4.98393 0
M  V30 11738 C 1091.45 2.18123 5.44646 0
M  V30 11739 C 1093.8 2.64244 5.74768 0
M  V30 11740 C 1092.47 2.97486 5.97544 0
M  V30 11741 H 1091.74 -0.0622267 0.738383 0
M  V30 11742 H 1094.39 0.54746 1.83508 0
M  V30 11743 H 1092.69 -1.26617 3.70777 0
M  V30 11744 H 1094.39 -0.926194 3.90157 0
M  V30 11745 H 1090.98 0.461666 4.26106 0
M  V30 11746 H 1095.16 1.28512 4.79373 0
M  V30 11747 H 1090.42 2.44228 5.60502 0
M  V30 11748 H 1094.59 3.26468 6.15136 0
M  V30 11749 H 1092.22 3.84913 6.5555 0
M  V30 11750 N 1093.79 -1.57004 0.136909 0
M  V30 11751 C 1095.04 -1.96087 -0.517477 0
M  V30 11752 C 1095.37 -1.0213 -1.65176 0
M  V30 11753 O 1094.65 -0.0617958 -1.94402 0
M  V30 11754 C 1094.93 -3.44958 -1.03323 0
M  V30 11755 C 1094.78 -4.49691 0.0988609 0
M  V30 11756 C 1096.1 -3.96091 -1.91832 0
M  V30 11757 H 1093.22 -0.712978 -0.186632 0
M  V30 11758 H 1095.86 -1.88767 0.216095 0
M  V30 11759 H 1094.01 -3.51327 -1.65836 0
M  V30 11760 H 1095.69 -4.55409 0.734847 0
M  V30 11761 H 1093.93 -4.271 0.75947 0
M  V30 11762 H 1094.6 -5.51165 -0.303554 0
M  V30 11763 H 1097.08 -3.92139 -1.39164 0
M  V30 11764 H 1095.95 -5.00742 -2.24831 0
M  V30 11765 H 1096.21 -3.37846 -2.85153 0
M  V30 11766 N 1095.27 0.136881 -1.57004 0
M  V30 11767 C 1096.52 0.8461 -1.83536 0
M  V30 11768 C 1096.84 1.81246 -0.71937 0
M  V30 11769 O 1096.11 1.94191 0.258161 0
M  V30 11770 H 1094.69 0.315446 -0.677128 0
M  V30 11771 H 1097.35 0.128469 -1.94476 0
M  V30 11772 H 1096.45 1.40221 -2.78827 0
M  V30 11773 N 1096.75 1.52266 0.40654 0
M  V30 11774 C 1097.71 1.75168 1.47814 0
M  V30 11775 C 1098.71 0.621575 1.48301 0
M  V30 11776 O 1099.9 0.889476 1.4978 0
M  V30 11777 C 1097.04 1.83642 2.87208 0
M  V30 11778 H 1098.23 2.70834 1.28798 0
M  V30 11779 H 1095.78 1.42722 0.637196 0
M  V30 11780 H 1096.52 0.898994 3.1159 0
M  V30 11781 H 1096.3 2.65801 2.88257 0
M  V30 11782 H 1097.79 2.03093 3.64888 0
M  V30 11783 N 1098.23 -0.663929 1.42933 0
M  V30 11784 C 1099.14 -1.80643 1.49683 0
M  V30 11785 C 1100.15 -1.69694 0.38472 0
M  V30 11786 O 1101.33 -1.91052 0.637256 0
M  V30 11787 C 1098.4 -3.16858 1.4072 0
M  V30 11788 C 1097.46 -3.39684 2.62514 0
M  V30 11789 C 1096.69 -4.69399 2.53969 0
M  V30 11790 O 1096.91 -5.48037 1.58152 0
M  V30 11791 O 1095.85 -4.93709 3.44289 0
M  V30 11792 H 1099.67 -1.77903 2.46138 0
M  V30 11793 H 1097.26 -0.821059 1.24816 0
M  V30 11794 H 1099.14 -3.9812 1.38124 0
M  V30 11795 H 1097.81 -3.20211 0.473954 0
M  V30 11796 H 1096.72 -2.58227 2.70684 0
M  V30 11797 H 1098.05 -3.41169 3.54774 0
M  V30 11798 N 1099.71 -1.29285 -0.901281 0
M  V30 11799 C 1100.64 -1.10086 -2.01032 0
M  V30 11800 C 1101.65 -0.0488364 -1.62727 0
M  V30 11801 O 1102.84 -0.293194 -1.76076 0
M  V30 11802 C 1099.94 -0.653357 -3.32542 0
M  V30 11803 C 1099.11 -1.78355 -3.99385 0
M  V30 11804 C 1098.17 -1.32733 -5.09184 0
M  V30 11805 O 1097.2 -2.03177 -5.31703 0
M  V30 11806 N 1098.4 -0.197345 -5.80164 0
M  V30 11807 H 1101.17 -2.056 -2.18057 0
M  V30 11808 H 1098.73 -1.21204 -1.07337 0
M  V30 11809 H 1100.72 -0.331491 -4.0334 0
M  V30 11810 H 1099.29 0.209278 -3.11899 0
M  V30 11811 H 1098.51 -2.27438 -3.21972 0
M  V30 11812 H 1099.8 -2.54137 -4.40785 0
M  V30 11813 H 1099.19 0.390011 -5.64354 0
M  V30 11814 H 1097.75 0.0651642 -6.51767 0
M  V30 11815 N 1101.18 1.11143 -1.11736 0
M  V30 11816 C 1102.11 2.19339 -0.800795 0
M  V30 11817 C 1103.1 1.68508 0.23221 0
M  V30 11818 O 1104.28 1.93967 0.0950063 0
M  V30 11819 C 1101.41 3.46424 -0.246579 0
M  V30 11820 C 1100.36 4.10487 -1.21181 0
M  V30 11821 C 1099.69 5.32183 -0.518158 0
M  V30 11822 C 1100.99 4.55052 -2.56368 0
M  V30 11823 H 1102.68 2.46077 -1.70548 0
M  V30 11824 H 1100.23 1.18271 -0.821454 0
M  V30 11825 H 1102.18 4.21398 -0.0128889 0
M  V30 11826 H 1100.91 3.19154 0.693415 0
M  V30 11827 H 1099.57 3.3751 -1.43118 0
M  V30 11828 H 1099.21 5.01187 0.426742 0
M  V30 11829 H 1098.91 5.75997 -1.16196 0
M  V30 11830 H 1100.44 6.09895 -0.293333 0
M  V30 11831 H 1101.85 5.21335 -2.38501 0
M  V30 11832 H 1100.25 5.0969 -3.16758 0
M  V30 11833 H 1101.32 3.68343 -3.1536 0
M  V30 11834 N 1102.66 0.908147 1.28804 0
M  V30 11835 C 1103.89 0.55409 1.99343 0
M  V30 11836 C 1104.31 -0.863262 1.67908 0
M  V30 11837 O 1103.66 -1.571 0.92875 0
M  V30 11838 C 1103.71 0.746916 3.537 0
M  V30 11839 O 1103.43 2.10849 3.84024 0
M  V30 11840 C 1104.94 0.398939 4.41501 0
M  V30 11841 H 1102.16 0.211784 0.636701 0
M  V30 11842 H 1104.7 1.21981 1.64137 0
M  V30 11843 H 1102.85 0.128264 3.87188 0
M  V30 11844 H 1103.27 2.14404 4.78676 0
M  V30 11845 H 1104.74 0.584656 5.48895 0
M  V30 11846 H 1105.22 -0.664517 4.34144 0
M  V30 11847 H 1105.83 0.994892 4.135 0
M  V30 11848 N 1104.14 -1.42577 0.671525 0
M  V30 11849 C 1105.09 -2.32591 -0.0205354 0
M  V30 11850 C 1106.08 -1.4964 -0.793993 0
M  V30 11851 O 1107.29 -1.65733 -0.702327 0
M  V30 11852 H 1103.66 -0.75157 -0.0254344 0
M  V30 11853 H 1105.63 -2.88662 0.756082 0
M  V30 11854 C 1104.38 -3.34175 -0.960316 0
M  V30 11855 H 1103.71 -3.98041 -0.374577 0
M  V30 11856 H 1105.15 -3.99752 -1.4133 0
M  V30 11857 C 1103.61 -2.66184 -2.06513 0
M  V30 11858 O 1104.14 -2.49125 -3.15119 0
M  V30 11859 N 1102.34 -2.25261 -1.83591 0
M  V30 11860 H 1101.89 -2.39336 -0.952689 0
M  V30 11861 H 1101.85 -1.80101 -2.57703 0
M  V30 11862 N 1105.62 -0.414636 -1.52048 0
M  V30 11863 C 1106.55 0.443601 -2.24866 0
M  V30 11864 C 1107.56 1.00556 -1.28032 0
M  V30 11865 O 1108.75 0.903566 -1.53941 0
M  V30 11866 C 1105.85 1.63004 -2.97124 0
M  V30 11867 C 1105.03 1.191 -4.20873 0
M  V30 11868 C 1104.08 2.24497 -4.75907 0
M  V30 11869 O 1103.11 1.84861 -5.38345 0
M  V30 11870 N 1104.31 3.56727 -4.57959 0
M  V30 11871 H 1107.08 -0.180393 -2.99157 0
M  V30 11872 H 1104.64 -0.242305 -1.60077 0
M  V30 11873 H 1106.63 2.33089 -3.30835 0
M  V30 11874 H 1105.2 2.15984 -2.25986 0
M  V30 11875 H 1104.42 0.318059 -3.92915 0
M  V30 11876 H 1105.71 0.874699 -5.01225 0
M  V30 11877 H 1105.11 3.91675 -4.08175 0
M  V30 11878 H 1103.66 4.22772 -4.96092 0
M  V30 11879 N 1107.1 1.56929 -0.145233 0
M  V30 11880 C 1108.37 1.8767 0.551288 0
M  V30 11881 C 1108.75 1.05089 1.83083 0
M  V30 11882 O 1108.1 0.137201 2.28088 0
M  V30 11883 C 1108.31 3.39268 0.818445 0
M  V30 11884 C 1109.66 4.08447 1.16 0
M  V30 11885 O 1110.68 3.44436 0.907857 0
M  V30 11886 O 1109.54 5.21488 1.63441 0
M  V30 11887 H 1106.64 0.777788 0.281024 0
M  V30 11888 H 1109.18 1.68724 -0.181712 0
M  V30 11889 H 1107.95 3.91203 -0.0871897 0
M  V30 11890 H 1107.58 3.63735 1.60569 0
M  V30 11891 N 1108.58 -0.128553 1.57075 0
M  V30 11892 C 1109.82 -0.83801 1.84347 0
M  V30 11893 C 1110.15 -1.80325 0.728906 0
M  V30 11894 O 1109.41 -1.93678 -0.280571 0
M  V30 11895 C 1109.7 -1.63027 3.18052 0
M  V30 11896 C 1109.37 -0.810171 4.43562 0
M  V30 11897 C 1108.03 -0.583984 4.77643 0
M  V30 11898 C 1110.38 -0.237896 5.20657 0
M  V30 11899 C 1107.71 0.224887 5.86269 0
M  V30 11900 C 1110.06 0.558114 6.30133 0
M  V30 11901 C 1108.73 0.794706 6.62752 0
M  V30 11902 H 1108 -0.30665 0.674572 0
M  V30 11903 H 1110.65 -0.100797 1.91235 0
M  V30 11904 H 1108.95 -2.43812 3.06697 0
M  V30 11905 H 1110.65 -2.183 3.36372 0
M  V30 11906 H 1107.24 -0.996547 4.16854 0
M  V30 11907 H 1111.42 -0.399881 4.94686 0
M  V30 11908 H 1106.68 0.417507 6.09973 0
M  V30 11909 H 1110.85 1.00859 6.89058 0
M  V30 11910 H 1108.48 1.42331 7.46757 0
M  V30 11911 N 1110.05 -1.5248 -0.398459 0
M  V30 11912 C 1110.98 -1.79549 -1.49279 0
M  V30 11913 C 1111.96 -0.647004 -1.57315 0
M  V30 11914 O 1113.15 -0.893661 -1.72416 0
M  V30 11915 C 1110.28 -1.95582 -2.86993 0
M  V30 11916 C 1109.23 -3.1123 -2.93803 0
M  V30 11917 C 1108.56 -3.12501 -4.33874 0
M  V30 11918 C 1109.86 -4.50485 -2.64312 0
M  V30 11919 H 1111.55 -2.71187 -1.26877 0
M  V30 11920 H 1109.1 -1.30492 -0.608924 0
M  V30 11921 H 1111.05 -2.13102 -3.63546 0
M  V30 11922 H 1109.78 -1.00625 -3.10712 0
M  V30 11923 H 1108.44 -2.93477 -2.19697 0
M  V30 11924 H 1108.08 -2.15245 -4.54619 0
M  V30 11925 H 1107.78 -3.90183 -4.39353 0
M  V30 11926 H 1109.31 -3.32164 -5.12347 0
M  V30 11927 H 1110.72 -4.68387 -3.30585 0
M  V30 11928 H 1109.12 -5.30163 -2.81153 0
M  V30 11929 H 1110.19 -4.57848 -1.59696 0
M  V30 11930 N 1111.53 0.65634 -1.43283 0
M  V30 11931 C 1112.48 1.76934 -1.48199 0
M  V30 11932 C 1113.45 1.62748 -0.332023 0
M  V30 11933 O 1114.63 1.83036 -0.538735 0
M  V30 11934 C 1111.77 3.15072 -1.40797 0
M  V30 11935 C 1110.89 3.40414 -2.65974 0
M  V30 11936 C 1110.02 4.68383 -2.50582 0
M  V30 11937 C 1109.06 4.8682 -3.71043 0
M  V30 11938 N 1108.2 6.06043 -3.5448 0
M  V30 11939 H 1113.04 1.72067 -2.43304 0
M  V30 11940 H 1110.57 0.839728 -1.20777 0
M  V30 11941 H 1112.53 3.94925 -1.345 0
M  V30 11942 H 1111.16 3.19017 -0.492754 0
M  V30 11943 H 1110.21 2.54681 -2.82563 0
M  V30 11944 H 1111.53 3.49925 -3.55463 0
M  V30 11945 H 1110.68 5.56357 -2.41975 0
M  V30 11946 H 1109.42 4.61187 -1.58612 0
M  V30 11947 H 1108.42 3.97282 -3.80062 0
M  V30 11948 H 1109.65 4.95847 -4.64017 0
M  V30 11949 H 1107.6 5.99985 -2.65242 0
M  V30 11950 H 1107.51 6.16498 -4.37568 0
M  V30 11951 H 1108.78 6.96647 -3.49719 0
M  V30 11952 N 1113.01 1.29761 0.894412 0
M  V30 11953 C 1113.97 1.15335 1.98067 0
M  V30 11954 C 1114.97 0.0872804 1.60563 0
M  V30 11955 O 1116.16 0.334645 1.70955 0
M  V30 11956 C 1113.29 0.764907 3.32208 0
M  V30 11957 H 1114.49 2.11829 2.12293 0
M  V30 11958 H 1112.04 1.13023 1.0796 0
M  V30 11959 H 1112.78 -0.199948 3.23683 0
M  V30 11960 H 1112.56 1.53523 3.60795 0
M  V30 11961 H 1114.05 0.687176 4.11907 0
M  V30 11962 N 1114.49 -1.10549 1.12324 0
M  V30 11963 C 1115.74 -1.82124 0.876083 0
M  V30 11964 C 1116.06 -1.85547 -0.599761 0
M  V30 11965 O 1115.33 -1.33269 -1.43584 0
M  V30 11966 H 1113.91 -0.674455 0.321122 0
M  V30 11967 H 1116.57 -1.33766 1.41748 0
M  V30 11968 H 1115.66 -2.85688 1.25653 0
M  V30 11969 N 1115.97 -0.914965 -1.28321 0
M  V30 11970 C 1117.24 -0.46764 -1.89928 0
M  V30 11971 C 1117.62 1.05364 -1.82925 0
M  V30 11972 O 1116.97 1.90223 -1.26599 0
M  V30 11973 C 1117.18 -0.999372 -3.34385 0
M  V30 11974 C 1118.53 -1.0522 -4.11356 0
M  V30 11975 O 1119.55 -0.9481 -3.4335 0
M  V30 11976 O 1118.41 -1.21085 -5.32917 0
M  V30 11977 H 1115.51 -0.148398 -0.813577 0
M  V30 11978 H 1118.05 -1.00583 -1.36679 0
M  V30 11979 H 1116.82 -2.04333 -3.33712 0
M  V30 11980 H 1116.45 -0.442083 -3.95135 0
M  V30 11981 N 1117.44 1.42219 -0.679077 0
M  V30 11982 C 1118.39 2.308 -0.00340316 0
M  V30 11983 C 1119.36 1.462 0.788334 0
M  V30 11984 O 1120.55 1.75023 0.759716 0
M  V30 11985 C 1117.69 3.32084 0.938854 0
M  V30 11986 C 1116.8 4.31772 0.140485 0
M  V30 11987 C 1115.93 5.20128 1.07888 0
M  V30 11988 C 1114.97 6.11493 0.27245 0
M  V30 11989 N 1114.11 6.92388 1.16378 0
M  V30 11990 H 1118.95 2.88024 -0.764587 0
M  V30 11991 H 1116.49 1.41869 -0.38878 0
M  V30 11992 H 1118.44 3.89339 1.49903 0
M  V30 11993 H 1117.07 2.76448 1.66662 0
M  V30 11994 H 1116.13 3.76599 -0.536376 0
M  V30 11995 H 1117.44 4.96432 -0.485433 0
M  V30 11996 H 1116.59 5.82137 1.70884 0
M  V30 11997 H 1115.33 4.55655 1.73868 0
M  V30 11998 H 1114.34 5.48549 -0.370693 0
M  V30 11999 H 1115.56 6.78017 -0.383315 0
M  V30 12000 H 1113.51 6.30538 1.8099 0
M  V30 12001 H 1113.42 7.5367 0.593043 0
M  V30 12002 H 1114.69 7.58879 1.78107 0
M  V30 12003 N 1118.92 0.422693 1.51826 0
M  V30 12004 C 1119.83 -0.40261 2.31119 0
M  V30 12005 C 1120.85 -1.04117 1.39412 0
M  V30 12006 O 1122.02 -1.03973 1.72486 0
M  V30 12007 C 1119.09 -1.49699 3.12716 0
M  V30 12008 C 1118.15 -0.880088 4.20182 0
M  V30 12009 C 1117.38 -1.92232 4.97878 0
M  V30 12010 O 1117.61 -3.14246 4.76031 0
M  V30 12011 O 1116.54 -1.521 5.82365 0
M  V30 12012 H 1120.37 0.244308 3.02716 0
M  V30 12013 H 1117.95 0.185569 1.48243 0
M  V30 12014 H 1119.83 -2.13202 3.63487 0
M  V30 12015 H 1118.51 -2.12826 2.43899 0
M  V30 12016 H 1117.41 -0.207404 3.73525 0
M  V30 12017 H 1118.75 -0.292535 4.9133 0
M  V30 12018 N 1120.4 -1.5685 0.153553 0
M  V30 12019 C 1121.35 -2.18385 -0.800667 0
M  V30 12020 C 1122.34 -1.14272 -1.25053 0
M  V30 12021 O 1123.55 -1.32509 -1.21825 0
M  V30 12022 H 1119.92 -0.699352 -0.276425 0
M  V30 12023 H 1121.89 -2.97287 -0.257535 0
M  V30 12024 C 1120.64 -2.82497 -2.02708 0
M  V30 12025 H 1119.97 -3.62328 -1.68992 0
M  V30 12026 H 1121.41 -3.29047 -2.67403 0
M  V30 12027 C 1119.86 -1.81343 -2.8393 0
M  V30 12028 O 1120.39 -1.28793 -3.80493 0
M  V30 12029 N 1118.6 -1.50499 -2.48593 0
M  V30 12030 H 1118.15 -1.93425 -1.70131 0
M  V30 12031 H 1118.11 -0.830672 -3.03228 0
M  V30 12032 N 1121.88 0.120221 -1.57141 0
M  V30 12033 C 1123.13 0.826791 -1.83976 0
M  V30 12034 C 1123.44 1.81102 -0.739014 0
M  V30 12035 O 1124.65 2.56368 -0.893736 0
M  V30 12036 C 1123.1 1.52108 -3.26176 0
M  V30 12037 C 1122.71 0.577902 -4.44257 0
M  V30 12038 C 1124.45 2.21286 -3.62261 0
M  V30 12039 C 1122.36 1.27535 -5.77485 0
M  V30 12040 H 1121.29 0.312508 -0.686189 0
M  V30 12041 H 1123.94 0.0795343 -1.83328 0
M  V30 12042 H 1122.32 2.31492 -3.2129 0
M  V30 12043 H 1123.5 -0.182629 -4.60438 0
M  V30 12044 H 1121.81 -0.00684348 -4.16399 0
M  V30 12045 H 1124.41 2.74154 -4.59068 0
M  V30 12046 H 1124.75 2.99029 -2.89634 0
M  V30 12047 H 1125.29 1.48791 -3.68925 0
M  V30 12048 H 1122.02 0.539237 -6.53278 0
M  V30 12049 H 1121.54 2.00792 -5.65192 0
M  V30 12050 H 1123.22 1.80888 -6.21199 0
M  V30 12051 N 1123.36 1.52689 0.390367 0
M  V30 12052 C 1124.6 1.67666 1.13553 0
M  V30 12053 C 1124.93 0.415903 1.90001 0
M  V30 12054 O 1124.19 -0.601664 1.86222 0
M  V30 12055 C 1124.49 2.86177 2.14096 0
M  V30 12056 C 1124.15 4.23671 1.54316 0
M  V30 12057 C 1122.81 4.61066 1.37739 0
M  V30 12058 C 1125.17 5.09278 1.1084 0
M  V30 12059 C 1122.49 5.81727 0.76231 0
M  V30 12060 C 1124.85 6.30562 0.507433 0
M  V30 12061 C 1123.51 6.66689 0.328945 0
M  V30 12062 H 1122.78 0.613533 0.415521 0
M  V30 12063 H 1125.43 1.8683 0.420339 0
M  V30 12064 H 1123.73 2.61424 2.9183 0
M  V30 12065 H 1125.43 2.9496 2.7166 0
M  V30 12066 H 1122.02 3.94214 1.68207 0
M  V30 12067 H 1126.2 4.80957 1.2245 0
M  V30 12068 H 1121.46 6.08327 0.612208 0
M  V30 12069 H 1125.63 6.96211 0.162248 0
M  V30 12070 H 1123.26 7.60052 -0.149748 0
M  V30 12071 N 1124.83 -0.648732 1.43629 0
M  V30 12072 C 1125.78 -1.78269 1.49409 0
M  V30 12073 C 1126.78 -1.6537 0.367288 0
M  V30 12074 O 1127.98 -1.71663 0.541476 0
M  V30 12075 H 1124.36 -0.58824 0.468484 0
M  V30 12076 H 1126.33 -1.70514 2.44883 0
M  V30 12077 C 1125.08 -3.16545 1.43856 0
M  V30 12078 H 1124.4 -3.2711 2.29868 0
M  V30 12079 H 1125.84 -3.95833 1.51961 0
M  V30 12080 C 1124.3 -3.36535 0.156779 0
M  V30 12081 O 1124.83 -3.94052 -0.780124 0
M  V30 12082 N 1123.04 -2.90526 0.0655319 0
M  V30 12083 H 1122.58 -2.43904 0.828768 0
M  V30 12084 H 1122.54 -3.04277 -0.791379 0
M  V30 12085 N 1126.31 -1.30234 -0.887518 0
M  V30 12086 C 1127.28 -1.16384 -1.97452 0
M  V30 12087 C 1128.28 -0.0957942 -1.60514 0
M  V30 12088 O 1129.47 -0.343706 -1.70776 0
M  V30 12089 C 1126.6 -0.782514 -3.31797 0
M  V30 12090 H 1127.79 -2.12952 -2.11167 0
M  V30 12091 H 1125.34 -1.13594 -1.07359 0
M  V30 12092 H 1126.08 0.18278 -3.23785 0
M  V30 12093 H 1125.86 -1.55434 -3.59976 0
M  V30 12094 H 1127.35 -0.709011 -4.11537 0
M  V30 12095 N 1127.79 1.09952 -1.12909 0
M  V30 12096 C 1129.07 1.78547 -0.798767 0
M  V30 12097 C 1129.45 1.9878 0.710624 0
M  V30 12098 O 1128.8 1.58485 1.64604 0
M  V30 12099 C 1129.01 3.1121 -1.57953 0
M  V30 12100 C 1130.35 3.86006 -1.76874 0
M  V30 12101 O 1131.38 3.20946 -1.54506 0
M  V30 12102 O 1130.24 5.02791 -2.14158 0
M  V30 12103 H 1127.33 0.774084 -0.291072 0
M  V30 12104 H 1129.88 1.16557 -1.2334 0
M  V30 12105 H 1128.65 2.91935 -2.60557 0
M  V30 12106 H 1128.27 3.80922 -1.13948 0
M  V30 12107 N 1129.27 0.921757 1.27833 0
M  V30 12108 C 1130.22 0.387357 2.24685 0
M  V30 12109 C 1131.2 -0.505036 1.52768 0
M  V30 12110 O 1132.39 -0.34345 1.73636 0
M  V30 12111 C 1129.52 -0.364168 3.41363 0
M  V30 12112 C 1128.61 0.544401 4.20591 0
M  V30 12113 N 1129 1.66158 4.77729 0
M  V30 12114 C 1127.3 0.346289 4.44654 0
M  V30 12115 C 1128 2.22619 5.37416 0
M  V30 12116 N 1126.98 1.51648 5.22019 0
M  V30 12117 H 1130.78 1.24045 2.6644 0
M  V30 12118 H 1128.29 0.775338 1.42696 0
M  V30 12119 H 1130.29 -0.763917 4.09841 0
M  V30 12120 H 1128.95 -1.21426 3.01141 0
M  V30 12121 H 1129.96 2.04406 4.75856 0
M  V30 12122 H 1126.64 -0.46363 4.14918 0
M  V30 12123 H 1128.03 3.16641 5.92611 0
M  V30 12124 N 1130.75 -1.41857 0.686609 0
M  V30 12125 C 1131.99 -2.01368 0.213801 0
M  V30 12126 C 1132.32 -1.5434 -1.18361 0
M  V30 12127 O 1131.58 -0.741447 -1.81111 0
M  V30 12128 C 1131.88 -3.56783 0.209951 0
M  V30 12129 C 1131.54 -4.23288 1.55365 0
M  V30 12130 C 1130.2 -4.41169 1.92154 0
M  V30 12131 C 1132.56 -4.6066 2.43807 0
M  V30 12132 C 1129.88 -4.93697 3.16986 0
M  V30 12133 C 1132.24 -5.14573 3.67963 0
M  V30 12134 C 1130.9 -5.30667 4.04906 0
M  V30 12135 H 1130.17 -0.736858 0.0782352 0
M  V30 12136 H 1132.82 -1.69879 0.88393 0
M  V30 12137 H 1131.12 -3.88009 -0.543712 0
M  V30 12138 H 1132.82 -4.00625 -0.173267 0
M  V30 12139 H 1129.41 -4.09738 1.2575 0
M  V30 12140 H 1133.59 -4.46507 2.16668 0
M  V30 12141 H 1128.85 -5.04342 3.45615 0
M  V30 12142 H 1133.02 -5.42473 4.36687 0
M  V30 12143 H 1130.65 -5.71133 5.01709 0
M  V30 12144 N 1132.22 -0.430739 -1.51599 0
M  V30 12145 C 1133.64 0.0339139 -1.86669 0
M  V30 12146 C 1133.99 1.42533 -1.34829 0
M  V30 12147 O 1133.11 2.04889 -0.696376 0
M  V30 12148 C 1133.71 0.0683174 -3.38731 0
M  V30 12149 C 1132.27 0.477363 -3.73361 0
M  V30 12150 C 1131.41 -0.334258 -2.75278 0
M  V30 12151 H 1134.36 -0.646875 -1.44918 0
M  V30 12152 H 1134.38 0.879179 -3.70204 0
M  V30 12153 H 1133.9 -0.944501 -3.76432 0
M  V30 12154 H 1132 1.49603 -3.41247 0
M  V30 12155 H 1132.11 0.206744 -4.78654 0
M  V30 12156 H 1130.47 0.206503 -2.53861 0
M  V30 12157 H 1131.26 -1.34583 -3.1582 0
M  V30 12158 N 1133.7 1.56767 -0.161869 0
M  V30 12159 C 1134.63 2.20511 0.767918 0
M  V30 12160 C 1135.61 1.15783 1.24612 0
M  V30 12161 O 1136.8 1.44179 1.301 0
M  V30 12162 C 1133.93 2.83844 2.00125 0
M  V30 12163 C 1132.88 3.94528 1.65926 0
M  V30 12164 C 1132.21 4.44866 2.96646 0
M  V30 12165 C 1133.51 5.14583 0.894497 0
M  V30 12166 H 1135.2 2.98464 0.236607 0
M  V30 12167 H 1132.75 1.43561 0.112363 0
M  V30 12168 H 1134.7 3.27109 2.65664 0
M  V30 12169 H 1133.43 2.03246 2.55654 0
M  V30 12170 H 1132.08 3.51904 1.02759 0
M  V30 12171 H 1131.73 3.61071 3.50196 0
M  V30 12172 H 1131.43 5.19531 2.74521 0
M  V30 12173 H 1132.96 4.90812 3.6323 0
M  V30 12174 H 1134.37 5.54601 1.45228 0
M  V30 12175 H 1132.77 5.95105 0.772636 0
M  V30 12176 H 1133.84 4.84773 -0.110986 0
M  V30 12177 N 1135.18 -0.111886 1.57202 0
M  V30 12178 C 1136.43 -0.8146 1.86376 0
M  V30 12179 C 1136.78 -1.77156 0.750558 0
M  V30 12180 O 1136.07 -1.89977 -0.248867 0
M  V30 12181 C 1136.27 -1.59644 3.19763 0
M  V30 12182 C 1136.1 -0.71669 4.43952 0
M  V30 12183 C 1134.87 -0.36881 5.03952 0
M  V30 12184 C 1137.07 -0.0311316 5.14291 0
M  V30 12185 N 1135.05 0.520861 6.11686 0
M  V30 12186 C 1136.42 0.71726 6.15837 0
M  V30 12187 C 1138.47 0.0445453 4.9788 0
M  V30 12188 C 1137.18 1.53423 7.02747 0
M  V30 12189 C 1139.2 0.848364 5.85283 0
M  V30 12190 C 1138.56 1.58493 6.86338 0
M  V30 12191 H 1134.66 -0.274785 0.732132 0
M  V30 12192 H 1137.25 -0.0779628 1.94544 0
M  V30 12193 H 1135.42 -2.30407 3.12678 0
M  V30 12194 H 1137.15 -2.24504 3.36719 0
M  V30 12195 H 1133.91 -0.712671 4.68207 0
M  V30 12196 H 1134.33 0.957756 6.70191 0
M  V30 12197 H 1138.97 -0.510564 4.19706 0
M  V30 12198 H 1136.69 2.10047 7.80324 0
M  V30 12199 H 1140.28 0.909372 5.74649 0
M  V30 12200 H 1139.16 2.19691 7.52798 0
M  V30 12201 N 1136.66 -1.52894 -0.382264 0
M  V30 12202 C 1137.89 -1.71902 -1.146 0
M  V30 12203 C 1138.3 -0.44017 -1.84009 0
M  V30 12204 O 1137.64 0.595616 -1.73776 0
M  V30 12205 C 1137.7 -2.81785 -2.23244 0
M  V30 12206 C 1137.37 -4.22684 -1.73745 0
M  V30 12207 C 1138.36 -5.05611 -1.21054 0
M  V30 12208 C 1136.05 -4.69031 -1.79763 0
M  V30 12209 C 1138.04 -6.32968 -0.750368 0
M  V30 12210 C 1135.73 -5.96371 -1.33358 0
M  V30 12211 C 1136.73 -6.7817 -0.810832 0
M  V30 12212 O 1136.41 -8.03122 -0.353577 0
M  V30 12213 H 1136.15 -0.578767 -0.349292 0
M  V30 12214 H 1138.7 -2.00359 -0.452246 0
M  V30 12215 H 1136.93 -2.48764 -2.96063 0
M  V30 12216 H 1138.62 -2.89131 -2.84883 0
M  V30 12217 H 1139.39 -4.70984 -1.15755 0
M  V30 12218 H 1135.26 -4.05447 -2.19394 0
M  V30 12219 H 1138.81 -6.96763 -0.341666 0
M  V30 12220 H 1134.71 -6.30501 -1.38344 0
M  V30 12221 H 1135.47 -8.17124 -0.474439 0
M  V30 12222 N 1138.14 0.641106 -1.43971 0
M  V30 12223 C 1139.55 0.958161 -1.27638 0
M  V30 12224 C 1139.75 2.00456 -0.204885 0
M  V30 12225 O 1138.81 2.49106 0.412606 0
M  V30 12226 C 1140.12 1.43091 -2.64472 0
M  V30 12227 C 1141.67 1.54692 -2.72102 0
M  V30 12228 C 1142.15 2.05353 -4.09382 0
M  V30 12229 N 1143.64 2.12638 -4.11509 0
M  V30 12230 C 1144.37 2.52987 -5.14573 0
M  V30 12231 N 1143.87 2.92544 -6.28005 0
M  V30 12232 N 1145.66 2.53033 -5.01927 0
M  V30 12233 H 1137.81 -0.0510973 -2.12339 0
M  V30 12234 H 1140.07 0.039748 -0.947166 0
M  V30 12235 H 1139.78 0.736389 -3.43904 0
M  V30 12236 H 1139.65 2.40375 -2.90688 0
M  V30 12237 H 1142.04 2.23242 -1.92994 0
M  V30 12238 H 1142.12 0.558083 -2.49638 0
M  V30 12239 H 1141.77 1.37401 -4.88962 0
M  V30 12240 H 1141.7 3.0509 -4.29218 0
M  V30 12241 H 1144.19 1.84792 -3.29636 0
M  V30 12242 H 1144.5 3.22116 -7.02468 0
M  V30 12243 H 1142.85 2.90319 -6.31458 0
M  V30 12244 H 1146.04 2.21514 -4.1237 0
M  V30 12245 H 1146.21 2.84155 -5.82375 0
M  V30 12246 N 1139.62 1.30703 0.880598 0
M  V30 12247 C 1141.03 1.09129 1.1646 0
M  V30 12248 C 1141.23 -0.145131 2.00977 0
M  V30 12249 O 1140.29 -0.837502 2.38206 0
M  V30 12250 C 1141.6 2.35717 1.86703 0
M  V30 12251 C 1143.15 2.41224 1.9945 0
M  V30 12252 C 1143.62 3.67665 2.73105 0
M  V30 12253 N 1145.11 3.68498 2.80648 0
M  V30 12254 C 1145.85 4.63024 3.38225 0
M  V30 12255 N 1145.35 5.67898 3.96817 0
M  V30 12256 N 1147.14 4.50561 3.36082 0
M  V30 12257 H 1139.29 2.10019 0.317164 0
M  V30 12258 H 1141.55 0.925994 0.203072 0
M  V30 12259 H 1141.26 3.2597 1.32046 0
M  V30 12260 H 1141.13 2.447 2.87057 0
M  V30 12261 H 1143.52 1.51446 2.53275 0
M  V30 12262 H 1143.6 2.36212 0.981704 0
M  V30 12263 H 1143.24 4.57803 2.19951 0
M  V30 12264 H 1143.17 3.69939 3.7477 0
M  V30 12265 H 1145.67 2.92681 2.39053 0
M  V30 12266 H 1145.98 6.3612 4.3883 0
M  V30 12267 H 1144.32 5.71685 3.95223 0
M  V30 12268 H 1147.51 3.67811 2.89539 0
M  V30 12269 H 1147.69 5.24408 3.80657 0
M  V30 12270 N 1141.09 -1.09351 1.1349 0
M  V30 12271 C 1142.06 -2.14185 0.815919 0
M  V30 12272 C 1143.06 -1.59845 -0.174976 0
M  V30 12273 O 1144.25 -1.74122 0.0521971 0
M  V30 12274 C 1141.38 -3.40224 0.214517 0
M  V30 12275 H 1142.57 -2.43913 1.74489 0
M  V30 12276 H 1140.12 -1.24902 0.939634 0
M  V30 12277 H 1140.86 -3.16123 -0.723634 0
M  V30 12278 H 1140.64 -3.80958 0.928102 0
M  V30 12279 H 1142.13 -4.17599 0.00821999 0
M  V30 12280 N 1142.57 -0.928524 -1.27343 0
M  V30 12281 C 1143.53 -0.43292 -2.25074 0
M  V30 12282 C 1144.53 0.448976 -1.54405 0
M  V30 12283 O 1145.72 0.249939 -1.72398 0
M  V30 12284 C 1142.86 0.377539 -3.38803 0
M  V30 12285 H 1144.05 -1.29642 -2.70431 0
M  V30 12286 H 1141.6 -0.709289 -1.3928 0
M  V30 12287 H 1142.34 1.25982 -2.98829 0
M  V30 12288 H 1142.12 -0.254782 -3.91271 0
M  V30 12289 H 1143.61 0.714634 -4.1144 0
M  V30 12290 N 1144.05 1.41491 -0.694123 0
M  V30 12291 C 1144.96 2.34583 -0.0283414 0
M  V30 12292 C 1145.98 1.5615 0.767662 0
M  V30 12293 O 1147.15 1.88637 0.705556 0
M  V30 12294 C 1144.22 3.34876 0.897726 0
M  V30 12295 C 1143.28 4.29197 0.0940905 0
M  V30 12296 C 1142.51 5.24699 0.976051 0
M  V30 12297 O 1142.73 5.25613 2.21556 0
M  V30 12298 O 1141.67 6.00387 0.426503 0
M  V30 12299 H 1145.49 2.93092 -0.795656 0
M  V30 12300 H 1143.08 1.4232 -0.45445 0
M  V30 12301 H 1144.96 3.96438 1.4288 0
M  V30 12302 H 1143.64 2.78812 1.64456 0
M  V30 12303 H 1142.54 3.70988 -0.481552 0
M  V30 12304 H 1143.88 4.88355 -0.614045 0
M  V30 12305 N 1145.53 0.438773 1.51369 0
M  V30 12306 C 1146.46 -0.407771 2.25543 0
M  V30 12307 C 1147.47 -0.985065 1.29616 0
M  V30 12308 O 1148.66 -0.878961 1.55359 0
M  V30 12309 C 1145.76 -1.58257 2.9968 0
M  V30 12310 C 1144.93 -1.12389 4.22714 0
M  V30 12311 C 1143.99 -2.16897 4.79418 0
M  V30 12312 O 1143.02 -1.76273 5.41218 0
M  V30 12313 N 1144.22 -3.49396 4.63576 0
M  V30 12314 H 1146.99 0.227963 2.98832 0
M  V30 12315 H 1144.55 0.267741 1.59671 0
M  V30 12316 H 1146.54 -2.27796 3.34501 0
M  V30 12317 H 1145.11 -2.12362 2.29393 0
M  V30 12318 H 1144.33 -0.255509 3.93371 0
M  V30 12319 H 1145.62 -0.794848 5.02553 0
M  V30 12320 H 1145.02 -3.85132 4.14355 0
M  V30 12321 H 1143.57 -4.14826 5.02755 0
M  V30 12322 N 1147.01 -1.56678 0.170181 0
M  V30 12323 C 1148.25 -1.96024 -0.475147 0
M  V30 12324 C 1148.57 -1.0588 -1.64465 0
M  V30 12325 O 1149.77 -1.34901 -2.35614 0
M  V30 12326 C 1148.23 -3.4855 -0.896704 0
M  V30 12327 C 1147.84 -4.47318 0.247142 0
M  V30 12328 C 1149.58 -3.96716 -1.51052 0
M  V30 12329 C 1147.49 -5.91082 -0.193982 0
M  V30 12330 H 1146.42 -0.731883 -0.181282 0
M  V30 12331 H 1149.07 -1.81674 0.25823 0
M  V30 12332 H 1147.45 -3.58314 -1.68603 0
M  V30 12333 H 1148.63 -4.49268 1.02445 0
M  V30 12334 H 1146.94 -4.09203 0.770839 0
M  V30 12335 H 1149.54 -5.01581 -1.85258 0
M  V30 12336 H 1149.88 -3.39588 -2.40802 0
M  V30 12337 H 1150.41 -3.89965 -0.785652 0
M  V30 12338 H 1147.15 -6.5208 0.668714 0
M  V30 12339 H 1146.67 -5.92441 -0.936675 0
M  V30 12340 H 1148.35 -6.43844 -0.638237 0
M  V30 12341 N 1148.48 0.103547 -1.57259 0
M  V30 12342 C 1149.89 0.659006 -1.74683 0
M  V30 12343 C 1150.25 1.79542 -0.791142 0
M  V30 12344 O 1149.37 2.16376 0.0323585 0
M  V30 12345 C 1149.97 1.20222 -3.16752 0
M  V30 12346 C 1148.52 1.70382 -3.35629 0
M  V30 12347 C 1147.67 0.609886 -2.7051 0
M  V30 12348 H 1150.62 -0.122474 -1.58227 0
M  V30 12349 H 1150.64 2.07169 -3.19157 0
M  V30 12350 H 1150.16 0.374901 -3.86285 0
M  V30 12351 H 1148.26 2.55542 -2.71162 0
M  V30 12352 H 1148.37 1.80263 -4.43894 0
M  V30 12353 H 1146.73 1.04728 -2.32173 0
M  V30 12354 H 1147.52 -0.206713 -3.42677 0
M  V30 12355 N 1149.96 1.53094 0.37415 0
M  V30 12356 C 1151.21 1.68527 1.11548 0
M  V30 12357 C 1151.53 0.435253 1.9008 0
M  V30 12358 O 1150.8 -0.550594 1.88003 0
M  V30 12359 H 1149.38 0.621255 0.41479 0
M  V30 12360 H 1152.04 1.90258 0.422844 0
M  V30 12361 H 1151.14 2.54248 1.81009 0
M  V30 12362 N 1151.44 -0.633461 1.44309 0
M  V30 12363 C 1152.66 -1.42527 1.50668 0
M  V30 12364 C 1153.09 -1.87637 0.131861 0
M  V30 12365 O 1152.45 -1.58595 -0.878477 0
M  V30 12366 C 1152.5 -2.62328 2.47419 0
M  V30 12367 O 1151.6 -3.62081 1.97411 0
M  V30 12368 H 1150.94 -0.426559 0.508864 0
M  V30 12369 H 1153.47 -0.773392 1.8942 0
M  V30 12370 H 1153.48 -3.09901 2.65378 0
M  V30 12371 H 1152.16 -2.2884 3.47283 0
M  V30 12372 H 1150.73 -3.21333 1.89208 0
M  V30 12373 N 1152.92 -1.31168 -0.873655 0
M  V30 12374 C 1154.17 -1.20642 -1.6264 0
M  V30 12375 C 1154.49 0.236286 -1.93059 0
M  V30 12376 O 1153.75 1.18401 -1.55819 0
M  V30 12377 C 1154.05 -1.99204 -2.96736 0
M  V30 12378 C 1153.71 -3.48734 -2.85824 0
M  V30 12379 C 1152.38 -3.89507 -2.82555 0
M  V30 12380 C 1154.73 -4.43905 -2.73127 0
M  V30 12381 C 1152.06 -5.23724 -2.64442 0
M  V30 12382 C 1154.41 -5.78242 -2.56551 0
M  V30 12383 C 1153.07 -6.18241 -2.51663 0
M  V30 12384 H 1152.34 -0.44146 -0.595142 0
M  V30 12385 H 1154.99 -1.62394 -1.01492 0
M  V30 12386 H 1153.29 -1.50122 -3.61899 0
M  V30 12387 H 1154.99 -1.88443 -3.53963 0
M  V30 12388 H 1151.58 -3.1634 -2.89184 0
M  V30 12389 H 1155.76 -4.13338 -2.7471 0
M  V30 12390 H 1151.02 -5.53794 -2.59081 0
M  V30 12391 H 1155.19 -6.51616 -2.45702 0
M  V30 12392 H 1152.82 -7.22185 -2.37387 0
M  V30 12393 N 1154.4 1.08748 -1.14068 0
M  V30 12394 C 1155.64 1.81333 -0.908081 0
M  V30 12395 C 1155.98 1.85826 0.564112 0
M  V30 12396 O 1155.25 1.33157 1.41773 0
M  V30 12397 C 1155.53 3.27127 -1.50531 0
M  V30 12398 C 1155.39 3.30865 -3.04711 0
M  V30 12399 C 1156.71 4.24006 -1.17928 0
M  V30 12400 H 1153.82 0.658326 -0.331325 0
M  V30 12401 H 1156.47 1.27345 -1.41008 0
M  V30 12402 H 1154.62 3.73233 -1.07839 0
M  V30 12403 H 1156.29 2.93109 -3.56209 0
M  V30 12404 H 1154.53 2.70241 -3.39341 0
M  V30 12405 H 1155.2 4.33603 -3.41603 0
M  V30 12406 H 1157.68 3.86221 -1.54831 0
M  V30 12407 H 1156.55 5.2434 -1.62353 0
M  V30 12408 H 1156.82 4.42 -0.0940349 0
M  V30 12409 N 1155.87 0.935264 1.26849 0
M  V30 12410 C 1157.1 0.595384 1.97835 0
M  V30 12411 C 1157.51 -0.832605 1.69895 0
M  V30 12412 O 1156.86 -1.56597 0.960371 0
M  V30 12413 C 1156.92 0.750567 3.51578 0
M  V30 12414 C 1156.58 2.15208 4.03156 0
M  V30 12415 C 1157.58 3.12699 4.15349 0
M  V30 12416 C 1155.26 2.47106 4.37314 0
M  V30 12417 C 1157.26 4.40193 4.60987 0
M  V30 12418 C 1154.94 3.74834 4.82641 0
M  V30 12419 C 1155.94 4.7119 4.94438 0
M  V30 12420 O 1155.63 5.96644 5.38768 0
M  V30 12421 H 1155.36 0.223734 0.637902 0
M  V30 12422 H 1157.92 1.25663 1.62475 0
M  V30 12423 H 1156.15 0.0322039 3.86687 0
M  V30 12424 H 1157.84 0.414625 4.03777 0
M  V30 12425 H 1158.6 2.89378 3.89211 0
M  V30 12426 H 1154.48 1.72846 4.2737 0
M  V30 12427 H 1158.02 5.15406 4.70109 0
M  V30 12428 H 1153.92 3.9797 5.08222 0
M  V30 12429 H 1154.69 5.99741 5.57003 0
M  V30 12430 N 1157.35 -1.41121 0.701616 0
M  V30 12431 C 1158.58 -2.05973 0.242896 0
M  V30 12432 C 1159 -1.52474 -1.10151 0
M  V30 12433 O 1158.36 -0.654224 -1.69085 0
M  V30 12434 C 1158.41 -3.59943 0.217614 0
M  V30 12435 O 1157.51 -4.04454 -0.805629 0
M  V30 12436 H 1156.85 -0.653581 0.117166 0
M  V30 12437 H 1159.38 -1.80777 0.958175 0
M  V30 12438 H 1159.39 -4.07969 0.0505267 0
M  V30 12439 H 1158.07 -3.98249 1.19877 0
M  V30 12440 H 1156.65 -3.6792 -0.607404 0
M  V30 12441 N 1158.83 -0.446794 -1.51134 0
M  V30 12442 C 1160.08 0.118047 -2.01354 0
M  V30 12443 C 1160.39 1.42953 -1.33505 0
M  V30 12444 O 1161.6 2.07788 -1.74747 0
M  V30 12445 C 1160.05 0.260912 -3.58953 0
M  V30 12446 C 1159.66 -1.0407 -4.35745 0
M  V30 12447 C 1161.41 0.779014 -4.17291 0
M  V30 12448 C 1159.31 -0.862958 -5.8507 0
M  V30 12449 H 1158.24 0.0478915 -0.752478 0
M  V30 12450 H 1160.89 -0.577997 -1.74159 0
M  V30 12451 H 1159.28 1.02018 -3.82633 0
M  V30 12452 H 1160.45 -1.80903 -4.23805 0
M  V30 12453 H 1158.77 -1.48805 -3.88904 0
M  V30 12454 H 1161.36 0.928636 -5.26574 0
M  V30 12455 H 1161.71 1.76399 -3.7708 0
M  V30 12456 H 1162.24 0.0778022 -3.97724 0
M  V30 12457 H 1158.98 -1.82059 -6.2971 0
M  V30 12458 H 1158.5 -0.134588 -5.99649 0
M  V30 12459 H 1160.18 -0.51989 -6.44908 0
M  V30 12460 N 1160.31 1.56586 -0.178487 0
M  V30 12461 C 1161.72 1.83633 0.337009 0
M  V30 12462 C 1162.07 1.09857 1.6256 0
M  V30 12463 O 1161.2 0.353933 2.13486 0
M  V30 12464 C 1161.79 3.33112 0.618225 0
M  V30 12465 C 1160.35 3.60629 1.07814 0
M  V30 12466 C 1159.5 2.7705 0.117825 0
M  V30 12467 H 1162.45 1.53508 -0.402612 0
M  V30 12468 H 1162.47 3.5098 1.46947 0
M  V30 12469 H 1161.98 3.8678 -0.319808 0
M  V30 12470 H 1160.08 3.12378 2.03103 0
M  V30 12471 H 1160.19 4.68921 0.982339 0
M  V30 12472 H 1158.56 2.47125 0.616563 0
M  V30 12473 H 1159.34 3.33501 -0.814356 0
M  V30 12474 N 1161.79 -0.095206 1.57312 0
M  V30 12475 C 1163.03 -0.798719 1.86083 0
M  V30 12476 C 1163.36 -1.78739 0.766991 0
M  V30 12477 O 1162.62 -1.9423 -0.239425 0
M  V30 12478 C 1162.92 -1.56244 3.21438 0
M  V30 12479 C 1162.58 -0.715903 4.4518 0
M  V30 12480 C 1161.24 -0.482537 4.78774 0
M  V30 12481 C 1163.6 -0.127404 5.21044 0
M  V30 12482 C 1160.92 0.349193 5.8566 0
M  V30 12483 C 1163.28 0.691649 6.28808 0
M  V30 12484 C 1161.94 0.935107 6.60918 0
M  V30 12485 H 1161.21 -0.292272 0.680924 0
M  V30 12486 H 1163.86 -0.0602105 1.91405 0
M  V30 12487 H 1162.16 -2.37251 3.118 0
M  V30 12488 H 1163.86 -2.11116 3.40927 0
M  V30 12489 H 1160.45 -0.907902 4.18874 0
M  V30 12490 H 1164.63 -0.29486 4.95423 0
M  V30 12491 H 1159.89 0.546797 6.0895 0
M  V30 12492 H 1164.06 1.15452 6.86763 0
M  V30 12493 H 1161.69 1.58139 7.4357 0
M  V30 12494 N 1163.26 -1.53291 -0.366026 0
M  V30 12495 C 1164.49 -1.73665 -1.13381 0
M  V30 12496 C 1164.91 -0.464284 -1.8228 0
M  V30 12497 O 1164.27 0.581645 -1.71717 0
M  V30 12498 C 1164.32 -2.90225 -2.14013 0
M  V30 12499 O 1163.42 -2.58803 -3.21084 0
M  V30 12500 H 1162.77 -0.576762 -0.329 0
M  V30 12501 H 1165.3 -2.00174 -0.423287 0
M  V30 12502 H 1165.31 -3.16378 -2.57622 0
M  V30 12503 H 1163.98 -3.82518 -1.63257 0
M  V30 12504 H 1162.56 -2.43466 -2.82451 0
M  V30 12505 N 1164.74 0.6258 -1.44643 0
M  V30 12506 C 1165.97 1.41233 -1.51198 0
M  V30 12507 C 1166.39 1.88291 -0.138572 0
M  V30 12508 O 1165.74 1.61151 0.856537 0
M  V30 12509 C 1165.79 2.62908 -2.48117 0
M  V30 12510 O 1165.51 2.1781 -3.80119 0
M  V30 12511 C 1167.02 3.55976 -2.6419 0
M  V30 12512 H 1164.24 0.432954 -0.512632 0
M  V30 12513 H 1166.78 0.76486 -1.89658 0
M  V30 12514 H 1164.93 3.23735 -2.12778 0
M  V30 12515 H 1165.35 2.96732 -4.32493 0
M  V30 12516 H 1166.82 4.37943 -3.3602 0
M  V30 12517 H 1167.3 4.05133 -1.696 0
M  V30 12518 H 1167.91 3.01014 -3.00451 0
M  V30 12519 N 1166.22 1.31629 0.866686 0
M  V30 12520 C 1167.47 1.21263 1.61678 0
M  V30 12521 C 1167.79 -0.228562 1.93656 0
M  V30 12522 O 1167.06 -1.15014 1.58583 0
M  V30 12523 H 1165.64 0.445817 0.59938 0
M  V30 12524 H 1168.3 1.64998 1.03739 0
M  V30 12525 H 1167.4 1.78669 2.55898 0
M  V30 12526 N 1167.7 -1.08142 1.14644 0
M  V30 12527 C 1169.11 -1.62061 0.926986 0
M  V30 12528 C 1169.46 -1.88805 -0.533578 0
M  V30 12529 O 1168.59 -1.64753 -1.40305 0
M  V30 12530 C 1169.18 -2.94425 1.67629 0
M  V30 12531 C 1167.74 -3.45118 1.50235 0
M  V30 12532 C 1166.89 -2.19307 1.69705 0
M  V30 12533 H 1169.84 -0.913326 1.29785 0
M  V30 12534 H 1169.86 -3.62987 1.14107 0
M  V30 12535 H 1169.37 -2.74928 2.73927 0
M  V30 12536 H 1167.47 -3.69713 0.462967 0
M  V30 12537 H 1167.59 -4.2169 2.27408 0
M  V30 12538 H 1165.95 -2.28611 1.12291 0
M  V30 12539 H 1166.73 -2.02315 2.77351 0
M  V30 12540 N 1169.18 -0.941978 -1.26351 0
M  V30 12541 C 1170.42 -0.590845 -1.94002 0
M  V30 12542 C 1170.76 0.868004 -1.73722 0
M  V30 12543 O 1170.03 1.62111 -1.07472 0
M  V30 12544 C 1170.31 -0.934901 -3.47752 0
M  V30 12545 C 1170.17 -2.44855 -3.77314 0
M  V30 12546 C 1171.49 -0.450888 -4.37784 0
M  V30 12547 H 1168.61 -0.21613 -0.704597 0
M  V30 12548 H 1171.25 -1.17634 -1.49205 0
M  V30 12549 H 1169.4 -0.436648 -3.86038 0
M  V30 12550 H 1171.07 -3.01959 -3.48738 0
M  V30 12551 H 1169.31 -2.89169 -3.23363 0
M  V30 12552 H 1169.98 -2.6398 -4.84787 0
M  V30 12553 H 1172.46 -0.878107 -4.06729 0
M  V30 12554 H 1171.34 -0.720439 -5.44152 0
M  V30 12555 H 1171.6 0.649162 -4.37308 0
M  V30 12556 N 1170.66 1.40747 -0.709091 0
M  V30 12557 C 1171.6 2.32564 -0.0411392 0
M  V30 12558 C 1172.6 1.51692 0.75404 0
M  V30 12559 O 1173.8 1.67537 0.658139 0
M  V30 12560 H 1170.18 0.75198 0.00549889 0
M  V30 12561 H 1172.15 2.86556 -0.83235 0
M  V30 12562 C 1170.9 3.36604 0.871378 0
M  V30 12563 H 1170.22 3.98895 0.268912 0
M  V30 12564 H 1171.66 4.03359 1.30682 0
M  V30 12565 C 1170.12 2.71566 1.99384 0
M  V30 12566 O 1170.65 2.57392 3.08403 0
M  V30 12567 N 1168.86 2.3005 1.77554 0
M  V30 12568 H 1168.4 2.41778 0.888898 0
M  V30 12569 H 1168.36 1.8687 2.52838 0
M  V30 12570 N 1172.13 0.454803 1.50895 0
M  V30 12571 C 1173.08 -0.347769 2.28165 0
M  V30 12572 C 1174.05 -1.00158 1.32505 0
M  V30 12573 O 1175.24 -1.01715 1.61427 0
M  V30 12574 C 1172.38 -1.43315 3.13934 0
M  V30 12575 C 1171.49 -0.795736 4.24608 0
M  V30 12576 C 1170.62 -1.85763 4.9766 0
M  V30 12577 C 1169.66 -1.19959 6.0023 0
M  V30 12578 N 1168.8 -2.20361 6.66622 0
M  V30 12579 H 1173.64 0.317493 2.96304 0
M  V30 12580 H 1171.18 0.168418 1.46133 0
M  V30 12581 H 1173.13 -2.07391 3.62001 0
M  V30 12582 H 1171.76 -2.0678 2.47875 0
M  V30 12583 H 1170.82 -0.0428173 3.80376 0
M  V30 12584 H 1172.13 -0.275477 4.98039 0
M  V30 12585 H 1171.28 -2.5746 5.49363 0
M  V30 12586 H 1170.02 -2.41166 4.23899 0
M  V30 12587 H 1169.03 -0.46817 5.47803 0
M  V30 12588 H 1170.25 -0.652666 6.75956 0
M  V30 12589 H 1168.2 -2.74812 5.95663 0
M  V30 12590 H 1168.11 -1.73275 7.35875 0
M  V30 12591 H 1169.38 -2.91488 7.22949 0
M  V30 12592 N 1173.61 -1.56489 0.186789 0
M  V30 12593 C 1174.84 -2.02163 -0.463126 0
M  V30 12594 C 1175.26 -1.06612 -1.54969 0
M  V30 12595 O 1174.62 -0.0482139 -1.81236 0
M  V30 12596 C 1174.67 -3.46337 -1.00416 0
M  V30 12597 O 1173.77 -3.53889 -2.11747 0
M  V30 12598 H 1173.11 -0.65496 -0.109194 0
M  V30 12599 H 1175.64 -2.02459 0.295227 0
M  V30 12600 H 1175.65 -3.85959 -1.32287 0
M  V30 12601 H 1174.33 -4.15376 -0.208693 0
M  V30 12602 H 1172.9 -3.26136 -1.80803 0
M  V30 12603 N 1175.09 0.086862 -1.5736 0
M  V30 12604 C 1176.04 1.12359 -2.03662 0
M  V30 12605 C 1177.03 1.40982 -0.939169 0
M  V30 12606 O 1178.24 1.40566 -1.12433 0
M  V30 12607 H 1174.61 0.379605 -0.649156 0
M  V30 12608 H 1176.58 0.706822 -2.89908 0
M  V30 12609 C 1175.33 2.43327 -2.48369 0
M  V30 12610 H 1174.66 2.22148 -3.324 0
M  V30 12611 H 1176.1 3.14351 -2.84534 0
M  V30 12612 C 1174.55 3.08214 -1.36036 0
M  V30 12613 O 1175.08 3.95659 -0.694063 0
M  V30 12614 N 1173.29 2.68596 -1.10927 0
M  V30 12615 H 1172.84 1.97578 -1.6529 0
M  V30 12616 H 1172.8 3.12336 -0.359679 0
M  V30 12617 N 1176.57 1.53483 0.357892 0
M  V30 12618 C 1177.81 1.70289 1.10134 0
M  V30 12619 C 1178.15 0.457296 1.88739 0
M  V30 12620 O 1177.42 -0.545527 1.86693 0
M  V30 12621 C 1177.7 2.95755 2.05429 0
M  V30 12622 C 1177.56 4.30489 1.30382 0
M  V30 12623 C 1178.88 3.16844 3.05447 0
M  V30 12624 H 1176 0.61965 0.399003 0
M  V30 12625 H 1178.64 1.86133 0.381357 0
M  V30 12626 H 1176.79 2.82377 2.66825 0
M  V30 12627 H 1178.46 4.55692 0.71711 0
M  V30 12628 H 1176.7 4.2955 0.605712 0
M  V30 12629 H 1177.37 5.14427 2.00171 0
M  V30 12630 H 1179.85 3.29458 2.54159 0
M  V30 12631 H 1178.73 4.06053 3.69341 0
M  V30 12632 H 1178.99 2.32476 3.76041 0
M  V30 12633 N 1178.05 -0.61812 1.44973 0
M  V30 12634 C 1179.29 -1.37944 1.48658 0
M  V30 12635 C 1179.62 -1.93805 0.123749 0
M  V30 12636 O 1178.9 -1.74434 -0.860401 0
M  V30 12637 C 1179.18 -2.53515 2.55739 0
M  V30 12638 C 1179.04 -2.02918 4.01428 0
M  V30 12639 C 1180.35 -3.55674 2.59199 0
M  V30 12640 H 1177.47 -0.500223 0.541244 0
M  V30 12641 H 1180.12 -0.69774 1.76725 0
M  V30 12642 H 1178.27 -3.11669 2.31937 0
M  V30 12643 H 1179.94 -1.49494 4.36405 0
M  V30 12644 H 1178.18 -1.33999 4.12586 0
M  V30 12645 H 1178.85 -2.86181 4.72021 0
M  V30 12646 H 1181.33 -3.07343 2.80499 0
M  V30 12647 H 1180.2 -4.34042 3.36004 0
M  V30 12648 H 1180.46 -4.10601 1.63888 0
M  V30 12649 N 1179.52 -1.32087 -0.859693 0
M  V30 12650 C 1180.75 -1.25348 -1.64607 0
M  V30 12651 C 1181.17 0.179425 -1.87945 0
M  V30 12652 O 1180.52 1.11487 -1.44489 0
M  V30 12653 C 1180.57 -2.0047 -3.00822 0
M  V30 12654 O 1180.3 -3.38169 -2.7852 0
M  V30 12655 C 1181.8 -2.00694 -3.95268 0
M  V30 12656 H 1179.02 -0.432692 -0.512854 0
M  V30 12657 H 1181.56 -1.7413 -1.07234 0
M  V30 12658 H 1179.72 -1.55423 -3.54855 0
M  V30 12659 H 1180.13 -3.76553 -3.65113 0
M  V30 12660 H 1181.6 -2.57748 -4.88129 0
M  V30 12661 H 1182.08 -0.99196 -4.27851 0
M  V30 12662 H 1182.69 -2.45666 -3.47172 0
M  V30 12663 N 1181 1.07532 -1.15215 0
M  V30 12664 C 1181.96 2.1286 -0.84989 0
M  V30 12665 C 1182.96 1.60103 0.149524 0
M  V30 12666 O 1184.15 1.74017 -0.0798918 0
M  V30 12667 C 1181.29 3.3984 -0.268617 0
M  V30 12668 H 1182.48 2.41106 -1.78347 0
M  V30 12669 H 1180.03 1.23392 -0.959386 0
M  V30 12670 H 1180.77 3.17235 0.67325 0
M  V30 12671 H 1180.55 3.79433 -0.988592 0
M  V30 12672 H 1182.04 4.17533 -0.0746554 0
M  V30 12673 N 1182.48 0.948665 1.2585 0
M  V30 12674 C 1183.71 0.616741 1.98018 0
M  V30 12675 C 1184.13 -0.803005 1.70098 0
M  V30 12676 O 1183.49 -1.54208 0.953392 0
M  V30 12677 C 1183.54 0.874429 3.49837 0
M  V30 12678 O 1182.64 -0.0497568 4.1237 0
M  V30 12679 H 1181.98 0.235112 0.620982 0
M  V30 12680 H 1184.51 1.27364 1.60124 0
M  V30 12681 H 1184.52 0.798309 4.00114 0
M  V30 12682 H 1183.2 1.90922 3.69488 0
M  V30 12683 H 1181.77 0.0780591 3.72818 0
M  V30 12684 N 1183.96 -1.40369 0.716545 0
M  V30 12685 C 1185.19 -2.05181 0.266143 0
M  V30 12686 C 1185.6 -1.53988 -1.09239 0
M  V30 12687 O 1184.96 -0.696859 -1.68672 0
M  V30 12688 C 1185.01 -3.60713 0.238384 0
M  V30 12689 O 1184.73 -4.10018 1.54328 0
M  V30 12690 C 1186.23 -4.42701 -0.230453 0
M  V30 12691 H 1183.45 -0.66028 0.119463 0
M  V30 12692 H 1186 -1.7976 0.97502 0
M  V30 12693 H 1184.15 -3.85101 -0.421466 0
M  V30 12694 H 1184.56 -5.0422 1.4444 0
M  V30 12695 H 1186.04 -5.51642 -0.198728 0
M  V30 12696 H 1186.52 -4.20354 -1.27276 0
M  V30 12697 H 1187.12 -4.23423 0.399155 0
M  V30 12698 N 1185.44 -0.462799 -1.50652 0
M  V30 12699 C 1186.66 0.0952726 -2.07181 0
M  V30 12700 C 1187.09 1.33479 -1.32533 0
M  V30 12701 O 1186.44 1.77473 -0.370564 0
M  V30 12702 C 1186.49 0.370592 -3.58691 0
M  V30 12703 O 1185.6 1.4526 -3.85971 0
M  V30 12704 H 1184.94 -0.00932702 -0.663934 0
M  V30 12705 H 1187.47 -0.651458 -1.93951 0
M  V30 12706 H 1187.48 0.613551 -4.0336 0
M  V30 12707 H 1186.15 -0.535219 -4.12442 0
M  V30 12708 H 1184.73 1.1976 -3.53146 0
M  V30 12709 N 1186.91 1.56388 -0.195085 0
M  V30 12710 C 1188.16 1.96755 0.443901 0
M  V30 12711 C 1188.48 1.08483 1.6276 0
M  V30 12712 O 1189.68 1.38632 2.33438 0
M  V30 12713 C 1188.14 3.49933 0.841139 0
M  V30 12714 C 1187.75 4.46868 -0.318275 0
M  V30 12715 C 1189.49 3.99069 1.44721 0
M  V30 12716 C 1187.4 5.91316 0.0999211 0
M  V30 12717 H 1186.33 0.734674 0.169616 0
M  V30 12718 H 1188.98 1.8124 -0.287101 0
M  V30 12719 H 1187.36 3.60951 1.62881 0
M  V30 12720 H 1188.53 4.47581 -1.0958 0
M  V30 12721 H 1186.85 4.07925 -0.835842 0
M  V30 12722 H 1189.45 5.04465 1.77255 0
M  V30 12723 H 1189.79 3.43376 2.35369 0
M  V30 12724 H 1190.32 3.91165 0.723513 0
M  V30 12725 H 1187.06 6.50934 -0.77237 0
M  V30 12726 H 1186.58 5.93856 0.842304 0
M  V30 12727 H 1188.26 6.44778 0.535726 0
M  V30 12728 N 1188.39 -0.0785156 1.57404 0
M  V30 12729 C 1189.32 -1.12058 1.99939 0
M  V30 12730 C 1190.34 -1.35372 0.904343 0
M  V30 12731 O 1191.53 -1.33731 1.1823 0
M  V30 12732 C 1188.63 -2.47285 2.31739 0
M  V30 12733 C 1187.8 -2.44021 3.63005 0
M  V30 12734 C 1186.86 -3.61303 3.82552 0
M  V30 12735 O 1185.88 -3.43039 4.54217 0
M  V30 12736 N 1187.09 -4.81404 3.24392 0
M  V30 12737 H 1189.85 -0.758416 2.89945 0
M  V30 12738 H 1187.41 -0.267266 1.59679 0
M  V30 12739 H 1189.4 -3.24377 2.41995 0
M  V30 12740 H 1187.97 -2.75529 1.47657 0
M  V30 12741 H 1187.19 -1.52361 3.63565 0
M  V30 12742 H 1188.48 -2.38934 4.49208 0
M  V30 12743 H 1187.88 -4.99147 2.66211 0
M  V30 12744 H 1186.44 -5.56031 3.40107 0
M  V30 12745 N 1189.87 -1.5367 -0.349747 0
M  V30 12746 C 1190.8 -1.84208 -1.43492 0
M  V30 12747 C 1191.78 -0.696725 -1.55177 0
M  V30 12748 O 1192.97 -0.948061 -1.69486 0
M  V30 12749 C 1190.1 -2.04613 -2.80625 0
M  V30 12750 C 1189.05 -3.20419 -2.83753 0
M  V30 12751 C 1188.38 -3.26147 -4.23713 0
M  V30 12752 C 1189.68 -4.58666 -2.49846 0
M  V30 12753 H 1191.37 -2.75087 -1.18185 0
M  V30 12754 H 1188.92 -1.32363 -0.567101 0
M  V30 12755 H 1190.87 -2.2456 -3.56582 0
M  V30 12756 H 1189.59 -1.10459 -3.07354 0
M  V30 12757 H 1188.25 -3.00318 -2.10249 0
M  V30 12758 H 1187.9 -2.29599 -4.47541 0
M  V30 12759 H 1187.6 -4.03963 -4.26717 0
M  V30 12760 H 1189.12 -3.48296 -5.0152 0
M  V30 12761 H 1190.54 -4.78668 -3.15516 0
M  V30 12762 H 1188.94 -5.3884 -2.64144 0
M  V30 12763 H 1190.01 -4.62697 -1.4505 0
M  V30 12764 N 1191.35 0.610423 -1.45298 0
M  V30 12765 C 1192.28 1.73207 -1.56594 0
M  V30 12766 C 1193.26 1.64893 -0.417651 0
M  V30 12767 O 1194.44 1.83336 -0.64043 0
M  V30 12768 C 1191.57 3.11803 -1.52959 0
M  V30 12769 C 1190.53 3.34925 -2.66475 0
M  V30 12770 C 1189.85 4.73764 -2.47894 0
M  V30 12771 C 1191.15 3.25456 -4.08504 0
M  V30 12772 H 1192.85 1.6401 -2.50482 0
M  V30 12773 H 1190.39 0.787621 -1.20551 0
M  V30 12774 H 1192.35 3.90065 -1.59458 0
M  V30 12775 H 1191.07 3.21833 -0.55599 0
M  V30 12776 H 1189.73 2.59051 -2.59399 0
M  V30 12777 H 1189.38 4.80524 -1.4868 0
M  V30 12778 H 1189.08 4.90191 -3.24016 0
M  V30 12779 H 1190.6 5.54231 -2.56243 0
M  V30 12780 H 1192.02 3.93597 -4.16839 0
M  V30 12781 H 1190.41 3.53414 -4.84994 0
M  V30 12782 H 1191.48 2.22939 -4.30612 0
M  V30 12783 N 1192.83 1.32541 0.852676 0
M  V30 12784 C 1194.1 1.1383 1.59067 0
M  V30 12785 C 1194.48 -0.300584 2.08949 0
M  V30 12786 O 1193.83 -1.29751 1.88088 0
M  V30 12787 C 1194.04 2.16758 2.73527 0
M  V30 12788 C 1195.39 2.50194 3.43057 0
M  V30 12789 O 1196.41 2.15319 2.83754 0
M  V30 12790 O 1195.27 3.09985 4.50079 0
M  V30 12791 H 1192.37 0.439379 0.700625 0
M  V30 12792 H 1194.91 1.44078 0.896632 0
M  V30 12793 H 1193.68 3.13469 2.34207 0
M  V30 12794 H 1193.31 1.87515 3.50605 0
M  V30 12795 N 1194.3 -1.0692 1.15784 0
M  V30 12796 C 1195.21 -2.17762 0.872753 0
M  V30 12797 C 1196.23 -1.73329 -0.152608 0
M  V30 12798 O 1197.41 -2.01387 0.022519 0
M  V30 12799 C 1194.47 -3.4471 0.370887 0
M  V30 12800 C 1193.53 -4.03686 1.46069 0
M  V30 12801 C 1192.77 -5.24575 0.982675 0
M  V30 12802 O 1192.99 -5.70146 -0.17006 0
M  V30 12803 O 1191.92 -5.7534 1.76828 0
M  V30 12804 H 1195.75 -2.44648 1.79948 0
M  V30 12805 H 1193.33 -1.1634 0.937303 0
M  V30 12806 H 1195.22 -4.21287 0.0976779 0
M  V30 12807 H 1193.89 -3.19366 -0.527912 0
M  V30 12808 H 1192.8 -3.28629 1.78756 0
M  V30 12809 H 1194.13 -4.33312 2.33456 0
M  V30 12810 N 1195.78 -0.955326 -1.25345 0
M  V30 12811 C 1197.2 -0.659863 -1.4532 0
M  V30 12812 C 1197.4 0.78238 -1.85691 0
M  V30 12813 O 1196.45 1.5576 -1.98734 0
M  V30 12814 C 1197.77 -1.63339 -2.5247 0
M  V30 12815 C 1199.32 -1.64464 -2.66309 0
M  V30 12816 C 1199.79 -2.60583 -3.76644 0
M  V30 12817 N 1201.28 -2.58951 -3.84055 0
M  V30 12818 C 1202.02 -3.30002 -4.6892 0
M  V30 12819 N 1201.51 -4.10528 -5.58067 0
M  V30 12820 N 1203.31 -3.18886 -4.62891 0
M  V30 12821 H 1195.46 -1.88734 -0.97433 0
M  V30 12822 H 1197.72 -0.811858 -0.48948 0
M  V30 12823 H 1197.43 -2.66358 -2.29665 0
M  V30 12824 H 1197.3 -1.39644 -3.50399 0
M  V30 12825 H 1199.69 -0.621622 -2.88479 0
M  V30 12826 H 1199.77 -1.92218 -1.68778 0
M  V30 12827 H 1199.41 -3.63011 -3.55226 0
M  V30 12828 H 1199.34 -2.30113 -4.73662 0
M  V30 12829 H 1201.83 -2.00491 -3.20331 0
M  V30 12830 H 1202.15 -4.6166 -6.1975 0
M  V30 12831 H 1200.49 -4.14626 -5.57773 0
M  V30 12832 H 1203.68 -2.55447 -3.92255 0
M  V30 12833 H 1203.85 -3.74524 -5.28806 0
M  V30 12834 N 1197.26 1.39987 -0.723979 0
M  V30 12835 C 1198.21 2.30672 -0.0768286 0
M  V30 12836 C 1199.18 1.48634 0.741422 0
M  V30 12837 O 1200.36 1.77351 0.703649 0
M  V30 12838 C 1197.5 3.34902 0.832729 0
M  V30 12839 C 1196.62 4.32 0.00304942 0
M  V30 12840 C 1195.75 5.23298 0.91286 0
M  V30 12841 C 1194.79 6.12051 0.0777706 0
M  V30 12842 N 1193.93 6.9574 0.942912 0
M  V30 12843 H 1198.77 2.85446 -0.855832 0
M  V30 12844 H 1196.3 1.40561 -0.433718 0
M  V30 12845 H 1198.26 3.93911 1.37441 0
M  V30 12846 H 1196.89 2.81611 1.57782 0
M  V30 12847 H 1195.94 3.74702 -0.655916 0
M  V30 12848 H 1197.26 4.94637 -0.643124 0
M  V30 12849 H 1196.41 5.87279 1.52277 0
M  V30 12850 H 1195.15 4.60956 1.59284 0
M  V30 12851 H 1194.15 5.47092 -0.545022 0
M  V30 12852 H 1195.38 6.76455 -0.598827 0
M  V30 12853 H 1193.33 6.35977 1.60838 0
M  V30 12854 H 1193.24 7.55176 0.352968 0
M  V30 12855 H 1194.51 7.64162 1.53874 0
M  V30 12856 N 1198.74 0.470782 1.50404 0
M  V30 12857 C 1199.96 -0.084284 2.07229 0
M  V30 12858 C 1200.39 -1.32774 1.33239 0
M  V30 12859 O 1199.75 -1.77274 0.379971 0
M  V30 12860 C 1199.8 -0.351565 3.58882 0
M  V30 12861 O 1198.9 -1.43211 3.86736 0
M  V30 12862 H 1198.24 0.0128479 0.663876 0
M  V30 12863 H 1200.77 0.661735 1.93603 0
M  V30 12864 H 1200.78 -0.592151 4.0368 0
M  V30 12865 H 1199.46 0.557084 4.12152 0
M  V30 12866 H 1198.03 -1.17886 3.53776 0
M  V30 12867 N 1200.22 -1.56282 0.203376 0
M  V30 12868 C 1201.63 -1.84146 -0.307752 0
M  V30 12869 C 1201.98 -1.12429 -1.60792 0
M  V30 12870 O 1201.1 -0.387852 -2.12896 0
M  V30 12871 C 1201.7 -3.34053 -0.565152 0
M  V30 12872 C 1200.26 -3.62298 -1.02063 0
M  V30 12873 C 1199.41 -2.77202 -0.0737343 0
M  V30 12874 H 1202.36 -1.52848 0.426983 0
M  V30 12875 H 1202.38 -3.53273 -1.41345 0
M  V30 12876 H 1201.89 -3.86222 0.381301 0
M  V30 12877 H 1199.99 -3.1557 -1.98107 0
M  V30 12878 H 1200.1 -4.70424 -0.907614 0
M  V30 12879 H 1198.47 -2.48074 -0.577169 0
M  V30 12880 H 1199.25 -3.32164 0.86731 0
M  V30 12881 N 1201.7 0.070167 -1.57444 0
M  V30 12882 C 1202.94 0.770153 -1.87607 0
M  V30 12883 C 1203.27 1.77143 -0.795875 0
M  V30 12884 O 1202.55 1.93533 0.193674 0
M  V30 12885 C 1202.83 1.47668 -3.2843 0
M  V30 12886 C 1202.69 0.491712 -4.47104 0
M  V30 12887 C 1204 2.42118 -3.67514 0
M  V30 12888 H 1201.12 0.278519 -0.682346 0
M  V30 12889 H 1203.77 0.0333184 -1.89971 0
M  V30 12890 H 1201.92 2.10476 -3.26546 0
M  V30 12891 H 1203.59 -0.131283 -4.61113 0
M  V30 12892 H 1201.83 -0.192817 -4.33371 0
M  V30 12893 H 1202.5 1.02372 -5.42424 0
M  V30 12894 H 1204.98 1.89387 -3.70502 0
M  V30 12895 H 1203.85 2.88556 -4.66933 0
M  V30 12896 H 1204.11 3.26995 -2.97534 0
M  V30 12897 N 1203.17 1.53854 0.341593 0
M  V30 12898 C 1204.42 1.71447 1.08322 0
M  V30 12899 C 1204.75 0.477289 1.88243 0
M  V30 12900 O 1204.03 -0.525695 1.87261 0
M  V30 12901 C 1204.31 2.97917 2.02281 0
M  V30 12902 C 1204.16 4.31847 1.25809 0
M  V30 12903 C 1205.48 3.20065 3.0207 0
M  V30 12904 H 1202.6 0.623847 0.392408 0
M  V30 12905 H 1205.24 1.86527 0.361594 0
M  V30 12906 H 1203.39 2.85191 2.63815 0
M  V30 12907 H 1205.07 4.56427 0.668737 0
M  V30 12908 H 1203.31 4.30169 0.560119 0
M  V30 12909 H 1203.98 5.16522 1.94704 0
M  V30 12910 H 1206.46 3.32135 2.50651 0
M  V30 12911 H 1205.33 4.09947 3.65013 0
M  V30 12912 H 1205.59 2.36452 3.73554 0
M  V30 12913 N 1204.65 -0.602709 1.4562 0
M  V30 12914 C 1205.61 -1.69508 1.54271 0
M  V30 12915 C 1206.61 -1.55171 0.421727 0
M  V30 12916 O 1207.8 -1.60151 0.685375 0
M  V30 12917 C 1204.94 -3.0881 1.44392 0
M  V30 12918 H 1206.13 -1.63203 2.51605 0
M  V30 12919 H 1203.68 -0.818857 1.33133 0
M  V30 12920 H 1204.42 -3.20689 0.482614 0
M  V30 12921 H 1204.2 -3.20625 2.25704 0
M  V30 12922 H 1205.69 -3.8837 1.53488 0
M  V30 12923 N 1206.13 -1.32992 -0.845635 0
M  V30 12924 C 1207.09 -1.22607 -1.9365 0
M  V30 12925 C 1208.09 -0.146812 -1.60128 0
M  V30 12926 O 1209.28 -0.397863 -1.69596 0
M  V30 12927 C 1206.41 -0.887677 -3.2914 0
M  V30 12928 H 1207.61 -2.19563 -2.04285 0
M  V30 12929 H 1205.16 -1.16952 -1.03691 0
M  V30 12930 H 1205.9 0.0796777 -3.24202 0
M  V30 12931 H 1205.68 -1.66808 -3.54849 0
M  V30 12932 H 1207.17 -0.83958 -4.09073 0
M  V30 12933 N 1207.61 1.06304 -1.1635 0
M  V30 12934 C 1208.85 1.79366 -0.94634 0
M  V30 12935 C 1209.19 1.86981 0.524569 0
M  V30 12936 O 1208.46 1.36134 1.38917 0
M  V30 12937 C 1208.74 3.23861 -1.57436 0
M  V30 12938 C 1208.6 3.24327 -3.1166 0
M  V30 12939 C 1209.92 4.21409 -1.26895 0
M  V30 12940 H 1207.04 0.65115 -0.345215 0
M  V30 12941 H 1209.68 1.24325 -1.43678 0
M  V30 12942 H 1207.83 3.70862 -1.15731 0
M  V30 12943 H 1209.5 2.85488 -3.62346 0
M  V30 12944 H 1207.74 2.62983 -3.44997 0
M  V30 12945 H 1208.41 4.2626 -3.50723 0
M  V30 12946 H 1210.89 3.8285 -1.62989 0
M  V30 12947 H 1209.77 5.20778 -1.73439 0
M  V30 12948 H 1210.03 4.41701 -0.187768 0
M  V30 12949 N 1209.09 0.96196 1.24836 0
M  V30 12950 C 1210.33 0.619489 1.92371 0
M  V30 12951 C 1210.65 -0.847233 1.75633 0
M  V30 12952 O 1209.92 -1.60419 1.12439 0
M  V30 12953 H 1208.5 0.226129 0.711951 0
M  V30 12954 H 1211.17 1.22179 1.5185 0
M  V30 12955 H 1210.26 0.855128 3.00157 0
M  V30 12956 N 1210.56 -1.39601 0.731392 0
M  V30 12957 C 1211.81 -1.99821 0.274661 0
M  V30 12958 C 1212.13 -1.58693 -1.1435 0
M  V30 12959 O 1213.33 -2.11724 -1.69957 0
M  V30 12960 C 1211.79 -3.57199 0.440124 0
M  V30 12961 C 1211.4 -4.07292 1.86594 0
M  V30 12962 C 1213.14 -4.24476 0.0449851 0
M  V30 12963 C 1211.05 -5.57229 1.98115 0
M  V30 12964 H 1209.98 -0.747481 0.0989383 0
M  V30 12965 H 1212.63 -1.59645 0.904755 0
M  V30 12966 H 1211.01 -3.95153 -0.25881 0
M  V30 12967 H 1212.18 -3.80679 2.59654 0
M  V30 12968 H 1210.5 -3.52665 2.21397 0
M  V30 12969 H 1213.1 -5.34587 0.110126 0
M  V30 12970 H 1213.44 -4.04129 -0.999269 0
M  V30 12971 H 1213.97 -3.91683 0.694942 0
M  V30 12972 H 1210.71 -5.82452 3.00716 0
M  V30 12973 H 1210.23 -5.85656 1.29487 0
M  V30 12974 H 1211.91 -6.22584 1.76063 0
M  V30 12975 N 1212.04 -0.478751 -1.50152 0
M  V30 12976 C 1212.97 0.347829 -2.26545 0
M  V30 12977 C 1213.99 0.950354 -1.32182 0
M  V30 12978 O 1215.18 0.837462 -1.57635 0
M  V30 12979 C 1212.28 1.50255 -3.0377 0
M  V30 12980 C 1211.45 1.01142 -4.25546 0
M  V30 12981 C 1210.51 2.0411 -4.85 0
M  V30 12982 O 1209.53 1.61862 -5.45701 0
M  V30 12983 N 1210.74 3.36982 -4.72677 0
M  V30 12984 H 1213.5 -0.307113 -2.98122 0
M  V30 12985 H 1211.06 -0.309981 -1.58905 0
M  V30 12986 H 1213.05 2.18848 -3.40423 0
M  V30 12987 H 1211.62 2.06205 -2.34943 0
M  V30 12988 H 1210.84 0.151124 -3.9391 0
M  V30 12989 H 1212.13 0.661326 -5.04484 0
M  V30 12990 H 1211.53 3.74011 -4.2442 0
M  V30 12991 H 1210.09 4.0135 -5.13577 0
M  V30 12992 N 1213.52 1.56172 -0.211661 0
M  V30 12993 C 1214.45 2.15791 0.74225 0
M  V30 12994 C 1215.43 1.0994 1.198 0
M  V30 12995 O 1216.62 1.38143 1.28253 0
M  V30 12996 C 1213.74 2.73021 2.00443 0
M  V30 12997 C 1212.79 3.91611 1.68946 0
M  V30 12998 S 1213.62 5.29139 0.822949 0
M  V30 12999 C 1214.78 5.898 2.09491 0
M  V30 13000 H 1215.01 2.96366 0.235482 0
M  V30 13001 H 1212.54 1.544 0.0035357 0
M  V30 13002 H 1214.5 3.06635 2.7292 0
M  V30 13003 H 1213.16 1.92457 2.48232 0
M  V30 13004 H 1212.36 4.30122 2.62699 0
M  V30 13005 H 1211.96 3.59093 1.04539 0
M  V30 13006 H 1214.25 6.05172 3.04587 0
M  V30 13007 H 1215.19 6.86036 1.75386 0
M  V30 13008 H 1215.6 5.18546 2.23093 0
M  V30 13009 N 1215 -0.0618163 1.57479 0
M  V30 13010 C 1215.95 -1.0724 2.04373 0
M  V30 13011 C 1216.92 -1.37875 0.926271 0
M  V30 13012 O 1218.1 -1.48772 1.19463 0
M  V30 13013 C 1215.24 -2.37805 2.50085 0
M  V30 13014 C 1214.35 -2.13614 3.7549 0
M  V30 13015 C 1213.49 -3.37814 4.09945 0
M  V30 13016 C 1212.53 -3.09032 5.28361 0
M  V30 13017 N 1211.66 -4.25591 5.58406 0
M  V30 13018 H 1216.5 -0.665536 2.90473 0
M  V30 13019 H 1214.04 -0.317043 1.43643 0
M  V30 13020 H 1216 -3.14048 2.74644 0
M  V30 13021 H 1214.63 -2.76275 1.66948 0
M  V30 13022 H 1213.68 -1.28017 3.58212 0
M  V30 13023 H 1214.99 -1.88361 4.61867 0
M  V30 13024 H 1214.15 -4.22447 4.35458 0
M  V30 13025 H 1212.89 -3.66153 3.22154 0
M  V30 13026 H 1211.89 -2.22797 5.02635 0
M  V30 13027 H 1213.12 -2.82006 6.17778 0
M  V30 13028 H 1211.06 -4.53941 4.73575 0
M  V30 13029 H 1210.98 -4.03646 6.39223 0
M  V30 13030 H 1212.25 -5.11191 5.88476 0
M  V30 13031 N 1216.48 -1.54033 -0.333429 0
M  V30 13032 C 1217.41 -1.85719 -1.4153 0
M  V30 13033 C 1218.39 -0.713144 -1.54429 0
M  V30 13034 O 1219.57 -0.965984 -1.68471 0
M  V30 13035 C 1216.7 -2.07578 -2.78439 0
M  V30 13036 C 1215.66 -3.23411 -2.80338 0
M  V30 13037 C 1214.98 -3.30622 -4.2023 0
M  V30 13038 C 1216.28 -4.6129 -2.44968 0
M  V30 13039 H 1217.98 -2.76325 -1.15261 0
M  V30 13040 H 1215.52 -1.32957 -0.55303 0
M  V30 13041 H 1217.48 -2.28329 -3.5418 0
M  V30 13042 H 1216.2 -1.13713 -3.06165 0
M  V30 13043 H 1214.86 -3.02531 -2.07052 0
M  V30 13044 H 1214.51 -2.34333 -4.45081 0
M  V30 13045 H 1214.21 -4.08466 -4.22409 0
M  V30 13046 H 1215.73 -3.53596 -4.97798 0
M  V30 13047 H 1217.14 -4.81987 -3.10421 0
M  V30 13048 H 1215.54 -5.41611 -2.58414 0
M  V30 13049 H 1216.61 -4.6421 -1.40134 0
M  V30 13050 N 1217.95 0.594978 -1.45938 0
M  V30 13051 C 1218.86 1.73296 -1.58132 0
M  V30 13052 C 1219.88 1.67665 -0.465245 0
M  V30 13053 O 1221.06 1.87794 -0.727684 0
M  V30 13054 C 1218.12 3.09783 -1.55677 0
M  V30 13055 C 1217.18 3.26772 -2.78422 0
M  V30 13056 C 1216.42 4.56748 -2.76075 0
M  V30 13057 O 1216.64 5.39867 -1.84119 0
M  V30 13058 O 1215.57 4.76721 -3.67452 0
M  V30 13059 H 1219.4 1.65957 -2.54346 0
M  V30 13060 H 1216.98 0.760572 -1.28591 0
M  V30 13061 H 1218.87 3.91077 -1.56961 0
M  V30 13062 H 1217.54 3.17585 -0.626191 0
M  V30 13063 H 1216.45 2.45018 -2.82696 0
M  V30 13064 H 1217.78 3.23853 -3.70648 0
M  V30 13065 N 1219.43 1.33438 0.838571 0
M  V30 13066 C 1220.68 1.24912 1.59384 0
M  V30 13067 C 1221.01 -0.185017 1.93618 0
M  V30 13068 O 1220.26 -1.14229 1.58904 0
M  V30 13069 C 1220.56 2.07002 2.9135 0
M  V30 13070 C 1220.23 3.5619 2.76477 0
M  V30 13071 C 1218.89 3.96862 2.72129 0
M  V30 13072 C 1221.24 4.5099 2.61261 0
M  V30 13073 C 1218.57 5.30551 2.50464 0
M  V30 13074 C 1220.92 5.84841 2.4113 0
M  V30 13075 C 1219.59 6.24696 2.35183 0
M  V30 13076 H 1218.86 0.457084 0.583228 0
M  V30 13077 H 1221.5 1.65027 0.971506 0
M  V30 13078 H 1219.81 1.59665 3.57791 0
M  V30 13079 H 1221.5 1.97762 3.48843 0
M  V30 13080 H 1218.09 3.23896 2.80695 0
M  V30 13081 H 1222.28 4.20476 2.63655 0
M  V30 13082 H 1217.53 5.60468 2.44307 0
M  V30 13083 H 1221.71 6.57901 2.2834 0
M  V30 13084 H 1219.34 7.28225 2.18156 0
M  V30 13085 N 1220.91 -1.05686 1.16912 0
M  V30 13086 C 1222.16 -1.78597 0.954425 0
M  V30 13087 C 1222.49 -1.87494 -0.517315 0
M  V30 13088 O 1221.74 -1.36736 -1.40006 0
M  V30 13089 C 1222.04 -3.22779 1.53455 0
M  V30 13090 C 1221.71 -3.3395 3.02965 0
M  V30 13091 C 1220.37 -3.36706 3.43777 0
M  V30 13092 C 1222.72 -3.35371 3.98969 0
M  V30 13093 C 1220.05 -3.38506 4.79198 0
M  V30 13094 C 1222.4 -3.38708 5.34284 0
M  V30 13095 C 1221.06 -3.39749 5.74567 0
M  V30 13096 H 1220.33 -0.653534 0.349249 0
M  V30 13097 H 1222.98 -1.24245 1.45723 0
M  V30 13098 H 1221.29 -3.80025 0.953331 0
M  V30 13099 H 1222.98 -3.77805 1.34404 0
M  V30 13100 H 1219.57 -3.32515 2.70429 0
M  V30 13101 H 1223.76 -3.32447 3.685 0
M  V30 13102 H 1219.01 -3.37619 5.09729 0
M  V30 13103 H 1223.19 -3.38755 6.08455 0
M  V30 13104 H 1220.81 -3.40897 6.7948 0
M  V30 13105 N 1222.39 -0.968567 -1.24324 0
M  V30 13106 C 1223.32 -0.457247 -2.24593 0
M  V30 13107 C 1224.33 0.434483 -1.56895 0
M  V30 13108 O 1225.52 0.240519 -1.76872 0
M  V30 13109 C 1222.62 0.359086 -3.36992 0
M  V30 13110 C 1221.8 -0.522945 -4.34263 0
M  V30 13111 C 1220.85 0.237528 -5.25664 0
M  V30 13112 O 1219.88 -0.368835 -5.68004 0
M  V30 13113 N 1221.08 1.52686 -5.6006 0
M  V30 13114 H 1223.85 -1.31934 -2.69098 0
M  V30 13115 H 1221.41 -0.840488 -1.38374 0
M  V30 13116 H 1223.4 0.87589 -3.95108 0
M  V30 13117 H 1221.97 1.12212 -2.91766 0
M  V30 13118 H 1221.19 -1.22071 -3.74823 0
M  V30 13119 H 1222.48 -1.12447 -4.96219 0
M  V30 13120 H 1221.88 2.0412 -5.2759 0
M  V30 13121 H 1220.43 1.98934 -6.207 0
M  V30 13122 N 1223.87 1.39211 -0.738786 0
M  V30 13123 C 1225.28 1.54116 -0.414773 0
M  V30 13124 C 1225.48 1.70497 1.07392 0
M  V30 13125 O 1224.54 1.7076 1.86003 0
M  V30 13126 C 1225.85 2.7567 -1.2011 0
M  V30 13127 C 1227.4 2.89508 -1.1897 0
M  V30 13128 C 1227.87 4.14005 -1.95868 0
M  V30 13129 N 1229.37 4.21052 -1.93053 0
M  V30 13130 C 1230.1 5.16341 -2.49358 0
M  V30 13131 N 1229.6 6.17396 -3.14316 0
M  V30 13132 N 1231.39 5.08585 -2.3937 0
M  V30 13133 H 1223.54 1.26827 -1.70378 0
M  V30 13134 H 1225.8 0.614983 -0.721457 0
M  V30 13135 H 1225.51 2.69922 -2.25467 0
M  V30 13136 H 1225.38 3.68443 -0.808065 0
M  V30 13137 H 1227.77 2.94747 -0.144248 0
M  V30 13138 H 1227.85 1.97788 -1.62214 0
M  V30 13139 H 1227.5 4.09527 -3.00416 0
M  V30 13140 H 1227.43 5.04776 -1.50028 0
M  V30 13141 H 1229.92 3.48669 -1.45733 0
M  V30 13142 H 1230.23 6.86572 -3.54737 0
M  V30 13143 H 1228.57 6.17772 -3.18407 0
M  V30 13144 H 1231.77 4.28573 -1.88262 0
M  V30 13145 H 1231.94 5.8267 -2.83549 0
M  V30 13146 N 1225.34 0.486708 1.49896 0
M  V30 13147 C 1226.29 -0.299294 2.28851 0
M  V30 13148 C 1227.26 -0.973251 1.346 0
M  V30 13149 O 1228.45 -0.982678 1.63548 0
M  V30 13150 C 1225.59 -1.36624 3.16904 0
M  V30 13151 C 1224.7 -0.705492 4.262 0
M  V30 13152 C 1223.83 -1.75165 5.01488 0
M  V30 13153 C 1222.87 -1.072 6.0264 0
M  V30 13154 N 1222.01 -2.06172 6.71147 0
M  V30 13155 H 1226.85 0.380272 2.95564 0
M  V30 13156 H 1224.39 0.199377 1.45743 0
M  V30 13157 H 1226.35 -1.99666 3.66319 0
M  V30 13158 H 1224.98 -2.01476 2.52205 0
M  V30 13159 H 1224.03 0.0378757 3.80381 0
M  V30 13160 H 1225.34 -0.169774 4.98511 0
M  V30 13161 H 1224.49 -2.45749 5.547 0
M  V30 13162 H 1223.23 -2.3212 4.28919 0
M  V30 13163 H 1222.24 -0.351868 5.48673 0
M  V30 13164 H 1223.46 -0.509139 6.77189 0
M  V30 13165 H 1221.41 -2.62115 6.01358 0
M  V30 13166 H 1221.33 -1.57627 7.39385 0
M  V30 13167 H 1222.59 -2.76088 7.28969 0
M  V30 13168 N 1226.82 -1.56058 0.219941 0
M  V30 13169 C 1228.07 -1.9826 -0.412197 0
M  V30 13170 C 1228.4 -1.10754 -1.59887 0
M  V30 13171 O 1227.65 -0.15212 -1.95108 0
M  V30 13172 C 1227.95 -3.46113 -0.8911 0
M  V30 13173 C 1227.62 -4.50521 0.184877 0
M  V30 13174 C 1226.28 -4.78795 0.480462 0
M  V30 13175 C 1228.63 -5.13147 0.912652 0
M  V30 13176 C 1225.96 -5.66979 1.50837 0
M  V30 13177 C 1228.31 -6.02444 1.92988 0
M  V30 13178 C 1226.98 -6.29063 2.2324 0
M  V30 13179 H 1226.25 -0.725486 -0.150834 0
M  V30 13180 H 1228.89 -1.88771 0.322122 0
M  V30 13181 H 1227.2 -3.52797 -1.70415 0
M  V30 13182 H 1228.9 -3.76137 -1.39003 0
M  V30 13183 H 1225.49 -4.28564 -0.0556594 0
M  V30 13184 H 1229.67 -4.91374 0.697532 0
M  V30 13185 H 1224.93 -5.85868 1.74839 0
M  V30 13186 H 1229.1 -6.50022 2.49889 0
M  V30 13187 H 1226.73 -6.97191 3.03032 0
M  V30 13188 N 1228.3 0.053464 -1.57509 0
M  V30 13189 C 1229.55 0.744867 -1.8927 0
M  V30 13190 C 1229.9 1.74249 -0.815791 0
M  V30 13191 O 1229.2 1.9077 0.178187 0
M  V30 13192 C 1229.39 1.47666 -3.25468 0
M  V30 13193 C 1229.22 0.551427 -4.46306 0
M  V30 13194 C 1227.99 0.181517 -5.04974 0
M  V30 13195 C 1230.19 -0.159765 -5.14052 0
M  V30 13196 N 1228.17 -0.747526 -6.09332 0
M  V30 13197 C 1229.54 -0.94533 -6.12751 0
M  V30 13198 C 1231.59 -0.2293 -4.97372 0
M  V30 13199 C 1230.3 -1.794 -6.96569 0
M  V30 13200 C 1232.32 -1.065 -5.81732 0
M  V30 13201 C 1231.69 -1.83856 -6.79983 0
M  V30 13202 H 1227.78 0.247424 -0.741826 0
M  V30 13203 H 1230.37 0.00570542 -1.94699 0
M  V30 13204 H 1228.54 2.18643 -3.21014 0
M  V30 13205 H 1230.27 2.11852 -3.4482 0
M  V30 13206 H 1227.03 0.538408 -4.7053 0
M  V30 13207 H 1227.45 -1.20583 -6.66175 0
M  V30 13208 H 1232.09 0.354441 -4.21312 0
M  V30 13209 H 1229.81 -2.38864 -7.71991 0
M  V30 13210 H 1233.4 -1.12202 -5.70878 0
M  V30 13211 H 1232.28 -2.47479 -7.44126 0
M  V30 13212 N 1229.78 1.54207 0.325255 0
M  V30 13213 C 1231.01 1.76293 1.08298 0
M  V30 13214 C 1231.42 0.510722 1.81761 0
M  V30 13215 O 1230.78 -0.5185 1.7498 0
M  V30 13216 C 1230.83 2.95498 2.08238 0
M  V30 13217 O 1230.55 4.15877 1.37759 0
M  V30 13218 C 1232.05 3.29781 2.96242 0
M  V30 13219 H 1229.27 0.588576 0.322209 0
M  V30 13220 H 1231.82 2.0109 0.371896 0
M  V30 13221 H 1229.97 2.72979 2.74884 0
M  V30 13222 H 1230.39 4.82918 2.04672 0
M  V30 13223 H 1231.86 4.16495 3.62265 0
M  V30 13224 H 1232.34 2.46874 3.63249 0
M  V30 13225 H 1232.94 3.54372 2.3516 0
M  V30 13226 N 1231.26 -0.58723 1.46251 0
M  V30 13227 C 1232.22 -1.67863 1.5606 0
M  V30 13228 C 1233.22 -1.54715 0.438162 0
M  V30 13229 O 1234.41 -1.59415 0.702323 0
M  V30 13230 C 1231.54 -3.07262 1.47659 0
M  V30 13231 H 1232.74 -1.60525 2.53321 0
M  V30 13232 H 1230.29 -0.804691 1.33994 0
M  V30 13233 H 1231.02 -3.20159 0.5166 0
M  V30 13234 H 1230.81 -3.18213 2.29092 0
M  V30 13235 H 1232.3 -3.8672 1.57599 0
M  V30 13236 N 1232.74 -1.33881 -0.831482 0
M  V30 13237 C 1233.96 -1.28961 -1.62431 0
M  V30 13238 C 1234.39 0.135249 -1.87613 0
M  V30 13239 O 1233.74 1.09426 -1.44553 0
M  V30 13240 C 1233.79 -2.07767 -2.94729 0
M  V30 13241 O 1232.9 -1.44133 -3.86393 0
M  V30 13242 H 1232.24 -0.443313 -0.494337 0
M  V30 13243 H 1234.77 -1.76555 -1.0339 0
M  V30 13244 H 1234.78 -2.18806 -3.44366 0
M  V30 13245 H 1233.45 -3.11367 -2.75724 0
M  V30 13246 H 1232.03 -1.41784 -3.44894 0
M  V30 13247 N 1234.21 1.05064 -1.1747 0
M  V30 13248 C 1235.63 1.30256 -0.922248 0
M  V30 13249 C 1235.83 1.97119 0.417896 0
M  V30 13250 O 1234.89 2.24557 1.15457 0
M  V30 13251 C 1236.2 2.17109 -2.08049 0
M  V30 13252 C 1237.75 2.30487 -2.11766 0
M  V30 13253 C 1238.22 3.20701 -3.26979 0
M  V30 13254 N 1239.71 3.28287 -3.26775 0
M  V30 13255 C 1240.45 3.98218 -4.12565 0
M  V30 13256 N 1239.94 4.70567 -5.08467 0
M  V30 13257 N 1241.74 3.94395 -4.00511 0
M  V30 13258 H 1233.89 0.600653 -2.0373 0
M  V30 13259 H 1236.15 0.327475 -0.889643 0
M  V30 13260 H 1235.86 1.75273 -3.04914 0
M  V30 13261 H 1235.73 3.1775 -2.03261 0
M  V30 13262 H 1238.12 2.71564 -1.15486 0
M  V30 13263 H 1238.2 1.29471 -2.20615 0
M  V30 13264 H 1237.84 2.80337 -4.23525 0
M  V30 13265 H 1237.77 4.21725 -3.15366 0
M  V30 13266 H 1240.26 2.76739 -2.5734 0
M  V30 13267 H 1240.58 5.21492 -5.70321 0
M  V30 13268 H 1238.92 4.69505 -5.12436 0
M  V30 13269 H 1242.11 3.37 -3.24882 0
M  V30 13270 H 1242.29 4.48626 -4.67588 0
M  V30 13271 N 1235.69 0.975146 1.23809 0
M  V30 13272 C 1236.62 0.469151 2.24347 0
M  V30 13273 C 1237.64 -0.426156 1.57123 0
M  V30 13274 O 1238.83 -0.231136 1.76997 0
M  V30 13275 C 1235.93 -0.34121 3.37178 0
M  V30 13276 C 1235.1 0.545968 4.33979 0
M  V30 13277 C 1234.16 -0.209648 5.25782 0
M  V30 13278 O 1233.18 0.398953 5.678 0
M  V30 13279 N 1234.39 -1.49713 5.60862 0
M  V30 13280 H 1237.15 1.33359 2.68394 0
M  V30 13281 H 1234.71 0.847814 1.37927 0
M  V30 13282 H 1236.7 -0.854924 3.95567 0
M  V30 13283 H 1235.27 -1.10663 2.92357 0
M  V30 13284 H 1234.49 1.24057 3.7417 0
M  V30 13285 H 1235.78 1.15077 4.95615 0
M  V30 13286 H 1235.18 -2.0132 5.28665 0
M  V30 13287 H 1233.74 -1.95639 6.21746 0
M  V30 13288 N 1237.17 -1.38817 0.746158 0
M  V30 13289 C 1238.41 -2.02129 0.303843 0
M  V30 13290 C 1238.77 -1.57943 -1.0917 0
M  V30 13291 O 1239.97 -2.13532 -1.63272 0
M  V30 13292 C 1238.25 -3.5499 0.414379 0
M  V30 13293 S 1239.8 -4.38767 0.0535495 0
M  V30 13294 H 1236.62 -0.701084 0.118329 0
M  V30 13295 H 1239.22 -1.69444 0.975137 0
M  V30 13296 H 1237.93 -3.84638 1.43114 0
M  V30 13297 H 1237.46 -3.92442 -0.274355 0
M  V30 13298 H 1239.47 -4.82469 -1.15921 0
M  V30 13299 N 1238.65 -0.49465 -1.49636 0
M  V30 13300 C 1239.61 0.276064 -2.27531 0
M  V30 13301 C 1240.61 0.899619 -1.3328 0
M  V30 13302 O 1241.8 0.765136 -1.56497 0
M  V30 13303 C 1238.93 1.39547 -3.1103 0
M  V30 13304 H 1240.13 -0.407381 -2.9712 0
M  V30 13305 H 1237.68 -0.249416 -1.54297 0
M  V30 13306 H 1238.41 2.11326 -2.45992 0
M  V30 13307 H 1238.2 0.953877 -3.8032 0
M  V30 13308 H 1239.69 1.93853 -3.69879 0
M  V30 13309 N 1240.13 1.55939 -0.228214 0
M  V30 13310 C 1241.35 2.0332 0.409364 0
M  V30 13311 C 1241.78 1.10683 1.52088 0
M  V30 13312 O 1241.13 0.0962484 1.81044 0
M  V30 13313 C 1241.18 3.48877 0.911981 0
M  V30 13314 O 1240.29 3.59378 2.02289 0
M  V30 13315 H 1239.63 0.657625 0.0917909 0
M  V30 13316 H 1242.16 2.01605 -0.348802 0
M  V30 13317 H 1242.17 3.89331 1.22007 0
M  V30 13318 H 1240.84 4.15783 0.0984902 0
M  V30 13319 H 1239.42 3.30815 1.72093 0
M  V30 13320 N 1241.6 -0.0451101 1.57535 0
M  V30 13321 C 1242.53 -1.05046 2.08537 0
M  V30 13322 C 1243.52 -1.3872 0.984418 0
M  V30 13323 O 1244.7 -1.47884 1.25873 0
M  V30 13324 C 1241.83 -2.3562 2.55148 0
M  V30 13325 C 1240.78 -2.16231 3.69362 0
M  V30 13326 C 1240.11 -3.52423 4.02122 0
M  V30 13327 C 1241.41 -1.56159 4.98409 0
M  V30 13328 H 1243.1 -0.625965 2.92783 0
M  V30 13329 H 1240.65 -0.299657 1.40848 0
M  V30 13330 H 1242.6 -3.06266 2.89446 0
M  V30 13331 H 1241.33 -2.80099 1.67964 0
M  V30 13332 H 1239.99 -1.4802 3.35389 0
M  V30 13333 H 1239.63 -3.94522 3.12028 0
M  V30 13334 H 1239.33 -3.4028 4.79044 0
M  V30 13335 H 1240.86 -4.24458 4.38939 0
M  V30 13336 H 1242.27 -2.16703 5.30766 0
M  V30 13337 H 1240.67 -1.54638 5.79834 0
M  V30 13338 H 1241.74 -0.525698 4.82042 0
M  V30 13339 N 1243.08 -1.54377 -0.317073 0
M  V30 13340 C 1244.36 -1.63551 -1.07287 0
M  V30 13341 C 1244.74 -0.473499 -2.05721 0
M  V30 13342 O 1244.09 0.531545 -2.22232 0
M  V30 13343 C 1244.3 -3.00842 -1.76904 0
M  V30 13344 C 1245.65 -3.57111 -2.29689 0
M  V30 13345 O 1246.67 -3.0319 -1.86961 0
M  V30 13346 O 1245.53 -4.51486 -3.07932 0
M  V30 13347 H 1242.62 -0.662557 -0.494922 0
M  V30 13348 H 1245.17 -1.66723 -0.316444 0
M  V30 13349 H 1243.94 -3.76854 -1.05341 0
M  V30 13350 H 1243.56 -3.01377 -2.59341 0
M  V30 13351 N 1244.56 0.579466 -1.4656 0
M  V30 13352 C 1245.81 1.33492 -1.51738 0
M  V30 13353 C 1246.13 1.94241 -0.171926 0
M  V30 13354 O 1245.4 1.78737 0.801875 0
M  V30 13355 H 1243.98 0.49565 -0.558874 0
M  V30 13356 H 1246.64 0.678394 -1.82712 0
M  V30 13357 H 1245.74 2.13995 -2.27183 0
M  V30 13358 N 1246.04 1.3432 0.824371 0
M  V30 13359 C 1246.99 1.25776 1.93517 0
M  V30 13360 C 1247.96 0.133298 1.65564 0
M  V30 13361 O 1249.14 0.31403 1.88198 0
M  V30 13362 C 1246.28 1.01766 3.29754 0
M  V30 13363 C 1245.39 2.22973 3.7001 0
M  V30 13364 C 1244.53 1.92258 4.95187 0
M  V30 13365 C 1243.57 3.09616 5.2802 0
M  V30 13366 N 1242.7 2.78793 6.44375 0
M  V30 13367 H 1247.54 2.20774 2.00157 0
M  V30 13368 H 1245.08 1.09766 0.979274 0
M  V30 13369 H 1247.04 0.858831 4.08265 0
M  V30 13370 H 1245.67 0.10437 3.22631 0
M  V30 13371 H 1244.72 2.49781 2.86903 0
M  V30 13372 H 1246.03 3.10661 3.90245 0
M  V30 13373 H 1245.19 1.73102 5.81481 0
M  V30 13374 H 1243.93 1.01827 4.76951 0
M  V30 13375 H 1242.93 3.29368 4.40223 0
M  V30 13376 H 1244.16 4.00822 5.48196 0
M  V30 13377 H 1242.1 1.90938 6.27598 0
M  V30 13378 H 1242.02 3.60014 6.64775 0
M  V30 13379 H 1243.29 2.63139 7.33743 0
M  V30 13380 N 1247.52 -1.0444 1.18026 0
M  V30 13381 C 1248.76 -1.79143 0.984238 0
M  V30 13382 C 1249.12 -1.85955 -0.478002 0
M  V30 13383 O 1250.32 -2.56826 -0.793345 0
M  V30 13384 C 1248.59 -3.18744 1.61669 0
M  V30 13385 S 1250.15 -4.09832 1.56791 0
M  V30 13386 H 1246.97 -0.61688 0.353525 0
M  V30 13387 H 1249.57 -1.25256 1.50104 0
M  V30 13388 H 1248.28 -3.11394 2.67324 0
M  V30 13389 H 1247.81 -3.77708 1.10001 0
M  V30 13390 H 1249.82 -4.92785 0.581175 0
M  V30 13391 N 1248.99 -0.981699 -1.2329 0
M  V30 13392 C 1250.22 -0.669025 -1.96313 0
M  V30 13393 C 1250.64 0.757624 -1.72168 0
M  V30 13394 O 1250 1.51626 -0.993942 0
M  V30 13395 C 1250.05 -0.966875 -3.47396 0
M  V30 13396 O 1249.15 -0.0595933 -4.12357 0
M  V30 13397 H 1248.5 -0.251493 -0.61453 0
M  V30 13398 H 1251.03 -1.31564 -1.56691 0
M  V30 13399 H 1251.04 -0.904112 -3.97857 0
M  V30 13400 H 1249.71 -2.00651 -3.64296 0
M  V30 13401 H 1248.29 -0.176878 -3.7248 0
M  V30 13402 N 1250.47 1.3842 -0.753509 0
M  V30 13403 C 1251.72 1.99359 -0.306416 0
M  V30 13404 C 1252.03 1.60492 1.11811 0
M  V30 13405 O 1253.24 2.14401 1.66567 0
M  V30 13406 C 1251.7 3.56453 -0.496895 0
M  V30 13407 C 1251.3 4.04272 -1.9305 0
M  V30 13408 C 1253.05 4.24351 -0.11251 0
M  V30 13409 C 1250.96 5.54007 -2.06955 0
M  V30 13410 H 1249.89 0.745812 -0.110818 0
M  V30 13411 H 1252.54 1.58185 -0.930039 0
M  V30 13412 H 1250.92 3.95515 0.195912 0
M  V30 13413 H 1252.09 3.765 -2.65677 0
M  V30 13414 H 1250.41 3.49098 -2.26979 0
M  V30 13415 H 1253 5.34344 -0.195161 0
M  V30 13416 H 1253.35 4.05668 0.934849 0
M  V30 13417 H 1253.88 3.90528 -0.757168 0
M  V30 13418 H 1250.62 5.77594 -3.09944 0
M  V30 13419 H 1250.14 5.83522 -1.38788 0
M  V30 13420 H 1251.82 6.19704 -1.85945 0
M  V30 13421 N 1251.95 0.502579 1.49372 0
M  V30 13422 C 1253.18 -0.0403087 2.07361 0
M  V30 13423 C 1253.6 -1.29918 1.36026 0
M  V30 13424 O 1252.96 -1.76428 0.417488 0
M  V30 13425 C 1253.01 -0.275362 3.59547 0
M  V30 13426 O 1252.11 -1.34975 3.89686 0
M  V30 13427 H 1251.45 0.0269268 0.663454 0
M  V30 13428 H 1253.98 0.702652 1.92156 0
M  V30 13429 H 1253.99 -0.506392 4.04845 0
M  V30 13430 H 1252.67 0.644382 4.10878 0
M  V30 13431 H 1251.24 -1.10355 3.56197 0
M  V30 13432 N 1253.43 -1.55816 0.23648 0
M  V30 13433 C 1254.67 -2.0059 -0.39281 0
M  V30 13434 C 1255.03 -1.12092 -1.55883 0
M  V30 13435 O 1256.23 -1.46277 -2.25514 0
M  V30 13436 C 1254.5 -3.48281 -0.80219 0
M  V30 13437 S 1256.06 -4.15069 -1.42348 0
M  V30 13438 H 1252.88 -0.700093 -0.124057 0
M  V30 13439 H 1255.48 -1.92355 0.349272 0
M  V30 13440 H 1254.19 -4.10362 0.0558941 0
M  V30 13441 H 1253.72 -3.60421 -1.57671 0
M  V30 13442 H 1255.73 -4.15493 -2.71257 0
M  V30 13443 N 1254.91 0.036755 -1.57557 0
M  V30 13444 C 1256.18 0.764087 -1.80059 0
M  V30 13445 C 1256.56 1.93983 -0.83269 0
M  V30 13446 O 1255.91 2.28148 0.126815 0
M  V30 13447 C 1256.12 1.20433 -3.27562 0
M  V30 13448 C 1257.47 1.6234 -3.9234 0
M  V30 13449 O 1258.49 1.29911 -3.31665 0
M  V30 13450 O 1257.35 2.22504 -4.99154 0
M  V30 13451 H 1254.45 0.368866 -0.74018 0
M  V30 13452 H 1256.99 0.0141254 -1.69694 0
M  V30 13453 H 1255.76 0.364646 -3.89597 0
M  V30 13454 H 1255.39 2.01454 -3.42786 0
M  V30 13455 N 1256.39 1.54543 0.308881 0
M  V30 13456 C 1257.66 1.64118 1.06418 0
M  V30 13457 C 1258.04 0.484402 2.05467 0
M  V30 13458 O 1257.39 -0.519752 2.2251 0
M  V30 13459 C 1257.6 3.01776 1.75306 0
M  V30 13460 C 1258.95 3.58324 2.27792 0
M  V30 13461 O 1259.97 3.04177 1.85351 0
M  V30 13462 O 1258.83 4.53113 3.05533 0
M  V30 13463 H 1255.93 0.665172 0.491401 0
M  V30 13464 H 1258.47 1.66889 0.307598 0
M  V30 13465 H 1257.24 3.77407 1.03341 0
M  V30 13466 H 1256.87 3.02748 2.57739 0
M  V30 13467 N 1257.86 -0.571685 1.46866 0
M  V30 13468 C 1258.77 -1.70758 1.60869 0
M  V30 13469 C 1259.79 -1.66903 0.49186 0
M  V30 13470 O 1260.97 -1.86613 0.757468 0
M  V30 13471 C 1258.03 -3.07267 1.60586 0
M  V30 13472 C 1257.09 -3.22301 2.83585 0
M  V30 13473 C 1256.32 -4.52298 2.83306 0
M  V30 13474 O 1256.55 -5.36869 1.92685 0
M  V30 13475 O 1255.48 -4.70814 3.7499 0
M  V30 13476 H 1259.31 -1.6189 2.56954 0
M  V30 13477 H 1256.89 -0.740018 1.29785 0
M  V30 13478 H 1258.77 -3.8853 1.63163 0
M  V30 13479 H 1257.45 -3.16549 0.676637 0
M  V30 13480 H 1256.36 -2.4049 2.86558 0
M  V30 13481 H 1257.69 -3.17916 3.75753 0
M  V30 13482 N 1259.34 -1.34755 -0.817236 0
M  V30 13483 C 1260.57 -1.30522 -1.60536 0
M  V30 13484 C 1260.98 0.119541 -1.88421 0
M  V30 13485 O 1260.34 1.06833 -1.47962 0
M  V30 13486 C 1260.39 -2.09939 -2.94292 0
M  V30 13487 O 1260.11 -3.46858 -2.67621 0
M  V30 13488 C 1261.61 -2.13168 -3.88683 0
M  V30 13489 H 1258.83 -0.448789 -0.498828 0
M  V30 13490 H 1261.38 -1.77453 -1.01639 0
M  V30 13491 H 1259.53 -1.66634 -3.49731 0
M  V30 13492 H 1259.95 -3.87979 -3.52949 0
M  V30 13493 H 1261.42 -2.73147 -4.79682 0
M  V30 13494 H 1261.9 -1.12758 -4.24479 0
M  V30 13495 H 1262.5 -2.56587 -3.39181 0
M  V30 13496 N 1260.82 1.03812 -1.18578 0
M  V30 13497 C 1262.07 1.77319 -0.984173 0
M  V30 13498 C 1262.4 1.88052 0.484789 0
M  V30 13499 O 1261.67 1.3905 1.35998 0
M  V30 13500 C 1261.96 3.20448 -1.6427 0
M  V30 13501 C 1261.81 3.17643 -3.1847 0
M  V30 13502 C 1263.13 4.18623 -1.35805 0
M  V30 13503 H 1260.25 0.643681 -0.358949 0
M  V30 13504 H 1262.89 1.21249 -1.46283 0
M  V30 13505 H 1261.04 3.68324 -1.23572 0
M  V30 13506 H 1262.71 2.77738 -3.6832 0
M  V30 13507 H 1260.95 2.55606 -3.50497 0
M  V30 13508 H 1261.63 4.18724 -3.59686 0
M  V30 13509 H 1264.1 3.79306 -1.71073 0
M  V30 13510 H 1262.98 5.16982 -1.84446 0
M  V30 13511 H 1263.24 4.41203 -0.281418 0
M  V30 13512 N 1262.3 0.988223 1.22768 0
M  V30 13513 C 1263.25 0.527454 2.26541 0
M  V30 13514 C 1264.24 -0.419506 1.64123 0
M  V30 13515 O 1265.45 -0.292539 1.77607 0
M  V30 13516 H 1261.82 0.152165 0.736444 0
M  V30 13517 H 1263.79 1.41422 2.62759 0
M  V30 13518 C 1262.54 -0.146845 3.4739 0
M  V30 13519 H 1261.86 0.572752 3.95676 0
M  V30 13520 H 1263.3 -0.432768 4.21786 0
M  V30 13521 C 1261.76 -1.38065 3.0731 0
M  V30 13522 O 1262.29 -2.47634 3.16291 0
M  V30 13523 N 1260.5 -1.25418 2.62143 0
M  V30 13524 H 1260.05 -0.362641 2.55035 0
M  V30 13525 H 1260 -2.08077 2.35694 0
M  V30 13526 N 1263.78 -1.38018 0.760839 0
M  V30 13527 C 1265.02 -2.01795 0.325264 0
M  V30 13528 C 1265.38 -1.59092 -1.07489 0
M  V30 13529 O 1266.58 -2.15251 -1.60998 0
M  V30 13530 C 1264.85 -3.5453 0.452007 0
M  V30 13531 S 1266.41 -4.38686 0.100084 0
M  V30 13532 H 1263.23 -0.69979 0.125758 0
M  V30 13533 H 1265.83 -1.684 0.993054 0
M  V30 13534 H 1264.53 -3.83099 1.47186 0
M  V30 13535 H 1264.07 -3.92711 -0.232716 0
M  V30 13536 H 1266.08 -4.83672 -1.10797 0
M  V30 13537 N 1265.25 -0.510493 -1.49103 0
M  V30 13538 C 1266.48 0.0271324 -2.06582 0
M  V30 13539 C 1266.89 1.30499 -1.36991 0
M  V30 13540 O 1266.23 1.78229 -0.444976 0
M  V30 13541 C 1266.3 0.341488 -3.57874 0
M  V30 13542 C 1265.96 -0.840037 -4.49213 0
M  V30 13543 C 1266.96 -1.73315 -4.90161 0
M  V30 13544 C 1264.64 -1.04153 -4.91383 0
M  V30 13545 C 1266.64 -2.81182 -5.72028 0
M  V30 13546 C 1264.32 -2.12336 -5.73024 0
M  V30 13547 C 1265.32 -3.00684 -6.13252 0
M  V30 13548 O 1265.01 -4.06999 -6.93258 0
M  V30 13549 H 1264.74 -0.0215383 -0.675657 0
M  V30 13550 H 1267.3 -0.709841 -1.92744 0
M  V30 13551 H 1265.53 1.13218 -3.69755 0
M  V30 13552 H 1267.21 0.818859 -3.97554 0
M  V30 13553 H 1267.98 -1.58934 -4.58219 0
M  V30 13554 H 1263.86 -0.363199 -4.59567 0
M  V30 13555 H 1267.4 -3.50169 -6.03347 0
M  V30 13556 H 1263.3 -2.26708 -6.04379 0
M  V30 13557 H 1264.07 -4.04469 -7.11581 0
M  V30 13558 N 1266.73 1.55688 -0.24474 0
M  V30 13559 C 1267.66 2.24272 0.64995 0
M  V30 13560 C 1268.64 1.22226 1.183 0
M  V30 13561 O 1269.83 1.50873 1.22274 0
M  V30 13562 C 1266.96 2.94053 1.84798 0
M  V30 13563 C 1265.91 4.02769 1.44779 0
M  V30 13564 C 1265.24 4.59965 2.72647 0
M  V30 13565 C 1266.54 5.18601 0.62047 0
M  V30 13566 H 1268.23 2.99298 0.0780654 0
M  V30 13567 H 1265.78 1.43955 0.0361069 0
M  V30 13568 H 1267.73 3.40732 2.47951 0
M  V30 13569 H 1266.45 2.16511 2.44521 0
M  V30 13570 H 1265.11 3.56856 0.839609 0
M  V30 13571 H 1264.76 3.79126 3.30564 0
M  V30 13572 H 1264.46 5.33352 2.46596 0
M  V30 13573 H 1265.99 5.09376 3.36703 0
M  V30 13574 H 1267.4 5.61519 1.15625 0
M  V30 13575 H 1265.8 5.98364 0.456097 0
M  V30 13576 H 1266.87 4.83503 -0.367798 0
M  V30 13577 N 1268.21 -0.0283989 1.57574 0
M  V30 13578 C 1269.46 -0.718121 1.88483 0
M  V30 13579 C 1269.77 -1.76485 0.843345 0
M  V30 13580 O 1270.98 -2.50721 1.04169 0
M  V30 13581 C 1269.43 -1.32832 3.3449 0
M  V30 13582 C 1269.04 -0.317905 4.46871 0
M  V30 13583 C 1270.79 -1.99788 3.74546 0
M  V30 13584 C 1268.69 -0.936489 5.83938 0
M  V30 13585 H 1267.62 -0.271969 0.703242 0
M  V30 13586 H 1270.27 0.0274862 1.83479 0
M  V30 13587 H 1268.66 -2.12366 3.34241 0
M  V30 13588 H 1269.83 0.450767 4.5859 0
M  V30 13589 H 1268.14 0.249605 4.15651 0
M  V30 13590 H 1270.74 -2.46923 4.74271 0
M  V30 13591 H 1271.08 -2.81633 3.06575 0
M  V30 13592 H 1271.62 -1.27029 3.76973 0
M  V30 13593 H 1268.36 -0.15744 6.55311 0
M  V30 13594 H 1267.88 -1.67499 5.75938 0
M  V30 13595 H 1269.56 -1.44363 6.30689 0
M  V30 13596 N 1269.69 -1.54705 -0.300681 0
M  V30 13597 C 1270.96 -1.6468 -1.05546 0
M  V30 13598 C 1271.34 -0.495292 -2.05207 0
M  V30 13599 O 1270.69 0.507944 -2.22783 0
M  V30 13600 C 1270.9 -3.02702 -1.73703 0
M  V30 13601 C 1272.25 -3.59527 -2.25888 0
M  V30 13602 O 1273.27 -3.05156 -1.83735 0
M  V30 13603 O 1272.13 -4.54727 -3.03126 0
M  V30 13604 H 1269.23 -0.667769 -0.487867 0
M  V30 13605 H 1271.77 -1.6705 -0.298743 0
M  V30 13606 H 1270.55 -3.7795 -1.01338 0
M  V30 13607 H 1270.17 -3.0411 -2.5613 0
M  V30 13608 N 1271.17 0.563888 -1.47167 0
M  V30 13609 C 1272.11 1.69254 -1.59549 0
M  V30 13610 C 1273.11 1.62948 -0.463078 0
M  V30 13611 O 1274.31 1.68214 -0.640639 0
M  V30 13612 H 1270.69 0.559925 -0.501984 0
M  V30 13613 H 1272.66 1.55946 -2.54408 0
M  V30 13614 C 1271.41 3.0762 -1.62066 0
M  V30 13615 H 1270.73 3.13151 -2.48549 0
M  V30 13616 H 1272.17 3.863 -1.74781 0
M  V30 13617 C 1270.63 3.35048 -0.352721 0
M  V30 13618 O 1271.16 3.9793 0.549053 0
M  V30 13619 N 1269.37 2.8965 -0.234805 0
M  V30 13620 H 1268.91 2.38657 -0.969561 0
M  V30 13621 H 1268.87 3.08373 0.61263 0
M  V30 13622 N 1272.64 1.35187 0.810078 0
M  V30 13623 C 1273.59 1.27848 1.94313 0
M  V30 13624 C 1274.59 0.174081 1.68503 0
M  V30 13625 O 1275.79 0.339848 1.76763 0
M  V30 13626 H 1272.17 0.397504 0.638353 0
M  V30 13627 H 1274.14 2.23579 1.97623 0
M  V30 13628 C 1272.89 1.06382 3.31026 0
M  V30 13629 H 1272.21 1.90601 3.51441 0
M  V30 13630 H 1273.65 1.05287 4.1072 0
M  V30 13631 C 1272.11 -0.232462 3.36097 0
M  V30 13632 O 1272.64 -1.22946 3.82423 0
M  V30 13633 N 1270.85 -0.270028 2.89343 0
M  V30 13634 H 1270.39 0.541891 2.51836 0
M  V30 13635 H 1270.35 -1.13708 2.93117 0
M  V30 13636 N 1274.12 -1.03182 1.19127 0
M  V30 13637 C 1275.37 -1.76184 0.990134 0
M  V30 13638 C 1275.69 -1.88986 -0.480546 0
M  V30 13639 O 1274.96 -1.4213 -1.34817 0
M  V30 13640 H 1273.54 -0.652668 0.363364 0
M  V30 13641 H 1276.2 -1.24481 1.49968 0
M  V30 13642 H 1275.3 -2.77119 1.43568 0
M  V30 13643 N 1275.6 -0.99472 -1.22242 0
M  V30 13644 C 1276.85 -0.671602 -1.91039 0
M  V30 13645 C 1277.18 0.796543 -1.77441 0
M  V30 13646 O 1276.43 1.59179 -1.13845 0
M  V30 13647 C 1276.73 -1.02561 -3.42368 0
M  V30 13648 C 1276.4 -2.48632 -3.76155 0
M  V30 13649 C 1275.06 -2.88549 -3.85088 0
M  V30 13650 C 1277.41 -3.43302 -3.92165 0
M  V30 13651 C 1274.74 -4.22121 -4.07469 0
M  V30 13652 C 1277.09 -4.76534 -4.1605 0
M  V30 13653 C 1275.75 -5.1619 -4.23207 0
M  V30 13654 H 1275.02 -0.245756 -0.69906 0
M  V30 13655 H 1277.67 -1.25125 -1.44969 0
M  V30 13656 H 1275.98 -0.364073 -3.90105 0
M  V30 13657 H 1277.67 -0.753612 -3.93855 0
M  V30 13658 H 1274.26 -2.16693 -3.69787 0
M  V30 13659 H 1278.45 -3.13633 -3.8464 0
M  V30 13660 H 1273.7 -4.52431 -4.11238 0
M  V30 13661 H 1277.88 -5.49835 -4.27381 0
M  V30 13662 H 1275.5 -6.19708 -4.40303 0
M  V30 13663 N 1277.08 1.37613 -0.768148 0
M  V30 13664 C 1278.33 1.99023 -0.327543 0
M  V30 13665 C 1278.64 1.61669 1.10103 0
M  V30 13666 O 1279.85 2.16155 1.64284 0
M  V30 13667 C 1278.3 3.55906 -0.534674 0
M  V30 13668 C 1277.91 4.02201 -1.97327 0
M  V30 13669 C 1279.65 4.24208 -0.157512 0
M  V30 13670 C 1277.56 5.51781 -2.12819 0
M  V30 13671 H 1276.49 0.744595 -0.118722 0
M  V30 13672 H 1279.14 1.5719 -0.946764 0
M  V30 13673 H 1277.52 3.95701 0.153951 0
M  V30 13674 H 1278.7 3.73661 -2.69655 0
M  V30 13675 H 1277.01 3.46671 -2.30669 0
M  V30 13676 H 1279.61 5.34107 -0.251824 0
M  V30 13677 H 1279.95 4.06636 0.89177 0
M  V30 13678 H 1280.49 3.89703 -0.798546 0
M  V30 13679 H 1277.23 5.74274 -3.16053 0
M  V30 13680 H 1276.75 5.82017 -1.4497 0
M  V30 13681 H 1278.42 6.17697 -1.92508 0
M  V30 13682 N 1278.56 0.518393 1.4883 0
M  V30 13683 C 1279.49 -0.239685 2.32267 0
M  V30 13684 C 1280.47 -0.94613 1.41359 0
M  V30 13685 O 1281.65 -0.934162 1.70256 0
M  V30 13686 C 1278.78 -1.29411 3.22289 0
M  V30 13687 C 1277.74 -0.706504 4.22129 0
M  V30 13688 C 1277.06 -1.86273 5.01205 0
M  V30 13689 C 1278.36 0.314079 5.21355 0
M  V30 13690 H 1280.06 0.4568 2.95895 0
M  V30 13691 H 1277.6 0.221126 1.42292 0
M  V30 13692 H 1279.56 -1.8323 3.7948 0
M  V30 13693 H 1278.28 -2.02001 2.56638 0
M  V30 13694 H 1276.94 -0.189924 3.66108 0
M  V30 13695 H 1276.59 -2.57674 4.31988 0
M  V30 13696 H 1276.29 -1.47554 5.68772 0
M  V30 13697 H 1277.81 -2.40492 5.61245 0
M  V30 13698 H 1279.22 -0.136604 5.73137 0
M  V30 13699 H 1277.62 0.618026 5.96909 0
M  V30 13700 H 1278.69 1.22394 4.69199 0
M  V30 13701 N 1280.03 -1.55556 0.252993 0
M  V30 13702 C 1281.28 -1.99385 -0.370599 0
M  V30 13703 C 1281.61 -1.14101 -1.57145 0
M  V30 13704 O 1280.89 -0.205828 -1.93408 0
M  V30 13705 C 1281.17 -3.51672 -0.774503 0
M  V30 13706 C 1281.02 -4.47719 0.432159 0
M  V30 13707 C 1282.34 -4.0923 -1.61923 0
M  V30 13708 H 1279.46 -0.724858 -0.133231 0
M  V30 13709 H 1282.1 -1.86644 0.355522 0
M  V30 13710 H 1280.25 -3.62661 -1.39318 0
M  V30 13711 H 1281.93 -4.48704 1.07063 0
M  V30 13712 H 1280.17 -4.2029 1.07419 0
M  V30 13713 H 1280.84 -5.51898 0.106123 0
M  V30 13714 H 1283.32 -4.01381 -1.09693 0
M  V30 13715 H 1282.19 -5.16039 -1.87068 0
M  V30 13716 H 1282.45 -3.58067 -2.59307 0
M  V30 13717 N 1281.51 0.0200419 -1.57587 0
M  V30 13718 C 1282.74 0.724241 -1.94344 0
M  V30 13719 C 1283.16 1.67612 -0.853688 0
M  V30 13720 O 1282.52 1.80303 0.189873 0
M  V30 13721 C 1282.57 1.44967 -3.30177 0
M  V30 13722 O 1281.67 2.56326 -3.23064 0
M  V30 13723 H 1281.01 0.194142 -0.634984 0
M  V30 13724 H 1283.54 -0.0271756 -2.04582 0
M  V30 13725 H 1283.55 1.81758 -3.65278 0
M  V30 13726 H 1282.23 0.75161 -4.09052 0
M  V30 13727 H 1280.81 2.22011 -2.99609 0
M  V30 13728 N 1282.99 1.54862 0.292472 0
M  V30 13729 C 1283.9 1.89472 1.38339 0
M  V30 13730 C 1284.92 0.789783 1.55043 0
M  V30 13731 O 1286.09 1.08705 1.69544 0
M  V30 13732 C 1283.16 2.14244 2.72581 0
M  V30 13733 C 1282.22 3.37913 2.64789 0
M  V30 13734 C 1281.45 3.61494 3.92629 0
M  V30 13735 O 1281.67 2.87931 4.92394 0
M  V30 13736 O 1280.61 4.55019 3.94007 0
M  V30 13737 H 1284.43 2.82298 1.11989 0
M  V30 13738 H 1282.02 1.41161 0.489291 0
M  V30 13739 H 1283.9 2.31689 3.51991 0
M  V30 13740 H 1282.58 1.24603 2.98757 0
M  V30 13741 H 1281.48 3.25823 1.83821 0
M  V30 13742 H 1282.82 4.27711 2.43565 0
M  V30 13743 N 1284.47 -0.556076 1.47464 0
M  V30 13744 C 1285.75 -1.31689 1.44628 0
M  V30 13745 C 1286.13 -2.10609 0.143841 0
M  V30 13746 O 1285.47 -2.11097 -0.874662 0
M  V30 13747 C 1285.68 -2.22045 2.69253 0
M  V30 13748 C 1287.03 -2.83028 3.16513 0
M  V30 13749 O 1288.06 -2.32346 2.69988 0
M  V30 13750 O 1286.91 -3.75148 3.97399 0
M  V30 13751 H 1284.01 -0.593026 0.576411 0
M  V30 13752 H 1286.55 -0.574885 1.59666 0
M  V30 13753 H 1285.33 -1.63337 3.5558 0
M  V30 13754 H 1284.95 -3.03539 2.56807 0
M  V30 13755 N 1285.95 -1.35615 -0.802897 0
M  V30 13756 C 1287.18 -1.32025 -1.58911 0
M  V30 13757 C 1287.59 0.103539 -1.88916 0
M  V30 13758 O 1286.93 1.06699 -1.49536 0
M  V30 13759 C 1286.99 -2.06313 -2.94406 0
M  V30 13760 C 1286.65 -3.5548 -2.87198 0
M  V30 13761 C 1287.65 -4.5 -2.60377 0
M  V30 13762 C 1285.34 -3.9818 -3.06199 0
M  V30 13763 C 1287.33 -5.85194 -2.5264 0
M  V30 13764 C 1285.02 -5.33469 -2.98084 0
M  V30 13765 C 1286.02 -6.26788 -2.71341 0
M  V30 13766 O 1285.7 -7.59594 -2.63195 0
M  V30 13767 H 1285.44 -0.454943 -0.500003 0
M  V30 13768 H 1287.99 -1.79106 -1.00549 0
M  V30 13769 H 1286.22 -1.53875 -3.54766 0
M  V30 13770 H 1287.91 -1.95755 -3.55577 0
M  V30 13771 H 1288.67 -4.18327 -2.45413 0
M  V30 13772 H 1284.55 -3.25927 -3.26025 0
M  V30 13773 H 1288.1 -6.58003 -2.31686 0
M  V30 13774 H 1283.99 -5.64754 -3.12607 0
M  V30 13775 H 1284.76 -7.69562 -2.78776 0
M  V30 13776 N 1287.43 1.02549 -1.19673 0
M  V30 13777 C 1288.65 1.79623 -1.0268 0
M  V30 13778 C 1289.07 1.83969 0.424345 0
M  V30 13779 O 1288.43 1.28621 1.29472 0
M  V30 13780 C 1288.48 3.24514 -1.59289 0
M  V30 13781 O 1288.2 3.20462 -2.98723 0
M  V30 13782 C 1289.7 4.18173 -1.47126 0
M  V30 13783 H 1286.92 0.565167 -0.3617 0
M  V30 13784 H 1289.46 1.29143 -1.58564 0
M  V30 13785 H 1287.62 3.72173 -1.07546 0
M  V30 13786 H 1288.03 4.11341 -3.25421 0
M  V30 13787 H 1289.51 5.17714 -1.9151 0
M  V30 13788 H 1289.98 4.37165 -0.422315 0
M  V30 13789 H 1290.59 3.7639 -1.98017 0
M  V30 13790 N 1288.9 1.00119 1.21713 0
M  V30 13791 C 1289.84 0.516633 2.23301 0
M  V30 13792 C 1290.85 -0.392732 1.57992 0
M  V30 13793 O 1292.04 -0.19354 1.77448 0
M  V30 13794 C 1289.14 -0.269612 3.37826 0
M  V30 13795 C 1288.31 0.637898 4.32723 0
M  V30 13796 C 1287.37 -0.0980745 5.26109 0
M  V30 13797 O 1286.4 0.519302 5.66826 0
M  V30 13798 N 1287.6 -1.37783 5.63911 0
M  V30 13799 H 1290.36 1.39022 2.65505 0
M  V30 13800 H 1287.92 0.87688 1.36097 0
M  V30 13801 H 1289.92 -0.770826 3.97291 0
M  V30 13802 H 1288.49 -1.04436 2.94638 0
M  V30 13803 H 1287.71 1.31966 3.71455 0
M  V30 13804 H 1288.99 1.25564 4.93063 0
M  V30 13805 H 1288.39 -1.90061 5.32817 0
M  V30 13806 H 1286.95 -1.82407 6.25756 0
M  V30 13807 N 1290.38 -1.37203 0.775435 0
M  V30 13808 C 1291.61 -2.03868 0.352927 0
M  V30 13809 C 1292.02 -1.58482 -1.0261 0
M  V30 13810 O 1291.38 -0.767772 -1.65564 0
M  V30 13811 C 1291.43 -3.59378 0.39116 0
M  V30 13812 O 1291.15 -4.03103 1.71579 0
M  V30 13813 C 1292.65 -4.4328 -0.0424808 0
M  V30 13814 H 1289.87 -0.654619 0.14736 0
M  V30 13815 H 1292.42 -1.75463 1.05039 0
M  V30 13816 H 1290.57 -3.86542 -0.257752 0
M  V30 13817 H 1290.99 -4.9764 1.65695 0
M  V30 13818 H 1292.46 -5.51989 0.0354215 0
M  V30 13819 H 1292.94 -4.25374 -1.09333 0
M  V30 13820 H 1293.54 -4.21349 0.578384 0
M  V30 13821 N 1291.86 -0.526279 -1.48553 0
M  V30 13822 C 1293.11 0.00914839 -2.02098 0
M  V30 13823 C 1293.43 1.35119 -1.40598 0
M  V30 13824 O 1292.7 1.87422 -0.570065 0
M  V30 13825 H 1291.28 0.00636935 -0.746973 0
M  V30 13826 H 1293.94 -0.689269 -1.82305 0
M  V30 13827 H 1293.04 0.120212 -3.11868 0
M  V30 13828 N 1293.34 1.5542 -0.261239 0
M  V30 13829 C 1294.61 1.91243 0.41056 0
M  V30 13830 C 1294.99 1.1838 1.74784 0
M  V30 13831 O 1294.34 0.306013 2.26442 0
M  V30 13832 C 1294.55 3.44404 0.56453 0
M  V30 13833 C 1295.9 4.15927 0.853827 0
M  V30 13834 O 1296.92 3.50222 0.649861 0
M  V30 13835 O 1295.78 5.32175 1.24308 0
M  V30 13836 H 1292.88 0.796491 0.222555 0
M  V30 13837 H 1295.42 1.66912 -0.306367 0
M  V30 13838 H 1294.2 3.89478 -0.377134 0
M  V30 13839 H 1293.82 3.74644 1.33145 0
M  V30 13840 N 1294.82 -0.0116844 1.57596 0
M  V30 13841 C 1296.06 -0.698958 1.90055 0
M  V30 13842 C 1296.39 -1.74422 0.860659 0
M  V30 13843 O 1295.65 -1.95226 -0.136132 0
M  V30 13844 C 1295.94 -1.38985 3.29269 0
M  V30 13845 C 1295.61 -0.478916 4.48349 0
M  V30 13846 C 1294.27 -0.228071 4.80659 0
M  V30 13847 C 1296.62 0.14897 5.20987 0
M  V30 13848 C 1293.95 0.659147 5.82986 0
M  V30 13849 C 1296.3 1.02399 6.24257 0
M  V30 13850 C 1294.97 1.28413 6.55032 0
M  V30 13851 H 1294.24 -0.255767 0.69546 0
M  V30 13852 H 1296.89 0.0413339 1.91455 0
M  V30 13853 H 1295.19 -2.2039 3.23937 0
M  V30 13854 H 1296.89 -1.92747 3.51638 0
M  V30 13855 H 1293.48 -0.68459 4.23097 0
M  V30 13856 H 1297.66 -0.0318326 4.9629 0
M  V30 13857 H 1292.92 0.86882 6.05195 0
M  V30 13858 H 1297.09 1.51694 6.79678 0
M  V30 13859 H 1294.72 1.97332 7.34142 0
M  V30 13860 N 1296.29 -1.55015 -0.284256 0
M  V30 13861 C 1297.54 -1.7509 -1.01733 0
M  V30 13862 C 1297.87 -0.545803 -1.86685 0
M  V30 13863 O 1297.12 0.471951 -1.89924 0
M  V30 13864 C 1297.42 -3.00246 -1.93874 0
M  V30 13865 C 1297.09 -4.33295 -1.24764 0
M  V30 13866 C 1295.75 -4.69459 -1.0565 0
M  V30 13867 C 1298.1 -5.15704 -0.754939 0
M  V30 13868 C 1295.43 -5.85596 -0.35976 0
M  V30 13869 C 1297.78 -6.32559 -0.0718473 0
M  V30 13870 C 1296.45 -6.67371 0.131104 0
M  V30 13871 H 1295.72 -0.6407 -0.372269 0
M  V30 13872 H 1298.36 -1.89282 -0.290638 0
M  V30 13873 H 1296.67 -2.80907 -2.73127 0
M  V30 13874 H 1298.37 -3.12974 -2.50696 0
M  V30 13875 H 1294.96 -4.04865 -1.4065 0
M  V30 13876 H 1299.14 -4.8825 -0.89027 0
M  V30 13877 H 1294.4 -6.11099 -0.19169 0
M  V30 13878 H 1298.57 -6.95675 0.317743 0
M  V30 13879 H 1296.2 -7.57215 0.672977 0
M  V30 13880 N 1297.77 0.548248 -1.47757 0
M  V30 13881 C 1299.02 1.30243 -1.54535 0
M  V30 13882 C 1299.34 1.93832 -0.213089 0
M  V30 13883 O 1298.61 1.80397 0.763782 0
M  V30 13884 H 1297.19 0.483684 -0.569262 0
M  V30 13885 H 1299.85 0.639485 -1.8411 0
M  V30 13886 H 1298.95 2.09128 -2.31672 0
M  V30 13887 N 1299.25 1.36039 0.795694 0
M  V30 13888 C 1300.16 1.31991 1.93948 0
M  V30 13889 C 1301.18 0.223064 1.72564 0
M  V30 13890 O 1302.35 0.454344 1.96208 0
M  V30 13891 C 1299.42 1.10228 3.28711 0
M  V30 13892 C 1298.48 2.29328 3.62914 0
M  V30 13893 C 1297.71 2.08595 4.91247 0
M  V30 13894 O 1297.93 1.05793 5.60503 0
M  V30 13895 O 1296.87 2.96222 5.23962 0
M  V30 13896 H 1300.69 2.28274 2.00311 0
M  V30 13897 H 1298.28 1.16521 0.935048 0
M  V30 13898 H 1300.16 0.999842 4.09367 0
M  V30 13899 H 1298.84 0.17003 3.23253 0
M  V30 13900 H 1297.74 2.4514 2.8259 0
M  V30 13901 H 1299.08 3.21038 3.73089 0
M  V30 13902 N 1300.73 -1.01913 1.20215 0
M  V30 13903 C 1301.98 -1.74878 1.00502 0
M  V30 13904 C 1302.29 -1.90022 -0.463792 0
M  V30 13905 O 1303.5 -2.60055 -0.779982 0
M  V30 13906 C 1301.95 -3.1452 1.74943 0
M  V30 13907 C 1301.56 -3.07397 3.259 0
M  V30 13908 C 1303.3 -3.91713 1.63589 0
M  V30 13909 C 1301.21 -4.42032 3.92889 0
M  V30 13910 H 1300.14 -0.655603 0.372426 0
M  V30 13911 H 1302.79 -1.13978 1.4381 0
M  V30 13912 H 1301.17 -3.75946 1.24421 0
M  V30 13913 H 1302.35 -2.55294 3.83617 0
M  V30 13914 H 1300.66 -2.43698 3.37639 0
M  V30 13915 H 1303.26 -4.91316 2.1098 0
M  V30 13916 H 1303.6 -4.12074 0.591665 0
M  V30 13917 H 1304.14 -3.3691 2.11511 0
M  V30 13918 H 1300.88 -4.26874 4.97453 0
M  V30 13919 H 1300.4 -4.94151 3.39962 0
M  V30 13920 H 1302.07 -5.10884 3.96997 0
M  V30 13921 N 1302.21 -1.00763 -1.2118 0
M  V30 13922 C 1303.12 -0.579646 -2.27326 0
M  V30 13923 C 1304.13 0.378592 -1.69831 0
M  V30 13924 O 1305.31 0.241772 -1.99944 0
M  V30 13925 C 1302.37 0.0843648 -3.46597 0
M  V30 13926 C 1301.43 -0.918685 -4.19355 0
M  V30 13927 C 1300.67 -0.286267 -5.32932 0
M  V30 13928 O 1300.89 0.916274 -5.62993 0
M  V30 13929 O 1299.82 -0.998513 -5.9356 0
M  V30 13930 H 1303.65 -1.46311 -2.66133 0
M  V30 13931 H 1301.24 -0.776641 -1.27627 0
M  V30 13932 H 1303.12 0.455636 -4.18929 0
M  V30 13933 H 1301.79 0.942166 -3.09685 0
M  V30 13934 H 1300.7 -1.34116 -3.49233 0
M  V30 13935 H 1302.03 -1.74616 -4.60185 0
M  V30 13936 N 1303.68 1.3679 -0.7827 0
M  V30 13937 C 1304.93 1.99023 -0.351316 0
M  V30 13938 C 1305.25 1.62436 1.07887 0
M  V30 13939 O 1304.52 0.895084 1.74256 0
M  V30 13940 H 1303.1 0.736141 -0.126909 0
M  V30 13941 H 1305.77 1.67095 -1.00325 0
M  V30 13942 H 1304.86 3.09015 -0.43774 0
M  V30 13943 N 1305.16 0.53415 1.48272 0
M  V30 13944 C 1306.13 -0.215641 2.28183 0
M  V30 13945 C 1307.13 -0.863966 1.35618 0
M  V30 13946 O 1308.32 -0.723375 1.58471 0
M  V30 13947 C 1305.45 -1.31251 3.1462 0
M  V30 13948 H 1306.64 0.486014 2.95936 0
M  V30 13949 H 1304.19 0.290237 1.53582 0
M  V30 13950 H 1304.93 -2.04729 2.51508 0
M  V30 13951 H 1304.71 -0.852706 3.82716 0
M  V30 13952 H 1306.2 -1.83978 3.74889 0
M  V30 13953 N 1306.64 -1.55279 0.269478 0
M  V30 13954 C 1307.89 -1.99767 -0.34943 0
M  V30 13955 C 1308.22 -1.15762 -1.55926 0
M  V30 13956 O 1307.49 -0.22633 -1.93179 0
M  V30 13957 C 1307.78 -3.52474 -0.73716 0
M  V30 13958 C 1307.63 -4.47236 0.479621 0
M  V30 13959 C 1308.95 -4.10924 -1.57573 0
M  V30 13960 H 1306.07 -0.72623 -0.125535 0
M  V30 13961 H 1308.71 -1.86257 0.375298 0
M  V30 13962 H 1306.86 -3.64118 -1.35464 0
M  V30 13963 H 1308.53 -4.47543 1.11816 0
M  V30 13964 H 1306.78 -4.19127 1.11871 0
M  V30 13965 H 1307.45 -5.51754 0.164653 0
M  V30 13966 H 1309.92 -4.02522 -1.05429 0
M  V30 13967 H 1308.8 -5.17995 -1.81584 0
M  V30 13968 H 1309.06 -3.60798 -2.55495 0
M  V30 13969 N 1308.12 0.00332656 -1.576 0
M  V30 13970 C 1309.05 1.02964 -2.03651 0
M  V30 13971 C 1310.03 1.33675 -0.925724 0
M  V30 13972 O 1311.21 1.45896 -1.19359 0
M  V30 13973 C 1308.34 2.35808 -2.4313 0
M  V30 13974 C 1307.39 2.20781 -3.64908 0
M  V30 13975 S 1308.22 1.53697 -5.12969 0
M  V30 13976 C 1309.38 2.87978 -5.55715 0
M  V30 13977 H 1309.61 0.637508 -2.90384 0
M  V30 13978 H 1307.14 0.214095 -1.52908 0
M  V30 13979 H 1309.1 3.12193 -2.66544 0
M  V30 13980 H 1307.76 2.72162 -1.56802 0
M  V30 13981 H 1306.95 3.1891 -3.90272 0
M  V30 13982 H 1306.56 1.5254 -3.41478 0
M  V30 13983 H 1308.85 3.84283 -5.57972 0
M  V30 13984 H 1309.79 2.67318 -6.55703 0
M  V30 13985 H 1310.2 2.91735 -4.83271 0
M  V30 13986 N 1309.6 1.55164 0.276031 0
M  V30 13987 C 1310.54 1.88623 1.36104 0
M  V30 13988 C 1311.54 0.762265 1.51281 0
M  V30 13989 O 1312.74 0.946573 1.53101 0
M  V30 13990 H 1309.12 0.59863 0.455133 0
M  V30 13991 H 1311.09 2.79266 1.05134 0
M  V30 13992 C 1309.84 2.17207 2.71508 0
M  V30 13993 H 1309.16 3.03179 2.6062 0
M  V30 13994 H 1310.6 2.44541 3.46375 0
M  V30 13995 C 1309.06 0.978671 3.22372 0
M  V30 13996 O 1309.59 0.211766 4.01141 0
M  V30 13997 N 1307.8 0.777199 2.80014 0
M  V30 13998 H 1307.34 1.40252 2.16072 0
M  V30 13999 H 1307.3 -0.0196754 3.14394 0
M  V30 14000 N 1311.07 -0.540404 1.48045 0
M  V30 14001 C 1312.02 -1.64598 1.61791 0
M  V30 14002 C 1312.99 -1.59595 0.460301 0
M  V30 14003 O 1314.18 -1.78176 0.682482 0
M  V30 14004 C 1311.32 -3.02887 1.65389 0
M  V30 14005 C 1310.43 -3.18202 2.92184 0
M  V30 14006 C 1309.56 -4.46989 2.87009 0
M  V30 14007 C 1308.6 -4.55795 4.08555 0
M  V30 14008 N 1307.74 -5.75958 4.01518 0
M  V30 14009 H 1312.58 -1.52188 2.56208 0
M  V30 14010 H 1310.12 -0.741097 1.27068 0
M  V30 14011 H 1312.08 -3.82988 1.65457 0
M  V30 14012 H 1310.71 -3.14092 0.744703 0
M  V30 14013 H 1309.76 -2.31422 3.01907 0
M  V30 14014 H 1311.07 -3.20571 3.82146 0
M  V30 14015 H 1310.22 -5.35369 2.85421 0
M  V30 14016 H 1308.96 -4.47125 1.94759 0
M  V30 14017 H 1307.97 -3.65824 4.1043 0
M  V30 14018 H 1309.19 -4.57406 5.01953 0
M  V30 14019 H 1307.14 -5.77011 3.12081 0
M  V30 14020 H 1307.06 -5.79777 4.85175 0
M  V30 14021 H 1308.32 -6.66653 4.03972 0
M  V30 14022 N 1312.55 -1.36459 -0.788468 0
M  V30 14023 C 1313.48 -1.33545 -1.91541 0
M  V30 14024 C 1314.46 -0.206762 -1.68839 0
M  V30 14025 O 1315.65 -0.404553 -1.89939 0
M  V30 14026 C 1312.78 -1.12492 -3.28577 0
M  V30 14027 C 1311.73 -2.22196 -3.65805 0
M  V30 14028 C 1311.06 -1.86285 -5.01201 0
M  V30 14029 C 1312.36 -3.64286 -3.7429 0
M  V30 14030 H 1314.05 -2.27844 -1.94236 0
M  V30 14031 H 1311.6 -1.09677 -0.933105 0
M  V30 14032 H 1313.55 -1.09089 -4.07035 0
M  V30 14033 H 1312.28 -0.146446 -3.26272 0
M  V30 14034 H 1310.93 -2.24727 -2.89644 0
M  V30 14035 H 1310.58 -0.87009 -4.95417 0
M  V30 14036 H 1310.28 -2.59734 -5.27079 0
M  V30 14037 H 1311.81 -1.84439 -5.82078 0
M  V30 14038 H 1313.22 -3.63977 -4.42937 0
M  V30 14039 H 1311.62 -4.36648 -4.11653 0
M  V30 14040 H 1312.69 -3.99123 -2.75371 0
M  V30 14041 N 1314.03 1.01274 -1.20754 0
M  V30 14042 C 1314.96 2.11763 -0.983805 0
M  V30 14043 C 1315.94 1.69869 0.0885635 0
M  V30 14044 O 1317.13 1.94075 -0.0697239 0
M  V30 14045 C 1314.26 3.43087 -0.539287 0
M  V30 14046 C 1313.21 3.9874 -1.55534 0
M  V30 14047 C 1312.54 5.25877 -0.967322 0
M  V30 14048 C 1313.84 4.31688 -2.94012 0
M  V30 14049 H 1315.53 2.30737 -1.90789 0
M  V30 14050 H 1313.08 1.10884 -0.918734 0
M  V30 14051 H 1315.03 4.19773 -0.369979 0
M  V30 14052 H 1313.75 3.23883 0.420435 0
M  V30 14053 H 1312.41 3.24166 -1.71207 0
M  V30 14054 H 1312.06 5.03 0.000448307 0
M  V30 14055 H 1311.76 5.64077 -1.64594 0
M  V30 14056 H 1313.28 6.05215 -0.809167 0
M  V30 14057 H 1314.7 4.99246 -2.81827 0
M  V30 14058 H 1313.1 4.81011 -3.58815 0
M  V30 14059 H 1314.17 3.4029 -3.45442 0
M  V30 14060 N 1315.51 1.01404 1.20644 0
M  V30 14061 C 1316.74 0.72104 1.93929 0
M  V30 14062 C 1317.15 -0.717853 1.7462 0
M  V30 14063 O 1316.51 -1.48664 1.05855 0
M  V30 14064 C 1316.56 1.04399 3.46097 0
M  V30 14065 O 1316.28 2.42637 3.64773 0
M  V30 14066 C 1317.78 0.771678 4.36532 0
M  V30 14067 H 1315 0.264983 0.616462 0
M  V30 14068 H 1317.55 1.35453 1.53208 0
M  V30 14069 H 1315.7 0.455946 3.84708 0
M  V30 14070 H 1316.12 2.54201 4.58783 0
M  V30 14071 H 1317.59 1.04774 5.41965 0
M  V30 14072 H 1318.07 -0.294188 4.38214 0
M  V30 14073 H 1318.67 1.34176 4.0358 0
M  V30 14074 N 1316.99 -1.36373 0.789944 0
M  V30 14075 C 1317.92 -2.27803 0.134613 0
M  V30 14076 C 1318.9 -1.47252 -0.689599 0
M  V30 14077 O 1320.08 -1.76551 -0.660466 0
M  V30 14078 C 1317.21 -3.28751 -0.814888 0
M  V30 14079 C 1316.26 -4.26439 -0.0724012 0
M  V30 14080 S 1317.09 -5.20654 1.2522 0
M  V30 14081 C 1318.24 -6.25148 0.306715 0
M  V30 14082 H 1318.48 -2.83036 0.909837 0
M  V30 14083 H 1316.01 -1.42922 0.584187 0
M  V30 14084 H 1317.97 -3.87413 -1.35726 0
M  V30 14085 H 1316.63 -2.72429 -1.56336 0
M  V30 14086 H 1315.82 -4.97724 -0.792894 0
M  V30 14087 H 1315.42 -3.7186 0.399504 0
M  V30 14088 H 1317.72 -6.75546 -0.514246 0
M  V30 14089 H 1318.66 -7.0117 0.98827 0
M  V30 14090 H 1319.07 -5.64428 -0.0901834 0
M  V30 14091 N 1318.47 -0.542005 -1.47987 0
M  V30 14092 C 1319.71 -0.0122873 -2.02096 0
M  V30 14093 C 1320.03 1.3362 -1.42024 0
M  V30 14094 O 1319.3 1.86807 -0.589911 0
M  V30 14095 H 1317.88 -0.00155365 -0.746998 0
M  V30 14096 H 1320.55 -0.708566 -1.81564 0
M  V30 14097 H 1319.64 0.0871275 -3.11978 0
M  V30 14098 N 1319.94 1.55134 -0.277709 0
M  V30 14099 C 1321.17 2.04519 0.344472 0
M  V30 14100 C 1321.59 1.15466 1.4849 0
M  V30 14101 O 1320.95 0.153798 1.80646 0
M  V30 14102 C 1321 3.51602 0.800527 0
M  V30 14103 O 1320.1 3.65632 1.90754 0
M  V30 14104 H 1319.44 0.660212 0.0708226 0
M  V30 14105 H 1321.97 2.00393 -0.412764 0
M  V30 14106 H 1321.98 3.93015 1.09559 0
M  V30 14107 H 1320.66 4.15886 -0.033838 0
M  V30 14108 H 1319.24 3.36122 1.61481 0
M  V30 14109 N 1321.42 0.00503138 1.57599 0
M  V30 14110 C 1322.67 -0.678761 1.90785 0
M  V30 14111 C 1323 -1.73499 0.87911 0
M  V30 14112 O 1322.25 -1.95359 -0.115418 0
M  V30 14113 C 1322.55 -1.35485 3.30724 0
M  V30 14114 C 1322.22 -0.431335 4.48832 0
M  V30 14115 C 1320.88 -0.177078 4.80874 0
M  V30 14116 C 1323.23 0.204219 5.208 0
M  V30 14117 C 1320.56 0.720944 5.82254 0
M  V30 14118 C 1322.91 1.09015 6.23136 0
M  V30 14119 C 1321.57 1.35353 6.53633 0
M  V30 14120 H 1320.84 -0.248376 0.698133 0
M  V30 14121 H 1323.49 0.061638 1.91401 0
M  V30 14122 H 1321.8 -2.16942 3.26257 0
M  V30 14123 H 1323.49 -1.89007 3.53663 0
M  V30 14124 H 1320.08 -0.639676 4.238 0
M  V30 14125 H 1324.27 0.0208074 4.96296 0
M  V30 14126 H 1319.52 0.93296 6.0424 0
M  V30 14127 H 1323.7 1.58894 6.78031 0
M  V30 14128 H 1321.32 2.05107 7.32008 0
M  V30 14129 N 1322.9 -1.55308 -0.267798 0
M  V30 14130 C 1323.85 -1.88544 -1.33115 0
M  V30 14131 C 1324.82 -0.737465 -1.48831 0
M  V30 14132 O 1326 -0.989215 -1.63154 0
M  V30 14133 C 1323.14 -2.1674 -2.68547 0
M  V30 14134 C 1322.25 -3.44234 -2.61011 0
M  V30 14135 C 1321.39 -3.62104 -3.88657 0
M  V30 14136 C 1320.43 -4.83272 -3.75652 0
M  V30 14137 N 1319.57 -4.97772 -4.95144 0
M  V30 14138 H 1324.41 -2.79237 -1.04071 0
M  V30 14139 H 1321.94 -1.38245 -0.502677 0
M  V30 14140 H 1323.9 -2.31088 -3.47353 0
M  V30 14141 H 1322.53 -1.29276 -2.95783 0
M  V30 14142 H 1321.58 -3.3833 -1.73887 0
M  V30 14143 H 1322.89 -4.33177 -2.47303 0
M  V30 14144 H 1322.05 -3.76298 -4.75904 0
M  V30 14145 H 1320.79 -2.71356 -4.05238 0
M  V30 14146 H 1319.79 -4.69076 -2.86788 0
M  V30 14147 H 1321.02 -5.75461 -3.60585 0
M  V30 14148 H 1318.96 -4.09956 -5.12125 0
M  V30 14149 H 1318.88 -5.80769 -4.83987 0
M  V30 14150 H 1320.15 -5.16357 -5.83949 0
M  V30 14151 N 1324.38 0.532545 -1.4833 0
M  V30 14152 C 1325.79 0.860843 -1.34394 0
M  V30 14153 C 1325.99 1.98384 -0.353013 0
M  V30 14154 O 1325.05 2.5148 0.226688 0
M  V30 14155 C 1326.36 1.23079 -2.74358 0
M  V30 14156 C 1327.91 1.34082 -2.82827 0
M  V30 14157 C 1328.39 1.74421 -4.23487 0
M  V30 14158 N 1329.88 1.81528 -4.26148 0
M  V30 14159 C 1330.61 2.1412 -5.31921 0
M  V30 14160 N 1330.11 2.45154 -6.47975 0
M  V30 14161 N 1331.9 2.15104 -5.19314 0
M  V30 14162 H 1324.05 -0.208464 -2.11375 0
M  V30 14163 H 1326.31 -0.03062 -0.947505 0
M  V30 14164 H 1326.02 0.47926 -3.48419 0
M  V30 14165 H 1325.89 2.18151 -3.07718 0
M  V30 14166 H 1328.28 2.08311 -2.09022 0
M  V30 14167 H 1328.36 0.37137 -2.5309 0
M  V30 14168 H 1328.01 1.00752 -4.97807 0
M  V30 14169 H 1327.94 2.72411 -4.50666 0
M  V30 14170 H 1330.43 1.59832 -3.42436 0
M  V30 14171 H 1330.74 2.69121 -7.24426 0
M  V30 14172 H 1329.09 2.42679 -6.51254 0
M  V30 14173 H 1332.28 1.90315 -4.27666 0
M  V30 14174 H 1332.45 2.40173 -6.01848 0
M  V30 14175 N 1325.86 1.36875 0.78122 0
M  V30 14176 C 1327.1 1.30886 1.53466 0
M  V30 14177 C 1327.42 -0.107218 1.95306 0
M  V30 14178 O 1328.62 -0.289525 2.69952 0
M  V30 14179 C 1327.08 2.29688 2.77076 0
M  V30 14180 C 1326.69 3.76775 2.42373 0
M  V30 14181 C 1328.43 2.32692 3.55042 0
M  V30 14182 C 1326.34 4.67332 3.62428 0
M  V30 14183 H 1325.27 0.486408 0.576128 0
M  V30 14184 H 1327.92 1.62283 0.856529 0
M  V30 14185 H 1326.3 1.91296 3.4673 0
M  V30 14186 H 1327.48 4.2395 1.80563 0
M  V30 14187 H 1325.79 3.76625 1.77602 0
M  V30 14188 H 1328.39 2.97556 4.44257 0
M  V30 14189 H 1328.73 1.33779 3.94219 0
M  V30 14190 H 1329.26 2.69743 2.92375 0
M  V30 14191 H 1326 5.67339 3.2834 0
M  V30 14192 H 1325.52 4.24868 4.23376 0
M  V30 14193 H 1327.2 4.84005 4.29358 0
M  V30 14194 N 1327.33 -1.00632 1.21289 0
M  V30 14195 C 1328.56 -1.77967 1.05524 0
M  V30 14196 C 1328.98 -1.84621 -0.395023 0
M  V30 14197 O 1328.33 -1.30664 -1.27409 0
M  V30 14198 C 1328.38 -3.21939 1.64432 0
M  V30 14199 O 1328.11 -3.15669 3.03784 0
M  V30 14200 C 1329.61 -4.1578 1.5376 0
M  V30 14201 H 1326.83 -0.559341 0.370646 0
M  V30 14202 H 1329.37 -1.26604 1.60598 0
M  V30 14203 H 1327.53 -3.70415 1.13453 0
M  V30 14204 H 1327.94 -4.06112 3.31924 0
M  V30 14205 H 1329.41 -5.14602 1.99722 0
M  V30 14206 H 1329.89 -4.36438 0.491811 0
M  V30 14207 H 1330.5 -3.73192 2.0398 0
M  V30 14208 N 1328.81 -1.02043 -1.20104 0
M  V30 14209 C 1329.74 -0.614421 -2.25271 0
M  V30 14210 C 1330.72 0.37242 -1.65973 0
M  V30 14211 O 1331.91 0.257005 -1.92492 0
M  V30 14212 C 1329.04 0.0442085 -3.47272 0
M  V30 14213 C 1327.99 -0.864019 -4.19188 0
M  V30 14214 C 1327.32 -0.0709551 -5.34653 0
M  V30 14215 C 1328.62 -2.17385 -4.74912 0
M  V30 14216 H 1330.31 -1.49355 -2.59487 0
M  V30 14217 H 1327.86 -0.719591 -1.24731 0
M  V30 14218 H 1329.81 0.339825 -4.20028 0
M  V30 14219 H 1328.53 0.958082 -3.12231 0
M  V30 14220 H 1327.19 -1.1437 -3.48303 0
M  V30 14221 H 1326.84 0.844688 -4.95857 0
M  V30 14222 H 1326.54 -0.67583 -5.83701 0
M  V30 14223 H 1328.07 0.218118 -6.1021 0
M  V30 14224 H 1329.48 -1.94034 -5.39466 0
M  V30 14225 H 1327.88 -2.72991 -5.34412 0
M  V30 14226 H 1328.95 -2.83427 -3.93443 0
M  V30 14227 N 1330.29 1.35952 -0.797165 0
M  V30 14228 C 1331.52 2.02986 -0.384758 0
M  V30 14229 C 1331.93 1.60233 1.00608 0
M  V30 14230 O 1331.27 0.790955 1.658 0
M  V30 14231 C 1331.33 3.57508 -0.37795 0
M  V30 14232 C 1331 4.23491 -1.71769 0
M  V30 14233 C 1331.99 4.45835 -2.67445 0
M  V30 14234 C 1329.68 4.60804 -1.99911 0
M  V30 14235 C 1331.67 5.04584 -3.89453 0
M  V30 14236 C 1329.36 5.19269 -3.22185 0
M  V30 14237 C 1330.36 5.41099 -4.16774 0
M  V30 14238 O 1330.05 5.98334 -5.36891 0
M  V30 14239 H 1329.78 0.657838 -0.155644 0
M  V30 14240 H 1332.33 1.7475 -1.07942 0
M  V30 14241 H 1330.56 3.84894 0.373253 0
M  V30 14242 H 1332.25 4.05899 0.0108505 0
M  V30 14243 H 1333.02 4.17397 -2.46992 0
M  V30 14244 H 1328.9 4.43132 -1.27102 0
M  V30 14245 H 1332.44 5.21539 -4.63296 0
M  V30 14246 H 1328.34 5.47134 -3.42512 0
M  V30 14247 H 1329.11 6.16794 -5.38059 0
M  V30 14248 N 1331.77 0.549846 1.47697 0
M  V30 14249 C 1333.05 -0.0422793 1.95554 0
M  V30 14250 C 1333.43 -1.49303 1.49238 0
M  V30 14251 O 1332.77 -2.16598 0.727844 0
M  V30 14252 C 1332.98 0.0955552 3.48869 0
M  V30 14253 C 1334.33 -0.0535698 4.24566 0
M  V30 14254 O 1335.36 0.0227365 3.56193 0
M  V30 14255 O 1334.21 -0.21645 5.46071 0
M  V30 14256 H 1331.31 -0.0682465 0.824179 0
M  V30 14257 H 1333.85 0.615849 1.58131 0
M  V30 14258 H 1332.63 1.10536 3.75363 0
M  V30 14259 H 1332.25 -0.600522 3.93039 0
M  V30 14260 N 1333.25 -1.54984 0.285932 0
M  V30 14261 C 1334.48 -2.03943 -0.330295 0
M  V30 14262 C 1334.88 -1.16336 -1.49207 0
M  V30 14263 O 1334.23 -0.178341 -1.82832 0
M  V30 14264 C 1334.29 -3.48976 -0.863479 0
M  V30 14265 C 1333.95 -4.5668 0.171058 0
M  V30 14266 C 1334.95 -5.10303 0.994329 0
M  V30 14267 C 1332.64 -5.01352 0.308416 0
M  V30 14268 C 1334.63 -6.07126 1.94104 0
M  V30 14269 C 1332.32 -5.97999 1.25859 0
M  V30 14270 C 1333.31 -6.50768 2.0734 0
M  V30 14271 O 1333 -7.45524 3.00749 0
M  V30 14272 H 1332.73 -0.671491 -0.0779452 0
M  V30 14273 H 1335.29 -2.01081 0.419011 0
M  V30 14274 H 1333.52 -3.49113 -1.66305 0
M  V30 14275 H 1335.21 -3.81213 -1.39396 0
M  V30 14276 H 1335.97 -4.76595 0.899002 0
M  V30 14277 H 1331.85 -4.59917 -0.315817 0
M  V30 14278 H 1335.4 -6.48239 2.57743 0
M  V30 14279 H 1331.29 -6.31125 1.35469 0
M  V30 14280 H 1332.06 -7.63276 2.95554 0
M  V30 14281 N 1334.72 -0.0133892 -1.57594 0
M  V30 14282 C 1335.66 1.00211 -2.06132 0
M  V30 14283 C 1336.67 1.29869 -0.98173 0
M  V30 14284 O 1337.86 1.2661 -1.25826 0
M  V30 14285 C 1334.96 2.33354 -2.45763 0
M  V30 14286 C 1334.13 2.22441 -3.76615 0
M  V30 14287 C 1333.19 3.38385 -4.02967 0
M  V30 14288 O 1332.22 3.15973 -4.73445 0
M  V30 14289 N 1333.42 4.61672 -3.51908 0
M  V30 14290 H 1336.18 0.588079 -2.93874 0
M  V30 14291 H 1333.74 0.173714 -1.60965 0
M  V30 14292 H 1335.74 3.09716 -2.60496 0
M  V30 14293 H 1334.31 2.66451 -1.6347 0
M  V30 14294 H 1333.53 1.30905 -3.7183 0
M  V30 14295 H 1334.81 2.12337 -4.62375 0
M  V30 14296 H 1334.21 4.82777 -2.9486 0
M  V30 14297 H 1332.77 5.35256 -3.71947 0
M  V30 14298 N 1336.2 1.55448 0.259558 0
M  V30 14299 C 1337.17 1.88459 1.30445 0
M  V30 14300 C 1338.17 0.760096 1.41701 0
M  V30 14301 O 1339.36 1.02819 1.4062 0
M  V30 14302 C 1336.49 2.10181 2.68397 0
M  V30 14303 H 1337.68 2.81877 1.02398 0
M  V30 14304 H 1335.23 1.48145 0.498262 0
M  V30 14305 H 1335.97 1.19189 3.01603 0
M  V30 14306 H 1335.75 2.92066 2.6161 0
M  V30 14307 H 1337.24 2.36947 3.43869 0
M  V30 14308 N 1337.68 -0.524672 1.4861 0
M  V30 14309 C 1338.61 -1.64555 1.58104 0
M  V30 14310 C 1339.59 -1.56778 0.431205 0
M  V30 14311 O 1340.78 -1.77175 0.643537 0
M  V30 14312 C 1337.9 -3.02979 1.51398 0
M  V30 14313 C 1336.95 -3.29098 2.71287 0
M  V30 14314 S 1337.78 -3.14791 4.33206 0
M  V30 14315 C 1338.94 -4.55652 4.29107 0
M  V30 14316 H 1339.17 -1.56254 2.52927 0
M  V30 14317 H 1336.7 -0.708041 1.37208 0
M  V30 14318 H 1338.66 -3.82809 1.48215 0
M  V30 14319 H 1337.32 -3.08717 0.579026 0
M  V30 14320 H 1336.52 -4.30092 2.62749 0
M  V30 14321 H 1336.12 -2.56949 2.7176 0
M  V30 14322 H 1338.41 -5.47277 3.99367 0
M  V30 14323 H 1339.35 -4.69244 5.30298 0
M  V30 14324 H 1339.76 -4.35223 3.59501 0
M  V30 14325 N 1339.16 -1.37287 -0.77395 0
M  V30 14326 C 1340.4 -1.33771 -1.54547 0
M  V30 14327 C 1340.76 0.0778134 -1.91842 0
M  V30 14328 O 1341.96 0.237682 -2.67747 0
M  V30 14329 C 1340.23 -2.24859 -2.77801 0
M  V30 14330 S 1341.79 -2.39172 -3.67889 0
M  V30 14331 H 1338.61 -0.474918 -0.529126 0
M  V30 14332 H 1341.21 -1.73015 -0.910287 0
M  V30 14333 H 1339.92 -3.2663 -2.48478 0
M  V30 14334 H 1339.45 -1.86691 -3.4628 0
M  V30 14335 H 1341.46 -1.60068 -4.69673 0
M  V30 14336 N 1340.64 0.999871 -1.21821 0
M  V30 14337 C 1342.05 1.26228 -0.976664 0
M  V30 14338 C 1342.25 1.98714 0.333915 0
M  V30 14339 O 1341.31 2.29252 1.05829 0
M  V30 14340 C 1342.62 2.08089 -2.1707 0
M  V30 14341 C 1344.17 2.21298 -2.21351 0
M  V30 14342 C 1344.64 3.06544 -3.40287 0
M  V30 14343 N 1346.14 3.14131 -3.40405 0
M  V30 14344 C 1346.87 3.80362 -4.29083 0
M  V30 14345 N 1346.37 4.48577 -5.27968 0
M  V30 14346 N 1348.16 3.77053 -4.16878 0
M  V30 14347 H 1340.31 0.513704 -2.06094 0
M  V30 14348 H 1342.57 0.289447 -0.902732 0
M  V30 14349 H 1342.28 1.62183 -3.12073 0
M  V30 14350 H 1342.15 3.08843 -2.16554 0
M  V30 14351 H 1344.54 2.66422 -1.269 0
M  V30 14352 H 1344.62 1.19997 -2.25908 0
M  V30 14353 H 1344.27 2.62122 -4.35034 0
M  V30 14354 H 1344.2 4.0797 -3.32969 0
M  V30 14355 H 1346.69 2.65576 -2.68846 0
M  V30 14356 H 1347 4.96833 -5.91926 0
M  V30 14357 H 1345.34 4.47348 -5.31888 0
M  V30 14358 H 1348.54 3.22918 -3.38883 0
M  V30 14359 H 1348.71 4.2839 -4.86195 0
M  V30 14360 N 1342.11 1.02678 1.19562 0
M  V30 14361 C 1343.08 0.610407 2.20922 0
M  V30 14362 C 1344.08 -0.324858 1.57484 0
M  V30 14363 O 1345.27 -0.112153 1.73839 0
M  V30 14364 C 1342.4 -0.107115 3.40732 0
M  V30 14365 H 1343.59 1.50722 2.59274 0
M  V30 14366 H 1341.15 0.817725 1.33203 0
M  V30 14367 H 1341.88 -1.01837 3.07896 0
M  V30 14368 H 1341.67 0.564901 3.88009 0
M  V30 14369 H 1343.16 -0.385423 4.15818 0
M  V30 14370 N 1343.59 -1.35528 0.804364 0
M  V30 14371 C 1344.54 -2.31728 0.20125 0
M  V30 14372 C 1345.53 -1.56527 -0.647751 0
M  V30 14373 O 1346.74 -1.71672 -0.541163 0
M  V30 14374 H 1343.12 -0.750572 0.0463165 0
M  V30 14375 H 1345.09 -2.80142 1.02777 0
M  V30 14376 C 1343.84 -3.41807 -0.637429 0
M  V30 14377 H 1343.16 -3.99799 0.00651699 0
M  V30 14378 H 1344.6 -4.11403 -1.02585 0
M  V30 14379 C 1343.06 -2.84655 -1.80202 0
M  V30 14380 O 1343.59 -2.78026 -2.89939 0
M  V30 14381 N 1341.79 -2.41735 -1.61285 0
M  V30 14382 H 1341.34 -2.47327 -0.720231 0
M  V30 14383 H 1341.3 -2.03844 -2.39364 0
M  V30 14384 N 1345.07 -0.557671 -1.47404 0
M  V30 14385 C 1346.02 0.189765 -2.30019 0
M  V30 14386 C 1346.99 0.907923 -1.3909 0
M  V30 14387 O 1348.17 0.903528 -1.68051 0
M  V30 14388 C 1345.31 1.21348 -3.23061 0
M  V30 14389 C 1344.43 0.501343 -4.29081 0
M  V30 14390 C 1343.56 1.51039 -5.09275 0
M  V30 14391 C 1342.6 0.783254 -6.07068 0
M  V30 14392 N 1341.74 1.73916 -6.80219 0
M  V30 14393 H 1346.58 -0.520856 -2.93413 0
M  V30 14394 H 1344.11 -0.268686 -1.44625 0
M  V30 14395 H 1346.07 1.81961 -3.75428 0
M  V30 14396 H 1344.7 1.89213 -2.61531 0
M  V30 14397 H 1343.75 -0.219317 -3.79767 0
M  V30 14398 H 1345.07 -0.0682656 -4.98753 0
M  V30 14399 H 1344.22 2.19004 -5.65793 0
M  V30 14400 H 1342.96 2.11392 -4.39505 0
M  V30 14401 H 1341.96 0.0896883 -5.49727 0
M  V30 14402 H 1343.19 0.185464 -6.78847 0
M  V30 14403 H 1341.14 2.33125 -6.13179 0
M  V30 14404 H 1341.05 1.22171 -7.46063 0
M  V30 14405 H 1342.32 2.40993 -7.41311 0
M  V30 14406 N 1346.55 1.54831 -0.294147 0
M  V30 14407 C 1347.46 2.26939 0.594621 0
M  V30 14408 C 1348.48 1.30209 1.15419 0
M  V30 14409 O 1349.65 1.6318 1.18044 0
M  V30 14410 C 1346.72 2.9909 1.75345 0
M  V30 14411 C 1345.78 4.11342 1.22865 0
M  V30 14412 C 1345.01 4.80043 2.33225 0
M  V30 14413 O 1345.23 4.48062 3.52983 0
M  V30 14414 O 1344.17 5.67593 2.00304 0
M  V30 14415 H 1347.99 3.03698 0.00989235 0
M  V30 14416 H 1345.58 1.49276 -0.0608528 0
M  V30 14417 H 1347.46 3.44369 2.42875 0
M  V30 14418 H 1346.14 2.25232 2.32492 0
M  V30 14419 H 1345.04 3.70478 0.519279 0
M  V30 14420 H 1346.38 4.87158 0.702703 0
M  V30 14421 N 1348.03 0.0217466 1.57585 0
M  V30 14422 C 1349.25 -0.67246 1.96196 0
M  V30 14423 C 1349.68 -1.6529 0.897827 0
M  V30 14424 O 1349.04 -1.80743 -0.142002 0
M  V30 14425 C 1349.08 -1.36162 3.33905 0
M  V30 14426 O 1348.19 -2.47671 3.29747 0
M  V30 14427 H 1347.53 -0.177238 0.639908 0
M  V30 14428 H 1350.06 0.0814073 2.04438 0
M  V30 14429 H 1350.07 -1.7201 3.69968 0
M  V30 14430 H 1348.74 -0.642893 4.10901 0
M  V30 14431 H 1347.32 -2.13989 3.0539 0
M  V30 14432 N 1349.51 -1.55583 -0.251311 0
M  V30 14433 C 1350.73 -1.81597 -1.00186 0
M  V30 14434 C 1351.16 -0.598216 -1.78334 0
M  V30 14435 O 1350.51 0.452667 -1.75558 0
M  V30 14436 C 1350.56 -3.05301 -1.91895 0
M  V30 14437 O 1349.67 -2.81907 -3.01002 0
M  V30 14438 H 1349.01 -0.599578 -0.285311 0
M  V30 14439 H 1351.54 -2.02762 -0.273638 0
M  V30 14440 H 1351.55 -3.34616 -2.33444 0
M  V30 14441 H 1350.22 -3.93574 -1.34433 0
M  V30 14442 H 1348.8 -2.63747 -2.63613 0
M  V30 14443 N 1350.98 0.516783 -1.48886 0
M  V30 14444 C 1352.26 1.27808 -1.48069 0
M  V30 14445 C 1352.64 2.10154 -0.19963 0
M  V30 14446 O 1351.99 2.13342 0.818386 0
M  V30 14447 C 1352.2 2.14828 -2.75045 0
M  V30 14448 C 1353.55 2.74536 -3.23906 0
M  V30 14449 O 1354.57 2.25107 -2.76053 0
M  V30 14450 O 1353.43 3.6448 -4.07206 0
M  V30 14451 H 1350.52 0.577535 -0.591931 0
M  V30 14452 H 1353.07 0.532351 -1.61134 0
M  V30 14453 H 1351.84 1.53852 -3.59785 0
M  V30 14454 H 1351.46 2.96624 -2.64764 0
M  V30 14455 N 1352.46 1.37696 0.766659 0
M  V30 14456 C 1353.71 1.32922 1.52237 0
M  V30 14457 C 1354.03 -0.0842833 1.94818 0
M  V30 14458 O 1353.3 -1.02934 1.66677 0
M  V30 14459 H 1351.88 0.489049 0.564659 0
M  V30 14460 H 1354.54 1.72238 0.912142 0
M  V30 14461 H 1353.64 1.97158 2.4194 0
M  V30 14462 N 1353.94 -0.993397 1.22349 0
M  V30 14463 C 1354.9 -2.065 0.994506 0
M  V30 14464 C 1355.9 -1.60753 -0.0388766 0
M  V30 14465 O 1357.09 -1.73053 0.199578 0
M  V30 14466 C 1354.22 -3.37182 0.502088 0
M  V30 14467 H 1355.42 -2.28248 1.94533 0
M  V30 14468 H 1352.97 -1.16489 1.04211 0
M  V30 14469 H 1353.71 -3.21119 -0.453114 0
M  V30 14470 H 1353.49 -3.71721 1.24763 0
M  V30 14471 H 1354.98 -4.16027 0.362108 0
M  V30 14472 N 1355.42 -1.03311 -1.19015 0
M  V30 14473 C 1356.37 -0.588076 -2.20285 0
M  V30 14474 C 1357.35 0.365442 -1.56695 0
M  V30 14475 O 1358.54 0.185725 -1.76023 0
M  V30 14476 C 1355.67 0.0553478 -3.43255 0
M  V30 14477 C 1354.76 -0.920863 -4.13982 0
M  V30 14478 N 1355.15 -2.08495 -4.60829 0
M  V30 14479 C 1353.45 -0.74522 -4.3973 0
M  V30 14480 C 1354.15 -2.701 -5.1519 0
M  V30 14481 N 1353.12 -1.98031 -5.06246 0
M  V30 14482 H 1356.93 -1.47529 -2.54189 0
M  V30 14483 H 1354.44 -0.900663 -1.35136 0
M  V30 14484 H 1356.44 0.39182 -4.15055 0
M  V30 14485 H 1355.1 0.938199 -3.1085 0
M  V30 14486 H 1356.11 -2.46418 -4.5552 0
M  V30 14487 H 1352.79 0.088182 -4.17407 0
M  V30 14488 H 1354.18 -3.6871 -5.61696 0
M  V30 14489 N 1356.9 1.35099 -0.81154 0
M  V30 14490 C 1358.14 1.98233 -0.393453 0
M  V30 14491 C 1358.46 1.64688 1.04417 0
M  V30 14492 O 1357.73 0.931845 1.72318 0
M  V30 14493 H 1356.31 0.733283 -0.142496 0
M  V30 14494 H 1358.98 1.6493 -1.03847 0
M  V30 14495 H 1358.07 3.08017 -0.503188 0
M  V30 14496 N 1358.37 0.56548 1.47106 0
M  V30 14497 C 1359.3 -0.16567 2.32912 0
M  V30 14498 C 1360.28 -0.900678 1.44298 0
M  V30 14499 O 1361.47 -0.879523 1.73142 0
M  V30 14500 C 1358.6 -1.19092 3.26243 0
M  V30 14501 C 1357.55 -0.571849 4.24163 0
M  V30 14502 C 1356.88 -1.70233 5.06878 0
M  V30 14503 C 1358.18 0.479785 5.20092 0
M  V30 14504 H 1359.87 0.550705 2.94292 0
M  V30 14505 H 1357.42 0.266284 1.41517 0
M  V30 14506 H 1359.37 -1.71064 3.85117 0
M  V30 14507 H 1358.1 -1.93734 2.62934 0
M  V30 14508 H 1356.76 -0.073353 3.66527 0
M  V30 14509 H 1356.4 -2.438 4.39967 0
M  V30 14510 H 1356.1 -1.29384 5.73178 0
M  V30 14511 H 1357.63 -2.22515 5.68612 0
M  V30 14512 H 1359.04 0.0458042 5.73282 0
M  V30 14513 H 1357.44 0.807615 5.94641 0
M  V30 14514 H 1358.51 1.37259 4.65068 0
M  V30 14515 N 1359.85 -1.54672 0.302354 0
M  V30 14516 C 1360.78 -2.2653 -0.566265 0
M  V30 14517 C 1361.76 -1.26532 -1.13682 0
M  V30 14518 O 1362.95 -1.55307 -1.1659 0
M  V30 14519 C 1360.08 -3.00709 -1.73757 0
M  V30 14520 C 1359.03 -4.07865 -1.29731 0
M  V30 14521 C 1358.36 -4.69767 -2.55388 0
M  V30 14522 C 1359.66 -5.20547 -0.427567 0
M  V30 14523 H 1361.35 -2.99382 0.033071 0
M  V30 14524 H 1358.9 -1.4399 0.0173458 0
M  V30 14525 H 1360.85 -3.497 -2.35134 0
M  V30 14526 H 1359.58 -2.25437 -2.36317 0
M  V30 14527 H 1358.23 -3.59726 -0.706586 0
M  V30 14528 H 1357.88 -3.91134 -3.16265 0
M  V30 14529 H 1357.58 -5.42137 -2.26631 0
M  V30 14530 H 1359.11 -5.21521 -3.17566 0
M  V30 14531 H 1360.52 -5.65424 -0.947053 0
M  V30 14532 H 1358.92 -5.99645 -0.233704 0
M  V30 14533 H 1359.99 -4.81805 0.546993 0
M  V30 14534 N 1361.33 -0.0301034 -1.57571 0
M  V30 14535 C 1362.61 0.68703 -1.83137 0
M  V30 14536 C 1362.99 1.90277 -0.914216 0
M  V30 14537 O 1362.34 2.2848 0.0299358 0
M  V30 14538 C 1362.55 1.06431 -3.32375 0
M  V30 14539 C 1363.89 1.45554 -3.98873 0
M  V30 14540 O 1364.92 1.15727 -3.36877 0
M  V30 14541 O 1363.78 2.01133 -5.08142 0
M  V30 14542 H 1360.87 0.337141 -0.755159 0
M  V30 14543 H 1363.42 -0.0578604 -1.69601 0
M  V30 14544 H 1362.19 0.199077 -3.90793 0
M  V30 14545 H 1361.81 1.86734 -3.51022 0
M  V30 14546 N 1362.81 1.55714 0.243056 0
M  V30 14547 C 1364.22 1.68126 0.811814 0
M  V30 14548 C 1364.57 0.628259 1.85869 0
M  V30 14549 O 1363.7 -0.224747 2.1523 0
M  V30 14550 C 1364.29 3.048 1.47928 0
M  V30 14551 C 1362.85 3.19138 1.99569 0
M  V30 14552 C 1362 2.64011 0.848149 0
M  V30 14553 H 1364.95 1.58689 0.0187918 0
M  V30 14554 H 1364.97 2.99459 2.34743 0
M  V30 14555 H 1364.48 3.81417 0.717106 0
M  V30 14556 H 1362.58 2.4735 2.78655 0
M  V30 14557 H 1362.69 4.26095 2.19043 0
M  V30 14558 H 1361.06 2.21934 1.2497 0
M  V30 14559 H 1361.84 3.43157 0.0989987 0
M  V30 14560 N 1364.29 -0.50888 1.49158 0
M  V30 14561 C 1365.52 -1.28585 1.61708 0
M  V30 14562 C 1365.92 -1.87047 0.284629 0
M  V30 14563 O 1365.27 -1.68182 -0.738959 0
M  V30 14564 C 1365.33 -2.46043 2.62113 0
M  V30 14565 C 1364.99 -2.0851 4.0666 0
M  V30 14566 C 1365.99 -1.62943 4.93706 0
M  V30 14567 C 1363.68 -2.18386 4.52342 0
M  V30 14568 C 1365.67 -1.27747 6.24467 0
M  V30 14569 C 1363.36 -1.82801 5.83118 0
M  V30 14570 C 1364.35 -1.37555 6.69005 0
M  V30 14571 O 1364.04 -1.02447 7.97345 0
M  V30 14572 H 1363.77 -0.396504 0.547504 0
M  V30 14573 H 1366.33 -0.61834 1.95872 0
M  V30 14574 H 1364.56 -3.15844 2.23113 0
M  V30 14575 H 1366.25 -3.08081 2.64275 0
M  V30 14576 H 1367.01 -1.54766 4.59644 0
M  V30 14577 H 1362.89 -2.52556 3.85664 0
M  V30 14578 H 1366.44 -0.923589 6.91459 0
M  V30 14579 H 1362.33 -1.90626 6.16711 0
M  V30 14580 H 1363.1 -1.15663 8.10287 0
M  V30 14581 N 1365.76 -1.381 -0.759346 0
M  V30 14582 C 1366.71 -1.34972 -1.89434 0
M  V30 14583 C 1367.71 -0.236499 -1.67741 0
M  V30 14584 O 1368.91 -0.405218 -1.7538 0
M  V30 14585 H 1365.29 -0.420922 -0.62316 0
M  V30 14586 H 1367.26 -2.3076 -1.89189 0
M  V30 14587 C 1366.01 -1.18594 -3.2685 0
M  V30 14588 H 1365.33 -2.03514 -3.44125 0
M  V30 14589 H 1366.77 -1.20458 -4.06529 0
M  V30 14590 C 1365.23 0.107562 -3.36728 0
M  V30 14591 O 1365.76 1.08668 -3.86722 0
M  V30 14592 N 1363.97 0.162455 -2.90146 0
M  V30 14593 H 1363.51 -0.634985 -2.49651 0
M  V30 14594 H 1363.47 1.02751 -2.97136 0
M  V30 14595 N 1367.24 0.986894 -1.22875 0
M  V30 14596 C 1368.21 2.0597 -1.00544 0
M  V30 14597 C 1369.21 1.60771 0.0303509 0
M  V30 14598 O 1370.4 1.72945 -0.208753 0
M  V30 14599 C 1367.53 3.36911 -0.519962 0
M  V30 14600 H 1368.72 2.27213 -1.9574 0
M  V30 14601 H 1366.27 1.15935 -1.04827 0
M  V30 14602 H 1367.01 3.21355 0.436078 0
M  V30 14603 H 1366.79 3.71054 -1.26732 0
M  V30 14604 H 1368.28 4.15829 -0.384166 0
M  V30 14605 N 1368.72 1.0394 1.18466 0
M  V30 14606 C 1369.97 0.742042 1.88414 0
M  V30 14607 C 1370.3 -0.730138 1.80275 0
M  V30 14608 O 1369.55 -1.54844 1.19674 0
M  V30 14609 C 1369.85 1.15198 3.38326 0
M  V30 14610 C 1369.52 2.62422 3.66668 0
M  V30 14611 C 1368.18 3.02643 3.74113 0
M  V30 14612 C 1370.53 3.5762 3.79153 0
M  V30 14613 C 1367.86 4.36953 3.91522 0
M  V30 14614 C 1370.21 4.91647 3.98077 0
M  V30 14615 C 1368.87 5.31541 4.03758 0
M  V30 14616 H 1368.14 0.271532 0.689457 0
M  V30 14617 H 1370.79 1.30419 1.40225 0
M  V30 14618 H 1369.1 0.508607 3.88485 0
M  V30 14619 H 1370.79 0.899269 3.90787 0
M  V30 14620 H 1367.38 2.30268 3.61489 0
M  V30 14621 H 1371.57 3.27693 3.72735 0
M  V30 14622 H 1366.82 4.67382 3.94163 0
M  V30 14623 H 1371 5.65318 4.0668 0
M  V30 14624 H 1368.62 6.35622 4.16999 0
M  V30 14625 N 1370.2 -1.34667 0.818693 0
M  V30 14626 C 1371.13 -2.32134 0.252239 0
M  V30 14627 C 1372.11 -1.58044 -0.628982 0
M  V30 14628 O 1373.29 -1.86049 -0.55674 0
M  V30 14629 C 1370.42 -3.42249 -0.590183 0
M  V30 14630 C 1369.38 -4.27562 0.193547 0
M  V30 14631 C 1368.7 -5.29107 -0.771349 0
M  V30 14632 C 1370 -5.03205 1.39936 0
M  V30 14633 H 1371.7 -2.79758 1.06657 0
M  V30 14634 H 1369.24 -1.34502 0.514325 0
M  V30 14635 H 1371.2 -4.09445 -0.996616 0
M  V30 14636 H 1369.92 -2.93262 -1.43752 0
M  V30 14637 H 1368.58 -3.61962 0.581297 0
M  V30 14638 H 1368.23 -4.76384 -1.61453 0
M  V30 14639 H 1367.93 -5.87063 -0.251201 0
M  V30 14640 H 1369.45 -5.99174 -1.17573 0
M  V30 14641 H 1370.87 -5.6328 1.06717 0
M  V30 14642 H 1369.26 -5.70715 1.85485 0
M  V30 14643 H 1370.33 -4.33145 2.17976 0
M  V30 14644 N 1371.68 -0.573274 -1.46804 0
M  V30 14645 C 1372.9 -0.0586717 -2.07317 0
M  V30 14646 C 1373.33 1.2328 -1.42069 0
M  V30 14647 O 1372.68 1.74235 -0.501188 0
M  V30 14648 C 1372.73 0.103503 -3.60451 0
M  V30 14649 O 1371.84 1.16229 -3.95682 0
M  V30 14650 H 1371.18 -0.0585504 -0.661414 0
M  V30 14651 H 1373.71 -0.793532 -1.88585 0
M  V30 14652 H 1373.72 0.312658 -4.068 0
M  V30 14653 H 1372.39 -0.839684 -4.07335 0
M  V30 14654 H 1370.97 0.932347 -3.61056 0
M  V30 14655 N 1373.15 1.5451 -0.310553 0
M  V30 14656 C 1374.12 2.2254 0.548489 0
M  V30 14657 C 1375.12 1.21456 1.05381 0
M  V30 14658 O 1376.31 1.46126 0.948311 0
M  V30 14659 C 1373.44 2.91927 1.76043 0
M  V30 14660 H 1374.63 2.99865 -0.0460306 0
M  V30 14661 H 1372.19 1.56179 -0.061487 0
M  V30 14662 H 1372.92 2.18706 2.39454 0
M  V30 14663 H 1372.71 3.66038 1.40564 0
M  V30 14664 H 1374.2 3.43797 2.37051 0
M  V30 14665 N 1374.63 0.0384594 1.57553 0
M  V30 14666 C 1375.88 -0.639085 1.92467 0
M  V30 14667 C 1376.21 -1.71239 0.916014 0
M  V30 14668 O 1375.49 -1.94408 -0.0598928 0
M  V30 14669 C 1375.77 -1.24693 3.37822 0
M  V30 14670 C 1375.62 -0.182544 4.49429 0
M  V30 14671 C 1376.94 -2.16226 3.8332 0
M  V30 14672 H 1374.06 -0.230852 0.699912 0
M  V30 14673 H 1376.7 0.0976276 1.89749 0
M  V30 14674 H 1374.85 -1.87481 3.40269 0
M  V30 14675 H 1376.53 0.448622 4.59113 0
M  V30 14676 H 1374.77 0.4909 4.31013 0
M  V30 14677 H 1375.44 -0.647626 5.48188 0
M  V30 14678 H 1377.92 -1.63413 3.82669 0
M  V30 14679 H 1376.79 -2.55705 4.85702 0
M  V30 14680 H 1377.05 -3.05722 3.19353 0
M  V30 14681 N 1376.11 -1.55841 -0.234795 0
M  V30 14682 C 1377.06 -1.91326 -1.29086 0
M  V30 14683 C 1378.03 -0.768868 -1.47233 0
M  V30 14684 O 1379.21 -1.0236 -1.61019 0
M  V30 14685 C 1376.35 -2.22388 -2.6389 0
M  V30 14686 C 1375.47 -3.49693 -2.5365 0
M  V30 14687 C 1374.6 -3.70267 -3.80889 0
M  V30 14688 C 1373.64 -4.91132 -3.65317 0
M  V30 14689 N 1372.78 -5.08163 -4.84474 0
M  V30 14690 H 1377.62 -2.81382 -0.981246 0
M  V30 14691 H 1375.15 -1.3928 -0.47324 0
M  V30 14692 H 1377.11 -2.38404 -3.42373 0
M  V30 14693 H 1375.74 -1.35521 -2.92974 0
M  V30 14694 H 1374.79 -3.41943 -1.66672 0
M  V30 14695 H 1376.11 -4.38326 -2.38059 0
M  V30 14696 H 1375.26 -3.86308 -4.67815 0
M  V30 14697 H 1374 -2.7989 -3.9939 0
M  V30 14698 H 1373 -4.75054 -2.76774 0
M  V30 14699 H 1374.23 -5.8298 -3.48298 0
M  V30 14700 H 1372.18 -4.20726 -5.03314 0
M  V30 14701 H 1372.09 -5.90904 -4.71559 0
M  V30 14702 H 1373.36 -5.28627 -5.72865 0
M  V30 14703 N 1377.59 0.500963 -1.49426 0
M  V30 14704 C 1378.84 1.25427 -1.60124 0
M  V30 14705 C 1379.19 1.90288 -0.284312 0
M  V30 14706 O 1378.48 1.77741 0.715459 0
M  V30 14707 C 1378.68 2.34448 -2.69757 0
M  V30 14708 C 1378.51 1.80278 -4.11983 0
M  V30 14709 C 1377.28 1.61577 -4.7877 0
M  V30 14710 C 1379.47 1.31462 -4.97215 0
M  V30 14711 N 1377.46 1.02337 -6.0531 0
M  V30 14712 C 1378.83 0.843562 -6.14235 0
M  V30 14713 C 1380.88 1.20035 -4.83214 0
M  V30 14714 C 1379.59 0.269543 -7.18795 0
M  V30 14715 C 1381.61 0.640304 -5.87924 0
M  V30 14716 C 1380.97 0.179474 -7.04171 0
M  V30 14717 H 1377.07 0.448932 -0.6403 0
M  V30 14718 H 1379.66 0.561377 -1.86431 0
M  V30 14719 H 1377.83 3.01198 -2.45223 0
M  V30 14720 H 1379.56 3.01487 -2.69977 0
M  V30 14721 H 1376.31 1.85946 -4.3557 0
M  V30 14722 H 1376.74 0.746441 -6.72872 0
M  V30 14723 H 1381.38 1.54263 -3.93653 0
M  V30 14724 H 1379.1 -0.0849963 -8.08055 0
M  V30 14725 H 1382.68 0.554669 -5.7915 0
M  V30 14726 H 1381.56 -0.247125 -7.83811 0
M  V30 14727 N 1379.07 1.38501 0.752011 0
M  V30 14728 C 1380.32 1.34112 1.50655 0
M  V30 14729 C 1380.63 -0.0657661 1.95489 0
M  V30 14730 O 1381.84 -0.232199 2.70505 0
M  V30 14731 C 1380.29 2.35514 2.72142 0
M  V30 14732 C 1379.9 3.81831 2.34326 0
M  V30 14733 C 1381.64 2.40171 3.50026 0
M  V30 14734 C 1379.55 4.74915 3.52434 0
M  V30 14735 H 1378.48 0.498519 0.565681 0
M  V30 14736 H 1381.13 1.64064 0.821913 0
M  V30 14737 H 1379.51 1.98607 3.42595 0
M  V30 14738 H 1380.69 4.27685 1.7153 0
M  V30 14739 H 1379 3.80308 1.69573 0
M  V30 14740 H 1381.6 3.06913 4.37845 0
M  V30 14741 H 1381.94 1.42111 3.91293 0
M  V30 14742 H 1382.48 2.75884 2.86588 0
M  V30 14743 H 1379.21 5.74176 3.16232 0
M  V30 14744 H 1378.73 4.33753 4.14268 0
M  V30 14745 H 1380.41 4.93003 4.18995 0
M  V30 14746 N 1380.55 -0.980364 1.23396 0
M  V30 14747 C 1381.48 -2.07099 0.958403 0
M  V30 14748 C 1382.46 -1.62272 -0.1033 0
M  V30 14749 O 1383.64 -1.88475 0.0309639 0
M  V30 14750 C 1380.77 -3.35779 0.443864 0
M  V30 14751 C 1379.81 -3.99545 1.49218 0
M  V30 14752 S 1380.65 -4.3879 3.06958 0
M  V30 14753 C 1381.8 -5.70624 2.57174 0
M  V30 14754 H 1382.04 -2.30154 1.88192 0
M  V30 14755 H 1379.57 -1.11656 1.06641 0
M  V30 14756 H 1381.53 -4.10213 0.153603 0
M  V30 14757 H 1380.19 -3.10732 -0.458738 0
M  V30 14758 H 1379.38 -4.92242 1.0823 0
M  V30 14759 H 1378.98 -3.31489 1.73179 0
M  V30 14760 H 1381.27 -6.47555 1.99197 0
M  V30 14761 H 1382.22 -6.16454 3.48411 0
M  V30 14762 H 1382.63 -5.28626 1.98028 0
M  V30 14763 N 1382.02 -1.04567 -1.17913 0
M  V30 14764 C 1383.25 -0.772204 -1.9195 0
M  V30 14765 C 1383.67 0.671303 -1.76462 0
M  V30 14766 O 1383.02 1.45805 -1.0976 0
M  V30 14767 C 1383.07 -1.13539 -3.43207 0
M  V30 14768 O 1382.8 -2.52223 -3.58211 0
M  V30 14769 C 1384.3 -0.887146 -4.34332 0
M  V30 14770 H 1381.52 -0.281234 -0.609219 0
M  V30 14771 H 1384.06 -1.39467 -1.49563 0
M  V30 14772 H 1382.22 -0.557784 -3.83363 0
M  V30 14773 H 1382.63 -2.66275 -4.51882 0
M  V30 14774 H 1384.1 -1.19107 -5.38997 0
M  V30 14775 H 1384.58 0.1779 -4.3884 0
M  V30 14776 H 1385.19 -1.44829 -3.99881 0
M  V30 14777 N 1383.5 1.34231 -0.825823 0
M  V30 14778 C 1384.41 2.33245 -0.251803 0
M  V30 14779 C 1385.43 1.62756 0.615334 0
M  V30 14780 O 1386.6 1.94503 0.522547 0
M  V30 14781 C 1383.67 3.41908 0.574456 0
M  V30 14782 C 1382.73 4.2814 -0.315422 0
M  V30 14783 C 1381.96 5.31613 0.471496 0
M  V30 14784 O 1382.19 5.44337 1.70449 0
M  V30 14785 O 1381.12 6.01719 -0.147691 0
M  V30 14786 H 1384.95 2.84174 -1.07139 0
M  V30 14787 H 1382.53 1.37341 -0.588032 0
M  V30 14788 H 1384.41 4.08252 1.04444 0
M  V30 14789 H 1383.09 2.93217 1.37132 0
M  V30 14790 H 1381.99 3.64709 -0.832963 0
M  V30 14791 H 1383.33 4.80279 -1.07672 0
M  V30 14792 N 1384.98 0.581051 1.46498 0
M  V30 14793 C 1385.91 -0.140957 2.33074 0
M  V30 14794 C 1386.89 -0.885323 1.45245 0
M  V30 14795 O 1388.08 -0.86111 1.74065 0
M  V30 14796 C 1385.21 -1.15625 3.27488 0
M  V30 14797 C 1384.16 -0.526829 4.24745 0
M  V30 14798 C 1383.49 -1.64847 5.08655 0
M  V30 14799 C 1384.79 0.53492 5.19554 0
M  V30 14800 H 1386.48 0.581888 2.93691 0
M  V30 14801 H 1384.03 0.281278 1.41226 0
M  V30 14802 H 1385.98 -1.6697 3.8691 0
M  V30 14803 H 1384.7 -1.90935 2.64974 0
M  V30 14804 H 1383.36 -0.0344738 3.66584 0
M  V30 14805 H 1383.01 -2.3912 4.42528 0
M  V30 14806 H 1382.71 -1.23298 5.74518 0
M  V30 14807 H 1384.23 -2.16472 5.7094 0
M  V30 14808 H 1385.65 0.106606 5.73201 0
M  V30 14809 H 1384.04 0.870639 5.93751 0
M  V30 14810 H 1385.11 1.42184 4.63586 0
M  V30 14811 N 1386.46 -1.54343 0.318742 0
M  V30 14812 C 1387.7 -2.00777 -0.285699 0
M  V30 14813 C 1388.04 -1.20664 -1.52164 0
M  V30 14814 O 1387.31 -0.287674 -1.92361 0
M  V30 14815 C 1387.59 -3.54641 -0.624649 0
M  V30 14816 C 1387.45 -4.45483 0.621663 0
M  V30 14817 C 1388.77 -4.15729 -1.4442 0
M  V30 14818 H 1385.89 -0.729856 -0.102367 0
M  V30 14819 H 1388.53 -1.84968 0.434364 0
M  V30 14820 H 1386.68 -3.68243 -1.23811 0
M  V30 14821 H 1388.35 -4.43759 1.25998 0
M  V30 14822 H 1386.59 -4.15356 1.25148 0
M  V30 14823 H 1387.26 -5.50951 0.340106 0
M  V30 14824 H 1389.74 -4.05672 -0.925699 0
M  V30 14825 H 1388.62 -5.23509 -1.65013 0
M  V30 14826 H 1388.88 -3.68743 -2.43887 0
M  V30 14827 N 1387.94 -0.0468143 -1.5753 0
M  V30 14828 C 1388.87 0.927092 -2.14306 0
M  V30 14829 C 1389.85 1.32745 -1.06362 0
M  V30 14830 O 1391.03 1.40293 -1.34281 0
M  V30 14831 C 1388.16 2.20343 -2.68452 0
M  V30 14832 C 1387.12 1.94328 -3.81341 0
M  V30 14833 C 1386.44 3.28379 -4.21985 0
M  V30 14834 C 1387.74 1.26835 -5.06666 0
M  V30 14835 H 1389.44 0.454199 -2.95935 0
M  V30 14836 H 1386.98 0.217029 -1.42355 0
M  V30 14837 H 1388.93 2.8887 -3.0681 0
M  V30 14838 H 1387.66 2.6983 -1.84009 0
M  V30 14839 H 1386.32 1.28214 -3.43448 0
M  V30 14840 H 1385.97 3.75658 -3.34499 0
M  V30 14841 H 1385.67 3.11772 -4.98068 0
M  V30 14842 H 1387.19 3.98145 -4.6294 0
M  V30 14843 H 1388.6 1.85389 -5.42498 0
M  V30 14844 H 1387 1.20569 -5.87863 0
M  V30 14845 H 1388.07 0.243759 -4.84287 0
M  V30 14846 N 1389.41 1.55964 0.226527 0
M  V30 14847 C 1390.66 1.78745 0.95165 0
M  V30 14848 C 1390.99 0.614714 1.84531 0
M  V30 14849 O 1390.24 -0.401137 1.91545 0
M  V30 14850 C 1390.54 3.07235 1.82597 0
M  V30 14851 C 1390.21 4.37627 1.08596 0
M  V30 14852 C 1388.87 4.73057 0.881531 0
M  V30 14853 C 1391.22 5.1815 0.563019 0
M  V30 14854 C 1388.55 5.86528 0.142172 0
M  V30 14855 C 1390.9 6.3239 -0.162972 0
M  V30 14856 C 1389.57 6.66425 -0.378704 0
M  V30 14857 H 1388.84 0.654075 0.348233 0
M  V30 14858 H 1391.48 1.9023 0.220187 0
M  V30 14859 H 1389.79 2.9085 2.62514 0
M  V30 14860 H 1391.49 3.22063 2.38907 0
M  V30 14861 H 1388.08 4.09806 1.25527 0
M  V30 14862 H 1392.26 4.91218 0.708446 0
M  V30 14863 H 1387.52 6.1139 -0.0352481 0
M  V30 14864 H 1391.69 6.94016 -0.575719 0
M  V30 14865 H 1389.32 7.54196 -0.953549 0
M  V30 14866 N 1390.89 -0.493031 1.4969 0
M  V30 14867 C 1391.82 -1.60215 1.69863 0
M  V30 14868 C 1392.8 -1.61053 0.547362 0
M  V30 14869 O 1393.99 -1.77667 0.784093 0
M  V30 14870 C 1391.12 -2.98662 1.77252 0
M  V30 14871 C 1390.07 -3.1269 2.92248 0
M  V30 14872 C 1389.4 -4.52567 2.84758 0
M  V30 14873 C 1390.7 -2.91965 4.33074 0
M  V30 14874 H 1392.39 -1.43587 2.62723 0
M  V30 14875 H 1389.94 -0.689334 1.26429 0
M  V30 14876 H 1391.89 -3.7616 1.89951 0
M  V30 14877 H 1390.62 -3.16397 0.809976 0
M  V30 14878 H 1389.27 -2.37619 2.79164 0
M  V30 14879 H 1388.92 -4.6719 1.86394 0
M  V30 14880 H 1388.62 -4.62893 3.61944 0
M  V30 14881 H 1390.15 -5.32116 2.99475 0
M  V30 14882 H 1391.56 -3.59228 4.46798 0
M  V30 14883 H 1389.96 -3.13756 5.11544 0
M  V30 14884 H 1391.03 -1.88015 4.46966 0
M  V30 14885 N 1392.37 -1.38898 -0.744656 0
M  V30 14886 C 1393.62 -1.35795 -1.50623 0
M  V30 14887 C 1393.95 0.0491775 -1.94138 0
M  V30 14888 O 1393.22 1.01219 -1.66087 0
M  V30 14889 C 1393.51 -2.32168 -2.75263 0
M  V30 14890 C 1393.36 -3.81781 -2.3783 0
M  V30 14891 C 1394.68 -2.26526 -3.77325 0
M  V30 14892 H 1391.8 -0.494591 -0.546396 0
M  V30 14893 H 1394.44 -1.69816 -0.852211 0
M  V30 14894 H 1392.59 -2.03287 -3.31069 0
M  V30 14895 H 1394.26 -4.21373 -1.8773 0
M  V30 14896 H 1392.51 -3.99027 -1.70176 0
M  V30 14897 H 1393.18 -4.44687 -3.27044 0
M  V30 14898 H 1395.65 -2.52041 -3.31081 0
M  V30 14899 H 1394.53 -2.96053 -4.62216 0
M  V30 14900 H 1394.79 -1.26705 -4.23554 0
M  V30 14901 N 1393.85 0.973806 -1.23914 0
M  V30 14902 C 1394.76 2.10138 -1.04304 0
M  V30 14903 C 1395.77 1.73994 0.0143888 0
M  V30 14904 O 1396.95 2.00572 -0.182481 0
M  V30 14905 C 1394.02 3.40673 -0.643639 0
M  V30 14906 C 1393.08 3.90802 -1.77686 0
M  V30 14907 C 1392.31 5.15108 -1.39642 0
M  V30 14908 O 1392.53 5.69695 -0.283546 0
M  V30 14909 O 1391.47 5.59468 -2.21988 0
M  V30 14910 H 1395.29 2.29574 -1.9882 0
M  V30 14911 H 1392.88 1.08524 -1.02679 0
M  V30 14912 H 1394.76 4.19178 -0.432145 0
M  V30 14913 H 1393.43 3.22551 0.272458 0
M  V30 14914 H 1392.34 3.13385 -2.04305 0
M  V30 14915 H 1393.67 4.1339 -2.67151 0
M  V30 14916 N 1395.33 1.05191 1.17357 0
M  V30 14917 C 1396.57 0.761984 1.87617 0
M  V30 14918 C 1396.9 -0.710976 1.8104 0
M  V30 14919 O 1396.16 -1.53566 1.21309 0
M  V30 14920 C 1396.46 1.18779 3.37085 0
M  V30 14921 C 1396.12 2.66296 3.63864 0
M  V30 14922 C 1394.78 3.06594 3.70882 0
M  V30 14923 C 1397.14 3.61622 3.75339 0
M  V30 14924 C 1394.46 4.41081 3.86865 0
M  V30 14925 C 1396.82 4.95842 3.9284 0
M  V30 14926 C 1395.48 5.35793 3.98097 0
M  V30 14927 H 1394.75 0.27883 0.686538 0
M  V30 14928 H 1397.4 1.31899 1.38834 0
M  V30 14929 H 1395.7 0.549782 3.87923 0
M  V30 14930 H 1397.4 0.940667 3.89811 0
M  V30 14931 H 1393.99 2.34089 3.59027 0
M  V30 14932 H 1398.17 3.31628 3.69238 0
M  V30 14933 H 1393.43 4.71536 3.89183 0
M  V30 14934 H 1397.6 5.696 4.00661 0
M  V30 14935 H 1395.23 6.40009 4.10234 0
M  V30 14936 N 1396.8 -1.33791 0.83293 0
M  V30 14937 C 1397.75 -2.31249 0.250357 0
M  V30 14938 C 1398.75 -1.57865 -0.614403 0
M  V30 14939 O 1399.95 -1.72782 -0.504627 0
M  V30 14940 H 1396.33 -0.749421 0.0622268 0
M  V30 14941 H 1398.3 -2.77899 1.08697 0
M  V30 14942 C 1397.05 -3.43082 -0.564783 0
M  V30 14943 H 1396.37 -3.99696 0.0913189 0
M  V30 14944 H 1397.81 -4.13486 -0.938351 0
M  V30 14945 C 1396.27 -2.88414 -1.74124 0
M  V30 14946 O 1396.8 -2.84113 -2.83976 0
M  V30 14947 N 1395.01 -2.45101 -1.56121 0
M  V30 14948 H 1394.55 -2.48799 -0.667607 0
M  V30 14949 H 1394.51 -2.08875 -2.34986 0
M  V30 14950 N 1398.28 -0.588812 -1.46187 0
M  V30 14951 C 1399.21 0.128595 -2.33146 0
M  V30 14952 C 1400.19 0.877608 -1.45712 0
M  V30 14953 O 1401.38 0.851866 -1.74519 0
M  V30 14954 C 1398.51 1.13886 -3.28096 0
M  V30 14955 C 1397.46 0.504296 -4.25019 0
M  V30 14956 C 1396.79 1.62147 -5.09522 0
M  V30 14957 C 1398.09 -0.562466 -5.19263 0
M  V30 14958 H 1399.78 -0.597455 -2.93378 0
M  V30 14959 H 1397.33 -0.288764 -1.41075 0
M  V30 14960 H 1399.28 1.64916 -3.8779 0
M  V30 14961 H 1398.01 1.89527 -2.65983 0
M  V30 14962 H 1396.66 0.0150325 -3.66597 0
M  V30 14963 H 1396.31 2.36769 -4.4379 0
M  V30 14964 H 1396.01 1.20249 -5.75164 0
M  V30 14965 H 1397.54 2.13441 -5.7208 0
M  V30 14966 H 1398.95 -0.137003 -5.73136 0
M  V30 14967 H 1397.35 -0.902115 -5.93281 0
M  V30 14968 H 1398.42 -1.4464 -4.62825 0
M  V30 14969 N 1399.76 1.54172 -0.326923 0
M  V30 14970 C 1401 2.02539 0.275192 0
M  V30 14971 C 1401.36 1.2099 1.49082 0
M  V30 14972 O 1402.57 1.59176 2.16602 0
M  V30 14973 C 1400.84 3.52366 0.597767 0
M  V30 14974 S 1402.4 4.22663 1.17906 0
M  V30 14975 H 1399.21 0.706135 0.0830286 0
M  V30 14976 H 1401.82 1.89991 -0.460826 0
M  V30 14977 H 1400.52 4.09338 -0.295052 0
M  V30 14978 H 1400.05 3.69001 1.36389 0
M  V30 14979 H 1402.07 4.30601 2.46571 0
M  V30 14980 N 1401.24 0.0551678 1.57503 0
M  V30 14981 C 1402.46 -0.630692 1.97578 0
M  V30 14982 C 1402.89 -1.63348 0.932686 0
M  V30 14983 O 1402.25 -1.81004 -0.103632 0
M  V30 14984 C 1402.29 -1.29049 3.36718 0
M  V30 14985 O 1401.4 -2.40621 3.34926 0
M  V30 14986 H 1400.74 -0.163625 0.643524 0
M  V30 14987 H 1403.27 0.124753 2.04219 0
M  V30 14988 H 1403.28 -1.64124 3.73534 0
M  V30 14989 H 1401.95 -0.55559 4.12172 0
M  V30 14990 H 1400.53 -2.07463 3.0986 0
M  V30 14991 N 1402.72 -1.56081 -0.218252 0
M  V30 14992 C 1403.96 -1.80421 -0.939135 0
M  V30 14993 C 1404.32 -0.628671 -1.81839 0
M  V30 14994 O 1403.61 0.377148 -1.87851 0
M  V30 14995 C 1403.8 -3.08199 -1.80965 0
M  V30 14996 C 1403.63 -4.38069 -1.01616 0
M  V30 14997 C 1402.4 -5.0029 -0.709772 0
M  V30 14998 C 1404.6 -5.12895 -0.379884 0
M  V30 14999 N 1402.58 -6.13811 0.104778 0
M  V30 15000 C 1403.95 -6.19284 0.29791 0
M  V30 15001 C 1406.01 -4.97036 -0.29325 0
M  V30 15002 C 1404.71 -7.11535 1.05405 0
M  V30 15003 C 1406.74 -5.8969 0.449435 0
M  V30 15004 C 1406.1 -6.95507 1.11576 0
M  V30 15005 H 1402.2 -0.711808 -0.32381 0
M  V30 15006 H 1404.78 -1.93567 -0.209735 0
M  V30 15007 H 1402.95 -2.9633 -2.51084 0
M  V30 15008 H 1404.69 -3.20717 -2.46826 0
M  V30 15009 H 1401.44 -4.62295 -1.0286 0
M  V30 15010 H 1401.87 -6.75144 0.500985 0
M  V30 15011 H 1406.51 -4.15276 -0.794059 0
M  V30 15012 H 1404.23 -7.92774 1.56637 0
M  V30 15013 H 1407.81 -5.79494 0.517515 0
M  V30 15014 H 1406.69 -7.65966 1.68126 0
M  V30 15015 N 1404.2 0.485086 -1.49949 0
M  V30 15016 C 1405.44 1.23721 -1.61445 0
M  V30 15017 C 1405.8 1.89975 -0.304479 0
M  V30 15018 O 1405.09 1.78489 0.696567 0
M  V30 15019 C 1405.28 2.31573 -2.72229 0
M  V30 15020 C 1405.11 1.75898 -4.13872 0
M  V30 15021 C 1403.88 1.5649 -4.80457 0
M  V30 15022 C 1406.08 1.26181 -4.98581 0
M  V30 15023 N 1404.06 0.959112 -6.06361 0
M  V30 15024 C 1405.43 0.778367 -6.15095 0
M  V30 15025 C 1407.49 1.14903 -4.8446 0
M  V30 15026 C 1406.19 0.19329 -7.1904 0
M  V30 15027 C 1408.22 0.57791 -5.8857 0
M  V30 15028 C 1407.58 0.104777 -7.04322 0
M  V30 15029 H 1403.68 0.442115 -0.645026 0
M  V30 15030 H 1406.26 0.541572 -1.87016 0
M  V30 15031 H 1404.43 2.9858 -2.48404 0
M  V30 15032 H 1406.17 2.98607 -2.73159 0
M  V30 15033 H 1402.92 1.81316 -4.37517 0
M  V30 15034 H 1403.34 0.675032 -6.73626 0
M  V30 15035 H 1407.99 1.50079 -3.95267 0
M  V30 15036 H 1405.7 -0.170697 -8.0792 0
M  V30 15037 H 1409.29 0.493211 -5.79706 0
M  V30 15038 H 1408.17 -0.330245 -7.83504 0
M  V30 15039 N 1405.67 1.39291 0.737279 0
M  V30 15040 C 1406.62 1.34321 1.84233 0
M  V30 15041 C 1407.61 0.224489 1.59326 0
M  V30 15042 O 1408.8 0.461832 1.70869 0
M  V30 15043 C 1405.93 1.18676 3.22135 0
M  V30 15044 C 1405.01 2.35239 3.52878 0
M  V30 15045 N 1405.41 3.6071 3.54573 0
M  V30 15046 C 1403.7 2.28147 3.83229 0
M  V30 15047 C 1404.4 4.37778 3.83047 0
M  V30 15048 N 1403.38 3.67336 4.00706 0
M  V30 15049 H 1407.18 2.29299 1.83845 0
M  V30 15050 H 1404.7 1.32755 0.935413 0
M  V30 15051 H 1406.69 1.13199 4.01238 0
M  V30 15052 H 1405.35 0.246461 3.23763 0
M  V30 15053 H 1406.36 3.94164 3.3594 0
M  V30 15054 H 1403.04 1.42366 3.92477 0
M  V30 15055 H 1404.43 5.46525 3.90845 0
M  V30 15056 N 1407.15 -0.967221 1.24429 0
M  V30 15057 C 1408.38 -1.75053 1.11226 0
M  V30 15058 C 1408.8 -1.85162 -0.331139 0
M  V30 15059 O 1408.16 -1.32288 -1.23974 0
M  V30 15060 C 1408.21 -3.14882 1.75733 0
M  V30 15061 O 1407.31 -3.99371 1.02842 0
M  V30 15062 H 1406.65 -0.538078 0.389061 0
M  V30 15063 H 1409.18 -1.21325 1.64746 0
M  V30 15064 H 1409.19 -3.65402 1.81509 0
M  V30 15065 H 1407.87 -3.06839 2.80754 0
M  V30 15066 H 1406.44 -3.57854 1.04856 0
M  V30 15067 N 1408.63 -1.05812 -1.16797 0
M  V30 15068 C 1409.91 -0.685551 -1.83193 0
M  V30 15069 C 1410.29 0.833539 -1.93947 0
M  V30 15070 O 1409.63 1.74193 -1.47882 0
M  V30 15071 C 1409.84 -1.38183 -3.20479 0
M  V30 15072 C 1411.19 -1.52389 -3.96311 0
M  V30 15073 O 1412.22 -1.34134 -3.2998 0
M  V30 15074 O 1411.08 -1.82297 -5.15199 0
M  V30 15075 H 1408.17 -0.242095 -0.790771 0
M  V30 15076 H 1410.72 -1.15809 -1.24041 0
M  V30 15077 H 1409.49 -2.41791 -3.07657 0
M  V30 15078 H 1409.11 -0.899043 -3.87302 0
M  V30 15079 N 1410.11 1.33347 -0.840014 0
M  V30 15080 C 1411.04 2.27146 -0.219068 0
M  V30 15081 C 1412.02 1.4971 0.634472 0
M  V30 15082 O 1413.2 1.7888 0.594485 0
M  V30 15083 C 1410.33 3.31549 0.692312 0
M  V30 15084 C 1409.38 4.26413 -0.0859186 0
M  V30 15085 S 1410.21 5.15647 -1.44458 0
M  V30 15086 C 1411.36 6.23579 -0.538524 0
M  V30 15087 H 1411.6 2.79464 -1.01426 0
M  V30 15088 H 1409.13 1.40655 -0.636829 0
M  V30 15089 H 1411.09 3.92183 1.21254 0
M  V30 15090 H 1409.75 2.78044 1.46117 0
M  V30 15091 H 1408.94 5.00324 0.60762 0
M  V30 15092 H 1408.54 3.70121 -0.537243 0
M  V30 15093 H 1410.84 6.76989 0.263167 0
M  V30 15094 H 1411.78 6.97019 -1.24782 0
M  V30 15095 H 1412.19 5.64374 -0.119363 0
M  V30 15096 N 1411.59 0.596556 1.45873 0
M  V30 15097 C 1412.81 0.0934926 2.06689 0
M  V30 15098 C 1413.23 -1.21743 1.44305 0
M  V30 15099 O 1412.59 -1.73912 0.553253 0
M  V30 15100 C 1412.64 -0.0643337 3.61443 0
M  V30 15101 O 1412.36 1.19472 4.21495 0
M  V30 15102 C 1413.86 -0.600141 4.39219 0
M  V30 15103 H 1411.08 0.0637846 0.667961 0
M  V30 15104 H 1413.62 0.821159 1.87289 0
M  V30 15105 H 1411.78 -0.742278 3.80222 0
M  V30 15106 H 1412.19 1.01735 5.14539 0
M  V30 15107 H 1413.67 -0.6597 5.48044 0
M  V30 15108 H 1414.14 -1.62009 4.08227 0
M  V30 15109 H 1414.75 0.0433915 4.25278 0
M  V30 15110 N 1413.06 -1.53996 0.335095 0
M  V30 15111 C 1414.03 -2.23385 -0.513015 0
M  V30 15112 C 1415.03 -1.23117 -1.03435 0
M  V30 15113 O 1416.22 -1.47616 -0.924944 0
M  V30 15114 C 1413.35 -2.94691 -1.71377 0
M  V30 15115 H 1414.54 -2.99753 0.0937306 0
M  V30 15116 H 1412.09 -1.56061 0.086326 0
M  V30 15117 H 1412.83 -2.22488 -2.35944 0
M  V30 15118 H 1412.61 -3.68228 -1.34723 0
M  V30 15119 H 1414.1 -3.47525 -2.31552 0
M  V30 15120 N 1414.54 -0.0635198 -1.57472 0
M  V30 15121 C 1415.49 0.906604 -2.12248 0
M  V30 15122 C 1416.46 1.30078 -1.0329 0
M  V30 15123 O 1417.64 1.38809 -1.30907 0
M  V30 15124 C 1414.78 2.1718 -2.68192 0
M  V30 15125 C 1413.9 1.831 -3.91278 0
M  V30 15126 C 1413.03 3.0417 -4.35493 0
M  V30 15127 C 1412.07 2.66069 -5.51248 0
M  V30 15128 N 1411.21 3.79871 -5.9046 0
M  V30 15129 H 1416.05 0.432606 -2.94843 0
M  V30 15130 H 1413.58 0.201895 -1.45708 0
M  V30 15131 H 1415.54 2.91231 -2.98732 0
M  V30 15132 H 1414.17 2.62135 -1.88375 0
M  V30 15133 H 1413.22 0.991473 -3.67252 0
M  V30 15134 H 1414.54 1.51063 -4.75375 0
M  V30 15135 H 1413.69 3.86507 -4.6765 0
M  V30 15136 H 1412.43 3.39395 -3.50232 0
M  V30 15137 H 1411.43 1.82151 -5.1875 0
M  V30 15138 H 1412.66 2.32023 -6.38234 0
M  V30 15139 H 1410.61 4.14873 -5.0815 0
M  V30 15140 H 1410.52 3.51573 -6.69277 0
M  V30 15141 H 1411.79 4.62811 -6.27237 0
M  V30 15142 N 1416.02 1.56195 0.209972 0
M  V30 15143 C 1416.98 1.92514 1.24383 0
M  V30 15144 C 1417.98 0.804793 1.39211 0
M  V30 15145 O 1419.17 1.0724 1.37278 0
M  V30 15146 C 1416.3 2.18613 2.61574 0
M  V30 15147 H 1417.5 2.84992 0.933781 0
M  V30 15148 H 1415.05 1.49656 0.450878 0
M  V30 15149 H 1415.79 1.28724 2.97659 0
M  V30 15150 H 1415.57 3.00241 2.52186 0
M  V30 15151 H 1417.06 2.47767 3.36156 0
M  V30 15152 N 1417.5 -0.477127 1.50204 0
M  V30 15153 C 1418.43 -1.59319 1.64773 0
M  V30 15154 C 1419.44 -1.53951 0.529427 0
M  V30 15155 O 1420.63 -1.59449 0.802388 0
M  V30 15156 C 1417.73 -2.98185 1.61055 0
M  V30 15157 C 1416.9 -3.28486 2.88817 0
M  V30 15158 C 1415.96 -4.46878 2.77825 0
M  V30 15159 O 1414.99 -4.47483 3.51778 0
M  V30 15160 N 1416.19 -5.48187 1.90974 0
M  V30 15161 H 1418.96 -1.4724 2.61037 0
M  V30 15162 H 1416.52 -0.66544 1.47592 0
M  V30 15163 H 1418.51 -3.75345 1.51323 0
M  V30 15164 H 1417.08 -3.04064 0.725509 0
M  V30 15165 H 1416.3 -2.39997 3.12722 0
M  V30 15166 H 1417.59 -3.4554 3.7347 0
M  V30 15167 H 1416.99 -5.50515 1.30192 0
M  V30 15168 H 1415.54 -6.24355 1.87148 0
M  V30 15169 N 1418.98 -1.3968 -0.729882 0
M  V30 15170 C 1419.92 -1.38808 -1.84393 0
M  V30 15171 C 1420.89 -0.247035 -1.64253 0
M  V30 15172 O 1422.08 -0.44293 -1.85588 0
M  V30 15173 C 1419.22 -1.2424 -3.2196 0
M  V30 15174 C 1418.33 -2.47932 -3.53771 0
M  V30 15175 C 1417.47 -2.25913 -4.80767 0
M  V30 15176 C 1416.51 -3.45254 -5.05436 0
M  V30 15177 N 1415.64 -3.2252 -6.23638 0
M  V30 15178 H 1420.48 -2.34038 -1.84473 0
M  V30 15179 H 1418.02 -1.16252 -0.901332 0
M  V30 15180 H 1419.98 -1.13804 -4.01378 0
M  V30 15181 H 1418.61 -0.326375 -3.21146 0
M  V30 15182 H 1417.66 -2.68952 -2.69015 0
M  V30 15183 H 1418.97 -3.36806 -3.67917 0
M  V30 15184 H 1418.13 -2.12748 -5.68175 0
M  V30 15185 H 1416.86 -1.34441 -4.68804 0
M  V30 15186 H 1415.87 -3.58912 -4.16488 0
M  V30 15187 H 1417.09 -4.37634 -5.19282 0
M  V30 15188 H 1415.04 -2.33718 -6.12953 0
M  V30 15189 H 1414.96 -4.04954 -6.38395 0
M  V30 15190 H 1416.23 -3.1306 -7.13872 0
M  V30 15191 N 1420.45 0.960609 -1.2494 0
M  V30 15192 C 1421.38 2.074 -1.07274 0
M  V30 15193 C 1422.37 1.70092 0.0164365 0
M  V30 15194 O 1423.55 1.93604 -0.151975 0
M  V30 15195 C 1420.68 3.40491 -0.684317 0
M  V30 15196 C 1419.63 3.91784 -1.72306 0
M  V30 15197 C 1418.96 5.21301 -1.18949 0
M  V30 15198 C 1420.26 4.18829 -3.12056 0
M  V30 15199 H 1421.95 2.22438 -2.00404 0
M  V30 15200 H 1419.5 1.06888 -0.964937 0
M  V30 15201 H 1421.45 4.17826 -0.547686 0
M  V30 15202 H 1420.18 3.25374 0.282687 0
M  V30 15203 H 1418.84 3.16613 -1.84802 0
M  V30 15204 H 1418.48 5.02549 -0.212892 0
M  V30 15205 H 1418.18 5.56588 -1.8837 0
M  V30 15206 H 1419.71 6.01238 -1.06513 0
M  V30 15207 H 1421.12 4.86844 -3.02748 0
M  V30 15208 H 1419.52 4.6536 -3.78894 0
M  V30 15209 H 1420.59 3.25333 -3.59564 0
M  V30 15210 N 1421.93 1.0643 1.16234 0
M  V30 15211 C 1422.88 0.676311 2.20669 0
M  V30 15212 C 1423.85 -0.327721 1.62835 0
M  V30 15213 O 1425.03 -0.216296 1.8957 0
M  V30 15214 C 1422.17 0.0703726 3.45028 0
M  V30 15215 C 1421.29 1.12475 4.17101 0
M  V30 15216 C 1420.42 0.484806 5.28983 0
M  V30 15217 C 1419.46 1.52262 5.9286 0
M  V30 15218 N 1418.6 0.905938 6.96231 0
M  V30 15219 H 1423.44 1.57129 2.53209 0
M  V30 15220 H 1420.98 0.7856 1.24365 0
M  V30 15221 H 1422.93 -0.298488 4.16131 0
M  V30 15222 H 1421.56 -0.788002 3.13034 0
M  V30 15223 H 1420.62 1.6113 3.44589 0
M  V30 15224 H 1421.93 1.91202 4.60698 0
M  V30 15225 H 1421.08 0.0630553 6.06667 0
M  V30 15226 H 1419.82 -0.334332 4.86553 0
M  V30 15227 H 1418.83 1.95425 5.13896 0
M  V30 15228 H 1420.05 2.34388 6.37369 0
M  V30 15229 H 1418 0.107536 6.55912 0
M  V30 15230 H 1417.91 1.63058 7.38206 0
M  V30 15231 H 1419.18 0.509378 7.77834 0
M  V30 15232 N 1423.41 -1.329 0.847073 0
M  V30 15233 C 1424.34 -2.27903 0.243522 0
M  V30 15234 C 1425.36 -1.52101 -0.58043 0
M  V30 15235 O 1426.54 -1.73818 -0.406158 0
M  V30 15236 C 1423.64 -3.32107 -0.675118 0
M  V30 15237 C 1422.82 -4.37258 0.111305 0
M  V30 15238 C 1421.88 -5.21085 -0.731933 0
M  V30 15239 O 1420.9 -5.68951 -0.168176 0
M  V30 15240 N 1422.1 -5.43175 -2.04794 0
M  V30 15241 H 1424.87 -2.80335 1.05983 0
M  V30 15242 H 1422.43 -1.4568 0.706322 0
M  V30 15243 H 1424.42 -3.85093 -1.2444 0
M  V30 15244 H 1422.99 -2.79891 -1.39212 0
M  V30 15245 H 1422.21 -3.8466 0.861991 0
M  V30 15246 H 1423.5 -5.04608 0.651756 0
M  V30 15247 H 1422.9 -5.06002 -2.5294 0
M  V30 15248 H 1421.46 -5.99186 -2.56552 0
M  V30 15249 N 1424.89 -0.604284 -1.45555 0
M  V30 15250 C 1426.12 -0.104452 -2.06636 0
M  V30 15251 C 1426.53 1.20976 -1.44949 0
M  V30 15252 O 1425.89 1.73616 -0.562468 0
M  V30 15253 C 1425.94 0.0451646 -3.61472 0
M  V30 15254 O 1425.66 -1.21705 -4.20856 0
M  V30 15255 C 1427.16 0.57684 -4.39531 0
M  V30 15256 H 1424.38 -0.067326 -0.667614 0
M  V30 15257 H 1426.93 -0.831079 -1.86851 0
M  V30 15258 H 1425.08 0.722104 -3.80611 0
M  V30 15259 H 1425.49 -1.04462 -5.13992 0
M  V30 15260 H 1426.97 0.630627 -5.48386 0
M  V30 15261 H 1427.45 1.59842 -4.09081 0
M  V30 15262 H 1428.05 -0.0659444 -4.25249 0
M  V30 15263 N 1426.37 1.53816 -0.343257 0
M  V30 15264 C 1427.3 2.27951 0.506005 0
M  V30 15265 C 1428.28 1.29502 1.10287 0
M  V30 15266 O 1429.46 1.58344 1.12432 0
M  V30 15267 C 1426.59 3.0521 1.65723 0
M  V30 15268 C 1425.55 4.11161 1.18871 0
M  V30 15269 C 1424.87 4.76373 2.42843 0
M  V30 15270 C 1426.17 5.21498 0.289403 0
M  V30 15271 H 1427.87 2.99189 -0.112435 0
M  V30 15272 H 1425.41 1.43893 -0.055516 0
M  V30 15273 H 1427.37 3.55811 2.2578 0
M  V30 15274 H 1426.09 2.31624 2.30256 0
M  V30 15275 H 1424.75 3.61473 0.610962 0
M  V30 15276 H 1424.4 3.99381 3.05784 0
M  V30 15277 H 1424.1 5.47955 2.12177 0
M  V30 15278 H 1425.62 5.29758 3.03627 0
M  V30 15279 H 1427.03 5.67736 0.796808 0
M  V30 15280 H 1425.43 6.00054 0.0746366 0
M  V30 15281 H 1426.5 4.80185 -0.674543 0
M  V30 15282 N 1427.84 0.0718701 1.57436 0
M  V30 15283 C 1428.75 -0.910077 2.16229 0
M  V30 15284 C 1429.77 -1.32699 1.12548 0
M  V30 15285 O 1430.95 -1.39967 1.44814 0
M  V30 15286 C 1428.01 -2.15942 2.71238 0
M  V30 15287 C 1427.07 -1.79891 3.89792 0
M  V30 15288 C 1426.31 -2.9887 4.42168 0
M  V30 15289 O 1426.53 -4.1289 3.93545 0
M  V30 15290 O 1425.46 -2.78682 5.33498 0
M  V30 15291 H 1429.29 -0.439969 3.00496 0
M  V30 15292 H 1426.87 -0.151204 1.48633 0
M  V30 15293 H 1428.76 -2.89204 3.06494 0
M  V30 15294 H 1427.43 -2.62051 1.90029 0
M  V30 15295 H 1426.34 -1.03881 3.59388 0
M  V30 15296 H 1427.67 -1.38566 4.72293 0
M  V30 15297 N 1429.32 -1.56304 -0.201686 0
M  V30 15298 C 1430.73 -1.7022 -0.766953 0
M  V30 15299 C 1431.08 -0.677318 -1.84138 0
M  V30 15300 O 1430.21 0.167604 -2.1575 0
M  V30 15301 C 1430.8 -3.08615 -1.39795 0
M  V30 15302 C 1429.36 -3.24317 -1.91037 0
M  V30 15303 C 1428.51 -2.66167 -0.777853 0
M  V30 15304 H 1431.46 -1.58683 0.0232884 0
M  V30 15305 H 1431.48 -3.05578 -2.26721 0
M  V30 15306 H 1430.99 -3.83185 -0.615728 0
M  V30 15307 H 1429.1 -2.54652 -2.71999 0
M  V30 15308 H 1429.21 -4.31753 -2.07669 0
M  V30 15309 H 1427.57 -2.25169 -1.19042 0
M  V30 15310 H 1428.36 -3.43299 -0.00798179 0
M  V30 15311 N 1430.8 0.469154 -1.50455 0
M  V30 15312 C 1432.04 1.23092 -1.6318 0
M  V30 15313 C 1432.4 1.89215 -0.325829 0
M  V30 15314 O 1433.61 2.66785 -0.328531 0
M  V30 15315 C 1431.88 2.24527 -2.78069 0
M  V30 15316 S 1433.44 3.09617 -3.10938 0
M  V30 15317 H 1430.25 0.417887 -0.575232 0
M  V30 15318 H 1432.86 0.527616 -1.88246 0
M  V30 15319 H 1431.56 1.74534 -3.71438 0
M  V30 15320 H 1431.09 2.99483 -2.55095 0
M  V30 15321 H 1433.11 4.25716 -2.54913 0
M  V30 15322 N 1432.28 1.40065 0.722464 0
M  V30 15323 C 1433.56 1.28473 1.47493 0
M  V30 15324 C 1433.94 -0.100058 2.10863 0
M  V30 15325 O 1433.28 -1.11232 1.99599 0
M  V30 15326 C 1433.49 2.41842 2.51621 0
M  V30 15327 C 1434.84 2.81753 3.17648 0
M  V30 15328 O 1435.87 2.41385 2.61939 0
M  V30 15329 O 1434.72 3.51473 4.18484 0
M  V30 15330 H 1431.82 0.504158 0.655556 0
M  V30 15331 H 1434.36 1.51969 0.755223 0
M  V30 15332 H 1433.14 3.34365 2.03263 0
M  V30 15333 H 1432.76 2.20079 3.31136 0
M  V30 15334 N 1433.76 -0.95397 1.25448 0
M  V30 15335 C 1434.99 -1.73331 1.12977 0
M  V30 15336 C 1435.4 -1.86131 -0.316364 0
M  V30 15337 O 1434.76 -1.35951 -1.21753 0
M  V30 15338 C 1434.81 -3.14675 1.77938 0
M  V30 15339 O 1434.53 -3.025 3.16899 0
M  V30 15340 C 1436.03 -4.08884 1.71256 0
M  V30 15341 H 1433.25 -0.543118 0.394036 0
M  V30 15342 H 1435.79 -1.19678 1.65823 0
M  V30 15343 H 1433.95 -3.6527 1.29062 0
M  V30 15344 H 1434.36 -3.91668 3.4885 0
M  V30 15345 H 1435.84 -5.05668 2.21368 0
M  V30 15346 H 1436.31 -4.33959 0.676476 0
M  V30 15347 H 1436.92 -3.64205 2.19624 0
M  V30 15348 N 1435.24 -1.07045 -1.15668 0
M  V30 15349 C 1436.15 -0.699332 -2.23934 0
M  V30 15350 C 1437.16 0.288036 -1.71599 0
M  V30 15351 O 1438.34 0.135447 -2.00944 0
M  V30 15352 C 1435.4 -0.0994775 -3.46557 0
M  V30 15353 C 1434.46 -1.13968 -4.13896 0
M  V30 15354 C 1433.7 -0.56836 -5.30665 0
M  V30 15355 O 1433.92 0.616556 -5.67058 0
M  V30 15356 O 1432.85 -1.31174 -5.87432 0
M  V30 15357 H 1436.68 -1.60212 -2.58003 0
M  V30 15358 H 1434.26 -0.843202 -1.23331 0
M  V30 15359 H 1436.15 0.23293 -4.20756 0
M  V30 15360 H 1434.82 0.776684 -3.14244 0
M  V30 15361 H 1433.73 -1.5244 -3.41633 0
M  V30 15362 H 1435.06 -1.98764 -4.50282 0
M  V30 15363 N 1436.71 1.32449 -0.85411 0
M  V30 15364 C 1437.94 2.01171 -0.470505 0
M  V30 15365 C 1438.35 1.64356 0.937218 0
M  V30 15366 O 1437.69 0.860565 1.62296 0
M  V30 15367 C 1437.76 3.55583 -0.529241 0
M  V30 15368 C 1437.42 4.15824 -1.89576 0
M  V30 15369 C 1438.42 4.34091 -2.86114 0
M  V30 15370 C 1436.1 4.51911 -2.19276 0
M  V30 15371 C 1438.1 4.87612 -4.10504 0
M  V30 15372 C 1435.78 5.05137 -3.43919 0
M  V30 15373 C 1436.78 5.22936 -4.39349 0
M  V30 15374 O 1436.47 5.75024 -5.61785 0
M  V30 15375 H 1436.2 0.650645 -0.183405 0
M  V30 15376 H 1438.76 1.70015 -1.15257 0
M  V30 15377 H 1436.99 3.86131 0.209671 0
M  V30 15378 H 1438.67 4.05579 -0.161315 0
M  V30 15379 H 1439.44 4.06545 -2.64473 0
M  V30 15380 H 1435.32 4.37343 -1.45782 0
M  V30 15381 H 1438.86 5.0142 -4.84999 0
M  V30 15382 H 1434.76 5.32114 -3.6541 0
M  V30 15383 H 1435.53 5.93418 -5.63736 0
M  V30 15384 N 1438.19 0.611994 1.45232 0
M  V30 15385 C 1439.6 0.193464 1.85695 0
M  V30 15386 C 1439.95 -1.25069 1.5117 0
M  V30 15387 O 1439.08 -1.94894 0.940497 0
M  V30 15388 C 1439.67 0.344334 3.37046 0
M  V30 15389 C 1438.23 -0.0195378 3.76395 0
M  V30 15390 C 1437.38 0.666714 2.69166 0
M  V30 15391 H 1440.33 0.818395 1.35971 0
M  V30 15392 H 1440.35 -0.422209 3.7815 0
M  V30 15393 H 1439.86 1.3955 3.62143 0
M  V30 15394 H 1437.96 -1.06971 3.56915 0
M  V30 15395 H 1438.08 0.377184 4.77613 0
M  V30 15396 H 1436.44 0.103912 2.54488 0
M  V30 15397 H 1437.22 1.7201 2.97099 0
M  V30 15398 N 1439.67 -1.53632 0.351409 0
M  V30 15399 C 1440.63 -2.23916 -0.489293 0
M  V30 15400 C 1441.63 -1.24207 -1.02124 0
M  V30 15401 O 1442.82 -1.48589 -0.909235 0
M  V30 15402 C 1439.95 -2.96492 -1.68242 0
M  V30 15403 H 1441.15 -2.99637 0.125518 0
M  V30 15404 H 1438.7 -1.55961 0.102874 0
M  V30 15405 H 1439.44 -2.24978 -2.33571 0
M  V30 15406 H 1439.22 -3.69637 -1.3081 0
M  V30 15407 H 1440.71 -3.49961 -2.27853 0
M  V30 15408 N 1441.15 -0.0802183 -1.57396 0
M  V30 15409 C 1442.39 0.586962 -1.93807 0
M  V30 15410 C 1442.72 1.69107 -0.960887 0
M  V30 15411 O 1441.98 1.95688 0.0220779 0
M  V30 15412 C 1442.28 1.19551 -3.36812 0
M  V30 15413 C 1441.94 0.216701 -4.50379 0
M  V30 15414 C 1440.6 -0.0525552 -4.81171 0
M  V30 15415 C 1442.96 -0.452467 -5.19232 0
M  V30 15416 C 1440.28 -0.997923 -5.78151 0
M  V30 15417 C 1442.64 -1.38621 -6.17225 0
M  V30 15418 C 1441.3 -1.66385 -6.4643 0
M  V30 15419 H 1440.57 0.214785 -0.709189 0
M  V30 15420 H 1443.22 -0.152888 -1.90889 0
M  V30 15421 H 1441.52 2.01129 -3.36236 0
M  V30 15422 H 1443.22 1.71918 -3.62278 0
M  V30 15423 H 1439.81 0.436747 -4.26369 0
M  V30 15424 H 1443.99 -0.257573 -4.95631 0
M  V30 15425 H 1439.25 -1.22019 -5.991 0
M  V30 15426 H 1443.42 -1.91063 -6.69677 0
M  V30 15427 H 1441.05 -2.39799 -7.21388 0
M  V30 15428 N 1442.63 1.56409 0.193394 0
M  V30 15429 C 1443.87 1.80991 0.914875 0
M  V30 15430 C 1444.2 0.654538 1.82837 0
M  V30 15431 O 1443.48 -0.344816 1.91419 0
M  V30 15432 C 1443.76 3.15841 1.72964 0
M  V30 15433 C 1443.62 4.41873 0.840748 0
M  V30 15434 C 1444.93 3.474 2.70188 0
M  V30 15435 H 1442.05 0.658408 0.331161 0
M  V30 15436 H 1444.7 1.89125 0.182161 0
M  V30 15437 H 1442.85 3.09038 2.35431 0
M  V30 15438 H 1444.52 4.60723 0.230654 0
M  V30 15439 H 1442.76 4.33549 0.147558 0
M  V30 15440 H 1443.43 5.32728 1.44586 0
M  V30 15441 H 1445.91 3.54513 2.17852 0
M  V30 15442 H 1444.78 4.42872 3.24278 0
M  V30 15443 H 1445.04 2.7098 3.49317 0
M  V30 15444 N 1444.1 -0.461169 1.50702 0
M  V30 15445 C 1445.33 -1.24019 1.66235 0
M  V30 15446 C 1445.75 -1.84827 0.349388 0
M  V30 15447 O 1445.11 -1.67743 -0.687888 0
M  V30 15448 C 1445.16 -2.31743 2.76274 0
M  V30 15449 O 1444.26 -3.3664 2.38217 0
M  V30 15450 H 1443.6 -0.364424 0.55506 0
M  V30 15451 H 1446.13 -0.547636 1.97135 0
M  V30 15452 H 1446.14 -2.76902 2.99649 0
M  V30 15453 H 1444.82 -1.86858 3.7156 0
M  V30 15454 H 1443.4 -2.97123 2.25327 0
M  V30 15455 N 1445.58 -1.40446 -0.715026 0
M  V30 15456 C 1446.49 -1.43074 -1.85922 0
M  V30 15457 C 1447.51 -0.323294 -1.7097 0
M  V30 15458 O 1448.68 -0.567966 -1.93226 0
M  V30 15459 C 1445.75 -1.29206 -3.21725 0
M  V30 15460 C 1444.81 -2.50097 -3.48927 0
M  V30 15461 C 1444.04 -2.36881 -4.7825 0
M  V30 15462 O 1444.27 -1.38292 -5.53382 0
M  V30 15463 O 1443.2 -3.26266 -5.058 0
M  V30 15464 H 1447.03 -2.39565 -1.86661 0
M  V30 15465 H 1444.61 -1.21775 -0.865522 0
M  V30 15466 H 1446.49 -1.23681 -4.02841 0
M  V30 15467 H 1445.17 -0.358207 -3.21712 0
M  V30 15468 H 1444.07 -2.61199 -2.67817 0
M  V30 15469 H 1445.41 -3.42244 -3.53737 0
M  V30 15470 N 1447.06 0.947303 -1.25952 0
M  V30 15471 C 1448.48 1.21972 -1.02932 0
M  V30 15472 C 1448.68 1.99951 0.249333 0
M  V30 15473 O 1447.73 2.33534 0.960108 0
M  V30 15474 C 1449.04 1.98695 -2.257 0
M  V30 15475 C 1450.59 2.11711 -2.30538 0
M  V30 15476 C 1451.07 2.91835 -3.52982 0
M  V30 15477 N 1452.56 2.99411 -3.53422 0
M  V30 15478 C 1453.29 3.6182 -4.4483 0
M  V30 15479 N 1452.79 4.25781 -5.46519 0
M  V30 15480 N 1454.58 3.59033 -4.32495 0
M  V30 15481 H 1446.73 0.42583 -2.08088 0
M  V30 15482 H 1449 0.250899 -0.914196 0
M  V30 15483 H 1448.7 1.48801 -3.18671 0
M  V30 15484 H 1448.58 2.9938 -2.29459 0
M  V30 15485 H 1450.96 2.608 -1.38085 0
M  V30 15486 H 1451.04 1.10308 -2.30794 0
M  V30 15487 H 1450.69 2.43435 -4.4576 0
M  V30 15488 H 1450.62 3.9348 -3.49973 0
M  V30 15489 H 1453.11 2.53934 -2.79868 0
M  V30 15490 H 1453.42 4.71281 -6.12466 0
M  V30 15491 H 1451.77 4.24386 -5.50383 0
M  V30 15492 H 1454.96 3.08254 -3.52274 0
M  V30 15493 H 1455.13 4.07384 -5.03927 0
M  V30 15494 N 1448.54 1.07657 1.15099 0
M  V30 15495 C 1449.77 0.822825 1.89835 0
M  V30 15496 C 1450.18 -0.624281 1.7818 0
M  V30 15497 O 1449.54 -1.42844 1.13587 0
M  V30 15498 C 1449.59 1.22598 3.40076 0
M  V30 15499 O 1449.31 2.61631 3.51398 0
M  V30 15500 C 1450.81 1.00199 4.31828 0
M  V30 15501 H 1448.03 0.297288 0.601549 0
M  V30 15502 H 1450.58 1.43384 1.45813 0
M  V30 15503 H 1448.73 0.65923 3.8175 0
M  V30 15504 H 1449.14 2.78163 4.44664 0
M  V30 15505 H 1450.62 1.33355 5.35649 0
M  V30 15506 H 1451.1 -0.0614865 4.39157 0
M  V30 15507 H 1451.7 1.5538 3.959 0
M  V30 15508 N 1450.02 -1.31994 0.861122 0
M  V30 15509 C 1451.27 -1.96294 0.463868 0
M  V30 15510 C 1451.58 -1.68869 -0.98704 0
M  V30 15511 O 1452.78 -2.26959 -1.49003 0
M  V30 15512 C 1451.24 -3.51377 0.77858 0
M  V30 15513 C 1450.85 -3.87653 2.24565 0
M  V30 15514 C 1452.59 -4.22115 0.449365 0
M  V30 15515 C 1450.5 -5.35809 2.50324 0
M  V30 15516 H 1449.43 -0.734647 0.169733 0
M  V30 15517 H 1452.08 -1.50294 1.0528 0
M  V30 15518 H 1450.46 -3.95821 0.119005 0
M  V30 15519 H 1451.64 -3.54197 2.94755 0
M  V30 15520 H 1449.95 -3.29957 2.54003 0
M  V30 15521 H 1452.55 -5.31103 0.61916 0
M  V30 15522 H 1452.89 -4.11814 -0.609528 0
M  V30 15523 H 1453.42 -3.83276 1.06511 0
M  V30 15524 H 1450.16 -5.51138 3.54863 0
M  V30 15525 H 1449.68 -5.70648 1.84719 0
M  V30 15526 H 1451.36 -6.02968 2.34602 0
M  V30 15527 N 1451.49 -0.619688 -1.44906 0
M  V30 15528 C 1452.44 0.0920359 -2.30616 0
M  V30 15529 C 1453.41 0.848114 -1.42815 0
M  V30 15530 O 1454.6 0.831439 -1.71732 0
M  V30 15531 C 1451.74 1.07537 -3.27917 0
M  V30 15532 C 1450.85 0.318904 -4.30821 0
M  V30 15533 C 1449.98 1.29303 -5.15222 0
M  V30 15534 C 1449.02 0.525071 -6.09844 0
M  V30 15535 N 1448.16 1.44909 -6.86983 0
M  V30 15536 H 1453 -0.644834 -2.9094 0
M  V30 15537 H 1450.54 -0.329785 -1.43356 0
M  V30 15538 H 1452.5 1.65874 -3.82808 0
M  V30 15539 H 1451.13 1.7795 -2.6932 0
M  V30 15540 H 1450.18 -0.380192 -3.78495 0
M  V30 15541 H 1451.49 -0.279742 -4.98015 0
M  V30 15542 H 1450.64 1.94809 -5.74573 0
M  V30 15543 H 1449.38 1.92561 -4.48076 0
M  V30 15544 H 1448.39 -0.14355 -5.49613 0
M  V30 15545 H 1449.61 -0.102625 -6.79022 0
M  V30 15546 H 1447.56 2.06908 -6.22515 0
M  V30 15547 H 1447.48 0.90418 -7.50574 0
M  V30 15548 H 1448.74 2.09335 -7.50866 0
M  V30 15549 N 1452.97 1.53444 -0.359552 0
M  V30 15550 C 1453.88 2.29257 0.497834 0
M  V30 15551 C 1454.9 1.34987 1.09793 0
M  V30 15552 O 1456.07 1.68039 1.11017 0
M  V30 15553 C 1453.14 3.06258 1.62502 0
M  V30 15554 C 1452.2 4.16183 1.05308 0
M  V30 15555 C 1451.43 4.89503 2.12655 0
M  V30 15556 O 1451.66 4.6263 3.33661 0
M  V30 15557 O 1450.59 5.75578 1.76051 0
M  V30 15558 H 1454.42 3.03467 -0.118925 0
M  V30 15559 H 1452 1.48884 -0.124111 0
M  V30 15560 H 1453.88 3.5436 2.2805 0
M  V30 15561 H 1452.56 2.3489 2.22729 0
M  V30 15562 H 1451.47 3.72348 0.361679 0
M  V30 15563 H 1452.8 4.897 0.49545 0
M  V30 15564 N 1454.45 0.0885642 1.57351 0
M  V30 15565 C 1455.68 -0.585238 1.9845 0
M  V30 15566 C 1456.09 -1.62127 0.967483 0
M  V30 15567 O 1455.45 -1.82448 -0.0437565 0
M  V30 15568 C 1455.5 -1.23881 3.39611 0
M  V30 15569 O 1455.22 -0.244223 4.37419 0
M  V30 15570 C 1456.72 -1.99885 3.95678 0
M  V30 15571 H 1453.94 -0.157396 0.652279 0
M  V30 15572 H 1456.49 0.165923 2.03826 0
M  V30 15573 H 1454.64 -1.94094 3.3527 0
M  V30 15574 H 1455.06 -0.715149 5.19602 0
M  V30 15575 H 1456.53 -2.40983 4.9662 0
M  V30 15576 H 1457.01 -2.8621 3.33137 0
M  V30 15577 H 1457.61 -1.34501 4.03472 0
M  V30 15578 N 1455.93 -1.56509 -0.185096 0
M  V30 15579 C 1457.16 -1.85327 -0.91986 0
M  V30 15580 C 1457.57 -0.672294 -1.76425 0
M  V30 15581 O 1456.93 0.358854 -1.78937 0
M  V30 15582 C 1456.98 -3.13047 -1.80787 0
M  V30 15583 O 1456.7 -4.26591 -0.997569 0
M  V30 15584 C 1458.2 -3.55114 -2.65347 0
M  V30 15585 H 1455.42 -0.615196 -0.267909 0
M  V30 15586 H 1457.97 -2.03622 -0.189338 0
M  V30 15587 H 1456.12 -2.96619 -2.4919 0
M  V30 15588 H 1456.53 -4.99384 -1.60362 0
M  V30 15589 H 1458.01 -4.47419 -3.23295 0
M  V30 15590 H 1458.49 -2.78576 -3.39547 0
M  V30 15591 H 1459.09 -3.74105 -2.023 0
M  V30 15592 N 1457.41 0.45317 -1.50944 0
M  V30 15593 C 1458.65 1.20151 -1.62506 0
M  V30 15594 C 1458.98 1.92085 -0.335927 0
M  V30 15595 O 1458.25 1.84889 0.64751 0
M  V30 15596 H 1456.83 0.446502 -0.59887 0
M  V30 15597 H 1459.49 0.521103 -1.87804 0
M  V30 15598 H 1458.58 1.93972 -2.44502 0
M  V30 15599 N 1458.88 1.40823 0.707568 0
M  V30 15600 C 1459.83 1.4191 1.84294 0
M  V30 15601 C 1460.83 0.298592 1.66748 0
M  V30 15602 O 1462.03 0.47003 1.73755 0
M  V30 15603 H 1458.41 0.44376 0.607109 0
M  V30 15604 H 1460.38 2.37623 1.80494 0
M  V30 15605 C 1459.13 1.30643 3.22223 0
M  V30 15606 H 1458.45 2.16145 3.36335 0
M  V30 15607 H 1459.89 1.35463 4.01778 0
M  V30 15608 C 1458.35 0.0174867 3.36895 0
M  V30 15609 O 1458.88 -0.942398 3.90489 0
M  V30 15610 N 1457.09 -0.0546572 2.90549 0
M  V30 15611 H 1456.63 0.727204 2.47122 0
M  V30 15612 H 1456.59 -0.916521 3.00744 0
M  V30 15613 N 1460.36 -0.94061 1.26453 0
M  V30 15614 C 1461.61 -1.68132 1.1142 0
M  V30 15615 C 1461.92 -1.92587 -0.342006 0
M  V30 15616 O 1463.13 -2.64489 -0.613018 0
M  V30 15617 C 1461.59 -3.02758 1.94591 0
M  V30 15618 C 1461.19 -2.86049 3.4479 0
M  V30 15619 C 1462.94 -3.80516 1.88169 0
M  V30 15620 C 1460.85 -4.1615 4.20206 0
M  V30 15621 H 1459.78 -0.630591 0.413366 0
M  V30 15622 H 1462.43 -1.04602 1.50767 0
M  V30 15623 H 1460.81 -3.67272 1.48078 0
M  V30 15624 H 1461.98 -2.3038 3.99076 0
M  V30 15625 H 1460.3 -2.21732 3.52454 0
M  V30 15626 H 1462.89 -4.76904 2.41799 0
M  V30 15627 H 1463.24 -4.07477 0.852531 0
M  V30 15628 H 1463.77 -3.22776 2.32509 0
M  V30 15629 H 1460.51 -3.94373 5.23593 0
M  V30 15630 H 1460.03 -4.71531 3.707 0
M  V30 15631 H 1461.71 -4.84602 4.28684 0
M  V30 15632 N 1461.84 -1.08266 -1.14527 0
M  V30 15633 C 1462.8 -0.715117 -2.17758 0
M  V30 15634 C 1463.8 0.24935 -1.58855 0
M  V30 15635 O 1464.99 0.0290846 -1.74176 0
M  V30 15636 C 1462.13 -0.055575 -3.40855 0
M  V30 15637 H 1463.32 -1.62921 -2.51787 0
M  V30 15638 H 1460.87 -0.880346 -1.2915 0
M  V30 15639 H 1461.61 0.870312 -3.12404 0
M  V30 15640 H 1461.39 -0.749382 -3.84872 0
M  V30 15641 H 1462.88 0.186592 -4.17183 0
M  V30 15642 N 1463.32 1.31536 -0.86811 0
M  V30 15643 C 1464.56 1.98573 -0.484592 0
M  V30 15644 C 1464.92 1.6713 0.945066 0
M  V30 15645 O 1466.12 2.27364 1.43384 0
M  V30 15646 C 1464.4 3.49817 -0.732305 0
M  V30 15647 S 1465.95 4.36503 -0.448369 0
M  V30 15648 H 1462.77 0.687584 -0.180969 0
M  V30 15649 H 1465.37 1.59976 -1.12373 0
M  V30 15650 H 1464.08 3.70191 -1.77163 0
M  V30 15651 H 1463.61 3.93318 -0.0800886 0
M  V30 15652 H 1465.62 4.90947 0.720116 0
M  V30 15653 N 1464.8 0.627364 1.44575 0
M  V30 15654 C 1465.71 -0.0811184 2.3446 0
M  V30 15655 C 1466.72 -0.839668 1.52399 0
M  V30 15656 O 1467.9 -0.792784 1.8514 0
M  V30 15657 C 1464.96 -1.05296 3.30323 0
M  V30 15658 C 1464.03 -0.294201 4.28291 0
M  V30 15659 C 1463.26 -1.21975 5.19575 0
M  V30 15660 O 1463.48 -2.45834 5.14706 0
M  V30 15661 O 1462.42 -0.70611 5.97744 0
M  V30 15662 H 1466.24 0.658067 2.96485 0
M  V30 15663 H 1463.83 0.387565 1.44285 0
M  V30 15664 H 1465.71 -1.61218 3.89341 0
M  V30 15665 H 1464.38 -1.77283 2.70837 0
M  V30 15666 H 1463.29 0.307969 3.7283 0
M  V30 15667 H 1464.62 0.385567 4.90687 0
M  V30 15668 N 1466.28 -1.53251 0.367684 0
M  V30 15669 C 1467.55 -1.93617 -0.277842 0
M  V30 15670 C 1467.93 -1.3014 -1.66213 0
M  V30 15671 O 1467.28 -0.461277 -2.23796 0
M  V30 15672 C 1467.49 -3.47475 -0.325937 0
M  V30 15673 C 1468.84 -4.2082 -0.565276 0
M  V30 15674 O 1469.86 -3.53866 -0.407057 0
M  V30 15675 O 1468.72 -5.39474 -0.873522 0
M  V30 15676 H 1465.82 -0.80993 -0.167158 0
M  V30 15677 H 1468.36 -1.64405 0.420621 0
M  V30 15678 H 1467.13 -3.85955 0.644542 0
M  V30 15679 H 1466.76 -3.82926 -1.07021 0
M  V30 15680 N 1467.75 -0.0969077 -1.57302 0
M  V30 15681 C 1468.99 0.569724 -1.963 0
M  V30 15682 C 1469.36 1.65238 -0.977779 0
M  V30 15683 O 1470.56 2.37634 -1.25632 0
M  V30 15684 C 1468.83 1.10889 -3.39762 0
M  V30 15685 S 1470.39 1.78714 -4.00758 0
M  V30 15686 H 1467.21 0.185855 -0.686279 0
M  V30 15687 H 1469.81 -0.176741 -1.94699 0
M  V30 15688 H 1468.51 0.309441 -4.09232 0
M  V30 15689 H 1468.04 1.89114 -3.44963 0
M  V30 15690 H 1470.06 3.07149 -3.8971 0
M  V30 15691 N 1469.23 1.56605 0.176793 0
M  V30 15692 C 1470.46 1.8617 0.91408 0
M  V30 15693 C 1470.88 0.68262 1.75277 0
M  V30 15694 O 1470.24 -0.368391 1.77518 0
M  V30 15695 C 1470.29 3.14109 1.7711 0
M  V30 15696 O 1469.39 2.95947 2.87209 0
M  V30 15697 H 1468.73 0.612507 0.25638 0
M  V30 15698 H 1471.26 2.03837 0.176586 0
M  V30 15699 H 1471.27 3.45373 2.17213 0
M  V30 15700 H 1469.95 3.9954 1.15502 0
M  V30 15701 H 1468.52 2.76024 2.50729 0
M  V30 15702 N 1470.71 -0.445159 1.51182 0
M  V30 15703 C 1471.66 -1.53975 1.71931 0
M  V30 15704 C 1472.63 -1.56344 0.560865 0
M  V30 15705 O 1473.81 -1.73475 0.794414 0
M  V30 15706 C 1470.95 -2.91756 1.84316 0
M  V30 15707 C 1470.06 -2.98976 3.11829 0
M  V30 15708 C 1469.2 -4.27831 3.14855 0
M  V30 15709 C 1468.24 -4.2889 4.36715 0
M  V30 15710 N 1467.38 -5.49257 4.37334 0
M  V30 15711 H 1472.22 -1.35586 2.65368 0
M  V30 15712 H 1469.75 -0.658787 1.31523 0
M  V30 15713 H 1471.71 -3.7169 1.89479 0
M  V30 15714 H 1470.34 -3.08721 0.942947 0
M  V30 15715 H 1469.39 -2.11753 3.16014 0
M  V30 15716 H 1470.7 -2.95619 4.01759 0
M  V30 15717 H 1469.86 -5.16134 3.1889 0
M  V30 15718 H 1468.6 -4.33833 2.228 0
M  V30 15719 H 1467.6 -3.38982 4.32864 0
M  V30 15720 H 1468.83 -4.24558 5.30026 0
M  V30 15721 H 1466.77 -5.55995 3.48145 0
M  V30 15722 H 1466.69 -5.47748 5.21064 0
M  V30 15723 H 1467.96 -6.39613 4.45551 0
M  V30 15724 N 1472.19 -1.41197 -0.700089 0
M  V30 15725 C 1473.41 -1.43856 -1.494 0
M  V30 15726 C 1473.84 -0.0441877 -1.88048 0
M  V30 15727 O 1473.2 0.951503 -1.54325 0
M  V30 15728 C 1473.24 -2.34913 -2.73584 0
M  V30 15729 O 1472.35 -1.80305 -3.70896 0
M  V30 15730 H 1471.69 -0.488412 -0.449833 0
M  V30 15731 H 1474.22 -1.85606 -0.860911 0
M  V30 15732 H 1474.23 -2.50633 -3.21943 0
M  V30 15733 H 1472.9 -3.36229 -2.44791 0
M  V30 15734 H 1471.48 -1.74012 -3.29809 0
M  V30 15735 N 1473.67 0.933891 -1.2695 0
M  V30 15736 C 1474.91 1.68091 -1.12924 0
M  V30 15737 C 1475.24 1.91747 0.326088 0
M  V30 15738 O 1474.5 1.50126 1.25541 0
M  V30 15739 C 1474.79 3.05706 -1.85145 0
M  V30 15740 C 1474.46 3.01781 -3.35021 0
M  V30 15741 C 1473.12 3.00417 -3.75903 0
M  V30 15742 C 1475.47 2.93537 -4.3068 0
M  V30 15743 C 1472.8 2.88585 -5.10818 0
M  V30 15744 C 1475.15 2.83246 -5.65645 0
M  V30 15745 C 1473.82 2.80229 -6.05828 0
M  V30 15746 H 1473.09 0.615087 -0.413217 0
M  V30 15747 H 1475.74 1.08957 -1.57482 0
M  V30 15748 H 1474.04 3.68508 -1.33077 0
M  V30 15749 H 1475.74 3.62369 -1.71726 0
M  V30 15750 H 1472.33 3.03626 -3.02505 0
M  V30 15751 H 1476.51 2.93693 -4.00073 0
M  V30 15752 H 1471.77 2.84632 -5.41105 0
M  V30 15753 H 1475.94 2.75832 -6.39445 0
M  V30 15754 H 1473.57 2.70818 -7.10325 0
M  V30 15755 N 1475.14 1.08871 1.13951 0
M  V30 15756 C 1476.39 0.822504 1.85372 0
M  V30 15757 C 1476.72 -0.650183 1.82993 0
M  V30 15758 O 1476 -1.4783 1.26398 0
M  V30 15759 C 1476.28 1.35107 3.33793 0
M  V30 15760 C 1476.13 2.88945 3.44719 0
M  V30 15761 C 1477.45 0.980203 4.29045 0
M  V30 15762 H 1474.57 0.300255 0.673065 0
M  V30 15763 H 1477.21 1.34914 1.33784 0
M  V30 15764 H 1475.36 0.903108 3.77857 0
M  V30 15765 H 1477.04 3.42148 3.09407 0
M  V30 15766 H 1475.28 3.26365 2.85777 0
M  V30 15767 H 1475.95 3.21004 4.49066 0
M  V30 15768 H 1478.43 1.36646 3.93023 0
M  V30 15769 H 1477.3 1.37717 5.31343 0
M  V30 15770 H 1477.56 -0.112253 4.41957 0
M  V30 15771 N 1476.62 -1.31073 0.875073 0
M  V30 15772 C 1477.87 -1.95791 0.484661 0
M  V30 15773 C 1478.18 -1.69907 -0.969074 0
M  V30 15774 O 1479.39 -2.28527 -1.46587 0
M  V30 15775 C 1477.85 -3.50532 0.815804 0
M  V30 15776 C 1477.45 -3.85249 2.28664 0
M  V30 15777 C 1479.2 -4.21615 0.494111 0
M  V30 15778 C 1477.1 -5.33124 2.55993 0
M  V30 15779 H 1476.03 -0.732806 0.177516 0
M  V30 15780 H 1478.69 -1.49169 1.06868 0
M  V30 15781 H 1477.07 -3.95673 0.16098 0
M  V30 15782 H 1478.24 -3.51051 2.98496 0
M  V30 15783 H 1476.56 -3.27244 2.57488 0
M  V30 15784 H 1479.15 -5.30417 0.675456 0
M  V30 15785 H 1479.5 -4.12437 -0.565815 0
M  V30 15786 H 1480.03 -3.82125 1.1057 0
M  V30 15787 H 1476.77 -5.47343 3.60688 0
M  V30 15788 H 1476.29 -5.68657 1.90761 0
M  V30 15789 H 1477.97 -6.00446 2.40984 0
M  V30 15790 N 1478.1 -0.635022 -1.4424 0
M  V30 15791 C 1479.03 0.106038 -2.28955 0
M  V30 15792 C 1480.05 0.805076 -1.415 0
M  V30 15793 O 1481.23 0.665872 -1.65615 0
M  V30 15794 C 1478.33 1.17252 -3.1797 0
M  V30 15795 C 1477.51 0.555225 -4.33862 0
M  V30 15796 C 1476.57 1.51618 -5.03883 0
M  V30 15797 O 1475.59 1.03181 -5.5977 0
M  V30 15798 N 1476.79 2.85048 -5.05696 0
M  V30 15799 H 1479.56 -0.620999 -2.93196 0
M  V30 15800 H 1477.12 -0.476466 -1.5473 0
M  V30 15801 H 1479.11 1.81578 -3.61679 0
M  V30 15802 H 1477.68 1.80174 -2.55453 0
M  V30 15803 H 1476.9 -0.266745 -3.93296 0
M  V30 15804 H 1478.19 0.123529 -5.0865 0
M  V30 15805 H 1477.59 3.26977 -4.6163 0
M  V30 15806 H 1476.15 3.44724 -5.5318 0
M  V30 15807 N 1479.58 1.53054 -0.375806 0
M  V30 15808 C 1480.51 2.23664 0.500685 0
M  V30 15809 C 1481.52 1.25432 1.03782 0
M  V30 15810 O 1482.71 1.51592 0.942451 0
M  V30 15811 C 1479.81 2.9288 1.70513 0
M  V30 15812 C 1478.99 4.17706 1.29772 0
M  V30 15813 C 1478.04 4.7004 2.36536 0
M  V30 15814 O 1477.07 5.33466 1.98502 0
M  V30 15815 N 1478.27 4.48732 3.68266 0
M  V30 15816 H 1481.04 2.99519 -0.104201 0
M  V30 15817 H 1478.6 1.60641 -0.201488 0
M  V30 15818 H 1480.59 3.24795 2.41433 0
M  V30 15819 H 1479.16 2.20416 2.21665 0
M  V30 15820 H 1478.38 3.91978 0.41795 0
M  V30 15821 H 1479.67 4.98837 1.00197 0
M  V30 15822 H 1479.07 3.98075 4.01936 0
M  V30 15823 H 1477.62 4.85172 4.3526 0
M  V30 15824 N 1481.06 0.105248 1.57248 0
M  V30 15825 C 1482.31 -0.555797 1.93891 0
M  V30 15826 C 1482.62 -1.68703 0.989883 0
M  V30 15827 O 1483.82 -2.40991 1.25043 0
M  V30 15828 C 1482.28 -1.04006 3.44544 0
M  V30 15829 C 1481.89 0.0619641 4.47957 0
M  V30 15830 C 1483.63 -1.67327 3.90131 0
M  V30 15831 C 1481.54 -0.438229 5.89774 0
M  V30 15832 H 1480.47 -0.211391 0.723761 0
M  V30 15833 H 1483.12 0.182887 1.82586 0
M  V30 15834 H 1481.5 -1.83275 3.51036 0
M  V30 15835 H 1482.68 0.837803 4.5312 0
M  V30 15836 H 1480.99 0.600973 4.1204 0
M  V30 15837 H 1483.59 -2.0584 4.93492 0
M  V30 15838 H 1483.93 -2.54638 3.29341 0
M  V30 15839 H 1484.46 -0.946231 3.86382 0
M  V30 15840 H 1481.2 0.398506 6.54288 0
M  V30 15841 H 1480.72 -1.18085 5.88061 0
M  V30 15842 H 1482.4 -0.903922 6.40655 0
M  V30 15843 N 1482.53 -1.56697 -0.168486 0
M  V30 15844 C 1483.95 -1.71808 -0.730674 0
M  V30 15845 C 1484.3 -0.716224 -1.8266 0
M  V30 15846 O 1483.42 0.121803 -2.16057 0
M  V30 15847 C 1484.02 -3.1151 -1.33217 0
M  V30 15848 C 1482.58 -3.28297 -1.84115 0
M  V30 15849 C 1481.72 -2.67757 -0.72122 0
M  V30 15850 H 1484.67 -1.58598 0.0569421 0
M  V30 15851 H 1484.69 -3.10318 -2.20189 0
M  V30 15852 H 1484.21 -3.84404 -0.53431 0
M  V30 15853 H 1482.31 -2.60364 -2.66536 0
M  V30 15854 H 1482.42 -4.3606 -1.98464 0
M  V30 15855 H 1480.78 -2.27644 -1.14239 0
M  V30 15856 H 1481.57 -3.43239 0.0648388 0
M  V30 15857 N 1484.01 0.437135 -1.51416 0
M  V30 15858 C 1485.24 1.21359 -1.68187 0
M  V30 15859 C 1485.66 1.84247 -0.378748 0
M  V30 15860 O 1485.02 1.68816 0.661115 0
M  V30 15861 C 1485.07 2.27319 -2.79926 0
M  V30 15862 O 1484.17 3.32807 -2.43543 0
M  V30 15863 H 1483.51 0.355547 -0.560787 0
M  V30 15864 H 1486.04 0.516204 -1.97981 0
M  V30 15865 H 1486.05 2.721 -3.04016 0
M  V30 15866 H 1484.73 1.80923 -3.74486 0
M  V30 15867 H 1483.31 2.93501 -2.30025 0
M  V30 15868 N 1485.49 1.41566 0.692592 0
M  V30 15869 C 1486.72 1.44646 1.48635 0
M  V30 15870 C 1487.14 0.0541597 1.88022 0
M  V30 15871 O 1486.5 -0.943305 1.54827 0
M  V30 15872 C 1486.55 2.3636 2.72335 0
M  V30 15873 O 1485.65 1.8227 3.69934 0
M  V30 15874 H 1484.99 0.490791 0.447236 0
M  V30 15875 H 1487.52 1.8606 0.851056 0
M  V30 15876 H 1487.53 2.52337 3.20609 0
M  V30 15877 H 1486.21 3.37523 2.43004 0
M  V30 15878 H 1484.78 1.75759 3.28882 0
M  V30 15879 N 1486.97 -0.927146 1.27443 0
M  V30 15880 C 1487.92 -2.04917 1.10053 0
M  V30 15881 C 1488.91 -1.69384 0.0234668 0
M  V30 15882 O 1490.12 -1.79085 0.181228 0
M  V30 15883 H 1486.49 -0.671189 0.33913 0
M  V30 15884 H 1488.46 -2.16732 2.05109 0
M  V30 15885 C 1487.21 -3.39178 0.765072 0
M  V30 15886 H 1486.53 -3.67006 1.58577 0
M  V30 15887 H 1487.97 -4.18458 0.683266 0
M  V30 15888 C 1486.43 -3.32696 -0.530578 0
M  V30 15889 O 1486.96 -3.69967 -1.56484 0
M  V30 15890 N 1485.17 -2.85793 -0.526396 0
M  V30 15891 H 1484.72 -2.55658 0.315675 0
M  V30 15892 H 1484.67 -2.81838 -1.39337 0
M  V30 15893 N 1488.45 -1.09474 -1.13372 0
M  V30 15894 C 1489.38 -0.756441 -2.20908 0
M  V30 15895 C 1490.36 0.266113 -1.68006 0
M  V30 15896 O 1491.54 0.134067 -1.93737 0
M  V30 15897 C 1488.67 -0.176733 -3.4685 0
M  V30 15898 C 1487.63 -1.12886 -4.12845 0
M  V30 15899 C 1486.95 -0.410831 -5.33119 0
M  V30 15900 C 1488.25 -2.47148 -4.60125 0
M  V30 15901 H 1489.95 -1.65555 -2.49463 0
M  V30 15902 H 1487.49 -0.797458 -1.19902 0
M  V30 15903 H 1489.45 0.0720151 -4.21338 0
M  V30 15904 H 1488.17 0.757576 -3.17692 0
M  V30 15905 H 1486.83 -1.36289 -3.40325 0
M  V30 15906 H 1486.48 0.527632 -5.00225 0
M  V30 15907 H 1486.18 -1.04567 -5.78221 0
M  V30 15908 H 1487.7 -0.170394 -6.10362 0
M  V30 15909 H 1489.11 -2.27949 -5.26034 0
M  V30 15910 H 1487.51 -3.06425 -5.15969 0
M  V30 15911 H 1488.58 -3.07874 -3.74622 0
M  V30 15912 N 1489.92 1.30607 -0.882012 0
M  V30 15913 C 1491.17 1.96256 -0.498964 0
M  V30 15914 C 1491.5 1.69651 0.951259 0
M  V30 15915 O 1490.75 0.992303 1.68677 0
M  V30 15916 C 1491.05 3.50136 -0.716929 0
M  V30 15917 C 1490.72 3.96785 -2.14178 0
M  V30 15918 C 1489.38 4.09234 -2.53142 0
M  V30 15919 C 1491.73 4.21154 -3.07048 0
M  V30 15920 C 1489.06 4.43411 -3.84192 0
M  V30 15921 C 1491.41 4.56799 -4.37627 0
M  V30 15922 C 1490.08 4.67456 -4.76488 0
M  V30 15923 H 1489.35 0.718153 -0.182584 0
M  V30 15924 H 1491.99 1.55527 -1.1173 0
M  V30 15925 H 1490.3 3.91797 -0.0155388 0
M  V30 15926 H 1492 3.98998 -0.400196 0
M  V30 15927 H 1488.59 3.876 -1.82932 0
M  V30 15928 H 1492.77 4.1102 -2.78167 0
M  V30 15929 H 1488.03 4.49861 -4.14047 0
M  V30 15930 H 1492.2 4.74607 -5.09629 0
M  V30 15931 H 1489.83 4.93694 -5.78074 0
M  V30 15932 N 1491.4 0.642663 1.43901 0
M  V30 15933 C 1492.34 -0.104884 2.27959 0
M  V30 15934 C 1493.31 -0.840134 1.39214 0
M  V30 15935 O 1494.5 -0.841868 1.68656 0
M  V30 15936 C 1491.62 -1.15496 3.184 0
M  V30 15937 C 1490.67 -0.518946 4.23331 0
M  V30 15938 S 1491.5 0.699619 5.3091 0
M  V30 15939 C 1492.66 -0.350181 6.2492 0
M  V30 15940 H 1492.89 0.608181 2.91013 0
M  V30 15941 H 1490.43 0.431176 1.48257 0
M  V30 15942 H 1492.38 -1.75582 3.71054 0
M  V30 15943 H 1491.04 -1.84028 2.54544 0
M  V30 15944 H 1490.24 -1.31018 4.86673 0
M  V30 15945 H 1489.84 0.00756354 3.73999 0
M  V30 15946 H 1492.13 -1.21944 6.66435 0
M  V30 15947 H 1493.07 0.247942 7.07666 0
M  V30 15948 H 1493.48 -0.681254 5.60374 0
M  V30 15949 N 1492.88 -1.52852 0.383918 0
M  V30 15950 C 1494.13 -2.01809 -0.200285 0
M  V30 15951 C 1494.46 -1.27009 -1.46909 0
M  V30 15952 O 1493.74 -0.369002 -1.90968 0
M  V30 15953 C 1494.02 -3.56971 -0.473672 0
M  V30 15954 C 1493.87 -4.42446 0.810048 0
M  V30 15955 C 1495.19 -4.21481 -1.26658 0
M  V30 15956 H 1492.31 -0.733541 -0.0713192 0
M  V30 15957 H 1494.95 -1.8296 0.512425 0
M  V30 15958 H 1493.1 -3.73163 -1.08081 0
M  V30 15959 H 1494.77 -4.38016 1.44706 0
M  V30 15960 H 1493.02 -4.09674 1.42652 0
M  V30 15961 H 1493.69 -5.49013 0.573478 0
M  V30 15962 H 1496.16 -4.09233 -0.752806 0
M  V30 15963 H 1495.04 -5.30037 -1.42661 0
M  V30 15964 H 1495.3 -3.78756 -2.28028 0
M  V30 15965 N 1494.36 -0.113586 -1.5719 0
M  V30 15966 C 1495.61 0.546529 -1.95297 0
M  V30 15967 C 1495.94 1.66674 -0.996671 0
M  V30 15968 O 1495.21 1.94472 -0.0329298 0
M  V30 15969 C 1495.5 1.08433 -3.43387 0
M  V30 15970 C 1495.35 -0.0320929 -4.49789 0
M  V30 15971 C 1496.67 1.97691 -3.932 0
M  V30 15972 H 1493.79 0.197195 -0.710129 0
M  V30 15973 H 1496.43 -0.188048 -1.89067 0
M  V30 15974 H 1494.58 1.71033 -3.48827 0
M  V30 15975 H 1496.25 -0.66716 -4.5645 0
M  V30 15976 H 1494.49 -0.695983 -4.2818 0
M  V30 15977 H 1495.17 0.385341 -5.50653 0
M  V30 15978 H 1497.64 1.4497 -3.90029 0
M  V30 15979 H 1496.52 2.3224 -4.97349 0
M  V30 15980 H 1496.78 2.90137 -3.33576 0
M  V30 15981 N 1495.84 1.56784 0.160173 0
M  V30 15982 C 1497.08 1.82891 0.876278 0
M  V30 15983 C 1497.42 0.693173 1.81408 0
M  V30 15984 O 1496.69 -0.304136 1.92107 0
M  V30 15985 C 1496.97 3.19439 1.66226 0
M  V30 15986 C 1496.83 4.43557 0.746831 0
M  V30 15987 C 1498.15 3.53053 2.62758 0
M  V30 15988 H 1495.27 0.665285 0.31712 0
M  V30 15989 H 1497.91 1.89469 0.142004 0
M  V30 15990 H 1496.06 3.13962 2.28823 0
M  V30 15991 H 1497.73 4.61109 0.132876 0
M  V30 15992 H 1495.97 4.33764 0.0555625 0
M  V30 15993 H 1496.64 5.35675 1.33253 0
M  V30 15994 H 1499.12 3.59054 2.10284 0
M  V30 15995 H 1498 4.4965 3.14811 0
M  V30 15996 H 1498.26 2.78329 3.4349 0
M  V30 15997 N 1497.32 -0.429099 1.51646 0
M  V30 15998 C 1498.59 -1.18958 1.55269 0
M  V30 15999 C 1498.97 -2.08633 0.321816 0
M  V30 16000 O 1498.32 -2.1775 -0.69261 0
M  V30 16001 C 1498.53 -1.98427 2.87102 0
M  V30 16002 C 1499.88 -2.55185 3.39361 0
M  V30 16003 O 1500.9 -2.08629 2.88708 0
M  V30 16004 O 1499.76 -3.40119 4.27763 0
M  V30 16005 H 1496.86 -0.542041 0.624596 0
M  V30 16006 H 1499.4 -0.437499 1.63964 0
M  V30 16007 H 1498.17 -1.32613 3.68143 0
M  V30 16008 H 1497.8 -2.80683 2.81608 0
M  V30 16009 N 1498.79 -1.41931 -0.685074 0
M  V30 16010 C 1500.02 -1.45432 -1.47866 0
M  V30 16011 C 1500.44 -0.0641302 -1.87991 0
M  V30 16012 O 1499.8 0.935081 -1.55325 0
M  V30 16013 C 1499.85 -2.37801 -2.71077 0
M  V30 16014 O 1498.95 -1.84229 -3.68963 0
M  V30 16015 H 1498.29 -0.493156 -0.444627 0
M  V30 16016 H 1500.82 -1.86508 -0.841177 0
M  V30 16017 H 1500.83 -2.54033 -3.19266 0
M  V30 16018 H 1499.51 -3.38807 -2.41211 0
M  V30 16019 H 1498.09 -1.775 -3.27945 0
M  V30 16020 N 1500.27 0.920374 -1.27933 0
M  V30 16021 C 1501.5 1.70804 -1.17647 0
M  V30 16022 C 1501.92 1.86264 0.262189 0
M  V30 16023 O 1501.28 1.36798 1.18979 0
M  V30 16024 C 1501.33 3.08142 -1.87298 0
M  V30 16025 O 1500.43 3.95279 -1.17593 0
M  V30 16026 H 1499.77 0.523267 -0.408763 0
M  V30 16027 H 1502.3 1.15127 -1.69136 0
M  V30 16028 H 1502.31 3.58414 -1.94945 0
M  V30 16029 H 1500.99 2.96208 -2.91948 0
M  V30 16030 H 1499.56 3.53716 -1.18065 0
M  V30 16031 N 1501.75 1.10074 1.1279 0
M  V30 16032 C 1502.99 0.850621 1.8586 0
M  V30 16033 C 1503.35 -0.612685 1.81962 0
M  V30 16034 O 1504.55 -0.979003 2.50338 0
M  V30 16035 C 1502.83 1.3793 3.29712 0
M  V30 16036 S 1504.38 1.26406 4.20199 0
M  V30 16037 H 1501.2 0.307475 0.641077 0
M  V30 16038 H 1503.8 1.40544 1.35895 0
M  V30 16039 H 1502.51 2.43841 3.30106 0
M  V30 16040 H 1502.04 0.820901 3.8474 0
M  V30 16041 H 1504.05 0.219313 4.95715 0
M  V30 16042 N 1503.23 -1.30138 0.888926 0
M  V30 16043 C 1504.16 -2.3047 0.374934 0
M  V30 16044 C 1505.14 -1.61156 -0.544322 0
M  V30 16045 O 1506.32 -1.88738 -0.457337 0
M  V30 16046 C 1503.45 -3.44896 -0.407935 0
M  V30 16047 C 1502.41 -4.25935 0.419916 0
M  V30 16048 C 1501.73 -5.32452 -0.489797 0
M  V30 16049 C 1503.03 -4.9508 1.66413 0
M  V30 16050 H 1504.73 -2.73711 1.21337 0
M  V30 16051 H 1502.27 -1.31586 0.584899 0
M  V30 16052 H 1504.23 -4.14153 -0.778177 0
M  V30 16053 H 1502.95 -3.0047 -1.28005 0
M  V30 16054 H 1501.61 -3.58372 0.772348 0
M  V30 16055 H 1501.26 -4.84273 -1.35974 0
M  V30 16056 H 1500.96 -5.87569 0.0603412 0
M  V30 16057 H 1502.48 -6.04563 -0.856468 0
M  V30 16058 H 1503.9 -5.56831 1.36425 0
M  V30 16059 H 1502.29 -5.6008 2.15477 0
M  V30 16060 H 1503.36 -4.20981 2.4063 0
M  V30 16061 N 1504.71 -0.650285 -1.43559 0
M  V30 16062 C 1505.95 -0.166046 -2.03724 0
M  V30 16063 C 1506.31 1.19631 -1.50174 0
M  V30 16064 O 1507.51 1.77379 -2.01966 0
M  V30 16065 C 1505.78 -0.172648 -3.56983 0
M  V30 16066 S 1507.34 0.244173 -4.3812 0
M  V30 16067 H 1504.16 -0.0705044 -0.707496 0
M  V30 16068 H 1506.76 -0.857964 -1.75668 0
M  V30 16069 H 1505.46 -1.16696 -3.93459 0
M  V30 16070 H 1505 0.539902 -3.89678 0
M  V30 16071 H 1507.01 1.48378 -4.73496 0
M  V30 16072 N 1506.18 1.52647 -0.392018 0
M  V30 16073 C 1507.09 2.30261 0.449093 0
M  V30 16074 C 1508.11 1.37286 1.06905 0
M  V30 16075 O 1509.29 1.70357 1.07427 0
M  V30 16076 C 1506.35 3.09636 1.55969 0
M  V30 16077 C 1505.41 4.18324 0.964566 0
M  V30 16078 C 1504.64 4.93904 2.02224 0
M  V30 16079 O 1504.87 4.69603 3.23773 0
M  V30 16080 O 1503.8 5.79183 1.63802 0
M  V30 16081 H 1507.63 3.03147 -0.183269 0
M  V30 16082 H 1505.21 1.48587 -0.155664 0
M  V30 16083 H 1507.09 3.59118 2.20482 0
M  V30 16084 H 1505.77 2.39561 2.17697 0
M  V30 16085 H 1504.68 3.73031 0.282618 0
M  V30 16086 H 1506.01 4.90641 0.391466 0
M  V30 16087 N 1507.66 0.121921 1.57128 0
M  V30 16088 C 1508.89 -0.546325 2.00075 0
M  V30 16089 C 1509.31 -1.59245 1.00113 0
M  V30 16090 O 1508.67 -1.8128 -0.0267687 0
M  V30 16091 C 1508.72 -1.14651 3.41888 0
M  V30 16092 O 1507.82 -2.26199 3.4483 0
M  V30 16093 H 1507.16 -0.136184 0.649885 0
M  V30 16094 H 1509.69 0.211257 2.03506 0
M  V30 16095 H 1509.7 -1.48133 3.80159 0
M  V30 16096 H 1508.38 -0.380273 4.14158 0
M  V30 16097 H 1506.96 -1.94134 3.18381 0
M  V30 16098 N 1509.14 -1.56867 -0.151857 0
M  V30 16099 C 1510.39 -1.83353 -0.866566 0
M  V30 16100 C 1510.72 -0.702784 -1.81038 0
M  V30 16101 O 1509.99 0.293944 -1.92266 0
M  V30 16102 C 1510.28 -3.20316 -1.64529 0
M  V30 16103 C 1510.13 -4.43946 -0.723297 0
M  V30 16104 C 1511.45 -3.54441 -2.60882 0
M  V30 16105 H 1508.57 -0.666957 -0.313588 0
M  V30 16106 H 1511.21 -1.89541 -0.131954 0
M  V30 16107 H 1509.36 -3.15172 -2.27154 0
M  V30 16108 H 1511.03 -4.61173 -0.10842 0
M  V30 16109 H 1509.28 -4.33788 -0.0325582 0
M  V30 16110 H 1509.95 -5.36374 -1.3041 0
M  V30 16111 H 1512.42 -3.60164 -2.08377 0
M  V30 16112 H 1511.3 -4.51314 -3.12422 0
M  V30 16113 H 1511.56 -2.80146 -3.42009 0
M  V30 16114 N 1510.62 0.421051 -1.51871 0
M  V30 16115 C 1511.58 1.49478 -1.73749 0
M  V30 16116 C 1512.58 1.48887 -0.607395 0
M  V30 16117 O 1513.77 1.50622 -0.875143 0
M  V30 16118 C 1510.9 2.88947 -1.80893 0
M  V30 16119 H 1512.1 1.31377 -2.69593 0
M  V30 16120 H 1509.65 0.650786 -1.42107 0
M  V30 16121 H 1510.38 3.12434 -0.86922 0
M  V30 16122 H 1510.17 2.90781 -2.63038 0
M  V30 16123 H 1511.66 3.66809 -1.99602 0
M  V30 16124 N 1512.1 1.42293 0.677538 0
M  V30 16125 C 1513.51 1.37948 1.25806 0
M  V30 16126 C 1513.86 0.071408 1.9607 0
M  V30 16127 O 1512.98 -0.829921 1.99853 0
M  V30 16128 C 1513.58 2.49875 2.28797 0
M  V30 16129 C 1512.14 2.48872 2.82382 0
M  V30 16130 C 1511.28 2.28804 1.56665 0
M  V30 16131 H 1514.24 1.51546 0.471102 0
M  V30 16132 H 1514.26 2.19969 3.10474 0
M  V30 16133 H 1513.77 3.45065 1.77629 0
M  V30 16134 H 1511.87 1.57492 3.37679 0
M  V30 16135 H 1511.98 3.45816 3.31585 0
M  V30 16136 H 1510.35 1.77014 1.83135 0
M  V30 16137 H 1511.13 3.26046 1.07467 0
M  V30 16138 N 1513.57 -0.913576 1.28419 0
M  V30 16139 C 1514.82 -1.65731 1.14961 0
M  V30 16140 C 1515.14 -1.93269 -0.301079 0
M  V30 16141 O 1516.34 -2.6573 -0.556778 0
M  V30 16142 C 1514.8 -2.98562 2.00969 0
M  V30 16143 C 1514.41 -2.78671 3.5078 0
M  V30 16144 C 1516.15 -3.76439 1.96198 0
M  V30 16145 C 1514.06 -4.07144 4.28938 0
M  V30 16146 H 1512.99 -0.621681 0.426648 0
M  V30 16147 H 1515.64 -1.0138 1.52952 0
M  V30 16148 H 1514.02 -3.64049 1.55835 0
M  V30 16149 H 1515.19 -2.21864 4.03873 0
M  V30 16150 H 1513.51 -2.14206 3.57078 0
M  V30 16151 H 1516.11 -4.71668 2.51861 0
M  V30 16152 H 1516.45 -4.05577 0.938771 0
M  V30 16153 H 1516.98 -3.17772 2.39303 0
M  V30 16154 H 1513.72 -3.83178 5.31841 0
M  V30 16155 H 1513.24 -4.63562 3.80619 0
M  V30 16156 H 1514.92 -4.754 4.38866 0
M  V30 16157 N 1515.05 -1.1067 -1.12204 0
M  V30 16158 C 1516.28 -0.872867 -1.87586 0
M  V30 16159 C 1516.7 0.57682 -1.79773 0
M  V30 16160 O 1516.05 1.39782 -1.17334 0
M  V30 16161 C 1516.1 -1.31572 -3.36706 0
M  V30 16162 O 1515.82 -2.70856 -3.44338 0
M  V30 16163 C 1517.33 -1.11613 -4.29019 0
M  V30 16164 H 1514.55 -0.313132 -0.593455 0
M  V30 16165 H 1517.09 -1.47199 -1.4196 0
M  V30 16166 H 1515.24 -0.760212 -3.79868 0
M  V30 16167 H 1515.66 -2.89854 -4.37132 0
M  V30 16168 H 1517.13 -1.4751 -5.31925 0
M  V30 16169 H 1517.61 -0.0549698 -4.39166 0
M  V30 16170 H 1518.22 -1.65822 -3.91642 0
M  V30 16171 N 1516.53 1.29665 -0.895815 0
M  V30 16172 C 1517.46 2.26013 -0.315211 0
M  V30 16173 C 1518.44 1.52267 0.570404 0
M  V30 16174 O 1519.63 1.81241 0.518081 0
M  V30 16175 C 1516.75 3.34187 0.551068 0
M  V30 16176 C 1515.8 4.25665 -0.266698 0
M  V30 16177 S 1516.63 5.09056 -1.66198 0
M  V30 16178 C 1517.79 6.20734 -0.80252 0
M  V30 16179 H 1518.02 2.74911 -1.13187 0
M  V30 16180 H 1515.55 1.37827 -0.695913 0
M  V30 16181 H 1517.51 3.96973 1.04511 0
M  V30 16182 H 1516.17 2.83991 1.34193 0
M  V30 16183 H 1515.37 5.02451 0.394869 0
M  V30 16184 H 1514.97 3.6751 -0.69374 0
M  V30 16185 H 1517.26 6.77496 -0.0242039 0
M  V30 16186 H 1518.2 6.91099 -1.54233 0
M  V30 16187 H 1518.61 5.6336 -0.358625 0
M  V30 16188 N 1518.01 0.657889 1.43212 0
M  V30 16189 C 1518.97 -0.0214783 2.2919 0
M  V30 16190 C 1519.97 -0.745921 1.42452 0
M  V30 16191 O 1521.16 -0.586468 1.64031 0
M  V30 16192 C 1518.29 -1.04115 3.24612 0
M  V30 16193 H 1519.49 0.735072 2.90752 0
M  V30 16194 H 1517.04 0.419354 1.50569 0
M  V30 16195 H 1517.77 -1.82677 2.67954 0
M  V30 16196 H 1517.56 -0.525285 3.88566 0
M  V30 16197 H 1519.05 -1.51544 3.89132 0
M  V30 16198 N 1519.49 -1.52437 0.400108 0
M  V30 16199 C 1520.9 -1.86563 -0.0715162 0
M  V30 16200 C 1521.25 -1.3193 -1.4522 0
M  V30 16201 O 1520.37 -0.654955 -2.06251 0
M  V30 16202 C 1520.97 -3.38525 -0.13655 0
M  V30 16203 C 1519.53 -3.72323 -0.55249 0
M  V30 16204 C 1518.67 -2.75896 0.278729 0
M  V30 16205 H 1521.63 -1.46192 0.617547 0
M  V30 16206 H 1521.65 -3.68357 -0.953588 0
M  V30 16207 H 1521.16 -3.78258 0.868468 0
M  V30 16208 H 1519.26 -3.38164 -1.56448 0
M  V30 16209 H 1519.37 -4.7814 -0.303139 0
M  V30 16210 H 1517.74 -2.53394 -0.257608 0
M  V30 16211 H 1518.52 -3.18467 1.28193 0
M  V30 16212 N 1520.96 -0.130252 -1.57061 0
M  V30 16213 C 1522.21 0.52488 -1.94751 0
M  V30 16214 C 1522.53 1.67107 -1.0166 0
M  V30 16215 O 1523.73 2.38971 -1.28861 0
M  V30 16216 C 1522.19 0.985118 -3.46155 0
M  V30 16217 C 1521.8 -0.133222 -4.47802 0
M  V30 16218 C 1523.54 1.61099 -3.92743 0
M  V30 16219 C 1521.45 0.344346 -5.90397 0
M  V30 16220 H 1520.38 0.19985 -0.727032 0
M  V30 16221 H 1523.03 -0.211912 -1.82272 0
M  V30 16222 H 1521.41 1.77667 -3.53907 0
M  V30 16223 H 1522.58 -0.909784 -4.5173 0
M  V30 16224 H 1520.9 -0.666449 -4.11032 0
M  V30 16225 H 1523.5 1.97963 -4.96704 0
M  V30 16226 H 1523.84 2.49366 -3.3335 0
M  V30 16227 H 1524.37 0.884641 -3.87839 0
M  V30 16228 H 1521.11 -0.502547 -6.53571 0
M  V30 16229 H 1520.63 1.08714 -5.89865 0
M  V30 16230 H 1522.31 0.801885 -6.42012 0
M  V30 16231 N 1522.44 1.56945 0.143535 0
M  V30 16232 C 1523.35 2.01795 1.1965 0
M  V30 16233 C 1524.37 0.933965 1.4681 0
M  V30 16234 O 1525.55 1.2437 1.58411 0
M  V30 16235 C 1522.61 2.39249 2.5092 0
M  V30 16236 C 1521.67 3.61613 2.31376 0
M  V30 16237 C 1520.9 3.97271 3.56386 0
M  V30 16238 O 1521.13 3.33552 4.62709 0
M  V30 16239 O 1520.06 4.90501 3.48844 0
M  V30 16240 H 1523.89 2.91687 0.845718 0
M  V30 16241 H 1521.47 1.45182 0.352518 0
M  V30 16242 H 1523.35 2.64184 3.28306 0
M  V30 16243 H 1522.03 1.52511 2.85521 0
M  V30 16244 H 1520.94 3.4186 1.51929 0
M  V30 16245 H 1522.27 4.48979 2.01689 0
M  V30 16246 N 1523.92 -0.412991 1.52093 0
M  V30 16247 C 1525.17 -1.15737 1.65191 0
M  V30 16248 C 1525.48 -1.91753 0.38601 0
M  V30 16249 O 1526.69 -2.68586 0.396731 0
M  V30 16250 C 1525.15 -2.10619 2.91835 0
M  V30 16251 C 1524.75 -1.40137 4.25518 0
M  V30 16252 C 1526.5 -2.85339 3.14296 0
M  V30 16253 C 1524.4 -2.33645 5.4329 0
M  V30 16254 H 1523.33 -0.435732 0.615348 0
M  V30 16255 H 1525.99 -0.422172 1.78578 0
M  V30 16256 H 1524.37 -2.87675 2.72138 0
M  V30 16257 H 1525.54 -0.684719 4.55684 0
M  V30 16258 H 1523.86 -0.774734 4.09129 0
M  V30 16259 H 1526.45 -3.55437 3.99461 0
M  V30 16260 H 1526.8 -3.48071 2.28369 0
M  V30 16261 H 1527.33 -2.15384 3.34447 0
M  V30 16262 H 1524.07 -1.75566 6.31551 0
M  V30 16263 H 1523.59 -3.03294 5.17467 0
M  V30 16264 H 1525.27 -2.94255 5.76215 0
M  V30 16265 N 1525.4 -1.4265 -0.669982 0
M  V30 16266 C 1526.82 -1.25682 -0.983682 0
M  V30 16267 C 1527.02 -0.164456 -2.00828 0
M  V30 16268 O 1526.07 0.462711 -2.48224 0
M  V30 16269 C 1527.38 -2.61536 -1.4839 0
M  V30 16270 C 1528.93 -2.6893 -1.60143 0
M  V30 16271 C 1529.41 -4.05162 -2.1356 0
M  V30 16272 N 1530.9 -4.07141 -2.20886 0
M  V30 16273 C 1531.63 -5.09371 -2.63303 0
M  V30 16274 N 1531.13 -6.21983 -3.05137 0
M  V30 16275 N 1532.92 -4.96727 -2.63094 0
M  V30 16276 H 1525.07 -2.12398 0.0083059 0
M  V30 16277 H 1527.34 -0.946173 -0.058823 0
M  V30 16278 H 1527.04 -3.42351 -0.805527 0
M  V30 16279 H 1526.92 -2.85786 -2.46183 0
M  V30 16280 H 1529.3 -1.88457 -2.27085 0
M  V30 16281 H 1529.38 -2.48463 -0.608266 0
M  V30 16282 H 1529.03 -4.86094 -1.47224 0
M  V30 16283 H 1528.96 -4.22984 -3.13676 0
M  V30 16284 H 1531.45 -3.25846 -1.91396 0
M  V30 16285 H 1531.76 -6.95835 -3.36204 0
M  V30 16286 H 1530.11 -6.25481 -3.02983 0
M  V30 16287 H 1533.3 -4.07824 -2.29777 0
M  V30 16288 H 1533.47 -5.76531 -2.95831 0
M  V30 16289 N 1526.88 0.906753 -1.28902 0
M  V30 16290 C 1528.11 1.68774 -1.1916 0
M  V30 16291 C 1528.52 1.87523 0.251339 0
M  V30 16292 O 1527.86 1.4071 1.18095 0
M  V30 16293 C 1527.92 3.09676 -1.82596 0
M  V30 16294 C 1527.58 3.14185 -3.31869 0
M  V30 16295 C 1528.58 2.94858 -4.282 0
M  V30 16296 C 1526.27 3.36476 -3.72947 0
M  V30 16297 C 1528.26 2.97744 -5.63584 0
M  V30 16298 C 1525.95 3.38993 -5.08456 0
M  V30 16299 C 1526.95 3.19648 -6.03584 0
M  V30 16300 O 1526.63 3.2194 -7.3662 0
M  V30 16301 H 1526.37 0.534133 -0.41434 0
M  V30 16302 H 1528.92 1.14282 -1.70671 0
M  V30 16303 H 1527.15 3.65739 -1.25587 0
M  V30 16304 H 1528.84 3.6983 -1.67273 0
M  V30 16305 H 1529.6 2.77456 -3.97798 0
M  V30 16306 H 1525.48 3.50576 -2.99362 0
M  V30 16307 H 1529.03 2.82563 -6.37812 0
M  V30 16308 H 1524.92 3.55924 -5.38506 0
M  V30 16309 H 1525.69 3.38255 -7.45336 0
M  V30 16310 N 1528.36 1.11264 1.11616 0
M  V30 16311 C 1529.3 0.764321 2.19684 0
M  V30 16312 C 1530.3 -0.243396 1.67642 0
M  V30 16313 O 1531.5 -0.102869 1.79706 0
M  V30 16314 H 1527.88 0.229275 0.716196 0
M  V30 16315 H 1529.85 1.68445 2.46311 0
M  V30 16316 C 1528.6 0.22175 3.46992 0
M  V30 16317 H 1527.92 0.988422 3.87389 0
M  V30 16318 H 1529.36 0.0161946 4.23997 0
M  V30 16319 C 1527.82 -1.04755 3.202 0
M  V30 16320 O 1528.35 -2.12758 3.4073 0
M  V30 16321 N 1526.56 -0.969608 2.73947 0
M  V30 16322 H 1526.1 -0.0906063 2.57441 0
M  V30 16323 H 1526.06 -1.81955 2.56397 0
M  V30 16324 N 1529.83 -1.29188 0.902679 0
M  V30 16325 C 1530.74 -2.3138 0.387363 0
M  V30 16326 C 1531.76 -1.66067 -0.519396 0
M  V30 16327 O 1532.94 -1.97219 -0.408257 0
M  V30 16328 C 1530 -3.44675 -0.374137 0
M  V30 16329 C 1529.06 -4.25572 0.564503 0
M  V30 16330 C 1528.29 -5.33458 -0.160748 0
M  V30 16331 O 1528.52 -5.53349 -1.38423 0
M  V30 16332 O 1527.45 -5.99834 0.498259 0
M  V30 16333 H 1531.28 -2.77444 1.23525 0
M  V30 16334 H 1528.86 -1.33679 0.667106 0
M  V30 16335 H 1530.74 -4.13647 -0.80464 0
M  V30 16336 H 1529.42 -3.00714 -1.19804 0
M  V30 16337 H 1528.33 -3.59232 1.04418 0
M  V30 16338 H 1529.66 -4.73184 1.3549 0
M  V30 16339 N 1531.31 -0.665475 -1.42861 0
M  V30 16340 C 1532.54 -0.190399 -2.06524 0
M  V30 16341 C 1532.96 1.13995 -1.49622 0
M  V30 16342 O 1532.32 1.70695 -0.610981 0
M  V30 16343 C 1532.37 -0.12594 -3.6038 0
M  V30 16344 O 1531.47 0.908299 -4.02273 0
M  V30 16345 H 1530.81 -0.100495 -0.656351 0
M  V30 16346 H 1533.34 -0.911858 -1.83156 0
M  V30 16347 H 1533.35 0.0533153 -4.07965 0
M  V30 16348 H 1532.03 -1.09703 -4.01171 0
M  V30 16349 H 1530.6 0.700841 -3.66255 0
M  V30 16350 N 1532.79 1.52222 -0.408187 0
M  V30 16351 C 1533.72 2.29892 0.408868 0
M  V30 16352 C 1534.7 1.34063 1.04695 0
M  V30 16353 O 1535.89 1.6297 1.05615 0
M  V30 16354 C 1533.02 3.11964 1.52629 0
M  V30 16355 C 1531.97 4.15833 1.01326 0
M  V30 16356 C 1531.3 4.86244 2.2242 0
M  V30 16357 C 1532.6 5.22256 0.0679573 0
M  V30 16358 H 1534.29 2.98443 -0.23923 0
M  V30 16359 H 1531.84 1.43528 -0.116496 0
M  V30 16360 H 1533.79 3.65067 2.10486 0
M  V30 16361 H 1532.51 2.41181 2.20225 0
M  V30 16362 H 1531.17 3.63739 0.4571 0
M  V30 16363 H 1530.82 4.11991 2.88569 0
M  V30 16364 H 1530.52 5.56461 1.88746 0
M  V30 16365 H 1532.04 5.42159 2.80885 0
M  V30 16366 H 1533.46 5.70604 0.555295 0
M  V30 16367 H 1531.85 5.9983 -0.179934 0
M  V30 16368 H 1532.92 4.76892 -0.877599 0
M  V30 16369 N 1534.27 0.138579 1.5699 0
M  V30 16370 C 1535.21 -0.804305 2.16332 0
M  V30 16371 C 1536.18 -1.25002 1.09379 0
M  V30 16372 O 1537.37 -1.32405 1.37381 0
M  V30 16373 C 1534.51 -2.04137 2.78248 0
M  V30 16374 C 1533.62 -1.64223 3.99568 0
M  V30 16375 C 1532.76 -2.83046 4.49509 0
M  V30 16376 C 1531.8 -2.39465 5.63314 0
M  V30 16377 N 1530.93 -3.51267 6.07911 0
M  V30 16378 H 1535.77 -0.29144 2.96571 0
M  V30 16379 H 1533.31 -0.132146 1.46505 0
M  V30 16380 H 1535.27 -2.76646 3.12286 0
M  V30 16381 H 1533.9 -2.52849 2.00667 0
M  V30 16382 H 1532.95 -0.815123 3.71564 0
M  V30 16383 H 1534.26 -1.2821 4.82041 0
M  V30 16384 H 1533.42 -3.63755 4.85559 0
M  V30 16385 H 1532.16 -3.22298 3.66026 0
M  V30 16386 H 1531.16 -1.57193 5.2685 0
M  V30 16387 H 1532.39 -2.01307 6.48577 0
M  V30 16388 H 1530.33 -3.90156 5.27365 0
M  V30 16389 H 1530.25 -3.19241 6.85289 0
M  V30 16390 H 1531.52 -4.32358 6.48604 0
M  V30 16391 N 1535.75 -1.57019 -0.13521 0
M  V30 16392 C 1536.99 -1.85801 -0.851896 0
M  V30 16393 C 1537.35 -0.724449 -1.77808 0
M  V30 16394 O 1538.55 -0.893619 -2.53511 0
M  V30 16395 C 1536.82 -3.19788 -1.59595 0
M  V30 16396 S 1538.38 -3.70159 -2.35644 0
M  V30 16397 H 1535.2 -0.651534 -0.284649 0
M  V30 16398 H 1537.8 -1.95184 -0.111177 0
M  V30 16399 H 1536.5 -4.00247 -0.907221 0
M  V30 16400 H 1536.04 -3.13441 -2.37735 0
M  V30 16401 H 1538.05 -3.40364 -3.61063 0
M  V30 16402 N 1537.22 0.404919 -1.52309 0
M  V30 16403 C 1538.13 1.51822 -1.7885 0
M  V30 16404 C 1539.15 1.60403 -0.674307 0
M  V30 16405 O 1540.33 1.77038 -0.960175 0
M  V30 16406 C 1537.39 2.87516 -1.9374 0
M  V30 16407 C 1536.45 2.88787 -3.17648 0
M  V30 16408 C 1535.69 4.18009 -3.31819 0
M  V30 16409 O 1535.91 5.12129 -2.51158 0
M  V30 16410 O 1534.84 4.26222 -4.24992 0
M  V30 16411 H 1538.67 1.32329 -2.73354 0
M  V30 16412 H 1536.25 0.591193 -1.37205 0
M  V30 16413 H 1538.14 3.6799 -2.05333 0
M  V30 16414 H 1536.81 3.07068 -1.02425 0
M  V30 16415 H 1535.72 2.07152 -3.11511 0
M  V30 16416 H 1537.05 2.74185 -4.08758 0
M  V30 16417 N 1538.7 1.43003 0.662408 0
M  V30 16418 C 1540.12 1.26201 0.977003 0
M  V30 16419 C 1540.32 0.175104 2.00738 0
M  V30 16420 O 1539.37 -0.44954 2.48466 0
M  V30 16421 C 1540.69 2.62319 1.47001 0
M  V30 16422 C 1542.24 2.69776 1.58714 0
M  V30 16423 C 1542.71 4.06289 2.11408 0
M  V30 16424 N 1544.2 4.08307 2.18724 0
M  V30 16425 C 1544.94 5.10761 2.60598 0
M  V30 16426 N 1544.43 6.23593 3.01834 0
M  V30 16427 N 1546.23 4.98115 2.60456 0
M  V30 16428 H 1538.38 2.12391 -0.0195698 0
M  V30 16429 H 1540.64 0.946472 0.0538044 0
M  V30 16430 H 1540.35 3.42773 0.78736 0
M  V30 16431 H 1540.22 2.87088 2.44664 0
M  V30 16432 H 1542.61 1.89659 2.26083 0
M  V30 16433 H 1542.69 2.48782 0.595081 0
M  V30 16434 H 1542.33 4.86868 1.44644 0
M  V30 16435 H 1542.26 4.24641 3.11428 0
M  V30 16436 H 1544.75 3.26857 1.89665 0
M  V30 16437 H 1545.07 6.97609 3.32509 0
M  V30 16438 H 1543.41 6.27079 2.99661 0
M  V30 16439 H 1546.6 4.09037 2.27611 0
M  V30 16440 H 1546.77 5.78092 2.92769 0
M  V30 16441 N 1540.18 -0.899904 1.29381 0
M  V30 16442 C 1541.11 -2.02045 1.17047 0
M  V30 16443 C 1542.09 -1.69977 0.0647354 0
M  V30 16444 O 1543.28 -1.92659 0.244173 0
M  V30 16445 C 1540.41 -3.36839 0.845991 0
M  V30 16446 C 1539.36 -3.83117 1.90802 0
M  V30 16447 C 1538.69 -5.15032 1.43686 0
M  V30 16448 C 1539.99 -4.03464 3.31684 0
M  V30 16449 H 1541.68 -2.12623 2.10789 0
M  V30 16450 H 1539.23 -1.02162 1.01484 0
M  V30 16451 H 1541.18 -4.14737 0.746413 0
M  V30 16452 H 1539.9 -3.26352 -0.127125 0
M  V30 16453 H 1538.56 -3.07435 1.99698 0
M  V30 16454 H 1538.21 -5.00961 0.452422 0
M  V30 16455 H 1537.91 -5.46967 2.14711 0
M  V30 16456 H 1539.43 -5.95472 1.35078 0
M  V30 16457 H 1540.85 -4.71845 3.25631 0
M  V30 16458 H 1539.25 -4.46752 4.00665 0
M  V30 16459 H 1540.32 -3.07807 3.74677 0
M  V30 16460 N 1541.66 -1.11854 -1.11024 0
M  V30 16461 C 1542.61 -0.780825 -2.17191 0
M  V30 16462 C 1543.58 0.249657 -1.64213 0
M  V30 16463 O 1544.76 0.125603 -1.90386 0
M  V30 16464 C 1541.9 -0.23491 -3.443 0
M  V30 16465 C 1541.01 -1.32247 -4.1126 0
M  V30 16466 C 1540.15 -0.736638 -5.26068 0
M  V30 16467 C 1539.19 -1.80375 -5.8492 0
M  V30 16468 N 1538.32 -1.23709 -6.91115 0
M  V30 16469 H 1543.16 -1.69031 -2.45423 0
M  V30 16470 H 1540.7 -0.844041 -1.20476 0
M  V30 16471 H 1542.66 0.0996064 -4.17081 0
M  V30 16472 H 1541.29 0.637752 -3.16437 0
M  V30 16473 H 1540.34 -1.77387 -3.36509 0
M  V30 16474 H 1541.65 -2.12965 -4.51051 0
M  V30 16475 H 1540.81 -0.352432 -6.05675 0
M  V30 16476 H 1539.55 0.101811 -4.87594 0
M  V30 16477 H 1538.55 -2.19721 -5.03987 0
M  V30 16478 H 1539.78 -2.64531 -6.2546 0
M  V30 16479 H 1537.72 -0.420357 -6.54652 0
M  V30 16480 H 1537.64 -1.98093 -7.29586 0
M  V30 16481 H 1538.91 -0.879912 -7.74518 0
M  V30 16482 N 1543.14 1.28707 -0.909517 0
M  V30 16483 C 1544.1 2.25692 -0.39946 0
M  V30 16484 C 1545.1 1.53721 0.471848 0
M  V30 16485 O 1546.29 1.72008 0.275504 0
M  V30 16486 C 1543.42 3.38205 0.427793 0
M  V30 16487 H 1544.61 2.72326 -1.25613 0
M  V30 16488 H 1542.17 1.40317 -0.688535 0
M  V30 16489 H 1542.9 2.96926 1.30404 0
M  V30 16490 H 1542.69 3.91606 -0.19667 0
M  V30 16491 H 1544.18 4.10334 0.775634 0
M  V30 16492 N 1544.61 0.673042 1.42506 0
M  V30 16493 C 1545.55 -0.0452975 2.29155 0
M  V30 16494 C 1546.56 -0.767277 1.43585 0
M  V30 16495 O 1547.75 -0.621728 1.67322 0
M  V30 16496 C 1544.85 -1.0878 3.20967 0
M  V30 16497 C 1544.02 -0.439999 4.35181 0
M  V30 16498 C 1543.08 -1.38205 5.07726 0
M  V30 16499 O 1542.11 -0.883031 5.62309 0
M  V30 16500 N 1543.31 -2.7154 5.13075 0
M  V30 16501 H 1546.07 0.698517 2.91446 0
M  V30 16502 H 1543.63 0.517322 1.53412 0
M  V30 16503 H 1545.63 -1.71925 3.66366 0
M  V30 16504 H 1544.2 -1.73337 2.6014 0
M  V30 16505 H 1543.42 0.370926 3.92451 0
M  V30 16506 H 1544.7 0.0113738 5.08799 0
M  V30 16507 H 1544.1 -3.14623 4.70137 0
M  V30 16508 H 1542.66 -3.29937 5.62126 0
M  V30 16509 N 1546.09 -1.52004 0.416254 0
M  V30 16510 C 1547.04 -2.27206 -0.405723 0
M  V30 16511 C 1548.01 -1.29913 -1.03498 0
M  V30 16512 O 1549.19 -1.58786 -1.0579 0
M  V30 16513 C 1546.33 -3.10186 -1.51258 0
M  V30 16514 C 1545.45 -4.22445 -0.903539 0
M  V30 16515 C 1544.58 -4.92771 -1.98368 0
M  V30 16516 C 1543.62 -5.96983 -1.35196 0
M  V30 16517 N 1542.76 -6.60798 -2.37255 0
M  V30 16518 H 1547.6 -2.97016 0.241983 0
M  V30 16519 H 1545.14 -1.46514 0.131174 0
M  V30 16520 H 1547.09 -3.56606 -2.16537 0
M  V30 16521 H 1545.72 -2.42532 -2.13021 0
M  V30 16522 H 1544.78 -3.80144 -0.139607 0
M  V30 16523 H 1546.09 -4.97176 -0.402136 0
M  V30 16524 H 1545.24 -5.42633 -2.71357 0
M  V30 16525 H 1543.98 -4.17624 -2.51876 0
M  V30 16526 H 1542.99 -5.46434 -0.607431 0
M  V30 16527 H 1544.21 -6.74076 -0.824482 0
M  V30 16528 H 1542.16 -5.88476 -2.89882 0
M  V30 16529 H 1542.07 -7.31227 -1.91947 0
M  V30 16530 H 1543.34 -7.15296 -3.09792 0
M  V30 16531 N 1547.57 -0.146903 -1.56914 0
M  V30 16532 C 1548.82 0.504195 -1.95297 0
M  V30 16533 C 1549.13 1.66019 -1.03426 0
M  V30 16534 O 1550.34 2.37591 -1.31388 0
M  V30 16535 C 1548.79 0.948348 -3.47181 0
M  V30 16536 C 1548.4 -0.18071 -4.47635 0
M  V30 16537 C 1550.15 1.56924 -3.9443 0
M  V30 16538 C 1548.05 0.281707 -5.90729 0
M  V30 16539 H 1546.98 0.192127 -0.729111 0
M  V30 16540 H 1549.63 -0.231232 -1.82037 0
M  V30 16541 H 1548.02 1.73903 -3.55772 0
M  V30 16542 H 1549.19 -0.957645 -4.50739 0
M  V30 16543 H 1547.51 -0.710007 -4.10302 0
M  V30 16544 H 1550.1 1.92684 -4.98776 0
M  V30 16545 H 1550.45 2.45816 -3.35976 0
M  V30 16546 H 1550.98 0.843456 -3.88755 0
M  V30 16547 H 1547.72 -0.571839 -6.53001 0
M  V30 16548 H 1547.24 1.02452 -5.90985 0
M  V30 16549 H 1548.92 0.733746 -6.42826 0
M  V30 16550 N 1549.05 1.57088 0.126881 0
M  V30 16551 C 1550.46 1.52205 0.480175 0
M  V30 16552 C 1550.66 0.858634 1.8229 0
M  V30 16553 O 1549.72 0.437636 2.48679 0
M  V30 16554 C 1551.03 2.96974 0.471931 0
M  V30 16555 C 1552.58 3.08021 0.556037 0
M  V30 16556 C 1553.06 4.54335 0.57826 0
M  V30 16557 N 1554.55 4.58758 0.639922 0
M  V30 16558 C 1555.28 5.69372 0.678434 0
M  V30 16559 N 1554.78 6.89503 0.67507 0
M  V30 16560 N 1556.57 5.57459 0.720845 0
M  V30 16561 H 1548.72 1.98604 -0.753008 0
M  V30 16562 H 1550.99 0.90666 -0.276895 0
M  V30 16563 H 1550.69 3.48849 -0.44687 0
M  V30 16564 H 1550.57 3.53994 1.3026 0
M  V30 16565 H 1552.95 2.56153 1.46526 0
M  V30 16566 H 1553.03 2.54009 -0.302171 0
M  V30 16567 H 1552.68 5.06847 -0.326884 0
M  V30 16568 H 1552.61 5.06151 1.45324 0
M  V30 16569 H 1555.1 3.72285 0.649005 0
M  V30 16570 H 1555.41 7.6956 0.706862 0
M  V30 16571 H 1553.76 6.92023 0.64262 0
M  V30 16572 H 1556.95 4.62517 0.720783 0
M  V30 16573 H 1557.12 6.43675 0.747392 0
M  V30 16574 N 1550.53 -0.396836 1.52522 0
M  V30 16575 C 1551.94 -0.736347 1.41598 0
M  V30 16576 C 1552.14 -1.944 0.530191 0
M  V30 16577 O 1551.2 -2.525 0.000649033 0
M  V30 16578 C 1552.51 -0.978775 2.84325 0
M  V30 16579 C 1554.06 -1.08073 2.9375 0
M  V30 16580 C 1554.53 -1.35584 4.37471 0
M  V30 16581 N 1556.03 -1.42423 4.40761 0
M  V30 16582 C 1556.76 -1.6536 5.49039 0
M  V30 16583 N 1556.26 -1.85819 6.67415 0
M  V30 16584 N 1558.05 -1.67475 5.36571 0
M  V30 16585 H 1550.2 0.397925 2.08639 0
M  V30 16586 H 1552.46 0.115803 0.9409 0
M  V30 16587 H 1552.17 -0.16362 3.51319 0
M  V30 16588 H 1552.04 -1.8956 3.26109 0
M  V30 16589 H 1554.43 -1.88646 2.26928 0
M  V30 16590 H 1554.51 -0.141996 2.55406 0
M  V30 16591 H 1554.16 -0.555238 5.04856 0
M  V30 16592 H 1554.09 -2.3073 4.73362 0
M  V30 16593 H 1556.58 -1.28352 3.55435 0
M  V30 16594 H 1556.89 -2.02806 7.45714 0
M  V30 16595 H 1555.23 -1.83059 6.70458 0
M  V30 16596 H 1558.43 -1.51038 4.43064 0
M  V30 16597 H 1558.6 -1.85011 6.21027 0
M  V30 16598 N 1552.01 -1.43353 -0.654814 0
M  V30 16599 C 1553.42 -1.26718 -0.970297 0
M  V30 16600 C 1553.62 -0.185747 -2.00642 0
M  V30 16601 O 1552.68 0.436357 -2.48701 0
M  V30 16602 C 1553.99 -2.63095 -1.45608 0
M  V30 16603 C 1555.54 -2.70613 -1.57281 0
M  V30 16604 C 1556.01 -4.07404 -2.0925 0
M  V30 16605 N 1557.5 -4.09461 -2.16555 0
M  V30 16606 C 1558.24 -5.12135 -2.57885 0
M  V30 16607 N 1557.74 -6.25185 -2.98523 0
M  V30 16608 N 1559.53 -4.9949 -2.57811 0
M  V30 16609 H 1551.68 -2.12378 0.0308331 0
M  V30 16610 H 1553.94 -0.946744 -0.0487843 0
M  V30 16611 H 1553.65 -3.43186 -0.769171 0
M  V30 16612 H 1553.52 -2.88381 -2.43138 0
M  V30 16613 H 1555.91 -1.90855 -2.25074 0
M  V30 16614 H 1555.99 -2.49094 -0.581879 0
M  V30 16615 H 1555.63 -4.87628 -1.4206 0
M  V30 16616 H 1555.56 -4.26287 -3.09172 0
M  V30 16617 H 1558.06 -3.27858 -1.87929 0
M  V30 16618 H 1558.37 -6.99362 -3.28804 0
M  V30 16619 H 1556.71 -6.28659 -2.96332 0
M  V30 16620 H 1559.9 -4.10238 -2.25438 0
M  V30 16621 H 1560.08 -5.79637 -2.89699 0
M  V30 16622 N 1553.48 0.89303 -1.29857 0
M  V30 16623 C 1554.89 1.45948 -1.16431 0
M  V30 16624 C 1555.25 1.94751 0.238051 0
M  V30 16625 O 1554.37 1.84302 1.1341 0
M  V30 16626 C 1554.97 2.6527 -2.10754 0
M  V30 16627 C 1553.52 3.1803 -2.0133 0
M  V30 16628 C 1552.67 1.90721 -2.01297 0
M  V30 16629 H 1555.62 0.70373 -1.42244 0
M  V30 16630 H 1555.64 3.41223 -1.68366 0
M  V30 16631 H 1555.16 2.2972 -3.1281 0
M  V30 16632 H 1553.26 3.58257 -1.02386 0
M  V30 16633 H 1553.37 3.81876 -2.89323 0
M  V30 16634 H 1551.73 2.0871 -1.45987 0
M  V30 16635 H 1552.52 1.5744 -3.0507 0
M  V30 16636 N 1554.96 1.12442 1.10429 0
M  V30 16637 C 1555.87 0.805377 2.20343 0
M  V30 16638 C 1556.89 -0.205836 1.72778 0
M  V30 16639 O 1558.06 -0.0394195 2.01361 0
M  V30 16640 C 1555.13 0.264711 3.45688 0
M  V30 16641 C 1554.19 1.33586 4.07987 0
M  V30 16642 C 1553.42 0.8209 5.27349 0
M  V30 16643 O 1553.65 -0.345303 5.69354 0
M  V30 16644 O 1552.58 1.59052 5.80505 0
M  V30 16645 H 1556.41 1.7234 2.50065 0
M  V30 16646 H 1553.99 0.901084 1.19167 0
M  V30 16647 H 1555.87 -0.0319164 4.21388 0
M  V30 16648 H 1554.55 -0.625869 3.17592 0
M  V30 16649 H 1553.45 1.68566 3.33971 0
M  V30 16650 H 1554.79 2.20021 4.40286 0
M  V30 16651 N 1556.44 -1.28223 0.91633 0
M  V30 16652 C 1557.66 -1.99523 0.566147 0
M  V30 16653 C 1558.09 -1.68 -0.846034 0
M  V30 16654 O 1557.45 -0.913838 -1.56584 0
M  V30 16655 C 1557.5 -3.51949 0.785114 0
M  V30 16656 O 1556.6 -4.1211 -0.154686 0
M  V30 16657 H 1555.94 -0.626764 0.219232 0
M  V30 16658 H 1558.47 -1.63313 1.23247 0
M  V30 16659 H 1558.48 -4.02016 0.696224 0
M  V30 16660 H 1557.16 -3.74227 1.81457 0
M  V30 16661 H 1555.73 -3.72896 -0.0168463 0
M  V30 16662 N 1557.92 -0.68059 -1.42147 0
M  V30 16663 C 1559.16 -0.209222 -2.03326 0
M  V30 16664 C 1559.52 1.16419 -1.52678 0
M  V30 16665 O 1560.72 1.73055 -2.05683 0
M  V30 16666 C 1558.99 -0.248331 -3.56536 0
M  V30 16667 S 1560.55 0.151186 -4.38539 0
M  V30 16668 H 1557.37 -0.0854956 -0.705841 0
M  V30 16669 H 1559.97 -0.895033 -1.73809 0
M  V30 16670 H 1558.68 -1.25016 -3.90895 0
M  V30 16671 H 1558.21 0.457124 -3.90735 0
M  V30 16672 H 1560.22 1.38301 -4.76537 0
M  V30 16673 N 1559.4 1.51781 -0.424309 0
M  V30 16674 C 1560.35 2.24259 0.411339 0
M  V30 16675 C 1561.33 1.25976 1.00094 0
M  V30 16676 O 1562.52 1.51136 0.921238 0
M  V30 16677 C 1559.65 3.07858 1.51917 0
M  V30 16678 C 1558.74 4.13561 0.939599 0
M  V30 16679 N 1559.13 5.05723 0.08803 0
M  V30 16680 C 1557.43 4.29314 1.20855 0
M  V30 16681 C 1558.13 5.81221 -0.236076 0
M  V30 16682 N 1557.1 5.42291 0.376983 0
M  V30 16683 H 1560.9 2.92874 -0.2454 0
M  V30 16684 H 1558.42 1.60682 -0.235612 0
M  V30 16685 H 1560.42 3.58347 2.13056 0
M  V30 16686 H 1559.08 2.40784 2.17837 0
M  V30 16687 H 1560.09 5.17156 -0.277436 0
M  V30 16688 H 1556.76 3.73469 1.86621 0
M  V30 16689 H 1558.15 6.65457 -0.928241 0
M  V30 16690 N 1560.87 0.155222 1.56834 0
M  V30 16691 C 1562.12 -0.49285 1.95998 0
M  V30 16692 C 1562.44 -1.64857 1.0415 0
M  V30 16693 O 1561.71 -1.9562 0.104654 0
M  V30 16694 H 1560.29 -0.185063 0.723713 0
M  V30 16695 H 1562.95 0.232644 1.93507 0
M  V30 16696 H 1562.05 -0.863552 2.99915 0
M  V30 16697 N 1562.35 -1.57153 -0.118549 0
M  V30 16698 C 1563.6 -1.84876 -0.826255 0
M  V30 16699 C 1563.93 -0.740373 -1.79858 0
M  V30 16700 O 1563.18 0.268233 -1.93853 0
M  V30 16701 C 1563.48 -3.19084 -1.60998 0
M  V30 16702 C 1563.15 -4.44069 -0.781911 0
M  V30 16703 C 1561.81 -4.78005 -0.553559 0
M  V30 16704 C 1564.16 -5.20798 -0.204739 0
M  V30 16705 C 1561.49 -5.86114 0.262212 0
M  V30 16706 C 1563.84 -6.29765 0.598225 0
M  V30 16707 C 1562.5 -6.62233 0.83689 0
M  V30 16708 H 1561.77 -0.676511 -0.302348 0
M  V30 16709 H 1564.42 -1.91295 -0.0886182 0
M  V30 16710 H 1562.73 -3.08243 -2.41854 0
M  V30 16711 H 1564.42 -3.37755 -2.16153 0
M  V30 16712 H 1561.01 -4.1748 -0.969984 0
M  V30 16713 H 1565.2 -4.94931 -0.368374 0
M  V30 16714 H 1560.45 -6.09695 0.456338 0
M  V30 16715 H 1564.63 -6.88401 1.05244 0
M  V30 16716 H 1562.25 -7.45835 1.47083 0
M  V30 16717 N 1563.83 0.388742 -1.5273 0
M  V30 16718 C 1564.78 1.47445 -1.73908 0
M  V30 16719 C 1565.76 1.49567 -0.593164 0
M  V30 16720 O 1566.96 1.552 -0.851006 0
M  V30 16721 C 1564.08 2.85155 -1.91159 0
M  V30 16722 C 1563.17 2.87601 -3.11683 0
M  V30 16723 N 1563.56 2.59718 -4.34028 0
M  V30 16724 C 1561.86 3.18769 -3.11933 0
M  V30 16725 C 1562.56 2.69254 -5.15633 0
M  V30 16726 N 1561.54 3.02996 -4.51325 0
M  V30 16727 H 1565.34 1.24714 -2.66127 0
M  V30 16728 H 1562.85 0.596694 -1.51041 0
M  V30 16729 H 1564.85 3.63325 -2.04452 0
M  V30 16730 H 1563.51 3.08868 -1.00153 0
M  V30 16731 H 1564.52 2.33735 -4.62156 0
M  V30 16732 H 1561.2 3.47946 -2.30738 0
M  V30 16733 H 1562.59 2.51239 -6.2316 0
M  V30 16734 N 1565.31 1.43698 0.647203 0
M  V30 16735 C 1566.72 1.40586 1.22851 0
M  V30 16736 C 1567.07 0.112981 1.95874 0
M  V30 16737 O 1566.19 -0.787342 2.01569 0
M  V30 16738 C 1566.79 2.54672 2.23445 0
M  V30 16739 C 1565.35 2.54806 2.7704 0
M  V30 16740 C 1564.5 2.32076 1.51777 0
M  V30 16741 H 1567.45 1.52512 0.43885 0
M  V30 16742 H 1567.47 2.26505 3.05738 0
M  V30 16743 H 1566.98 3.48755 1.70269 0
M  V30 16744 H 1565.08 1.64619 3.34262 0
M  V30 16745 H 1565.19 3.52771 3.24175 0
M  V30 16746 H 1563.56 1.80858 1.79339 0
M  V30 16747 H 1564.34 3.28252 1.00527 0
M  V30 16748 N 1566.79 -0.886131 1.30328 0
M  V30 16749 C 1567.7 -2.02453 1.18532 0
M  V30 16750 C 1568.71 -1.7368 0.105506 0
M  V30 16751 O 1569.89 -1.98838 0.320217 0
M  V30 16752 C 1566.95 -3.3543 0.876792 0
M  V30 16753 C 1566.01 -3.77633 2.04185 0
M  V30 16754 C 1565.25 -5.04264 1.74795 0
M  V30 16755 O 1565.47 -5.66388 0.675323 0
M  V30 16756 O 1564.4 -5.42847 2.60001 0
M  V30 16757 H 1568.23 -2.15333 2.14162 0
M  V30 16758 H 1565.82 -1.01193 1.09911 0
M  V30 16759 H 1567.7 -4.15206 0.719882 0
M  V30 16760 H 1566.37 -3.23662 -0.0496117 0
M  V30 16761 H 1565.28 -2.98567 2.25408 0
M  V30 16762 H 1566.61 -3.94004 2.94994 0
M  V30 16763 N 1568.26 -1.13026 -1.09832 0
M  V30 16764 C 1569.17 -0.817051 -2.19912 0
M  V30 16765 C 1570.19 0.19667 -1.72885 0
M  V30 16766 O 1571.37 0.0287402 -2.01379 0
M  V30 16767 C 1568.43 -0.28304 -3.45543 0
M  V30 16768 C 1567.49 -1.35748 -4.07273 0
M  V30 16769 C 1566.73 -0.848855 -5.26906 0
M  V30 16770 O 1566.95 0.315104 -5.69529 0
M  V30 16771 O 1565.88 -1.62128 -5.79653 0
M  V30 16772 H 1569.71 -1.73663 -2.49148 0
M  V30 16773 H 1567.29 -0.907391 -1.18688 0
M  V30 16774 H 1569.18 0.00956876 -4.21399 0
M  V30 16775 H 1567.85 0.609018 -3.17919 0
M  V30 16776 H 1566.76 -1.70334 -3.33072 0
M  V30 16777 H 1568.09 -2.22353 -4.39113 0
M  V30 16778 N 1569.74 1.27735 -0.923117 0
M  V30 16779 C 1570.69 2.28975 -0.409065 0
M  V30 16780 C 1571.68 1.61723 0.504194 0
M  V30 16781 O 1572.89 1.75848 0.384402 0
M  V30 16782 H 1569.27 0.743354 -0.113705 0
M  V30 16783 H 1571.24 2.69751 -1.27582 0
M  V30 16784 C 1569.99 3.46158 0.327099 0
M  V30 16785 H 1569.31 3.98117 -0.366444 0
M  V30 16786 H 1570.75 4.18968 0.65128 0
M  V30 16787 C 1569.21 2.99724 1.53842 0
M  V30 16788 O 1569.74 3.03001 2.6373 0
M  V30 16789 N 1567.94 2.55274 1.38865 0
M  V30 16790 H 1567.49 2.52807 0.494629 0
M  V30 16791 H 1567.45 2.24567 2.20039 0
M  V30 16792 N 1571.22 0.688118 1.41784 0
M  V30 16793 C 1572.18 0.0271411 2.29184 0
M  V30 16794 C 1573.18 -0.715537 1.44002 0
M  V30 16795 O 1574.37 -0.551542 1.65238 0
M  V30 16796 C 1571.51 -0.97206 3.26747 0
M  V30 16797 H 1572.7 0.79658 2.89127 0
M  V30 16798 H 1570.25 0.451198 1.49646 0
M  V30 16799 H 1570.99 -1.76953 2.71769 0
M  V30 16800 H 1570.77 -0.442746 3.89592 0
M  V30 16801 H 1572.26 -1.43256 3.92259 0
M  V30 16802 N 1572.7 -1.51554 0.432352 0
M  V30 16803 C 1574.11 -1.59377 0.0843863 0
M  V30 16804 C 1574.31 -1.44364 -1.40575 0
M  V30 16805 O 1573.37 -1.28234 -2.17514 0
M  V30 16806 C 1574.68 -2.94652 0.600046 0
M  V30 16807 C 1576.23 -3.07949 0.560049 0
M  V30 16808 C 1576.71 -4.4574 1.0526 0
M  V30 16809 N 1578.2 -4.52046 1.01038 0
M  V30 16810 C 1578.93 -5.56979 1.36242 0
M  V30 16811 N 1578.43 -6.69355 1.78707 0
M  V30 16812 N 1580.22 -5.47311 1.2809 0
M  V30 16813 H 1572.37 -1.59558 1.40197 0
M  V30 16814 H 1574.64 -0.751868 0.577406 0
M  V30 16815 H 1574.34 -3.10993 1.64245 0
M  V30 16816 H 1574.22 -3.77193 0.0222482 0
M  V30 16817 H 1576.6 -2.91279 -0.473357 0
M  V30 16818 H 1576.68 -2.27259 1.17419 0
M  V30 16819 H 1576.33 -4.63156 2.08445 0
M  V30 16820 H 1576.26 -5.24962 0.415047 0
M  V30 16821 H 1578.75 -3.71389 0.69847 0
M  V30 16822 H 1579.06 -7.45438 2.03819 0
M  V30 16823 H 1577.41 -6.70576 1.82629 0
M  V30 16824 H 1580.6 -4.58403 0.947848 0
M  V30 16825 H 1580.77 -6.28978 1.55855 0
M  V30 16826 N 1574.18 -0.163538 -1.56749 0
M  V30 16827 C 1575.09 0.782461 -2.21167 0
M  V30 16828 C 1576.1 1.25911 -1.20093 0
M  V30 16829 O 1577.28 1.31286 -1.52728 0
M  V30 16830 C 1574.34 1.99761 -2.83366 0
M  V30 16831 C 1573.4 1.56859 -3.99617 0
M  V30 16832 C 1572.64 2.72582 -4.58841 0
M  V30 16833 O 1572.86 3.89243 -4.16949 0
M  V30 16834 O 1571.79 2.47104 -5.48838 0
M  V30 16835 H 1575.62 0.264023 -3.0255 0
M  V30 16836 H 1573.21 0.06429 -1.49262 0
M  V30 16837 H 1575.09 2.70843 -3.22835 0
M  V30 16838 H 1573.76 2.50526 -2.04984 0
M  V30 16839 H 1572.67 0.827511 -3.64833 0
M  V30 16840 H 1574 1.10794 -4.79568 0
M  V30 16841 N 1575.65 1.57214 0.110213 0
M  V30 16842 C 1576.89 1.87133 0.822229 0
M  V30 16843 C 1577.26 0.752645 1.76633 0
M  V30 16844 O 1578.46 0.933837 2.52057 0
M  V30 16845 C 1576.73 3.22286 1.54487 0
M  V30 16846 S 1578.29 3.73861 2.29725 0
M  V30 16847 H 1575.11 0.65598 0.274248 0
M  V30 16848 H 1577.71 1.95336 0.0801112 0
M  V30 16849 H 1576.41 4.0164 0.84343 0
M  V30 16850 H 1575.94 3.17184 2.32719 0
M  V30 16851 H 1577.96 3.46066 3.55602 0
M  V30 16852 N 1577.13 -0.380637 1.52934 0
M  V30 16853 C 1578.38 -1.12261 1.68053 0
M  V30 16854 C 1578.7 -1.90263 0.427191 0
M  V30 16855 O 1577.97 -1.87768 -0.558559 0
M  V30 16856 H 1576.55 -0.41742 0.619491 0
M  V30 16857 H 1579.21 -0.430906 1.90077 0
M  V30 16858 H 1578.31 -1.82085 2.53479 0
M  V30 16859 N 1578.61 -1.44039 -0.639573 0
M  V30 16860 C 1579.86 -1.46088 -1.39652 0
M  V30 16861 C 1580.18 -0.0914602 -1.94785 0
M  V30 16862 O 1579.45 0.875097 -1.75268 0
M  V30 16863 H 1578.03 -0.537901 -0.518335 0
M  V30 16864 H 1580.69 -1.79751 -0.753365 0
M  V30 16865 H 1579.79 -2.1814 -2.23207 0
M  V30 16866 N 1580.09 0.879207 -1.30796 0
M  V30 16867 C 1581.05 1.96707 -1.17639 0
M  V30 16868 C 1582.05 1.6045 -0.106013 0
M  V30 16869 O 1583.24 1.70553 -0.354573 0
M  V30 16870 C 1580.37 3.31292 -0.803625 0
M  V30 16871 H 1581.57 2.09806 -2.14293 0
M  V30 16872 H 1579.12 1.06634 -1.14276 0
M  V30 16873 H 1579.85 3.23894 0.162159 0
M  V30 16874 H 1579.64 3.58979 -1.57723 0
M  V30 16875 H 1581.13 4.11077 -0.735201 0
M  V30 16876 N 1581.57 1.13606 1.09231 0
M  V30 16877 C 1582.98 0.91148 1.62938 0
M  V30 16878 C 1583.33 -0.55157 1.88287 0
M  V30 16879 O 1582.45 -1.4187 1.63407 0
M  V30 16880 C 1583.05 1.64812 2.96011 0
M  V30 16881 C 1581.61 1.46935 3.46536 0
M  V30 16882 C 1580.76 1.67605 2.20916 0
M  V30 16883 H 1583.71 1.28907 0.925669 0
M  V30 16884 H 1583.73 1.10638 3.6406 0
M  V30 16885 H 1583.24 2.71291 2.77529 0
M  V30 16886 H 1581.34 0.427667 3.70138 0
M  V30 16887 H 1581.45 2.23374 4.2384 0
M  V30 16888 H 1579.82 1.10105 2.29672 0
M  V30 16889 H 1580.6 2.75408 2.04952 0
M  V30 16890 N 1583.05 -1.27244 0.929878 0
M  V30 16891 C 1584.27 -1.98912 0.587277 0
M  V30 16892 C 1584.7 -1.68888 -0.828168 0
M  V30 16893 O 1584.05 -0.930394 -1.55606 0
M  V30 16894 C 1584.1 -3.51097 0.822399 0
M  V30 16895 O 1583.21 -4.12251 -0.110968 0
M  V30 16896 H 1582.55 -0.624404 0.225867 0
M  V30 16897 H 1585.08 -1.61997 1.24973 0
M  V30 16898 H 1585.09 -4.01255 0.738824 0
M  V30 16899 H 1583.76 -3.72282 1.85416 0
M  V30 16900 H 1582.34 -3.72893 0.0227053 0
M  V30 16901 N 1584.52 -0.695628 -1.41417 0
M  V30 16902 C 1585.45 -0.0447013 -2.33457 0
M  V30 16903 C 1586.43 0.767104 -1.51821 0
M  V30 16904 O 1587.62 0.720066 -1.80357 0
M  V30 16905 C 1584.75 0.892353 -3.3564 0
M  V30 16906 C 1583.7 0.187638 -4.27588 0
M  V30 16907 C 1583.03 1.23906 -5.20146 0
M  V30 16908 C 1584.33 -0.946093 -5.1366 0
M  V30 16909 H 1586.02 -0.81343 -2.88138 0
M  V30 16910 H 1583.57 -0.392614 -1.38544 0
M  V30 16911 H 1585.52 1.35696 -3.98954 0
M  V30 16912 H 1584.25 1.69275 -2.79309 0
M  V30 16913 H 1582.91 -0.256942 -3.65698 0
M  V30 16914 H 1582.55 2.03198 -4.6013 0
M  V30 16915 H 1582.25 0.772536 -5.82499 0
M  V30 16916 H 1583.78 1.70417 -5.86336 0
M  V30 16917 H 1585.19 -0.561764 -5.70541 0
M  V30 16918 H 1583.59 -1.33971 -5.84954 0
M  V30 16919 H 1584.66 -1.78573 -4.50821 0
M  V30 16920 N 1586 1.51322 -0.440383 0
M  V30 16921 C 1586.93 2.25587 0.40537 0
M  V30 16922 C 1587.95 1.29721 0.983686 0
M  V30 16923 O 1589.14 1.55453 0.877308 0
M  V30 16924 C 1586.24 2.99848 1.57938 0
M  V30 16925 C 1585.41 4.22834 1.11939 0
M  V30 16926 C 1584.47 4.79649 2.16387 0
M  V30 16927 O 1583.49 5.41405 1.75697 0
M  V30 16928 N 1584.7 4.63948 3.48902 0
M  V30 16929 H 1587.46 2.98807 -0.231143 0
M  V30 16930 H 1585.02 1.59642 -0.26944 0
M  V30 16931 H 1587.01 3.34743 2.2744 0
M  V30 16932 H 1585.58 2.29619 2.12117 0
M  V30 16933 H 1584.8 3.93398 0.251323 0
M  V30 16934 H 1586.09 5.02637 0.7895 0
M  V30 16935 H 1585.49 4.14764 3.84691 0
M  V30 16936 H 1584.05 5.03196 4.14291 0
M  V30 16937 N 1587.48 0.171848 1.5666 0
M  V30 16938 C 1588.44 -0.744316 2.16778 0
M  V30 16939 C 1589.44 -1.15769 1.11598 0
M  V30 16940 O 1590.63 -1.07456 1.37109 0
M  V30 16941 C 1587.76 -2.01319 2.75106 0
M  V30 16942 H 1588.96 -0.220952 2.99085 0
M  V30 16943 H 1586.51 -0.0777149 1.56107 0
M  V30 16944 H 1587.25 -2.57963 1.96534 0
M  V30 16945 H 1587.03 -1.72575 3.5208 0
M  V30 16946 H 1588.52 -2.667 3.21342 0
M  V30 16947 N 1588.96 -1.5727 -0.101874 0
M  V30 16948 C 1589.89 -1.98253 -1.15014 0
M  V30 16949 C 1590.9 -0.884147 -1.36699 0
M  V30 16950 O 1592.09 -1.16232 -1.35471 0
M  V30 16951 C 1589.19 -2.28043 -2.50698 0
M  V30 16952 C 1588.36 -3.59343 -2.49383 0
M  V30 16953 C 1587.42 -3.77147 -3.66943 0
M  V30 16954 O 1586.45 -4.49075 -3.49744 0
M  V30 16955 N 1587.65 -3.1721 -4.86167 0
M  V30 16956 H 1590.42 -2.88787 -0.801375 0
M  V30 16957 H 1587.98 -1.59264 -0.290941 0
M  V30 16958 H 1589.97 -2.37153 -3.27934 0
M  V30 16959 H 1588.54 -1.4355 -2.77691 0
M  V30 16960 H 1587.76 -3.61264 -1.57741 0
M  V30 16961 H 1589.05 -4.45612 -2.45576 0
M  V30 16962 H 1588.45 -2.58772 -5.03044 0
M  V30 16963 H 1587 -3.31816 -5.61018 0
M  V30 16964 N 1590.44 0.372521 -1.53134 0
M  V30 16965 C 1591.66 1.13668 -1.72879 0
M  V30 16966 C 1592.08 1.83246 -0.454588 0
M  V30 16967 O 1591.44 1.73302 0.572062 0
M  V30 16968 C 1591.49 2.17226 -2.88955 0
M  V30 16969 O 1591.21 1.50483 -4.11445 0
M  V30 16970 C 1592.71 3.06243 -3.20516 0
M  V30 16971 H 1589.93 0.340156 -0.57839 0
M  V30 16972 H 1592.47 0.433557 -1.99851 0
M  V30 16973 H 1590.63 2.83148 -2.64397 0
M  V30 16974 H 1591.04 2.19425 -4.76396 0
M  V30 16975 H 1592.52 3.74901 -4.05158 0
M  V30 16976 H 1592.99 3.70669 -2.35587 0
M  V30 16977 H 1593.6 2.45946 -3.46973 0
M  V30 16978 N 1591.91 1.44376 0.631925 0
M  V30 16979 C 1593.16 1.47335 1.39356 0
M  V30 16980 C 1593.49 0.10525 1.93915 0
M  V30 16981 O 1592.77 -0.877006 1.73605 0
M  V30 16982 C 1593.05 2.53308 2.55943 0
M  V30 16983 C 1592.9 3.99473 2.06739 0
M  V30 16984 C 1594.22 2.55794 3.58131 0
M  V30 16985 H 1591.34 0.536447 0.505365 0
M  V30 16986 H 1593.98 1.76051 0.714572 0
M  V30 16987 H 1592.13 2.28953 3.13868 0
M  V30 16988 H 1593.81 4.34958 1.53652 0
M  V30 16989 H 1592.05 4.11288 1.37929 0
M  V30 16990 H 1592.72 4.69269 2.90672 0
M  V30 16991 H 1595.2 2.77554 3.10005 0
M  V30 16992 H 1594.07 3.31847 4.37228 0
M  V30 16993 H 1594.33 1.59962 4.12146 0
M  V30 16994 N 1593.39 -0.872258 1.31261 0
M  V30 16995 C 1594.32 -1.99517 1.21306 0
M  V30 16996 C 1595.3 -1.69801 0.100775 0
M  V30 16997 O 1596.49 -1.92098 0.284984 0
M  V30 16998 C 1593.62 -3.34968 0.917249 0
M  V30 16999 C 1592.57 -3.78984 1.98885 0
M  V30 17000 C 1591.9 -5.11869 1.54578 0
M  V30 17001 C 1593.2 -3.96338 3.40167 0
M  V30 17002 H 1594.89 -2.08104 2.15251 0
M  V30 17003 H 1592.44 -0.999865 1.03628 0
M  V30 17004 H 1594.39 -4.1306 0.834217 0
M  V30 17005 H 1593.11 -3.26549 -0.0578721 0
M  V30 17006 H 1591.77 -3.0313 2.06174 0
M  V30 17007 H 1591.42 -4.99889 0.558581 0
M  V30 17008 H 1591.12 -5.4229 2.26265 0
M  V30 17009 H 1592.65 -5.92472 1.47678 0
M  V30 17010 H 1594.06 -4.64831 3.35566 0
M  V30 17011 H 1592.46 -4.38153 4.10051 0
M  V30 17012 H 1593.53 -2.9979 3.81122 0
M  V30 17013 N 1594.87 -1.14184 -1.08627 0
M  V30 17014 C 1595.8 -0.849455 -2.17501 0
M  V30 17015 C 1596.78 0.194617 -1.68983 0
M  V30 17016 O 1597.97 0.0517757 -1.94131 0
M  V30 17017 C 1595.1 -0.323685 -3.45788 0
M  V30 17018 C 1594.05 -1.30294 -4.07685 0
M  V30 17019 C 1593.38 -0.636575 -5.30897 0
M  V30 17020 C 1594.68 -2.66441 -4.49229 0
M  V30 17021 H 1596.37 -1.75987 -2.42217 0
M  V30 17022 H 1593.92 -0.847595 -1.16412 0
M  V30 17023 H 1595.87 -0.106754 -4.21265 0
M  V30 17024 H 1594.59 0.62215 -3.20619 0
M  V30 17025 H 1593.25 -1.50601 -3.34238 0
M  V30 17026 H 1592.9 0.314995 -5.02013 0
M  V30 17027 H 1592.6 -1.28998 -5.73266 0
M  V30 17028 H 1594.12 -0.429117 -6.0909 0
M  V30 17029 H 1595.54 -2.50055 -5.15893 0
M  V30 17030 H 1593.93 -3.28033 -5.02508 0
M  V30 17031 H 1595 -3.23486 -3.61226 0
M  V30 17032 N 1596.35 1.26749 -0.936613 0
M  V30 17033 C 1597.28 2.2892 -0.460213 0
M  V30 17034 C 1598.26 1.63065 0.484135 0
M  V30 17035 O 1599.44 1.90305 0.386973 0
M  V30 17036 C 1596.57 3.46172 0.279648 0
M  V30 17037 C 1595.53 4.24083 -0.57771 0
M  V30 17038 C 1594.85 5.33903 0.291843 0
M  V30 17039 C 1596.15 4.88562 -1.84673 0
M  V30 17040 H 1597.85 2.69019 -1.31412 0
M  V30 17041 H 1595.39 1.29325 -0.633333 0
M  V30 17042 H 1597.35 4.16755 0.623931 0
M  V30 17043 H 1596.07 3.05014 1.16765 0
M  V30 17044 H 1594.73 3.55258 -0.904824 0
M  V30 17045 H 1594.38 4.88986 1.17906 0
M  V30 17046 H 1594.08 5.8694 -0.278372 0
M  V30 17047 H 1595.6 6.07326 0.631498 0
M  V30 17048 H 1597.02 5.51384 -1.56997 0
M  V30 17049 H 1595.41 5.51697 -2.36115 0
M  V30 17050 H 1596.48 4.11761 -2.56088 0
M  V30 17051 N 1597.83 0.703118 1.41046 0
M  V30 17052 C 1598.76 0.0570815 2.3343 0
M  V30 17053 C 1599.74 -0.759042 1.52225 0
M  V30 17054 O 1600.92 -0.710491 1.80736 0
M  V30 17055 C 1598.05 -0.874541 3.36109 0
M  V30 17056 C 1597.01 -0.16496 4.27682 0
M  V30 17057 C 1596.33 -1.21145 5.20795 0
M  V30 17058 C 1597.63 0.97332 5.13151 0
M  V30 17059 H 1599.33 0.828699 2.87703 0
M  V30 17060 H 1596.87 0.399956 1.38334 0
M  V30 17061 H 1598.83 -1.33579 3.99668 0
M  V30 17062 H 1597.55 -1.67791 2.80203 0
M  V30 17063 H 1596.21 0.276332 3.65557 0
M  V30 17064 H 1595.86 -2.00755 4.61201 0
M  V30 17065 H 1595.56 -0.741633 5.82901 0
M  V30 17066 H 1597.08 -1.67305 5.87232 0
M  V30 17067 H 1598.49 0.592013 5.70235 0
M  V30 17068 H 1596.89 1.37071 5.84236 0
M  V30 17069 H 1597.96 1.80961 4.49868 0
M  V30 17070 N 1599.3 -1.51086 0.448402 0
M  V30 17071 C 1600.72 -1.86696 -0.0121264 0
M  V30 17072 C 1601.07 -1.36483 -1.40949 0
M  V30 17073 O 1600.19 -0.72024 -2.04062 0
M  V30 17074 C 1600.79 -3.38788 -0.0287814 0
M  V30 17075 C 1599.35 -3.73892 -0.433758 0
M  V30 17076 C 1598.49 -2.74869 0.366362 0
M  V30 17077 H 1601.44 -1.44153 0.663744 0
M  V30 17078 H 1601.46 -3.71204 -0.835915 0
M  V30 17079 H 1600.98 -3.75304 0.988368 0
M  V30 17080 H 1599.08 -3.4297 -1.4561 0
M  V30 17081 H 1599.19 -4.78862 -0.150869 0
M  V30 17082 H 1597.55 -2.54085 -0.176862 0
M  V30 17083 H 1598.34 -3.14228 1.3826 0
M  V30 17084 N 1600.78 -0.180154 -1.56567 0
M  V30 17085 C 1601.71 0.742131 -2.21393 0
M  V30 17086 C 1602.69 1.23253 -1.1723 0
M  V30 17087 O 1603.88 1.28408 -1.45688 0
M  V30 17088 C 1601.01 1.96799 -2.8616 0
M  V30 17089 C 1599.96 1.6131 -3.96438 0
M  V30 17090 C 1599.29 2.91434 -4.48297 0
M  V30 17091 C 1600.59 0.834382 -5.15592 0
M  V30 17092 H 1602.28 0.201759 -2.98719 0
M  V30 17093 H 1599.83 0.0956016 -1.43682 0
M  V30 17094 H 1601.78 2.61828 -3.30188 0
M  V30 17095 H 1600.51 2.53264 -2.06215 0
M  V30 17096 H 1599.16 0.986451 -3.53079 0
M  V30 17097 H 1598.81 3.45958 -3.65133 0
M  V30 17098 H 1598.51 2.68439 -5.22699 0
M  V30 17099 H 1600.04 3.57478 -4.95017 0
M  V30 17100 H 1601.45 1.38745 -5.56258 0
M  V30 17101 H 1599.85 0.703132 -5.95966 0
M  V30 17102 H 1600.92 -0.167554 -4.8461 0
M  V30 17103 N 1602.26 1.57322 0.0935319 0
M  V30 17104 C 1603.19 2.05208 1.11409 0
M  V30 17105 C 1604.17 0.941295 1.41681 0
M  V30 17106 O 1605.36 1.21266 1.51684 0
M  V30 17107 C 1602.49 2.47782 2.43354 0
M  V30 17108 C 1601.44 3.62538 2.27486 0
M  V30 17109 C 1600.77 3.91095 3.64622 0
M  V30 17110 C 1602.07 4.93371 1.71412 0
M  V30 17111 H 1603.76 2.9072 0.715702 0
M  V30 17112 H 1601.31 1.3986 0.342827 0
M  V30 17113 H 1603.26 2.79891 3.15022 0
M  V30 17114 H 1601.98 1.59272 2.85132 0
M  V30 17115 H 1600.64 3.30679 1.58263 0
M  V30 17116 H 1600.29 2.99749 4.0393 0
M  V30 17117 H 1599.99 4.68353 3.5485 0
M  V30 17118 H 1601.51 4.25679 4.37755 0
M  V30 17119 H 1602.93 5.23851 2.32922 0
M  V30 17120 H 1601.33 5.74804 1.72395 0
M  V30 17121 H 1602.4 4.80197 0.67368 0
M  V30 17122 N 1603.74 -0.364395 1.53329 0
M  V30 17123 C 1604.67 -1.45243 1.8283 0
M  V30 17124 C 1605.65 -1.55834 0.681886 0
M  V30 17125 O 1606.83 -1.70383 0.931845 0
M  V30 17126 C 1603.96 -2.82565 2.01926 0
M  V30 17127 C 1602.92 -2.86797 3.17697 0
M  V30 17128 C 1602.24 -4.26806 3.22089 0
M  V30 17129 C 1603.54 -2.54212 4.56261 0
M  V30 17130 H 1605.24 -1.20804 2.73946 0
M  V30 17131 H 1602.78 -0.579705 1.31816 0
M  V30 17132 H 1604.74 -3.58709 2.21147 0
M  V30 17133 H 1603.46 -3.08394 1.07521 0
M  V30 17134 H 1602.12 -2.13105 2.98298 0
M  V30 17135 H 1601.77 -4.49712 2.25318 0
M  V30 17136 H 1601.47 -4.30553 3.99873 0
M  V30 17137 H 1602.99 -5.04821 3.43495 0
M  V30 17138 H 1604.41 -3.20069 4.75635 0
M  V30 17139 H 1602.8 -2.69273 5.36295 0
M  V30 17140 H 1603.87 -1.49458 4.61292 0
M  V30 17141 N 1605.22 -1.44709 -0.62426 0
M  V30 17142 C 1606.15 -1.46578 -1.749 0
M  V30 17143 C 1607.13 -0.323875 -1.59342 0
M  V30 17144 O 1608.31 -0.521884 -1.81132 0
M  V30 17145 C 1605.44 -1.30499 -3.1255 0
M  V30 17146 C 1604.48 -2.48341 -3.4674 0
M  V30 17147 S 1605.32 -4.10857 -3.43448 0
M  V30 17148 C 1606.47 -3.97213 -4.83707 0
M  V30 17149 H 1606.71 -2.41747 -1.73049 0
M  V30 17150 H 1604.24 -1.3209 -0.799473 0
M  V30 17151 H 1606.2 -1.2191 -3.9198 0
M  V30 17152 H 1604.86 -0.368301 -3.11933 0
M  V30 17153 H 1604.05 -2.32972 -4.46923 0
M  V30 17154 H 1603.65 -2.53706 -2.74789 0
M  V30 17155 H 1605.95 -3.61328 -5.73104 0
M  V30 17156 H 1606.89 -4.9725 -5.04131 0
M  V30 17157 H 1607.3 -3.29154 -4.58604 0
M  V30 17158 N 1606.69 0.865285 -1.31722 0
M  V30 17159 C 1607.62 1.98871 -1.22362 0
M  V30 17160 C 1608.61 1.69745 -0.109779 0
M  V30 17161 O 1609.79 1.91944 -0.295167 0
M  V30 17162 C 1606.92 3.34477 -0.935 0
M  V30 17163 C 1605.87 3.77924 -2.00892 0
M  V30 17164 C 1605.2 5.11042 -1.57291 0
M  V30 17165 C 1606.5 3.94528 -3.42264 0
M  V30 17166 H 1608.19 2.06959 -2.16352 0
M  V30 17167 H 1605.74 0.994355 -1.04157 0
M  V30 17168 H 1607.69 4.12612 -0.856111 0
M  V30 17169 H 1606.42 3.26575 0.0405536 0
M  V30 17170 H 1605.08 3.02032 -2.07779 0
M  V30 17171 H 1604.72 4.99586 -0.585084 0
M  V30 17172 H 1604.42 5.41082 -2.29138 0
M  V30 17173 H 1605.95 5.91681 -1.50818 0
M  V30 17174 H 1607.36 4.63045 -3.38027 0
M  V30 17175 H 1605.76 4.35972 -4.12369 0
M  V30 17176 H 1606.83 2.97765 -3.82706 0
M  V30 17177 N 1608.17 1.14759 1.0802 0
M  V30 17178 C 1609.42 0.918248 1.80484 0
M  V30 17179 C 1609.75 -0.554986 1.86414 0
M  V30 17180 O 1609 -1.42732 1.33888 0
M  V30 17181 C 1609.3 1.4692 3.25805 0
M  V30 17182 C 1608.97 2.96176 3.39987 0
M  V30 17183 C 1607.63 3.36923 3.43564 0
M  V30 17184 C 1609.98 3.92131 3.43341 0
M  V30 17185 C 1607.31 4.72281 3.48092 0
M  V30 17186 C 1609.66 5.27351 3.49404 0
M  V30 17187 C 1608.33 5.67605 3.51256 0
M  V30 17188 H 1607.6 0.336011 0.660437 0
M  V30 17189 H 1610.24 1.43191 1.27156 0
M  V30 17190 H 1608.55 0.876571 3.81868 0
M  V30 17191 H 1610.24 1.26765 3.80436 0
M  V30 17192 H 1606.83 2.63675 3.37896 0
M  V30 17193 H 1611.02 3.61728 3.39804 0
M  V30 17194 H 1606.27 5.02823 3.4782 0
M  V30 17195 H 1610.45 6.01507 3.50946 0
M  V30 17196 H 1608.08 6.72474 3.54517 0
M  V30 17197 N 1609.65 -1.26251 0.943322 0
M  V30 17198 C 1610.88 -1.98278 0.608341 0
M  V30 17199 C 1611.3 -1.69756 -0.810208 0
M  V30 17200 O 1610.66 -0.946846 -1.54611 0
M  V30 17201 C 1610.71 -3.50205 0.859591 0
M  V30 17202 O 1609.81 -4.12345 -0.0672371 0
M  V30 17203 H 1609.15 -0.621973 0.232477 0
M  V30 17204 H 1611.68 -1.60662 1.26684 0
M  V30 17205 H 1611.69 -4.00449 0.781341 0
M  V30 17206 H 1610.37 -3.70294 1.89354 0
M  V30 17207 H 1608.94 -3.72848 0.0622543 0
M  V30 17208 N 1611.13 -0.710588 -1.40671 0
M  V30 17209 C 1612.55 -0.383638 -1.54921 0
M  V30 17210 C 1612.75 1.10805 -1.68299 0
M  V30 17211 O 1611.8 1.89406 -1.66978 0
M  V30 17212 C 1613.11 -1.14532 -2.78034 0
M  V30 17213 C 1614.66 -1.13113 -2.91847 0
M  V30 17214 C 1615.14 -1.87487 -4.17867 0
M  V30 17215 N 1616.63 -1.8453 -4.24856 0
M  V30 17216 C 1617.36 -2.38904 -5.2126 0
M  V30 17217 N 1616.86 -3.01813 -6.23603 0
M  V30 17218 N 1618.65 -2.29075 -5.13304 0
M  V30 17219 H 1610.8 -1.67789 -1.30233 0
M  V30 17220 H 1613.07 -0.70892 -0.629393 0
M  V30 17221 H 1612.77 -2.19983 -2.74409 0
M  V30 17222 H 1612.65 -0.733669 -3.69996 0
M  V30 17223 H 1615.03 -0.0848347 -2.94978 0
M  V30 17224 H 1615.11 -1.58196 -2.01017 0
M  V30 17225 H 1614.76 -2.92104 -4.15497 0
M  V30 17226 H 1614.69 -1.39827 -5.07697 0
M  V30 17227 H 1617.18 -1.38679 -3.51535 0
M  V30 17228 H 1617.49 -3.40832 -6.9358 0
M  V30 17229 H 1615.84 -3.05896 -6.24062 0
M  V30 17230 H 1619.03 -1.79589 -4.32279 0
M  V30 17231 H 1619.2 -2.71752 -5.88264 0
M  V30 17232 O 1612.65 1.50006 -0.598359 0
M  V30 17233 H 1613.34 1.93401 -0.107541 0
M  V30 END ATOM
M  V30 BEGIN BOND
M  V30 END BOND
M  V30 END CTAB
M  END
$$$$
