drugbank_target|Q9UNX9 ATP-sensitive inward rectifier potassium channel 14 (DB00243; DB01110; DB04855)
 OpenBabel12092121003D

  0  0  0     0  0            999 V3000
M  V30 BEGIN CTAB
M  V30 COUNTS 6652 6732 0 0 0
M  V30 BEGIN ATOM
M  V30 1 H -0.908 1.98254 -0.117106 0
M  V30 2 N 0 1.576 0 0
M  V30 3 C 0.933 2.03868 1.02534 0
M  V30 4 C 1.911 0.928543 1.3348 0
M  V30 5 O 3.095 1.19667 1.45644 0
M  V30 6 C 0.222 2.43627 2.35294 0
M  V30 7 C -0.732 3.65373 2.2001 0
M  V30 8 S 0.101 5.13292 1.52614 0
M  V30 9 C 1.257 5.56322 2.86805 0
M  V30 10 H 1.49 2.90518 0.631377 0
M  V30 11 H -0.977 1.52953 0.210867 0
M  V30 12 H 0.981 2.67203 3.11629 0
M  V30 13 H -0.358 1.57376 2.7183 0
M  V30 14 H -1.165 3.90944 3.18086 0
M  V30 15 H -1.563 3.418 1.51819 0
M  V30 16 H 0.729 5.58782 3.83104 0
M  V30 17 H 1.672 6.56266 2.65933 0
M  V30 18 H 2.08 4.83886 2.90714 0
M  V30 19 N 1.4781 -0.272755 1.55222 0
M  V30 20 C 2.7261 -1.00234 1.75492 0
M  V30 21 C 3.0471 -1.8681 0.5592 0
M  V30 22 O 2.3171 -1.91215 -0.425882 0
M  V30 23 H 0.8971 -0.373076 0.647166 0
M  V30 24 H 3.5591 -0.296926 1.92625 0
M  V30 25 H 2.6551 -1.63913 2.65592 0
M  V30 26 N 2.9562 -1.48159 -0.537278 0
M  V30 27 C 3.8862 -1.65029 -1.6519 0
M  V30 28 C 4.8672 -0.499281 -1.62607 0
M  V30 29 O 6.0522 -0.730972 -1.79918 0
M  V30 30 C 3.1822 -1.68303 -3.03795 0
M  V30 31 C 2.1362 -2.8283 -3.21234 0
M  V30 32 C 1.4622 -2.71189 -4.60826 0
M  V30 33 C 2.7622 -4.24211 -3.04701 0
M  V30 34 H 4.4562 -2.58341 -1.51328 0
M  V30 35 H 2.0022 -1.24325 -0.726585 0
M  V30 36 H 3.9552 -1.78693 -3.81637 0
M  V30 37 H 2.6792 -0.715635 -3.18663 0
M  V30 38 H 1.3382 -2.71983 -2.45807 0
M  V30 39 H 0.9862 -1.72435 -4.7252 0
M  V30 40 H 0.6862 -3.48035 -4.7344 0
M  V30 41 H 2.2102 -2.83537 -5.40777 0
M  V30 42 H 3.6242 -4.3593 -3.72341 0
M  V30 43 H 2.0212 -5.01998 -3.28813 0
M  V30 44 H 3.0912 -4.41184 -2.01209 0
M  V30 45 N 4.4343 0.785586 -1.36625 0
M  V30 46 C 5.3973 1.87999 -1.31107 0
M  V30 47 C 6.3973 1.59316 -0.217959 0
M  V30 48 O 7.5873 1.67656 -0.472977 0
M  V30 49 C 4.7193 3.24861 -1.03334 0
M  V30 50 H 5.9123 1.94307 -2.2844 0
M  V30 51 H 3.4653 0.983813 -1.21453 0
M  V30 52 H 4.2003 3.24235 -0.0647432 0
M  V30 53 H 3.9853 3.4707 -1.82441 0
M  V30 54 H 5.4753 4.04929 -1.02088 0
M  V30 55 N 5.9124 1.20967 1.01018 0
M  V30 56 C 7.3284 0.965905 1.27053 0
M  V30 57 C 7.5284 -0.350785 1.98423 0
M  V30 58 O 6.5844 -1.07773 2.28344 0
M  V30 59 C 7.8974 2.15294 2.09926 0
M  V30 60 C 9.4454 2.19463 2.23171 0
M  V30 61 C 9.9204 3.3767 3.09424 0
M  V30 62 N 11.4114 3.37724 3.17012 0
M  V30 63 C 12.1464 4.25837 3.83993 0
M  V30 64 N 11.6424 5.24138 4.53047 0
M  V30 65 N 13.4354 4.1366 3.80581 0
M  V30 66 H 5.5864 2.0565 0.531194 0
M  V30 67 H 7.8494 0.90024 0.297106 0
M  V30 68 H 7.5554 3.10684 1.64828 0
M  V30 69 H 7.4294 2.13923 3.10672 0
M  V30 70 H 9.8164 1.24632 2.6749 0
M  V30 71 H 9.8974 2.2488 1.21912 0
M  V30 72 H 9.5414 4.32791 2.65808 0
M  V30 73 H 9.4714 3.29491 4.10784 0
M  V30 74 H 11.9624 2.6658 2.6785 0
M  V30 75 H 12.2754 5.87684 5.01844 0
M  V30 76 H 10.6204 5.28068 4.5185 0
M  V30 77 H 13.8114 3.36127 3.25785 0
M  V30 78 H 13.9844 4.82538 4.32505 0
M  V30 79 N 7.3905 -1.2043 1.01659 0
M  V30 80 C 8.3535 -2.21433 0.591616 0
M  V30 81 C 9.3535 -1.57203 -0.338226 0
M  V30 82 O 10.5435 -1.73737 -0.126918 0
M  V30 83 C 7.6755 -3.40628 -0.136058 0
M  V30 84 H 8.8685 -2.60545 1.48514 0
M  V30 85 H 6.4215 -1.33893 0.806379 0
M  V30 86 H 7.1565 -3.07019 -1.04449 0
M  V30 87 H 6.9415 -3.88475 0.531917 0
M  V30 88 H 8.4315 -4.15475 -0.420735 0
M  V30 89 N 8.8686 -0.792821 -1.36206 0
M  V30 90 C 9.7986 -0.207853 -2.32573 0
M  V30 91 C 10.7796 0.659055 -1.56813 0
M  V30 92 O 11.9646 0.592176 -1.84951 0
M  V30 93 C 9.0946 0.655449 -3.41059 0
M  V30 94 C 8.0486 -0.111842 -4.27854 0
M  V30 95 C 7.3746 0.872274 -5.27537 0
M  V30 96 C 8.6746 -1.30299 -5.05786 0
M  V30 97 H 10.3686 -1.01294 -2.81744 0
M  V30 98 H 7.9146 -0.48854 -1.3546 0
M  V30 99 H 9.8676 1.07464 -4.07467 0
M  V30 100 H 8.5916 1.49328 -2.90463 0
M  V30 101 H 7.2506 -0.512053 -3.63006 0
M  V30 102 H 6.8986 1.70523 -4.73214 0
M  V30 103 H 6.5986 0.363291 -5.86476 0
M  V30 104 H 8.1226 1.28996 -5.96818 0
M  V30 105 H 9.5366 -0.959379 -5.65216 0
M  V30 106 H 7.9336 -1.7455 -5.74154 0
M  V30 107 H 9.0036 -2.09663 -4.37229 0
M  V30 108 N 10.3467 1.47872 -0.545128 0
M  V30 109 C 11.7627 1.5829 -0.204032 0
M  V30 110 C 11.9627 1.54529 1.29317 0
M  V30 111 O 11.0187 1.44232 2.07252 0
M  V30 112 C 12.3317 2.89304 -0.819987 0
M  V30 113 C 13.8797 3.02864 -0.790105 0
M  V30 114 C 14.3547 4.3656 -1.38491 0
M  V30 115 N 15.8457 4.43165 -1.34755 0
M  V30 116 C 16.5807 5.45153 -1.77753 0
M  V30 117 N 16.0767 6.54016 -2.2855 0
M  V30 118 N 17.8697 5.36125 -1.68897 0
M  V30 119 H 10.0207 1.4856 -1.51802 0
M  V30 120 H 12.2837 0.706305 -0.632327 0
M  V30 121 H 11.9897 2.97757 -1.87173 0
M  V30 122 H 11.8637 3.75957 -0.305915 0
M  V30 123 H 14.2507 2.94014 0.252913 0
M  V30 124 H 14.3317 2.17782 -1.34181 0
M  V30 125 H 13.9757 4.46164 -2.42693 0
M  V30 126 H 13.9057 5.20353 -0.808754 0
M  V30 127 H 16.3967 3.65083 -0.975855 0
M  V30 128 H 16.7097 7.27994 -2.59314 0
M  V30 129 H 15.0547 6.54938 -2.32553 0
M  V30 130 H 18.2457 4.49975 -1.28998 0
M  V30 131 H 18.4187 6.15472 -2.02726 0
M  V30 132 N 11.8248 0.280983 1.55075 0
M  V30 133 C 13.2408 -0.0729964 1.59433 0
M  V30 134 C 13.4408 -1.5411 1.29817 0
M  V30 135 O 12.4968 -2.29086 1.06187 0
M  V30 136 C 13.8098 0.306921 2.9913 0
M  V30 137 C 15.3578 0.254023 3.11968 0
M  V30 138 C 15.8328 0.608467 4.5394 0
M  V30 139 N 17.3238 0.560241 4.59799 0
M  V30 140 C 18.0588 0.80722 5.6769 0
M  V30 141 N 17.5548 1.11912 6.83701 0
M  V30 142 N 19.3478 0.735623 5.57266 0
M  V30 143 H 11.4988 1.238 1.7259 0
M  V30 144 H 13.7618 0.500547 0.805082 0
M  V30 145 H 13.4678 1.32816 3.25657 0
M  V30 146 H 13.3418 -0.349363 3.75579 0
M  V30 147 H 15.7288 -0.75794 2.852 0
M  V30 148 H 15.8098 0.944649 2.37718 0
M  V30 149 H 15.4538 1.61814 4.81434 0
M  V30 150 H 15.3838 -0.104013 5.26497 0
M  V30 151 H 17.8748 0.329288 3.76463 0
M  V30 152 H 18.1878 1.29409 7.61888 0
M  V30 153 H 16.5328 1.15695 6.85303 0
M  V30 154 H 19.7238 0.491752 4.6551 0
M  V30 155 H 19.8968 0.931482 6.4127 0
M  V30 156 N 13.3029 -1.57598 0.00835791 0
M  V30 157 C 14.2329 -2.1198 -0.979113 0
M  V30 158 C 15.2139 -1.03091 -1.35301 0
M  V30 159 O 16.3989 -1.30818 -1.43528 0
M  V30 160 C 13.5289 -2.62995 -2.26828 0
M  V30 161 C 12.4829 -3.76485 -2.03576 0
M  V30 162 C 11.8089 -4.13846 -3.38579 0
M  V30 163 C 13.1089 -5.0342 -1.39161 0
M  V30 164 H 14.8029 -2.94738 -0.526281 0
M  V30 165 H 12.3489 -1.41783 -0.251704 0
M  V30 166 H 14.3019 -2.99669 -2.96271 0
M  V30 167 H 13.0259 -1.7737 -2.7424 0
M  V30 168 H 11.6849 -3.40217 -1.36557 0
M  V30 169 H 11.3329 -3.25232 -3.83709 0
M  V30 170 H 11.0329 -4.90312 -3.23834 0
M  V30 171 H 12.5569 -4.53086 -4.09323 0
M  V30 172 H 13.9709 -5.37812 -1.98573 0
M  V30 173 H 12.3679 -5.84746 -1.34878 0
M  V30 174 H 13.4379 -4.83548 -0.361868 0
M  V30 175 N 14.781 0.264519 -1.55364 0
M  V30 176 C 16.006 1.01726 -1.80739 0
M  V30 177 C 16.431 1.78836 -0.583044 0
M  V30 178 O 15.789 1.75167 0.467566 0
M  V30 179 C 15.837 1.94482 -3.03659 0
M  V30 180 O 14.941 3.03386 -2.7934 0
M  V30 181 H 14.282 0.290395 -0.597132 0
M  V30 182 H 16.812 0.290854 -2.02522 0
M  V30 183 H 16.822 2.36278 -3.32621 0
M  V30 184 H 15.497 1.37772 -3.92418 0
M  V30 185 H 14.074 2.65844 -2.61498 0
M  V30 186 N 16.2591 1.48442 0.529413 0
M  V30 187 C 17.5071 1.56179 1.28267 0
M  V30 188 C 17.8281 0.237721 1.93546 0
M  V30 189 O 17.0981 -0.740779 1.81354 0
M  V30 190 H 15.6781 0.575367 0.476405 0
M  V30 191 H 18.3401 1.84909 0.61602 0
M  V30 192 H 17.4361 2.34312 2.06165 0
M  V30 193 N 17.7372 -0.778329 1.37039 0
M  V30 194 C 18.7002 -1.87301 1.32102 0
M  V30 195 C 19.7002 -1.59198 0.226405 0
M  V30 196 O 20.8902 -1.67403 0.481861 0
M  V30 197 C 18.0222 -3.24309 1.05055 0
M  V30 198 H 19.2152 -1.93093 2.29467 0
M  V30 199 H 16.7682 -0.977358 1.21973 0
M  V30 200 H 17.5032 -3.24196 0.0819373 0
M  V30 201 H 17.2882 -3.46098 1.84279 0
M  V30 202 H 18.7782 -4.04382 1.04234 0
M  V30 203 N 19.2153 -1.21501 -1.00376 0
M  V30 204 C 20.1453 -0.999478 -2.11028 0
M  V30 205 C 21.1263 0.0759671 -1.6993 0
M  V30 206 O 22.3113 -0.0841106 -1.94018 0
M  V30 207 C 19.4413 -0.564709 -3.42678 0
M  V30 208 C 18.3953 -1.58486 -3.97576 0
M  V30 209 C 17.7213 -1.00628 -5.25146 0
M  V30 210 C 19.0213 -2.97204 -4.29496 0
M  V30 211 H 20.7153 -1.92495 -2.29317 0
M  V30 212 H 18.2613 -0.92693 -1.102 0
M  V30 213 H 20.2143 -0.401091 -4.19487 0
M  V30 214 H 18.9383 0.396411 -3.24185 0
M  V30 215 H 17.5973 -1.73606 -3.22888 0
M  V30 216 H 17.2453 -0.0368439 -5.02987 0
M  V30 217 H 16.9453 -1.68771 -5.62841 0
M  V30 218 H 18.4693 -0.854015 -6.04598 0
M  V30 219 H 19.8833 -2.8552 -4.97143 0
M  V30 220 H 18.2803 -3.62372 -4.78338 0
M  V30 221 H 19.3503 -3.47956 -3.3772 0
M  V30 222 N 20.6934 1.19889 -1.02296 0
M  V30 223 C 21.9704 1.85148 -0.630832 0
M  V30 224 C 22.3504 1.91385 0.890782 0
M  V30 225 O 21.6984 1.42642 1.78509 0
M  V30 226 C 21.9084 3.24442 -1.28602 0
M  V30 227 C 23.2564 4.00663 -1.4055 0
M  V30 228 O 24.2804 3.33818 -1.24273 0
M  V30 229 O 23.1394 5.20387 -1.66913 0
M  V30 230 H 20.2334 0.797613 -0.218499 0
M  V30 231 H 22.7794 1.27427 -1.12074 0
M  V30 232 H 21.5514 3.14704 -2.32545 0
M  V30 233 H 21.1744 3.89802 -0.7836 0
M  V30 234 N 22.1715 0.800033 1.35784 0
M  V30 235 C 23.3965 0.388511 2.03729 0
M  V30 236 C 23.8215 -0.990481 1.5991 0
M  V30 237 O 23.1795 -1.64013 0.772612 0
M  V30 238 C 23.2275 0.4726 3.5749 0
M  V30 239 O 22.3315 -0.51646 4.09153 0
M  V30 240 H 21.6725 0.163271 0.643614 0
M  V30 241 H 24.2025 1.0841 1.73518 0
M  V30 242 H 24.2125 0.34003 4.06581 0
M  V30 243 H 22.8875 1.47848 3.88734 0
M  V30 244 H 21.4645 -0.344673 3.71304 0
M  V30 245 N 23.6496 -1.47581 0.552962 0
M  V30 246 C 24.8976 -2.02082 0.0272703 0
M  V30 247 C 25.2186 -1.4301 -1.32563 0
M  V30 248 O 24.4886 -0.603745 -1.86365 0
M  V30 249 H 23.0686 -0.746966 0.00709182 0
M  V30 250 H 25.7306 -1.81033 0.722008 0
M  V30 251 H 24.8266 -3.12034 -0.0639951 0
M  V30 252 N 25.1277 -0.289203 -1.54924 0
M  V30 253 C 26.4047 0.376032 -1.91951 0
M  V30 254 C 26.7847 1.72622 -1.21511 0
M  V30 255 O 26.1327 2.25853 -0.346767 0
M  V30 256 C 26.3427 0.502378 -3.45365 0
M  V30 257 C 27.6907 0.778741 -4.17398 0
M  V30 258 O 28.7147 0.586647 -3.51336 0
M  V30 259 O 27.5737 1.14698 -5.34328 0
M  V30 260 H 24.6677 0.208167 -0.800372 0
M  V30 261 H 27.2137 -0.336394 -1.66332 0
M  V30 262 H 25.9857 -0.447255 -3.88736 0
M  V30 263 H 25.6087 1.26373 -3.76982 0
M  V30 264 N 26.6058 1.57591 -0.0167156 0
M  V30 265 C 27.8308 1.9598 0.67872 0
M  V30 266 C 28.2558 0.892546 1.65575 0
M  V30 267 O 27.6138 -0.147772 1.80697 0
M  V30 268 C 27.6618 3.33468 1.37227 0
M  V30 269 O 26.7658 3.28954 2.48722 0
M  V30 270 H 26.1068 0.639339 0.17928 0
M  V30 271 H 28.6368 2.04463 -0.0748802 0
M  V30 272 H 28.6468 3.69417 1.7319 0
M  V30 273 H 27.3218 4.10694 0.656007 0
M  V30 274 H 25.8988 3.04705 2.14963 0
M  V30 275 N 28.0839 -0.256276 1.55502 0
M  V30 276 C 29.4999 -0.604325 1.47716 0
M  V30 277 C 29.6999 -1.88763 0.705039 0
M  V30 278 O 28.7559 -2.51445 0.230613 0
M  V30 279 C 30.0689 -0.715756 2.92057 0
M  V30 280 C 31.6169 -0.808706 3.02372 0
M  V30 281 C 32.0919 -0.951777 4.48001 0
M  V30 282 N 33.5829 -1.01688 4.519 0
M  V30 283 C 34.3179 -1.14668 5.61817 0
M  V30 284 N 33.8139 -1.24261 6.81565 0
M  V30 285 N 35.6069 -1.1791 5.49594 0
M  V30 286 H 27.7579 0.586291 2.04148 0
M  V30 287 H 30.0209 0.201015 0.926443 0
M  V30 288 H 29.7269 0.157027 3.51349 0
M  V30 289 H 29.6009 -1.59071 3.42018 0
M  V30 290 H 31.9879 -1.67195 2.43166 0
M  V30 291 H 32.0689 0.0912063 2.55637 0
M  V30 292 H 31.7129 -0.0931291 5.07815 0
M  V30 293 H 31.6429 -1.86659 4.92408 0
M  V30 294 H 34.1339 -0.954468 3.65648 0
M  V30 295 H 34.4469 -1.34046 7.61086 0
M  V30 296 H 32.7919 -1.21236 6.84344 0
M  V30 297 H 35.9829 -1.10057 4.54978 0
M  V30 298 H 36.1559 -1.27681 6.35296 0
M  V30 299 N 29.562 -1.4872 -0.521534 0
M  V30 300 C 30.525 -1.63379 -1.60748 0
M  V30 301 C 31.525 -0.50661 -1.52611 0
M  V30 302 O 32.715 -0.772601 -1.5613 0
M  V30 303 C 29.847 -1.61192 -3.00383 0
M  V30 304 H 31.04 -2.60217 -1.49087 0
M  V30 305 H 28.593 -1.37444 -0.744235 0
M  V30 306 H 29.328 -0.65863 -3.17541 0
M  V30 307 H 29.113 -2.43032 -3.07698 0
M  V30 308 H 30.603 -1.7466 -3.7932 0
M  V30 309 N 31.0401 0.771051 -1.3745 0
M  V30 310 C 32.2881 1.52661 -1.32435 0
M  V30 311 C 32.6091 1.9479 0.0905024 0
M  V30 312 O 31.8791 1.66348 1.03466 0
M  V30 313 H 30.4591 0.566218 -0.487244 0
M  V30 314 H 33.1211 0.917636 -1.71946 0
M  V30 315 H 32.2171 2.42568 -1.96385 0
M  V30 316 N 32.5182 1.22032 0.997298 0
M  V30 317 C 33.7952 0.950823 1.70935 0
M  V30 318 C 34.1752 -0.535292 2.042 0
M  V30 319 O 33.5232 -1.50217 1.72183 0
M  V30 320 C 33.7332 1.84386 2.96315 0
M  V30 321 C 35.0812 2.09732 3.69185 0
M  V30 322 O 36.1052 1.81798 3.06314 0
M  V30 323 O 34.9642 2.57018 4.82291 0
M  V30 324 H 32.0582 0.357204 0.745878 0
M  V30 325 H 34.6042 1.32997 1.05404 0
M  V30 326 H 33.3762 2.84928 2.68201 0
M  V30 327 H 32.9992 1.46602 3.69586 0
M  V30 328 N 33.9963 -1.19345 1.0293 0
M  V30 329 C 34.9063 -2.26245 0.620515 0
M  V30 330 C 35.9223 -1.70486 -0.347928 0
M  V30 331 O 37.0983 -2.00347 -0.205704 0
M  V30 332 C 34.1633 -3.46693 -0.0218957 0
M  V30 333 C 33.2243 -4.17632 0.994102 0
M  V30 334 C 32.4573 -5.32329 0.382253 0
M  V30 335 O 32.6803 -5.64552 -0.814676 0
M  V30 336 O 31.6143 -5.91664 1.10531 0
M  V30 337 H 35.4403 -2.63453 1.51083 0
M  V30 338 H 33.0253 -1.26207 0.799513 0
M  V30 339 H 34.9073 -4.19683 -0.380072 0
M  V30 340 H 33.5823 -3.11333 -0.886209 0
M  V30 341 H 32.4893 -3.4676 1.40387 0
M  V30 342 H 33.8223 -4.56964 1.8288 0
M  V30 343 N 35.4744 -0.807222 -1.35358 0
M  V30 344 C 36.3844 -0.219594 -2.3357 0
M  V30 345 C 37.4004 0.637734 -1.61892 0
M  V30 346 O 38.5764 0.549336 -1.93763 0
M  V30 347 C 35.6414 0.62158 -3.41083 0
M  V30 348 C 34.7024 -0.256315 -4.28534 0
M  V30 349 C 33.9354 0.544807 -5.30912 0
M  V30 350 O 34.1584 1.77944 -5.41934 0
M  V30 351 O 33.0924 -0.0646478 -6.01865 0
M  V30 352 H 36.9184 -1.03208 -2.85625 0
M  V30 353 H 34.5034 -0.569025 -1.38139 0
M  V30 354 H 36.3854 1.10067 -4.06772 0
M  V30 355 H 35.0604 1.41165 -2.91297 0
M  V30 356 H 33.9674 -0.782559 -3.65823 0
M  V30 357 H 35.3004 -1.01034 -4.81719 0
M  V30 358 N 36.9525 1.47285 -0.560781 0
M  V30 359 C 37.8625 2.33846 0.187954 0
M  V30 360 C 38.8785 1.48412 0.908293 0
M  V30 361 O 40.0545 1.81332 0.876388 0
M  V30 362 C 37.1195 3.25178 1.2025 0
M  V30 363 C 36.1805 4.26504 0.489208 0
M  V30 364 C 35.4135 5.13472 1.45542 0
M  V30 365 O 35.6365 5.02959 2.6905 0
M  V30 366 O 34.5705 5.93902 0.977963 0
M  V30 367 H 38.3965 2.99177 -0.522177 0
M  V30 368 H 35.9815 1.45903 -0.321364 0
M  V30 369 H 37.8635 3.81584 1.78805 0
M  V30 370 H 36.5385 2.6247 1.89449 0
M  V30 371 H 35.4455 3.73847 -0.137627 0
M  V30 372 H 36.7785 4.91935 -0.161399 0
M  V30 373 N 38.4306 0.297415 1.54768 0
M  V30 374 C 39.3936 -0.567375 2.22066 0
M  V30 375 C 40.3936 -1.06409 1.20556 0
M  V30 376 O 41.5836 -0.960691 1.45315 0
M  V30 377 C 38.7156 -1.78517 2.90421 0
M  V30 378 H 39.9086 0.0205534 2.99893 0
M  V30 379 H 37.4616 0.0482163 1.56226 0
M  V30 380 H 38.1966 -2.41303 2.16664 0
M  V30 381 H 37.9816 -1.43669 3.64831 0
M  V30 382 H 39.4716 -2.39964 3.41771 0
M  V30 383 N 39.9087 -1.5758 0.0250728 0
M  V30 384 C 41.1567 -1.91255 -0.653151 0
M  V30 385 C 41.4777 -0.901691 -1.729 0
M  V30 386 O 40.7477 0.0573785 -1.95816 0
M  V30 387 H 39.3277 -0.705942 -0.244243 0
M  V30 388 H 41.9897 -1.94767 0.0719209 0
M  V30 389 H 41.0857 -2.91752 -1.10847 0
M  V30 390 N 41.3868 0.248026 -1.55636 0
M  V30 391 C 42.7978 0.817177 -1.67866 0
M  V30 392 C 43.1488 1.86069 -0.622322 0
M  V30 393 O 42.2738 2.15157 0.231618 0
M  V30 394 C 42.8688 1.489 -3.04326 0
M  V30 395 C 41.4278 2.00587 -3.185 0
M  V30 396 C 40.5748 0.856573 -2.63739 0
M  V30 397 H 43.5258 0.0238579 -1.58682 0
M  V30 398 H 43.5468 2.35698 -2.98708 0
M  V30 399 H 43.0588 0.729279 -3.81186 0
M  V30 400 H 41.1598 2.79443 -2.4646 0
M  V30 401 H 41.2728 2.20402 -4.25393 0
M  V30 402 H 39.6368 1.25678 -2.21534 0
M  V30 403 H 40.4198 0.109953 -3.43124 0
M  V30 404 N 42.8649 1.48995 0.513639 0
M  V30 405 C 44.1129 1.57531 1.26604 0
M  V30 406 C 44.4339 0.258236 1.93283 0
M  V30 407 O 43.7039 -0.721502 1.8213 0
M  V30 408 H 42.2839 0.580387 0.470276 0
M  V30 409 H 44.9459 1.85552 0.596373 0
M  V30 410 H 44.0419 2.36486 2.03669 0
M  V30 411 N 44.343 -0.763751 1.37857 0
M  V30 412 C 45.273 -1.89103 1.36975 0
M  V30 413 C 46.254 -1.68439 0.237152 0
M  V30 414 O 47.439 -1.8918 0.438713 0
M  V30 415 C 44.569 -3.26496 1.18395 0
M  V30 416 C 43.523 -3.61741 2.28751 0
M  V30 417 C 42.849 -4.97762 1.95286 0
M  V30 418 C 44.149 -3.67665 3.70972 0
M  V30 419 H 45.843 -1.90099 2.31307 0
M  V30 420 H 43.389 -0.91319 1.11341 0
M  V30 421 H 45.342 -4.05003 1.16406 0
M  V30 422 H 44.066 -3.25955 0.205215 0
M  V30 423 H 42.725 -2.85547 2.29909 0
M  V30 424 H 42.373 -4.93769 0.959221 0
M  V30 425 H 42.073 -5.22313 2.69189 0
M  V30 426 H 43.597 -5.7866 1.94898 0
M  V30 427 H 45.011 -4.36307 3.719 0
M  V30 428 H 43.408 -4.03718 4.43995 0
M  V30 429 H 44.478 -2.68134 4.0402 0
M  V30 430 N 45.8211 -1.22559 -0.990812 0
M  V30 431 C 47.0611 -1.06302 -1.74583 0
M  V30 432 C 47.4251 0.394737 -1.87898 0
M  V30 433 O 48.6261 0.678214 -2.60103 0
M  V30 434 C 46.8971 -1.75699 -3.11231 0
M  V30 435 S 48.4561 -1.74882 -4.02445 0
M  V30 436 H 45.2741 -0.380639 -0.600529 0
M  V30 437 H 47.8761 -1.55532 -1.18449 0
M  V30 438 H 46.5801 -2.80923 -2.99183 0
M  V30 439 H 46.1111 -1.26708 -3.72436 0
M  V30 440 H 48.1261 -0.799997 -4.89709 0
M  V30 441 N 47.2992 1.18797 -1.03562 0
M  V30 442 C 48.7152 1.40671 -0.753917 0
M  V30 443 C 48.9152 1.9043 0.658686 0
M  V30 444 O 47.9712 2.08538 1.42366 0
M  V30 445 C 49.2842 2.41192 -1.79574 0
M  V30 446 C 50.8322 2.54928 -1.81606 0
M  V30 447 C 51.3072 3.58709 -2.84766 0
M  V30 448 N 52.7982 3.66212 -2.83625 0
M  V30 449 C 53.5332 4.46225 -3.60098 0
M  V30 450 N 53.0292 5.29888 -4.46308 0
M  V30 451 N 54.8222 4.40939 -3.4861 0
M  V30 452 H 46.9732 0.848221 -1.94728 0
M  V30 453 H 49.2362 0.435081 -0.842264 0
M  V30 454 H 48.9422 2.11669 -2.80872 0
M  V30 455 H 48.8162 3.40467 -1.62365 0
M  V30 456 H 51.2032 2.83771 -0.809817 0
M  V30 457 H 51.2842 1.55784 -2.02891 0
M  V30 458 H 50.9282 3.30607 -3.85566 0
M  V30 459 H 50.8582 4.57519 -2.60737 0
M  V30 460 H 53.3492 3.06466 -2.21105 0
M  V30 461 H 53.6622 5.88078 -5.01382 0
M  V30 462 H 52.0072 5.29326 -4.50377 0
M  V30 463 H 55.1982 3.74624 -2.80668 0
M  V30 464 H 55.3712 5.03056 -4.08459 0
M  V30 465 N 48.7773 0.814389 1.34928 0
M  V30 466 C 49.7253 0.218424 2.31572 0
M  V30 467 C 50.7193 -0.636128 1.57002 0
M  V30 468 O 51.9253 -0.52842 1.72069 0
M  V30 469 H 48.3003 0.0518799 0.750208 0
M  V30 470 H 50.2713 1.04852 2.79372 0
M  V30 471 C 49.0203 -0.61207 3.4227 0
M  V30 472 H 48.3433 0.0361578 3.99784 0
M  V30 473 H 49.7833 -0.995317 4.12152 0
M  V30 474 C 48.2423 -1.78087 2.85984 0
M  V30 475 O 48.7723 -2.8787 2.80168 0
M  V30 476 N 46.9783 -1.59488 2.42924 0
M  V30 477 H 46.5253 -0.701874 2.47854 0
M  V30 478 H 46.4833 -2.37846 2.05613 0
M  V30 479 N 50.2554 -1.46986 0.568584 0
M  V30 480 C 51.5034 -2.02041 0.0487022 0
M  V30 481 C 51.8244 -1.44408 -1.31039 0
M  V30 482 O 51.0944 -0.623477 -1.85714 0
M  V30 483 H 49.6744 -0.746849 0.015014 0
M  V30 484 H 52.3364 -1.80257 0.741168 0
M  V30 485 H 51.4324 -3.12085 -0.0308961 0
M  V30 486 N 51.7335 -0.305618 -1.54608 0
M  V30 487 C 52.9795 0.295595 -2.01241 0
M  V30 488 C 53.3345 1.51171 -1.19018 0
M  V30 489 O 52.6275 1.89832 -0.259684 0
M  V30 490 C 52.8215 0.698983 -3.50498 0
M  V30 491 C 52.6505 -0.476491 -4.47168 0
M  V30 492 C 51.4205 -0.969963 -4.95903 0
M  V30 493 C 53.6185 -1.32294 -4.96994 0
M  V30 494 N 51.6005 -2.11172 -5.76437 0
M  V30 495 C 52.9715 -2.31212 -5.75275 0
M  V30 496 C 55.0265 -1.35278 -4.7917 0
M  V30 497 C 53.7295 -3.32896 -6.37631 0
M  V30 498 C 55.7555 -2.35823 -5.42348 0
M  V30 499 C 55.1175 -3.33469 -6.20466 0
M  V30 500 H 51.2165 0.0724992 -0.778632 0
M  V30 501 H 53.8005 -0.436583 -1.89742 0
M  V30 502 H 51.9715 1.40032 -3.62278 0
M  V30 503 H 53.7035 1.28013 -3.8392 0
M  V30 504 H 50.4585 -0.544178 -4.70463 0
M  V30 505 H 50.8825 -2.68714 -6.21387 0
M  V30 506 H 55.5245 -0.61157 -4.18354 0
M  V30 507 H 53.2425 -4.07933 -6.97579 0
M  V30 508 H 56.8285 -2.38911 -5.30484 0
M  V30 509 H 55.7085 -4.09996 -6.68485 0
M  V30 510 N 53.2116 1.57565 -0.0334293 0
M  V30 511 C 54.1746 2.09393 0.932048 0
M  V30 512 C 55.1746 1.00986 1.25134 0
M  V30 513 O 56.3646 1.27129 1.19096 0
M  V30 514 C 53.4966 2.56338 2.2473 0
M  V30 515 H 54.6896 2.95984 0.483085 0
M  V30 516 H 52.2426 1.54819 0.21468 0
M  V30 517 H 52.9776 1.7309 2.74245 0
M  V30 518 H 52.7626 3.35542 2.02865 0
M  V30 519 H 54.2526 2.96646 2.93923 0
M  V30 520 N 54.6897 -0.239769 1.55765 0
M  V30 521 C 56.1007 -0.808263 1.68297 0
M  V30 522 C 56.4517 -1.85736 0.632181 0
M  V30 523 O 55.5767 -2.15277 -0.220204 0
M  V30 524 C 56.1717 -1.47284 3.05111 0
M  V30 525 C 54.7307 -1.98895 3.19559 0
M  V30 526 C 53.8777 -0.842575 2.64189 0
M  V30 527 H 56.8287 -0.0154422 1.58692 0
M  V30 528 H 56.8497 -2.34111 2.99954 0
M  V30 529 H 56.3617 -0.709053 3.81568 0
M  V30 530 H 54.4627 -2.78132 2.47938 0
M  V30 531 H 54.5757 -2.18143 4.26556 0
M  V30 532 H 52.9397 -1.24501 2.22197 0
M  V30 533 H 53.7227 -0.0917552 3.43177 0
M  V30 534 N 56.1678 -1.49265 -0.50573 0
M  V30 535 C 57.1308 -1.65075 -1.59006 0
M  V30 536 C 58.1308 -0.522768 -1.52065 0
M  V30 537 O 59.3208 -0.789117 -1.55302 0
M  V30 538 C 56.4528 -1.64369 -2.98656 0
M  V30 539 H 57.6458 -2.61784 -1.46319 0
M  V30 540 H 55.1988 -1.38226 -0.729616 0
M  V30 541 H 55.9338 -0.692272 -3.16825 0
M  V30 542 H 55.7188 -2.46282 -3.05103 0
M  V30 543 H 57.2088 -1.78674 -3.77446 0
M  V30 544 N 57.6459 0.756429 -1.3826 0
M  V30 545 C 59.0569 1.33359 -1.30661 0
M  V30 546 C 59.4079 1.96161 0.0388875 0
M  V30 547 O 58.5329 1.94874 0.940918 0
M  V30 548 C 59.1279 2.42477 -2.36622 0
M  V30 549 C 57.6869 2.95922 -2.3261 0
M  V30 550 C 56.8339 1.69275 -2.19639 0
M  V30 551 H 59.7849 0.55552 -1.4866 0
M  V30 552 H 59.8059 3.22345 -2.02174 0
M  V30 553 H 59.3179 1.96739 -3.34538 0
M  V30 554 H 57.4189 3.45996 -1.38267 0
M  V30 555 H 57.5319 3.50494 -3.26636 0
M  V30 556 H 55.8959 1.92793 -1.66442 0
M  V30 557 H 56.6789 1.25619 -3.19491 0
M  V30 558 N 59.124 1.23083 0.984299 0
M  V30 559 C 60.37 1.06214 1.72761 0
M  V30 560 C 60.703 -0.400584 1.90024 0
M  V30 561 O 59.978 -1.29672 1.44967 0
M  V30 562 C 60.261 1.78375 3.12817 0
M  V30 563 C 60.114 3.32296 3.03149 0
M  V30 564 C 61.433 1.54309 4.12161 0
M  V30 565 H 58.552 0.387251 0.627061 0
M  V30 566 H 61.194 1.51536 1.14616 0
M  V30 567 H 59.344 1.39848 3.62457 0
M  V30 568 H 61.016 3.8032 2.61064 0
M  V30 569 H 59.259 3.6153 2.39747 0
M  V30 570 H 59.93 3.77972 4.02295 0
M  V30 571 H 62.406 1.87791 3.71314 0
M  V30 572 H 61.282 2.07281 5.08258 0
M  V30 573 H 61.543 0.477572 4.39513 0
M  V30 574 N 60.6021 -1.18246 1.0419 0
M  V30 575 C 61.5341 -2.2142 0.592088 0
M  V30 576 C 62.5471 -1.59233 -0.338909 0
M  V30 577 O 63.7361 -1.78002 -0.133231 0
M  V30 578 C 60.8361 -3.38546 -0.154854 0
M  V30 579 C 60.0091 -4.3031 0.784328 0
M  V30 580 C 59.0681 -5.26138 0.0804583 0
M  V30 581 O 58.0941 -5.64738 0.711292 0
M  V30 582 N 59.2961 -5.68261 -1.18574 0
M  V30 583 H 62.0611 -2.60636 1.47949 0
M  V30 584 H 59.6221 -1.33044 0.922544 0
M  V30 585 H 61.6141 -3.99678 -0.635606 0
M  V30 586 H 60.1841 -2.98012 -0.943811 0
M  V30 587 H 59.4041 -3.66764 1.44491 0
M  V30 588 H 60.6921 -4.8852 1.42218 0
M  V30 589 H 60.0901 -5.38957 -1.71876 0
M  V30 590 H 58.6471 -6.31584 -1.61074 0
M  V30 591 N 62.0802 -0.821533 -1.34494 0
M  V30 592 C 63.3052 -0.420873 -2.03085 0
M  V30 593 C 63.7302 0.964915 -1.61465 0
M  V30 594 O 63.0882 1.62763 -0.798607 0
M  V30 595 C 63.1362 -0.529414 -3.56693 0
M  V30 596 O 62.2402 0.451302 -4.09923 0
M  V30 597 H 61.5812 -0.173489 -0.640935 0
M  V30 598 H 64.1112 -1.11157 -1.71771 0
M  V30 599 H 64.1212 -0.404671 -4.05988 0
M  V30 600 H 62.7962 -1.54014 -3.86332 0
M  V30 601 H 61.3732 0.285558 -3.71805 0
M  V30 602 N 63.5583 1.46682 -0.576371 0
M  V30 603 C 64.9693 1.86112 -0.148091 0
M  V30 604 C 65.3203 1.48073 1.2872 0
M  V30 605 O 64.4453 0.892656 1.97131 0
M  V30 606 C 65.0403 3.37786 -0.261982 0
M  V30 607 C 63.5993 3.76235 0.111384 0
M  V30 608 C 62.7463 2.70713 -0.60083 0
M  V30 609 H 65.6973 1.37927 -0.78497 0
M  V30 610 H 65.7183 3.77007 0.514364 0
M  V30 611 H 65.2303 3.6544 -1.30671 0
M  V30 612 H 63.3313 3.54198 1.15649 0
M  V30 613 H 63.4443 4.78391 -0.26052 0
M  V30 614 H 61.8083 2.54666 -0.0417783 0
M  V30 615 H 62.5913 3.01208 -1.64708 0
M  V30 616 N 65.0364 0.313813 1.54444 0
M  V30 617 C 66.2824 -0.292108 2.00685 0
M  V30 618 C 66.6154 -1.52548 1.20177 0
M  V30 619 O 65.8904 -1.92452 0.281531 0
M  V30 620 C 66.1734 -0.635968 3.5444 0
M  V30 621 C 66.0264 0.607437 4.4568 0
M  V30 622 C 67.3454 -1.45747 4.15266 0
M  V30 623 H 64.4644 -0.104697 0.729526 0
M  V30 624 H 67.1064 0.428457 1.85106 0
M  V30 625 H 65.2564 -1.24986 3.67846 0
M  V30 626 H 66.9284 1.24581 4.44159 0
M  V30 627 H 65.1714 1.23822 4.15753 0
M  V30 628 H 65.8424 0.322515 5.51057 0
M  V30 629 H 68.3184 -0.938645 4.05375 0
M  V30 630 H 67.1944 -1.66683 5.2298 0
M  V30 631 H 67.4554 -2.45063 3.67963 0
M  V30 632 N 66.5145 -1.57545 0.0417849 0
M  V30 633 C 67.7625 -1.91937 -0.632829 0
M  V30 634 C 68.0835 -0.919978 -1.71934 0
M  V30 635 O 67.3535 0.0366064 -1.95866 0
M  V30 636 H 65.9335 -0.708493 -0.236742 0
M  V30 637 H 68.5955 -1.9468 0.0925745 0
M  V30 638 H 67.6915 -2.92912 -1.07746 0
M  V30 639 N 67.9926 0.231505 -1.5589 0
M  V30 640 C 69.4086 0.580748 -1.48659 0
M  V30 641 C 69.6086 1.87617 -0.73498 0
M  V30 642 O 68.6646 2.51046 -0.270586 0
M  V30 643 C 69.9776 0.669202 -2.93159 0
M  V30 644 C 71.5256 0.760499 -3.03621 0
M  V30 645 C 72.0006 0.880383 -4.49459 0
M  V30 646 N 73.4916 0.944861 -4.53461 0
M  V30 647 C 74.2266 1.05716 -5.63571 0
M  V30 648 N 73.7226 1.13403 -6.83456 0
M  V30 649 N 75.5156 1.09152 -5.514 0
M  V30 650 H 67.6666 -0.618695 -2.03189 0
M  V30 651 H 69.9296 -0.215728 -0.923128 0
M  V30 652 H 69.6356 -0.212904 -3.51055 0
M  V30 653 H 69.5096 1.5361 -3.44505 0
M  V30 654 H 71.8966 1.63305 -2.45796 0
M  V30 655 H 71.9776 -0.131864 -2.5546 0
M  V30 656 H 71.6216 0.0123284 -5.07899 0
M  V30 657 H 71.5516 1.78802 -4.95316 0
M  V30 658 H 74.0426 0.896176 -3.6712 0
M  V30 659 H 74.3556 1.21921 -7.63122 0
M  V30 660 H 72.7006 1.10333 -6.86186 0
M  V30 661 H 75.8916 1.02805 -4.56671 0
M  V30 662 H 76.0646 1.17558 -6.37247 0
M  V30 663 N 69.4707 1.49531 0.497807 0
M  V30 664 C 70.8867 1.36365 0.829266 0
M  V30 665 C 71.0867 0.399184 1.97506 0
M  V30 666 O 70.1427 -0.167977 2.51941 0
M  V30 667 C 71.4557 2.77153 1.16647 0
M  V30 668 C 73.0037 2.85877 1.27449 0
M  V30 669 C 73.4787 4.2744 1.64497 0
M  V30 670 N 74.9697 4.30265 1.7154 0
M  V30 671 C 75.7047 5.3677 2.01656 0
M  V30 672 N 75.2007 6.53516 2.29976 0
M  V30 673 N 76.9937 5.24189 2.02934 0
M  V30 674 H 69.1447 2.10831 -0.257703 0
M  V30 675 H 71.4077 0.946534 -0.0527091 0
M  V30 676 H 71.1137 3.49442 0.397872 0
M  V30 677 H 70.9877 3.12722 2.10915 0
M  V30 678 H 73.3747 2.13824 2.0338 0
M  V30 679 H 73.4557 2.53887 0.312244 0
M  V30 680 H 73.0997 5.00021 0.891151 0
M  V30 681 H 73.0297 4.56896 2.61827 0
M  V30 682 H 75.5207 3.4607 1.51802 0
M  V30 683 H 75.8337 7.30506 2.52153 0
M  V30 684 H 74.1787 6.56737 2.27425 0
M  V30 685 H 77.3697 4.31988 1.80289 0
M  V30 686 H 77.5427 6.07286 2.26071 0
M  V30 687 N 70.9488 -0.749086 1.3866 0
M  V30 688 C 72.3648 -1.05276 1.19955 0
M  V30 689 C 72.5648 -2.01435 0.05134 0
M  V30 690 O 71.6208 -2.45232 -0.60147 0
M  V30 691 C 72.9338 -1.62853 2.52783 0
M  V30 692 C 74.4818 -1.75002 2.59506 0
M  V30 693 C 74.9568 -2.35991 3.92521 0
M  V30 694 N 76.4478 -2.43416 3.94085 0
M  V30 695 C 77.1828 -2.91511 4.9377 0
M  V30 696 N 76.6788 -3.39608 6.03853 0
M  V30 697 N 78.4718 -2.90592 4.81157 0
M  V30 698 H 70.6228 -0.111066 2.12109 0
M  V30 699 H 72.8858 -0.111901 0.941373 0
M  V30 700 H 72.5918 -0.99664 3.37283 0
M  V30 701 H 72.4658 -2.61854 2.715 0
M  V30 702 H 74.8528 -2.37317 1.75398 0
M  V30 703 H 74.9338 -0.74693 2.44652 0
M  V30 704 H 74.5778 -1.74308 4.77053 0
M  V30 705 H 74.5078 -3.3695 4.04688 0
M  V30 706 H 76.9988 -2.09405 3.14576 0
M  V30 707 H 77.3118 -3.74775 6.75843 0
M  V30 708 H 75.6568 -3.37653 6.07466 0
M  V30 709 H 78.8478 -2.52332 3.94267 0
M  V30 710 H 79.0208 -3.27762 5.58996 0
M  V30 711 N 72.4269 -1.23603 -0.977757 0
M  V30 712 C 73.6749 -1.06759 -1.71601 0
M  V30 713 C 73.9959 0.395929 -1.90938 0
M  V30 714 O 73.2659 1.28356 -1.47992 0
M  V30 715 H 71.8459 -0.392062 -0.635843 0
M  V30 716 H 74.5079 -1.55362 -1.1768 0
M  V30 717 H 73.6039 -1.55763 -2.70452 0
M  V30 718 N 73.905 1.17692 -1.04816 0
M  V30 719 C 75.321 1.39863 -0.768794 0
M  V30 720 C 75.521 1.91118 0.638451 0
M  V30 721 O 74.577 2.10036 1.40146 0
M  V30 722 C 75.89 2.39274 -1.82122 0
M  V30 723 C 77.438 2.52987 -1.843 0
M  V30 724 C 77.913 3.55669 -2.88555 0
M  V30 725 N 79.404 3.63183 -2.87493 0
M  V30 726 C 80.139 4.42381 -3.64811 0
M  V30 727 N 79.635 5.25125 -4.51903 0
M  V30 728 N 81.428 4.37217 -3.53267 0
M  V30 729 H 73.579 0.82752 -1.95617 0
M  V30 730 H 75.842 0.426123 -0.846831 0
M  V30 731 H 75.548 2.08678 -2.83102 0
M  V30 732 H 75.422 3.38725 -1.65967 0
M  V30 733 H 77.809 2.82896 -0.839869 0
M  V30 734 H 77.89 1.53623 -2.04532 0
M  V30 735 H 77.534 3.26499 -3.89051 0
M  V30 736 H 77.464 4.54728 -2.65575 0
M  V30 737 H 79.955 3.04103 -2.24343 0
M  V30 738 H 80.268 5.82728 -5.07591 0
M  V30 739 H 78.613 5.24519 -4.55966 0
M  V30 740 H 81.804 3.71626 -2.84625 0
M  V30 741 H 81.977 4.98696 -4.13771 0
M  V30 742 N 75.3831 0.828654 1.34056 0
M  V30 743 C 76.6301 0.419458 1.98108 0
M  V30 744 C 76.9581 -1.01886 1.65679 0
M  V30 745 O 76.2131 -1.72539 0.923512 0
M  V30 746 C 76.5121 0.575226 3.52741 0
M  V30 747 C 76.1781 1.98012 4.05095 0
M  V30 748 C 74.8401 2.36442 4.19104 0
M  V30 749 C 77.1921 2.89824 4.33188 0
M  V30 750 C 74.5201 3.66009 4.58535 0
M  V30 751 C 76.8721 4.1886 4.74066 0
M  V30 752 C 75.5361 4.5726 4.86281 0
M  V30 753 H 74.8061 0.153491 0.724929 0
M  V30 754 H 77.4531 1.05371 1.59904 0
M  V30 755 H 75.7581 -0.142385 3.91541 0
M  V30 756 H 77.4551 0.239057 4.00287 0
M  V30 757 H 74.0451 1.67162 3.94658 0
M  V30 758 H 78.2291 2.61375 4.21897 0
M  V30 759 H 73.4851 3.95579 4.66184 0
M  V30 760 H 77.6591 4.90086 4.94761 0
M  V30 761 H 75.2861 5.57707 5.16592 0
M  V30 762 N 76.8612 -1.46375 0.584142 0
M  V30 763 C 78.1072 -2.02678 0.0703716 0
M  V30 764 C 78.4402 -1.4545 -1.28678 0
M  V30 765 O 77.7152 -0.62014 -1.84349 0
M  V30 766 C 77.9982 -3.60099 0.00614674 0
M  V30 767 C 77.8512 -4.27709 1.3923 0
M  V30 768 C 79.1702 -4.34598 -0.693742 0
M  V30 769 H 76.2892 -0.736504 0.027047 0
M  V30 770 H 78.9312 -1.74501 0.751615 0
M  V30 771 H 77.0812 -3.84236 -0.574009 0
M  V30 772 H 78.7532 -4.14832 2.01773 0
M  V30 773 H 76.9962 -3.87016 1.95962 0
M  V30 774 H 77.6672 -5.36478 1.29982 0
M  V30 775 H 80.1432 -4.15615 -0.200869 0
M  V30 776 H 79.0192 -5.44318 -0.707714 0
M  V30 777 H 79.2802 -4.05759 -1.75533 0
M  V30 778 N 78.3393 -0.321999 -1.54275 0
M  V30 779 C 79.2863 0.544664 -2.24281 0
M  V30 780 C 80.2563 1.1129 -1.23303 0
M  V30 781 O 81.4413 1.15354 -1.51981 0
M  V30 782 C 78.5813 1.70045 -3.00298 0
M  V30 783 C 77.6943 1.16159 -4.1609 0
M  V30 784 C 76.8293 2.28293 -4.79641 0
M  V30 785 C 75.8683 1.71648 -5.8754 0
M  V30 786 N 75.0053 2.77438 -6.44959 0
M  V30 787 H 79.8453 -0.0588907 -2.97942 0
M  V30 788 H 77.3823 -0.0408345 -1.47043 0
M  V30 789 H 79.3403 2.38054 -3.42616 0
M  V30 790 H 77.9703 2.27531 -2.28975 0
M  V30 791 H 77.0223 0.373092 -3.78566 0
M  V30 792 H 78.3343 0.707087 -4.93763 0
M  V30 793 H 77.4883 3.0421 -5.2492 0
M  V30 794 H 76.2273 2.77079 -4.01346 0
M  V30 795 H 75.2323 0.942282 -5.41665 0
M  V30 796 H 76.4573 1.23741 -6.67731 0
M  V30 797 H 74.4033 3.25519 -5.69538 0
M  V30 798 H 74.3203 2.36547 -7.1804 0
M  V30 799 H 75.5883 3.53189 -6.94894 0
M  V30 800 N 79.8174 1.5752 -0.0501392 0
M  V30 801 C 80.7644 2.1147 0.924603 0
M  V30 802 C 81.7344 1.02182 1.30951 0
M  V30 803 O 82.9194 1.29723 1.39916 0
M  V30 804 C 80.0594 2.66337 2.19451 0
M  V30 805 C 79.1724 3.89708 1.86418 0
M  V30 806 C 78.3074 4.32893 3.07859 0
M  V30 807 C 77.3464 5.48967 2.70742 0
M  V30 808 N 76.4834 5.87211 3.84874 0
M  V30 809 H 81.3234 2.94465 0.457639 0
M  V30 810 H 78.8604 1.45531 0.214266 0
M  V30 811 H 80.8184 2.96247 2.93758 0
M  V30 812 H 79.4484 1.86141 2.63726 0
M  V30 813 H 78.5004 3.66396 1.02264 0
M  V30 814 H 79.8124 4.74074 1.55096 0
M  V30 815 H 78.9664 4.6435 3.90466 0
M  V30 816 H 77.7054 3.47336 3.42358 0
M  V30 817 H 76.7104 5.17183 1.86551 0
M  V30 818 H 77.9354 6.3624 2.37436 0
M  V30 819 H 75.8814 5.04607 4.19175 0
M  V30 820 H 75.7984 6.66266 3.57247 0
M  V30 821 H 77.0664 6.23282 4.68123 0
M  V30 822 N 81.2955 -0.223234 1.56011 0
M  V30 823 C 82.5725 -0.972108 1.69733 0
M  V30 824 C 82.9525 -2.02485 0.59691 0
M  V30 825 O 82.3005 -2.25037 -0.396324 0
M  V30 826 C 82.5105 -1.58407 3.10979 0
M  V30 827 C 83.8585 -2.07696 3.70334 0
M  V30 828 O 84.8825 -1.68304 3.1393 0
M  V30 829 O 83.7415 -2.80096 4.69264 0
M  V30 830 H 80.8355 -0.453993 0.691245 0
M  V30 831 H 83.3815 -0.215149 1.68331 0
M  V30 832 H 82.1535 -0.823831 3.82529 0
M  V30 833 H 81.7765 -2.40661 3.16493 0
M  V30 834 N 82.7736 -1.49793 -0.48987 0
M  V30 835 C 84.0216 -1.59525 -1.24081 0
M  V30 836 C 84.3426 -0.288953 -1.92847 0
M  V30 837 O 83.6126 0.692436 -1.83254 0
M  V30 838 H 82.1926 -0.587796 -0.460983 0
M  V30 839 H 84.8546 -1.86477 -0.566778 0
M  V30 840 H 83.9506 -2.39696 -1.99881 0
M  V30 841 N 84.2517 0.741722 -1.39055 0
M  V30 842 C 85.2017 1.84661 -1.33732 0
M  V30 843 C 86.1857 1.59397 -0.219401 0
M  V30 844 O 87.3777 1.71015 -0.456375 0
M  V30 845 C 84.5067 3.22512 -1.17647 0
M  V30 846 C 83.5927 3.53628 -2.34112 0
M  V30 847 N 83.9837 3.55723 -3.59576 0
M  V30 848 C 82.2817 3.83956 -2.26923 0
M  V30 849 C 82.9827 3.84443 -4.36553 0
M  V30 850 N 81.9587 4.01877 -3.66055 0
M  V30 851 H 85.7607 1.84576 -2.28711 0
M  V30 852 H 83.2747 0.939647 -1.32455 0
M  V30 853 H 85.2717 4.01597 -1.11917 0
M  V30 854 H 83.9317 3.2384 -0.236124 0
M  V30 855 H 84.9427 3.37196 -3.93089 0
M  V30 856 H 81.6197 3.92929 -1.41113 0
M  V30 857 H 83.0097 3.92588 -5.45274 0
M  V30 858 N 85.7298 1.2412 0.971189 0
M  V30 859 C 86.9698 1.09066 1.7287 0
M  V30 860 C 87.3338 -0.364794 1.88503 0
M  V30 861 O 88.5348 -0.636748 2.61149 0
M  V30 862 C 86.8058 1.80629 3.08396 0
M  V30 863 S 88.3648 1.81263 3.99611 0
M  V30 864 H 85.1828 0.390145 0.594397 0
M  V30 865 H 87.7848 1.57397 1.15959 0
M  V30 866 H 86.4888 2.85647 2.94676 0
M  V30 867 H 86.0198 1.32617 3.70373 0
M  V30 868 H 88.0348 0.877804 4.88374 0
M  V30 869 N 87.2079 -1.17134 1.05439 0
M  V30 870 C 88.1559 -2.23289 0.651511 0
M  V30 871 C 89.1499 -1.66186 -0.328411 0
M  V30 872 O 90.3559 -1.78949 -0.194206 0
M  V30 873 H 86.7309 -0.726938 0.192523 0
M  V30 874 H 88.7019 -2.54565 1.55689 0
M  V30 875 C 87.4509 -3.47671 0.0448436 0
M  V30 876 H 86.7739 -3.91918 0.78996 0
M  V30 877 H 88.2139 -4.2353 -0.19964 0
M  V30 878 C 86.6729 -3.14453 -1.20918 0
M  V30 879 O 87.2029 -3.29459 -2.29825 0
M  V30 880 N 85.4089 -2.68657 -1.10779 0
M  V30 881 H 84.9559 -2.56646 -0.221526 0
M  V30 882 H 84.9139 -2.46804 -1.9477 0
M  V30 883 N 88.686 -0.835752 -1.33615 0
M  V30 884 C 89.932 -0.430596 -1.98176 0
M  V30 885 C 90.265 1.00684 -1.66061 0
M  V30 886 O 89.54 1.70339 -0.938877 0
M  V30 887 C 89.823 -0.648065 -3.5422 0
M  V30 888 C 89.676 -2.13255 -3.96033 0
M  V30 889 C 90.995 -0.0922113 -4.40003 0
M  V30 890 H 88.114 -0.157924 -0.719881 0
M  V30 891 H 90.756 -1.05069 -1.58305 0
M  V30 892 H 88.906 -0.120237 -3.88314 0
M  V30 893 H 90.578 -2.725 -3.72211 0
M  V30 894 H 88.821 -2.61823 -3.45878 0
M  V30 895 H 89.492 -2.23547 -5.04708 0
M  V30 896 H 91.968 -0.543343 -4.12537 0
M  V30 897 H 90.844 -0.274083 -5.48215 0
M  V30 898 H 91.105 1.00378 -4.30554 0
M  V30 899 N 90.1641 1.46063 -0.591896 0
M  V30 900 C 91.5801 1.57561 -0.254288 0
M  V30 901 C 91.7801 1.58565 1.24336 0
M  V30 902 O 90.8361 1.50753 2.02558 0
M  V30 903 C 92.1491 2.86549 -0.911611 0
M  V30 904 C 93.6971 3.00197 -0.886059 0
M  V30 905 C 94.1721 4.31933 -1.5231 0
M  V30 906 N 95.6631 4.38654 -1.48786 0
M  V30 907 C 96.3981 5.39222 -1.95006 0
M  V30 908 N 95.8941 6.46414 -2.49241 0
M  V30 909 N 97.6871 5.3048 -1.85868 0
M  V30 910 H 89.8381 1.43655 -1.56451 0
M  V30 911 H 92.1011 0.68583 -0.654478 0
M  V30 912 H 91.8071 2.91651 -1.96551 0
M  V30 913 H 91.6811 3.74794 -0.425368 0
M  V30 914 H 94.0681 2.9467 0.159246 0
M  V30 915 H 94.1491 2.13403 -1.41041 0
M  V30 916 H 93.7931 4.38217 -2.56765 0
M  V30 917 H 93.7231 5.17516 -0.973891 0
M  V30 918 H 96.2141 3.61793 -1.09151 0
M  V30 919 H 96.5271 7.19376 -2.82344 0
M  V30 920 H 94.8721 6.47208 -2.53272 0
M  V30 921 H 98.0631 4.45643 -1.43248 0
M  V30 922 H 98.2361 6.08711 -2.22204 0
M  V30 923 N 91.6422 0.330177 1.54103 0
M  V30 924 C 92.8892 -0.270405 2.00686 0
M  V30 925 C 93.2172 -1.51621 1.21825 0
M  V30 926 O 92.4722 -1.93536 0.29025 0
M  V30 927 C 92.7712 -0.643134 3.51566 0
M  V30 928 C 92.4372 0.504251 4.48072 0
M  V30 929 C 91.0992 0.819163 4.74176 0
M  V30 930 C 93.4512 1.27465 5.05373 0
M  V30 931 C 90.7792 1.90708 5.5484 0
M  V30 932 C 93.1312 2.35271 5.87223 0
M  V30 933 C 91.7952 2.67336 6.11627 0
M  V30 934 H 91.0652 -0.0989482 0.734364 0
M  V30 935 H 93.7122 0.455324 1.86008 0
M  V30 936 H 92.0172 -1.44938 3.64006 0
M  V30 937 H 93.7142 -1.11949 3.85056 0
M  V30 938 H 90.3042 0.248733 4.27878 0
M  V30 939 H 94.4882 1.04462 4.85182 0
M  V30 940 H 89.7442 2.15991 5.71977 0
M  V30 941 H 93.9182 2.95405 6.30641 0
M  V30 942 H 91.5452 3.51763 6.73919 0
M  V30 943 N 93.1203 -1.57491 0.0584922 0
M  V30 944 C 94.3663 -1.93264 -0.614558 0
M  V30 945 C 94.6993 -0.937717 -1.7006 0
M  V30 946 O 93.9743 0.0351652 -1.94468 0
M  V30 947 C 94.2573 -3.3938 -1.20386 0
M  V30 948 C 94.1103 -4.49625 -0.125375 0
M  V30 949 C 95.4293 -3.86039 -2.11334 0
M  V30 950 H 92.5483 -0.702791 -0.221933 0
M  V30 951 H 95.1903 -1.8961 0.12175 0
M  V30 952 H 93.3403 -3.42626 -1.83139 0
M  V30 953 H 95.0123 -4.58506 0.506971 0
M  V30 954 H 93.2553 -4.30354 0.545672 0
M  V30 955 H 93.9263 -5.48967 -0.577861 0
M  V30 956 H 96.4023 -3.84716 -1.58534 0
M  V30 957 H 95.2783 -4.88914 -2.49507 0
M  V30 958 H 95.5393 -3.23215 -3.01636 0
M  V30 959 N 94.5984 0.214957 -1.56127 0
M  V30 960 C 95.5464 1.28601 -1.93816 0
M  V30 961 C 96.5404 1.48175 -0.821016 0
M  V30 962 O 97.7464 1.49271 -1.0059 0
M  V30 963 H 94.1214 0.431302 -0.616022 0
M  V30 964 H 96.0924 0.940991 -2.83175 0
M  V30 965 C 94.8414 2.62779 -2.27689 0
M  V30 966 H 94.1644 2.48527 -3.13168 0
M  V30 967 H 95.6044 3.36517 -2.57939 0
M  V30 968 C 94.0634 3.18285 -1.10436 0
M  V30 969 O 94.5934 4.00002 -0.368945 0
M  V30 970 N 92.7994 2.7675 -0.886433 0
M  V30 971 H 92.3464 2.10404 -1.48619 0
M  V30 972 H 92.3044 3.14229 -0.103656 0
M  V30 973 N 96.0765 1.50051 0.48192 0
M  V30 974 C 97.0065 1.71046 1.58951 0
M  V30 975 C 97.9875 0.559288 1.60642 0
M  V30 976 O 99.1725 0.797243 1.77081 0
M  V30 977 C 96.3025 1.79462 2.97339 0
M  V30 978 C 95.2565 2.94558 3.10515 0
M  V30 979 C 94.5825 2.88105 4.50444 0
M  V30 980 C 95.8825 4.35227 2.88747 0
M  V30 981 H 97.5765 2.6378 1.41635 0
M  V30 982 H 95.1225 1.26936 0.679942 0
M  V30 983 H 97.0755 1.92734 3.74742 0
M  V30 984 H 95.7995 0.833412 3.15788 0
M  V30 985 H 94.4585 2.80918 2.35543 0
M  V30 986 H 94.1065 1.89853 4.65795 0
M  V30 987 H 93.8065 3.65366 4.60197 0
M  V30 988 H 95.3305 3.03412 5.29881 0
M  V30 989 H 96.7445 4.49449 3.55905 0
M  V30 990 H 95.1415 5.13856 3.09955 0
M  V30 991 H 96.2115 4.48347 1.84696 0
M  V30 992 N 97.5546 -0.734337 1.39446 0
M  V30 993 C 98.8026 -1.49096 1.36436 0
M  V30 994 C 99.1236 -1.94961 -0.0388255 0
M  V30 995 O 98.3936 -1.69033 -0.990191 0
M  V30 996 H 96.9736 -0.5531 0.502085 0
M  V30 997 H 99.6356 -0.871725 1.74319 0
M  V30 998 H 98.7316 -2.37276 2.02747 0
M  V30 999 N 99.0327 -1.24633 -0.964593 0
M  V30 1000 C 100.281 -1.08573 -1.70459 0
M  V30 1001 C 100.602 0.375655 -1.91347 0
M  V30 1002 O 99.8717 1.26779 -1.49345 0
M  V30 1003 H 98.4517 -0.398784 -0.631649 0
M  V30 1004 H 101.114 -1.56601 -1.16026 0
M  V30 1005 H 100.21 -1.58623 -2.68785 0
M  V30 1006 N 100.511 1.16574 -1.06058 0
M  V30 1007 C 101.443 2.2045 -0.627239 0
M  V30 1008 C 102.456 1.59752 0.313534 0
M  V30 1009 O 103.645 1.78192 0.104896 0
M  V30 1010 C 100.745 3.3875 0.100974 0
M  V30 1011 C 99.9178 4.29008 -0.852687 0
M  V30 1012 C 98.9768 5.25944 -0.164152 0
M  V30 1013 O 98.0028 5.63535 -0.801047 0
M  V30 1014 N 99.2048 5.70075 1.09518 0
M  V30 1015 H 101.97 2.58249 -1.52077 0
M  V30 1016 H 99.5308 1.3156 -0.943594 0
M  V30 1017 H 101.523 4.00638 0.57194 0
M  V30 1018 H 100.093 2.99476 0.89628 0
M  V30 1019 H 99.3128 3.64419 -1.50308 0
M  V30 1020 H 100.601 4.86195 -1.49972 0
M  V30 1021 H 99.9988 5.41624 1.6328 0
M  V30 1022 H 98.5558 6.34067 1.51006 0
M  V30 1023 N 101.989 0.842826 1.3317 0
M  V30 1024 C 103.237 0.439577 1.97262 0
M  V30 1025 C 103.558 -1.00548 1.67078 0
M  V30 1026 O 102.828 -1.70098 0.971779 0
M  V30 1027 H 101.408 0.159558 0.72976 0
M  V30 1028 H 104.07 1.07665 1.62463 0
M  V30 1029 H 103.166 0.574886 3.0676 0
M  V30 1030 N 103.467 -1.45747 0.599634 0
M  V30 1031 C 104.43 -2.28917 -0.113835 0
M  V30 1032 C 105.43 -1.3933 -0.802729 0
M  V30 1033 O 106.62 -1.61534 -0.652103 0
M  V30 1034 C 103.752 -3.20152 -1.17114 0
M  V30 1035 H 104.945 -2.93478 0.617289 0
M  V30 1036 H 102.498 -1.52137 0.358327 0
M  V30 1037 H 103.233 -2.60374 -1.93329 0
M  V30 1038 H 103.018 -3.86133 -0.681468 0
M  V30 1039 H 104.508 -3.82708 -1.67105 0
M  V30 1040 N 104.945 -0.338344 -1.53925 0
M  V30 1041 C 106.361 0.0137736 -1.59594 0
M  V30 1042 C 106.561 1.49186 -1.35447 0
M  V30 1043 O 105.617 2.24987 -1.14616 0
M  V30 1044 C 106.93 -0.41773 -2.97784 0
M  V30 1045 C 108.478 -0.369633 -3.1081 0
M  V30 1046 C 108.953 -0.776524 -4.51369 0
M  V30 1047 N 110.444 -0.730506 -4.57403 0
M  V30 1048 C 111.179 -1.01736 -5.64303 0
M  V30 1049 N 110.675 -1.3721 -6.79077 0
M  V30 1050 N 112.468 -0.941942 -5.54151 0
M  V30 1051 H 104.619 -1.3012 -1.67876 0
M  V30 1052 H 106.882 -0.530082 -0.78595 0
M  V30 1053 H 106.588 -1.44811 -3.20504 0
M  V30 1054 H 106.462 0.209729 -3.76616 0
M  V30 1055 H 108.849 0.651568 -2.87817 0
M  V30 1056 H 108.93 -1.03223 -2.34049 0
M  V30 1057 H 108.574 -1.79571 -4.75096 0
M  V30 1058 H 108.504 -0.0914649 -5.26521 0
M  V30 1059 H 110.995 -0.468783 -3.74981 0
M  V30 1060 H 111.308 -1.57597 -7.5656 0
M  V30 1061 H 109.653 -1.4105 -6.80536 0
M  V30 1062 H 112.844 -0.664184 -4.63364 0
M  V30 1063 H 113.017 -1.16884 -6.37371 0
M  V30 1064 N 106.423 1.57458 -0.0668435 0
M  V30 1065 C 107.653 1.97337 0.611677 0
M  V30 1066 C 108.061 0.943744 1.63982 0
M  V30 1067 O 107.404 -0.0785584 1.83532 0
M  V30 1068 C 107.466 3.33511 1.34205 0
M  V30 1069 C 107.13 4.54598 0.467941 0
M  V30 1070 C 108.127 5.19186 -0.272439 0
M  V30 1071 C 105.812 5.0075 0.39427 0
M  V30 1072 C 107.806 6.28274 -1.07476 0
M  V30 1073 C 105.493 6.09711 -0.411729 0
M  V30 1074 C 106.491 6.73335 -1.14492 0
M  V30 1075 O 106.179 7.80199 -1.93763 0
M  V30 1076 H 105.911 0.654042 0.170893 0
M  V30 1077 H 108.465 2.04961 -0.134289 0
M  V30 1078 H 106.695 3.22487 2.13398 0
M  V30 1079 H 108.384 3.58029 1.91233 0
M  V30 1080 H 109.15 4.84477 -0.225086 0
M  V30 1081 H 105.029 4.51009 0.954569 0
M  V30 1082 H 108.573 6.77866 -1.64755 0
M  V30 1083 H 104.47 6.43854 -0.460664 0
M  V30 1084 H 105.238 7.97053 -1.86142 0
M  V30 1085 N 107.901 -0.206675 1.56239 0
M  V30 1086 C 108.831 -1.25909 1.96645 0
M  V30 1087 C 109.812 -1.48097 0.836734 0
M  V30 1088 O 110.997 -1.6003 1.10019 0
M  V30 1089 C 108.127 -2.6058 2.29599 0
M  V30 1090 C 107.081 -2.53024 3.452 0
M  V30 1091 C 106.407 -3.91861 3.63798 0
M  V30 1092 C 107.707 -2.06524 4.79734 0
M  V30 1093 H 109.401 -0.923369 2.84806 0
M  V30 1094 H 106.947 -0.442735 1.37025 0
M  V30 1095 H 108.9 -3.34375 2.56459 0
M  V30 1096 H 107.624 -2.95869 1.38307 0
M  V30 1097 H 106.283 -1.81684 3.18412 0
M  V30 1098 H 105.931 -4.24483 2.69857 0
M  V30 1099 H 105.631 -3.87683 4.4156 0
M  V30 1100 H 107.155 -4.67296 3.93022 0
M  V30 1101 H 108.569 -2.70072 5.05702 0
M  V30 1102 H 106.966 -2.13374 5.60885 0
M  V30 1103 H 108.036 -1.01802 4.74093 0
M  V30 1104 N 109.379 -1.50304 -0.473955 0
M  V30 1105 C 110.604 -1.65175 -1.25427 0
M  V30 1106 C 111.029 -0.333673 -1.85117 0
M  V30 1107 O 110.387 0.702114 -1.67153 0
M  V30 1108 C 110.435 -2.74295 -2.34082 0
M  V30 1109 O 109.539 -2.35349 -3.38651 0
M  V30 1110 H 108.88 -0.551944 -0.369126 0
M  V30 1111 H 111.41 -1.96662 -0.564364 0
M  V30 1112 H 111.42 -2.97285 -2.79438 0
M  V30 1113 H 110.095 -3.69959 -1.90008 0
M  V30 1114 H 108.672 -2.22794 -2.99027 0
M  V30 1115 N 110.857 0.726932 -1.39834 0
M  V30 1116 C 112.134 1.47902 -1.28001 0
M  V30 1117 C 112.514 2.1083 0.106789 0
M  V30 1118 O 111.862 1.99242 1.11869 0
M  V30 1119 C 112.072 2.52392 -2.41038 0
M  V30 1120 C 113.42 3.18546 -2.80737 0
M  V30 1121 O 114.444 2.62708 -2.40547 0
M  V30 1122 O 113.303 4.19604 -3.50135 0
M  V30 1123 H 110.397 0.657163 -0.502062 0
M  V30 1124 H 112.943 0.760071 -1.51727 0
M  V30 1125 H 111.715 2.04329 -3.33715 0
M  V30 1126 H 111.338 3.31837 -2.19021 0
M  V30 1127 N 112.336 1.25143 0.95797 0
M  V30 1128 C 113.266 1.07711 2.07173 0
M  V30 1129 C 114.247 -0.0128462 1.70095 0
M  V30 1130 O 115.432 0.156061 1.93572 0
M  V30 1131 C 112.562 0.691503 3.40346 0
M  V30 1132 C 111.516 1.73132 3.9142 0
M  V30 1133 C 110.842 1.20049 5.21049 0
M  V30 1134 C 112.142 3.1294 4.1817 0
M  V30 1135 H 113.836 2.00873 2.22014 0
M  V30 1136 H 111.382 0.967191 1.06684 0
M  V30 1137 H 113.335 0.556505 4.17709 0
M  V30 1138 H 112.059 -0.275819 3.25433 0
M  V30 1139 H 110.718 1.8547 3.16222 0
M  V30 1140 H 110.366 0.223499 5.02503 0
M  V30 1141 H 110.066 1.89545 5.56189 0
M  V30 1142 H 111.59 1.07782 6.01012 0
M  V30 1143 H 113.004 3.03775 4.86203 0
M  V30 1144 H 111.401 3.79875 4.64559 0
M  V30 1145 H 112.471 3.6025 3.24573 0
M  V30 1146 N 113.814 -1.1601 1.06675 0
M  V30 1147 C 115.061 -1.86633 0.785781 0
M  V30 1148 C 115.389 -1.81929 -0.687896 0
M  V30 1149 O 114.644 -1.23253 -1.52011 0
M  V30 1150 C 114.943 -3.35547 1.23057 0
M  V30 1151 C 114.609 -3.60448 2.70902 0
M  V30 1152 C 113.271 -3.66954 3.11285 0
M  V30 1153 C 115.623 -3.7071 3.66365 0
M  V30 1154 C 112.951 -3.81225 4.45965 0
M  V30 1155 C 115.303 -3.86503 5.00797 0
M  V30 1156 C 113.967 -3.91252 5.40813 0
M  V30 1157 H 113.237 -0.682937 0.287538 0
M  V30 1158 H 115.884 -1.37146 1.33654 0
M  V30 1159 H 114.189 -3.87193 0.59907 0
M  V30 1160 H 115.886 -3.88583 0.990163 0
M  V30 1161 H 112.476 -3.56021 2.38636 0
M  V30 1162 H 116.66 -3.64991 3.36296 0
M  V30 1163 H 111.916 -3.83155 4.76447 0
M  V30 1164 H 116.09 -3.93385 5.74649 0
M  V30 1165 H 113.717 -4.02062 6.45174 0
M  V30 1166 N 115.292 -0.849877 -1.32721 0
M  V30 1167 C 116.52 -0.464754 -2.01613 0
M  V30 1168 C 116.935 0.937191 -1.63897 0
M  V30 1169 O 116.292 1.61081 -0.857856 0
M  V30 1170 C 116.343 -0.588638 -3.56675 0
M  V30 1171 O 116.064 -1.93535 -3.93034 0
M  V30 1172 C 117.565 -0.2019 -4.4284 0
M  V30 1173 H 114.785 -0.183215 -0.645502 0
M  V30 1174 H 117.329 -1.1455 -1.69407 0
M  V30 1175 H 115.484 0.0443159 -3.87375 0
M  V30 1176 H 115.898 -1.92871 -4.87751 0
M  V30 1177 H 117.372 -0.339599 -5.50954 0
M  V30 1178 H 117.849 0.857224 -4.30753 0
M  V30 1179 H 118.455 -0.809733 -4.17521 0
M  V30 1180 N 116.77 1.45427 -0.607355 0
M  V30 1181 C 117.998 2.06614 -0.108814 0
M  V30 1182 C 118.413 1.45204 1.2067 0
M  V30 1183 O 117.77 0.566132 1.73497 0
M  V30 1184 C 117.821 3.61481 0.0375347 0
M  V30 1185 O 117.542 4.20598 -1.22593 0
M  V30 1186 C 119.043 4.39652 0.567561 0
M  V30 1187 H 116.263 0.66747 -0.0687351 0
M  V30 1188 H 118.807 1.86675 -0.835022 0
M  V30 1189 H 116.962 3.80762 0.714068 0
M  V30 1190 H 117.376 5.1377 -1.05547 0
M  V30 1191 H 118.85 5.48518 0.61905 0
M  V30 1192 H 119.327 4.09417 1.58978 0
M  V30 1193 H 119.933 4.25234 -0.0749202 0
M  V30 1194 N 118.248 0.346503 1.53744 0
M  V30 1195 C 119.488 -0.249413 2.02873 0
M  V30 1196 C 119.852 -1.47532 1.22876 0
M  V30 1197 O 121.053 -2.1456 1.61918 0
M  V30 1198 C 119.324 -0.552909 3.53097 0
M  V30 1199 S 120.883 -1.12521 4.24128 0
M  V30 1200 H 117.701 -0.074042 0.707134 0
M  V30 1201 H 120.303 0.48495 1.8939 0
M  V30 1202 H 119.007 0.347083 4.0893 0
M  V30 1203 H 118.538 -1.31686 3.70705 0
M  V30 1204 H 120.553 -2.41075 4.33702 0
M  V30 1205 N 119.726 -1.57421 0.075193 0
M  V30 1206 C 120.972 -1.93905 -0.594025 0
M  V30 1207 C 121.305 -0.955701 -1.69056 0
M  V30 1208 O 120.58 0.0145373 -1.94495 0
M  V30 1209 C 120.863 -3.40638 -1.1678 0
M  V30 1210 C 120.716 -4.49733 -0.0776792 0
M  V30 1211 C 122.035 -3.88259 -2.07228 0
M  V30 1212 H 119.154 -0.705105 -0.214466 0
M  V30 1213 H 121.796 -1.8947 0.141854 0
M  V30 1214 H 119.946 -3.44549 -1.79494 0
M  V30 1215 H 121.618 -4.57942 0.555573 0
M  V30 1216 H 119.861 -4.29751 0.591286 0
M  V30 1217 H 120.532 -5.49549 -0.519603 0
M  V30 1218 H 123.008 -3.86376 -1.54445 0
M  V30 1219 H 121.884 -4.91533 -2.44308 0
M  V30 1220 H 122.145 -3.26396 -2.98191 0
M  V30 1221 N 121.204 0.198386 -1.56346 0
M  V30 1222 C 122.481 0.944982 -1.71258 0
M  V30 1223 C 122.861 2.0151 -0.629048 0
M  V30 1224 O 122.209 2.25639 0.360473 0
M  V30 1225 C 122.419 1.5344 -3.1346 0
M  V30 1226 C 123.767 2.01778 -3.73591 0
M  V30 1227 O 124.791 1.63288 -3.16568 0
M  V30 1228 O 123.65 2.72594 -4.73661 0
M  V30 1229 H 120.744 0.442939 -0.69838 0
M  V30 1230 H 123.29 0.188342 -1.68652 0
M  V30 1231 H 122.062 0.762869 -3.83792 0
M  V30 1232 H 121.685 2.35596 -3.20282 0
M  V30 1233 N 122.682 1.50554 0.465978 0
M  V30 1234 C 123.928 1.62038 1.21949 0
M  V30 1235 C 124.261 0.322116 1.9151 0
M  V30 1236 O 123.536 -0.676723 1.82348 0
M  V30 1237 C 123.819 2.80421 2.25912 0
M  V30 1238 C 123.672 4.20144 1.60622 0
M  V30 1239 C 124.991 2.94354 3.27176 0
M  V30 1240 H 122.11 0.589752 0.441998 0
M  V30 1241 H 124.752 1.82956 0.51257 0
M  V30 1242 H 122.902 2.62717 2.86203 0
M  V30 1243 H 124.574 4.49449 1.03889 0
M  V30 1244 H 122.817 4.24165 0.909211 0
M  V30 1245 H 123.488 4.98914 2.36196 0
M  V30 1246 H 125.964 3.10578 2.76913 0
M  V30 1247 H 124.84 3.788 3.97242 0
M  V30 1248 H 125.101 2.05186 3.916 0
M  V30 1249 N 124.16 -0.719506 1.40217 0
M  V30 1250 C 125.576 -1.02707 1.22161 0
M  V30 1251 C 125.776 -2.0128 0.0940557 0
M  V30 1252 O 124.832 -2.46452 -0.549318 0
M  V30 1253 C 126.145 -1.57454 2.56181 0
M  V30 1254 C 127.693 -1.69458 2.63159 0
M  V30 1255 C 128.168 -2.27611 3.97438 0
M  V30 1256 N 129.659 -2.35002 3.99159 0
M  V30 1257 C 130.394 -2.80972 4.99842 0
M  V30 1258 N 129.89 -3.26723 6.10921 0
M  V30 1259 N 131.683 -2.80321 4.87213 0
M  V30 1260 H 123.834 -0.0660492 2.12297 0
M  V30 1261 H 126.097 -0.0919077 0.943534 0
M  V30 1262 H 125.803 -0.924873 3.39321 0
M  V30 1263 H 125.677 -2.56036 2.76993 0
M  V30 1264 H 128.064 -2.33543 1.80393 0
M  V30 1265 H 128.145 -0.694867 2.46181 0
M  V30 1266 H 127.789 -1.6415 4.80643 0
M  V30 1267 H 127.719 -3.2829 4.11744 0
M  V30 1268 H 130.21 -2.02685 3.18947 0
M  V30 1269 H 130.523 -3.60355 6.8364 0
M  V30 1270 H 128.868 -3.24692 6.14492 0
M  V30 1271 H 132.059 -2.43912 3.9953 0
M  V30 1272 H 132.232 -3.15831 5.65822 0
M  V30 1273 N 125.638 -1.25649 -0.95132 0
M  V30 1274 C 126.884 -1.11766 -1.69941 0
M  V30 1275 C 127.239 0.33735 -1.89419 0
M  V30 1276 O 126.532 1.24491 -1.45645 0
M  V30 1277 C 126.726 -1.80909 -3.08231 0
M  V30 1278 C 126.555 -3.32984 -3.02245 0
M  V30 1279 C 125.325 -4.02247 -3.05819 0
M  V30 1280 C 127.523 -4.29332 -2.83157 0
M  V30 1281 N 125.505 -5.41072 -2.90024 0
M  V30 1282 C 126.876 -5.55265 -2.75828 0
M  V30 1283 C 128.931 -4.19707 -2.67863 0
M  V30 1284 C 127.634 -6.72671 -2.54767 0
M  V30 1285 C 129.66 -5.36809 -2.48173 0
M  V30 1286 C 129.022 -6.61683 -2.41567 0
M  V30 1287 H 125.121 -0.463708 -0.629682 0
M  V30 1288 H 127.705 -1.58796 -1.12659 0
M  V30 1289 H 125.876 -1.36369 -3.63673 0
M  V30 1290 H 127.608 -1.59739 -3.71841 0
M  V30 1291 H 124.363 -3.53531 -3.15139 0
M  V30 1292 H 124.787 -6.13938 -2.85323 0
M  V30 1293 H 129.429 -3.23907 -2.71743 0
M  V30 1294 H 127.147 -7.68577 -2.49629 0
M  V30 1295 H 130.733 -5.31224 -2.37259 0
M  V30 1296 H 129.613 -7.50768 -2.26531 0
M  V30 1297 N 127.117 1.15442 -1.07289 0
M  V30 1298 C 128.533 1.38201 -0.798288 0
M  V30 1299 C 128.733 1.92429 0.597769 0
M  V30 1300 O 127.789 2.12962 1.3566 0
M  V30 1301 C 129.102 2.35357 -1.87156 0
M  V30 1302 C 130.65 2.49021 -1.89624 0
M  V30 1303 C 131.125 3.49468 -2.96034 0
M  V30 1304 N 132.616 3.57003 -2.95132 0
M  V30 1305 C 133.351 4.34543 -3.74112 0
M  V30 1306 N 132.847 5.15421 -4.6294 0
M  V30 1307 N 134.64 4.29625 -3.62462 0
M  V30 1308 H 126.791 0.78584 -1.97328 0
M  V30 1309 H 129.054 0.408065 -0.855679 0
M  V30 1310 H 128.76 2.02626 -2.87464 0
M  V30 1311 H 128.634 3.35129 -1.73114 0
M  V30 1312 H 131.021 2.81051 -0.899687 0
M  V30 1313 H 131.102 1.4925 -2.07745 0
M  V30 1314 H 130.746 3.18173 -3.95889 0
M  V30 1315 H 130.676 4.48992 -2.75161 0
M  V30 1316 H 133.167 2.99276 -2.30743 0
M  V30 1317 H 133.48 5.7183 -5.19837 0
M  V30 1318 H 131.825 5.14729 -4.66989 0
M  V30 1319 H 135.016 3.65505 -2.92444 0
M  V30 1320 H 135.189 4.89807 -4.24256 0
M  V30 1321 N 128.595 0.856903 1.32268 0
M  V30 1322 C 129.841 0.471355 1.97863 0
M  V30 1323 C 130.196 -0.962896 1.66572 0
M  V30 1324 O 129.489 -1.66686 0.944797 0
M  V30 1325 C 129.683 0.649919 3.51441 0
M  V30 1326 C 129.512 2.09997 3.97657 0
M  V30 1327 C 128.282 2.73893 4.2463 0
M  V30 1328 C 130.48 3.07081 4.1256 0
M  V30 1329 N 128.462 4.09786 4.57109 0
M  V30 1330 C 129.833 4.27968 4.48602 0
M  V30 1331 C 131.888 3.03247 3.949 0
M  V30 1332 C 130.591 5.45521 4.68827 0
M  V30 1333 C 132.617 4.20046 4.16311 0
M  V30 1334 C 131.979 5.39692 4.52672 0
M  V30 1335 H 128.078 0.221263 0.750044 0
M  V30 1336 H 130.662 1.10876 1.60045 0
M  V30 1337 H 128.833 0.0421938 3.88377 0
M  V30 1338 H 130.565 0.234044 4.04023 0
M  V30 1339 H 127.32 2.24918 4.16784 0
M  V30 1340 H 127.744 4.7989 4.7753 0
M  V30 1341 H 132.386 2.11863 3.65888 0
M  V30 1342 H 130.104 6.37434 4.96693 0
M  V30 1343 H 133.69 4.18517 4.04147 0
M  V30 1344 H 132.57 6.28566 4.68907 0
M  V30 1345 N 130.073 -1.45103 0.615059 0
M  V30 1346 C 131.006 -2.27717 -0.148408 0
M  V30 1347 C 131.984 -1.37584 -0.866572 0
M  V30 1348 O 133.168 -1.67017 -0.87393 0
M  V30 1349 C 130.295 -3.16136 -1.21557 0
M  V30 1350 C 129.341 -4.22263 -0.599712 0
M  V30 1351 S 130.174 -5.3215 0.598081 0
M  V30 1352 C 131.33 -6.24137 -0.469484 0
M  V30 1353 H 131.563 -2.92121 0.552483 0
M  V30 1354 H 129.096 -1.49054 0.402778 0
M  V30 1355 H 131.054 -3.67633 -1.82638 0
M  V30 1356 H 129.715 -2.50982 -1.88857 0
M  V30 1357 H 128.908 -4.84081 -1.4029 0
M  V30 1358 H 128.51 -3.73945 -0.063876 0
M  V30 1359 H 130.802 -6.63984 -1.34652 0
M  V30 1360 H 131.745 -7.0801 0.112725 0
M  V30 1361 H 132.153 -5.58971 -0.788168 0
M  V30 1362 N 131.551 -0.354651 -1.53558 0
M  V30 1363 C 132.791 0.238651 -2.03002 0
M  V30 1364 C 133.155 1.46878 -1.23656 0
M  V30 1365 O 134.356 2.13699 -1.63053 0
M  V30 1366 C 132.627 0.534175 -3.53386 0
M  V30 1367 S 134.186 1.10271 -4.24719 0
M  V30 1368 H 131.004 0.0702908 -0.707517 0
M  V30 1369 H 133.606 -0.494987 -1.8913 0
M  V30 1370 H 132.31 -0.368765 -4.0874 0
M  V30 1371 H 131.841 1.29718 -3.71398 0
M  V30 1372 H 133.856 2.38772 -4.34974 0
M  V30 1373 N 133.029 1.57378 -0.0835403 0
M  V30 1374 C 133.959 2.1641 0.87686 0
M  V30 1375 C 134.94 1.09429 1.30228 0
M  V30 1376 O 136.125 1.37516 1.37124 0
M  V30 1377 C 133.255 2.73517 2.14022 0
M  V30 1378 C 132.209 3.85769 1.85381 0
M  V30 1379 C 131.535 4.29529 3.18448 0
M  V30 1380 C 132.835 5.09486 1.14984 0
M  V30 1381 H 134.529 2.96914 0.385059 0
M  V30 1382 H 132.075 1.42823 0.18377 0
M  V30 1383 H 134.028 3.13463 2.81636 0
M  V30 1384 H 132.752 1.90252 2.65465 0
M  V30 1385 H 131.411 3.46345 1.20169 0
M  V30 1386 H 131.059 3.43169 3.67755 0
M  V30 1387 H 130.759 5.05204 3.00071 0
M  V30 1388 H 132.283 4.72099 3.8724 0
M  V30 1389 H 133.697 5.46674 1.72687 0
M  V30 1390 H 132.094 5.90515 1.06826 0
M  V30 1391 H 133.164 4.84724 0.130749 0
M  V30 1392 N 134.507 -0.190092 1.56449 0
M  V30 1393 C 135.437 -1.23816 1.97969 0
M  V30 1394 C 136.418 -1.47201 0.852395 0
M  V30 1395 O 137.603 -1.58854 1.1171 0
M  V30 1396 C 134.733 -2.5813 2.3235 0
M  V30 1397 C 133.687 -2.49348 3.47864 0
M  V30 1398 C 133.013 -3.8798 3.67934 0
M  V30 1399 C 134.313 -2.01424 4.81898 0
M  V30 1400 H 136.007 -0.89311 2.85769 0
M  V30 1401 H 133.553 -0.428177 1.37487 0
M  V30 1402 H 135.506 -3.31637 2.59991 0
M  V30 1403 H 134.23 -2.94386 1.41438 0
M  V30 1404 H 132.889 -1.78297 3.20321 0
M  V30 1405 H 132.537 -4.21597 2.74344 0
M  V30 1406 H 132.237 -3.82978 4.45648 0
M  V30 1407 H 133.761 -4.63101 3.97957 0
M  V30 1408 H 135.175 -2.64693 5.08538 0
M  V30 1409 H 133.572 -2.07413 5.63116 0
M  V30 1410 H 134.642 -0.967677 4.75146 0
M  V30 1411 N 135.985 -1.50799 -0.457987 0
M  V30 1412 C 137.232 -1.62442 -1.20908 0
M  V30 1413 C 137.56 -0.330865 -1.91665 0
M  V30 1414 O 136.815 0.68401 -1.83357 0
M  V30 1415 C 137.114 -2.76358 -2.2663 0
M  V30 1416 C 136.78 -4.16378 -1.73033 0
M  V30 1417 C 135.442 -4.54473 -1.58138 0
M  V30 1418 C 137.794 -5.03836 -1.33413 0
M  V30 1419 C 135.122 -5.77754 -1.02065 0
M  V30 1420 C 137.474 -6.27676 -0.78778 0
M  V30 1421 C 136.138 -6.64562 -0.625561 0
M  V30 1422 H 135.408 -0.594417 -0.442435 0
M  V30 1423 H 138.055 -1.84772 -0.503136 0
M  V30 1424 H 136.36 -2.48167 -3.03184 0
M  V30 1425 H 138.057 -2.82568 -2.84528 0
M  V30 1426 H 134.647 -3.86331 -1.85598 0
M  V30 1427 H 138.831 -4.75026 -1.4375 0
M  V30 1428 H 134.087 -6.04997 -0.882547 0
M  V30 1429 H 138.261 -6.94797 -0.472177 0
M  V30 1430 H 135.888 -7.59965 -0.188926 0
M  V30 1431 N 137.463 0.71206 -1.40597 0
M  V30 1432 C 138.688 1.50617 -1.42581 0
M  V30 1433 C 139.113 1.88079 -0.0282102 0
M  V30 1434 O 138.471 1.53511 0.964579 0
M  V30 1435 C 138.519 2.7557 -2.3258 0
M  V30 1436 O 137.623 3.72414 -1.77148 0
M  V30 1437 H 136.964 0.453966 -0.484573 0
M  V30 1438 H 139.494 0.876649 -1.84868 0
M  V30 1439 H 139.504 3.2406 -2.47889 0
M  V30 1440 H 138.179 2.47639 -3.34138 0
M  V30 1441 H 136.756 3.31276 -1.71204 0
M  V30 1442 N 138.941 1.26152 0.944643 0
M  V30 1443 C 140.181 1.12708 1.70517 0
M  V30 1444 C 140.545 -0.324727 1.89234 0
M  V30 1445 O 141.746 -0.581211 2.62441 0
M  V30 1446 C 140.017 1.8713 3.04495 0
M  V30 1447 S 141.576 1.89698 3.95677 0
M  V30 1448 H 138.394 0.402665 0.585988 0
M  V30 1449 H 140.996 1.59821 1.12594 0
M  V30 1450 H 139.7 2.91833 2.88551 0
M  V30 1451 H 139.231 1.40444 3.67477 0
M  V30 1452 H 141.246 0.981198 4.86402 0
M  V30 1453 N 140.419 -1.14872 1.07899 0
M  V30 1454 C 141.644 -1.90202 0.826926 0
M  V30 1455 C 142.069 -1.77774 -0.614664 0
M  V30 1456 O 141.427 -1.11431 -1.43013 0
M  V30 1457 C 141.475 -3.38352 1.24702 0
M  V30 1458 O 140.579 -4.10497 0.39575 0
M  V30 1459 H 139.92 -0.591968 0.300782 0
M  V30 1460 H 142.45 -1.45437 1.43907 0
M  V30 1461 H 142.46 -3.89156 1.22563 0
M  V30 1462 H 141.135 -3.46715 2.29698 0
M  V30 1463 H 139.712 -3.69796 0.480117 0
M  V30 1464 N 141.898 -0.863906 -1.31812 0
M  V30 1465 C 143.145 -0.471836 -1.96926 0
M  V30 1466 C 143.473 0.974578 -1.68322 0
M  V30 1467 O 142.728 1.7003 -0.968933 0
M  V30 1468 C 143.027 -0.668547 -3.51091 0
M  V30 1469 C 142.693 -2.08683 -3.99703 0
M  V30 1470 C 141.355 -2.47471 -4.12688 0
M  V30 1471 C 143.707 -3.01207 -4.25351 0
M  V30 1472 C 141.035 -3.78037 -4.4867 0
M  V30 1473 C 143.387 -4.31282 -4.62794 0
M  V30 1474 C 142.051 -4.69992 -4.73987 0
M  V30 1475 H 141.321 -0.172657 -0.720604 0
M  V30 1476 H 143.968 -1.09573 -1.57054 0
M  V30 1477 H 142.273 0.0385252 -3.91781 0
M  V30 1478 H 143.97 -0.345102 -3.99512 0
M  V30 1479 H 140.56 -1.77566 -3.90087 0
M  V30 1480 H 144.744 -2.72469 -4.14819 0
M  V30 1481 H 140 -4.078 -4.55532 0
M  V30 1482 H 144.174 -5.03031 -4.81594 0
M  V30 1483 H 141.801 -5.71207 -5.01624 0
M  V30 1484 N 143.376 1.44774 -0.622745 0
M  V30 1485 C 144.306 2.33382 0.0741861 0
M  V30 1486 C 145.287 1.47719 0.843387 0
M  V30 1487 O 146.472 1.76458 0.810934 0
M  V30 1488 C 143.602 3.30663 1.06204 0
M  V30 1489 C 142.556 4.26079 0.405037 0
M  V30 1490 C 141.882 5.13165 1.5022 0
M  V30 1491 C 143.182 5.1781 -0.683414 0
M  V30 1492 H 144.876 2.91905 -0.665713 0
M  V30 1493 H 142.422 1.40363 -0.321587 0
M  V30 1494 H 144.375 3.9153 1.55827 0
M  V30 1495 H 143.099 2.70331 1.83272 0
M  V30 1496 H 141.758 3.66532 -0.0704683 0
M  V30 1497 H 141.406 4.49191 2.26355 0
M  V30 1498 H 141.106 5.77812 1.06803 0
M  V30 1499 H 142.63 5.76902 2.00041 0
M  V30 1500 H 144.044 5.72661 -0.270631 0
M  V30 1501 H 142.441 5.91015 -1.04023 0
M  V30 1502 H 143.511 4.59326 -1.55395 0
M  V30 1503 N 144.854 0.36279 1.53368 0
M  V30 1504 C 145.817 -0.472679 2.24273 0
M  V30 1505 C 146.817 -1.012 1.24961 0
M  V30 1506 O 148.007 -0.898194 1.49259 0
M  V30 1507 C 145.139 -1.66039 2.97731 0
M  V30 1508 H 146.332 0.14773 2.99536 0
M  V30 1509 H 143.885 0.114434 1.55881 0
M  V30 1510 H 144.62 -2.31896 2.26704 0
M  V30 1511 H 144.405 -1.28066 3.70596 0
M  V30 1512 H 145.895 -2.25252 3.51641 0
M  V30 1513 N 146.332 -1.57332 0.0918853 0
M  V30 1514 C 147.557 -1.98995 -0.584442 0
M  V30 1515 C 147.982 -0.970528 -1.61128 0
M  V30 1516 O 147.34 0.0613904 -1.81196 0
M  V30 1517 C 147.388 -3.39636 -1.21161 0
M  V30 1518 O 146.492 -3.40447 -2.32744 0
M  V30 1519 H 145.833 -0.647165 -0.148572 0
M  V30 1520 H 148.363 -2.03873 0.172347 0
M  V30 1521 H 148.373 -3.7726 -1.55367 0
M  V30 1522 H 147.048 -4.13356 -0.459313 0
M  V30 1523 H 145.625 -3.14614 -2.0018 0
M  V30 1524 N 147.81 0.181792 -1.56548 0
M  V30 1525 C 149.056 0.896803 -1.82562 0
M  V30 1526 C 149.411 1.80324 -0.670908 0
M  V30 1527 O 148.704 1.8868 0.333235 0
M  V30 1528 C 148.898 1.73728 -3.12335 0
M  V30 1529 C 148.727 0.913714 -4.4032 0
M  V30 1530 C 147.497 0.592903 -5.01809 0
M  V30 1531 C 149.695 0.260164 -5.13642 0
M  V30 1532 N 147.677 -0.247901 -6.13399 0
M  V30 1533 C 149.048 -0.442256 -6.18421 0
M  V30 1534 C 151.103 0.177253 -4.97584 0
M  V30 1535 C 149.806 -1.21971 -7.08883 0
M  V30 1536 C 151.832 -0.586839 -5.88481 0
M  V30 1537 C 151.194 -1.27766 -6.92716 0
M  V30 1538 H 147.293 0.307122 -0.719166 0
M  V30 1539 H 149.877 0.164535 -1.94004 0
M  V30 1540 H 148.048 2.44105 -3.02105 0
M  V30 1541 H 149.78 2.39279 -3.26386 0
M  V30 1542 H 146.535 0.920502 -4.64568 0
M  V30 1543 H 146.959 -0.658304 -6.73792 0
M  V30 1544 H 151.601 0.696993 -4.17015 0
M  V30 1545 H 149.319 -1.75083 -7.88905 0
M  V30 1546 H 152.905 -0.652522 -5.78129 0
M  V30 1547 H 151.785 -1.85943 -7.61836 0
M  V30 1548 N 149.288 1.51039 0.449983 0
M  V30 1549 C 150.218 1.74379 1.55288 0
M  V30 1550 C 151.199 0.593236 1.5942 0
M  V30 1551 O 152.384 0.834625 1.7535 0
M  V30 1552 C 149.514 1.85728 2.93466 0
M  V30 1553 C 148.468 3.01078 3.04197 0
M  V30 1554 C 147.794 2.97595 4.44231 0
M  V30 1555 C 149.094 4.41254 2.7945 0
M  V30 1556 H 150.788 2.66725 1.36008 0
M  V30 1557 H 148.334 1.2835 0.652864 0
M  V30 1558 H 150.287 2.0064 3.70569 0
M  V30 1559 H 149.011 0.900207 3.13949 0
M  V30 1560 H 147.67 2.85851 2.29531 0
M  V30 1561 H 147.318 1.99691 4.61663 0
M  V30 1562 H 147.018 3.75046 4.52343 0
M  V30 1563 H 148.542 3.14583 5.23326 0
M  V30 1564 H 149.956 4.56897 3.46292 0
M  V30 1565 H 148.353 5.20315 2.98985 0
M  V30 1566 H 149.423 4.52164 1.75144 0
M  V30 1567 N 150.766 -0.704594 1.40972 0
M  V30 1568 C 151.696 -1.83124 1.44872 0
M  V30 1569 C 152.677 -1.67281 0.30838 0
M  V30 1570 O 153.862 -1.87149 0.518556 0
M  V30 1571 C 150.992 -3.21181 1.32136 0
M  V30 1572 C 149.946 -3.51714 2.43888 0
M  V30 1573 C 149.272 -4.89032 2.16222 0
M  V30 1574 C 150.572 -3.516 3.86232 0
M  V30 1575 H 152.266 -1.80117 2.39161 0
M  V30 1576 H 149.812 -0.865145 1.15114 0
M  V30 1577 H 151.765 -3.99702 1.33479 0
M  V30 1578 H 150.489 -3.24791 0.343279 0
M  V30 1579 H 149.148 -2.75539 2.41813 0
M  V30 1580 H 148.796 -4.89256 1.16778 0
M  V30 1581 H 148.496 -5.10426 2.911 0
M  V30 1582 H 150.02 -5.69873 2.19265 0
M  V30 1583 H 151.434 -4.2014 3.9007 0
M  V30 1584 H 149.831 -3.84523 4.60719 0
M  V30 1585 H 150.901 -2.50757 4.15029 0
M  V30 1586 N 152.244 -1.26651 -0.937939 0
M  V30 1587 C 153.491 -1.12387 -1.6845 0
M  V30 1588 C 153.819 0.332208 -1.91642 0
M  V30 1589 O 153.074 1.2602 -1.49725 0
M  V30 1590 C 153.373 -1.84168 -3.06295 0
M  V30 1591 C 153.039 -3.34056 -3.02849 0
M  V30 1592 C 151.701 -3.74942 -3.01616 0
M  V30 1593 C 154.053 -4.29741 -2.9491 0
M  V30 1594 C 151.381 -5.09894 -2.90215 0
M  V30 1595 C 153.733 -5.64738 -2.8505 0
M  V30 1596 C 152.397 -6.0493 -2.82162 0
M  V30 1597 H 151.667 -0.411252 -0.616403 0
M  V30 1598 H 154.314 -1.57134 -1.09459 0
M  V30 1599 H 152.619 -1.319 -3.6893 0
M  V30 1600 H 154.316 -1.70569 -3.62915 0
M  V30 1601 H 150.906 -3.01534 -3.0459 0
M  V30 1602 H 155.09 -3.99133 -2.94969 0
M  V30 1603 H 150.346 -5.40194 -2.86358 0
M  V30 1604 H 154.52 -6.38561 -2.77872 0
M  V30 1605 H 152.147 -7.09457 -2.73084 0
M  V30 1606 N 153.722 1.14298 -1.08507 0
M  V30 1607 C 154.97 1.84993 -0.813763 0
M  V30 1608 C 155.291 1.83405 0.662393 0
M  V30 1609 O 154.561 1.28319 1.48024 0
M  V30 1610 H 153.141 0.684966 -0.298045 0
M  V30 1611 H 155.803 1.385 -1.37126 0
M  V30 1612 H 154.899 2.89788 -1.15884 0
M  V30 1613 N 155.201 0.870884 1.31352 0
M  V30 1614 C 156.131 0.343096 2.30966 0
M  V30 1615 C 157.112 -0.566507 1.60389 0
M  V30 1616 O 158.297 -0.483336 1.88089 0
M  V30 1617 C 155.427 -0.455487 3.443 0
M  V30 1618 C 154.381 0.361103 4.26474 0
M  V30 1619 C 153.707 -0.563221 5.31725 0
M  V30 1620 C 155.007 1.59566 4.97329 0
M  V30 1621 H 156.701 1.17548 2.75359 0
M  V30 1622 H 154.247 0.566686 1.32381 0
M  V30 1623 H 156.2 -0.83525 4.13039 0
M  V30 1624 H 154.924 -1.32139 2.98675 0
M  V30 1625 H 153.583 0.722825 3.59403 0
M  V30 1626 H 153.231 -1.42643 4.82351 0
M  V30 1627 H 152.931 -0.0207409 5.87596 0
M  V30 1628 H 154.455 -0.939808 6.03324 0
M  V30 1629 H 155.869 1.28728 5.58661 0
M  V30 1630 H 154.266 2.07728 5.63 0
M  V30 1631 H 155.336 2.34798 4.24262 0
M  V30 1632 N 156.679 -1.44442 0.630414 0
M  V30 1633 C 157.642 -2.29107 -0.0652523 0
M  V30 1634 C 158.642 -1.41002 -0.772995 0
M  V30 1635 O 159.832 -1.62881 -0.617692 0
M  V30 1636 C 156.964 -3.22564 -1.10296 0
M  V30 1637 H 158.157 -2.92103 0.679401 0
M  V30 1638 H 155.71 -1.51343 0.390517 0
M  V30 1639 H 156.445 -2.64416 -1.87762 0
M  V30 1640 H 156.23 -3.87491 -0.59941 0
M  V30 1641 H 157.72 -3.86167 -1.5895 0
M  V30 1642 N 158.157 -0.370918 -1.53173 0
M  V30 1643 C 159.404 0.217102 -2.01333 0
M  V30 1644 C 159.732 1.48338 -1.25802 0
M  V30 1645 O 158.987 1.92698 -0.34146 0
M  V30 1646 C 159.286 0.549696 -3.53147 0
M  V30 1647 C 158.952 -0.622872 -4.46577 0
M  V30 1648 C 157.614 -0.944595 -4.71838 0
M  V30 1649 C 159.966 -1.40819 -5.01816 0
M  V30 1650 C 157.294 -2.05351 -5.49589 0
M  V30 1651 C 159.646 -2.50757 -5.80778 0
M  V30 1652 C 158.31 -2.83458 -6.04324 0
M  V30 1653 H 157.58 0.0794431 -0.736729 0
M  V30 1654 H 160.227 -0.504481 -1.84736 0
M  V30 1655 H 158.532 1.35237 -3.6772 0
M  V30 1656 H 160.229 1.017 -3.87889 0
M  V30 1657 H 156.819 -0.36209 -4.27068 0
M  V30 1658 H 161.003 -1.17289 -4.82242 0
M  V30 1659 H 156.259 -2.3108 -5.6605 0
M  V30 1660 H 160.433 -3.12022 -6.22588 0
M  V30 1661 H 158.06 -3.69508 -6.64355 0
M  V30 1662 N 159.635 1.57281 -0.100228 0
M  V30 1663 C 160.881 1.95626 0.556946 0
M  V30 1664 C 161.236 0.981655 1.65473 0
M  V30 1665 O 160.529 0.00849847 1.91598 0
M  V30 1666 C 160.723 3.38305 1.15259 0
M  V30 1667 C 160.552 4.49555 0.114035 0
M  V30 1668 C 159.322 5.0434 -0.311266 0
M  V30 1669 C 161.52 5.10051 -0.659768 0
M  V30 1670 N 159.502 5.99152 -1.33755 0
M  V30 1671 C 160.873 6.00628 -1.53774 0
M  V30 1672 C 162.928 4.92772 -0.712723 0
M  V30 1673 C 161.631 6.7578 -2.46403 0
M  V30 1674 C 163.657 5.6859 -1.62663 0
M  V30 1675 C 163.019 6.58838 -2.49222 0
M  V30 1676 H 159.118 0.7624 0.173982 0
M  V30 1677 H 161.702 1.93829 -0.183988 0
M  V30 1678 H 159.873 3.40786 1.86332 0
M  V30 1679 H 161.605 3.63817 1.77254 0
M  V30 1680 H 158.36 4.73537 0.0774812 0
M  V30 1681 H 158.784 6.5126 -1.84905 0
M  V30 1682 H 163.426 4.22761 -0.0576648 0
M  V30 1683 H 161.144 7.4505 -3.12931 0
M  V30 1684 H 164.73 5.57233 -1.67281 0
M  V30 1685 H 163.61 7.16479 -3.18791 0
M  V30 1686 N 161.113 -0.173488 1.56642 0
M  V30 1687 C 162.043 -1.2171 1.99271 0
M  V30 1688 C 163.024 -1.46289 0.867959 0
M  V30 1689 O 164.209 -1.5766 1.13388 0
M  V30 1690 C 161.339 -2.55651 2.35074 0
M  V30 1691 C 160.293 -2.45645 3.50489 0
M  V30 1692 C 159.619 -3.84056 3.72028 0
M  V30 1693 C 160.919 -1.96302 4.84007 0
M  V30 1694 H 162.613 -0.86275 2.867 0
M  V30 1695 H 160.159 -0.413571 1.37933 0
M  V30 1696 H 162.112 -3.2886 2.63494 0
M  V30 1697 H 160.836 -2.92869 1.44552 0
M  V30 1698 H 159.495 -1.7489 3.22194 0
M  V30 1699 H 159.143 -4.18664 2.788 0
M  V30 1700 H 158.843 -3.7823 4.49684 0
M  V30 1701 H 160.367 -4.58854 4.02846 0
M  V30 1702 H 161.781 -2.59284 5.11317 0
M  V30 1703 H 160.178 -2.01429 5.65284 0
M  V30 1704 H 161.248 -0.917226 4.76146 0
M  V30 1705 N 162.591 -1.51276 -0.441967 0
M  V30 1706 C 163.84 -1.6295 -1.18871 0
M  V30 1707 C 164.153 -0.349312 -1.92456 0
M  V30 1708 O 165.359 -0.345355 -2.69295 0
M  V30 1709 C 163.815 -2.87759 -2.16155 0
M  V30 1710 C 163.423 -4.22764 -1.48239 0
M  V30 1711 C 165.167 -3.08788 -2.91291 0
M  V30 1712 C 163.074 -5.38728 -2.4398 0
M  V30 1713 H 162.004 -0.606913 -0.447406 0
M  V30 1714 H 164.655 -1.77739 -0.456205 0
M  V30 1715 H 163.037 -2.66593 -2.92821 0
M  V30 1716 H 164.211 -4.54293 -0.771635 0
M  V30 1717 H 162.526 -4.07575 -0.852741 0
M  V30 1718 H 165.123 -3.92599 -3.63002 0
M  V30 1719 H 165.466 -2.21679 -3.5237 0
M  V30 1720 H 165.999 -3.30272 -2.21733 0
M  V30 1721 H 162.738 -6.28082 -1.87598 0
M  V30 1722 H 162.258 -5.1158 -3.13123 0
M  V30 1723 H 163.937 -5.70489 -3.05207 0
M  V30 1724 N 164.069 0.697108 -1.41344 0
M  V30 1725 C 165.032 1.79281 -1.42797 0
M  V30 1726 C 166.032 1.57607 -0.318837 0
M  V30 1727 O 167.222 1.64309 -0.578642 0
M  V30 1728 C 164.354 3.17632 -1.23785 0
M  V30 1729 H 165.547 1.79385 -2.40335 0
M  V30 1730 H 163.1 0.904582 -1.27464 0
M  V30 1731 H 163.835 3.23167 -0.270814 0
M  V30 1732 H 163.62 3.34765 -2.04144 0
M  V30 1733 H 165.11 3.97617 -1.27633 0
M  V30 1734 N 165.547 1.27147 0.931209 0
M  V30 1735 C 166.772 1.16191 1.71797 0
M  V30 1736 C 167.197 -0.278004 1.86034 0
M  V30 1737 O 166.555 -1.20137 1.35782 0
M  V30 1738 C 166.603 1.84673 3.09723 0
M  V30 1739 O 165.707 1.14231 3.96264 0
M  V30 1740 H 165.048 0.404303 0.526721 0
M  V30 1741 H 167.578 1.68152 1.1656 0
M  V30 1742 H 167.588 1.91893 3.60057 0
M  V30 1743 H 166.263 2.89421 2.98677 0
M  V30 1744 H 164.84 1.15056 3.54706 0
M  V30 1745 N 167.025 -1.13721 1.09112 0
M  V30 1746 C 167.955 -2.21148 0.749385 0
M  V30 1747 C 168.936 -1.6792 -0.271475 0
M  V30 1748 O 170.121 -1.93693 -0.140251 0
M  V30 1749 C 167.251 -3.46905 0.165659 0
M  V30 1750 C 166.205 -4.13203 1.11567 0
M  V30 1751 C 165.531 -5.33248 0.393809 0
M  V30 1752 C 166.831 -4.60912 2.45678 0
M  V30 1753 H 168.525 -2.4999 1.64758 0
M  V30 1754 H 166.071 -1.20156 0.793626 0
M  V30 1755 H 168.024 -4.21313 -0.085466 0
M  V30 1756 H 166.748 -3.17449 -0.767714 0
M  V30 1757 H 165.407 -3.40758 1.35202 0
M  V30 1758 H 165.055 -5.00054 -0.543599 0
M  V30 1759 H 164.755 -5.78552 1.02721 0
M  V30 1760 H 166.279 -6.10413 0.150908 0
M  V30 1761 H 167.693 -5.26759 2.26269 0
M  V30 1762 H 166.09 -5.16944 3.04776 0
M  V30 1763 H 167.16 -3.75603 3.06677 0
M  V30 1764 N 168.503 -0.877838 -1.30888 0
M  V30 1765 C 169.453 -0.310872 -2.25871 0
M  V30 1766 C 170.437 0.556596 -1.50966 0
M  V30 1767 O 171.629 0.402187 -1.7237 0
M  V30 1768 C 168.758 0.479821 -3.3993 0
M  V30 1769 C 167.844 -0.401333 -4.22197 0
M  V30 1770 N 168.235 -1.49848 -4.83093 0
M  V30 1771 C 166.533 -0.195167 -4.45573 0
M  V30 1772 C 167.234 -2.0425 -5.44662 0
M  V30 1773 N 166.21 -1.33843 -5.26865 0
M  V30 1774 H 170.012 -1.1493 -2.70496 0
M  V30 1775 H 167.526 -0.726458 -1.45246 0
M  V30 1776 H 169.523 0.902582 -4.07012 0
M  V30 1777 H 168.183 1.31577 -2.96846 0
M  V30 1778 H 169.194 -1.88137 -4.82519 0
M  V30 1779 H 165.871 0.604192 -4.13105 0
M  V30 1780 H 167.261 -2.96345 -6.03017 0
M  V30 1781 N 169.982 1.44106 -0.638065 0
M  V30 1782 C 171.23 2.01579 -0.145043 0
M  V30 1783 C 171.551 1.50496 1.24 0
M  V30 1784 O 170.821 0.711374 1.82527 0
M  V30 1785 H 169.401 0.745282 -0.05063 0
M  V30 1786 H 172.063 1.76516 -0.826327 0
M  V30 1787 H 171.159 3.11877 -0.118039 0
M  V30 1788 N 171.46 0.379036 1.52974 0
M  V30 1789 C 172.737 -0.263479 1.93817 0
M  V30 1790 C 173.117 -1.65244 1.31368 0
M  V30 1791 O 172.465 -2.23448 0.477856 0
M  V30 1792 C 172.675 -0.300166 3.47707 0
M  V30 1793 C 174.023 -0.534061 4.21228 0
M  V30 1794 O 175.047 -0.38081 3.54159 0
M  V30 1795 O 173.906 -0.833501 5.40106 0
M  V30 1796 H 171 -0.161149 0.811147 0
M  V30 1797 H 173.546 0.432798 1.64088 0
M  V30 1798 H 172.318 0.673138 3.85467 0
M  V30 1799 H 171.941 -1.04179 3.83709 0
M  V30 1800 N 172.938 -1.57226 0.108567 0
M  V30 1801 C 173.868 -2.17778 -0.84232 0
M  V30 1802 C 174.849 -1.11487 -1.2847 0
M  V30 1803 O 176.034 -1.39681 -1.34918 0
M  V30 1804 C 173.164 -2.76888 -2.09644 0
M  V30 1805 C 172.118 -3.88669 -1.79221 0
M  V30 1806 C 171.444 -4.34541 -3.11574 0
M  V30 1807 C 172.744 -5.11251 -1.06864 0
M  V30 1808 H 174.438 -2.97489 -0.337774 0
M  V30 1809 H 171.984 -1.43097 -0.161025 0
M  V30 1810 H 173.937 -3.17904 -2.76614 0
M  V30 1811 H 172.661 -1.94451 -2.62405 0
M  V30 1812 H 171.32 -3.48213 -1.14644 0
M  V30 1813 H 170.968 -3.48977 -3.62249 0
M  V30 1814 H 170.668 -5.09914 -2.91996 0
M  V30 1815 H 172.192 -4.782 -3.7968 0
M  V30 1816 H 173.606 -5.49352 -1.63968 0
M  V30 1817 H 172.003 -5.9214 -0.974178 0
M  V30 1818 H 173.073 -4.8487 -0.0536168 0
M  V30 1819 N 174.416 0.165178 -1.56732 0
M  V30 1820 C 175.379 1.18822 -1.95995 0
M  V30 1821 C 176.379 1.3685 -0.84431 0
M  V30 1822 O 177.569 1.34152 -1.11126 0
M  V30 1823 C 174.701 2.5521 -2.26011 0
M  V30 1824 H 175.894 0.851825 -2.87548 0
M  V30 1825 H 173.447 0.407857 -1.50885 0
M  V30 1826 H 174.182 2.93852 -1.37191 0
M  V30 1827 H 173.967 2.43489 -3.07336 0
M  V30 1828 H 175.457 3.28927 -2.57288 0
M  V30 1829 N 175.894 1.51508 0.433938 0
M  V30 1830 C 176.857 1.72473 1.50949 0
M  V30 1831 C 177.857 0.594725 1.49398 0
M  V30 1832 O 179.047 0.862315 1.5136 0
M  V30 1833 C 176.179 1.78431 2.90474 0
M  V30 1834 H 177.372 2.68467 1.33662 0
M  V30 1835 H 174.925 1.41549 0.662836 0
M  V30 1836 H 175.66 0.842645 3.13161 0
M  V30 1837 H 175.445 2.60558 2.93005 0
M  V30 1838 H 176.935 1.96479 3.68491 0
M  V30 1839 N 177.372 -0.689602 1.41712 0
M  V30 1840 C 178.783 -1.26973 1.36875 0
M  V30 1841 C 179.134 -1.96124 0.054748 0
M  V30 1842 O 178.259 -1.99141 -0.84687 0
M  V30 1843 C 178.854 -2.30912 2.47922 0
M  V30 1844 C 177.413 -2.84486 2.46464 0
M  V30 1845 C 176.56 -1.58603 2.27465 0
M  V30 1846 H 179.511 -0.48396 1.51141 0
M  V30 1847 H 179.532 -3.12331 2.17323 0
M  V30 1848 H 179.044 -1.80554 3.43543 0
M  V30 1849 H 177.145 -3.39005 1.54617 0
M  V30 1850 H 177.258 -3.34511 3.42986 0
M  V30 1851 H 175.622 -1.84632 1.75451 0
M  V30 1852 H 176.405 -1.10233 3.25121 0
M  V30 1853 N 178.85 -1.27639 -0.924453 0
M  V30 1854 C 180.261 -1.12834 -1.48746 0
M  V30 1855 C 180.612 0.285505 -1.94112 0
M  V30 1856 O 179.737 1.17874 -1.81479 0
M  V30 1857 C 180.332 -2.04217 -2.70334 0
M  V30 1858 C 178.891 -1.93509 -3.22848 0
M  V30 1859 C 178.038 -1.96583 -1.95577 0
M  V30 1860 H 180.989 -1.40484 -0.738233 0
M  V30 1861 H 181.01 -1.59989 -3.4523 0
M  V30 1862 H 180.522 -3.07111 -2.37285 0
M  V30 1863 H 178.623 -0.936131 -3.60649 0
M  V30 1864 H 178.736 -2.79917 -3.88823 0
M  V30 1865 H 177.1 -1.4085 -2.12211 0
M  V30 1866 H 177.883 -3.01137 -1.64837 0
M  V30 1867 N 180.328 1.1314 -1.09713 0
M  V30 1868 C 181.739 1.66029 -0.853885 0
M  V30 1869 C 182.09 1.86241 0.617142 0
M  V30 1870 O 181.215 1.5834 1.47503 0
M  V30 1871 C 181.81 3.01599 -1.5435 0
M  V30 1872 C 180.369 3.51467 -1.34714 0
M  V30 1873 C 179.516 2.26648 -1.59769 0
M  V30 1874 H 182.467 0.970226 -1.25588 0
M  V30 1875 H 182.488 3.67709 -0.978267 0
M  V30 1876 H 182 2.86856 -2.6141 0
M  V30 1877 H 180.101 3.71408 -0.297838 0
M  V30 1878 H 180.214 4.314 -2.08401 0
M  V30 1879 H 178.578 2.33385 -1.01998 0
M  V30 1880 H 179.361 2.14467 -2.68065 0
M  V30 1881 N 181.806 0.884767 1.30421 0
M  V30 1882 C 183.217 0.553656 1.78302 0
M  V30 1883 C 183.568 -0.930153 1.7275 0
M  V30 1884 O 182.693 -1.72681 1.30423 0
M  V30 1885 C 183.288 0.998234 3.2376 0
M  V30 1886 C 181.847 0.71854 3.69478 0
M  V30 1887 C 180.994 1.18132 2.50879 0
M  V30 1888 H 183.945 1.06901 1.17294 0
M  V30 1889 H 183.966 0.327118 3.79091 0
M  V30 1890 H 183.478 2.0782 3.27769 0
M  V30 1891 H 181.579 -0.349444 3.70958 0
M  V30 1892 H 181.692 1.30595 4.60958 0
M  V30 1893 H 180.056 0.600669 2.47516 0
M  V30 1894 H 180.839 2.26902 2.57624 0
M  V30 1895 N 183.284 -1.43765 0.645699 0
M  V30 1896 C 184.247 -2.29163 -0.0409488 0
M  V30 1897 C 185.247 -1.41813 -0.757996 0
M  V30 1898 O 186.437 -1.63527 -0.600382 0
M  V30 1899 C 183.569 -3.23716 -1.06869 0
M  V30 1900 H 184.762 -2.91366 0.710345 0
M  V30 1901 H 182.315 -1.5092 0.406547 0
M  V30 1902 H 183.05 -2.66393 -1.84947 0
M  V30 1903 H 182.835 -3.88105 -0.558277 0
M  V30 1904 H 184.325 -3.87831 -1.54845 0
M  V30 1905 N 184.763 -0.387143 -1.52771 0
M  V30 1906 C 186.174 0.0873634 -1.86495 0
M  V30 1907 C 186.525 1.46336 -1.30691 0
M  V30 1908 O 185.65 2.068 -0.637409 0
M  V30 1909 C 186.245 0.165305 -3.38396 0
M  V30 1910 C 184.804 0.584101 -3.7184 0
M  V30 1911 C 183.951 -0.255279 -2.76122 0
M  V30 1912 H 186.902 -0.605104 -1.46711 0
M  V30 1913 H 186.923 0.984848 -3.67534 0
M  V30 1914 H 186.435 -0.836301 -3.78982 0
M  V30 1915 H 184.536 1.59315 -3.36823 0
M  V30 1916 H 184.649 0.343749 -4.77865 0
M  V30 1917 H 183.013 0.279126 -2.53166 0
M  V30 1918 H 183.796 -1.25482 -3.19545 0
M  V30 1919 N 186.241 1.57166 -0.116904 0
M  V30 1920 C 187.481 1.97008 0.544715 0
M  V30 1921 C 187.845 0.998713 1.63981 0
M  V30 1922 O 189.046 1.28644 2.36018 0
M  V30 1923 C 187.317 3.41145 1.06559 0
M  V30 1924 S 188.876 4.02998 1.73603 0
M  V30 1925 H 185.694 0.688587 0.177112 0
M  V30 1926 H 188.296 1.94459 -0.201487 0
M  V30 1927 H 187 4.09592 0.257374 0
M  V30 1928 H 186.531 3.4734 1.84712 0
M  V30 1929 H 188.546 3.93585 3.02168 0
M  V30 1930 N 187.719 -0.156864 1.56817 0
M  V30 1931 C 188.966 -0.871125 1.82805 0
M  V30 1932 C 189.294 -1.81611 0.696262 0
M  V30 1933 O 188.549 -1.93141 -0.315459 0
M  V30 1934 C 188.848 -1.68737 3.1506 0
M  V30 1935 C 188.514 -0.890045 4.42028 0
M  V30 1936 C 187.176 -0.670042 4.76512 0
M  V30 1937 C 189.528 -0.331769 5.20143 0
M  V30 1938 C 186.856 0.119104 5.86579 0
M  V30 1939 C 189.208 0.444365 6.31037 0
M  V30 1940 C 187.872 0.675035 6.64078 0
M  V30 1941 H 187.142 -0.318767 0.668931 0
M  V30 1942 H 189.789 -0.135274 1.91022 0
M  V30 1943 H 188.094 -2.49304 3.0225 0
M  V30 1944 H 189.791 -2.24331 3.3238 0
M  V30 1945 H 186.381 -1.07157 4.14988 0
M  V30 1946 H 190.565 -0.489043 4.93885 0
M  V30 1947 H 185.821 0.307417 6.10627 0
M  V30 1948 H 189.995 0.884139 6.90765 0
M  V30 1949 H 187.622 1.28839 7.49203 0
M  V30 1950 N 189.197 -1.51736 -0.425897 0
M  V30 1951 C 190.422 -1.69082 -1.20108 0
M  V30 1952 C 190.847 -0.392398 -1.83962 0
M  V30 1953 O 190.205 0.64858 -1.69302 0
M  V30 1954 C 190.253 -2.81604 -2.25237 0
M  V30 1955 O 189.357 -2.46004 -3.30992 0
M  V30 1956 H 188.698 -0.563408 -0.35138 0
M  V30 1957 H 191.228 -1.98358 -0.501512 0
M  V30 1958 H 191.238 -3.06025 -2.69838 0
M  V30 1959 H 189.913 -3.75817 -1.78142 0
M  V30 1960 H 188.49 -2.32195 -2.91787 0
M  V30 1961 N 190.675 0.682077 -1.42076 0
M  V30 1962 C 191.625 1.78823 -1.41444 0
M  V30 1963 C 192.609 1.58323 -0.28681 0
M  V30 1964 O 193.801 1.68926 -0.528498 0
M  V30 1965 C 190.93 3.17232 -1.3122 0
M  V30 1966 C 190.016 3.4338 -2.489 0
M  V30 1967 N 190.407 3.40152 -3.7434 0
M  V30 1968 C 188.705 3.73986 -2.43003 0
M  V30 1969 C 189.406 3.65581 -4.52466 0
M  V30 1970 N 188.382 3.85989 -3.8277 0
M  V30 1971 H 192.184 1.7471 -2.36334 0
M  V30 1972 H 189.698 0.882622 -1.36321 0
M  V30 1973 H 191.695 3.96489 -1.2885 0
M  V30 1974 H 190.355 3.22547 -0.373263 0
M  V30 1975 H 191.366 3.20221 -4.07037 0
M  V30 1976 H 188.043 3.86591 -1.57651 0
M  V30 1977 H 189.433 3.69108 -5.61435 0
M  V30 1978 N 192.153 1.28127 0.917671 0
M  V30 1979 C 193.399 1.15223 1.66888 0
M  V30 1980 C 193.732 -0.299293 1.9188 0
M  V30 1981 O 193.007 -1.21805 1.51637 0
M  V30 1982 C 193.29 1.94706 3.02922 0
M  V30 1983 C 193.143 3.47898 2.85109 0
M  V30 1984 C 194.462 1.75939 4.03402 0
M  V30 1985 H 191.581 0.419946 0.605652 0
M  V30 1986 H 194.223 1.57398 1.06423 0
M  V30 1987 H 192.373 1.58864 3.54534 0
M  V30 1988 H 194.045 3.93624 2.40537 0
M  V30 1989 H 192.288 3.7373 2.20246 0
M  V30 1990 H 192.959 3.98765 3.81694 0
M  V30 1991 H 195.435 2.07209 3.60837 0
M  V30 1992 H 194.311 2.33931 4.96556 0
M  V30 1993 H 194.572 0.709877 4.36364 0
M  V30 1994 N 193.631 -1.12557 1.10312 0
M  V30 1995 C 194.594 -2.16434 0.75424 0
M  V30 1996 C 195.594 -1.59278 -0.220685 0
M  V30 1997 O 196.784 -1.742 0.00230591 0
M  V30 1998 C 193.916 -3.40699 0.116987 0
M  V30 1999 H 195.109 -2.48811 1.67431 0
M  V30 2000 H 192.662 -1.27542 0.903475 0
M  V30 2001 H 193.397 -3.13921 -0.813877 0
M  V30 2002 H 193.182 -3.83459 0.818613 0
M  V30 2003 H 194.672 -4.17451 -0.111387 0
M  V30 2004 N 195.109 -0.891671 -1.2995 0
M  V30 2005 C 196.334 -0.527932 -2.00568 0
M  V30 2006 C 196.759 0.877969 -1.66353 0
M  V30 2007 O 196.117 1.58301 -0.883762 0
M  V30 2008 C 196.165 -0.717745 -3.53385 0
M  V30 2009 O 195.269 0.233376 -4.11739 0
M  V30 2010 H 194.61 -0.20722 -0.630837 0
M  V30 2011 H 197.14 -1.20105 -1.65638 0
M  V30 2012 H 197.15 -0.619307 -4.03272 0
M  V30 2013 H 195.825 -1.74276 -3.77625 0
M  V30 2014 H 194.402 0.0880706 -3.72796 0
M  V30 2015 N 196.587 1.43421 -0.653314 0
M  V30 2016 C 197.834 2.01812 -0.166745 0
M  V30 2017 C 198.162 1.51535 1.21931 0
M  V30 2018 O 197.417 0.698975 1.82792 0
M  V30 2019 C 197.716 3.57176 -0.126623 0
M  V30 2020 C 197.382 4.26798 -1.45444 0
M  V30 2021 C 196.044 4.45534 -1.81805 0
M  V30 2022 C 198.396 4.66225 -2.32989 0
M  V30 2023 C 195.724 5.00961 -3.05377 0
M  V30 2024 C 198.076 5.23021 -3.55853 0
M  V30 2025 C 196.74 5.39973 -3.9241 0
M  V30 2026 H 196.01 0.738484 -0.0610162 0
M  V30 2027 H 198.657 1.71896 -0.84404 0
M  V30 2028 H 196.962 3.86634 0.634123 0
M  V30 2029 H 198.659 4.00112 0.266723 0
M  V30 2030 H 195.249 4.12561 -1.16153 0
M  V30 2031 H 199.433 4.51443 -2.06187 0
M  V30 2032 H 194.689 5.12271 -3.3375 0
M  V30 2033 H 198.863 5.52518 -4.23907 0
M  V30 2034 H 196.49 5.82687 -4.88242 0
M  V30 2035 N 198.065 0.39524 1.52563 0
M  V30 2036 C 198.995 -0.428384 2.29537 0
M  V30 2037 C 199.976 -1.05831 1.33169 0
M  V30 2038 O 201.161 -1.06995 1.62067 0
M  V30 2039 C 198.291 -1.55274 3.10656 0
M  V30 2040 C 197.245 -1.04855 4.14957 0
M  V30 2041 C 196.571 -2.26543 4.84337 0
M  V30 2042 C 197.871 -0.112324 5.22179 0
M  V30 2043 H 199.565 0.213867 2.98635 0
M  V30 2044 H 197.111 0.104298 1.43622 0
M  V30 2045 H 199.064 -2.1358 3.63265 0
M  V30 2046 H 197.788 -2.22266 2.39302 0
M  V30 2047 H 196.447 -0.487985 3.63338 0
M  V30 2048 H 196.095 -2.92059 4.09525 0
M  V30 2049 H 195.795 -1.93466 5.54837 0
M  V30 2050 H 197.319 -2.85481 5.39753 0
M  V30 2051 H 198.733 -0.603752 5.70112 0
M  V30 2052 H 197.13 0.128968 5.99961 0
M  V30 2053 H 198.2 0.837052 4.77621 0
M  V30 2054 N 199.544 -1.57102 0.125237 0
M  V30 2055 C 200.507 -2.14471 -0.80838 0
M  V30 2056 C 201.507 -1.0811 -1.19033 0
M  V30 2057 O 202.697 -1.33856 -1.11482 0
M  V30 2058 C 199.829 -2.69005 -2.09402 0
M  V30 2059 H 201.022 -2.98297 -0.309696 0
M  V30 2060 H 198.575 -1.55807 -0.124051 0
M  V30 2061 H 199.31 -1.88785 -2.63687 0
M  V30 2062 H 199.095 -3.46799 -1.82957 0
M  V30 2063 H 200.585 -3.13278 -2.76128 0
M  V30 2064 N 201.022 0.148545 -1.56898 0
M  V30 2065 C 201.985 1.16736 -1.97244 0
M  V30 2066 C 202.985 1.35947 -0.858777 0
M  V30 2067 O 204.175 1.32966 -1.12542 0
M  V30 2068 C 201.307 2.52798 -2.28705 0
M  V30 2069 H 202.5 0.821279 -2.88435 0
M  V30 2070 H 200.053 0.391831 -1.51309 0
M  V30 2071 H 200.788 2.92381 -1.403 0
M  V30 2072 H 200.573 2.40216 -3.09901 0
M  V30 2073 H 202.063 3.26179 -2.60762 0
M  V30 2074 N 202.5 1.5196 0.417844 0
M  V30 2075 C 203.747 1.65591 1.16559 0
M  V30 2076 C 204.075 0.381565 1.90721 0
M  V30 2077 O 203.33 -0.635156 1.85106 0
M  V30 2078 C 203.629 2.82269 2.19223 0
M  V30 2079 C 203.295 4.20819 1.61933 0
M  V30 2080 C 201.957 4.58506 1.46033 0
M  V30 2081 C 204.309 5.07196 1.20008 0
M  V30 2082 C 201.637 5.80257 0.867113 0
M  V30 2083 C 203.989 6.29544 0.621086 0
M  V30 2084 C 202.653 6.65987 0.449144 0
M  V30 2085 H 201.923 0.605939 0.42652 0
M  V30 2086 H 204.57 1.86041 0.45397 0
M  V30 2087 H 202.875 2.56118 2.96498 0
M  V30 2088 H 204.572 2.90012 2.76936 0
M  V30 2089 H 201.162 3.91116 1.7529 0
M  V30 2090 H 205.346 4.7867 1.31105 0
M  V30 2091 H 200.602 6.07124 0.721833 0
M  V30 2092 H 204.776 6.95805 0.287798 0
M  V30 2093 H 202.403 7.60199 -0.012632 0
M  V30 2094 N 203.978 -0.674533 1.42435 0
M  V30 2095 C 204.908 -1.80009 1.48724 0
M  V30 2096 C 205.889 -1.6659 0.343793 0
M  V30 2097 O 207.074 -1.86007 0.558137 0
M  V30 2098 C 204.204 -3.18306 1.38919 0
M  V30 2099 C 203.158 -3.46461 2.51294 0
M  V30 2100 C 202.484 -4.84335 2.26547 0
M  V30 2101 C 203.784 -3.43328 3.93603 0
M  V30 2102 H 205.478 -1.75004 2.42928 0
M  V30 2103 H 203.024 -0.840533 1.16923 0
M  V30 2104 H 204.977 -3.9678 1.41927 0
M  V30 2105 H 203.701 -3.2399 0.412094 0
M  V30 2106 H 202.36 -2.70348 2.47604 0
M  V30 2107 H 202.008 -4.86669 1.2713 0
M  V30 2108 H 201.708 -5.04136 3.01861 0
M  V30 2109 H 203.232 -5.65094 2.31304 0
M  V30 2110 H 204.646 -4.11772 3.98894 0
M  V30 2111 H 203.043 -3.74664 4.68771 0
M  V30 2112 H 204.113 -2.41897 4.20255 0
M  V30 2113 N 205.456 -1.28612 -0.910864 0
M  V30 2114 C 206.703 -1.15934 -1.66029 0
M  V30 2115 C 207.031 0.291483 -1.92303 0
M  V30 2116 O 206.286 1.22816 -1.52364 0
M  V30 2117 C 206.585 -1.90624 -3.0232 0
M  V30 2118 C 206.251 -3.40405 -2.95695 0
M  V30 2119 C 204.913 -3.81255 -2.93595 0
M  V30 2120 C 207.265 -4.359 -2.85728 0
M  V30 2121 C 204.593 -5.15936 -2.79334 0
M  V30 2122 C 206.945 -5.70657 -2.73007 0
M  V30 2123 C 205.609 -6.10779 -2.69267 0
M  V30 2124 H 204.879 -0.424234 -0.607541 0
M  V30 2125 H 207.526 -1.5942 -1.06101 0
M  V30 2126 H 205.831 -1.39696 -3.6605 0
M  V30 2127 H 207.528 -1.78228 -3.59215 0
M  V30 2128 H 204.118 -3.07927 -2.98125 0
M  V30 2129 H 208.302 -4.053 -2.86436 0
M  V30 2130 H 203.558 -5.46146 -2.74835 0
M  V30 2131 H 207.732 -6.44311 -2.64264 0
M  V30 2132 H 205.359 -7.1509 -2.57974 0
M  V30 2133 N 206.934 1.1197 -1.10907 0
M  V30 2134 C 207.897 2.16031 -0.765707 0
M  V30 2135 C 208.897 1.59393 0.212235 0
M  V30 2136 O 210.087 1.74196 -0.0115441 0
M  V30 2137 C 207.219 3.40632 -0.135053 0
M  V30 2138 H 208.412 2.47919 -1.68748 0
M  V30 2139 H 205.965 1.27061 -0.910226 0
M  V30 2140 H 206.7 3.14348 0.797218 0
M  V30 2141 H 206.485 3.8302 -0.838937 0
M  V30 2142 H 207.975 4.17505 0.0892469 0
M  V30 2143 N 208.412 0.89855 1.29475 0
M  V30 2144 C 209.342 0.39201 2.30186 0
M  V30 2145 C 210.323 -0.532359 1.61555 0
M  V30 2146 O 211.508 -0.443331 1.89072 0
M  V30 2147 C 208.638 -0.382353 3.45189 0
M  V30 2148 C 207.592 0.451483 4.25612 0
M  V30 2149 C 206.918 -0.450307 5.328 0
M  V30 2150 C 208.218 1.70079 4.93832 0
M  V30 2151 H 209.912 1.23362 2.72804 0
M  V30 2152 H 207.458 0.594638 1.31149 0
M  V30 2153 H 209.411 -0.747451 4.14718 0
M  V30 2154 H 208.135 -1.25774 3.01411 0
M  V30 2155 H 206.794 0.798897 3.57789 0
M  V30 2156 H 206.442 -1.32379 4.85268 0
M  V30 2157 H 206.142 0.103902 5.87508 0
M  V30 2158 H 207.666 -0.811623 6.05182 0
M  V30 2159 H 209.08 1.40549 5.55805 0
M  V30 2160 H 207.477 2.19623 5.58467 0
M  V30 2161 H 208.547 2.43744 4.19186 0
M  V30 2162 N 209.89 -1.43072 0.660911 0
M  V30 2163 C 210.8 -2.34585 -0.0264163 0
M  V30 2164 C 211.816 -1.54316 -0.803898 0
M  V30 2165 O 212.992 -1.86939 -0.749391 0
M  V30 2166 C 210.057 -3.32689 -0.975639 0
M  V30 2167 C 209.118 -4.2886 -0.194236 0
M  V30 2168 C 208.351 -5.22278 -1.09825 0
M  V30 2169 O 208.574 -5.20299 -2.33763 0
M  V30 2170 O 207.508 -5.99228 -0.566513 0
M  V30 2171 H 211.334 -2.94869 0.727034 0
M  V30 2172 H 208.919 -1.43342 0.42111 0
M  V30 2173 H 210.801 -3.92995 -1.52094 0
M  V30 2174 H 209.476 -2.74898 -1.70918 0
M  V30 2175 H 208.383 -3.72011 0.394835 0
M  V30 2176 H 209.716 -4.89655 0.499899 0
M  V30 2177 N 211.368 -0.403325 -1.52352 0
M  V30 2178 C 212.596 0.174012 -2.06167 0
M  V30 2179 C 213.011 1.39347 -1.27388 0
M  V30 2180 O 212.368 1.79597 -0.324201 0
M  V30 2181 C 212.419 0.530223 -3.5759 0
M  V30 2182 O 212.14 -0.640806 -4.33388 0
M  V30 2183 C 213.641 1.16192 -4.27802 0
M  V30 2184 H 210.861 0.0229464 -0.670608 0
M  V30 2185 H 213.405 -0.572604 -1.9632 0
M  V30 2186 H 211.56 1.22673 -3.67464 0
M  V30 2187 H 211.974 -0.344851 -5.23365 0
M  V30 2188 H 213.448 1.36141 -5.34948 0
M  V30 2189 H 213.925 2.13335 -3.83907 0
M  V30 2190 H 214.531 0.505775 -4.22282 0
M  V30 2191 N 212.846 1.57033 -0.133567 0
M  V30 2192 C 213.778 2.13176 0.841944 0
M  V30 2193 C 214.791 1.07794 1.22001 0
M  V30 2194 O 215.98 1.35117 1.16643 0
M  V30 2195 C 213.08 2.62847 2.13926 0
M  V30 2196 C 212.253 3.92486 1.93064 0
M  V30 2197 C 211.312 4.27605 3.0666 0
M  V30 2198 O 210.338 4.96168 2.78937 0
M  V30 2199 N 211.54 3.861 4.33483 0
M  V30 2200 H 214.305 2.97503 0.362192 0
M  V30 2201 H 211.866 1.61821 0.05042 0
M  V30 2202 H 213.858 2.83363 2.88942 0
M  V30 2203 H 212.428 1.83319 2.53205 0
M  V30 2204 H 211.648 3.80732 1.02159 0
M  V30 2205 H 212.936 4.77225 1.76447 0
M  V30 2206 H 212.334 3.30828 4.58878 0
M  V30 2207 H 210.891 4.11694 5.05323 0
M  V30 2208 N 214.325 -0.140222 1.56975 0
M  V30 2209 C 215.553 -0.866437 1.87884 0
M  V30 2210 C 215.968 -1.74428 0.722517 0
M  V30 2211 O 215.325 -1.79891 -0.30749 0
M  V30 2212 C 215.376 -1.71753 3.18093 0
M  V30 2213 O 215.097 -0.875056 4.29272 0
M  V30 2214 C 216.598 -2.55074 3.62563 0
M  V30 2215 H 213.818 -0.25019 0.622612 0
M  V30 2216 H 216.362 -0.130977 2.0408 0
M  V30 2217 H 214.517 -2.40598 3.03631 0
M  V30 2218 H 214.931 -1.46002 5.03769 0
M  V30 2219 H 216.405 -3.10356 4.5649 0
M  V30 2220 H 216.882 -3.31434 2.88181 0
M  V30 2221 H 217.488 -1.91509 3.79743 0
M  V30 2222 N 215.803 -1.52179 -0.40978 0
M  V30 2223 C 217.028 -1.70347 -1.18308 0
M  V30 2224 C 217.453 -0.411887 -1.83535 0
M  V30 2225 O 216.811 0.630587 -1.6998 0
M  V30 2226 C 216.859 -2.83977 -2.22238 0
M  V30 2227 O 215.963 -2.495 -3.28365 0
M  V30 2228 H 215.304 -0.567103 -0.345384 0
M  V30 2229 H 217.834 -1.98879 -0.480445 0
M  V30 2230 H 217.844 -3.0887 -2.66577 0
M  V30 2231 H 216.519 -3.77685 -1.74146 0
M  V30 2232 H 215.096 -2.35277 -2.89308 0
M  V30 2233 N 217.281 0.66697 -1.42791 0
M  V30 2234 C 218.53 1.42278 -1.42968 0
M  V30 2235 C 218.843 1.9553 -0.0524489 0
M  V30 2236 O 220.049 2.71414 0.068363 0
M  V30 2237 C 218.505 2.57418 -2.51524 0
M  V30 2238 C 218.113 2.10832 -3.9529 0
M  V30 2239 C 219.857 3.34878 -2.60877 0
M  V30 2240 C 217.764 3.23101 -4.95338 0
M  V30 2241 H 216.694 0.534533 -0.531781 0
M  V30 2242 H 219.345 0.721302 -1.68729 0
M  V30 2243 H 217.727 3.29971 -2.18941 0
M  V30 2244 H 218.901 1.4538 -4.37266 0
M  V30 2245 H 217.216 1.46289 -3.89857 0
M  V30 2246 H 219.813 4.18505 -3.32802 0
M  V30 2247 H 220.156 3.81993 -1.6549 0
M  V30 2248 H 220.689 2.69398 -2.92693 0
M  V30 2249 H 217.428 2.80969 -5.9223 0
M  V30 2250 H 216.948 3.87309 -4.57987 0
M  V30 2251 H 218.627 3.88447 -5.17415 0
M  V30 2252 N 218.759 1.29093 0.90403 0
M  V30 2253 C 220.007 1.16583 1.65085 0
M  V30 2254 C 220.328 -0.283933 1.92922 0
M  V30 2255 O 219.598 -1.19509 1.55224 0
M  V30 2256 H 218.178 0.428467 0.611903 0
M  V30 2257 H 220.84 1.61959 1.08422 0
M  V30 2258 H 219.936 1.71266 2.6091 0
M  V30 2259 N 220.237 -1.11381 1.11499 0
M  V30 2260 C 221.467 -1.86663 0.885464 0
M  V30 2261 C 221.875 -1.80464 -0.568281 0
M  V30 2262 O 221.218 -1.18445 -1.40415 0
M  V30 2263 C 221.28 -3.36337 1.26956 0
M  V30 2264 C 220.944 -3.66304 2.73259 0
M  V30 2265 C 221.941 -3.63733 3.71476 0
M  V30 2266 C 219.626 -3.9529 3.09921 0
M  V30 2267 C 221.62 -3.89725 5.04374 0
M  V30 2268 C 219.307 -4.20941 4.43004 0
M  V30 2269 C 220.305 -4.18147 5.40039 0
M  V30 2270 O 219.993 -4.43153 6.70724 0
M  V30 2271 H 219.725 -0.597114 0.316908 0
M  V30 2272 H 222.279 -1.41782 1.48617 0
M  V30 2273 H 220.509 -3.81826 0.611999 0
M  V30 2274 H 222.198 -3.92986 1.01573 0
M  V30 2275 H 222.964 -3.41389 3.44498 0
M  V30 2276 H 218.843 -3.966 2.35009 0
M  V30 2277 H 222.387 -3.8746 5.80104 0
M  V30 2278 H 218.284 -4.42761 4.69716 0
M  V30 2279 H 219.052 -4.60717 6.76522 0
M  V30 2280 N 221.715 -0.905404 -1.28997 0
M  V30 2281 C 222.963 -0.533192 -1.9494 0
M  V30 2282 C 223.284 0.924618 -1.71685 0
M  V30 2283 O 222.554 1.65268 -1.05183 0
M  V30 2284 H 221.134 -0.194194 -0.721317 0
M  V30 2285 H 223.796 -1.15294 -1.57141 0
M  V30 2286 H 222.892 -0.72059 -3.03667 0
M  V30 2287 N 223.193 1.4272 -0.668489 0
M  V30 2288 C 224.439 2.01923 -0.188419 0
M  V30 2289 C 224.772 1.52704 1.19979 0
M  V30 2290 O 224.047 0.726566 1.8042 0
M  V30 2291 C 224.33 3.59451 -0.216085 0
M  V30 2292 C 224.183 4.18864 -1.6393 0
M  V30 2293 C 225.502 4.37903 0.439179 0
M  V30 2294 H 222.621 0.733674 -0.0699412 0
M  V30 2295 H 225.263 1.69822 -0.852076 0
M  V30 2296 H 223.413 3.86929 0.349012 0
M  V30 2297 H 225.085 4.02362 -2.25616 0
M  V30 2298 H 223.328 3.74933 -2.18193 0
M  V30 2299 H 223.999 5.27987 -1.61039 0
M  V30 2300 H 226.475 4.16079 -0.0417878 0
M  V30 2301 H 225.351 5.47519 0.389157 0
M  V30 2302 H 225.612 4.15303 1.51577 0
M  V30 2303 N 224.671 0.411399 1.52136 0
M  V30 2304 C 226.087 0.0623865 1.59478 0
M  V30 2305 C 226.287 -1.42554 1.4241 0
M  V30 2306 O 225.343 -2.19263 1.2522 0
M  V30 2307 C 226.656 0.559331 2.95452 0
M  V30 2308 C 228.204 0.517503 3.08692 0
M  V30 2309 C 228.679 0.990994 4.4715 0
M  V30 2310 N 230.17 0.947908 4.53397 0
M  V30 2311 C 230.905 1.28544 5.58806 0
M  V30 2312 N 230.401 1.69454 6.71757 0
M  V30 2313 N 232.194 1.20526 5.49026 0
M  V30 2314 H 224.345 1.37982 1.61477 0
M  V30 2315 H 226.608 0.566977 0.759764 0
M  V30 2316 H 226.314 1.59938 3.1323 0
M  V30 2317 H 226.188 -0.0298014 3.77188 0
M  V30 2318 H 228.575 -0.513505 2.90598 0
M  V30 2319 H 228.656 1.14272 2.28857 0
M  V30 2320 H 228.3 2.02034 4.65988 0
M  V30 2321 H 228.23 0.34257 5.25485 0
M  V30 2322 H 230.721 0.647157 3.72317 0
M  V30 2323 H 231.034 1.93513 7.48179 0
M  V30 2324 H 229.379 1.73359 6.73032 0
M  V30 2325 H 232.57 0.884505 4.59667 0
M  V30 2326 H 232.743 1.47161 6.31069 0
M  V30 2327 N 226.149 -1.5696 0.141893 0
M  V30 2328 C 227.374 -2.00754 -0.520838 0
M  V30 2329 C 227.799 -1.0213 -1.57959 0
M  V30 2330 O 227.157 0.00371324 -1.813 0
M  V30 2331 C 227.205 -3.43318 -1.10294 0
M  V30 2332 O 226.309 -3.47679 -2.21795 0
M  V30 2333 H 225.65 -0.651564 -0.127908 0
M  V30 2334 H 228.18 -2.03221 0.23712 0
M  V30 2335 H 228.19 -3.82012 -1.43287 0
M  V30 2336 H 226.865 -4.14608 -0.327574 0
M  V30 2337 H 225.442 -3.20824 -1.9007 0
M  V30 2338 N 227.627 0.131896 -1.57047 0
M  V30 2339 C 228.873 0.843179 -1.84441 0
M  V30 2340 C 229.206 1.80129 -0.725749 0
M  V30 2341 O 228.481 1.92624 0.269469 0
M  V30 2342 C 228.764 1.60442 -3.22382 0
M  V30 2343 C 228.617 0.666782 -4.4483 0
M  V30 2344 C 229.936 2.56354 -3.5773 0
M  V30 2345 H 227.055 0.305081 -0.670891 0
M  V30 2346 H 229.697 0.107839 -1.89694 0
M  V30 2347 H 227.847 2.23128 -3.18035 0
M  V30 2348 H 229.519 0.0497646 -4.61273 0
M  V30 2349 H 227.762 -0.022609 -4.33794 0
M  V30 2350 H 228.433 1.23579 -5.37989 0
M  V30 2351 H 230.909 2.0378 -3.62785 0
M  V30 2352 H 229.785 3.06657 -4.5525 0
M  V30 2353 H 230.046 3.38419 -2.84473 0
M  V30 2354 N 229.106 1.52395 0.401703 0
M  V30 2355 C 230.334 1.70676 1.16949 0
M  V30 2356 C 230.749 0.419503 1.8408 0
M  V30 2357 O 230.106 -0.605061 1.72178 0
M  V30 2358 C 230.157 2.84753 2.22706 0
M  V30 2359 O 229.878 4.08495 1.58314 0
M  V30 2360 C 231.379 3.14608 3.12309 0
M  V30 2361 H 228.599 0.571787 0.351142 0
M  V30 2362 H 231.143 1.98987 0.471652 0
M  V30 2363 H 229.298 2.58941 2.88147 0
M  V30 2364 H 229.712 4.72117 2.28485 0
M  V30 2365 H 231.186 3.97923 3.82572 0
M  V30 2366 H 231.663 2.28464 3.75101 0
M  V30 2367 H 232.269 3.42212 2.52529 0
M  V30 2368 N 230.584 -0.659388 1.43143 0
M  V30 2369 C 231.494 -1.80167 1.50256 0
M  V30 2370 C 232.51 -1.69571 0.390106 0
M  V30 2371 O 233.686 -1.90849 0.643319 0
M  V30 2372 C 230.751 -3.16409 1.41725 0
M  V30 2373 C 229.812 -3.38848 2.63591 0
M  V30 2374 C 229.045 -4.68591 2.55458 0
M  V30 2375 O 229.268 -5.47532 1.59891 0
M  V30 2376 O 228.202 -4.92614 3.45854 0
M  V30 2377 H 232.028 -1.77121 2.46702 0
M  V30 2378 H 229.613 -0.817092 1.25076 0
M  V30 2379 H 231.495 -3.9768 1.39387 0
M  V30 2380 H 230.17 -3.20059 0.484118 0
M  V30 2381 H 229.077 -2.57366 2.71502 0
M  V30 2382 H 230.41 -3.4004 3.55856 0
M  V30 2383 N 232.062 -1.29571 -0.897171 0
M  V30 2384 C 232.972 -1.16808 -2.03453 0
M  V30 2385 C 233.988 -0.0907471 -1.73763 0
M  V30 2386 O 235.164 -0.303312 -1.99103 0
M  V30 2387 C 232.229 -0.848264 -3.36163 0
M  V30 2388 C 231.29 -2.0097 -3.79354 0
M  V30 2389 C 230.523 -1.70505 -5.05731 0
M  V30 2390 O 230.746 -0.62718 -5.66941 0
M  V30 2391 O 229.68 -2.5538 -5.45036 0
M  V30 2392 H 233.506 -2.12325 -2.17144 0
M  V30 2393 H 231.091 -1.09047 -1.02123 0
M  V30 2394 H 232.973 -0.684581 -4.15802 0
M  V30 2395 H 231.648 0.0771071 -3.23608 0
M  V30 2396 H 230.555 -2.22863 -3.00471 0
M  V30 2397 H 231.888 -2.91636 -3.96496 0
M  V30 2398 N 233.54 1.10788 -1.12088 0
M  V30 2399 C 234.78 1.84297 -0.883974 0
M  V30 2400 C 235.144 1.83036 0.579797 0
M  V30 2401 O 236.345 2.52061 0.933734 0
M  V30 2402 C 234.616 3.27173 -1.43849 0
M  V30 2403 S 236.175 4.17853 -1.33957 0
M  V30 2404 H 232.993 0.635433 -0.318977 0
M  V30 2405 H 235.595 1.33341 -1.4297 0
M  V30 2406 H 234.299 3.25658 -2.49749 0
M  V30 2407 H 233.83 3.83198 -0.890096 0
M  V30 2408 H 235.845 4.95239 -0.308603 0
M  V30 2409 N 235.018 0.912232 1.28515 0
M  V30 2410 C 236.429 0.591352 1.77087 0
M  V30 2411 C 236.78 -0.8933 1.74684 0
M  V30 2412 O 235.905 -1.69876 1.34056 0
M  V30 2413 C 236.5 1.06668 3.2157 0
M  V30 2414 C 235.059 0.79675 3.67871 0
M  V30 2415 C 234.206 1.23427 2.48316 0
M  V30 2416 H 237.157 1.09365 1.15 0
M  V30 2417 H 237.178 0.407455 3.78312 0
M  V30 2418 H 236.69 2.14726 3.23287 0
M  V30 2419 H 234.791 -0.270679 3.71616 0
M  V30 2420 H 234.904 1.40343 4.58084 0
M  V30 2421 H 233.268 0.653036 2.46186 0
M  V30 2422 H 234.051 2.32316 2.52753 0
M  V30 2423 N 236.496 -1.42363 0.676048 0
M  V30 2424 C 237.459 -2.29199 0.00766941 0
M  V30 2425 C 238.459 -1.43389 -0.727745 0
M  V30 2426 O 239.649 -1.64764 -0.56556 0
M  V30 2427 C 236.781 -3.2591 -0.999785 0
M  V30 2428 H 237.974 -2.89794 0.771988 0
M  V30 2429 H 235.527 -1.50024 0.438468 0
M  V30 2430 H 236.262 -2.70256 -1.79255 0
M  V30 2431 H 236.047 -3.89202 -0.475829 0
M  V30 2432 H 237.537 -3.91028 -1.46583 0
M  V30 2433 N 237.974 -0.419461 -1.51915 0
M  V30 2434 C 238.937 0.389116 -2.25873 0
M  V30 2435 C 239.937 0.964924 -1.28631 0
M  V30 2436 O 241.127 0.842179 -1.52489 0
M  V30 2437 C 238.259 1.54874 -3.03689 0
M  V30 2438 H 239.452 -0.258799 -2.98781 0
M  V30 2439 H 237.005 -0.172209 -1.55348 0
M  V30 2440 H 237.74 2.23323 -2.35154 0
M  V30 2441 H 237.525 1.14223 -3.75094 0
M  V30 2442 H 239.015 2.12046 -3.59759 0
M  V30 2443 N 239.452 1.56882 -0.150215 0
M  V30 2444 C 240.698 1.96518 0.500834 0
M  V30 2445 C 241.031 1.03527 1.64304 0
M  V30 2446 O 240.306 0.0782751 1.94342 0
M  V30 2447 C 240.589 3.45822 1.00395 0
M  V30 2448 C 240.442 4.49591 -0.136983 0
M  V30 2449 C 241.761 3.97704 1.88467 0
M  V30 2450 H 238.88 0.714535 0.18058 0
M  V30 2451 H 241.522 1.88577 -0.232091 0
M  V30 2452 H 239.672 3.5272 1.62851 0
M  V30 2453 H 241.344 4.5477 -0.77343 0
M  V30 2454 H 239.587 4.26441 -0.795652 0
M  V30 2455 H 240.258 5.51402 0.256815 0
M  V30 2456 H 242.734 3.93304 1.35834 0
M  V30 2457 H 241.61 5.0263 2.20578 0
M  V30 2458 H 241.871 3.40252 2.82279 0
M  V30 2459 N 240.93 -0.123565 1.57115 0
M  V30 2460 C 241.893 -1.13583 1.99076 0
M  V30 2461 C 242.893 -1.34564 0.880296 0
M  V30 2462 O 244.083 -1.31158 1.14644 0
M  V30 2463 C 241.215 -2.49128 2.32698 0
M  V30 2464 H 242.408 -0.775287 2.89706 0
M  V30 2465 H 239.961 -0.36771 1.51913 0
M  V30 2466 H 240.696 -2.90111 1.44934 0
M  V30 2467 H 240.481 -2.35255 3.13684 0
M  V30 2468 H 241.971 -3.2199 2.65918 0
M  V30 2469 N 242.408 -1.52605 -0.393616 0
M  V30 2470 C 243.371 -1.76415 -1.46323 0
M  V30 2471 C 244.371 -0.634126 -1.47768 0
M  V30 2472 O 245.561 -0.902142 -1.4902 0
M  V30 2473 C 242.693 -1.8607 -2.85641 0
M  V30 2474 H 243.886 -2.71916 -1.26498 0
M  V30 2475 H 241.439 -1.43257 -0.625073 0
M  V30 2476 H 242.174 -0.925378 -3.10817 0
M  V30 2477 H 241.959 -2.68235 -2.85993 0
M  V30 2478 H 243.449 -2.06179 -3.63153 0
M  V30 2479 N 243.887 0.651787 -1.4349 0
M  V30 2480 C 245.133 1.41376 -1.45398 0
M  V30 2481 C 245.466 1.94041 -0.0784823 0
M  V30 2482 O 244.741 1.72379 0.900878 0
M  V30 2483 C 245.024 2.59414 -2.49752 0
M  V30 2484 C 244.877 2.12232 -3.96582 0
M  V30 2485 C 246.196 3.61626 -2.50827 0
M  V30 2486 H 243.315 0.512719 -0.529422 0
M  V30 2487 H 245.957 0.738796 -1.75048 0
M  V30 2488 H 244.107 3.16997 -2.246 0
M  V30 2489 H 245.779 1.59639 -4.32797 0
M  V30 2490 H 244.022 1.43592 -4.09346 0
M  V30 2491 H 244.693 2.9712 -4.65214 0
M  V30 2492 H 247.169 3.13805 -2.7325 0
M  V30 2493 H 246.045 4.41766 -3.25783 0
M  V30 2494 H 246.306 4.14314 -1.5426 0
M  V30 2495 N 245.365 1.30045 0.890287 0
M  V30 2496 C 246.611 1.18737 1.64406 0
M  V30 2497 C 246.944 -0.258525 1.92472 0
M  V30 2498 O 246.219 -1.18562 1.54186 0
M  V30 2499 C 246.502 2.01087 2.98724 0
M  V30 2500 C 246.355 3.53867 2.77665 0
M  V30 2501 C 247.674 1.84457 3.9958 0
M  V30 2502 H 244.793 0.432698 0.596608 0
M  V30 2503 H 247.435 1.5962 1.0306 0
M  V30 2504 H 245.585 1.66349 3.51084 0
M  V30 2505 H 247.257 3.98637 2.32133 0
M  V30 2506 H 245.5 3.78318 2.12269 0
M  V30 2507 H 246.171 4.06772 3.7315 0
M  V30 2508 H 248.647 2.14817 3.56361 0
M  V30 2509 H 247.523 2.44411 4.91482 0
M  V30 2510 H 247.784 0.802276 4.3476 0
M  V30 2511 N 246.843 -1.10192 1.12674 0
M  V30 2512 C 247.773 -2.18652 0.819362 0
M  V30 2513 C 248.754 -1.68698 -0.217915 0
M  V30 2514 O 249.939 -1.94041 -0.0785581 0
M  V30 2515 C 247.069 -3.46202 0.27594 0
M  V30 2516 C 246.023 -4.09444 1.24656 0
M  V30 2517 C 245.349 -5.31725 0.563258 0
M  V30 2518 C 246.649 -4.52863 2.60217 0
M  V30 2519 H 248.343 -2.44622 1.72628 0
M  V30 2520 H 245.889 -1.17571 0.831451 0
M  V30 2521 H 247.842 -4.21372 0.0486149 0
M  V30 2522 H 246.566 -3.1973 -0.666331 0
M  V30 2523 H 245.225 -3.36284 1.45974 0
M  V30 2524 H 244.873 -5.0153 -0.384235 0
M  V30 2525 H 244.573 -5.74991 1.21075 0
M  V30 2526 H 246.097 -6.09624 0.34503 0
M  V30 2527 H 247.511 -5.19294 2.42913 0
M  V30 2528 H 245.908 -5.06986 3.21068 0
M  V30 2529 H 246.978 -3.65656 3.18471 0
M  V30 2530 N 248.321 -0.919034 -1.28029 0
M  V30 2531 C 249.253 -0.368762 -2.26214 0
M  V30 2532 C 250.266 0.495716 -1.55069 0
M  V30 2533 O 251.455 0.30974 -1.75792 0
M  V30 2534 C 248.555 0.491049 -3.35324 0
M  V30 2535 C 247.728 -0.352133 -4.3598 0
M  V30 2536 C 246.787 0.443622 -5.24327 0
M  V30 2537 O 245.813 -0.14566 -5.69014 0
M  V30 2538 N 247.015 1.74545 -5.53637 0
M  V30 2539 H 249.78 -1.21273 -2.74068 0
M  V30 2540 H 247.341 -0.785541 -1.41566 0
M  V30 2541 H 249.333 1.03026 -3.91366 0
M  V30 2542 H 247.903 1.23574 -2.87138 0
M  V30 2543 H 247.123 -1.07269 -3.79324 0
M  V30 2544 H 248.411 -0.928883 -5.00249 0
M  V30 2545 H 247.809 2.24666 -5.19174 0
M  V30 2546 H 246.366 2.23138 -6.12416 0
M  V30 2547 N 249.799 1.42003 -0.683588 0
M  V30 2548 C 251.039 2.03282 -0.213513 0
M  V30 2549 C 251.403 1.52924 1.16097 0
M  V30 2550 O 252.604 2.06048 1.7262 0
M  V30 2551 C 250.875 3.56483 -0.255856 0
M  V30 2552 S 252.434 4.3857 0.14193 0
M  V30 2553 H 249.252 0.705659 -0.0869853 0
M  V30 2554 H 251.854 1.73619 -0.8987 0
M  V30 2555 H 250.558 3.90631 -1.25841 0
M  V30 2556 H 250.089 3.90831 0.448875 0
M  V30 2557 H 252.104 4.76828 1.37295 0
M  V30 2558 N 251.277 0.427512 1.51691 0
M  V30 2559 C 252.526 -0.143679 2.01188 0
M  V30 2560 C 252.839 -1.44642 1.31674 0
M  V30 2561 O 254.045 -2.09997 1.72086 0
M  V30 2562 C 252.501 -0.306602 3.58592 0
M  V30 2563 C 252.109 0.985125 4.37035 0
M  V30 2564 C 253.853 -0.832091 4.16265 0
M  V30 2565 C 251.76 0.788382 5.86122 0
M  V30 2566 H 250.69 -0.0574701 0.751807 0
M  V30 2567 H 253.341 0.555772 1.74881 0
M  V30 2568 H 251.723 -1.06882 3.81303 0
M  V30 2569 H 252.897 1.75492 4.26074 0
M  V30 2570 H 251.212 1.4384 3.90767 0
M  V30 2571 H 253.809 -0.995617 5.25349 0
M  V30 2572 H 254.152 -1.81186 3.74803 0
M  V30 2573 H 254.685 -0.128444 3.97593 0
M  V30 2574 H 251.424 1.74025 6.31978 0
M  V30 2575 H 250.944 0.0582143 5.99772 0
M  V30 2576 H 252.623 0.437722 6.45518 0
M  V30 2577 N 252.755 -1.56801 0.158532 0
M  V30 2578 C 253.718 -2.16138 -0.762705 0
M  V30 2579 C 254.718 -1.1061 -1.16713 0
M  V30 2580 O 255.908 -1.36191 -1.08617 0
M  V30 2581 C 253.04 -2.73386 -2.03649 0
M  V30 2582 H 254.233 -2.98886 -0.246354 0
M  V30 2583 H 251.786 -1.56035 -0.0909744 0
M  V30 2584 H 252.521 -1.94335 -2.59623 0
M  V30 2585 H 252.306 -3.50601 -1.75559 0
M  V30 2586 H 253.796 -3.19065 -2.6942 0
M  V30 2587 N 254.233 0.115231 -1.57178 0
M  V30 2588 C 255.481 0.820727 -1.84685 0
M  V30 2589 C 255.802 1.80237 -0.744279 0
M  V30 2590 O 255.072 1.94529 0.231375 0
M  V30 2591 H 253.652 0.306084 -0.681411 0
M  V30 2592 H 256.314 0.101656 -1.94635 0
M  V30 2593 H 255.41 1.36366 -2.80733 0
M  V30 2594 N 255.711 1.52812 0.385517 0
M  V30 2595 C 256.951 1.69716 1.13911 0
M  V30 2596 C 257.315 0.42962 1.87132 0
M  V30 2597 O 258.516 0.475071 2.64569 0
M  V30 2598 C 256.787 2.90021 2.0886 0
M  V30 2599 S 258.346 3.27531 2.92009 0
M  V30 2600 H 255.164 0.59739 0.385547 0
M  V30 2601 H 257.766 1.90868 0.423061 0
M  V30 2602 H 256.47 3.80493 1.53797 0
M  V30 2603 H 256.001 2.71213 2.84969 0
M  V30 2604 H 258.016 2.77989 4.11019 0
M  V30 2605 N 257.189 -0.644168 1.43834 0
M  V30 2606 C 258.435 -1.40603 1.46146 0
M  V30 2607 C 258.768 -1.93997 0.0887717 0
M  V30 2608 O 258.043 -1.72854 -0.891724 0
M  V30 2609 C 258.326 -2.58086 2.51124 0
M  V30 2610 C 258.179 -2.10126 3.97702 0
M  V30 2611 C 259.498 -3.60291 2.52742 0
M  V30 2612 H 256.617 -0.509905 0.532134 0
M  V30 2613 H 259.259 -0.729502 1.75437 0
M  V30 2614 H 257.409 -3.15801 2.26278 0
M  V30 2615 H 259.081 -1.57342 4.33637 0
M  V30 2616 H 257.324 -1.41419 4.10101 0
M  V30 2617 H 257.995 -2.94649 4.66783 0
M  V30 2618 H 260.471 -3.12352 2.7491 0
M  V30 2619 H 259.347 -4.40032 3.28121 0
M  V30 2620 H 259.608 -4.1349 1.56455 0
M  V30 2621 N 258.668 -1.30515 -0.883378 0
M  V30 2622 C 259.598 -1.19607 -2.00541 0
M  V30 2623 C 260.579 -0.086346 -1.69881 0
M  V30 2624 O 261.764 -0.268654 -1.92333 0
M  V30 2625 C 258.894 -0.888758 -3.35736 0
M  V30 2626 C 257.848 -1.95659 -3.8066 0
M  V30 2627 C 257.174 -1.50224 -5.13164 0
M  V30 2628 C 258.474 -3.36788 -3.99213 0
M  V30 2629 H 260.168 -2.13476 -2.09925 0
M  V30 2630 H 257.714 -1.02775 -1.00863 0
M  V30 2631 H 259.667 -0.799094 -4.13754 0
M  V30 2632 H 258.391 0.0856125 -3.26488 0
M  V30 2633 H 257.05 -2.03591 -3.04871 0
M  V30 2634 H 256.698 -0.516092 -5.00345 0
M  V30 2635 H 256.398 -2.2165 -5.44192 0
M  V30 2636 H 257.922 -1.42639 -5.93706 0
M  V30 2637 H 259.336 -3.31605 -4.67665 0
M  V30 2638 H 257.733 -4.06314 -4.41621 0
M  V30 2639 H 258.803 -3.78561 -3.03017 0
M  V30 2640 N 260.146 1.09593 -1.13257 0
M  V30 2641 C 261.423 1.78293 -0.804432 0
M  V30 2642 C 261.803 1.99004 0.70431 0
M  V30 2643 O 261.151 1.59007 1.641 0
M  V30 2644 C 261.361 3.10707 -1.5894 0
M  V30 2645 C 262.709 3.85443 -1.78099 0
M  V30 2646 O 263.733 3.20454 -1.55525 0
M  V30 2647 O 262.592 5.02108 -2.15753 0
M  V30 2648 H 259.686 0.773156 -0.293528 0
M  V30 2649 H 262.232 1.16164 -1.23709 0
M  V30 2650 H 261.004 2.91106 -2.61482 0
M  V30 2651 H 260.627 3.80558 -1.15157 0
M  V30 2652 N 261.624 0.925811 1.2754 0
M  V30 2653 C 262.587 0.428129 2.25166 0
M  V30 2654 C 263.587 -0.452261 1.54309 0
M  V30 2655 O 264.777 -0.253608 1.72344 0
M  V30 2656 C 261.909 -0.384749 3.38722 0
M  V30 2657 H 263.102 1.29066 2.70706 0
M  V30 2658 H 260.655 0.706323 1.3943 0
M  V30 2659 H 261.39 -1.26618 2.98561 0
M  V30 2660 H 261.175 0.246454 3.91325 0
M  V30 2661 H 262.665 -0.723389 4.11287 0
M  V30 2662 N 263.102 -1.41638 0.69111 0
M  V30 2663 C 264.349 -2.01299 0.220193 0
M  V30 2664 C 264.677 -1.54715 -1.17871 0
M  V30 2665 O 263.932 -0.747193 -1.80874 0
M  V30 2666 C 264.231 -3.56714 0.221277 0
M  V30 2667 C 263.897 -4.22792 1.56709 0
M  V30 2668 C 262.559 -4.40557 1.93554 0
M  V30 2669 C 264.911 -4.59883 2.45268 0
M  V30 2670 C 262.239 -4.92688 3.18552 0
M  V30 2671 C 264.591 -5.13403 3.69595 0
M  V30 2672 C 263.255 -5.29379 4.06589 0
M  V30 2673 H 262.525 -0.736606 0.0805743 0
M  V30 2674 H 265.172 -1.69598 0.889319 0
M  V30 2675 H 263.477 -3.8818 -0.531391 0
M  V30 2676 H 265.174 -4.00678 -0.160547 0
M  V30 2677 H 261.764 -4.09336 1.2705 0
M  V30 2678 H 265.948 -4.45817 2.18084 0
M  V30 2679 H 261.204 -5.03242 3.47214 0
M  V30 2680 H 265.378 -5.41084 4.38407 0
M  V30 2681 H 263.005 -5.69537 5.03519 0
M  V30 2682 N 264.58 -0.43555 -1.51462 0
M  V30 2683 C 265.826 0.131709 -2.02372 0
M  V30 2684 C 266.159 1.42516 -1.3192 0
M  V30 2685 O 265.434 1.89606 -0.433573 0
M  V30 2686 C 265.717 0.352301 -3.58373 0
M  V30 2687 C 265.57 -0.959676 -4.39443 0
M  V30 2688 C 266.889 1.12286 -4.25535 0
M  V30 2689 H 264.008 0.0463936 -0.735538 0
M  V30 2690 H 266.65 -0.574197 -1.81116 0
M  V30 2691 H 264.8 0.9536 -3.76615 0
M  V30 2692 H 266.472 -1.59482 -4.32855 0
M  V30 2693 H 264.715 -1.56468 -4.04599 0
M  V30 2694 H 265.386 -0.759394 -5.46752 0
M  V30 2695 H 267.862 0.613545 -4.11552 0
M  V30 2696 H 266.738 1.24598 -5.34571 0
M  V30 2697 H 266.999 2.15048 -3.86273 0
M  V30 2698 N 266.058 1.56714 -0.166846 0
M  V30 2699 C 267.304 1.97039 0.479962 0
M  V30 2700 C 267.637 1.05264 1.63197 0
M  V30 2701 O 266.912 0.0988833 1.94248 0
M  V30 2702 C 267.195 3.46867 0.967212 0
M  V30 2703 C 267.048 4.49421 -0.18466 0
M  V30 2704 C 268.367 3.9968 1.84238 0
M  V30 2705 H 265.486 0.71641 0.172992 0
M  V30 2706 H 268.128 1.8832 -0.252079 0
M  V30 2707 H 266.278 3.54428 1.59101 0
M  V30 2708 H 267.95 4.53924 -0.821621 0
M  V30 2709 H 266.193 4.25573 -0.840837 0
M  V30 2710 H 266.864 5.51644 0.198317 0
M  V30 2711 H 269.34 3.94723 1.31655 0
M  V30 2712 H 268.216 5.04941 2.15234 0
M  V30 2713 H 268.477 3.43226 2.78654 0
M  V30 2714 N 267.536 -0.106894 1.57237 0
M  V30 2715 C 268.784 -0.810921 1.85117 0
M  V30 2716 C 269.105 -1.7984 0.753827 0
M  V30 2717 O 268.375 -1.94649 -0.221056 0
M  V30 2718 H 266.955 -0.302466 0.683025 0
M  V30 2719 H 269.617 -0.0913324 1.94686 0
M  V30 2720 H 268.713 -1.34875 2.81452 0
M  V30 2721 N 269.014 -1.53014 -0.377408 0
M  V30 2722 C 269.977 -1.77957 -1.44444 0
M  V30 2723 C 270.977 -0.649763 -1.47087 0
M  V30 2724 O 272.167 -0.917897 -1.48055 0
M  V30 2725 C 269.299 -1.89089 -2.83651 0
M  V30 2726 H 270.492 -2.73243 -1.23606 0
M  V30 2727 H 268.045 -1.43912 -0.609844 0
M  V30 2728 H 268.78 -0.958293 -3.09818 0
M  V30 2729 H 268.565 -2.71254 -2.83132 0
M  V30 2730 H 270.055 -2.1002 -3.60945 0
M  V30 2731 N 270.492 0.636531 -1.44174 0
M  V30 2732 C 271.738 1.39826 -1.4689 0
M  V30 2733 C 272.071 1.93947 -0.0990585 0
M  V30 2734 O 271.346 1.73325 0.882544 0
M  V30 2735 C 271.629 2.56751 -2.5249 0
M  V30 2736 C 271.482 2.08014 -3.98811 0
M  V30 2737 C 272.801 3.58946 -2.54649 0
M  V30 2738 H 269.92 0.507075 -0.53483 0
M  V30 2739 H 272.562 0.720188 -1.75822 0
M  V30 2740 H 270.712 3.14597 -2.2795 0
M  V30 2741 H 272.384 1.5504 -4.34466 0
M  V30 2742 H 270.627 1.39242 -4.10846 0
M  V30 2743 H 271.298 2.92169 -4.68339 0
M  V30 2744 H 273.774 3.1089 -2.76563 0
M  V30 2745 H 272.65 4.38286 -3.3045 0
M  V30 2746 H 272.911 4.12655 -1.58646 0
M  V30 2747 N 271.97 1.30982 0.876444 0
M  V30 2748 C 272.903 1.12414 1.98591 0
M  V30 2749 C 273.881 0.0294078 1.62573 0
M  V30 2750 O 275.065 0.184598 1.87594 0
M  V30 2751 C 272.192 0.716276 3.3104 0
M  V30 2752 C 271.238 1.81311 3.86042 0
M  V30 2753 S 272.071 3.41727 4.1229 0
M  V30 2754 C 273.227 3.02863 5.47745 0
M  V30 2755 H 273.46 2.06338 2.14037 0
M  V30 2756 H 270.993 1.15393 1.02586 0
M  V30 2757 H 272.951 0.487697 4.07593 0
M  V30 2758 H 271.612 -0.203749 3.13438 0
M  V30 2759 H 270.805 1.48021 4.81774 0
M  V30 2760 H 270.407 1.99641 3.16259 0
M  V30 2761 H 272.699 2.51353 6.29148 0
M  V30 2762 H 273.642 3.97533 5.8598 0
M  V30 2763 H 274.05 2.40487 5.10711 0
M  V30 2764 N 273.449 -1.08991 1.13837 0
M  V30 2765 C 274.412 -2.13925 0.822715 0
M  V30 2766 C 275.412 -1.599 -0.1699 0
M  V30 2767 O 276.602 -1.74104 0.0577251 0
M  V30 2768 C 273.734 -3.40155 0.225318 0
M  V30 2769 H 274.927 -2.43358 1.75262 0
M  V30 2770 H 272.48 -1.24603 0.943594 0
M  V30 2771 H 273.215 -3.16352 -0.713594 0
M  V30 2772 H 273 -3.80661 0.940193 0
M  V30 2773 H 274.49 -4.17594 0.0214784 0
M  V30 2774 N 274.927 -0.932562 -1.27047 0
M  V30 2775 C 275.874 -0.434072 -2.26681 0
M  V30 2776 C 276.844 0.501639 -1.58344 0
M  V30 2777 O 278.029 0.419734 -1.86126 0
M  V30 2778 C 275.169 0.30261 -3.43771 0
M  V30 2779 C 274.282 -0.667774 -4.26808 0
M  V30 2780 C 273.417 0.0892393 -5.31125 0
M  V30 2781 C 272.456 -0.873532 -6.05835 0
M  V30 2782 N 271.593 -0.148832 -7.01942 0
M  V30 2783 H 276.433 -1.28868 -2.68695 0
M  V30 2784 H 273.97 -0.646713 -1.32121 0
M  V30 2785 H 275.928 0.746092 -4.10474 0
M  V30 2786 H 274.558 1.12142 -3.02695 0
M  V30 2787 H 273.61 -1.22978 -3.59973 0
M  V30 2788 H 274.922 -1.40337 -4.78651 0
M  V30 2789 H 274.076 0.592409 -6.03801 0
M  V30 2790 H 272.815 0.85777 -4.80097 0
M  V30 2791 H 271.82 -1.38791 -5.31994 0
M  V30 2792 H 273.045 -1.64193 -6.58952 0
M  V30 2793 H 270.991 0.601365 -6.53238 0
M  V30 2794 H 270.908 -0.82391 -7.51497 0
M  V30 2795 H 272.176 0.333527 -7.78786 0
M  V30 2796 N 276.405 1.4127 -0.698611 0
M  V30 2797 C 277.338 2.28195 0.0153898 0
M  V30 2798 C 278.316 1.42402 0.784883 0
M  V30 2799 O 279.5 1.71828 0.775067 0
M  V30 2800 C 276.627 3.22685 1.02918 0
M  V30 2801 C 275.673 4.25041 0.352501 0
M  V30 2802 S 276.506 5.27757 -0.907322 0
M  V30 2803 C 277.662 6.25812 0.104796 0
M  V30 2804 H 277.895 2.88403 -0.721858 0
M  V30 2805 H 275.428 1.46452 -0.488996 0
M  V30 2806 H 277.386 3.77655 1.60893 0
M  V30 2807 H 276.047 2.61566 1.73902 0
M  V30 2808 H 275.24 4.91437 1.11828 0
M  V30 2809 H 274.842 3.73682 -0.154254 0
M  V30 2810 H 277.134 6.70705 0.957103 0
M  V30 2811 H 278.077 7.06149 -0.525323 0
M  V30 2812 H 278.485 5.62615 0.460931 0
M  V30 2813 N 277.883 0.443576 1.51229 0
M  V30 2814 C 278.846 -0.353132 2.26463 0
M  V30 2815 C 279.846 -0.944338 1.3015 0
M  V30 2816 O 281.036 -0.817813 1.5381 0
M  V30 2817 C 278.168 -1.50023 3.06114 0
M  V30 2818 H 279.361 0.3063 2.98332 0
M  V30 2819 H 276.914 0.196902 1.55055 0
M  V30 2820 H 277.649 -2.19553 2.38677 0
M  V30 2821 H 277.434 -1.08241 3.76864 0
M  V30 2822 H 278.924 -2.06296 3.63087 0
M  V30 2823 N 279.361 -1.56624 0.175154 0
M  V30 2824 C 280.308 -2.18149 -0.753634 0
M  V30 2825 C 281.278 -1.12265 -1.22417 0
M  V30 2826 O 282.463 -1.40432 -1.29165 0
M  V30 2827 C 279.603 -2.82933 -1.97592 0
M  V30 2828 C 278.716 -4.03289 -1.5486 0
M  V30 2829 C 277.851 -4.55988 -2.72485 0
M  V30 2830 C 276.89 -5.68746 -2.26262 0
M  V30 2831 N 276.027 -6.15938 -3.36994 0
M  V30 2832 H 280.867 -2.9717 -0.222195 0
M  V30 2833 H 278.404 -1.46774 -0.0979422 0
M  V30 2834 H 280.362 -3.18653 -2.69288 0
M  V30 2835 H 278.992 -2.06509 -2.481 0
M  V30 2836 H 278.044 -3.73364 -0.728246 0
M  V30 2837 H 279.356 -4.849 -1.16933 0
M  V30 2838 H 278.51 -4.9391 -3.52332 0
M  V30 2839 H 277.249 -3.73443 -3.13674 0
M  V30 2840 H 276.254 -5.30372 -1.44863 0
M  V30 2841 H 277.479 -6.53095 -1.86127 0
M  V30 2842 H 275.425 -5.36321 -3.77751 0
M  V30 2843 H 275.342 -6.92548 -3.03172 0
M  V30 2844 H 276.61 -6.58511 -4.17114 0
M  V30 2845 N 280.839 0.0985539 -1.57292 0
M  V30 2846 C 282.25 0.653457 -1.74891 0
M  V30 2847 C 282.601 1.7929 -0.796838 0
M  V30 2848 O 281.726 2.16385 0.0254886 0
M  V30 2849 C 282.321 1.19216 -3.17133 0
M  V30 2850 C 280.88 1.69316 -3.36168 0
M  V30 2851 C 280.027 0.601294 -2.70702 0
M  V30 2852 H 282.978 -0.127497 -1.58187 0
M  V30 2853 H 282.999 2.06154 -3.19814 0
M  V30 2854 H 282.511 0.362635 -3.86402 0
M  V30 2855 H 280.612 2.5468 -2.71972 0
M  V30 2856 H 280.725 1.78853 -4.44464 0
M  V30 2857 H 279.089 1.0399 -2.32504 0
M  V30 2858 H 279.872 -0.217592 -3.4261 0
M  V30 2859 N 282.317 1.53212 0.369288 0
M  V30 2860 C 283.264 1.79388 1.45219 0
M  V30 2861 C 284.234 0.638059 1.53356 0
M  V30 2862 O 285.419 0.879852 1.69302 0
M  V30 2863 C 282.559 1.98623 2.82211 0
M  V30 2864 C 281.672 3.26337 2.8307 0
M  V30 2865 C 280.807 3.35779 4.11614 0
M  V30 2866 C 279.846 4.5754 4.06601 0
M  V30 2867 N 278.983 4.64155 5.26787 0
M  V30 2868 H 283.823 2.71794 1.22198 0
M  V30 2869 H 281.36 1.34642 0.592444 0
M  V30 2870 H 283.318 2.07761 3.61789 0
M  V30 2871 H 281.948 1.09558 3.03639 0
M  V30 2872 H 281 3.26171 1.95747 0
M  V30 2873 H 282.312 4.15988 2.75237 0
M  V30 2874 H 281.466 3.44208 4.99606 0
M  V30 2875 H 280.205 2.44137 4.22195 0
M  V30 2876 H 279.21 4.49215 3.16996 0
M  V30 2877 H 280.435 5.50519 3.97625 0
M  V30 2878 H 278.381 3.75413 5.3796 0
M  V30 2879 H 278.298 5.47706 5.21109 0
M  V30 2880 H 279.566 4.76863 6.16621 0
M  V30 2881 N 283.795 -0.628877 1.44509 0
M  V30 2882 C 284.742 -1.74074 1.51549 0
M  V30 2883 C 285.712 -1.62084 0.363021 0
M  V30 2884 O 286.897 -1.81975 0.573567 0
M  V30 2885 C 284.037 -3.12328 1.46784 0
M  V30 2886 C 283.15 -3.35277 2.72422 0
M  V30 2887 C 282.285 -4.63515 2.59475 0
M  V30 2888 C 281.324 -4.7965 3.80266 0
M  V30 2889 N 280.461 -5.99168 3.65981 0
M  V30 2890 H 285.301 -1.67392 2.46544 0
M  V30 2891 H 282.838 -0.816527 1.22357 0
M  V30 2892 H 284.796 -3.92286 1.42012 0
M  V30 2893 H 283.426 -3.18018 0.553544 0
M  V30 2894 H 282.478 -2.49242 2.87372 0
M  V30 2895 H 283.79 -3.43078 3.62076 0
M  V30 2896 H 282.944 -5.51638 2.52548 0
M  V30 2897 H 281.683 -4.58076 1.67384 0
M  V30 2898 H 280.688 -3.89957 3.87574 0
M  V30 2899 H 281.913 -4.86902 4.73395 0
M  V30 2900 H 279.859 -5.94814 2.76644 0
M  V30 2901 H 279.776 -6.08035 4.49254 0
M  V30 2902 H 281.044 -6.89846 3.6295 0
M  V30 2903 N 285.273 -1.31445 -0.869486 0
M  V30 2904 C 286.689 -1.10113 -1.15531 0
M  V30 2905 C 286.889 0.128087 -2.01092 0
M  V30 2906 O 285.945 0.817276 -2.38908 0
M  V30 2907 C 287.258 -2.37291 -1.84698 0
M  V30 2908 C 288.806 -2.42906 -1.97397 0
M  V30 2909 C 289.281 -3.69967 -2.69979 0
M  V30 2910 N 290.772 -3.70864 -2.77514 0
M  V30 2911 C 291.507 -4.65875 -3.34287 0
M  V30 2912 N 291.003 -5.71242 -3.91988 0
M  V30 2913 N 292.796 -4.53394 -3.3225 0
M  V30 2914 H 284.947 -2.1028 -0.299347 0
M  V30 2915 H 287.21 -0.927683 -0.195214 0
M  V30 2916 H 286.916 -3.27078 -1.29278 0
M  V30 2917 H 286.79 -2.47125 -2.84972 0
M  V30 2918 H 289.177 -1.53588 -2.51982 0
M  V30 2919 H 289.258 -2.37036 -0.961643 0
M  V30 2920 H 288.902 -4.59652 -2.16062 0
M  V30 2921 H 288.832 -3.73103 -3.7162 0
M  V30 2922 H 291.323 -2.94697 -2.36563 0
M  V30 2923 H 291.636 -6.39817 -4.33421 0
M  V30 2924 H 289.981 -5.75015 -3.90362 0
M  V30 2925 H 293.172 -3.70252 -2.8641 0
M  V30 2926 H 293.345 -5.27617 -3.76197 0
M  V30 2927 N 286.751 1.08385 -1.14413 0
M  V30 2928 C 287.699 2.17406 -0.826888 0
M  V30 2929 C 288.693 1.6827 0.195312 0
M  V30 2930 O 289.899 1.79927 0.0513892 0
M  V30 2931 H 286.274 0.70934 -0.249681 0
M  V30 2932 H 288.245 2.41388 -1.75426 0
M  V30 2933 C 286.994 3.46215 -0.320979 0
M  V30 2934 H 286.317 3.84401 -1.0989 0
M  V30 2935 H 287.757 4.23777 -0.137549 0
M  V30 2936 C 286.216 3.23067 0.955472 0
M  V30 2937 O 286.746 3.4668 2.02918 0
M  V30 2938 N 284.952 2.7661 0.890798 0
M  V30 2939 H 284.499 2.57594 0.0168815 0
M  V30 2940 H 284.457 2.61501 1.74542 0
M  V30 2941 N 288.23 0.939286 1.26551 0
M  V30 2942 C 289.14 0.453432 2.30176 0
M  V30 2943 C 290.156 -0.471649 1.67486 0
M  V30 2944 O 291.332 -0.35164 1.98306 0
M  V30 2945 C 288.397 -0.275326 3.45605 0
M  V30 2946 C 287.458 0.686084 4.23782 0
M  V30 2947 C 286.691 -0.00798994 5.33699 0
M  V30 2948 O 286.914 -1.22528 5.57085 0
M  V30 2949 O 285.848 0.669746 5.98162 0
M  V30 2950 H 289.674 1.31416 2.73795 0
M  V30 2951 H 287.259 0.705095 1.31715 0
M  V30 2952 H 289.141 -0.685911 4.1578 0
M  V30 2953 H 287.816 -1.11147 3.0402 0
M  V30 2954 H 286.723 1.14658 3.56096 0
M  V30 2955 H 288.056 1.48979 4.69112 0
M  V30 2956 N 289.708 -1.40897 0.706093 0
M  V30 2957 C 290.936 -2.05373 0.250887 0
M  V30 2958 C 291.351 -1.53172 -1.10381 0
M  V30 2959 O 290.708 -0.684305 -1.69185 0
M  V30 2960 C 290.759 -3.6088 0.211571 0
M  V30 2961 O 290.48 -4.11153 1.51276 0
M  V30 2962 C 291.981 -4.42517 -0.263346 0
M  V30 2963 H 289.201 -0.66115 0.114552 0
M  V30 2964 H 291.745 -1.80479 0.961635 0
M  V30 2965 H 289.9 -3.84777 -0.450073 0
M  V30 2966 H 290.314 -5.05279 1.40689 0
M  V30 2967 H 291.788 -5.51479 -0.239718 0
M  V30 2968 H 292.265 -4.19396 -1.30397 0
M  V30 2969 H 292.871 -4.23708 0.367677 0
M  V30 2970 N 291.186 -0.45159 -1.50991 0
M  V30 2971 C 292.116 0.342898 -2.30969 0
M  V30 2972 C 293.097 1.00815 -1.37005 0
M  V30 2973 O 294.282 1.00907 -1.65926 0
M  V30 2974 C 291.412 1.43637 -3.16205 0
M  V30 2975 C 290.366 0.893818 -4.18563 0
M  V30 2976 C 289.692 2.08411 -4.92411 0
M  V30 2977 C 290.992 -0.0815568 -5.22236 0
M  V30 2978 H 292.686 -0.324556 -2.97636 0
M  V30 2979 H 290.232 -0.157531 -1.43136 0
M  V30 2980 H 292.185 1.9995 -3.70942 0
M  V30 2981 H 290.909 2.13232 -2.47386 0
M  V30 2982 H 289.568 0.352798 -3.64898 0
M  V30 2983 H 289.216 2.76658 -4.20082 0
M  V30 2984 H 288.916 1.72741 -5.61636 0
M  V30 2985 H 290.44 2.65251 -5.49976 0
M  V30 2986 H 291.854 0.391742 -5.7196 0
M  V30 2987 H 290.251 -0.351551 -5.99069 0
M  V30 2988 H 291.321 -1.01374 -4.74185 0
M  V30 2989 N 292.664 1.56529 -0.183458 0
M  V30 2990 C 293.91 1.97537 0.459036 0
M  V30 2991 C 294.243 1.06989 1.62071 0
M  V30 2992 O 293.518 0.11948 1.94133 0
M  V30 2993 C 293.801 3.47874 0.930368 0
M  V30 2994 C 293.654 4.492 -0.232317 0
M  V30 2995 C 294.973 4.01612 1.79989 0
M  V30 2996 H 292.092 0.718204 0.165383 0
M  V30 2997 H 294.734 1.88042 -0.272038 0
M  V30 2998 H 292.884 3.56095 1.55333 0
M  V30 2999 H 294.556 4.53027 -0.86972 0
M  V30 3000 H 292.799 4.24657 -0.885928 0
M  V30 3001 H 293.47 5.51823 0.139796 0
M  V30 3002 H 295.946 3.96097 1.27461 0
M  V30 3003 H 294.822 5.07195 2.09867 0
M  V30 3004 H 295.083 3.46163 2.74998 0
M  V30 3005 N 294.142 -0.090211 1.57342 0
M  V30 3006 C 295.389 -0.792807 1.86335 0
M  V30 3007 C 295.717 -1.78494 0.772662 0
M  V30 3008 O 294.972 -1.94305 -0.233258 0
M  V30 3009 C 295.271 -1.55222 3.21933 0
M  V30 3010 C 294.937 -0.701765 4.45406 0
M  V30 3011 C 293.599 -0.467334 4.78925 0
M  V30 3012 C 295.951 -0.11086 5.21082 0
M  V30 3013 C 293.279 0.367785 5.85546 0
M  V30 3014 C 295.631 0.711609 6.28585 0
M  V30 3015 C 294.295 0.956086 6.60617 0
M  V30 3016 H 293.565 -0.290109 0.681849 0
M  V30 3017 H 296.212 -0.0541332 1.91423 0
M  V30 3018 H 294.517 -2.3626 3.12551 0
M  V30 3019 H 296.214 -2.10032 3.41595 0
M  V30 3020 H 292.804 -0.894598 4.1916 0
M  V30 3021 H 296.988 -0.279129 4.95514 0
M  V30 3022 H 292.244 0.566128 6.08773 0
M  V30 3023 H 296.418 1.17632 6.86393 0
M  V30 3024 H 294.045 1.60499 7.43064 0
M  V30 3025 N 295.62 -1.53406 -0.361157 0
M  V30 3026 C 296.845 -1.74024 -1.12829 0
M  V30 3027 C 297.27 -0.470069 -1.82132 0
M  V30 3028 O 296.628 0.57619 -1.719 0
M  V30 3029 C 296.676 -2.90903 -2.13091 0
M  V30 3030 O 295.78 -2.59821 -3.20261 0
M  V30 3031 H 295.121 -0.577804 -0.327168 0
M  V30 3032 H 297.651 -2.00307 -0.41693 0
M  V30 3033 H 297.661 -3.17194 -2.56616 0
M  V30 3034 H 296.336 -3.83034 -1.62042 0
M  V30 3035 H 294.913 -2.44362 -2.81677 0
M  V30 3036 N 297.098 0.621204 -1.44841 0
M  V30 3037 C 298.008 1.7612 -1.5498 0
M  V30 3038 C 299.024 1.68477 -0.434927 0
M  V30 3039 O 300.2 1.89076 -0.693693 0
M  V30 3040 C 297.265 3.1254 -1.50065 0
M  V30 3041 C 296.326 3.31741 -2.72482 0
M  V30 3042 C 295.559 4.61653 -2.67792 0
M  V30 3043 O 295.782 5.431 -1.74352 0
M  V30 3044 O 294.716 4.83271 -3.58794 0
M  V30 3045 H 298.542 1.70518 -2.51311 0
M  V30 3046 H 296.127 0.783643 -1.27198 0
M  V30 3047 H 298.009 3.93844 -1.49882 0
M  V30 3048 H 296.684 3.18663 -0.568806 0
M  V30 3049 H 295.591 2.50077 -2.7823 0
M  V30 3050 H 296.924 3.30486 -3.64746 0
M  V30 3051 N 298.576 1.31904 0.862503 0
M  V30 3052 C 299.524 1.20125 1.9918 0
M  V30 3053 C 300.518 0.107824 1.69056 0
M  V30 3054 O 301.724 0.270223 1.7796 0
M  V30 3055 H 298.099 0.372148 0.65346 0
M  V30 3056 H 300.07 2.15652 2.06244 0
M  V30 3057 C 298.819 0.933099 3.34946 0
M  V30 3058 H 298.142 1.76664 3.5865 0
M  V30 3059 H 299.582 0.890892 4.14535 0
M  V30 3060 C 298.041 -0.364172 3.34926 0
M  V30 3061 O 298.571 -1.37858 3.77304 0
M  V30 3062 N 296.777 -0.383362 2.8806 0
M  V30 3063 H 296.324 0.442651 2.53768 0
M  V30 3064 H 296.282 -1.25123 2.8843 0
M  V30 3065 N 300.054 -1.07777 1.14986 0
M  V30 3066 C 301.017 -2.13041 0.845358 0
M  V30 3067 C 302.017 -1.60071 -0.152931 0
M  V30 3068 O 303.207 -1.74033 0.0761879 0
M  V30 3069 C 300.339 -3.39896 0.261383 0
M  V30 3070 H 301.532 -2.41485 1.77834 0
M  V30 3071 H 299.085 -1.23595 0.956757 0
M  V30 3072 H 299.82 -3.17091 -0.68 0
M  V30 3073 H 299.605 -3.79642 0.980514 0
M  V30 3074 H 301.095 -4.17548 0.0657687 0
M  V30 3075 N 301.532 -0.945985 -1.26051 0
M  V30 3076 C 302.778 -0.597002 -1.93814 0
M  V30 3077 C 303.111 0.862484 -1.73997 0
M  V30 3078 O 302.386 1.61769 -1.07986 0
M  V30 3079 C 302.669 -0.945937 -3.47454 0
M  V30 3080 C 302.522 -2.46052 -3.76535 0
M  V30 3081 C 303.841 -0.464785 -4.37639 0
M  V30 3082 H 300.96 -0.218366 -0.703907 0
M  V30 3083 H 303.602 -1.18107 -1.48831 0
M  V30 3084 H 301.752 -0.448902 -3.85898 0
M  V30 3085 H 303.424 -3.03065 -3.47778 0
M  V30 3086 H 301.667 -2.90194 -3.22444 0
M  V30 3087 H 302.338 -2.65517 -4.83947 0
M  V30 3088 H 304.814 -0.891016 -4.06448 0
M  V30 3089 H 303.69 -0.737712 -5.4392 0
M  V30 3090 H 303.951 0.635274 -4.37512 0
M  V30 3091 N 303.011 1.40521 -0.713556 0
M  V30 3092 C 304.257 2.01221 -0.252564 0
M  V30 3093 C 304.59 1.56444 1.1506 0
M  V30 3094 O 303.865 0.783597 1.78017 0
M  V30 3095 C 304.148 3.58582 -0.330332 0
M  V30 3096 C 304.001 4.13437 -1.77173 0
M  V30 3097 C 305.32 4.39079 0.299641 0
M  V30 3098 H 302.439 0.731077 -0.0932471 0
M  V30 3099 H 305.081 1.67026 -0.905673 0
M  V30 3100 H 303.231 3.87844 0.225737 0
M  V30 3101 H 304.903 3.9498 -2.38303 0
M  V30 3102 H 303.146 3.67801 -2.3001 0
M  V30 3103 H 303.817 5.22597 -1.77755 0
M  V30 3104 H 306.293 4.15735 -0.174139 0
M  V30 3105 H 305.169 5.4848 0.214771 0
M  V30 3106 H 305.43 4.19915 1.38288 0
M  V30 3107 N 304.489 0.459591 1.5075 0
M  V30 3108 C 305.452 -0.329093 2.26825 0
M  V30 3109 C 306.452 -0.930481 1.31144 0
M  V30 3110 O 307.642 -0.801453 1.54669 0
M  V30 3111 C 304.774 -1.46768 3.07688 0
M  V30 3112 H 305.967 0.337924 2.9799 0
M  V30 3113 H 303.52 0.213336 1.54837 0
M  V30 3114 H 304.255 -2.17009 2.40993 0
M  V30 3115 H 304.04 -1.04238 3.77991 0
M  V30 3116 H 305.53 -2.02433 3.65254 0
M  V30 3117 N 305.967 -1.56429 0.191757 0
M  V30 3118 C 306.897 -2.21937 -0.725696 0
M  V30 3119 C 307.878 -1.1814 -1.2238 0
M  V30 3120 O 309.063 -1.46636 -1.27325 0
M  V30 3121 C 306.193 -2.87611 -1.94672 0
M  V30 3122 C 305.147 -3.97623 -1.58366 0
M  V30 3123 C 304.473 -4.50446 -2.88102 0
M  V30 3124 C 305.773 -5.16197 -0.796133 0
M  V30 3125 H 307.467 -2.98861 -0.179606 0
M  V30 3126 H 305.013 -1.43749 -0.0849464 0
M  V30 3127 H 306.966 -3.3212 -2.59373 0
M  V30 3128 H 305.69 -2.08087 -2.51728 0
M  V30 3129 H 304.349 -3.53801 -0.960247 0
M  V30 3130 H 303.997 -3.67688 -3.43241 0
M  V30 3131 H 303.697 -5.24675 -2.64556 0
M  V30 3132 H 305.221 -4.97654 -3.53798 0
M  V30 3133 H 306.635 -5.57271 -1.34618 0
M  V30 3134 H 305.032 -5.96471 -0.658928 0
M  V30 3135 H 306.102 -4.84473 0.203478 0
M  V30 3136 N 307.445 0.0818655 -1.57387 0
M  V30 3137 C 308.861 0.436412 -1.53517 0
M  V30 3138 C 309.061 1.79758 -0.910459 0
M  V30 3139 O 308.117 2.47324 -0.508636 0
M  V30 3140 C 309.43 0.386734 -2.98203 0
M  V30 3141 C 310.978 0.467644 -3.09487 0
M  V30 3142 C 311.453 0.447978 -4.55804 0
M  V30 3143 N 312.944 0.508348 -4.60402 0
M  V30 3144 C 313.679 0.515184 -5.71081 0
M  V30 3145 N 313.175 0.477435 -6.91153 0
M  V30 3146 N 314.968 0.560988 -5.59294 0
M  V30 3147 H 307.119 -0.809546 -1.96367 0
M  V30 3148 H 309.382 -0.302733 -0.898363 0
M  V30 3149 H 309.088 -0.546539 -3.47427 0
M  V30 3150 H 308.962 1.20075 -3.57578 0
M  V30 3151 H 311.349 1.39134 -2.60242 0
M  V30 3152 H 311.43 -0.374753 -2.5304 0
M  V30 3153 H 311.074 -0.471826 -5.05704 0
M  V30 3154 H 311.004 1.30777 -5.10103 0
M  V30 3155 H 313.495 0.54218 -3.7399 0
M  V30 3156 H 313.808 0.486299 -7.71268 0
M  V30 3157 H 312.153 0.444278 -6.93579 0
M  V30 3158 H 315.344 0.5881 -4.64391 0
M  V30 3159 H 315.517 0.562846 -6.45551 0
M  V30 3160 N 308.923 1.53595 0.353017 0
M  V30 3161 C 310.2 1.61002 1.11075 0
M  V30 3162 C 310.58 0.425356 2.0677 0
M  V30 3163 O 309.928 -0.583267 2.2093 0
M  V30 3164 C 310.138 2.96631 1.83877 0
M  V30 3165 C 311.486 3.51653 2.37961 0
M  V30 3166 O 312.51 2.98743 1.93987 0
M  V30 3167 O 311.369 4.44177 3.18386 0
M  V30 3168 H 308.463 0.650825 0.510251 0
M  V30 3169 H 311.009 1.6594 0.35527 0
M  V30 3170 H 309.781 3.74293 1.14108 0
M  V30 3171 H 309.404 2.95242 2.66304 0
M  V30 3172 N 310.401 -0.613514 1.45168 0
M  V30 3173 C 311.351 -1.71871 1.49815 0
M  V30 3174 C 312.335 -1.56774 0.362021 0
M  V30 3175 O 313.527 -1.66212 0.608493 0
M  V30 3176 C 310.656 -3.1061 1.46207 0
M  V30 3177 C 309.742 -3.31114 2.64999 0
M  V30 3178 N 310.133 -3.21904 3.90143 0
M  V30 3179 C 308.431 -3.61966 2.6057 0
M  V30 3180 C 309.132 -3.43577 4.69393 0
M  V30 3181 N 308.108 -3.67287 4.00751 0
M  V30 3182 H 311.91 -1.63235 2.444 0
M  V30 3183 H 309.424 -0.816577 1.40377 0
M  V30 3184 H 311.421 -3.8989 1.4762 0
M  V30 3185 H 310.081 -3.20399 0.52673 0
M  V30 3186 H 311.092 -3.00436 4.21852 0
M  V30 3187 H 307.769 -3.78629 1.75916 0
M  V30 3188 H 309.159 -3.41901 5.78406 0
M  V30 3189 N 311.879 -1.3236 -0.855495 0
M  V30 3190 C 313.295 -1.11332 -1.14356 0
M  V30 3191 C 313.495 0.106751 -2.01217 0
M  V30 3192 O 312.551 0.791891 -2.39761 0
M  V30 3193 C 313.864 -2.39237 -1.82171 0
M  V30 3194 C 315.412 -2.44986 -1.9481 0
M  V30 3195 C 315.887 -3.7281 -2.66039 0
M  V30 3196 N 317.378 -3.73787 -2.73565 0
M  V30 3197 C 318.113 -4.69394 -3.29327 0
M  V30 3198 N 317.609 -5.75367 -3.85907 0
M  V30 3199 N 319.402 -4.56893 -3.27423 0
M  V30 3200 H 311.553 -2.10586 -0.277027 0
M  V30 3201 H 313.816 -0.929701 -0.185364 0
M  V30 3202 H 313.522 -3.28431 -1.25802 0
M  V30 3203 H 313.396 -2.50134 -2.82335 0
M  V30 3204 H 315.783 -1.56252 -2.50338 0
M  V30 3205 H 315.864 -2.38043 -0.936448 0
M  V30 3206 H 315.508 -4.61918 -2.11174 0
M  V30 3207 H 315.438 -3.77024 -3.67642 0
M  V30 3208 H 317.929 -2.97189 -2.33424 0
M  V30 3209 H 318.242 -6.44378 -4.26611 0
M  V30 3210 H 316.587 -5.79123 -3.84242 0
M  V30 3211 H 319.778 -3.73269 -2.82467 0
M  V30 3212 H 319.951 -5.31577 -3.7058 0
M  V30 3213 N 313.357 1.07166 -1.15556 0
M  V30 3214 C 314.287 2.16403 -0.877046 0
M  V30 3215 C 315.268 1.69217 0.173111 0
M  V30 3216 O 316.453 1.94181 0.027084 0
M  V30 3217 C 313.583 3.45349 -0.367632 0
M  V30 3218 C 312.537 4.05995 -1.35468 0
M  V30 3219 C 311.863 5.30045 -0.704038 0
M  V30 3220 C 313.163 4.45804 -2.72132 0
M  V30 3221 H 314.857 2.39959 -1.79053 0
M  V30 3222 H 312.403 1.15325 -0.862331 0
M  V30 3223 H 314.356 4.21095 -0.160317 0
M  V30 3224 H 313.08 3.21385 0.581326 0
M  V30 3225 H 311.739 3.32296 -1.54839 0
M  V30 3226 H 311.387 5.02373 0.251128 0
M  V30 3227 H 311.087 5.71579 -1.36277 0
M  V30 3228 H 312.611 6.08495 -0.50654 0
M  V30 3229 H 314.025 5.12671 -2.56595 0
M  V30 3230 H 312.422 4.98296 -3.34397 0
M  V30 3231 H 313.492 3.57083 -3.28054 0
M  V30 3232 N 314.835 0.952656 1.25548 0
M  V30 3233 C 316.075 0.614013 1.9496 0
M  V30 3234 C 316.439 -0.833215 1.72978 0
M  V30 3235 O 317.64 -1.28135 2.36294 0
M  V30 3236 C 315.911 0.960562 3.4425 0
M  V30 3237 S 317.47 0.734195 4.32614 0
M  V30 3238 H 314.288 0.225754 0.674208 0
M  V30 3239 H 316.89 1.22641 1.52248 0
M  V30 3240 H 315.594 2.01103 3.57751 0
M  V30 3241 H 315.125 0.338336 3.91942 0
M  V30 3242 H 317.14 -0.395995 4.94617 0
M  V30 3243 N 316.313 -1.40141 0.720998 0
M  V30 3244 C 317.243 -2.33339 0.0867621 0
M  V30 3245 C 318.224 -1.53178 -0.739622 0
M  V30 3246 O 319.409 -1.81625 -0.687449 0
M  V30 3247 C 316.539 -3.37194 -0.831728 0
M  V30 3248 C 315.493 -4.27857 -0.110558 0
M  V30 3249 C 314.819 -5.22294 -1.14513 0
M  V30 3250 C 316.119 -5.11872 1.0385 0
M  V30 3251 H 317.813 -2.86626 0.865219 0
M  V30 3252 H 315.359 -1.37814 0.417516 0
M  V30 3253 H 317.312 -4.01335 -1.28485 0
M  V30 3254 H 316.036 -2.82314 -1.64214 0
M  V30 3255 H 314.695 -3.65176 0.322797 0
M  V30 3256 H 314.343 -4.63717 -1.94874 0
M  V30 3257 H 314.043 -5.83797 -0.667446 0
M  V30 3258 H 315.567 -5.89312 -1.59824 0
M  V30 3259 H 316.981 -5.69436 0.664482 0
M  V30 3260 H 315.378 -5.82445 1.4449 0
M  V30 3261 H 316.448 -4.4753 1.86668 0
M  V30 3262 N 317.792 -0.46758 -1.50504 0
M  V30 3263 C 318.725 0.374324 -2.25109 0
M  V30 3264 C 319.703 0.99921 -1.28275 0
M  V30 3265 O 320.887 1.03583 -1.57489 0
M  V30 3266 C 318.014 1.52419 -3.02467 0
M  V30 3267 C 317.06 1.01702 -4.14197 0
M  V30 3268 S 317.893 -0.0654477 -5.3546 0
M  V30 3269 C 319.049 1.08837 -6.16365 0
M  V30 3270 H 319.282 -0.258983 -2.9617 0
M  V30 3271 H 316.815 -0.252421 -1.52323 0
M  V30 3272 H 318.773 2.18322 -3.47628 0
M  V30 3273 H 317.434 2.129 -2.30938 0
M  V30 3274 H 316.627 1.87776 -4.67714 0
M  V30 3275 H 316.229 0.435757 -3.71453 0
M  V30 3276 H 318.521 2.00071 -6.47285 0
M  V30 3277 H 319.464 0.592538 -7.05616 0
M  V30 3278 H 319.872 1.34061 -5.4835 0
M  V30 3279 N 319.27 1.56325 -0.20005 0
M  V30 3280 C 320.516 1.98772 0.431408 0
M  V30 3281 C 320.871 1.0849 1.58895 0
M  V30 3282 O 320.164 0.130331 1.91156 0
M  V30 3283 C 320.358 3.4495 0.935103 0
M  V30 3284 C 320.187 4.49371 -0.172096 0
M  V30 3285 C 318.957 5.0134 -0.631377 0
M  V30 3286 C 321.155 5.04822 -0.982806 0
M  V30 3287 N 319.137 5.89433 -1.71588 0
M  V30 3288 C 320.508 5.89632 -1.91661 0
M  V30 3289 C 322.563 4.87242 -1.02467 0
M  V30 3290 C 321.266 6.58741 -2.88881 0
M  V30 3291 C 323.292 5.57094 -1.98494 0
M  V30 3292 C 322.654 6.41655 -2.90617 0
M  V30 3293 H 318.753 0.771922 0.125144 0
M  V30 3294 H 321.337 1.92266 -0.306883 0
M  V30 3295 H 319.508 3.51946 1.64282 0
M  V30 3296 H 321.24 3.74354 1.53758 0
M  V30 3297 H 317.995 4.73071 -0.223827 0
M  V30 3298 H 318.419 6.38182 -2.25948 0
M  V30 3299 H 323.061 4.21538 -0.326408 0
M  V30 3300 H 320.779 7.23641 -3.5968 0
M  V30 3301 H 324.365 5.45466 -2.0238 0
M  V30 3302 H 323.245 6.94755 -3.63711 0
M  V30 3303 N 320.748 -0.0735177 1.57428 0
M  V30 3304 C 322.164 -0.428264 1.53747 0
M  V30 3305 C 322.364 -1.79272 0.91998 0
M  V30 3306 O 321.42 -2.47051 0.521745 0
M  V30 3307 C 322.733 -0.370914 2.98404 0
M  V30 3308 C 324.281 -0.451224 3.0973 0
M  V30 3309 C 324.756 -0.4238 4.56035 0
M  V30 3310 N 326.247 -0.483925 4.60665 0
M  V30 3311 C 326.982 -0.484891 5.71346 0
M  V30 3312 N 326.478 -0.440775 6.91396 0
M  V30 3313 N 328.271 -0.531319 5.59583 0
M  V30 3314 H 320.422 0.819949 1.95935 0
M  V30 3315 H 322.685 0.307493 0.896745 0
M  V30 3316 H 322.391 0.564956 3.47133 0
M  V30 3317 H 322.265 -1.18176 3.5821 0
M  V30 3318 H 324.652 -1.37752 2.60976 0
M  V30 3319 H 324.733 0.388167 2.52838 0
M  V30 3320 H 324.377 0.498638 5.05446 0
M  V30 3321 H 324.307 -1.2807 5.10789 0
M  V30 3322 H 326.798 -0.522338 3.74273 0
M  V30 3323 H 327.111 -0.44539 7.71515 0
M  V30 3324 H 325.456 -0.40749 6.93804 0
M  V30 3325 H 328.647 -0.563464 4.64696 0
M  V30 3326 H 328.82 -0.528603 6.4584 0
M  V30 3327 N 322.226 -1.5378 -0.344866 0
M  V30 3328 C 323.472 -1.71216 -1.08687 0
M  V30 3329 C 323.805 -0.473281 -1.88345 0
M  V30 3330 O 323.08 0.52968 -1.87149 0
M  V30 3331 C 323.363 -2.97486 -2.02914 0
M  V30 3332 C 323.216 -4.31579 -1.26727 0
M  V30 3333 C 324.535 -3.19422 -3.0275 0
M  V30 3334 H 321.654 -0.62301 -0.393735 0
M  V30 3335 H 324.296 -1.8645 -0.365563 0
M  V30 3336 H 322.446 -2.84629 -2.64421 0
M  V30 3337 H 324.118 -4.56284 -0.67845 0
M  V30 3338 H 322.361 -4.30049 -0.569273 0
M  V30 3339 H 323.032 -5.16106 -1.95803 0
M  V30 3340 H 325.508 -3.316 -2.51357 0
M  V30 3341 H 324.384 -4.09169 -3.65885 0
M  V30 3342 H 324.645 -2.35656 -3.74057 0
M  V30 3343 N 323.704 0.605807 -1.45491 0
M  V30 3344 C 324.952 1.36207 -1.49305 0
M  V30 3345 C 325.273 1.94519 -0.136863 0
M  V30 3346 O 324.543 1.77261 0.833983 0
M  V30 3347 H 323.123 0.50565 -0.549843 0
M  V30 3348 H 325.785 0.711239 -1.81459 0
M  V30 3349 H 324.881 2.18058 -2.23287 0
M  V30 3350 N 325.182 1.32811 0.848464 0
M  V30 3351 C 326.13 1.22231 1.97895 0
M  V30 3352 C 327.124 0.125749 1.68933 0
M  V30 3353 O 328.33 0.289083 1.77663 0
M  V30 3354 H 324.705 0.379058 0.649476 0
M  V30 3355 H 326.676 2.17828 2.03945 0
M  V30 3356 C 325.425 0.968572 3.33937 0
M  V30 3357 H 324.748 1.80458 3.56756 0
M  V30 3358 H 326.188 0.934808 4.13567 0
M  V30 3359 C 324.647 -0.328628 3.35293 0
M  V30 3360 O 325.177 -1.33848 3.78745 0
M  V30 3361 N 323.383 -0.352788 2.88451 0
M  V30 3362 H 322.93 0.469541 2.53285 0
M  V30 3363 H 322.888 -1.22057 2.89741 0
M  V30 3364 N 326.66 -1.06551 1.16123 0
M  V30 3365 C 327.59 -2.15935 0.88851 0
M  V30 3366 C 328.571 -1.69306 -0.164135 0
M  V30 3367 O 329.756 -1.94193 -0.0167857 0
M  V30 3368 C 326.886 -3.45149 0.385942 0
M  V30 3369 C 325.84 -4.05271 1.3762 0
M  V30 3370 C 325.166 -5.29664 0.732137 0
M  V30 3371 C 326.466 -4.44355 2.74493 0
M  V30 3372 H 328.16 -2.39006 1.80323 0
M  V30 3373 H 325.706 -1.14866 0.868435 0
M  V30 3374 H 327.659 -4.21004 0.182647 0
M  V30 3375 H 326.383 -3.21689 -0.564274 0
M  V30 3376 H 325.042 -3.3147 1.56599 0
M  V30 3377 H 324.69 -5.02499 -0.224483 0
M  V30 3378 H 324.39 -5.70848 1.39307 0
M  V30 3379 H 325.914 -6.08218 0.538802 0
M  V30 3380 H 327.328 -5.11303 2.59311 0
M  V30 3381 H 325.725 -4.96515 3.37035 0
M  V30 3382 H 326.795 -3.55339 3.29943 0
M  V30 3383 N 328.138 -0.959301 -1.25041 0
M  V30 3384 C 329.554 -0.664474 -1.4511 0
M  V30 3385 C 329.754 0.776481 -1.85938 0
M  V30 3386 O 328.81 1.55128 -1.99227 0
M  V30 3387 C 330.123 -1.64139 -2.5195 0
M  V30 3388 C 331.671 -1.65309 -2.65786 0
M  V30 3389 C 332.146 -2.61777 -3.75815 0
M  V30 3390 N 333.637 -2.60169 -3.83231 0
M  V30 3391 C 334.372 -3.31489 -4.6787 0
M  V30 3392 N 333.868 -4.12298 -5.56761 0
M  V30 3393 N 335.661 -3.20354 -4.61876 0
M  V30 3394 H 327.812 -1.89043 -0.968332 0
M  V30 3395 H 330.075 -0.813408 -0.4869 0
M  V30 3396 H 329.781 -2.67086 -2.28819 0
M  V30 3397 H 329.655 -1.40756 -3.49954 0
M  V30 3398 H 332.042 -0.630778 -2.8828 0
M  V30 3399 H 332.123 -1.92753 -1.68167 0
M  V30 3400 H 331.767 -3.64137 -3.54071 0
M  V30 3401 H 331.697 -2.31616 -4.72929 0
M  V30 3402 H 334.188 -2.01507 -3.19692 0
M  V30 3403 H 334.501 -4.63625 -6.18281 0
M  V30 3404 H 332.846 -4.16395 -5.56454 0
M  V30 3405 H 336.037 -2.56692 -3.91442 0
M  V30 3406 H 336.21 -3.76201 -5.27614 0
M  V30 3407 N 329.616 1.39756 -0.72842 0
M  V30 3408 C 331.032 1.5442 -0.403308 0
M  V30 3409 C 331.232 1.69694 1.08656 0
M  V30 3410 O 330.288 1.69373 1.87267 0
M  V30 3411 C 331.601 2.76555 -1.18058 0
M  V30 3412 C 333.149 2.90384 -1.16815 0
M  V30 3413 C 333.624 4.15449 -1.92785 0
M  V30 3414 N 335.115 4.22475 -1.89918 0
M  V30 3415 C 335.85 5.1818 -2.45514 0
M  V30 3416 N 335.346 6.19714 -3.09719 0
M  V30 3417 N 337.139 5.1035 -2.35584 0
M  V30 3418 H 329.29 1.28089 -1.69431 0
M  V30 3419 H 331.553 0.620327 -0.716867 0
M  V30 3420 H 331.259 2.7159 -2.23455 0
M  V30 3421 H 331.133 3.69033 -0.780662 0
M  V30 3422 H 333.52 2.94846 -0.12234 0
M  V30 3423 H 333.601 1.98988 -1.6074 0
M  V30 3424 H 333.245 4.11749 -2.97364 0
M  V30 3425 H 333.175 5.05877 -1.46272 0
M  V30 3426 H 335.666 3.49743 -1.43138 0
M  V30 3427 H 335.979 6.8919 -3.49625 0
M  V30 3428 H 334.324 6.20121 -3.13807 0
M  V30 3429 H 337.515 4.2996 -1.85072 0
M  V30 3430 H 337.688 5.84761 -2.79211 0
M  V30 3431 N 331.094 0.475555 1.50254 0
M  V30 3432 C 332.319 -0.0777042 2.07254 0
M  V30 3433 C 332.744 -1.3235 1.3366 0
M  V30 3434 O 332.102 -1.77152 0.385597 0
M  V30 3435 C 332.15 -0.340169 3.58992 0
M  V30 3436 O 331.254 -1.41982 3.87188 0
M  V30 3437 H 330.595 0.0149556 0.663832 0
M  V30 3438 H 333.125 0.667878 1.93392 0
M  V30 3439 H 333.135 -0.579332 4.03866 0
M  V30 3440 H 331.81 0.570167 4.11973 0
M  V30 3441 H 330.387 -1.16762 3.54148 0
M  V30 3442 N 332.573 -1.56217 0.208337 0
M  V30 3443 C 333.523 -2.16324 -0.720281 0
M  V30 3444 C 334.507 -1.10775 -1.16695 0
M  V30 3445 O 335.699 -1.36801 -1.12314 0
M  V30 3446 C 332.828 -2.83644 -1.93393 0
M  V30 3447 C 331.914 -3.96401 -1.50755 0
M  V30 3448 N 332.305 -4.99546 -0.792937 0
M  V30 3449 C 330.603 -4.08246 -1.79585 0
M  V30 3450 C 331.304 -5.78828 -0.577364 0
M  V30 3451 N 330.28 -5.31723 -1.1301 0
M  V30 3452 H 334.082 -2.93432 -0.165725 0
M  V30 3453 H 331.596 -1.62397 0.00906463 0
M  V30 3454 H 333.593 -3.25107 -2.60981 0
M  V30 3455 H 332.253 -2.08027 -2.49308 0
M  V30 3456 H 333.264 -5.15967 -0.447004 0
M  V30 3457 H 329.941 -3.4377 -2.36915 0
M  V30 3458 H 331.331 -6.71899 -0.00952956 0
M  V30 3459 N 334.051 0.0651679 -1.57465 0
M  V30 3460 C 334.981 1.07693 -2.07182 0
M  V30 3461 C 335.962 1.39962 -0.966673 0
M  V30 3462 O 337.147 1.49475 -1.2398 0
M  V30 3463 C 334.277 2.3885 -2.52127 0
M  V30 3464 C 333.231 2.20917 -3.66579 0
M  V30 3465 C 332.557 3.57515 -3.97601 0
M  V30 3466 C 333.857 1.62493 -4.9638 0
M  V30 3467 H 335.551 0.663199 -2.91962 0
M  V30 3468 H 333.097 0.317569 -1.40455 0
M  V30 3469 H 335.05 3.09928 -2.85522 0
M  V30 3470 H 333.774 2.82215 -1.64384 0
M  V30 3471 H 332.433 1.52279 -3.33477 0
M  V30 3472 H 332.081 3.98463 -3.06979 0
M  V30 3473 H 331.781 3.46353 -4.74672 0
M  V30 3474 H 333.305 4.30013 -4.33499 0
M  V30 3475 H 334.719 2.23445 -5.27963 0
M  V30 3476 H 333.116 1.62009 -5.77818 0
M  V30 3477 H 334.186 0.587041 -4.81333 0
M  V30 3478 N 335.529 1.53961 0.336706 0
M  V30 3479 C 336.775 1.7179 1.07777 0
M  V30 3480 C 337.108 0.483263 1.88091 0
M  V30 3481 O 336.383 -0.519747 1.87427 0
M  V30 3482 C 336.666 2.98558 2.01334 0
M  V30 3483 C 336.519 4.32245 1.24437 0
M  V30 3484 C 337.838 3.21023 3.01052 0
M  V30 3485 H 334.957 0.625089 0.390426 0
M  V30 3486 H 337.599 1.86641 0.35567 0
M  V30 3487 H 335.749 2.86028 2.62908 0
M  V30 3488 H 337.421 4.56637 0.654243 0
M  V30 3489 H 335.664 4.30344 0.546458 0
M  V30 3490 H 336.335 5.17137 1.93063 0
M  V30 3491 H 338.811 3.32929 2.49595 0
M  V30 3492 H 337.687 4.11104 3.6371 0
M  V30 3493 H 337.948 2.37637 3.72802 0
M  V30 3494 N 337.007 -0.598083 1.45811 0
M  V30 3495 C 337.917 -1.73632 1.57763 0
M  V30 3496 C 338.933 -1.67763 0.461676 0
M  V30 3497 O 340.109 -1.87949 0.723685 0
M  V30 3498 C 337.174 -3.10114 1.55018 0
M  V30 3499 C 336.235 -3.27364 2.77726 0
M  V30 3500 C 335.468 -4.57334 2.75102 0
M  V30 3501 O 335.691 -5.40258 1.8297 0
M  V30 3502 O 334.625 -4.77502 3.66437 0
M  V30 3503 H 338.451 -1.66498 2.53992 0
M  V30 3504 H 336.036 -0.763308 1.28429 0
M  V30 3505 H 337.918 -3.9141 1.56129 0
M  V30 3506 H 336.593 -3.17718 0.619431 0
M  V30 3507 H 335.5 -2.45619 2.82174 0
M  V30 3508 H 336.833 -3.24641 3.69958 0
M  V30 3509 N 338.485 -1.33259 -0.841409 0
M  V30 3510 C 339.448 -1.23221 -1.9326 0
M  V30 3511 C 340.448 -0.151895 -1.60081 0
M  V30 3512 O 341.638 -0.403246 -1.69468 0
M  V30 3513 C 338.77 -0.898123 -3.28856 0
M  V30 3514 H 339.963 -2.2021 -2.03587 0
M  V30 3515 H 337.516 -1.17281 -1.03319 0
M  V30 3516 H 338.251 0.0693841 -3.24226 0
M  V30 3517 H 338.036 -1.67934 -3.54317 0
M  V30 3518 H 339.526 -0.852563 -4.08805 0
M  V30 3519 N 339.963 1.05934 -1.16686 0
M  V30 3520 C 340.913 2.11764 -0.844978 0
M  V30 3521 C 341.897 1.59922 0.177178 0
M  V30 3522 O 343.089 1.76983 -0.0241768 0
M  V30 3523 C 340.218 3.41493 -0.351812 0
M  V30 3524 C 339.304 4.00152 -1.40496 0
M  V30 3525 N 339.695 4.32874 -2.61636 0
M  V30 3526 C 337.993 4.278 -1.26106 0
M  V30 3527 C 338.694 4.79552 -3.29249 0
M  V30 3528 N 337.67 4.79211 -2.56628 0
M  V30 3529 H 341.472 2.34916 -1.76612 0
M  V30 3530 H 338.986 1.23511 -1.05446 0
M  V30 3531 H 340.983 4.16773 -0.102796 0
M  V30 3532 H 339.643 3.19778 0.56322 0
M  V30 3533 H 340.654 4.23109 -2.98663 0
M  V30 3534 H 337.331 4.15511 -0.407081 0
M  V30 3535 H 338.721 5.14045 -4.32675 0
M  V30 3536 N 341.441 0.965919 1.2453 0
M  V30 3537 C 342.687 0.62776 1.92839 0
M  V30 3538 C 343.02 -0.834694 1.75347 0
M  V30 3539 O 342.295 -1.60031 1.10546 0
M  V30 3540 C 342.578 1.00109 3.45905 0
M  V30 3541 C 342.431 2.52011 3.72573 0
M  V30 3542 C 343.75 0.53435 4.36844 0
M  V30 3543 H 340.869 0.229537 0.700344 0
M  V30 3544 H 343.511 1.2046 1.46933 0
M  V30 3545 H 341.661 0.510238 3.85135 0
M  V30 3546 H 343.333 3.08559 3.42912 0
M  V30 3547 H 341.576 2.95287 3.17786 0
M  V30 3548 H 342.247 2.73183 4.79661 0
M  V30 3549 H 344.723 0.955565 4.04979 0
M  V30 3550 H 343.599 0.824152 5.42678 0
M  V30 3551 H 343.86 -0.565589 4.38467 0
M  V30 3552 N 342.919 -1.39368 0.735821 0
M  V30 3553 C 344.335 -1.54204 0.411492 0
M  V30 3554 C 344.535 -1.70268 -1.07755 0
M  V30 3555 O 343.591 -1.70364 -1.86366 0
M  V30 3556 C 344.904 -2.75925 1.19523 0
M  V30 3557 C 346.452 -2.89761 1.18354 0
M  V30 3558 C 346.927 -4.14421 1.94986 0
M  V30 3559 N 348.418 -4.21462 1.92156 0
M  V30 3560 C 349.153 -5.16871 2.48258 0
M  V30 3561 N 348.649 -6.18063 3.13001 0
M  V30 3562 N 350.442 -5.09093 2.38287 0
M  V30 3563 H 342.593 -1.27189 1.70108 0
M  V30 3564 H 344.856 -0.616517 0.720147 0
M  V30 3565 H 344.562 -2.70401 2.24892 0
M  V30 3566 H 344.436 -3.68614 0.800222 0
M  V30 3567 H 346.823 -2.94777 0.137975 0
M  V30 3568 H 346.904 -1.98133 1.61793 0
M  V30 3569 H 346.548 -4.10166 2.99543 0
M  V30 3570 H 346.478 -5.05095 1.48953 0
M  V30 3571 H 348.969 -3.48979 1.44991 0
M  V30 3572 H 349.282 -6.87326 3.53275 0
M  V30 3573 H 347.627 -6.18448 3.17091 0
M  V30 3574 H 350.818 -4.28973 1.8735 0
M  V30 3575 H 350.991 -5.83272 2.82308 0
M  V30 3576 N 344.397 -0.483516 -1.5 0
M  V30 3577 C 345.36 0.292965 -2.2732 0
M  V30 3578 C 346.36 0.909499 -1.32608 0
M  V30 3579 O 347.55 0.776745 -1.55924 0
M  V30 3580 C 344.682 1.41854 -3.09984 0
M  V30 3581 H 345.875 -0.385289 -2.97415 0
M  V30 3582 H 343.428 -0.237942 -1.54478 0
M  V30 3583 H 344.163 2.13148 -2.44414 0
M  V30 3584 H 343.948 0.982114 -3.79601 0
M  V30 3585 H 345.438 1.96597 -3.68429 0
M  V30 3586 N 345.875 1.56104 -0.216619 0
M  V30 3587 C 346.807 2.17339 0.72776 0
M  V30 3588 C 347.82 1.14109 1.16116 0
M  V30 3589 O 349.009 1.4111 1.09317 0
M  V30 3590 C 346.109 2.73818 1.99693 0
M  V30 3591 C 345.282 4.02168 1.71988 0
M  V30 3592 C 344.341 4.43259 2.83562 0
M  V30 3593 O 343.367 5.10257 2.52244 0
M  V30 3594 N 344.569 4.08535 4.12407 0
M  V30 3595 H 347.334 2.99005 0.203983 0
M  V30 3596 H 344.895 1.61861 -0.0354289 0
M  V30 3597 H 346.887 2.9828 2.73516 0
M  V30 3598 H 345.457 1.96483 2.43132 0
M  V30 3599 H 344.677 3.85612 0.818337 0
M  V30 3600 H 345.965 4.85907 1.50903 0
M  V30 3601 H 345.363 3.54687 4.40696 0
M  V30 3602 H 343.92 4.37901 4.8279 0
M  V30 3603 N 347.353 -0.0568162 1.57498 0
M  V30 3604 C 348.283 -1.06593 2.0775 0
M  V30 3605 C 349.264 -1.39448 0.974082 0
M  V30 3606 O 350.449 -1.48815 1.24771 0
M  V30 3607 C 347.579 -2.37509 2.5339 0
M  V30 3608 C 346.533 -2.1897 3.67745 0
M  V30 3609 C 345.859 -3.55402 3.99492 0
M  V30 3610 C 347.159 -1.59859 4.97235 0
M  V30 3611 H 348.853 -0.647706 2.9231 0
M  V30 3612 H 346.399 -0.310116 1.40621 0
M  V30 3613 H 348.352 -3.08409 2.87162 0
M  V30 3614 H 347.076 -2.8134 1.65878 0
M  V30 3615 H 345.735 -1.50508 3.3428 0
M  V30 3616 H 345.383 -3.9683 3.09088 0
M  V30 3617 H 345.083 -3.43831 4.76502 0
M  V30 3618 H 346.607 -4.27708 4.35773 0
M  V30 3619 H 348.021 -2.20642 5.29141 0
M  V30 3620 H 346.418 -1.58942 5.78669 0
M  V30 3621 H 347.488 -0.561506 4.81638 0
M  V30 3622 N 348.832 -1.54138 -0.328536 0
M  V30 3623 C 349.762 -1.86167 -1.40939 0
M  V30 3624 C 350.743 -0.718044 -1.54202 0
M  V30 3625 O 351.928 -0.971328 -1.68163 0
M  V30 3626 C 349.058 -2.08461 -2.77779 0
M  V30 3627 C 348.012 -3.24299 -2.7931 0
M  V30 3628 C 347.338 -3.31955 -4.19178 0
M  V30 3629 C 348.638 -4.62065 -2.43502 0
M  V30 3630 H 350.332 -2.76689 -1.14383 0
M  V30 3631 H 347.878 -1.33132 -0.548806 0
M  V30 3632 H 349.831 -2.29453 -3.53454 0
M  V30 3633 H 348.555 -1.14684 -3.05802 0
M  V30 3634 H 347.214 -3.03187 -2.0609 0
M  V30 3635 H 346.862 -2.35745 -4.44335 0
M  V30 3636 H 346.562 -4.09805 -4.2111 0
M  V30 3637 H 348.086 -3.55175 -4.96672 0
M  V30 3638 H 349.5 -4.8297 -3.08889 0
M  V30 3639 H 347.897 -5.42429 -2.56693 0
M  V30 3640 H 348.967 -4.64652 -1.38659 0
M  V30 3641 N 350.31 0.590341 -1.46126 0
M  V30 3642 C 351.242 1.71427 -1.52136 0
M  V30 3643 C 352.255 1.57542 -0.41042 0
M  V30 3644 O 353.444 1.65106 -0.678389 0
M  V30 3645 C 350.544 3.09605 -1.37834 0
M  V30 3646 C 349.717 3.49566 -2.62912 0
M  V30 3647 C 348.776 4.66773 -2.42918 0
M  V30 3648 O 347.802 4.73019 -3.1661 0
M  V30 3649 N 349.004 5.61161 -1.4859 0
M  V30 3650 H 351.769 1.66728 -2.49042 0
M  V30 3651 H 349.33 0.776113 -1.42085 0
M  V30 3652 H 351.322 3.85796 -1.22243 0
M  V30 3653 H 349.892 3.08714 -0.491393 0
M  V30 3654 H 349.112 2.63158 -2.93499 0
M  V30 3655 H 350.4 3.73028 -3.46017 0
M  V30 3656 H 349.798 5.58844 -0.87808 0
M  V30 3657 H 348.355 6.36814 -1.38965 0
M  V30 3658 N 351.788 1.33704 0.83433 0
M  V30 3659 C 353.199 1.22813 1.4062 0
M  V30 3660 C 353.55 -0.151107 1.95617 0
M  V30 3661 O 352.675 -1.05092 1.89168 0
M  V30 3662 C 353.27 2.22355 2.55624 0
M  V30 3663 C 351.829 2.1529 3.08751 0
M  V30 3664 C 350.976 2.09589 1.8157 0
M  V30 3665 H 353.927 1.45236 0.639702 0
M  V30 3666 H 353.948 1.83391 3.33389 0
M  V30 3667 H 353.46 3.22728 2.15566 0
M  V30 3668 H 351.561 1.18235 3.53343 0
M  V30 3669 H 351.674 3.06038 3.68616 0
M  V30 3670 H 350.038 1.55134 2.02004 0
M  V30 3671 H 350.821 3.11777 1.43701 0
M  V30 3672 N 353.266 -1.05314 1.17247 0
M  V30 3673 C 354.682 -1.30452 0.919473 0
M  V30 3674 C 354.882 -1.9703 -0.42209 0
M  V30 3675 O 353.938 -2.24311 -1.15935 0
M  V30 3676 C 355.251 -2.17551 2.07586 0
M  V30 3677 C 356.799 -2.30937 2.11275 0
M  V30 3678 C 357.274 -3.21396 3.26296 0
M  V30 3679 N 358.765 -3.28981 3.26076 0
M  V30 3680 C 359.5 -3.99095 4.11716 0
M  V30 3681 N 358.996 -4.71648 5.07465 0
M  V30 3682 N 360.789 -3.95247 3.9967 0
M  V30 3683 H 352.94 -0.604988 2.03602 0
M  V30 3684 H 355.203 -0.329368 0.888944 0
M  V30 3685 H 354.909 -1.75921 3.0454 0
M  V30 3686 H 354.783 -3.18182 2.02584 0
M  V30 3687 H 357.17 -2.71809 1.14907 0
M  V30 3688 H 357.251 -1.2994 2.20339 0
M  V30 3689 H 356.895 -2.81238 4.22927 0
M  V30 3690 H 356.825 -4.22395 3.14467 0
M  V30 3691 H 359.316 -2.77286 2.5675 0
M  V30 3692 H 359.629 -5.22705 5.6921 0
M  V30 3693 H 357.974 -4.70594 5.11435 0
M  V30 3694 H 361.165 -3.37691 3.24164 0
M  V30 3695 H 361.338 -4.4962 4.66632 0
M  V30 3696 N 354.744 -0.972509 -1.24016 0
M  V30 3697 C 355.99 -0.637978 -1.92504 0
M  V30 3698 C 356.323 0.825383 -1.75787 0
M  V30 3699 O 355.598 1.59442 -1.11393 0
M  V30 3700 C 355.881 -1.01942 -3.45369 0
M  V30 3701 C 355.734 -2.53983 -3.71231 0
M  V30 3702 C 357.053 -0.55751 -4.36555 0
M  V30 3703 H 354.172 -0.233248 -0.699117 0
M  V30 3704 H 356.814 -1.21238 -1.46292 0
M  V30 3705 H 354.964 -0.530656 -3.84859 0
M  V30 3706 H 356.636 -3.10374 -3.41271 0
M  V30 3707 H 354.879 -2.96968 -3.16216 0
M  V30 3708 H 355.55 -2.75723 -4.78206 0
M  V30 3709 H 358.026 -0.977029 -4.04467 0
M  V30 3710 H 356.902 -0.85292 -5.42233 0
M  V30 3711 H 357.163 0.542328 -4.38761 0
M  V30 3712 N 356.222 1.38976 -0.743202 0
M  V30 3713 C 357.45 2.04636 -0.30525 0
M  V30 3714 C 357.865 1.56044 1.06281 0
M  V30 3715 O 357.222 0.728921 1.67311 0
M  V30 3716 C 357.273 3.60193 -0.307177 0
M  V30 3717 O 356.994 4.06998 -1.62124 0
M  V30 3718 C 358.495 4.4306 0.145928 0
M  V30 3719 H 355.715 0.65788 -0.132041 0
M  V30 3720 H 358.259 1.77866 -1.00915 0
M  V30 3721 H 356.414 3.85835 0.347898 0
M  V30 3722 H 356.828 5.01371 -1.54036 0
M  V30 3723 H 358.302 5.51921 0.0934183 0
M  V30 3724 H 358.779 4.22706 1.19231 0
M  V30 3725 H 359.385 4.22584 -0.479886 0
M  V30 3726 N 357.7 0.491464 1.49741 0
M  V30 3727 C 359.111 0.0413169 1.86654 0
M  V30 3728 C 359.462 -1.36985 1.40462 0
M  V30 3729 O 358.587 -2.01917 0.778354 0
M  V30 3730 C 359.182 0.0682023 3.38731 0
M  V30 3731 C 357.741 -0.32656 3.74981 0
M  V30 3732 C 356.888 0.444888 2.73708 0
M  V30 3733 H 359.839 0.704733 1.42194 0
M  V30 3734 H 359.86 -0.729322 3.73445 0
M  V30 3735 H 359.372 1.09539 3.72321 0
M  V30 3736 H 357.473 -1.35734 3.46997 0
M  V30 3737 H 357.586 -0.013741 4.79098 0
M  V30 3738 H 355.95 -0.104062 2.54487 0
M  V30 3739 H 356.733 1.47197 3.10142 0
M  V30 3740 N 359.178 -1.55987 0.224894 0
M  V30 3741 C 360.088 -2.24066 -0.69511 0
M  V30 3742 C 361.104 -1.24939 -1.21104 0
M  V30 3743 O 362.28 -1.5776 -1.25195 0
M  V30 3744 C 359.345 -2.90983 -1.88493 0
M  V30 3745 C 358.406 -4.05462 -1.41064 0
M  V30 3746 C 357.639 -4.69179 -2.54375 0
M  V30 3747 O 357.862 -4.31895 -3.72589 0
M  V30 3748 O 356.796 -5.58108 -2.25386 0
M  V30 3749 H 360.622 -3.03353 -0.145149 0
M  V30 3750 H 358.207 -1.49399 -0.00569476 0
M  V30 3751 H 360.089 -3.33209 -2.57972 0
M  V30 3752 H 358.764 -2.14653 -2.42293 0
M  V30 3753 H 357.671 -3.67798 -0.683774 0
M  V30 3754 H 359.004 -4.83545 -0.918985 0
M  V30 3755 N 360.656 0.0484629 -1.57525 0
M  V30 3756 C 361.904 0.741657 -1.88 0
M  V30 3757 C 362.225 1.76918 -0.820054 0
M  V30 3758 O 361.495 1.95335 0.148661 0
M  V30 3759 H 360.075 0.276908 -0.69378 0
M  V30 3760 H 362.737 0.019013 -1.94891 0
M  V30 3761 H 361.833 1.24336 -2.86264 0
M  V30 3762 N 362.134 1.5431 0.320358 0
M  V30 3763 C 363.044 1.86946 1.41734 0
M  V30 3764 C 364.06 0.761689 1.56443 0
M  V30 3765 O 365.236 1.05629 1.71477 0
M  V30 3766 C 362.301 2.09293 2.76401 0
M  V30 3767 C 361.362 3.33082 2.70841 0
M  V30 3768 C 360.595 3.54353 3.99086 0
M  V30 3769 O 360.818 2.79002 4.97508 0
M  V30 3770 O 359.752 4.47838 4.0215 0
M  V30 3771 H 363.578 2.80232 1.17062 0
M  V30 3772 H 361.163 1.40255 0.514673 0
M  V30 3773 H 363.045 2.25303 3.56113 0
M  V30 3774 H 361.72 1.19194 3.00956 0
M  V30 3775 H 360.627 3.22454 1.89668 0
M  V30 3776 H 361.96 4.23249 2.5124 0
M  V30 3777 N 363.613 -0.582584 1.46437 0
M  V30 3778 C 364.843 -1.36484 1.55099 0
M  V30 3779 C 365.251 -1.88233 0.191056 0
M  V30 3780 O 364.594 -1.6429 -0.821858 0
M  V30 3781 C 364.656 -2.588 2.49525 0
M  V30 3782 C 364.32 -2.28517 3.95764 0
M  V30 3783 C 365.317 -1.87346 4.84972 0
M  V30 3784 C 363.002 -2.40658 4.40896 0
M  V30 3785 C 364.996 -1.5871 6.17325 0
M  V30 3786 C 362.683 -2.11635 5.73284 0
M  V30 3787 C 363.681 -1.70725 6.61318 0
M  V30 3788 O 363.369 -1.42057 7.91249 0
M  V30 3789 H 363.101 -0.423297 0.527063 0
M  V30 3790 H 365.655 -0.715188 1.92547 0
M  V30 3791 H 363.885 -3.26571 2.07095 0
M  V30 3792 H 365.574 -3.20868 2.48593 0
M  V30 3793 H 366.34 -1.77481 4.5136 0
M  V30 3794 H 362.219 -2.71463 3.72598 0
M  V30 3795 H 365.763 -1.26704 6.85997 0
M  V30 3796 H 361.66 -2.21124 6.06444 0
M  V30 3797 H 362.428 -1.55901 8.03515 0
M  V30 3798 N 365.091 -1.34144 -0.827227 0
M  V30 3799 C 366.34 -1.25602 -1.5782 0
M  V30 3800 C 366.653 0.173445 -1.94829 0
M  V30 3801 O 367.859 0.380984 -2.68814 0
M  V30 3802 C 366.315 -2.20151 -2.84713 0
M  V30 3803 C 365.923 -3.68331 -2.55021 0
M  V30 3804 C 367.667 -2.20508 -3.62735 0
M  V30 3805 C 365.574 -4.54762 -3.78082 0
M  V30 3806 H 364.504 -0.466573 -0.592306 0
M  V30 3807 H 367.155 -1.59283 -0.911116 0
M  V30 3808 H 365.537 -1.79417 -3.53023 0
M  V30 3809 H 366.711 -4.17577 -1.94849 0
M  V30 3810 H 365.026 -3.7038 -1.90283 0
M  V30 3811 H 367.623 -2.82306 -4.54101 0
M  V30 3812 H 367.966 -1.20322 -3.98533 0
M  V30 3813 H 368.499 -2.59664 -3.01362 0
M  V30 3814 H 365.238 -5.55867 -3.47407 0
M  V30 3815 H 364.758 -4.10254 -4.37552 0
M  V30 3816 H 366.437 -4.69153 -4.45538 0
M  V30 3817 N 366.569 1.04691 -1.17803 0
M  V30 3818 C 367.98 1.59238 -0.974689 0
M  V30 3819 C 368.331 1.90306 0.477292 0
M  V30 3820 O 367.456 1.68846 1.35352 0
M  V30 3821 C 368.051 2.89318 -1.76296 0
M  V30 3822 C 366.61 3.40506 -1.60414 0
M  V30 3823 C 365.757 2.14172 -1.76141 0
M  V30 3824 H 368.708 0.874395 -1.32439 0
M  V30 3825 H 368.729 3.5944 -1.24833 0
M  V30 3826 H 368.241 2.66675 -2.81968 0
M  V30 3827 H 366.342 3.68175 -0.572519 0
M  V30 3828 H 366.455 4.14753 -2.39827 0
M  V30 3829 H 364.819 2.25176 -1.19028 0
M  V30 3830 H 365.602 1.93992 -2.83235 0
M  V30 3831 N 368.047 0.979072 1.23499 0
M  V30 3832 C 368.977 0.537606 2.27227 0
M  V30 3833 C 369.958 -0.428539 1.64613 0
M  V30 3834 O 371.143 -0.322191 1.91509 0
M  V30 3835 C 368.273 -0.162052 3.46922 0
M  V30 3836 C 367.227 0.721242 4.21879 0
M  V30 3837 C 366.553 -0.110555 5.34586 0
M  V30 3838 C 367.853 2.01141 4.82016 0
M  V30 3839 H 369.547 1.40462 2.64406 0
M  V30 3840 H 367.093 0.67684 1.27102 0
M  V30 3841 H 369.046 -0.482192 4.18632 0
M  V30 3842 H 367.77 -1.06351 3.08799 0
M  V30 3843 H 366.429 1.02482 3.51984 0
M  V30 3844 H 366.077 -1.0125 4.92704 0
M  V30 3845 H 365.777 0.477325 5.85658 0
M  V30 3846 H 367.301 -0.425107 6.09118 0
M  V30 3847 H 368.715 1.75612 5.45741 0
M  V30 3848 H 367.112 2.54695 5.43369 0
M  V30 3849 H 368.182 2.69909 4.02836 0
M  V30 3850 N 369.525 -1.3858 0.750561 0
M  V30 3851 C 370.802 -1.94231 0.231009 0
M  V30 3852 C 371.182 -1.68611 -1.27018 0
M  V30 3853 O 370.53 -1.02296 -2.04323 0
M  V30 3854 C 370.74 -3.44123 0.581428 0
M  V30 3855 C 372.088 -4.2116 0.539389 0
M  V30 3856 O 373.112 -3.52391 0.519541 0
M  V30 3857 O 371.971 -5.43749 0.54765 0
M  V30 3858 H 369.065 -0.825639 0.0474263 0
M  V30 3859 H 371.611 -1.4799 0.830478 0
M  V30 3860 H 370.383 -3.56267 1.61833 0
M  V30 3861 H 370.006 -3.97573 -0.0462047 0
M  V30 3862 N 371.003 -0.499398 -1.49478 0
M  V30 3863 C 371.953 0.299103 -2.2603 0
M  V30 3864 C 372.937 0.936934 -1.30807 0
M  V30 3865 O 374.129 0.844798 -1.55538 0
M  V30 3866 C 371.258 1.36391 -3.15044 0
M  V30 3867 C 370.344 0.732398 -4.17728 0
M  V30 3868 N 370.735 -0.164028 -5.05534 0
M  V30 3869 C 369.033 0.993162 -4.34801 0
M  V30 3870 C 369.734 -0.525345 -5.79323 0
M  V30 3871 N 368.71 0.106348 -5.43496 0
M  V30 3872 H 372.512 -0.391003 -2.91287 0
M  V30 3873 H 370.026 -0.31537 -1.59308 0
M  V30 3874 H 372.023 1.94939 -3.68516 0
M  V30 3875 H 370.683 2.05571 -2.51338 0
M  V30 3876 H 371.694 -0.534736 -5.15132 0
M  V30 3877 H 368.371 1.67783 -3.82302 0
M  V30 3878 H 369.761 -1.25862 -6.60006 0
M  V30 3879 N 372.481 1.55866 -0.233164 0
M  V30 3880 C 373.413 2.18099 0.704668 0
M  V30 3881 C 374.426 1.15334 1.14899 0
M  V30 3882 O 375.615 1.42262 1.07814 0
M  V30 3883 C 372.715 2.7592 1.96777 0
M  V30 3884 C 371.888 4.03969 1.67713 0
M  V30 3885 C 370.947 4.46242 2.78845 0
M  V30 3886 O 369.973 5.12903 2.46818 0
M  V30 3887 N 371.175 4.12886 4.08051 0
M  V30 3888 H 373.94 2.99205 0.172258 0
M  V30 3889 H 371.501 1.61815 -0.0525945 0
M  V30 3890 H 373.493 3.01165 2.70337 0
M  V30 3891 H 372.063 1.99051 2.41034 0
M  V30 3892 H 371.283 3.86459 0.777391 0
M  V30 3893 H 372.571 4.8748 1.4574 0
M  V30 3894 H 371.969 3.59342 4.3691 0
M  V30 3895 H 370.526 4.42997 4.78118 0
M  V30 3896 N 373.959 -0.0401083 1.57549 0
M  V30 3897 C 375.236 -0.767917 1.79896 0
M  V30 3898 C 375.616 -1.9416 0.82856 0
M  V30 3899 O 374.964 -2.2812 -0.131671 0
M  V30 3900 C 375.174 -1.2113 3.27305 0
M  V30 3901 C 376.522 -1.63175 3.91994 0
M  V30 3902 O 377.546 -1.30616 3.31388 0
M  V30 3903 O 376.405 -2.23565 4.98679 0
M  V30 3904 H 373.499 -0.370441 0.739393 0
M  V30 3905 H 376.045 -0.017737 1.69691 0
M  V30 3906 H 374.817 -0.372937 3.89519 0
M  V30 3907 H 374.44 -2.02183 3.42356 0
M  V30 3908 N 375.437 -1.54477 -0.31217 0
M  V30 3909 C 376.683 -1.73483 -1.0503 0
M  V30 3910 C 377.016 -0.513125 -1.87298 0
M  V30 3911 O 376.291 0.489864 -1.8823 0
M  V30 3912 C 376.574 -3.01723 -1.96558 0
M  V30 3913 C 376.427 -4.3417 -1.17545 0
M  V30 3914 C 377.746 -3.25772 -2.95907 0
M  V30 3915 H 374.865 -0.631222 -0.380432 0
M  V30 3916 H 377.507 -1.87184 -0.325932 0
M  V30 3917 H 375.657 -2.90174 -2.58324 0
M  V30 3918 H 377.329 -4.5762 -0.581513 0
M  V30 3919 H 375.572 -4.31159 -0.477925 0
M  V30 3920 H 376.243 -5.20143 -1.84811 0
M  V30 3921 H 378.719 -3.36857 -2.44267 0
M  V30 3922 H 377.595 -4.16838 -3.57123 0
M  V30 3923 H 377.856 -2.43537 -3.68974 0
M  V30 3924 N 376.915 0.57481 -1.46744 0
M  V30 3925 C 378.192 1.3352 -1.4294 0
M  V30 3926 C 378.572 2.10775 -0.117009 0
M  V30 3927 O 377.92 2.09966 0.901474 0
M  V30 3928 C 378.13 2.25456 -2.66403 0
M  V30 3929 C 379.478 2.87035 -3.12883 0
M  V30 3930 O 380.502 2.35766 -2.67007 0
M  V30 3931 O 379.361 3.80179 -3.92589 0
M  V30 3932 H 376.455 0.600318 -0.568812 0
M  V30 3933 H 379.001 0.595171 -1.58921 0
M  V30 3934 H 377.773 1.67851 -3.53471 0
M  V30 3935 H 377.396 3.06785 -2.52921 0
M  V30 3936 N 378.394 1.34581 0.820102 0
M  V30 3937 C 379.64 1.27285 1.57881 0
M  V30 3938 C 379.973 -0.156137 1.93571 0
M  V30 3939 O 379.248 -1.10222 1.60254 0
M  V30 3940 C 379.531 2.16639 2.87645 0
M  V30 3941 C 379.384 3.68088 2.58517 0
M  V30 3942 C 380.703 2.05378 3.8924 0
M  V30 3943 H 377.822 0.463714 0.572833 0
M  V30 3944 H 380.464 1.64859 0.944539 0
M  V30 3945 H 378.614 1.84725 3.41773 0
M  V30 3946 H 380.286 4.10382 2.10676 0
M  V30 3947 H 378.529 3.89038 1.91917 0
M  V30 3948 H 379.2 4.2598 3.51063 0
M  V30 3949 H 381.676 2.33404 3.44473 0
M  V30 3950 H 380.552 2.7012 4.77835 0
M  V30 3951 H 380.813 1.0316 4.29896 0
M  V30 3952 N 379.872 -1.04064 1.18357 0
M  V30 3953 C 381.12 -1.76915 0.977013 0
M  V30 3954 C 381.441 -1.88624 -0.494577 0
M  V30 3955 O 380.711 -1.41125 -1.3587 0
M  V30 3956 H 379.291 -0.65535 0.358504 0
M  V30 3957 H 381.953 -1.25592 1.49039 0
M  V30 3958 H 381.049 -2.78178 1.41504 0
M  V30 3959 N 381.35 -0.985608 -1.22978 0
M  V30 3960 C 382.597 -0.657386 -1.91532 0
M  V30 3961 C 382.925 0.809707 -1.76845 0
M  V30 3962 O 382.18 1.60021 -1.12658 0
M  V30 3963 C 382.479 -1.00014 -3.43121 0
M  V30 3964 C 382.145 -2.4583 -3.77993 0
M  V30 3965 C 380.807 -2.85679 -3.87222 0
M  V30 3966 C 383.159 -3.40378 -3.94705 0
M  V30 3967 C 380.487 -4.19081 -4.10595 0
M  V30 3968 C 382.839 -4.73429 -4.1958 0
M  V30 3969 C 381.503 -5.1303 -4.27032 0
M  V30 3970 H 380.773 -0.240555 -0.700867 0
M  V30 3971 H 383.42 -1.24044 -1.45895 0
M  V30 3972 H 381.725 -0.335072 -3.90365 0
M  V30 3973 H 383.422 -0.724322 -3.94404 0
M  V30 3974 H 380.012 -2.13939 -3.71387 0
M  V30 3975 H 384.196 -3.10766 -3.8696 0
M  V30 3976 H 379.452 -4.49362 -4.14589 0
M  V30 3977 H 383.626 -5.46644 -4.31455 0
M  V30 3978 H 381.253 -6.16418 -4.44896 0
M  V30 3979 N 382.828 1.3818 -0.7579 0
M  V30 3980 C 384.105 1.94106 -0.241306 0
M  V30 3981 C 384.485 1.69282 1.26122 0
M  V30 3982 O 383.833 1.03378 2.03777 0
M  V30 3983 C 384.043 3.43809 -0.59967 0
M  V30 3984 C 385.391 4.20868 -0.561717 0
M  V30 3985 O 386.415 3.5211 -0.538222 0
M  V30 3986 O 385.274 5.43451 -0.576478 0
M  V30 3987 H 382.368 0.825376 -0.0518042 0
M  V30 3988 H 384.914 1.47548 -0.838315 0
M  V30 3989 H 383.686 3.55403 -1.6372 0
M  V30 3990 H 383.309 3.97592 0.0251197 0
M  V30 3991 N 384.306 0.507319 1.49211 0
M  V30 3992 C 385.554 -0.0348839 2.0207 0
M  V30 3993 C 385.875 -1.36898 1.38866 0
M  V30 3994 O 385.145 -1.88133 0.546151 0
M  V30 3995 H 383.725 -0.0158812 0.746831 0
M  V30 3996 H 386.387 0.665998 1.83168 0
M  V30 3997 H 385.483 -0.159917 3.1169 0
M  V30 3998 N 385.784 -1.5574 0.241426 0
M  V30 3999 C 387.032 -1.98417 -0.384075 0
M  V30 4000 C 387.353 -1.13078 -1.58866 0
M  V30 4001 O 386.623 -0.212312 -1.94746 0
M  V30 4002 H 385.203 -0.732813 -0.144894 0
M  V30 4003 H 387.865 -1.9193 0.338943 0
M  V30 4004 H 386.961 -3.04219 -0.696939 0
M  V30 4005 N 387.262 0.0317525 -1.57568 0
M  V30 4006 C 388.49 0.734949 -1.93407 0
M  V30 4007 C 388.905 1.69036 -0.84096 0
M  V30 4008 O 388.262 1.81582 0.182836 0
M  V30 4009 C 388.313 1.49432 -3.29169 0
M  V30 4010 O 388.034 0.577261 -4.3428 0
M  V30 4011 C 389.535 2.29492 -3.79273 0
M  V30 4012 H 386.755 0.206706 -0.638368 0
M  V30 4013 H 389.299 -0.00992046 -2.04498 0
M  V30 4014 H 387.454 2.1911 -3.19483 0
M  V30 4015 H 387.868 1.10952 -5.1263 0
M  V30 4016 H 389.342 2.78172 -4.76785 0
M  V30 4017 H 389.819 3.10794 -3.10328 0
M  V30 4018 H 390.425 1.64894 -3.92033 0
M  V30 4019 N 388.74 1.54641 0.303973 0
M  V30 4020 C 390.017 1.64455 1.05896 0
M  V30 4021 C 390.397 0.490923 2.05312 0
M  V30 4022 O 389.745 -0.512685 2.22674 0
M  V30 4023 C 389.955 3.02331 1.74347 0
M  V30 4024 C 391.303 3.59045 2.26653 0
M  V30 4025 O 392.327 3.04764 1.84384 0
M  V30 4026 O 391.186 4.54081 3.04093 0
M  V30 4027 H 388.28 0.666729 0.489287 0
M  V30 4028 H 390.826 1.66986 0.302298 0
M  V30 4029 H 389.598 3.77734 1.02142 0
M  V30 4030 H 389.221 3.03565 2.56777 0
M  V30 4031 N 390.218 -0.567019 1.47046 0
M  V30 4032 C 391.634 -0.891975 1.32348 0
M  V30 4033 C 391.834 -1.99154 0.306616 0
M  V30 4034 O 390.89 -2.50883 -0.28532 0
M  V30 4035 C 392.203 -1.29449 2.7141 0
M  V30 4036 C 393.751 -1.40646 2.79621 0
M  V30 4037 C 394.226 -1.84257 4.19301 0
M  V30 4038 N 395.717 -1.91424 4.21795 0
M  V30 4039 C 396.452 -2.26476 5.26779 0
M  V30 4040 N 395.948 -2.60211 6.42077 0
M  V30 4041 N 397.741 -2.27166 5.14152 0
M  V30 4042 H 389.892 0.159074 2.11803 0
M  V30 4043 H 392.155 0.00849752 0.947962 0
M  V30 4044 H 391.861 -0.560448 3.47206 0
M  V30 4045 H 391.735 -2.25273 3.02542 0
M  V30 4046 H 394.122 -2.13133 2.04104 0
M  V30 4047 H 394.203 -0.430339 2.52154 0
M  V30 4048 H 393.847 -1.12343 4.95319 0
M  V30 4049 H 393.777 -2.82855 4.44185 0
M  V30 4050 H 396.268 -1.6778 3.38612 0
M  V30 4051 H 396.581 -2.85956 7.17948 0
M  V30 4052 H 394.926 -2.57813 6.45413 0
M  V30 4053 H 398.117 -2.00244 4.23107 0
M  V30 4054 H 398.29 -2.54154 5.96079 0
M  V30 4055 N 391.696 -1.35014 -0.812953 0
M  V30 4056 C 392.945 -1.27269 -1.56479 0
M  V30 4057 C 393.258 0.152771 -1.95002 0
M  V30 4058 O 394.464 0.352451 -2.69203 0
M  V30 4059 C 392.92 -2.23159 -2.82362 0
M  V30 4060 C 392.528 -3.71016 -2.511 0
M  V30 4061 C 394.272 -2.24342 -3.60376 0
M  V30 4062 C 392.179 -4.58746 -3.73237 0
M  V30 4063 H 391.109 -0.472829 -0.587324 0
M  V30 4064 H 393.76 -1.6024 -0.894171 0
M  V30 4065 H 392.142 -1.83151 -3.51101 0
M  V30 4066 H 393.316 -4.1962 -1.90409 0
M  V30 4067 H 391.631 -3.72378 -1.86343 0
M  V30 4068 H 394.228 -2.87107 -4.51081 0
M  V30 4069 H 394.571 -1.24542 -3.97234 0
M  V30 4070 H 395.104 -2.62846 -2.98591 0
M  V30 4071 H 391.843 -5.59521 -3.41492 0
M  V30 4072 H 391.363 -4.14871 -4.33176 0
M  V30 4073 H 393.042 -4.73852 -4.40537 0
M  V30 4074 N 393.175 1.03435 -1.18907 0
M  V30 4075 C 394.422 1.76743 -0.988334 0
M  V30 4076 C 394.75 1.88447 0.481441 0
M  V30 4077 O 394.005 1.39383 1.37371 0
M  V30 4078 C 394.304 3.19792 -1.59586 0
M  V30 4079 C 393.97 3.28108 -3.09283 0
M  V30 4080 C 392.632 3.30084 -3.5014 0
M  V30 4081 C 394.984 3.27696 -4.05296 0
M  V30 4082 C 392.312 3.29299 -4.85571 0
M  V30 4083 C 394.664 3.28451 -5.4065 0
M  V30 4084 C 393.328 3.28723 -5.80946 0
M  V30 4085 H 392.598 0.64675 -0.361657 0
M  V30 4086 H 395.245 1.21442 -1.48068 0
M  V30 4087 H 393.55 3.78136 -1.02568 0
M  V30 4088 H 395.247 3.75171 -1.41589 0
M  V30 4089 H 391.837 3.27294 -2.76725 0
M  V30 4090 H 396.021 3.25354 -3.74778 0
M  V30 4091 H 391.277 3.2783 -5.16079 0
M  V30 4092 H 395.451 3.27082 -6.14809 0
M  V30 4093 H 393.078 3.27868 -6.85862 0
M  V30 4094 N 394.653 0.992116 1.22453 0
M  V30 4095 C 395.583 0.561677 2.26644 0
M  V30 4096 C 396.564 -0.411055 1.65059 0
M  V30 4097 O 397.749 -0.301861 1.9184 0
M  V30 4098 C 394.879 -0.125247 3.47074 0
M  V30 4099 C 393.833 0.765948 4.21091 0
M  V30 4100 C 393.159 -0.0538484 5.34673 0
M  V30 4101 C 394.459 2.06242 4.79856 0
M  V30 4102 H 396.153 1.43259 2.62902 0
M  V30 4103 H 393.699 0.690283 1.26377 0
M  V30 4104 H 395.652 -0.437764 4.1912 0
M  V30 4105 H 394.376 -1.03069 3.0991 0
M  V30 4106 H 393.035 1.0621 3.50878 0
M  V30 4107 H 392.683 -0.960188 4.9375 0
M  V30 4108 H 392.383 0.539415 5.85119 0
M  V30 4109 H 393.907 -0.360477 6.09535 0
M  V30 4110 H 395.321 1.8139 5.43848 0
M  V30 4111 H 393.718 2.60444 5.40638 0
M  V30 4112 H 394.788 2.74167 3.99951 0
M  V30 4113 N 396.131 -1.37776 0.765217 0
M  V30 4114 C 397.377 -2.00145 0.327072 0
M  V30 4115 C 397.71 -1.60607 -1.09175 0
M  V30 4116 O 396.985 -0.849127 -1.74986 0
M  V30 4117 C 397.268 -3.57109 0.46319 0
M  V30 4118 C 397.121 -4.06576 1.92395 0
M  V30 4119 C 398.44 -4.39888 -0.136473 0
M  V30 4120 H 395.559 -0.727113 0.120316 0
M  V30 4121 H 398.201 -1.63549 0.967039 0
M  V30 4122 H 396.351 -3.88414 -0.0816358 0
M  V30 4123 H 398.023 -3.85864 2.52798 0
M  V30 4124 H 396.266 -3.59011 2.43503 0
M  V30 4125 H 396.937 -5.15639 1.97028 0
M  V30 4126 H 399.413 -4.14803 0.328317 0
M  V30 4127 H 398.289 -5.48899 -0.0110582 0
M  V30 4128 H 398.55 -4.24758 -1.22608 0
M  V30 4129 N 397.609 -0.515225 -1.4894 0
M  V30 4130 C 398.834 0.022727 -2.07388 0
M  V30 4131 C 399.259 1.2876 -1.37122 0
M  V30 4132 O 398.617 1.76067 -0.432431 0
M  V30 4133 C 398.665 0.244869 -3.59768 0
M  V30 4134 O 397.769 1.31667 -3.90817 0
M  V30 4135 H 397.11 -0.0325506 -0.663202 0
M  V30 4136 H 399.64 -0.718918 -1.91553 0
M  V30 4137 H 399.65 0.47205 -4.0526 0
M  V30 4138 H 398.325 -0.679194 -4.10317 0
M  V30 4139 H 396.902 1.07331 -3.5712 0
M  V30 4140 N 399.087 1.5561 -0.249682 0
M  V30 4141 C 400.498 1.84979 0.252949 0
M  V30 4142 C 400.849 1.17153 1.57384 0
M  V30 4143 O 399.974 0.450884 2.11651 0
M  V30 4144 C 400.569 3.35584 0.465732 0
M  V30 4145 C 399.128 3.65169 0.912624 0
M  V30 4146 C 398.275 2.77299 -0.00859085 0
M  V30 4147 H 401.226 1.51513 -0.47217 0
M  V30 4148 H 401.247 3.57313 1.30795 0
M  V30 4149 H 400.759 3.8492 -0.49579 0
M  V30 4150 H 398.86 3.21312 1.88652 0
M  V30 4151 H 398.973 4.72912 0.767559 0
M  V30 4152 H 397.337 2.49678 0.50327 0
M  V30 4153 H 398.12 3.29442 -0.965537 0
M  V30 4154 N 400.565 -0.0233959 1.57583 0
M  V30 4155 C 401.814 -0.712133 1.8871 0
M  V30 4156 C 402.127 -1.76217 0.848944 0
M  V30 4157 O 403.333 -2.50389 1.04964 0
M  V30 4158 C 401.789 -1.3177 3.3491 0
M  V30 4159 C 401.397 -0.303715 4.46969 0
M  V30 4160 C 403.141 -1.98598 3.75179 0
M  V30 4161 C 401.048 -0.917945 5.84233 0
M  V30 4162 H 399.978 -0.269735 0.704101 0
M  V30 4163 H 402.629 0.0333114 1.8347 0
M  V30 4164 H 401.011 -2.11304 3.34913 0
M  V30 4165 H 402.185 0.465325 4.58445 0
M  V30 4166 H 400.5 0.2628 4.1557 0
M  V30 4167 H 403.097 -2.45416 4.75053 0
M  V30 4168 H 403.44 -2.80659 3.07468 0
M  V30 4169 H 403.973 -1.25831 3.77374 0
M  V30 4170 H 400.712 -0.136633 6.55358 0
M  V30 4171 H 400.232 -1.65669 5.76467 0
M  V30 4172 H 401.911 -1.4236 6.31144 0
M  V30 4173 N 402.043 -1.548 -0.295768 0
M  V30 4174 C 403.271 -1.78327 -1.04914 0
M  V30 4175 C 403.686 -0.545316 -1.80753 0
M  V30 4176 O 403.043 0.485013 -1.75937 0
M  V30 4177 C 403.094 -2.99418 -2.02561 0
M  V30 4178 O 402.815 -4.18431 -1.29798 0
M  V30 4179 C 404.316 -3.35375 -2.89895 0
M  V30 4180 H 401.536 -0.594618 -0.310918 0
M  V30 4181 H 404.08 -2.01763 -0.333454 0
M  V30 4182 H 402.235 -2.78175 -2.69624 0
M  V30 4183 H 402.649 -4.86736 -1.95419 0
M  V30 4184 H 404.123 -4.23332 -3.54251 0
M  V30 4185 H 404.6 -2.53761 -3.58472 0
M  V30 4186 H 405.206 -3.58796 -2.28355 0
M  V30 4187 N 403.521 0.559213 -1.47345 0
M  V30 4188 C 404.77 1.31281 -1.53128 0
M  V30 4189 C 405.083 1.94602 -0.197344 0
M  V30 4190 O 406.289 2.71173 -0.133154 0
M  V30 4191 C 404.745 2.38051 -2.69925 0
M  V30 4192 C 404.353 1.8093 -4.0984 0
M  V30 4193 C 406.097 3.14604 -2.84999 0
M  V30 4194 C 404.004 2.85468 -5.1794 0
M  V30 4195 H 402.934 0.493614 -0.569966 0
M  V30 4196 H 405.585 0.594155 -1.73615 0
M  V30 4197 H 403.967 3.12822 -2.42814 0
M  V30 4198 H 405.141 1.12544 -4.46845 0
M  V30 4199 H 403.456 1.16967 -3.99634 0
M  V30 4200 H 406.053 3.92666 -3.62929 0
M  V30 4201 H 406.396 3.68665 -1.93369 0
M  V30 4202 H 406.929 2.46945 -3.1187 0
M  V30 4203 H 403.668 2.36264 -6.1144 0
M  V30 4204 H 403.188 3.52269 -4.85455 0
M  V30 4205 H 404.867 3.48996 -5.44803 0
M  V30 4206 N 404.999 1.35443 0.805782 0
M  V30 4207 C 406.245 1.28952 1.56522 0
M  V30 4208 C 406.578 -0.135597 1.93726 0
M  V30 4209 O 405.853 -1.08516 1.61414 0
M  V30 4210 C 406.136 2.19678 2.85331 0
M  V30 4211 C 405.989 3.7081 2.54598 0
M  V30 4212 C 407.308 2.09495 3.8704 0
M  V30 4213 H 404.427 0.469764 0.567883 0
M  V30 4214 H 407.069 1.65851 0.927001 0
M  V30 4215 H 405.219 1.8834 3.39795 0
M  V30 4216 H 406.891 4.12593 2.06312 0
M  V30 4217 H 405.134 3.91051 1.8778 0
M  V30 4218 H 405.805 4.29679 3.46525 0
M  V30 4219 H 408.281 2.37045 3.41978 0
M  V30 4220 H 407.157 2.75173 4.74943 0
M  V30 4221 H 407.418 1.07714 4.28777 0
M  V30 4222 N 406.477 -1.02803 1.19454 0
M  V30 4223 C 407.427 -2.0945 0.900827 0
M  V30 4224 C 408.411 -1.60335 -0.134715 0
M  V30 4225 O 409.603 -1.76857 0.0710924 0
M  V30 4226 C 406.732 -3.4044 0.442229 0
M  V30 4227 C 405.818 -3.96286 1.51056 0
M  V30 4228 N 406.209 -4.25785 2.73021 0
M  V30 4229 C 404.507 -4.24307 1.37404 0
M  V30 4230 C 405.208 -4.70654 3.41848 0
M  V30 4231 N 404.184 -4.72238 2.69243 0
M  V30 4232 H 407.986 -2.3015 1.82779 0
M  V30 4233 H 405.5 -1.20672 1.08683 0
M  V30 4234 H 407.497 -4.16354 0.21326 0
M  V30 4235 H 406.157 -3.21159 -0.478238 0
M  V30 4236 H 407.168 -4.15041 3.09776 0
M  V30 4237 H 403.845 -4.14285 0.517103 0
M  V30 4238 H 405.235 -5.02392 4.46152 0
M  V30 4239 N 407.956 -0.998596 -1.21925 0
M  V30 4240 C 408.866 -0.562736 -2.27751 0
M  V30 4241 C 409.882 0.391203 -1.69545 0
M  V30 4242 O 411.058 0.256625 -1.99758 0
M  V30 4243 C 408.123 0.11012 -3.46525 0
M  V30 4244 C 407.184 -0.887495 -4.20026 0
M  V30 4245 C 406.417 -0.246654 -5.3313 0
M  V30 4246 O 406.64 0.958088 -5.62296 0
M  V30 4247 O 405.574 -0.954374 -5.94286 0
M  V30 4248 H 409.4 -1.44329 -2.67213 0
M  V30 4249 H 406.985 -0.767135 -1.28201 0
M  V30 4250 H 408.867 0.486756 -4.18579 0
M  V30 4251 H 407.542 0.965154 -3.08976 0
M  V30 4252 H 406.449 -1.31517 -3.5022 0
M  V30 4253 H 407.782 -1.71191 -4.6147 0
M  V30 4254 N 409.434 1.37368 -0.772513 0
M  V30 4255 C 410.683 1.98918 -0.333861 0
M  V30 4256 C 410.996 1.62017 1.09589 0
M  V30 4257 O 412.202 2.16676 1.63596 0
M  V30 4258 C 410.658 3.55735 -0.545971 0
M  V30 4259 C 410.266 4.01573 -1.98603 0
M  V30 4260 C 412.01 4.24156 -0.170979 0
M  V30 4261 C 409.917 5.51102 -2.1457 0
M  V30 4262 H 408.847 0.744214 -0.121085 0
M  V30 4263 H 411.498 1.56888 -0.95175 0
M  V30 4264 H 409.88 3.95748 0.141387 0
M  V30 4265 H 411.054 3.72803 -2.7084 0
M  V30 4266 H 409.369 3.45937 -2.31769 0
M  V30 4267 H 411.966 5.34024 -0.26878 0
M  V30 4268 H 412.309 4.06917 0.878855 0
M  V30 4269 H 412.842 3.89447 -0.810914 0
M  V30 4270 H 409.581 5.73268 -3.17875 0
M  V30 4271 H 409.101 5.81554 -1.46817 0
M  V30 4272 H 410.78 6.17083 -1.94468 0
M  V30 4273 N 410.912 0.523116 1.48665 0
M  V30 4274 C 412.189 -0.0775449 1.95446 0
M  V30 4275 C 412.569 -1.5197 1.4652 0
M  V30 4276 O 411.917 -2.17876 0.688657 0
M  V30 4277 C 412.127 0.0326135 3.48985 0
M  V30 4278 C 413.475 -0.130141 4.24401 0
M  V30 4279 O 414.499 -0.0415142 3.56176 0
M  V30 4280 O 413.358 -0.31491 5.45592 0
M  V30 4281 H 410.452 -0.0831012 0.822814 0
M  V30 4282 H 412.998 0.587227 1.59216 0
M  V30 4283 H 411.77 1.03748 3.77296 0
M  V30 4284 H 411.393 -0.671317 3.91892 0
M  V30 4285 N 412.39 -1.55475 0.257931 0
M  V30 4286 C 413.615 -2.04064 -0.370488 0
M  V30 4287 C 414.04 -1.13565 -1.49948 0
M  V30 4288 O 413.398 -0.130781 -1.80828 0
M  V30 4289 C 413.446 -3.50554 -0.845237 0
M  V30 4290 O 412.55 -3.63173 -1.95394 0
M  V30 4291 H 411.891 -0.659257 -0.0792243 0
M  V30 4292 H 414.421 -2.00903 0.387212 0
M  V30 4293 H 414.431 -3.91588 -1.14555 0
M  V30 4294 H 413.106 -4.15896 -0.0191259 0
M  V30 4295 H 411.683 -3.34039 -1.65748 0
M  V30 4296 N 413.868 0.0150385 -1.57593 0
M  V30 4297 C 414.831 0.995996 -2.06428 0
M  V30 4298 C 415.831 1.2818 -0.970903 0
M  V30 4299 O 417.021 1.22949 -1.23406 0
M  V30 4300 C 414.153 2.32506 -2.49307 0
M  V30 4301 H 415.346 0.573873 -2.94358 0
M  V30 4302 H 412.899 0.262186 -1.54085 0
M  V30 4303 H 413.634 2.79438 -1.64575 0
M  V30 4304 H 413.419 2.13087 -3.29145 0
M  V30 4305 H 414.909 3.02906 -2.87468 0
M  V30 4306 N 415.346 1.54954 0.287554 0
M  V30 4307 C 416.571 1.79209 1.04397 0
M  V30 4308 C 416.996 0.556431 1.79682 0
M  V30 4309 O 416.354 -0.493518 1.74454 0
M  V30 4310 C 416.402 3.00739 1.98969 0
M  V30 4311 O 415.506 2.74805 3.075 0
M  V30 4312 H 414.847 0.592755 0.299227 0
M  V30 4313 H 417.377 2.02068 0.320886 0
M  V30 4314 H 417.387 3.29077 2.4119 0
M  V30 4315 H 416.062 3.90329 1.43582 0
M  V30 4316 H 414.639 2.57523 2.69697 0
M  V30 4317 N 416.824 -0.551391 1.4764 0
M  V30 4318 C 418.235 -1.13349 1.48354 0
M  V30 4319 C 418.586 -1.94709 0.241432 0
M  V30 4320 O 417.711 -2.06306 -0.653205 0
M  V30 4321 C 418.306 -2.0623 2.68802 0
M  V30 4322 C 416.865 -2.597 2.72457 0
M  V30 4323 C 416.012 -1.36201 2.41546 0
M  V30 4324 H 418.963 -0.337698 1.55065 0
M  V30 4325 H 418.984 -2.90196 2.46103 0
M  V30 4326 H 418.496 -1.46987 3.59188 0
M  V30 4327 H 416.597 -3.22724 1.86225 0
M  V30 4328 H 416.71 -3.00296 3.73308 0
M  V30 4329 H 415.074 -1.67068 1.9225 0
M  V30 4330 H 415.857 -0.787425 3.34147 0
M  V30 4331 N 418.302 -1.35869 -0.798587 0
M  V30 4332 C 419.232 -1.32118 -1.92528 0
M  V30 4333 C 420.213 -0.194209 -1.68988 0
M  V30 4334 O 421.398 -0.390426 -1.90235 0
M  V30 4335 C 418.528 -1.10047 -3.29404 0
M  V30 4336 C 417.482 -2.19471 -3.67446 0
M  V30 4337 C 416.808 -1.82555 -5.02571 0
M  V30 4338 C 418.108 -3.61495 -3.76987 0
M  V30 4339 H 419.802 -2.26394 -1.95924 0
M  V30 4340 H 417.348 -1.08981 -0.94123 0
M  V30 4341 H 419.301 -1.06061 -4.07835 0
M  V30 4342 H 418.025 -0.122195 -3.26371 0
M  V30 4343 H 416.684 -2.22568 -2.91306 0
M  V30 4344 H 416.332 -0.833249 -4.9605 0
M  V30 4345 H 416.032 -2.5581 -5.28995 0
M  V30 4346 H 417.556 -1.80108 -5.83432 0
M  V30 4347 H 418.97 -3.60676 -4.4563 0
M  V30 4348 H 417.367 -4.33577 -4.14887 0
M  V30 4349 H 418.437 -3.97065 -2.78329 0
M  V30 4350 N 419.78 1.02168 -1.19998 0
M  V30 4351 C 421.01 1.79036 -1.031 0
M  V30 4352 C 421.418 1.84409 0.423078 0
M  V30 4353 O 420.761 1.29228 1.30559 0
M  V30 4354 C 420.823 3.25185 -1.53281 0
M  V30 4355 C 420.487 3.43431 -3.01503 0
M  V30 4356 C 421.484 3.33063 -3.99206 0
M  V30 4357 C 419.169 3.69412 -3.40353 0
M  V30 4358 C 421.163 3.48413 -5.33748 0
M  V30 4359 C 418.85 3.84406 -4.75053 0
M  V30 4360 C 419.848 3.7391 -5.71559 0
M  V30 4361 O 419.536 3.88452 -7.03818 0
M  V30 4362 H 419.268 0.570043 -0.363355 0
M  V30 4363 H 421.822 1.29524 -1.59414 0
M  V30 4364 H 420.052 3.75756 -0.913483 0
M  V30 4365 H 421.741 3.83671 -1.32481 0
M  V30 4366 H 422.507 3.12934 -3.70537 0
M  V30 4367 H 418.386 3.76671 -2.65782 0
M  V30 4368 H 421.93 3.40137 -6.09059 0
M  V30 4369 H 417.827 4.04035 -5.03415 0
M  V30 4370 H 418.595 4.055 -7.10993 0
M  V30 4371 N 421.258 1.00505 1.21394 0
M  V30 4372 C 422.168 0.574806 2.27449 0
M  V30 4373 C 423.184 -0.382206 1.6975 0
M  V30 4374 O 424.36 -0.246027 1.99892 0
M  V30 4375 C 421.425 -0.0917414 3.46579 0
M  V30 4376 C 420.486 0.909758 4.1955 0
M  V30 4377 C 419.719 0.274924 5.32991 0
M  V30 4378 O 419.942 -0.928254 5.62796 0
M  V30 4379 O 418.876 0.985877 5.93771 0
M  V30 4380 H 422.702 1.45744 2.66444 0
M  V30 4381 H 420.287 0.773923 1.27792 0
M  V30 4382 H 422.169 -0.464551 4.18832 0
M  V30 4383 H 420.844 -0.948755 3.09484 0
M  V30 4384 H 419.751 1.33372 3.49518 0
M  V30 4385 H 421.084 1.73636 4.60555 0
M  V30 4386 N 422.737 -1.36956 0.779787 0
M  V30 4387 C 423.667 -2.32761 0.185651 0
M  V30 4388 C 424.648 -1.56177 -0.673989 0
M  V30 4389 O 425.833 -1.84378 -0.609797 0
M  V30 4390 C 422.963 -3.40418 -0.687964 0
M  V30 4391 C 421.917 -4.27941 0.0710102 0
M  V30 4392 C 421.243 -5.26681 -0.922573 0
M  V30 4393 C 422.543 -5.07006 1.25467 0
M  V30 4394 H 424.237 -2.82698 0.986008 0
M  V30 4395 H 421.783 -1.3592 0.475592 0
M  V30 4396 H 423.736 -4.06423 -1.11348 0
M  V30 4397 H 422.46 -2.89025 -1.52093 0
M  V30 4398 H 421.119 -3.63478 0.47739 0
M  V30 4399 H 420.767 -4.71565 -1.7503 0
M  V30 4400 H 420.467 -5.86103 -0.419237 0
M  V30 4401 H 421.991 -5.9556 -1.34686 0
M  V30 4402 H 423.405 -5.66105 0.905401 0
M  V30 4403 H 421.802 -5.75793 1.69063 0
M  V30 4404 H 422.872 -4.3921 2.05481 0
M  V30 4405 N 424.215 -0.530993 -1.48385 0
M  V30 4406 C 425.463 0.00273189 -2.021 0
M  V30 4407 C 425.784 1.34672 -1.41027 0
M  V30 4408 O 425.054 1.8724 -0.576012 0
M  V30 4409 H 423.634 0.00399774 -0.746989 0
M  V30 4410 H 426.296 -0.695054 -1.82085 0
M  V30 4411 H 425.392 0.11031 -3.11905 0
M  V30 4412 N 425.693 1.55336 -0.266172 0
M  V30 4413 C 427.109 1.59356 0.0882065 0
M  V30 4414 C 427.309 1.2834 1.55342 0
M  V30 4415 O 426.365 1.03996 2.30089 0
M  V30 4416 C 427.678 2.99409 -0.278364 0
M  V30 4417 C 429.226 3.12196 -0.224243 0
M  V30 4418 C 429.701 4.545 -0.565123 0
M  V30 4419 N 431.192 4.60313 -0.51634 0
M  V30 4420 C 431.927 5.68434 -0.753013 0
M  V30 4421 N 431.423 6.84738 -1.05383 0
M  V30 4422 N 433.216 5.57942 -0.682414 0
M  V30 4423 H 425.367 1.73764 -1.22147 0
M  V30 4424 H 427.63 0.809822 -0.492841 0
M  V30 4425 H 427.336 3.2691 -1.29703 0
M  V30 4426 H 427.21 3.75228 0.385186 0
M  V30 4427 H 429.597 2.84464 0.78512 0
M  V30 4428 H 429.678 2.38609 -0.921922 0
M  V30 4429 H 429.322 4.82956 -1.57213 0
M  V30 4430 H 429.252 5.26374 0.154248 0
M  V30 4431 H 431.743 3.7676 -0.29335 0
M  V30 4432 H 432.056 7.63088 -1.22133 0
M  V30 4433 H 430.401 6.86375 -1.09151 0
M  V30 4434 H 433.592 4.65958 -0.44731 0
M  V30 4435 H 433.765 6.4213 -0.870248 0
M  V30 4436 N 427.171 -0.0066808 1.57599 0
M  V30 4437 C 428.134 -0.985035 2.06953 0
M  V30 4438 C 429.134 -1.27663 0.977687 0
M  V30 4439 O 430.324 -1.22293 1.24057 0
M  V30 4440 C 427.456 -2.3118 2.50536 0
M  V30 4441 H 428.649 -0.558255 2.94658 0
M  V30 4442 H 426.202 -0.254011 1.54222 0
M  V30 4443 H 426.937 -2.78561 1.66054 0
M  V30 4444 H 426.722 -2.11338 3.3027 0
M  V30 4445 H 428.212 -3.01377 2.8907 0
M  V30 4446 N 428.649 -1.55105 -0.279332 0
M  V30 4447 C 429.559 -1.90638 -1.36727 0
M  V30 4448 C 430.575 -0.802899 -1.54368 0
M  V30 4449 O 431.751 -1.10138 -1.68616 0
M  V30 4450 C 428.816 -2.16547 -2.70755 0
M  V30 4451 C 427.877 -3.40146 -2.61915 0
M  V30 4452 C 427.11 -3.6481 -3.8955 0
M  V30 4453 O 427.333 -2.92095 -4.89935 0
M  V30 4454 O 426.267 -4.58343 -3.90135 0
M  V30 4455 H 430.093 -2.83237 -1.09591 0
M  V30 4456 H 427.678 -1.4157 -0.477306 0
M  V30 4457 H 429.56 -2.34665 -3.50014 0
M  V30 4458 H 428.235 -1.27131 -2.9769 0
M  V30 4459 H 427.142 -3.2737 -1.81052 0
M  V30 4460 H 428.475 -4.29761 -2.3993 0
M  V30 4461 N 430.127 0.543554 -1.4793 0
M  V30 4462 C 431.057 1.65888 -1.64327 0
M  V30 4463 C 432.038 1.62818 -0.492383 0
M  V30 4464 O 433.223 1.80226 -0.723338 0
M  V30 4465 C 430.353 3.04506 -1.67013 0
M  V30 4466 C 429.307 3.2243 -2.81466 0
M  V30 4467 C 428.633 4.61972 -2.69233 0
M  V30 4468 C 429.933 3.06496 -4.22915 0
M  V30 4469 H 431.627 1.52421 -2.57698 0
M  V30 4470 H 429.173 0.731849 -1.24016 0
M  V30 4471 H 431.126 3.82391 -1.77074 0
M  V30 4472 H 429.85 3.18964 -0.70212 0
M  V30 4473 H 428.509 2.46957 -2.70938 0
M  V30 4474 H 428.157 4.73247 -1.7043 0
M  V30 4475 H 427.857 4.74911 -3.46025 0
M  V30 4476 H 429.381 5.41974 -2.81242 0
M  V30 4477 H 430.795 3.74186 -4.34348 0
M  V30 4478 H 429.192 3.30938 -5.006 0
M  V30 4479 H 430.262 2.03077 -4.40327 0
M  V30 4480 N 431.605 1.3629 0.791371 0
M  V30 4481 C 432.568 1.30309 1.88553 0
M  V30 4482 C 433.568 0.211204 1.59407 0
M  V30 4483 O 434.758 0.465865 1.67855 0
M  V30 4484 C 431.89 1.01956 3.25297 0
M  V30 4485 H 433.083 2.27614 1.95273 0
M  V30 4486 H 430.636 1.21035 0.988953 0
M  V30 4487 H 431.371 0.050998 3.2426 0
M  V30 4488 H 431.156 1.80968 3.4784 0
M  V30 4489 H 432.646 1.0037 4.05359 0
M  V30 4490 N 433.083 -1.0153 1.20538 0
M  V30 4491 C 434.499 -1.27461 0.96051 0
M  V30 4492 C 434.699 -1.98273 -0.359193 0
M  V30 4493 O 433.755 -2.27886 -1.0874 0
M  V30 4494 C 435.068 -2.10837 2.14402 0
M  V30 4495 C 436.616 -2.24099 2.18515 0
M  V30 4496 C 437.091 -3.10852 3.36355 0
M  V30 4497 N 438.582 -3.18441 3.36377 0
M  V30 4498 C 439.317 -3.85795 4.24205 0
M  V30 4499 N 438.813 -4.55264 5.22213 0
M  V30 4500 N 440.606 -3.82331 4.12043 0
M  V30 4501 H 432.757 -0.539907 2.05423 0
M  V30 4502 H 435.02 -0.30092 0.898972 0
M  V30 4503 H 434.726 -1.66144 3.09983 0
M  V30 4504 H 434.6 -3.11576 2.12604 0
M  V30 4505 H 436.987 -2.68016 1.23497 0
M  V30 4506 H 437.068 -1.22865 2.24361 0
M  V30 4507 H 436.712 -2.6764 4.31661 0
M  V30 4508 H 436.642 -4.12177 3.27746 0
M  V30 4509 H 439.133 -2.68978 2.65442 0
M  V30 4510 H 439.446 -5.04331 5.85551 0
M  V30 4511 H 437.791 -4.54085 5.26148 0
M  V30 4512 H 440.982 -3.27207 3.34743 0
M  V30 4513 H 441.155 -4.34547 4.807 0
M  V30 4514 N 434.561 -1.01147 -1.20859 0
M  V30 4515 C 435.524 -0.582224 -2.21682 0
M  V30 4516 C 436.524 0.344887 -1.57058 0
M  V30 4517 O 437.714 0.134281 -1.73682 0
M  V30 4518 C 434.846 0.150496 -3.40568 0
M  V30 4519 H 436.039 -1.47408 -2.61172 0
M  V30 4520 H 433.592 -0.800695 -1.34233 0
M  V30 4521 H 434.327 1.0575 -3.06574 0
M  V30 4522 H 434.112 -0.515444 -3.88697 0
M  V30 4523 H 435.602 0.438344 -4.15293 0
M  V30 4524 N 436.039 1.36541 -0.78704 0
M  V30 4525 C 437.316 1.9355 -0.282424 0
M  V30 4526 C 437.696 1.71919 1.22503 0
M  V30 4527 O 437.044 1.07677 2.01539 0
M  V30 4528 C 437.254 3.4246 -0.672462 0
M  V30 4529 C 438.602 4.19582 -0.650863 0
M  V30 4530 O 439.626 3.50889 -0.612789 0
M  V30 4531 O 438.485 5.42106 -0.691623 0
M  V30 4532 H 435.579 0.824091 -0.0693 0
M  V30 4533 H 438.125 1.45736 -0.869423 0
M  V30 4534 H 436.897 3.51851 -1.71221 0
M  V30 4535 H 436.52 3.97556 -0.0592211 0
M  V30 4536 N 437.518 0.538854 1.48102 0
M  V30 4537 C 438.765 0.0080018 2.02498 0
M  V30 4538 C 439.093 -1.33437 1.41509 0
M  V30 4539 O 438.348 -1.87709 0.553507 0
M  V30 4540 C 438.647 -0.153808 3.57069 0
M  V30 4541 C 438.313 1.11533 4.36888 0
M  V30 4542 C 436.975 1.46314 4.58417 0
M  V30 4543 C 439.327 1.95718 4.83057 0
M  V30 4544 C 436.655 2.6516 5.23361 0
M  V30 4545 C 439.007 3.13751 5.49312 0
M  V30 4546 C 437.671 3.48866 5.69077 0
M  V30 4547 H 436.941 0.00292807 0.740994 0
M  V30 4548 H 439.588 0.706668 1.77984 0
M  V30 4549 H 437.893 -0.935309 3.80472 0
M  V30 4550 H 439.59 -0.579607 3.96789 0
M  V30 4551 H 436.18 0.834484 4.20398 0
M  V30 4552 H 440.364 1.70158 4.66219 0
M  V30 4553 H 435.62 2.92558 5.36861 0
M  V30 4554 H 439.794 3.79282 5.84053 0
M  V30 4555 H 437.421 4.41054 6.19173 0
M  V30 4556 N 438.996 -1.55193 0.274407 0
M  V30 4557 C 439.906 -2.26164 -0.623473 0
M  V30 4558 C 440.922 -1.28729 -1.17068 0
M  V30 4559 O 442.098 -1.61663 -1.20112 0
M  V30 4560 C 439.163 -2.96833 -1.7914 0
M  V30 4561 C 438.224 -4.09745 -1.28093 0
M  V30 4562 C 437.457 -4.77034 -2.3932 0
M  V30 4563 O 437.68 -4.4353 -3.5866 0
M  V30 4564 O 436.614 -5.64996 -2.07516 0
M  V30 4565 H 440.44 -3.03661 -0.0485661 0
M  V30 4566 H 438.025 -1.49341 0.0418382 0
M  V30 4567 H 439.907 -3.41248 -2.4724 0
M  V30 4568 H 438.582 -2.22253 -2.35341 0
M  V30 4569 H 437.489 -3.69787 -0.566416 0
M  V30 4570 H 438.822 -4.86224 -0.764683 0
M  V30 4571 N 440.474 -0.00167713 -1.576 0
M  V30 4572 C 441.404 0.988091 -2.11563 0
M  V30 4573 C 442.385 1.35736 -1.02517 0
M  V30 4574 O 443.57 1.44082 -1.30208 0
M  V30 4575 C 440.7 2.27941 -2.62031 0
M  V30 4576 C 439.654 2.0517 -3.75619 0
M  V30 4577 C 438.98 3.4033 -4.12407 0
M  V30 4578 C 440.28 1.41294 -5.02825 0
M  V30 4579 H 441.974 0.538771 -2.94513 0
M  V30 4580 H 439.52 0.257712 -1.41675 0
M  V30 4581 H 441.473 2.97539 -2.9841 0
M  V30 4582 H 440.197 2.74989 -1.76205 0
M  V30 4583 H 438.856 1.37998 -3.39635 0
M  V30 4584 H 438.504 3.85085 -3.23603 0
M  V30 4585 H 438.204 3.25909 -4.88935 0
M  V30 4586 H 439.728 4.1124 -4.51347 0
M  V30 4587 H 441.142 2.00851 -5.36965 0
M  V30 4588 H 439.539 1.37356 -5.84169 0
M  V30 4589 H 440.609 0.382362 -4.8339 0
M  V30 4590 N 441.952 1.55251 0.271103 0
M  V30 4591 C 443.198 1.76207 1.00394 0
M  V30 4592 C 443.531 0.562604 1.85872 0
M  V30 4593 O 442.806 -0.439785 1.89463 0
M  V30 4594 C 443.089 3.06828 1.8849 0
M  V30 4595 C 442.942 4.37134 1.05992 0
M  V30 4596 C 444.261 3.33503 2.87165 0
M  V30 4597 H 441.38 0.641086 0.363562 0
M  V30 4598 H 444.022 1.87982 0.276189 0
M  V30 4599 H 442.172 2.96921 2.5054 0
M  V30 4600 H 443.844 4.59001 0.459978 0
M  V30 4601 H 442.087 4.32275 0.363443 0
M  V30 4602 H 442.758 5.2486 1.70955 0
M  V30 4603 H 445.234 3.43215 2.3525 0
M  V30 4604 H 444.11 4.2616 3.45946 0
M  V30 4605 H 444.371 2.53235 3.62387 0
M  V30 4606 N 443.43 -0.535701 1.48216 0
M  V30 4607 C 444.676 -1.29375 1.56173 0
M  V30 4608 C 445.009 -1.92804 0.232429 0
M  V30 4609 O 444.284 -1.78992 -0.761048 0
M  V30 4610 C 444.567 -2.38747 2.69577 0
M  V30 4611 C 444.42 -1.80046 4.12193 0
M  V30 4612 C 445.739 -3.40551 2.78771 0
M  V30 4613 H 442.858 -0.469027 0.568491 0
M  V30 4614 H 445.5 -0.597358 1.80365 0
M  V30 4615 H 443.65 -2.98147 2.4908 0
M  V30 4616 H 445.322 -1.24742 4.44114 0
M  V30 4617 H 443.565 -1.10609 4.19462 0
M  V30 4618 H 444.236 -2.59212 4.87353 0
M  V30 4619 H 446.712 -2.91099 2.97322 0
M  V30 4620 H 445.588 -4.1448 3.59857 0
M  V30 4621 H 445.849 -4.00746 1.86696 0
M  V30 4622 N 444.908 -1.36708 -0.784132 0
M  V30 4623 C 446.157 -1.30559 -1.53744 0
M  V30 4624 C 446.47 0.111374 -1.95283 0
M  V30 4625 O 447.676 0.29527 -2.6989 0
M  V30 4626 C 446.132 -2.29098 -2.77565 0
M  V30 4627 C 445.74 -3.76258 -2.43174 0
M  V30 4628 C 447.484 -2.31936 -3.55536 0
M  V30 4629 C 445.391 -4.6656 -3.63422 0
M  V30 4630 H 444.321 -0.48518 -0.577162 0
M  V30 4631 H 446.972 -1.62101 -0.859981 0
M  V30 4632 H 445.354 -1.90557 -3.47137 0
M  V30 4633 H 446.528 -4.23565 -1.81465 0
M  V30 4634 H 444.843 -3.76246 -1.78403 0
M  V30 4635 H 447.44 -2.9661 -4.44889 0
M  V30 4636 H 447.783 -1.3294 -3.94503 0
M  V30 4637 H 448.316 -2.6912 -2.92949 0
M  V30 4638 H 445.055 -5.66638 -3.29547 0
M  V30 4639 H 444.575 -4.23966 -4.24279 0
M  V30 4640 H 446.254 -4.8309 -4.30387 0
M  V30 4641 N 446.386 1.0089 -1.21074 0
M  V30 4642 C 447.316 2.1145 -0.990523 0
M  V30 4643 C 448.297 1.69897 0.0831699 0
M  V30 4644 O 449.482 1.94052 -0.0758853 0
M  V30 4645 C 446.612 3.42914 -0.550177 0
M  V30 4646 C 445.566 3.98244 -1.56799 0
M  V30 4647 C 444.892 5.25568 -0.984013 0
M  V30 4648 C 446.192 4.30752 -2.95381 0
M  V30 4649 H 447.886 2.3013 -1.91521 0
M  V30 4650 H 445.432 1.10592 -0.92225 0
M  V30 4651 H 447.385 4.19653 -0.383305 0
M  V30 4652 H 446.109 3.24014 0.41015 0
M  V30 4653 H 444.768 3.23621 -1.72236 0
M  V30 4654 H 444.416 5.02998 -0.0155216 0
M  V30 4655 H 444.116 5.63551 -1.66384 0
M  V30 4656 H 445.64 6.04955 -0.828378 0
M  V30 4657 H 447.054 4.98349 -2.8341 0
M  V30 4658 H 445.451 4.79869 -3.60341 0
M  V30 4659 H 446.521 3.39192 -3.46521 0
M  V30 4660 N 447.864 1.01787 1.20321 0
M  V30 4661 C 448.774 0.598898 2.26827 0
M  V30 4662 C 449.79 -0.36418 1.70146 0
M  V30 4663 O 450.966 -0.224812 2.00141 0
M  V30 4664 C 448.031 -0.0549769 3.46656 0
M  V30 4665 C 447.092 0.954205 4.18561 0
M  V30 4666 C 446.325 0.331439 5.3267 0
M  V30 4667 O 446.548 -0.86851 5.63749 0
M  V30 4668 O 445.482 1.0488 5.92692 0
M  V30 4669 H 449.308 1.48562 2.64883 0
M  V30 4670 H 446.893 0.787434 1.26964 0
M  V30 4671 H 448.775 -0.420102 4.19301 0
M  V30 4672 H 447.45 -0.915876 3.10473 0
M  V30 4673 H 446.357 1.37072 3.48083 0
M  V30 4674 H 447.69 1.78511 4.58688 0
M  V30 4675 N 449.342 -1.36122 0.79427 0
M  V30 4676 C 450.59 -1.98718 0.368177 0
M  V30 4677 C 450.911 -1.63345 -1.06506 0
M  V30 4678 O 450.181 -0.909825 -1.73491 0
M  V30 4679 H 448.761 -0.735038 0.133146 0
M  V30 4680 H 451.423 -1.66239 1.01739 0
M  V30 4681 H 450.519 -3.08633 0.463923 0
M  V30 4682 N 450.82 -0.546701 -1.47814 0
M  V30 4683 C 451.753 0.254472 -2.26777 0
M  V30 4684 C 452.731 0.929809 -1.33392 0
M  V30 4685 O 453.915 0.950889 -1.62759 0
M  V30 4686 C 451.042 1.36171 -3.10121 0
M  V30 4687 C 450.088 0.796038 -4.19005 0
M  V30 4688 S 450.921 -0.349191 -5.3436 0
M  V30 4689 C 452.077 0.760122 -6.21267 0
M  V30 4690 H 452.31 -0.415612 -2.94381 0
M  V30 4691 H 449.843 -0.332809 -1.5077 0
M  V30 4692 H 451.801 1.99588 -3.58713 0
M  V30 4693 H 450.462 2.00359 -2.41899 0
M  V30 4694 H 449.655 1.62719 -4.7701 0
M  V30 4695 H 449.257 0.238246 -3.7324 0
M  V30 4696 H 451.549 1.65479 -6.5698 0
M  V30 4697 H 452.492 0.217673 -7.07765 0
M  V30 4698 H 452.9 1.04806 -5.54685 0
M  V30 4699 N 452.299 1.55045 -0.282633 0
M  V30 4700 C 453.545 2.00056 0.332481 0
M  V30 4701 C 453.878 1.1708 1.54939 0
M  V30 4702 O 453.153 0.2427 1.9298 0
M  V30 4703 C 453.436 3.53086 0.70725 0
M  V30 4704 C 453.289 4.46813 -0.517521 0
M  V30 4705 C 454.608 4.12245 1.54084 0
M  V30 4706 H 451.727 0.727268 0.119373 0
M  V30 4707 H 454.369 1.85932 -0.391076 0
M  V30 4708 H 452.519 3.65253 1.32372 0
M  V30 4709 H 454.191 4.46579 -1.15607 0
M  V30 4710 H 452.434 4.18163 -1.1542 0
M  V30 4711 H 453.105 5.51595 -0.211426 0
M  V30 4712 H 455.581 4.03401 1.02013 0
M  V30 4713 H 454.457 5.19515 1.77186 0
M  V30 4714 H 454.718 3.62951 2.52427 0
M  V30 4715 N 453.777 0.010035 1.57597 0
M  V30 4716 C 454.687 -0.994226 2.12491 0
M  V30 4717 C 455.703 -1.37013 1.07254 0
M  V30 4718 O 456.879 -1.45542 1.3921 0
M  V30 4719 C 453.944 -2.2642 2.62555 0
M  V30 4720 C 453.005 -1.95049 3.82432 0
M  V30 4721 C 452.238 -3.15991 4.30099 0
M  V30 4722 O 452.461 -4.28015 3.7704 0
M  V30 4723 O 451.395 -2.99403 5.22151 0
M  V30 4724 H 455.221 -0.557549 2.98538 0
M  V30 4725 H 452.806 -0.209413 1.47925 0
M  V30 4726 H 454.688 -3.01009 2.9491 0
M  V30 4727 H 453.363 -2.69306 1.796 0
M  V30 4728 H 452.27 -1.17904 3.55034 0
M  V30 4729 H 453.603 -1.56992 4.66491 0
M  V30 4730 N 455.255 -1.55392 -0.262866 0
M  V30 4731 C 456.218 -1.88181 -1.30846 0
M  V30 4732 C 457.218 -0.757079 -1.41862 0
M  V30 4733 O 458.408 -1.02519 -1.40838 0
M  V30 4734 C 455.54 -2.09609 -2.68844 0
M  V30 4735 H 456.733 -2.81659 -1.02997 0
M  V30 4736 H 454.286 -1.48039 -0.501414 0
M  V30 4737 H 455.021 -1.18547 -3.01856 0
M  V30 4738 H 454.806 -2.91508 -2.62231 0
M  V30 4739 H 456.296 -2.36215 -3.44372 0
M  V30 4740 N 456.733 0.527833 -1.48498 0
M  V30 4741 C 457.961 1.30823 -1.6029 0
M  V30 4742 C 458.376 1.86945 -0.263974 0
M  V30 4743 O 457.733 1.6651 0.747034 0
M  V30 4744 C 457.784 2.45756 -2.65116 0
M  V30 4745 O 457.505 1.91946 -3.93813 0
M  V30 4746 C 459.006 3.37543 -2.87367 0
M  V30 4747 H 456.226 0.397763 -0.540394 0
M  V30 4748 H 458.77 0.636529 -1.94341 0
M  V30 4749 H 456.925 3.08806 -2.33917 0
M  V30 4750 H 457.339 2.67195 -4.51339 0
M  V30 4751 H 458.813 4.14532 -3.6451 0
M  V30 4752 H 459.29 3.92905 -1.9627 0
M  V30 4753 H 459.896 2.80283 -3.19878 0
M  V30 4754 N 458.211 1.37122 0.776871 0
M  V30 4755 C 459.174 1.32301 1.8716 0
M  V30 4756 C 460.174 0.228099 1.59174 0
M  V30 4757 O 461.364 0.483642 1.67352 0
M  V30 4758 C 458.496 1.054 3.24197 0
M  V30 4759 H 459.689 2.29673 1.92848 0
M  V30 4760 H 457.242 1.22077 0.97606 0
M  V30 4761 H 457.977 0.0853872 3.24188 0
M  V30 4762 H 457.762 1.84648 3.45901 0
M  V30 4763 H 459.252 1.04664 4.04271 0
M  V30 4764 N 459.689 -1.00246 1.21608 0
M  V30 4765 C 460.622 -2.08794 0.920892 0
M  V30 4766 C 461.6 -1.62059 -0.132552 0
M  V30 4767 O 462.784 -1.885 -0.0030366 0
M  V30 4768 C 459.911 -3.36525 0.383226 0
M  V30 4769 C 458.957 -4.02172 1.41987 0
M  V30 4770 S 459.79 -4.44256 2.98994 0
M  V30 4771 C 460.946 -5.7517 2.4684 0
M  V30 4772 H 461.179 -2.33511 1.8401 0
M  V30 4773 H 458.712 -1.13562 1.04609 0
M  V30 4774 H 460.67 -4.10423 0.0795871 0
M  V30 4775 H 459.331 -3.09854 -0.514711 0
M  V30 4776 H 458.524 -4.94114 0.993335 0
M  V30 4777 H 458.126 -3.34559 1.67171 0
M  V30 4778 H 460.418 -6.51042 1.87484 0
M  V30 4779 H 461.361 -6.22638 3.37235 0
M  V30 4780 H 461.769 -5.32112 1.88461 0
M  V30 4781 N 461.167 -1.02423 -1.1978 0
M  V30 4782 C 462.395 -0.737456 -1.93311 0
M  V30 4783 C 462.81 0.703023 -1.75223 0
M  V30 4784 O 462.167 1.47761 -1.07112 0
M  V30 4785 C 462.218 -1.0733 -3.45199 0
M  V30 4786 O 461.939 -2.4572 -3.62702 0
M  V30 4787 C 463.44 -0.80866 -4.35862 0
M  V30 4788 H 460.66 -0.2702 -0.614193 0
M  V30 4789 H 463.204 -1.36747 -1.52054 0
M  V30 4790 H 461.359 -0.488545 -3.84307 0
M  V30 4791 H 461.773 -2.58081 -4.56612 0
M  V30 4792 H 463.247 -1.09365 -5.41057 0
M  V30 4793 H 463.724 0.257025 -4.38447 0
M  V30 4794 H 464.33 -1.37592 -4.02428 0
M  V30 4795 N 462.645 1.35699 -0.801477 0
M  V30 4796 C 463.873 2.03157 -0.391768 0
M  V30 4797 C 464.288 1.60412 0.995668 0
M  V30 4798 O 463.645 0.799228 1.64069 0
M  V30 4799 C 463.696 3.58566 -0.459671 0
M  V30 4800 O 463.417 3.99756 -1.7924 0
M  V30 4801 C 464.918 4.4328 -0.0421205 0
M  V30 4802 H 462.138 0.651688 -0.159825 0
M  V30 4803 H 464.682 1.73426 -1.08368 0
M  V30 4804 H 462.837 3.86963 0.183939 0
M  V30 4805 H 463.251 4.94387 -1.75162 0
M  V30 4806 H 464.725 5.51821 -0.140754 0
M  V30 4807 H 465.202 4.27383 1.01196 0
M  V30 4808 H 465.808 4.20168 -0.658687 0
M  V30 4809 N 464.123 0.554532 1.47522 0
M  V30 4810 C 465.055 -0.232106 2.28022 0
M  V30 4811 C 466.068 -0.881865 1.36847 0
M  V30 4812 O 467.257 -0.756168 1.61692 0
M  V30 4813 C 464.357 -1.34604 3.11022 0
M  V30 4814 C 463.53 -0.793582 4.30141 0
M  V30 4815 C 462.589 -1.79168 4.94758 0
M  V30 4816 O 461.615 -1.33886 5.5323 0
M  V30 4817 N 462.817 -3.12495 4.89211 0
M  V30 4818 H 465.582 0.458407 2.96173 0
M  V30 4819 H 463.143 0.390433 1.57122 0
M  V30 4820 H 465.135 -2.01243 3.51118 0
M  V30 4821 H 463.705 -1.93983 2.45131 0
M  V30 4822 H 462.925 0.0495025 3.94169 0
M  V30 4823 H 464.213 -0.403776 5.07195 0
M  V30 4824 H 463.611 -3.51931 4.42901 0
M  V30 4825 H 462.168 -3.74698 5.33333 0
M  V30 4826 N 465.601 -1.54893 0.290851 0
M  V30 4827 C 466.841 -2.01842 -0.322388 0
M  V30 4828 C 467.205 -1.17477 -1.51865 0
M  V30 4829 O 468.406 -1.54077 -2.20258 0
M  V30 4830 C 466.677 -3.50874 -0.679844 0
M  V30 4831 S 468.236 -4.19796 -1.27739 0
M  V30 4832 H 465.054 -0.704005 -0.0994866 0
M  V30 4833 H 467.656 -1.91015 0.416358 0
M  V30 4834 H 466.36 -4.09915 0.199435 0
M  V30 4835 H 465.891 -3.65717 -1.44964 0
M  V30 4836 H 467.906 -4.24729 -2.56554 0
M  V30 4837 N 467.08 -0.0183926 -1.57589 0
M  V30 4838 C 468.496 0.337897 -1.55982 0
M  V30 4839 C 468.696 1.73604 -1.02294 0
M  V30 4840 O 467.752 2.43589 -0.664895 0
M  V30 4841 C 469.065 0.196305 -3.00059 0
M  V30 4842 C 470.613 0.269875 -3.11834 0
M  V30 4843 C 471.088 0.157197 -4.5773 0
M  V30 4844 N 472.579 0.214521 -4.62703 0
M  V30 4845 C 473.314 0.150955 -5.73201 0
M  V30 4846 N 472.81 0.0369212 -6.9279 0
M  V30 4847 N 474.603 0.204162 -5.61729 0
M  V30 4848 H 466.754 -0.93279 -1.90821 0
M  V30 4849 H 469.017 -0.359253 -0.877292 0
M  V30 4850 H 468.723 -0.766383 -3.43248 0
M  V30 4851 H 468.597 0.970908 -3.6449 0
M  V30 4852 H 470.984 1.22302 -2.68563 0
M  V30 4853 H 471.065 -0.534918 -2.50144 0
M  V30 4854 H 470.709 -0.792479 -5.01679 0
M  V30 4855 H 470.639 0.980717 -5.17387 0
M  V30 4856 H 473.13 0.303238 -3.76681 0
M  V30 4857 H 473.443 -0.00518321 -7.728 0
M  V30 4858 H 471.788 0.0022886 -6.95 0
M  V30 4859 H 474.979 0.291575 -4.67191 0
M  V30 4860 H 475.152 0.15116 -6.47824 0
M  V30 4861 N 468.558 1.5553 0.254621 0
M  V30 4862 C 469.783 1.81383 1.00573 0
M  V30 4863 C 470.208 0.594419 1.78461 0
M  V30 4864 O 469.566 -0.456403 1.75461 0
M  V30 4865 C 469.614 3.04892 1.92545 0
M  V30 4866 O 468.718 2.81266 3.01601 0
M  V30 4867 H 468.059 0.598969 0.286587 0
M  V30 4868 H 470.589 2.02703 0.277952 0
M  V30 4869 H 470.599 3.34119 2.34155 0
M  V30 4870 H 469.274 3.93287 1.3527 0
M  V30 4871 H 467.851 2.63185 2.64174 0
M  V30 4872 N 470.036 -0.519951 1.48776 0
M  V30 4873 C 471.261 -1.30447 1.6124 0
M  V30 4874 C 471.686 -1.86055 0.276591 0
M  V30 4875 O 471.044 -1.64915 -0.753183 0
M  V30 4876 C 471.092 -2.42406 2.66967 0
M  V30 4877 O 470.196 -3.45728 2.24824 0
M  V30 4878 H 469.537 -0.385924 0.540332 0
M  V30 4879 H 472.067 -0.624572 1.94834 0
M  V30 4880 H 472.077 -2.88447 2.88552 0
M  V30 4881 H 470.752 -2.01294 3.63941 0
M  V30 4882 H 469.329 -3.05737 2.13494 0
M  V30 4883 N 471.514 -1.37532 -0.769588 0
M  V30 4884 C 472.744 -1.35861 -1.55645 0
M  V30 4885 C 473.152 0.0574398 -1.89113 0
M  V30 4886 O 472.495 1.03021 -1.52093 0
M  V30 4887 C 472.557 -2.13431 -2.89288 0
M  V30 4888 C 472.221 -3.62378 -2.78444 0
M  V30 4889 C 473.218 -4.56215 -2.49326 0
M  V30 4890 C 470.903 -4.05529 -2.96398 0
M  V30 4891 C 472.897 -5.91181 -2.38294 0
M  V30 4892 C 470.584 -5.40579 -2.84987 0
M  V30 4893 C 471.582 -6.33218 -2.55975 0
M  V30 4894 O 471.27 -7.65787 -2.44594 0
M  V30 4895 H 471.002 -0.467001 -0.48876 0
M  V30 4896 H 473.556 -1.81505 -0.961515 0
M  V30 4897 H 471.786 -1.62481 -3.50909 0
M  V30 4898 H 473.475 -2.04368 -3.50697 0
M  V30 4899 H 474.241 -4.24187 -2.35139 0
M  V30 4900 H 470.12 -3.33781 -3.1798 0
M  V30 4901 H 473.664 -6.63457 -2.15571 0
M  V30 4902 H 469.561 -5.72209 -2.98743 0
M  V30 4903 H 470.329 -7.76132 -2.59927 0
M  V30 4904 N 472.992 0.995999 -1.22138 0
M  V30 4905 C 473.922 2.10387 -1.01289 0
M  V30 4906 C 474.903 1.69975 0.0651454 0
M  V30 4907 O 476.088 1.9396 -0.0964628 0
M  V30 4908 C 473.218 3.42312 -0.586517 0
M  V30 4909 C 472.172 3.96558 -1.61014 0
M  V30 4910 C 471.498 5.24494 -1.0397 0
M  V30 4911 C 472.798 4.27595 -2.99933 0
M  V30 4912 H 474.492 2.28086 -1.93951 0
M  V30 4913 H 472.038 1.09607 -0.933928 0
M  V30 4914 H 473.991 4.19223 -0.427793 0
M  V30 4915 H 472.715 3.24431 0.375761 0
M  V30 4916 H 471.374 3.21776 -1.75658 0
M  V30 4917 H 471.022 5.02953 -0.0688703 0
M  V30 4918 H 470.722 5.61755 -1.72352 0
M  V30 4919 H 472.246 6.04042 -0.892494 0
M  V30 4920 H 473.66 4.95315 -2.8868 0
M  V30 4921 H 472.057 4.76021 -3.6541 0
M  V30 4922 H 473.127 3.35498 -3.50099 0
M  V30 4923 N 474.47 1.03057 1.19235 0
M  V30 4924 C 475.881 0.757449 1.70645 0
M  V30 4925 C 476.232 -0.722735 1.82403 0
M  V30 4926 O 475.357 -1.56325 1.49638 0
M  V30 4927 C 475.952 1.36833 3.09939 0
M  V30 4928 C 474.511 1.14375 3.58602 0
M  V30 4929 C 473.658 1.46533 2.35422 0
M  V30 4930 H 476.609 1.19828 1.04052 0
M  V30 4931 H 476.63 0.766184 3.72706 0
M  V30 4932 H 476.142 2.44562 3.01349 0
M  V30 4933 H 474.243 0.0847542 3.72504 0
M  V30 4934 H 474.356 1.83366 4.42622 0
M  V30 4935 H 472.72 0.884712 2.38841 0
M  V30 4936 H 473.503 2.55349 2.2946 0
M  V30 4937 N 475.948 -1.35272 0.808662 0
M  V30 4938 C 477.196 -1.98316 0.389233 0
M  V30 4939 C 477.517 -1.64465 -1.04767 0
M  V30 4940 O 476.787 -0.928175 -1.72516 0
M  V30 4941 H 475.367 -0.733585 0.140935 0
M  V30 4942 H 478.029 -1.6515 1.03496 0
M  V30 4943 H 477.125 -3.08123 0.496631 0
M  V30 4944 N 477.426 -0.562348 -1.47226 0
M  V30 4945 C 478.336 0.185466 -2.33866 0
M  V30 4946 C 479.352 0.906713 -1.48508 0
M  V30 4947 O 480.528 0.874458 -1.81425 0
M  V30 4948 C 477.593 1.19904 -3.25306 0
M  V30 4949 C 476.654 0.484669 -4.26555 0
M  V30 4950 C 475.887 1.44996 -5.13626 0
M  V30 4951 O 476.11 2.68515 -5.03245 0
M  V30 4952 O 475.044 0.971642 -5.94006 0
M  V30 4953 H 478.87 -0.525361 -2.99121 0
M  V30 4954 H 476.455 -0.322916 -1.45868 0
M  V30 4955 H 478.337 1.78399 -3.81774 0
M  V30 4956 H 477.012 1.8917 -2.62672 0
M  V30 4957 H 475.919 -0.141605 -3.73832 0
M  V30 4958 H 477.252 -0.166634 -4.91918 0
M  V30 4959 N 478.904 1.54736 -0.299062 0
M  V30 4960 C 479.834 2.26409 0.571085 0
M  V30 4961 C 480.815 1.2629 1.13951 0
M  V30 4962 O 482 1.55059 1.16921 0
M  V30 4963 C 479.13 3.00338 1.74396 0
M  V30 4964 C 478.084 4.07588 1.30599 0
M  V30 4965 C 477.41 4.69222 2.56387 0
M  V30 4966 C 478.71 5.20455 0.438645 0
M  V30 4967 H 480.404 2.99388 -0.0266991 0
M  V30 4968 H 477.95 1.43993 -0.0142812 0
M  V30 4969 H 479.903 3.49198 2.35878 0
M  V30 4970 H 478.627 2.24934 2.36796 0
M  V30 4971 H 477.286 3.59575 0.71424 0
M  V30 4972 H 476.934 3.9046 3.17097 0
M  V30 4973 H 476.634 5.41653 2.27784 0
M  V30 4974 H 478.158 5.20844 3.18675 0
M  V30 4975 H 479.572 5.65221 0.959085 0
M  V30 4976 H 477.969 5.99594 0.246466 0
M  V30 4977 H 479.039 4.8192 -0.536738 0
M  V30 4978 N 480.382 0.0267497 1.57577 0
M  V30 4979 C 481.312 -0.954308 2.13108 0
M  V30 4980 C 482.293 -1.34088 1.04663 0
M  V30 4981 O 483.478 -1.41992 1.32484 0
M  V30 4982 C 480.608 -2.23744 2.65624 0
M  V30 4983 C 479.562 -1.99168 3.78835 0
M  V30 4984 C 478.888 -3.33726 4.17769 0
M  V30 4985 C 480.188 -1.33277 5.0501 0
M  V30 4986 H 481.882 -0.491848 2.95332 0
M  V30 4987 H 479.428 -0.23514 1.42067 0
M  V30 4988 H 481.381 -2.92754 3.03106 0
M  V30 4989 H 480.105 -2.72151 1.80558 0
M  V30 4990 H 478.764 -1.32577 3.41788 0
M  V30 4991 H 478.412 -3.79888 3.29688 0
M  V30 4992 H 478.112 -3.18089 4.94058 0
M  V30 4993 H 479.636 -4.04008 4.57832 0
M  V30 4994 H 481.05 -1.92283 5.40093 0
M  V30 4995 H 479.447 -1.28045 5.8628 0
M  V30 4996 H 480.517 -0.305411 4.83937 0
M  V30 4997 N 481.861 -1.55662 -0.24637 0
M  V30 4998 C 483.107 -1.78698 -0.971525 0
M  V30 4999 C 483.462 -0.59577 -1.82944 0
M  V30 5000 O 482.755 0.41097 -1.87141 0
M  V30 5001 C 482.949 -3.04885 -1.86494 0
M  V30 5002 C 482.778 -4.36165 -1.09501 0
M  V30 5003 C 481.548 -4.98929 -0.799895 0
M  V30 5004 C 483.746 -5.12126 -0.472334 0
M  V30 5005 N 481.728 -6.139 -0.00595299 0
M  V30 5006 C 483.099 -6.1972 0.18616 0
M  V30 5007 C 485.154 -4.96426 -0.382854 0
M  V30 5008 C 483.857 -7.13321 0.925542 0
M  V30 5009 C 485.883 -5.90405 0.342999 0
M  V30 5010 C 485.245 -6.97407 0.990128 0
M  V30 5011 H 481.344 -0.705852 -0.336597 0
M  V30 5012 H 483.928 -1.93157 -0.244615 0
M  V30 5013 H 482.099 -2.91753 -2.56388 0
M  V30 5014 H 483.831 -3.16212 -2.5257 0
M  V30 5015 H 480.586 -4.60365 -1.11181 0
M  V30 5016 H 481.01 -6.75938 0.379127 0
M  V30 5017 H 485.652 -4.13777 -0.868834 0
M  V30 5018 H 483.37 -7.9547 1.42312 0
M  V30 5019 H 486.956 -5.80333 0.412907 0
M  V30 5020 H 485.836 -7.68874 1.54282 0
M  V30 5021 N 483.339 0.512053 -1.4905 0
M  V30 5022 C 484.587 1.26436 -1.57665 0
M  V30 5023 C 484.908 1.93255 -0.260293 0
M  V30 5024 O 484.178 1.82206 0.719564 0
M  V30 5025 H 482.758 0.469658 -0.580888 0
M  V30 5026 H 485.42 0.594398 -1.85615 0
M  V30 5027 H 484.516 2.03417 -2.36702 0
M  V30 5028 N 484.817 1.37938 0.762283 0
M  V30 5029 C 485.767 1.30976 1.86626 0
M  V30 5030 C 486.751 0.195714 1.59705 0
M  V30 5031 O 487.943 0.430937 1.71674 0
M  V30 5032 C 485.072 1.12847 3.24223 0
M  V30 5033 C 484.158 2.28836 3.57064 0
M  V30 5034 N 484.549 3.54256 3.61022 0
M  V30 5035 C 482.847 2.21198 3.87282 0
M  V30 5036 C 483.548 4.30798 3.90881 0
M  V30 5037 N 482.524 3.60049 4.07266 0
M  V30 5038 H 486.326 2.25946 1.87951 0
M  V30 5039 H 483.84 1.31046 0.959206 0
M  V30 5040 H 485.837 1.05943 4.03214 0
M  V30 5041 H 484.497 0.188024 3.24155 0
M  V30 5042 H 485.508 3.8804 3.42995 0
M  V30 5043 H 482.185 1.35264 3.94981 0
M  V30 5044 H 483.575 5.39386 4.00639 0
M  V30 5045 N 486.295 -0.989507 1.22664 0
M  V30 5046 C 487.711 -1.25395 0.987331 0
M  V30 5047 C 487.911 -1.9899 -0.317056 0
M  V30 5048 O 486.967 -2.30141 -1.03882 0
M  V30 5049 C 488.28 -2.06242 2.18826 0
M  V30 5050 C 489.828 -2.19413 2.23219 0
M  V30 5051 C 490.303 -3.03648 3.42873 0
M  V30 5052 N 491.794 -3.11234 3.43056 0
M  V30 5053 C 492.529 -3.7671 4.32293 0
M  V30 5054 N 492.025 -4.44085 5.31752 0
M  V30 5055 N 493.818 -3.73505 4.2006 0
M  V30 5056 H 485.969 -0.496212 2.06522 0
M  V30 5057 H 488.232 -0.281784 0.905153 0
M  V30 5058 H 487.938 -1.59531 3.13437 0
M  V30 5059 H 487.812 -3.06996 2.19165 0
M  V30 5060 H 490.199 -2.65336 1.29154 0
M  V30 5061 H 490.28 -1.18078 2.26917 0
M  V30 5062 H 489.924 -2.58424 4.37241 0
M  V30 5063 H 489.854 -4.05132 3.36416 0
M  V30 5064 H 492.345 -2.63287 2.71088 0
M  V30 5065 H 492.658 -4.91797 5.96117 0
M  V30 5066 H 491.003 -4.42822 5.35662 0
M  V30 5067 H 494.194 -3.20033 3.41609 0
M  V30 5068 H 494.367 -4.24253 4.8981 0
M  V30 5069 N 487.773 -1.03688 -1.18687 0
M  V30 5070 C 489.02 -0.73803 -1.88572 0
M  V30 5071 C 489.348 0.733973 -1.8012 0
M  V30 5072 O 488.603 1.55098 -1.19344 0
M  V30 5073 C 488.902 -1.14477 -3.3857 0
M  V30 5074 C 488.568 -2.61641 -3.67226 0
M  V30 5075 C 487.23 -3.01846 -3.74757 0
M  V30 5076 C 489.582 -3.56812 -3.79914 0
M  V30 5077 C 486.91 -4.36118 -3.92451 0
M  V30 5078 C 489.262 -4.90799 -3.99123 0
M  V30 5079 C 487.926 -5.3068 -4.04888 0
M  V30 5080 H 487.196 -0.270064 -0.690034 0
M  V30 5081 H 489.843 -1.3012 -1.40503 0
M  V30 5082 H 488.148 -0.500337 -3.88592 0
M  V30 5083 H 489.845 -0.89095 -3.90977 0
M  V30 5084 H 486.435 -2.29498 -3.61979 0
M  V30 5085 H 490.619 -3.26899 -3.73431 0
M  V30 5086 H 485.875 -4.66542 -3.95157 0
M  V30 5087 H 490.049 -5.64451 -4.07882 0
M  V30 5088 H 487.676 -6.34733 -4.18351 0
M  V30 5089 N 489.251 1.34841 -0.815825 0
M  V30 5090 C 490.161 2.33425 -0.234462 0
M  V30 5091 C 491.177 1.62295 0.627413 0
M  V30 5092 O 492.353 1.94109 0.536987 0
M  V30 5093 C 489.418 3.41471 0.599849 0
M  V30 5094 C 488.479 4.28362 -0.283596 0
M  V30 5095 C 487.712 5.31248 0.51099 0
M  V30 5096 O 487.935 5.43056 1.7449 0
M  V30 5097 O 486.869 6.01812 -0.10297 0
M  V30 5098 H 490.695 2.84962 -1.05024 0
M  V30 5099 H 488.28 1.37774 -0.577809 0
M  V30 5100 H 490.162 4.07464 1.07475 0
M  V30 5101 H 488.837 2.9219 1.39308 0
M  V30 5102 H 487.744 3.65318 -0.805836 0
M  V30 5103 H 489.077 4.81066 -1.041 0
M  V30 5104 N 490.729 0.570148 1.46925 0
M  V30 5105 C 492.14 0.1402 1.86173 0
M  V30 5106 C 492.491 -1.29347 1.47526 0
M  V30 5107 O 491.616 -1.97508 0.884292 0
M  V30 5108 C 492.211 0.247661 3.37894 0
M  V30 5109 C 490.77 -0.127332 3.76185 0
M  V30 5110 C 489.917 0.589349 2.70965 0
M  V30 5111 H 492.868 0.779117 1.38259 0
M  V30 5112 H 492.889 -0.530341 3.76786 0
M  V30 5113 H 492.401 1.29121 3.65991 0
M  V30 5114 H 490.502 -1.17149 3.53704 0
M  V30 5115 H 490.615 0.240238 4.78497 0
M  V30 5116 H 488.979 0.0309824 2.54681 0
M  V30 5117 H 489.762 1.6343 3.01903 0
M  V30 5118 N 492.207 -1.54576 0.307264 0
M  V30 5119 C 493.453 -2.0056 -0.300612 0
M  V30 5120 C 493.786 -1.1953 -1.53057 0
M  V30 5121 O 493.061 -0.27337 -1.92569 0
M  V30 5122 C 493.344 -3.54167 -0.650987 0
M  V30 5123 C 493.197 -4.45933 0.588539 0
M  V30 5124 C 494.516 -4.14645 -1.47506 0
M  V30 5125 H 491.635 -0.729075 -0.107788 0
M  V30 5126 H 494.277 -1.85286 0.420606 0
M  V30 5127 H 492.427 -3.67313 -1.26544 0
M  V30 5128 H 494.099 -4.44683 1.22697 0
M  V30 5129 H 492.342 -4.16274 1.22058 0
M  V30 5130 H 493.013 -5.51189 0.299153 0
M  V30 5131 H 495.489 -4.04973 -0.955821 0
M  V30 5132 H 494.365 -5.22269 -1.68899 0
M  V30 5133 H 494.626 -3.66921 -2.4662 0
M  V30 5134 N 493.685 -0.035106 -1.57561 0
M  V30 5135 C 494.615 0.942993 -2.13612 0
M  V30 5136 C 495.596 1.33531 -1.05373 0
M  V30 5137 O 496.781 1.41287 -1.33235 0
M  V30 5138 C 493.911 2.22332 -2.66807 0
M  V30 5139 C 492.865 1.97156 -3.79886 0
M  V30 5140 C 492.191 3.31506 -4.19533 0
M  V30 5141 C 493.491 1.30596 -5.05709 0
M  V30 5142 H 495.185 0.476179 -2.95589 0
M  V30 5143 H 492.731 0.227602 -1.4219 0
M  V30 5144 H 494.684 2.91142 -3.04654 0
M  V30 5145 H 493.408 2.7119 -1.81999 0
M  V30 5146 H 492.067 1.30763 -3.42486 0
M  V30 5147 H 491.715 3.78134 -3.31698 0
M  V30 5148 H 491.415 3.15465 -4.95738 0
M  V30 5149 H 492.939 4.01574 -4.59968 0
M  V30 5150 H 494.353 1.89416 -5.41105 0
M  V30 5151 H 492.75 1.24934 -5.86951 0
M  V30 5152 H 493.82 0.279742 -4.84092 0
M  V30 5153 N 495.163 1.55791 0.238111 0
M  V30 5154 C 496.41 1.78033 0.964907 0
M  V30 5155 C 496.738 0.600984 1.84982 0
M  V30 5156 O 495.993 -0.41536 1.91241 0
M  V30 5157 C 496.292 3.05869 1.84875 0
M  V30 5158 C 495.958 4.36808 1.11846 0
M  V30 5159 C 494.62 4.72388 0.916662 0
M  V30 5160 C 496.972 5.17717 0.60151 0
M  V30 5161 C 494.3 5.86406 0.185756 0
M  V30 5162 C 496.652 6.32494 -0.115972 0
M  V30 5163 C 495.316 6.66688 -0.329168 0
M  V30 5164 H 494.586 0.651469 0.353085 0
M  V30 5165 H 497.233 1.90061 0.234318 0
M  V30 5166 H 495.538 2.88891 2.64668 0
M  V30 5167 H 497.235 3.20278 2.41294 0
M  V30 5168 H 493.825 4.08862 1.28569 0
M  V30 5169 H 498.009 4.90678 0.744932 0
M  V30 5170 H 493.265 6.11399 0.0101886 0
M  V30 5171 H 497.439 6.94425 -0.524127 0
M  V30 5172 H 495.066 7.54884 -0.897474 0
M  V30 5173 N 496.642 -0.504142 1.49319 0
M  V30 5174 C 497.574 -1.62265 1.61872 0
M  V30 5175 C 498.587 -1.54881 0.501573 0
M  V30 5176 O 499.776 -1.6087 0.773497 0
M  V30 5177 C 496.876 -3.01042 1.55651 0
M  V30 5178 C 496.049 -3.33642 2.82845 0
M  V30 5179 C 495.108 -4.51816 2.69719 0
M  V30 5180 O 494.134 -4.53755 3.4365 0
M  V30 5181 N 495.336 -5.51543 1.81055 0
M  V30 5182 H 498.101 -1.51924 2.58339 0
M  V30 5183 H 495.662 -0.691954 1.46368 0
M  V30 5184 H 497.654 -3.78013 1.44528 0
M  V30 5185 H 496.224 -3.05323 0.670546 0
M  V30 5186 H 495.444 -2.45598 3.08343 0
M  V30 5187 H 496.732 -3.5222 3.67177 0
M  V30 5188 H 496.13 -5.52774 1.20241 0
M  V30 5189 H 494.687 -6.27629 1.75856 0
M  V30 5190 N 498.12 -1.38341 -0.754957 0
M  V30 5191 C 499.536 -1.19508 -1.05783 0
M  V30 5192 C 499.736 -0.0428005 -2.01455 0
M  V30 5193 O 498.792 0.611861 -2.44975 0
M  V30 5194 C 500.105 -2.52091 -1.63923 0
M  V30 5195 C 501.653 -2.58762 -1.76101 0
M  V30 5196 C 502.128 -3.91517 -2.37652 0
M  V30 5197 N 503.619 -3.93049 -2.45085 0
M  V30 5198 C 504.354 -4.9253 -2.93602 0
M  V30 5199 N 503.85 -6.02408 -3.42165 0
M  V30 5200 N 505.643 -4.79921 -2.92629 0
M  V30 5201 H 497.794 -2.1206 -0.120056 0
M  V30 5202 H 500.057 -0.94089 -0.11589 0
M  V30 5203 H 499.763 -3.36858 -1.01093 0
M  V30 5204 H 499.637 -2.70388 -2.63003 0
M  V30 5205 H 502.024 -1.74391 -2.38058 0
M  V30 5206 H 502.105 -2.44333 -0.757294 0
M  V30 5207 H 501.749 -4.76309 -1.76329 0
M  V30 5208 H 501.679 -4.03256 -3.38662 0
M  V30 5209 H 504.17 -3.13685 -2.10736 0
M  V30 5210 H 504.483 -6.74248 -3.77637 0
M  V30 5211 H 502.828 -6.0603 -3.40225 0
M  V30 5212 H 506.019 -3.93194 -2.54001 0
M  V30 5213 H 506.192 -5.57601 -3.30128 0
M  V30 5214 N 499.598 0.982988 -1.23187 0
M  V30 5215 C 500.846 1.72052 -1.06031 0
M  V30 5216 C 501.167 1.90769 0.404019 0
M  V30 5217 O 500.437 1.47446 1.28982 0
M  V30 5218 H 499.017 0.637499 -0.389363 0
M  V30 5219 H 501.679 1.18338 -1.54862 0
M  V30 5220 H 500.775 2.7111 -1.54615 0
M  V30 5221 N 501.076 1.04316 1.18135 0
M  V30 5222 C 502.301 0.768047 1.92655 0
M  V30 5223 C 502.726 -0.66904 1.758 0
M  V30 5224 O 502.084 -1.46372 1.06981 0
M  V30 5225 C 502.132 1.14239 3.42026 0
M  V30 5226 O 501.236 0.269333 4.1152 0
M  V30 5227 H 500.577 0.282436 0.600937 0
M  V30 5228 H 503.107 1.39367 1.49793 0
M  V30 5229 H 503.117 1.10538 3.92741 0
M  V30 5230 H 501.792 2.18928 3.53615 0
M  V30 5231 H 500.369 0.366175 3.71098 0
M  V30 5232 N 502.554 -1.34406 0.822964 0
M  V30 5233 C 503.486 -2.28305 0.202375 0
M  V30 5234 C 504.499 -1.5103 -0.60777 0
M  V30 5235 O 505.688 -1.73057 -0.437444 0
M  V30 5236 C 502.788 -3.30836 -0.734911 0
M  V30 5237 C 501.961 -4.37388 0.0324177 0
M  V30 5238 C 501.02 -5.1968 -0.825803 0
M  V30 5239 O 500.046 -5.68556 -0.270771 0
M  V30 5240 N 501.248 -5.39393 -2.14558 0
M  V30 5241 H 504.013 -2.82201 1.00909 0
M  V30 5242 H 501.574 -1.4693 0.67993 0
M  V30 5243 H 503.566 -3.82786 -1.31365 0
M  V30 5244 H 502.136 -2.77334 -1.44238 0
M  V30 5245 H 501.356 -3.86152 0.792469 0
M  V30 5246 H 502.644 -5.05702 0.560633 0
M  V30 5247 H 502.042 -5.01357 -2.62025 0
M  V30 5248 H 500.599 -5.94461 -2.67318 0
M  V30 5249 N 504.032 -0.577932 -1.46621 0
M  V30 5250 C 505.262 -0.0670668 -2.06491 0
M  V30 5251 C 505.67 1.24119 -1.42798 0
M  V30 5252 O 505.013 1.76016 -0.525759 0
M  V30 5253 C 505.075 0.177995 -3.59059 0
M  V30 5254 C 504.739 -1.04394 -4.44917 0
M  V30 5255 C 505.736 -1.95479 -4.81751 0
M  V30 5256 C 503.421 -1.26444 -4.86125 0
M  V30 5257 C 505.415 -3.06965 -5.58615 0
M  V30 5258 C 503.102 -2.38237 -5.62749 0
M  V30 5259 C 504.1 -3.28327 -5.98908 0
M  V30 5260 O 503.788 -4.38179 -6.73984 0
M  V30 5261 H 503.52 -0.0523159 -0.673973 0
M  V30 5262 H 506.074 -0.796966 -1.89308 0
M  V30 5263 H 504.304 0.962451 -3.74531 0
M  V30 5264 H 505.993 0.636782 -4.00874 0
M  V30 5265 H 506.759 -1.79657 -4.50498 0
M  V30 5266 H 502.638 -0.572316 -4.57434 0
M  V30 5267 H 506.182 -3.77309 -5.86757 0
M  V30 5268 H 502.079 -2.54023 -5.93416 0
M  V30 5269 H 502.847 -4.36486 -6.92403 0
M  V30 5270 N 505.51 1.54411 -0.315457 0
M  V30 5271 C 506.42 2.27737 0.56329 0
M  V30 5272 C 507.436 1.31787 1.13614 0
M  V30 5273 O 508.612 1.64791 1.15784 0
M  V30 5274 C 505.677 3.01478 1.71207 0
M  V30 5275 C 504.738 4.12997 1.17185 0
M  V30 5276 C 503.971 4.83212 2.26588 0
M  V30 5277 O 504.194 4.52884 3.46775 0
M  V30 5278 O 503.128 5.70299 1.92463 0
M  V30 5279 H 506.954 3.03683 -0.0319614 0
M  V30 5280 H 504.539 1.49178 -0.0814188 0
M  V30 5281 H 506.421 3.47683 2.38106 0
M  V30 5282 H 505.096 2.28414 2.29366 0
M  V30 5283 H 504.003 3.71159 0.468174 0
M  V30 5284 H 505.336 4.8808 0.635501 0
M  V30 5285 N 506.988 0.0434614 1.5754 0
M  V30 5286 C 508.234 -0.632971 1.92669 0
M  V30 5287 C 508.567 -1.70947 0.921446 0
M  V30 5288 O 507.842 -1.94426 -0.0537202 0
M  V30 5289 C 508.125 -1.23619 3.38216 0
M  V30 5290 C 507.978 -0.168274 4.49485 0
M  V30 5291 C 509.297 -2.15008 3.84005 0
M  V30 5292 H 506.416 -0.228629 0.700641 0
M  V30 5293 H 509.058 0.103651 1.89717 0
M  V30 5294 H 507.208 -1.864 3.40863 0
M  V30 5295 H 508.88 0.463196 4.58969 0
M  V30 5296 H 507.123 0.504581 4.30855 0
M  V30 5297 H 507.794 -0.630218 5.48391 0
M  V30 5298 H 510.27 -1.62198 3.83185 0
M  V30 5299 H 509.146 -2.54161 4.86511 0
M  V30 5300 H 509.407 -3.04707 3.20322 0
M  V30 5301 N 508.466 -1.55915 -0.229846 0
M  V30 5302 C 509.743 -1.6932 -0.979295 0
M  V30 5303 C 510.123 -0.588321 -2.02736 0
M  V30 5304 O 509.471 0.40586 -2.24867 0
M  V30 5305 C 509.681 -3.10305 -1.59724 0
M  V30 5306 C 511.029 -3.6945 -2.09264 0
M  V30 5307 O 512.053 -3.13214 -1.69633 0
M  V30 5308 O 510.912 -4.68072 -2.82082 0
M  V30 5309 H 508.006 -0.689314 -0.456919 0
M  V30 5310 H 510.552 -1.68238 -0.222283 0
M  V30 5311 H 509.324 -3.82177 -0.840039 0
M  V30 5312 H 508.947 -3.1547 -2.42001 0
M  V30 5313 N 509.944 0.496216 -1.49584 0
M  V30 5314 C 511.174 1.27209 -1.62793 0
M  V30 5315 C 511.582 1.86799 -0.300476 0
M  V30 5316 O 510.925 1.68802 0.724674 0
M  V30 5317 C 510.987 2.43812 -2.64189 0
M  V30 5318 C 510.651 2.05055 -4.08414 0
M  V30 5319 C 511.648 1.58752 -4.9507 0
M  V30 5320 C 509.333 2.14543 -4.54177 0
M  V30 5321 C 511.327 1.22448 -6.25528 0
M  V30 5322 C 509.014 1.77851 -5.84647 0
M  V30 5323 C 510.012 1.31878 -6.70147 0
M  V30 5324 O 509.7 0.956834 -7.98185 0
M  V30 5325 H 509.432 0.391848 -0.550846 0
M  V30 5326 H 511.986 0.601712 -1.96389 0
M  V30 5327 H 510.216 3.13941 -2.25783 0
M  V30 5328 H 511.905 3.05829 -2.66877 0
M  V30 5329 H 512.671 1.50863 -4.60939 0
M  V30 5330 H 508.55 2.49277 -3.87791 0
M  V30 5331 H 512.094 0.864933 -6.92217 0
M  V30 5332 H 507.991 1.8539 -6.18305 0
M  V30 5333 H 508.759 1.08789 -8.11238 0
M  V30 5334 N 511.423 1.38739 0.74761 0
M  V30 5335 C 512.839 1.20067 1.05148 0
M  V30 5336 C 513.039 0.0534835 2.01429 0
M  V30 5337 O 512.095 -0.59886 2.45296 0
M  V30 5338 C 513.408 2.52957 1.62584 0
M  V30 5339 C 514.956 2.59692 1.74726 0
M  V30 5340 C 515.431 3.92772 2.35573 0
M  V30 5341 N 516.922 3.94343 2.42997 0
M  V30 5342 C 517.657 4.9408 2.90985 0
M  V30 5343 N 517.153 6.04214 3.38965 0
M  V30 5344 N 518.946 4.81466 2.9008 0
M  V30 5345 H 511.097 2.12121 0.108808 0
M  V30 5346 H 513.36 0.941491 0.110899 0
M  V30 5347 H 513.066 3.37389 0.993051 0
M  V30 5348 H 512.94 2.71779 2.61565 0
M  V30 5349 H 515.327 1.75651 2.3713 0
M  V30 5350 H 515.408 2.44731 0.744326 0
M  V30 5351 H 515.052 4.77238 1.738 0
M  V30 5352 H 514.982 4.05046 3.36519 0
M  V30 5353 H 517.473 3.14799 2.0907 0
M  V30 5354 H 517.786 6.76241 3.74056 0
M  V30 5355 H 516.131 6.07825 3.37007 0
M  V30 5356 H 519.322 3.94535 2.51912 0
M  V30 5357 H 519.495 5.59344 3.27166 0
M  V30 5358 N 512.901 -0.976442 1.23707 0
M  V30 5359 C 513.851 -2.0544 0.988851 0
M  V30 5360 C 514.835 -1.60762 -0.0665901 0
M  V30 5361 O 516.027 -1.76396 0.14604 0
M  V30 5362 C 513.156 -3.38258 0.586223 0
M  V30 5363 C 512.242 -3.89523 1.67728 0
M  V30 5364 N 512.633 -4.13823 2.90834 0
M  V30 5365 C 510.931 -4.18097 1.55277 0
M  V30 5366 C 511.632 -4.55731 3.61502 0
M  V30 5367 N 510.608 -4.60394 2.8903 0
M  V30 5368 H 514.41 -2.22191 1.92376 0
M  V30 5369 H 511.924 -1.15954 1.13704 0
M  V30 5370 H 513.921 -4.15075 0.389658 0
M  V30 5371 H 512.581 -3.22898 -0.341594 0
M  V30 5372 H 513.592 -4.01529 3.271 0
M  V30 5373 H 510.269 -4.11719 0.692351 0
M  V30 5374 H 511.659 -4.83018 4.67059 0
M  V30 5375 N 514.379 -1.04941 -1.1758 0
M  V30 5376 C 515.626 -0.757989 -1.87779 0
M  V30 5377 C 515.954 0.714827 -1.80888 0
M  V30 5378 O 515.209 1.53824 -1.20982 0
M  V30 5379 C 515.508 -1.18062 -3.37337 0
M  V30 5380 C 515.174 -2.65521 -3.6443 0
M  V30 5381 C 513.836 -3.05804 -3.71534 0
M  V30 5382 C 516.188 -3.60822 -3.76108 0
M  V30 5383 C 513.516 -4.40256 -3.87803 0
M  V30 5384 C 515.868 -4.95005 -3.93895 0
M  V30 5385 C 514.532 -5.34945 -3.99237 0
M  V30 5386 H 513.802 -0.277368 -0.68713 0
M  V30 5387 H 516.449 -1.31603 -1.39115 0
M  V30 5388 H 514.754 -0.541525 -3.8804 0
M  V30 5389 H 516.451 -0.932368 -3.9001 0
M  V30 5390 H 513.041 -2.33324 -3.59524 0
M  V30 5391 H 517.225 -3.30841 -3.69943 0
M  V30 5392 H 512.481 -4.70707 -3.90186 0
M  V30 5393 H 516.655 -5.68746 -4.01872 0
M  V30 5394 H 514.282 -6.39135 -4.11596 0
M  V30 5395 N 515.857 1.33968 -0.830081 0
M  V30 5396 C 516.807 2.26845 -0.229242 0
M  V30 5397 C 517.791 1.48862 0.610659 0
M  V30 5398 O 518.983 1.70808 0.464067 0
M  V30 5399 C 516.112 3.3798 0.602057 0
M  V30 5400 C 515.198 4.23369 -0.248866 0
M  V30 5401 N 515.589 4.88182 -1.32334 0
M  V30 5402 C 513.887 4.45987 -0.0344077 0
M  V30 5403 C 514.588 5.51671 -1.84482 0
M  V30 5404 N 513.564 5.31348 -1.14762 0
M  V30 5405 H 517.366 2.74464 -1.05104 0
M  V30 5406 H 514.88 1.4777 -0.673623 0
M  V30 5407 H 516.877 4.03494 1.04873 0
M  V30 5408 H 515.537 2.9191 1.42193 0
M  V30 5409 H 516.548 4.88988 -1.70619 0
M  V30 5410 H 513.225 4.10658 0.752727 0
M  V30 5411 H 514.615 6.13308 -2.74413 0
M  V30 5412 N 517.335 0.585699 1.46312 0
M  V30 5413 C 518.751 0.247607 1.57668 0
M  V30 5414 C 518.951 -1.25007 1.58037 0
M  V30 5415 O 518.007 -2.03196 1.49893 0
M  V30 5416 C 519.32 0.899456 2.86933 0
M  V30 5417 C 520.868 0.873326 3.00569 0
M  V30 5418 C 521.343 1.50477 4.32574 0
M  V30 5419 N 522.834 1.46925 4.3928 0
M  V30 5420 C 523.569 1.92719 5.40044 0
M  V30 5421 N 523.065 2.46499 6.47464 0
M  V30 5422 N 524.858 1.83617 5.31264 0
M  V30 5423 H 517.009 1.55841 1.44317 0
M  V30 5424 H 519.272 0.651564 0.688599 0
M  V30 5425 H 518.978 1.95313 2.92482 0
M  V30 5426 H 518.852 0.409476 3.74971 0
M  V30 5427 H 521.239 -0.171736 2.946 0
M  V30 5428 H 521.32 1.40136 2.13999 0
M  V30 5429 H 520.964 2.54905 4.39302 0
M  V30 5430 H 520.894 0.951944 5.17924 0
M  V30 5431 H 523.385 1.07616 3.62253 0
M  V30 5432 H 523.698 2.79291 7.20567 0
M  V30 5433 H 522.043 2.50526 6.48276 0
M  V30 5434 H 525.234 1.41358 4.46246 0
M  V30 5435 H 525.407 2.19622 6.09648 0
M  V30 5436 N 518.813 -1.54241 0.323641 0
M  V30 5437 C 520.041 -2.04985 -0.280871 0
M  V30 5438 C 520.456 -1.19978 -1.45777 0
M  V30 5439 O 519.813 -0.230471 -1.81039 0
M  V30 5440 C 519.864 -3.54353 -0.715258 0
M  V30 5441 O 519.585 -4.36132 0.414817 0
M  V30 5442 C 521.086 -4.21189 -1.38257 0
M  V30 5443 H 518.306 -0.66851 -0.0577502 0
M  V30 5444 H 520.85 -1.99029 0.469852 0
M  V30 5445 H 519.005 -3.60596 -1.41596 0
M  V30 5446 H 519.419 -5.2445 0.0725227 0
M  V30 5447 H 520.893 -5.27154 -1.63745 0
M  V30 5448 H 521.37 -3.72307 -2.32989 0
M  V30 5449 H 521.976 -4.19085 -0.724447 0
M  V30 5450 N 520.291 -0.0518155 -1.57515 0
M  V30 5451 C 521.521 0.63048 -1.96745 0
M  V30 5452 C 521.929 1.64875 -0.928054 0
M  V30 5453 O 521.272 1.83449 0.0960678 0
M  V30 5454 C 521.334 1.37381 -3.32215 0
M  V30 5455 C 520.998 0.511298 -4.54131 0
M  V30 5456 C 521.995 -0.222884 -5.19422 0
M  V30 5457 C 519.68 0.442035 -5.00351 0
M  V30 5458 C 521.674 -1.01476 -6.2927 0
M  V30 5459 C 519.361 -0.35353 -6.10077 0
M  V30 5460 C 520.359 -1.08062 -6.74397 0
M  V30 5461 O 520.047 -1.8631 -7.82013 0
M  V30 5462 H 519.779 0.177126 -0.652382 0
M  V30 5463 H 522.333 -0.114726 -2.05079 0
M  V30 5464 H 520.563 2.16466 -3.20436 0
M  V30 5465 H 522.252 1.9464 -3.56188 0
M  V30 5466 H 523.018 -0.178846 -4.8467 0
M  V30 5467 H 518.897 0.997562 -4.50077 0
M  V30 5468 H 522.441 -1.58279 -6.79407 0
M  V30 5469 H 518.338 -0.399205 -6.44264 0
M  V30 5470 H 519.106 -1.78528 -7.98793 0
M  V30 5471 N 521.769 1.56035 0.221574 0
M  V30 5472 C 522.679 1.95581 1.29558 0
M  V30 5473 C 523.695 0.859639 1.51282 0
M  V30 5474 O 524.871 1.16321 1.64413 0
M  V30 5475 C 521.936 2.26447 2.62531 0
M  V30 5476 C 520.997 3.49632 2.4911 0
M  V30 5477 C 520.23 3.79017 3.75742 0
M  V30 5478 O 520.453 3.10077 4.78757 0
M  V30 5479 O 519.387 4.72507 3.72855 0
M  V30 5480 H 523.213 2.8711 0.990035 0
M  V30 5481 H 520.798 1.43244 0.424434 0
M  V30 5482 H 522.68 2.47494 3.41064 0
M  V30 5483 H 521.355 1.38092 2.92766 0
M  V30 5484 H 520.262 3.33864 1.68777 0
M  V30 5485 H 521.595 4.3837 2.23814 0
M  V30 5486 N 523.247 -0.488276 1.49845 0
M  V30 5487 C 524.493 -1.24341 1.6021 0
M  V30 5488 C 524.826 -1.91967 0.293651 0
M  V30 5489 O 524.101 -1.81323 -0.703718 0
M  V30 5490 C 524.384 -2.3005 2.77036 0
M  V30 5491 C 524.237 -1.66842 4.17713 0
M  V30 5492 C 525.556 -3.31509 2.89464 0
M  V30 5493 H 522.675 -0.450704 0.583125 0
M  V30 5494 H 525.317 -0.539673 1.82174 0
M  V30 5495 H 523.467 -2.90071 2.58439 0
M  V30 5496 H 525.139 -1.1055 4.47858 0
M  V30 5497 H 523.382 -0.972079 4.22768 0
M  V30 5498 H 524.053 -2.43576 4.95353 0
M  V30 5499 H 526.529 -2.81493 3.06433 0
M  V30 5500 H 525.405 -4.02822 3.72861 0
M  V30 5501 H 525.666 -3.94603 1.99351 0
M  V30 5502 N 524.725 -1.39134 -0.740242 0
M  V30 5503 C 526.136 -1.32208 -1.31825 0
M  V30 5504 C 526.487 0.0159919 -1.96193 0
M  V30 5505 O 525.612 0.918111 -1.95958 0
M  V30 5506 C 526.207 -2.39436 -2.39699 0
M  V30 5507 C 524.766 -2.36048 -2.93187 0
M  V30 5508 C 523.913 -2.21599 -1.66701 0
M  V30 5509 H 526.864 -1.49298 -0.538133 0
M  V30 5510 H 526.885 -2.05922 -3.19963 0
M  V30 5511 H 526.397 -3.36811 -1.92821 0
M  V30 5512 H 524.498 -1.42295 -3.44359 0
M  V30 5513 H 524.611 -3.30704 -3.46658 0
M  V30 5514 H 522.975 -1.68681 -1.90837 0
M  V30 5515 H 523.758 -3.20936 -1.21882 0
M  V30 5516 N 526.204 0.969867 -1.24223 0
M  V30 5517 C 527.452 1.70918 -1.0785 0
M  V30 5518 C 527.773 1.91186 0.383763 0
M  V30 5519 O 527.043 1.48806 1.27411 0
M  V30 5520 H 525.623 0.633334 -0.396103 0
M  V30 5521 H 528.285 1.16689 -1.56108 0
M  V30 5522 H 527.381 2.69455 -1.57482 0
M  V30 5523 N 527.682 1.05563 1.17022 0
M  V30 5524 C 528.91 0.78845 1.91288 0
M  V30 5525 C 529.325 -0.656318 1.77025 0
M  V30 5526 O 528.682 -1.44869 1.10992 0
M  V30 5527 C 528.733 1.16444 3.42232 0
M  V30 5528 O 528.454 2.5525 3.5606 0
M  V30 5529 C 529.955 0.923937 4.33565 0
M  V30 5530 H 527.175 0.286389 0.606813 0
M  V30 5531 H 529.719 1.4073 1.48375 0
M  V30 5532 H 527.874 0.590266 3.82877 0
M  V30 5533 H 528.288 2.70097 4.49609 0
M  V30 5534 H 529.762 1.23672 5.37968 0
M  V30 5535 H 530.239 -0.140688 4.38975 0
M  V30 5536 H 530.845 1.48214 3.98639 0
M  V30 5537 N 529.16 -1.33526 0.837174 0
M  V30 5538 C 530.571 -1.80182 0.489017 0
M  V30 5539 C 530.922 -1.69285 -0.991826 0
M  V30 5540 O 530.047 -1.24113 -1.77271 0
M  V30 5541 C 530.642 -3.27149 0.880866 0
M  V30 5542 C 529.201 -3.71828 0.584872 0
M  V30 5543 C 528.348 -2.54974 1.09011 0
M  V30 5544 H 531.299 -1.21071 1.02603 0
M  V30 5545 H 531.32 -3.80024 0.190239 0
M  V30 5546 H 530.832 -3.35048 1.95869 0
M  V30 5547 H 528.933 -3.69457 -0.48295 0
M  V30 5548 H 529.046 -4.65366 1.13892 0
M  V30 5549 H 527.41 -2.4952 0.511047 0
M  V30 5550 H 528.193 -2.65637 2.17467 0
M  V30 5551 N 530.638 -0.59345 -1.46 0
M  V30 5552 C 531.884 -0.0832754 -2.02629 0
M  V30 5553 C 532.217 1.27749 -1.46266 0
M  V30 5554 O 531.492 1.8395 -0.631866 0
M  V30 5555 C 531.775 -0.0290756 -3.60088 0
M  V30 5556 C 531.628 -1.41951 -4.26814 0
M  V30 5557 C 532.947 0.666055 -4.35031 0
M  V30 5558 H 530.066 -0.031736 -0.736316 0
M  V30 5559 H 532.708 -0.762711 -1.74019 0
M  V30 5560 H 530.858 0.549532 -3.84594 0
M  V30 5561 H 532.53 -2.04411 -4.13538 0
M  V30 5562 H 530.773 -1.98422 -3.8576 0
M  V30 5563 H 531.444 -1.33395 -5.3564 0
M  V30 5564 H 533.92 0.174401 -4.15734 0
M  V30 5565 H 532.796 0.673041 -5.44758 0
M  V30 5566 H 533.057 1.72946 -4.06869 0
M  V30 5567 N 532.116 1.54067 -0.331816 0
M  V30 5568 C 533.356 2.02625 0.26876 0
M  V30 5569 C 533.72 1.21462 1.48697 0
M  V30 5570 O 534.921 1.59863 2.16096 0
M  V30 5571 C 533.192 3.52554 0.586577 0
M  V30 5572 S 534.751 4.23035 1.16563 0
M  V30 5573 H 531.569 0.706395 0.0807862 0
M  V30 5574 H 534.171 1.89844 -0.466856 0
M  V30 5575 H 532.875 4.09242 -0.308046 0
M  V30 5576 H 532.406 3.69432 1.35217 0
M  V30 5577 H 534.421 4.31382 2.45203 0
M  V30 5578 N 533.594 0.0601682 1.57485 0
M  V30 5579 C 534.819 -0.624416 1.97777 0
M  V30 5580 C 535.244 -1.63051 0.937867 0
M  V30 5581 O 534.602 -1.81036 -0.0978845 0
M  V30 5582 C 534.65 -1.27979 3.37126 0
M  V30 5583 O 533.754 -2.39556 3.35688 0
M  V30 5584 H 533.095 -0.161581 0.64404 0
M  V30 5585 H 535.625 0.131237 2.04179 0
M  V30 5586 H 535.635 -1.62937 3.74053 0
M  V30 5587 H 534.31 -0.542501 4.12347 0
M  V30 5588 H 532.887 -2.06478 3.10517 0
M  V30 5589 N 535.072 -1.5615 -0.213296 0
M  V30 5590 C 536.035 -1.92249 -1.24792 0
M  V30 5591 C 537.035 -0.801828 -1.39382 0
M  V30 5592 O 538.225 -1.06948 -1.37506 0
M  V30 5593 C 535.357 -2.18056 -2.62039 0
M  V30 5594 H 536.55 -2.84793 -0.939845 0
M  V30 5595 H 534.103 -1.49559 -0.454062 0
M  V30 5596 H 534.838 -1.2809 -2.97932 0
M  V30 5597 H 534.623 -2.99703 -2.52825 0
M  V30 5598 H 536.113 -2.47051 -3.36683 0
M  V30 5599 N 536.55 0.480323 -1.50102 0
M  V30 5600 C 537.497 1.57946 -1.6829 0
M  V30 5601 C 538.467 1.57611 -0.524223 0
M  V30 5602 O 539.652 1.75282 -0.753709 0
M  V30 5603 C 536.792 2.95978 -1.77457 0
M  V30 5604 C 535.905 3.06173 -3.04766 0
M  V30 5605 C 535.04 4.35063 -3.04784 0
M  V30 5606 C 534.079 4.38966 -4.26586 0
M  V30 5607 N 533.216 5.59314 -4.24396 0
M  V30 5608 H 538.056 1.41743 -2.62131 0
M  V30 5609 H 535.593 0.689304 -1.2995 0
M  V30 5610 H 537.551 3.76011 -1.80752 0
M  V30 5611 H 536.181 3.10837 -0.870637 0
M  V30 5612 H 535.233 2.19071 -3.10986 0
M  V30 5613 H 536.545 3.04916 -3.9475 0
M  V30 5614 H 535.699 5.23436 -3.06757 0
M  V30 5615 H 534.438 4.38915 -2.12614 0
M  V30 5616 H 533.443 3.48992 -4.24835 0
M  V30 5617 H 534.668 4.36813 -5.19972 0
M  V30 5618 H 532.614 5.63969 -3.35074 0
M  V30 5619 H 532.531 5.5976 -5.08138 0
M  V30 5620 H 533.799 6.49837 -4.30502 0
M  V30 5621 N 538.028 1.39524 0.732853 0
M  V30 5622 C 538.938 1.40695 1.87729 0
M  V30 5623 C 539.954 0.301496 1.71368 0
M  V30 5624 O 541.13 0.543313 1.93933 0
M  V30 5625 C 538.195 1.25098 3.23344 0
M  V30 5626 C 537.256 2.45634 3.52083 0
M  V30 5627 C 536.489 2.30772 4.81228 0
M  V30 5628 O 536.712 1.31233 5.55098 0
M  V30 5629 O 535.646 3.19799 5.09914 0
M  V30 5630 H 539.472 2.37168 1.89697 0
M  V30 5631 H 537.057 1.20663 0.880959 0
M  V30 5632 H 538.939 1.18541 4.04383 0
M  V30 5633 H 537.614 0.317209 3.22142 0
M  V30 5634 H 536.521 2.57767 2.71122 0
M  V30 5635 H 537.854 3.37712 3.58066 0
M  V30 5636 N 539.506 -0.963266 1.24736 0
M  V30 5637 C 540.436 -2.07628 1.06832 0
M  V30 5638 C 541.417 -1.70088 -0.0200566 0
M  V30 5639 O 542.602 -1.93636 0.147854 0
M  V30 5640 C 539.732 -3.40636 0.677069 0
M  V30 5641 C 538.686 -3.9215 1.71471 0
M  V30 5642 C 538.012 -5.21553 1.1784 0
M  V30 5643 C 539.312 -4.19493 3.11164 0
M  V30 5644 H 541.006 -2.22864 1.9993 0
M  V30 5645 H 538.552 -1.07093 0.96266 0
M  V30 5646 H 540.505 -4.17941 0.538792 0
M  V30 5647 H 539.229 -3.25313 -0.289612 0
M  V30 5648 H 537.888 -3.17005 1.84128 0
M  V30 5649 H 537.536 -5.02593 0.202195 0
M  V30 5650 H 537.236 -5.56988 1.87185 0
M  V30 5651 H 538.76 -6.01463 1.05233 0
M  V30 5652 H 540.174 -4.87487 3.01711 0
M  V30 5653 H 538.571 -4.66165 3.77902 0
M  V30 5654 H 539.641 -3.26097 3.58871 0
M  V30 5655 N 540.985 -1.06182 -1.16461 0
M  V30 5656 C 542.262 -0.691364 -1.82974 0
M  V30 5657 C 542.642 0.827377 -1.9421 0
M  V30 5658 O 541.99 1.73723 -1.48434 0
M  V30 5659 C 542.2 -1.39199 -3.20038 0
M  V30 5660 C 543.548 -1.53647 -3.95825 0
M  V30 5661 O 544.572 -1.35181 -3.29552 0
M  V30 5662 O 543.431 -1.83932 -5.14618 0
M  V30 5663 H 540.525 -0.244605 -0.789998 0
M  V30 5664 H 543.071 -1.16203 -1.23673 0
M  V30 5665 H 541.843 -2.42766 -3.06888 0
M  V30 5666 H 541.466 -0.911335 -3.87015 0
M  V30 5667 N 542.463 1.3308 -0.844243 0
M  V30 5668 C 543.373 2.32876 -0.283922 0
M  V30 5669 C 544.389 1.63589 0.592846 0
M  V30 5670 O 545.565 1.95205 0.495693 0
M  V30 5671 C 542.63 3.42667 0.527283 0
M  V30 5672 C 541.691 4.27664 -0.374394 0
M  V30 5673 C 540.924 5.32212 0.39819 0
M  V30 5674 O 541.147 5.46635 1.62932 0
M  V30 5675 O 540.081 6.01458 -0.2306 0
M  V30 5676 H 543.907 2.82671 -1.11045 0
M  V30 5677 H 541.492 1.36518 -0.606903 0
M  V30 5678 H 543.374 4.09652 0.988078 0
M  V30 5679 H 542.049 2.95079 1.33078 0
M  V30 5680 H 540.956 3.63526 -0.883144 0
M  V30 5681 H 542.289 4.78749 -1.1428 0
M  V30 5682 N 543.941 0.601185 1.45683 0
M  V30 5683 C 545.357 0.264315 1.57396 0
M  V30 5684 C 545.557 -1.23324 1.59353 0
M  V30 5685 O 544.613 -2.01594 1.52039 0
M  V30 5686 C 545.926 0.929839 2.85962 0
M  V30 5687 C 547.474 0.905156 2.99626 0
M  V30 5688 C 547.949 1.55057 4.30954 0
M  V30 5689 N 549.44 1.51576 4.37697 0
M  V30 5690 C 550.175 1.98436 5.37969 0
M  V30 5691 N 549.671 2.53352 6.44813 0
M  V30 5692 N 551.464 1.89242 5.29286 0
M  V30 5693 H 543.615 1.57363 1.42656 0
M  V30 5694 H 545.878 0.658831 0.681649 0
M  V30 5695 H 545.584 1.98404 2.90394 0
M  V30 5696 H 545.458 0.449224 3.74515 0
M  V30 5697 H 547.845 -0.14048 2.94765 0
M  V30 5698 H 547.926 1.42397 2.12501 0
M  V30 5699 H 547.57 2.5955 4.36573 0
M  V30 5700 H 547.5 1.00682 5.16886 0
M  V30 5701 H 549.991 1.11452 3.61091 0
M  V30 5702 H 550.304 2.86918 7.17564 0
M  V30 5703 H 548.649 2.57388 6.45582 0
M  V30 5704 H 551.84 1.46083 4.44722 0
M  V30 5705 H 552.013 2.26075 6.07284 0
M  V30 5706 N 545.419 -1.53889 0.339982 0
M  V30 5707 C 546.382 -2.23547 -0.50592 0
M  V30 5708 C 547.382 -1.23445 -1.03044 0
M  V30 5709 O 548.572 -1.47909 -0.920253 0
M  V30 5710 C 545.704 -2.95234 -1.7044 0
M  V30 5711 H 546.897 -2.99722 0.103247 0
M  V30 5712 H 544.45 -1.56033 0.0912804 0
M  V30 5713 H 545.185 -2.23236 -2.35236 0
M  V30 5714 H 544.97 -3.68654 -1.33553 0
M  V30 5715 H 546.46 -3.48258 -2.30447 0
M  V30 5716 N 546.897 -0.0685191 -1.57451 0
M  V30 5717 C 547.807 0.914677 -2.16034 0
M  V30 5718 C 548.823 1.32938 -1.12265 0
M  V30 5719 O 549.999 1.40275 -1.44516 0
M  V30 5720 C 547.064 2.16519 -2.70777 0
M  V30 5721 C 546.125 1.80721 -3.89408 0
M  V30 5722 C 545.358 2.9981 -4.41531 0
M  V30 5723 O 545.581 4.13727 -3.92666 0
M  V30 5724 O 544.515 2.79817 -5.32903 0
M  V30 5725 H 548.341 0.446364 -3.00402 0
M  V30 5726 H 545.926 0.154367 -1.486 0
M  V30 5727 H 547.808 2.89856 -3.05878 0
M  V30 5728 H 546.483 2.62454 -1.89471 0
M  V30 5729 H 545.39 1.04646 -3.59166 0
M  V30 5730 H 546.723 1.39571 -4.71997 0
M  V30 5731 N 548.375 1.56261 0.205012 0
M  V30 5732 C 549.307 1.90266 1.27795 0
M  V30 5733 C 550.32 0.792397 1.42214 0
M  V30 5734 O 551.509 1.07077 1.42817 0
M  V30 5735 C 548.609 2.11074 2.65143 0
M  V30 5736 C 547.782 3.42176 2.7246 0
M  V30 5737 C 546.841 3.52216 3.90936 0
M  V30 5738 O 545.867 4.25119 3.78501 0
M  V30 5739 N 547.069 2.84573 5.05963 0
M  V30 5740 H 549.834 2.82896 0.989434 0
M  V30 5741 H 547.395 1.57008 0.394981 0
M  V30 5742 H 549.387 2.15089 3.4281 0
M  V30 5743 H 547.957 1.2499 2.86524 0
M  V30 5744 H 547.177 3.50116 1.81142 0
M  V30 5745 H 548.465 4.28509 2.74331 0
M  V30 5746 H 547.863 2.25152 5.18963 0
M  V30 5747 H 546.42 2.94228 5.81613 0
M  V30 5748 N 549.853 -0.472356 1.50355 0
M  V30 5749 C 550.816 -1.5529 1.68576 0
M  V30 5750 C 551.816 -1.50863 0.556511 0
M  V30 5751 O 553.006 -1.53505 0.823516 0
M  V30 5752 C 550.138 -2.94921 1.70981 0
M  V30 5753 H 551.331 -1.40451 2.64978 0
M  V30 5754 H 548.884 -0.698645 1.39816 0
M  V30 5755 H 549.619 -3.15204 0.762675 0
M  V30 5756 H 549.404 -2.99541 2.53017 0
M  V30 5757 H 550.894 -3.73372 1.87037 0
M  V30 5758 N 551.331 -1.39911 -0.725443 0
M  V30 5759 C 552.556 -1.41137 -1.5197 0
M  V30 5760 C 552.981 -0.010262 -1.88097 0
M  V30 5761 O 552.339 0.979184 -1.52583 0
M  V30 5762 C 552.387 -2.2994 -2.77777 0
M  V30 5763 O 551.491 -1.73586 -3.74088 0
M  V30 5764 H 550.832 -0.480219 -0.458569 0
M  V30 5765 H 553.362 -1.84023 -0.894249 0
M  V30 5766 H 553.372 -2.44785 -3.26411 0
M  V30 5767 H 552.047 -3.31759 -2.50816 0
M  V30 5768 H 550.624 -1.68035 -3.32894 0
M  V30 5769 N 552.809 0.956637 -1.25245 0
M  V30 5770 C 553.759 2.03841 -1.02141 0
M  V30 5771 C 554.743 1.60848 0.0410058 0
M  V30 5772 O 555.935 1.76142 -0.174084 0
M  V30 5773 C 553.064 3.37282 -0.639963 0
M  V30 5774 C 552.15 3.86805 -1.73903 0
M  V30 5775 N 552.541 4.09143 -2.97381 0
M  V30 5776 C 550.839 4.15574 -1.61909 0
M  V30 5777 C 551.54 4.49923 -3.68707 0
M  V30 5778 N 550.516 4.55737 -2.96318 0
M  V30 5779 H 554.318 2.19102 -1.95886 0
M  V30 5780 H 551.832 1.1413 -1.15534 0
M  V30 5781 H 553.829 4.14403 -0.455643 0
M  V30 5782 H 552.489 3.23401 0.29018 0
M  V30 5783 H 553.5 3.96275 -3.33447 0
M  V30 5784 H 550.177 4.10566 -0.757764 0
M  V30 5785 H 551.567 4.75526 -4.74684 0
M  V30 5786 N 554.287 1.06798 1.15896 0
M  V30 5787 C 555.512 0.808739 1.90982 0
M  V30 5788 C 555.937 -0.6316 1.77179 0
M  V30 5789 O 555.295 -1.4407 1.10061 0
M  V30 5790 C 555.343 1.21468 3.39526 0
M  V30 5791 O 554.447 0.356562 4.10856 0
M  V30 5792 H 553.788 0.29512 0.594811 0
M  V30 5793 H 556.318 1.42513 1.46804 0
M  V30 5794 H 556.328 1.18844 3.90308 0
M  V30 5795 H 555.003 2.26379 3.48891 0
M  V30 5796 H 553.58 0.444808 3.70238 0
M  V30 5797 N 555.766 -1.3263 0.851289 0
M  V30 5798 C 556.696 -2.31449 0.308771 0
M  V30 5799 C 557.677 -1.59531 -0.590255 0
M  V30 5800 O 558.862 -1.87351 -0.511205 0
M  V30 5801 C 555.992 -3.43586 -0.506548 0
M  V30 5802 C 554.946 -4.26963 0.297753 0
M  V30 5803 C 554.272 -5.30831 -0.642094 0
M  V30 5804 C 555.572 -4.99643 1.52166 0
M  V30 5805 H 557.266 -2.77074 1.13447 0
M  V30 5806 H 554.812 -1.33207 0.546971 0
M  V30 5807 H 556.765 -4.11754 -0.896474 0
M  V30 5808 H 555.489 -2.96681 -1.36558 0
M  V30 5809 H 554.148 -3.60437 0.669391 0
M  V30 5810 H 553.796 -4.8018 -1.49788 0
M  V30 5811 H 553.496 -5.87501 -0.107968 0
M  V30 5812 H 555.02 -6.01862 -1.02927 0
M  V30 5813 H 556.434 -5.6051 1.20421 0
M  V30 5814 H 554.831 -5.66022 1.99347 0
M  V30 5815 H 555.901 -4.27701 2.28474 0
M  V30 5816 N 557.244 -0.608902 -1.45362 0
M  V30 5817 C 558.191 0.109172 -2.30542 0
M  V30 5818 C 559.161 0.858704 -1.42181 0
M  V30 5819 O 560.346 0.844178 -1.71109 0
M  V30 5820 C 557.486 1.09971 -3.27109 0
M  V30 5821 C 556.599 0.350911 -4.30572 0
M  V30 5822 C 555.734 1.33129 -5.14247 0
M  V30 5823 C 554.773 0.570377 -6.09437 0
M  V30 5824 N 553.91 1.5001 -6.85887 0
M  V30 5825 H 558.75 -0.623195 -2.91411 0
M  V30 5826 H 556.287 -0.319122 -1.43597 0
M  V30 5827 H 558.245 1.68714 -3.81564 0
M  V30 5828 H 556.875 1.79947 -2.67991 0
M  V30 5829 H 555.927 -0.352054 -3.78767 0
M  V30 5830 H 557.239 -0.242725 -4.98209 0
M  V30 5831 H 556.393 1.99074 -5.73109 0
M  V30 5832 H 555.132 1.95885 -4.46632 0
M  V30 5833 H 554.137 -0.102702 -5.49704 0
M  V30 5834 H 555.362 -0.0521607 -6.7908 0
M  V30 5835 H 553.308 2.11529 -6.2096 0
M  V30 5836 H 553.225 0.959934 -7.49881 0
M  V30 5837 H 554.493 2.14909 -7.49289 0
M  V30 5838 N 558.722 1.53707 -0.348139 0
M  V30 5839 C 559.947 2.05877 0.250883 0
M  V30 5840 C 560.372 1.22115 1.43072 0
M  V30 5841 O 559.73 0.235986 1.79758 0
M  V30 5842 C 559.778 3.54886 0.639416 0
M  V30 5843 O 558.882 3.73948 1.73888 0
M  V30 5844 H 558.223 0.662754 0.040653 0
M  V30 5845 H 560.753 1.98303 -0.503685 0
M  V30 5846 H 560.763 3.97601 0.915295 0
M  V30 5847 H 559.438 4.153 -0.223386 0
M  V30 5848 H 558.015 3.43134 1.45991 0
M  V30 5849 N 560.2 0.0768682 1.57412 0
M  V30 5850 C 561.425 -0.603404 1.98428 0
M  V30 5851 C 561.85 -1.62047 0.955108 0
M  V30 5852 O 561.208 -1.81129 -0.0786778 0
M  V30 5853 C 561.256 -1.24396 3.38464 0
M  V30 5854 O 560.36 -2.35982 3.3821 0
M  V30 5855 H 559.701 -0.154741 0.645718 0
M  V30 5856 H 562.231 0.152885 2.04028 0
M  V30 5857 H 562.241 -1.5896 3.7576 0
M  V30 5858 H 560.916 -0.498735 4.12899 0
M  V30 5859 H 559.493 -2.03173 3.1269 0
M  V30 5860 N 561.678 -1.56367 -0.196722 0
M  V30 5861 C 562.925 -1.80529 -0.917366 0
M  V30 5862 C 563.253 -0.649817 -1.83324 0
M  V30 5863 O 562.508 0.36451 -1.92275 0
M  V30 5864 C 562.807 -3.10663 -1.767 0
M  V30 5865 C 562.473 -4.3962 -1.00225 0
M  V30 5866 C 561.135 -4.74653 -0.791095 0
M  V30 5867 C 563.487 -5.1913 -0.464035 0
M  V30 5868 C 560.815 -5.86692 -0.0302155 0
M  V30 5869 C 563.167 -6.31964 0.283625 0
M  V30 5870 C 561.831 -6.65581 0.505813 0
M  V30 5871 H 561.101 -0.660602 -0.335688 0
M  V30 5872 H 563.748 -1.90615 -0.183844 0
M  V30 5873 H 562.053 -2.95807 -2.56915 0
M  V30 5874 H 563.75 -3.26563 -2.32718 0
M  V30 5875 H 560.34 -4.12127 -1.17684 0
M  V30 5876 H 564.524 -4.9248 -0.614575 0
M  V30 5877 H 559.78 -6.11211 0.151917 0
M  V30 5878 H 563.954 -6.92791 0.708057 0
M  V30 5879 H 561.581 -7.52239 1.0973 0
M  V30 5880 N 563.156 0.464375 -1.50603 0
M  V30 5881 C 564.567 1.04507 -1.5471 0
M  V30 5882 C 564.918 1.9297 -0.354542 0
M  V30 5883 O 564.043 2.09763 0.531812 0
M  V30 5884 C 564.638 1.90207 -2.80369 0
M  V30 5885 C 563.197 2.43373 -2.87135 0
M  V30 5886 C 562.344 1.21886 -2.49076 0
M  V30 5887 H 565.295 0.246716 -1.56771 0
M  V30 5888 H 565.316 2.75353 -2.62604 0
M  V30 5889 H 564.828 1.25796 -3.67147 0
M  V30 5890 H 562.929 3.11318 -2.04724 0
M  V30 5891 H 563.042 2.7802 -3.90181 0
M  V30 5892 H 561.406 1.55575 -2.01664 0
M  V30 5893 H 562.189 0.591268 -3.3817 0
M  V30 5894 N 564.634 1.40294 0.718013 0
M  V30 5895 C 565.882 1.38167 1.47494 0
M  V30 5896 C 566.203 -0.01607 1.94993 0
M  V30 5897 O 565.473 -0.970396 1.70177 0
M  V30 5898 H 564.053 0.508505 0.547203 0
M  V30 5899 H 566.715 1.75324 0.851322 0
M  V30 5900 H 565.811 2.05503 2.34894 0
M  V30 5901 N 566.112 -0.949982 1.2575 0
M  V30 5902 C 567.337 -1.73503 1.13628 0
M  V30 5903 C 567.762 -1.85601 -0.30559 0
M  V30 5904 O 567.12 -1.33984 -1.22139 0
M  V30 5905 C 567.168 -3.1243 1.80055 0
M  V30 5906 O 566.272 -3.97916 1.08336 0
M  V30 5907 H 565.613 -0.532665 0.396439 0
M  V30 5908 H 568.143 -1.19043 1.66403 0
M  V30 5909 H 568.153 -3.62866 1.86527 0
M  V30 5910 H 566.828 -3.02941 2.84956 0
M  V30 5911 H 565.405 -3.56375 1.09777 0
M  V30 5912 N 567.59 -1.07411 -1.15328 0
M  V30 5913 C 568.52 -0.716472 -2.22236 0
M  V30 5914 C 569.501 0.296373 -1.67498 0
M  V30 5915 O 570.686 0.168989 -1.93463 0
M  V30 5916 C 567.816 -0.114142 -3.47112 0
M  V30 5917 C 566.77 -1.05421 -4.14814 0
M  V30 5918 C 566.096 -0.314604 -5.33774 0
M  V30 5919 C 567.396 -2.38808 -4.64508 0
M  V30 5920 H 569.09 -1.61029 -2.52408 0
M  V30 5921 H 566.636 -0.775702 -1.21321 0
M  V30 5922 H 568.589 0.148001 -4.2114 0
M  V30 5923 H 567.313 0.814755 -3.16274 0
M  V30 5924 H 565.972 -1.30128 -3.42728 0
M  V30 5925 H 565.62 0.617772 -4.99192 0
M  V30 5926 H 565.32 -0.941209 -5.80013 0
M  V30 5927 H 566.844 -0.0602747 -6.1057 0
M  V30 5928 H 568.258 -2.18424 -5.3006 0
M  V30 5929 H 566.655 -2.97069 -5.21412 0
M  V30 5930 H 567.725 -3.01067 -3.80114 0
M  V30 5931 N 569.068 1.32177 -0.85831 0
M  V30 5932 C 570.296 2.01313 -0.477582 0
M  V30 5933 C 570.711 1.6449 0.926736 0
M  V30 5934 O 570.068 0.868096 1.60531 0
M  V30 5935 C 570.119 3.56293 -0.611337 0
M  V30 5936 O 569.84 3.91794 -1.96034 0
M  V30 5937 C 571.341 4.42702 -0.230093 0
M  V30 5938 H 568.561 0.644323 -0.187322 0
M  V30 5939 H 571.105 1.68674 -1.15626 0
M  V30 5940 H 569.26 3.87395 0.0196494 0
M  V30 5941 H 569.674 4.86513 -1.95973 0
M  V30 5942 H 571.148 5.50727 -0.374674 0
M  V30 5943 H 571.625 4.3129 0.829779 0
M  V30 5944 H 572.231 4.16997 -0.836302 0
M  V30 5945 N 570.547 0.616602 1.45037 0
M  V30 5946 C 571.51 -0.0871112 2.29034 0
M  V30 5947 C 572.51 -0.786414 1.40258 0
M  V30 5948 O 573.7 -0.633207 1.62284 0
M  V30 5949 C 570.832 -1.13369 3.21497 0
M  V30 5950 H 572.025 0.651497 2.92738 0
M  V30 5951 H 569.578 0.376058 1.51709 0
M  V30 5952 H 570.313 -1.90277 2.62612 0
M  V30 5953 H 570.098 -0.636358 3.86902 0
M  V30 5954 H 571.588 -1.62627 3.84633 0
M  V30 5955 N 572.025 -1.5352 0.356285 0
M  V30 5956 C 573.272 -2.01117 -0.236303 0
M  V30 5957 C 573.6 -1.24381 -1.49531 0
M  V30 5958 O 572.855 -0.323057 -1.93015 0
M  V30 5959 C 573.154 -3.52607 -0.583369 0
M  V30 5960 C 572.82 -4.47151 0.58023 0
M  V30 5961 C 571.482 -4.72718 0.899528 0
M  V30 5962 C 573.834 -5.03137 1.36024 0
M  V30 5963 C 571.162 -5.51523 2.00098 0
M  V30 5964 C 573.514 -5.83145 2.45204 0
M  V30 5965 C 572.178 -6.07001 2.77679 0
M  V30 5966 H 571.448 -0.735938 -0.0864695 0
M  V30 5967 H 574.095 -1.85209 0.48683 0
M  V30 5968 H 572.4 -3.66413 -1.38739 0
M  V30 5969 H 574.097 -3.86901 -1.05397 0
M  V30 5970 H 570.687 -4.27394 0.321322 0
M  V30 5971 H 574.871 -4.83339 1.12682 0
M  V30 5972 H 570.127 -5.68229 2.25668 0
M  V30 5973 H 574.301 -6.25537 3.06067 0
M  V30 5974 H 571.928 -6.67851 3.63151 0
M  V30 5975 N 573.503 -0.0852151 -1.57369 0
M  V30 5976 C 574.743 0.584297 -1.95871 0
M  V30 5977 C 575.107 1.6596 -0.965473 0
M  V30 5978 O 576.308 2.38561 -1.23862 0
M  V30 5979 C 574.579 1.13411 -3.38929 0
M  V30 5980 S 576.138 1.81687 -3.99419 0
M  V30 5981 H 572.956 0.19095 -0.684879 0
M  V30 5982 H 575.558 -0.162267 -1.94825 0
M  V30 5983 H 574.262 0.339845 -4.0899 0
M  V30 5984 H 573.793 1.91672 -3.43548 0
M  V30 5985 H 575.808 3.10037 -3.87417 0
M  V30 5986 N 574.981 1.5647 0.188427 0
M  V30 5987 C 576.211 1.84863 0.922463 0
M  V30 5988 C 576.619 0.666413 1.77075 0
M  V30 5989 O 575.962 -0.374044 1.79852 0
M  V30 5990 C 576.024 3.07447 1.86324 0
M  V30 5991 C 575.688 4.41066 1.19625 0
M  V30 5992 C 576.685 5.16767 0.569946 0
M  V30 5993 C 574.37 4.87802 1.19811 0
M  V30 5994 C 576.364 6.37384 -0.045594 0
M  V30 5995 C 574.051 6.08353 0.57874 0
M  V30 5996 C 575.049 6.82987 -0.0420259 0
M  V30 5997 O 574.737 8.01254 -0.651675 0
M  V30 5998 H 574.469 0.61784 0.274316 0
M  V30 5999 H 577.023 2.04437 0.198613 0
M  V30 6000 H 575.253 2.83774 2.62696 0
M  V30 6001 H 576.942 3.2243 2.46564 0
M  V30 6002 H 577.708 4.81749 0.560601 0
M  V30 6003 H 573.587 4.29662 1.67069 0
M  V30 6004 H 577.131 6.95578 -0.530731 0
M  V30 6005 H 573.028 6.42838 0.58561 0
M  V30 6006 H 573.796 8.16655 -0.549236 0
M  V30 6007 N 576.459 -0.456382 1.50847 0
M  V30 6008 C 577.369 -1.57805 1.73594 0
M  V30 6009 C 578.385 -1.62599 0.619476 0
M  V30 6010 O 579.561 -1.80195 0.899532 0
M  V30 6011 C 576.626 -2.93926 1.8387 0
M  V30 6012 C 575.687 -2.99402 3.07663 0
M  V30 6013 C 574.92 -4.29031 3.1744 0
M  V30 6014 O 575.143 -5.20358 2.33631 0
M  V30 6015 O 574.077 -4.40401 4.10281 0
M  V30 6016 H 577.903 -1.41531 2.68705 0
M  V30 6017 H 575.488 -0.637422 1.3512 0
M  V30 6018 H 577.37 -3.74747 1.92725 0
M  V30 6019 H 576.045 -3.10368 0.91944 0
M  V30 6020 H 574.952 -2.17606 3.043 0
M  V30 6021 H 576.285 -2.87901 3.99216 0
M  V30 6022 N 577.937 -1.40673 -0.710563 0
M  V30 6023 C 578.885 -1.41517 -1.84596 0
M  V30 6024 C 579.879 -0.295043 -1.66811 0
M  V30 6025 O 581.085 -0.466331 -1.73854 0
M  V30 6026 H 577.46 -0.442467 -0.608052 0
M  V30 6027 H 579.431 -2.37238 -1.80999 0
M  V30 6028 C 578.18 -1.29957 -3.225 0
M  V30 6029 H 577.503 -2.15429 -3.36794 0
M  V30 6030 H 578.943 -1.34608 -4.02066 0
M  V30 6031 C 577.402 -0.0103164 -3.36898 0
M  V30 6032 O 577.932 0.950707 -3.90288 0
M  V30 6033 N 576.138 0.0608409 -2.90536 0
M  V30 6034 H 575.685 -0.721943 -2.47277 0
M  V30 6035 H 575.643 0.92292 -3.00549 0
M  V30 6036 N 579.415 0.9433 -1.26252 0
M  V30 6037 C 580.325 2.07532 -1.09397 0
M  V30 6038 C 581.341 1.73977 -0.0280449 0
M  V30 6039 O 582.517 2.00067 -0.231337 0
M  V30 6040 C 579.582 3.39002 -0.726523 0
M  V30 6041 C 578.643 3.86353 -1.87163 0
M  V30 6042 C 577.876 5.11549 -1.52162 0
M  V30 6043 O 578.099 5.68834 -0.422385 0
M  V30 6044 O 577.033 5.53889 -2.35565 0
M  V30 6045 H 580.859 2.24658 -2.04359 0
M  V30 6046 H 578.444 1.05988 -1.05295 0
M  V30 6047 H 580.326 4.18 -0.534236 0
M  V30 6048 H 579.001 3.2312 0.193721 0
M  V30 6049 H 577.908 3.0831 -2.11886 0
M  V30 6050 H 579.241 4.06752 -2.77152 0
M  V30 6051 N 580.893 1.08022 1.14757 0
M  V30 6052 C 581.823 0.728248 2.21853 0
M  V30 6053 C 582.804 -0.287486 1.67653 0
M  V30 6054 O 583.989 -0.158727 1.9355 0
M  V30 6055 C 581.119 0.132549 3.47047 0
M  V30 6056 C 580.073 1.07619 4.14249 0
M  V30 6057 C 579.399 0.342907 5.33599 0
M  V30 6058 C 580.699 2.41268 4.63235 0
M  V30 6059 H 582.393 1.62365 2.51551 0
M  V30 6060 H 579.939 0.782125 1.20908 0
M  V30 6061 H 581.892 -0.125665 4.21213 0
M  V30 6062 H 580.616 -0.797971 3.16702 0
M  V30 6063 H 579.275 1.31944 3.42033 0
M  V30 6064 H 578.923 -0.59129 4.99513 0
M  V30 6065 H 578.623 0.971955 5.79506 0
M  V30 6066 H 580.147 0.0926538 6.1053 0
M  V30 6067 H 581.561 2.21232 5.28894 0
M  V30 6068 H 579.958 2.9983 5.19829 0
M  V30 6069 H 581.028 3.03079 3.78512 0
M  V30 6070 N 582.371 -1.3172 0.865308 0
M  V30 6071 C 583.334 -2.26918 0.322627 0
M  V30 6072 C 584.334 -1.52031 -0.523751 0
M  V30 6073 O 585.524 -1.70973 -0.333727 0
M  V30 6074 C 582.656 -3.36558 -0.542338 0
M  V30 6075 H 583.849 -2.76432 1.16298 0
M  V30 6076 H 581.402 -1.42573 0.640512 0
M  V30 6077 H 582.137 -2.92329 -1.40407 0
M  V30 6078 H 581.922 -3.92048 0.0636395 0
M  V30 6079 H 583.412 -4.07465 -0.91446 0
M  V30 6080 N 583.85 -0.624285 -1.44708 0
M  V30 6081 C 584.779 0.0717025 -2.3339 0
M  V30 6082 C 585.76 0.841814 -1.47809 0
M  V30 6083 O 586.946 0.809056 -1.76544 0
M  V30 6084 C 584.076 1.05852 -3.30776 0
M  V30 6085 C 583.029 0.400503 -4.26122 0
M  V30 6086 C 582.356 1.49674 -5.13324 0
M  V30 6087 C 583.656 -0.688924 -5.17737 0
M  V30 6088 H 585.35 -0.668819 -2.91834 0
M  V30 6089 H 582.896 -0.32308 -1.40329 0
M  V30 6090 H 584.849 1.5541 -3.91696 0
M  V30 6091 H 583.572 1.82984 -2.70526 0
M  V30 6092 H 582.231 -0.0743687 -3.66525 0
M  V30 6093 H 581.88 2.25877 -4.49431 0
M  V30 6094 H 581.58 1.06188 -5.77926 0
M  V30 6095 H 583.104 1.99427 -5.77115 0
M  V30 6096 H 584.518 -0.276724 -5.72632 0
M  V30 6097 H 582.915 -1.04652 -5.90904 0
M  V30 6098 H 583.985 -1.55884 -4.5916 0
M  V30 6099 N 585.328 1.53329 -0.364422 0
M  V30 6100 C 586.553 2.06132 0.229033 0
M  V30 6101 C 586.978 1.23625 1.41769 0
M  V30 6102 O 586.336 0.255038 1.79497 0
M  V30 6103 C 586.384 3.55544 0.60174 0
M  V30 6104 O 585.488 3.75771 1.69912 0
M  V30 6105 H 584.829 0.663148 0.0336213 0
M  V30 6106 H 587.359 1.97758 -0.524689 0
M  V30 6107 H 587.369 3.98549 0.873073 0
M  V30 6108 H 586.044 4.15039 -0.267421 0
M  V30 6109 H 584.621 3.44663 1.42343 0
M  V30 6110 N 586.806 0.0935595 1.57322 0
M  V30 6111 C 588.046 -0.573901 1.96178 0
M  V30 6112 C 588.41 -1.65445 0.97426 0
M  V30 6113 O 589.611 -2.37901 1.25126 0
M  V30 6114 C 587.882 -1.11612 3.39526 0
M  V30 6115 S 589.441 -1.79566 4.00377 0
M  V30 6116 H 586.259 -0.187315 0.685882 0
M  V30 6117 H 588.861 0.172597 1.94737 0
M  V30 6118 H 587.565 -0.31815 4.09165 0
M  V30 6119 H 587.096 -1.89848 3.4456 0
M  V30 6120 H 589.111 -3.07978 3.89056 0
M  V30 6121 N 588.284 -1.56567 -0.180126 0
M  V30 6122 C 589.524 -1.83285 -0.904761 0
M  V30 6123 C 589.888 -0.673226 -1.7981 0
M  V30 6124 O 591.089 -0.820645 -2.55967 0
M  V30 6125 C 589.36 -3.15086 -1.68688 0
M  V30 6126 S 590.919 -3.63258 -2.46149 0
M  V30 6127 H 587.737 -0.643114 -0.303193 0
M  V30 6128 H 590.339 -1.94785 -0.167034 0
M  V30 6129 H 589.043 -3.97484 -1.02148 0
M  V30 6130 H 588.574 -3.06504 -2.46615 0
M  V30 6131 H 590.589 -3.29884 -3.70663 0
M  V30 6132 N 589.762 0.448376 -1.51087 0
M  V30 6133 C 590.694 1.56146 -1.67783 0
M  V30 6134 C 591.707 1.52913 -0.55871 0
M  V30 6135 O 592.896 1.57889 -0.83267 0
M  V30 6136 C 589.996 2.95057 -1.66716 0
M  V30 6137 C 589.169 3.22915 -2.95033 0
M  V30 6138 C 588.228 4.41495 -2.86302 0
M  V30 6139 O 587.254 4.40688 -3.60254 0
M  V30 6140 N 588.456 5.44443 -2.014 0
M  V30 6141 H 591.221 1.42232 -2.638 0
M  V30 6142 H 588.782 0.637153 -1.48835 0
M  V30 6143 H 590.774 3.72388 -1.58458 0
M  V30 6144 H 589.344 3.02624 -0.783403 0
M  V30 6145 H 588.564 2.33985 -3.17245 0
M  V30 6146 H 589.852 3.38349 -3.79996 0
M  V30 6147 H 589.25 5.4793 -1.40674 0
M  V30 6148 H 587.807 6.2067 -1.99029 0
M  V30 6149 N 591.24 1.41047 0.703093 0
M  V30 6150 C 592.15 1.44645 1.84703 0
M  V30 6151 C 593.166 0.337778 1.7069 0
M  V30 6152 O 594.342 0.584327 1.92737 0
M  V30 6153 C 591.407 1.31928 3.20618 0
M  V30 6154 C 590.468 2.53047 3.46794 0
M  V30 6155 C 589.701 2.40927 4.76224 0
M  V30 6156 O 589.924 1.42978 5.5219 0
M  V30 6157 O 588.858 3.30543 5.03016 0
M  V30 6158 H 592.684 2.41139 1.84624 0
M  V30 6159 H 590.269 1.22504 0.855167 0
M  V30 6160 H 592.151 1.27092 4.01778 0
M  V30 6161 H 590.826 0.385469 3.21397 0
M  V30 6162 H 589.733 2.6346 2.65593 0
M  V30 6163 H 591.066 3.45231 3.50822 0
M  V30 6164 N 592.718 -0.936591 1.26751 0
M  V30 6165 C 593.628 -2.06949 1.10496 0
M  V30 6166 C 594.644 -1.7396 0.037271 0
M  V30 6167 O 595.82 -1.99941 0.241944 0
M  V30 6168 C 592.885 -3.38612 0.744491 0
M  V30 6169 C 591.946 -3.85355 1.89209 0
M  V30 6170 C 591.179 -5.10735 1.54873 0
M  V30 6171 O 591.402 -5.68602 0.452546 0
M  V30 6172 O 590.336 -5.52632 2.38499 0
M  V30 6173 H 594.162 -2.23571 2.05547 0
M  V30 6174 H 591.747 -1.05428 1.05855 0
M  V30 6175 H 593.629 -4.17711 0.556396 0
M  V30 6176 H 592.304 -3.23218 -0.176582 0
M  V30 6177 H 591.211 -3.07182 2.13518 0
M  V30 6178 H 592.544 -4.05277 2.79305 0
M  V30 6179 N 594.196 -1.08629 -1.14182 0
M  V30 6180 C 595.473 -0.73002 -1.81466 0
M  V30 6181 C 595.853 0.785996 -1.95922 0
M  V30 6182 O 595.201 1.70535 -1.52086 0
M  V30 6183 C 595.411 -1.45957 -3.17014 0
M  V30 6184 C 596.759 -1.62008 -3.92477 0
M  V30 6185 O 597.783 -1.42141 -3.26611 0
M  V30 6186 O 596.642 -1.94806 -5.106 0
M  V30 6187 H 593.736 -0.261307 -0.784632 0
M  V30 6188 H 596.282 -1.188 -1.2118 0
M  V30 6189 H 595.054 -2.49221 -3.01669 0
M  V30 6190 H 594.677 -0.993222 -3.84995 0
M  V30 6191 N 595.674 1.31259 -0.872281 0
M  V30 6192 C 596.584 2.32221 -0.333255 0
M  V30 6193 C 597.6 1.6481 0.558013 0
M  V30 6194 O 598.776 1.96212 0.454175 0
M  V30 6195 C 595.841 3.43708 0.454479 0
M  V30 6196 C 594.902 4.26774 -0.465024 0
M  V30 6197 C 594.135 5.32937 0.28521 0
M  V30 6198 O 594.358 5.49968 1.513 0
M  V30 6199 O 593.292 6.00834 -0.358126 0
M  V30 6200 H 597.118 2.80252 -1.17016 0
M  V30 6201 H 594.703 1.352 -0.635724 0
M  V30 6202 H 596.585 4.11656 0.900963 0
M  V30 6203 H 595.26 2.97836 1.26789 0
M  V30 6204 H 594.167 3.61571 -0.960055 0
M  V30 6205 H 595.5 4.76217 -1.2441 0
M  V30 6206 N 597.152 0.631951 1.44375 0
M  V30 6207 C 598.429 0.067646 1.95483 0
M  V30 6208 C 598.809 -1.40683 1.57389 0
M  V30 6209 O 598.157 -2.12167 0.848375 0
M  V30 6210 C 598.367 0.291392 3.47781 0
M  V30 6211 C 599.715 0.185028 4.24197 0
M  V30 6212 O 600.739 0.222803 3.55503 0
M  V30 6213 O 599.598 0.0906642 5.46425 0
M  V30 6214 H 596.692 -0.0218379 0.826712 0
M  V30 6215 H 599.238 0.703711 1.54421 0
M  V30 6216 H 598.01 1.31449 3.68561 0
M  V30 6217 H 597.633 -0.378772 3.95792 0
M  V30 6218 N 598.631 -1.53133 0.372548 0
M  V30 6219 C 599.908 -1.93704 -0.271693 0
M  V30 6220 C 600.288 -1.30667 -1.65799 0
M  V30 6221 O 599.636 -0.46838 -2.23648 0
M  V30 6222 C 599.846 -3.47576 -0.314903 0
M  V30 6223 C 601.194 -4.20998 -0.551912 0
M  V30 6224 O 602.218 -3.53994 -0.39582 0
M  V30 6225 O 601.077 -5.39748 -0.85639 0
M  V30 6226 H 598.171 -0.810457 -0.164586 0
M  V30 6227 H 600.717 -1.6427 0.425838 0
M  V30 6228 H 599.489 -3.85749 0.656792 0
M  V30 6229 H 599.112 -3.83264 -1.05804 0
M  V30 6230 N 600.109 -0.101901 -1.5727 0
M  V30 6231 C 601.019 0.868647 -2.17926 0
M  V30 6232 C 602.035 1.30527 -1.1506 0
M  V30 6233 O 603.211 1.37178 -1.47459 0
M  V30 6234 C 600.276 2.10727 -2.75309 0
M  V30 6235 C 599.337 1.7242 -3.93154 0
M  V30 6236 C 598.57 2.90377 -4.47791 0
M  V30 6237 O 598.793 4.05305 -4.01353 0
M  V30 6238 O 597.727 2.6845 -5.38719 0
M  V30 6239 H 601.553 0.382544 -3.01281 0
M  V30 6240 H 599.138 0.122812 -1.48894 0
M  V30 6241 H 601.02 2.83303 -3.11958 0
M  V30 6242 H 599.695 2.58376 -1.94996 0
M  V30 6243 H 598.602 0.970039 -3.61305 0
M  V30 6244 H 599.935 1.29528 -4.74851 0
M  V30 6245 N 601.587 1.56661 0.17182 0
M  V30 6246 C 602.815 1.861 0.904115 0
M  V30 6247 C 603.23 0.687227 1.75848 0
M  V30 6248 O 602.587 -0.343671 1.79235 0
M  V30 6249 C 602.638 3.14568 1.78127 0
M  V30 6250 O 602.359 4.27422 0.961366 0
M  V30 6251 C 603.86 3.5735 2.62327 0
M  V30 6252 H 601.08 0.617445 0.262684 0
M  V30 6253 H 603.624 2.03775 0.172068 0
M  V30 6254 H 601.779 2.98721 2.46666 0
M  V30 6255 H 602.193 5.00725 1.56123 0
M  V30 6256 H 603.667 4.50144 3.1949 0
M  V30 6257 H 604.144 2.81445 3.37173 0
M  V30 6258 H 604.75 3.75807 1.99121 0
M  V30 6259 N 603.065 -0.440357 1.51323 0
M  V30 6260 C 603.975 -1.55955 1.75258 0
M  V30 6261 C 604.991 -1.61933 0.636687 0
M  V30 6262 O 606.167 -1.79231 0.918593 0
M  V30 6263 C 603.232 -2.9196 1.86977 0
M  V30 6264 C 602.293 -2.96122 3.10822 0
M  V30 6265 C 601.526 -4.2564 3.21973 0
M  V30 6266 O 601.749 -5.17851 2.39137 0
M  V30 6267 O 600.683 -4.36025 4.14929 0
M  V30 6268 H 604.509 -1.38673 2.70191 0
M  V30 6269 H 602.094 -0.623055 1.35788 0
M  V30 6270 H 603.976 -3.72682 1.96688 0
M  V30 6271 H 602.651 -3.09375 0.952307 0
M  V30 6272 H 601.558 -2.14366 3.06591 0
M  V30 6273 H 602.891 -2.83651 4.02247 0
M  V30 6274 N 604.543 -1.41418 -0.695603 0
M  V30 6275 C 605.453 -1.45622 -1.83933 0
M  V30 6276 C 606.469 -0.346825 -1.70508 0
M  V30 6277 O 607.645 -0.59454 -1.92424 0
M  V30 6278 C 604.71 -1.33627 -3.19914 0
M  V30 6279 C 603.771 -2.54882 -3.45447 0
M  V30 6280 C 603.004 -2.43449 -4.7494 0
M  V30 6281 O 603.227 -1.45905 -5.51424 0
M  V30 6282 O 602.161 -3.33206 -5.01256 0
M  V30 6283 H 605.987 -2.42114 -1.83342 0
M  V30 6284 H 603.572 -1.22956 -0.848658 0
M  V30 6285 H 605.454 -1.29221 -4.01098 0
M  V30 6286 H 604.129 -0.402508 -3.21188 0
M  V30 6287 H 603.036 -2.64865 -2.64192 0
M  V30 6288 H 604.369 -3.47087 -3.48987 0
M  V30 6289 N 606.021 0.929856 -1.27246 0
M  V30 6290 C 607.269 1.674 -1.13233 0
M  V30 6291 C 607.59 1.92311 0.322744 0
M  V30 6292 O 606.86 1.52784 1.22612 0
M  V30 6293 H 605.44 0.620411 -0.416052 0
M  V30 6294 H 608.102 1.11663 -1.59741 0
M  V30 6295 H 607.198 2.64308 -1.65975 0
M  V30 6296 N 607.499 1.09233 1.13605 0
M  V30 6297 C 608.447 0.724572 2.21027 0
M  V30 6298 C 609.441 -0.273595 1.67176 0
M  V30 6299 O 610.647 -0.135266 1.79491 0
M  V30 6300 H 607.022 0.216319 0.720215 0
M  V30 6301 H 608.993 1.63975 2.49309 0
M  V30 6302 C 607.742 0.159126 3.47336 0
M  V30 6303 H 607.065 0.918387 3.89109 0
M  V30 6304 H 608.505 -0.0602851 4.23957 0
M  V30 6305 C 606.964 -1.10514 3.18258 0
M  V30 6306 O 607.494 -2.18869 3.36837 0
M  V30 6307 N 605.7 -1.01886 2.72154 0
M  V30 6308 H 605.247 -0.137027 2.57235 0
M  V30 6309 H 605.205 -1.8655 2.53074 0
M  V30 6310 N 608.977 -1.30795 0.87923 0
M  V30 6311 C 610.225 -1.95974 0.493809 0
M  V30 6312 C 610.546 -1.69787 -0.959021 0
M  V30 6313 O 609.816 -1.01832 -1.67353 0
M  V30 6314 H 608.396 -0.725083 0.179622 0
M  V30 6315 H 611.058 -1.59432 1.12105 0
M  V30 6316 H 610.154 -3.05058 0.659263 0
M  V30 6317 N 610.455 -0.639598 -1.44038 0
M  V30 6318 C 611.701 -0.147698 -2.02261 0
M  V30 6319 C 612.034 1.23031 -1.50256 0
M  V30 6320 O 611.309 1.81847 -0.690068 0
M  V30 6321 C 611.592 -0.14362 -3.59813 0
M  V30 6322 C 611.445 -1.55458 -4.22082 0
M  V30 6323 C 612.764 0.527317 -4.36929 0
M  V30 6324 H 609.883 -0.0551453 -0.734934 0
M  V30 6325 H 612.525 -0.817688 -1.71505 0
M  V30 6326 H 610.675 0.426898 -3.86147 0
M  V30 6327 H 612.347 -2.17464 -4.06826 0
M  V30 6328 H 610.59 -2.10594 -3.79253 0
M  V30 6329 H 611.261 -1.50369 -5.31124 0
M  V30 6330 H 613.737 0.0420504 -4.16079 0
M  V30 6331 H 612.613 0.499389 -5.46624 0
M  V30 6332 H 612.874 1.59914 -4.12165 0
M  V30 6333 N 611.933 1.52934 -0.380664 0
M  V30 6334 C 612.843 2.29921 0.466192 0
M  V30 6335 C 613.859 1.36488 1.07922 0
M  V30 6336 O 615.035 1.69553 1.0869 0
M  V30 6337 C 612.1 3.08468 1.58266 0
M  V30 6338 C 611.161 4.17595 0.995627 0
M  V30 6339 C 610.394 4.92387 2.05889 0
M  V30 6340 O 610.617 4.67184 3.27254 0
M  V30 6341 O 609.551 5.77949 1.68102 0
M  V30 6342 H 613.377 3.03274 -0.160735 0
M  V30 6343 H 610.962 1.48698 -0.144617 0
M  V30 6344 H 612.844 3.57469 2.23145 0
M  V30 6345 H 611.519 2.37937 2.19471 0
M  V30 6346 H 610.426 3.72811 0.310332 0
M  V30 6347 H 611.759 4.90336 0.427918 0
M  V30 6348 N 613.412 0.11024 1.57214 0
M  V30 6349 C 614.64 -0.557834 1.99238 0
M  V30 6350 C 615.055 -1.60778 0.989734 0
M  V30 6351 O 614.412 -1.82491 -0.0186092 0
M  V30 6352 C 614.463 -1.19189 3.41286 0
M  V30 6353 O 614.184 -0.183919 4.37714 0
M  V30 6354 C 615.685 -1.94413 3.98395 0
M  V30 6355 H 612.905 -0.148392 0.654386 0
M  V30 6356 H 615.449 0.193996 2.03578 0
M  V30 6357 H 613.604 -1.89456 3.37913 0
M  V30 6358 H 614.018 -0.643475 5.20538 0
M  V30 6359 H 615.492 -2.34116 4.99894 0
M  V30 6360 H 615.969 -2.81592 3.3705 0
M  V30 6361 H 616.575 -1.28928 4.05287 0
M  V30 6362 N 614.89 -1.56749 -0.16351 0
M  V30 6363 C 615.8 -2.00255 -1.2221 0
M  V30 6364 C 616.816 -0.915194 -1.47987 0
M  V30 6365 O 617.992 -1.22342 -1.59982 0
M  V30 6366 C 615.057 -2.36035 -2.53946 0
M  V30 6367 C 614.118 -3.58637 -2.35962 0
M  V30 6368 C 613.351 -3.92701 -3.61416 0
M  V30 6369 O 613.574 -3.27632 -4.66919 0
M  V30 6370 O 612.508 -4.86019 -3.55062 0
M  V30 6371 H 616.334 -2.90586 -0.882794 0
M  V30 6372 H 613.919 -1.44721 -0.370978 0
M  V30 6373 H 615.801 -2.59982 -3.31643 0
M  V30 6374 H 614.476 -1.48863 -2.8744 0
M  V30 6375 H 613.383 -3.39898 -1.5627 0
M  V30 6376 H 614.716 -4.46374 -2.0739 0
M  V30 6377 N 616.368 0.432326 -1.51554 0
M  V30 6378 C 617.645 1.19288 -1.55015 0
M  V30 6379 C 618.025 2.08701 -0.317375 0
M  V30 6380 O 617.373 2.17602 0.697243 0
M  V30 6381 C 617.583 1.99037 -2.86679 0
M  V30 6382 C 618.931 2.55907 -3.38817 0
M  V30 6383 O 619.955 2.09243 -2.88263 0
M  V30 6384 O 618.814 3.41029 -4.27038 0
M  V30 6385 H 615.908 0.543369 -0.623441 0
M  V30 6386 H 618.454 0.440988 -1.6387 0
M  V30 6387 H 617.226 1.33397 -3.6786 0
M  V30 6388 H 616.849 2.81281 -2.8101 0
M  V30 6389 N 617.846 1.41785 0.688094 0
M  V30 6390 C 619.094 1.41264 1.4453 0
M  V30 6391 C 619.415 0.0252946 1.94984 0
M  V30 6392 O 618.685 -0.934081 1.72197 0
M  V30 6393 H 617.265 0.519998 0.536294 0
M  V30 6394 H 619.927 1.7709 0.813941 0
M  V30 6395 H 619.023 2.10439 2.30482 0
M  V30 6396 N 619.324 -0.923095 1.27737 0
M  V30 6397 C 620.287 -2.00587 1.10894 0
M  V30 6398 C 621.287 -1.60718 0.0514927 0
M  V30 6399 O 622.477 -1.71658 0.296481 0
M  V30 6400 C 619.609 -3.33829 0.690717 0
M  V30 6401 H 620.802 -2.16959 2.07048 0
M  V30 6402 H 618.355 -1.10451 1.1059 0
M  V30 6403 H 619.09 -3.23157 -0.272 0
M  V30 6404 H 618.875 -3.64125 1.45448 0
M  V30 6405 H 620.365 -4.13336 0.595252 0
M  V30 6406 N 620.802 -1.09834 -1.13024 0
M  V30 6407 C 621.765 -0.745058 -2.16752 0
M  V30 6408 C 622.765 0.227435 -1.59183 0
M  V30 6409 O 623.955 0.0050786 -1.74199 0
M  V30 6410 C 621.087 -0.102543 -3.40746 0
M  V30 6411 H 622.28 -1.66375 -2.49518 0
M  V30 6412 H 619.833 -0.898061 -1.27924 0
M  V30 6413 H 620.568 0.827177 -3.13573 0
M  V30 6414 H 620.353 -0.80235 -3.83803 0
M  V30 6415 H 621.843 0.129082 -4.174 0
M  V30 6416 N 622.28 1.30327 -0.886154 0
M  V30 6417 C 623.505 2.0079 -0.519425 0
M  V30 6418 C 623.93 1.65979 0.885013 0
M  V30 6419 O 623.288 0.877043 1.58675 0
M  V30 6420 C 623.336 3.53686 -0.702758 0
M  V30 6421 O 622.44 4.11637 0.250828 0
M  V30 6422 H 621.781 0.63171 -0.204544 0
M  V30 6423 H 624.311 1.66145 -1.19402 0
M  V30 6424 H 624.321 4.03531 -0.602207 0
M  V30 6425 H 622.996 3.78361 -1.72673 0
M  V30 6426 H 621.573 3.72755 0.103873 0
M  V30 6427 N 623.758 0.647228 1.43697 0
M  V30 6428 C 625.169 0.238689 1.85168 0
M  V30 6429 C 625.52 -1.21345 1.54175 0
M  V30 6430 O 624.645 -1.92542 0.987743 0
M  V30 6431 C 625.24 0.426422 3.36106 0
M  V30 6432 C 623.799 0.0722541 3.76331 0
M  V30 6433 C 622.946 0.732153 2.6746 0
M  V30 6434 H 625.897 0.851309 1.33934 0
M  V30 6435 H 625.918 -0.32987 3.79067 0
M  V30 6436 H 625.43 1.48339 3.58632 0
M  V30 6437 H 623.531 -0.982355 3.59417 0
M  V30 6438 H 623.644 0.493541 4.76551 0
M  V30 6439 H 622.008 0.16594 2.54159 0
M  V30 6440 H 622.791 1.79204 2.92816 0
M  V30 6441 N 625.236 -1.5273 0.388769 0
M  V30 6442 C 626.652 -1.59553 0.0387049 0
M  V30 6443 C 626.852 -1.40278 -1.44652 0
M  V30 6444 O 625.908 -1.21951 -2.21098 0
M  V30 6445 C 627.221 -2.9625 0.515409 0
M  V30 6446 C 628.769 -3.09426 0.471621 0
M  V30 6447 C 629.244 -4.48572 0.924505 0
M  V30 6448 N 630.735 -4.54754 0.880496 0
M  V30 6449 C 631.47 -5.60653 1.20234 0
M  V30 6450 N 630.966 -6.74198 1.59463 0
M  V30 6451 N 632.759 -5.50755 1.12363 0
M  V30 6452 H 624.91 -1.63508 1.35569 0
M  V30 6453 H 627.173 -0.768097 0.555636 0
M  V30 6454 H 626.879 -3.15569 1.5527 0
M  V30 6455 H 626.753 -3.77102 -0.085792 0
M  V30 6456 H 629.14 -2.89804 -0.556588 0
M  V30 6457 H 629.221 -2.30528 1.10862 0
M  V30 6458 H 628.865 -4.68936 1.95094 0
M  V30 6459 H 628.795 -5.25935 0.264524 0
M  V30 6460 H 631.286 -3.73237 0.591815 0
M  V30 6461 H 631.599 -7.5097 1.82385 0
M  V30 6462 H 629.944 -6.75531 1.63349 0
M  V30 6463 H 633.135 -4.6093 0.816169 0
M  V30 6464 H 633.308 -6.33184 1.37777 0
M  V30 6465 N 626.714 -0.118576 -1.57153 0
M  V30 6466 C 627.96 0.540326 -1.95469 0
M  V30 6467 C 628.293 1.66356 -1.00196 0
M  V30 6468 O 627.568 1.94461 -0.039104 0
M  V30 6469 C 627.851 1.07342 -3.43729 0
M  V30 6470 C 627.704 -0.0463732 -4.49776 0
M  V30 6471 C 629.023 1.96442 -3.93826 0
M  V30 6472 H 626.142 0.19494 -0.710751 0
M  V30 6473 H 628.784 -0.19405 -1.89006 0
M  V30 6474 H 626.934 1.69925 -3.49368 0
M  V30 6475 H 628.606 -0.681648 -4.56236 0
M  V30 6476 H 626.849 -0.709574 -4.27957 0
M  V30 6477 H 627.52 0.367856 -5.50773 0
M  V30 6478 H 629.996 1.43731 -3.90488 0
M  V30 6479 H 628.872 2.3066 -4.98084 0
M  V30 6480 H 629.133 2.89077 -3.34495 0
M  V30 6481 N 628.193 1.56834 0.155195 0
M  V30 6482 C 629.123 2.00678 1.19376 0
M  V30 6483 C 630.104 0.884973 1.45266 0
M  V30 6484 O 631.289 1.1522 1.56326 0
M  V30 6485 C 628.419 2.38042 2.5289 0
M  V30 6486 C 627.373 3.53332 2.41538 0
M  V30 6487 C 626.699 3.76485 3.79688 0
M  V30 6488 C 627.999 4.86265 1.9064 0
M  V30 6489 H 629.693 2.87688 0.829232 0
M  V30 6490 H 627.239 1.38407 0.397445 0
M  V30 6491 H 629.192 2.67314 3.25763 0
M  V30 6492 H 627.916 1.4796 2.91162 0
M  V30 6493 H 626.575 3.24213 1.71117 0
M  V30 6494 H 626.223 2.83667 4.15382 0
M  V30 6495 H 625.923 4.54068 3.72956 0
M  V30 6496 H 627.447 4.08174 4.54122 0
M  V30 6497 H 628.861 5.14308 2.53299 0
M  V30 6498 H 627.258 5.67597 1.94818 0
M  V30 6499 H 628.328 4.77184 0.861596 0
M  V30 6500 N 629.671 -0.424282 1.51781 0
M  V30 6501 C 630.899 -1.1947 1.68921 0
M  V30 6502 C 631.314 -1.84683 0.39213 0
M  V30 6503 O 630.671 -1.71261 -0.630554 0
M  V30 6504 C 630.722 -2.26909 2.81416 0
M  V30 6505 O 630.443 -1.64361 4.061 0
M  V30 6506 C 631.944 -3.16945 3.09937 0
M  V30 6507 H 629.164 -0.359591 0.566511 0
M  V30 6508 H 631.708 -0.501139 1.98265 0
M  V30 6509 H 629.863 -2.91959 2.54635 0
M  V30 6510 H 630.277 -2.35468 4.68674 0
M  V30 6511 H 631.751 -3.88437 3.922 0
M  V30 6512 H 632.228 -3.78451 2.22871 0
M  V30 6513 H 632.834 -2.57581 3.38426 0
M  V30 6514 N 631.149 -1.42148 -0.680565 0
M  V30 6515 C 632.56 -1.3768 -1.26099 0
M  V30 6516 C 632.911 -0.0672348 -1.96085 0
M  V30 6517 O 632.036 0.834172 -1.99676 0
M  V30 6518 C 632.631 -2.49387 -2.29328 0
M  V30 6519 C 631.19 -2.4827 -2.82911 0
M  V30 6520 C 630.337 -2.2847 -1.57152 0
M  V30 6521 H 633.288 -1.51446 -0.474326 0
M  V30 6522 H 633.309 -2.19307 -3.10941 0
M  V30 6523 H 632.821 -3.44686 -1.78363 0
M  V30 6524 H 630.922 -1.56773 -3.38013 0
M  V30 6525 H 631.035 -3.45109 -3.3232 0
M  V30 6526 H 629.399 -1.76623 -1.83511 0
M  V30 6527 H 630.182 -3.25816 -1.0816 0
M  V30 6528 N 632.627 0.916307 -1.28225 0
M  V30 6529 C 633.855 1.69901 -1.18073 0
M  V30 6530 C 634.27 1.86988 0.260968 0
M  V30 6531 O 633.627 1.39505 1.17663 0
M  V30 6532 C 633.678 3.09254 -1.87201 0
M  V30 6533 O 633.399 2.92959 -3.2574 0
M  V30 6534 C 634.9 4.0362 -1.83319 0
M  V30 6535 H 632.12 0.531181 -0.409985 0
M  V30 6536 H 634.664 1.14703 -1.69303 0
M  V30 6537 H 632.819 3.61277 -1.39848 0
M  V30 6538 H 633.233 3.81139 -3.60324 0
M  V30 6539 H 634.707 4.98873 -2.36282 0
M  V30 6540 H 635.184 4.3176 -0.805007 0
M  V30 6541 H 635.79 3.57524 -2.3034 0
M  V30 6542 N 634.105 1.10431 1.1244 0
M  V30 6543 C 635.035 0.775143 2.20258 0
M  V30 6544 C 636.016 -0.25186 1.68225 0
M  V30 6545 O 637.201 -0.117637 1.93843 0
M  V30 6546 C 634.331 0.206133 3.46688 0
M  V30 6547 C 633.285 1.16382 4.11873 0
M  V30 6548 C 632.611 0.456014 5.32752 0
M  V30 6549 C 633.911 2.5104 4.58013 0
M  V30 6550 H 635.605 1.67665 2.4805 0
M  V30 6551 H 633.151 0.807595 1.19222 0
M  V30 6552 H 635.104 -0.036291 4.21384 0
M  V30 6553 H 633.828 -0.730614 3.18323 0
M  V30 6554 H 632.487 1.39169 3.39157 0
M  V30 6555 H 632.135 -0.485203 5.00654 0
M  V30 6556 H 631.835 1.09466 5.77314 0
M  V30 6557 H 633.359 0.222135 6.10196 0
M  V30 6558 H 634.773 2.32401 5.24083 0
M  V30 6559 H 633.17 3.10789 5.13352 0
M  V30 6560 H 634.24 3.11039 3.71998 0
M  V30 6561 N 635.583 -1.29855 0.893053 0
M  V30 6562 C 636.546 -2.26183 0.370687 0
M  V30 6563 C 637.546 -1.53108 -0.491385 0
M  V30 6564 O 638.736 -1.71643 -0.297386 0
M  V30 6565 C 635.868 -3.37633 -0.470827 0
M  V30 6566 H 637.061 -2.73903 1.22135 0
M  V30 6567 H 634.614 -1.41183 0.67061 0
M  V30 6568 H 635.349 -2.95241 -1.34175 0
M  V30 6569 H 635.134 -3.91825 0.146784 0
M  V30 6570 H 636.624 -4.09313 -0.827825 0
M  V30 6571 N 637.061 -0.65484 -1.43351 0
M  V30 6572 C 637.991 0.0221809 -2.33489 0
M  V30 6573 C 638.972 0.810272 -1.49561 0
M  V30 6574 O 640.157 0.771426 -1.78221 0
M  V30 6575 C 637.287 0.988117 -3.32947 0
M  V30 6576 C 636.241 0.310026 -4.26876 0
M  V30 6577 C 635.567 1.38752 -5.16384 0
M  V30 6578 C 636.867 -0.798589 -5.16159 0
M  V30 6579 H 638.561 -0.730571 -2.9035 0
M  V30 6580 H 636.107 -0.352773 -1.39612 0
M  V30 6581 H 638.06 1.47067 -3.94904 0
M  V30 6582 H 636.784 1.77205 -2.74346 0
M  V30 6583 H 635.443 -0.152097 -3.66284 0
M  V30 6584 H 635.091 2.16293 -4.54121 0
M  V30 6585 H 634.791 0.939051 -5.80048 0
M  V30 6586 H 636.315 1.87141 -5.81215 0
M  V30 6587 H 637.729 -0.398126 -5.71916 0
M  V30 6588 H 636.126 -1.17163 -5.88552 0
M  V30 6589 H 637.196 -1.65588 -4.55751 0
M  V30 6590 N 638.539 1.52521 -0.396863 0
M  V30 6591 C 639.767 2.06091 0.18275 0
M  V30 6592 C 640.182 1.26796 1.39886 0
M  V30 6593 O 639.539 0.316585 1.79733 0
M  V30 6594 C 639.59 3.57362 0.545377 0
M  V30 6595 O 639.311 4.33656 -0.622428 0
M  V30 6596 C 640.812 4.27305 1.18004 0
M  V30 6597 H 638.032 0.670504 0.025789 0
M  V30 6598 H 640.576 1.96561 -0.564276 0
M  V30 6599 H 638.731 3.66941 1.2423 0
M  V30 6600 H 639.145 5.23507 -0.322662 0
M  V30 6601 H 640.619 5.34366 1.38408 0
M  V30 6602 H 641.096 3.83 2.1496 0
M  V30 6603 H 641.702 4.22064 0.523671 0
M  V30 6604 N 640.017 0.126909 1.57088 0
M  V30 6605 C 640.947 -0.816847 2.18746 0
M  V30 6606 C 641.928 -1.27161 1.12979 0
M  V30 6607 O 643.113 -1.33279 1.41246 0
M  V30 6608 C 640.243 -2.06398 2.79315 0
M  V30 6609 C 639.197 -1.74673 3.90735 0
M  V30 6610 C 638.523 -3.06482 4.38147 0
M  V30 6611 C 639.823 -1.0089 5.12463 0
M  V30 6612 H 641.517 -0.303032 2.97863 0
M  V30 6613 H 639.063 -0.144314 1.43275 0
M  V30 6614 H 641.016 -2.72885 3.2111 0
M  V30 6615 H 639.74 -2.60118 1.975 0
M  V30 6616 H 638.399 -1.10572 3.49527 0
M  V30 6617 H 638.047 -3.58152 3.5318 0
M  V30 6618 H 637.747 -2.86025 5.13287 0
M  V30 6619 H 639.271 -3.74073 4.82599 0
M  V30 6620 H 640.685 -1.57546 5.51228 0
M  V30 6621 H 639.082 -0.905006 5.93237 0
M  V30 6622 H 640.152 0.00297335 4.849 0
M  V30 6623 N 641.495 -1.56914 -0.146875 0
M  V30 6624 C 642.906 -1.72799 -0.706928 0
M  V30 6625 C 643.257 -0.741329 -1.81656 0
M  V30 6626 O 642.382 0.0920162 -2.16204 0
M  V30 6627 C 642.977 -3.13317 -1.28911 0
M  V30 6628 C 641.536 -3.30803 -1.79573 0
M  V30 6629 C 640.683 -2.68725 -0.684252 0
M  V30 6630 H 643.634 -1.58504 0.0787931 0
M  V30 6631 H 643.655 -3.13323 -2.15891 0
M  V30 6632 H 643.167 -3.85104 -0.481284 0
M  V30 6633 H 641.268 -2.64012 -2.62923 0
M  V30 6634 H 641.381 -4.38754 -1.92436 0
M  V30 6635 H 639.745 -2.29196 -1.11091 0
M  V30 6636 H 640.528 -3.43117 0.112134 0
M  V30 6637 N 642.974 0.416227 -1.52004 0
M  V30 6638 C 644.385 0.995319 -1.57957 0
M  V30 6639 C 644.736 1.91744 -0.415754 0
M  V30 6640 O 643.861 2.11349 0.464808 0
M  V30 6641 C 644.456 1.81191 -2.86278 0
M  V30 6642 C 643.015 2.34115 -2.94732 0
M  V30 6643 C 642.162 1.139 -2.52828 0
M  V30 6644 H 645.113 0.196716 -1.57476 0
M  V30 6645 H 645.134 2.66859 -2.71231 0
M  V30 6646 H 644.646 1.14051 -3.70963 0
M  V30 6647 H 642.747 3.04647 -2.14525 0
M  V30 6648 H 642.86 2.65466 -3.98829 0
M  V30 6649 H 641.224 1.49081 -2.06511 0
M  V30 6650 H 642.007 0.483383 -3.3988 0
M  V30 6651 O 644.491 1.51403 0.562082 0
M  V30 6652 H 645.182 1.50679 1.21719 0
M  V30 END ATOM
M  V30 BEGIN BOND
M  V30 END BOND
M  V30 END CTAB
M  END
$$$$
