drugbank_target|P08913 Alpha-2A adrenergic receptor (DB00246; DB00248; DB00320; DB00321; DB00363; DB00368; DB00370; DB00408; DB00413; DB00449; DB00457; DB00484; DB00502; DB00543; DB00555; DB00575; DB00589; DB00629; DB00633; DB00656; DB00668; DB00692; DB00696; DB00714; DB00726; DB00751; DB00797; DB00800; DB00852; DB00865; DB00925; DB00935; DB00964; DB00968; DB01018; DB01136; DB01149; DB01200; DB01224; DB01238; DB01267; DB01363; DB01392; DB01403; DB01472; DB01577; DB01608; DB01624; DB04846; DB04855; DB04948; DB05492; DB06148; DB06153; DB06216; DB06229; DB06262; DB06623; DB06694; DB06711; DB08815; DB09242; DB09244; DB09286; DB11124; DB11278; DB11738; DB14185)
 OpenBabel12092119283D

  0  0  0     0  0            999 V3000
M  V30 BEGIN CTAB
M  V30 COUNTS 6966 7061 0 0 0
M  V30 BEGIN ATOM
M  V30 1 H -0.908 1.98254 -0.117106 0
M  V30 2 N 0 1.576 0 0
M  V30 3 C 0.933 2.03868 1.02534 0
M  V30 4 C 1.911 0.928543 1.3348 0
M  V30 5 O 3.095 1.19667 1.45644 0
M  V30 6 C 0.222 2.43627 2.35294 0
M  V30 7 C -0.732 3.65373 2.2001 0
M  V30 8 S 0.101 5.13292 1.52614 0
M  V30 9 C 1.257 5.56322 2.86805 0
M  V30 10 H 1.49 2.90518 0.631377 0
M  V30 11 H -0.977 1.52953 0.210867 0
M  V30 12 H 0.981 2.67203 3.11629 0
M  V30 13 H -0.358 1.57376 2.7183 0
M  V30 14 H -1.165 3.90944 3.18086 0
M  V30 15 H -1.563 3.418 1.51819 0
M  V30 16 H 0.729 5.58782 3.83104 0
M  V30 17 H 1.672 6.56266 2.65933 0
M  V30 18 H 2.08 4.83886 2.90714 0
M  V30 19 N 1.4781 -0.272755 1.55222 0
M  V30 20 C 2.7261 -1.00234 1.75492 0
M  V30 21 C 3.0471 -1.8681 0.5592 0
M  V30 22 O 2.3171 -1.91215 -0.425882 0
M  V30 23 H 0.8971 -0.373076 0.647166 0
M  V30 24 H 3.5591 -0.296926 1.92625 0
M  V30 25 H 2.6551 -1.63913 2.65592 0
M  V30 26 N 2.9562 -1.48159 -0.537278 0
M  V30 27 C 4.1812 -1.59707 -1.32319 0
M  V30 28 C 4.6062 -0.254859 -1.86365 0
M  V30 29 O 3.9642 0.772378 -1.64024 0
M  V30 30 C 4.0122 -2.6412 -2.45505 0
M  V30 31 O 3.1162 -2.20774 -3.48328 0
M  V30 32 H 2.4572 -0.535791 -0.392204 0
M  V30 33 H 4.9872 -1.94092 -0.647268 0
M  V30 34 H 4.9972 -2.85166 -2.91795 0
M  V30 35 H 3.6722 -3.61567 -2.05528 0
M  V30 36 H 2.2492 -2.09911 -3.08207 0
M  V30 37 N 4.4343 0.785586 -1.36625 0
M  V30 38 C 5.3643 1.91259 -1.33949 0
M  V30 39 C 6.3453 1.68795 -0.210325 0
M  V30 40 O 7.5303 1.89854 -0.408561 0
M  V30 41 C 4.6603 3.28339 -1.13186 0
M  V30 42 C 3.6143 3.65335 -2.22967 0
M  V30 43 C 2.9403 5.00806 -1.87342 0
M  V30 44 C 4.2403 3.7352 -3.65075 0
M  V30 45 H 5.9343 1.93755 -2.28253 0
M  V30 46 H 3.4803 0.930788 -1.09874 0
M  V30 47 H 5.4333 4.06804 -1.09948 0
M  V30 48 H 4.1573 3.2624 -0.153332 0
M  V30 49 H 2.8163 2.89169 -2.25337 0
M  V30 50 H 2.4643 4.95233 -0.880545 0
M  V30 51 H 2.1643 5.26529 -2.60846 0
M  V30 52 H 3.6883 5.81687 -1.85667 0
M  V30 53 H 5.1023 4.42168 -3.64911 0
M  V30 54 H 3.4993 4.10731 -4.37516 0
M  V30 55 H 4.5693 2.74527 -3.99703 0
M  V30 56 N 5.9124 1.20967 1.01018 0
M  V30 57 C 6.8444 0.922059 2.09835 0
M  V30 58 C 7.8574 -0.0927106 1.62536 0
M  V30 59 O 9.0464 0.139127 1.77957 0
M  V30 60 C 6.1464 0.362004 3.36961 0
M  V30 61 C 5.3194 1.42986 4.13369 0
M  V30 62 C 4.3784 0.879976 5.1879 0
M  V30 63 O 3.4044 1.56219 5.47343 0
M  V30 64 N 4.6064 -0.307396 5.79686 0
M  V30 65 H 7.3714 1.8588 2.35093 0
M  V30 66 H 4.9324 1.11422 1.1746 0
M  V30 67 H 6.9244 -0.0201474 4.04695 0
M  V30 68 H 5.4944 -0.479437 3.08902 0
M  V30 69 H 4.7144 1.98608 3.40512 0
M  V30 70 H 6.0024 2.14885 4.61196 0
M  V30 71 H 5.4004 -0.878796 5.58832 0
M  V30 72 H 3.9574 -0.631115 6.48737 0
M  V30 73 N 7.3905 -1.2043 1.01659 0
M  V30 74 C 8.8015 -1.71517 0.737482 0
M  V30 75 C 9.1525 -1.81547 -0.743973 0
M  V30 76 O 8.2775 -1.47803 -1.58061 0
M  V30 77 C 8.8725 -3.11515 1.33206 0
M  V30 78 C 7.4315 -3.59912 1.10183 0
M  V30 79 C 6.5785 -2.37116 1.43776 0
M  V30 80 H 9.5295 -1.05444 1.18606 0
M  V30 81 H 9.5505 -3.73575 0.722636 0
M  V30 82 H 9.0625 -3.04182 2.41028 0
M  V30 83 H 7.1635 -3.72577 0.0412756 0
M  V30 84 H 7.2765 -4.44731 1.78188 0
M  V30 85 H 5.6405 -2.39857 0.856778 0
M  V30 86 H 6.4235 -2.32424 2.52654 0
M  V30 87 N 8.8686 -0.792821 -1.36206 0
M  V30 88 C 10.1456 -0.290627 -1.93429 0
M  V30 89 C 10.5256 1.21773 -1.72437 0
M  V30 90 O 9.8736 2.0108 -1.08531 0
M  V30 91 C 10.0836 -0.686973 -3.42172 0
M  V30 92 C 11.4316 -0.668643 -4.19302 0
M  V30 93 O 12.4556 -0.627658 -3.50626 0
M  V30 94 O 11.3146 -0.714597 -5.41808 0
M  V30 95 H 8.4086 -0.0727927 -0.82379 0
M  V30 96 H 10.9546 -0.875593 -1.45367 0
M  V30 97 H 9.7266 -1.72711 -3.51122 0
M  V30 98 H 9.3496 -0.0760733 -3.97527 0
M  V30 99 N 10.3467 1.47872 -0.545128 0
M  V30 100 C 11.3097 2.28337 0.198717 0
M  V30 101 C 12.3097 1.36255 0.853888 0
M  V30 102 O 13.4997 1.59003 0.711606 0
M  V30 103 C 10.6317 3.15585 1.28915 0
M  V30 104 H 11.8247 2.95567 -0.507941 0
M  V30 105 H 9.3777 1.53362 -0.301616 0
M  V30 106 H 10.1127 2.53019 2.02859 0
M  V30 107 H 9.8977 3.83337 0.824309 0
M  V30 108 H 11.3877 3.76243 1.81194 0
M  V30 109 N 11.8248 0.280983 1.55075 0
M  V30 110 C 13.0728 -0.333455 1.9933 0
M  V30 111 C 13.3938 -1.55937 1.17085 0
M  V30 112 O 12.6638 -1.94143 0.261805 0
M  V30 113 H 11.2438 -0.126197 0.736263 0
M  V30 114 H 13.9058 0.387678 1.91005 0
M  V30 115 H 13.0018 -0.619292 3.05894 0
M  V30 116 N 13.3029 -1.57598 0.00835791 0
M  V30 117 C 14.2509 -2.10078 -0.998508 0
M  V30 118 C 15.2449 -1.02262 -1.35051 0
M  V30 119 O 16.4509 -1.20719 -1.33518 0
M  V30 120 H 12.8259 -0.670903 -0.339696 0
M  V30 121 H 14.7969 -2.93648 -0.530398 0
M  V30 122 C 13.5459 -2.62615 -2.27879 0
M  V30 123 H 12.8689 -3.45213 -2.01662 0
M  V30 124 H 14.3089 -3.03004 -2.96588 0
M  V30 125 C 12.7679 -1.54407 -2.99433 0
M  V30 126 O 13.2979 -0.931812 -3.90743 0
M  V30 127 N 11.5039 -1.2695 -2.61404 0
M  V30 128 H 11.0509 -1.76924 -1.87232 0
M  V30 129 H 11.0089 -0.547704 -3.09593 0
M  V30 130 N 14.781 0.264519 -1.55364 0
M  V30 131 C 15.744 1.31046 -1.88042 0
M  V30 132 C 16.744 1.41943 -0.755569 0
M  V30 133 O 17.934 1.40947 -1.02369 0
M  V30 134 C 15.066 2.69067 -2.09323 0
M  V30 135 H 16.259 1.03297 -2.81549 0
M  V30 136 H 13.812 0.502989 -1.47986 0
M  V30 137 H 14.547 3.01982 -1.18226 0
M  V30 138 H 14.332 2.62542 -2.91229 0
M  V30 139 H 15.822 3.44623 -2.35848 0
M  V30 140 N 16.2591 1.48442 0.529413 0
M  V30 141 C 17.4841 1.60406 1.31471 0
M  V30 142 C 17.9091 0.264738 1.86228 0
M  V30 143 O 17.2671 -0.763668 1.64432 0
M  V30 144 C 17.3151 2.65419 2.44101 0
M  V30 145 O 16.4191 2.22618 3.47153 0
M  V30 146 H 15.7601 0.537863 0.389357 0
M  V30 147 H 18.2901 1.94432 0.636965 0
M  V30 148 H 18.3001 2.86709 2.90279 0
M  V30 149 H 16.9751 3.62652 2.03608 0
M  V30 150 H 15.5521 2.11543 3.0709 0
M  V30 151 N 17.7372 -0.778329 1.37039 0
M  V30 152 C 18.9832 -1.53817 1.33086 0
M  V30 153 C 19.3382 -1.92208 -0.0860346 0
M  V30 154 O 18.6312 -1.60713 -1.04316 0
M  V30 155 C 18.8252 -2.81845 2.19768 0
M  V30 156 C 18.6542 -2.55967 3.69744 0
M  V30 157 C 17.4242 -2.50428 4.38878 0
M  V30 158 C 19.6222 -2.2441 4.62758 0
M  V30 159 N 17.6042 -2.16564 5.74433 0
M  V30 160 C 18.9752 -2.0063 5.86641 0
M  V30 161 C 21.0302 -2.1051 4.5121 0
M  V30 162 C 19.7332 -1.64354 7.00272 0
M  V30 163 C 21.7592 -1.75634 5.64718 0
M  V30 164 C 21.1212 -1.52709 6.87648 0
M  V30 165 H 17.2202 -0.563434 0.542279 0
M  V30 166 H 19.8042 -0.908617 1.72198 0
M  V30 167 H 17.9752 -3.42649 1.82883 0
M  V30 168 H 19.7072 -3.47682 2.07122 0
M  V30 169 H 16.4622 -2.66056 3.91805 0
M  V30 170 H 16.8862 -2.02348 6.46053 0
M  V30 171 H 21.5282 -2.26919 3.56746 0
M  V30 172 H 19.2462 -1.46683 7.94676 0
M  V30 173 H 22.8322 -1.65546 5.57751 0
M  V30 174 H 21.7122 -1.2612 7.73992 0
M  V30 175 N 19.2153 -1.21501 -1.00376 0
M  V30 176 C 20.1633 -0.972442 -2.11297 0
M  V30 177 C 21.1573 0.080731 -1.69208 0
M  V30 178 O 22.3633 -0.0707666 -1.79861 0
M  V30 179 H 18.7383 -0.297218 -0.690772 0
M  V30 180 H 20.7093 -1.91394 -2.28934 0
M  V30 181 C 19.4583 -0.555065 -3.43241 0
M  V30 182 H 18.7813 -1.35709 -3.76062 0
M  V30 183 H 20.2213 -0.424664 -4.21868 0
M  V30 184 C 18.6803 0.734147 -3.28804 0
M  V30 185 O 19.2103 1.78937 -3.59645 0
M  V30 186 N 17.4163 0.701133 -2.82015 0
M  V30 187 H 16.9633 -0.157874 -2.57116 0
M  V30 188 H 16.9213 1.56403 -2.72737 0
M  V30 189 N 20.6934 1.19889 -1.02296 0
M  V30 190 C 21.9414 1.89046 -0.714558 0
M  V30 191 C 22.2624 1.79636 0.758681 0
M  V30 192 O 21.5324 1.20292 1.54618 0
M  V30 193 H 20.1124 0.699802 -0.261317 0
M  V30 194 H 22.7744 1.45574 -1.29592 0
M  V30 195 H 21.8704 2.95524 -1.0036 0
M  V30 196 N 22.1715 0.800033 1.35784 0
M  V30 197 C 23.3995 0.389606 2.03199 0
M  V30 198 C 23.8145 -0.997375 1.60306 0
M  V30 199 O 23.1715 -1.64154 0.797481 0
M  V30 200 C 23.2225 0.455855 3.58614 0
M  V30 201 O 22.9435 1.78815 3.99946 0
M  V30 202 C 24.4445 0.0374032 4.43284 0
M  V30 203 H 21.6645 0.159132 0.651857 0
M  V30 204 H 24.2085 1.08183 1.73541 0
M  V30 205 H 22.3635 -0.188057 3.86943 0
M  V30 206 H 22.7775 1.74636 4.94573 0
M  V30 207 H 24.2515 0.134882 5.51835 0
M  V30 208 H 24.7285 -1.01651 4.27275 0
M  V30 209 H 25.3345 0.654215 4.20238 0
M  V30 210 N 23.6496 -1.47581 0.552962 0
M  V30 211 C 24.5596 -2.33743 -0.200353 0
M  V30 212 C 25.5756 -1.47928 -0.916151 0
M  V30 213 O 26.7516 -1.80865 -0.885993 0
M  V30 214 C 23.8166 -3.24536 -1.21973 0
M  V30 215 C 22.8776 -4.26238 -0.511819 0
M  V30 216 C 22.1106 -5.12693 -1.48263 0
M  V30 217 O 22.3336 -5.01525 -2.71714 0
M  V30 218 O 21.2676 -5.93375 -1.00945 0
M  V30 219 H 25.0936 -2.9945 0.506304 0
M  V30 220 H 22.6786 -1.46071 0.313622 0
M  V30 221 H 24.5606 -3.80631 -1.80827 0
M  V30 222 H 23.2356 -2.61462 -1.90839 0
M  V30 223 H 22.1426 -3.73914 0.117799 0
M  V30 224 H 23.4756 -4.92014 0.135308 0
M  V30 225 N 25.1277 -0.289203 -1.54924 0
M  V30 226 C 26.0907 0.579144 -2.21762 0
M  V30 227 C 27.0907 1.07047 -1.1999 0
M  V30 228 O 28.2807 0.968384 -1.44803 0
M  V30 229 C 25.4127 1.80055 -2.8947 0
M  V30 230 H 26.6057 -0.00464908 -2.999 0
M  V30 231 H 24.1587 -0.0399306 -1.56249 0
M  V30 232 H 24.8937 2.42449 -2.15381 0
M  V30 233 H 24.6787 1.45602 -3.64064 0
M  V30 234 H 26.1687 2.41773 -3.40493 0
M  V30 235 N 26.6058 1.57591 -0.0167156 0
M  V30 236 C 28.0168 1.79201 0.523834 0
M  V30 237 C 28.3678 0.925796 1.72984 0
M  V30 238 O 27.4928 0.132792 2.15992 0
M  V30 239 C 28.0878 3.25 0.957091 0
M  V30 240 C 26.6468 3.47648 1.44283 0
M  V30 241 C 25.7938 2.74374 0.401757 0
M  V30 242 H 28.7448 1.56831 -0.242816 0
M  V30 243 H 28.7658 3.34031 1.82219 0
M  V30 244 H 28.2778 3.88019 0.0791415 0
M  V30 245 H 26.3788 2.89866 2.34113 0
M  V30 246 H 26.4918 4.56352 1.45877 0
M  V30 247 H 24.8558 2.39485 0.867121 0
M  V30 248 H 25.6388 3.40102 -0.467513 0
M  V30 249 N 28.0839 -0.256276 1.55502 0
M  V30 250 C 29.3319 -0.983672 1.76545 0
M  V30 251 C 29.6529 -1.86206 0.578982 0
M  V30 252 O 28.9229 -1.91656 -0.405577 0
M  V30 253 H 27.5029 -0.366191 0.651086 0
M  V30 254 H 30.1649 -0.276479 1.92929 0
M  V30 255 H 29.2609 -1.61087 2.67315 0
M  V30 256 N 29.562 -1.4872 -0.521534 0
M  V30 257 C 30.81 -1.56857 -1.27437 0
M  V30 258 C 31.131 -0.247982 -1.93417 0
M  V30 259 O 30.401 0.731151 -1.81744 0
M  V30 260 H 28.981 -0.577885 -0.473347 0
M  V30 261 H 31.643 -1.85233 -0.606205 0
M  V30 262 H 30.739 -2.35402 -2.0492 0
M  V30 263 N 31.0401 0.771051 -1.3745 0
M  V30 264 C 32.2881 1.52661 -1.32435 0
M  V30 265 C 32.6091 1.9479 0.0905024 0
M  V30 266 O 31.8791 1.66348 1.03466 0
M  V30 267 H 30.4591 0.566218 -0.487244 0
M  V30 268 H 33.1211 0.917636 -1.71946 0
M  V30 269 H 32.2171 2.42568 -1.96385 0
M  V30 270 N 32.5182 1.22032 0.997298 0
M  V30 271 C 33.4812 0.987909 2.06816 0
M  V30 272 C 34.4812 -0.0440084 1.6074 0
M  V30 273 O 35.6712 0.194053 1.73116 0
M  V30 274 C 32.8032 0.49132 3.37341 0
M  V30 275 H 33.9962 1.93803 2.28868 0
M  V30 276 H 31.5492 1.03838 1.16822 0
M  V30 277 H 32.2842 -0.463364 3.20973 0
M  V30 278 H 32.0692 1.23575 3.72118 0
M  V30 279 H 33.5592 0.348824 4.16141 0
M  V30 280 N 33.9963 -1.19345 1.0293 0
M  V30 281 C 35.4123 -1.41069 0.746446 0
M  V30 282 C 35.6123 -1.90078 -0.668776 0
M  V30 283 O 34.6683 -2.0778 -1.4347 0
M  V30 284 C 35.9813 -2.42141 1.78292 0
M  V30 285 C 37.5293 -2.55887 1.80252 0
M  V30 286 C 38.0043 -3.60214 2.8286 0
M  V30 287 N 39.4953 -3.67711 2.81679 0
M  V30 288 C 40.2303 -4.48128 3.57727 0
M  V30 289 N 39.7263 -5.32248 4.43491 0
M  V30 290 N 41.5193 -4.42782 3.46267 0
M  V30 291 H 33.6703 -0.858536 1.94275 0
M  V30 292 H 35.9333 -0.439541 0.839945 0
M  V30 293 H 35.6393 -2.13155 2.79746 0
M  V30 294 H 35.5133 -3.41323 1.60557 0
M  V30 295 H 37.9003 -2.84196 0.794757 0
M  V30 296 H 37.9813 -1.56858 2.02062 0
M  V30 297 H 37.6253 -3.32647 3.83807 0
M  V30 298 H 37.5553 -4.58895 2.58307 0
M  V30 299 H 40.0463 -3.07634 2.19476 0
M  V30 300 H 40.3593 -5.90729 4.98256 0
M  V30 301 H 38.7043 -5.31707 4.47564 0
M  V30 302 H 41.8953 -3.76107 2.78677 0
M  V30 303 H 42.0683 -5.05215 4.05785 0
M  V30 304 N 35.4744 -0.807222 -1.35358 0
M  V30 305 C 36.4374 -0.223665 -2.28106 0
M  V30 306 C 37.4374 0.589354 -1.4961 0
M  V30 307 O 38.6274 0.407745 -1.69361 0
M  V30 308 C 35.7594 0.688149 -3.33882 0
M  V30 309 H 36.9524 -1.04169 -2.81227 0
M  V30 310 H 34.5054 -0.577921 -1.45223 0
M  V30 311 H 35.2404 1.52984 -2.85948 0
M  V30 312 H 35.0254 0.10687 -3.91954 0
M  V30 313 H 36.5154 1.09075 -4.03104 0
M  V30 314 N 36.9525 1.47285 -0.560781 0
M  V30 315 C 38.1805 2.06855 -0.0430262 0
M  V30 316 C 38.5955 1.41291 1.25229 0
M  V30 317 O 37.9525 0.510648 1.7521 0
M  V30 318 C 38.0035 3.61178 0.152518 0
M  V30 319 O 37.7245 4.24285 -1.0915 0
M  V30 320 C 39.2255 4.37624 0.707145 0
M  V30 321 H 36.4455 0.669319 -0.0474652 0
M  V30 322 H 38.9895 1.89237 -0.77521 0
M  V30 323 H 37.1445 3.78298 0.834843 0
M  V30 324 H 37.5585 5.16868 -0.891482 0
M  V30 325 H 39.0325 5.46271 0.793244 0
M  V30 326 H 39.5095 4.04152 1.71923 0
M  V30 327 H 40.1155 4.25257 0.0604027 0
M  V30 328 N 38.4306 0.297415 1.54768 0
M  V30 329 C 39.8416 -0.195947 1.85669 0
M  V30 330 C 40.1926 -1.53707 1.21937 0
M  V30 331 O 39.3176 -2.10164 0.515754 0
M  V30 332 C 39.9126 -0.362318 3.36857 0
M  V30 333 C 38.4716 -0.799901 3.67802 0
M  V30 334 C 37.6186 0.0938578 2.77141 0
M  V30 335 H 40.5696 0.518538 1.4999 0
M  V30 336 H 40.5906 -1.19745 3.61167 0
M  V30 337 H 40.1026 0.613921 3.83214 0
M  V30 338 H 38.2036 -1.78682 3.26961 0
M  V30 339 H 38.3166 -0.621773 4.75048 0
M  V30 340 H 36.6806 -0.426254 2.51108 0
M  V30 341 H 37.4636 1.06639 3.26318 0
M  V30 342 N 39.9087 -1.5758 0.0250728 0
M  V30 343 C 41.1387 -1.95646 -0.663783 0
M  V30 344 C 41.5467 -0.899935 -1.66427 0
M  V30 345 O 40.8897 0.127191 -1.83259 0
M  V30 346 C 40.9517 -3.29835 -1.43 0
M  V30 347 C 40.6157 -4.53197 -0.588305 0
M  V30 348 C 41.6127 -5.19726 0.13469 0
M  V30 349 C 39.2977 -4.99529 -0.526897 0
M  V30 350 C 41.2917 -6.30902 0.90781 0
M  V30 351 C 38.9787 -6.10589 0.24993 0
M  V30 352 C 39.9767 -6.76134 0.965994 0
M  V30 353 O 39.6647 -7.85062 1.7301 0
M  V30 354 H 39.3967 -0.649282 -0.188174 0
M  V30 355 H 41.9507 -2.05245 0.0799006 0
M  V30 356 H 40.1807 -3.16716 -2.21873 0
M  V30 357 H 41.8697 -3.52833 -2.00658 0
M  V30 358 H 42.6357 -4.84904 0.0965562 0
M  V30 359 H 38.5147 -4.48319 -1.07381 0
M  V30 360 H 42.0587 -6.81995 1.46724 0
M  V30 361 H 37.9557 -6.44849 0.289795 0
M  V30 362 H 38.7237 -8.01708 1.64944 0
M  V30 363 N 41.3868 0.248026 -1.55636 0
M  V30 364 C 42.6118 0.998028 -1.81808 0
M  V30 365 C 43.0368 1.78207 -0.601979 0
M  V30 366 O 42.3948 1.75653 0.448961 0
M  V30 367 C 42.4428 1.9125 -3.05705 0
M  V30 368 O 41.5468 3.00406 -2.82542 0
M  V30 369 H 40.8878 0.284045 -0.600179 0
M  V30 370 H 43.4178 0.269357 -2.02819 0
M  V30 371 H 43.4278 2.32737 -3.35108 0
M  V30 372 H 42.1028 1.33602 -3.93857 0
M  V30 373 H 40.6798 2.63056 -2.64303 0
M  V30 374 N 42.8649 1.48995 0.513639 0
M  V30 375 C 43.7949 1.67636 1.62544 0
M  V30 376 C 44.7759 0.525087 1.61793 0
M  V30 377 O 45.9609 0.759502 1.78732 0
M  V30 378 C 43.0909 1.73114 3.01079 0
M  V30 379 C 42.0449 2.87905 3.16693 0
M  V30 380 C 41.3709 2.78486 4.56453 0
M  V30 381 C 42.6709 4.29005 2.97913 0
M  V30 382 H 44.3649 2.60716 1.47198 0
M  V30 383 H 41.9109 1.25465 0.706714 0
M  V30 384 H 43.8639 1.84742 3.78746 0
M  V30 385 H 42.5879 0.766241 3.17484 0
M  V30 386 H 41.2469 2.75859 2.41448 0
M  V30 387 H 40.8949 1.7993 4.69717 0
M  V30 388 H 40.5949 3.55523 4.67843 0
M  V30 389 H 42.1189 2.92104 5.36197 0
M  V30 390 H 43.5329 4.41798 3.65359 0
M  V30 391 H 41.9299 5.07166 3.20785 0
M  V30 392 H 42.9999 4.44329 1.94165 0
M  V30 393 N 44.343 -0.763751 1.37857 0
M  V30 394 C 45.275 -1.88664 1.30148 0
M  V30 395 C 46.288 -1.61365 0.215685 0
M  V30 396 O 47.477 -1.72134 0.472459 0
M  V30 397 C 44.577 -3.24075 0.991396 0
M  V30 398 C 43.75 -3.78958 2.18426 0
M  V30 399 C 42.809 -4.92862 1.8432 0
M  V30 400 O 41.835 -5.08027 2.56704 0
M  V30 401 N 43.037 -5.75071 0.792081 0
M  V30 402 H 45.802 -1.95791 2.26905 0
M  V30 403 H 43.363 -0.943226 1.31586 0
M  V30 404 H 45.355 -3.97804 0.743935 0
M  V30 405 H 43.925 -3.12399 0.112122 0
M  V30 406 H 43.145 -2.96913 2.59299 0
M  V30 407 H 44.433 -4.12357 2.98058 0
M  V30 408 H 43.831 -5.65375 0.191595 0
M  V30 409 H 42.388 -6.48991 0.60449 0
M  V30 410 N 45.8211 -1.22559 -0.990812 0
M  V30 411 C 47.0671 -1.05297 -1.73322 0
M  V30 412 C 47.4001 0.410655 -1.89808 0
M  V30 413 O 46.6751 1.30439 -1.44277 0
M  V30 414 C 46.9581 -1.76713 -3.13759 0
M  V30 415 C 46.8111 -3.30684 -3.04907 0
M  V30 416 C 48.1301 -1.52121 -4.12974 0
M  V30 417 H 45.2491 -0.38392 -0.629106 0
M  V30 418 H 47.8911 -1.50926 -1.15418 0
M  V30 419 H 46.0411 -1.37924 -3.63193 0
M  V30 420 H 47.7131 -3.7893 -2.63077 0
M  V30 421 H 45.9561 -3.60253 -2.41661 0
M  V30 422 H 46.6271 -3.75833 -4.04294 0
M  V30 423 H 49.1031 -1.85819 -3.72304 0
M  V30 424 H 47.9791 -2.04582 -5.0935 0
M  V30 425 H 48.2401 -0.454257 -4.3976 0
M  V30 426 N 47.2992 1.18797 -1.03562 0
M  V30 427 C 48.5272 1.92599 -0.755869 0
M  V30 428 C 48.9422 1.75886 0.686271 0
M  V30 429 O 48.2992 1.08517 1.46732 0
M  V30 430 C 48.3502 3.44159 -1.10619 0
M  V30 431 O 48.0712 3.60341 -2.4917 0
M  V30 432 C 49.5722 4.3507 -0.850214 0
M  V30 433 H 46.7922 0.611587 -0.276048 0
M  V30 434 H 49.3362 1.50742 -1.38192 0
M  V30 435 H 47.4912 3.83823 -0.525194 0
M  V30 436 H 47.9052 4.54128 -2.62427 0
M  V30 437 H 49.3792 5.39989 -1.14523 0
M  V30 438 H 49.8562 4.38673 0.215176 0
M  V30 439 H 50.4622 4.01097 -1.41426 0
M  V30 440 N 48.7773 0.814389 1.34928 0
M  V30 441 C 49.7073 0.244827 2.32213 0
M  V30 442 C 50.6883 -0.634024 1.57842 0
M  V30 443 O 51.8733 -0.562676 1.8587 0
M  V30 444 C 49.0033 -0.601106 3.42058 0
M  V30 445 C 47.9573 0.179896 4.27622 0
M  V30 446 C 47.2833 -0.788237 5.28858 0
M  V30 447 C 48.5833 1.38329 5.03649 0
M  V30 448 H 50.2773 1.05763 2.80097 0
M  V30 449 H 47.8233 0.510029 1.34665 0
M  V30 450 H 49.7763 -1.00968 4.09125 0
M  V30 451 H 48.5003 -1.44688 2.92802 0
M  V30 452 H 47.1593 0.569739 3.62146 0
M  V30 453 H 46.8073 -1.62973 4.75866 0
M  V30 454 H 46.5073 -0.269942 5.8698 0
M  V30 455 H 48.0313 -1.19485 5.98795 0
M  V30 456 H 49.4453 1.04918 5.63618 0
M  V30 457 H 47.8423 1.83662 5.71304 0
M  V30 458 H 48.9123 2.16592 4.33839 0
M  V30 459 N 50.2554 -1.46986 0.568584 0
M  V30 460 C 51.4834 -2.0683 0.0539956 0
M  V30 461 C 51.8984 -1.41953 -1.24478 0
M  V30 462 O 51.2554 -0.519933 -1.74937 0
M  V30 463 C 51.3064 -3.61254 -0.133362 0
M  V30 464 O 51.0274 -4.237 1.11399 0
M  V30 465 C 52.5284 -4.37992 -0.683927 0
M  V30 466 H 49.7484 -0.669058 0.0510141 0
M  V30 467 H 52.2924 -1.88824 0.785234 0
M  V30 468 H 50.4474 -3.78735 -0.81477 0
M  V30 469 H 50.8614 -5.16388 0.91888 0
M  V30 470 H 52.3354 -5.46684 -0.764263 0
M  V30 471 H 52.8124 -4.05058 -1.69778 0
M  V30 472 H 53.4184 -4.25283 -0.0378494 0
M  V30 473 N 51.7335 -0.305618 -1.54608 0
M  V30 474 C 52.6635 0.561482 -2.26649 0
M  V30 475 C 53.6445 1.13415 -1.26772 0
M  V30 476 O 54.8295 1.16262 -1.55553 0
M  V30 477 C 51.9595 1.73122 -3.01075 0
M  V30 478 C 50.9135 1.2887 -4.08138 0
M  V30 479 C 50.2395 2.54396 -4.70305 0
M  V30 480 C 51.5395 0.416578 -5.20636 0
M  V30 481 H 53.2335 -0.0393902 -2.99374 0
M  V30 482 H 50.7795 -0.020385 -1.43986 0
M  V30 483 H 52.7325 2.34396 -3.50195 0
M  V30 484 H 51.4565 2.3584 -2.25936 0
M  V30 485 H 50.1155 0.698991 -3.59875 0
M  V30 486 H 49.7635 3.15439 -3.918 0
M  V30 487 H 49.4635 2.25486 -5.42614 0
M  V30 488 H 50.9875 3.16464 -5.2219 0
M  V30 489 H 52.4015 0.935116 -5.65622 0
M  V30 490 H 50.7985 0.221046 -5.99693 0
M  V30 491 H 51.8685 -0.557162 -4.81688 0
M  V30 492 N 53.2116 1.57565 -0.0334293 0
M  V30 493 C 54.4576 1.92262 0.645226 0
M  V30 494 C 54.7906 0.910543 1.71531 0
M  V30 495 O 54.0656 -0.066099 1.94388 0
M  V30 496 C 54.3486 3.37422 1.2577 0
M  V30 497 C 54.2016 4.49369 0.196891 0
M  V30 498 C 55.5206 3.82628 2.17449 0
M  V30 499 H 52.6396 0.699171 0.233085 0
M  V30 500 H 55.2816 1.89779 -0.0915694 0
M  V30 501 H 53.4316 3.39669 1.88566 0
M  V30 502 H 55.1036 4.59254 -0.433962 0
M  V30 503 H 53.3466 4.31168 -0.477137 0
M  V30 504 H 54.0176 5.47978 0.665124 0
M  V30 505 H 56.4936 3.82145 1.64634 0
M  V30 506 H 55.3696 4.84883 2.57254 0
M  V30 507 H 55.6306 3.18376 3.0674 0
M  V30 508 N 54.6897 -0.239769 1.55765 0
M  V30 509 C 55.9297 -0.974076 1.79697 0
M  V30 510 C 56.2937 -1.82249 0.604088 0
M  V30 511 O 57.4947 -2.58913 0.722324 0
M  V30 512 C 55.7657 -1.80595 3.08416 0
M  V30 513 S 57.3247 -2.59838 3.53596 0
M  V30 514 H 54.1427 -0.327524 0.63107 0
M  V30 515 H 56.7447 -0.241277 1.94005 0
M  V30 516 H 55.4487 -1.17249 3.93295 0
M  V30 517 H 54.9797 -2.58137 2.96865 0
M  V30 518 H 56.9947 -3.82987 3.15492 0
M  V30 519 N 56.1678 -1.49265 -0.50573 0
M  V30 520 C 57.0978 -1.68495 -1.61653 0
M  V30 521 C 58.0788 -0.53366 -1.61512 0
M  V30 522 O 59.2638 -0.76897 -1.78327 0
M  V30 523 C 56.3938 -1.74709 -3.00157 0
M  V30 524 C 55.3478 -2.89581 -3.15162 0
M  V30 525 C 54.6738 -2.80903 -4.5497 0
M  V30 526 C 55.9738 -4.30578 -2.95634 0
M  V30 527 H 57.6678 -2.61493 -1.45814 0
M  V30 528 H 55.2138 -1.25838 -0.70005 0
M  V30 529 H 57.1668 -1.86748 -3.77761 0
M  V30 530 H 55.8908 -0.783067 -3.17074 0
M  V30 531 H 54.5498 -2.77136 -2.39982 0
M  V30 532 H 54.1978 -1.82419 -4.68756 0
M  V30 533 H 53.8978 -3.57999 -4.65951 0
M  V30 534 H 55.4218 -2.94944 -5.34641 0
M  V30 535 H 56.8358 -4.4373 -3.63011 0
M  V30 536 H 55.2328 -5.0886 -3.18091 0
M  V30 537 H 56.3028 -4.45352 -1.91806 0
M  V30 538 N 57.6459 0.756429 -1.3826 0
M  V30 539 C 58.6089 1.85176 -1.35065 0
M  V30 540 C 59.6089 1.58818 -0.251703 0
M  V30 541 O 60.7989 1.66615 -0.508433 0
M  V30 542 C 57.9309 3.22596 -1.10201 0
M  V30 543 H 59.1239 1.89417 -2.3251 0
M  V30 544 H 56.6769 0.95783 -1.23512 0
M  V30 545 H 57.4119 3.24025 -0.133504 0
M  V30 546 H 57.1969 3.43122 -1.89762 0
M  V30 547 H 58.6869 4.02673 -1.10654 0
M  V30 548 N 59.124 1.23083 0.984299 0
M  V30 549 C 60.372 1.05848 1.72165 0
M  V30 550 C 60.693 -0.406049 1.90726 0
M  V30 551 O 59.963 -1.29139 1.47309 0
M  V30 552 H 58.543 0.388685 0.637913 0
M  V30 553 H 61.205 1.54736 1.18503 0
M  V30 554 H 60.301 1.54327 2.71274 0
M  V30 555 N 60.6021 -1.18246 1.0419 0
M  V30 556 C 61.5321 -2.24127 0.654914 0
M  V30 557 C 62.5131 -1.66617 -0.342451 0
M  V30 558 O 63.6981 -1.92924 -0.222277 0
M  V30 559 C 60.8281 -3.47295 0.0183757 0
M  V30 560 C 59.7821 -4.17563 0.939414 0
M  V30 561 C 59.1081 -5.34438 0.167286 0
M  V30 562 C 60.4081 -4.70917 2.25908 0
M  V30 563 H 62.1021 -2.56753 1.54007 0
M  V30 564 H 59.6481 -1.23414 0.74195 0
M  V30 565 H 61.6011 -4.20572 -0.264082 0
M  V30 566 H 60.3251 -3.13907 -0.901664 0
M  V30 567 H 58.9841 -3.46186 1.20628 0
M  V30 568 H 58.6321 -4.97298 -0.7552 0
M  V30 569 H 58.3321 -5.82388 0.780901 0
M  V30 570 H 59.8561 -6.10504 -0.108125 0
M  V30 571 H 61.2701 -5.35882 2.03724 0
M  V30 572 H 59.6671 -5.29406 2.82577 0
M  V30 573 H 60.7371 -3.88272 2.9047 0
M  V30 574 N 62.0802 -0.821533 -1.34494 0
M  V30 575 C 63.0102 -0.257138 -2.3208 0
M  V30 576 C 63.9912 0.625645 -1.58176 0
M  V30 577 O 65.1762 0.552811 -1.86166 0
M  V30 578 C 62.3062 0.582958 -3.42372 0
M  V30 579 C 61.2602 -0.202571 -4.2752 0
M  V30 580 C 60.5862 0.760179 -5.29269 0
M  V30 581 C 61.8862 -1.40998 -5.02908 0
M  V30 582 H 63.5802 -1.07247 -2.79532 0
M  V30 583 H 61.1262 -0.517163 -1.34393 0
M  V30 584 H 63.0792 0.987972 -4.09655 0
M  V30 585 H 61.8032 1.43133 -2.93565 0
M  V30 586 H 60.4622 -0.588936 -3.61838 0
M  V30 587 H 60.1102 1.60447 -4.76724 0
M  V30 588 H 59.8102 0.238809 -5.87115 0
M  V30 589 H 61.3342 1.16308 -5.9942 0
M  V30 590 H 62.7482 -1.07905 -5.63054 0
M  V30 591 H 61.1452 -1.86689 -5.70322 0
M  V30 592 H 62.2152 -2.1889 -4.32684 0
M  V30 593 N 63.5583 1.46682 -0.576371 0
M  V30 594 C 64.4913 2.27243 0.208731 0
M  V30 595 C 65.4693 1.35238 0.902746 0
M  V30 596 O 66.6533 1.64641 0.917904 0
M  V30 597 C 63.7803 3.12802 1.29896 0
M  V30 598 C 62.8263 4.20524 0.711457 0
M  V30 599 S 63.6593 5.33548 -0.456781 0
M  V30 600 C 64.8153 6.22673 0.634798 0
M  V30 601 H 65.0483 2.93484 -0.474838 0
M  V30 602 H 62.5813 1.50069 -0.363118 0
M  V30 603 H 64.5393 3.62661 1.92321 0
M  V30 604 H 63.2003 2.45887 1.95444 0
M  V30 605 H 62.3933 4.80191 1.53076 0
M  V30 606 H 61.9953 3.73645 0.162999 0
M  V30 607 H 64.2873 6.60181 1.52209 0
M  V30 608 H 65.2303 7.0806 0.0750311 0
M  V30 609 H 65.6383 5.56684 0.936092 0
M  V30 610 N 65.0364 0.313813 1.54444 0
M  V30 611 C 65.9664 -0.549454 2.26943 0
M  V30 612 C 66.9474 -1.12741 1.27372 0
M  V30 613 O 68.1324 -1.15436 1.56167 0
M  V30 614 C 65.2624 -1.71523 3.01989 0
M  V30 615 C 64.2164 -1.26703 4.08816 0
M  V30 616 C 63.5424 -2.51898 4.71647 0
M  V30 617 C 64.8424 -0.388962 5.2085 0
M  V30 618 H 66.5364 0.0552661 2.99349 0
M  V30 619 H 64.0824 0.0280207 1.43973 0
M  V30 620 H 66.0354 -2.32535 3.51433 0
M  V30 621 H 64.7594 -2.34639 2.27183 0
M  V30 622 H 63.4184 -0.679896 3.6024 0
M  V30 623 H 63.0664 -3.13356 3.93468 0
M  V30 624 H 62.7664 -2.22605 5.43802 0
M  V30 625 H 64.2904 -3.1369 5.23861 0
M  V30 626 H 65.7044 -0.905107 5.6611 0
M  V30 627 H 64.1014 -0.18924 5.99802 0
M  V30 628 H 65.1714 0.582699 4.81386 0
M  V30 629 N 66.5145 -1.57545 0.0417849 0
M  V30 630 C 67.4445 -2.14009 -0.933929 0
M  V30 631 C 68.4255 -1.05938 -1.33083 0
M  V30 632 O 69.6105 -1.33833 -1.40721 0
M  V30 633 C 66.7405 -2.67747 -2.21199 0
M  V30 634 C 65.6945 -3.80718 -1.95544 0
M  V30 635 C 65.0205 -4.20935 -3.29724 0
M  V30 636 C 66.3205 -5.06258 -1.28452 0
M  V30 637 H 68.0145 -2.95788 -0.463645 0
M  V30 638 H 65.5605 -1.42285 -0.221573 0
M  V30 639 H 67.5135 -3.05886 -2.89848 0
M  V30 640 H 66.2375 -1.83147 -2.70416 0
M  V30 641 H 64.8965 -3.43037 -1.2931 0
M  V30 642 H 64.5445 -3.33298 -3.76724 0
M  V30 643 H 64.2445 -4.9707 -3.13361 0
M  V30 644 H 65.7685 -4.61666 -3.9962 0
M  V30 645 H 67.1825 -5.41903 -1.8712 0
M  V30 646 H 65.5795 -5.87475 -1.22445 0
M  V30 647 H 66.6495 -4.84207 -0.259219 0
M  V30 648 N 67.9926 0.231505 -1.5589 0
M  V30 649 C 69.2206 0.974505 -1.82513 0
M  V30 650 C 69.6356 1.78344 -0.619591 0
M  V30 651 O 68.9926 1.77792 0.411848 0
M  V30 652 C 69.0436 1.90007 -3.07538 0
M  V30 653 O 68.7646 1.12385 -4.2344 0
M  V30 654 C 70.2656 2.75779 -3.47075 0
M  V30 655 H 67.4856 0.286065 -0.606966 0
M  V30 656 H 70.0296 0.249739 -2.02969 0
M  V30 657 H 68.1846 2.57891 -2.89086 0
M  V30 658 H 68.5986 1.75125 -4.944 0
M  V30 659 H 70.0726 3.36443 -4.37619 0
M  V30 660 H 70.5496 3.47672 -2.68367 0
M  V30 661 H 71.1556 2.13323 -3.67931 0
M  V30 662 N 69.4707 1.49531 0.497807 0
M  V30 663 C 70.7167 1.59415 1.25358 0
M  V30 664 C 71.0497 0.281422 1.9215 0
M  V30 665 O 70.3247 -0.715249 1.80871 0
M  V30 666 C 70.6077 2.75566 2.3181 0
M  V30 667 C 70.4607 4.16642 1.69498 0
M  V30 668 C 71.7797 2.87347 3.33346 0
M  V30 669 H 68.8987 0.580244 0.454408 0
M  V30 670 H 71.5407 1.81827 0.551262 0
M  V30 671 H 69.6907 2.56587 2.91711 0
M  V30 672 H 71.3627 4.47145 1.13399 0
M  V30 673 H 69.6057 4.22141 0.998978 0
M  V30 674 H 70.2767 4.93792 2.46725 0
M  V30 675 H 72.7527 3.04634 2.83438 0
M  V30 676 H 71.6287 3.70289 4.05188 0
M  V30 677 H 71.8897 1.96834 3.95865 0
M  V30 678 N 70.9488 -0.749086 1.3866 0
M  V30 679 C 72.1958 -1.50833 1.35114 0
M  V30 680 C 72.5238 -1.94415 -0.0574049 0
M  V30 681 O 71.7788 -1.66065 -1.03541 0
M  V30 682 C 72.0778 -2.7712 2.25697 0
M  V30 683 C 71.7438 -2.52477 3.73585 0
M  V30 684 C 70.4058 -2.45466 4.13884 0
M  V30 685 C 72.7578 -2.31066 4.67181 0
M  V30 686 C 70.0858 -2.15064 5.45861 0
M  V30 687 C 72.4378 -2.02183 5.9942 0
M  V30 688 C 71.1018 -1.93631 6.38798 0
M  V30 689 H 70.3718 -0.551936 0.494416 0
M  V30 690 H 73.0188 -0.860979 1.71054 0
M  V30 691 H 71.3238 -3.46528 1.82827 0
M  V30 692 H 73.0208 -3.35096 2.20254 0
M  V30 693 H 69.6108 -2.58807 3.41638 0
M  V30 694 H 73.7948 -2.35459 4.3689 0
M  V30 695 H 69.0508 -2.06954 5.75308 0
M  V30 696 H 73.2248 -1.8462 6.71482 0
M  V30 697 H 70.8518 -1.69839 7.40985 0
M  V30 698 N 72.4269 -1.23603 -0.977757 0
M  V30 699 C 73.6749 -1.06759 -1.71601 0
M  V30 700 C 73.9959 0.395929 -1.90938 0
M  V30 701 O 73.2659 1.28356 -1.47992 0
M  V30 702 H 71.8459 -0.392062 -0.635843 0
M  V30 703 H 74.5079 -1.55362 -1.1768 0
M  V30 704 H 73.6039 -1.55763 -2.70452 0
M  V30 705 N 73.905 1.17692 -1.04816 0
M  V30 706 C 74.853 2.23632 -0.63966 0
M  V30 707 C 75.847 1.6601 0.337219 0
M  V30 708 O 77.053 1.78844 0.203693 0
M  V30 709 H 73.428 0.727949 -0.188665 0
M  V30 710 H 75.399 2.55387 -1.54337 0
M  V30 711 C 74.148 3.4769 -0.0264051 0
M  V30 712 H 73.471 3.92331 -0.769164 0
M  V30 713 H 74.911 4.23418 0.222098 0
M  V30 714 C 73.37 3.13807 1.22584 0
M  V30 715 O 73.9 3.28236 2.31569 0
M  V30 716 N 72.106 2.68065 1.12202 0
M  V30 717 H 71.653 2.56525 0.235133 0
M  V30 718 H 71.611 2.45767 1.96076 0
M  V30 719 N 75.3831 0.828654 1.34056 0
M  V30 720 C 76.6291 0.42008 1.98402 0
M  V30 721 C 76.9621 -1.01564 1.65525 0
M  V30 722 O 76.2371 -1.70834 0.929831 0
M  V30 723 C 76.5201 0.62927 3.54559 0
M  V30 724 C 76.3731 2.11152 3.97159 0
M  V30 725 C 77.6921 0.0688756 4.40046 0
M  V30 726 H 74.8111 0.154104 0.720709 0
M  V30 727 H 77.4531 1.04228 1.5886 0
M  V30 728 H 75.6031 0.0996418 3.88372 0
M  V30 729 H 77.2751 2.70522 3.73651 0
M  V30 730 H 75.5181 2.59985 3.47261 0
M  V30 731 H 76.1891 2.20868 5.05887 0
M  V30 732 H 78.6651 0.521458 4.1282 0
M  V30 733 H 77.5411 0.245006 5.48353 0
M  V30 734 H 77.8021 -1.0266 4.30015 0
M  V30 735 N 76.8612 -1.46375 0.584142 0
M  V30 736 C 77.7912 -2.33103 -0.136037 0
M  V30 737 C 78.7722 -1.45431 -0.882255 0
M  V30 738 O 79.9572 -1.74246 -0.857434 0
M  V30 739 C 77.0872 -3.27731 -1.14933 0
M  V30 740 C 76.0412 -4.24855 -0.517862 0
M  V30 741 C 75.3672 -5.09001 -1.63773 0
M  V30 742 C 76.6672 -5.19439 0.545886 0
M  V30 743 H 78.3612 -2.93568 0.588086 0
M  V30 744 H 75.9072 -1.41166 0.284259 0
M  V30 745 H 77.8602 -3.87261 -1.66153 0
M  V30 746 H 76.5842 -2.65377 -1.90375 0
M  V30 747 H 75.2432 -3.6659 -0.0267361 0
M  V30 748 H 74.8912 -4.43031 -2.38185 0
M  V30 749 H 74.5912 -5.74777 -1.22085 0
M  V30 750 H 76.1152 -5.71396 -2.15266 0
M  V30 751 H 77.5292 -5.73177 0.118704 0
M  V30 752 H 75.9262 -5.93566 0.88317 0
M  V30 753 H 76.9962 -4.63285 1.43162 0
M  V30 754 N 78.3393 -0.321999 -1.54275 0
M  V30 755 C 79.5853 0.281461 -2.00837 0
M  V30 756 C 79.9183 1.51909 -1.20985 0
M  V30 757 O 79.1933 1.923 -0.291733 0
M  V30 758 C 79.4763 0.617162 -3.54772 0
M  V30 759 C 79.3293 -0.631064 -4.45351 0
M  V30 760 C 80.6483 1.43542 -4.16033 0
M  V30 761 H 77.7673 0.100826 -0.730071 0
M  V30 762 H 80.4093 -0.438268 -1.84876 0
M  V30 763 H 78.5593 1.23034 -3.68504 0
M  V30 764 H 80.2313 -1.26934 -4.43492 0
M  V30 765 H 78.4743 -1.26025 -4.15091 0
M  V30 766 H 79.1453 -0.351735 -5.50878 0
M  V30 767 H 81.6213 0.917134 -4.05867 0
M  V30 768 H 80.4973 1.63907 -5.23856 0
M  V30 769 H 80.7583 2.43108 -3.69257 0
M  V30 770 N 79.8174 1.5752 -0.0501392 0
M  V30 771 C 81.0664 1.91827 0.623328 0
M  V30 772 C 81.3794 0.930222 1.72065 0
M  V30 773 O 82.5854 1.1653 2.4522 0
M  V30 774 C 81.0414 3.40692 1.16003 0
M  V30 775 C 80.6494 4.479 0.0948811 0
M  V30 776 C 82.3934 3.84034 1.80881 0
M  V30 777 C 80.3004 5.87879 0.644411 0
M  V30 778 H 79.2304 0.715918 0.236596 0
M  V30 779 H 81.8814 1.83115 -0.118861 0
M  V30 780 H 80.2634 3.44405 1.9545 0
M  V30 781 H 81.4374 4.55775 -0.678675 0
M  V30 782 H 79.7524 4.13892 -0.45637 0
M  V30 783 H 82.3494 4.85984 2.22988 0
M  V30 784 H 82.6924 3.20225 2.6601 0
M  V30 785 H 83.2254 3.82833 1.0809 0
M  V30 786 H 79.9644 6.55282 -0.169229 0
M  V30 787 H 79.4844 5.83567 1.38598 0
M  V30 788 H 81.1634 6.37098 1.12763 0
M  V30 789 N 81.2955 -0.223234 1.56011 0
M  V30 790 C 82.5445 -0.945912 1.78144 0
M  V30 791 C 82.8575 -1.85567 0.618396 0
M  V30 792 O 84.0635 -2.61688 0.723318 0
M  V30 793 C 82.5195 -1.73216 3.15475 0
M  V30 794 C 82.1275 -0.868619 4.39499 0
M  V30 795 C 83.8715 -2.44615 3.46935 0
M  V30 796 C 81.7785 -1.65212 5.67855 0
M  V30 797 H 80.7085 -0.356929 0.664167 0
M  V30 798 H 83.3595 -0.199845 1.82409 0
M  V30 799 H 81.7415 -2.52107 3.05382 0
M  V30 800 H 82.9155 -0.120366 4.60643 0
M  V30 801 H 81.2305 -0.26683 4.15544 0
M  V30 802 H 83.8275 -3.03732 4.40058 0
M  V30 803 H 84.1705 -3.17417 2.69355 0
M  V30 804 H 84.7035 -1.72715 3.58349 0
M  V30 805 H 81.4425 -0.967407 6.48322 0
M  V30 806 H 80.9625 -2.37503 5.50774 0
M  V30 807 H 82.6415 -2.21322 6.07968 0
M  V30 808 N 82.7736 -1.49793 -0.48987 0
M  V30 809 C 83.7366 -1.66752 -1.57246 0
M  V30 810 C 84.7366 -0.538867 -1.51502 0
M  V30 811 O 85.9266 -0.805545 -1.54456 0
M  V30 812 C 83.0586 -1.67528 -2.96896 0
M  V30 813 H 84.2516 -2.63321 -1.43534 0
M  V30 814 H 81.8046 -1.38992 -0.714914 0
M  V30 815 H 82.5396 -0.725837 -3.16073 0
M  V30 816 H 82.3246 -2.49504 -3.02473 0
M  V30 817 H 83.8146 -1.82667 -3.7553 0
M  V30 818 N 84.2517 0.741722 -1.39055 0
M  V30 819 C 85.4977 1.50336 -1.36113 0
M  V30 820 C 85.8307 1.94148 0.0450796 0
M  V30 821 O 85.1057 1.66301 1.00868 0
M  V30 822 C 85.3887 2.74773 -2.32749 0
M  V30 823 C 85.2417 2.37023 -3.82283 0
M  V30 824 C 86.5607 3.76846 -2.27322 0
M  V30 825 H 83.6797 0.545351 -0.495743 0
M  V30 826 H 86.3217 0.848624 -1.69995 0
M  V30 827 H 84.4717 3.30639 -2.03986 0
M  V30 828 H 86.1437 1.8684 -4.21768 0
M  V30 829 H 84.3867 1.69334 -3.99385 0
M  V30 830 H 85.0577 3.26104 -4.45376 0
M  V30 831 H 87.5337 3.30548 -2.5274 0
M  V30 832 H 86.4097 4.6159 -2.97028 0
M  V30 833 H 86.6707 4.23286 -1.27599 0
M  V30 834 N 85.7298 1.2412 0.971189 0
M  V30 835 C 86.9768 1.07881 1.71371 0
M  V30 836 C 87.3048 -0.382901 1.90694 0
M  V30 837 O 86.5598 -1.29945 1.46331 0
M  V30 838 C 86.8588 1.75983 3.11071 0
M  V30 839 C 86.5248 3.25909 3.11599 0
M  V30 840 C 85.1868 3.66813 3.11451 0
M  V30 841 C 87.5388 4.21771 3.062 0
M  V30 842 C 84.8668 5.02021 3.03631 0
M  V30 843 C 87.2188 5.56982 2.99923 0
M  V30 844 C 85.8828 5.97237 2.98102 0
M  V30 845 H 85.1528 0.394764 0.62709 0
M  V30 846 H 87.7998 1.54176 1.13587 0
M  V30 847 H 86.1048 1.22072 3.72298 0
M  V30 848 H 87.8018 1.60887 3.6731 0
M  V30 849 H 84.3918 2.93353 3.12477 0
M  V30 850 H 88.5758 3.91172 3.05447 0
M  V30 851 H 83.8318 5.32411 3.0058 0
M  V30 852 H 88.0058 6.30969 2.94704 0
M  V30 853 H 85.6328 7.01967 2.91798 0
M  V30 854 N 87.2079 -1.17134 1.05439 0
M  V30 855 C 88.4359 -1.91372 0.786414 0
M  V30 856 C 88.8509 -1.76955 -0.658202 0
M  V30 857 O 88.2079 -1.10838 -1.44987 0
M  V30 858 C 88.2589 -3.42356 1.1608 0
M  V30 859 O 87.9799 -3.56332 2.54871 0
M  V30 860 C 89.4809 -4.33663 0.919322 0
M  V30 861 H 86.7009 -0.607118 0.285743 0
M  V30 862 H 89.2449 -1.48525 1.40572 0
M  V30 863 H 87.3999 -3.82939 0.586191 0
M  V30 864 H 87.8139 -4.49896 2.69618 0
M  V30 865 H 89.2879 -5.38099 1.231 0
M  V30 866 H 89.7649 -4.38959 -0.145359 0
M  V30 867 H 90.3709 -3.98796 1.47789 0
M  V30 868 N 88.686 -0.835752 -1.33615 0
M  V30 869 C 89.911 -0.442389 -2.02627 0
M  V30 870 C 90.336 0.947735 -1.62479 0
M  V30 871 O 89.694 1.61907 -0.815826 0
M  V30 872 C 89.742 -0.567216 -3.56111 0
M  V30 873 O 88.846 0.407799 -4.10379 0
M  V30 874 H 88.187 -0.180278 -0.639059 0
M  V30 875 H 90.717 -1.12972 -1.70583 0
M  V30 876 H 90.727 -0.447708 -4.05536 0
M  V30 877 H 89.402 -1.58103 -3.84677 0
M  V30 878 H 87.979 0.246107 -3.72087 0
M  V30 879 N 90.1641 1.46063 -0.591896 0
M  V30 880 C 91.5801 1.57561 -0.254288 0
M  V30 881 C 91.7801 1.58565 1.24336 0
M  V30 882 O 90.8361 1.50753 2.02558 0
M  V30 883 C 92.1491 2.86549 -0.911611 0
M  V30 884 C 93.6971 3.00197 -0.886059 0
M  V30 885 C 94.1721 4.31933 -1.5231 0
M  V30 886 N 95.6631 4.38654 -1.48786 0
M  V30 887 C 96.3981 5.39222 -1.95006 0
M  V30 888 N 95.8941 6.46414 -2.49241 0
M  V30 889 N 97.6871 5.3048 -1.85868 0
M  V30 890 H 89.8381 1.43655 -1.56451 0
M  V30 891 H 92.1011 0.68583 -0.654478 0
M  V30 892 H 91.8071 2.91651 -1.96551 0
M  V30 893 H 91.6811 3.74794 -0.425368 0
M  V30 894 H 94.0681 2.9467 0.159246 0
M  V30 895 H 94.1491 2.13403 -1.41041 0
M  V30 896 H 93.7931 4.38217 -2.56765 0
M  V30 897 H 93.7231 5.17516 -0.973891 0
M  V30 898 H 96.2141 3.61793 -1.09151 0
M  V30 899 H 96.5271 7.19376 -2.82344 0
M  V30 900 H 94.8721 6.47208 -2.53272 0
M  V30 901 H 98.0631 4.45643 -1.43248 0
M  V30 902 H 98.2361 6.08711 -2.22204 0
M  V30 903 N 91.6422 0.330177 1.54103 0
M  V30 904 C 92.6052 -0.520144 2.2322 0
M  V30 905 C 93.6052 -1.03828 1.22786 0
M  V30 906 O 94.7952 -0.929652 1.4732 0
M  V30 907 C 91.9272 -1.72317 2.94142 0
M  V30 908 H 93.1202 0.0841605 2.99782 0
M  V30 909 H 90.6732 0.0813433 1.56088 0
M  V30 910 H 91.4082 -2.36653 2.21734 0
M  V30 911 H 91.1932 -1.35898 3.67796 0
M  V30 912 H 92.6832 -2.3266 3.46784 0
M  V30 913 N 93.1203 -1.57491 0.0584922 0
M  V30 914 C 94.0503 -2.14988 -0.911178 0
M  V30 915 C 95.0313 -1.07343 -1.31952 0
M  V30 916 O 96.2163 -1.35318 -1.39294 0
M  V30 917 C 93.3463 -2.70078 -2.18347 0
M  V30 918 C 92.3003 -3.82771 -1.91495 0
M  V30 919 C 91.6263 -4.24408 -3.25241 0
M  V30 920 C 92.9263 -5.07592 -1.23075 0
M  V30 921 H 94.6203 -2.96263 -0.432246 0
M  V30 922 H 92.1663 -1.42512 -0.206469 0
M  V30 923 H 94.1193 -3.08943 -2.86587 0
M  V30 924 H 92.8433 -1.86005 -2.68458 0
M  V30 925 H 91.5023 -3.44389 -1.25664 0
M  V30 926 H 91.1503 -3.37275 -3.73168 0
M  V30 927 H 90.8503 -5.00366 -3.08071 0
M  V30 928 H 92.3743 -4.65879 -3.94701 0
M  V30 929 H 93.7883 -5.43857 -1.81362 0
M  V30 930 H 92.1853 -5.88741 -1.16207 0
M  V30 931 H 93.2553 -4.84454 -0.207847 0
M  V30 932 N 94.5984 0.214957 -1.56127 0
M  V30 933 C 95.5454 1.26642 -1.92952 0
M  V30 934 C 96.5154 1.46244 -0.78753 0
M  V30 935 O 97.7004 1.59704 -1.04399 0
M  V30 936 C 94.8404 2.6104 -2.25726 0
M  V30 937 C 93.9534 2.49183 -3.52891 0
M  V30 938 C 93.0884 3.76149 -3.7508 0
M  V30 939 C 92.1274 3.59041 -4.95738 0
M  V30 940 N 91.2644 4.77972 -5.14283 0
M  V30 941 H 96.1044 0.945384 -2.82607 0
M  V30 942 H 93.6414 0.455489 -1.3987 0
M  V30 943 H 95.5994 3.39313 -2.42739 0
M  V30 944 H 94.2294 2.91227 -1.39236 0
M  V30 945 H 93.2814 1.6231 -3.44034 0
M  V30 946 H 94.5934 2.32466 -4.41318 0
M  V30 947 H 93.7474 4.62865 -3.92226 0
M  V30 948 H 92.4864 3.95799 -2.84947 0
M  V30 949 H 91.4914 2.7071 -4.78535 0
M  V30 950 H 92.7164 3.40856 -5.87362 0
M  V30 951 H 90.6624 4.97923 -4.27093 0
M  V30 952 H 90.5794 4.64006 -5.96853 0
M  V30 953 H 91.8474 5.66096 -5.35869 0
M  V30 954 N 96.0765 1.50051 0.48192 0
M  V30 955 C 97.0395 1.67584 1.5636 0
M  V30 956 C 98.0395 0.546894 1.51214 0
M  V30 957 O 99.2295 0.813725 1.54026 0
M  V30 958 C 96.3615 1.691 2.96003 0
M  V30 959 H 97.5545 2.64078 1.42136 0
M  V30 960 H 95.1075 1.39369 0.707533 0
M  V30 961 H 95.8425 0.742589 3.15684 0
M  V30 962 H 95.6275 2.51105 3.01146 0
M  V30 963 H 97.1175 1.84656 3.74556 0
M  V30 964 N 97.5546 -0.734337 1.39446 0
M  V30 965 C 98.9656 -1.31264 1.32766 0
M  V30 966 C 99.3166 -1.96198 -0.00767497 0
M  V30 967 O 98.4416 -1.96346 -0.909796 0
M  V30 968 C 99.0366 -2.38682 2.4045 0
M  V30 969 C 97.5956 -2.92184 2.37288 0
M  V30 970 C 96.7426 -1.6576 2.22304 0
M  V30 971 H 99.6936 -0.531799 1.49525 0
M  V30 972 H 99.7146 -3.19087 2.07276 0
M  V30 973 H 99.2266 -1.91392 3.37625 0
M  V30 974 H 97.3276 -3.43752 1.43754 0
M  V30 975 H 97.4406 -3.45253 3.3217 0
M  V30 976 H 95.8046 -1.9012 1.69489 0
M  V30 977 H 96.5876 -1.20521 3.21449 0
M  V30 978 N 99.0327 -1.24633 -0.964593 0
M  V30 979 C 99.9647 -0.999302 -2.06268 0
M  V30 980 C 100.978 0.0323226 -1.62768 0
M  V30 981 O 102.167 -0.205079 -1.77318 0
M  V30 982 C 99.2667 -0.486816 -3.35385 0
M  V30 983 C 98.4397 -1.5823 -4.07777 0
M  V30 984 C 97.4987 -1.07191 -5.15166 0
M  V30 985 O 96.5247 -1.76426 -5.41168 0
M  V30 986 N 97.7267 0.0920373 -5.80427 0
M  V30 987 H 100.492 -1.94477 -2.28033 0
M  V30 988 H 98.0527 -1.15704 -1.13244 0
M  V30 989 H 100.045 -0.130066 -4.04491 0
M  V30 990 H 98.6147 0.364459 -3.10468 0
M  V30 991 H 97.8347 -2.11109 -3.32906 0
M  V30 992 H 99.1227 -2.31854 -4.52903 0
M  V30 993 H 98.5207 0.670784 -5.61709 0
M  V30 994 H 97.0777 0.389905 -6.50633 0
M  V30 995 N 100.511 1.16574 -1.06058 0
M  V30 996 C 101.459 2.22941 -0.663343 0
M  V30 997 C 102.453 1.66358 0.319593 0
M  V30 998 O 103.659 1.7905 0.184713 0
M  V30 999 H 100.034 0.725907 -0.196376 0
M  V30 1000 H 102.005 2.53736 -1.57037 0
M  V30 1001 C 100.754 3.47642 -0.0632808 0
M  V30 1002 H 100.077 3.91493 -0.810733 0
M  V30 1003 H 101.517 4.2363 0.177177 0
M  V30 1004 C 99.9758 3.1509 1.19248 0
M  V30 1005 O 100.506 3.30673 2.28075 0
M  V30 1006 N 98.7118 2.6924 1.09353 0
M  V30 1007 H 98.2588 2.5676 0.207912 0
M  V30 1008 H 98.2168 2.47833 1.93458 0
M  V30 1009 N 101.989 0.842826 1.3317 0
M  V30 1010 C 102.919 0.294028 2.31641 0
M  V30 1011 C 103.9 -0.600401 1.59151 0
M  V30 1012 O 105.085 -0.523124 1.87022 0
M  V30 1013 C 102.215 -0.528416 3.43257 0
M  V30 1014 C 101.169 0.27056 4.27144 0
M  V30 1015 C 100.495 -0.675881 5.30411 0
M  V30 1016 C 101.795 1.48981 5.00602 0
M  V30 1017 H 103.489 1.11681 2.77791 0
M  V30 1018 H 101.035 0.538478 1.33553 0
M  V30 1019 H 102.988 -0.922674 4.11175 0
M  V30 1020 H 101.712 -1.38445 2.95805 0
M  V30 1021 H 100.371 0.646427 3.60856 0
M  V30 1022 H 100.019 -1.52842 4.79216 0
M  V30 1023 H 99.7189 -0.145374 5.8742 0
M  V30 1024 H 101.243 -1.06757 6.01195 0
M  V30 1025 H 102.657 1.16849 5.61266 0
M  V30 1026 H 101.054 1.95739 5.6728 0
M  V30 1027 H 102.124 2.25746 4.29147 0
M  V30 1028 N 103.467 -1.45747 0.599634 0
M  V30 1029 C 104.714 -2.02292 0.0917284 0
M  V30 1030 C 105.042 -1.46906 -1.27472 0
M  V30 1031 O 104.297 -0.630652 -1.8526 0
M  V30 1032 C 104.596 -3.57399 -0.00602758 0
M  V30 1033 C 104.262 -4.31902 1.29503 0
M  V30 1034 C 102.924 -4.51974 1.65144 0
M  V30 1035 C 105.276 -4.74551 2.15525 0
M  V30 1036 C 102.604 -5.11949 2.86574 0
M  V30 1037 C 104.956 -5.35868 3.36196 0
M  V30 1038 C 103.62 -5.54165 3.72099 0
M  V30 1039 H 102.89 -0.740239 0.0335658 0
M  V30 1040 H 105.537 -1.7491 0.779661 0
M  V30 1041 H 103.842 -3.84014 -0.777183 0
M  V30 1042 H 105.539 -3.98846 -0.415038 0
M  V30 1043 H 102.129 -4.16588 1.00761 0
M  V30 1044 H 106.313 -4.58784 1.8929 0
M  V30 1045 H 101.569 -5.24305 3.14507 0
M  V30 1046 H 105.743 -5.6787 4.03109 0
M  V30 1047 H 103.37 -6.00406 4.6628 0
M  V30 1048 N 104.945 -0.338344 -1.53925 0
M  V30 1049 C 105.875 0.51328 -2.27789 0
M  V30 1050 C 106.856 1.107 -1.29149 0
M  V30 1051 O 108.041 1.12937 -1.57984 0
M  V30 1052 C 105.171 1.66697 -3.04679 0
M  V30 1053 C 104.125 1.20183 -4.1078 0
M  V30 1054 C 103.451 2.44363 -4.75595 0
M  V30 1055 C 104.751 0.30605 -5.21403 0
M  V30 1056 H 106.445 -0.102883 -2.99223 0
M  V30 1057 H 103.991 -0.0509219 -1.4391 0
M  V30 1058 H 105.944 2.26915 -3.55088 0
M  V30 1059 H 104.668 2.30995 -2.30887 0
M  V30 1060 H 103.327 0.622499 -3.61276 0
M  V30 1061 H 102.975 3.07057 -3.98403 0
M  V30 1062 H 102.675 2.13925 -5.47275 0
M  V30 1063 H 104.199 3.05317 -5.28786 0
M  V30 1064 H 105.613 0.814929 -5.67478 0
M  V30 1065 H 104.01 0.0937929 -6.00027 0
M  V30 1066 H 105.08 -0.65921 -4.80398 0
M  V30 1067 N 106.423 1.57458 -0.0668435 0
M  V30 1068 C 107.669 1.93587 0.6043 0
M  V30 1069 C 108.002 0.946722 1.69561 0
M  V30 1070 O 107.277 -0.0248516 1.94484 0
M  V30 1071 C 107.56 3.40014 1.18585 0
M  V30 1072 C 107.413 4.49685 0.101529 0
M  V30 1073 C 108.732 3.87154 2.09284 0
M  V30 1074 H 105.851 0.703958 0.218202 0
M  V30 1075 H 108.493 1.89542 -0.131804 0
M  V30 1076 H 106.643 3.43592 1.81319 0
M  V30 1077 H 108.315 4.5823 -0.531279 0
M  V30 1078 H 106.558 4.30059 -0.568487 0
M  V30 1079 H 107.229 5.49266 0.54874 0
M  V30 1080 H 109.705 3.85551 1.56491 0
M  V30 1081 H 108.581 4.90231 2.46911 0
M  V30 1082 H 108.842 3.2481 2.99918 0
M  V30 1083 N 107.901 -0.206675 1.56239 0
M  V30 1084 C 109.126 -0.949474 1.8439 0
M  V30 1085 C 109.551 -1.76549 0.649016 0
M  V30 1086 O 108.909 -1.76782 -0.402231 0
M  V30 1087 C 108.957 -1.83078 3.10668 0
M  V30 1088 O 108.061 -2.9281 2.90407 0
M  V30 1089 H 107.402 -0.268033 0.607499 0
M  V30 1090 H 109.932 -0.215488 2.03462 0
M  V30 1091 H 109.942 -2.2377 3.41161 0
M  V30 1092 H 108.617 -1.23112 3.97261 0
M  V30 1093 H 107.194 -2.55956 2.71184 0
M  V30 1094 N 109.379 -1.50304 -0.473955 0
M  V30 1095 C 110.309 -1.71886 -1.58042 0
M  V30 1096 C 111.29 -0.567799 -1.60344 0
M  V30 1097 O 112.475 -0.806623 -1.76656 0
M  V30 1098 C 109.605 -1.81036 -2.96384 0
M  V30 1099 C 108.559 -2.962 -3.08949 0
M  V30 1100 C 107.885 -2.9049 -4.48909 0
M  V30 1101 C 109.185 -4.36752 -2.86434 0
M  V30 1102 H 110.879 -2.64527 -1.40234 0
M  V30 1103 H 108.425 -1.27295 -0.673201 0
M  V30 1104 H 110.378 -1.94719 -3.73714 0
M  V30 1105 H 109.102 -0.850147 -3.15341 0
M  V30 1106 H 107.761 -2.82164 -2.3405 0
M  V30 1107 H 107.409 -1.92321 -4.64781 0
M  V30 1108 H 107.109 -3.67802 -4.58253 0
M  V30 1109 H 108.633 -3.06218 -5.28264 0
M  V30 1110 H 110.047 -4.5133 -3.53517 0
M  V30 1111 H 108.444 -5.15493 -3.07225 0
M  V30 1112 H 109.514 -4.49321 -1.82316 0
M  V30 1113 N 110.857 0.726932 -1.39834 0
M  V30 1114 C 111.82 1.82269 -1.38962 0
M  V30 1115 C 112.82 1.58248 -0.285334 0
M  V30 1116 O 114.01 1.65499 -0.54366 0
M  V30 1117 C 111.142 3.20186 -1.17019 0
M  V30 1118 H 112.335 1.84443 -2.36476 0
M  V30 1119 H 109.888 0.931416 -1.25516 0
M  V30 1120 H 110.623 3.23669 -0.202204 0
M  V30 1121 H 110.408 3.3902 -1.96998 0
M  V30 1122 H 111.898 4.00235 -1.1917 0
M  V30 1123 N 112.336 1.25143 0.95797 0
M  V30 1124 C 113.561 1.12521 1.74223 0
M  V30 1125 C 113.986 -0.317402 1.85403 0
M  V30 1126 O 113.344 -1.2299 1.33204 0
M  V30 1127 C 113.392 1.78062 3.1357 0
M  V30 1128 O 112.496 1.058 3.98598 0
M  V30 1129 H 111.837 0.39304 0.535178 0
M  V30 1130 H 114.367 1.65641 1.201 0
M  V30 1131 H 114.377 1.84213 3.64046 0
M  V30 1132 H 113.052 2.83021 3.04749 0
M  V30 1133 H 111.629 1.07506 3.57067 0
M  V30 1134 N 113.814 -1.1601 1.06675 0
M  V30 1135 C 114.777 -2.18724 0.685001 0
M  V30 1136 C 115.777 -1.58496 -0.271246 0
M  V30 1137 O 116.967 -1.74119 -0.0531156 0
M  V30 1138 C 114.099 -3.40899 0.00853648 0
M  V30 1139 H 115.292 -2.54011 1.59431 0
M  V30 1140 H 112.845 -1.30352 0.862441 0
M  V30 1141 H 113.58 -3.11173 -0.913337 0
M  V30 1142 H 113.365 -3.8587 0.696204 0
M  V30 1143 H 114.855 -4.16886 -0.24414 0
M  V30 1144 N 115.292 -0.849877 -1.32721 0
M  V30 1145 C 116.569 -0.372405 -1.92022 0
M  V30 1146 C 116.949 1.1435 -1.77447 0
M  V30 1147 O 116.297 1.96296 -1.16962 0
M  V30 1148 C 116.507 -0.831482 -3.3895 0
M  V30 1149 C 117.855 -0.845882 -4.16089 0
M  V30 1150 O 118.879 -0.775806 -3.47649 0
M  V30 1151 O 117.738 -0.943753 -5.38289 0
M  V30 1152 H 114.832 -0.107667 -0.819961 0
M  V30 1153 H 117.378 -0.93646 -1.41522 0
M  V30 1154 H 116.15 -1.87448 -3.4348 0
M  V30 1155 H 115.773 -0.24461 -3.96847 0
M  V30 1156 N 116.77 1.45427 -0.607355 0
M  V30 1157 C 118.019 2.01452 -0.100036 0
M  V30 1158 C 118.332 1.48159 1.27704 0
M  V30 1159 O 119.538 1.96159 1.87707 0
M  V30 1160 C 117.994 3.59672 -0.128158 0
M  V30 1161 C 117.602 4.21962 -1.50507 0
M  V30 1162 C 119.346 4.23262 0.323932 0
M  V30 1163 C 117.253 5.72333 -1.48959 0
M  V30 1164 H 116.183 0.75325 -0.0336299 0
M  V30 1165 H 118.834 1.66901 -0.76265 0
M  V30 1166 H 117.216 3.91411 0.601105 0
M  V30 1167 H 118.39 4.01796 -2.25602 0
M  V30 1168 H 116.705 3.70565 -1.89923 0
M  V30 1169 H 119.302 5.33522 0.354691 0
M  V30 1170 H 119.645 3.93921 1.34656 0
M  V30 1171 H 120.178 3.96239 -0.352056 0
M  V30 1172 H 116.917 6.06373 -2.48981 0
M  V30 1173 H 116.437 5.94691 -0.781214 0
M  V30 1174 H 118.116 6.35525 -1.21313 0
M  V30 1175 N 118.248 0.346503 1.53744 0
M  V30 1176 C 119.178 -0.501193 2.28058 0
M  V30 1177 C 120.159 -1.10014 1.29734 0
M  V30 1178 O 121.344 -1.12097 1.58581 0
M  V30 1179 C 118.474 -1.65078 3.05559 0
M  V30 1180 C 117.428 -1.18003 4.11411 0
M  V30 1181 C 116.754 -2.41837 4.76884 0
M  V30 1182 C 118.054 -0.278394 5.21558 0
M  V30 1183 H 119.748 0.11875 2.99164 0
M  V30 1184 H 117.294 0.0585531 1.43881 0
M  V30 1185 H 119.247 -2.25028 3.56287 0
M  V30 1186 H 117.971 -2.29767 2.32109 0
M  V30 1187 H 116.63 -0.603331 3.61601 0
M  V30 1188 H 116.278 -3.0494 4.00026 0
M  V30 1189 H 115.978 -2.1102 5.48402 0
M  V30 1190 H 117.502 -3.02508 5.30397 0
M  V30 1191 H 118.916 -0.784823 5.67903 0
M  V30 1192 H 117.313 -0.0619707 6.00068 0
M  V30 1193 H 118.383 0.684677 4.80042 0
M  V30 1194 N 119.726 -1.57421 0.075193 0
M  V30 1195 C 120.972 -1.93905 -0.594025 0
M  V30 1196 C 121.305 -0.955701 -1.69056 0
M  V30 1197 O 120.58 0.0145373 -1.94495 0
M  V30 1198 C 120.863 -3.40638 -1.1678 0
M  V30 1199 C 120.716 -4.49733 -0.0776792 0
M  V30 1200 C 122.035 -3.88259 -2.07228 0
M  V30 1201 H 119.154 -0.705105 -0.214466 0
M  V30 1202 H 121.796 -1.8947 0.141854 0
M  V30 1203 H 119.946 -3.44549 -1.79494 0
M  V30 1204 H 121.618 -4.57942 0.555573 0
M  V30 1205 H 119.861 -4.29751 0.591286 0
M  V30 1206 H 120.532 -5.49549 -0.519603 0
M  V30 1207 H 123.008 -3.86376 -1.54445 0
M  V30 1208 H 121.884 -4.91533 -2.44308 0
M  V30 1209 H 122.145 -3.26396 -2.98191 0
M  V30 1210 N 121.204 0.198386 -1.56346 0
M  V30 1211 C 122.167 1.22952 -1.93431 0
M  V30 1212 C 123.167 1.38611 -0.815092 0
M  V30 1213 O 124.357 1.36479 -1.08255 0
M  V30 1214 C 121.489 2.59946 -2.20546 0
M  V30 1215 H 122.682 0.912626 -2.85677 0
M  V30 1216 H 120.235 0.43977 -1.49986 0
M  V30 1217 H 120.97 2.96696 -1.30927 0
M  V30 1218 H 120.755 2.49953 -3.02102 0
M  V30 1219 H 122.245 3.3431 -2.50253 0
M  V30 1220 N 122.682 1.50554 0.465978 0
M  V30 1221 C 123.91 1.65563 1.24083 0
M  V30 1222 C 124.325 0.341051 1.85694 0
M  V30 1223 O 123.682 -0.677543 1.69457 0
M  V30 1224 C 123.733 2.75051 2.34583 0
M  V30 1225 O 123.454 4.01413 1.75497 0
M  V30 1226 C 124.955 3.01078 3.25372 0
M  V30 1227 H 122.175 0.55638 0.375077 0
M  V30 1228 H 124.719 1.96807 0.555624 0
M  V30 1229 H 122.874 2.46486 2.9887 0
M  V30 1230 H 123.288 4.62002 2.48303 0
M  V30 1231 H 124.762 3.81339 3.99105 0
M  V30 1232 H 125.239 2.12349 3.84453 0
M  V30 1233 H 125.845 3.31194 2.66816 0
M  V30 1234 N 124.16 -0.719506 1.40217 0
M  V30 1235 C 125.09 -1.8465 1.42922 0
M  V30 1236 C 126.071 -1.67599 0.29062 0
M  V30 1237 O 127.256 -1.87688 0.498677 0
M  V30 1238 C 124.386 -3.22565 1.28722 0
M  V30 1239 C 123.34 -3.54281 2.40144 0
M  V30 1240 C 122.666 -4.91298 2.11023 0
M  V30 1241 C 123.966 -3.55676 3.82481 0
M  V30 1242 H 125.66 -1.82644 2.37237 0
M  V30 1243 H 123.206 -0.877305 1.1419 0
M  V30 1244 H 125.159 -4.01095 1.29232 0
M  V30 1245 H 123.883 -3.25137 0.308811 0
M  V30 1246 H 122.542 -2.78088 2.38877 0
M  V30 1247 H 122.19 -4.90468 1.11582 0
M  V30 1248 H 121.89 -5.13485 2.8567 0
M  V30 1249 H 123.414 -5.72166 2.13209 0
M  V30 1250 H 124.828 -4.24254 3.85592 0
M  V30 1251 H 123.225 -3.89388 4.56614 0
M  V30 1252 H 124.295 -2.55144 4.12346 0
M  V30 1253 N 125.638 -1.25649 -0.95132 0
M  V30 1254 C 126.884 -1.10757 -1.69884 0
M  V30 1255 C 127.217 0.350061 -1.91019 0
M  V30 1256 O 126.492 1.25783 -1.48354 0
M  V30 1257 C 126.775 -1.86606 -3.07978 0
M  V30 1258 C 126.628 -3.40217 -2.94232 0
M  V30 1259 C 127.947 -1.65182 -4.07925 0
M  V30 1260 H 125.066 -0.40374 -0.616574 0
M  V30 1261 H 127.708 -1.54521 -1.10558 0
M  V30 1262 H 125.858 -1.49409 -3.58621 0
M  V30 1263 H 127.53 -3.87108 -2.50889 0
M  V30 1264 H 125.773 -3.67759 -2.30078 0
M  V30 1265 H 126.444 -3.88505 -3.92133 0
M  V30 1266 H 128.92 -1.9757 -3.66204 0
M  V30 1267 H 127.796 -2.20683 -5.02583 0
M  V30 1268 H 128.057 -0.593933 -4.38092 0
M  V30 1269 N 127.117 1.15442 -1.07289 0
M  V30 1270 C 128.366 1.85557 -0.790669 0
M  V30 1271 C 128.679 1.83186 0.685739 0
M  V30 1272 O 129.885 2.48977 1.0827 0
M  V30 1273 C 128.341 3.33038 -1.36433 0
M  V30 1274 C 127.949 3.43856 -2.8717 0
M  V30 1275 C 129.693 4.0834 -1.1601 0
M  V30 1276 C 127.6 4.85482 -3.3773 0
M  V30 1277 H 126.53 0.695122 -0.292098 0
M  V30 1278 H 129.181 1.30219 -1.29287 0
M  V30 1279 H 127.563 3.88043 -0.789864 0
M  V30 1280 H 128.737 2.98961 -3.50655 0
M  V30 1281 H 127.052 2.81998 -3.06376 0
M  V30 1282 H 129.649 5.12859 -1.51262 0
M  V30 1283 H 129.992 4.16182 -0.0991007 0
M  V30 1284 H 130.525 3.59603 -1.70089 0
M  V30 1285 H 127.264 4.82823 -4.43353 0
M  V30 1286 H 126.784 5.30961 -2.78999 0
M  V30 1287 H 128.463 5.54335 -3.33648 0
M  V30 1288 N 128.595 0.856903 1.32268 0
M  V30 1289 C 130.006 0.515711 1.79436 0
M  V30 1290 C 130.357 -0.966586 1.70738 0
M  V30 1291 O 129.482 -1.75409 1.26731 0
M  V30 1292 C 130.077 0.929335 3.25805 0
M  V30 1293 C 128.636 0.640006 3.70919 0
M  V30 1294 C 127.783 1.12784 2.53328 0
M  V30 1295 H 130.734 1.04389 1.19535 0
M  V30 1296 H 130.755 0.246633 3.797 0
M  V30 1297 H 130.267 2.00821 3.32103 0
M  V30 1298 H 128.368 -0.428051 3.70133 0
M  V30 1299 H 128.481 1.20788 4.63624 0
M  V30 1300 H 126.845 0.548033 2.48734 0
M  V30 1301 H 127.628 2.21387 2.62379 0
M  V30 1302 N 130.073 -1.45103 0.615059 0
M  V30 1303 C 131.32 -2.02183 0.113179 0
M  V30 1304 C 131.648 -1.48249 -1.25906 0
M  V30 1305 O 130.903 -0.650265 -1.84581 0
M  V30 1306 C 131.202 -3.57386 0.0318797 0
M  V30 1307 C 130.868 -4.30505 1.34077 0
M  V30 1308 C 129.53 -4.50197 1.69929 0
M  V30 1309 C 131.882 -4.72238 2.20546 0
M  V30 1310 C 129.21 -5.08881 2.91988 0
M  V30 1311 C 131.562 -5.32272 3.41861 0
M  V30 1312 C 130.226 -5.50187 3.77956 0
M  V30 1313 H 129.496 -0.739842 0.0414151 0
M  V30 1314 H 132.143 -1.74073 0.798168 0
M  V30 1315 H 130.448 -3.84817 -0.736409 0
M  V30 1316 H 132.145 -3.99264 -0.372712 0
M  V30 1317 H 128.735 -4.15496 1.05173 0
M  V30 1318 H 132.919 -4.56751 1.94146 0
M  V30 1319 H 128.175 -5.20939 3.2005 0
M  V30 1320 H 132.349 -5.63563 4.09109 0
M  V30 1321 H 129.976 -5.95427 4.72622 0
M  V30 1322 N 131.551 -0.354651 -1.53558 0
M  V30 1323 C 132.776 0.242153 -2.05981 0
M  V30 1324 C 133.201 1.42553 -1.2272 0
M  V30 1325 O 132.559 1.79656 -0.243604 0
M  V30 1326 C 132.607 0.624367 -3.55154 0
M  V30 1327 O 131.711 1.72301 -3.74681 0
M  V30 1328 H 131.052 0.0378432 -0.662921 0
M  V30 1329 H 133.582 -0.512087 -1.98088 0
M  V30 1330 H 133.592 0.898433 -3.97985 0
M  V30 1331 H 132.267 -0.240989 -4.15201 0
M  V30 1332 H 130.844 1.44535 -3.4375 0
M  V30 1333 N 133.029 1.57378 -0.0835403 0
M  V30 1334 C 133.959 2.1641 0.87686 0
M  V30 1335 C 134.94 1.09429 1.30228 0
M  V30 1336 O 136.125 1.37516 1.37124 0
M  V30 1337 C 133.255 2.73517 2.14022 0
M  V30 1338 C 132.209 3.85769 1.85381 0
M  V30 1339 C 131.535 4.29529 3.18448 0
M  V30 1340 C 132.835 5.09486 1.14984 0
M  V30 1341 H 134.529 2.96914 0.385059 0
M  V30 1342 H 132.075 1.42823 0.18377 0
M  V30 1343 H 134.028 3.13463 2.81636 0
M  V30 1344 H 132.752 1.90252 2.65465 0
M  V30 1345 H 131.411 3.46345 1.20169 0
M  V30 1346 H 131.059 3.43169 3.67755 0
M  V30 1347 H 130.759 5.05204 3.00071 0
M  V30 1348 H 132.283 4.72099 3.8724 0
M  V30 1349 H 133.697 5.46674 1.72687 0
M  V30 1350 H 132.094 5.90515 1.06826 0
M  V30 1351 H 133.164 4.84724 0.130749 0
M  V30 1352 N 134.507 -0.190092 1.56449 0
M  V30 1353 C 135.47 -1.21925 1.9408 0
M  V30 1354 C 136.47 -1.38176 0.822431 0
M  V30 1355 O 137.66 -1.35903 1.08977 0
M  V30 1356 C 134.792 -2.58773 2.21922 0
M  V30 1357 H 135.985 -0.897464 2.86157 0
M  V30 1358 H 133.538 -0.43181 1.50217 0
M  V30 1359 H 134.273 -2.95998 1.32499 0
M  V30 1360 H 134.058 -2.48348 3.03424 0
M  V30 1361 H 135.548 -3.32978 2.52022 0
M  V30 1362 N 135.985 -1.50799 -0.457987 0
M  V30 1363 C 136.933 -1.71162 -1.575 0
M  V30 1364 C 137.927 -0.577592 -1.59249 0
M  V30 1365 O 139.133 -0.758443 -1.63241 0
M  V30 1366 H 135.508 -0.540468 -0.522875 0
M  V30 1367 H 137.479 -2.64837 -1.37492 0
M  V30 1368 C 136.228 -1.83496 -2.95338 0
M  V30 1369 H 135.551 -2.70153 -2.94716 0
M  V30 1370 H 136.991 -2.01765 -3.72917 0
M  V30 1371 C 135.45 -0.589694 -3.31699 0
M  V30 1372 O 135.98 0.265163 -4.00824 0
M  V30 1373 N 134.186 -0.439845 -2.87252 0
M  V30 1374 H 133.733 -1.13655 -2.31172 0
M  V30 1375 H 133.691 0.392159 -3.11945 0
M  V30 1376 N 137.463 0.71206 -1.40597 0
M  V30 1377 C 138.373 1.8562 -1.43466 0
M  V30 1378 C 139.389 1.70902 -0.326902 0
M  V30 1379 O 140.565 1.93105 -0.572043 0
M  V30 1380 C 137.63 3.21451 -1.29884 0
M  V30 1381 C 136.691 3.48398 -2.50833 0
M  V30 1382 C 135.924 4.77749 -2.3789 0
M  V30 1383 O 136.147 5.53089 -1.39459 0
M  V30 1384 O 135.081 5.05111 -3.27333 0
M  V30 1385 H 138.907 1.86155 -2.39958 0
M  V30 1386 H 136.492 0.86295 -1.21957 0
M  V30 1387 H 138.374 4.02579 -1.24531 0
M  V30 1388 H 137.049 3.21636 -0.364997 0
M  V30 1389 H 135.956 2.67265 -2.61763 0
M  V30 1390 H 137.289 3.53014 -3.4299 0
M  V30 1391 N 138.941 1.26152 0.944643 0
M  V30 1392 C 140.187 1.11657 1.69294 0
M  V30 1393 C 140.52 -0.339926 1.91202 0
M  V30 1394 O 139.795 -1.24994 1.49019 0
M  V30 1395 C 140.078 1.88236 3.06984 0
M  V30 1396 C 139.931 3.41772 2.92424 0
M  V30 1397 C 141.25 1.67343 4.07043 0
M  V30 1398 H 138.369 0.407004 0.614424 0
M  V30 1399 H 141.011 1.55106 1.09737 0
M  V30 1400 H 139.161 1.51308 3.57824 0
M  V30 1401 H 140.833 3.88433 2.48832 0
M  V30 1402 H 139.076 3.68974 2.28124 0
M  V30 1403 H 139.747 3.90579 3.90067 0
M  V30 1404 H 142.223 1.99509 3.65151 0
M  V30 1405 H 141.099 2.23346 5.01406 0
M  V30 1406 H 141.36 0.617158 4.37771 0
M  V30 1407 N 140.419 -1.14872 1.07899 0
M  V30 1408 C 141.352 -2.18794 0.64841 0
M  V30 1409 C 142.33 -1.59065 -0.337189 0
M  V30 1410 O 143.514 -1.86936 -0.242284 0
M  V30 1411 C 140.641 -3.38667 -0.0470417 0
M  V30 1412 C 139.687 -4.16942 0.897884 0
M  V30 1413 S 140.52 -4.78615 2.40183 0
M  V30 1414 C 141.676 -6.0185 1.71834 0
M  V30 1415 H 141.909 -2.5498 1.52881 0
M  V30 1416 H 139.442 -1.25922 0.893484 0
M  V30 1417 H 141.4 -4.08113 -0.442027 0
M  V30 1418 H 140.061 -3.00814 -0.903861 0
M  V30 1419 H 139.254 -5.02726 0.358096 0
M  V30 1420 H 138.856 -3.53073 1.23352 0
M  V30 1421 H 141.148 -6.69574 1.03328 0
M  V30 1422 H 142.091 -6.60408 2.55473 0
M  V30 1423 H 142.499 -5.5173 1.19392 0
M  V30 1424 N 141.898 -0.863906 -1.31812 0
M  V30 1425 C 143.146 -0.470904 -1.96537 0
M  V30 1426 C 143.467 0.978771 -1.68657 0
M  V30 1427 O 142.737 1.6853 -0.998717 0
M  V30 1428 H 141.317 -0.171148 -0.72713 0
M  V30 1429 H 143.979 -1.10236 -1.60729 0
M  V30 1430 H 143.075 -0.623616 -3.05806 0
M  V30 1431 N 143.376 1.44774 -0.622745 0
M  V30 1432 C 144.606 2.06187 -0.130532 0
M  V30 1433 C 145.014 1.46547 1.19669 0
M  V30 1434 O 144.357 0.579636 1.74316 0
M  V30 1435 C 144.419 3.59437 0.0674983 0
M  V30 1436 C 144.083 4.41496 -1.18026 0
M  V30 1437 C 145.08 4.75512 -2.102 0
M  V30 1438 C 142.765 4.82007 -1.41333 0
M  V30 1439 C 144.759 5.48912 -3.23998 0
M  V30 1440 C 142.446 5.55157 -2.55429 0
M  V30 1441 C 143.444 5.88528 -3.46589 0
M  V30 1442 O 143.132 6.60191 -4.58697 0
M  V30 1443 H 142.864 0.672045 -0.0730162 0
M  V30 1444 H 145.418 1.86768 -0.854802 0
M  V30 1445 H 143.648 3.77314 0.846825 0
M  V30 1446 H 145.337 4.02642 0.513209 0
M  V30 1447 H 146.103 4.4476 -1.93425 0
M  V30 1448 H 141.982 4.55457 -0.712709 0
M  V30 1449 H 145.526 5.74877 -3.95174 0
M  V30 1450 H 141.423 5.85324 -2.72151 0
M  V30 1451 H 142.191 6.78654 -4.57571 0
M  V30 1452 N 144.854 0.36279 1.53368 0
M  V30 1453 C 146.1 -0.220702 2.02199 0
M  V30 1454 C 146.455 -1.46649 1.24546 0
M  V30 1455 O 145.748 -1.88737 0.32996 0
M  V30 1456 C 145.942 -0.568417 3.52851 0
M  V30 1457 C 145.771 0.642126 4.45092 0
M  V30 1458 C 144.541 1.15335 4.91961 0
M  V30 1459 C 146.739 1.50649 4.91741 0
M  V30 1460 N 144.721 2.3242 5.68202 0
M  V30 1461 C 146.092 2.52404 5.66297 0
M  V30 1462 C 148.147 1.52969 4.73819 0
M  V30 1463 C 146.85 3.56331 6.24836 0
M  V30 1464 C 148.876 2.55789 5.33222 0
M  V30 1465 C 148.238 3.56268 6.07662 0
M  V30 1466 H 144.337 -0.0435508 0.780786 0
M  V30 1467 H 146.921 0.506704 1.87991 0
M  V30 1468 H 145.092 -1.2649 3.67226 0
M  V30 1469 H 146.824 -1.13676 3.88407 0
M  V30 1470 H 143.579 0.718412 4.68119 0
M  V30 1471 H 144.003 2.91591 6.10986 0
M  V30 1472 H 148.645 0.766418 4.15795 0
M  V30 1473 H 146.363 4.33543 6.81958 0
M  V30 1474 H 149.949 2.58435 5.21251 0
M  V30 1475 H 148.829 4.34524 6.52808 0
M  V30 1476 N 146.332 -1.57332 0.0918853 0
M  V30 1477 C 147.562 -1.98286 -0.580205 0
M  V30 1478 C 147.97 -0.969713 -1.6246 0
M  V30 1479 O 147.313 0.0493501 -1.83634 0
M  V30 1480 C 147.375 -3.35603 -1.28882 0
M  V30 1481 C 147.039 -4.55285 -0.395559 0
M  V30 1482 C 148.036 -5.18687 0.355002 0
M  V30 1483 C 145.721 -5.01314 -0.314556 0
M  V30 1484 C 147.715 -6.26484 1.17458 0
M  V30 1485 C 145.402 -6.08979 0.508677 0
M  V30 1486 C 146.4 -6.71429 1.2519 0
M  V30 1487 O 146.088 -7.77018 2.06151 0
M  V30 1488 H 145.82 -0.656678 -0.160466 0
M  V30 1489 H 148.374 -2.04721 0.16688 0
M  V30 1490 H 146.604 -3.25842 -2.08241 0
M  V30 1491 H 148.293 -3.61026 -1.85512 0
M  V30 1492 H 149.059 -4.84058 0.302134 0
M  V30 1493 H 144.938 -4.5247 -0.882697 0
M  V30 1494 H 148.482 -6.75159 1.75518 0
M  V30 1495 H 144.379 -6.4304 0.563037 0
M  V30 1496 H 145.147 -7.93991 1.98799 0
M  V30 1497 N 147.81 0.181792 -1.56548 0
M  V30 1498 C 149.057 0.900097 -1.81396 0
M  V30 1499 C 149.385 1.82695 -0.667281 0
M  V30 1500 O 148.64 1.92614 0.346146 0
M  V30 1501 C 148.939 1.73728 -3.12335 0
M  V30 1502 C 148.605 0.960255 -4.40556 0
M  V30 1503 C 147.267 0.745766 -4.75386 0
M  V30 1504 C 149.619 0.414477 -5.19549 0
M  V30 1505 C 146.947 -0.0257694 -5.86694 0
M  V30 1506 C 149.299 -0.343916 -6.31664 0
M  V30 1507 C 147.963 -0.569301 -6.65068 0
M  V30 1508 H 147.233 0.329369 -0.663775 0
M  V30 1509 H 149.88 0.165647 -1.90782 0
M  V30 1510 H 148.185 2.54081 -2.98245 0
M  V30 1511 H 149.882 2.29591 -3.28769 0
M  V30 1512 H 146.472 1.13746 -4.13231 0
M  V30 1513 H 150.656 0.567554 -4.93044 0
M  V30 1514 H 145.912 -0.210233 -6.11038 0
M  V30 1515 H 150.086 -0.774133 -6.92084 0
M  V30 1516 H 147.713 -1.16903 -7.51158 0
M  V30 1517 N 149.288 1.51039 0.449983 0
M  V30 1518 C 150.536 1.62759 1.19808 0
M  V30 1519 C 150.857 0.339981 1.92013 0
M  V30 1520 O 150.127 -0.643606 1.85026 0
M  V30 1521 H 148.707 0.599811 0.445237 0
M  V30 1522 H 151.369 1.87914 0.517138 0
M  V30 1523 H 150.465 2.44911 1.93455 0
M  V30 1524 N 150.766 -0.704594 1.40972 0
M  V30 1525 C 151.713 -1.81862 1.42109 0
M  V30 1526 C 152.683 -1.63781 0.276593 0
M  V30 1527 O 153.868 -1.84759 0.4763 0
M  V30 1528 C 151.008 -3.19669 1.30022 0
M  V30 1529 C 150.121 -3.49246 2.54267 0
M  V30 1530 C 149.256 -4.76618 2.3454 0
M  V30 1531 C 148.295 -4.99133 3.54306 0
M  V30 1532 N 147.432 -6.17726 3.33706 0
M  V30 1533 H 152.272 -1.80226 2.37324 0
M  V30 1534 H 149.809 -0.880238 1.17857 0
M  V30 1535 H 151.767 -3.99263 1.21018 0
M  V30 1536 H 150.397 -3.20506 0.384192 0
M  V30 1537 H 149.449 -2.64125 2.73756 0
M  V30 1538 H 150.761 -3.61788 3.43381 0
M  V30 1539 H 149.915 -5.64249 2.22952 0
M  V30 1540 H 148.654 -4.66305 1.42867 0
M  V30 1541 H 147.659 -4.09953 3.66359 0
M  V30 1542 H 148.884 -5.11311 4.4692 0
M  V30 1543 H 146.83 -6.08642 2.44725 0
M  V30 1544 H 146.747 -6.30995 4.16391 0
M  V30 1545 H 148.015 -7.08115 3.25873 0
M  V30 1546 N 152.244 -1.26651 -0.937939 0
M  V30 1547 C 153.207 -1.08546 -2.01867 0
M  V30 1548 C 154.207 -0.0327327 -1.60767 0
M  V30 1549 O 155.397 -0.276427 -1.71993 0
M  V30 1550 C 152.529 -0.651711 -3.34613 0
M  V30 1551 H 153.722 -2.04502 -2.1936 0
M  V30 1552 H 151.275 -1.09294 -1.11734 0
M  V30 1553 H 152.01 0.309696 -3.22818 0
M  V30 1554 H 151.795 -1.41189 -3.65798 0
M  V30 1555 H 153.285 -0.546973 -4.14002 0
M  V30 1556 N 153.722 1.14298 -1.08507 0
M  V30 1557 C 154.968 1.85854 -0.826438 0
M  V30 1558 C 155.323 1.81413 0.640878 0
M  V30 1559 O 154.616 1.23463 1.46518 0
M  V30 1560 C 154.81 3.33547 -1.28379 0
M  V30 1561 C 154.639 3.52369 -2.79403 0
M  V30 1562 C 153.409 3.67159 -3.47164 0
M  V30 1563 C 155.607 3.49203 -3.77573 0
M  V30 1564 N 153.589 3.74149 -4.86709 0
M  V30 1565 C 154.96 3.6245 -5.03021 0
M  V30 1566 C 157.015 3.32547 -3.70563 0
M  V30 1567 C 155.718 3.60761 -6.2229 0
M  V30 1568 C 157.744 3.32162 -4.89308 0
M  V30 1569 C 157.106 3.45949 -6.13595 0
M  V30 1570 H 153.205 0.696705 -0.355143 0
M  V30 1571 H 155.789 1.36981 -1.38362 0
M  V30 1572 H 153.96 3.81008 -0.754166 0
M  V30 1573 H 155.692 3.92867 -0.971469 0
M  V30 1574 H 152.447 3.68433 -2.9758 0
M  V30 1575 H 152.871 3.81359 -5.5937 0
M  V30 1576 H 157.513 3.20797 -2.75407 0
M  V30 1577 H 155.231 3.71286 -7.17755 0
M  V30 1578 H 158.817 3.20485 -4.85573 0
M  V30 1579 H 157.697 3.456 -7.03939 0
M  V30 1580 N 155.201 0.870884 1.31352 0
M  V30 1581 C 156.441 0.488783 1.9847 0
M  V30 1582 C 156.805 -0.941536 1.67329 0
M  V30 1583 O 158.006 -1.42903 2.27667 0
M  V30 1584 C 156.277 0.739688 3.49662 0
M  V30 1585 S 157.836 0.457582 4.36408 0
M  V30 1586 H 154.654 0.18242 0.6872 0
M  V30 1587 H 157.256 1.12711 1.59739 0
M  V30 1588 H 155.96 1.77944 3.69816 0
M  V30 1589 H 155.491 0.0883905 3.93301 0
M  V30 1590 H 157.506 -0.709752 4.91098 0
M  V30 1591 N 156.679 -1.44442 0.630414 0
M  V30 1592 C 157.589 -2.34476 -0.0761693 0
M  V30 1593 C 158.605 -1.52576 -0.836449 0
M  V30 1594 O 159.781 -1.85307 -0.788874 0
M  V30 1595 C 156.846 -3.30545 -1.04599 0
M  V30 1596 C 155.907 -4.28352 -0.28516 0
M  V30 1597 C 155.14 -5.19831 -1.20878 0
M  V30 1598 O 155.363 -5.15223 -2.44747 0
M  V30 1599 O 154.297 -5.97892 -0.693491 0
M  V30 1600 H 158.123 -2.96345 0.664324 0
M  V30 1601 H 155.708 -1.44203 0.39061 0
M  V30 1602 H 157.59 -3.89681 -1.60396 0
M  V30 1603 H 156.265 -2.7121 -1.76711 0
M  V30 1604 H 155.172 -3.72764 0.315837 0
M  V30 1605 H 156.505 -4.90605 0.395924 0
M  V30 1606 N 158.157 -0.370918 -1.53173 0
M  V30 1607 C 159.406 0.218249 -2.00516 0
M  V30 1608 C 159.719 1.49429 -1.26215 0
M  V30 1609 O 160.925 2.16239 -1.64174 0
M  V30 1610 C 159.381 0.43948 -3.57207 0
M  V30 1611 C 158.989 -0.822244 -4.4039 0
M  V30 1612 C 160.733 0.986012 -4.1289 0
M  V30 1613 C 158.64 -0.570304 -5.88644 0
M  V30 1614 H 157.57 0.0853333 -0.749156 0
M  V30 1615 H 160.221 -0.490483 -1.76823 0
M  V30 1616 H 158.603 1.20961 -3.77074 0
M  V30 1617 H 159.777 -1.59557 -4.32294 0
M  V30 1618 H 158.092 -1.29238 -3.95836 0
M  V30 1619 H 160.689 1.18991 -5.21292 0
M  V30 1620 H 161.032 1.94972 -3.6782 0
M  V30 1621 H 161.565 0.27592 -3.96842 0
M  V30 1622 H 158.304 -1.50449 -6.38001 0
M  V30 1623 H 157.824 0.164427 -5.99575 0
M  V30 1624 H 159.503 -0.19784 -6.46697 0
M  V30 1625 N 159.635 1.57281 -0.100228 0
M  V30 1626 C 160.865 1.98591 0.569681 0
M  V30 1627 C 161.273 0.978315 1.61943 0
M  V30 1628 O 160.616 -0.0396108 1.83657 0
M  V30 1629 C 160.678 3.36282 1.271 0
M  V30 1630 C 160.342 4.55488 0.371409 0
M  V30 1631 C 161.339 5.18491 -0.382504 0
M  V30 1632 C 159.024 5.01474 0.287965 0
M  V30 1633 C 161.018 6.25852 -1.20779 0
M  V30 1634 C 158.705 6.08701 -0.540965 0
M  V30 1635 C 159.703 6.70755 -1.28749 0
M  V30 1636 O 159.391 7.75914 -2.10269 0
M  V30 1637 H 159.123 0.65752 0.156982 0
M  V30 1638 H 161.677 2.0463 -0.177734 0
M  V30 1639 H 159.907 3.26941 2.0651 0
M  V30 1640 H 161.596 3.62005 1.83595 0
M  V30 1641 H 162.362 4.83891 -0.3278 0
M  V30 1642 H 158.241 4.52932 0.858689 0
M  V30 1643 H 161.785 6.74218 -1.79096 0
M  V30 1644 H 157.682 6.42732 -0.597131 0
M  V30 1645 H 158.45 7.92925 -2.03007 0
M  V30 1646 N 161.113 -0.173488 1.56642 0
M  V30 1647 C 162.043 -1.2171 1.99271 0
M  V30 1648 C 163.024 -1.46289 0.867959 0
M  V30 1649 O 164.209 -1.5766 1.13388 0
M  V30 1650 C 161.339 -2.55651 2.35074 0
M  V30 1651 C 160.293 -2.45645 3.50489 0
M  V30 1652 C 159.619 -3.84056 3.72028 0
M  V30 1653 C 160.919 -1.96302 4.84007 0
M  V30 1654 H 162.613 -0.86275 2.867 0
M  V30 1655 H 160.159 -0.413571 1.37933 0
M  V30 1656 H 162.112 -3.2886 2.63494 0
M  V30 1657 H 160.836 -2.92869 1.44552 0
M  V30 1658 H 159.495 -1.7489 3.22194 0
M  V30 1659 H 159.143 -4.18664 2.788 0
M  V30 1660 H 158.843 -3.7823 4.49684 0
M  V30 1661 H 160.367 -4.58854 4.02846 0
M  V30 1662 H 161.781 -2.59284 5.11317 0
M  V30 1663 H 160.178 -2.01429 5.65284 0
M  V30 1664 H 161.248 -0.917226 4.76146 0
M  V30 1665 N 162.591 -1.51276 -0.441967 0
M  V30 1666 C 163.554 -1.7167 -1.51862 0
M  V30 1667 C 164.554 -0.586793 -1.49711 0
M  V30 1668 O 165.744 -0.854276 -1.51815 0
M  V30 1669 C 162.876 -1.76889 -2.91416 0
M  V30 1670 H 164.069 -2.67754 -1.35084 0
M  V30 1671 H 161.622 -1.41196 -0.670333 0
M  V30 1672 H 162.357 -0.826026 -3.13604 0
M  V30 1673 H 162.142 -2.59001 -2.94382 0
M  V30 1674 H 163.632 -1.94522 -3.69528 0
M  V30 1675 N 164.069 0.697108 -1.41344 0
M  V30 1676 C 164.999 1.82353 -1.45841 0
M  V30 1677 C 165.98 1.67115 -0.317247 0
M  V30 1678 O 167.165 1.86871 -0.528474 0
M  V30 1679 C 164.295 3.20476 -1.33838 0
M  V30 1680 C 163.249 3.50415 -2.4575 0
M  V30 1681 C 162.575 4.87878 -2.18813 0
M  V30 1682 C 163.875 3.49546 -3.88091 0
M  V30 1683 H 165.569 1.78846 -2.40113 0
M  V30 1684 H 163.115 0.859028 -1.15571 0
M  V30 1685 H 165.068 3.98988 -1.35596 0
M  V30 1686 H 163.792 3.24604 -0.360498 0
M  V30 1687 H 162.451 2.74253 -2.43271 0
M  V30 1688 H 162.099 4.8863 -1.19371 0
M  V30 1689 H 161.799 5.08875 -2.93803 0
M  V30 1690 H 163.323 5.68702 -2.22284 0
M  V30 1691 H 164.737 4.18066 -3.92293 0
M  V30 1692 H 163.134 3.82075 -4.62751 0
M  V30 1693 H 164.204 2.48552 -4.16353 0
M  V30 1694 N 165.547 1.27147 0.931209 0
M  V30 1695 C 166.824 1.0401 1.65654 0
M  V30 1696 C 167.204 -0.426297 2.06751 0
M  V30 1697 O 166.552 -1.40879 1.79904 0
M  V30 1698 C 166.762 1.99834 2.86125 0
M  V30 1699 C 168.11 2.29007 3.57549 0
M  V30 1700 O 169.134 1.97779 2.96246 0
M  V30 1701 O 167.993 2.82222 4.67989 0
M  V30 1702 H 165.087 0.396239 0.725895 0
M  V30 1703 H 167.633 1.38397 0.982056 0
M  V30 1704 H 166.405 2.98744 2.52721 0
M  V30 1705 H 166.028 1.65987 3.61295 0
M  V30 1706 N 167.025 -1.13721 1.09112 0
M  V30 1707 C 168.271 -1.85198 0.826414 0
M  V30 1708 C 168.604 -1.83129 -0.646319 0
M  V30 1709 O 167.879 -1.2671 -1.47563 0
M  V30 1710 C 168.162 -3.33507 1.35812 0
M  V30 1711 C 168.015 -3.44108 2.89672 0
M  V30 1712 C 169.334 -4.28838 0.989256 0
M  V30 1713 H 166.453 -0.67243 0.301675 0
M  V30 1714 H 169.095 -1.33499 1.35197 0
M  V30 1715 H 167.245 -3.77666 0.911082 0
M  V30 1716 H 168.917 -3.08684 3.428 0
M  V30 1717 H 167.16 -2.85087 3.26967 0
M  V30 1718 H 167.831 -4.48388 3.21951 0
M  V30 1719 H 170.307 -3.92734 1.37475 0
M  V30 1720 H 169.183 -5.31051 1.38838 0
M  V30 1721 H 169.444 -4.4198 -0.102924 0
M  V30 1722 N 168.503 -0.877838 -1.30888 0
M  V30 1723 C 169.433 -0.35534 -2.3078 0
M  V30 1724 C 170.414 0.557994 -1.60687 0
M  V30 1725 O 171.599 0.473355 -1.88343 0
M  V30 1726 C 168.729 0.437221 -3.44537 0
M  V30 1727 C 167.683 -0.383715 -4.26276 0
M  V30 1728 C 167.009 0.535014 -5.32017 0
M  V30 1729 C 168.309 -1.62201 -4.96476 0
M  V30 1730 H 170.003 -1.19007 -2.74732 0
M  V30 1731 H 167.549 -0.573698 -1.32078 0
M  V30 1732 H 169.502 0.813334 -4.13477 0
M  V30 1733 H 168.226 1.30553 -2.99372 0
M  V30 1734 H 166.885 -0.741874 -3.59015 0
M  V30 1735 H 166.533 1.40083 -4.831 0
M  V30 1736 H 166.233 -0.0104211 -5.87599 0
M  V30 1737 H 167.757 0.907799 -6.03814 0
M  V30 1738 H 169.171 -1.31689 -5.5797 0
M  V30 1739 H 167.568 -2.10711 -5.61891 0
M  V30 1740 H 168.638 -2.37044 -4.23011 0
M  V30 1741 N 169.982 1.44106 -0.638065 0
M  V30 1742 C 171.229 2.01978 -0.14533 0
M  V30 1743 C 171.557 1.50234 1.23532 0
M  V30 1744 O 170.812 0.679548 1.83523 0
M  V30 1745 C 171.111 3.5729 -0.0887327 0
M  V30 1746 C 170.777 4.28317 -1.40909 0
M  V30 1747 C 169.439 4.47437 -1.77069 0
M  V30 1748 C 171.791 4.6867 -2.28031 0
M  V30 1749 C 169.119 5.04171 -3.00047 0
M  V30 1750 C 171.471 5.26766 -3.50286 0
M  V30 1751 C 170.135 5.44104 -3.86661 0
M  V30 1752 H 169.405 0.739089 -0.0531801 0
M  V30 1753 H 172.052 1.72781 -0.825761 0
M  V30 1754 H 170.357 3.8594 0.675095 0
M  V30 1755 H 172.054 3.99807 0.309145 0
M  V30 1756 H 168.644 4.1377 -1.1177 0
M  V30 1757 H 172.828 4.53604 -2.01388 0
M  V30 1758 H 168.084 5.15782 -3.28298 0
M  V30 1759 H 172.258 5.56983 -4.18023 0
M  V30 1760 H 169.885 5.87832 -4.82034 0
M  V30 1761 N 171.46 0.379036 1.52974 0
M  V30 1762 C 172.7 -0.206325 2.03356 0
M  V30 1763 C 173.064 -1.44892 1.25977 0
M  V30 1764 O 174.265 -2.11078 1.66432 0
M  V30 1765 C 172.536 -0.477887 3.54191 0
M  V30 1766 S 174.095 -1.035 4.26419 0
M  V30 1767 H 170.913 -0.0590259 0.708546 0
M  V30 1768 H 173.515 0.525013 1.88319 0
M  V30 1769 H 172.219 0.433745 4.08101 0
M  V30 1770 H 171.75 -1.23793 3.73415 0
M  V30 1771 H 173.765 -2.31821 4.38718 0
M  V30 1772 N 172.938 -1.57226 0.108567 0
M  V30 1773 C 174.166 -1.99179 -0.559954 0
M  V30 1774 C 174.581 -0.988022 -1.60884 0
M  V30 1775 O 173.938 0.0205512 -1.82488 0
M  V30 1776 C 173.989 -3.41159 -1.19552 0
M  V30 1777 O 173.71 -4.37694 -0.188577 0
M  V30 1778 C 175.211 -3.98188 -1.94837 0
M  V30 1779 H 172.431 -0.654228 -0.149088 0
M  V30 1780 H 174.975 -2.03598 0.19183 0
M  V30 1781 H 173.13 -3.37711 -1.89815 0
M  V30 1782 H 173.544 -5.20469 -0.649014 0
M  V30 1783 H 175.018 -4.99644 -2.34648 0
M  V30 1784 H 175.495 -3.3675 -2.81951 0
M  V30 1785 H 176.101 -4.0515 -1.2936 0
M  V30 1786 N 174.416 0.165178 -1.56732 0
M  V30 1787 C 175.641 0.900253 -1.86843 0
M  V30 1788 C 176.066 1.74766 -0.695596 0
M  V30 1789 O 175.424 1.77786 0.35522 0
M  V30 1790 C 175.472 1.74777 -3.15413 0
M  V30 1791 O 174.576 2.85007 -2.98068 0
M  V30 1792 H 173.917 0.251832 -0.614391 0
M  V30 1793 H 176.447 0.161468 -2.03962 0
M  V30 1794 H 176.457 2.14646 -3.46974 0
M  V30 1795 H 175.132 1.12537 -4.00385 0
M  V30 1796 H 173.709 2.48676 -2.77875 0
M  V30 1797 N 175.894 1.51508 0.433938 0
M  V30 1798 C 177.119 1.68443 1.21003 0
M  V30 1799 C 177.544 0.382636 1.84167 0
M  V30 1800 O 176.902 -0.65755 1.68956 0
M  V30 1801 C 176.95 2.80405 2.26727 0
M  V30 1802 O 176.054 2.44245 3.32292 0
M  V30 1803 H 175.395 0.561536 0.354363 0
M  V30 1804 H 177.925 1.9809 0.512024 0
M  V30 1805 H 177.935 3.0459 2.71457 0
M  V30 1806 H 176.61 3.74867 1.80132 0
M  V30 1807 H 175.187 2.30644 2.93015 0
M  V30 1808 N 177.372 -0.689602 1.41712 0
M  V30 1809 C 178.621 -1.44534 1.40686 0
M  V30 1810 C 178.934 -1.95588 0.0213352 0
M  V30 1811 O 180.14 -2.71271 -0.111534 0
M  V30 1812 C 178.596 -2.61387 2.47396 0
M  V30 1813 C 178.204 -2.17094 3.91885 0
M  V30 1814 C 179.948 -3.38986 2.55517 0
M  V30 1815 C 177.855 -3.3094 4.90135 0
M  V30 1816 H 176.785 -0.542925 0.52321 0
M  V30 1817 H 179.436 -0.748054 1.6756 0
M  V30 1818 H 177.818 -3.33412 2.13664 0
M  V30 1819 H 178.992 -1.52318 4.34897 0
M  V30 1820 H 177.307 -1.52473 3.8748 0
M  V30 1821 H 179.904 -4.23747 3.26102 0
M  V30 1822 H 180.247 -3.84578 1.59391 0
M  V30 1823 H 180.78 -2.74021 2.8837 0
M  V30 1824 H 177.519 -2.90355 5.87685 0
M  V30 1825 H 177.039 -3.94546 4.51767 0
M  V30 1826 H 178.718 -3.9663 5.11169 0
M  V30 1827 N 178.85 -1.27639 -0.924453 0
M  V30 1828 C 180.096 -1.14336 -1.67497 0
M  V30 1829 C 180.429 0.309465 -1.91718 0
M  V30 1830 O 179.704 1.22608 -1.50989 0
M  V30 1831 C 179.987 -1.93096 -3.0395 0
M  V30 1832 C 179.84 -3.46381 -2.8695 0
M  V30 1833 C 181.159 -1.73798 -4.0433 0
M  V30 1834 H 178.278 -0.416728 -0.607871 0
M  V30 1835 H 180.92 -1.56832 -1.07256 0
M  V30 1836 H 179.07 -1.56982 -3.55372 0
M  V30 1837 H 180.742 -3.92343 -2.42621 0
M  V30 1838 H 178.985 -3.72557 -2.22225 0
M  V30 1839 H 179.656 -3.96735 -3.83804 0
M  V30 1840 H 182.132 -2.05293 -3.61931 0
M  V30 1841 H 181.008 -2.31294 -4.97789 0
M  V30 1842 H 181.269 -0.686725 -4.36734 0
M  V30 1843 N 180.328 1.1314 -1.09713 0
M  V30 1844 C 181.278 2.16709 -0.708593 0
M  V30 1845 C 182.262 1.58471 0.278523 0
M  V30 1846 O 183.454 1.76779 0.088427 0
M  V30 1847 C 180.583 3.43039 -0.133923 0
M  V30 1848 C 179.669 4.08277 -1.14763 0
M  V30 1849 N 180.06 4.48637 -2.33577 0
M  V30 1850 C 178.358 4.34954 -0.986446 0
M  V30 1851 C 179.059 4.9952 -2.98085 0
M  V30 1852 N 178.035 4.94561 -2.25632 0
M  V30 1853 H 181.837 2.45672 -1.61315 0
M  V30 1854 H 179.351 1.29967 -0.973775 0
M  V30 1855 H 181.348 4.16583 0.162465 0
M  V30 1856 H 180.008 3.15549 0.765447 0
M  V30 1857 H 181.019 4.41246 -2.7115 0
M  V30 1858 H 177.696 4.17258 -0.142008 0
M  V30 1859 H 179.086 5.40521 -3.99108 0
M  V30 1860 N 181.806 0.884767 1.30421 0
M  V30 1861 C 182.736 0.367574 2.30589 0
M  V30 1862 C 183.717 -0.549464 1.60981 0
M  V30 1863 O 184.902 -0.46336 1.88591 0
M  V30 1864 C 182.032 -0.418944 3.44764 0
M  V30 1865 C 180.986 0.406316 4.26067 0
M  V30 1866 C 180.312 -0.506793 5.32293 0
M  V30 1867 C 181.612 1.64832 4.95608 0
M  V30 1868 H 183.306 1.20462 2.74097 0
M  V30 1869 H 180.852 0.580695 1.31772 0
M  V30 1870 H 182.805 -0.791395 4.13902 0
M  V30 1871 H 181.529 -1.28964 3.0006 0
M  V30 1872 H 180.188 0.760903 3.58617 0
M  V30 1873 H 179.836 -1.37519 4.83836 0
M  V30 1874 H 179.536 0.0415828 5.87585 0
M  V30 1875 H 181.06 -0.875764 6.04287 0
M  V30 1876 H 182.474 1.34646 5.57264 0
M  V30 1877 H 180.871 2.13688 5.60765 0
M  V30 1878 H 181.941 2.39284 4.21748 0
M  V30 1879 N 183.284 -1.43765 0.645699 0
M  V30 1880 C 184.524 -2.03776 0.159542 0
M  V30 1881 C 184.888 -1.49792 -1.2011 0
M  V30 1882 O 186.089 -2.01398 -1.78023 0
M  V30 1883 C 184.36 -3.57036 0.161251 0
M  V30 1884 S 185.919 -4.3804 -0.258159 0
M  V30 1885 H 182.737 -0.707717 0.0682454 0
M  V30 1886 H 185.339 -1.75941 0.852352 0
M  V30 1887 H 184.043 -3.9383 1.15439 0
M  V30 1888 H 183.574 -3.89503 -0.552339 0
M  V30 1889 H 185.589 -4.7302 -1.49889 0
M  V30 1890 N 184.763 -0.387143 -1.52771 0
M  V30 1891 C 185.726 0.436939 -2.24997 0
M  V30 1892 C 186.726 0.991991 -1.26555 0
M  V30 1893 O 187.916 0.874335 -1.50669 0
M  V30 1894 C 185.048 1.61281 -3.00335 0
M  V30 1895 H 186.241 -0.195365 -2.99263 0
M  V30 1896 H 183.794 -0.139218 -1.55679 0
M  V30 1897 H 184.529 2.2826 -2.30364 0
M  V30 1898 H 184.314 1.22154 -3.72587 0
M  V30 1899 H 185.804 2.19629 -3.5518 0
M  V30 1900 N 186.241 1.57166 -0.116904 0
M  V30 1901 C 187.49 1.94298 0.541407 0
M  V30 1902 C 187.803 1.00236 1.67964 0
M  V30 1903 O 189.009 1.26826 2.40057 0
M  V30 1904 C 187.465 3.45306 1.01449 0
M  V30 1905 C 187.073 4.47899 -0.0951738 0
M  V30 1906 C 188.817 3.91361 1.6443 0
M  V30 1907 C 186.724 5.90083 0.394491 0
M  V30 1908 H 185.654 0.725308 0.206019 0
M  V30 1909 H 188.305 1.82446 -0.196419 0
M  V30 1910 H 186.687 3.52385 1.80667 0
M  V30 1911 H 187.861 4.52486 -0.871374 0
M  V30 1912 H 186.176 4.11583 -0.631505 0
M  V30 1913 H 188.773 4.95004 2.02176 0
M  V30 1914 H 189.116 3.3122 2.52189 0
M  V30 1915 H 189.649 3.87073 0.917559 0
M  V30 1916 H 186.388 6.53974 -0.447004 0
M  V30 1917 H 185.908 5.88921 1.13722 0
M  V30 1918 H 187.587 6.41307 0.856399 0
M  V30 1919 N 187.719 -0.156864 1.56817 0
M  V30 1920 C 188.944 -0.890331 1.87318 0
M  V30 1921 C 189.369 -1.74394 0.704855 0
M  V30 1922 O 188.727 -1.77972 -0.345786 0
M  V30 1923 C 188.775 -1.73102 3.16336 0
M  V30 1924 O 187.879 -2.83422 2.99576 0
M  V30 1925 H 187.22 -0.24857 0.615718 0
M  V30 1926 H 189.75 -0.150649 2.04045 0
M  V30 1927 H 189.76 -2.12803 3.48107 0
M  V30 1928 H 188.435 -1.10412 4.00976 0
M  V30 1929 H 187.012 -2.47199 2.7919 0
M  V30 1930 N 189.197 -1.51736 -0.425897 0
M  V30 1931 C 190.127 -1.76827 -1.52494 0
M  V30 1932 C 191.108 -0.618524 -1.58456 0
M  V30 1933 O 192.293 -0.862416 -1.74 0
M  V30 1934 C 189.423 -1.90374 -2.90474 0
M  V30 1935 C 188.377 -3.0588 -2.99369 0
M  V30 1936 C 187.703 -3.04625 -4.3944 0
M  V30 1937 C 189.003 -4.45644 -2.72394 0
M  V30 1938 H 190.697 -2.68855 -1.31748 0
M  V30 1939 H 188.243 -1.29372 -0.632362 0
M  V30 1940 H 190.196 -2.0651 -3.6733 0
M  V30 1941 H 188.92 -0.95004 -3.12477 0
M  V30 1942 H 187.579 -2.89467 -2.24954 0
M  V30 1943 H 187.227 -2.0701 -4.58428 0
M  V30 1944 H 186.927 -3.82195 -4.46319 0
M  V30 1945 H 188.451 -3.22869 -5.18255 0
M  V30 1946 H 189.865 -4.62348 -3.38979 0
M  V30 1947 H 188.262 -5.25006 -2.9067 0
M  V30 1948 H 189.332 -4.54893 -1.67929 0
M  V30 1949 N 190.675 0.682077 -1.42076 0
M  V30 1950 C 191.952 1.43755 -1.32642 0
M  V30 1951 C 192.332 2.11063 0.0396611 0
M  V30 1952 O 191.68 2.02701 1.05474 0
M  V30 1953 C 191.89 2.44596 -2.48946 0
M  V30 1954 C 193.238 3.09454 -2.9073 0
M  V30 1955 O 194.262 2.54922 -2.48783 0
M  V30 1956 O 193.121 4.08253 -3.63307 0
M  V30 1957 H 190.215 0.640857 -0.522715 0
M  V30 1958 H 192.761 0.711415 -1.54068 0
M  V30 1959 H 191.533 1.93609 -3.40046 0
M  V30 1960 H 191.156 3.24701 -2.29467 0
M  V30 1961 N 192.153 1.28127 0.917671 0
M  V30 1962 C 193.569 1.05749 1.19538 0
M  V30 1963 C 193.769 -0.202633 2.00479 0
M  V30 1964 O 192.825 -0.905382 2.3571 0
M  V30 1965 C 194.138 2.30273 1.93378 0
M  V30 1966 C 195.686 2.35412 2.06277 0
M  V30 1967 C 196.161 3.59692 2.83524 0
M  V30 1968 N 197.652 3.60309 2.91087 0
M  V30 1969 C 198.387 4.53147 3.51348 0
M  V30 1970 N 197.883 5.563 4.12919 0
M  V30 1971 N 199.676 4.40751 3.48849 0
M  V30 1972 H 191.827 2.09024 0.377184 0
M  V30 1973 H 194.09 0.919798 0.22951 0
M  V30 1974 H 193.796 3.22055 1.41328 0
M  V30 1975 H 193.67 2.36378 2.93947 0
M  V30 1976 H 196.057 1.4413 2.57508 0
M  V30 1977 H 196.138 2.33304 1.04895 0
M  V30 1978 H 195.782 4.51316 2.32973 0
M  V30 1979 H 195.712 3.59054 3.85211 0
M  V30 1980 H 198.203 2.85714 2.47338 0
M  V30 1981 H 198.516 6.2329 4.56869 0
M  V30 1982 H 196.861 5.60131 4.11435 0
M  V30 1983 H 200.052 3.59367 2.99955 0
M  V30 1984 H 200.225 5.13291 3.9552 0
M  V30 1985 N 193.631 -1.12557 1.10312 0
M  V30 1986 C 194.861 -1.87592 0.865617 0
M  V30 1987 C 195.269 -1.79851 -0.587389 0
M  V30 1988 O 194.612 -1.16949 -1.41664 0
M  V30 1989 C 194.674 -3.37665 1.23381 0
M  V30 1990 C 194.338 -3.69181 2.69359 0
M  V30 1991 C 195.335 -3.67652 3.67597 0
M  V30 1992 C 193.02 -3.98555 3.05711 0
M  V30 1993 C 195.014 -3.95053 5.00212 0
M  V30 1994 C 192.701 -4.25616 4.38514 0
M  V30 1995 C 193.699 -4.23851 5.35574 0
M  V30 1996 O 193.387 -4.50242 6.65986 0
M  V30 1997 H 193.119 -0.600442 0.310557 0
M  V30 1998 H 195.673 -1.4335 1.47105 0
M  V30 1999 H 193.903 -3.82454 0.571467 0
M  V30 2000 H 195.592 -3.94041 0.973994 0
M  V30 2001 H 196.358 -3.45024 3.40857 0
M  V30 2002 H 192.237 -3.99071 2.30789 0
M  V30 2003 H 195.781 -3.93591 5.75962 0
M  V30 2004 H 191.678 -4.47718 4.64994 0
M  V30 2005 H 192.446 -4.67867 6.71597 0
M  V30 2006 N 195.109 -0.891671 -1.2995 0
M  V30 2007 C 196.355 -0.523649 -1.96544 0
M  V30 2008 C 196.71 0.918394 -1.69066 0
M  V30 2009 O 196.003 1.64122 -0.988659 0
M  V30 2010 C 196.197 -0.742868 -3.49594 0
M  V30 2011 C 196.026 -2.20467 -3.9195 0
M  V30 2012 C 194.796 -2.85055 -4.17219 0
M  V30 2013 C 196.994 -3.17912 -4.04273 0
M  V30 2014 N 194.976 -4.21762 -4.46083 0
M  V30 2015 C 196.347 -4.39712 -4.37097 0
M  V30 2016 C 198.402 -3.1361 -3.86721 0
M  V30 2017 C 197.105 -5.5776 -4.54199 0
M  V30 2018 C 199.131 -4.30936 -4.05028 0
M  V30 2019 C 198.493 -5.51504 -4.38204 0
M  V30 2020 H 194.592 -0.241072 -0.743914 0
M  V30 2021 H 197.176 -1.15081 -1.5705 0
M  V30 2022 H 195.347 -0.14515 -3.88129 0
M  V30 2023 H 197.079 -0.341081 -4.0326 0
M  V30 2024 H 193.834 -2.35889 -4.10674 0
M  V30 2025 H 194.258 -4.92382 -4.64638 0
M  V30 2026 H 198.9 -2.21489 -3.60142 0
M  V30 2027 H 196.618 -6.50379 -4.79618 0
M  V30 2028 H 200.204 -4.29085 -3.92909 0
M  V30 2029 H 199.084 -6.40778 -4.52077 0
M  V30 2030 N 196.587 1.43421 -0.653314 0
M  V30 2031 C 197.812 2.06678 -0.172846 0
M  V30 2032 C 198.237 1.48648 1.15262 0
M  V30 2033 O 197.595 0.596457 1.71208 0
M  V30 2034 C 197.643 3.60474 -0.0953184 0
M  V30 2035 O 196.747 4.01487 0.942442 0
M  V30 2036 H 196.088 0.657181 -0.0949155 0
M  V30 2037 H 198.618 1.83925 -0.896265 0
M  V30 2038 H 198.628 4.07905 0.0879728 0
M  V30 2039 H 197.303 4.02088 -1.06291 0
M  V30 2040 H 195.88 3.65646 0.731932 0
M  V30 2041 N 198.065 0.39524 1.52563 0
M  V30 2042 C 199.314 -0.186321 2.00838 0
M  V30 2043 C 199.627 -1.47402 1.28577 0
M  V30 2044 O 200.833 -2.13599 1.67593 0
M  V30 2045 C 199.289 -0.382595 3.57861 0
M  V30 2046 C 198.897 0.892202 4.39026 0
M  V30 2047 C 200.641 -0.9202 4.14406 0
M  V30 2048 C 198.548 0.66388 5.87662 0
M  V30 2049 H 197.478 -0.0734041 0.750418 0
M  V30 2050 H 200.129 0.518552 1.76021 0
M  V30 2051 H 198.511 -1.14946 3.7895 0
M  V30 2052 H 199.685 1.66414 4.29701 0
M  V30 2053 H 198 1.35519 3.9373 0
M  V30 2054 H 200.597 -1.10683 5.23119 0
M  V30 2055 H 200.94 -1.89096 3.70875 0
M  V30 2056 H 201.473 -0.212751 3.97231 0
M  V30 2057 H 198.212 1.6058 6.35527 0
M  V30 2058 H 197.732 -0.0690193 5.9976 0
M  V30 2059 H 199.411 0.300699 6.46301 0
M  V30 2060 N 199.544 -1.57102 0.125237 0
M  V30 2061 C 200.772 -1.99761 -0.538797 0
M  V30 2062 C 201.187 -1.00503 -1.59827 0
M  V30 2063 O 200.544 0.00119474 -1.825 0
M  V30 2064 C 200.595 -3.42408 -1.15927 0
M  V30 2065 O 200.316 -4.37869 -0.142143 0
M  V30 2066 C 201.817 -4.00232 -1.90602 0
M  V30 2067 H 199.037 -0.655772 -0.14214 0
M  V30 2068 H 201.581 -2.03383 0.213413 0
M  V30 2069 H 199.736 -3.39706 -1.86223 0
M  V30 2070 H 200.15 -5.21128 -0.593775 0
M  V30 2071 H 201.624 -5.02105 -2.29335 0
M  V30 2072 H 202.101 -3.39721 -2.78363 0
M  V30 2073 H 202.707 -4.06499 -1.25055 0
M  V30 2074 N 201.022 0.148545 -1.56898 0
M  V30 2075 C 201.954 1.20852 -1.9475 0
M  V30 2076 C 202.967 1.39265 -0.843152 0
M  V30 2077 O 204.156 1.38864 -1.12156 0
M  V30 2078 C 201.256 2.57362 -2.20495 0
M  V30 2079 C 200.429 2.59947 -3.51776 0
M  V30 2080 C 199.488 3.77984 -3.6608 0
M  V30 2081 O 198.514 3.62929 -4.38487 0
M  V30 2082 N 199.716 4.95375 -3.02629 0
M  V30 2083 H 202.481 0.886804 -2.86279 0
M  V30 2084 H 200.042 0.338121 -1.5833 0
M  V30 2085 H 202.034 3.34833 -2.27307 0
M  V30 2086 H 200.604 2.81832 -1.35238 0
M  V30 2087 H 199.824 1.68403 -3.56419 0
M  V30 2088 H 201.112 2.58704 -4.38121 0
M  V30 2089 H 200.51 5.10509 -2.43715 0
M  V30 2090 H 199.067 5.70627 -3.15004 0
M  V30 2091 N 202.5 1.5196 0.417844 0
M  V30 2092 C 203.463 1.74065 1.49111 0
M  V30 2093 C 204.463 0.610537 1.48758 0
M  V30 2094 O 205.653 0.87832 1.50437 0
M  V30 2095 C 202.785 1.81502 2.88565 0
M  V30 2096 H 203.978 2.69869 1.30807 0
M  V30 2097 H 201.531 1.42244 0.647785 0
M  V30 2098 H 202.266 0.875813 3.1225 0
M  V30 2099 H 202.051 2.63651 2.90225 0
M  V30 2100 H 203.541 2.00376 3.66387 0
M  V30 2101 N 203.978 -0.674533 1.42435 0
M  V30 2102 C 205.227 -1.43034 1.42212 0
M  V30 2103 C 205.54 -1.95555 0.0420788 0
M  V30 2104 O 206.746 -2.71374 -0.0827558 0
M  V30 2105 C 205.202 -2.58748 2.50155 0
M  V30 2106 C 204.81 -2.12925 3.94166 0
M  V30 2107 C 206.554 -3.36257 2.59098 0
M  V30 2108 C 204.461 -3.25723 4.93618 0
M  V30 2109 H 203.391 -0.537345 0.528939 0
M  V30 2110 H 206.042 -0.73024 1.68344 0
M  V30 2111 H 204.424 -3.31128 2.17188 0
M  V30 2112 H 205.598 -1.47697 4.36488 0
M  V30 2113 H 203.913 -1.48354 3.89076 0
M  V30 2114 H 206.51 -4.20264 3.30578 0
M  V30 2115 H 206.853 -3.82866 1.63461 0
M  V30 2116 H 207.386 -2.70947 2.9126 0
M  V30 2117 H 204.125 -2.84105 5.90732 0
M  V30 2118 H 203.645 -3.89732 4.55926 0
M  V30 2119 H 205.324 -3.91186 5.15347 0
M  V30 2120 N 205.456 -1.28612 -0.910864 0
M  V30 2121 C 206.366 -1.14643 -2.0468 0
M  V30 2122 C 207.382 -0.0723121 -1.7385 0
M  V30 2123 O 208.558 -0.282178 -1.99413 0
M  V30 2124 C 205.623 -0.812561 -3.37044 0
M  V30 2125 C 204.684 -1.96935 -3.81465 0
M  V30 2126 C 203.917 -1.65131 -5.07511 0
M  V30 2127 O 204.14 -0.567013 -5.67575 0
M  V30 2128 O 203.074 -2.49585 -5.47714 0
M  V30 2129 H 206.9 -2.1001 -2.19384 0
M  V30 2130 H 204.485 -1.07958 -1.03274 0
M  V30 2131 H 206.367 -0.640441 -4.16505 0
M  V30 2132 H 205.042 0.111426 -3.23508 0
M  V30 2133 H 203.949 -2.19664 -3.02818 0
M  V30 2134 H 205.282 -2.87414 -3.99567 0
M  V30 2135 N 206.934 1.1197 -1.10907 0
M  V30 2136 C 208.164 1.8713 -0.875553 0
M  V30 2137 C 208.572 1.8016 0.577843 0
M  V30 2138 O 207.915 1.17699 1.41042 0
M  V30 2139 C 207.977 3.37005 -1.2517 0
M  V30 2140 C 207.641 3.67748 -2.71313 0
M  V30 2141 C 208.638 3.65698 -3.69542 0
M  V30 2142 C 206.323 3.96928 -3.07821 0
M  V30 2143 C 208.317 3.92395 -5.023 0
M  V30 2144 C 206.004 4.23284 -4.40765 0
M  V30 2145 C 207.002 4.21005 -5.37814 0
M  V30 2146 O 206.69 4.46704 -6.68364 0
M  V30 2147 H 206.422 0.598786 -0.313737 0
M  V30 2148 H 208.976 1.42568 -1.47863 0
M  V30 2149 H 207.206 3.82146 -0.591741 0
M  V30 2150 H 208.895 3.93519 -0.994877 0
M  V30 2151 H 209.661 3.43211 -3.42682 0
M  V30 2152 H 205.54 3.97841 -2.32902 0
M  V30 2153 H 209.084 3.90531 -5.78041 0
M  V30 2154 H 204.981 4.45246 -4.67361 0
M  V30 2155 H 205.749 4.64299 -6.74069 0
M  V30 2156 N 208.412 0.89855 1.29475 0
M  V30 2157 C 209.36 0.365253 2.29714 0
M  V30 2158 C 210.354 -0.534993 1.6073 0
M  V30 2159 O 211.56 -0.417921 1.75081 0
M  V30 2160 H 207.935 0.0994853 0.74539 0
M  V30 2161 H 209.906 1.22406 2.72138 0
M  V30 2162 C 208.655 -0.393159 3.4547 0
M  V30 2163 H 207.978 0.290332 3.98744 0
M  V30 2164 H 209.418 -0.731189 4.17648 0
M  V30 2165 C 207.877 -1.59539 2.9673 0
M  V30 2166 O 208.407 -2.69469 2.97908 0
M  V30 2167 N 206.613 -1.43716 2.52575 0
M  V30 2168 H 206.16 -0.542828 2.51816 0
M  V30 2169 H 206.118 -2.24288 2.20323 0
M  V30 2170 N 209.89 -1.43072 0.660911 0
M  V30 2171 C 210.82 -2.33497 -0.0122829 0
M  V30 2172 C 211.801 -1.49903 -0.803925 0
M  V30 2173 O 212.986 -1.78546 -0.763864 0
M  V30 2174 C 210.116 -3.33363 -0.973994 0
M  V30 2175 C 209.07 -4.27003 -0.291928 0
M  V30 2176 C 208.396 -5.16967 -1.36562 0
M  V30 2177 C 209.696 -5.15816 0.820462 0
M  V30 2178 H 211.39 -2.90038 0.742873 0
M  V30 2179 H 208.936 -1.39461 0.358688 0
M  V30 2180 H 210.889 -3.95524 -1.45392 0
M  V30 2181 H 209.613 -2.75095 -1.7604 0
M  V30 2182 H 208.272 -3.66217 0.167623 0
M  V30 2183 H 207.92 -4.55034 -2.14366 0
M  V30 2184 H 207.62 -5.80441 -0.914454 0
M  V30 2185 H 209.144 -5.82003 -1.84675 0
M  V30 2186 H 210.558 -5.71742 0.422366 0
M  V30 2187 H 208.955 -5.8805 1.19656 0
M  V30 2188 H 210.025 -4.55045 1.67518 0
M  V30 2189 N 211.368 -0.403325 -1.52352 0
M  V30 2190 C 212.315 0.425011 -2.26853 0
M  V30 2191 C 213.285 1.04598 -1.29029 0
M  V30 2192 O 214.47 1.07135 -1.57882 0
M  V30 2193 C 211.61 1.53888 -3.08889 0
M  V30 2194 C 210.723 0.939396 -4.21663 0
M  V30 2195 C 209.858 2.02547 -4.91068 0
M  V30 2196 C 208.897 1.40263 -5.95813 0
M  V30 2197 N 208.034 2.4286 -6.58759 0
M  V30 2198 H 212.874 -0.21674 -2.97211 0
M  V30 2199 H 210.411 -0.118722 -1.4662 0
M  V30 2200 H 212.369 2.19558 -3.54753 0
M  V30 2201 H 210.999 2.15074 -2.40714 0
M  V30 2202 H 210.051 0.171898 -3.80011 0
M  V30 2203 H 211.363 0.44436 -4.96817 0
M  V30 2204 H 210.517 2.75958 -5.40308 0
M  V30 2205 H 209.256 2.55415 -4.15469 0
M  V30 2206 H 208.261 0.653833 -5.45898 0
M  V30 2207 H 209.486 0.881719 -6.73352 0
M  V30 2208 H 207.432 2.94871 -5.85992 0
M  V30 2209 H 207.349 1.98152 -7.2957 0
M  V30 2210 H 208.617 3.15858 -7.12639 0
M  V30 2211 N 212.846 1.57033 -0.133567 0
M  V30 2212 C 214.262 1.58035 0.222944 0
M  V30 2213 C 214.462 1.14713 1.6566 0
M  V30 2214 O 213.518 0.841218 2.38075 0
M  V30 2215 C 214.831 3.00691 -0.0236116 0
M  V30 2216 C 216.379 3.12973 0.0411512 0
M  V30 2217 C 216.854 4.57654 -0.177899 0
M  V30 2218 N 218.345 4.63033 -0.124365 0
M  V30 2219 C 219.08 5.72771 -0.268553 0
M  V30 2220 N 218.576 6.91206 -0.46972 0
M  V30 2221 N 220.369 5.61718 -0.2071 0
M  V30 2222 H 212.52 1.8349 -1.06981 0
M  V30 2223 H 214.783 0.848677 -0.422436 0
M  V30 2224 H 214.489 3.36726 -1.0153 0
M  V30 2225 H 214.363 3.70614 0.701808 0
M  V30 2226 H 216.75 2.76787 1.02338 0
M  V30 2227 H 216.831 2.45564 -0.716383 0
M  V30 2228 H 216.475 4.94542 -1.15717 0
M  V30 2229 H 216.405 5.23173 0.599797 0
M  V30 2230 H 218.896 3.7789 0.027011 0
M  V30 2231 H 219.209 7.70693 -0.570212 0
M  V30 2232 H 217.554 6.93156 -0.505876 0
M  V30 2233 H 220.745 4.68072 -0.0507986 0
M  V30 2234 H 220.918 6.47195 -0.322909 0
M  V30 2235 N 214.325 -0.140222 1.56975 0
M  V30 2236 C 215.553 -0.866437 1.87884 0
M  V30 2237 C 215.968 -1.74428 0.722517 0
M  V30 2238 O 215.325 -1.79891 -0.30749 0
M  V30 2239 C 215.376 -1.71753 3.18093 0
M  V30 2240 O 215.097 -0.875056 4.29272 0
M  V30 2241 C 216.598 -2.55074 3.62563 0
M  V30 2242 H 213.818 -0.25019 0.622612 0
M  V30 2243 H 216.362 -0.130977 2.0408 0
M  V30 2244 H 214.517 -2.40598 3.03631 0
M  V30 2245 H 214.931 -1.46002 5.03769 0
M  V30 2246 H 216.405 -3.10356 4.5649 0
M  V30 2247 H 216.882 -3.31434 2.88181 0
M  V30 2248 H 217.488 -1.91509 3.79743 0
M  V30 2249 N 215.803 -1.52179 -0.40978 0
M  V30 2250 C 217.214 -1.58377 -0.988615 0
M  V30 2251 C 217.565 -0.423879 -1.91566 0
M  V30 2252 O 216.69 0.455844 -2.11544 0
M  V30 2253 C 217.285 -2.87044 -1.79976 0
M  V30 2254 C 215.844 -2.95722 -2.32863 0
M  V30 2255 C 214.991 -2.53309 -1.12828 0
M  V30 2256 H 217.942 -1.57558 -0.190039 0
M  V30 2257 H 217.963 -2.7236 -2.65707 0
M  V30 2258 H 217.475 -3.71444 -1.12478 0
M  V30 2259 H 215.576 -2.15814 -3.03735 0
M  V30 2260 H 215.689 -3.99951 -2.63773 0
M  V30 2261 H 214.053 -2.07142 -1.48204 0
M  V30 2262 H 214.836 -3.40082 -0.46897 0
M  V30 2263 N 217.281 0.66697 -1.42791 0
M  V30 2264 C 218.697 0.981027 -1.25889 0
M  V30 2265 C 218.897 2.00793 -0.168695 0
M  V30 2266 O 217.953 2.48321 0.45747 0
M  V30 2267 C 219.266 1.47838 -2.61848 0
M  V30 2268 C 220.814 1.59575 -2.69267 0
M  V30 2269 C 221.289 2.12704 -4.05612 0
M  V30 2270 N 222.78 2.20026 -4.07606 0
M  V30 2271 C 223.515 2.62227 -5.09926 0
M  V30 2272 N 223.011 3.03824 -6.22626 0
M  V30 2273 N 224.804 2.62045 -4.97281 0
M  V30 2274 H 216.955 -0.0127891 -2.12396 0
M  V30 2275 H 219.218 0.0568258 -0.946295 0
M  V30 2276 H 218.924 0.798299 -3.4252 0
M  V30 2277 H 218.798 2.45579 -2.86305 0
M  V30 2278 H 221.185 2.26687 -1.88936 0
M  V30 2279 H 221.266 0.60302 -2.48591 0
M  V30 2280 H 220.91 1.46198 -4.86404 0
M  V30 2281 H 220.84 3.12782 -4.23645 0
M  V30 2282 H 223.331 1.90708 -3.2625 0
M  V30 2283 H 223.644 3.34734 -6.96544 0
M  V30 2284 H 221.989 3.01662 -6.26119 0
M  V30 2285 H 225.18 2.28916 -4.08308 0
M  V30 2286 H 225.353 2.94613 -5.77154 0
M  V30 2287 N 218.759 1.29093 0.90403 0
M  V30 2288 C 220.175 1.07011 1.1841 0
M  V30 2289 C 220.375 -0.181358 2.00682 0
M  V30 2290 O 219.431 -0.880331 2.36657 0
M  V30 2291 C 220.744 2.32311 1.90924 0
M  V30 2292 C 222.292 2.37587 2.03768 0
M  V30 2293 C 222.767 3.62679 2.79693 0
M  V30 2294 N 224.258 3.63376 2.87249 0
M  V30 2295 C 224.993 4.56848 3.46522 0
M  V30 2296 N 224.489 5.60648 4.06996 0
M  V30 2297 N 226.282 4.44426 3.44154 0
M  V30 2298 H 218.433 2.09412 0.354993 0
M  V30 2299 H 220.696 0.922181 0.219742 0
M  V30 2300 H 220.402 3.23536 1.37905 0
M  V30 2301 H 220.276 2.39483 2.91424 0
M  V30 2302 H 222.663 1.46853 2.55965 0
M  V30 2303 H 222.744 2.34403 1.02415 0
M  V30 2304 H 222.388 4.53762 2.28173 0
M  V30 2305 H 222.318 3.63119 3.81381 0
M  V30 2306 H 224.809 2.88321 2.44293 0
M  V30 2307 H 225.122 6.28101 4.50232 0
M  V30 2308 H 223.467 5.64463 4.05471 0
M  V30 2309 H 226.658 3.62529 2.96126 0
M  V30 2310 H 226.831 5.17457 3.90054 0
M  V30 2311 N 220.237 -1.11381 1.11499 0
M  V30 2312 C 221.486 -1.82494 0.858993 0
M  V30 2313 C 221.799 -1.85605 -0.617278 0
M  V30 2314 O 223.005 -2.52824 -0.989552 0
M  V30 2315 C 221.461 -3.27745 1.48699 0
M  V30 2316 C 221.069 -3.32961 2.99735 0
M  V30 2317 C 222.813 -4.03754 1.31085 0
M  V30 2318 C 220.72 -4.72612 3.55516 0
M  V30 2319 H 219.65 -0.683802 0.317696 0
M  V30 2320 H 222.301 -1.25331 1.34031 0
M  V30 2321 H 220.683 -3.84844 0.933339 0
M  V30 2322 H 221.857 -2.85741 3.61509 0
M  V30 2323 H 220.172 -2.70433 3.16631 0
M  V30 2324 H 222.769 -5.06891 1.70192 0
M  V30 2325 H 223.112 -4.15527 0.253496 0
M  V30 2326 H 223.645 -3.53043 1.83318 0
M  V30 2327 H 220.384 -4.66036 4.60967 0
M  V30 2328 H 219.904 -5.2024 2.98513 0
M  V30 2329 H 221.583 -5.4157 3.53992 0
M  V30 2330 N 221.715 -0.905404 -1.28997 0
M  V30 2331 C 222.662 -0.385892 -2.27551 0
M  V30 2332 C 223.632 0.535113 -1.57244 0
M  V30 2333 O 224.817 0.459119 -1.85194 0
M  V30 2334 C 221.957 0.375461 -3.43051 0
M  V30 2335 C 221.07 -0.577092 -4.28128 0
M  V30 2336 C 220.205 0.201879 -5.30816 0
M  V30 2337 C 219.244 -0.744829 -6.07551 0
M  V30 2338 N 218.381 9.42587e-05 -7.021 0
M  V30 2339 H 223.221 -1.23139 -2.71368 0
M  V30 2340 H 220.758 -0.618542 -1.33463 0
M  V30 2341 H 222.716 0.832992 -4.088 0
M  V30 2342 H 221.346 1.18537 -3.00248 0
M  V30 2343 H 220.398 -1.15315 -3.62501 0
M  V30 2344 H 221.71 -1.30152 -4.8152 0
M  V30 2345 H 220.864 0.720351 -6.02408 0
M  V30 2346 H 219.603 0.959413 -4.7817 0
M  V30 2347 H 218.608 -1.27475 -5.34818 0
M  V30 2348 H 219.833 -1.50178 -6.62286 0
M  V30 2349 H 217.779 0.739791 -6.51815 0
M  V30 2350 H 217.696 -0.664321 -7.53076 0
M  V30 2351 H 218.964 0.498644 -7.77903 0
M  V30 2352 N 223.193 1.4272 -0.668489 0
M  V30 2353 C 224.156 2.292 0.00448567 0
M  V30 2354 C 225.156 1.43001 0.735339 0
M  V30 2355 O 226.346 1.64461 0.57429 0
M  V30 2356 C 223.478 3.25375 1.01705 0
M  V30 2357 H 224.671 2.90199 -0.756608 0
M  V30 2358 H 222.224 1.50254 -0.430506 0
M  V30 2359 H 222.959 2.69301 1.80686 0
M  V30 2360 H 222.744 3.88944 0.496463 0
M  V30 2361 H 224.234 3.90245 1.48655 0
M  V30 2362 N 224.671 0.411399 1.52136 0
M  V30 2363 C 225.92 -0.165009 2.01024 0
M  V30 2364 C 226.233 -1.4603 1.30133 0
M  V30 2365 O 227.439 -2.1181 1.69849 0
M  V30 2366 C 225.895 -0.344618 3.58246 0
M  V30 2367 C 225.503 0.938716 4.38055 0
M  V30 2368 C 227.247 -0.876195 4.15359 0
M  V30 2369 C 225.154 0.726172 5.86925 0
M  V30 2370 H 224.084 -0.0654407 0.751155 0
M  V30 2371 H 226.735 0.537192 1.75461 0
M  V30 2372 H 225.117 -1.10921 3.80148 0
M  V30 2373 H 226.291 1.70963 4.27912 0
M  V30 2374 H 224.606 1.39688 3.92271 0
M  V30 2375 H 227.203 -1.05128 5.24263 0
M  V30 2376 H 227.546 -1.85152 3.7286 0
M  V30 2377 H 228.079 -0.170607 3.97434 0
M  V30 2378 H 224.818 1.67312 6.33788 0
M  V30 2379 H 224.338 -0.00540283 5.998 0
M  V30 2380 H 226.017 0.369231 6.45946 0
M  V30 2381 N 226.149 -1.5696 0.141893 0
M  V30 2382 C 227.398 -1.95135 -0.510427 0
M  V30 2383 C 227.711 -1.02896 -1.66348 0
M  V30 2384 O 228.917 -1.30629 -2.38009 0
M  V30 2385 C 227.373 -3.46876 -0.959427 0
M  V30 2386 C 226.981 -4.47691 0.166419 0
M  V30 2387 C 228.725 -3.93927 -1.58183 0
M  V30 2388 C 226.632 -5.90636 -0.300565 0
M  V30 2389 H 225.562 -0.728494 -0.194454 0
M  V30 2390 H 228.213 -1.8211 0.22542 0
M  V30 2391 H 226.595 -3.55215 -1.75038 0
M  V30 2392 H 227.769 -4.51043 0.94325 0
M  V30 2393 H 226.084 -4.10527 0.696905 0
M  V30 2394 H 228.681 -4.98158 -1.94275 0
M  V30 2395 H 229.024 -3.3519 -2.46888 0
M  V30 2396 H 229.557 -3.88484 -0.855863 0
M  V30 2397 H 226.296 -6.5318 0.550989 0
M  V30 2398 H 225.816 -5.90655 -1.04338 0
M  V30 2399 H 227.495 -6.42588 -0.754265 0
M  V30 2400 N 227.627 0.131896 -1.57047 0
M  V30 2401 C 228.876 0.84044 -1.83356 0
M  V30 2402 C 229.189 1.81646 -0.725535 0
M  V30 2403 O 230.395 2.57025 -0.874659 0
M  V30 2404 C 228.851 1.54528 -3.25037 0
M  V30 2405 C 228.459 0.610902 -4.43815 0
M  V30 2406 C 230.203 2.23972 -3.60606 0
M  V30 2407 C 228.11 1.31823 -5.76521 0
M  V30 2408 H 227.04 0.317599 -0.683847 0
M  V30 2409 H 229.691 0.0931561 -1.83263 0
M  V30 2410 H 228.073 2.33873 -3.19561 0
M  V30 2411 H 229.247 -0.148407 -4.60561 0
M  V30 2412 H 227.562 0.0241016 -4.16393 0
M  V30 2413 H 230.159 2.77558 -4.57018 0
M  V30 2414 H 230.502 3.01173 -2.87403 0
M  V30 2415 H 231.035 1.51529 -3.6781 0
M  V30 2416 H 227.774 0.587771 -6.52859 0
M  V30 2417 H 227.294 2.04987 -5.63685 0
M  V30 2418 H 228.973 1.855 -6.19838 0
M  V30 2419 N 229.106 1.52395 0.401703 0
M  V30 2420 C 230.334 1.70676 1.16949 0
M  V30 2421 C 230.749 0.419503 1.8408 0
M  V30 2422 O 230.106 -0.605061 1.72178 0
M  V30 2423 C 230.157 2.84753 2.22706 0
M  V30 2424 O 229.878 4.08495 1.58314 0
M  V30 2425 C 231.379 3.14608 3.12309 0
M  V30 2426 H 228.599 0.571787 0.351142 0
M  V30 2427 H 231.143 1.98987 0.471652 0
M  V30 2428 H 229.298 2.58941 2.88147 0
M  V30 2429 H 229.712 4.72117 2.28485 0
M  V30 2430 H 231.186 3.97923 3.82572 0
M  V30 2431 H 231.663 2.28464 3.75101 0
M  V30 2432 H 232.269 3.42212 2.52529 0
M  V30 2433 N 230.584 -0.659388 1.43143 0
M  V30 2434 C 231.83 -1.42145 1.44647 0
M  V30 2435 C 232.163 -1.9408 0.0681907 0
M  V30 2436 O 231.438 -1.71899 -0.910007 0
M  V30 2437 C 231.721 -2.60735 2.48373 0
M  V30 2438 C 231.574 -2.14332 3.95451 0
M  V30 2439 C 232.893 -3.62951 2.48906 0
M  V30 2440 H 230.012 -0.51552 0.526696 0
M  V30 2441 H 232.654 -0.748069 1.74654 0
M  V30 2442 H 230.804 -3.18184 2.22916 0
M  V30 2443 H 232.476 -1.61932 4.31944 0
M  V30 2444 H 230.719 -1.4576 4.08578 0
M  V30 2445 H 231.39 -2.99583 4.63631 0
M  V30 2446 H 233.866 -3.1525 2.71582 0
M  V30 2447 H 232.742 -4.43487 3.23435 0
M  V30 2448 H 233.003 -4.15126 1.52061 0
M  V30 2449 N 232.062 -1.29571 -0.897171 0
M  V30 2450 C 233.308 -1.18873 -1.65048 0
M  V30 2451 C 233.663 0.256707 -1.9068 0
M  V30 2452 O 232.956 1.18202 -1.50794 0
M  V30 2453 C 233.15 -1.9382 -3.00281 0
M  V30 2454 C 232.979 -3.45503 -2.8785 0
M  V30 2455 C 231.749 -4.14856 -2.88483 0
M  V30 2456 C 233.947 -4.40956 -2.64693 0
M  V30 2457 N 231.929 -5.52886 -2.66815 0
M  V30 2458 C 233.3 -5.66464 -2.5203 0
M  V30 2459 C 235.355 -4.3069 -2.49821 0
M  V30 2460 C 234.058 -6.82871 -2.26008 0
M  V30 2461 C 236.084 -5.46852 -2.25182 0
M  V30 2462 C 235.446 -6.71333 -2.13286 0
M  V30 2463 H 231.545 -0.489998 -0.609447 0
M  V30 2464 H 234.129 -1.63431 -1.05822 0
M  V30 2465 H 232.3 -1.51671 -3.57562 0
M  V30 2466 H 234.032 -1.75366 -3.64731 0
M  V30 2467 H 230.787 -3.66579 -2.99861 0
M  V30 2468 H 231.211 -6.25487 -2.59027 0
M  V30 2469 H 235.853 -3.35141 -2.5776 0
M  V30 2470 H 233.571 -7.78473 -2.16806 0
M  V30 2471 H 237.157 -5.40809 -2.14515 0
M  V30 2472 H 236.037 -7.59701 -1.94485 0
M  V30 2473 N 233.54 1.10788 -1.12088 0
M  V30 2474 C 234.786 1.82942 -0.875226 0
M  V30 2475 C 235.119 1.84779 0.597538 0
M  V30 2476 O 234.394 1.30578 1.44152 0
M  V30 2477 C 234.677 3.29789 -1.44606 0
M  V30 2478 C 234.53 3.36307 -2.98693 0
M  V30 2479 C 235.849 4.26064 -1.10261 0
M  V30 2480 H 232.968 0.664195 -0.319397 0
M  V30 2481 H 235.61 1.29867 -1.38689 0
M  V30 2482 H 233.76 3.75118 -1.01089 0
M  V30 2483 H 235.432 2.99487 -3.50864 0
M  V30 2484 H 233.675 2.76318 -3.34411 0
M  V30 2485 H 234.346 4.39694 -3.33726 0
M  V30 2486 H 236.822 3.88951 -1.4784 0
M  V30 2487 H 235.698 5.27183 -1.52869 0
M  V30 2488 H 235.959 4.42098 -0.0142953 0
M  V30 2489 N 235.018 0.912232 1.28515 0
M  V30 2490 C 236.267 0.540504 1.94323 0
M  V30 2491 C 236.58 -0.920044 1.72611 0
M  V30 2492 O 237.786 -1.39986 2.32629 0
M  V30 2493 C 236.242 0.915803 3.48053 0
M  V30 2494 C 235.85 2.39598 3.78546 0
M  V30 2495 C 237.594 0.614588 4.20027 0
M  V30 2496 C 235.501 2.71148 5.25578 0
M  V30 2497 H 234.431 0.198418 0.727424 0
M  V30 2498 H 237.082 1.11094 1.46049 0
M  V30 2499 H 235.464 0.274168 3.9505 0
M  V30 2500 H 236.638 3.08422 3.42364 0
M  V30 2501 H 234.953 2.66749 3.1974 0
M  V30 2502 H 237.55 0.827002 5.28266 0
M  V30 2503 H 237.893 -0.447531 4.13887 0
M  V30 2504 H 238.426 1.21462 3.78803 0
M  V30 2505 H 235.165 3.76207 5.36794 0
M  V30 2506 H 234.685 2.0696 5.62963 0
M  V30 2507 H 236.364 2.58072 5.93302 0
M  V30 2508 N 236.496 -1.42363 0.676048 0
M  V30 2509 C 237.721 -2.06377 0.205705 0
M  V30 2510 C 238.146 -1.50463 -1.12883 0
M  V30 2511 O 237.504 -0.623619 -1.70237 0
M  V30 2512 C 237.552 -3.60277 0.152655 0
M  V30 2513 O 236.656 -4.02935 -0.87845 0
M  V30 2514 H 235.997 -0.655588 0.105359 0
M  V30 2515 H 238.527 -1.82475 0.925412 0
M  V30 2516 H 238.537 -4.07993 -0.0230675 0
M  V30 2517 H 237.212 -4.00346 1.12675 0
M  V30 2518 H 235.789 -3.66764 -0.673668 0
M  V30 2519 N 237.974 -0.419461 -1.51915 0
M  V30 2520 C 238.937 0.389116 -2.25873 0
M  V30 2521 C 239.937 0.964924 -1.28631 0
M  V30 2522 O 241.127 0.842179 -1.52489 0
M  V30 2523 C 238.259 1.54874 -3.03689 0
M  V30 2524 H 239.452 -0.258799 -2.98781 0
M  V30 2525 H 237.005 -0.172209 -1.55348 0
M  V30 2526 H 237.74 2.23323 -2.35154 0
M  V30 2527 H 237.525 1.14223 -3.75094 0
M  V30 2528 H 239.015 2.12046 -3.59759 0
M  V30 2529 N 239.452 1.56882 -0.150215 0
M  V30 2530 C 240.698 1.96518 0.500834 0
M  V30 2531 C 241.031 1.03527 1.64304 0
M  V30 2532 O 240.306 0.0782751 1.94342 0
M  V30 2533 C 240.589 3.45822 1.00395 0
M  V30 2534 C 240.442 4.49591 -0.136983 0
M  V30 2535 C 241.761 3.97704 1.88467 0
M  V30 2536 H 238.88 0.714535 0.18058 0
M  V30 2537 H 241.522 1.88577 -0.232091 0
M  V30 2538 H 239.672 3.5272 1.62851 0
M  V30 2539 H 241.344 4.5477 -0.77343 0
M  V30 2540 H 239.587 4.26441 -0.795652 0
M  V30 2541 H 240.258 5.51402 0.256815 0
M  V30 2542 H 242.734 3.93304 1.35834 0
M  V30 2543 H 241.61 5.0263 2.20578 0
M  V30 2544 H 241.871 3.40252 2.82279 0
M  V30 2545 N 240.93 -0.123565 1.57115 0
M  V30 2546 C 242.179 -0.830704 1.83799 0
M  V30 2547 C 242.492 -1.81259 0.735158 0
M  V30 2548 O 243.698 -2.56558 0.888278 0
M  V30 2549 C 242.154 -1.52802 3.25852 0
M  V30 2550 C 241.762 -0.587356 4.44133 0
M  V30 2551 C 243.506 -2.22056 3.61789 0
M  V30 2552 C 241.413 -1.28764 5.77212 0
M  V30 2553 H 240.343 -0.313967 0.685522 0
M  V30 2554 H 242.994 -0.0834359 1.8331 0
M  V30 2555 H 241.376 -2.32175 3.20797 0
M  V30 2556 H 242.55 0.172829 4.60476 0
M  V30 2557 H 240.865 -0.00201892 4.164 0
M  V30 2558 H 243.462 -2.75131 4.58483 0
M  V30 2559 H 243.805 -2.99644 2.88997 0
M  V30 2560 H 244.338 -1.49576 3.68608 0
M  V30 2561 H 241.077 -0.55314 6.53162 0
M  V30 2562 H 240.597 -2.01995 5.64764 0
M  V30 2563 H 242.276 -1.8221 6.20813 0
M  V30 2564 N 242.408 -1.52605 -0.393616 0
M  V30 2565 C 243.633 -1.71592 -1.16495 0
M  V30 2566 C 244.058 -0.43133 -1.83088 0
M  V30 2567 O 243.416 0.612523 -1.7064 0
M  V30 2568 C 243.464 -2.86318 -2.19213 0
M  V30 2569 O 242.568 -2.52969 -3.257 0
M  V30 2570 H 241.909 -0.570734 -0.33935 0
M  V30 2571 H 244.439 -1.99377 -0.459324 0
M  V30 2572 H 244.449 -3.1168 -2.63286 0
M  V30 2573 H 243.124 -3.79511 -1.7013 0
M  V30 2574 H 241.701 -2.38332 -2.86797 0
M  V30 2575 N 243.887 0.651787 -1.4349 0
M  V30 2576 C 245.134 1.41167 -1.45183 0
M  V30 2577 C 245.462 1.94349 -0.0766601 0
M  V30 2578 O 244.717 1.72804 0.918555 0
M  V30 2579 C 245.016 2.60914 -2.44251 0
M  V30 2580 C 244.682 2.26142 -3.9009 0
M  V30 2581 C 243.344 2.16371 -4.2981 0
M  V30 2582 C 245.696 1.98334 -4.81989 0
M  V30 2583 C 243.024 1.7695 -5.5938 0
M  V30 2584 C 245.376 1.6041 -6.11924 0
M  V30 2585 C 244.04 1.49166 -6.5062 0
M  V30 2586 H 243.31 0.516566 -0.531263 0
M  V30 2587 H 245.957 0.741099 -1.76579 0
M  V30 2588 H 244.262 3.3311 -2.06265 0
M  V30 2589 H 245.959 3.19127 -2.42815 0
M  V30 2590 H 242.549 2.34658 -3.58655 0
M  V30 2591 H 246.733 2.04803 -4.52072 0
M  V30 2592 H 241.989 1.66831 -5.88198 0
M  V30 2593 H 246.163 1.37925 -6.82605 0
M  V30 2594 H 243.79 1.1839 -7.50925 0
M  V30 2595 N 245.365 1.30045 0.890287 0
M  V30 2596 C 246.776 1.16738 1.45702 0
M  V30 2597 C 247.127 -0.233939 1.948 0
M  V30 2598 O 246.252 -1.13021 1.84541 0
M  V30 2599 C 246.847 2.11313 2.64825 0
M  V30 2600 C 245.406 2.02001 3.17604 0
M  V30 2601 C 244.553 2.01699 1.90296 0
M  V30 2602 H 247.504 1.42392 0.700726 0
M  V30 2603 H 247.525 1.69086 3.40867 0
M  V30 2604 H 247.037 3.13294 2.2906 0
M  V30 2605 H 245.138 1.03142 3.5804 0
M  V30 2606 H 245.251 2.90128 3.81264 0
M  V30 2607 H 243.615 1.46427 2.08402 0
M  V30 2608 H 244.398 3.05402 1.56795 0
M  V30 2609 N 246.843 -1.10192 1.12674 0
M  V30 2610 C 248.254 -1.63707 0.897604 0
M  V30 2611 C 248.605 -1.87812 -0.567546 0
M  V30 2612 O 247.73 -1.62196 -1.43253 0
M  V30 2613 C 248.325 -2.974 1.62292 0
M  V30 2614 C 246.884 -3.47772 1.43986 0
M  V30 2615 C 246.031 -2.22332 1.65722 0
M  V30 2616 H 248.982 -0.936587 1.28116 0
M  V30 2617 H 249.003 -3.64986 1.07541 0
M  V30 2618 H 248.515 -2.79824 2.68924 0
M  V30 2619 H 246.616 -3.70487 0.396206 0
M  V30 2620 H 246.729 -4.25723 2.19765 0
M  V30 2621 H 245.093 -2.30599 1.08149 0
M  V30 2622 H 245.876 -2.07285 2.73657 0
M  V30 2623 N 248.321 -0.919034 -1.28029 0
M  V30 2624 C 249.251 -0.428581 -2.29533 0
M  V30 2625 C 250.232 0.50659 -1.62381 0
M  V30 2626 O 251.417 0.413195 -1.89753 0
M  V30 2627 C 248.547 0.327388 -3.45753 0
M  V30 2628 C 247.501 -0.519137 -4.2484 0
M  V30 2629 C 246.827 0.365486 -5.33449 0
M  V30 2630 C 248.127 -1.77914 -4.91064 0
M  V30 2631 H 249.821 -1.27687 -2.70807 0
M  V30 2632 H 247.367 -0.615428 -1.30186 0
M  V30 2633 H 249.32 0.681378 -4.15855 0
M  V30 2634 H 248.044 1.20963 -3.03374 0
M  V30 2635 H 246.703 -0.855717 -3.56473 0
M  V30 2636 H 246.351 1.24642 -4.87312 0
M  V30 2637 H 246.051 -0.197356 -5.87268 0
M  V30 2638 H 247.575 0.715241 -6.06396 0
M  V30 2639 H 248.989 -1.49374 -5.53498 0
M  V30 2640 H 247.386 -2.2848 -5.54903 0
M  V30 2641 H 248.456 -2.50382 -4.15255 0
M  V30 2642 N 249.799 1.42003 -0.683588 0
M  V30 2643 C 251.048 2.00638 -0.206681 0
M  V30 2644 C 251.361 1.5472 1.19671 0
M  V30 2645 O 252.567 2.05833 1.77045 0
M  V30 2646 C 251.023 3.58487 -0.318632 0
M  V30 2647 C 250.631 4.1339 -1.72663 0
M  V30 2648 C 252.375 4.24384 0.0991141 0
M  V30 2649 C 250.282 5.63633 -1.79087 0
M  V30 2650 H 249.212 0.750408 -0.0735107 0
M  V30 2651 H 251.863 1.62624 -0.850048 0
M  V30 2652 H 250.245 3.94047 0.392781 0
M  V30 2653 H 251.419 3.89273 -2.46583 0
M  V30 2654 H 249.734 3.59976 -2.09299 0
M  V30 2655 H 252.331 5.34652 0.0713833 0
M  V30 2656 H 252.674 4.00505 1.13586 0
M  V30 2657 H 253.207 3.93816 -0.561599 0
M  V30 2658 H 249.946 5.92323 -2.80774 0
M  V30 2659 H 249.466 5.89714 -1.09535 0
M  V30 2660 H 251.145 6.28201 -1.5483 0
M  V30 2661 N 251.277 0.427512 1.51691 0
M  V30 2662 C 252.502 -0.143601 2.06902 0
M  V30 2663 C 252.927 -1.36536 1.29382 0
M  V30 2664 O 252.285 -1.78289 0.329043 0
M  V30 2665 C 252.333 -0.454207 3.57728 0
M  V30 2666 O 251.437 -1.54228 3.82475 0
M  V30 2667 H 250.778 -0.00617128 0.663971 0
M  V30 2668 H 253.308 0.606014 1.95419 0
M  V30 2669 H 253.318 -0.707525 4.01818 0
M  V30 2670 H 251.993 0.438812 4.13579 0
M  V30 2671 H 250.57 -1.2797 3.50254 0
M  V30 2672 N 252.755 -1.56801 0.158532 0
M  V30 2673 C 254.004 -1.95665 -0.489702 0
M  V30 2674 C 254.317 -1.04654 -1.65248 0
M  V30 2675 O 255.523 -1.33146 -2.3661 0
M  V30 2676 C 253.979 -3.47874 -0.922582 0
M  V30 2677 C 253.587 -4.47489 0.213893 0
M  V30 2678 C 255.331 -3.95583 -1.53996 0
M  V30 2679 C 253.238 -5.90921 -0.237903 0
M  V30 2680 H 252.168 -0.730516 -0.186716 0
M  V30 2681 H 254.819 -1.81861 0.244722 0
M  V30 2682 H 253.201 -3.57051 -1.71261 0
M  V30 2683 H 254.375 -4.50017 0.991036 0
M  V30 2684 H 252.69 -4.09764 0.740407 0
M  V30 2685 H 255.287 -5.0019 -1.8898 0
M  V30 2686 H 255.63 -3.37789 -2.43319 0
M  V30 2687 H 256.163 -3.8937 -0.814611 0
M  V30 2688 H 252.902 -6.52559 0.620236 0
M  V30 2689 H 252.422 -5.91729 -0.980676 0
M  V30 2690 H 254.101 -6.43352 -0.686067 0
M  V30 2691 N 254.233 0.115231 -1.57178 0
M  V30 2692 C 255.143 1.15994 -2.03918 0
M  V30 2693 C 256.159 1.45103 -0.960268 0
M  V30 2694 O 257.335 1.56144 -1.27204 0
M  V30 2695 C 254.4 2.46568 -2.43732 0
M  V30 2696 C 253.461 2.24822 -3.65723 0
M  V30 2697 C 252.694 3.4917 -4.03629 0
M  V30 2698 O 252.917 4.56623 -3.41835 0
M  V30 2699 O 251.851 3.39949 -4.96708 0
M  V30 2700 H 255.677 0.793019 -2.93164 0
M  V30 2701 H 253.262 0.3263 -1.45793 0
M  V30 2702 H 255.144 3.23492 -2.70057 0
M  V30 2703 H 253.819 2.82726 -1.57631 0
M  V30 2704 H 252.726 1.45744 -3.44542 0
M  V30 2705 H 254.059 1.93566 -4.52541 0
M  V30 2706 N 255.711 1.52812 0.385517 0
M  V30 2707 C 256.658 1.77838 1.47113 0
M  V30 2708 C 257.628 0.621757 1.54024 0
M  V30 2709 O 258.813 0.861846 1.70226 0
M  V30 2710 C 255.953 1.95618 2.84302 0
M  V30 2711 C 255.066 3.23316 2.86515 0
M  V30 2712 C 254.201 3.31394 4.15152 0
M  V30 2713 C 253.24 4.53201 4.1143 0
M  V30 2714 N 252.377 4.58542 5.3168 0
M  V30 2715 H 257.217 2.70482 1.25073 0
M  V30 2716 H 254.754 1.34006 0.606692 0
M  V30 2717 H 256.712 2.03912 3.63972 0
M  V30 2718 H 255.342 1.06331 3.04784 0
M  V30 2719 H 254.394 3.24076 1.99195 0
M  V30 2720 H 255.706 4.13045 2.79634 0
M  V30 2721 H 254.86 3.3889 5.03228 0
M  V30 2722 H 253.599 2.39645 4.24761 0
M  V30 2723 H 252.604 4.45827 3.21742 0
M  V30 2724 H 253.829 5.46271 4.03442 0
M  V30 2725 H 251.775 3.69686 5.41912 0
M  V30 2726 H 251.692 5.42148 5.26889 0
M  V30 2727 H 252.96 4.70296 6.21644 0
M  V30 2728 N 257.189 -0.644168 1.43834 0
M  V30 2729 C 258.136 -1.75671 1.49694 0
M  V30 2730 C 259.106 -1.6246 0.345809 0
M  V30 2731 O 260.291 -1.82573 0.554234 0
M  V30 2732 C 257.431 -3.13867 1.43463 0
M  V30 2733 C 256.544 -3.38147 2.6885 0
M  V30 2734 C 255.679 -4.66241 2.54544 0
M  V30 2735 C 254.718 -4.83657 3.75157 0
M  V30 2736 N 253.855 -6.03016 3.59605 0
M  V30 2737 H 258.695 -1.69998 2.44754 0
M  V30 2738 H 256.232 -0.829458 1.21484 0
M  V30 2739 H 258.19 -3.9377 1.37843 0
M  V30 2740 H 256.82 -3.18588 0.519783 0
M  V30 2741 H 255.872 -2.52276 2.84712 0
M  V30 2742 H 257.184 -3.46899 3.58417 0
M  V30 2743 H 256.338 -5.54285 2.46683 0
M  V30 2744 H 255.077 -4.59826 1.62516 0
M  V30 2745 H 254.082 -3.94046 3.83416 0
M  V30 2746 H 255.307 -4.91896 4.68204 0
M  V30 2747 H 253.253 -5.97715 2.7032 0
M  V30 2748 H 253.17 -6.12766 4.42779 0
M  V30 2749 H 254.438 -6.93657 3.55613 0
M  V30 2750 N 258.668 -1.30515 -0.883378 0
M  V30 2751 C 259.916 -1.19194 -1.63209 0
M  V30 2752 C 260.237 0.253205 -1.93349 0
M  V30 2753 O 259.507 1.17025 -1.57105 0
M  V30 2754 H 258.087 -0.438148 -0.605009 0
M  V30 2755 H 260.749 -1.63663 -1.05832 0
M  V30 2756 H 259.845 -1.75396 -2.58153 0
M  V30 2757 N 260.146 1.09593 -1.13257 0
M  V30 2758 C 261.394 1.81375 -0.891492 0
M  V30 2759 C 261.715 1.86049 0.584009 0
M  V30 2760 O 260.985 1.34481 1.42449 0
M  V30 2761 H 259.565 0.671708 -0.326828 0
M  V30 2762 H 262.227 1.3256 -1.42877 0
M  V30 2763 H 261.323 2.84612 -1.28071 0
M  V30 2764 N 261.624 0.925811 1.2754 0
M  V30 2765 C 262.872 0.564138 1.94067 0
M  V30 2766 C 263.193 -0.897188 1.73134 0
M  V30 2767 O 262.463 -1.63573 1.07799 0
M  V30 2768 H 261.043 0.205645 0.718136 0
M  V30 2769 H 263.705 1.1778 1.55287 0
M  V30 2770 H 262.801 0.76881 3.02483 0
M  V30 2771 N 263.102 -1.41638 0.69111 0
M  V30 2772 C 264.35 -2.00902 0.219758 0
M  V30 2773 C 264.671 -1.54994 -1.18329 0
M  V30 2774 O 263.941 -0.778628 -1.79762 0
M  V30 2775 H 262.521 -0.74289 0.0782558 0
M  V30 2776 H 265.183 -1.73327 0.891271 0
M  V30 2777 H 264.279 -3.11224 0.233708 0
M  V30 2778 N 264.58 -0.43555 -1.51462 0
M  V30 2779 C 265.828 0.131254 -2.01673 0
M  V30 2780 C 266.149 1.43368 -1.32177 0
M  V30 2781 O 265.419 1.90524 -0.455769 0
M  V30 2782 H 263.999 0.0514954 -0.745223 0
M  V30 2783 H 266.661 -0.577847 -1.86137 0
M  V30 2784 H 265.757 0.308446 -3.10572 0
M  V30 2785 N 266.058 1.56714 -0.166846 0
M  V30 2786 C 267.469 1.83378 0.350646 0
M  V30 2787 C 267.82 1.08646 1.63372 0
M  V30 2788 O 266.945 0.338058 2.13743 0
M  V30 2789 C 267.54 3.32643 0.642963 0
M  V30 2790 C 266.099 3.59818 1.10491 0
M  V30 2791 C 265.246 2.76954 0.138411 0
M  V30 2792 H 268.197 1.53803 -0.391193 0
M  V30 2793 H 268.218 3.49878 1.49551 0
M  V30 2794 H 267.73 3.87007 -0.291055 0
M  V30 2795 H 265.831 3.1086 2.05418 0
M  V30 2796 H 265.944 4.68178 1.01716 0
M  V30 2797 H 264.308 2.4666 0.634911 0
M  V30 2798 H 265.091 3.34097 -0.789549 0
M  V30 2799 N 267.536 -0.106894 1.57237 0
M  V30 2800 C 268.468 -1.15646 1.97885 0
M  V30 2801 C 269.481 -1.36981 0.879779 0
M  V30 2802 O 270.67 -1.35841 1.15799 0
M  V30 2803 C 267.77 -2.51425 2.27241 0
M  V30 2804 C 266.943 -2.50529 3.58545 0
M  V30 2805 C 266.002 -3.68145 3.75973 0
M  V30 2806 O 265.028 -3.51176 4.47956 0
M  V30 2807 N 266.23 -4.87177 3.15656 0
M  V30 2808 H 268.995 -0.81059 2.8853 0
M  V30 2809 H 266.556 -0.296024 1.59171 0
M  V30 2810 H 268.548 -3.28689 2.36105 0
M  V30 2811 H 267.118 -2.78147 1.42663 0
M  V30 2812 H 266.338 -1.58894 3.60758 0
M  V30 2813 H 267.626 -2.46997 4.44826 0
M  V30 2814 H 267.024 -5.03868 2.57165 0
M  V30 2815 H 265.581 -5.62075 3.30023 0
M  V30 2816 N 269.014 -1.53014 -0.377408 0
M  V30 2817 C 270.425 -1.60438 -0.954798 0
M  V30 2818 C 270.776 -0.464418 -1.90624 0
M  V30 2819 O 269.901 0.41087 -2.12464 0
M  V30 2820 C 270.496 -2.90797 -1.73847 0
M  V30 2821 C 269.055 -3.00595 -2.26538 0
M  V30 2822 C 268.202 -2.55645 -1.07429 0
M  V30 2823 H 271.153 -1.57926 -0.156575 0
M  V30 2824 H 271.174 -2.77935 -2.5987 0
M  V30 2825 H 270.686 -3.73746 -1.04574 0
M  V30 2826 H 268.787 -2.22208 -2.99089 0
M  V30 2827 H 268.9 -4.05456 -2.5523 0
M  V30 2828 H 267.264 -2.10239 -1.43777 0
M  V30 2829 H 268.047 -3.41 -0.396728 0
M  V30 2830 N 270.492 0.636531 -1.44174 0
M  V30 2831 C 271.455 1.73063 -1.50273 0
M  V30 2832 C 272.455 1.56113 -0.385397 0
M  V30 2833 O 273.645 1.61707 -0.64781 0
M  V30 2834 C 270.777 3.12096 -1.37145 0
M  V30 2835 H 271.97 1.69031 -2.47727 0
M  V30 2836 H 269.523 0.849706 -1.31186 0
M  V30 2837 H 270.258 3.21728 -0.407636 0
M  V30 2838 H 270.043 3.25805 -2.18159 0
M  V30 2839 H 271.533 3.91846 -1.44382 0
M  V30 2840 N 271.97 1.30982 0.876444 0
M  V30 2841 C 272.88 1.2003 2.01569 0
M  V30 2842 C 273.896 0.11838 1.73597 0
M  V30 2843 O 275.072 0.33495 1.98595 0
M  V30 2844 C 272.137 0.901637 3.34771 0
M  V30 2845 C 271.198 2.06979 3.76109 0
M  V30 2846 C 270.431 1.78529 5.02954 0
M  V30 2847 O 270.654 0.717296 5.65872 0
M  V30 2848 O 269.588 2.64019 5.40905 0
M  V30 2849 H 273.414 2.15753 2.13739 0
M  V30 2850 H 270.999 1.10658 1.00375 0
M  V30 2851 H 272.881 0.750645 4.1466 0
M  V30 2852 H 271.556 -0.0256141 3.2369 0
M  V30 2853 H 270.463 2.27616 2.96887 0
M  V30 2854 H 271.796 2.97907 3.91807 0
M  V30 2855 N 273.449 -1.08991 1.13837 0
M  V30 2856 C 274.86 -1.62746 0.914917 0
M  V30 2857 C 275.211 -1.88403 -0.547594 0
M  V30 2858 O 274.336 -1.63706 -1.41525 0
M  V30 2859 C 274.931 -2.95662 1.65437 0
M  V30 2860 C 273.49 -3.46225 1.47666 0
M  V30 2861 C 272.637 -2.20562 1.6807 0
M  V30 2862 H 275.588 -0.922946 1.29102 0
M  V30 2863 H 275.609 -3.63825 1.11407 0
M  V30 2864 H 275.121 -2.76956 2.71877 0
M  V30 2865 H 273.222 -3.70046 0.435478 0
M  V30 2866 H 273.335 -4.23368 2.24268 0
M  V30 2867 H 271.699 -2.29439 1.10589 0
M  V30 2868 H 272.482 -2.0437 2.7584 0
M  V30 2869 N 274.927 -0.932562 -1.27047 0
M  V30 2870 C 276.343 -0.633544 -1.46487 0
M  V30 2871 C 276.543 0.815746 -1.84249 0
M  V30 2872 O 275.599 1.59319 -1.95892 0
M  V30 2873 C 276.912 -1.58758 -2.55375 0
M  V30 2874 C 278.46 -1.59634 -2.69232 0
M  V30 2875 C 278.935 -2.53747 -3.81283 0
M  V30 2876 N 280.426 -2.51982 -3.88664 0
M  V30 2877 C 281.161 -3.21491 -4.74796 0
M  V30 2878 N 280.657 -4.00395 -5.65381 0
M  V30 2879 N 282.45 -3.10485 -4.68568 0
M  V30 2880 H 274.601 -1.86946 -1.00821 0
M  V30 2881 H 276.864 -0.802897 -0.504044 0
M  V30 2882 H 276.57 -2.62172 -2.34432 0
M  V30 2883 H 276.444 -1.33301 -3.52861 0
M  V30 2884 H 278.831 -0.569488 -2.89553 0
M  V30 2885 H 278.912 -1.89142 -1.72218 0
M  V30 2886 H 278.556 -3.56545 -3.61715 0
M  V30 2887 H 278.486 -2.21532 -4.77735 0
M  V30 2888 H 280.977 -1.94681 -3.23895 0
M  V30 2889 H 281.29 -4.50406 -6.27976 0
M  V30 2890 H 279.635 -4.04498 -5.65161 0
M  V30 2891 H 282.826 -2.48331 -3.96799 0
M  V30 2892 H 282.999 -3.64925 -5.35475 0
M  V30 2893 N 276.405 1.4127 -0.698611 0
M  V30 2894 C 277.645 2.03044 -0.235062 0
M  V30 2895 C 278.009 1.54146 1.14468 0
M  V30 2896 O 279.21 2.07867 1.70425 0
M  V30 2897 C 277.481 3.56192 -0.293651 0
M  V30 2898 S 279.04 4.38696 0.0954053 0
M  V30 2899 H 275.858 0.704697 -0.0944648 0
M  V30 2900 H 278.46 1.72656 -0.917064 0
M  V30 2901 H 277.164 3.89274 -1.29977 0
M  V30 2902 H 276.695 3.91285 0.407397 0
M  V30 2903 H 278.71 4.78257 1.3223 0
M  V30 2904 N 277.883 0.443576 1.51229 0
M  V30 2905 C 278.793 -0.370721 2.31652 0
M  V30 2906 C 279.809 -1.02186 1.40833 0
M  V30 2907 O 280.985 -1.01586 1.73903 0
M  V30 2908 C 278.05 -1.45376 3.14749 0
M  V30 2909 C 277.111 -0.822099 4.21355 0
M  V30 2910 C 276.344 -1.85353 5.0048 0
M  V30 2911 O 276.567 -3.07656 4.80316 0
M  V30 2912 O 275.501 -1.4406 5.84406 0
M  V30 2913 H 279.327 0.286002 3.0235 0
M  V30 2914 H 276.912 0.20598 1.47973 0
M  V30 2915 H 278.794 -2.08173 3.66391 0
M  V30 2916 H 277.469 -2.09445 2.46809 0
M  V30 2917 H 276.376 -0.155909 3.73775 0
M  V30 2918 H 277.709 -0.224797 4.91686 0
M  V30 2919 N 279.361 -1.56624 0.175154 0
M  V30 2920 C 280.61 -1.96173 -0.468921 0
M  V30 2921 C 280.923 -1.06401 -1.64128 0
M  V30 2922 O 282.129 -1.35648 -2.35185 0
M  V30 2923 C 280.585 -3.48833 -0.885633 0
M  V30 2924 C 280.193 -4.47237 0.261343 0
M  V30 2925 C 281.937 -3.97194 -1.49791 0
M  V30 2926 C 279.844 -5.9114 -0.175214 0
M  V30 2927 H 278.774 -0.732455 -0.178958 0
M  V30 2928 H 281.425 -1.81591 0.263997 0
M  V30 2929 H 279.807 -3.58848 -1.67464 0
M  V30 2930 H 280.981 -4.4894 1.03871 0
M  V30 2931 H 279.296 -4.08956 0.783827 0
M  V30 2932 H 281.893 -5.02167 -1.83665 0
M  V30 2933 H 282.236 -3.40351 -2.39722 0
M  V30 2934 H 282.769 -3.90212 -0.773267 0
M  V30 2935 H 279.508 -6.51865 0.689414 0
M  V30 2936 H 279.028 -5.92735 -0.91786 0
M  V30 2937 H 280.707 -6.44044 -0.617792 0
M  V30 2938 N 280.839 0.0985539 -1.57292 0
M  V30 2939 C 281.787 1.1387 -2.02821 0
M  V30 2940 C 282.781 1.41676 -0.928666 0
M  V30 2941 O 283.987 1.41398 -1.11385 0
M  V30 2942 H 280.362 0.384419 -0.646317 0
M  V30 2943 H 282.333 0.728347 -2.89375 0
M  V30 2944 C 281.082 2.45166 -2.46554 0
M  V30 2945 H 280.405 2.24613 -3.3074 0
M  V30 2946 H 281.845 3.16456 -2.8219 0
M  V30 2947 C 280.304 3.09216 -1.33742 0
M  V30 2948 O 280.834 3.96163 -0.66464 0
M  V30 2949 N 279.04 2.69413 -1.08928 0
M  V30 2950 H 278.587 1.98801 -1.63817 0
M  V30 2951 H 278.545 3.12594 -0.336458 0
M  V30 2952 N 282.317 1.53212 0.369288 0
M  V30 2953 C 283.594 1.59815 1.12776 0
M  V30 2954 C 283.974 0.403402 2.0721 0
M  V30 2955 O 283.322 -0.606667 2.20299 0
M  V30 2956 C 283.532 2.94664 1.87013 0
M  V30 2957 C 284.88 3.49109 2.41677 0
M  V30 2958 O 285.904 2.96669 1.97144 0
M  V30 2959 O 284.763 4.40775 3.23079 0
M  V30 2960 H 281.857 0.645376 0.517125 0
M  V30 2961 H 284.403 1.65553 0.37285 0
M  V30 2962 H 283.175 3.73061 1.18071 0
M  V30 2963 H 282.798 2.92401 2.69421 0
M  V30 2964 N 283.795 -0.628877 1.44509 0
M  V30 2965 C 284.727 -1.754 1.47538 0
M  V30 2966 C 285.74 -1.58575 0.368506 0
M  V30 2967 O 286.929 -1.66847 0.634376 0
M  V30 2968 C 284.029 -3.1315 1.29577 0
M  V30 2969 C 283.202 -3.56413 2.53551 0
M  V30 2970 C 282.261 -4.7305 2.30457 0
M  V30 2971 O 281.287 -4.81247 3.03957 0
M  V30 2972 N 282.489 -5.64903 1.3366 0
M  V30 2973 H 285.254 -1.73272 2.44534 0
M  V30 2974 H 282.815 -0.813512 1.39977 0
M  V30 2975 H 284.807 -3.88902 1.11971 0
M  V30 2976 H 283.377 -3.09908 0.409371 0
M  V30 2977 H 282.597 -2.70847 2.86419 0
M  V30 2978 H 283.885 -3.82071 3.36005 0
M  V30 2979 H 283.283 -5.60975 0.729604 0
M  V30 2980 H 281.84 -6.40275 1.22032 0
M  V30 2981 N 285.273 -1.31445 -0.869486 0
M  V30 2982 C 286.22 -1.19135 -1.97675 0
M  V30 2983 C 287.19 -0.0770266 -1.65921 0
M  V30 2984 O 288.375 -0.249972 -1.89155 0
M  V30 2985 C 285.515 -0.905149 -3.33018 0
M  V30 2986 C 284.628 -2.10285 -3.77365 0
M  V30 2987 C 283.763 -1.75339 -5.01427 0
M  V30 2988 C 282.802 -2.91515 -5.38224 0
M  V30 2989 N 281.939 -2.56762 -6.53466 0
M  V30 2990 H 286.779 -2.13853 -2.07535 0
M  V30 2991 H 284.316 -1.06379 -1.01597 0
M  V30 2992 H 286.274 -0.719765 -4.10944 0
M  V30 2993 H 284.904 0.00519624 -3.228 0
M  V30 2994 H 283.956 -2.39899 -2.95216 0
M  V30 2995 H 285.268 -2.97237 -4.00564 0
M  V30 2996 H 284.422 -1.53266 -5.87022 0
M  V30 2997 H 283.161 -0.855801 -4.80133 0
M  V30 2998 H 282.166 -3.14237 -4.51149 0
M  V30 2999 H 283.391 -3.81985 -5.61484 0
M  V30 3000 H 281.337 -1.69526 -6.33717 0
M  V30 3001 H 281.254 -3.37243 -6.76612 0
M  V30 3002 H 282.522 -2.38083 -7.42251 0
M  V30 3003 N 286.751 1.08385 -1.14413 0
M  V30 3004 C 287.997 1.81212 -0.923793 0
M  V30 3005 C 288.352 1.84555 0.543814 0
M  V30 3006 O 287.645 1.31056 1.39767 0
M  V30 3007 C 287.839 3.26273 -1.45879 0
M  V30 3008 C 287.668 3.37063 -2.97689 0
M  V30 3009 C 286.438 3.4824 -3.66138 0
M  V30 3010 C 288.636 3.28698 -3.95553 0
M  V30 3011 N 286.618 3.47824 -5.05858 0
M  V30 3012 C 287.989 3.35276 -5.21527 0
M  V30 3013 C 290.044 3.12437 -3.8767 0
M  V30 3014 C 288.747 3.27267 -6.40538 0
M  V30 3015 C 290.773 3.05757 -5.06228 0
M  V30 3016 C 290.135 3.12938 -6.3107 0
M  V30 3017 H 286.234 0.6769 -0.391574 0
M  V30 3018 H 288.818 1.29455 -1.45429 0
M  V30 3019 H 286.989 3.76474 -0.95507 0
M  V30 3020 H 288.721 3.87165 -1.17835 0
M  V30 3021 H 285.476 3.52141 -3.16692 0
M  V30 3022 H 285.9 3.51171 -5.78798 0
M  V30 3023 H 290.542 3.05747 -2.92025 0
M  V30 3024 H 288.26 3.32718 -7.36427 0
M  V30 3025 H 291.846 2.94295 -5.01878 0
M  V30 3026 H 290.726 3.078 -7.21269 0
M  V30 3027 N 288.23 0.939286 1.26551 0
M  V30 3028 C 289.46 0.601663 1.97645 0
M  V30 3029 C 289.868 -0.827206 1.70159 0
M  V30 3030 O 289.211 -1.56291 0.965338 0
M  V30 3031 C 289.273 0.761725 3.51337 0
M  V30 3032 C 288.937 2.16487 4.0247 0
M  V30 3033 C 289.934 3.14016 4.14355 0
M  V30 3034 C 287.619 2.48494 4.36527 0
M  V30 3035 C 289.613 4.41654 4.59587 0
M  V30 3036 C 287.3 3.76364 4.81449 0
M  V30 3037 C 288.298 4.72758 4.92939 0
M  V30 3038 O 287.986 5.98352 5.36871 0
M  V30 3039 H 287.718 0.225758 0.637189 0
M  V30 3040 H 290.272 1.26178 1.62075 0
M  V30 3041 H 288.502 0.0444808 3.86674 0
M  V30 3042 H 290.191 0.427442 4.03643 0
M  V30 3043 H 290.957 2.90613 3.8829 0
M  V30 3044 H 286.836 1.74202 4.26819 0
M  V30 3045 H 290.38 5.16896 4.68471 0
M  V30 3046 H 286.277 3.99582 5.06956 0
M  V30 3047 H 287.045 6.01507 5.55096 0
M  V30 3048 N 289.708 -1.40897 0.706093 0
M  V30 3049 C 290.954 -2.01352 0.241889 0
M  V30 3050 C 291.287 -1.55832 -1.15888 0
M  V30 3051 O 290.562 -0.774145 -1.7843 0
M  V30 3052 C 290.845 -3.58752 0.311311 0
M  V30 3053 C 290.698 -4.1437 1.74978 0
M  V30 3054 C 292.017 -4.38914 -0.322922 0
M  V30 3055 H 289.136 -0.731562 0.0893687 0
M  V30 3056 H 291.778 -1.67504 0.896802 0
M  V30 3057 H 289.928 -3.87718 -0.246302 0
M  V30 3058 H 291.6 -3.96239 2.36205 0
M  V30 3059 H 289.843 -3.69016 2.28057 0
M  V30 3060 H 290.514 -5.23532 1.74981 0
M  V30 3061 H 292.99 -4.15822 0.152089 0
M  V30 3062 H 291.866 -5.48358 -0.243855 0
M  V30 3063 H 292.127 -4.19176 -1.40513 0
M  V30 3064 N 291.186 -0.45159 -1.50991 0
M  V30 3065 C 292.435 0.111653 -2.01391 0
M  V30 3066 C 292.748 1.42529 -1.33959 0
M  V30 3067 O 293.954 2.07232 -1.75405 0
M  V30 3068 C 292.41 0.249514 -3.59034 0
M  V30 3069 C 292.018 -1.05453 -4.35412 0
M  V30 3070 C 293.762 0.765762 -4.17536 0
M  V30 3071 C 291.669 -0.881529 -5.84793 0
M  V30 3072 H 290.599 0.0455022 -0.752626 0
M  V30 3073 H 293.25 -0.583524 -1.73975 0
M  V30 3074 H 291.632 1.00803 -3.82955 0
M  V30 3075 H 292.806 -1.82248 -4.23229 0
M  V30 3076 H 291.121 -1.50039 -3.88429 0
M  V30 3077 H 293.718 0.911913 -5.26866 0
M  V30 3078 H 294.061 1.75201 -3.77638 0
M  V30 3079 H 294.594 0.0651744 -3.97747 0
M  V30 3080 H 291.333 -1.84057 -6.29129 0
M  V30 3081 H 290.853 -0.153625 -5.99603 0
M  V30 3082 H 292.532 -0.540363 -6.4474 0
M  V30 3083 N 292.664 1.56529 -0.183458 0
M  V30 3084 C 293.889 2.02064 0.467428 0
M  V30 3085 C 294.314 1.06282 1.55196 0
M  V30 3086 O 293.672 0.0443565 1.81246 0
M  V30 3087 C 293.72 3.46122 1.01153 0
M  V30 3088 O 292.824 3.53437 2.12499 0
M  V30 3089 H 292.165 0.654726 0.110588 0
M  V30 3090 H 294.695 2.02521 -0.290917 0
M  V30 3091 H 294.705 3.85676 1.33108 0
M  V30 3092 H 293.38 4.15331 0.217533 0
M  V30 3093 H 291.957 3.2575 1.81497 0
M  V30 3094 N 294.142 -0.090211 1.57342 0
M  V30 3095 C 295.367 -0.810082 1.90925 0
M  V30 3096 C 295.792 -1.71248 0.778187 0
M  V30 3097 O 295.15 -1.79278 -0.269991 0
M  V30 3098 C 295.198 -1.59529 3.23393 0
M  V30 3099 O 294.302 -2.70461 3.11327 0
M  V30 3100 H 293.643 -0.222231 0.625707 0
M  V30 3101 H 296.173 -0.0639716 2.045 0
M  V30 3102 H 296.183 -1.97847 3.5682 0
M  V30 3103 H 294.858 -0.933055 4.05299 0
M  V30 3104 H 293.435 -2.35135 2.89423 0
M  V30 3105 N 295.62 -1.53406 -0.361157 0
M  V30 3106 C 296.86 -1.71507 -1.11197 0
M  V30 3107 C 297.224 -0.459337 -1.86425 0
M  V30 3108 O 298.425 -0.517102 -2.63779 0
M  V30 3109 C 296.696 -2.93307 -2.0422 0
M  V30 3110 S 298.255 -3.32135 -2.86761 0
M  V30 3111 H 295.073 -0.603448 -0.375995 0
M  V30 3112 H 297.675 -1.91516 -0.392642 0
M  V30 3113 H 296.379 -3.82891 -1.47724 0
M  V30 3114 H 295.91 -2.75712 -2.80618 0
M  V30 3115 H 297.925 -2.84493 -4.06544 0
M  V30 3116 N 297.098 0.621204 -1.44841 0
M  V30 3117 C 298.347 1.37658 -1.47422 0
M  V30 3118 C 298.66 1.95264 -0.114629 0
M  V30 3119 O 299.866 2.71494 -0.0180199 0
M  V30 3120 C 298.322 2.49285 -2.59586 0
M  V30 3121 C 297.93 1.98149 -4.01797 0
M  V30 3122 C 299.674 3.26409 -2.71399 0
M  V30 3123 C 297.581 3.07178 -5.05367 0
M  V30 3124 H 296.511 0.517344 -0.548517 0
M  V30 3125 H 299.162 0.667257 -1.70938 0
M  V30 3126 H 297.544 3.22839 -2.29328 0
M  V30 3127 H 298.718 1.31395 -4.41669 0
M  V30 3128 H 297.033 1.33812 -3.94314 0
M  V30 3129 H 299.63 4.07706 -3.45948 0
M  V30 3130 H 299.973 3.76535 -1.77559 0
M  V30 3131 H 300.506 2.5995 -3.01116 0
M  V30 3132 H 297.245 2.61985 -6.00869 0
M  V30 3133 H 296.765 3.72542 -4.70077 0
M  V30 3134 H 298.444 3.71789 -5.29511 0
M  V30 3135 N 298.576 1.31904 0.862503 0
M  V30 3136 C 299.824 1.21776 1.61292 0
M  V30 3137 C 300.145 -0.222413 1.93727 0
M  V30 3138 O 299.415 -1.1451 1.58947 0
M  V30 3139 H 297.995 0.447717 0.597962 0
M  V30 3140 H 300.657 1.65326 1.03215 0
M  V30 3141 H 299.753 1.7948 2.5533 0
M  V30 3142 N 300.054 -1.07777 1.14986 0
M  V30 3143 C 301.279 -1.84558 0.946213 0
M  V30 3144 C 301.704 -1.81323 -0.500362 0
M  V30 3145 O 301.062 -1.20301 -1.35637 0
M  V30 3146 C 301.11 -3.29736 1.45968 0
M  V30 3147 O 300.214 -4.07149 0.65601 0
M  V30 3148 H 299.555 -0.571641 0.33782 0
M  V30 3149 H 302.085 -1.35991 1.52865 0
M  V30 3150 H 302.095 -3.80574 1.47063 0
M  V30 3151 H 300.77 -3.31406 2.51283 0
M  V30 3152 H 299.347 -3.65994 0.714322 0
M  V30 3153 N 301.532 -0.945985 -1.26051 0
M  V30 3154 C 302.779 -0.596118 -1.93527 0
M  V30 3155 C 303.107 0.865559 -1.74179 0
M  V30 3156 O 302.362 1.63524 -1.0751 0
M  V30 3157 C 302.661 -0.890475 -3.46129 0
M  V30 3158 C 302.327 -2.3368 -3.85622 0
M  V30 3159 C 300.989 -2.73216 -3.96114 0
M  V30 3160 C 303.341 -3.27648 -4.05334 0
M  V30 3161 C 300.669 -4.05806 -4.2372 0
M  V30 3162 C 303.021 -4.59841 -4.3443 0
M  V30 3163 C 301.685 -4.99185 -4.43137 0
M  V30 3164 H 300.955 -0.218135 -0.708165 0
M  V30 3165 H 303.602 -1.1934 -1.49768 0
M  V30 3166 H 301.907 -0.210711 -3.91233 0
M  V30 3167 H 303.604 -0.598478 -3.96509 0
M  V30 3168 H 300.194 -2.02015 -3.78005 0
M  V30 3169 H 304.378 -2.98298 -3.96651 0
M  V30 3170 H 299.634 -4.35945 -4.28675 0
M  V30 3171 H 303.808 -5.32641 -4.48628 0
M  V30 3172 H 301.435 -6.01952 -4.64282 0
M  V30 3173 N 303.011 1.40521 -0.713556 0
M  V30 3174 C 304.258 2.00923 -0.25219 0
M  V30 3175 C 304.586 1.56571 1.15395 0
M  V30 3176 O 303.841 0.775874 1.79663 0
M  V30 3177 C 304.14 3.56317 -0.278 0
M  V30 3178 C 303.806 4.20246 -1.63415 0
M  V30 3179 C 302.468 4.37422 -2.00538 0
M  V30 3180 C 304.82 4.55923 -2.52554 0
M  V30 3181 C 302.148 4.87558 -3.2635 0
M  V30 3182 C 304.5 5.07458 -3.77716 0
M  V30 3183 C 303.164 5.22843 -4.14959 0
M  V30 3184 H 302.434 0.735231 -0.0922829 0
M  V30 3185 H 305.081 1.68161 -0.916188 0
M  V30 3186 H 303.386 3.88976 0.469567 0
M  V30 3187 H 305.083 4.00883 0.0967819 0
M  V30 3188 H 301.673 4.07263 -1.33546 0
M  V30 3189 H 305.857 4.42291 -2.25149 0
M  V30 3190 H 301.113 4.97654 -3.55176 0
M  V30 3191 H 305.287 5.34041 -4.4696 0
M  V30 3192 H 302.914 5.61454 -5.12516 0
M  V30 3193 N 304.489 0.459591 1.5075 0
M  V30 3194 C 305.452 -0.329093 2.26825 0
M  V30 3195 C 306.452 -0.930481 1.31144 0
M  V30 3196 O 307.642 -0.801453 1.54669 0
M  V30 3197 C 304.774 -1.46768 3.07688 0
M  V30 3198 H 305.967 0.337924 2.9799 0
M  V30 3199 H 303.52 0.213336 1.54837 0
M  V30 3200 H 304.255 -2.17009 2.40993 0
M  V30 3201 H 304.04 -1.04238 3.77991 0
M  V30 3202 H 305.53 -2.02433 3.65254 0
M  V30 3203 N 305.967 -1.56429 0.191757 0
M  V30 3204 C 307.378 -1.83912 -0.321428 0
M  V30 3205 C 307.729 -1.11231 -1.61623 0
M  V30 3206 O 306.854 -0.37202 -2.13178 0
M  V30 3207 C 307.449 -3.33624 -0.589961 0
M  V30 3208 C 306.008 -3.6153 -1.04753 0
M  V30 3209 C 305.155 -2.7714 -0.0943327 0
M  V30 3210 H 308.106 -1.53161 0.415612 0
M  V30 3211 H 308.127 -3.52213 -1.43966 0
M  V30 3212 H 307.639 -3.86495 0.352588 0
M  V30 3213 H 305.74 -3.14089 -2.00447 0
M  V30 3214 H 305.853 -4.69737 -0.942549 0
M  V30 3215 H 304.217 -2.47638 -0.595589 0
M  V30 3216 H 305 -3.32799 0.842601 0
M  V30 3217 N 307.445 0.0818655 -1.57387 0
M  V30 3218 C 308.685 0.788375 -1.88584 0
M  V30 3219 C 309.049 1.75248 -0.784351 0
M  V30 3220 O 310.25 2.50334 -0.979105 0
M  V30 3221 C 308.521 1.48654 -3.25018 0
M  V30 3222 S 310.08 2.22951 -3.7794 0
M  V30 3223 H 306.898 0.262383 -0.660815 0
M  V30 3224 H 309.5 0.0448995 -1.95448 0
M  V30 3225 H 308.204 0.770919 -4.03094 0
M  V30 3226 H 307.735 2.26965 -3.21326 0
M  V30 3227 H 309.75 3.49309 -3.52417 0
M  V30 3228 N 308.923 1.53595 0.353017 0
M  V30 3229 C 309.853 1.83902 1.43883 0
M  V30 3230 C 310.834 0.693421 1.55324 0
M  V30 3231 O 312.019 0.944452 1.69687 0
M  V30 3232 C 309.149 2.04016 2.8106 0
M  V30 3233 C 308.103 3.19814 2.84434 0
M  V30 3234 C 307.429 3.25244 4.24406 0
M  V30 3235 C 308.729 4.58133 2.50822 0
M  V30 3236 H 310.423 2.74835 1.1877 0
M  V30 3237 H 307.969 1.32242 0.569917 0
M  V30 3238 H 309.922 2.238 3.57059 0
M  V30 3239 H 308.646 1.09804 3.07588 0
M  V30 3240 H 307.305 2.9987 2.10887 0
M  V30 3241 H 306.953 2.28646 4.48029 0
M  V30 3242 H 306.653 4.03054 4.27576 0
M  V30 3243 H 308.177 3.47228 5.0226 0
M  V30 3244 H 309.591 4.77995 3.16534 0
M  V30 3245 H 307.988 5.38276 2.6529 0
M  V30 3246 H 309.058 4.62387 1.46034 0
M  V30 3247 N 310.401 -0.613514 1.45168 0
M  V30 3248 C 311.65 -1.36874 1.4815 0
M  V30 3249 C 311.963 -1.952 0.124982 0
M  V30 3250 O 313.169 -2.71481 0.0324176 0
M  V30 3251 C 311.625 -2.47905 2.60904 0
M  V30 3252 C 311.233 -1.96016 4.02842 0
M  V30 3253 C 312.977 -3.24965 2.73126 0
M  V30 3254 C 310.884 -3.04494 5.06988 0
M  V30 3255 H 309.814 -0.514428 0.551253 0
M  V30 3256 H 312.465 -0.658182 1.7129 0
M  V30 3257 H 310.847 -3.21618 2.31037 0
M  V30 3258 H 312.021 -1.29051 4.4236 0
M  V30 3259 H 310.336 -1.31719 3.95018 0
M  V30 3260 H 312.933 -4.05865 3.48106 0
M  V30 3261 H 313.276 -3.75588 1.79553 0
M  V30 3262 H 313.809 -2.5835 3.0249 0
M  V30 3263 H 310.548 -2.58795 6.0225 0
M  V30 3264 H 310.068 -3.70044 4.72046 0
M  V30 3265 H 311.747 -3.68976 5.31475 0
M  V30 3266 N 311.879 -1.3236 -0.855495 0
M  V30 3267 C 312.812 -1.15559 -1.96777 0
M  V30 3268 C 313.79 -0.0552681 -1.62506 0
M  V30 3269 O 314.974 -0.214419 -1.87277 0
M  V30 3270 C 312.101 -0.768851 -3.29858 0
M  V30 3271 C 311.147 -1.87429 -3.83109 0
M  V30 3272 S 311.98 -3.48243 -4.06801 0
M  V30 3273 C 313.136 -3.11539 -5.42858 0
M  V30 3274 H 313.369 -2.09717 -2.10727 0
M  V30 3275 H 310.902 -1.17011 -1.00737 0
M  V30 3276 H 312.86 -0.55248 -4.06765 0
M  V30 3277 H 311.521 0.153857 -3.13723 0
M  V30 3278 H 310.714 -1.55667 -4.79358 0
M  V30 3279 H 310.316 -2.04647 -3.13042 0
M  V30 3280 H 312.608 -2.61331 -6.2507 0
M  V30 3281 H 313.551 -4.06806 -5.79582 0
M  V30 3282 H 313.959 -2.48582 -5.06821 0
M  V30 3283 N 313.357 1.07166 -1.15556 0
M  V30 3284 C 314.606 1.79181 -0.926132 0
M  V30 3285 C 314.919 1.87768 0.547967 0
M  V30 3286 O 316.125 2.56323 0.895036 0
M  V30 3287 C 314.581 3.22 -1.60761 0
M  V30 3288 C 314.189 3.21607 -3.11886 0
M  V30 3289 C 315.933 3.9861 -1.4598 0
M  V30 3290 C 313.84 4.59092 -3.72812 0
M  V30 3291 H 312.77 0.67154 -0.342856 0
M  V30 3292 H 315.421 1.2027 -1.3859 0
M  V30 3293 H 313.803 3.81115 -1.07553 0
M  V30 3294 H 314.977 2.72127 -3.71865 0
M  V30 3295 H 313.292 2.58495 -3.2645 0
M  V30 3296 H 315.889 5.00225 -1.88888 0
M  V30 3297 H 316.232 4.143 -0.407541 0
M  V30 3298 H 316.765 3.45996 -1.96295 0
M  V30 3299 H 313.504 4.48606 -4.77946 0
M  V30 3300 H 313.024 5.08803 -3.17616 0
M  V30 3301 H 314.703 5.28059 -3.73848 0
M  V30 3302 N 314.835 0.952656 1.25548 0
M  V30 3303 C 315.765 0.489287 2.28316 0
M  V30 3304 C 316.746 -0.463359 1.63667 0
M  V30 3305 O 317.931 -0.36274 1.90782 0
M  V30 3306 C 315.061 -0.235603 3.465 0
M  V30 3307 C 314.015 0.631593 4.23314 0
M  V30 3308 C 313.341 -0.223923 5.34231 0
M  V30 3309 C 314.641 1.90871 4.86174 0
M  V30 3310 H 316.335 1.34822 2.67326 0
M  V30 3311 H 313.881 0.649728 1.28509 0
M  V30 3312 H 315.834 -0.570882 4.17515 0
M  V30 3313 H 314.558 -1.12877 3.06474 0
M  V30 3314 H 313.217 0.949929 3.54079 0
M  V30 3315 H 312.865 -1.11678 4.90446 0
M  V30 3316 H 312.565 0.35299 5.86539 0
M  V30 3317 H 314.089 -0.554214 6.0808 0
M  V30 3318 H 315.503 1.63997 5.49343 0
M  V30 3319 H 313.9 2.43112 5.4865 0
M  V30 3320 H 314.97 2.61304 4.08471 0
M  V30 3321 N 316.313 -1.40141 0.720998 0
M  V30 3322 C 317.559 -2.01084 0.263231 0
M  V30 3323 C 317.892 -1.57052 -1.14229 0
M  V30 3324 O 317.167 -0.793027 -1.77599 0
M  V30 3325 C 317.45 -3.58401 0.349344 0
M  V30 3326 C 317.303 -4.12491 1.79363 0
M  V30 3327 C 318.622 -4.39231 -0.276351 0
M  V30 3328 H 315.741 -0.730572 0.0971228 0
M  V30 3329 H 318.383 -1.66543 0.914518 0
M  V30 3330 H 316.533 -3.87958 -0.205165 0
M  V30 3331 H 318.205 -3.93711 2.40394 0
M  V30 3332 H 316.448 -3.66576 2.31958 0
M  V30 3333 H 317.119 -5.21646 1.80524 0
M  V30 3334 H 319.595 -4.15637 0.196184 0
M  V30 3335 H 318.471 -5.48586 -0.185681 0
M  V30 3336 H 318.732 -4.20643 -1.36059 0
M  V30 3337 N 317.792 -0.46758 -1.50504 0
M  V30 3338 C 319.022 0.086288 -2.0642 0
M  V30 3339 C 319.43 1.34369 -1.33197 0
M  V30 3340 O 318.773 1.79431 -0.393747 0
M  V30 3341 C 318.835 0.443846 -3.5675 0
M  V30 3342 C 318.499 -0.711035 -4.51435 0
M  V30 3343 C 319.496 -1.59205 -4.94924 0
M  V30 3344 C 317.181 -0.900363 -4.94165 0
M  V30 3345 C 319.175 -2.64683 -5.79846 0
M  V30 3346 C 316.862 -1.95837 -5.7887 0
M  V30 3347 C 317.86 -2.82997 -6.21612 0
M  V30 3348 O 317.548 -3.86977 -7.0463 0
M  V30 3349 H 317.28 -0.00217814 -0.675996 0
M  V30 3350 H 319.834 -0.654346 -1.94698 0
M  V30 3351 H 318.064 1.23762 -3.6636 0
M  V30 3352 H 319.753 0.932386 -3.95046 0
M  V30 3353 H 320.519 -1.45745 -4.62583 0
M  V30 3354 H 316.398 -0.231427 -4.60419 0
M  V30 3355 H 319.942 -3.32745 -6.13128 0
M  V30 3356 H 315.839 -2.09305 -6.10624 0
M  V30 3357 H 316.607 -3.83923 -7.22873 0
M  V30 3358 N 319.27 1.56325 -0.20005 0
M  V30 3359 C 320.516 1.98012 0.438059 0
M  V30 3360 C 320.849 1.08702 1.60927 0
M  V30 3361 O 320.124 0.140064 1.93995 0
M  V30 3362 C 320.407 3.48841 0.893419 0
M  V30 3363 C 320.26 4.48928 -0.279947 0
M  V30 3364 C 321.579 4.03498 1.75719 0
M  V30 3365 H 318.698 0.719918 0.157757 0
M  V30 3366 H 321.34 1.87743 -0.291968 0
M  V30 3367 H 319.49 3.57723 1.51547 0
M  V30 3368 H 321.162 4.52079 -0.91772 0
M  V30 3369 H 319.405 4.23694 -0.930919 0
M  V30 3370 H 320.076 5.5194 0.0812601 0
M  V30 3371 H 322.552 3.97427 1.23253 0
M  V30 3372 H 321.428 5.09393 2.04476 0
M  V30 3373 H 321.689 3.4906 2.71311 0
M  V30 3374 N 320.748 -0.0735177 1.57428 0
M  V30 3375 C 322.164 -0.428264 1.53747 0
M  V30 3376 C 322.364 -1.79272 0.91998 0
M  V30 3377 O 321.42 -2.47051 0.521745 0
M  V30 3378 C 322.733 -0.370914 2.98404 0
M  V30 3379 C 324.281 -0.451224 3.0973 0
M  V30 3380 C 324.756 -0.4238 4.56035 0
M  V30 3381 N 326.247 -0.483925 4.60665 0
M  V30 3382 C 326.982 -0.484891 5.71346 0
M  V30 3383 N 326.478 -0.440775 6.91396 0
M  V30 3384 N 328.271 -0.531319 5.59583 0
M  V30 3385 H 320.422 0.819949 1.95935 0
M  V30 3386 H 322.685 0.307493 0.896745 0
M  V30 3387 H 322.391 0.564956 3.47133 0
M  V30 3388 H 322.265 -1.18176 3.5821 0
M  V30 3389 H 324.652 -1.37752 2.60976 0
M  V30 3390 H 324.733 0.388167 2.52838 0
M  V30 3391 H 324.377 0.498638 5.05446 0
M  V30 3392 H 324.307 -1.2807 5.10789 0
M  V30 3393 H 326.798 -0.522338 3.74273 0
M  V30 3394 H 327.111 -0.44539 7.71515 0
M  V30 3395 H 325.456 -0.40749 6.93804 0
M  V30 3396 H 328.647 -0.563464 4.64696 0
M  V30 3397 H 328.82 -0.528603 6.4584 0
M  V30 3398 N 322.226 -1.5378 -0.344866 0
M  V30 3399 C 323.475 -1.7018 -1.08267 0
M  V30 3400 C 323.788 -0.471 -1.89845 0
M  V30 3401 O 324.994 -0.515917 -2.66553 0
M  V30 3402 C 323.45 -3.00923 -1.97417 0
M  V30 3403 C 323.058 -4.31335 -1.21053 0
M  V30 3404 C 324.802 -3.26688 -2.71063 0
M  V30 3405 C 322.709 -5.53153 -2.09225 0
M  V30 3406 H 321.639 -0.634138 -0.407903 0
M  V30 3407 H 324.29 -1.8028 -0.342246 0
M  V30 3408 H 322.672 -2.84676 -2.75274 0
M  V30 3409 H 323.846 -4.58281 -0.481159 0
M  V30 3410 H 322.161 -4.12173 -0.591813 0
M  V30 3411 H 324.758 -4.1489 -3.37299 0
M  V30 3412 H 325.101 -2.43639 -3.37558 0
M  V30 3413 H 325.634 -3.43705 -2.0028 0
M  V30 3414 H 322.373 -6.38741 -1.47274 0
M  V30 3415 H 321.893 -5.30458 -2.79955 0
M  V30 3416 H 323.572 -5.88744 -2.68308 0
M  V30 3417 N 323.704 0.605807 -1.45491 0
M  V30 3418 C 324.934 1.38934 -1.52908 0
M  V30 3419 C 325.342 1.88513 -0.161086 0
M  V30 3420 O 324.685 1.62962 0.847891 0
M  V30 3421 C 324.747 2.62737 -2.45376 0
M  V30 3422 C 324.411 2.34785 -3.92078 0
M  V30 3423 C 325.408 1.95038 -4.8193 0
M  V30 3424 C 323.093 2.47642 -4.37011 0
M  V30 3425 C 325.087 1.68511 -6.14722 0
M  V30 3426 C 322.774 2.20728 -5.69844 0
M  V30 3427 C 323.772 1.81225 -6.58519 0
M  V30 3428 O 323.46 1.54627 -7.88889 0
M  V30 3429 H 323.192 0.431629 -0.520262 0
M  V30 3430 H 325.746 0.74573 -1.91384 0
M  V30 3431 H 323.976 3.29824 -2.01874 0
M  V30 3432 H 325.665 3.24783 -2.43456 0
M  V30 3433 H 326.431 1.84639 -4.48479 0
M  V30 3434 H 322.31 2.77356 -3.68232 0
M  V30 3435 H 325.854 1.37602 -6.83894 0
M  V30 3436 H 321.751 2.30744 -6.02849 0
M  V30 3437 H 322.519 1.68665 -8.00933 0
M  V30 3438 N 325.182 1.32811 0.848464 0
M  V30 3439 C 326.114 1.18095 1.96433 0
M  V30 3440 C 327.127 0.114354 1.62398 0
M  V30 3441 O 328.316 0.363892 1.74751 0
M  V30 3442 C 325.416 0.786798 3.2964 0
M  V30 3443 C 324.589 1.943 3.91875 0
M  V30 3444 C 323.648 1.53138 5.03423 0
M  V30 3445 O 322.674 2.24432 5.23086 0
M  V30 3446 N 323.876 0.430915 5.78898 0
M  V30 3447 H 326.641 2.14218 2.09597 0
M  V30 3448 H 324.202 1.2543 1.02367 0
M  V30 3449 H 326.194 0.493715 4.01677 0
M  V30 3450 H 324.764 -0.0834541 3.12489 0
M  V30 3451 H 323.984 2.40224 3.12547 0
M  V30 3452 H 325.272 2.71689 4.30189 0
M  V30 3453 H 324.67 -0.162333 5.65467 0
M  V30 3454 H 323.227 0.197466 6.51501 0
M  V30 3455 N 326.66 -1.06551 1.16123 0
M  V30 3456 C 327.909 -1.78687 0.935622 0
M  V30 3457 C 328.222 -1.88056 -0.538001 0
M  V30 3458 O 329.428 -2.56794 -0.88143 0
M  V30 3459 C 327.884 -3.21143 1.62466 0
M  V30 3460 C 327.492 -3.19949 3.13587 0
M  V30 3461 C 329.236 -3.9783 1.48092 0
M  V30 3462 C 327.143 -4.57108 3.75241 0
M  V30 3463 H 326.073 -0.669712 0.346412 0
M  V30 3464 H 328.724 -1.19534 1.39226 0
M  V30 3465 H 327.106 -3.80539 1.09572 0
M  V30 3466 H 328.28 -2.70151 3.73303 0
M  V30 3467 H 326.595 -2.5676 3.27816 0
M  V30 3468 H 329.192 -4.99217 1.91538 0
M  V30 3469 H 329.535 -4.14078 0.429507 0
M  V30 3470 H 330.068 -3.4495 1.98127 0
M  V30 3471 H 326.807 -4.46065 4.80319 0
M  V30 3472 H 326.327 -5.07111 3.20309 0
M  V30 3473 H 328.006 -5.26069 3.76644 0
M  V30 3474 N 328.138 -0.959301 -1.25041 0
M  V30 3475 C 329.101 -0.487677 -2.23952 0
M  V30 3476 C 330.101 0.41119 -1.55454 0
M  V30 3477 O 331.291 0.207825 -1.72956 0
M  V30 3478 C 328.423 0.294807 -3.39623 0
M  V30 3479 H 329.616 -1.36198 -2.67189 0
M  V30 3480 H 327.169 -0.743042 -1.37508 0
M  V30 3481 H 327.904 1.18658 -3.01813 0
M  V30 3482 H 327.689 -0.35012 -3.90534 0
M  V30 3483 H 329.179 0.614089 -4.1306 0
M  V30 3484 N 329.616 1.39756 -0.72842 0
M  V30 3485 C 330.563 2.30647 -0.0841519 0
M  V30 3486 C 331.533 1.48869 0.7367 0
M  V30 3487 O 332.718 1.77574 0.698015 0
M  V30 3488 C 329.858 3.35165 0.822091 0
M  V30 3489 C 328.971 4.31999 -0.0106663 0
M  V30 3490 C 328.106 5.23585 0.896241 0
M  V30 3491 C 327.145 6.12072 0.0583381 0
M  V30 3492 N 326.282 6.96035 0.920818 0
M  V30 3493 H 331.122 2.85173 -0.864891 0
M  V30 3494 H 328.659 1.40422 -0.438179 0
M  V30 3495 H 330.617 3.94345 1.36189 0
M  V30 3496 H 329.247 2.8211 1.56888 0
M  V30 3497 H 328.299 3.74492 -0.66781 0
M  V30 3498 H 329.611 4.9443 -0.658825 0
M  V30 3499 H 328.765 5.87759 1.50412 0
M  V30 3500 H 327.504 4.61459 1.57819 0
M  V30 3501 H 326.509 5.46916 -0.562389 0
M  V30 3502 H 327.734 6.76261 -0.6203 0
M  V30 3503 H 325.68 6.36485 1.58818 0
M  V30 3504 H 325.597 7.55284 0.32899 0
M  V30 3505 H 326.865 7.64646 1.51447 0
M  V30 3506 N 331.094 0.475555 1.50254 0
M  V30 3507 C 332.51 0.12997 1.5907 0
M  V30 3508 C 332.71 -1.36385 1.48328 0
M  V30 3509 O 331.766 -2.13754 1.34407 0
M  V30 3510 C 333.079 0.684139 2.92814 0
M  V30 3511 C 334.627 0.647965 3.0622 0
M  V30 3512 C 335.102 1.17975 4.42545 0
M  V30 3513 N 336.593 1.13936 4.48969 0
M  V30 3514 C 337.328 1.52129 5.52851 0
M  V30 3515 N 336.824 1.97793 6.63965 0
M  V30 3516 N 338.617 1.43704 5.4342 0
M  V30 3517 H 330.768 1.44706 1.55479 0
M  V30 3518 H 333.031 0.598691 0.735033 0
M  V30 3519 H 332.737 1.73079 3.06164 0
M  V30 3520 H 332.611 0.130204 3.76975 0
M  V30 3521 H 334.998 -0.38979 2.92514 0
M  V30 3522 H 335.079 1.23876 2.23805 0
M  V30 3523 H 334.723 2.21616 4.57 0
M  V30 3524 H 334.653 0.565138 5.23559 0
M  V30 3525 H 337.144 0.804488 3.69238 0
M  V30 3526 H 337.457 2.25072 7.39299 0
M  V30 3527 H 335.802 2.01749 6.65073 0
M  V30 3528 H 338.993 1.07867 4.55502 0
M  V30 3529 H 339.166 1.73794 6.24259 0
M  V30 3530 N 332.573 -1.56217 0.208337 0
M  V30 3531 C 333.989 -1.58919 -0.14729 0
M  V30 3532 C 334.189 -1.22486 -1.59998 0
M  V30 3533 O 333.245 -0.953849 -2.3379 0
M  V30 3534 C 334.558 -3.00236 0.167048 0
M  V30 3535 C 336.106 -3.12813 0.108219 0
M  V30 3536 C 336.581 -4.56284 0.396049 0
M  V30 3537 N 338.072 -4.61912 0.345142 0
M  V30 3538 C 338.807 -5.70837 0.541523 0
M  V30 3539 N 338.303 -6.88178 0.798968 0
M  V30 3540 N 340.096 -5.60091 0.474867 0
M  V30 3541 H 332.247 -1.78177 1.15614 0
M  V30 3542 H 334.51 -0.827555 0.462446 0
M  V30 3543 H 334.216 -3.31499 1.1748 0
M  V30 3544 H 334.09 -3.7354 -0.524184 0
M  V30 3545 H 336.477 -2.81354 -0.890157 0
M  V30 3546 H 336.558 -2.41866 0.832729 0
M  V30 3547 H 336.202 -4.88458 1.3918 0
M  V30 3548 H 336.132 -5.25439 -0.349502 0
M  V30 3549 H 338.623 -3.77589 0.153316 0
M  V30 3550 H 338.936 -7.67095 0.93727 0
M  V30 3551 H 337.281 -6.89953 0.836013 0
M  V30 3552 H 340.472 -4.67297 0.274064 0
M  V30 3553 H 340.645 -6.44917 0.631326 0
M  V30 3554 N 334.051 0.0651679 -1.57465 0
M  V30 3555 C 335.279 0.775808 -1.91804 0
M  V30 3556 C 335.694 1.70782 -0.804916 0
M  V30 3557 O 335.051 1.81153 0.221311 0
M  V30 3558 C 335.102 1.56381 -3.25925 0
M  V30 3559 O 334.823 0.669248 -4.32958 0
M  V30 3560 C 336.324 2.37485 -3.7432 0
M  V30 3561 H 333.544 0.2202 -0.63384 0
M  V30 3562 H 336.088 0.0334587 -2.04473 0
M  V30 3563 H 334.243 2.25837 -3.14764 0
M  V30 3564 H 334.657 1.21801 -5.10162 0
M  V30 3565 H 336.131 2.88223 -4.70778 0
M  V30 3566 H 336.608 3.17307 -3.03666 0
M  V30 3567 H 337.214 1.73173 -3.88447 0
M  V30 3568 N 335.529 1.53961 0.336706 0
M  V30 3569 C 336.945 1.44378 0.680241 0
M  V30 3570 C 337.145 0.606034 1.9217 0
M  V30 3571 O 336.201 0.099688 2.52303 0
M  V30 3572 C 337.514 2.87945 0.8665 0
M  V30 3573 C 339.062 2.97763 0.964682 0
M  V30 3574 C 339.537 4.42453 1.18321 0
M  V30 3575 N 341.028 4.46008 1.25025 0
M  V30 3576 C 341.763 5.55102 1.43697 0
M  V30 3577 N 341.259 6.7419 1.59498 0
M  V30 3578 N 343.052 5.42727 1.463 0
M  V30 3579 H 335.203 2.06918 -0.479455 0
M  V30 3580 H 337.466 0.935634 -0.152619 0
M  V30 3581 H 337.172 3.51691 0.0256937 0
M  V30 3582 H 337.046 3.33293 1.76623 0
M  V30 3583 H 339.433 2.34153 1.796 0
M  V30 3584 H 339.514 2.55766 0.041708 0
M  V30 3585 H 339.158 5.06645 0.356788 0
M  V30 3586 H 339.088 4.82048 2.11985 0
M  V30 3587 H 341.579 3.60196 1.14312 0
M  V30 3588 H 341.892 7.53095 1.734 0
M  V30 3589 H 340.237 6.77123 1.56621 0
M  V30 3590 H 343.428 4.48647 1.33543 0
M  V30 3591 H 343.601 6.27806 1.6051 0
M  V30 3592 N 337.007 -0.598083 1.45811 0
M  V30 3593 C 338.253 -1.35882 1.50545 0
M  V30 3594 C 338.586 -1.93616 0.150445 0
M  V30 3595 O 337.861 -1.75604 -0.83628 0
M  V30 3596 C 338.144 -2.49966 2.59208 0
M  V30 3597 C 337.997 -1.97367 4.04186 0
M  V30 3598 C 339.316 -3.52068 2.64076 0
M  V30 3599 H 336.435 -0.492717 0.548087 0
M  V30 3600 H 339.077 -0.673319 1.77669 0
M  V30 3601 H 337.227 -3.08443 2.3621 0
M  V30 3602 H 338.899 -1.43466 4.38423 0
M  V30 3603 H 337.142 -1.283 4.14393 0
M  V30 3604 H 337.813 -2.79649 4.75921 0
M  V30 3605 H 340.289 -3.03448 2.84708 0
M  V30 3606 H 339.165 -4.2937 3.41954 0
M  V30 3607 H 339.426 -4.08304 1.69531 0
M  V30 3608 N 338.485 -1.33259 -0.841409 0
M  V30 3609 C 339.896 -1.22066 -1.41269 0
M  V30 3610 C 340.247 0.161479 -1.95534 0
M  V30 3611 O 339.372 1.06094 -1.88608 0
M  V30 3612 C 339.967 -2.20996 -2.568 0
M  V30 3613 C 338.526 -2.13649 -3.09888 0
M  V30 3614 C 337.673 -2.08623 -1.82679 0
M  V30 3615 H 340.624 -1.44895 -0.647395 0
M  V30 3616 H 340.645 -1.81621 -3.34356 0
M  V30 3617 H 340.157 -3.2158 -2.17274 0
M  V30 3618 H 338.258 -1.16359 -3.53965 0
M  V30 3619 H 338.371 -3.04079 -3.70234 0
M  V30 3620 H 336.735 -1.54061 -2.02824 0
M  V30 3621 H 337.518 -3.1101 -1.45353 0
M  V30 3622 N 339.963 1.05934 -1.16686 0
M  V30 3623 C 341.374 1.60263 -0.957745 0
M  V30 3624 C 341.725 1.89789 0.49745 0
M  V30 3625 O 340.85 1.67401 1.37135 0
M  V30 3626 C 341.445 2.91172 -1.73218 0
M  V30 3627 C 340.004 3.42188 -1.56794 0
M  V30 3628 C 339.151 2.16028 -1.73859 0
M  V30 3629 H 342.102 0.888392 -1.31504 0
M  V30 3630 H 342.123 3.60744 -1.21014 0
M  V30 3631 H 341.635 2.6965 -2.79124 0
M  V30 3632 H 339.736 3.68762 -0.533437 0
M  V30 3633 H 339.849 4.17273 -2.35414 0
M  V30 3634 H 338.213 2.26426 -1.16633 0
M  V30 3635 H 338.996 1.96985 -2.81161 0
M  V30 3636 N 341.441 0.965919 1.2453 0
M  V30 3637 C 342.666 0.643971 1.97149 0
M  V30 3638 C 343.091 -0.779487 1.71189 0
M  V30 3639 O 342.449 -1.5288 0.974553 0
M  V30 3640 C 342.497 0.922557 3.48599 0
M  V30 3641 O 341.601 0.00707672 4.12399 0
M  V30 3642 H 340.942 0.243647 0.617683 0
M  V30 3643 H 343.472 1.29558 1.58353 0
M  V30 3644 H 343.482 0.853373 3.98976 0
M  V30 3645 H 342.157 1.95996 3.66822 0
M  V30 3646 H 340.734 0.12943 3.72675 0
M  V30 3647 N 342.919 -1.39368 0.735821 0
M  V30 3648 C 344.335 -1.54204 0.411492 0
M  V30 3649 C 344.535 -1.70268 -1.07755 0
M  V30 3650 O 343.591 -1.70364 -1.86366 0
M  V30 3651 C 344.904 -2.75925 1.19523 0
M  V30 3652 C 346.452 -2.89761 1.18354 0
M  V30 3653 C 346.927 -4.14421 1.94986 0
M  V30 3654 N 348.418 -4.21462 1.92156 0
M  V30 3655 C 349.153 -5.16871 2.48258 0
M  V30 3656 N 348.649 -6.18063 3.13001 0
M  V30 3657 N 350.442 -5.09093 2.38287 0
M  V30 3658 H 342.593 -1.27189 1.70108 0
M  V30 3659 H 344.856 -0.616517 0.720147 0
M  V30 3660 H 344.562 -2.70401 2.24892 0
M  V30 3661 H 344.436 -3.68614 0.800222 0
M  V30 3662 H 346.823 -2.94777 0.137975 0
M  V30 3663 H 346.904 -1.98133 1.61793 0
M  V30 3664 H 346.548 -4.10166 2.99543 0
M  V30 3665 H 346.478 -5.05095 1.48953 0
M  V30 3666 H 348.969 -3.48979 1.44991 0
M  V30 3667 H 349.282 -6.87326 3.53275 0
M  V30 3668 H 347.627 -6.18448 3.17091 0
M  V30 3669 H 350.818 -4.28973 1.8735 0
M  V30 3670 H 350.991 -5.83272 2.82308 0
M  V30 3671 N 344.397 -0.483516 -1.5 0
M  V30 3672 C 345.813 -0.138404 -1.58999 0
M  V30 3673 C 346.013 1.35597 -1.4905 0
M  V30 3674 O 345.069 2.13039 -1.35539 0
M  V30 3675 C 346.382 -0.699658 -2.92447 0
M  V30 3676 C 347.93 -0.664195 -3.05872 0
M  V30 3677 C 348.405 -1.20321 -4.41913 0
M  V30 3678 N 349.896 -1.16315 -4.48358 0
M  V30 3679 C 350.631 -1.55058 -5.52037 0
M  V30 3680 N 350.127 -2.01311 -6.62907 0
M  V30 3681 N 351.92 -1.46584 -5.42651 0
M  V30 3682 H 344.071 -1.45529 -1.5471 0
M  V30 3683 H 346.334 -0.60258 -0.731848 0
M  V30 3684 H 346.04 -1.747 -3.05242 0
M  V30 3685 H 345.914 -0.150194 -3.76901 0
M  V30 3686 H 348.301 0.374272 -2.92717 0
M  V30 3687 H 348.382 -1.25061 -2.23144 0
M  V30 3688 H 348.026 -2.24037 -4.55818 0
M  V30 3689 H 347.956 -0.592896 -5.23252 0
M  V30 3690 H 350.447 -0.824058 -3.68806 0
M  V30 3691 H 350.76 -2.2899 -7.38095 0
M  V30 3692 H 349.105 -2.05273 -6.63994 0
M  V30 3693 H 352.296 -1.10281 -4.54924 0
M  V30 3694 H 352.469 -1.77103 -6.23329 0
M  V30 3695 N 345.875 1.56104 -0.216619 0
M  V30 3696 C 347.123 1.97781 0.415593 0
M  V30 3697 C 347.444 1.10536 1.60645 0
M  V30 3698 O 346.714 0.181303 1.95059 0
M  V30 3699 H 345.294 0.730415 0.156534 0
M  V30 3700 H 347.956 1.92445 -0.308366 0
M  V30 3701 H 347.052 3.03072 0.74525 0
M  V30 3702 N 347.353 -0.0568162 1.57498 0
M  V30 3703 C 348.764 -0.606858 1.76562 0
M  V30 3704 C 349.115 -1.77114 0.844094 0
M  V30 3705 O 348.24 -2.16376 0.0318911 0
M  V30 3706 C 348.835 -1.10766 3.20182 0
M  V30 3707 C 347.394 -1.60344 3.40539 0
M  V30 3708 C 346.541 -0.529311 2.72201 0
M  V30 3709 H 349.492 0.169393 1.57793 0
M  V30 3710 H 349.513 -1.97602 3.25167 0
M  V30 3711 H 349.025 -0.26006 3.87228 0
M  V30 3712 H 347.126 -2.47379 2.78629 0
M  V30 3713 H 347.239 -1.67006 4.4905 0
M  V30 3714 H 345.603 -0.977893 2.35179 0
M  V30 3715 H 346.386 0.308352 3.41912 0
M  V30 3716 N 348.832 -1.54138 -0.328536 0
M  V30 3717 C 350.109 -1.62749 -1.08499 0
M  V30 3718 C 350.489 -0.458198 -2.06067 0
M  V30 3719 O 349.837 0.548046 -2.2183 0
M  V30 3720 C 350.047 -2.99519 -1.79135 0
M  V30 3721 C 351.395 -3.55394 -2.32337 0
M  V30 3722 O 352.419 -3.01792 -1.89209 0
M  V30 3723 O 351.278 -4.49186 -3.11279 0
M  V30 3724 H 348.372 -0.65886 -0.499832 0
M  V30 3725 H 350.918 -1.66484 -0.328826 0
M  V30 3726 H 349.69 -3.76061 -1.08139 0
M  V30 3727 H 349.313 -2.99441 -2.61574 0
M  V30 3728 N 350.31 0.590341 -1.46126 0
M  V30 3729 C 351.273 1.68194 -1.55703 0
M  V30 3730 C 352.273 1.54808 -0.434868 0
M  V30 3731 O 353.463 1.59564 -0.698928 0
M  V30 3732 C 350.595 3.07575 -1.47005 0
M  V30 3733 H 351.788 1.61064 -2.52979 0
M  V30 3734 H 349.341 0.807541 -1.33823 0
M  V30 3735 H 350.076 3.20268 -0.509785 0
M  V30 3736 H 349.861 3.187 -2.28414 0
M  V30 3737 H 351.351 3.87055 -1.56776 0
M  V30 3738 N 351.788 1.33704 0.83433 0
M  V30 3739 C 353.034 1.25603 1.59222 0
M  V30 3740 C 353.367 -0.176659 1.93395 0
M  V30 3741 O 352.642 -1.11915 1.59076 0
M  V30 3742 C 352.925 2.13576 2.89926 0
M  V30 3743 C 352.778 3.65326 2.62406 0
M  V30 3744 C 354.097 2.01238 3.91397 0
M  V30 3745 H 351.216 0.457613 0.577719 0
M  V30 3746 H 353.858 1.63848 0.961972 0
M  V30 3747 H 352.008 1.8109 3.43713 0
M  V30 3748 H 353.68 4.08124 2.15017 0
M  V30 3749 H 351.923 3.8698 1.96033 0
M  V30 3750 H 352.594 4.22232 3.55562 0
M  V30 3751 H 355.07 2.29738 3.46929 0
M  V30 3752 H 353.946 2.65036 4.80673 0
M  V30 3753 H 354.207 0.985951 4.30966 0
M  V30 3754 N 353.266 -1.05314 1.17247 0
M  V30 3755 C 354.229 -2.112 0.890357 0
M  V30 3756 C 355.229 -1.60359 -0.118943 0
M  V30 3757 O 356.419 -1.73833 0.113086 0
M  V30 3758 C 353.551 -3.39266 0.333422 0
M  V30 3759 H 354.744 -2.37659 1.82916 0
M  V30 3760 H 352.297 -1.21538 0.982758 0
M  V30 3761 H 353.032 -3.18462 -0.612587 0
M  V30 3762 H 352.817 -3.77477 1.06082 0
M  V30 3763 H 354.307 -4.17315 0.154322 0
M  V30 3764 N 354.744 -0.972509 -1.24016 0
M  V30 3765 C 355.707 -0.511403 -2.23422 0
M  V30 3766 C 356.707 0.394679 -1.55881 0
M  V30 3767 O 357.897 0.189469 -1.73167 0
M  V30 3768 C 355.029 0.258769 -3.39916 0
M  V30 3769 H 356.222 -1.39024 -2.6573 0
M  V30 3770 H 353.775 -0.757585 -1.36713 0
M  V30 3771 H 354.51 1.1545 -3.03054 0
M  V30 3772 H 354.295 -0.391522 -3.9014 0
M  V30 3773 H 355.785 0.570244 -4.13688 0
M  V30 3774 N 356.222 1.38976 -0.743202 0
M  V30 3775 C 357.633 1.83123 -0.363732 0
M  V30 3776 C 357.984 1.6205 1.10609 0
M  V30 3777 O 357.109 1.11606 1.854 0
M  V30 3778 C 357.704 3.32439 -0.653408 0
M  V30 3779 C 356.263 3.74974 -0.327338 0
M  V30 3780 C 355.41 2.61878 -0.911875 0
M  V30 3781 H 358.361 1.27852 -0.940191 0
M  V30 3782 H 358.382 3.80432 0.0720031 0
M  V30 3783 H 357.894 3.47745 -1.72323 0
M  V30 3784 H 355.995 3.65252 0.736314 0
M  V30 3785 H 356.108 4.72106 -0.815631 0
M  V30 3786 H 354.472 2.52448 -0.337944 0
M  V30 3787 H 355.255 2.79987 -1.98651 0
M  V30 3788 N 357.7 0.491464 1.49741 0
M  V30 3789 C 359.111 0.0413169 1.86654 0
M  V30 3790 C 359.462 -1.36985 1.40462 0
M  V30 3791 O 358.587 -2.01917 0.778354 0
M  V30 3792 C 359.182 0.0682023 3.38731 0
M  V30 3793 C 357.741 -0.32656 3.74981 0
M  V30 3794 C 356.888 0.444888 2.73708 0
M  V30 3795 H 359.839 0.704733 1.42194 0
M  V30 3796 H 359.86 -0.729322 3.73445 0
M  V30 3797 H 359.372 1.09539 3.72321 0
M  V30 3798 H 357.473 -1.35734 3.46997 0
M  V30 3799 H 357.586 -0.013741 4.79098 0
M  V30 3800 H 355.95 -0.104062 2.54487 0
M  V30 3801 H 356.733 1.47197 3.10142 0
M  V30 3802 N 359.178 -1.55987 0.224894 0
M  V30 3803 C 360.426 -1.97998 -0.405099 0
M  V30 3804 C 360.747 -1.11387 -1.60056 0
M  V30 3805 O 360.017 -0.191645 -1.9496 0
M  V30 3806 H 358.597 -0.731235 -0.152658 0
M  V30 3807 H 361.259 -1.92279 0.318567 0
M  V30 3808 H 360.355 -3.03463 -0.729167 0
M  V30 3809 N 360.656 0.0484629 -1.57525 0
M  V30 3810 C 361.904 0.741657 -1.88 0
M  V30 3811 C 362.225 1.76918 -0.820054 0
M  V30 3812 O 361.495 1.95335 0.148661 0
M  V30 3813 H 360.075 0.276908 -0.69378 0
M  V30 3814 H 362.737 0.019013 -1.94891 0
M  V30 3815 H 361.833 1.24336 -2.86264 0
M  V30 3816 N 362.134 1.5431 0.320358 0
M  V30 3817 C 363.362 1.76636 1.07738 0
M  V30 3818 C 363.777 0.51649 1.81598 0
M  V30 3819 O 363.134 -0.512942 1.75143 0
M  V30 3820 C 363.185 2.96158 2.07299 0
M  V30 3821 O 362.906 4.16313 1.36438 0
M  V30 3822 C 364.407 3.3072 2.95193 0
M  V30 3823 H 361.627 0.589597 0.320339 0
M  V30 3824 H 364.171 2.01207 0.36551 0
M  V30 3825 H 362.326 2.73851 2.74016 0
M  V30 3826 H 362.74 4.83565 2.03138 0
M  V30 3827 H 364.214 4.17643 3.60941 0
M  V30 3828 H 364.691 2.48026 3.62463 0
M  V30 3829 H 365.297 3.55117 2.34034 0
M  V30 3830 N 363.613 -0.582584 1.46437 0
M  V30 3831 C 364.523 -1.71949 1.59595 0
M  V30 3832 C 365.539 -1.67264 0.479443 0
M  V30 3833 O 366.715 -1.87171 0.743579 0
M  V30 3834 C 363.78 -3.08452 1.58298 0
M  V30 3835 C 362.841 -3.244 2.81182 0
M  V30 3836 C 362.074 -4.54391 2.79937 0
M  V30 3837 O 362.297 -5.38287 1.8869 0
M  V30 3838 O 361.231 -4.73588 3.71481 0
M  V30 3839 H 365.057 -1.63795 2.55744 0
M  V30 3840 H 362.642 -0.749643 1.29231 0
M  V30 3841 H 364.524 -3.89732 1.60271 0
M  V30 3842 H 363.199 -3.17043 0.653094 0
M  V30 3843 H 362.106 -2.42613 2.84763 0
M  V30 3844 H 363.439 -3.20699 3.7338 0
M  V30 3845 N 365.091 -1.34144 -0.827227 0
M  V30 3846 C 366.507 -1.13732 -1.11969 0
M  V30 3847 C 366.707 0.0640463 -2.01398 0
M  V30 3848 O 365.763 0.740856 -2.41387 0
M  V30 3849 C 367.076 -2.43047 -1.77055 0
M  V30 3850 C 368.624 -2.49063 -1.89569 0
M  V30 3851 C 369.099 -3.78369 -2.58072 0
M  V30 3852 N 370.59 -3.79505 -2.65575 0
M  V30 3853 C 371.325 -4.76274 -3.19297 0
M  V30 3854 N 370.821 -5.83424 -3.73616 0
M  V30 3855 N 372.614 -4.63735 -3.17658 0
M  V30 3856 H 364.765 -2.11126 -0.232296 0
M  V30 3857 H 367.028 -0.933424 -0.165602 0
M  V30 3858 H 366.734 -3.31025 -1.18807 0
M  V30 3859 H 366.608 -2.56066 -2.76966 0
M  V30 3860 H 368.995 -1.61527 -2.46968 0
M  V30 3861 H 369.076 -2.39975 -0.885745 0
M  V30 3862 H 368.72 -4.66293 -2.01329 0
M  V30 3863 H 368.65 -3.84737 -3.59562 0
M  V30 3864 H 371.141 -3.02074 -2.27068 0
M  V30 3865 H 371.454 -6.53282 -4.12846 0
M  V30 3866 H 369.799 -5.87143 -3.71871 0
M  V30 3867 H 372.99 -3.79177 -2.74486 0
M  V30 3868 H 373.163 -5.39318 -3.59221 0
M  V30 3869 N 366.569 1.04691 -1.17803 0
M  V30 3870 C 367.985 1.29963 -0.926379 0
M  V30 3871 C 368.185 1.97251 0.411635 0
M  V30 3872 O 367.241 2.24922 1.14744 0
M  V30 3873 C 368.554 2.16447 -2.08737 0
M  V30 3874 C 370.102 2.29814 -2.12496 0
M  V30 3875 C 370.577 3.19661 -3.27995 0
M  V30 3876 N 372.068 3.27247 -3.27816 0
M  V30 3877 C 372.803 3.96906 -4.13827 0
M  V30 3878 N 372.299 4.6895 -5.09959 0
M  V30 3879 N 374.092 3.93122 -4.01761 0
M  V30 3880 H 366.243 0.594182 -2.0392 0
M  V30 3881 H 368.506 0.324649 -0.890678 0
M  V30 3882 H 368.212 1.74304 -3.05469 0
M  V30 3883 H 368.086 3.17103 -2.04268 0
M  V30 3884 H 370.473 2.71196 -1.16347 0
M  V30 3885 H 370.554 1.2877 -2.21025 0
M  V30 3886 H 370.198 2.78991 -4.24413 0
M  V30 3887 H 370.128 4.20722 -3.16703 0
M  V30 3888 H 372.619 2.75921 -2.58217 0
M  V30 3889 H 372.932 5.19679 -5.71974 0
M  V30 3890 H 371.277 4.67875 -5.13924 0
M  V30 3891 H 374.468 3.35967 -3.2595 0
M  V30 3892 H 374.641 4.47139 -4.6901 0
M  V30 3893 N 368.047 0.979072 1.23499 0
M  V30 3894 C 369.458 0.684391 1.73704 0
M  V30 3895 C 369.809 -0.799448 1.79174 0
M  V30 3896 O 368.934 -1.62531 1.42873 0
M  V30 3897 C 369.529 1.23564 3.15464 0
M  V30 3898 C 368.088 0.99063 3.6313 0
M  V30 3899 C 367.235 1.36416 2.41425 0
M  V30 3900 H 370.186 1.15307 1.09041 0
M  V30 3901 H 370.207 0.607417 3.7562 0
M  V30 3902 H 369.719 2.31561 3.1145 0
M  V30 3903 H 367.82 -0.0733136 3.72528 0
M  V30 3904 H 367.933 1.64427 4.5 0
M  V30 3905 H 366.297 0.782616 2.42378 0
M  V30 3906 H 367.08 2.45387 2.40083 0
M  V30 3907 N 369.525 -1.3858 0.750561 0
M  V30 3908 C 370.473 -2.32339 0.110162 0
M  V30 3909 C 371.467 -1.53864 -0.708674 0
M  V30 3910 O 372.673 -1.69417 -0.608112 0
M  V30 3911 H 369.048 -0.751812 0.0168275 0
M  V30 3912 H 371.019 -2.83959 0.917053 0
M  V30 3913 C 369.768 -3.39043 -0.771067 0
M  V30 3914 H 369.091 -3.99517 -0.150374 0
M  V30 3915 H 370.531 -4.07061 -1.1865 0
M  V30 3916 C 368.99 -2.77365 -1.91234 0
M  V30 3917 O 369.52 -2.66434 -3.00626 0
M  V30 3918 N 367.726 -2.35219 -1.70646 0
M  V30 3919 H 367.273 -2.4431 -0.81673 0
M  V30 3920 H 367.231 -1.94294 -2.47178 0
M  V30 3921 N 371.003 -0.499398 -1.49478 0
M  V30 3922 C 372.251 0.0455996 -2.02049 0
M  V30 3923 C 372.572 1.37633 -1.38138 0
M  V30 3924 O 371.842 1.8842 -0.536166 0
M  V30 3925 H 370.422 0.0198416 -0.746736 0
M  V30 3926 H 373.084 -0.656274 -1.83519 0
M  V30 3927 H 372.18 0.176445 -3.11601 0
M  V30 3928 N 372.481 1.55866 -0.233164 0
M  V30 3929 C 373.411 2.23783 0.666599 0
M  V30 3930 C 374.392 1.21343 1.19205 0
M  V30 3931 O 375.577 1.4996 1.23392 0
M  V30 3932 C 372.707 2.92671 1.86978 0
M  V30 3933 C 371.661 4.01682 1.47768 0
M  V30 3934 C 370.987 4.57926 2.76058 0
M  V30 3935 C 372.287 5.18126 0.658993 0
M  V30 3936 H 373.981 2.99232 0.100306 0
M  V30 3937 H 371.527 1.43924 0.046804 0
M  V30 3938 H 373.48 3.3888 2.50476 0
M  V30 3939 H 372.204 2.14688 2.46123 0
M  V30 3940 H 370.863 3.56222 0.866106 0
M  V30 3941 H 370.511 3.76659 3.33372 0
M  V30 3942 H 370.211 5.31505 2.50552 0
M  V30 3943 H 371.735 5.06859 3.40479 0
M  V30 3944 H 373.149 5.60644 1.19795 0
M  V30 3945 H 371.546 5.98009 0.500552 0
M  V30 3946 H 372.616 4.83763 -0.331856 0
M  V30 3947 N 373.959 -0.0401083 1.57549 0
M  V30 3948 C 375.207 -0.731677 1.8839 0
M  V30 3949 C 375.528 -1.76481 0.829425 0
M  V30 3950 O 374.798 -1.95411 -0.1383 0
M  V30 3951 H 373.378 -0.273225 0.695239 0
M  V30 3952 H 376.04 -0.00867725 1.94898 0
M  V30 3953 H 375.136 -1.22816 2.86919 0
M  V30 3954 N 375.437 -1.54477 -0.31217 0
M  V30 3955 C 376.848 -1.64344 -0.885891 0
M  V30 3956 C 377.199 -0.54485 -1.88483 0
M  V30 3957 O 376.324 0.320387 -2.14015 0
M  V30 3958 C 376.919 -2.97908 -1.61357 0
M  V30 3959 C 375.478 -3.09933 -2.13585 0
M  V30 3960 C 374.625 -2.59971 -0.964897 0
M  V30 3961 H 377.576 -1.58448 -0.0894528 0
M  V30 3962 H 377.597 -2.88706 -2.47848 0
M  V30 3963 H 377.109 -3.77845 -0.886277 0
M  V30 3964 H 375.21 -2.34694 -2.89395 0
M  V30 3965 H 375.323 -4.15916 -2.37804 0
M  V30 3966 H 373.687 -2.16147 -1.34731 0
M  V30 3967 H 374.47 -3.42376 -0.251742 0
M  V30 3968 N 376.915 0.57481 -1.46744 0
M  V30 3969 C 377.825 1.711 -1.60505 0
M  V30 3970 C 378.841 1.67008 -0.488307 0
M  V30 3971 O 380.017 1.86774 -0.753495 0
M  V30 3972 C 377.082 3.07608 -1.59932 0
M  V30 3973 C 376.143 3.22904 -2.82898 0
M  V30 3974 C 375.376 4.529 -2.82343 0
M  V30 3975 O 375.599 5.37278 -1.91542 0
M  V30 3976 O 374.533 4.71611 -3.73987 0
M  V30 3977 H 378.359 1.62436 -2.56609 0
M  V30 3978 H 375.944 0.742779 -1.29627 0
M  V30 3979 H 377.826 3.88877 -1.62336 0
M  V30 3980 H 376.501 3.16692 -0.669898 0
M  V30 3981 H 375.408 2.41099 -2.86046 0
M  V30 3982 H 376.741 3.18715 -3.75076 0
M  V30 3983 N 378.394 1.34581 0.820102 0
M  V30 3984 C 379.81 1.14325 1.11364 0
M  V30 3985 C 380.01 -0.0533648 2.01429 0
M  V30 3986 O 379.066 -0.728044 2.41776 0
M  V30 3987 C 380.379 2.43983 1.75764 0
M  V30 3988 C 381.927 2.50065 1.88246 0
M  V30 3989 C 382.402 3.79732 2.56061 0
M  V30 3990 N 383.893 3.80908 2.63558 0
M  V30 3991 C 384.628 4.77961 3.16766 0
M  V30 3992 N 384.124 5.85397 3.70517 0
M  V30 3993 N 385.917 4.65413 3.15194 0
M  V30 3994 H 378.068 2.11246 0.221096 0
M  V30 3995 H 380.331 0.934289 0.160649 0
M  V30 3996 H 380.037 3.31651 1.1705 0
M  V30 3997 H 379.911 2.57531 2.75604 0
M  V30 3998 H 382.298 1.62834 2.46108 0
M  V30 3999 H 382.379 2.40442 0.873006 0
M  V30 4000 H 382.023 4.67354 1.98853 0
M  V30 4001 H 381.953 3.86639 3.57516 0
M  V30 4002 H 384.444 3.03274 2.25463 0
M  V30 4003 H 384.757 6.55463 4.09376 0
M  V30 4004 H 383.102 5.89107 3.68752 0
M  V30 4005 H 386.293 3.80627 2.72471 0
M  V30 4006 H 386.466 5.41216 3.56356 0
M  V30 4007 N 379.872 -1.04064 1.18357 0
M  V30 4008 C 381.097 -1.81454 1.00445 0
M  V30 4009 C 381.522 -1.82823 -0.442423 0
M  V30 4010 O 380.88 -1.24555 -1.31741 0
M  V30 4011 C 380.928 -3.24925 1.56384 0
M  V30 4012 O 380.032 -4.04856 0.785209 0
M  V30 4013 H 379.373 -0.560604 0.355835 0
M  V30 4014 H 381.903 -1.31059 1.57114 0
M  V30 4015 H 381.913 -3.75702 1.59097 0
M  V30 4016 H 380.588 -3.23244 2.61699 0
M  V30 4017 H 379.165 -3.63537 0.830399 0
M  V30 4018 N 381.35 -0.985608 -1.22978 0
M  V30 4019 C 382.313 -0.535071 -2.22867 0
M  V30 4020 C 383.313 0.378123 -1.56291 0
M  V30 4021 O 384.503 0.171092 -1.73358 0
M  V30 4022 C 381.635 0.222702 -3.40172 0
M  V30 4023 H 382.828 -1.41835 -2.6424 0
M  V30 4024 H 380.381 -0.772042 -1.35901 0
M  V30 4025 H 381.116 1.12229 -3.04262 0
M  V30 4026 H 380.901 -0.43288 -3.89703 0
M  V30 4027 H 382.391 0.526335 -4.1427 0
M  V30 4028 N 382.828 1.3818 -0.7579 0
M  V30 4029 C 384.076 1.99624 -0.315361 0
M  V30 4030 C 384.397 1.60464 1.10799 0
M  V30 4031 O 383.667 0.863507 1.75842 0
M  V30 4032 H 382.247 0.73831 -0.113611 0
M  V30 4033 H 384.909 1.68878 -0.972952 0
M  V30 4034 H 384.005 3.09754 -0.381931 0
M  V30 4035 N 384.306 0.507319 1.49211 0
M  V30 4036 C 385.717 0.0611118 1.866 0
M  V30 4037 C 386.068 -1.35488 1.41907 0
M  V30 4038 O 385.193 -2.0108 0.799726 0
M  V30 4039 C 385.788 0.104125 3.3864 0
M  V30 4040 C 384.347 -0.28677 3.75306 0
M  V30 4041 C 383.494 0.473893 2.73221 0
M  V30 4042 H 386.445 0.719775 1.41439 0
M  V30 4043 H 386.466 -0.689672 3.74198 0
M  V30 4044 H 385.978 1.13482 3.71138 0
M  V30 4045 H 384.079 -1.32046 3.48417 0
M  V30 4046 H 384.192 0.0370745 4.79086 0
M  V30 4047 H 382.556 -0.0770644 2.54583 0
M  V30 4048 H 383.339 1.50478 3.08563 0
M  V30 4049 N 385.784 -1.5574 0.241426 0
M  V30 4050 C 387.032 -1.98417 -0.384075 0
M  V30 4051 C 387.353 -1.13078 -1.58866 0
M  V30 4052 O 386.623 -0.212312 -1.94746 0
M  V30 4053 H 385.203 -0.732813 -0.144894 0
M  V30 4054 H 387.865 -1.9193 0.338943 0
M  V30 4055 H 386.961 -3.04219 -0.696939 0
M  V30 4056 N 387.262 0.0317525 -1.57568 0
M  V30 4057 C 388.51 0.721676 -1.88776 0
M  V30 4058 C 388.831 1.76039 -0.838772 0
M  V30 4059 O 388.101 1.95482 0.127935 0
M  V30 4060 H 386.681 0.269534 -0.696678 0
M  V30 4061 H 389.343 -0.00165879 -1.949 0
M  V30 4062 H 388.439 1.21293 -2.87566 0
M  V30 4063 N 388.74 1.54641 0.303973 0
M  V30 4064 C 389.703 1.84646 1.35789 0
M  V30 4065 C 390.703 0.7192 1.4382 0
M  V30 4066 O 391.893 0.987491 1.43507 0
M  V30 4067 C 389.025 2.02407 2.74307 0
M  V30 4068 H 390.218 2.78829 1.10429 0
M  V30 4069 H 387.771 1.46658 0.540487 0
M  V30 4070 H 388.506 1.10502 3.04893 0
M  V30 4071 H 388.291 2.84453 2.69868 0
M  V30 4072 H 389.781 2.27002 3.50514 0
M  V30 4073 N 390.218 -0.567019 1.47046 0
M  V30 4074 C 391.128 -1.70247 1.6141 0
M  V30 4075 C 392.144 -1.66746 0.497157 0
M  V30 4076 O 393.32 -1.86371 0.763389 0
M  V30 4077 C 390.385 -3.06756 1.61561 0
M  V30 4078 C 389.446 -3.21399 2.84607 0
M  V30 4079 C 388.679 -4.51396 2.84741 0
M  V30 4080 O 388.902 -5.36255 1.94388 0
M  V30 4081 O 387.836 -4.69621 3.76483 0
M  V30 4082 H 391.662 -1.61073 2.57467 0
M  V30 4083 H 389.247 -0.735894 1.30019 0
M  V30 4084 H 391.129 -3.8801 1.64396 0
M  V30 4085 H 389.804 -3.16333 0.686684 0
M  V30 4086 H 388.711 -2.39579 2.8732 0
M  V30 4087 H 390.044 -3.16721 3.76761 0
M  V30 4088 N 391.696 -1.35014 -0.812953 0
M  V30 4089 C 392.659 -1.27292 -1.90602 0
M  V30 4090 C 393.659 -0.185817 -1.59723 0
M  V30 4091 O 394.849 -0.439102 -1.68575 0
M  V30 4092 C 391.981 -0.967676 -3.26877 0
M  V30 4093 H 393.174 -2.24479 -1.9887 0
M  V30 4094 H 390.727 -1.19446 -1.00808 0
M  V30 4095 H 391.462 0.0005954 -3.243 0
M  V30 4096 H 391.247 -1.75412 -3.50675 0
M  V30 4097 H 392.737 -0.939085 -4.06904 0
M  V30 4098 N 393.175 1.03435 -1.18907 0
M  V30 4099 C 394.085 2.15075 -0.937015 0
M  V30 4100 C 395.101 1.73706 0.101085 0
M  V30 4101 O 396.277 2.01232 -0.0822948 0
M  V30 4102 C 393.342 3.43458 -0.473057 0
M  V30 4103 C 392.403 3.99172 -1.57989 0
M  V30 4104 C 391.636 5.21427 -1.13797 0
M  V30 4105 O 391.859 5.704 0.000725941 0
M  V30 4106 O 390.793 5.69837 -1.9383 0
M  V30 4107 H 394.619 2.39198 -1.87131 0
M  V30 4108 H 392.204 1.13506 -0.971427 0
M  V30 4109 H 394.086 4.20811 -0.222702 0
M  V30 4110 H 392.761 3.20793 0.432869 0
M  V30 4111 H 391.668 3.23178 -1.88433 0
M  V30 4112 H 393.001 4.2619 -2.46217 0
M  V30 4113 N 394.653 0.992116 1.22453 0
M  V30 4114 C 396.064 0.702776 1.72968 0
M  V30 4115 C 396.415 -0.780399 1.80012 0
M  V30 4116 O 395.54 -1.61007 1.44589 0
M  V30 4117 C 396.135 1.26903 3.14135 0
M  V30 4118 C 394.694 1.02909 3.62059 0
M  V30 4119 C 393.841 1.38969 2.39964 0
M  V30 4120 H 396.792 1.16457 1.07812 0
M  V30 4121 H 396.813 0.647223 3.74955 0
M  V30 4122 H 396.325 2.34851 3.08977 0
M  V30 4123 H 394.426 -0.0337979 3.72585 0
M  V30 4124 H 394.539 1.69191 4.48231 0
M  V30 4125 H 392.903 0.808279 2.41535 0
M  V30 4126 H 393.686 2.4792 2.37467 0
M  V30 4127 N 396.131 -1.37776 0.765217 0
M  V30 4128 C 397.061 -2.32945 0.160953 0
M  V30 4129 C 398.042 -1.55454 -0.690516 0
M  V30 4130 O 399.227 -1.83721 -0.629318 0
M  V30 4131 C 396.357 -3.39669 -0.724031 0
M  V30 4132 C 395.311 -4.27992 0.0256173 0
M  V30 4133 C 394.637 -5.25673 -0.978383 0
M  V30 4134 C 395.937 -5.08309 1.20082 0
M  V30 4135 H 397.631 -2.83728 0.955969 0
M  V30 4136 H 395.177 -1.36416 0.461149 0
M  V30 4137 H 397.13 -4.05219 -1.15652 0
M  V30 4138 H 395.854 -2.87396 -1.5515 0
M  V30 4139 H 394.513 -3.63964 0.438812 0
M  V30 4140 H 394.161 -4.69682 -1.80022 0
M  V30 4141 H 393.861 -5.85625 -0.481378 0
M  V30 4142 H 395.385 -5.94098 -1.40995 0
M  V30 4143 H 396.799 -5.67034 0.845307 0
M  V30 4144 H 395.196 -5.77554 1.62947 0
M  V30 4145 H 396.266 -4.41365 2.00811 0
M  V30 4146 N 397.609 -0.515225 -1.4894 0
M  V30 4147 C 399.02 -0.0710067 -1.86565 0
M  V30 4148 C 399.371 1.34733 -1.42623 0
M  V30 4149 O 398.496 2.00653 -0.810379 0
M  V30 4150 C 399.091 -0.122083 -3.3858 0
M  V30 4151 C 397.65 0.266863 -3.75453 0
M  V30 4152 C 396.797 -0.488376 -2.72966 0
M  V30 4153 H 399.748 -0.727266 -1.41055 0
M  V30 4154 H 399.769 0.669818 -3.74558 0
M  V30 4155 H 399.281 -1.15448 -3.70531 0
M  V30 4156 H 397.382 1.30196 -3.49113 0
M  V30 4157 H 397.495 -0.0624811 -4.79059 0
M  V30 4158 H 395.859 0.0635622 -2.54621 0
M  V30 4159 H 396.642 -1.52113 -3.07761 0
M  V30 4160 N 399.087 1.5561 -0.249682 0
M  V30 4161 C 400.315 2.03411 0.378352 0
M  V30 4162 C 400.73 1.12886 1.51335 0
M  V30 4163 O 400.087 0.143833 1.81932 0
M  V30 4164 C 400.138 3.50537 0.88351 0
M  V30 4165 O 399.859 4.37614 -0.20626 0
M  V30 4166 C 401.36 4.14113 1.58195 0
M  V30 4167 H 398.58 0.664994 0.08958 0
M  V30 4168 H 401.124 2.01044 -0.374357 0
M  V30 4169 H 399.279 3.5343 1.58639 0
M  V30 4170 H 399.693 5.24199 0.177782 0
M  V30 4171 H 401.167 5.18741 1.8871 0
M  V30 4172 H 401.644 3.60767 2.50487 0
M  V30 4173 H 402.25 4.15151 0.923573 0
M  V30 4174 N 400.565 -0.0233959 1.57583 0
M  V30 4175 C 401.497 -1.04994 2.03737 0
M  V30 4176 C 402.51 -1.32125 0.951152 0
M  V30 4177 O 403.699 -1.29512 1.22837 0
M  V30 4178 C 400.799 -2.39026 2.40249 0
M  V30 4179 C 399.972 -2.31171 3.7132 0
M  V30 4180 C 399.031 -3.47698 3.94959 0
M  V30 4181 O 398.057 -3.26937 4.65941 0
M  V30 4182 N 399.259 -4.6976 3.41037 0
M  V30 4183 H 402.024 -0.656507 2.92421 0
M  V30 4184 H 399.585 -0.211235 1.60516 0
M  V30 4185 H 401.577 -3.15712 2.53196 0
M  V30 4186 H 400.147 -2.70194 1.57207 0
M  V30 4187 H 399.367 -1.39547 3.68674 0
M  V30 4188 H 400.655 -2.23071 4.57293 0
M  V30 4189 H 400.053 -4.89528 2.83512 0
M  V30 4190 H 398.61 -5.43791 3.59353 0
M  V30 4191 N 402.043 -1.548 -0.295768 0
M  V30 4192 C 402.973 -1.89115 -1.36959 0
M  V30 4193 C 403.954 -0.75059 -1.52644 0
M  V30 4194 O 405.139 -1.00678 -1.66065 0
M  V30 4195 C 402.269 -2.14307 -2.73295 0
M  V30 4196 C 401.223 -3.30151 -2.72368 0
M  V30 4197 C 400.549 -3.40772 -4.12042 0
M  V30 4198 C 401.849 -4.67126 -2.33646 0
M  V30 4199 H 403.543 -2.79053 -1.08488 0
M  V30 4200 H 401.089 -1.34266 -0.520443 0
M  V30 4201 H 403.042 -2.36898 -3.48507 0
M  V30 4202 H 401.766 -1.21145 -3.03301 0
M  V30 4203 H 400.425 -3.0749 -1.99613 0
M  V30 4204 H 400.073 -2.45117 -4.39234 0
M  V30 4205 H 399.773 -4.18645 -4.12322 0
M  V30 4206 H 401.297 -3.6563 -4.89027 0
M  V30 4207 H 402.711 -4.89414 -2.98575 0
M  V30 4208 H 401.108 -5.47751 -2.45129 0
M  V30 4209 H 402.178 -4.67489 -1.28772 0
M  V30 4210 N 403.521 0.559213 -1.47345 0
M  V30 4211 C 404.469 1.68747 -1.60085 0
M  V30 4212 C 405.463 1.628 -0.46825 0
M  V30 4213 O 406.669 1.68009 -0.645977 0
M  V30 4214 H 403.044 0.558329 -0.503759 0
M  V30 4215 H 405.015 1.55138 -2.54902 0
M  V30 4216 C 403.764 3.07103 -1.63042 0
M  V30 4217 H 403.087 3.12361 -2.49541 0
M  V30 4218 H 404.527 3.85743 -1.76006 0
M  V30 4219 C 402.986 3.34935 -0.363357 0
M  V30 4220 O 403.516 3.98102 0.536416 0
M  V30 4221 N 401.722 2.89574 -0.244 0
M  V30 4222 H 401.269 2.38348 -0.977133 0
M  V30 4223 H 401.227 3.08566 0.602836 0
M  V30 4224 N 404.999 1.35443 0.805782 0
M  V30 4225 C 406.247 1.28507 1.55982 0
M  V30 4226 C 406.568 -0.140046 1.94496 0
M  V30 4227 O 405.838 -1.07666 1.63661 0
M  V30 4228 H 404.418 0.472676 0.578434 0
M  V30 4229 H 407.08 1.69555 0.961098 0
M  V30 4230 H 406.176 1.90148 2.47488 0
M  V30 4231 N 406.477 -1.02803 1.19454 0
M  V30 4232 C 407.44 -2.09264 0.934955 0
M  V30 4233 C 408.44 -1.60576 -0.0849015 0
M  V30 4234 O 409.63 -1.73554 0.149933 0
M  V30 4235 C 406.762 -3.38482 0.40531 0
M  V30 4236 H 407.955 -2.33726 1.87916 0
M  V30 4237 H 405.508 -1.19426 1.00832 0
M  V30 4238 H 406.243 -3.19689 -0.544899 0
M  V30 4239 H 406.028 -3.75142 1.14065 0
M  V30 4240 H 407.518 -4.16894 0.242806 0
M  V30 4241 N 407.956 -0.998596 -1.21925 0
M  V30 4242 C 409.367 -0.711939 -1.72593 0
M  V30 4243 C 409.718 0.770842 -1.80423 0
M  V30 4244 O 408.843 1.60237 -1.4544 0
M  V30 4245 C 409.438 -1.28567 -3.13458 0
M  V30 4246 C 407.997 -1.04828 -3.61508 0
M  V30 4247 C 407.144 -1.4024 -2.39224 0
M  V30 4248 H 410.095 -1.17027 -1.07193 0
M  V30 4249 H 410.116 -0.667098 -3.74607 0
M  V30 4250 H 409.628 -2.36486 -3.07727 0
M  V30 4251 H 407.729 0.0140383 -3.72597 0
M  V30 4252 H 407.842 -1.71566 -4.47328 0
M  V30 4253 H 406.206 -0.821077 -2.41103 0
M  V30 4254 H 406.989 -2.49176 -2.36149 0
M  V30 4255 N 409.434 1.37368 -0.772513 0
M  V30 4256 C 410.682 1.99279 -0.336516 0
M  V30 4257 C 411.003 1.6163 1.09091 0
M  V30 4258 O 410.273 0.882109 1.74916 0
M  V30 4259 H 408.853 0.737063 -0.121435 0
M  V30 4260 H 411.515 1.67836 -0.990809 0
M  V30 4261 H 410.611 3.09332 -0.414763 0
M  V30 4262 N 410.912 0.523116 1.48665 0
M  V30 4263 C 411.822 -0.247406 2.33292 0
M  V30 4264 C 412.838 -0.945769 1.46052 0
M  V30 4265 O 414.014 -0.922253 1.79043 0
M  V30 4266 C 411.079 -1.28487 3.22012 0
M  V30 4267 C 410.14 -0.597592 4.2512 0
M  V30 4268 C 409.373 -1.58563 5.09601 0
M  V30 4269 O 409.596 -2.81763 4.95949 0
M  V30 4270 O 408.53 -1.12879 5.91221 0
M  V30 4271 H 412.356 0.445869 3.00409 0
M  V30 4272 H 409.941 0.284128 1.46673 0
M  V30 4273 H 411.823 -1.88459 3.7691 0
M  V30 4274 H 410.498 -1.96068 2.57564 0
M  V30 4275 H 409.405 0.0424407 3.74076 0
M  V30 4276 H 410.738 0.0361517 4.92187 0
M  V30 4277 N 412.39 -1.55475 0.257931 0
M  V30 4278 C 413.801 -1.8511 -0.243135 0
M  V30 4279 C 414.152 -1.17986 -1.5676 0
M  V30 4280 O 413.277 -0.462102 -2.11409 0
M  V30 4281 C 413.872 -3.35826 -0.447929 0
M  V30 4282 C 412.431 -3.65647 -0.893245 0
M  V30 4283 C 411.578 -2.7729 0.0232965 0
M  V30 4284 H 414.529 -1.51261 0.480199 0
M  V30 4285 H 414.55 -3.58002 -1.28898 0
M  V30 4286 H 414.062 -3.84652 0.516196 0
M  V30 4287 H 412.163 -3.22308 -1.86945 0
M  V30 4288 H 412.276 -4.73312 -0.742469 0
M  V30 4289 H 410.64 -2.49942 -0.490021 0
M  V30 4290 H 411.423 -3.28926 0.982994 0
M  V30 4291 N 413.868 0.0150385 -1.57593 0
M  V30 4292 C 414.831 0.995996 -2.06428 0
M  V30 4293 C 415.831 1.2818 -0.970903 0
M  V30 4294 O 417.021 1.22949 -1.23406 0
M  V30 4295 C 414.153 2.32506 -2.49307 0
M  V30 4296 H 415.346 0.573873 -2.94358 0
M  V30 4297 H 412.899 0.262186 -1.54085 0
M  V30 4298 H 413.634 2.79438 -1.64575 0
M  V30 4299 H 413.419 2.13087 -3.29145 0
M  V30 4300 H 414.909 3.02906 -2.87468 0
M  V30 4301 N 415.346 1.54954 0.287554 0
M  V30 4302 C 416.757 1.65732 0.859634 0
M  V30 4303 C 417.108 0.574767 1.87592 0
M  V30 4304 O 416.233 -0.286299 2.14498 0
M  V30 4305 C 416.828 3.00438 1.56597 0
M  V30 4306 C 415.387 3.13292 2.08627 0
M  V30 4307 C 414.534 2.61473 0.923416 0
M  V30 4308 H 417.485 1.5857 0.0642338 0
M  V30 4309 H 417.506 2.92613 2.43224 0
M  V30 4310 H 417.018 3.79207 0.826053 0
M  V30 4311 H 415.119 2.39268 2.85625 0
M  V30 4312 H 415.232 4.19647 2.31157 0
M  V30 4313 H 413.596 2.18264 1.31275 0
M  V30 4314 H 414.379 3.42733 0.197241 0
M  V30 4315 N 416.824 -0.551391 1.4764 0
M  V30 4316 C 417.787 -1.64007 1.60107 0
M  V30 4317 C 418.787 -1.53601 0.47576 0
M  V30 4318 O 419.977 -1.57655 0.740988 0
M  V30 4319 C 417.109 -3.03569 1.55108 0
M  V30 4320 H 418.302 -1.543 2.57161 0
M  V30 4321 H 415.855 -0.771776 1.35917 0
M  V30 4322 H 416.59 -3.18804 0.594519 0
M  V30 4323 H 416.375 -3.12532 2.36783 0
M  V30 4324 H 417.865 -3.82762 1.66982 0
M  V30 4325 N 418.302 -1.35869 -0.798587 0
M  V30 4326 C 419.55 -1.29332 -1.55298 0
M  V30 4327 C 419.871 0.129729 -1.94568 0
M  V30 4328 O 419.141 1.06796 -1.6423 0
M  V30 4329 H 417.721 -0.475737 -0.57592 0
M  V30 4330 H 420.383 -1.70062 -0.952093 0
M  V30 4331 H 419.479 -1.91458 -2.46476 0
M  V30 4332 N 419.78 1.02168 -1.19998 0
M  V30 4333 C 421.191 1.57135 -1.00825 0
M  V30 4334 C 421.542 1.91276 0.436818 0
M  V30 4335 O 420.667 1.71679 1.3174 0
M  V30 4336 C 421.262 2.85514 -1.82393 0
M  V30 4337 C 419.821 3.37027 -1.67601 0
M  V30 4338 C 418.968 2.10388 -1.80644 0
M  V30 4339 H 421.919 0.846106 -1.34264 0
M  V30 4340 H 421.94 3.56711 -1.32429 0
M  V30 4341 H 421.452 2.60634 -2.87561 0
M  V30 4342 H 419.553 3.66878 -0.650485 0
M  V30 4343 H 419.666 4.09572 -2.4857 0
M  V30 4344 H 418.03 2.22601 -1.23778 0
M  V30 4345 H 418.813 1.8794 -2.87286 0
M  V30 4346 N 421.258 1.00505 1.21394 0
M  V30 4347 C 422.674 0.717873 1.42544 0
M  V30 4348 C 422.874 -0.706936 1.88692 0
M  V30 4349 O 421.93 -1.47627 2.04847 0
M  V30 4350 C 423.243 1.73377 2.45684 0
M  V30 4351 C 424.791 1.75059 2.59467 0
M  V30 4352 C 425.266 2.75545 3.6584 0
M  V30 4353 N 426.757 2.74213 3.73311 0
M  V30 4354 C 427.492 3.48626 4.55245 0
M  V30 4355 N 426.988 4.32678 5.41075 0
M  V30 4356 N 428.781 3.37276 4.49668 0
M  V30 4357 H 420.932 1.92506 0.897503 0
M  V30 4358 H 423.195 0.830919 0.456375 0
M  V30 4359 H 422.901 2.75395 2.18748 0
M  V30 4360 H 422.775 1.53647 3.44489 0
M  V30 4361 H 425.162 0.737337 2.8574 0
M  V30 4362 H 425.243 1.98861 1.60897 0
M  V30 4363 H 424.887 3.77028 3.40313 0
M  V30 4364 H 424.817 2.49009 4.64007 0
M  V30 4365 H 427.308 2.13234 3.11993 0
M  V30 4366 H 427.621 4.86253 6.00648 0
M  V30 4367 H 425.966 4.3676 5.40616 0
M  V30 4368 H 429.157 2.71043 3.81646 0
M  V30 4369 H 429.33 3.95524 5.13288 0
M  V30 4370 N 422.737 -1.36956 0.779787 0
M  V30 4371 C 424.014 -1.93697 0.272156 0
M  V30 4372 C 424.394 -1.71267 -1.23413 0
M  V30 4373 O 423.742 -1.06607 -2.02107 0
M  V30 4374 C 423.952 -3.42812 0.654291 0
M  V30 4375 C 425.3 -4.19921 0.628602 0
M  V30 4376 O 426.324 -3.51209 0.594172 0
M  V30 4377 O 425.183 -5.42465 0.662864 0
M  V30 4378 H 422.277 -0.824447 0.0649286 0
M  V30 4379 H 424.823 -1.46196 0.861682 0
M  V30 4380 H 423.595 -3.52754 1.69353 0
M  V30 4381 H 423.218 -3.97582 0.0381369 0
M  V30 4382 N 424.215 -0.530993 -1.48385 0
M  V30 4383 C 425.443 -0.00134122 -2.069 0
M  V30 4384 C 425.858 1.2805 -1.3874 0
M  V30 4385 O 425.215 1.76204 -0.475244 0
M  V30 4386 C 425.266 0.225256 -3.60798 0
M  V30 4387 O 424.987 -1.0058 -4.26398 0
M  V30 4388 C 426.488 0.795172 -4.3611 0
M  V30 4389 H 423.708 -0.0339704 -0.67014 0
M  V30 4390 H 426.252 -0.736926 -1.90761 0
M  V30 4391 H 424.407 0.910891 -3.76539 0
M  V30 4392 H 424.821 -0.787165 -5.1856 0
M  V30 4393 H 426.295 0.903143 -5.44562 0
M  V30 4394 H 426.772 1.80031 -4.00606 0
M  V30 4395 H 427.378 0.146069 -4.25049 0
M  V30 4396 N 425.693 1.55336 -0.266172 0
M  V30 4397 C 426.97 1.91372 0.404486 0
M  V30 4398 C 427.35 1.18935 1.74407 0
M  V30 4399 O 426.698 0.3132 2.26343 0
M  V30 4400 C 426.908 3.44581 0.553593 0
M  V30 4401 C 428.256 4.16196 0.840618 0
M  V30 4402 O 429.28 3.50426 0.638739 0
M  V30 4403 O 428.139 5.32567 1.22618 0
M  V30 4404 H 425.233 0.797194 0.220025 0
M  V30 4405 H 427.779 1.66813 -0.311664 0
M  V30 4406 H 426.551 3.89357 -0.389498 0
M  V30 4407 H 426.174 3.75065 1.31955 0
M  V30 4408 N 427.171 -0.0066808 1.57599 0
M  V30 4409 C 428.134 -0.985035 2.06953 0
M  V30 4410 C 429.134 -1.27663 0.977687 0
M  V30 4411 O 430.324 -1.22293 1.24057 0
M  V30 4412 C 427.456 -2.3118 2.50536 0
M  V30 4413 H 428.649 -0.558255 2.94658 0
M  V30 4414 H 426.202 -0.254011 1.54222 0
M  V30 4415 H 426.937 -2.78561 1.66054 0
M  V30 4416 H 426.722 -2.11338 3.3027 0
M  V30 4417 H 428.212 -3.01377 2.8907 0
M  V30 4418 N 428.649 -1.55105 -0.279332 0
M  V30 4419 C 429.579 -1.90557 -1.34945 0
M  V30 4420 C 430.56 -0.766738 -1.51839 0
M  V30 4421 O 431.745 -1.02434 -1.64988 0
M  V30 4422 C 428.875 -2.17193 -2.71006 0
M  V30 4423 C 427.829 -3.33021 -2.68851 0
M  V30 4424 C 427.155 -3.45123 -4.08405 0
M  V30 4425 C 428.455 -4.69578 -2.28678 0
M  V30 4426 H 430.149 -2.80188 -1.05522 0
M  V30 4427 H 427.695 -1.34811 -0.506173 0
M  V30 4428 H 429.648 -2.40581 -3.45975 0
M  V30 4429 H 428.372 -1.24355 -3.01999 0
M  V30 4430 H 427.031 -3.0959 -1.9634 0
M  V30 4431 H 426.679 -2.49762 -4.3661 0
M  V30 4432 H 426.379 -4.22995 -4.07859 0
M  V30 4433 H 427.903 -3.70796 -4.85121 0
M  V30 4434 H 429.317 -4.92553 -2.93368 0
M  V30 4435 H 427.714 -5.5032 -2.39306 0
M  V30 4436 H 428.784 -4.68828 -1.23807 0
M  V30 4437 N 430.127 0.543554 -1.4793 0
M  V30 4438 C 431.404 1.30458 -1.4574 0
M  V30 4439 C 431.784 2.1048 -0.161692 0
M  V30 4440 O 431.132 2.11831 0.856734 0
M  V30 4441 C 431.342 2.19754 -2.71126 0
M  V30 4442 C 432.69 2.80334 -3.18901 0
M  V30 4443 O 433.714 2.30049 -2.71948 0
M  V30 4444 O 432.573 3.71766 -4.00565 0
M  V30 4445 H 429.667 0.588117 -0.581418 0
M  V30 4446 H 432.213 0.561328 -1.60147 0
M  V30 4447 H 430.985 1.60316 -3.56952 0
M  V30 4448 H 430.608 3.01351 -2.59371 0
M  V30 4449 N 431.605 1.3629 0.791371 0
M  V30 4450 C 432.535 1.33137 1.91825 0
M  V30 4451 C 433.516 0.203168 1.68882 0
M  V30 4452 O 434.701 0.400509 1.90025 0
M  V30 4453 C 431.831 1.11793 3.28816 0
M  V30 4454 C 430.785 2.21417 3.66277 0
M  V30 4455 C 430.111 1.85218 5.01596 0
M  V30 4456 C 431.411 3.63489 3.75064 0
M  V30 4457 H 433.105 2.2743 1.9472 0
M  V30 4458 H 430.651 1.09479 0.935437 0
M  V30 4459 H 432.604 1.08222 4.07266 0
M  V30 4460 H 431.328 0.139501 3.26302 0
M  V30 4461 H 429.987 2.2411 2.90121 0
M  V30 4462 H 429.635 0.859544 4.95602 0
M  V30 4463 H 429.335 2.58611 5.27631 0
M  V30 4464 H 430.859 1.832 5.82469 0
M  V30 4465 H 432.273 3.63034 4.43711 0
M  V30 4466 H 430.67 4.35771 4.12582 0
M  V30 4467 H 431.74 3.98536 2.76219 0
M  V30 4468 N 433.083 -1.0153 1.20538 0
M  V30 4469 C 433.993 -2.13557 0.971113 0
M  V30 4470 C 435.009 -1.73845 -0.0734366 0
M  V30 4471 O 436.185 -2.01075 0.114299 0
M  V30 4472 C 433.25 -3.42661 0.527639 0
M  V30 4473 C 432.311 -3.96608 1.64319 0
M  V30 4474 C 431.544 -5.1955 1.22078 0
M  V30 4475 O 431.767 -5.70329 0.0900198 0
M  V30 4476 O 430.701 -5.66681 2.02871 0
M  V30 4477 H 434.527 -2.3619 1.90913 0
M  V30 4478 H 432.112 -1.11946 0.989362 0
M  V30 4479 H 433.994 -4.20404 0.289621 0
M  V30 4480 H 432.669 -3.21441 -0.381779 0
M  V30 4481 H 431.576 -3.20139 1.93551 0
M  V30 4482 H 432.909 -4.22219 2.52966 0
M  V30 4483 N 434.561 -1.01147 -1.20859 0
M  V30 4484 C 435.471 -0.58686 -2.27141 0
M  V30 4485 C 436.487 0.373198 -1.69951 0
M  V30 4486 O 437.663 0.235423 -2.00019 0
M  V30 4487 C 434.728 0.0733602 -3.46622 0
M  V30 4488 C 433.789 -0.931995 -4.19061 0
M  V30 4489 C 433.022 -0.303186 -5.32838 0
M  V30 4490 O 433.245 0.898395 -5.63281 0
M  V30 4491 O 432.179 -1.01735 -5.9324 0
M  V30 4492 H 436.005 -1.47155 -2.65667 0
M  V30 4493 H 433.59 -0.780689 -1.2738 0
M  V30 4494 H 435.472 0.442333 -4.19072 0
M  V30 4495 H 434.147 0.932329 -3.09983 0
M  V30 4496 H 433.054 -1.35224 -3.48805 0
M  V30 4497 H 434.387 -1.76076 -4.59628 0
M  V30 4498 N 436.039 1.36541 -0.78704 0
M  V30 4499 C 437.264 2.0409 -0.369053 0
M  V30 4500 C 437.689 1.58957 1.00569 0
M  V30 4501 O 437.047 0.756926 1.64743 0
M  V30 4502 C 437.095 3.57924 -0.438466 0
M  V30 4503 O 436.199 4.08642 0.555479 0
M  V30 4504 H 435.54 0.645142 -0.157122 0
M  V30 4505 H 438.07 1.74545 -1.06749 0
M  V30 4506 H 438.08 4.06887 -0.301218 0
M  V30 4507 H 436.755 3.90127 -1.44132 0
M  V30 4508 H 435.332 3.70958 0.380088 0
M  V30 4509 N 437.518 0.538854 1.48102 0
M  V30 4510 C 438.743 0.0102694 2.07397 0
M  V30 4511 C 439.168 -1.26562 1.39153 0
M  V30 4512 O 438.526 -1.75357 0.460387 0
M  V30 4513 C 438.574 -0.187602 3.60112 0
M  V30 4514 O 437.678 -1.25432 3.92862 0
M  V30 4515 H 437.019 0.0430975 0.6626 0
M  V30 4516 H 439.549 0.749301 1.90385 0
M  V30 4517 H 439.559 -0.407517 4.0596 0
M  V30 4518 H 438.234 0.744386 4.09184 0
M  V30 4519 H 436.811 -1.01636 3.58782 0
M  V30 4520 N 438.996 -1.55193 0.274407 0
M  V30 4521 C 440.221 -2.04446 -0.348824 0
M  V30 4522 C 440.646 -1.15149 -1.48735 0
M  V30 4523 O 440.004 -0.149952 -1.80679 0
M  V30 4524 C 440.052 -3.51431 -0.808009 0
M  V30 4525 O 439.156 -3.65225 -1.91531 0
M  V30 4526 H 438.497 -0.66006 -0.0722276 0
M  V30 4527 H 441.027 -2.00481 0.408498 0
M  V30 4528 H 441.037 -3.92781 -1.10395 0
M  V30 4529 H 439.712 -4.15892 0.0249865 0
M  V30 4530 H 438.289 -3.35778 -1.62196 0
M  V30 4531 N 440.474 -0.00167713 -1.576 0
M  V30 4532 C 441.699 0.69739 -1.95323 0
M  V30 4533 C 442.124 1.6642 -0.876706 0
M  V30 4534 O 441.482 1.80548 0.165007 0
M  V30 4535 C 441.53 1.40403 -3.32144 0
M  V30 4536 O 440.634 2.5185 -3.26566 0
M  V30 4537 H 439.975 0.185373 -0.637599 0
M  V30 4538 H 442.505 -0.0553665 -2.04525 0
M  V30 4539 H 442.515 1.76707 -3.67748 0
M  V30 4540 H 441.19 0.695167 -4.10049 0
M  V30 4541 H 439.767 2.17861 -3.0264 0
M  V30 4542 N 441.952 1.55251 0.271103 0
M  V30 4543 C 443.229 1.66664 1.02384 0
M  V30 4544 C 443.609 0.534363 2.04225 0
M  V30 4545 O 442.957 -0.465337 2.23712 0
M  V30 4546 C 443.167 3.05961 1.67895 0
M  V30 4547 C 444.515 3.63772 2.18986 0
M  V30 4548 O 445.539 3.08606 1.77878 0
M  V30 4549 O 444.398 4.60429 2.94393 0
M  V30 4550 H 441.492 0.676957 0.475035 0
M  V30 4551 H 444.038 1.67589 0.26681 0
M  V30 4552 H 442.81 3.79815 0.941071 0
M  V30 4553 H 442.433 3.08943 2.5028 0
M  V30 4554 N 443.43 -0.535701 1.48216 0
M  V30 4555 C 444.38 -1.63688 1.58714 0
M  V30 4556 C 445.364 -1.54635 0.444615 0
M  V30 4557 O 446.556 -1.62753 0.695742 0
M  V30 4558 C 443.685 -3.02423 1.62466 0
M  V30 4559 C 442.771 -3.16601 2.82178 0
M  V30 4560 N 443.162 -3.00771 4.06658 0
M  V30 4561 C 441.46 -3.47645 2.79391 0
M  V30 4562 C 442.161 -3.18213 4.86945 0
M  V30 4563 N 441.137 -3.45528 4.19656 0
M  V30 4564 H 444.939 -1.5005 2.5271 0
M  V30 4565 H 442.453 -0.741018 1.44508 0
M  V30 4566 H 444.45 -3.81517 1.6808 0
M  V30 4567 H 443.11 -3.17157 0.695826 0
M  V30 4568 H 444.121 -2.77652 4.37184 0
M  V30 4569 H 440.798 -3.68771 1.95739 0
M  V30 4570 H 442.188 -3.1076 5.95716 0
M  V30 4571 N 444.908 -1.36708 -0.784132 0
M  V30 4572 C 445.871 -1.31307 -1.87859 0
M  V30 4573 C 446.871 -0.219654 -1.59293 0
M  V30 4574 O 448.061 -0.47476 -1.67606 0
M  V30 4575 C 445.193 -1.03679 -3.24751 0
M  V30 4576 H 446.386 -2.28647 -1.94064 0
M  V30 4577 H 443.939 -1.21558 -0.98252 0
M  V30 4578 H 444.674 -0.0681936 -3.24228 0
M  V30 4579 H 444.459 -1.82811 -3.46876 0
M  V30 4580 H 445.949 -1.02518 -4.04821 0
M  V30 4581 N 446.386 1.0089 -1.21074 0
M  V30 4582 C 447.296 2.13039 -0.982425 0
M  V30 4583 C 448.312 1.73881 0.0642161 0
M  V30 4584 O 449.488 2.01012 -0.12496 0
M  V30 4585 C 446.553 3.42377 -0.545803 0
M  V30 4586 C 445.614 3.95731 -1.6642 0
M  V30 4587 C 444.847 5.18896 -1.24832 0
M  V30 4588 O 445.07 5.70273 -0.120265 0
M  V30 4589 O 444.004 5.65597 -2.05873 0
M  V30 4590 H 447.83 2.35175 -1.92163 0
M  V30 4591 H 445.415 1.1142 -0.995285 0
M  V30 4592 H 447.297 4.20244 -0.311912 0
M  V30 4593 H 445.972 3.21639 0.364727 0
M  V30 4594 H 444.879 3.19108 -1.95246 0
M  V30 4595 H 446.212 4.20872 -2.55201 0
M  V30 4596 N 447.864 1.01787 1.20321 0
M  V30 4597 C 449.28 0.732951 1.41774 0
M  V30 4598 C 449.48 -0.686883 1.89431 0
M  V30 4599 O 448.536 -1.45446 2.06402 0
M  V30 4600 C 449.849 1.75973 2.43832 0
M  V30 4601 C 451.397 1.77802 2.57596 0
M  V30 4602 C 451.872 2.7941 3.62897 0
M  V30 4603 N 453.363 2.78157 3.70382 0
M  V30 4604 C 454.098 3.53434 4.51521 0
M  V30 4605 N 453.594 4.38392 5.36455 0
M  V30 4606 N 455.387 3.42026 4.46066 0
M  V30 4607 H 447.538 1.93447 0.877035 0
M  V30 4608 H 449.801 0.835712 0.447536 0
M  V30 4609 H 449.507 2.77699 2.15815 0
M  V30 4610 H 449.381 1.57292 3.4284 0
M  V30 4611 H 451.768 0.767602 2.84942 0
M  V30 4612 H 451.849 2.00557 1.58779 0
M  V30 4613 H 451.493 3.80616 3.36295 0
M  V30 4614 H 451.423 2.53916 4.61339 0
M  V30 4615 H 453.914 2.16531 3.09714 0
M  V30 4616 H 454.227 4.92596 5.95457 0
M  V30 4617 H 452.572 4.4247 5.35953 0
M  V30 4618 H 455.763 2.75075 3.78749 0
M  V30 4619 H 455.936 4.00946 5.09064 0
M  V30 4620 N 449.342 -1.36122 0.79427 0
M  V30 4621 C 450.753 -1.81646 0.431446 0
M  V30 4622 C 451.104 -1.66043 -1.04518 0
M  V30 4623 O 450.229 -1.1841 -1.8113 0
M  V30 4624 C 450.824 -3.29785 0.776341 0
M  V30 4625 C 449.383 -3.73501 0.466282 0
M  V30 4626 C 448.53 -2.58313 1.00844 0
M  V30 4627 H 451.481 -1.24274 0.986995 0
M  V30 4628 H 451.502 -3.80437 0.0692413 0
M  V30 4629 H 451.014 -3.4111 1.8511 0
M  V30 4630 H 449.115 -3.67733 -0.600245 0
M  V30 4631 H 449.228 -4.68754 0.990288 0
M  V30 4632 H 447.592 -2.5102 0.431406 0
M  V30 4633 H 448.375 -2.72421 2.08906 0
M  V30 4634 N 450.82 -0.546701 -1.47814 0
M  V30 4635 C 452.231 -0.110564 -1.86372 0
M  V30 4636 C 452.582 1.31678 -1.45449 0
M  V30 4637 O 451.707 1.98889 -0.852758 0
M  V30 4638 C 452.302 -0.193873 -3.38245 0
M  V30 4639 C 450.861 0.187164 -3.75934 0
M  V30 4640 C 450.008 -0.546166 -2.71868 0
M  V30 4641 H 452.959 -0.757022 -1.39481 0
M  V30 4642 H 452.98 0.590218 -3.75895 0
M  V30 4643 H 452.492 -1.23282 -3.67999 0
M  V30 4644 H 450.593 1.22762 -3.51796 0
M  V30 4645 H 450.706 -0.164083 -4.78819 0
M  V30 4646 H 449.07 0.00953904 -2.54698 0
M  V30 4647 H 449.853 -1.58606 -3.04465 0
M  V30 4648 N 452.299 1.55045 -0.282633 0
M  V30 4649 C 453.547 1.99365 0.331334 0
M  V30 4650 C 453.868 1.1725 1.55812 0
M  V30 4651 O 453.138 0.263871 1.94115 0
M  V30 4652 H 451.718 0.736397 0.125414 0
M  V30 4653 H 454.38 1.90964 -0.389711 0
M  V30 4654 H 453.476 3.0596 0.616036 0
M  V30 4655 N 453.777 0.010035 1.57597 0
M  V30 4656 C 455.188 -0.531426 1.78977 0
M  V30 4657 C 455.539 -1.73375 0.918454 0
M  V30 4658 O 454.664 -2.16047 0.123635 0
M  V30 4659 C 455.259 -0.97086 3.24592 0
M  V30 4660 C 453.818 -1.45756 3.47033 0
M  V30 4661 C 452.965 -0.413384 2.74201 0
M  V30 4662 H 455.916 0.236166 1.56933 0
M  V30 4663 H 455.937 -1.83633 3.33255 0
M  V30 4664 H 455.449 -0.0955893 3.87982 0
M  V30 4665 H 453.55 -2.35339 2.88871 0
M  V30 4666 H 453.663 -1.4781 4.55729 0
M  V30 4667 H 452.027 -0.877266 2.39115 0
M  V30 4668 H 452.81 0.453092 3.40297 0
M  V30 4669 N 455.255 -1.55392 -0.262866 0
M  V30 4670 C 456.671 -1.47459 -0.610582 0
M  V30 4671 C 456.871 -0.697031 -1.8906 0
M  V30 4672 O 455.927 -0.219952 -2.5154 0
M  V30 4673 C 457.24 -2.91751 -0.728131 0
M  V30 4674 C 458.788 -3.02027 -0.821517 0
M  V30 4675 C 459.263 -4.47594 -0.97076 0
M  V30 4676 N 460.754 -4.51465 -1.03603 0
M  V30 4677 C 461.489 -5.61326 -1.17049 0
M  V30 4678 N 460.985 -6.81032 -1.2715 0
M  V30 4679 N 462.778 -5.49089 -1.20239 0
M  V30 4680 H 454.929 -2.04395 0.577632 0
M  V30 4681 H 457.192 -0.927287 0.197086 0
M  V30 4682 H 456.898 -3.51413 0.142132 0
M  V30 4683 H 456.772 -3.4134 -1.6052 0
M  V30 4684 H 459.159 -2.42456 -1.68224 0
M  V30 4685 H 459.24 -2.55674 0.0803688 0
M  V30 4686 H 458.884 -5.07771 -0.114655 0
M  V30 4687 H 458.814 -4.91613 -1.88745 0
M  V30 4688 H 461.305 -3.6524 -0.96996 0
M  V30 4689 H 461.618 -7.60511 -1.37271 0
M  V30 4690 H 459.963 -6.83824 -1.24136 0
M  V30 4691 H 463.154 -4.54507 -1.11985 0
M  V30 4692 H 463.327 -6.34749 -1.30373 0
M  V30 4693 N 456.733 0.527833 -1.48498 0
M  V30 4694 C 458.149 0.856571 -1.34666 0
M  V30 4695 C 458.349 1.98271 -0.35931 0
M  V30 4696 O 457.405 2.51551 0.218703 0
M  V30 4697 C 458.718 1.22207 -2.74747 0
M  V30 4698 C 460.266 1.33183 -2.83251 0
M  V30 4699 C 460.741 1.73075 -4.24039 0
M  V30 4700 N 462.232 1.80174 -4.26722 0
M  V30 4701 C 462.967 2.1243 -5.32598 0
M  V30 4702 N 462.463 2.43096 -6.4875 0
M  V30 4703 N 464.256 2.13454 -5.19994 0
M  V30 4704 H 456.407 -0.215174 -2.11307 0
M  V30 4705 H 458.67 -0.0336281 -0.947403 0
M  V30 4706 H 458.376 0.468195 -3.4857 0
M  V30 4707 H 458.25 2.17173 -3.08409 0
M  V30 4708 H 460.637 2.07647 -2.09683 0
M  V30 4709 H 460.718 0.363333 -2.53206 0
M  V30 4710 H 460.362 0.991712 -4.98124 0
M  V30 4711 H 460.292 2.70979 -4.51529 0
M  V30 4712 H 462.783 1.58744 -3.42942 0
M  V30 4713 H 463.096 2.6682 -7.25277 0
M  V30 4714 H 461.441 2.40611 -6.52021 0
M  V30 4715 H 464.632 1.88956 -4.28268 0
M  V30 4716 H 464.805 2.38261 -6.02608 0
M  V30 4717 N 458.211 1.37122 0.776871 0
M  V30 4718 C 459.622 1.28667 1.35284 0
M  V30 4719 C 459.973 -0.0680035 1.96082 0
M  V30 4720 O 459.098 -0.969743 1.93455 0
M  V30 4721 C 459.693 2.32997 2.45963 0
M  V30 4722 C 458.252 2.28191 2.99342 0
M  V30 4723 C 457.399 2.17101 1.72517 0
M  V30 4724 H 460.35 1.47819 0.577527 0
M  V30 4725 H 460.371 1.97366 3.2531 0
M  V30 4726 H 459.883 3.3158 2.01684 0
M  V30 4727 H 457.984 1.33115 3.4801 0
M  V30 4728 H 458.097 3.21397 3.55304 0
M  V30 4729 H 456.461 1.63562 1.95242 0
M  V30 4730 H 457.244 3.17591 1.30348 0
M  V30 4731 N 459.689 -1.00246 1.21608 0
M  V30 4732 C 460.599 -2.12515 0.993709 0
M  V30 4733 C 461.615 -1.73913 -0.0549939 0
M  V30 4734 O 462.791 -2.00943 0.135619 0
M  V30 4735 C 459.856 -3.42083 0.563953 0
M  V30 4736 C 458.917 -3.94843 1.68516 0
M  V30 4737 C 458.15 -5.18226 1.27582 0
M  V30 4738 O 458.373 -5.70201 0.150506 0
M  V30 4739 O 457.307 -5.64497 2.0887 0
M  V30 4740 H 461.133 -2.34152 1.93407 0
M  V30 4741 H 458.718 -1.10891 1.00118 0
M  V30 4742 H 460.6 -4.20073 0.334194 0
M  V30 4743 H 459.275 -3.21828 -0.347665 0
M  V30 4744 H 458.182 -3.18068 1.96935 0
M  V30 4745 H 459.515 -4.19512 2.5743 0
M  V30 4746 N 461.167 -1.02423 -1.1978 0
M  V30 4747 C 462.583 -0.740459 -1.41384 0
M  V30 4748 C 462.783 0.676827 -1.89793 0
M  V30 4749 O 461.839 1.4435 -2.0717 0
M  V30 4750 C 463.152 -1.77264 -2.42895 0
M  V30 4751 C 464.7 -1.79165 -2.56649 0
M  V30 4752 C 465.175 -2.8133 -3.6141 0
M  V30 4753 N 466.666 -2.80118 -3.68901 0
M  V30 4754 C 467.401 -3.55824 -4.49641 0
M  V30 4755 N 466.897 -4.41231 -5.34123 0
M  V30 4756 N 468.69 -3.44387 -4.44246 0
M  V30 4757 H 460.841 -1.9391 -0.866764 0
M  V30 4758 H 463.104 -0.838074 -0.443098 0
M  V30 4759 H 462.81 -2.7884 -2.14339 0
M  V30 4760 H 462.684 -1.59108 -3.42001 0
M  V30 4761 H 465.071 -0.782702 -2.84531 0
M  V30 4762 H 465.152 -2.01396 -1.57713 0
M  V30 4763 H 464.796 -3.82394 -3.34271 0
M  V30 4764 H 464.726 -2.56359 -4.59986 0
M  V30 4765 H 467.217 -2.1817 -3.08562 0
M  V30 4766 H 467.53 -4.95747 -5.92836 0
M  V30 4767 H 465.875 -4.45306 -5.33599 0
M  V30 4768 H 469.066 -2.7708 -3.77285 0
M  V30 4769 H 469.239 -4.0364 -5.06931 0
M  V30 4770 N 462.645 1.35699 -0.801477 0
M  V30 4771 C 463.893 1.9852 -0.37871 0
M  V30 4772 C 464.214 1.63907 1.05638 0
M  V30 4773 O 463.484 0.919013 1.73006 0
M  V30 4774 H 462.064 0.734322 -0.137042 0
M  V30 4775 H 464.726 1.65697 -1.02619 0
M  V30 4776 H 463.822 3.08382 -0.480284 0
M  V30 4777 N 464.123 0.554532 1.47522 0
M  V30 4778 C 465.534 0.120446 1.86311 0
M  V30 4779 C 465.885 -1.30904 1.46145 0
M  V30 4780 O 465.01 -1.98434 0.863294 0
M  V30 4781 C 465.605 0.211808 3.38137 0
M  V30 4782 C 464.164 -0.167224 3.76028 0
M  V30 4783 C 463.311 0.560576 2.71575 0
M  V30 4784 H 466.262 0.764408 1.39077 0
M  V30 4785 H 466.283 -0.570275 3.76202 0
M  V30 4786 H 465.795 1.25232 3.6734 0
M  V30 4787 H 463.896 -1.20894 3.52442 0
M  V30 4788 H 464.009 0.189473 4.78725 0
M  V30 4789 H 462.373 0.00396836 2.547 0
M  V30 4790 H 463.156 1.60219 3.0362 0
M  V30 4791 N 465.601 -1.54893 0.290851 0
M  V30 4792 C 467.017 -1.59476 -0.0628432 0
M  V30 4793 C 467.217 -1.30795 -1.5328 0
M  V30 4794 O 466.273 -1.07644 -2.28406 0
M  V30 4795 C 467.586 -2.98928 0.325962 0
M  V30 4796 C 469.134 -3.11799 0.273882 0
M  V30 4797 C 469.609 -4.53544 0.637359 0
M  V30 4798 N 471.1 -4.59433 0.589507 0
M  V30 4799 C 471.835 -5.67164 0.84335 0
M  V30 4800 N 471.331 -6.82975 1.16263 0
M  V30 4801 N 473.124 -5.56786 0.771091 0
M  V30 4802 H 465.275 -1.71798 1.24896 0
M  V30 4803 H 467.538 -0.801879 0.505663 0
M  V30 4804 H 467.244 -3.24805 1.34887 0
M  V30 4805 H 467.118 -3.75793 -0.325441 0
M  V30 4806 H 469.505 -2.85677 -0.739765 0
M  V30 4807 H 469.586 -2.37112 0.959766 0
M  V30 4808 H 469.23 -4.80394 1.64877 0
M  V30 4809 H 469.16 -5.26553 -0.0704866 0
M  V30 4810 H 471.651 -3.76245 0.353252 0
M  V30 4811 H 471.964 -7.61048 1.34257 0
M  V30 4812 H 470.309 -6.84552 1.20057 0
M  V30 4813 H 473.5 -4.65187 0.521383 0
M  V30 4814 H 473.673 -6.40664 0.972295 0
M  V30 4815 N 467.08 -0.0183926 -1.57589 0
M  V30 4816 C 468.328 0.661253 -1.90976 0
M  V30 4817 C 468.649 1.73281 -0.894353 0
M  V30 4818 O 467.919 1.9579 0.0656788 0
M  V30 4819 H 466.499 0.247233 -0.704901 0
M  V30 4820 H 469.161 -0.0636639 -1.94796 0
M  V30 4821 H 468.257 1.12083 -2.9128 0
M  V30 4822 N 468.558 1.5553 0.254621 0
M  V30 4823 C 469.505 1.89666 1.31512 0
M  V30 4824 C 470.475 0.750057 1.482 0
M  V30 4825 O 471.66 1.00301 1.62309 0
M  V30 4826 C 468.8 2.19009 2.667 0
M  V30 4827 C 467.913 3.46435 2.58083 0
M  V30 4828 C 467.048 3.65386 3.85573 0
M  V30 4829 C 466.087 4.8644 3.71541 0
M  V30 4830 N 465.224 5.01952 4.90906 0
M  V30 4831 H 470.064 2.80109 1.017 0
M  V30 4832 H 467.601 1.38666 0.490938 0
M  V30 4833 H 469.559 2.34025 3.45381 0
M  V30 4834 H 468.189 1.31779 2.94676 0
M  V30 4835 H 467.241 3.39792 1.71013 0
M  V30 4836 H 468.553 4.35258 2.43622 0
M  V30 4837 H 467.707 3.80319 4.72697 0
M  V30 4838 H 466.446 2.74781 4.02922 0
M  V30 4839 H 465.451 4.71491 2.82801 0
M  V30 4840 H 466.676 5.78497 3.55694 0
M  V30 4841 H 464.622 4.14283 5.08631 0
M  V30 4842 H 464.539 5.84851 4.79046 0
M  V30 4843 H 465.807 5.21289 5.7955 0
M  V30 4844 N 470.036 -0.519951 1.48776 0
M  V30 4845 C 471.284 -1.2727 1.56993 0
M  V30 4846 C 471.605 -1.9339 0.25004 0
M  V30 4847 O 470.875 -1.81822 -0.729216 0
M  V30 4848 H 469.455 -0.472732 0.578389 0
M  V30 4849 H 472.117 -0.604234 1.85297 0
M  V30 4850 H 471.213 -2.04669 2.3562 0
M  V30 4851 N 471.514 -1.37532 -0.769588 0
M  V30 4852 C 472.461 -1.3347 -1.88293 0
M  V30 4853 C 473.431 -0.199891 -1.64893 0
M  V30 4854 O 474.616 -0.389594 -1.8678 0
M  V30 4855 C 471.756 -1.14968 -3.25387 0
M  V30 4856 C 470.869 -2.37698 -3.60727 0
M  V30 4857 C 470.004 -2.12051 -4.8704 0
M  V30 4858 C 469.043 -3.30636 -5.15117 0
M  V30 4859 N 468.18 -3.04527 -6.3262 0
M  V30 4860 H 473.02 -2.28658 -1.911 0
M  V30 4861 H 470.557 -1.13622 -0.934257 0
M  V30 4862 H 472.515 -1.02261 -4.04473 0
M  V30 4863 H 471.145 -0.234263 -3.21949 0
M  V30 4864 H 470.197 -2.61137 -2.76608 0
M  V30 4865 H 471.509 -3.26131 -3.77413 0
M  V30 4866 H 470.663 -1.96388 -5.74035 0
M  V30 4867 H 469.402 -1.20959 -4.72462 0
M  V30 4868 H 468.407 -3.46836 -4.26597 0
M  V30 4869 H 469.632 -4.22582 -5.31603 0
M  V30 4870 H 467.578 -2.16067 -6.19396 0
M  V30 4871 H 467.495 -3.86503 -6.49732 0
M  V30 4872 H 468.763 -2.92485 -7.22546 0
M  V30 4873 N 472.992 0.995999 -1.22138 0
M  V30 4874 C 473.955 2.06711 -0.990109 0
M  V30 4875 C 474.955 1.60744 0.0422978 0
M  V30 4876 O 476.145 1.73095 -0.195895 0
M  V30 4877 C 473.277 3.37288 -0.49491 0
M  V30 4878 H 474.47 2.28661 -1.94047 0
M  V30 4879 H 472.023 1.16711 -1.03963 0
M  V30 4880 H 472.758 3.21022 0.459948 0
M  V30 4881 H 472.543 3.71986 -1.23971 0
M  V30 4882 H 474.033 4.16103 -0.353253 0
M  V30 4883 N 474.47 1.03057 1.19235 0
M  V30 4884 C 475.886 0.747947 1.40989 0
M  V30 4885 C 476.086 -0.666752 1.90149 0
M  V30 4886 O 475.142 -1.43249 2.07933 0
M  V30 4887 C 476.455 1.7855 2.41951 0
M  V30 4888 C 478.003 1.80524 2.55695 0
M  V30 4889 C 478.478 2.83243 3.59913 0
M  V30 4890 N 479.969 2.8207 3.67411 0
M  V30 4891 C 480.704 3.58204 4.47747 0
M  V30 4892 N 480.2 4.44057 5.31775 0
M  V30 4893 N 481.993 3.46738 4.42413 0
M  V30 4894 H 474.144 1.94367 0.856468 0
M  V30 4895 H 476.407 0.840412 0.438647 0
M  V30 4896 H 476.113 2.79973 2.12857 0
M  V30 4897 H 475.987 1.6092 3.41152 0
M  V30 4898 H 478.374 0.79778 2.84112 0
M  V30 4899 H 478.455 2.02229 1.56643 0
M  V30 4900 H 478.099 3.84161 3.32239 0
M  V30 4901 H 478.029 2.58795 4.5862 0
M  V30 4902 H 480.52 2.19803 3.074 0
M  V30 4903 H 480.833 4.98884 5.90199 0
M  V30 4904 H 479.178 4.48129 5.3123 0
M  V30 4905 H 482.369 2.79077 3.75811 0
M  V30 4906 H 482.542 4.06322 5.04783 0
M  V30 4907 N 475.948 -1.35272 0.808662 0
M  V30 4908 C 476.911 -2.28082 0.226093 0
M  V30 4909 C 477.911 -1.49673 -0.587762 0
M  V30 4910 O 479.101 -1.69404 -0.405943 0
M  V30 4911 C 476.233 -3.33955 -0.684596 0
M  V30 4912 H 477.426 -2.81116 1.04469 0
M  V30 4913 H 474.979 -1.45162 0.579466 0
M  V30 4914 H 475.714 -2.86111 -1.5268 0
M  V30 4915 H 475.499 -3.91965 -0.102699 0
M  V30 4916 H 476.989 -4.03219 -1.08646 0
M  V30 4917 N 477.426 -0.562348 -1.47226 0
M  V30 4918 C 478.651 -0.0432632 -2.07355 0
M  V30 4919 C 479.076 1.24332 -1.41149 0
M  V30 4920 O 478.434 1.74603 -0.488226 0
M  V30 4921 C 478.482 0.130288 -3.60365 0
M  V30 4922 O 477.586 1.19166 -3.94808 0
M  V30 4923 H 476.927 -0.0536334 -0.66183 0
M  V30 4924 H 479.457 -0.779495 -1.89169 0
M  V30 4925 H 479.467 0.342881 -4.06557 0
M  V30 4926 H 478.142 -0.809389 -4.07948 0
M  V30 4927 H 476.719 0.959153 -3.60354 0
M  V30 4928 N 478.904 1.54736 -0.299062 0
M  V30 4929 C 479.836 2.20891 0.61153 0
M  V30 4930 C 480.849 1.20104 1.09904 0
M  V30 4931 O 482.038 1.46707 1.01683 0
M  V30 4932 C 479.138 2.84018 1.84897 0
M  V30 4933 C 478.311 4.10719 1.50428 0
M  V30 4934 C 477.37 4.57667 2.59667 0
M  V30 4935 O 476.396 5.2291 2.24842 0
M  V30 4936 N 477.598 4.29821 3.90172 0
M  V30 4937 H 480.363 2.99666 0.0452001 0
M  V30 4938 H 477.924 1.61446 -0.121178 0
M  V30 4939 H 479.916 3.1236 2.5732 0
M  V30 4940 H 478.486 2.09095 2.32375 0
M  V30 4941 H 477.706 3.89408 0.612781 0
M  V30 4942 H 478.994 4.93223 1.24934 0
M  V30 4943 H 478.392 3.77549 4.21276 0
M  V30 4944 H 476.949 4.62877 4.58899 0
M  V30 4945 N 480.382 0.0267497 1.57577 0
M  V30 4946 C 481.628 -0.653371 1.91987 0
M  V30 4947 C 481.961 -1.71915 0.903263 0
M  V30 4948 O 481.236 -1.94358 -0.0743387 0
M  V30 4949 C 481.519 -1.272 3.36886 0
M  V30 4950 C 481.372 -0.215938 4.49281 0
M  V30 4951 C 482.691 -2.19069 3.81703 0
M  V30 4952 H 479.81 -0.236047 0.698177 0
M  V30 4953 H 482.452 0.0835236 1.89816 0
M  V30 4954 H 480.602 -1.90005 3.38866 0
M  V30 4955 H 482.274 0.41449 4.59434 0
M  V30 4956 H 480.517 0.458855 4.31366 0
M  V30 4957 H 481.188 -0.688347 5.47691 0
M  V30 4958 H 483.664 -1.66253 3.81444 0
M  V30 4959 H 482.54 -2.59307 4.83788 0
M  V30 4960 H 482.801 -3.08087 3.17072 0
M  V30 4961 N 481.861 -1.55662 -0.24637 0
M  V30 4962 C 482.808 -1.90361 -1.30504 0
M  V30 4963 C 483.778 -0.757905 -1.47801 0
M  V30 4964 O 484.963 -1.01161 -1.61775 0
M  V30 4965 C 482.103 -2.2042 -2.65535 0
M  V30 4966 C 481.216 -3.47799 -2.56242 0
M  V30 4967 C 480.351 -3.67426 -3.8363 0
M  V30 4968 C 479.39 -4.88403 -3.68956 0
M  V30 4969 N 478.527 -5.04548 -4.88237 0
M  V30 4970 H 483.367 -2.80645 -1.00213 0
M  V30 4971 H 480.904 -1.38924 -0.483577 0
M  V30 4972 H 482.862 -2.35853 -3.44135 0
M  V30 4973 H 481.492 -1.3334 -2.93973 0
M  V30 4974 H 480.544 -3.40694 -1.69208 0
M  V30 4975 H 481.856 -4.36544 -2.4131 0
M  V30 4976 H 481.01 -3.82821 -4.70673 0
M  V30 4977 H 479.749 -2.76914 -4.01459 0
M  V30 4978 H 478.754 -4.72984 -2.80296 0
M  V30 4979 H 479.979 -5.80375 -3.52621 0
M  V30 4980 H 477.925 -4.16974 -5.06427 0
M  V30 4981 H 477.842 -5.87384 -4.75937 0
M  V30 4982 H 479.11 -5.24355 -5.76777 0
M  V30 4983 N 483.339 0.512053 -1.4905 0
M  V30 4984 C 484.75 1.09376 -1.51307 0
M  V30 4985 C 485.101 1.94 -0.292971 0
M  V30 4986 O 484.226 2.07965 0.598277 0
M  V30 4987 C 484.821 1.99031 -2.74176 0
M  V30 4988 C 483.38 2.52385 -2.79247 0
M  V30 4989 C 482.527 1.29749 -2.45073 0
M  V30 4990 H 485.478 0.296467 -1.55906 0
M  V30 4991 H 485.499 2.83569 -2.53711 0
M  V30 4992 H 485.011 1.37412 -3.62959 0
M  V30 4993 H 483.112 3.17673 -1.94716 0
M  V30 4994 H 483.225 2.90293 -3.81139 0
M  V30 4995 H 481.589 1.61912 -1.96612 0
M  V30 4996 H 482.372 0.698555 -3.36118 0
M  V30 4997 N 484.817 1.37938 0.762283 0
M  V30 4998 C 486.065 1.33404 1.51815 0
M  V30 4999 C 486.386 -0.0780975 1.94844 0
M  V30 5000 O 485.656 -1.02405 1.67003 0
M  V30 5001 H 484.236 0.490839 0.563104 0
M  V30 5002 H 486.898 1.72527 0.906669 0
M  V30 5003 H 485.994 1.97926 2.41313 0
M  V30 5004 N 486.295 -0.989507 1.22664 0
M  V30 5005 C 487.572 -1.70326 0.961688 0
M  V30 5006 C 487.952 -2.04537 -0.522279 0
M  V30 5007 O 487.3 -1.73136 -1.49118 0
M  V30 5008 C 487.51 -2.95135 1.86269 0
M  V30 5009 C 488.858 -3.67842 2.12078 0
M  V30 5010 O 489.882 -3.0515 1.83745 0
M  V30 5011 O 488.741 -4.80644 2.60083 0
M  V30 5012 H 485.835 -0.743589 0.361946 0
M  V30 5013 H 488.381 -1.04555 1.33665 0
M  V30 5014 H 487.153 -2.66382 2.8663 0
M  V30 5015 H 486.776 -3.68645 1.48952 0
M  V30 5016 N 487.773 -1.03688 -1.18687 0
M  V30 5017 C 488.998 -0.757819 -1.93059 0
M  V30 5018 C 489.423 0.678353 -1.75442 0
M  V30 5019 O 488.781 1.46938 -1.06203 0
M  V30 5020 C 488.829 -1.12423 -3.42627 0
M  V30 5021 O 487.933 -0.247505 -4.11657 0
M  V30 5022 H 487.274 -0.279245 -0.602427 0
M  V30 5023 H 489.804 -1.3857 -1.5053 0
M  V30 5024 H 489.814 -1.08454 -3.93322 0
M  V30 5025 H 488.489 -2.17049 -3.54771 0
M  V30 5026 H 487.066 -0.34649 -3.71287 0
M  V30 5027 N 489.251 1.34841 -0.815825 0
M  V30 5028 C 490.181 2.32187 -0.247298 0
M  V30 5029 C 491.162 1.5791 0.632344 0
M  V30 5030 O 492.347 1.8593 0.560698 0
M  V30 5031 C 489.477 3.42122 0.597466 0
M  V30 5032 C 488.431 4.27602 -0.184446 0
M  V30 5033 C 487.757 5.28942 0.782609 0
M  V30 5034 C 489.057 5.03502 -1.38865 0
M  V30 5035 H 490.751 2.79985 -1.06061 0
M  V30 5036 H 488.297 1.34611 -0.511461 0
M  V30 5037 H 490.25 4.09232 1.00533 0
M  V30 5038 H 488.974 2.92956 1.44376 0
M  V30 5039 H 487.633 3.62085 -0.573592 0
M  V30 5040 H 487.281 4.7604 1.62466 0
M  V30 5041 H 486.981 5.87008 0.263695 0
M  V30 5042 H 488.505 5.98922 1.18848 0
M  V30 5043 H 489.919 5.63506 -1.05518 0
M  V30 5044 H 488.316 5.71108 -1.8427 0
M  V30 5045 H 489.386 4.33608 -2.17054 0
M  V30 5046 N 490.729 0.570148 1.46925 0
M  V30 5047 C 492.14 0.1402 1.86173 0
M  V30 5048 C 492.491 -1.29347 1.47526 0
M  V30 5049 O 491.616 -1.97508 0.884292 0
M  V30 5050 C 492.211 0.247661 3.37894 0
M  V30 5051 C 490.77 -0.127332 3.76185 0
M  V30 5052 C 489.917 0.589349 2.70965 0
M  V30 5053 H 492.868 0.779117 1.38259 0
M  V30 5054 H 492.889 -0.530341 3.76786 0
M  V30 5055 H 492.401 1.29121 3.65991 0
M  V30 5056 H 490.502 -1.17149 3.53704 0
M  V30 5057 H 490.615 0.240238 4.78497 0
M  V30 5058 H 488.979 0.0309824 2.54681 0
M  V30 5059 H 489.762 1.6343 3.01903 0
M  V30 5060 N 492.207 -1.54576 0.307264 0
M  V30 5061 C 493.623 -1.59534 -0.0459251 0
M  V30 5062 C 493.823 -1.32414 -1.51884 0
M  V30 5063 O 492.879 -1.1006 -2.27251 0
M  V30 5064 C 494.192 -2.98566 0.357649 0
M  V30 5065 C 495.74 -3.11491 0.306937 0
M  V30 5066 C 496.215 -4.52842 0.685427 0
M  V30 5067 N 497.706 -4.58782 0.638203 0
M  V30 5068 C 498.441 -5.66238 0.903458 0
M  V30 5069 N 497.937 -6.81703 1.23501 0
M  V30 5070 N 499.73 -5.55937 0.830102 0
M  V30 5071 H 491.881 -1.70464 1.26712 0
M  V30 5072 H 494.144 -0.79647 0.514139 0
M  V30 5073 H 493.85 -3.23356 1.38325 0
M  V30 5074 H 493.724 -3.76117 -0.285565 0
M  V30 5075 H 496.111 -2.86446 -0.709424 0
M  V30 5076 H 496.192 -2.36081 0.984861 0
M  V30 5077 H 495.836 -4.78618 1.69963 0
M  V30 5078 H 495.766 -5.26598 -0.0146346 0
M  V30 5079 H 498.257 -3.75849 0.393138 0
M  V30 5080 H 498.57 -7.59582 1.42322 0
M  V30 5081 H 496.915 -6.8324 1.27311 0
M  V30 5082 H 500.106 -4.64608 0.570693 0
M  V30 5083 H 500.279 -6.39597 1.04019 0
M  V30 5084 N 493.685 -0.035106 -1.57561 0
M  V30 5085 C 495.101 0.321334 -1.56332 0
M  V30 5086 C 495.301 1.72509 -1.04129 0
M  V30 5087 O 494.357 2.4287 -0.690694 0
M  V30 5088 C 495.67 0.164469 -3.0025 0
M  V30 5089 C 497.218 0.236786 -3.12103 0
M  V30 5090 C 497.693 0.10864 -4.57871 0
M  V30 5091 N 499.184 0.165433 -4.62904 0
M  V30 5092 C 499.919 0.0901506 -5.73329 0
M  V30 5093 N 499.415 -0.0365606 -6.9279 0
M  V30 5094 N 501.208 0.144572 -5.61914 0
M  V30 5095 H 493.359 -0.952976 -1.89821 0
M  V30 5096 H 495.622 -0.368537 -0.873432 0
M  V30 5097 H 495.328 -0.802746 -3.42416 0
M  V30 5098 H 495.202 0.932194 -3.655 0
M  V30 5099 H 497.589 1.19446 -2.69845 0
M  V30 5100 H 497.67 -0.561419 -2.49563 0
M  V30 5101 H 497.314 -0.845644 -5.00811 0
M  V30 5102 H 497.244 0.925786 -5.18398 0
M  V30 5103 H 499.735 0.263269 -3.76982 0
M  V30 5104 H 500.048 -0.0871487 -7.72751 0
M  V30 5105 H 498.393 -0.0714256 -6.94963 0
M  V30 5106 H 501.584 0.242006 -4.67474 0
M  V30 5107 H 501.757 0.0824413 -6.47948 0
M  V30 5108 N 495.163 1.55791 0.238111 0
M  V30 5109 C 496.411 1.77681 0.963001 0
M  V30 5110 C 496.732 0.600674 1.85518 0
M  V30 5111 O 496.002 -0.383182 1.92116 0
M  V30 5112 H 494.582 0.655315 0.358568 0
M  V30 5113 H 497.244 1.93239 0.253945 0
M  V30 5114 H 496.34 2.69177 1.57956 0
M  V30 5115 N 496.642 -0.504142 1.49319 0
M  V30 5116 C 498.053 -1.08572 1.51885 0
M  V30 5117 C 498.404 -1.93842 0.303255 0
M  V30 5118 O 497.529 -2.0828 -0.58724 0
M  V30 5119 C 498.124 -1.97574 2.75227 0
M  V30 5120 C 496.683 -2.509 2.80581 0
M  V30 5121 C 495.83 -1.28447 2.45757 0
M  V30 5122 H 498.781 -0.288194 1.56061 0
M  V30 5123 H 498.802 -2.82219 2.55211 0
M  V30 5124 H 498.314 -1.35486 3.63683 0
M  V30 5125 H 496.415 -3.16636 1.96398 0
M  V30 5126 H 496.528 -2.88268 3.82673 0
M  V30 5127 H 494.892 -1.60868 1.97468 0
M  V30 5128 H 495.675 -0.68072 3.36483 0
M  V30 5129 N 498.12 -1.38341 -0.754957 0
M  V30 5130 C 499.368 -1.34208 -1.51105 0
M  V30 5131 C 499.689 0.0677634 -1.94882 0
M  V30 5132 O 498.959 1.01517 -1.67544 0
M  V30 5133 H 497.539 -0.493819 -0.560493 0
M  V30 5134 H 500.201 -1.73005 -0.897507 0
M  V30 5135 H 499.297 -1.99203 -2.4026 0
M  V30 5136 N 499.598 0.982988 -1.23187 0
M  V30 5137 C 500.561 2.05649 -1.01198 0
M  V30 5138 C 501.561 1.6078 0.0252464 0
M  V30 5139 O 502.751 1.72878 -0.214243 0
M  V30 5140 C 499.883 3.36744 -0.530656 0
M  V30 5141 H 501.076 2.2659 -1.96461 0
M  V30 5142 H 498.629 1.15602 -1.05195 0
M  V30 5143 H 499.364 3.21492 0.425873 0
M  V30 5144 H 499.149 3.7065 -1.2791 0
M  V30 5145 H 500.639 4.15705 -0.397366 0
M  V30 5146 N 501.076 1.04316 1.18135 0
M  V30 5147 C 502.304 0.768117 1.92113 0
M  V30 5148 C 502.719 -0.675057 1.76319 0
M  V30 5149 O 502.076 -1.46038 1.09449 0
M  V30 5150 C 502.127 1.12808 3.43448 0
M  V30 5151 O 501.848 2.5146 3.58747 0
M  V30 5152 C 503.349 0.8779 4.3452 0
M  V30 5153 H 500.569 0.279937 0.609817 0
M  V30 5154 H 503.113 1.39149 1.49859 0
M  V30 5155 H 501.268 0.549623 3.83481 0
M  V30 5156 H 501.682 2.65313 4.52448 0
M  V30 5157 H 503.156 1.17959 5.39249 0
M  V30 5158 H 503.633 -0.187239 4.38801 0
M  V30 5159 H 504.239 1.43977 4.00188 0
M  V30 5160 N 502.554 -1.34406 0.822964 0
M  V30 5161 C 503.802 -1.97892 0.410245 0
M  V30 5162 C 504.123 -1.65567 -1.03017 0
M  V30 5163 O 503.393 -0.94642 -1.71522 0
M  V30 5164 H 501.973 -0.732049 0.148707 0
M  V30 5165 H 504.635 -1.64043 1.05242 0
M  V30 5166 H 503.731 -3.07579 0.529284 0
M  V30 5167 N 504.032 -0.577932 -1.46621 0
M  V30 5168 C 505.281 -0.0594281 -2.01612 0
M  V30 5169 C 505.594 1.30663 -1.45556 0
M  V30 5170 O 506.8 1.91621 -1.92337 0
M  V30 5171 C 505.256 -0.0556666 -3.59857 0
M  V30 5172 C 504.864 -1.41975 -4.24908 0
M  V30 5173 C 506.608 0.409143 -4.22524 0
M  V30 5174 C 504.515 -1.37397 -5.75218 0
M  V30 5175 H 503.445 -0.0184469 -0.753774 0
M  V30 5176 H 506.096 -0.728869 -1.68404 0
M  V30 5177 H 504.478 0.679843 -3.90121 0
M  V30 5178 H 505.652 -2.17461 -4.0626 0
M  V30 5179 H 503.967 -1.82419 -3.74316 0
M  V30 5180 H 506.564 0.46211 -5.32699 0
M  V30 5181 H 506.907 1.42565 -3.91128 0
M  V30 5182 H 507.44 -0.272152 -3.96868 0
M  V30 5183 H 504.179 -2.36714 -6.11267 0
M  V30 5184 H 503.699 -0.661239 -5.96144 0
M  V30 5185 H 505.378 -1.08484 -6.3784 0
M  V30 5186 N 505.51 1.54411 -0.315457 0
M  V30 5187 C 506.758 2.00023 0.288971 0
M  V30 5188 C 507.079 1.20529 1.5329 0
M  V30 5189 O 506.349 0.304986 1.93511 0
M  V30 5190 H 504.929 0.738891 0.109766 0
M  V30 5191 H 507.591 1.90094 -0.430129 0
M  V30 5192 H 506.687 3.07198 0.550999 0
M  V30 5193 N 506.988 0.0434614 1.5754 0
M  V30 5194 C 508.216 -0.641835 1.96693 0
M  V30 5195 C 508.631 -1.64832 0.920652 0
M  V30 5196 O 507.988 -1.82247 -0.095993 0
M  V30 5197 C 508.039 -1.33557 3.35924 0
M  V30 5198 O 507.76 -0.369403 4.3654 0
M  V30 5199 C 509.261 -2.11135 3.89791 0
M  V30 5200 H 506.481 -0.176013 0.647503 0
M  V30 5201 H 509.025 0.107478 2.04217 0
M  V30 5202 H 507.18 -2.03617 3.29574 0
M  V30 5203 H 507.594 -0.863674 5.1734 0
M  V30 5204 H 509.068 -2.55107 4.89514 0
M  V30 5205 H 509.545 -2.95634 3.24803 0
M  V30 5206 H 510.151 -1.46002 3.99454 0
M  V30 5207 N 508.466 -1.55915 -0.229846 0
M  V30 5208 C 509.877 -1.68809 -0.797531 0
M  V30 5209 C 510.228 -0.643995 -1.8533 0
M  V30 5210 O 509.353 0.206492 -2.15413 0
M  V30 5211 C 509.948 -3.06043 -1.45338 0
M  V30 5212 C 508.507 -3.20819 -1.96856 0
M  V30 5213 C 507.654 -2.6472 -0.825736 0
M  V30 5214 H 510.605 -1.58699 -0.00533733 0
M  V30 5215 H 510.626 -3.01438 -2.32196 0
M  V30 5216 H 510.138 -3.82012 -0.684743 0
M  V30 5217 H 508.239 -2.49704 -2.76548 0
M  V30 5218 H 508.352 -4.27937 -2.15423 0
M  V30 5219 H 506.716 -2.22985 -1.23084 0
M  V30 5220 H 507.499 -3.43229 -0.0699019 0
M  V30 5221 N 509.944 0.496216 -1.49584 0
M  V30 5222 C 510.907 1.57952 -1.66084 0
M  V30 5223 C 511.907 1.51729 -0.53244 0
M  V30 5224 O 513.097 1.54796 -0.79899 0
M  V30 5225 C 510.229 2.97604 -1.66268 0
M  V30 5226 H 511.422 1.44649 -2.6271 0
M  V30 5227 H 508.975 0.7208 -1.38687 0
M  V30 5228 H 509.71 3.16378 -0.712432 0
M  V30 5229 H 509.495 3.03528 -2.4822 0
M  V30 5230 H 510.985 3.76301 -1.81073 0
M  V30 5231 N 511.423 1.38739 0.74761 0
M  V30 5232 C 512.386 1.36241 1.84312 0
M  V30 5233 C 513.386 0.261811 1.58654 0
M  V30 5234 O 514.576 0.519031 1.66288 0
M  V30 5235 C 511.708 1.12253 3.21888 0
M  V30 5236 H 512.901 2.33712 1.87933 0
M  V30 5237 H 510.454 1.2412 0.949946 0
M  V30 5238 H 511.189 0.154133 3.23934 0
M  V30 5239 H 510.974 1.91943 3.41907 0
M  V30 5240 H 512.464 1.13215 4.0196 0
M  V30 5241 N 512.901 -0.976442 1.23707 0
M  V30 5242 C 514.149 -1.71487 1.06942 0
M  V30 5243 C 514.47 -1.9098 -0.393897 0
M  V30 5244 O 513.74 -1.48128 -1.28198 0
M  V30 5245 H 512.32 -0.635425 0.392739 0
M  V30 5246 H 514.982 -1.17515 1.55487 0
M  V30 5247 H 514.078 -2.70286 1.56051 0
M  V30 5248 N 514.379 -1.04941 -1.1758 0
M  V30 5249 C 515.79 -0.784501 -1.69418 0
M  V30 5250 C 516.141 0.693625 -1.8353 0
M  V30 5251 O 515.266 1.53925 -1.52106 0
M  V30 5252 C 515.861 -1.41746 -3.07723 0
M  V30 5253 C 514.42 -1.20066 -3.56737 0
M  V30 5254 C 513.567 -1.5026 -2.33061 0
M  V30 5255 H 516.518 -1.21469 -1.02133 0
M  V30 5256 H 516.539 -0.825381 -3.7144 0
M  V30 5257 H 516.051 -2.49325 -2.9742 0
M  V30 5258 H 514.152 -0.144006 -3.72322 0
M  V30 5259 H 514.265 -1.90384 -4.39648 0
M  V30 5260 H 512.629 -0.922598 -2.37403 0
M  V30 5261 H 513.412 -2.58967 -2.25368 0
M  V30 5262 N 515.857 1.33968 -0.830081 0
M  V30 5263 C 517.105 1.97672 -0.420734 0
M  V30 5264 C 517.426 1.66111 1.02138 0
M  V30 5265 O 516.696 0.955503 1.71017 0
M  V30 5266 H 515.276 0.73125 -0.152587 0
M  V30 5267 H 517.938 1.63483 -1.0611 0
M  V30 5268 H 517.034 3.07294 -0.545588 0
M  V30 5269 N 517.335 0.585699 1.46312 0
M  V30 5270 C 518.245 -0.148236 2.34131 0
M  V30 5271 C 519.261 -0.882972 1.49932 0
M  V30 5272 O 520.437 -0.845484 1.82794 0
M  V30 5273 C 517.502 -1.14714 3.27172 0
M  V30 5274 C 516.563 -0.416746 4.27272 0
M  V30 5275 C 515.796 -1.36806 5.15868 0
M  V30 5276 O 516.019 -2.60475 5.07454 0
M  V30 5277 O 514.953 -0.877018 5.95476 0
M  V30 5278 H 518.779 0.572882 2.98248 0
M  V30 5279 H 516.364 0.346082 1.45336 0
M  V30 5280 H 518.246 -1.72303 3.84564 0
M  V30 5281 H 516.921 -1.84967 2.65648 0
M  V30 5282 H 515.828 0.201061 3.73559 0
M  V30 5283 H 517.161 0.244872 4.9159 0
M  V30 5284 N 518.813 -1.54241 0.323641 0
M  V30 5285 C 519.723 -2.28033 -0.551205 0
M  V30 5286 C 520.739 -1.32388 -1.12913 0
M  V30 5287 O 521.915 -1.65403 -1.14908 0
M  V30 5288 C 518.98 -3.02382 -1.69606 0
M  V30 5289 C 518.041 -4.13612 -1.14993 0
M  V30 5290 C 517.274 -4.84407 -2.24022 0
M  V30 5291 O 517.497 -4.54716 -3.44368 0
M  V30 5292 O 516.431 -5.71312 -1.89436 0
M  V30 5293 H 520.257 -3.03662 0.048066 0
M  V30 5294 H 517.842 -1.49133 0.0893289 0
M  V30 5295 H 519.724 -3.48941 -2.36259 0
M  V30 5296 H 518.399 -2.29628 -2.28151 0
M  V30 5297 H 517.306 -3.71402 -0.448484 0
M  V30 5298 H 518.639 -4.8841 -0.609608 0
M  V30 5299 N 520.291 -0.0518155 -1.57515 0
M  V30 5300 C 521.707 0.304735 -1.56664 0
M  V30 5301 C 521.907 1.71395 -1.05953 0
M  V30 5302 O 520.963 2.42123 -0.716414 0
M  V30 5303 C 522.276 0.132614 -3.00407 0
M  V30 5304 C 523.824 0.20367 -3.12337 0
M  V30 5305 C 524.299 0.0600706 -4.57961 0
M  V30 5306 N 525.79 0.116326 -4.63054 0
M  V30 5307 C 526.525 0.0293363 -5.73392 0
M  V30 5308 N 526.021 -0.110038 -6.92713 0
M  V30 5309 N 527.814 0.0849651 -5.62036 0
M  V30 5310 H 519.965 -0.973056 -1.888 0
M  V30 5311 H 522.228 -0.377781 -0.869474 0
M  V30 5312 H 521.934 -0.839019 -3.41546 0
M  V30 5313 H 521.808 0.893376 -3.66468 0
M  V30 5314 H 524.195 1.16578 -2.71097 0
M  V30 5315 H 524.276 -0.587857 -2.48954 0
M  V30 5316 H 523.92 -0.898715 -4.99886 0
M  V30 5317 H 523.85 0.87075 -5.19351 0
M  V30 5318 H 526.341 0.22327 -3.7724 0
M  V30 5319 H 526.654 -0.169104 -7.72615 0
M  V30 5320 H 524.999 -0.145132 -6.94848 0
M  V30 5321 H 528.19 0.192411 -4.67704 0
M  V30 5322 H 528.363 0.0137131 -6.47999 0
M  V30 5323 N 521.769 1.56035 0.221574 0
M  V30 5324 C 523.015 1.79312 0.947372 0
M  V30 5325 C 523.348 0.621453 1.83988 0
M  V30 5326 O 522.623 -0.379287 1.90766 0
M  V30 5327 C 522.906 3.1267 1.78633 0
M  V30 5328 C 522.759 4.40284 0.920312 0
M  V30 5329 C 524.078 3.4247 2.7641 0
M  V30 5330 H 521.197 0.652328 0.342982 0
M  V30 5331 H 523.839 1.88765 0.216244 0
M  V30 5332 H 521.989 3.04741 2.40967 0
M  V30 5333 H 523.661 4.60232 0.313718 0
M  V30 5334 H 521.904 4.33212 0.225734 0
M  V30 5335 H 522.575 5.30033 1.54171 0
M  V30 5336 H 525.051 3.50526 2.24211 0
M  V30 5337 H 523.927 4.3695 3.32213 0
M  V30 5338 H 524.188 2.64635 3.54148 0
M  V30 5339 N 523.247 -0.488276 1.49845 0
M  V30 5340 C 524.495 -1.23911 1.59657 0
M  V30 5341 C 524.816 -1.92816 0.291005 0
M  V30 5342 O 524.086 -1.83328 -0.690485 0
M  V30 5343 H 522.666 -0.460357 0.588286 0
M  V30 5344 H 525.328 -0.564794 1.86537 0
M  V30 5345 H 524.424 -1.99625 2.39909 0
M  V30 5346 N 524.725 -1.39134 -0.740242 0
M  V30 5347 C 525.688 -1.37217 -1.83587 0
M  V30 5348 C 526.688 -0.270221 -1.58513 0
M  V30 5349 O 527.878 -0.527843 -1.6601 0
M  V30 5350 C 525.01 -1.13959 -3.21288 0
M  V30 5351 H 526.203 -2.34705 -1.86691 0
M  V30 5352 H 523.756 -1.24622 -0.94335 0
M  V30 5353 H 524.491 -0.17131 -3.23847 0
M  V30 5354 H 524.276 -1.93754 -3.40884 0
M  V30 5355 H 525.766 -1.15346 -4.01354 0
M  V30 5356 N 526.204 0.969867 -1.24223 0
M  V30 5357 C 527.167 2.04564 -1.03373 0
M  V30 5358 C 528.167 1.60798 0.00819206 0
M  V30 5359 O 529.357 1.72641 -0.232567 0
M  V30 5360 C 526.489 3.36163 -0.566343 0
M  V30 5361 H 527.682 2.24494 -1.98853 0
M  V30 5362 H 525.235 1.1448 -1.06415 0
M  V30 5363 H 525.97 3.21925 0.391751 0
M  V30 5364 H 525.755 3.69273 -1.31834 0
M  V30 5365 H 527.245 4.1526 -0.441435 0
M  V30 5366 N 527.682 1.05563 1.17022 0
M  V30 5367 C 528.629 0.659893 2.21165 0
M  V30 5368 C 529.599 -0.339813 1.62587 0
M  V30 5369 O 530.784 -0.230378 1.89404 0
M  V30 5370 C 527.924 0.0447297 3.45071 0
M  V30 5371 C 527.037 1.09372 4.17926 0
M  V30 5372 C 526.172 0.445481 5.29329 0
M  V30 5373 C 525.211 1.47852 5.93975 0
M  V30 5374 N 524.348 0.854172 6.96885 0
M  V30 5375 H 529.188 1.55243 2.54369 0
M  V30 5376 H 526.725 0.776336 1.24946 0
M  V30 5377 H 528.683 -0.329404 4.15898 0
M  V30 5378 H 527.313 -0.811244 3.1244 0
M  V30 5379 H 526.365 1.58564 3.45777 0
M  V30 5380 H 527.677 1.87773 4.62107 0
M  V30 5381 H 526.831 0.0179688 6.06697 0
M  V30 5382 H 525.57 -0.370481 4.86291 0
M  V30 5383 H 524.575 1.91601 5.15334 0
M  V30 5384 H 525.8 2.29645 6.39093 0
M  V30 5385 H 523.746 0.0587882 6.55974 0
M  V30 5386 H 523.663 1.57567 7.39397 0
M  V30 5387 H 524.931 0.451559 7.78191 0
M  V30 5388 N 529.16 -1.33526 0.837174 0
M  V30 5389 C 530.123 -2.27551 0.274421 0
M  V30 5390 C 531.123 -1.50886 -0.555881 0
M  V30 5391 O 532.313 -1.70227 -0.369918 0
M  V30 5392 C 529.445 -3.35332 -0.613605 0
M  V30 5393 H 530.638 -2.78837 1.10408 0
M  V30 5394 H 528.191 -1.439 0.610126 0
M  V30 5395 H 528.926 -2.89285 -1.46577 0
M  V30 5396 H 528.711 -3.92095 -0.0195341 0
M  V30 5397 H 530.201 -4.05433 -1.00068 0
M  V30 5398 N 530.638 -0.59345 -1.46 0
M  V30 5399 C 531.863 -0.0872365 -2.07216 0
M  V30 5400 C 532.288 1.2131 -1.43755 0
M  V30 5401 O 531.646 1.73528 -0.525152 0
M  V30 5402 C 531.694 0.0538197 -3.6056 0
M  V30 5403 O 530.798 1.10765 -3.97247 0
M  V30 5404 H 530.139 -0.0676598 -0.660544 0
M  V30 5405 H 532.669 -0.819445 -1.87473 0
M  V30 5406 H 532.679 0.256567 -4.07193 0
M  V30 5407 H 531.354 -0.895739 -4.0614 0
M  V30 5408 H 529.931 0.882501 -3.62307 0
M  V30 5409 N 532.116 1.54067 -0.331816 0
M  V30 5410 C 533.532 1.59587 0.0205388 0
M  V30 5411 C 533.732 1.34813 1.49759 0
M  V30 5412 O 532.788 1.13661 2.25471 0
M  V30 5413 C 534.101 2.97959 -0.405103 0
M  V30 5414 C 535.649 3.10964 -0.356454 0
M  V30 5415 C 536.124 4.51694 -0.757384 0
M  V30 5416 N 537.615 4.57709 -0.71111 0
M  V30 5417 C 538.35 5.64729 -0.993427 0
M  V30 5418 N 537.846 6.79652 -1.3433 0
M  V30 5419 N 539.639 5.54546 -0.918442 0
M  V30 5420 H 531.79 1.68426 -1.29407 0
M  V30 5421 H 534.053 0.78819 -0.526745 0
M  V30 5422 H 533.759 3.21115 -1.43451 0
M  V30 5423 H 533.633 3.76524 0.225692 0
M  V30 5424 H 536.02 2.87538 0.663763 0
M  V30 5425 H 536.101 2.34484 -1.02229 0
M  V30 5426 H 535.745 4.75853 -1.77555 0
M  V30 5427 H 535.675 5.26555 -0.0691444 0
M  V30 5428 H 538.166 3.75176 -0.452883 0
M  V30 5429 H 538.479 7.57221 -1.54388 0
M  V30 5430 H 536.824 6.81128 -1.38164 0
M  V30 5431 H 540.015 4.63641 -0.644536 0
M  V30 5432 H 540.188 6.37861 -1.14181 0
M  V30 5433 N 533.594 0.0601682 1.57485 0
M  V30 5434 C 534.84 -0.606552 1.94146 0
M  V30 5435 C 535.195 -1.67918 0.939225 0
M  V30 5436 O 534.488 -1.91558 -0.0402649 0
M  V30 5437 C 534.682 -1.23831 3.35262 0
M  V30 5438 C 534.511 -0.228408 4.4912 0
M  V30 5439 C 533.281 0.182813 5.04969 0
M  V30 5440 C 535.479 0.52975 5.11564 0
M  V30 5441 N 533.461 1.18464 6.02362 0
M  V30 5442 C 534.832 1.38439 6.04346 0
M  V30 5443 C 536.887 0.587084 4.94427 0
M  V30 5444 C 535.59 2.29125 6.81832 0
M  V30 5445 C 537.616 1.4814 5.72546 0
M  V30 5446 C 536.978 2.32375 6.64967 0
M  V30 5447 H 533.077 -0.193328 0.757726 0
M  V30 5448 H 535.661 0.1346 1.94234 0
M  V30 5449 H 533.832 -1.94944 3.35933 0
M  V30 5450 H 535.564 -1.86456 3.59188 0
M  V30 5451 H 532.319 -0.197968 4.73186 0
M  V30 5452 H 532.743 1.68271 6.55754 0
M  V30 5453 H 537.385 -0.049944 4.22771 0
M  V30 5454 H 535.103 2.93868 7.52773 0
M  V30 5455 H 538.689 1.53045 5.6131 0
M  V30 5456 H 537.569 3.00454 7.2436 0
M  V30 5457 N 535.072 -1.5615 -0.213296 0
M  V30 5458 C 536.488 -1.49327 -0.56336 0
M  V30 5459 C 536.688 -0.756826 -1.86747 0
M  V30 5460 O 535.744 -0.299866 -2.50713 0
M  V30 5461 C 537.057 -2.9392 -0.634944 0
M  V30 5462 C 538.605 -3.04487 -0.725013 0
M  V30 5463 C 539.08 -4.50456 -0.82787 0
M  V30 5464 N 540.571 -4.54533 -0.891876 0
M  V30 5465 C 541.306 -5.64766 -0.991315 0
M  V30 5466 N 540.802 -6.84733 -1.05419 0
M  V30 5467 N 542.595 -5.52637 -1.02709 0
M  V30 5468 H 534.746 -2.02453 0.642366 0
M  V30 5469 H 537.009 -0.920548 0.226487 0
M  V30 5470 H 536.715 -3.50783 0.253859 0
M  V30 5471 H 536.589 -3.46274 -1.49579 0
M  V30 5472 H 538.976 -2.47685 -1.60425 0
M  V30 5473 H 539.057 -2.55289 0.161669 0
M  V30 5474 H 538.701 -5.07878 0.0469464 0
M  V30 5475 H 538.631 -4.97369 -1.73009 0
M  V30 5476 H 541.122 -3.68141 -0.85327 0
M  V30 5477 H 541.435 -7.64493 -1.13007 0
M  V30 5478 H 539.78 -6.87427 -1.02318 0
M  V30 5479 H 542.971 -4.5784 -0.974687 0
M  V30 5480 H 543.144 -6.38576 -1.10113 0
M  V30 5481 N 536.55 0.480323 -1.50102 0
M  V30 5482 C 537.798 1.23063 -1.60312 0
M  V30 5483 C 538.119 1.92659 -0.301226 0
M  V30 5484 O 537.389 1.83691 0.680753 0
M  V30 5485 H 535.969 0.457231 -0.590719 0
M  V30 5486 H 538.631 0.554893 -1.86834 0
M  V30 5487 H 537.727 1.9835 -2.40964 0
M  V30 5488 N 538.028 1.39524 0.732853 0
M  V30 5489 C 539.444 1.21176 1.03868 0
M  V30 5490 C 539.644 0.0748448 2.01361 0
M  V30 5491 O 538.7 -0.57281 2.45917 0
M  V30 5492 C 540.013 2.54667 1.59892 0
M  V30 5493 C 541.561 2.6153 1.71962 0
M  V30 5494 C 542.036 3.95248 2.31394 0
M  V30 5495 N 543.527 3.96899 2.38801 0
M  V30 5496 C 544.262 4.97138 2.85729 0
M  V30 5497 N 543.758 6.07775 3.32537 0
M  V30 5498 N 545.551 4.84516 2.84957 0
M  V30 5499 H 537.702 2.12225 0.086304 0
M  V30 5500 H 539.965 0.942614 0.100907 0
M  V30 5501 H 539.671 3.38423 0.95721 0
M  V30 5502 H 539.545 2.74538 2.58668 0
M  V30 5503 H 541.932 1.78156 2.35254 0
M  V30 5504 H 542.013 2.45507 0.718327 0
M  V30 5505 H 541.657 4.79054 1.68729 0
M  V30 5506 H 541.587 4.08593 3.32204 0
M  V30 5507 H 544.078 3.16998 2.05719 0
M  V30 5508 H 544.391 6.8017 3.66862 0
M  V30 5509 H 542.736 6.11366 3.30541 0
M  V30 5510 H 545.927 3.97185 2.47713 0
M  V30 5511 H 546.1 5.62783 3.21215 0
M  V30 5512 N 539.506 -0.963266 1.24736 0
M  V30 5513 C 540.438 -2.06162 1.0015 0
M  V30 5514 C 541.451 -1.62771 -0.0305905 0
M  V30 5515 O 542.64 -1.77296 0.206966 0
M  V30 5516 C 539.74 -3.35333 0.490385 0
M  V30 5517 C 538.913 -4.07609 1.58663 0
M  V30 5518 C 537.972 -5.15052 1.0774 0
M  V30 5519 O 536.998 -5.4098 1.77002 0
M  V30 5520 N 538.2 -5.80436 -0.0858605 0
M  V30 5521 H 540.965 -2.27825 1.94719 0
M  V30 5522 H 538.526 -1.13121 1.15825 0
M  V30 5523 H 540.518 -4.04477 0.134371 0
M  V30 5524 H 539.088 -3.10507 -0.361155 0
M  V30 5525 H 538.308 -3.32681 2.11463 0
M  V30 5526 H 539.596 -4.52656 2.32336 0
M  V30 5527 H 538.994 -5.6178 -0.664806 0
M  V30 5528 H 537.551 -6.50674 -0.382981 0
M  V30 5529 N 540.985 -1.06182 -1.16461 0
M  V30 5530 C 541.933 -0.665716 -2.2287 0
M  V30 5531 C 542.927 0.317822 -1.66392 0
M  V30 5532 O 544.133 0.182807 -1.79069 0
M  V30 5533 H 540.508 -0.197148 -0.725697 0
M  V30 5534 H 542.479 -1.57307 -2.53569 0
M  V30 5535 C 541.228 -0.0669803 -3.47635 0
M  V30 5536 H 540.551 -0.814899 -3.91407 0
M  V30 5537 H 541.991 0.172669 -4.23648 0
M  V30 5538 C 540.45 1.18913 -3.15216 0
M  V30 5539 O 540.98 2.27723 -3.30916 0
M  V30 5540 N 539.186 1.09066 -2.69357 0
M  V30 5541 H 538.733 0.20518 -2.56782 0
M  V30 5542 H 538.691 1.93195 -2.48039 0
M  V30 5543 N 542.463 1.3308 -0.844243 0
M  V30 5544 C 543.879 1.50447 -0.532729 0
M  V30 5545 C 544.079 1.78292 0.938837 0
M  V30 5546 O 543.135 1.84635 1.72239 0
M  V30 5547 C 544.448 2.65555 -1.41072 0
M  V30 5548 C 545.996 2.7944 -1.41005 0
M  V30 5549 C 546.471 3.97616 -2.27301 0
M  V30 5550 N 547.962 4.0486 -2.2504 0
M  V30 5551 C 548.697 4.95508 -2.88547 0
M  V30 5552 N 548.193 5.91236 -3.61126 0
M  V30 5553 N 549.986 4.88548 -2.77989 0
M  V30 5554 H 542.137 1.13269 -1.79677 0
M  V30 5555 H 544.4 0.55734 -0.766861 0
M  V30 5556 H 544.106 2.51675 -2.45668 0
M  V30 5557 H 543.98 3.61089 -1.09061 0
M  V30 5558 H 546.367 2.92749 -0.371784 0
M  V30 5559 H 546.448 1.8465 -1.77026 0
M  V30 5560 H 546.092 3.85066 -3.3119 0
M  V30 5561 H 546.022 4.91661 -1.88619 0
M  V30 5562 H 548.513 3.36353 -1.72264 0
M  V30 5563 H 548.826 6.57079 -4.06776 0
M  V30 5564 H 547.171 5.91295 -3.65234 0
M  V30 5565 H 550.362 4.12729 -2.20846 0
M  V30 5566 H 550.535 5.58994 -3.27765 0
M  V30 5567 N 543.941 0.601185 1.45683 0
M  V30 5568 C 544.851 -0.123395 2.34275 0
M  V30 5569 C 545.867 -0.86702 1.5086 0
M  V30 5570 O 547.043 -0.826049 1.8368 0
M  V30 5571 C 544.108 -1.11237 3.2837 0
M  V30 5572 C 543.169 -0.371405 4.2769 0
M  V30 5573 C 542.402 -1.31327 5.1729 0
M  V30 5574 O 542.625 -2.55078 5.10188 0
M  V30 5575 O 541.559 -0.813811 5.96373 0
M  V30 5576 H 545.385 0.604483 2.97623 0
M  V30 5577 H 542.97 0.361477 1.44961 0
M  V30 5578 H 544.852 -1.68214 3.8637 0
M  V30 5579 H 543.527 -1.82139 2.67595 0
M  V30 5580 H 542.434 0.24067 3.73325 0
M  V30 5581 H 543.767 0.296998 4.91303 0
M  V30 5582 N 545.419 -1.53889 0.339982 0
M  V30 5583 C 546.366 -2.24902 -0.518452 0
M  V30 5584 C 547.336 -1.24593 -1.09844 0
M  V30 5585 O 548.521 -1.53317 -1.13572 0
M  V30 5586 C 545.661 -3.02262 -1.66529 0
M  V30 5587 C 544.774 -4.17418 -1.11295 0
M  V30 5588 C 543.909 -4.82273 -2.2268 0
M  V30 5589 C 542.948 -5.89503 -1.6478 0
M  V30 5590 N 542.085 -6.48153 -2.69893 0
M  V30 5591 H 546.925 -2.97853 0.0936579 0
M  V30 5592 H 544.462 -1.46986 0.0579924 0
M  V30 5593 H 546.42 -3.45371 -2.3404 0
M  V30 5594 H 545.05 -2.31614 -2.24844 0
M  V30 5595 H 544.102 -3.78976 -0.328886 0
M  V30 5596 H 545.414 -4.94554 -0.649414 0
M  V30 5597 H 544.568 -5.28435 -2.98063 0
M  V30 5598 H 543.307 -4.04552 -2.72376 0
M  V30 5599 H 542.312 -5.42728 -0.879004 0
M  V30 5600 H 543.537 -6.6913 -1.1594 0
M  V30 5601 H 541.483 -5.73298 -3.1885 0
M  V30 5602 H 541.4 -7.20752 -2.28151 0
M  V30 5603 H 542.668 -6.98968 -3.45056 0
M  V30 5604 N 546.897 -0.0685191 -1.57451 0
M  V30 5605 C 548.313 0.288101 -1.56978 0
M  V30 5606 C 548.513 1.70262 -1.07765 0
M  V30 5607 O 547.569 2.4135 -0.742054 0
M  V30 5608 C 548.882 0.100745 -3.00531 0
M  V30 5609 C 550.43 0.170531 -3.12535 0
M  V30 5610 C 550.905 0.0114944 -4.57999 0
M  V30 5611 N 552.396 0.0672065 -4.63151 0
M  V30 5612 C 553.131 -0.0314813 -5.73391 0
M  V30 5613 N 552.627 -0.183503 -6.92557 0
M  V30 5614 N 554.42 0.0253489 -5.62094 0
M  V30 5615 H 546.571 -0.993026 -1.87757 0
M  V30 5616 H 548.834 -0.386981 -0.865419 0
M  V30 5617 H 548.54 -0.875197 -3.40636 0
M  V30 5618 H 548.414 0.854457 -3.67395 0
M  V30 5619 H 550.801 1.13696 -2.72318 0
M  V30 5620 H 550.882 -0.614229 -2.48316 0
M  V30 5621 H 550.526 -0.951684 -4.98904 0
M  V30 5622 H 550.456 0.815617 -5.20245 0
M  V30 5623 H 552.947 0.183246 -3.77455 0
M  V30 5624 H 553.26 -0.251041 -7.72392 0
M  V30 5625 H 551.605 -0.218822 -6.94655 0
M  V30 5626 H 554.796 0.142794 -4.67882 0
M  V30 5627 H 554.969 -0.0550166 -6.47977 0
M  V30 5628 N 548.375 1.56261 0.205012 0
M  V30 5629 C 549.622 1.8004 0.926927 0
M  V30 5630 C 549.95 0.640086 1.83666 0
M  V30 5631 O 549.205 -0.374702 1.92079 0
M  V30 5632 C 549.504 3.09722 1.78345 0
M  V30 5633 C 549.17 4.39082 1.02555 0
M  V30 5634 C 547.832 4.74226 0.816256 0
M  V30 5635 C 550.184 5.18877 0.491559 0
M  V30 5636 C 547.512 5.86668 0.0613287 0
M  V30 5637 C 549.864 6.32105 -0.250107 0
M  V30 5638 C 548.528 6.6584 -0.470508 0
M  V30 5639 H 547.798 0.658812 0.339187 0
M  V30 5640 H 550.445 1.90515 0.19395 0
M  V30 5641 H 548.75 2.9444 2.5848 0
M  V30 5642 H 550.447 3.25324 2.34446 0
M  V30 5643 H 547.037 4.11497 1.19868 0
M  V30 5644 H 551.221 4.92147 0.640684 0
M  V30 5645 H 546.477 6.11283 -0.119501 0
M  V30 5646 H 550.651 6.93157 -0.671307 0
M  V30 5647 H 548.278 7.5281 -1.05739 0
M  V30 5648 N 549.853 -0.472356 1.50355 0
M  V30 5649 C 551.081 -1.24784 1.65035 0
M  V30 5650 C 551.496 -1.85837 0.333176 0
M  V30 5651 O 550.853 -1.69168 -0.68472 0
M  V30 5652 C 550.904 -2.35747 2.74054 0
M  V30 5653 O 550.625 -1.77197 4.00665 0
M  V30 5654 C 552.126 -3.26645 2.99696 0
M  V30 5655 H 549.346 -0.377432 0.554785 0
M  V30 5656 H 551.89 -0.563962 1.9657 0
M  V30 5657 H 550.045 -2.99912 2.45217 0
M  V30 5658 H 550.459 -2.5026 4.60945 0
M  V30 5659 H 551.933 -4.00718 3.79644 0
M  V30 5660 H 552.41 -3.8535 2.10718 0
M  V30 5661 H 553.016 -2.68218 3.3006 0
M  V30 5662 N 551.331 -1.39911 -0.725443 0
M  V30 5663 C 552.578 -1.37654 -1.48518 0
M  V30 5664 C 552.906 0.0243982 -1.94485 0
M  V30 5665 O 552.161 1.00708 -1.67799 0
M  V30 5666 C 552.46 -2.30368 -2.7325 0
M  V30 5667 C 552.126 -3.77817 -2.461 0
M  V30 5668 C 550.788 -4.17991 -2.38405 0
M  V30 5669 C 553.14 -4.71036 -2.23103 0
M  V30 5670 C 550.468 -5.49433 -2.05768 0
M  V30 5671 C 552.82 -6.02766 -1.9198 0
M  V30 5672 C 551.484 -6.41993 -1.82761 0
M  V30 5673 H 550.754 -0.503713 -0.543465 0
M  V30 5674 H 553.401 -1.7249 -0.831822 0
M  V30 5675 H 551.706 -1.88683 -3.43375 0
M  V30 5676 H 553.403 -2.2591 -3.31309 0
M  V30 5677 H 549.993 -3.45982 -2.52972 0
M  V30 5678 H 554.177 -4.40823 -2.2801 0
M  V30 5679 H 549.433 -5.78738 -1.9716 0
M  V30 5680 H 553.607 -6.74519 -1.73197 0
M  V30 5681 H 551.234 -7.43761 -1.57237 0
M  V30 5682 N 552.809 0.956637 -1.25245 0
M  V30 5683 C 554.055 1.70352 -1.10036 0
M  V30 5684 C 554.388 1.90869 0.358156 0
M  V30 5685 O 553.663 1.47819 1.26411 0
M  V30 5686 C 553.946 3.08766 -1.85298 0
M  V30 5687 C 553.799 2.95672 -3.38966 0
M  V30 5688 C 555.118 4.08622 -1.63451 0
M  V30 5689 H 552.237 0.618279 -0.401123 0
M  V30 5690 H 554.879 1.11212 -1.54051 0
M  V30 5691 H 553.029 3.59252 -1.47887 0
M  V30 5692 H 554.701 2.52527 -3.86041 0
M  V30 5693 H 552.944 2.31634 -3.6678 0
M  V30 5694 H 553.615 3.93776 -3.86839 0
M  V30 5695 H 556.091 3.67038 -1.96015 0
M  V30 5696 H 554.967 5.03514 -2.18551 0
M  V30 5697 H 555.228 4.3834 -0.575357 0
M  V30 5698 N 554.287 1.06798 1.15896 0
M  V30 5699 C 555.217 0.704677 2.22613 0
M  V30 5700 C 556.198 -0.305252 1.67339 0
M  V30 5701 O 557.383 -0.179247 1.93371 0
M  V30 5702 C 554.513 0.0957325 3.47168 0
M  V30 5703 C 553.467 1.0322 4.15367 0
M  V30 5704 C 552.793 0.286293 5.33933 0
M  V30 5705 C 554.093 2.36341 4.65768 0
M  V30 5706 H 555.787 1.59688 2.53259 0
M  V30 5707 H 553.333 0.769257 1.21731 0
M  V30 5708 H 555.286 -0.170333 4.21056 0
M  V30 5709 H 554.01 -0.831516 3.15838 0
M  V30 5710 H 552.669 1.28309 3.43413 0
M  V30 5711 H 552.317 -0.644237 4.98857 0
M  V30 5712 H 552.017 0.910436 5.80504 0
M  V30 5713 H 553.541 0.0278938 6.10594 0
M  V30 5714 H 554.955 2.1561 5.31211 0
M  V30 5715 H 553.352 2.94299 5.2298 0
M  V30 5716 H 554.422 2.99047 3.81705 0
M  V30 5717 N 555.766 -1.3263 0.851289 0
M  V30 5718 C 556.729 -2.27247 0.298541 0
M  V30 5719 C 557.729 -1.51467 -0.539847 0
M  V30 5720 O 558.919 -1.7061 -0.351843 0
M  V30 5721 C 556.051 -3.35964 -0.578004 0
M  V30 5722 H 557.244 -2.7765 1.13359 0
M  V30 5723 H 554.797 -1.43245 0.625354 0
M  V30 5724 H 555.532 -2.90823 -1.435 0
M  V30 5725 H 555.317 -3.92094 0.0220539 0
M  V30 5726 H 556.807 -4.06472 -0.957626 0
M  V30 5727 N 557.244 -0.608902 -1.45362 0
M  V30 5728 C 558.49 -0.104762 -2.02529 0
M  V30 5729 C 558.823 1.26191 -1.47613 0
M  V30 5730 O 558.098 1.8327 -0.65134 0
M  V30 5731 C 558.381 -0.0672661 -3.60037 0
M  V30 5732 C 558.234 -1.4647 -4.25284 0
M  V30 5733 C 559.553 0.619877 -4.35713 0
M  V30 5734 H 556.672 -0.0395438 -0.735938 0
M  V30 5735 H 559.314 -0.781126 -1.73201 0
M  V30 5736 H 557.464 0.50871 -3.85155 0
M  V30 5737 H 559.136 -2.08785 -4.11347 0
M  V30 5738 H 557.379 -2.02502 -3.83634 0
M  V30 5739 H 558.05 -1.39069 -5.34195 0
M  V30 5740 H 560.526 0.130297 -4.15896 0
M  V30 5741 H 559.402 0.615224 -5.45441 0
M  V30 5742 H 559.663 1.68621 -4.0868 0
M  V30 5743 N 558.722 1.53707 -0.348139 0
M  V30 5744 C 559.968 2.01286 0.247332 0
M  V30 5745 C 560.301 1.23546 1.49834 0
M  V30 5746 O 559.576 0.324331 1.91777 0
M  V30 5747 C 559.859 3.55768 0.556858 0
M  V30 5748 C 559.712 4.44216 -0.706564 0
M  V30 5749 C 561.031 4.1841 1.3646 0
M  V30 5750 H 558.15 0.731677 0.0884201 0
M  V30 5751 H 560.792 1.84106 -0.469584 0
M  V30 5752 H 558.942 3.70539 1.16761 0
M  V30 5753 H 560.614 4.41274 -1.34444 0
M  V30 5754 H 558.857 4.12892 -1.33052 0
M  V30 5755 H 559.528 5.50202 -0.445186 0
M  V30 5756 H 562.004 4.07365 0.848113 0
M  V30 5757 H 560.88 5.26563 1.54992 0
M  V30 5758 H 561.141 3.7333 2.36805 0
M  V30 5759 N 560.2 0.0768682 1.57412 0
M  V30 5760 C 561.449 -0.590679 1.92857 0
M  V30 5761 C 561.762 -1.70461 0.959293 0
M  V30 5762 O 562.968 -2.43207 1.20675 0
M  V30 5763 C 561.424 -1.10204 3.42612 0
M  V30 5764 C 561.032 -0.0188447 4.47996 0
M  V30 5765 C 562.776 -1.74336 3.87049 0
M  V30 5766 C 560.683 -0.544536 5.88888 0
M  V30 5767 H 559.613 -0.224411 0.71983 0
M  V30 5768 H 562.264 0.149924 1.82887 0
M  V30 5769 H 560.646 -1.89577 3.47673 0
M  V30 5770 H 561.82 0.755936 4.54557 0
M  V30 5771 H 560.135 0.526555 4.13057 0
M  V30 5772 H 562.732 -2.14708 4.89699 0
M  V30 5773 H 563.075 -2.60537 3.24694 0
M  V30 5774 H 563.608 -1.01577 3.84613 0
M  V30 5775 H 560.347 0.280426 6.549 0
M  V30 5776 H 559.867 -1.28673 5.85836 0
M  V30 5777 H 561.546 -1.01933 6.3892 0
M  V30 5778 N 561.678 -1.56367 -0.196722 0
M  V30 5779 C 562.926 -1.80172 -0.915554 0
M  V30 5780 C 563.247 -0.649649 -1.8386 0
M  V30 5781 O 562.517 0.332111 -1.93064 0
M  V30 5782 H 561.097 -0.664592 -0.341067 0
M  V30 5783 H 563.759 -1.93844 -0.202622 0
M  V30 5784 H 562.855 -2.7327 -1.50764 0
M  V30 5785 N 563.156 0.464375 -1.50603 0
M  V30 5786 C 564.402 1.21776 -1.62168 0
M  V30 5787 C 564.735 1.91476 -0.324154 0
M  V30 5788 O 564.01 1.8242 0.674782 0
M  V30 5789 C 564.293 2.25614 -2.80661 0
M  V30 5790 C 564.146 1.60175 -4.20314 0
M  V30 5791 C 565.465 3.26862 -2.94702 0
M  V30 5792 H 562.584 0.44137 -0.590222 0
M  V30 5793 H 565.226 0.510623 -1.8301 0
M  V30 5794 H 563.376 2.85923 -2.63021 0
M  V30 5795 H 565.048 1.03411 -4.4956 0
M  V30 5796 H 563.291 0.904697 -4.24261 0
M  V30 5797 H 563.962 2.35665 -4.99165 0
M  V30 5798 H 566.438 2.76582 -3.10872 0
M  V30 5799 H 565.314 3.96839 -3.79223 0
M  V30 5800 H 565.575 3.91382 -2.05603 0
M  V30 5801 N 564.634 1.40294 0.718013 0
M  V30 5802 C 565.881 1.3844 1.47786 0
M  V30 5803 C 566.209 -0.0140838 1.94495 0
M  V30 5804 O 565.464 -0.998165 1.68331 0
M  V30 5805 C 565.763 2.31814 2.72024 0
M  V30 5806 C 565.429 3.79117 2.44093 0
M  V30 5807 C 564.091 4.19249 2.36185 0
M  V30 5808 C 566.443 4.72212 2.20602 0
M  V30 5809 C 563.771 5.50516 2.02851 0
M  V30 5810 C 566.123 6.03775 1.88781 0
M  V30 5811 C 564.787 6.42953 1.79354 0
M  V30 5812 H 564.057 0.506588 0.540786 0
M  V30 5813 H 566.704 1.72929 0.822663 0
M  V30 5814 H 565.009 1.90501 3.42369 0
M  V30 5815 H 566.706 2.27664 3.30106 0
M  V30 5816 H 563.296 3.47318 2.51133 0
M  V30 5817 H 567.48 4.42026 2.25669 0
M  V30 5818 H 562.736 5.79776 1.94088 0
M  V30 5819 H 566.91 6.75428 1.69617 0
M  V30 5820 H 564.537 7.44584 1.53291 0
M  V30 5821 N 566.112 -0.949982 1.2575 0
M  V30 5822 C 567.358 -1.69766 1.10938 0
M  V30 5823 C 567.691 -1.91056 -0.348028 0
M  V30 5824 O 566.966 -1.48488 -1.25625 0
M  V30 5825 C 567.249 -3.07779 1.86933 0
M  V30 5826 C 567.102 -2.9387 3.4053 0
M  V30 5827 C 568.421 -4.07749 1.65616 0
M  V30 5828 H 565.54 -0.616144 0.404396 0
M  V30 5829 H 568.182 -1.10394 1.54639 0
M  V30 5830 H 566.332 -3.58462 1.4979 0
M  V30 5831 H 568.004 -2.50476 3.87375 0
M  V30 5832 H 566.247 -2.29686 3.68004 0
M  V30 5833 H 566.918 -3.91719 3.88922 0
M  V30 5834 H 569.394 -3.65994 1.97959 0
M  V30 5835 H 568.27 -5.02348 2.21218 0
M  V30 5836 H 568.531 -4.38029 0.598595 0
M  V30 5837 N 567.59 -1.07411 -1.15328 0
M  V30 5838 C 568.836 -0.798831 -1.86404 0
M  V30 5839 C 569.169 0.673433 -1.8215 0
M  V30 5840 O 568.444 1.49428 -1.24505 0
M  V30 5841 C 568.727 -1.30846 -3.35487 0
M  V30 5842 C 568.58 -2.84532 -3.4837 0
M  V30 5843 C 569.899 -0.925486 -4.30259 0
M  V30 5844 H 567.018 -0.291659 -0.676834 0
M  V30 5845 H 569.66 -1.332 -1.35491 0
M  V30 5846 H 567.81 -0.854916 -3.78977 0
M  V30 5847 H 569.482 -3.3818 -3.13739 0
M  V30 5848 H 567.725 -3.22699 -2.8991 0
M  V30 5849 H 568.396 -3.15259 -4.53118 0
M  V30 5850 H 570.872 -1.3163 -3.94731 0
M  V30 5851 H 569.748 -1.3094 -5.33053 0
M  V30 5852 H 570.009 0.168525 -4.41779 0
M  V30 5853 N 569.068 1.32177 -0.85831 0
M  V30 5854 C 570.308 1.98927 -0.469822 0
M  V30 5855 C 570.672 1.66423 0.95746 0
M  V30 5856 O 571.873 2.26293 1.45069 0
M  V30 5857 C 570.144 3.50352 -0.706288 0
M  V30 5858 S 571.703 4.36824 -0.415918 0
M  V30 5859 H 568.521 0.688909 -0.175855 0
M  V30 5860 H 571.123 1.60807 -1.11181 0
M  V30 5861 H 569.827 3.71497 -1.74407 0
M  V30 5862 H 569.358 3.93367 -0.0508568 0
M  V30 5863 H 571.373 4.90398 0.756581 0
M  V30 5864 N 570.547 0.616602 1.45037 0
M  V30 5865 C 571.793 0.123965 2.03022 0
M  V30 5866 C 572.148 -1.23508 1.47525 0
M  V30 5867 O 571.441 -1.80453 0.643981 0
M  V30 5868 C 571.635 0.0356829 3.57382 0
M  V30 5869 C 571.464 1.38462 4.27853 0
M  V30 5870 C 570.234 1.96766 4.65415 0
M  V30 5871 C 572.432 2.31536 4.59234 0
M  V30 5872 N 570.414 3.25046 5.20786 0
M  V30 5873 C 571.785 3.4442 5.15533 0
M  V30 5874 C 573.84 2.30796 4.41178 0
M  V30 5875 C 572.543 4.56742 5.55679 0
M  V30 5876 C 574.569 3.42171 4.82362 0
M  V30 5877 C 573.931 4.53778 5.38762 0
M  V30 5878 H 570.03 0.0889428 0.776925 0
M  V30 5879 H 572.614 0.816925 1.76733 0
M  V30 5880 H 570.785 -0.62652 3.83314 0
M  V30 5881 H 572.517 -0.464443 4.02026 0
M  V30 5882 H 569.272 1.4987 4.49261 0
M  V30 5883 H 569.696 3.90592 5.52962 0
M  V30 5884 H 574.338 1.45765 3.96878 0
M  V30 5885 H 572.056 5.42491 5.9894 0
M  V30 5886 H 575.642 3.42757 4.70116 0
M  V30 5887 H 574.522 5.38536 5.70043 0
M  V30 5888 N 572.025 -1.5352 0.356285 0
M  V30 5889 C 573.272 -2.01117 -0.236303 0
M  V30 5890 C 573.6 -1.24381 -1.49531 0
M  V30 5891 O 572.855 -0.323057 -1.93015 0
M  V30 5892 C 573.154 -3.52607 -0.583369 0
M  V30 5893 C 572.82 -4.47151 0.58023 0
M  V30 5894 C 571.482 -4.72718 0.899528 0
M  V30 5895 C 573.834 -5.03137 1.36024 0
M  V30 5896 C 571.162 -5.51523 2.00098 0
M  V30 5897 C 573.514 -5.83145 2.45204 0
M  V30 5898 C 572.178 -6.07001 2.77679 0
M  V30 5899 H 571.448 -0.735938 -0.0864695 0
M  V30 5900 H 574.095 -1.85209 0.48683 0
M  V30 5901 H 572.4 -3.66413 -1.38739 0
M  V30 5902 H 574.097 -3.86901 -1.05397 0
M  V30 5903 H 570.687 -4.27394 0.321322 0
M  V30 5904 H 574.871 -4.83339 1.12682 0
M  V30 5905 H 570.127 -5.68229 2.25668 0
M  V30 5906 H 574.301 -6.25537 3.06067 0
M  V30 5907 H 571.928 -6.67851 3.63151 0
M  V30 5908 N 573.503 -0.0852151 -1.57369 0
M  V30 5909 C 574.914 0.445428 -1.81309 0
M  V30 5910 C 575.265 1.68795 -1.00013 0
M  V30 5911 O 574.39 2.15211 -0.226573 0
M  V30 5912 C 574.985 0.814887 -3.28854 0
M  V30 5913 C 573.544 1.29032 -3.53592 0
M  V30 5914 C 572.691 0.282089 -2.75861 0
M  V30 5915 H 575.642 -0.310771 -1.55627 0
M  V30 5916 H 575.663 1.67524 -3.41637 0
M  V30 5917 H 575.175 -0.0896309 -3.87996 0
M  V30 5918 H 573.276 2.21289 -2.9977 0
M  V30 5919 H 573.389 1.25898 -4.62262 0
M  V30 5920 H 571.753 0.762182 -2.43029 0
M  V30 5921 H 572.536 -0.614936 -3.37748 0
M  V30 5922 N 574.981 1.5647 0.188427 0
M  V30 5923 C 576.228 1.81013 0.907779 0
M  V30 5924 C 576.556 0.65953 1.82977 0
M  V30 5925 O 575.811 -0.354308 1.92466 0
M  V30 5926 C 576.11 3.11596 1.7505 0
M  V30 5927 C 575.776 4.40145 0.978922 0
M  V30 5928 C 574.438 4.75066 0.765912 0
M  V30 5929 C 576.79 5.19369 0.436498 0
M  V30 5930 C 574.118 5.867 -0.00089868 0
M  V30 5931 C 576.47 6.31805 -0.317136 0
M  V30 5932 C 575.134 6.65303 -0.541103 0
M  V30 5933 H 574.404 0.662373 0.33218 0
M  V30 5934 H 577.051 1.9071 0.173732 0
M  V30 5935 H 575.356 2.97165 2.55343 0
M  V30 5936 H 577.053 3.27793 2.30983 0
M  V30 5937 H 573.643 4.12745 1.15497 0
M  V30 5938 H 577.827 4.92799 0.588449 0
M  V30 5939 H 573.083 6.11122 -0.184329 0
M  V30 5940 H 577.257 6.92406 -0.744788 0
M  V30 5941 H 574.884 7.51646 -1.13718 0
M  V30 5942 N 576.459 -0.456382 1.50847 0
M  V30 5943 C 577.706 -1.20736 1.62571 0
M  V30 5944 C 578.034 -1.9163 0.332904 0
M  V30 5945 O 577.289 -1.8343 -0.682058 0
M  V30 5946 C 577.588 -2.26336 2.76599 0
M  V30 5947 C 577.254 -1.7259 4.16562 0
M  V30 5948 C 575.916 -1.57654 4.54641 0
M  V30 5949 C 578.268 -1.32877 5.03977 0
M  V30 5950 C 575.596 -1.0145 5.77862 0
M  V30 5951 C 577.948 -0.7811 6.27759 0
M  V30 5952 C 576.612 -0.618488 6.64628 0
M  V30 5953 H 575.882 -0.441803 0.594888 0
M  V30 5954 H 578.529 -0.501169 1.84826 0
M  V30 5955 H 576.834 -3.0292 2.48489 0
M  V30 5956 H 578.531 -2.84227 2.82871 0
M  V30 5957 H 575.121 -1.85187 3.86528 0
M  V30 5958 H 579.305 -1.43245 4.75179 0
M  V30 5959 H 574.561 -0.876109 6.0509 0
M  V30 5960 H 578.735 -0.464783 6.94847 0
M  V30 5961 H 576.362 -0.180838 7.59985 0
M  V30 5962 N 577.937 -1.40673 -0.710563 0
M  V30 5963 C 579.184 -1.39222 -1.47049 0
M  V30 5964 C 579.512 0.0037691 -1.945 0
M  V30 5965 O 578.767 0.989224 -1.68857 0
M  V30 5966 C 579.066 -2.33253 -2.70791 0
M  V30 5967 C 578.732 -3.80406 -2.42079 0
M  V30 5968 C 577.394 -4.20496 -2.33959 0
M  V30 5969 C 579.746 -4.73375 -2.18094 0
M  V30 5970 C 577.074 -5.51584 -1.99929 0
M  V30 5971 C 579.426 -6.04768 -1.85576 0
M  V30 5972 C 578.09 -6.43895 -1.75941 0
M  V30 5973 H 577.36 -0.509449 -0.538092 0
M  V30 5974 H 580.007 -1.73363 -0.81348 0
M  V30 5975 H 578.312 -1.92314 -3.41354 0
M  V30 5976 H 580.009 -2.29412 -3.28894 0
M  V30 5977 H 576.599 -3.48645 -2.49288 0
M  V30 5978 H 580.783 -4.43217 -2.23321 0
M  V30 5979 H 576.039 -5.80797 -1.91011 0
M  V30 5980 H 580.213 -6.76318 -1.66033 0
M  V30 5981 H 577.84 -7.45387 -1.4934 0
M  V30 5982 N 579.415 0.9433 -1.26252 0
M  V30 5983 C 580.643 1.72367 -1.14443 0
M  V30 5984 C 581.058 1.86392 0.300572 0
M  V30 5985 O 580.415 1.36978 1.20596 0
M  V30 5986 C 580.466 3.13155 -1.806 0
M  V30 5987 O 580.187 2.99803 -3.19452 0
M  V30 5988 C 581.688 4.07417 -1.74717 0
M  V30 5989 H 578.908 0.539758 -0.398626 0
M  V30 5990 H 581.452 1.18268 -1.66832 0
M  V30 5991 H 579.607 3.64162 -1.32154 0
M  V30 5992 H 580.021 3.88697 -3.52158 0
M  V30 5993 H 581.495 5.03773 -2.25647 0
M  V30 5994 H 581.972 4.3337 -0.713244 0
M  V30 5995 H 582.578 3.6233 -2.22704 0
M  V30 5996 N 580.893 1.08022 1.14757 0
M  V30 5997 C 582.123 0.827646 1.89298 0
M  V30 5998 C 582.531 -0.623506 1.78631 0
M  V30 5999 O 581.874 -1.43991 1.14071 0
M  V30 6000 C 581.936 1.16553 3.40082 0
M  V30 6001 C 581.6 2.61866 3.74533 0
M  V30 6002 C 582.597 3.60116 3.74984 0
M  V30 6003 C 580.282 2.97619 4.04633 0
M  V30 6004 C 582.276 4.92151 4.05051 0
M  V30 6005 C 579.963 4.2985 4.34364 0
M  V30 6006 C 580.961 5.26926 4.34555 0
M  V30 6007 O 580.649 6.5678 4.63568 0
M  V30 6008 H 580.381 0.298396 0.606577 0
M  V30 6009 H 582.935 1.44187 1.46285 0
M  V30 6010 H 581.165 0.494296 3.83528 0
M  V30 6011 H 582.854 0.894407 3.95923 0
M  V30 6012 H 583.62 3.33837 3.51821 0
M  V30 6013 H 579.499 2.22702 4.03639 0
M  V30 6014 H 583.043 5.67915 4.05115 0
M  V30 6015 H 578.94 4.55879 4.56995 0
M  V30 6016 H 579.708 6.62035 4.81303 0
M  V30 6017 N 582.371 -1.3172 0.865308 0
M  V30 6018 C 583.599 -2.01057 0.488251 0
M  V30 6019 C 584.014 -1.64979 -0.918 0
M  V30 6020 O 583.371 -0.876597 -1.60069 0
M  V30 6021 C 583.422 -3.55964 0.630224 0
M  V30 6022 O 583.143 -3.90749 1.98109 0
M  V30 6023 C 584.644 -4.42574 0.253567 0
M  V30 6024 H 581.864 -0.64332 0.190736 0
M  V30 6025 H 584.408 -1.68058 1.16519 0
M  V30 6026 H 582.563 -3.874 0.000895422 0
M  V30 6027 H 582.977 -4.85467 1.9855 0
M  V30 6028 H 584.451 -5.50521 0.403875 0
M  V30 6029 H 584.928 -4.31724 -0.806895 0
M  V30 6030 H 585.534 -4.16547 0.858404 0
M  V30 6031 N 583.85 -0.624285 -1.44708 0
M  V30 6032 C 584.779 0.0717025 -2.3339 0
M  V30 6033 C 585.76 0.841814 -1.47809 0
M  V30 6034 O 586.946 0.809056 -1.76544 0
M  V30 6035 C 584.076 1.05852 -3.30776 0
M  V30 6036 C 583.029 0.400503 -4.26122 0
M  V30 6037 C 582.356 1.49674 -5.13324 0
M  V30 6038 C 583.656 -0.688924 -5.17737 0
M  V30 6039 H 585.35 -0.668819 -2.91834 0
M  V30 6040 H 582.896 -0.32308 -1.40329 0
M  V30 6041 H 584.849 1.5541 -3.91696 0
M  V30 6042 H 583.572 1.82984 -2.70526 0
M  V30 6043 H 582.231 -0.0743687 -3.66525 0
M  V30 6044 H 581.88 2.25877 -4.49431 0
M  V30 6045 H 581.58 1.06188 -5.77926 0
M  V30 6046 H 583.104 1.99427 -5.77115 0
M  V30 6047 H 584.518 -0.276724 -5.72632 0
M  V30 6048 H 582.915 -1.04652 -5.90904 0
M  V30 6049 H 583.985 -1.55884 -4.5916 0
M  V30 6050 N 585.328 1.53329 -0.364422 0
M  V30 6051 C 586.556 2.05657 0.226424 0
M  V30 6052 C 586.971 1.23801 1.42544 0
M  V30 6053 O 586.328 0.27839 1.80364 0
M  V30 6054 C 586.379 3.56125 0.621056 0
M  V30 6055 O 586.1 4.34879 -0.530304 0
M  V30 6056 C 587.601 4.24706 1.27041 0
M  V30 6057 H 584.821 0.669806 0.0400056 0
M  V30 6058 H 587.365 1.97714 -0.522456 0
M  V30 6059 H 585.52 3.64223 1.31985 0
M  V30 6060 H 585.934 5.24073 -0.211546 0
M  V30 6061 H 587.408 5.3131 1.49711 0
M  V30 6062 H 587.885 3.78354 2.23036 0
M  V30 6063 H 588.491 4.20858 0.613079 0
M  V30 6064 N 586.806 0.0935595 1.57322 0
M  V30 6065 C 587.769 -0.851426 2.12799 0
M  V30 6066 C 588.769 -1.21187 1.0569 0
M  V30 6067 O 589.959 -1.14156 1.31583 0
M  V30 6068 C 587.091 -2.14779 2.64731 0
M  V30 6069 H 588.284 -0.369733 2.97612 0
M  V30 6070 H 585.837 -0.155417 1.55525 0
M  V30 6071 H 586.572 -2.67437 1.83434 0
M  V30 6072 H 586.357 -1.89907 3.43042 0
M  V30 6073 H 587.847 -2.82383 3.07651 0
M  V30 6074 N 588.284 -1.56567 -0.180126 0
M  V30 6075 C 589.53 -1.81761 -0.899497 0
M  V30 6076 C 589.863 -0.670015 -1.82276 0
M  V30 6077 O 589.138 0.328575 -1.91705 0
M  V30 6078 C 589.421 -3.17296 -1.7028 0
M  V30 6079 C 589.274 -4.4257 -0.803255 0
M  V30 6080 C 590.593 -3.49678 -2.67233 0
M  V30 6081 H 587.712 -0.661192 -0.325567 0
M  V30 6082 H 590.354 -1.89272 -0.16612 0
M  V30 6083 H 588.504 -3.11023 -2.32802 0
M  V30 6084 H 590.176 -4.60902 -0.191585 0
M  V30 6085 H 588.419 -4.33658 -0.110796 0
M  V30 6086 H 589.09 -5.33935 -1.40064 0
M  V30 6087 H 591.566 -3.56347 -2.14839 0
M  V30 6088 H 590.442 -4.45605 -3.20511 0
M  V30 6089 H 590.703 -2.73932 -3.47007 0
M  V30 6090 N 589.762 0.448376 -1.51087 0
M  V30 6091 C 591.01 1.19635 -1.62886 0
M  V30 6092 C 591.331 1.91977 -0.342024 0
M  V30 6093 O 590.601 1.85094 0.641636 0
M  V30 6094 H 589.181 0.444598 -0.600285 0
M  V30 6095 H 591.843 0.515138 -1.87969 0
M  V30 6096 H 590.939 1.93194 -2.45117 0
M  V30 6097 N 591.24 1.41047 0.703093 0
M  V30 6098 C 592.48 1.41461 1.4754 0
M  V30 6099 C 592.844 0.0199013 1.9199 0
M  V30 6100 O 594.045 -0.101138 2.6861 0
M  V30 6101 C 592.316 2.38703 2.66 0
M  V30 6102 S 593.875 2.57582 3.55242 0
M  V30 6103 H 590.693 0.501226 0.504275 0
M  V30 6104 H 593.295 1.77422 0.821074 0
M  V30 6105 H 591.999 3.3885 2.31536 0
M  V30 6106 H 591.53 2.04069 3.36333 0
M  V30 6107 H 593.545 1.83758 4.6092 0
M  V30 6108 N 592.718 -0.936591 1.26751 0
M  V30 6109 C 593.943 -1.72288 1.15462 0
M  V30 6110 C 594.368 -1.85915 -0.285887 0
M  V30 6111 O 593.726 -1.35272 -1.20711 0
M  V30 6112 C 593.774 -3.10503 1.83359 0
M  V30 6113 O 592.878 -3.96745 1.1255 0
M  V30 6114 H 592.219 -0.52843 0.402067 0
M  V30 6115 H 594.749 -1.17271 1.67656 0
M  V30 6116 H 594.759 -3.60867 1.90365 0
M  V30 6117 H 593.434 -2.99901 2.88153 0
M  V30 6118 H 592.011 -3.55191 1.13551 0
M  V30 6119 N 594.196 -1.08629 -1.14182 0
M  V30 6120 C 595.442 -0.818556 -1.85546 0
M  V30 6121 C 595.775 0.654076 -1.82854 0
M  V30 6122 O 595.05 1.48099 -1.26083 0
M  V30 6123 C 595.333 -1.34397 -3.3408 0
M  V30 6124 C 595.186 -2.8821 -3.45333 0
M  V30 6125 C 596.505 -0.971069 -4.29253 0
M  V30 6126 H 593.624 -0.298821 -0.673702 0
M  V30 6127 H 596.266 -1.34629 -1.34071 0
M  V30 6128 H 594.416 -0.895064 -3.78049 0
M  V30 6129 H 596.088 -3.41488 -3.10134 0
M  V30 6130 H 594.331 -3.25756 -2.86471 0
M  V30 6131 H 595.002 -3.20047 -4.49749 0
M  V30 6132 H 597.478 -1.35809 -3.93313 0
M  V30 6133 H 596.354 -1.36586 -5.31635 0
M  V30 6134 H 596.615 0.121659 -4.41933 0
M  V30 6135 N 595.674 1.31259 -0.872281 0
M  V30 6136 C 597.085 1.78822 -0.536617 0
M  V30 6137 C 597.436 1.71855 0.946594 0
M  V30 6138 O 596.561 1.28769 1.73918 0
M  V30 6139 C 597.156 3.24698 -0.967294 0
M  V30 6140 C 595.715 3.70147 -0.683251 0
M  V30 6141 C 594.862 2.51994 -1.15733 0
M  V30 6142 H 597.813 1.18308 -1.05777 0
M  V30 6143 H 597.834 3.79386 -0.290929 0
M  V30 6144 H 597.346 3.29737 -2.04683 0
M  V30 6145 H 595.447 3.70607 0.384825 0
M  V30 6146 H 595.56 4.62183 -1.2619 0
M  V30 6147 H 593.924 2.48078 -0.577024 0
M  V30 6148 H 594.707 2.59778 -2.24434 0
M  V30 6149 N 597.152 0.631951 1.44375 0
M  V30 6150 C 598.568 0.297642 1.568 0
M  V30 6151 C 598.768 -1.19916 1.61934 0
M  V30 6152 O 597.824 -1.98324 1.56281 0
M  V30 6153 C 599.137 0.990286 2.83926 0
M  V30 6154 C 600.685 0.968507 2.97639 0
M  V30 6155 C 601.16 1.64163 4.27568 0
M  V30 6156 N 602.651 1.60826 4.34384 0
M  V30 6157 C 603.386 2.09802 5.33639 0
M  V30 6158 N 602.882 2.66973 6.39294 0
M  V30 6159 N 604.675 2.00426 5.25153 0
M  V30 6160 H 596.826 1.60353 1.39286 0
M  V30 6161 H 599.089 0.673142 0.667521 0
M  V30 6162 H 598.795 2.04519 2.8612 0
M  V30 6163 H 598.669 0.528563 3.73478 0
M  V30 6164 H 601.056 -0.0779247 2.94997 0
M  V30 6165 H 601.137 1.46873 2.09433 0
M  V30 6166 H 600.781 2.68752 4.3097 0
M  V30 6167 H 600.711 1.11624 5.14634 0
M  V30 6168 H 603.202 1.19087 3.58646 0
M  V30 6169 H 603.515 3.02074 7.11316 0
M  V30 6170 H 601.86 2.71024 6.39977 0
M  V30 6171 H 605.051 1.55483 4.41523 0
M  V30 6172 H 605.224 2.38906 6.02352 0
M  V30 6173 N 598.631 -1.53133 0.372548 0
M  V30 6174 C 599.859 -2.05774 -0.215515 0
M  V30 6175 C 600.274 -1.24555 -1.41886 0
M  V30 6176 O 599.631 -0.287951 -1.80214 0
M  V30 6177 C 599.682 -3.5645 -0.602161 0
M  V30 6178 O 599.403 -4.34591 0.553359 0
M  V30 6179 C 600.904 -4.25374 -1.24787 0
M  V30 6180 H 598.124 -0.670009 -0.0364529 0
M  V30 6181 H 600.668 -1.97434 0.532934 0
M  V30 6182 H 598.823 -3.64918 -1.30052 0
M  V30 6183 H 599.237 -5.23954 0.239336 0
M  V30 6184 H 600.711 -5.32097 -1.46891 0
M  V30 6185 H 601.188 -3.79531 -2.21026 0
M  V30 6186 H 601.794 -4.21177 -0.590752 0
M  V30 6187 N 600.109 -0.101901 -1.5727 0
M  V30 6188 C 601.039 0.851544 -2.17419 0
M  V30 6189 C 602.02 1.28942 -1.10941 0
M  V30 6190 O 603.205 1.35509 -1.39107 0
M  V30 6191 C 600.335 2.10816 -2.75996 0
M  V30 6192 C 599.289 1.80867 -3.87906 0
M  V30 6193 C 598.615 3.13413 -4.33216 0
M  V30 6194 C 599.915 1.0903 -5.10793 0
M  V30 6195 H 601.609 0.350381 -2.97343 0
M  V30 6196 H 599.155 0.16709 -1.43027 0
M  V30 6197 H 601.108 2.77959 -3.16729 0
M  V30 6198 H 599.832 2.63227 -1.93337 0
M  V30 6199 H 598.491 1.16119 -3.47724 0
M  V30 6200 H 598.139 3.63725 -3.47438 0
M  V30 6201 H 597.839 2.94155 -5.08671 0
M  V30 6202 H 599.363 3.81704 -4.76586 0
M  V30 6203 H 600.777 1.66295 -5.48652 0
M  V30 6204 H 599.174 0.99927 -5.91722 0
M  V30 6205 H 600.244 0.0741704 -4.84843 0
M  V30 6206 N 601.587 1.56661 0.17182 0
M  V30 6207 C 602.834 1.81965 0.888529 0
M  V30 6208 C 603.162 0.6789 1.82267 0
M  V30 6209 O 602.417 -0.333875 1.92831 0
M  V30 6210 C 602.716 3.13435 1.71736 0
M  V30 6211 C 602.382 4.41159 0.932184 0
M  V30 6212 C 601.044 4.75851 0.715481 0
M  V30 6213 C 603.396 5.19803 0.381387 0
M  V30 6214 C 600.724 5.86666 -0.063126 0
M  V30 6215 C 603.076 6.31433 -0.384129 0
M  V30 6216 C 601.74 6.64692 -0.611637 0
M  V30 6217 H 601.01 0.665859 0.325136 0
M  V30 6218 H 603.657 1.90884 0.153495 0
M  V30 6219 H 601.962 2.99857 2.52177 0
M  V30 6220 H 603.659 3.30224 2.27493 0
M  V30 6221 H 600.249 4.13947 1.11112 0
M  V30 6222 H 604.433 4.93396 0.536148 0
M  V30 6223 H 599.689 6.10892 -0.249136 0
M  V30 6224 H 603.863 6.91577 -0.818185 0
M  V30 6225 H 601.49 7.50398 -1.21684 0
M  V30 6226 N 603.065 -0.440357 1.51323 0
M  V30 6227 C 604.012 -1.53429 1.72419 0
M  V30 6228 C 604.982 -1.56165 0.565826 0
M  V30 6229 O 606.167 -1.73222 0.799917 0
M  V30 6230 C 603.307 -2.91169 1.85242 0
M  V30 6231 C 602.42 -2.97985 3.12777 0
M  V30 6232 C 601.555 -4.26829 3.16212 0
M  V30 6233 C 600.594 -4.27501 4.38074 0
M  V30 6234 N 599.731 -5.47866 4.39076 0
M  V30 6235 H 604.571 -1.34743 2.65797 0
M  V30 6236 H 602.108 -0.654608 1.31732 0
M  V30 6237 H 604.066 -3.71087 1.90658 0
M  V30 6238 H 602.696 -3.0842 0.952744 0
M  V30 6239 H 601.748 -2.10749 3.16685 0
M  V30 6240 H 603.06 -2.94342 4.02696 0
M  V30 6241 H 602.214 -5.15118 3.20527 0
M  V30 6242 H 600.953 -4.33124 2.24176 0
M  V30 6243 H 599.958 -3.37606 4.33938 0
M  V30 6244 H 601.183 -4.22873 5.31371 0
M  V30 6245 H 599.129 -5.54887 3.49909 0
M  V30 6246 H 599.046 -5.46091 5.22801 0
M  V30 6247 H 600.314 -6.38195 4.4758 0
M  V30 6248 N 604.543 -1.41418 -0.695603 0
M  V30 6249 C 605.79 -1.40774 -1.45564 0
M  V30 6250 C 606.118 -0.0168604 -1.94493 0
M  V30 6251 O 605.373 0.971259 -1.69897 0
M  V30 6252 C 605.672 -2.36112 -2.68302 0
M  V30 6253 C 605.338 -3.82952 -2.38031 0
M  V30 6254 C 604 -4.22954 -2.29486 0
M  V30 6255 C 606.352 -4.75662 -2.13061 0
M  V30 6256 C 603.68 -5.53674 -1.94067 0
M  V30 6257 C 606.032 -6.06702 -1.79151 0
M  V30 6258 C 604.696 -6.45725 -1.69102 0
M  V30 6259 H 603.966 -0.515128 -0.532658 0
M  V30 6260 H 606.613 -1.74216 -0.795047 0
M  V30 6261 H 604.918 -1.95924 -3.39295 0
M  V30 6262 H 606.615 -2.32887 -3.26442 0
M  V30 6263 H 603.205 -3.5127 -2.45576 0
M  V30 6264 H 607.389 -4.45561 -2.18608 0
M  V30 6265 H 602.645 -5.8279 -1.8484 0
M  V30 6266 H 606.819 -6.78041 -1.5885 0
M  V30 6267 H 604.446 -7.46929 -1.41426 0
M  V30 6268 N 606.021 0.929856 -1.27246 0
M  V30 6269 C 607.268 1.67731 -1.13457 0
M  V30 6270 C 607.596 1.9185 0.319998 0
M  V30 6271 O 606.851 1.50524 1.25064 0
M  V30 6272 C 607.15 3.05116 -1.86115 0
M  V30 6273 C 606.816 3.00715 -3.35978 0
M  V30 6274 C 605.478 2.99222 -3.76855 0
M  V30 6275 C 607.83 2.92168 -4.3161 0
M  V30 6276 C 605.158 2.86962 -5.11732 0
M  V30 6277 C 607.51 2.81449 -5.66542 0
M  V30 6278 C 606.174 2.78305 -6.06715 0
M  V30 6279 H 605.444 0.613772 -0.415168 0
M  V30 6280 H 608.091 1.08456 -1.57827 0
M  V30 6281 H 606.396 3.68083 -1.34246 0
M  V30 6282 H 608.093 3.61822 -1.72876 0
M  V30 6283 H 604.683 3.02664 -3.03468 0
M  V30 6284 H 608.867 2.92421 -4.01003 0
M  V30 6285 H 604.123 2.82913 -5.42006 0
M  V30 6286 H 608.297 2.738 -6.40317 0
M  V30 6287 H 605.924 2.68561 -7.11181 0
M  V30 6288 N 607.499 1.09233 1.13605 0
M  V30 6289 C 608.746 0.827159 1.84836 0
M  V30 6290 C 609.074 -0.647199 1.83416 0
M  V30 6291 O 608.329 -1.49228 1.26608 0
M  V30 6292 C 608.628 1.305 3.32723 0
M  V30 6293 C 608.294 2.78864 3.54325 0
M  V30 6294 C 606.956 3.19382 3.59928 0
M  V30 6295 C 609.308 3.74532 3.62457 0
M  V30 6296 C 606.636 4.54346 3.71196 0
M  V30 6297 C 608.988 5.09283 3.75252 0
M  V30 6298 C 607.652 5.49394 3.79108 0
M  V30 6299 H 606.922 0.302679 0.676363 0
M  V30 6300 H 609.569 1.36676 1.34134 0
M  V30 6301 H 607.874 0.68517 3.85762 0
M  V30 6302 H 609.571 1.07648 3.86281 0
M  V30 6303 H 606.161 2.46507 3.50617 0
M  V30 6304 H 610.345 3.44343 3.57409 0
M  V30 6305 H 605.601 4.84864 3.72447 0
M  V30 6306 H 609.775 5.83269 3.80487 0
M  V30 6307 H 607.402 6.5397 3.87591 0
M  V30 6308 N 608.977 -1.30795 0.87923 0
M  V30 6309 C 610.223 -1.97035 0.50487 0
M  V30 6310 C 610.578 -1.68182 -0.934484 0
M  V30 6311 O 609.871 -0.972953 -1.65058 0
M  V30 6312 C 610.065 -3.50287 0.709476 0
M  V30 6313 C 609.894 -3.94035 2.16717 0
M  V30 6314 C 608.664 -4.1992 2.81061 0
M  V30 6315 C 610.862 -4.07288 3.1404 0
M  V30 6316 N 608.844 -4.50088 4.17486 0
M  V30 6317 C 610.215 -4.41273 4.35521 0
M  V30 6318 C 612.27 -3.89696 3.09906 0
M  V30 6319 C 610.973 -4.59501 5.534 0
M  V30 6320 C 612.999 -4.09122 4.27052 0
M  V30 6321 C 612.361 -4.43447 5.47297 0
M  V30 6322 H 608.46 -0.746181 0.233962 0
M  V30 6323 H 611.044 -1.5814 1.13577 0
M  V30 6324 H 609.215 -3.8825 0.108108 0
M  V30 6325 H 610.947 -4.03567 0.302585 0
M  V30 6326 H 607.702 -4.12906 2.3196 0
M  V30 6327 H 608.126 -4.69316 4.87926 0
M  V30 6328 H 612.768 -3.62239 2.18043 0
M  V30 6329 H 610.486 -4.85802 6.45773 0
M  V30 6330 H 614.072 -3.96985 4.25316 0
M  V30 6331 H 612.952 -4.58171 6.36435 0
M  V30 6332 N 610.455 -0.639598 -1.44038 0
M  V30 6333 C 611.702 -0.14748 -2.01962 0
M  V30 6334 C 612.03 1.23372 -1.50365 0
M  V30 6335 O 611.285 1.8345 -0.681501 0
M  V30 6336 C 611.584 -0.0925348 -3.5728 0
M  V30 6337 C 611.25 -1.41365 -4.28167 0
M  V30 6338 C 609.912 -1.77545 -4.47248 0
M  V30 6339 C 612.264 -2.2853 -4.68427 0
M  V30 6340 C 609.592 -3.00583 -5.03852 0
M  V30 6341 C 611.944 -3.50846 -5.26393 0
M  V30 6342 C 610.608 -3.8724 -5.43692 0
M  V30 6343 H 609.878 -0.0539666 -0.739032 0
M  V30 6344 H 612.525 -0.827599 -1.72694 0
M  V30 6345 H 610.83 0.670987 -3.86012 0
M  V30 6346 H 612.527 0.304891 -3.99839 0
M  V30 6347 H 609.117 -1.1221 -4.13651 0
M  V30 6348 H 613.301 -2.0187 -4.5339 0
M  V30 6349 H 608.557 -3.28846 -5.15432 0
M  V30 6350 H 612.731 -4.18616 -5.56537 0
M  V30 6351 H 610.358 -4.8266 -5.87319 0
M  V30 6352 N 611.933 1.52934 -0.380664 0
M  V30 6353 C 613.181 2.01069 0.203874 0
M  V30 6354 C 613.502 1.26922 1.4804 0
M  V30 6355 O 612.772 0.386787 1.92044 0
M  V30 6356 H 611.352 0.742882 0.0783279 0
M  V30 6357 H 614.014 1.88099 -0.510368 0
M  V30 6358 H 613.11 3.09258 0.42021 0
M  V30 6359 N 613.412 0.11024 1.57214 0
M  V30 6360 C 614.642 -0.557025 1.98949 0
M  V30 6361 C 615.05 -1.61317 0.988606 0
M  V30 6362 O 614.393 -1.83679 -0.0279159 0
M  V30 6363 C 614.455 -1.24956 3.37085 0
M  V30 6364 C 614.119 -0.342398 4.55716 0
M  V30 6365 C 615.116 0.415511 5.18237 0
M  V30 6366 C 612.801 -0.256029 5.01647 0
M  V30 6367 C 614.795 1.24761 6.25071 0
M  V30 6368 C 612.482 0.579713 6.08344 0
M  V30 6369 C 613.48 1.33017 6.69922 0
M  V30 6370 O 613.168 2.15205 7.74559 0
M  V30 6371 H 612.9 -0.152792 0.658506 0
M  V30 6372 H 615.454 0.19076 2.04512 0
M  V30 6373 H 613.684 -2.04424 3.2825 0
M  V30 6374 H 615.373 -1.81286 3.63167 0
M  V30 6375 H 616.139 0.358605 4.83672 0
M  V30 6376 H 612.018 -0.829831 4.5347 0
M  V30 6377 H 615.562 1.83386 6.73064 0
M  V30 6378 H 611.459 0.638044 6.42339 0
M  V30 6379 H 612.227 2.08052 7.91617 0
M  V30 6380 N 614.89 -1.56749 -0.16351 0
M  V30 6381 C 616.13 -1.84234 -0.885271 0
M  V30 6382 C 616.494 -0.692259 -1.79086 0
M  V30 6383 O 617.695 -0.847747 -2.55082 0
M  V30 6384 C 615.966 -3.16857 -1.65337 0
M  V30 6385 S 617.525 -3.65848 -2.42282 0
M  V30 6386 H 614.343 -0.646293 -0.296354 0
M  V30 6387 H 616.945 -1.94951 -0.146365 0
M  V30 6388 H 615.649 -3.98546 -0.979266 0
M  V30 6389 H 615.18 -3.09102 -2.4335 0
M  V30 6390 H 617.195 -3.33796 -3.67143 0
M  V30 6391 N 616.368 0.432326 -1.51554 0
M  V30 6392 C 617.316 1.54572 -1.73811 0
M  V30 6393 C 618.31 1.58246 -0.604539 0
M  V30 6394 O 619.516 1.6193 -0.786041 0
M  V30 6395 H 615.891 0.513626 -0.549265 0
M  V30 6396 H 617.862 1.32977 -2.67132 0
M  V30 6397 C 616.611 2.92181 -1.88483 0
M  V30 6398 H 615.934 2.90088 -2.75116 0
M  V30 6399 H 617.374 3.69439 -2.08065 0
M  V30 6400 C 615.833 3.3065 -0.645909 0
M  V30 6401 O 616.363 4.01216 0.197093 0
M  V30 6402 N 614.569 2.86464 -0.488538 0
M  V30 6403 H 614.116 2.29209 -1.17562 0
M  V30 6404 H 614.074 3.12565 0.339156 0
M  V30 6405 N 617.846 1.41785 0.688094 0
M  V30 6406 C 619.071 1.45117 1.48175 0
M  V30 6407 C 619.496 0.060129 1.88004 0
M  V30 6408 O 618.854 -0.938385 1.55126 0
M  V30 6409 C 618.902 2.37224 2.71583 0
M  V30 6410 O 618.006 1.83443 3.69354 0
M  V30 6411 H 617.347 0.492208 0.445676 0
M  V30 6412 H 619.877 1.86329 0.845145 0
M  V30 6413 H 619.887 2.53353 3.19806 0
M  V30 6414 H 618.562 3.38293 2.41931 0
M  V30 6415 H 617.139 1.76802 3.28322 0
M  V30 6416 N 619.324 -0.923095 1.27737 0
M  V30 6417 C 620.549 -1.71054 1.17283 0
M  V30 6418 C 620.974 -1.86208 -0.266153 0
M  V30 6419 O 620.332 -1.36545 -1.1927 0
M  V30 6420 C 620.38 -3.0854 1.86642 0
M  V30 6421 O 619.484 -3.95528 1.16752 0
M  V30 6422 H 618.825 -0.524136 0.407649 0
M  V30 6423 H 621.355 -1.15487 1.6889 0
M  V30 6424 H 621.365 -3.58828 1.94182 0
M  V30 6425 H 620.04 -2.96828 2.91317 0
M  V30 6426 H 618.617 -3.53967 1.17312 0
M  V30 6427 N 620.802 -1.09834 -1.13024 0
M  V30 6428 C 621.732 -0.763451 -2.20666 0
M  V30 6429 C 622.713 0.260778 -1.68089 0
M  V30 6430 O 623.898 0.127915 -1.93778 0
M  V30 6431 C 621.028 -0.187744 -3.46792 0
M  V30 6432 C 619.982 -1.14196 -4.12484 0
M  V30 6433 C 619.308 -0.427755 -5.32986 0
M  V30 6434 C 620.608 -2.48607 -4.59338 0
M  V30 6435 H 622.302 -1.66347 -2.48936 0
M  V30 6436 H 619.848 -0.801261 -1.19649 0
M  V30 6437 H 621.801 0.0586375 -4.21359 0
M  V30 6438 H 620.525 0.747485 -3.17931 0
M  V30 6439 H 619.184 -1.37369 -3.3989 0
M  V30 6440 H 618.832 0.511747 -5.0039 0
M  V30 6441 H 618.532 -1.06403 -5.77886 0
M  V30 6442 H 620.056 -0.189772 -6.10305 0
M  V30 6443 H 621.47 -2.29618 -5.25308 0
M  V30 6444 H 619.867 -3.08062 -5.14993 0
M  V30 6445 H 620.937 -3.09062 -3.73642 0
M  V30 6446 N 622.28 1.30327 -0.886154 0
M  V30 6447 C 623.228 2.30052 -0.343317 0
M  V30 6448 C 624.222 1.60212 0.550305 0
M  V30 6449 O 625.428 1.74674 0.434609 0
M  V30 6450 H 621.803 0.746306 -0.0923681 0
M  V30 6451 H 623.774 2.73294 -1.19804 0
M  V30 6452 C 622.523 3.45079 0.426107 0
M  V30 6453 H 621.846 3.99003 -0.25227 0
M  V30 6454 H 623.286 4.16931 0.771009 0
M  V30 6455 C 621.745 2.95195 1.62363 0
M  V30 6456 O 622.275 2.95323 2.723 0
M  V30 6457 N 620.481 2.51192 1.4612 0
M  V30 6458 H 620.028 2.51286 0.566832 0
M  V30 6459 H 619.986 2.18173 2.2638 0
M  V30 6460 N 623.758 0.647228 1.43697 0
M  V30 6461 C 625.169 0.238689 1.85168 0
M  V30 6462 C 625.52 -1.21345 1.54175 0
M  V30 6463 O 624.645 -1.92542 0.987743 0
M  V30 6464 C 625.24 0.426422 3.36106 0
M  V30 6465 C 623.799 0.0722541 3.76331 0
M  V30 6466 C 622.946 0.732153 2.6746 0
M  V30 6467 H 625.897 0.851309 1.33934 0
M  V30 6468 H 625.918 -0.32987 3.79067 0
M  V30 6469 H 625.43 1.48339 3.58632 0
M  V30 6470 H 623.531 -0.982355 3.59417 0
M  V30 6471 H 623.644 0.493541 4.76551 0
M  V30 6472 H 622.008 0.16594 2.54159 0
M  V30 6473 H 622.791 1.79204 2.92816 0
M  V30 6474 N 625.236 -1.5273 0.388769 0
M  V30 6475 C 626.482 -2.01871 -0.193877 0
M  V30 6476 C 626.815 -1.27475 -1.46505 0
M  V30 6477 O 626.09 -0.375063 -1.90849 0
M  V30 6478 C 626.373 -3.5712 -0.462336 0
M  V30 6479 C 626.226 -4.42186 0.824091 0
M  V30 6480 C 627.545 -4.21881 -1.25319 0
M  V30 6481 H 624.664 -0.733764 -0.0689899 0
M  V30 6482 H 627.306 -1.82796 0.518231 0
M  V30 6483 H 625.456 -3.73504 -1.06896 0
M  V30 6484 H 627.128 -4.37554 1.46096 0
M  V30 6485 H 625.371 -4.09219 1.43952 0
M  V30 6486 H 626.042 -5.48828 0.590905 0
M  V30 6487 H 628.518 -4.0947 -0.73981 0
M  V30 6488 H 627.394 -5.30487 -1.40977 0
M  V30 6489 H 627.655 -3.79478 -2.26824 0
M  V30 6490 N 626.714 -0.118576 -1.57153 0
M  V30 6491 C 627.963 0.539339 -1.94355 0
M  V30 6492 C 628.276 1.67858 -1.00415 0
M  V30 6493 O 629.482 2.39922 -1.27081 0
M  V30 6494 C 627.938 1.01082 -3.45414 0
M  V30 6495 C 627.546 -0.0999402 -4.47889 0
M  V30 6496 C 629.29 1.64013 -3.91535 0
M  V30 6497 C 627.197 0.388212 -5.90124 0
M  V30 6498 H 626.127 0.205247 -0.725527 0
M  V30 6499 H 628.778 -0.19836 -1.82425 0
M  V30 6500 H 627.16 1.80292 -3.52577 0
M  V30 6501 H 628.334 -0.876189 -4.52393 0
M  V30 6502 H 626.649 -0.635885 -4.11516 0
M  V30 6503 H 629.246 2.01649 -4.95219 0
M  V30 6504 H 629.589 2.51836 -3.31488 0
M  V30 6505 H 630.122 0.913439 -3.87171 0
M  V30 6506 H 626.861 -0.453963 -6.53926 0
M  V30 6507 H 626.381 1.13095 -5.89041 0
M  V30 6508 H 628.06 0.849574 -6.41398 0
M  V30 6509 N 628.193 1.56834 0.155195 0
M  V30 6510 C 629.423 1.86778 0.883044 0
M  V30 6511 C 629.831 0.703824 1.75622 0
M  V30 6512 O 629.174 -0.33581 1.80605 0
M  V30 6513 C 629.236 3.1133 1.79761 0
M  V30 6514 C 628.9 4.43504 1.10242 0
M  V30 6515 C 629.897 5.17859 0.460204 0
M  V30 6516 C 627.582 4.90233 1.09437 0
M  V30 6517 C 629.576 6.37144 -0.180782 0
M  V30 6518 C 627.263 6.09444 0.449569 0
M  V30 6519 C 628.261 6.82744 -0.186888 0
M  V30 6520 O 627.949 7.99692 -0.821486 0
M  V30 6521 H 627.681 0.62352 0.261149 0
M  V30 6522 H 630.235 2.04813 0.155204 0
M  V30 6523 H 628.465 2.89282 2.56618 0
M  V30 6524 H 630.154 3.27587 2.39669 0
M  V30 6525 H 630.92 4.8283 0.458289 0
M  V30 6526 H 626.799 4.33109 1.57917 0
M  V30 6527 H 630.343 6.94296 -0.678154 0
M  V30 6528 H 626.24 6.43936 0.449123 0
M  V30 6529 H 627.008 8.15306 -0.722337 0
M  V30 6530 N 629.671 -0.424282 1.51781 0
M  V30 6531 C 630.899 -1.1947 1.68921 0
M  V30 6532 C 631.314 -1.84683 0.39213 0
M  V30 6533 O 630.671 -1.71261 -0.630554 0
M  V30 6534 C 630.722 -2.26909 2.81416 0
M  V30 6535 O 630.443 -1.64361 4.061 0
M  V30 6536 C 631.944 -3.16945 3.09937 0
M  V30 6537 H 629.164 -0.359591 0.566511 0
M  V30 6538 H 631.708 -0.501139 1.98265 0
M  V30 6539 H 629.863 -2.91959 2.54635 0
M  V30 6540 H 630.277 -2.35468 4.68674 0
M  V30 6541 H 631.751 -3.88437 3.922 0
M  V30 6542 H 632.228 -3.78451 2.22871 0
M  V30 6543 H 632.834 -2.57581 3.38426 0
M  V30 6544 N 631.149 -1.42148 -0.680565 0
M  V30 6545 C 632.398 -1.41604 -1.43636 0
M  V30 6546 C 632.711 -0.0337887 -1.95571 0
M  V30 6547 O 633.917 0.0942588 -2.71336 0
M  V30 6548 C 632.373 -2.49056 -2.59806 0
M  V30 6549 C 631.981 -3.9326 -2.14594 0
M  V30 6550 C 633.725 -2.5767 -3.37352 0
M  V30 6551 C 631.632 -4.92232 -3.27813 0
M  V30 6552 H 630.562 -0.526656 -0.539583 0
M  V30 6553 H 633.213 -1.68033 -0.737369 0
M  V30 6554 H 631.595 -2.15782 -3.32045 0
M  V30 6555 H 632.769 -4.35858 -1.49546 0
M  V30 6556 H 631.084 -3.88443 -1.50002 0
M  V30 6557 H 633.681 -3.28794 -4.21662 0
M  V30 6558 H 634.024 -1.61837 -3.83555 0
M  V30 6559 H 634.557 -2.90109 -2.72179 0
M  V30 6560 H 631.296 -5.89522 -2.86607 0
M  V30 6561 H 630.816 -4.5427 -3.91661 0
M  V30 6562 H 632.495 -5.13684 -3.93367 0
M  V30 6563 N 632.627 0.916307 -1.28225 0
M  V30 6564 C 633.874 1.66518 -1.1523 0
M  V30 6565 C 634.202 1.92178 0.299632 0
M  V30 6566 O 633.457 1.51842 1.2346 0
M  V30 6567 C 633.756 3.03125 -1.8934 0
M  V30 6568 C 633.422 2.97135 -3.39148 0
M  V30 6569 C 632.084 2.95208 -3.80007 0
M  V30 6570 C 634.436 2.87574 -4.34685 0
M  V30 6571 C 631.764 2.81518 -5.14747 0
M  V30 6572 C 634.116 2.75424 -5.69495 0
M  V30 6573 C 632.78 2.71854 -6.09632 0
M  V30 6574 H 632.05 0.609334 -0.421655 0
M  V30 6575 H 634.697 1.06776 -1.58969 0
M  V30 6576 H 633.002 3.66639 -1.38143 0
M  V30 6577 H 634.699 3.59968 -1.76704 0
M  V30 6578 H 631.289 2.99428 -3.06661 0
M  V30 6579 H 635.473 2.88152 -4.04082 0
M  V30 6580 H 630.729 2.77148 -5.44976 0
M  V30 6581 H 634.903 2.66993 -6.43185 0
M  V30 6582 H 632.53 2.61003 -7.1399 0
M  V30 6583 N 634.105 1.10431 1.1244 0
M  V30 6584 C 635.053 0.747974 2.20246 0
M  V30 6585 C 636.047 -0.255848 1.67457 0
M  V30 6586 O 637.253 -0.116221 1.79624 0
M  V30 6587 H 633.628 0.223946 0.71788 0
M  V30 6588 H 635.599 1.6661 2.47556 0
M  V30 6589 C 634.348 0.195957 3.47147 0
M  V30 6590 H 633.671 0.959606 3.88113 0
M  V30 6591 H 635.111 -0.0153154 4.23997 0
M  V30 6592 C 633.57 -1.07132 3.19413 0
M  V30 6593 O 634.1 -2.15284 3.3914 0
M  V30 6594 N 632.306 -0.98994 2.73219 0
M  V30 6595 H 631.853 -0.109736 2.57366 0
M  V30 6596 H 631.811 -1.83856 2.55038 0
M  V30 6597 N 635.583 -1.29855 0.893053 0
M  V30 6598 C 636.533 -2.25493 0.337211 0
M  V30 6599 C 637.517 -1.51606 -0.53894 0
M  V30 6600 O 638.709 -1.72828 -0.382043 0
M  V30 6601 C 635.838 -3.40467 -0.440117 0
M  V30 6602 C 634.924 -4.217 0.450578 0
M  V30 6603 N 635.315 -4.81312 1.55476 0
M  V30 6604 C 633.613 -4.45315 0.247154 0
M  V30 6605 C 634.314 -5.42241 2.10593 0
M  V30 6606 N 633.29 -5.25267 1.39982 0
M  V30 6607 H 637.092 -2.69137 1.18079 0
M  V30 6608 H 634.606 -1.44388 0.743359 0
M  V30 6609 H 636.603 -4.08038 -0.855021 0
M  V30 6610 H 635.263 -2.98361 -1.28104 0
M  V30 6611 H 636.274 -4.80291 1.93755 0
M  V30 6612 H 632.951 -4.13782 -0.555939 0
M  V30 6613 H 634.341 -5.99517 3.03362 0
M  V30 6614 N 637.061 -0.65484 -1.43351 0
M  V30 6615 C 638.338 -0.0987371 -1.95351 0
M  V30 6616 C 638.718 1.38161 -1.59608 0
M  V30 6617 O 638.066 2.10791 -0.882021 0
M  V30 6618 C 638.276 -0.346684 -3.47274 0
M  V30 6619 C 639.624 -0.25249 -4.23849 0
M  V30 6620 O 640.648 -0.279332 -3.55103 0
M  V30 6621 O 639.507 -0.177584 -5.46211 0
M  V30 6622 H 636.601 0.0086829 -0.826954 0
M  V30 6623 H 639.147 -0.728189 -1.53282 0
M  V30 6624 H 637.919 -1.37296 -3.66423 0
M  V30 6625 H 637.542 0.315757 -3.96344 0
M  V30 6626 N 638.539 1.52521 -0.396863 0
M  V30 6627 C 639.786 2.01672 0.182898 0
M  V30 6628 C 640.114 1.28302 1.46181 0
M  V30 6629 O 639.369 0.374118 1.92091 0
M  V30 6630 C 639.668 3.5403 0.489677 0
M  V30 6631 C 639.334 4.45456 -0.698581 0
M  V30 6632 C 637.996 4.70166 -1.02454 0
M  V30 6633 C 640.348 4.99354 -1.49316 0
M  V30 6634 C 637.676 5.46024 -2.1465 0
M  V30 6635 C 640.028 5.76439 -2.60579 0
M  V30 6636 C 638.692 5.99426 -2.93675 0
M  V30 6637 H 637.962 0.737971 0.066927 0
M  V30 6638 H 640.609 1.83853 -0.535764 0
M  V30 6639 H 638.914 3.69963 1.28976 0
M  V30 6640 H 640.611 3.8956 0.951018 0
M  V30 6641 H 637.201 4.26392 -0.434525 0
M  V30 6642 H 641.385 4.80182 -1.25457 0
M  V30 6643 H 636.641 5.62046 -2.40654 0
M  V30 6644 H 640.815 6.17202 -3.22544 0
M  V30 6645 H 638.442 6.57988 -3.80731 0
M  V30 6646 N 640.017 0.126909 1.57088 0
M  V30 6647 C 641.433 -0.229641 1.57939 0
M  V30 6648 C 641.633 -1.66145 1.1401 0
M  V30 6649 O 640.689 -2.3843 0.831119 0
M  V30 6650 C 642.002 0.0108648 3.00698 0
M  V30 6651 C 643.55 -0.054418 3.12953 0
M  V30 6652 C 644.025 0.158497 4.57726 0
M  V30 6653 N 645.516 0.104735 4.63082 0
M  V30 6654 C 646.251 0.24427 5.72879 0
M  V30 6655 N 645.747 0.440415 6.91399 0
M  V30 6656 N 647.54 0.183286 5.61801 0
M  V30 6657 H 639.691 1.06203 1.83942 0
M  V30 6658 H 641.954 0.418834 0.85046 0
M  V30 6659 H 641.66 1.00102 3.37154 0
M  V30 6660 H 641.534 -0.717512 3.70313 0
M  V30 6661 H 643.921 -1.0351 2.7635 0
M  V30 6662 H 644.002 0.705967 2.45865 0
M  V30 6663 H 643.646 1.13619 4.95028 0
M  V30 6664 H 643.576 -0.62197 5.22914 0
M  V30 6665 H 646.067 -0.0430298 3.77876 0
M  V30 6666 H 646.38 0.537536 7.70928 0
M  V30 6667 H 644.725 0.476488 6.93365 0
M  V30 6668 H 647.916 0.0309561 4.6809 0
M  V30 6669 H 648.089 0.295471 6.47326 0
M  V30 6670 N 641.495 -1.56914 -0.146875 0
M  V30 6671 C 642.911 -1.51582 -0.499518 0
M  V30 6672 C 643.111 -0.83535 -1.83369 0
M  V30 6673 O 642.167 -0.405932 -2.49216 0
M  V30 6674 C 643.48 -2.96349 -0.509711 0
M  V30 6675 C 645.028 -3.07288 -0.595217 0
M  V30 6676 C 645.503 -4.53562 -0.636071 0
M  V30 6677 N 646.994 -4.57906 -0.69829 0
M  V30 6678 C 647.729 -5.68462 -0.750886 0
M  V30 6679 N 647.225 -6.88588 -0.76282 0
M  V30 6680 N 649.018 -5.56496 -0.791777 0
M  V30 6681 H 641.169 -1.99547 0.727656 0
M  V30 6682 H 643.432 -0.910113 0.265327 0
M  V30 6683 H 643.138 -3.4939 0.402409 0
M  V30 6684 H 643.012 -3.52307 -1.34758 0
M  V30 6685 H 645.399 -2.54266 -1.49776 0
M  V30 6686 H 645.48 -2.54373 0.2698 0
M  V30 6687 H 645.124 -5.07222 0.262313 0
M  V30 6688 H 645.054 -5.04259 -1.51758 0
M  V30 6689 H 647.545 -3.71429 -0.696362 0
M  V30 6690 H 647.858 -7.68598 -0.804804 0
M  V30 6691 H 646.203 -6.91148 -0.730694 0
M  V30 6692 H 649.394 -4.61562 -0.779624 0
M  V30 6693 H 649.567 -6.42671 -0.829301 0
M  V30 6694 N 642.974 0.416227 -1.52004 0
M  V30 6695 C 643.937 1.48926 -1.74223 0
M  V30 6696 C 644.937 1.48693 -0.612119 0
M  V30 6697 O 646.127 1.50343 -0.879921 0
M  V30 6698 C 643.259 2.88372 -1.81809 0
M  V30 6699 H 644.452 1.3052 -2.70008 0
M  V30 6700 H 642.005 0.646271 -1.42313 0
M  V30 6701 H 642.74 3.12157 -0.879135 0
M  V30 6702 H 642.525 2.89944 -2.6396 0
M  V30 6703 H 644.015 3.66173 -2.00766 0
M  V30 6704 N 644.452 1.42507 0.673017 0
M  V30 6705 C 645.699 1.43072 1.43306 0
M  V30 6706 C 646.027 0.0478004 1.94441 0
M  V30 6707 O 645.282 -0.944106 1.71421 0
M  V30 6708 C 645.581 2.40351 2.64511 0
M  V30 6709 C 645.247 3.8669 2.31908 0
M  V30 6710 C 643.909 4.26551 2.22728 0
M  V30 6711 C 646.261 4.78991 2.05467 0
M  V30 6712 C 643.589 5.56691 1.85234 0
M  V30 6713 C 645.941 6.09476 1.69477 0
M  V30 6714 C 644.605 6.48334 1.58808 0
M  V30 6715 H 643.875 0.523536 0.524395 0
M  V30 6716 H 646.522 1.75459 0.76723 0
M  V30 6717 H 644.827 2.01297 3.36135 0
M  V30 6718 H 646.524 2.38051 3.22696 0
M  V30 6719 H 643.114 3.55132 2.39956 0
M  V30 6720 H 647.298 4.48982 2.11492 0
M  V30 6721 H 642.554 5.85657 1.75545 0
M  V30 6722 H 646.728 6.80482 1.48043 0
M  V30 6723 H 644.355 7.49084 1.29525 0
M  V30 6724 N 645.93 -0.909495 1.28709 0
M  V30 6725 C 646.877 -2.01245 1.13 0
M  V30 6726 C 647.847 -1.6608 0.0259684 0
M  V30 6727 O 649.032 -1.89835 0.191687 0
M  V30 6728 C 646.172 -3.35644 0.802315 0
M  V30 6729 C 645.285 -3.83653 1.98582 0
M  V30 6730 C 644.42 -5.06582 1.59837 0
M  V30 6731 C 643.459 -5.46934 2.74827 0
M  V30 6732 N 642.596 -6.61053 2.36546 0
M  V30 6733 H 647.436 -2.14013 2.0737 0
M  V30 6734 H 644.973 -1.0482 1.03205 0
M  V30 6735 H 646.931 -4.12963 0.593057 0
M  V30 6736 H 645.561 -3.22631 -0.104457 0
M  V30 6737 H 644.613 -3.02454 2.30708 0
M  V30 6738 H 645.925 -4.09515 2.84779 0
M  V30 6739 H 645.079 -5.91457 1.35143 0
M  V30 6740 H 643.818 -4.82537 0.707753 0
M  V30 6741 H 642.823 -4.60599 3.00215 0
M  V30 6742 H 644.048 -5.72965 3.64538 0
M  V30 6743 H 641.994 -6.3863 1.49959 0
M  V30 6744 H 641.911 -6.86662 3.16277 0
M  V30 6745 H 643.179 -7.49221 2.15146 0
M  V30 6746 N 647.408 -1.11026 -1.11852 0
M  V30 6747 C 648.355 -0.764662 -2.17765 0
M  V30 6748 C 649.325 0.261854 -1.64023 0
M  V30 6749 O 650.51 0.139748 -1.90288 0
M  V30 6750 C 647.65 -0.209317 -3.44465 0
M  V30 6751 C 646.763 -1.29187 -4.12231 0
M  V30 6752 C 645.898 -0.697523 -5.266 0
M  V30 6753 C 644.937 -1.76023 -5.86244 0
M  V30 6754 N 644.074 -1.18569 -6.92016 0
M  V30 6755 H 648.914 -1.67202 -2.46673 0
M  V30 6756 H 646.451 -0.835065 -1.21099 0
M  V30 6757 H 648.409 0.130599 -4.16996 0
M  V30 6758 H 647.039 0.661251 -3.15955 0
M  V30 6759 H 646.091 -1.74881 -3.37818 0
M  V30 6760 H 647.403 -2.09607 -4.52622 0
M  V30 6761 H 646.557 -0.307412 -6.05921 0
M  V30 6762 H 645.296 0.138044 -4.87505 0
M  V30 6763 H 644.301 -2.1597 -5.05606 0
M  V30 6764 H 645.526 -2.59875 -6.27409 0
M  V30 6765 H 643.472 -0.371695 -6.54946 0
M  V30 6766 H 643.389 -1.92666 -7.31038 0
M  V30 6767 H 644.657 -0.82233 -7.7515 0
M  V30 6768 N 648.886 1.2938 -0.899927 0
M  V30 6769 C 650.135 1.9483 -0.521937 0
M  V30 6770 C 650.448 1.71725 0.936473 0
M  V30 6771 O 651.654 2.31282 1.42199 0
M  V30 6772 C 650.11 3.48911 -0.88255 0
M  V30 6773 C 649.718 3.80815 -2.35974 0
M  V30 6774 C 651.462 4.20595 -0.57448 0
M  V30 6775 C 649.369 5.28142 -2.66121 0
M  V30 6776 H 648.299 0.729285 -0.191468 0
M  V30 6777 H 650.95 1.47103 -1.09695 0
M  V30 6778 H 649.332 3.95293 -0.236459 0
M  V30 6779 H 650.506 3.45291 -3.05141 0
M  V30 6780 H 648.821 3.22271 -2.63686 0
M  V30 6781 H 651.418 5.29031 -0.776556 0
M  V30 6782 H 651.761 4.13442 0.487005 0
M  V30 6783 H 652.294 3.79945 -1.17842 0
M  V30 6784 H 649.033 5.4036 -3.71068 0
M  V30 6785 H 648.553 5.64913 -2.01578 0
M  V30 6786 H 650.232 5.95738 -2.52399 0
M  V30 6787 N 650.364 0.662433 1.43002 0
M  V30 6788 C 651.294 -0.00979809 2.33498 0
M  V30 6789 C 652.275 -0.802329 1.49989 0
M  V30 6790 O 653.46 -0.761964 1.78627 0
M  V30 6791 C 650.59 -0.970446 3.33466 0
M  V30 6792 C 649.544 -0.287383 4.27034 0
M  V30 6793 C 648.87 -1.36012 5.17112 0
M  V30 6794 C 650.17 0.82595 5.15728 0
M  V30 6795 H 651.864 0.745959 2.89958 0
M  V30 6796 H 649.41 0.360172 1.39423 0
M  V30 6797 H 651.363 -1.44971 3.95679 0
M  V30 6798 H 650.087 -1.75748 2.75282 0
M  V30 6799 H 648.746 0.17152 3.66199 0
M  V30 6800 H 648.394 -2.13882 4.55262 0
M  V30 6801 H 648.094 -0.908276 5.80538 0
M  V30 6802 H 649.618 -1.84056 5.82199 0
M  V30 6803 H 651.032 0.42845 5.71697 0
M  V30 6804 H 649.429 1.20282 5.87922 0
M  V30 6805 H 650.499 1.68003 4.54866 0
M  V30 6806 N 651.842 -1.52309 0.404946 0
M  V30 6807 C 653.082 -2.03677 -0.171779 0
M  V30 6808 C 653.446 -1.28419 -1.42733 0
M  V30 6809 O 654.647 -1.69991 -2.08222 0
M  V30 6810 C 652.918 -3.54951 -0.417701 0
M  V30 6811 S 654.477 -4.28114 -0.962472 0
M  V30 6812 H 651.295 -0.709445 -0.0469912 0
M  V30 6813 H 653.897 -1.874 0.556901 0
M  V30 6814 H 652.601 -4.07306 0.50295 0
M  V30 6815 H 652.132 -3.75462 -1.17437 0
M  V30 6816 H 654.147 -4.42589 -2.24342 0
M  V30 6817 N 653.32 -0.135238 -1.57019 0
M  V30 6818 C 654.736 0.221262 -1.58059 0
M  V30 6819 C 654.936 1.65538 -1.14889 0
M  V30 6820 O 653.992 2.37985 -0.843751 0
M  V30 6821 C 655.305 -0.0268114 -3.00688 0
M  V30 6822 C 656.853 0.0378206 -3.12977 0
M  V30 6823 C 657.328 -0.182769 -4.57635 0
M  V30 6824 N 658.819 -0.129292 -4.6302 0
M  V30 6825 C 659.554 -0.274648 -5.72742 0
M  V30 6826 N 659.05 -0.477075 -6.91155 0
M  V30 6827 N 660.843 -0.213077 -5.61696 0
M  V30 6828 H 652.994 -1.07177 -1.83376 0
M  V30 6829 H 655.257 -0.423338 -0.848227 0
M  V30 6830 H 654.963 -1.01889 -3.36618 0
M  V30 6831 H 654.837 0.697863 -3.70688 0
M  V30 6832 H 657.224 1.02043 -2.76896 0
M  V30 6833 H 657.305 -0.718996 -2.45487 0
M  V30 6834 H 656.949 -1.16243 -4.94419 0
M  V30 6835 H 656.879 0.59423 -5.23237 0
M  V30 6836 H 659.37 0.0229896 -3.77893 0
M  V30 6837 H 659.683 -0.578413 -7.70632 0
M  V30 6838 H 658.028 -0.513252 -6.93102 0
M  V30 6839 H 661.219 -0.0557796 -4.68067 0
M  V30 6840 H 661.392 -0.329796 -6.4716 0
M  V30 6841 N 654.798 1.5699 0.138552 0
M  V30 6842 C 656.046 1.83446 0.848053 0
M  V30 6843 C 656.367 0.71744 1.81322 0
M  V30 6844 O 655.637 -0.260228 1.94164 0
M  V30 6845 H 654.217 0.676792 0.316166 0
M  V30 6846 H 656.879 1.94462 0.130538 0
M  V30 6847 H 655.975 2.78677 1.40518 0
M  V30 6848 N 656.276 -0.40816 1.52223 0
M  V30 6849 C 657.553 -1.16807 1.56893 0
M  V30 6850 C 657.933 -2.08169 0.350537 0
M  V30 6851 O 657.281 -2.18684 -0.662536 0
M  V30 6852 C 657.491 -1.94451 2.8981 0
M  V30 6853 C 658.839 -2.50484 3.42845 0
M  V30 6854 O 659.863 -2.0463 2.91556 0
M  V30 6855 O 658.722 -3.34192 4.3241 0
M  V30 6856 H 655.816 -0.533382 0.632007 0
M  V30 6857 H 658.362 -0.414862 1.64551 0
M  V30 6858 H 657.134 -1.27527 3.69936 0
M  V30 6859 H 656.757 -2.76775 2.85449 0
M  V30 6860 N 657.755 -1.42862 -0.66545 0
M  V30 6861 C 659.171 -1.25993 -0.979687 0
M  V30 6862 C 659.371 -0.170831 -2.00775 0
M  V30 6863 O 658.427 0.454827 -2.4837 0
M  V30 6864 C 659.74 -2.62005 -1.47559 0
M  V30 6865 C 661.288 -2.69437 -1.59288 0
M  V30 6866 C 661.763 -4.05838 -2.12272 0
M  V30 6867 N 663.254 -4.0784 -2.19592 0
M  V30 6868 C 663.989 -5.10205 -2.61684 0
M  V30 6869 N 663.485 -6.22949 -3.03161 0
M  V30 6870 N 665.278 -4.9756 -2.61516 0
M  V30 6871 H 657.429 -2.12395 0.0150493 0
M  V30 6872 H 659.692 -0.946355 -0.0558187 0
M  V30 6873 H 659.398 -3.42605 -0.794654 0
M  V30 6874 H 659.272 -2.86566 -2.45275 0
M  V30 6875 H 661.659 -1.89178 -2.26486 0
M  V30 6876 H 661.74 -2.48655 -0.600374 0
M  V30 6877 H 661.384 -4.86559 -1.4568 0
M  V30 6878 H 661.314 -4.23977 -3.12331 0
M  V30 6879 H 663.805 -3.26452 -1.90361 0
M  V30 6880 H 664.118 -6.96899 -3.33993 0
M  V30 6881 H 662.463 -6.2644 -3.00995 0
M  V30 6882 H 665.654 -4.08551 -2.28481 0
M  V30 6883 H 665.827 -5.77468 -2.93999 0
M  V30 6884 N 659.233 0.902656 -1.29189 0
M  V30 6885 C 660.18 2.00643 -1.14066 0
M  V30 6886 C 661.15 1.66064 -0.0347756 0
M  V30 6887 O 662.335 1.8973 -0.201752 0
M  V30 6888 C 659.475 3.35214 -0.820104 0
M  V30 6889 C 658.588 3.82594 -2.00614 0
M  V30 6890 C 657.723 5.05727 -1.62522 0
M  V30 6891 C 656.762 5.45469 -2.77724 0
M  V30 6892 N 655.899 6.59789 -2.40048 0
M  V30 6893 H 660.739 2.1291 -2.08502 0
M  V30 6894 H 658.276 1.04271 -1.03759 0
M  V30 6895 H 660.234 4.12643 -0.614949 0
M  V30 6896 H 658.864 3.22682 0.0873452 0
M  V30 6897 H 657.916 3.01226 -2.32308 0
M  V30 6898 H 659.228 4.07999 -2.86946 0
M  V30 6899 H 658.382 5.90732 -1.38277 0
M  V30 6900 H 657.121 4.82155 -0.733333 0
M  V30 6901 H 656.126 4.59 -3.02653 0
M  V30 6902 H 657.351 5.71024 -3.67572 0
M  V30 6903 H 655.297 6.37826 -1.53343 0
M  V30 6904 H 655.214 6.84975 -3.19914 0
M  V30 6905 H 656.482 7.4807 -2.19116 0
M  V30 6906 N 660.711 1.11618 1.11262 0
M  V30 6907 C 662.127 0.850468 1.35053 0
M  V30 6908 C 662.327 -0.523868 1.94571 0
M  V30 6909 O 661.383 -1.2743 2.17986 0
M  V30 6910 C 662.696 1.96005 2.28041 0
M  V30 6911 C 664.244 1.98993 2.416 0
M  V30 6912 C 664.719 3.0916 3.37911 0
M  V30 6913 N 666.21 3.08547 3.45475 0
M  V30 6914 C 666.945 3.9043 4.19943 0
M  V30 6915 N 666.441 4.8228 4.97371 0
M  V30 6916 N 668.234 3.786 4.15474 0
M  V30 6917 H 660.385 2.00184 0.709932 0
M  V30 6918 H 662.648 0.870635 0.375099 0
M  V30 6919 H 662.354 2.9499 1.91503 0
M  V30 6920 H 662.228 1.85782 3.28275 0
M  V30 6921 H 664.615 1.00633 2.77411 0
M  V30 6922 H 664.696 2.13292 1.4121 0
M  V30 6923 H 664.34 4.07748 3.02827 0
M  V30 6924 H 664.27 2.92102 4.3816 0
M  V30 6925 H 666.761 2.42 2.90249 0
M  V30 6926 H 667.074 5.41289 5.51567 0
M  V30 6927 H 665.419 4.863 4.96525 0
M  V30 6928 H 668.61 3.06185 3.54074 0
M  V30 6929 H 668.783 4.42647 4.73253 0
M  V30 6930 N 662.189 -1.289 0.906776 0
M  V30 6931 C 663.438 -1.9455 0.532262 0
M  V30 6932 C 663.751 -1.72219 -0.927353 0
M  V30 6933 O 664.957 -2.32033 -1.40971 0
M  V30 6934 C 663.413 -3.48438 0.901041 0
M  V30 6935 C 663.021 -3.79558 2.37991 0
M  V30 6936 C 664.765 -4.20284 0.596777 0
M  V30 6937 C 662.672 -5.26723 2.68918 0
M  V30 6938 H 661.602 -0.728259 0.195333 0
M  V30 6939 H 664.253 -1.46519 1.10474 0
M  V30 6940 H 662.635 -3.95162 0.257419 0
M  V30 6941 H 663.809 -3.43668 3.06967 0
M  V30 6942 H 662.124 -3.20868 2.65391 0
M  V30 6943 H 664.721 -5.28612 0.8046 0
M  V30 6944 H 665.064 -4.13694 -0.465072 0
M  V30 6945 H 665.597 -3.79315 1.19855 0
M  V30 6946 H 662.336 -5.38384 3.73928 0
M  V30 6947 H 661.856 -5.63836 2.04571 0
M  V30 6948 H 663.535 -5.94391 2.55555 0
M  V30 6949 N 663.667 -0.670007 -1.42649 0
M  V30 6950 C 664.913 -0.190568 -2.01903 0
M  V30 6951 C 665.246 1.19817 -1.52832 0
M  V30 6952 O 664.521 1.80342 -0.728485 0
M  V30 6953 C 664.804 -0.21991 -3.59428 0
M  V30 6954 C 664.657 -1.64376 -4.18689 0
M  V30 6955 C 665.976 0.434519 -4.3795 0
M  V30 6956 H 663.095 -0.0707219 -0.733599 0
M  V30 6957 H 665.737 -0.853883 -1.69732 0
M  V30 6958 H 663.887 0.344894 -3.86966 0
M  V30 6959 H 665.559 -2.26044 -4.02122 0
M  V30 6960 H 663.802 -2.18591 -3.747 0
M  V30 6961 H 664.473 -1.61601 -5.27815 0
M  V30 6962 H 666.949 -0.0462156 -4.16074 0
M  V30 6963 H 665.825 0.38333 -5.4756 0
M  V30 6964 H 666.086 1.51135 -4.15464 0
M  V30 6965 O 665.184 1.51659 -0.55515 0
M  V30 6966 H 665.875 1.9363 -0.0521056 0
M  V30 END ATOM
M  V30 BEGIN BOND
M  V30 END BOND
M  V30 END CTAB
M  END
$$$$
