drugbank_target|Q14565 Meiotic recombination protein DMC1/LIM15 homolog (DB03366)
 OpenBabel12092120533D

  0  0  0     0  0            999 V3000
M  V30 BEGIN CTAB
M  V30 COUNTS 5305 5347 0 0 0
M  V30 BEGIN ATOM
M  V30 1 H -0.908 1.98254 -0.117106 0
M  V30 2 N 0 1.576 0 0
M  V30 3 C 0.933 2.03868 1.02534 0
M  V30 4 C 1.911 0.928543 1.3348 0
M  V30 5 O 3.095 1.19667 1.45644 0
M  V30 6 C 0.222 2.43627 2.35294 0
M  V30 7 C -0.732 3.65373 2.2001 0
M  V30 8 S 0.101 5.13292 1.52614 0
M  V30 9 C 1.257 5.56322 2.86805 0
M  V30 10 H 1.49 2.90518 0.631377 0
M  V30 11 H -0.977 1.52953 0.210867 0
M  V30 12 H 0.981 2.67203 3.11629 0
M  V30 13 H -0.358 1.57376 2.7183 0
M  V30 14 H -1.165 3.90944 3.18086 0
M  V30 15 H -1.563 3.418 1.51819 0
M  V30 16 H 0.729 5.58782 3.83104 0
M  V30 17 H 1.672 6.56266 2.65933 0
M  V30 18 H 2.08 4.83886 2.90714 0
M  V30 19 N 1.4781 -0.272755 1.55222 0
M  V30 20 C 2.4251 -1.33716 1.88119 0
M  V30 21 C 3.3951 -1.49066 0.73271 0
M  V30 22 O 4.5801 -1.63469 0.984002 0
M  V30 23 C 1.7201 -2.69238 2.15882 0
M  V30 24 C 0.8331 -2.62108 3.43399 0
M  V30 25 C -0.0319 -3.89811 3.60861 0
M  V30 26 C -0.9929 -3.77193 4.8207 0
M  V30 27 N -1.8559 -4.9673 4.96189 0
M  V30 28 H 2.9841 -1.04962 2.78903 0
M  V30 29 H 0.5211 -0.507088 1.38083 0
M  V30 30 H 2.4791 -3.48089 2.29978 0
M  V30 31 H 1.1091 -2.96194 1.28331 0
M  V30 32 H 0.1611 -1.74967 3.37773 0
M  V30 33 H 1.4731 -2.48685 4.32386 0
M  V30 34 H 0.6271 -4.77103 3.74777 0
M  V30 35 H -0.6339 -4.06102 2.7006 0
M  V30 36 H -1.6289 -2.88284 4.68159 0
M  V30 37 H -0.4039 -3.62421 5.74307 0
M  V30 38 H -2.4579 -5.13431 4.08319 0
M  V30 39 H -2.5409 -4.85839 5.79221 0
M  V30 40 H -1.2729 -5.85594 5.1449 0
M  V30 41 N 2.9562 -1.48159 -0.537278 0
M  V30 42 C 3.8662 -1.64807 -1.6696 0
M  V30 43 C 4.8822 -0.530651 -1.65711 0
M  V30 44 O 6.0582 -0.800784 -1.84796 0
M  V30 45 C 3.1232 -1.67708 -3.03438 0
M  V30 46 C 2.1842 -2.91025 -3.156 0
M  V30 47 C 1.4172 -2.93778 -4.45567 0
M  V30 48 O 1.6402 -2.05153 -5.3223 0
M  V30 49 O 0.5742 -3.85868 -4.61941 0
M  V30 50 H 4.4002 -2.6066 -1.55853 0
M  V30 51 H 1.9852 -1.31475 -0.709549 0
M  V30 52 H 3.8672 -1.7218 -3.84619 0
M  V30 53 H 2.5422 -0.750278 -3.14885 0
M  V30 54 H 1.4492 -2.92089 -2.33741 0
M  V30 55 H 2.7822 -3.83065 -3.09066 0
M  V30 56 N 4.4343 0.785586 -1.36625 0
M  V30 57 C 5.7113 1.53198 -1.21613 0
M  V30 58 C 6.0913 2.10187 0.196113 0
M  V30 59 O 5.4393 1.94318 1.20219 0
M  V30 60 C 5.6493 2.62388 -2.30116 0
M  V30 61 C 6.9973 3.30167 -2.66974 0
M  V30 62 O 8.0213 2.72674 -2.29188 0
M  V30 63 O 6.8803 4.34077 -3.32023 0
M  V30 64 H 3.9743 0.677865 -0.473738 0
M  V30 65 H 6.5203 0.823739 -1.48367 0
M  V30 66 H 5.2923 2.18299 -3.24748 0
M  V30 67 H 4.9153 3.40827 -2.0475 0
M  V30 68 N 5.9124 1.20967 1.01018 0
M  V30 69 C 6.8444 0.922059 2.09835 0
M  V30 70 C 7.8574 -0.0927106 1.62536 0
M  V30 71 O 9.0464 0.139127 1.77957 0
M  V30 72 C 6.1464 0.362004 3.36961 0
M  V30 73 C 5.3194 1.42986 4.13369 0
M  V30 74 C 4.3784 0.879976 5.1879 0
M  V30 75 O 3.4044 1.56219 5.47343 0
M  V30 76 N 4.6064 -0.307396 5.79686 0
M  V30 77 H 7.3714 1.8588 2.35093 0
M  V30 78 H 4.9324 1.11422 1.1746 0
M  V30 79 H 6.9244 -0.0201474 4.04695 0
M  V30 80 H 5.4944 -0.479437 3.08902 0
M  V30 81 H 4.7144 1.98608 3.40512 0
M  V30 82 H 6.0024 2.14885 4.61196 0
M  V30 83 H 5.4004 -0.878796 5.58832 0
M  V30 84 H 3.9574 -0.631115 6.48737 0
M  V30 85 N 7.3905 -1.2043 1.01659 0
M  V30 86 C 8.6365 -1.90079 0.706963 0
M  V30 87 C 8.9695 -1.78648 -0.761474 0
M  V30 88 O 8.2445 -1.17069 -1.55323 0
M  V30 89 C 8.5275 -3.41469 1.14327 0
M  V30 90 C 8.3805 -3.61833 2.67201 0
M  V30 91 C 9.6995 -4.34261 0.714529 0
M  V30 92 H 6.8185 -0.690254 0.2583 0
M  V30 93 H 9.4605 -1.41826 1.26433 0
M  V30 94 H 7.6105 -3.82696 0.669056 0
M  V30 95 H 9.2825 -3.2986 3.22475 0
M  V30 96 H 7.5255 -3.05304 3.08175 0
M  V30 97 H 8.1965 -4.67955 2.92783 0
M  V30 98 H 10.6725 -4.00682 1.12221 0
M  V30 99 H 9.5485 -5.38806 1.04784 0
M  V30 100 H 9.8095 -4.40431 -0.383799 0
M  V30 101 N 8.8686 -0.792821 -1.36206 0
M  V30 102 C 10.1146 -0.36733 -1.99446 0
M  V30 103 C 10.4476 1.05917 -1.62774 0
M  V30 104 O 9.7226 1.7324 -0.88421 0
M  V30 105 C 10.0056 -0.535044 -3.56103 0
M  V30 106 C 9.8586 -2.00548 -4.02617 0
M  V30 107 C 11.1776 0.0478191 -4.40074 0
M  V30 108 H 8.2966 -0.134941 -0.724541 0
M  V30 109 H 10.9386 -0.999794 -1.61568 0
M  V30 110 H 9.0886 0.00336329 -3.885 0
M  V30 111 H 10.7606 -2.60521 -3.80692 0
M  V30 112 H 9.0036 -2.50686 -3.54032 0
M  V30 113 H 9.6746 -2.07377 -5.11565 0
M  V30 114 H 12.1506 -0.411822 -4.14057 0
M  V30 115 H 11.0266 -0.0995336 -5.4881 0
M  V30 116 H 11.2876 1.14025 -4.27142 0
M  V30 117 N 10.3467 1.47872 -0.545128 0
M  V30 118 C 11.3097 2.28337 0.198717 0
M  V30 119 C 12.3097 1.36255 0.853888 0
M  V30 120 O 13.4997 1.59003 0.711606 0
M  V30 121 C 10.6317 3.15585 1.28915 0
M  V30 122 H 11.8247 2.95567 -0.507941 0
M  V30 123 H 9.3777 1.53362 -0.301616 0
M  V30 124 H 10.1127 2.53019 2.02859 0
M  V30 125 H 9.8977 3.83337 0.824309 0
M  V30 126 H 11.3877 3.76243 1.81194 0
M  V30 127 N 11.8248 0.280983 1.55075 0
M  V30 128 C 12.7348 -0.61388 2.26426 0
M  V30 129 C 13.7508 -1.16521 1.29224 0
M  V30 130 O 14.9268 -1.19426 1.62171 0
M  V30 131 C 11.9918 -1.7788 2.9759 0
M  V30 132 C 11.0528 -1.26355 4.10284 0
M  V30 133 C 10.2858 -2.37295 4.78045 0
M  V30 134 O 10.5088 -3.56777 4.45047 0
M  V30 135 O 9.4428 -2.05119 5.65871 0
M  V30 136 H 13.2688 -0.0356932 3.03679 0
M  V30 137 H 10.8538 0.0481686 1.49322 0
M  V30 138 H 12.7358 -2.45791 3.42293 0
M  V30 139 H 11.4108 -2.34397 2.23249 0
M  V30 140 H 10.3178 -0.550735 3.70024 0
M  V30 141 H 11.6508 -0.744065 4.86543 0
M  V30 142 N 13.3029 -1.57598 0.00835791 0
M  V30 143 C 14.2129 -2.12385 -0.996487 0
M  V30 144 C 15.2289 -1.07108 -1.37127 0
M  V30 145 O 16.4049 -1.39055 -1.4569 0
M  V30 146 C 13.4699 -2.62314 -2.26699 0
M  V30 147 C 12.5309 -3.82225 -1.95456 0
M  V30 148 C 11.7639 -4.29763 -3.16449 0
M  V30 149 O 11.9869 -3.76584 -4.28416 0
M  V30 150 O 10.9209 -5.21832 -2.99958 0
M  V30 151 H 14.7469 -2.98479 -0.560725 0
M  V30 152 H 12.3319 -1.47903 -0.210987 0
M  V30 153 H 14.2139 -2.94589 -3.01322 0
M  V30 154 H 12.8889 -1.79313 -2.69497 0
M  V30 155 H 11.7959 -3.54909 -1.18282 0
M  V30 156 H 13.1289 -4.66324 -1.57489 0
M  V30 157 N 14.781 0.264519 -1.55364 0
M  V30 158 C 16.192 0.834936 -1.6699 0
M  V30 159 C 16.543 1.86718 -0.602552 0
M  V30 160 O 15.668 2.14899 0.254425 0
M  V30 161 C 16.263 1.5212 -3.02729 0
M  V30 162 C 14.822 2.03954 -3.16354 0
M  V30 163 C 13.969 0.884498 -2.62815 0
M  V30 164 H 16.92 0.0406869 -1.58648 0
M  V30 165 H 16.941 2.38853 -2.96191 0
M  V30 166 H 16.453 0.769668 -3.80392 0
M  V30 167 H 14.554 2.82041 -2.43482 0
M  V30 168 H 14.667 2.24902 -4.23032 0
M  V30 169 H 13.031 1.2802 -2.20188 0
M  V30 170 H 13.814 0.14634 -3.42988 0
M  V30 171 N 16.2591 1.48442 0.529413 0
M  V30 172 C 17.5071 1.56179 1.28267 0
M  V30 173 C 17.8281 0.237721 1.93546 0
M  V30 174 O 17.0981 -0.740779 1.81354 0
M  V30 175 H 15.6781 0.575367 0.476405 0
M  V30 176 H 18.3401 1.84909 0.61602 0
M  V30 177 H 17.4361 2.34312 2.06165 0
M  V30 178 N 17.7372 -0.778329 1.37039 0
M  V30 179 C 18.9842 -1.53665 1.31884 0
M  V30 180 C 19.3122 -1.9425 -0.0986303 0
M  V30 181 O 18.5672 -1.63832 -1.07041 0
M  V30 182 C 18.8662 -2.81845 2.19768 0
M  V30 183 C 18.5322 -2.60345 3.68146 0
M  V30 184 C 17.1942 -2.5419 4.08584 0
M  V30 185 C 19.5462 -2.40923 4.62175 0
M  V30 186 C 16.8742 -2.26594 5.41177 0
M  V30 187 C 19.2262 -2.14852 5.94997 0
M  V30 188 C 17.8902 -2.07137 6.34547 0
M  V30 189 H 17.1602 -0.562299 0.482598 0
M  V30 190 H 19.8072 -0.897069 1.69189 0
M  V30 191 H 18.1122 -3.50328 1.75436 0
M  V30 192 H 19.8092 -3.39692 2.13097 0
M  V30 193 H 16.3992 -2.65996 3.36072 0
M  V30 194 H 20.5832 -2.44673 4.31797 0
M  V30 195 H 15.8392 -2.19111 5.70789 0
M  V30 196 H 20.0132 -1.98822 6.67415 0
M  V30 197 H 17.6402 -1.85518 7.37216 0
M  V30 198 N 19.2153 -1.21501 -1.00376 0
M  V30 199 C 20.1473 -0.933174 -2.09343 0
M  V30 200 C 21.1603 0.0840896 -1.62583 0
M  V30 201 O 22.3493 -0.148563 -1.77881 0
M  V30 202 C 19.4493 -0.379869 -3.36764 0
M  V30 203 C 18.6223 -1.45176 -4.12605 0
M  V30 204 C 17.6813 -0.907476 -5.18316 0
M  V30 205 O 16.7073 -1.5912 -5.46507 0
M  V30 206 N 17.9093 0.276649 -5.7984 0
M  V30 207 H 20.6743 -1.87124 -2.34104 0
M  V30 208 H 18.2353 -1.12043 -1.16867 0
M  V30 209 H 20.2273 -0.00131488 -4.047 0
M  V30 210 H 18.7973 0.463048 -3.09151 0
M  V30 211 H 18.0173 -2.00411 -3.39454 0
M  V30 212 H 19.3053 -2.17328 -4.6005 0
M  V30 213 H 18.7033 0.849147 -5.59291 0
M  V30 214 H 17.2603 0.596702 -6.49063 0
M  V30 215 N 20.6934 1.19889 -1.02296 0
M  V30 216 C 21.9704 1.85148 -0.630832 0
M  V30 217 C 22.3504 1.91385 0.890782 0
M  V30 218 O 21.6984 1.42642 1.78509 0
M  V30 219 C 21.9084 3.24442 -1.28602 0
M  V30 220 C 23.2564 4.00663 -1.4055 0
M  V30 221 O 24.2804 3.33818 -1.24273 0
M  V30 222 O 23.1394 5.20387 -1.66913 0
M  V30 223 H 20.2334 0.797613 -0.218499 0
M  V30 224 H 22.7794 1.27427 -1.12074 0
M  V30 225 H 21.5514 3.14704 -2.32545 0
M  V30 226 H 21.1744 3.89802 -0.7836 0
M  V30 227 N 22.1715 0.800033 1.35784 0
M  V30 228 C 23.0815 0.207204 2.33683 0
M  V30 229 C 24.0975 -0.64631 1.61551 0
M  V30 230 O 25.2735 -0.559604 1.93469 0
M  V30 231 C 22.3385 -0.639659 3.40748 0
M  V30 232 C 21.3995 0.233585 4.28664 0
M  V30 233 C 20.6325 -0.572954 5.30616 0
M  V30 234 O 20.8555 -1.80816 5.40982 0
M  V30 235 O 19.7895 0.0327285 6.01891 0
M  V30 236 H 23.6155 1.01692 2.86169 0
M  V30 237 H 21.2005 0.561691 1.38439 0
M  V30 238 H 23.0825 -1.12223 4.06182 0
M  V30 239 H 21.7575 -1.42708 2.90544 0
M  V30 240 H 20.6645 0.763147 3.66233 0
M  V30 241 H 21.9975 0.984784 4.82248 0
M  V30 242 N 23.6496 -1.47581 0.552962 0
M  V30 243 C 24.5596 -2.33743 -0.200353 0
M  V30 244 C 25.5756 -1.47928 -0.916151 0
M  V30 245 O 26.7516 -1.80865 -0.885993 0
M  V30 246 C 23.8166 -3.24536 -1.21973 0
M  V30 247 C 22.8776 -4.26238 -0.511819 0
M  V30 248 C 22.1106 -5.12693 -1.48263 0
M  V30 249 O 22.3336 -5.01525 -2.71714 0
M  V30 250 O 21.2676 -5.93375 -1.00945 0
M  V30 251 H 25.0936 -2.9945 0.506304 0
M  V30 252 H 22.6786 -1.46071 0.313622 0
M  V30 253 H 24.5606 -3.80631 -1.80827 0
M  V30 254 H 23.2356 -2.61462 -1.90839 0
M  V30 255 H 22.1426 -3.73914 0.117799 0
M  V30 256 H 23.4756 -4.92014 0.135308 0
M  V30 257 N 25.1277 -0.289203 -1.54924 0
M  V30 258 C 26.0377 0.601863 -2.26748 0
M  V30 259 C 27.0537 1.15834 -1.2984 0
M  V30 260 O 28.2297 1.18564 -1.62802 0
M  V30 261 C 25.2947 1.76299 -2.98529 0
M  V30 262 C 24.3557 1.24178 -4.10948 0
M  V30 263 C 23.5887 2.34757 -4.79296 0
M  V30 264 O 23.8117 3.54411 -4.46933 0
M  V30 265 O 22.7457 2.02115 -5.66951 0
M  V30 266 H 26.5717 0.0195879 -3.03694 0
M  V30 267 H 24.1567 -0.0560868 -1.49295 0
M  V30 268 H 26.0387 2.43973 -3.43592 0
M  V30 269 H 24.7137 2.33209 -2.24488 0
M  V30 270 H 23.6207 0.531104 -3.70311 0
M  V30 271 H 24.9537 0.718252 -4.86931 0
M  V30 272 N 26.6058 1.57591 -0.0167156 0
M  V30 273 C 27.8308 1.9598 0.67872 0
M  V30 274 C 28.2558 0.892546 1.65575 0
M  V30 275 O 27.6138 -0.147772 1.80697 0
M  V30 276 C 27.6618 3.33468 1.37227 0
M  V30 277 O 26.7658 3.28954 2.48722 0
M  V30 278 H 26.1068 0.639339 0.17928 0
M  V30 279 H 28.6368 2.04463 -0.0748802 0
M  V30 280 H 28.6468 3.69417 1.7319 0
M  V30 281 H 27.3218 4.10694 0.656007 0
M  V30 282 H 25.8988 3.04705 2.14963 0
M  V30 283 N 28.0839 -0.256276 1.55502 0
M  V30 284 C 29.0139 -1.32102 1.92539 0
M  V30 285 C 29.9949 -1.50684 0.789194 0
M  V30 286 O 31.1799 -1.63449 1.04872 0
M  V30 287 C 28.3099 -2.67752 2.21192 0
M  V30 288 C 27.2639 -2.63878 3.36975 0
M  V30 289 C 26.5899 -4.03236 3.51147 0
M  V30 290 C 27.8899 -2.21682 4.72921 0
M  V30 291 H 29.5839 -1.01351 2.81724 0
M  V30 292 H 27.1299 -0.486105 1.35547 0
M  V30 293 H 29.0829 -3.42365 2.45691 0
M  V30 294 H 27.8069 -3.0012 1.28824 0
M  V30 295 H 26.4659 -1.91722 3.12471 0
M  V30 296 H 26.1139 -4.32854 2.56216 0
M  V30 297 H 25.8139 -4.01535 4.29003 0
M  V30 298 H 27.3379 -4.79563 3.77957 0
M  V30 299 H 28.7519 -2.86023 4.96854 0
M  V30 300 H 27.1489 -2.3111 5.53812 0
M  V30 301 H 28.2189 -1.16833 4.70615 0
M  V30 302 N 29.562 -1.4872 -0.521534 0
M  V30 303 C 30.809 -1.57168 -1.27689 0
M  V30 304 C 31.137 -0.249275 -1.92896 0
M  V30 305 O 30.392 0.761162 -1.80291 0
M  V30 306 C 30.691 -2.66497 -2.38148 0
M  V30 307 C 30.357 -4.08664 -1.90538 0
M  V30 308 C 29.019 -4.47357 -1.77271 0
M  V30 309 C 31.371 -4.97724 -1.54663 0
M  V30 310 C 28.699 -5.72905 -1.26478 0
M  V30 311 C 31.051 -6.2377 -1.05329 0
M  V30 312 C 29.715 -6.61311 -0.906861 0
M  V30 313 H 28.985 -0.575117 -0.467249 0
M  V30 314 H 31.632 -1.82472 -0.581051 0
M  V30 315 H 29.937 -2.35085 -3.13437 0
M  V30 316 H 31.634 -2.70246 -2.96257 0
M  V30 317 H 28.224 -3.78111 -2.01816 0
M  V30 318 H 32.408 -4.68501 -1.63768 0
M  V30 319 H 27.664 -6.00709 -1.13835 0
M  V30 320 H 31.838 -6.9217 -0.76644 0
M  V30 321 H 29.465 -7.5848 -0.511083 0
M  V30 322 N 31.0401 0.771051 -1.3745 0
M  V30 323 C 31.9721 1.89352 -1.29146 0
M  V30 324 C 32.9851 1.61477 -0.207124 0
M  V30 325 O 34.1741 1.72382 -0.463324 0
M  V30 326 C 31.2741 3.24596 -0.974195 0
M  V30 327 C 30.4471 3.80111 -2.16413 0
M  V30 328 C 29.5061 4.93832 -1.81703 0
M  V30 329 O 28.5321 5.09382 -2.54006 0
M  V30 330 N 29.7341 5.75483 -0.761573 0
M  V30 331 H 32.4991 1.96991 -2.25864 0
M  V30 332 H 30.0601 0.950191 -1.31084 0
M  V30 333 H 32.0521 3.98193 -0.722828 0
M  V30 334 H 30.6221 3.12454 -0.0955527 0
M  V30 335 H 29.8421 2.98284 -2.57721 0
M  V30 336 H 31.1301 4.13932 -2.95867 0
M  V30 337 H 30.5281 5.65469 -0.161609 0
M  V30 338 H 29.0851 6.49302 -0.570064 0
M  V30 339 N 32.5182 1.22032 0.997298 0
M  V30 340 C 33.7952 0.950823 1.70935 0
M  V30 341 C 34.1752 -0.535292 2.042 0
M  V30 342 O 33.5232 -1.50217 1.72183 0
M  V30 343 C 33.7332 1.84386 2.96315 0
M  V30 344 C 35.0812 2.09732 3.69185 0
M  V30 345 O 36.1052 1.81798 3.06314 0
M  V30 346 O 34.9642 2.57018 4.82291 0
M  V30 347 H 32.0582 0.357204 0.745878 0
M  V30 348 H 34.6042 1.32997 1.05404 0
M  V30 349 H 33.3762 2.84928 2.68201 0
M  V30 350 H 32.9992 1.46602 3.69586 0
M  V30 351 N 33.9963 -1.19345 1.0293 0
M  V30 352 C 35.2453 -1.88363 0.721256 0
M  V30 353 C 35.5583 -1.80514 -0.753254 0
M  V30 354 O 36.7643 -2.44788 -1.17436 0
M  V30 355 C 35.2203 -3.37872 1.23978 0
M  V30 356 C 34.8283 -3.54278 2.74211 0
M  V30 357 C 36.5723 -4.12365 1.00775 0
M  V30 358 C 34.4793 -4.97682 3.19479 0
M  V30 359 H 33.4093 -0.705484 0.266098 0
M  V30 360 H 36.0603 -1.34928 1.24365 0
M  V30 361 H 34.4423 -3.90707 0.6453 0
M  V30 362 H 35.6163 -3.11769 3.39318 0
M  V30 363 H 33.9313 -2.93174 2.95699 0
M  V30 364 H 36.5283 -5.18119 1.32123 0
M  V30 365 H 36.8713 -4.16263 -0.0554308 0
M  V30 366 H 37.4043 -3.65668 1.56625 0
M  V30 367 H 34.1433 -4.98945 4.25128 0
M  V30 368 H 33.6633 -5.4095 2.591 0
M  V30 369 H 35.3423 -5.66337 3.12845 0
M  V30 370 N 35.4744 -0.807222 -1.35358 0
M  V30 371 C 36.7514 -0.311126 -1.9311 0
M  V30 372 C 37.1314 1.19937 -1.73719 0
M  V30 373 O 36.4794 1.99918 -1.10657 0
M  V30 374 C 36.6894 -0.723226 -3.41424 0
M  V30 375 C 38.0374 -0.713078 -4.18569 0
M  V30 376 O 39.0614 -0.664811 -3.49941 0
M  V30 377 O 37.9204 -0.772022 -5.41019 0
M  V30 378 H 35.0144 -0.081526 -0.822972 0
M  V30 379 H 37.5604 -0.890962 -1.4443 0
M  V30 380 H 36.3324 -1.76426 -3.4927 0
M  V30 381 H 35.9554 -0.118232 -3.97424 0
M  V30 382 N 36.9525 1.47285 -0.560781 0
M  V30 383 C 37.8825 2.32857 0.173105 0
M  V30 384 C 38.8635 1.44009 0.905281 0
M  V30 385 O 40.0485 1.7286 0.885046 0
M  V30 386 C 37.1785 3.25861 1.20133 0
M  V30 387 C 36.1325 4.23978 0.585388 0
M  V30 388 C 35.4585 5.06332 1.7185 0
M  V30 389 C 36.7585 5.20242 -0.463178 0
M  V30 390 H 38.4525 2.94466 -0.541307 0
M  V30 391 H 35.9985 1.41601 -0.261764 0
M  V30 392 H 37.9515 3.84569 1.72293 0
M  V30 393 H 36.6755 2.62315 1.94573 0
M  V30 394 H 35.3345 3.66501 0.085054 0
M  V30 395 H 34.9825 4.39186 2.45203 0
M  V30 396 H 34.6825 5.72762 1.31213 0
M  V30 397 H 36.2065 5.67899 2.24329 0
M  V30 398 H 37.6205 5.73293 -0.027502 0
M  V30 399 H 36.0175 5.94896 -0.788627 0
M  V30 400 H 37.0875 4.65504 -1.35773 0
M  V30 401 N 38.4306 0.297415 1.54768 0
M  V30 402 C 39.3606 -0.573494 2.26348 0
M  V30 403 C 40.3416 -1.14085 1.26169 0
M  V30 404 O 41.5266 -1.17086 1.54934 0
M  V30 405 C 38.6566 -1.74716 3.00153 0
M  V30 406 C 37.6106 -1.31032 4.07449 0
M  V30 407 C 36.9366 -2.56887 4.68949 0
M  V30 408 C 38.2366 -0.444183 5.20408 0
M  V30 409 H 39.9306 0.0235131 2.99391 0
M  V30 410 H 37.4766 0.0127488 1.43994 0
M  V30 411 H 39.4296 -2.3625 3.48947 0
M  V30 412 H 38.1536 -2.37035 2.24682 0
M  V30 413 H 36.8126 -0.718066 3.59499 0
M  V30 414 H 36.4606 -3.17512 3.90122 0
M  V30 415 H 36.1606 -2.2836 5.41411 0
M  V30 416 H 37.6846 -3.19229 5.20505 0
M  V30 417 H 39.0986 -0.9651 5.65118 0
M  V30 418 H 37.4956 -0.252846 5.99567 0
M  V30 419 H 38.5656 0.531609 4.81977 0
M  V30 420 N 39.9087 -1.5758 0.0250728 0
M  V30 421 C 40.8407 -2.06869 -0.986796 0
M  V30 422 C 41.8537 -0.991332 -1.29137 0
M  V30 423 O 43.0427 -1.26761 -1.25674 0
M  V30 424 C 40.1427 -2.47486 -2.31525 0
M  V30 425 C 39.3157 -3.78253 -2.19643 0
M  V30 426 C 38.3747 -4.05464 -3.35388 0
M  V30 427 O 37.4007 -4.75774 -3.12454 0
M  V30 428 N 38.6027 -3.55321 -4.59051 0
M  V30 429 H 41.3677 -2.94302 -0.566276 0
M  V30 430 H 38.9287 -1.6109 -0.161776 0
M  V30 431 H 40.9207 -2.62785 -3.07776 0
M  V30 432 H 39.4907 -1.65441 -2.65232 0
M  V30 433 H 38.7107 -3.7279 -1.28144 0
M  V30 434 H 39.9987 -4.63936 -2.08903 0
M  V30 435 H 39.3967 -2.98431 -4.80578 0
M  V30 436 H 37.9537 -3.75905 -5.32483 0
M  V30 437 N 41.3868 0.248026 -1.55636 0
M  V30 438 C 42.3338 1.30707 -1.90222 0
M  V30 439 C 43.3038 1.47881 -0.756332 0
M  V30 440 O 44.4888 1.61883 -1.00988 0
M  V30 441 C 41.6288 2.65769 -2.20138 0
M  V30 442 C 40.7418 2.56612 -3.47526 0
M  V30 443 C 39.8768 3.8402 -3.67017 0
M  V30 444 C 38.9158 3.69476 -4.8801 0
M  V30 445 N 38.0528 4.88774 -5.04029 0
M  V30 446 H 42.8928 1.00512 -2.80538 0
M  V30 447 H 40.4298 0.485055 -1.38873 0
M  V30 448 H 42.3878 3.44386 -2.35487 0
M  V30 449 H 41.0178 2.94115 -1.33027 0
M  V30 450 H 40.0698 1.69571 -3.40514 0
M  V30 451 H 41.3818 2.41774 -4.36287 0
M  V30 452 H 40.5358 4.7108 -3.8232 0
M  V30 453 H 39.2748 4.01754 -2.76487 0
M  V30 454 H 38.2798 2.80799 -4.72686 0
M  V30 455 H 39.5048 3.53238 -5.8 0
M  V30 456 H 37.4508 5.0687 -4.16435 0
M  V30 457 H 37.3678 4.76562 -5.86877 0
M  V30 458 H 38.6358 5.77335 -5.23741 0
M  V30 459 N 42.8649 1.48995 0.513639 0
M  V30 460 C 43.8149 1.61127 1.61314 0
M  V30 461 C 44.7989 0.467521 1.53958 0
M  V30 462 O 45.9909 0.719826 1.61702 0
M  V30 463 C 43.1199 1.66937 2.99978 0
M  V30 464 C 42.2059 2.86847 3.12377 0
M  V30 465 N 42.5969 4.11078 2.94701 0
M  V30 466 C 40.8949 2.84521 3.43459 0
M  V30 467 C 41.5959 4.91615 3.10949 0
M  V30 468 N 40.5719 4.24739 3.3926 0
M  V30 469 H 44.3739 2.54909 1.46282 0
M  V30 470 H 41.8879 1.45593 0.719483 0
M  V30 471 H 43.8849 1.73725 3.78979 0
M  V30 472 H 42.5449 0.742831 3.16089 0
M  V30 473 H 43.5559 4.41258 2.71131 0
M  V30 474 H 40.2329 2.01192 3.65825 0
M  V30 475 H 41.6229 6.00264 3.01882 0
M  V30 476 N 44.343 -0.763751 1.37857 0
M  V30 477 C 45.591 -1.51957 1.33243 0
M  V30 478 C 45.912 -1.94835 -0.0801709 0
M  V30 479 O 45.182 -1.66894 -1.02582 0
M  V30 480 H 43.762 -0.563626 0.49024 0
M  V30 481 H 46.424 -0.908504 1.7243 0
M  V30 482 H 45.52 -2.41523 1.97669 0
M  V30 483 N 45.8211 -1.22559 -0.990812 0
M  V30 484 C 47.0701 -1.04553 -1.72486 0
M  V30 485 C 47.3831 0.419349 -1.91052 0
M  V30 486 O 48.5891 0.719121 -2.61803 0
M  V30 487 C 47.0451 -1.82231 -3.10355 0
M  V30 488 C 46.6531 -3.32981 -2.99713 0
M  V30 489 C 48.3971 -1.7268 -3.87791 0
M  V30 490 C 46.3041 -4.03091 -4.32748 0
M  V30 491 H 45.2341 -0.387614 -0.646739 0
M  V30 492 H 47.8851 -1.46429 -1.10593 0
M  V30 493 H 46.2671 -1.33155 -3.72942 0
M  V30 494 H 47.4411 -3.89466 -2.46278 0
M  V30 495 H 45.7561 -3.43231 -2.35758 0
M  V30 496 H 48.3531 -2.22381 -4.86262 0
M  V30 497 H 48.6961 -0.687607 -4.10582 0
M  V30 498 H 49.2291 -2.1931 -3.31885 0
M  V30 499 H 45.9681 -5.07273 -4.15156 0
M  V30 500 H 45.4881 -3.51394 -4.86089 0
M  V30 501 H 47.1671 -4.08804 -5.01486 0
M  V30 502 N 47.2992 1.18797 -1.03562 0
M  V30 503 C 48.2472 2.24297 -0.615905 0
M  V30 504 C 49.2412 1.65643 0.354808 0
M  V30 505 O 50.4472 1.78618 0.22265 0
M  V30 506 H 46.8222 0.729909 -0.180934 0
M  V30 507 H 48.7932 2.5701 -1.5162 0
M  V30 508 C 47.5422 3.47698 0.0104735 0
M  V30 509 H 46.8652 3.93125 -0.727509 0
M  V30 510 H 48.3052 4.23159 0.266995 0
M  V30 511 C 46.7642 3.12489 1.25905 0
M  V30 512 O 47.2942 3.25761 2.35038 0
M  V30 513 N 45.5002 2.6686 1.15039 0
M  V30 514 H 45.0472 2.56261 0.262328 0
M  V30 515 H 45.0052 2.43674 1.98672 0
M  V30 516 N 48.7773 0.814389 1.34928 0
M  V30 517 C 50.0233 0.399013 1.98836 0
M  V30 518 C 50.3563 -1.03314 1.64438 0
M  V30 519 O 49.6313 -1.71811 0.911659 0
M  V30 520 C 49.9143 0.591629 3.55207 0
M  V30 521 C 49.7673 2.06928 3.99376 0
M  V30 522 C 51.0863 0.022199 4.40094 0
M  V30 523 H 48.2053 0.146451 0.722303 0
M  V30 524 H 50.8473 1.02537 1.59957 0
M  V30 525 H 48.9973 0.0584441 3.88456 0
M  V30 526 H 50.6693 2.66544 3.76499 0
M  V30 527 H 48.9123 2.56287 3.49999 0
M  V30 528 H 49.5833 2.1549 5.08201 0
M  V30 529 H 52.0593 0.477643 4.13349 0
M  V30 530 H 50.9353 0.186832 5.48582 0
M  V30 531 H 51.1963 -1.07215 4.28902 0
M  V30 532 N 50.2554 -1.46986 0.568584 0
M  V30 533 C 51.2184 -2.28624 -0.162366 0
M  V30 534 C 52.2184 -1.37596 -0.832103 0
M  V30 535 O 53.4084 -1.60115 -0.68622 0
M  V30 536 C 50.5404 -3.17596 -1.23878 0
M  V30 537 H 51.7334 -2.94722 0.554899 0
M  V30 538 H 49.2864 -1.52863 0.325976 0
M  V30 539 H 50.0214 -2.56214 -1.98808 0
M  V30 540 H 49.8064 -3.846 -0.763219 0
M  V30 541 H 51.2964 -3.79078 -1.75185 0
M  V30 542 N 51.7335 -0.305618 -1.54608 0
M  V30 543 C 53.0105 0.355652 -1.92339 0
M  V30 544 C 53.3905 1.71324 -1.23335 0
M  V30 545 O 52.7385 2.25473 -0.370702 0
M  V30 546 C 52.9485 0.46572 -3.45879 0
M  V30 547 C 54.2965 0.734426 -4.182 0
M  V30 548 O 55.3205 0.54935 -3.51938 0
M  V30 549 O 54.1795 1.09024 -5.35515 0
M  V30 550 H 51.2735 0.199666 -0.802535 0
M  V30 551 H 53.8195 -0.354017 -1.65966 0
M  V30 552 H 52.5915 -0.488461 -3.88239 0
M  V30 553 H 52.2145 1.22367 -3.78301 0
M  V30 554 N 53.2116 1.57565 -0.0334293 0
M  V30 555 C 54.4606 1.91155 0.643639 0
M  V30 556 C 54.7736 0.91192 1.73042 0
M  V30 557 O 55.9796 1.13923 2.46442 0
M  V30 558 C 54.4356 3.39443 1.1961 0
M  V30 559 C 54.0436 4.47774 0.142381 0
M  V30 560 C 55.7876 3.82094 1.84944 0
M  V30 561 C 53.6946 5.87162 0.706727 0
M  V30 562 H 52.6246 0.713368 0.244176 0
M  V30 563 H 55.2756 1.8323 -0.0994323 0
M  V30 564 H 53.6576 3.42313 1.99092 0
M  V30 565 H 54.8316 4.56469 -0.630296 0
M  V30 566 H 53.1466 4.14352 -0.412446 0
M  V30 567 H 55.7436 4.83591 2.2813 0
M  V30 568 H 56.0866 3.17386 2.69392 0
M  V30 569 H 56.6196 3.81665 1.12145 0
M  V30 570 H 53.3586 6.55424 -0.0997178 0
M  V30 571 H 52.8786 5.82064 1.44779 0
M  V30 572 H 54.5576 6.35866 1.19514 0
M  V30 573 N 54.6897 -0.239769 1.55765 0
M  V30 574 C 55.6367 -1.29696 1.90913 0
M  V30 575 C 56.6067 -1.47478 0.764164 0
M  V30 576 O 57.7917 -1.61345 1.01845 0
M  V30 577 C 54.9317 -2.64598 2.21544 0
M  V30 578 C 54.0447 -2.54765 3.48882 0
M  V30 579 C 53.1797 -3.82069 3.69049 0
M  V30 580 C 52.2187 -3.66883 4.89963 0
M  V30 581 N 51.3557 -4.86094 5.06614 0
M  V30 582 H 56.1957 -0.990224 2.81067 0
M  V30 583 H 53.7327 -0.477684 1.39128 0
M  V30 584 H 55.6907 -3.43132 2.3731 0
M  V30 585 H 54.3207 -2.93405 1.34585 0
M  V30 586 H 53.3727 -1.67763 3.41409 0
M  V30 587 H 54.6847 -2.39457 4.37563 0
M  V30 588 H 53.8387 -4.69046 3.84812 0
M  V30 589 H 52.5777 -4.00282 2.78614 0
M  V30 590 H 51.5827 -2.78289 4.74168 0
M  V30 591 H 52.8077 -3.50157 5.81865 0
M  V30 592 H 50.7537 -5.04655 4.19117 0
M  V30 593 H 50.6707 -4.73443 5.89396 0
M  V30 594 H 51.9387 -5.74549 5.26795 0
M  V30 595 N 56.1678 -1.49265 -0.50573 0
M  V30 596 C 57.1148 -1.65585 -1.6078 0
M  V30 597 C 58.0848 -0.497396 -1.58478 0
M  V30 598 O 59.2698 -0.72385 -1.76536 0
M  V30 599 C 56.4098 -1.72408 -2.98948 0
M  V30 600 C 55.5228 -2.99525 -3.11301 0
M  V30 601 C 54.6578 -2.97356 -4.40174 0
M  V30 602 C 53.6968 -4.19074 -4.46143 0
M  V30 603 N 52.8338 -4.14841 -5.66437 0
M  V30 604 H 57.6738 -2.59688 -1.46172 0
M  V30 605 H 55.2108 -1.28761 -0.711261 0
M  V30 606 H 57.1688 -1.74344 -3.79025 0
M  V30 607 H 55.7988 -0.817753 -3.1227 0
M  V30 608 H 54.8508 -3.07222 -2.24318 0
M  V30 609 H 56.1628 -3.89518 -3.11572 0
M  V30 610 H 55.3168 -2.97829 -5.28567 0
M  V30 611 H 54.0558 -2.05133 -4.42461 0
M  V30 612 H 53.0608 -4.1885 -3.56153 0
M  V30 613 H 54.2858 -5.12483 -4.45575 0
M  V30 614 H 52.2318 -3.25453 -5.69575 0
M  V30 615 H 52.1488 -4.98564 -5.68304 0
M  V30 616 H 53.4168 -4.1941 -6.57051 0
M  V30 617 N 57.6459 0.756429 -1.3826 0
M  V30 618 C 58.5759 1.88374 -1.37976 0
M  V30 619 C 59.5569 1.68311 -0.246082 0
M  V30 620 O 60.7419 1.88944 -0.44874 0
M  V30 621 C 57.8719 3.25864 -1.20125 0
M  V30 622 C 56.8259 3.60523 -2.30666 0
M  V30 623 C 56.1519 4.9672 -1.97923 0
M  V30 624 C 57.4519 3.65692 -3.72916 0
M  V30 625 H 59.1459 1.88869 -2.32312 0
M  V30 626 H 56.6919 0.907272 -1.11824 0
M  V30 627 H 58.6449 4.0438 -1.18552 0
M  V30 628 H 57.3689 3.25841 -0.222498 0
M  V30 629 H 56.0279 2.84324 -2.3142 0
M  V30 630 H 55.6759 4.93253 -0.985393 0
M  V30 631 H 55.3759 5.20878 -2.71955 0
M  V30 632 H 56.8999 5.77618 -1.97964 0
M  V30 633 H 58.3139 4.34328 -3.74208 0
M  V30 634 H 56.7109 4.01358 -4.4613 0
M  V30 635 H 57.7809 2.65987 -4.05436 0
M  V30 636 N 59.124 1.23083 0.984299 0
M  V30 637 C 60.071 1.00854 2.07598 0
M  V30 638 C 61.041 -0.0726709 1.65941 0
M  V30 639 O 62.226 0.0786535 1.90638 0
M  V30 640 C 59.366 0.601645 3.39815 0
M  V30 641 C 58.479 1.75456 3.94765 0
M  V30 642 C 57.614 1.29482 5.15177 0
M  V30 643 C 56.653 2.41873 5.62284 0
M  V30 644 N 55.79 1.96885 6.73929 0
M  V30 645 H 60.63 1.943 2.25946 0
M  V30 646 H 58.167 0.968001 1.10762 0
M  V30 647 H 60.125 0.346854 4.15756 0
M  V30 648 H 58.755 -0.295803 3.21442 0
M  V30 649 H 57.807 2.12346 3.15616 0
M  V30 650 H 59.119 2.59965 4.25699 0
M  V30 651 H 58.273 0.997923 5.98437 0
M  V30 652 H 57.012 0.420046 4.85888 0
M  V30 653 H 56.017 2.72342 4.77608 0
M  V30 654 H 57.242 3.29881 5.93595 0
M  V30 655 H 55.188 1.11782 6.46406 0
M  V30 656 H 55.105 2.74956 7.04227 0
M  V30 657 H 56.373 1.70289 7.60672 0
M  V30 658 N 60.6021 -1.18246 1.0419 0
M  V30 659 C 61.8271 -1.92736 0.765996 0
M  V30 660 C 62.2521 -1.75728 -0.67091 0
M  V30 661 O 61.6101 -1.06825 -1.46486 0
M  V30 662 C 61.6581 -3.42148 1.13875 0
M  V30 663 O 60.7621 -4.11548 0.264954 0
M  V30 664 H 60.1031 -0.601238 0.281797 0
M  V30 665 H 62.6331 -1.49942 1.39207 0
M  V30 666 H 62.6431 -3.92858 1.1012 0
M  V30 667 H 61.3181 -3.53848 2.18551 0
M  V30 668 H 59.8951 -3.71137 0.362226 0
M  V30 669 N 62.0802 -0.821533 -1.34494 0
M  V30 670 C 63.3262 -0.409552 -1.98622 0
M  V30 671 C 63.6592 1.0244 -1.64984 0
M  V30 672 O 62.9342 1.71325 -0.920758 0
M  V30 673 C 63.2172 -0.610458 -3.54888 0
M  V30 674 C 63.0702 -2.09043 -3.98273 0
M  V30 675 C 64.3892 -0.0455379 -4.40076 0
M  V30 676 H 61.5082 -0.15028 -0.721516 0
M  V30 677 H 64.1502 -1.03384 -1.59411 0
M  V30 678 H 62.3002 -0.079044 -3.8842 0
M  V30 679 H 63.9722 -2.68537 -3.75081 0
M  V30 680 H 62.2152 -2.58139 -3.48635 0
M  V30 681 H 62.8862 -2.18182 -5.07051 0
M  V30 682 H 65.3622 -0.499557 -4.1309 0
M  V30 683 H 64.2382 -0.215922 -5.48475 0
M  V30 684 H 64.4992 1.04939 -4.29465 0
M  V30 685 N 63.5583 1.46682 -0.576371 0
M  V30 686 C 64.8063 2.02013 -0.0594163 0
M  V30 687 C 65.1273 1.45101 1.30271 0
M  V30 688 O 64.3973 0.633317 1.8538 0
M  V30 689 H 62.9773 0.746759 -0.0189745 0
M  V30 690 H 65.6393 1.79862 -0.750717 0
M  V30 691 H 64.7353 3.12097 0.014345 0
M  V30 692 N 65.0364 0.313813 1.54444 0
M  V30 693 C 66.2854 -0.292519 1.99568 0
M  V30 694 C 66.5984 -1.54011 1.20582 0
M  V30 695 O 67.8044 -2.22183 1.56035 0
M  V30 696 C 66.2604 -0.571752 3.55329 0
M  V30 697 C 65.8684 0.658229 4.43138 0
M  V30 698 C 67.6124 -1.13857 4.08946 0
M  V30 699 C 65.5194 0.351439 5.90355 0
M  V30 700 H 64.4494 -0.113079 0.745472 0
M  V30 701 H 67.1004 0.424518 1.78522 0
M  V30 702 H 65.4824 -1.34872 3.72325 0
M  V30 703 H 66.6564 1.43403 4.37918 0
M  V30 704 H 64.9714 1.14458 4.0036 0
M  V30 705 H 67.5684 -1.38257 5.16516 0
M  V30 706 H 67.9114 -2.08489 3.6033 0
M  V30 707 H 68.4444 -0.423015 3.95544 0
M  V30 708 H 65.1834 1.26667 6.43145 0
M  V30 709 H 64.7034 -0.386842 5.98551 0
M  V30 710 H 66.3824 -0.0423134 6.46986 0
M  V30 711 N 66.5145 -1.57545 0.0417849 0
M  V30 712 C 67.7545 -1.94185 -0.63809 0
M  V30 713 C 68.1185 -0.919339 -1.68559 0
M  V30 714 O 69.3195 -1.17236 -2.41886 0
M  V30 715 C 67.5905 -3.35672 -1.22714 0
M  V30 716 S 69.1495 -3.94256 -1.92633 0
M  V30 717 H 65.9675 -0.679353 -0.209764 0
M  V30 718 H 68.5695 -1.95199 0.108479 0
M  V30 719 H 67.2735 -4.07898 -0.452503 0
M  V30 720 H 66.8045 -3.38132 -2.01073 0
M  V30 721 H 68.8195 -3.7872 -3.20602 0
M  V30 722 N 67.9926 0.231505 -1.5589 0
M  V30 723 C 69.2206 0.974505 -1.82513 0
M  V30 724 C 69.6356 1.78344 -0.619591 0
M  V30 725 O 68.9926 1.77792 0.411848 0
M  V30 726 C 69.0436 1.90007 -3.07538 0
M  V30 727 O 68.7646 1.12385 -4.2344 0
M  V30 728 C 70.2656 2.75779 -3.47075 0
M  V30 729 H 67.4856 0.286065 -0.606966 0
M  V30 730 H 70.0296 0.249739 -2.02969 0
M  V30 731 H 68.1846 2.57891 -2.89086 0
M  V30 732 H 68.5986 1.75125 -4.944 0
M  V30 733 H 70.0726 3.36443 -4.37619 0
M  V30 734 H 70.5496 3.47672 -2.68367 0
M  V30 735 H 71.1556 2.13323 -3.67931 0
M  V30 736 N 69.4707 1.49531 0.497807 0
M  V30 737 C 70.7197 1.58426 1.24837 0
M  V30 738 C 71.0327 0.277643 1.93619 0
M  V30 739 O 72.2387 0.24517 2.70391 0
M  V30 740 C 70.6947 2.79538 2.26686 0
M  V30 741 C 70.3027 4.16971 1.63828 0
M  V30 742 C 72.0467 2.97764 3.0255 0
M  V30 743 C 69.9537 5.29301 2.63807 0
M  V30 744 H 68.8837 0.58989 0.469623 0
M  V30 745 H 71.5347 1.75923 0.521857 0
M  V30 746 H 69.9167 2.55542 3.02514 0
M  V30 747 H 71.0907 4.51116 0.939711 0
M  V30 748 H 69.4057 4.04129 1.00342 0
M  V30 749 H 72.0027 3.78856 3.77323 0
M  V30 750 H 72.3457 2.08448 3.60354 0
M  V30 751 H 72.8787 3.21815 2.33838 0
M  V30 752 H 69.6177 6.20687 2.10779 0
M  V30 753 H 69.1377 4.99606 3.31894 0
M  V30 754 H 70.8167 5.58768 3.2617 0
M  V30 755 N 70.9488 -0.749086 1.3866 0
M  V30 756 C 71.8958 -1.86291 1.36251 0
M  V30 757 C 72.8658 -1.64578 0.224347 0
M  V30 758 O 74.0508 -1.86181 0.417279 0
M  V30 759 C 71.1908 -3.23644 1.19786 0
M  V30 760 C 70.3038 -3.57158 2.43027 0
M  V30 761 C 69.4388 -4.83838 2.19258 0
M  V30 762 C 68.4778 -5.10152 3.38247 0
M  V30 763 N 67.6148 -6.28029 3.13884 0
M  V30 764 H 72.4548 -1.87685 2.3147 0
M  V30 765 H 69.9918 -0.917287 1.14997 0
M  V30 766 H 71.9498 -4.0291 1.08254 0
M  V30 767 H 70.5798 -3.21566 0.282031 0
M  V30 768 H 69.6318 -2.72701 2.65214 0
M  V30 769 H 70.9438 -3.7253 3.31697 0
M  V30 770 H 70.0978 -5.71057 2.04888 0
M  V30 771 H 68.8368 -4.70614 1.2796 0
M  V30 772 H 67.8418 -4.21401 3.53131 0
M  V30 773 H 69.0668 -5.25271 4.30427 0
M  V30 774 H 67.0128 -6.1612 2.25238 0
M  V30 775 H 66.9298 -6.43922 3.96106 0
M  V30 776 H 68.1978 -7.18124 3.03179 0
M  V30 777 N 72.4269 -1.23603 -0.977757 0
M  V30 778 C 73.6749 -1.06759 -1.71601 0
M  V30 779 C 73.9959 0.395929 -1.90938 0
M  V30 780 O 73.2659 1.28356 -1.47992 0
M  V30 781 H 71.8459 -0.392062 -0.635843 0
M  V30 782 H 74.5079 -1.55362 -1.1768 0
M  V30 783 H 73.6039 -1.55763 -2.70452 0
M  V30 784 N 73.905 1.17692 -1.04816 0
M  V30 785 C 75.154 1.87192 -0.751132 0
M  V30 786 C 75.467 1.8169 0.724441 0
M  V30 787 O 76.673 2.46625 1.13527 0
M  V30 788 C 75.129 3.35857 -1.29338 0
M  V30 789 C 74.737 3.4987 -2.79812 0
M  V30 790 C 76.481 4.10709 -1.07322 0
M  V30 791 C 74.388 4.92536 -3.27356 0
M  V30 792 H 73.318 0.701162 -0.277288 0
M  V30 793 H 75.969 1.32932 -1.26496 0
M  V30 794 H 74.351 3.89631 -0.707376 0
M  V30 795 H 75.525 3.06332 -3.44235 0
M  V30 796 H 73.84 2.88433 -3.00325 0
M  V30 797 H 76.437 5.15952 -1.4035 0
M  V30 798 H 76.78 4.16299 -0.0108001 0
M  V30 799 H 77.313 3.6313 -1.62423 0
M  V30 800 H 74.052 4.92119 -4.33012 0
M  V30 801 H 73.572 5.3676 -2.67673 0
M  V30 802 H 75.251 5.61288 -3.21815 0
M  V30 803 N 75.3831 0.828654 1.34056 0
M  V30 804 C 76.3151 0.212052 2.28217 0
M  V30 805 C 77.3281 -0.601362 1.51286 0
M  V30 806 O 78.5171 -0.430104 1.73241 0
M  V30 807 C 75.6171 -0.72088 3.31144 0
M  V30 808 C 74.7901 0.0509587 4.3737 0
M  V30 809 C 73.8491 -0.803766 5.20025 0
M  V30 810 O 72.8751 -0.246667 5.68665 0
M  V30 811 N 74.0771 -2.1227 5.40298 0
M  V30 812 H 76.8421 1.02105 2.81771 0
M  V30 813 H 74.4031 0.686153 1.46641 0
M  V30 814 H 76.3951 -1.29742 3.8334 0
M  V30 815 H 74.9651 -1.43061 2.77943 0
M  V30 816 H 74.1851 0.808831 3.85813 0
M  V30 817 H 75.4731 0.582065 5.0546 0
M  V30 818 H 74.8711 -2.59898 5.02464 0
M  V30 819 H 73.4281 -2.64796 5.95589 0
M  V30 820 N 76.8612 -1.46375 0.584142 0
M  V30 821 C 77.7942 -2.27351 -0.196676 0
M  V30 822 C 78.7722 -1.35715 -0.895561 0
M  V30 823 O 79.9562 -1.65126 -0.90916 0
M  V30 824 C 77.0832 -3.13486 -1.28235 0
M  V30 825 C 76.1292 -4.20896 -0.689145 0
M  V30 826 S 76.9622 -5.33299 0.48507 0
M  V30 827 C 78.1182 -6.23 -0.601767 0
M  V30 828 H 78.3512 -2.93228 0.490395 0
M  V30 829 H 75.8842 -1.49875 0.371071 0
M  V30 830 H 77.8422 -3.63676 -1.90395 0
M  V30 831 H 76.5032 -2.4692 -1.94138 0
M  V30 832 H 75.6962 -4.80997 -1.50527 0
M  V30 833 H 75.2982 -3.73726 -0.143181 0
M  V30 834 H 77.5902 -6.60979 -1.48705 0
M  V30 835 H 78.5332 -7.0809 -0.0374799 0
M  V30 836 H 78.9412 -5.57173 -0.906557 0
M  V30 837 N 78.3393 -0.321999 -1.54275 0
M  V30 838 C 79.5673 0.283052 -2.04955 0
M  V30 839 C 79.9823 1.45904 -1.19823 0
M  V30 840 O 79.3393 1.81063 -0.228545 0
M  V30 841 C 79.3903 0.719028 -3.54277 0
M  V30 842 O 79.1113 -0.410175 -4.36176 0
M  V30 843 C 80.6123 1.38705 -4.21041 0
M  V30 844 H 77.8323 0.0584616 -0.668448 0
M  V30 845 H 80.3763 -0.467734 -1.99079 0
M  V30 846 H 78.5313 1.41979 -3.60445 0
M  V30 847 H 78.9453 -0.0669416 -5.24457 0
M  V30 848 H 80.4193 1.64306 -5.2698 0
M  V30 849 H 80.8963 2.33385 -3.72059 0
M  V30 850 H 81.5023 0.728906 -4.19007 0
M  V30 851 N 79.8174 1.5752 -0.0501392 0
M  V30 852 C 81.0454 1.96963 0.633492 0
M  V30 853 C 81.4604 0.927631 1.6444 0
M  V30 854 O 80.8174 -0.0882665 1.82286 0
M  V30 855 C 80.8684 3.36487 1.32132 0
M  V30 856 O 80.5894 4.36693 0.350894 0
M  V30 857 C 82.0904 3.90682 2.09481 0
M  V30 858 H 79.3104 0.648244 0.173266 0
M  V30 859 H 81.8544 2.0417 -0.116134 0
M  V30 860 H 80.0094 3.30434 2.02218 0
M  V30 861 H 80.4234 5.17702 0.841735 0
M  V30 862 H 81.8974 4.90591 2.5303 0
M  V30 863 H 82.3744 3.26053 2.94255 0
M  V30 864 H 82.9804 4.00069 1.44307 0
M  V30 865 N 81.2955 -0.223234 1.56011 0
M  V30 866 C 82.7115 -0.572856 1.48965 0
M  V30 867 C 82.9115 -1.87225 0.74492 0
M  V30 868 O 81.9675 -2.50899 0.283896 0
M  V30 869 C 83.2805 -0.653646 2.9351 0
M  V30 870 C 84.8285 -0.744386 3.0402 0
M  V30 871 C 85.3035 -0.856535 4.49919 0
M  V30 872 N 86.7945 -0.9208 4.53955 0
M  V30 873 C 87.5295 -1.02726 5.64123 0
M  V30 874 N 87.0255 -1.09777 6.84047 0
M  V30 875 N 88.8185 -1.06226 5.51971 0
M  V30 876 H 80.9695 0.629462 2.02858 0
M  V30 877 H 83.2325 0.220621 0.921971 0
M  V30 878 H 82.9385 0.231518 3.50937 0
M  V30 879 H 82.8125 -1.51781 3.45315 0
M  V30 880 H 85.1995 -1.61999 2.46658 0
M  V30 881 H 85.2805 0.14541 2.55386 0
M  V30 882 H 84.9245 0.0146069 5.07898 0
M  V30 883 H 84.8545 -1.76172 4.96257 0
M  V30 884 H 87.3455 -0.876694 3.6759 0
M  V30 885 H 87.6585 -1.17872 7.63758 0
M  V30 886 H 86.0035 -1.06693 6.86762 0
M  V30 887 H 89.1945 -1.00382 4.5721 0
M  V30 888 H 89.3675 -1.14177 6.37862 0
M  V30 889 N 82.7736 -1.49793 -0.48987 0
M  V30 890 C 84.1896 -1.36803 -0.822022 0
M  V30 891 C 84.3896 -0.409652 -1.97292 0
M  V30 892 O 83.4456 0.154614 -2.52026 0
M  V30 893 C 84.7586 -2.77768 -1.15175 0
M  V30 894 C 86.3066 -2.86549 -1.25931 0
M  V30 895 C 86.7816 -4.28306 -1.62228 0
M  V30 896 N 88.2726 -4.31169 -1.69256 0
M  V30 897 C 89.0076 -5.37832 -1.98807 0
M  V30 898 N 88.5036 -6.54726 -2.26507 0
M  V30 899 N 90.2966 -5.25258 -2.00152 0
M  V30 900 H 82.4476 -2.10691 0.268881 0
M  V30 901 H 84.7106 -0.946241 0.057728 0
M  V30 902 H 84.4166 -3.49648 -0.379335 0
M  V30 903 H 84.2906 -3.13836 -2.09253 0
M  V30 904 H 86.6776 -2.14899 -2.02243 0
M  V30 905 H 86.7586 -2.54049 -0.298776 0
M  V30 906 H 86.4026 -5.00486 -0.864622 0
M  V30 907 H 86.3326 -4.58279 -2.594 0
M  V30 908 H 88.8236 -3.4687 -1.49965 0
M  V30 909 H 89.1366 -7.31833 -2.48276 0
M  V30 910 H 87.4816 -6.57933 -2.23939 0
M  V30 911 H 90.6726 -4.32938 -1.77996 0
M  V30 912 H 90.8456 -6.08476 -2.22848 0
M  V30 913 N 84.2517 0.741722 -1.39055 0
M  V30 914 C 85.2147 1.83733 -1.37021 0
M  V30 915 C 86.2147 1.58542 -0.268534 0
M  V30 916 O 87.4047 1.66067 -0.526076 0
M  V30 917 C 84.5367 3.2141 -1.13617 0
M  V30 918 H 85.7297 1.86941 -2.34506 0
M  V30 919 H 83.2827 0.944676 -1.24521 0
M  V30 920 H 84.0177 3.23865 -0.167863 0
M  V30 921 H 83.8027 3.4109 -1.93391 0
M  V30 922 H 85.2927 4.01477 -1.14918 0
M  V30 923 N 85.7298 1.2412 0.971189 0
M  V30 924 C 86.6598 1.05508 2.08304 0
M  V30 925 C 87.6408 -0.0308864 1.70072 0
M  V30 926 O 88.8258 0.135521 1.93727 0
M  V30 927 C 85.9558 0.655365 3.4106 0
M  V30 928 C 84.9098 1.68971 3.93234 0
M  V30 929 C 84.2358 1.14516 5.22293 0
M  V30 930 C 85.5358 3.08487 4.21465 0
M  V30 931 H 87.2298 1.98507 2.24132 0
M  V30 932 H 84.7758 0.955821 1.07704 0
M  V30 933 H 86.7288 0.51217 4.18276 0
M  V30 934 H 85.4528 -0.31032 3.25122 0
M  V30 935 H 84.1118 1.82106 3.18171 0
M  V30 936 H 83.7598 0.170189 5.02712 0
M  V30 937 H 83.4598 1.83635 5.58168 0
M  V30 938 H 84.9838 1.01401 6.02121 0
M  V30 939 H 86.3978 2.98601 4.89398 0
M  V30 940 H 84.7948 3.74926 4.68562 0
M  V30 941 H 85.8648 3.56787 3.28376 0
M  V30 942 N 87.2079 -1.17134 1.05439 0
M  V30 943 C 88.4479 -1.89137 0.77502 0
M  V30 944 C 88.8119 -1.79345 -0.685526 0
M  V30 945 O 90.0129 -2.46188 -1.0791 0
M  V30 946 C 88.2839 -3.35003 1.2453 0
M  V30 947 S 89.8429 -4.24952 1.09367 0
M  V30 948 H 86.6609 -0.652949 0.281387 0
M  V30 949 H 89.2629 -1.4145 1.34953 0
M  V30 950 H 87.9669 -3.39666 2.30338 0
M  V30 951 H 87.4979 -3.87736 0.665166 0
M  V30 952 H 89.5129 -4.96196 0.0193397 0
M  V30 953 N 88.686 -0.835752 -1.33615 0
M  V30 954 C 89.634 -0.255238 -2.31195 0
M  V30 955 C 90.628 0.61107 -1.57995 0
M  V30 956 O 91.834 0.500979 -1.72888 0
M  V30 957 H 88.209 -0.0638085 -0.749288 0
M  V30 958 H 90.18 -1.09283 -2.77669 0
M  V30 959 C 88.929 0.55754 -3.43201 0
M  V30 960 H 88.252 -0.0997553 -3.99676 0
M  V30 961 H 89.692 0.929622 -4.13683 0
M  V30 962 C 88.151 1.73515 -2.88781 0
M  V30 963 O 88.681 2.83376 -2.84712 0
M  V30 964 N 86.887 1.55603 -2.4543 0
M  V30 965 H 86.434 0.662354 -2.48939 0
M  V30 966 H 86.392 2.34545 -2.09371 0
M  V30 967 N 90.1641 1.46063 -0.591896 0
M  V30 968 C 91.4101 2.02638 -0.0811191 0
M  V30 969 C 91.7431 1.4613 1.27905 0
M  V30 970 O 91.0181 0.629908 1.84017 0
M  V30 971 C 91.3011 3.60091 -0.0252436 0
M  V30 972 C 91.1541 4.26965 -1.41496 0
M  V30 973 C 92.4731 4.3496 0.670685 0
M  V30 974 H 89.5921 0.73635 -0.0309524 0
M  V30 975 H 92.2341 1.741 -0.760859 0
M  V30 976 H 90.3841 3.84535 0.553624 0
M  V30 977 H 92.0561 4.13756 -2.0397 0
M  V30 978 H 90.2991 3.85971 -1.98011 0
M  V30 979 H 90.9701 5.35781 -1.32825 0
M  V30 980 H 93.4461 4.15716 0.178825 0
M  V30 981 H 92.3221 5.44686 0.678837 0
M  V30 982 H 92.5831 4.06685 1.73379 0
M  V30 983 N 91.6422 0.330177 1.54103 0
M  V30 984 C 92.5892 -0.532762 2.24567 0
M  V30 985 C 93.5592 -1.10635 1.23892 0
M  V30 986 O 94.7442 -1.14546 1.5259 0
M  V30 987 C 91.8842 -1.6845 3.01195 0
M  V30 988 C 90.9972 -1.13951 4.167 0
M  V30 989 C 90.1322 -2.25746 4.80845 0
M  V30 990 C 89.1712 -1.6853 5.88442 0
M  V30 991 N 88.3082 -2.74014 6.46421 0
M  V30 992 H 93.1482 0.0746905 2.97906 0
M  V30 993 H 90.6852 0.048632 1.4702 0
M  V30 994 H 92.6432 -2.36234 3.43874 0
M  V30 995 H 91.2732 -2.26314 2.30178 0
M  V30 996 H 90.3252 -0.35301 3.78758 0
M  V30 997 H 91.6372 -0.680892 4.94131 0
M  V30 998 H 90.7912 -3.01422 5.26526 0
M  V30 999 H 89.5302 -2.74947 4.0281 0
M  V30 1000 H 88.5352 -0.913543 5.42157 0
M  V30 1001 H 89.7602 -1.20198 6.68378 0
M  V30 1002 H 87.7062 -3.22494 5.71256 0
M  V30 1003 H 87.6232 -2.32735 7.19285 0
M  V30 1004 H 88.8912 -3.49499 6.96757 0
M  V30 1005 N 93.1203 -1.57491 0.0584922 0
M  V30 1006 C 94.3683 -1.92597 -0.612436 0
M  V30 1007 C 94.6893 -0.938162 -1.70949 0
M  V30 1008 O 93.9593 0.0158301 -1.95894 0
M  V30 1009 H 92.5393 -0.710964 -0.229214 0
M  V30 1010 H 95.2013 -1.94571 0.113218 0
M  V30 1011 H 94.2973 -2.94038 -1.04633 0
M  V30 1012 N 94.5984 0.214957 -1.56127 0
M  V30 1013 C 95.5284 1.2695 -1.95974 0
M  V30 1014 C 96.5094 1.48539 -0.828868 0
M  V30 1015 O 97.6944 1.60611 -1.09168 0
M  V30 1016 C 94.8244 2.61794 -2.28214 0
M  V30 1017 C 93.7784 2.54851 -3.43853 0
M  V30 1018 C 93.1044 3.93785 -3.61715 0
M  V30 1019 C 94.4044 2.09065 -4.78632 0
M  V30 1020 H 96.0984 0.93846 -2.84312 0
M  V30 1021 H 93.6444 0.449996 -1.36788 0
M  V30 1022 H 95.5974 3.35731 -2.54682 0
M  V30 1023 H 94.3214 2.96599 -1.36736 0
M  V30 1024 H 92.9804 1.8337 -3.17444 0
M  V30 1025 H 92.6284 4.25908 -2.67602 0
M  V30 1026 H 92.3284 3.90019 -4.39498 0
M  V30 1027 H 93.8524 4.69374 -3.90539 0
M  V30 1028 H 95.2664 2.7275 -5.04262 0
M  V30 1029 H 93.6634 2.16346 -5.59745 0
M  V30 1030 H 94.7334 1.04315 -4.73547 0
M  V30 1031 N 96.0765 1.50051 0.48192 0
M  V30 1032 C 97.3015 1.64508 1.26301 0
M  V30 1033 C 97.7265 0.323851 1.85291 0
M  V30 1034 O 97.0845 -0.710969 1.66778 0
M  V30 1035 C 97.1325 2.7305 2.35533 0
M  V30 1036 O 96.2365 2.3355 3.39895 0
M  V30 1037 H 95.5775 0.549978 0.372048 0
M  V30 1038 H 98.1075 1.9636 0.574786 0
M  V30 1039 H 98.1175 2.95799 2.8101 0
M  V30 1040 H 96.7925 3.68946 1.91967 0
M  V30 1041 H 95.3695 2.21205 3.00204 0
M  V30 1042 N 97.5546 -0.734337 1.39446 0
M  V30 1043 C 98.4646 -1.87879 1.40495 0
M  V30 1044 C 99.4806 -1.714 0.299672 0
M  V30 1045 O 100.657 -1.93991 0.541249 0
M  V30 1046 C 97.7216 -3.23477 1.24754 0
M  V30 1047 C 96.7826 -3.52344 2.45259 0
M  V30 1048 C 96.0156 -4.81473 2.30259 0
M  V30 1049 O 96.2386 -5.55237 1.30643 0
M  V30 1050 O 95.1726 -5.10254 3.19256 0
M  V30 1051 H 98.9986 -1.89949 2.36966 0
M  V30 1052 H 96.5836 -0.882243 1.20569 0
M  V30 1053 H 98.4656 -4.04509 1.18111 0
M  V30 1054 H 97.1406 -3.22176 0.313781 0
M  V30 1055 H 96.0476 -2.71396 2.57478 0
M  V30 1056 H 97.3806 -3.58426 3.37331 0
M  V30 1057 N 99.0327 -1.24633 -0.964593 0
M  V30 1058 C 99.9957 -1.0424 -2.04124 0
M  V30 1059 C 100.996 0.00137563 -1.608 0
M  V30 1060 O 102.186 -0.239883 -1.7254 0
M  V30 1061 C 99.3177 -0.580588 -3.3592 0
M  V30 1062 H 100.511 -1.99803 -2.23649 0
M  V30 1063 H 98.0637 -1.06899 -1.14027 0
M  V30 1064 H 98.7987 0.3781 -3.22088 0
M  V30 1065 H 98.5837 -1.33398 -3.6871 0
M  V30 1066 H 100.074 -0.459034 -4.15069 0
M  V30 1067 N 100.511 1.16574 -1.06058 0
M  V30 1068 C 101.458 2.20883 -0.669263 0
M  V30 1069 C 102.428 1.62729 0.332918 0
M  V30 1070 O 103.613 1.895 0.222346 0
M  V30 1071 C 100.753 3.45049 -0.0593572 0
M  V30 1072 C 99.8658 4.17458 -1.11143 0
M  V30 1073 C 99.0008 5.29135 -0.467916 0
M  V30 1074 C 98.0398 5.93343 -1.50369 0
M  V30 1075 N 97.1768 6.96516 -0.883706 0
M  V30 1076 H 102.017 2.53709 -1.5632 0
M  V30 1077 H 99.5538 1.24616 -0.781625 0
M  V30 1078 H 101.512 4.16033 0.311771 0
M  V30 1079 H 100.142 3.12781 0.797992 0
M  V30 1080 H 99.1938 3.45101 -1.60029 0
M  V30 1081 H 100.506 4.61307 -1.89731 0
M  V30 1082 H 99.6598 6.06684 -0.0436871 0
M  V30 1083 H 98.3988 4.86443 0.349864 0
M  V30 1084 H 97.4038 5.14517 -1.93784 0
M  V30 1085 H 98.6288 6.38114 -2.32352 0
M  V30 1086 H 96.5748 6.55943 -0.086595 0
M  V30 1087 H 96.4918 7.38723 -1.607 0
M  V30 1088 H 97.7598 7.77993 -0.484543 0
M  V30 1089 N 101.989 0.842826 1.3317 0
M  V30 1090 C 103.235 0.441099 1.97945 0
M  V30 1091 C 103.568 -0.998024 1.66593 0
M  V30 1092 O 102.843 -1.69839 0.947898 0
M  V30 1093 C 103.126 0.666841 3.53872 0
M  V30 1094 C 102.979 2.15352 3.94897 0
M  V30 1095 C 104.298 0.115544 4.39948 0
M  V30 1096 H 101.417 0.161739 0.719034 0
M  V30 1097 H 104.059 1.05907 1.57746 0
M  V30 1098 H 102.209 0.140828 3.88245 0
M  V30 1099 H 103.881 2.7447 3.70761 0
M  V30 1100 H 102.124 2.63653 3.44484 0
M  V30 1101 H 102.795 2.26221 5.03516 0
M  V30 1102 H 105.271 0.565213 4.12243 0
M  V30 1103 H 104.147 0.303152 5.48062 0
M  V30 1104 H 104.408 -0.980935 4.3108 0
M  V30 1105 N 103.467 -1.45747 0.599634 0
M  V30 1106 C 104.744 -1.95585 0.0240846 0
M  V30 1107 C 105.124 -1.54217 -1.44154 0
M  V30 1108 O 104.472 -0.800903 -2.14004 0
M  V30 1109 C 104.682 -3.48344 0.21385 0
M  V30 1110 C 106.03 -4.24504 0.0904902 0
M  V30 1111 O 107.054 -3.55911 0.143558 0
M  V30 1112 O 105.913 -5.46491 -0.0310766 0
M  V30 1113 H 103.007 -0.82602 -0.0402478 0
M  V30 1114 H 105.553 -1.55951 0.669139 0
M  V30 1115 H 104.325 -3.71397 1.23206 0
M  V30 1116 H 103.948 -3.9485 -0.466842 0
M  V30 1117 N 104.945 -0.338344 -1.53925 0
M  V30 1118 C 105.892 0.520845 -2.24846 0
M  V30 1119 C 106.862 1.09976 -1.24477 0
M  V30 1120 O 108.047 1.13735 -1.53196 0
M  V30 1121 C 105.187 1.6685 -3.02084 0
M  V30 1122 C 104.3 1.11739 -4.17299 0
M  V30 1123 C 103.435 2.23193 -4.82036 0
M  V30 1124 C 102.474 1.65407 -5.89328 0
M  V30 1125 N 101.611 2.70582 -6.47866 0
M  V30 1126 H 106.451 -0.0904881 -2.97863 0
M  V30 1127 H 103.988 -0.0564282 -1.46992 0
M  V30 1128 H 105.946 2.34407 -3.45122 0
M  V30 1129 H 104.576 2.2509 -2.31375 0
M  V30 1130 H 103.628 0.332919 -3.7894 0
M  V30 1131 H 104.94 0.654677 -4.94485 0
M  V30 1132 H 104.094 2.98626 -5.28117 0
M  V30 1133 H 102.833 2.72807 -4.04262 0
M  V30 1134 H 101.838 0.884779 -5.42634 0
M  V30 1135 H 103.063 1.16652 -6.69006 0
M  V30 1136 H 101.009 3.1946 -5.72959 0
M  V30 1137 H 100.926 2.28917 -7.20509 0
M  V30 1138 H 102.194 3.45799 -6.98601 0
M  V30 1139 N 106.423 1.57458 -0.0668435 0
M  V30 1140 C 107.672 1.92477 0.602947 0
M  V30 1141 C 107.985 0.948419 1.71068 0
M  V30 1142 O 109.191 1.19124 2.43971 0
M  V30 1143 C 107.647 3.41903 1.12383 0
M  V30 1144 C 107.255 4.47975 0.04737 0
M  V30 1145 C 108.999 3.85931 1.76797 0
M  V30 1146 C 106.906 5.88529 0.582022 0
M  V30 1147 H 105.836 0.718387 0.22899 0
M  V30 1148 H 108.487 1.82978 -0.138276 0
M  V30 1149 H 106.869 3.46459 1.91787 0
M  V30 1150 H 108.043 4.55029 -0.726978 0
M  V30 1151 H 106.358 4.13384 -0.500243 0
M  V30 1152 H 108.955 4.88322 2.17821 0
M  V30 1153 H 109.298 3.23029 2.62599 0
M  V30 1154 H 109.831 3.83958 1.04024 0
M  V30 1155 H 106.57 6.55065 -0.238721 0
M  V30 1156 H 106.09 5.85004 1.324 0
M  V30 1157 H 107.769 6.38258 1.05999 0
M  V30 1158 N 107.901 -0.206675 1.56239 0
M  V30 1159 C 108.848 -1.25617 1.93621 0
M  V30 1160 C 109.818 -1.45824 0.795274 0
M  V30 1161 O 111.003 -1.59148 1.05245 0
M  V30 1162 C 108.143 -2.59839 2.27107 0
M  V30 1163 C 107.256 -2.47308 3.54207 0
M  V30 1164 C 106.391 -3.74155 3.7707 0
M  V30 1165 C 105.43 -3.56407 4.97635 0
M  V30 1166 N 104.567 -4.75238 5.1681 0
M  V30 1167 H 109.407 -0.930383 2.83104 0
M  V30 1168 H 106.944 -0.448065 1.4011 0
M  V30 1169 H 108.902 -3.38021 2.44535 0
M  V30 1170 H 107.532 -2.90485 1.40778 0
M  V30 1171 H 106.584 -1.60483 3.4489 0
M  V30 1172 H 107.896 -2.30122 4.42544 0
M  V30 1173 H 107.05 -4.60778 3.94675 0
M  V30 1174 H 105.789 -3.94282 2.87042 0
M  V30 1175 H 104.794 -2.68168 4.79964 0
M  V30 1176 H 106.019 -3.37736 5.89161 0
M  V30 1177 H 103.965 -4.95651 4.29728 0
M  V30 1178 H 103.882 -4.60835 5.99306 0
M  V30 1179 H 105.15 -5.63246 5.38864 0
M  V30 1180 N 109.379 -1.50304 -0.473955 0
M  V30 1181 C 110.289 -1.7174 -1.5982 0
M  V30 1182 C 111.305 -0.600457 -1.63311 0
M  V30 1183 O 112.481 -0.878441 -1.81233 0
M  V30 1184 C 109.546 -1.80427 -2.96052 0
M  V30 1185 C 108.607 -3.04148 -3.02972 0
M  V30 1186 C 107.84 -3.12411 -4.32706 0
M  V30 1187 O 108.063 -2.27542 -5.23049 0
M  V30 1188 O 106.997 -4.05113 -4.45159 0
M  V30 1189 H 110.823 -2.67035 -1.44657 0
M  V30 1190 H 108.408 -1.34366 -0.653148 0
M  V30 1191 H 110.29 -1.88338 -3.7697 0
M  V30 1192 H 108.965 -0.883156 -3.11419 0
M  V30 1193 H 107.872 -3.0174 -2.21142 0
M  V30 1194 H 109.205 -3.95829 -2.92541 0
M  V30 1195 N 110.857 0.726932 -1.39834 0
M  V30 1196 C 111.82 1.82269 -1.38962 0
M  V30 1197 C 112.82 1.58248 -0.285334 0
M  V30 1198 O 114.01 1.65499 -0.54366 0
M  V30 1199 C 111.142 3.20186 -1.17019 0
M  V30 1200 H 112.335 1.84443 -2.36476 0
M  V30 1201 H 109.888 0.931416 -1.25516 0
M  V30 1202 H 110.623 3.23669 -0.202204 0
M  V30 1203 H 110.408 3.3902 -1.96998 0
M  V30 1204 H 111.898 4.00235 -1.1917 0
M  V30 1205 N 112.336 1.25143 0.95797 0
M  V30 1206 C 113.299 1.05321 2.03569 0
M  V30 1207 C 114.299 0.007152 1.60798 0
M  V30 1208 O 115.489 0.24903 1.72411 0
M  V30 1209 C 112.621 0.598394 3.35607 0
M  V30 1210 H 113.814 2.00986 2.22586 0
M  V30 1211 H 111.367 1.07502 1.13459 0
M  V30 1212 H 112.102 -0.361014 3.22284 0
M  V30 1213 H 111.887 1.35351 3.67998 0
M  V30 1214 H 113.377 0.48104 4.1482 0
M  V30 1215 N 113.814 -1.1601 1.06675 0
M  V30 1216 C 114.762 -2.22586 0.675157 0
M  V30 1217 C 115.756 -1.66525 -0.310766 0
M  V30 1218 O 116.962 -1.79145 -0.175215 0
M  V30 1219 H 113.337 -0.724855 0.200223 0
M  V30 1220 H 115.308 -2.52899 1.58381 0
M  V30 1221 C 114.057 -3.47604 0.0817162 0
M  V30 1222 H 113.38 -3.91058 0.831484 0
M  V30 1223 H 114.82 -4.23718 -0.154708 0
M  V30 1224 C 113.279 -3.15718 -1.17576 0
M  V30 1225 O 113.809 -3.31878 -2.26318 0
M  V30 1226 N 112.015 -2.69816 -1.07923 0
M  V30 1227 H 111.562 -2.56866 -0.194293 0
M  V30 1228 H 111.52 -2.48855 -1.92141 0
M  V30 1229 N 115.292 -0.849877 -1.32721 0
M  V30 1230 C 116.239 -0.289033 -2.28983 0
M  V30 1231 C 117.209 0.601324 -1.54833 0
M  V30 1232 O 118.394 0.537253 -1.8308 0
M  V30 1233 C 115.534 0.520623 -3.4115 0
M  V30 1234 C 114.647 -0.394989 -4.3019 0
M  V30 1235 C 113.782 0.426834 -5.29482 0
M  V30 1236 C 112.821 -0.486476 -6.10164 0
M  V30 1237 N 111.958 0.297879 -7.01468 0
M  V30 1238 H 116.798 -1.11519 -2.76347 0
M  V30 1239 H 114.335 -0.56138 -1.35967 0
M  V30 1240 H 116.293 1.00563 -4.04899 0
M  V30 1241 H 114.923 1.31165 -2.9495 0
M  V30 1242 H 113.975 -0.99836 -3.67065 0
M  V30 1243 H 115.287 -1.09612 -4.86607 0
M  V30 1244 H 114.441 0.975205 -5.98811 0
M  V30 1245 H 113.18 1.16136 -4.73671 0
M  V30 1246 H 112.185 -1.04677 -5.39743 0
M  V30 1247 H 113.41 -1.21953 -6.6806 0
M  V30 1248 H 111.356 1.01558 -6.48091 0
M  V30 1249 H 111.273 -0.344318 -7.55216 0
M  V30 1250 H 112.541 0.828131 -7.75089 0
M  V30 1251 N 116.77 1.45427 -0.607355 0
M  V30 1252 C 117.7 2.3329 0.0989352 0
M  V30 1253 C 118.681 1.46816 0.859007 0
M  V30 1254 O 119.866 1.75588 0.829604 0
M  V30 1255 C 116.996 3.29518 1.09705 0
M  V30 1256 C 115.95 4.25626 0.450206 0
M  V30 1257 C 115.276 5.11542 1.55655 0
M  V30 1258 C 116.576 5.18505 -0.628455 0
M  V30 1259 H 118.27 2.92595 -0.634716 0
M  V30 1260 H 115.816 1.40696 -0.306681 0
M  V30 1261 H 117.769 3.89855 1.59971 0
M  V30 1262 H 116.493 2.68372 1.86129 0
M  V30 1263 H 115.152 3.66586 -0.0315886 0
M  V30 1264 H 114.8 4.46765 2.31107 0
M  V30 1265 H 114.5 5.76647 1.12925 0
M  V30 1266 H 116.024 5.74748 2.06148 0
M  V30 1267 H 117.438 5.72916 -0.209877 0
M  V30 1268 H 115.835 5.92085 -0.977489 0
M  V30 1269 H 116.905 4.60948 -1.50514 0
M  V30 1270 N 118.248 0.346503 1.53744 0
M  V30 1271 C 119.497 -0.250122 2.00143 0
M  V30 1272 C 119.81 -1.51418 1.23822 0
M  V30 1273 O 121.016 -2.18823 1.60713 0
M  V30 1274 C 119.472 -0.496252 3.56462 0
M  V30 1275 C 119.08 0.752077 4.41642 0
M  V30 1276 C 120.824 -1.05157 4.11269 0
M  V30 1277 C 118.731 0.476583 5.89477 0
M  V30 1278 H 117.661 -0.0972409 0.747703 0
M  V30 1279 H 120.312 0.46229 1.77581 0
M  V30 1280 H 118.694 -1.26944 3.75102 0
M  V30 1281 H 119.868 1.5266 4.34778 0
M  V30 1282 H 118.183 1.22925 3.97842 0
M  V30 1283 H 120.78 -1.27269 5.19333 0
M  V30 1284 H 121.123 -2.00799 3.64672 0
M  V30 1285 H 121.656 -0.339019 3.96353 0
M  V30 1286 H 118.395 1.4028 6.40314 0
M  V30 1287 H 117.915 -0.259794 5.99237 0
M  V30 1288 H 119.594 0.0949315 6.4693 0
M  V30 1289 N 119.726 -1.57421 0.075193 0
M  V30 1290 C 120.636 -2.1642 -0.905511 0
M  V30 1291 C 121.652 -1.12828 -1.32461 0
M  V30 1292 O 122.828 -1.45109 -1.39661 0
M  V30 1293 C 119.893 -2.71693 -2.15369 0
M  V30 1294 C 118.954 -3.90171 -1.79068 0
M  V30 1295 C 118.187 -4.42798 -2.97936 0
M  V30 1296 O 118.41 -3.94416 -4.12058 0
M  V30 1297 O 117.344 -5.34085 -2.77555 0
M  V30 1298 H 121.17 -3.00588 -0.433626 0
M  V30 1299 H 118.755 -1.48664 -0.148067 0
M  V30 1300 H 120.637 -3.07104 -2.88557 0
M  V30 1301 H 119.312 -1.90582 -2.61649 0
M  V30 1302 H 118.219 -3.59606 -1.03122 0
M  V30 1303 H 119.552 -4.72584 -1.37569 0
M  V30 1304 N 121.204 0.198386 -1.56346 0
M  V30 1305 C 122.615 0.763358 -1.70381 0
M  V30 1306 C 122.966 1.83995 -0.681203 0
M  V30 1307 O 122.091 2.15785 0.16305 0
M  V30 1308 C 122.686 1.39143 -3.08909 0
M  V30 1309 C 121.245 1.90352 -3.2472 0
M  V30 1310 C 120.392 0.772233 -2.6633 0
M  V30 1311 H 123.343 -0.0266377 -1.58678 0
M  V30 1312 H 123.364 2.26076 -3.06055 0
M  V30 1313 H 122.876 0.607638 -3.83314 0
M  V30 1314 H 120.977 2.71461 -2.55225 0
M  V30 1315 H 121.09 2.06757 -4.3219 0
M  V30 1316 H 119.454 1.18566 -2.2542 0
M  V30 1317 H 120.237 0.00073556 -3.433 0
M  V30 1318 N 122.682 1.50554 0.465978 0
M  V30 1319 C 123.93 1.61479 1.21528 0
M  V30 1320 C 124.251 0.319596 1.92363 0
M  V30 1321 O 123.521 -0.663194 1.84333 0
M  V30 1322 H 122.101 0.595055 0.451573 0
M  V30 1323 H 124.763 1.87355 0.53704 0
M  V30 1324 H 123.859 2.42846 1.96042 0
M  V30 1325 N 124.16 -0.719506 1.40217 0
M  V30 1326 C 125.407 -1.47933 1.38283 0
M  V30 1327 C 125.735 -1.94493 -0.0161536 0
M  V30 1328 O 124.99 -1.68224 -0.999956 0
M  V30 1329 C 125.289 -2.72271 2.31524 0
M  V30 1330 C 124.955 -2.44496 3.78857 0
M  V30 1331 C 123.617 -2.36631 4.18998 0
M  V30 1332 C 125.969 -2.21104 4.71977 0
M  V30 1333 C 123.297 -2.03437 5.503 0
M  V30 1334 C 125.649 -1.89423 6.03574 0
M  V30 1335 C 124.313 -1.80038 6.42762 0
M  V30 1336 H 123.583 -0.541325 0.506012 0
M  V30 1337 H 126.23 -0.824502 1.72842 0
M  V30 1338 H 124.535 -3.42572 1.90137 0
M  V30 1339 H 126.232 -3.30348 2.27313 0
M  V30 1340 H 122.822 -2.51503 3.47051 0
M  V30 1341 H 127.006 -2.26139 4.41786 0
M  V30 1342 H 122.262 -1.94705 5.79569 0
M  V30 1343 H 126.436 -1.70336 6.75247 0
M  V30 1344 H 124.063 -1.54083 7.44421 0
M  V30 1345 N 125.638 -1.25649 -0.95132 0
M  V30 1346 C 126.568 -1.08808 -2.06599 0
M  V30 1347 C 127.549 0.00382547 -1.701 0
M  V30 1348 O 128.734 -0.166325 -1.93486 0
M  V30 1349 C 125.864 -0.709542 -3.39975 0
M  V30 1350 C 124.818 -1.75206 -3.90496 0
M  V30 1351 C 124.144 -1.22811 -5.20405 0
M  V30 1352 C 125.444 -3.15153 -4.16504 0
M  V30 1353 H 127.138 -2.02048 -2.20946 0
M  V30 1354 H 124.684 -0.972835 -1.06169 0
M  V30 1355 H 126.637 -0.578649 -4.17408 0
M  V30 1356 H 125.361 0.258556 -3.25575 0
M  V30 1357 H 124.02 -1.87145 -3.15234 0
M  V30 1358 H 123.668 -0.250145 -5.02378 0
M  V30 1359 H 123.368 -1.92492 -5.55176 0
M  V30 1360 H 124.892 -1.10968 -6.00432 0
M  V30 1361 H 126.306 -3.06349 -4.84586 0
M  V30 1362 H 124.703 -3.82333 -4.62538 0
M  V30 1363 H 125.773 -3.61966 -3.22658 0
M  V30 1364 N 127.117 1.15442 -1.07289 0
M  V30 1365 C 128.345 1.90096 -0.81676 0
M  V30 1366 C 128.76 1.7798 0.629966 0
M  V30 1367 O 128.117 1.1313 1.43206 0
M  V30 1368 C 128.168 3.40466 -1.21512 0
M  V30 1369 O 127.889 3.52232 -2.60508 0
M  V30 1370 C 129.39 4.32145 -0.988198 0
M  V30 1371 H 126.61 0.602495 -0.295366 0
M  V30 1372 H 129.154 1.4627 -1.42918 0
M  V30 1373 H 127.309 3.81958 -0.647039 0
M  V30 1374 H 127.723 4.45549 -2.76742 0
M  V30 1375 H 129.197 5.36072 -1.31645 0
M  V30 1376 H 129.674 4.39135 0.0755063 0
M  V30 1377 H 130.28 3.96395 -1.54115 0
M  V30 1378 N 128.595 0.856903 1.32268 0
M  V30 1379 C 129.558 0.308171 2.27119 0
M  V30 1380 C 130.558 -0.533421 1.51695 0
M  V30 1381 O 131.748 -0.344607 1.70757 0
M  V30 1382 C 128.88 -0.563757 3.36206 0
M  V30 1383 H 130.073 1.14535 2.77167 0
M  V30 1384 H 127.626 0.631421 1.42978 0
M  V30 1385 H 128.361 -1.42266 2.91429 0
M  V30 1386 H 128.146 0.0386749 3.92081 0
M  V30 1387 H 129.636 -0.940386 4.06874 0
M  V30 1388 N 130.073 -1.45103 0.615059 0
M  V30 1389 C 131.32 -2.02183 0.113179 0
M  V30 1390 C 131.648 -1.48249 -1.25906 0
M  V30 1391 O 130.903 -0.650265 -1.84581 0
M  V30 1392 C 131.202 -3.57386 0.0318797 0
M  V30 1393 C 130.868 -4.30505 1.34077 0
M  V30 1394 C 129.53 -4.50197 1.69929 0
M  V30 1395 C 131.882 -4.72238 2.20546 0
M  V30 1396 C 129.21 -5.08881 2.91988 0
M  V30 1397 C 131.562 -5.32272 3.41861 0
M  V30 1398 C 130.226 -5.50187 3.77956 0
M  V30 1399 H 129.496 -0.739842 0.0414151 0
M  V30 1400 H 132.143 -1.74073 0.798168 0
M  V30 1401 H 130.448 -3.84817 -0.736409 0
M  V30 1402 H 132.145 -3.99264 -0.372712 0
M  V30 1403 H 128.735 -4.15496 1.05173 0
M  V30 1404 H 132.919 -4.56751 1.94146 0
M  V30 1405 H 128.175 -5.20939 3.2005 0
M  V30 1406 H 132.349 -5.63563 4.09109 0
M  V30 1407 H 129.976 -5.95427 4.72622 0
M  V30 1408 N 131.551 -0.354651 -1.53558 0
M  V30 1409 C 132.461 0.50515 -2.29097 0
M  V30 1410 C 133.477 1.10223 -1.34636 0
M  V30 1411 O 134.653 1.11553 -1.67684 0
M  V30 1412 C 131.718 1.63479 -3.05738 0
M  V30 1413 C 130.779 1.06636 -4.15845 0
M  V30 1414 C 130.012 2.14217 -4.88822 0
M  V30 1415 O 130.235 3.35137 -4.61562 0
M  V30 1416 O 129.169 1.77887 -5.75013 0
M  V30 1417 H 132.995 -0.109237 -3.03503 0
M  V30 1418 H 130.58 -0.119357 -1.48922 0
M  V30 1419 H 132.462 2.2918 -3.5363 0
M  V30 1420 H 131.137 2.23478 -2.34178 0
M  V30 1421 H 130.044 0.373565 -3.7223 0
M  V30 1422 H 131.377 0.511081 -4.89539 0
M  V30 1423 N 133.029 1.57378 -0.0835403 0
M  V30 1424 C 134.259 1.97975 0.590713 0
M  V30 1425 C 134.667 0.961083 1.62972 0
M  V30 1426 O 134.01 -0.0590879 1.83605 0
M  V30 1427 C 134.072 3.34915 1.3066 0
M  V30 1428 C 133.736 4.55069 0.419698 0
M  V30 1429 C 134.733 5.18868 -0.32749 0
M  V30 1430 C 132.418 5.0114 0.341137 0
M  V30 1431 C 134.412 6.27098 -1.14134 0
M  V30 1432 C 132.099 6.0924 -0.476374 0
M  V30 1433 C 133.097 6.72083 -1.21627 0
M  V30 1434 O 132.785 7.781 -2.02028 0
M  V30 1435 H 132.517 0.655818 0.163947 0
M  V30 1436 H 135.071 2.04807 -0.156021 0
M  V30 1437 H 133.301 3.24733 2.09966 0
M  V30 1438 H 134.99 3.60037 1.87424 0
M  V30 1439 H 135.756 4.84211 -0.276459 0
M  V30 1440 H 131.635 4.51996 0.90668 0
M  V30 1441 H 135.179 6.7608 -1.71935 0
M  V30 1442 H 131.076 6.43329 -0.528927 0
M  V30 1443 H 131.844 7.95034 -1.94586 0
M  V30 1444 N 134.507 -0.190092 1.56449 0
M  V30 1445 C 135.732 -0.929864 1.85387 0
M  V30 1446 C 136.157 -1.7585 0.667704 0
M  V30 1447 O 135.515 -1.77198 -0.383459 0
M  V30 1448 C 135.563 -1.79773 3.12593 0
M  V30 1449 O 134.667 -2.89713 2.93496 0
M  V30 1450 H 134.008 -0.261574 0.610307 0
M  V30 1451 H 136.538 -0.193896 2.03679 0
M  V30 1452 H 136.548 -2.20139 3.43515 0
M  V30 1453 H 135.223 -1.18892 3.98544 0
M  V30 1454 H 133.8 -2.53065 2.73884 0
M  V30 1455 N 135.985 -1.50799 -0.457987 0
M  V30 1456 C 136.895 -1.73426 -1.57989 0
M  V30 1457 C 137.911 -0.617745 -1.62665 0
M  V30 1458 O 139.087 -0.897614 -1.80291 0
M  V30 1459 C 136.152 -1.83557 -2.94122 0
M  V30 1460 C 135.213 -3.07345 -2.99729 0
M  V30 1461 C 134.446 -3.16983 -4.29368 0
M  V30 1462 O 134.669 -2.33077 -5.20607 0
M  V30 1463 O 133.603 -4.09812 -4.40837 0
M  V30 1464 H 137.429 -2.68555 -1.41817 0
M  V30 1465 H 135.014 -1.35052 -0.638859 0
M  V30 1466 H 136.896 -1.92326 -3.74952 0
M  V30 1467 H 135.571 -0.916137 -3.10465 0
M  V30 1468 H 134.478 -3.04068 -2.1793 0
M  V30 1469 H 135.811 -3.9891 -2.88326 0
M  V30 1470 N 137.463 0.71206 -1.40597 0
M  V30 1471 C 138.41 1.82613 -1.41142 0
M  V30 1472 C 139.38 1.63925 -0.267903 0
M  V30 1473 O 140.565 1.85009 -0.466495 0
M  V30 1474 C 137.705 3.20354 -1.28324 0
M  V30 1475 C 136.818 3.50589 -2.52411 0
M  V30 1476 C 135.953 4.77855 -2.32009 0
M  V30 1477 C 134.992 5.01005 -3.51654 0
M  V30 1478 N 134.129 6.19487 -3.30425 0
M  V30 1479 H 138.969 1.81482 -2.36365 0
M  V30 1480 H 136.506 0.886475 -1.17388 0
M  V30 1481 H 138.464 3.99899 -1.18899 0
M  V30 1482 H 137.094 3.20705 -0.367189 0
M  V30 1483 H 136.146 2.65573 -2.72351 0
M  V30 1484 H 137.458 3.63604 -3.41458 0
M  V30 1485 H 136.612 5.65424 -2.19956 0
M  V30 1486 H 135.351 4.67056 -1.40392 0
M  V30 1487 H 134.356 4.1189 -3.64179 0
M  V30 1488 H 135.581 5.13674 -4.44202 0
M  V30 1489 H 133.527 6.09932 -2.41494 0
M  V30 1490 H 133.444 6.33194 -4.13039 0
M  V30 1491 H 134.712 7.09834 -3.22113 0
M  V30 1492 N 138.941 1.26152 0.944643 0
M  V30 1493 C 140.357 1.03189 1.21754 0
M  V30 1494 C 140.557 -0.245112 2.00004 0
M  V30 1495 O 139.613 -0.955176 2.33736 0
M  V30 1496 C 140.926 2.26119 1.98219 0
M  V30 1497 C 142.474 2.30984 2.11224 0
M  V30 1498 C 142.949 3.53597 2.91089 0
M  V30 1499 N 144.44 3.54053 2.98664 0
M  V30 1500 C 145.175 4.45593 3.60881 0
M  V30 1501 N 144.671 5.47416 4.24626 0
M  V30 1502 N 146.464 4.33252 3.58119 0
M  V30 1503 H 138.615 2.08177 0.421437 0
M  V30 1504 H 140.878 0.914723 0.248969 0
M  V30 1505 H 140.584 3.18984 1.48128 0
M  V30 1506 H 140.458 2.3009 2.98895 0
M  V30 1507 H 142.845 1.38635 2.60508 0
M  V30 1508 H 142.926 2.31026 1.09821 0
M  V30 1509 H 142.57 4.46273 2.42493 0
M  V30 1510 H 142.5 3.50802 3.92741 0
M  V30 1511 H 144.991 2.80403 2.53343 0
M  V30 1512 H 145.304 6.13459 4.69987 0
M  V30 1513 H 143.649 5.51278 4.23223 0
M  V30 1514 H 146.84 3.52924 3.0751 0
M  V30 1515 H 147.013 5.04786 4.06319 0
M  V30 1516 N 140.419 -1.14872 1.07899 0
M  V30 1517 C 141.366 -2.19791 0.704319 0
M  V30 1518 C 142.336 -1.63238 -0.306987 0
M  V30 1519 O 143.521 -1.8983 -0.192171 0
M  V30 1520 C 140.661 -3.44911 0.114244 0
M  V30 1521 C 139.774 -4.15637 1.1777 0
M  V30 1522 C 138.909 -5.28324 0.552037 0
M  V30 1523 C 137.948 -5.90875 1.59789 0
M  V30 1524 N 137.085 -6.95022 0.994404 0
M  V30 1525 H 141.925 -2.5119 1.60336 0
M  V30 1526 H 139.462 -1.23356 0.801352 0
M  V30 1527 H 141.42 -4.16477 -0.245544 0
M  V30 1528 H 140.05 -3.14011 -0.74813 0
M  V30 1529 H 139.102 -3.42512 1.65499 0
M  V30 1530 H 140.414 -4.5823 1.97046 0
M  V30 1531 H 139.568 -6.06538 0.1402 0
M  V30 1532 H 138.307 -4.86939 -0.272431 0
M  V30 1533 H 137.312 -5.11369 2.01945 0
M  V30 1534 H 138.537 -6.34337 2.42474 0
M  V30 1535 H 136.483 -6.55722 0.190939 0
M  V30 1536 H 136.4 -7.36073 1.72432 0
M  V30 1537 H 137.668 -7.77123 0.608253 0
M  V30 1538 N 141.898 -0.863906 -1.31812 0
M  V30 1539 C 142.831 -0.259963 -2.26714 0
M  V30 1540 C 143.809 0.607392 -1.50829 0
M  V30 1541 O 144.993 0.562155 -1.79922 0
M  V30 1542 C 142.12 0.632456 -3.32743 0
M  V30 1543 C 141.166 -0.162743 -4.26189 0
M  V30 1544 S 141.999 -1.53726 -5.12961 0
M  V30 1545 C 143.155 -0.650803 -6.22507 0
M  V30 1546 H 143.388 -1.06445 -2.77591 0
M  V30 1547 H 140.921 -0.662071 -1.39485 0
M  V30 1548 H 142.879 1.14167 -3.94305 0
M  V30 1549 H 141.54 1.41083 -2.80632 0
M  V30 1550 H 140.733 0.517366 -5.01338 0
M  V30 1551 H 140.335 -0.60385 -3.69093 0
M  V30 1552 H 142.627 0.141134 -6.77353 0
M  V30 1553 H 143.57 -1.37322 -6.94657 0
M  V30 1554 H 143.978 -0.221041 -5.64067 0
M  V30 1555 N 143.376 1.44774 -0.622745 0
M  V30 1556 C 144.622 2.0242 -0.124083 0
M  V30 1557 C 144.955 1.4881 1.24777 0
M  V30 1558 O 144.23 0.668799 1.8264 0
M  V30 1559 C 144.513 3.59957 -0.101619 0
M  V30 1560 C 144.366 4.23867 -1.50521 0
M  V30 1561 C 145.685 4.36284 0.578272 0
M  V30 1562 H 142.804 0.735528 -0.0465645 0
M  V30 1563 H 145.446 1.72447 -0.797617 0
M  V30 1564 H 143.596 3.85623 0.471934 0
M  V30 1565 H 145.268 4.09336 -2.12701 0
M  V30 1566 H 143.511 3.81684 -2.06154 0
M  V30 1567 H 144.182 5.32843 -1.4416 0
M  V30 1568 H 146.658 4.16001 0.0906057 0
M  V30 1569 H 145.534 5.46004 0.563149 0
M  V30 1570 H 145.795 4.10271 1.64713 0
M  V30 1571 N 144.854 0.36279 1.53368 0
M  V30 1572 C 146.101 -0.227776 2.01215 0
M  V30 1573 C 146.429 -1.49003 1.25014 0
M  V30 1574 O 145.684 -1.92876 0.331236 0
M  V30 1575 C 145.983 -0.568417 3.52851 0
M  V30 1576 C 145.649 0.59918 4.46901 0
M  V30 1577 C 144.311 0.919559 4.72332 0
M  V30 1578 C 146.663 1.38156 5.02556 0
M  V30 1579 C 143.991 2.02434 5.5067 0
M  V30 1580 C 146.343 2.47674 5.821 0
M  V30 1581 C 145.007 2.8025 6.05819 0
M  V30 1582 H 144.277 -0.083349 0.736297 0
M  V30 1583 H 146.924 0.494677 1.85001 0
M  V30 1584 H 145.229 -1.37185 3.66998 0
M  V30 1585 H 146.926 -1.03756 3.87344 0
M  V30 1586 H 143.516 0.339437 4.27254 0
M  V30 1587 H 147.7 1.14729 4.82857 0
M  V30 1588 H 142.956 2.28075 5.67267 0
M  V30 1589 H 147.13 3.08716 6.24234 0
M  V30 1590 H 144.757 3.65979 6.66306 0
M  V30 1591 N 146.332 -1.57332 0.0918853 0
M  V30 1592 C 147.282 -2.10385 -0.87876 0
M  V30 1593 C 148.266 -1.01814 -1.24591 0
M  V30 1594 O 149.458 -1.28093 -1.22152 0
M  V30 1595 C 146.587 -2.68517 -2.13901 0
M  V30 1596 C 145.673 -3.84126 -1.79744 0
M  V30 1597 N 146.064 -4.92288 -1.1613 0
M  V30 1598 C 144.362 -3.93801 -2.09373 0
M  V30 1599 C 145.063 -5.7295 -1.00513 0
M  V30 1600 N 144.039 -5.21876 -1.5214 0
M  V30 1601 H 147.841 -2.91395 -0.38293 0
M  V30 1602 H 145.355 -1.62017 -0.111423 0
M  V30 1603 H 147.352 -3.04852 -2.84378 0
M  V30 1604 H 146.012 -1.88961 -2.64053 0
M  V30 1605 H 147.023 -5.1123 -0.828504 0
M  V30 1606 H 143.7 -3.25249 -2.61762 0
M  V30 1607 H 145.09 -6.69978 -0.507902 0
M  V30 1608 N 147.81 0.181792 -1.56548 0
M  V30 1609 C 149.059 0.898348 -1.8059 0
M  V30 1610 C 149.372 1.83862 -0.667379 0
M  V30 1611 O 150.578 2.59678 -0.792446 0
M  V30 1612 C 149.034 1.64791 -3.19956 0
M  V30 1613 C 148.642 0.751789 -4.41647 0
M  V30 1614 C 150.386 2.35331 -3.53298 0
M  V30 1615 C 148.293 1.50098 -5.72035 0
M  V30 1616 H 147.223 0.339194 -0.673397 0
M  V30 1617 H 149.874 0.151413 -1.82874 0
M  V30 1618 H 148.256 2.43921 -3.11959 0
M  V30 1619 H 149.43 -0.0018076 -4.608 0
M  V30 1620 H 147.745 0.156562 -4.16106 0
M  V30 1621 H 150.342 2.91958 -4.47956 0
M  V30 1622 H 150.685 3.10164 -2.77676 0
M  V30 1623 H 151.218 1.63154 -3.62803 0
M  V30 1624 H 147.957 0.795175 -6.50659 0
M  V30 1625 H 147.477 2.22817 -5.56878 0
M  V30 1626 H 149.156 2.05125 -6.13622 0
M  V30 1627 N 149.288 1.51039 0.449983 0
M  V30 1628 C 150.516 1.66869 1.2232 0
M  V30 1629 C 150.931 0.360727 1.85322 0
M  V30 1630 O 150.288 -0.659531 1.70166 0
M  V30 1631 C 150.339 2.77524 2.31652 0
M  V30 1632 O 150.06 4.03252 1.7123 0
M  V30 1633 C 151.561 3.04512 3.2216 0
M  V30 1634 H 148.781 0.560326 0.369155 0
M  V30 1635 H 151.325 1.97385 0.534719 0
M  V30 1636 H 149.48 2.49642 2.96239 0
M  V30 1637 H 149.894 4.64609 2.43389 0
M  V30 1638 H 151.368 3.85551 3.95038 0
M  V30 1639 H 151.845 2.16415 3.8218 0
M  V30 1640 H 152.451 3.34005 2.63288 0
M  V30 1641 N 150.766 -0.704594 1.40972 0
M  V30 1642 C 151.994 -1.49354 1.43182 0
M  V30 1643 C 152.409 -1.88768 0.0345508 0
M  V30 1644 O 151.766 -1.56184 -0.944081 0
M  V30 1645 C 151.817 -2.76187 2.33244 0
M  V30 1646 O 151.538 -2.38436 3.67532 0
M  V30 1647 C 153.039 -3.7 2.44162 0
M  V30 1648 H 150.259 -0.460559 0.487982 0
M  V30 1649 H 152.803 -0.868261 1.85153 0
M  V30 1650 H 150.958 -3.34974 1.94606 0
M  V30 1651 H 151.372 -3.20126 4.15475 0
M  V30 1652 H 152.846 -4.55803 3.11364 0
M  V30 1653 H 153.323 -4.13867 1.47006 0
M  V30 1654 H 153.929 -3.17121 2.83398 0
M  V30 1655 N 152.244 -1.26651 -0.937939 0
M  V30 1656 C 153.492 -1.12165 -1.68118 0
M  V30 1657 C 153.813 0.334983 -1.92101 0
M  V30 1658 O 153.083 1.23583 -1.52 0
M  V30 1659 H 151.663 -0.412093 -0.623048 0
M  V30 1660 H 154.325 -1.59027 -1.12678 0
M  V30 1661 H 153.421 -1.64289 -2.6536 0
M  V30 1662 N 153.722 1.14298 -1.08507 0
M  V30 1663 C 154.947 1.8976 -0.837001 0
M  V30 1664 C 155.372 1.78097 0.605228 0
M  V30 1665 O 154.73 1.12188 1.4242 0
M  V30 1666 C 154.778 3.37685 -1.26495 0
M  V30 1667 O 153.882 4.10281 -0.417514 0
M  V30 1668 H 153.223 0.590365 -0.303917 0
M  V30 1669 H 155.753 1.44672 -1.44676 0
M  V30 1670 H 155.763 3.88501 -1.24625 0
M  V30 1671 H 154.438 3.45492 -2.31534 0
M  V30 1672 H 153.015 3.69536 -0.499722 0
M  V30 1673 N 155.201 0.870884 1.31352 0
M  V30 1674 C 156.133 0.28455 2.27427 0
M  V30 1675 C 157.146 -0.552927 1.53123 0
M  V30 1676 O 158.335 -0.374771 1.74521 0
M  V30 1677 C 155.435 -0.615164 3.3327 0
M  V30 1678 C 154.608 0.190079 4.36987 0
M  V30 1679 C 153.667 -0.637917 5.22319 0
M  V30 1680 O 152.693 -0.065626 5.69162 0
M  V30 1681 N 153.895 -1.94973 5.46778 0
M  V30 1682 H 156.66 1.11017 2.7838 0
M  V30 1683 H 154.221 0.732458 1.44384 0
M  V30 1684 H 156.213 -1.1748 3.87273 0
M  V30 1685 H 154.783 -1.34146 2.82354 0
M  V30 1686 H 154.003 0.931165 3.83044 0
M  V30 1687 H 155.291 0.742579 5.03352 0
M  V30 1688 H 154.689 -2.4378 5.10478 0
M  V30 1689 H 153.246 -2.45713 6.03712 0
M  V30 1690 N 156.679 -1.44442 0.630414 0
M  V30 1691 C 157.589 -2.34476 -0.0761693 0
M  V30 1692 C 158.605 -1.52576 -0.836449 0
M  V30 1693 O 159.781 -1.85307 -0.788874 0
M  V30 1694 C 156.846 -3.30545 -1.04599 0
M  V30 1695 C 155.907 -4.28352 -0.28516 0
M  V30 1696 C 155.14 -5.19831 -1.20878 0
M  V30 1697 O 155.363 -5.15223 -2.44747 0
M  V30 1698 O 154.297 -5.97892 -0.693491 0
M  V30 1699 H 158.123 -2.96345 0.664324 0
M  V30 1700 H 155.708 -1.44203 0.39061 0
M  V30 1701 H 157.59 -3.89681 -1.60396 0
M  V30 1702 H 156.265 -2.7121 -1.76711 0
M  V30 1703 H 155.172 -3.72764 0.315837 0
M  V30 1704 H 156.505 -4.90605 0.395924 0
M  V30 1705 N 158.157 -0.370918 -1.53173 0
M  V30 1706 C 159.404 0.217102 -2.01333 0
M  V30 1707 C 159.732 1.48338 -1.25802 0
M  V30 1708 O 158.987 1.92698 -0.34146 0
M  V30 1709 C 159.286 0.549696 -3.53147 0
M  V30 1710 C 158.952 -0.622872 -4.46577 0
M  V30 1711 C 157.614 -0.944595 -4.71838 0
M  V30 1712 C 159.966 -1.40819 -5.01816 0
M  V30 1713 C 157.294 -2.05351 -5.49589 0
M  V30 1714 C 159.646 -2.50757 -5.80778 0
M  V30 1715 C 158.31 -2.83458 -6.04324 0
M  V30 1716 H 157.58 0.0794431 -0.736729 0
M  V30 1717 H 160.227 -0.504481 -1.84736 0
M  V30 1718 H 158.532 1.35237 -3.6772 0
M  V30 1719 H 160.229 1.017 -3.87889 0
M  V30 1720 H 156.819 -0.36209 -4.27068 0
M  V30 1721 H 161.003 -1.17289 -4.82242 0
M  V30 1722 H 156.259 -2.3108 -5.6605 0
M  V30 1723 H 160.433 -3.12022 -6.22588 0
M  V30 1724 H 158.06 -3.69508 -6.64355 0
M  V30 1725 N 159.635 1.57281 -0.100228 0
M  V30 1726 C 160.912 1.86014 0.604812 0
M  V30 1727 C 161.292 0.998025 1.86018 0
M  V30 1728 O 160.64 0.0718184 2.28387 0
M  V30 1729 C 160.85 3.36784 0.915278 0
M  V30 1730 C 162.198 4.04957 1.27651 0
M  V30 1731 O 163.222 3.41695 1.00613 0
M  V30 1732 O 162.081 5.16593 1.7831 0
M  V30 1733 H 159.175 0.76942 0.303185 0
M  V30 1734 H 161.721 1.69176 -0.133313 0
M  V30 1735 H 160.493 3.91292 0.0248896 0
M  V30 1736 H 160.116 3.58987 1.70921 0
M  V30 1737 N 161.113 -0.173488 1.56642 0
M  V30 1738 C 162.06 -1.21482 1.96242 0
M  V30 1739 C 163.03 -1.44104 0.826027 0
M  V30 1740 O 164.215 -1.5688 1.08597 0
M  V30 1741 C 161.355 -2.54964 2.32567 0
M  V30 1742 C 160.468 -2.39739 3.59373 0
M  V30 1743 C 159.603 -3.66072 3.84921 0
M  V30 1744 C 158.642 -3.45771 5.05083 0
M  V30 1745 N 157.779 -4.64169 5.26775 0
M  V30 1746 H 162.619 -0.870123 2.85014 0
M  V30 1747 H 160.156 -0.418245 1.41029 0
M  V30 1748 H 162.114 -3.32758 2.5165 0
M  V30 1749 H 160.744 -2.87433 1.46908 0
M  V30 1750 H 159.796 -1.53131 3.48217 0
M  V30 1751 H 161.108 -2.20683 4.47326 0
M  V30 1752 H 160.262 -4.52303 4.0436 0
M  V30 1753 H 159.001 -3.88105 2.9534 0
M  V30 1754 H 158.006 -2.57927 4.85545 0
M  V30 1755 H 159.231 -3.25163 5.96193 0
M  V30 1756 H 157.177 -4.86425 4.40144 0
M  V30 1757 H 157.094 -4.48019 6.08946 0
M  V30 1758 H 158.362 -5.51689 5.5069 0
M  V30 1759 N 162.591 -1.51276 -0.441967 0
M  V30 1760 C 163.521 -1.752 -1.54361 0
M  V30 1761 C 164.502 -0.601682 -1.59103 0
M  V30 1762 O 165.687 -0.843913 -1.74905 0
M  V30 1763 C 162.817 -1.87282 -2.92477 0
M  V30 1764 C 161.771 -3.02687 -3.02596 0
M  V30 1765 C 161.097 -2.99947 -4.42647 0
M  V30 1766 C 162.397 -4.4273 -2.77106 0
M  V30 1767 H 164.091 -2.67442 -1.34592 0
M  V30 1768 H 161.637 -1.28694 -0.646048 0
M  V30 1769 H 163.59 -2.02602 -3.695 0
M  V30 1770 H 162.314 -0.916844 -3.13467 0
M  V30 1771 H 160.973 -2.87065 -2.28012 0
M  V30 1772 H 160.621 -2.02136 -4.60597 0
M  V30 1773 H 160.321 -3.77439 -4.50348 0
M  V30 1774 H 161.845 -3.17354 -5.2165 0
M  V30 1775 H 163.259 -4.58727 -3.43864 0
M  V30 1776 H 161.656 -5.21893 -2.96222 0
M  V30 1777 H 162.726 -4.53087 -1.72744 0
M  V30 1778 N 164.069 0.697108 -1.41344 0
M  V30 1779 C 164.999 1.82353 -1.45841 0
M  V30 1780 C 165.98 1.67115 -0.317247 0
M  V30 1781 O 167.165 1.86871 -0.528474 0
M  V30 1782 C 164.295 3.20476 -1.33838 0
M  V30 1783 C 163.249 3.50415 -2.4575 0
M  V30 1784 C 162.575 4.87878 -2.18813 0
M  V30 1785 C 163.875 3.49546 -3.88091 0
M  V30 1786 H 165.569 1.78846 -2.40113 0
M  V30 1787 H 163.115 0.859028 -1.15571 0
M  V30 1788 H 165.068 3.98988 -1.35596 0
M  V30 1789 H 163.792 3.24604 -0.360498 0
M  V30 1790 H 162.451 2.74253 -2.43271 0
M  V30 1791 H 162.099 4.8863 -1.19371 0
M  V30 1792 H 161.799 5.08875 -2.93803 0
M  V30 1793 H 163.323 5.68702 -2.22284 0
M  V30 1794 H 164.737 4.18066 -3.92293 0
M  V30 1795 H 163.134 3.82075 -4.62751 0
M  V30 1796 H 164.204 2.48552 -4.16353 0
M  V30 1797 N 165.547 1.27147 0.931209 0
M  V30 1798 C 166.795 1.13055 1.6752 0
M  V30 1799 C 167.116 -0.324791 1.92276 0
M  V30 1800 O 166.386 -1.22775 1.52654 0
M  V30 1801 H 164.966 0.415391 0.620854 0
M  V30 1802 H 167.628 1.59623 1.11833 0
M  V30 1803 H 166.724 1.65694 2.64485 0
M  V30 1804 N 167.025 -1.13721 1.09112 0
M  V30 1805 C 168.273 -1.84559 0.823562 0
M  V30 1806 C 168.594 -1.83754 -0.652658 0
M  V30 1807 O 167.864 -1.29102 -1.47342 0
M  V30 1808 H 166.444 -0.683376 0.301673 0
M  V30 1809 H 169.106 -1.37771 1.37859 0
M  V30 1810 H 168.202 -2.8917 1.17419 0
M  V30 1811 N 168.503 -0.877838 -1.30888 0
M  V30 1812 C 169.751 -0.491723 -1.96027 0
M  V30 1813 C 170.072 0.960827 -1.69685 0
M  V30 1814 O 169.342 1.67462 -1.01654 0
M  V30 1815 H 167.922 -0.17885 -0.725273 0
M  V30 1816 H 170.584 -1.11935 -1.59551 0
M  V30 1817 H 169.68 -0.656016 -3.05128 0
M  V30 1818 N 169.982 1.44106 -0.638065 0
M  V30 1819 C 171.231 2.01194 -0.142744 0
M  V30 1820 C 171.544 1.50835 1.24532 0
M  V30 1821 O 172.75 2.00096 1.83504 0
M  V30 1822 C 171.206 3.59319 -0.20442 0
M  V30 1823 C 170.814 4.18674 -1.59423 0
M  V30 1824 C 172.558 4.23854 0.234079 0
M  V30 1825 C 170.465 5.69045 -1.61065 0
M  V30 1826 H 169.395 0.752367 -0.0495998 0
M  V30 1827 H 172.046 1.65246 -0.797881 0
M  V30 1828 H 170.428 3.92598 0.517946 0
M  V30 1829 H 171.602 3.96921 -2.34074 0
M  V30 1830 H 169.917 3.66453 -1.97741 0
M  V30 1831 H 172.514 5.34155 0.241443 0
M  V30 1832 H 172.857 3.96688 1.2627 0
M  V30 1833 H 173.39 3.95403 -0.436025 0
M  V30 1834 H 170.129 6.00956 -2.61787 0
M  V30 1835 H 169.649 5.929 -0.90718 0
M  V30 1836 H 171.328 6.32809 -1.34766 0
M  V30 1837 N 171.46 0.379036 1.52974 0
M  V30 1838 C 172.37 -0.468639 2.29872 0
M  V30 1839 C 173.386 -1.08067 1.36373 0
M  V30 1840 O 174.562 -1.08871 1.69438 0
M  V30 1841 C 171.627 -1.58594 3.083 0
M  V30 1842 C 170.688 -1.00007 4.17489 0
M  V30 1843 C 169.921 -2.06413 4.92168 0
M  V30 1844 O 170.144 -3.27751 4.66835 0
M  V30 1845 O 169.078 -1.68717 5.7777 0
M  V30 1846 H 172.904 0.157508 3.03291 0
M  V30 1847 H 170.489 0.143035 1.48714 0
M  V30 1848 H 172.371 -2.23525 3.57232 0
M  V30 1849 H 171.046 -2.19724 2.37703 0
M  V30 1850 H 169.953 -0.314299 3.72777 0
M  V30 1851 H 171.286 -0.433135 4.90291 0
M  V30 1852 N 172.938 -1.57226 0.108567 0
M  V30 1853 C 174.163 -1.99604 -0.563303 0
M  V30 1854 C 174.588 -0.987563 -1.6009 0
M  V30 1855 O 173.946 0.0421687 -1.81251 0
M  V30 1856 C 173.994 -3.40902 -1.17552 0
M  V30 1857 O 173.098 -3.42896 -2.2912 0
M  V30 1858 H 172.439 -0.648704 -0.1417 0
M  V30 1859 H 174.969 -2.03679 0.193961 0
M  V30 1860 H 174.979 -3.78886 -1.51357 0
M  V30 1861 H 173.654 -4.1382 -0.415445 0
M  V30 1862 H 172.231 -3.1672 -1.96832 0
M  V30 1863 N 174.416 0.165178 -1.56732 0
M  V30 1864 C 175.349 1.23336 -1.91998 0
M  V30 1865 C 176.327 1.42476 -0.783531 0
M  V30 1866 O 177.511 1.57384 -1.03743 0
M  V30 1867 C 174.638 2.59533 -2.17625 0
M  V30 1868 C 173.684 2.57093 -3.40302 0
M  V30 1869 S 174.517 2.05571 -4.9447 0
M  V30 1870 C 175.673 3.43532 -5.23198 0
M  V30 1871 H 175.906 0.932387 -2.82301 0
M  V30 1872 H 173.439 0.370013 -1.49901 0
M  V30 1873 H 175.397 3.37918 -2.3307 0
M  V30 1874 H 174.058 2.86827 -1.28019 0
M  V30 1875 H 173.251 3.57308 -3.55453 0
M  V30 1876 H 172.853 1.86806 -3.24005 0
M  V30 1877 H 175.145 4.39559 -5.15552 0
M  V30 1878 H 176.088 3.33251 -6.2478 0
M  V30 1879 H 176.496 3.39828 -4.50752 0
M  V30 1880 N 175.894 1.51508 0.433938 0
M  V30 1881 C 176.857 1.72473 1.50949 0
M  V30 1882 C 177.857 0.594725 1.49398 0
M  V30 1883 O 179.047 0.862315 1.5136 0
M  V30 1884 C 176.179 1.78431 2.90474 0
M  V30 1885 H 177.372 2.68467 1.33662 0
M  V30 1886 H 174.925 1.41549 0.662836 0
M  V30 1887 H 175.66 0.842645 3.13161 0
M  V30 1888 H 175.445 2.60558 2.93005 0
M  V30 1889 H 176.935 1.96479 3.68491 0
M  V30 1890 N 177.372 -0.689602 1.41712 0
M  V30 1891 C 178.621 -1.44534 1.40686 0
M  V30 1892 C 178.934 -1.95588 0.0213352 0
M  V30 1893 O 180.14 -2.71271 -0.111534 0
M  V30 1894 C 178.596 -2.61387 2.47396 0
M  V30 1895 C 178.204 -2.17094 3.91885 0
M  V30 1896 C 179.948 -3.38986 2.55517 0
M  V30 1897 C 177.855 -3.3094 4.90135 0
M  V30 1898 H 176.785 -0.542925 0.52321 0
M  V30 1899 H 179.436 -0.748054 1.6756 0
M  V30 1900 H 177.818 -3.33412 2.13664 0
M  V30 1901 H 178.992 -1.52318 4.34897 0
M  V30 1902 H 177.307 -1.52473 3.8748 0
M  V30 1903 H 179.904 -4.23747 3.26102 0
M  V30 1904 H 180.247 -3.84578 1.59391 0
M  V30 1905 H 180.78 -2.74021 2.8837 0
M  V30 1906 H 177.519 -2.90355 5.87685 0
M  V30 1907 H 177.039 -3.94546 4.51767 0
M  V30 1908 H 178.718 -3.9663 5.11169 0
M  V30 1909 N 178.85 -1.27639 -0.924453 0
M  V30 1910 C 180.078 -1.16989 -1.70649 0
M  V30 1911 C 180.493 0.272869 -1.86818 0
M  V30 1912 O 179.85 1.18549 -1.38753 0
M  V30 1913 C 179.901 -1.85229 -3.10439 0
M  V30 1914 O 179.622 -3.23868 -2.95028 0
M  V30 1915 C 181.123 -1.80746 -4.04779 0
M  V30 1916 H 178.343 -0.406595 -0.53378 0
M  V30 1917 H 180.887 -1.68569 -1.15778 0
M  V30 1918 H 179.042 -1.37545 -3.6216 0
M  V30 1919 H 179.456 -3.57889 -3.83426 0
M  V30 1920 H 180.93 -2.33101 -5.00368 0
M  V30 1921 H 181.407 -0.777499 -4.32263 0
M  V30 1922 H 182.013 -2.28059 -3.58984 0
M  V30 1923 N 180.328 1.1314 -1.09713 0
M  V30 1924 C 181.238 2.22242 -0.751367 0
M  V30 1925 C 182.254 1.72224 0.247938 0
M  V30 1926 O 183.43 2.01205 0.0885463 0
M  V30 1927 C 180.495 3.46231 -0.180274 0
M  V30 1928 C 179.556 4.11125 -1.2359 0
M  V30 1929 C 178.789 5.29195 -0.691966 0
M  V30 1930 O 179.012 5.68342 0.48414 0
M  V30 1931 O 177.946 5.84214 -1.44838 0
M  V30 1932 H 181.772 2.54197 -1.66186 0
M  V30 1933 H 179.357 1.21331 -0.871735 0
M  V30 1934 H 181.239 4.21185 0.134739 0
M  V30 1935 H 179.914 3.1597 0.703185 0
M  V30 1936 H 178.821 3.37985 -1.60366 0
M  V30 1937 H 180.154 4.45524 -2.09211 0
M  V30 1938 N 181.806 0.884767 1.30421 0
M  V30 1939 C 182.769 0.356277 2.26414 0
M  V30 1940 C 183.769 -0.501124 1.52792 0
M  V30 1941 O 184.959 -0.30831 1.7145 0
M  V30 1942 C 182.091 -0.492316 3.37326 0
M  V30 1943 H 183.284 1.20389 2.74675 0
M  V30 1944 H 180.837 0.661607 1.41607 0
M  V30 1945 H 181.572 -1.36052 2.94381 0
M  V30 1946 H 181.357 0.121832 3.91911 0
M  V30 1947 H 182.847 -0.853871 4.08777 0
M  V30 1948 N 183.284 -1.43765 0.645699 0
M  V30 1949 C 184.531 -2.01898 0.15604 0
M  V30 1950 C 184.859 -1.50887 -1.22733 0
M  V30 1951 O 184.114 -0.689271 -1.8316 0
M  V30 1952 C 184.413 -3.57238 0.107679 0
M  V30 1953 C 184.079 -4.27564 1.43178 0
M  V30 1954 C 182.741 -4.46492 1.7944 0
M  V30 1955 C 185.093 -4.67454 2.30513 0
M  V30 1956 C 182.421 -5.02573 3.02716 0
M  V30 1957 C 184.773 -5.24901 3.53074 0
M  V30 1958 C 183.437 -5.42046 3.89541 0
M  V30 1959 H 182.707 -0.738797 0.057099 0
M  V30 1960 H 185.354 -1.72341 0.834912 0
M  V30 1961 H 183.659 -3.86293 -0.654618 0
M  V30 1962 H 185.356 -3.99965 -0.287938 0
M  V30 1963 H 181.946 -4.13171 1.13963 0
M  V30 1964 H 186.13 -4.5253 2.0379 0
M  V30 1965 H 181.386 -5.14033 3.31028 0
M  V30 1966 H 185.56 -5.54758 4.20971 0
M  V30 1967 H 183.187 -5.85268 4.85145 0
M  V30 1968 N 184.763 -0.387143 -1.52771 0
M  V30 1969 C 186.011 0.195349 -2.01154 0
M  V30 1970 C 186.332 1.475 -1.27549 0
M  V30 1971 O 185.602 1.91878 -0.394924 0
M  V30 1972 H 184.182 0.075178 -0.743207 0
M  V30 1973 H 186.844 -0.518337 -1.87881 0
M  V30 1974 H 185.94 0.407096 -3.09434 0
M  V30 1975 N 186.241 1.57166 -0.116904 0
M  V30 1976 C 187.151 2.18745 0.847812 0
M  V30 1977 C 188.167 1.163 1.29423 0
M  V30 1978 O 189.343 1.48761 1.35765 0
M  V30 1979 C 186.408 2.77307 2.0809 0
M  V30 1980 C 185.469 3.94781 1.68661 0
M  V30 1981 C 184.702 4.50541 2.86091 0
M  V30 1982 O 184.925 4.05202 4.01456 0
M  V30 1983 O 183.859 5.41256 2.63298 0
M  V30 1984 H 187.685 3.01632 0.353778 0
M  V30 1985 H 185.27 1.49005 0.108599 0
M  V30 1986 H 187.152 3.14647 2.80313 0
M  V30 1987 H 185.827 1.97452 2.56504 0
M  V30 1988 H 184.734 3.62214 0.935518 0
M  V30 1989 H 186.067 4.76065 1.24991 0
M  V30 1990 N 187.719 -0.156864 1.56817 0
M  V30 1991 C 188.966 -0.871125 1.82805 0
M  V30 1992 C 189.294 -1.81611 0.696262 0
M  V30 1993 O 188.549 -1.93141 -0.315459 0
M  V30 1994 C 188.848 -1.68737 3.1506 0
M  V30 1995 C 188.514 -0.890045 4.42028 0
M  V30 1996 C 187.176 -0.670042 4.76512 0
M  V30 1997 C 189.528 -0.331769 5.20143 0
M  V30 1998 C 186.856 0.119104 5.86579 0
M  V30 1999 C 189.208 0.444365 6.31037 0
M  V30 2000 C 187.872 0.675035 6.64078 0
M  V30 2001 H 187.142 -0.318767 0.668931 0
M  V30 2002 H 189.789 -0.135274 1.91022 0
M  V30 2003 H 188.094 -2.49304 3.0225 0
M  V30 2004 H 189.791 -2.24331 3.3238 0
M  V30 2005 H 186.381 -1.07157 4.14988 0
M  V30 2006 H 190.565 -0.489043 4.93885 0
M  V30 2007 H 185.821 0.307417 6.10627 0
M  V30 2008 H 189.995 0.884139 6.90765 0
M  V30 2009 H 187.622 1.28839 7.49203 0
M  V30 2010 N 189.197 -1.51736 -0.425897 0
M  V30 2011 C 190.613 -1.40166 -0.76326 0
M  V30 2012 C 190.813 -0.492962 -1.95377 0
M  V30 2013 O 189.869 0.0475815 -2.52455 0
M  V30 2014 C 191.182 -2.82403 -1.03291 0
M  V30 2015 C 192.73 -2.91632 -1.13665 0
M  V30 2016 C 193.205 -4.34801 -1.43916 0
M  V30 2017 N 194.696 -4.3796 -1.50816 0
M  V30 2018 C 195.431 -5.4578 -1.75817 0
M  V30 2019 N 194.927 -6.63744 -1.98534 0
M  V30 2020 N 196.72 -5.33274 -1.77694 0
M  V30 2021 H 188.871 -2.09361 0.358 0
M  V30 2022 H 191.134 -0.942941 0.0978094 0
M  V30 2023 H 190.84 -3.50943 -0.230696 0
M  V30 2024 H 190.714 -3.22428 -1.95754 0
M  V30 2025 H 193.101 -2.23284 -1.92947 0
M  V30 2026 H 193.182 -2.55088 -0.190756 0
M  V30 2027 H 192.826 -5.03703 -0.65157 0
M  V30 2028 H 192.756 -4.68868 -2.39729 0
M  V30 2029 H 195.247 -3.52919 -1.35118 0
M  V30 2030 H 195.56 -7.41704 -2.17013 0
M  V30 2031 H 193.905 -6.66839 -1.95832 0
M  V30 2032 H 197.096 -4.40098 -1.59473 0
M  V30 2033 H 197.269 -6.1738 -1.9684 0
M  V30 2034 N 190.675 0.682077 -1.42076 0
M  V30 2035 C 191.903 1.47057 -1.4554 0
M  V30 2036 C 192.318 1.8869 -0.0645779 0
M  V30 2037 O 191.675 1.57666 0.919115 0
M  V30 2038 C 191.726 2.72442 -2.37609 0
M  V30 2039 O 191.447 2.32559 -3.71279 0
M  V30 2040 C 192.948 3.66069 -2.50017 0
M  V30 2041 H 190.168 0.452737 -0.495248 0
M  V30 2042 H 192.712 0.838695 -1.8651 0
M  V30 2043 H 190.867 3.31835 -1.9991 0
M  V30 2044 H 191.281 3.13475 -4.20516 0
M  V30 2045 H 192.755 4.50792 -3.18576 0
M  V30 2046 H 193.232 4.11476 -1.53572 0
M  V30 2047 H 193.838 3.12572 -2.88407 0
M  V30 2048 N 192.153 1.28127 0.917671 0
M  V30 2049 C 193.401 1.14825 1.66312 0
M  V30 2050 C 193.722 -0.304379 1.9261 0
M  V30 2051 O 192.992 -1.21149 1.53947 0
M  V30 2052 H 191.572 0.421953 0.616413 0
M  V30 2053 H 194.234 1.608 1.10134 0
M  V30 2054 H 193.33 1.68489 2.62712 0
M  V30 2055 N 193.631 -1.12557 1.10312 0
M  V30 2056 C 194.578 -2.18247 0.750781 0
M  V30 2057 C 195.548 -1.63853 -0.272293 0
M  V30 2058 O 196.733 -1.90195 -0.151862 0
M  V30 2059 C 193.873 -3.44591 0.187379 0
M  V30 2060 C 192.986 -4.13046 1.2656 0
M  V30 2061 C 192.121 -5.27034 0.663978 0
M  V30 2062 C 191.16 -5.87353 1.72287 0
M  V30 2063 N 190.297 -6.92757 1.1416 0
M  V30 2064 H 195.137 -2.47732 1.65628 0
M  V30 2065 H 192.674 -1.21629 0.827337 0
M  V30 2066 H 194.632 -4.16904 -0.157148 0
M  V30 2067 H 193.262 -3.15527 -0.681355 0
M  V30 2068 H 192.314 -3.38924 1.72727 0
M  V30 2069 H 193.626 -4.53947 2.06721 0
M  V30 2070 H 192.78 -6.06104 0.268824 0
M  V30 2071 H 191.519 -4.87407 -0.169082 0
M  V30 2072 H 190.524 -5.06971 2.12746 0
M  V30 2073 H 191.749 -6.29051 2.55875 0
M  V30 2074 H 189.695 -6.5517 0.329984 0
M  V30 2075 H 189.612 -7.3225 1.88007 0
M  V30 2076 H 190.88 -7.75658 0.772956 0
M  V30 2077 N 195.109 -0.891671 -1.2995 0
M  V30 2078 C 196.337 -0.52866 -2.00032 0
M  V30 2079 C 196.752 0.884574 -1.66795 0
M  V30 2080 O 196.109 1.5827 -0.908669 0
M  V30 2081 C 196.16 -0.701814 -3.54622 0
M  V30 2082 O 195.881 -2.05942 -3.86678 0
M  V30 2083 C 197.382 -0.342683 -4.41973 0
M  V30 2084 H 194.602 -0.203659 -0.639347 0
M  V30 2085 H 197.146 -1.19881 -1.65677 0
M  V30 2086 H 195.301 -0.0789468 -3.8732 0
M  V30 2087 H 195.715 -2.08291 -4.81368 0
M  V30 2088 H 197.189 -0.514709 -5.49595 0
M  V30 2089 H 197.666 0.71975 -4.33262 0
M  V30 2090 H 198.272 -0.942154 -4.14733 0
M  V30 2091 N 196.587 1.43421 -0.653314 0
M  V30 2092 C 197.519 2.29071 0.0769134 0
M  V30 2093 C 198.532 1.42513 0.787017 0
M  V30 2094 O 199.721 1.66449 0.644757 0
M  V30 2095 C 196.821 3.19436 1.13199 0
M  V30 2096 C 195.994 4.34533 0.500006 0
M  V30 2097 C 195.053 5.05771 1.45198 0
M  V30 2098 O 194.079 5.61037 0.960538 0
M  V30 2099 N 195.281 5.0928 2.78594 0
M  V30 2100 H 198.046 2.92382 -0.658235 0
M  V30 2101 H 195.607 1.54112 -0.496104 0
M  V30 2102 H 197.599 3.63958 1.76964 0
M  V30 2103 H 196.169 2.57724 1.7691 0
M  V30 2104 H 195.389 3.92925 -0.316738 0
M  V30 2105 H 196.677 5.08766 0.0588345 0
M  V30 2106 H 196.075 4.65751 3.2108 0
M  V30 2107 H 194.632 5.57519 3.37662 0
M  V30 2108 N 198.065 0.39524 1.52563 0
M  V30 2109 C 198.995 -0.428384 2.29537 0
M  V30 2110 C 199.976 -1.05831 1.33169 0
M  V30 2111 O 201.161 -1.06995 1.62067 0
M  V30 2112 C 198.291 -1.55274 3.10656 0
M  V30 2113 C 197.245 -1.04855 4.14957 0
M  V30 2114 C 196.571 -2.26543 4.84337 0
M  V30 2115 C 197.871 -0.112324 5.22179 0
M  V30 2116 H 199.565 0.213867 2.98635 0
M  V30 2117 H 197.111 0.104298 1.43622 0
M  V30 2118 H 199.064 -2.1358 3.63265 0
M  V30 2119 H 197.788 -2.22266 2.39302 0
M  V30 2120 H 196.447 -0.487985 3.63338 0
M  V30 2121 H 196.095 -2.92059 4.09525 0
M  V30 2122 H 195.795 -1.93466 5.54837 0
M  V30 2123 H 197.319 -2.85481 5.39753 0
M  V30 2124 H 198.733 -0.603752 5.70112 0
M  V30 2125 H 197.13 0.128968 5.99961 0
M  V30 2126 H 198.2 0.837052 4.77621 0
M  V30 2127 N 199.544 -1.57102 0.125237 0
M  V30 2128 C 200.769 -2.0019 -0.542101 0
M  V30 2129 C 201.194 -1.00449 -1.59034 0
M  V30 2130 O 200.552 0.0229423 -1.81285 0
M  V30 2131 C 200.6 -3.42129 -1.13929 0
M  V30 2132 O 199.704 -3.45307 -2.2547 0
M  V30 2133 H 199.045 -0.650171 -0.134812 0
M  V30 2134 H 201.575 -2.03461 0.215553 0
M  V30 2135 H 201.585 -3.80471 -1.4733 0
M  V30 2136 H 200.26 -4.14237 -0.371531 0
M  V30 2137 H 198.837 -3.1879 -1.93462 0
M  V30 2138 N 201.022 0.148545 -1.56898 0
M  V30 2139 C 201.972 1.1886 -1.94567 0
M  V30 2140 C 202.956 1.3863 -0.816735 0
M  V30 2141 O 204.148 1.40218 -1.08018 0
M  V30 2142 C 201.277 2.52262 -2.32849 0
M  V30 2143 C 200.363 2.36092 -3.52309 0
M  V30 2144 N 200.754 1.89674 -4.6889 0
M  V30 2145 C 199.052 2.66848 -3.57363 0
M  V30 2146 C 199.753 1.86511 -5.50989 0
M  V30 2147 N 198.729 2.29766 -4.92655 0
M  V30 2148 H 202.531 0.821793 -2.82177 0
M  V30 2149 H 200.045 0.356615 -1.58436 0
M  V30 2150 H 202.042 3.27447 -2.58039 0
M  V30 2151 H 200.702 2.89727 -1.46589 0
M  V30 2152 H 201.713 1.59663 -4.92674 0
M  V30 2153 H 198.39 3.08198 -2.81639 0
M  V30 2154 H 199.78 1.52128 -6.54452 0
M  V30 2155 N 202.5 1.5196 0.417844 0
M  V30 2156 C 203.728 1.69426 1.18753 0
M  V30 2157 C 204.143 0.399955 1.84515 0
M  V30 2158 O 203.5 -0.623288 1.71527 0
M  V30 2159 C 203.551 2.82375 2.25714 0
M  V30 2160 O 203.272 4.06793 1.62638 0
M  V30 2161 C 204.773 3.11277 3.15628 0
M  V30 2162 H 201.993 0.568031 0.357186 0
M  V30 2163 H 204.537 1.98475 0.49273 0
M  V30 2164 H 202.692 2.5587 2.90877 0
M  V30 2165 H 203.106 4.69667 2.3348 0
M  V30 2166 H 204.58 3.93843 3.86771 0
M  V30 2167 H 205.057 2.24473 3.77503 0
M  V30 2168 H 205.663 3.39515 2.56144 0
M  V30 2169 N 203.978 -0.674533 1.42435 0
M  V30 2170 C 204.908 -1.80009 1.48724 0
M  V30 2171 C 205.889 -1.6659 0.343793 0
M  V30 2172 O 207.074 -1.86007 0.558137 0
M  V30 2173 C 204.204 -3.18306 1.38919 0
M  V30 2174 C 203.158 -3.46461 2.51294 0
M  V30 2175 C 202.484 -4.84335 2.26547 0
M  V30 2176 C 203.784 -3.43328 3.93603 0
M  V30 2177 H 205.478 -1.75004 2.42928 0
M  V30 2178 H 203.024 -0.840533 1.16923 0
M  V30 2179 H 204.977 -3.9678 1.41927 0
M  V30 2180 H 203.701 -3.2399 0.412094 0
M  V30 2181 H 202.36 -2.70348 2.47604 0
M  V30 2182 H 202.008 -4.86669 1.2713 0
M  V30 2183 H 201.708 -5.04136 3.01861 0
M  V30 2184 H 203.232 -5.65094 2.31304 0
M  V30 2185 H 204.646 -4.11772 3.98894 0
M  V30 2186 H 203.043 -3.74664 4.68771 0
M  V30 2187 H 204.113 -2.41897 4.20255 0
M  V30 2188 N 205.456 -1.28612 -0.910864 0
M  V30 2189 C 206.696 -1.1719 -1.67469 0
M  V30 2190 C 207.06 0.274441 -1.90028 0
M  V30 2191 O 208.261 0.511425 -2.6389 0
M  V30 2192 C 206.532 -1.95137 -2.99427 0
M  V30 2193 S 208.091 -2.00122 -3.90508 0
M  V30 2194 H 204.909 -0.41806 -0.575106 0
M  V30 2195 H 207.511 -1.6275 -1.08317 0
M  V30 2196 H 206.215 -2.99381 -2.80712 0
M  V30 2197 H 205.746 -1.50137 -3.63624 0
M  V30 2198 H 207.761 -1.10981 -4.8363 0
M  V30 2199 N 206.934 1.1197 -1.10907 0
M  V30 2200 C 208.18 1.8386 -0.855773 0
M  V30 2201 C 208.513 1.84134 0.617103 0
M  V30 2202 O 207.788 1.29041 1.45529 0
M  V30 2203 C 208.071 3.31305 -1.411 0
M  V30 2204 C 207.924 3.39456 -2.9511 0
M  V30 2205 C 209.243 4.2721 -1.05736 0
M  V30 2206 H 206.362 0.667545 -0.312334 0
M  V30 2207 H 209.004 1.31331 -1.37303 0
M  V30 2208 H 207.154 3.76169 -0.97105 0
M  V30 2209 H 208.826 3.03191 -3.47668 0
M  V30 2210 H 207.069 2.79849 -3.31462 0
M  V30 2211 H 207.74 4.43209 -3.29044 0
M  V30 2212 H 210.216 3.90497 -1.43706 0
M  V30 2213 H 209.092 5.28775 -1.47269 0
M  V30 2214 H 209.353 4.42088 0.0325958 0
M  V30 2215 N 208.412 0.89855 1.29475 0
M  V30 2216 C 209.64 0.539261 1.99749 0
M  V30 2217 C 210.055 -0.875716 1.67262 0
M  V30 2218 O 209.412 -1.57786 0.917049 0
M  V30 2219 C 209.463 0.72061 3.54245 0
M  V30 2220 O 209.184 2.07989 3.8558 0
M  V30 2221 C 210.685 0.366118 4.41786 0
M  V30 2222 H 207.905 0.207047 0.638258 0
M  V30 2223 H 210.449 1.20758 1.65039 0
M  V30 2224 H 208.604 0.0994862 3.87272 0
M  V30 2225 H 209.018 2.10841 4.80257 0
M  V30 2226 H 210.492 0.543848 5.49314 0
M  V30 2227 H 210.969 -0.696763 4.33638 0
M  V30 2228 H 211.575 0.964135 4.14228 0
M  V30 2229 N 209.89 -1.43072 0.660911 0
M  V30 2230 C 210.853 -2.29194 -0.0166406 0
M  V30 2231 C 211.853 -1.42609 -0.742912 0
M  V30 2232 O 213.043 -1.64155 -0.583004 0
M  V30 2233 C 210.175 -3.24831 -1.0343 0
M  V30 2234 H 211.368 -2.90596 0.741208 0
M  V30 2235 H 208.921 -1.5048 0.422532 0
M  V30 2236 H 209.656 -2.68339 -1.82111 0
M  V30 2237 H 209.441 -3.88676 -0.517082 0
M  V30 2238 H 210.931 -3.89451 -1.50723 0
M  V30 2239 N 211.368 -0.403325 -1.52352 0
M  V30 2240 C 212.3 0.4603 -2.2453 0
M  V30 2241 C 213.313 1.01505 -1.27282 0
M  V30 2242 O 214.502 0.914982 -1.53266 0
M  V30 2243 C 211.602 1.65208 -2.95905 0
M  V30 2244 C 210.775 1.22224 -4.19976 0
M  V30 2245 C 209.834 2.28028 -4.74226 0
M  V30 2246 O 208.86 1.88857 -5.36956 0
M  V30 2247 N 210.062 3.6012 -4.55295 0
M  V30 2248 H 212.827 -0.158156 -2.99282 0
M  V30 2249 H 210.388 -0.230402 -1.60252 0
M  V30 2250 H 212.38 2.35541 -3.29093 0
M  V30 2251 H 210.95 2.17658 -2.24374 0
M  V30 2252 H 210.17 0.34725 -3.92668 0
M  V30 2253 H 211.458 0.911924 -5.00561 0
M  V30 2254 H 210.856 3.94698 -4.05253 0
M  V30 2255 H 209.413 4.26447 -4.92936 0
M  V30 2256 N 212.846 1.57033 -0.133567 0
M  V30 2257 C 213.776 2.1909 0.807567 0
M  V30 2258 C 214.757 1.13517 1.26681 0
M  V30 2259 O 215.942 1.41809 1.32679 0
M  V30 2260 C 213.072 2.80188 2.05212 0
M  V30 2261 C 212.026 3.91471 1.73015 0
M  V30 2262 C 211.352 4.39443 3.04622 0
M  V30 2263 C 212.652 5.12886 0.987168 0
M  V30 2264 H 214.346 2.97988 0.290403 0
M  V30 2265 H 211.892 1.43335 0.138239 0
M  V30 2266 H 213.845 3.22264 2.71521 0
M  V30 2267 H 212.569 1.98601 2.59278 0
M  V30 2268 H 211.228 3.49993 1.0909 0
M  V30 2269 H 210.876 3.54695 3.56651 0
M  V30 2270 H 210.576 5.14495 2.83847 0
M  V30 2271 H 212.1 4.8418 3.72024 0
M  V30 2272 H 213.514 5.51891 1.55208 0
M  V30 2273 H 211.911 5.93615 0.87985 0
M  V30 2274 H 212.981 4.84894 -0.0235286 0
M  V30 2275 N 214.325 -0.140222 1.56975 0
M  V30 2276 C 215.736 -0.699596 1.73097 0
M  V30 2277 C 216.087 -1.8134 0.749022 0
M  V30 2278 O 215.212 -2.16241 -0.0828503 0
M  V30 2279 C 215.807 -1.27582 3.1386 0
M  V30 2280 C 214.366 -1.78169 3.31561 0
M  V30 2281 C 213.513 -0.672855 2.69013 0
M  V30 2282 H 216.464 0.0855115 1.58469 0
M  V30 2283 H 216.485 -2.14561 3.14235 0
M  V30 2284 H 215.997 -0.464955 3.85305 0
M  V30 2285 H 214.098 -2.61801 2.65124 0
M  V30 2286 H 214.211 -1.90574 4.39566 0
M  V30 2287 H 212.575 -1.10118 2.29665 0
M  V30 2288 H 213.358 0.126679 3.43066 0
M  V30 2289 N 215.803 -1.52179 -0.40978 0
M  V30 2290 C 217.051 -1.65878 -1.15451 0
M  V30 2291 C 217.372 -0.390771 -1.91044 0
M  V30 2292 O 216.642 0.594323 -1.86667 0
M  V30 2293 H 215.222 -0.611405 -0.429177 0
M  V30 2294 H 217.884 -1.89219 -0.467134 0
M  V30 2295 H 216.98 -2.49954 -1.86894 0
M  V30 2296 N 217.281 0.66697 -1.42791 0
M  V30 2297 C 218.244 1.76211 -1.46568 0
M  V30 2298 C 219.244 1.56896 -0.352196 0
M  V30 2299 O 220.434 1.63044 -0.613364 0
M  V30 2300 C 217.566 3.14935 -1.30494 0
M  V30 2301 H 218.759 1.74247 -2.44086 0
M  V30 2302 H 216.312 0.877342 -1.29354 0
M  V30 2303 H 217.047 3.2252 -0.339301 0
M  V30 2304 H 216.832 3.30359 -2.11199 0
M  V30 2305 H 218.322 3.94821 -1.36038 0
M  V30 2306 N 218.759 1.29093 0.90403 0
M  V30 2307 C 220.007 1.16583 1.65085 0
M  V30 2308 C 220.328 -0.283933 1.92922 0
M  V30 2309 O 219.598 -1.19509 1.55224 0
M  V30 2310 H 218.178 0.428467 0.611903 0
M  V30 2311 H 220.84 1.61959 1.08422 0
M  V30 2312 H 219.936 1.71266 2.6091 0
M  V30 2313 N 220.237 -1.11381 1.11499 0
M  V30 2314 C 221.485 -1.8277 0.862524 0
M  V30 2315 C 221.806 -1.85097 -0.613534 0
M  V30 2316 O 221.076 -1.32198 -1.4457 0
M  V30 2317 H 219.656 -0.676823 0.316101 0
M  V30 2318 H 222.318 -1.34816 1.4075 0
M  V30 2319 H 221.414 -2.86614 1.23527 0
M  V30 2320 N 221.715 -0.905404 -1.28997 0
M  V30 2321 C 222.945 -0.549049 -1.99171 0
M  V30 2322 C 223.353 0.87203 -1.67906 0
M  V30 2323 O 222.696 1.58796 -0.923561 0
M  V30 2324 C 222.758 -0.668306 -3.53234 0
M  V30 2325 C 222.422 -2.0574 -4.08069 0
M  V30 2326 C 223.419 -3.0292 -4.22534 0
M  V30 2327 C 221.104 -2.36833 -4.42962 0
M  V30 2328 C 223.098 -4.29314 -4.71135 0
M  V30 2329 C 220.785 -3.63467 -4.91258 0
M  V30 2330 C 221.783 -4.59522 -5.053 0
M  V30 2331 O 221.471 -5.83907 -5.52546 0
M  V30 2332 H 221.203 -0.208784 -0.64295 0
M  V30 2333 H 223.757 -1.21836 -1.65363 0
M  V30 2334 H 221.987 0.0580547 -3.86656 0
M  V30 2335 H 223.676 -0.320273 -4.04634 0
M  V30 2336 H 224.442 -2.80216 -3.95859 0
M  V30 2337 H 220.321 -1.62824 -4.31288 0
M  V30 2338 H 223.865 -5.04293 -4.8201 0
M  V30 2339 H 219.762 -3.86 -5.17372 0
M  V30 2340 H 220.53 -5.86578 -5.70849 0
M  V30 2341 N 223.193 1.4272 -0.668489 0
M  V30 2342 C 224.604 1.84793 -0.266151 0
M  V30 2343 C 224.955 1.55959 1.19043 0
M  V30 2344 O 224.08 1.01622 1.91055 0
M  V30 2345 C 224.675 3.35436 -0.476271 0
M  V30 2346 C 223.234 3.76182 -0.128113 0
M  V30 2347 C 222.381 2.66344 -0.771777 0
M  V30 2348 H 225.332 1.32656 -0.871098 0
M  V30 2349 H 225.353 3.79515 0.273561 0
M  V30 2350 H 224.865 3.5639 -1.53647 0
M  V30 2351 H 222.966 3.60836 0.928891 0
M  V30 2352 H 223.079 4.75766 -0.564231 0
M  V30 2353 H 221.443 2.53885 -0.203652 0
M  V30 2354 H 222.226 2.90123 -1.83531 0
M  V30 2355 N 224.671 0.411399 1.52136 0
M  V30 2356 C 225.919 -0.163322 2.01439 0
M  V30 2357 C 226.24 -1.45453 1.29879 0
M  V30 2358 O 225.51 -1.91225 0.4254 0
M  V30 2359 H 224.09 -0.0633447 0.744309 0
M  V30 2360 H 226.752 0.548161 1.87033 0
M  V30 2361 H 225.848 -0.357817 3.10042 0
M  V30 2362 N 226.149 -1.5696 0.141893 0
M  V30 2363 C 227.397 -1.95573 -0.509484 0
M  V30 2364 C 227.718 -1.02746 -1.65736 0
M  V30 2365 O 226.988 -0.0880311 -1.95702 0
M  V30 2366 H 225.568 -0.722115 -0.191205 0
M  V30 2367 H 228.23 -1.93697 0.216196 0
M  V30 2368 H 227.326 -2.99171 -0.889 0
M  V30 2369 N 227.627 0.131896 -1.57047 0
M  V30 2370 C 228.574 1.16236 -1.99393 0
M  V30 2371 C 229.544 1.41863 -0.863943 0
M  V30 2372 O 230.729 1.53946 -1.12718 0
M  V30 2373 C 227.869 2.48708 -2.39245 0
M  V30 2374 C 226.982 2.30127 -3.65603 0
M  V30 2375 C 226.117 3.55738 -3.94492 0
M  V30 2376 C 225.156 3.32259 -5.14073 0
M  V30 2377 N 224.293 4.50039 -5.38896 0
M  V30 2378 H 229.133 0.794251 -2.87221 0
M  V30 2379 H 226.67 0.380707 -1.42088 0
M  V30 2380 H 228.628 3.25969 -2.60384 0
M  V30 2381 H 227.258 2.83437 -1.54478 0
M  V30 2382 H 226.31 1.43845 -3.52154 0
M  V30 2383 H 227.622 2.08746 -4.5302 0
M  V30 2384 H 226.776 4.41423 -4.1621 0
M  V30 2385 H 225.515 3.80138 -3.05526 0
M  V30 2386 H 224.52 2.44963 -4.92212 0
M  V30 2387 H 225.745 3.09242 -6.04604 0
M  V30 2388 H 223.691 4.74584 -4.52886 0
M  V30 2389 H 223.608 4.31716 -6.2061 0
M  V30 2390 H 224.876 5.36895 -5.65123 0
M  V30 2391 N 229.106 1.52395 0.401703 0
M  V30 2392 C 230.355 1.66044 1.14509 0
M  V30 2393 C 230.668 0.400216 1.91462 0
M  V30 2394 O 231.874 0.416632 2.68284 0
M  V30 2395 C 230.33 2.93388 2.0845 0
M  V30 2396 C 229.938 4.26545 1.36978 0
M  V30 2397 C 231.682 3.16402 2.83001 0
M  V30 2398 C 229.589 5.45007 2.29611 0
M  V30 2399 H 228.519 0.618562 0.431158 0
M  V30 2400 H 231.17 1.78886 0.40892 0
M  V30 2401 H 229.552 2.74263 2.8565 0
M  V30 2402 H 230.726 4.56179 0.650916 0
M  V30 2403 H 229.041 4.09692 0.74438 0
M  V30 2404 H 231.638 4.02085 3.52465 0
M  V30 2405 H 231.981 2.30943 3.46368 0
M  V30 2406 H 232.514 3.36034 2.12898 0
M  V30 2407 H 229.253 6.32835 1.70879 0
M  V30 2408 H 228.773 5.19702 2.9945 0
M  V30 2409 H 230.452 5.7838 2.89974 0
M  V30 2410 N 230.584 -0.659388 1.43143 0
M  V30 2411 C 231.833 -1.41518 1.43721 0
M  V30 2412 C 232.146 -1.95499 0.0628176 0
M  V30 2413 O 233.352 -2.71446 -0.0539683 0
M  V30 2414 C 231.808 -2.5608 2.52885 0
M  V30 2415 C 231.416 -2.08733 3.96402 0
M  V30 2416 C 233.16 -3.3349 2.62649 0
M  V30 2417 C 231.067 -3.20469 4.97045 0
M  V30 2418 H 229.997 -0.531705 0.534608 0
M  V30 2419 H 232.648 -0.712343 1.69109 0
M  V30 2420 H 231.03 -3.28805 2.20688 0
M  V30 2421 H 232.204 -1.43059 4.3803 0
M  V30 2422 H 230.519 -1.44219 3.90627 0
M  V30 2423 H 233.116 -4.16734 3.35017 0
M  V30 2424 H 233.459 -3.8111 1.67513 0
M  V30 2425 H 233.992 -2.67842 2.94118 0
M  V30 2426 H 230.731 -2.77824 5.93712 0
M  V30 2427 H 230.251 -3.84874 4.60034 0
M  V30 2428 H 231.93 -3.85698 5.19467 0
M  V30 2429 N 232.062 -1.29571 -0.897171 0
M  V30 2430 C 233.309 -1.17689 -1.6479 0
M  V30 2431 C 233.637 0.27107 -1.92602 0
M  V30 2432 O 232.892 1.21193 -1.53658 0
M  V30 2433 C 233.191 -1.9382 -3.00281 0
M  V30 2434 C 232.857 -3.43522 -2.92068 0
M  V30 2435 C 231.519 -3.84348 -2.89535 0
M  V30 2436 C 233.871 -4.38906 -2.81089 0
M  V30 2437 C 231.199 -5.18869 -2.73846 0
M  V30 2438 C 233.551 -5.73521 -2.66939 0
M  V30 2439 C 232.215 -6.13601 -2.62774 0
M  V30 2440 H 231.485 -0.430654 -0.603008 0
M  V30 2441 H 234.132 -1.60536 -1.04404 0
M  V30 2442 H 232.437 -1.4357 -3.64547 0
M  V30 2443 H 234.134 -1.82028 -3.57305 0
M  V30 2444 H 230.724 -3.11072 -2.94842 0
M  V30 2445 H 234.908 -4.08315 -2.82121 0
M  V30 2446 H 230.164 -5.4903 -2.69027 0
M  V30 2447 H 234.338 -6.47078 -2.57416 0
M  V30 2448 H 231.965 -7.17786 -2.50375 0
M  V30 2449 N 233.54 1.10788 -1.12088 0
M  V30 2450 C 234.789 1.82036 -0.868659 0
M  V30 2451 C 235.102 1.85929 0.607426 0
M  V30 2452 O 236.308 2.53346 0.97613 0
M  V30 2453 C 234.764 3.26951 -1.50435 0
M  V30 2454 C 234.372 3.31367 -3.01496 0
M  V30 2455 C 236.116 4.03053 -1.33225 0
M  V30 2456 C 234.023 4.7072 -3.58017 0
M  V30 2457 H 232.953 0.682108 -0.321318 0
M  V30 2458 H 235.604 1.24618 -1.34694 0
M  V30 2459 H 233.986 3.84343 -0.953735 0
M  V30 2460 H 235.16 2.83819 -3.6302 0
M  V30 2461 H 233.475 2.6875 -3.18061 0
M  V30 2462 H 236.072 5.05981 -1.72878 0
M  V30 2463 H 236.415 4.15387 -0.275529 0
M  V30 2464 H 236.948 3.52066 -1.85188 0
M  V30 2465 H 233.687 4.63585 -4.63432 0
M  V30 2466 H 233.207 5.1865 -3.01268 0
M  V30 2467 H 234.886 5.39685 -3.56859 0
M  V30 2468 N 235.018 0.912232 1.28515 0
M  V30 2469 C 236.295 0.463597 1.90027 0
M  V30 2470 C 236.675 -1.05753 1.82701 0
M  V30 2471 O 236.023 -1.90492 1.26194 0
M  V30 2472 C 236.233 0.992253 3.34597 0
M  V30 2473 C 237.581 1.04344 4.11579 0
M  V30 2474 O 238.605 0.94079 3.43551 0
M  V30 2475 O 237.464 1.1995 5.33174 0
M  V30 2476 H 234.558 0.146666 0.813891 0
M  V30 2477 H 237.104 1.00292 1.36893 0
M  V30 2478 H 235.876 2.03623 3.34146 0
M  V30 2479 H 235.499 0.433672 3.95228 0
M  V30 2480 N 236.496 -1.42363 0.676048 0
M  V30 2481 C 237.724 -2.05859 0.207268 0
M  V30 2482 C 238.139 -1.50796 -1.13605 0
M  V30 2483 O 237.496 -0.648265 -1.70598 0
M  V30 2484 C 237.547 -3.61248 0.134975 0
M  V30 2485 O 237.268 -4.1427 1.42521 0
M  V30 2486 C 238.769 -4.41859 -0.357151 0
M  V30 2487 H 235.989 -0.663431 0.100503 0
M  V30 2488 H 238.533 -1.82479 0.923136 0
M  V30 2489 H 236.688 -3.83735 -0.531588 0
M  V30 2490 H 237.102 -5.0815 1.29939 0
M  V30 2491 H 238.576 -5.50847 -0.356641 0
M  V30 2492 H 239.053 -4.16536 -1.39264 0
M  V30 2493 H 239.659 -4.24392 0.27772 0
M  V30 2494 N 237.974 -0.419461 -1.51915 0
M  V30 2495 C 238.884 0.407528 -2.31033 0
M  V30 2496 C 239.9 1.04413 -1.3919 0
M  V30 2497 O 241.076 1.0434 -1.72265 0
M  V30 2498 C 238.141 1.50365 -3.12396 0
M  V30 2499 C 237.202 0.889029 -4.19994 0
M  V30 2500 C 236.435 1.93291 -4.97468 0
M  V30 2501 O 236.658 3.15259 -4.75361 0
M  V30 2502 O 235.592 1.53339 -5.8204 0
M  V30 2503 H 239.418 -0.237865 -3.02767 0
M  V30 2504 H 237.003 -0.182413 -1.48282 0
M  V30 2505 H 238.885 2.13975 -3.63032 0
M  V30 2506 H 237.56 2.13345 -2.43445 0
M  V30 2507 H 236.467 0.215353 -3.7348 0
M  V30 2508 H 237.8 0.302991 -4.91267 0
M  V30 2509 N 239.452 1.56882 -0.150215 0
M  V30 2510 C 240.4 2.18214 0.805313 0
M  V30 2511 C 241.394 1.14006 1.25296 0
M  V30 2512 O 242.6 1.3225 1.22107 0
M  V30 2513 H 238.975 0.698762 0.277913 0
M  V30 2514 H 240.946 2.97231 0.263862 0
M  V30 2515 C 239.695 2.82065 2.03309 0
M  V30 2516 H 239.018 3.61968 1.69763 0
M  V30 2517 H 240.458 3.28477 2.68103 0
M  V30 2518 C 238.917 1.80739 2.84315 0
M  V30 2519 O 239.447 1.27983 3.80767 0
M  V30 2520 N 237.653 1.4997 2.48913 0
M  V30 2521 H 237.2 1.93062 1.70542 0
M  V30 2522 H 237.158 0.824217 3.03404 0
M  V30 2523 N 240.93 -0.123565 1.57115 0
M  V30 2524 C 242.158 -0.846461 1.88793 0
M  V30 2525 C 242.573 -1.73652 0.740976 0
M  V30 2526 O 241.93 -1.80207 -0.288393 0
M  V30 2527 C 241.981 -1.6837 3.19897 0
M  V30 2528 O 241.702 -0.829477 4.30176 0
M  V30 2529 C 243.203 -2.51214 3.65248 0
M  V30 2530 H 240.423 -0.243573 0.625231 0
M  V30 2531 H 242.967 -0.109324 2.04208 0
M  V30 2532 H 241.122 -2.37364 3.06165 0
M  V30 2533 H 241.536 -1.40651 5.0529 0
M  V30 2534 H 243.01 -3.05497 4.59756 0
M  V30 2535 H 243.487 -3.28359 2.9168 0
M  V30 2536 H 244.093 -1.8747 3.81752 0
M  V30 2537 N 242.408 -1.52605 -0.393616 0
M  V30 2538 C 243.655 -1.67424 -1.1391 0
M  V30 2539 C 243.983 -0.411859 -1.90089 0
M  V30 2540 O 243.238 0.605626 -1.86093 0
M  V30 2541 C 243.537 -2.85721 -2.14705 0
M  V30 2542 C 243.203 -4.23342 -1.55218 0
M  V30 2543 C 241.865 -4.60771 -1.3872 0
M  V30 2544 C 244.217 -5.09041 -1.11924 0
M  V30 2545 C 241.545 -5.81563 -0.774689 0
M  V30 2546 C 243.897 -6.30452 -0.520853 0
M  V30 2547 C 242.561 -6.66617 -0.343134 0
M  V30 2548 H 241.831 -0.612648 -0.416826 0
M  V30 2549 H 244.478 -1.8674 -0.424315 0
M  V30 2550 H 242.783 -2.60803 -2.92385 0
M  V30 2551 H 244.48 -2.94382 -2.72288 0
M  V30 2552 H 241.07 -3.93855 -1.69045 0
M  V30 2553 H 245.254 -4.80695 -1.23473 0
M  V30 2554 H 240.51 -6.08196 -0.625154 0
M  V30 2555 H 244.684 -6.96175 -0.177065 0
M  V30 2556 H 242.311 -7.60083 0.133571 0
M  V30 2557 N 243.887 0.651787 -1.4349 0
M  V30 2558 C 245.303 0.96762 -1.26922 0
M  V30 2559 C 245.503 2.00602 -0.189982 0
M  V30 2560 O 244.559 2.48793 0.431107 0
M  V30 2561 C 245.872 1.45052 -2.63401 0
M  V30 2562 C 247.42 1.5671 -2.70945 0
M  V30 2563 C 247.895 2.0839 -4.07845 0
M  V30 2564 N 249.386 2.1569 -4.09917 0
M  V30 2565 C 250.121 2.56804 -5.12679 0
M  V30 2566 N 249.617 2.97203 -6.25813 0
M  V30 2567 N 251.41 2.56756 -5.00033 0
M  V30 2568 H 243.561 -0.0353158 -2.12371 0
M  V30 2569 H 245.824 0.0467858 -0.946845 0
M  V30 2570 H 245.53 0.761926 -3.43348 0
M  V30 2571 H 245.404 2.42529 -2.88894 0
M  V30 2572 H 247.791 2.2467 -1.9133 0
M  V30 2573 H 247.872 0.57662 -2.49216 0
M  V30 2574 H 247.516 1.41031 -4.87927 0
M  V30 2575 H 247.446 3.08271 -4.26938 0
M  V30 2576 H 249.937 1.87237 -3.28254 0
M  V30 2577 H 250.25 3.27328 -7.00055 0
M  V30 2578 H 248.595 2.95004 -6.29283 0
M  V30 2579 H 251.786 2.24572 -4.10713 0
M  V30 2580 H 251.959 2.88475 -5.80247 0
M  V30 2581 N 245.365 1.30045 0.890287 0
M  V30 2582 C 246.776 1.16738 1.45702 0
M  V30 2583 C 247.127 -0.233939 1.948 0
M  V30 2584 O 246.252 -1.13021 1.84541 0
M  V30 2585 C 246.847 2.11313 2.64825 0
M  V30 2586 C 245.406 2.02001 3.17604 0
M  V30 2587 C 244.553 2.01699 1.90296 0
M  V30 2588 H 247.504 1.42392 0.700726 0
M  V30 2589 H 247.525 1.69086 3.40867 0
M  V30 2590 H 247.037 3.13294 2.2906 0
M  V30 2591 H 245.138 1.03142 3.5804 0
M  V30 2592 H 245.251 2.90128 3.81264 0
M  V30 2593 H 243.615 1.46427 2.08402 0
M  V30 2594 H 244.398 3.05402 1.56795 0
M  V30 2595 N 246.843 -1.10192 1.12674 0
M  V30 2596 C 248.12 -1.78717 0.794965 0
M  V30 2597 C 248.5 -1.98628 -0.714853 0
M  V30 2598 O 247.848 -1.58135 -1.64941 0
M  V30 2599 C 248.058 -3.11546 1.5729 0
M  V30 2600 C 249.406 -3.86382 1.76052 0
M  V30 2601 O 250.43 -3.21274 1.53823 0
M  V30 2602 O 249.289 -5.03246 2.13087 0
M  V30 2603 H 246.383 -0.774702 0.289423 0
M  V30 2604 H 248.929 -1.16819 1.23091 0
M  V30 2605 H 247.701 -2.92489 2.59935 0
M  V30 2606 H 247.324 -3.81164 1.13137 0
M  V30 2607 N 248.321 -0.919034 -1.28029 0
M  V30 2608 C 249.737 -0.617972 -1.4715 0
M  V30 2609 C 249.937 0.835242 -1.83374 0
M  V30 2610 O 248.993 1.61388 -1.94191 0
M  V30 2611 C 250.306 -1.56041 -2.57044 0
M  V30 2612 C 251.854 -1.56769 -2.7091 0
M  V30 2613 C 252.329 -2.49688 -3.83953 0
M  V30 2614 N 253.82 -2.47845 -3.91314 0
M  V30 2615 C 254.555 -3.16437 -4.78179 0
M  V30 2616 N 254.051 -3.94376 -5.69596 0
M  V30 2617 N 255.844 -3.05498 -4.71834 0
M  V30 2618 H 247.995 -1.85866 -1.02798 0
M  V30 2619 H 250.258 -0.797506 -0.512531 0
M  V30 2620 H 249.964 -2.59671 -2.372 0
M  V30 2621 H 249.838 -1.29551 -3.54255 0
M  V30 2622 H 252.225 -0.538745 -2.90141 0
M  V30 2623 H 252.306 -1.87305 -1.74214 0
M  V30 2624 H 251.95 -3.52688 -3.65477 0
M  V30 2625 H 251.88 -2.16453 -4.80058 0
M  V30 2626 H 254.371 -1.91234 -3.25941 0
M  V30 2627 H 254.684 -4.43721 -6.32718 0
M  V30 2628 H 253.029 -3.98481 -5.69419 0
M  V30 2629 H 256.22 -2.44108 -3.99411 0
M  V30 2630 H 256.393 -3.59225 -5.39316 0
M  V30 2631 N 249.799 1.42003 -0.683588 0
M  V30 2632 C 250.729 2.33487 -0.024866 0
M  V30 2633 C 251.71 1.51163 0.779975 0
M  V30 2634 O 252.895 1.79739 0.735362 0
M  V30 2635 C 250.025 3.3487 0.920836 0
M  V30 2636 C 248.979 4.27414 0.223958 0
M  V30 2637 C 248.305 5.19074 1.2832 0
M  V30 2638 C 249.605 5.14445 -0.90242 0
M  V30 2639 H 251.299 2.88819 -0.788921 0
M  V30 2640 H 248.845 1.38873 -0.38083 0
M  V30 2641 H 250.798 3.97787 1.39081 0
M  V30 2642 H 249.522 2.77861 1.71642 0
M  V30 2643 H 248.181 3.65904 -0.225864 0
M  V30 2644 H 247.829 4.58387 2.071 0
M  V30 2645 H 247.529 5.81822 0.821995 0
M  V30 2646 H 249.053 5.84867 1.75392 0
M  V30 2647 H 250.467 5.70998 -0.513272 0
M  V30 2648 H 248.864 5.86072 -1.28997 0
M  V30 2649 H 249.934 4.52322 -1.74737 0
M  V30 2650 N 251.277 0.427512 1.51691 0
M  V30 2651 C 252.693 0.0792977 1.59403 0
M  V30 2652 C 252.893 -1.41035 1.43914 0
M  V30 2653 O 251.949 -2.17922 1.27539 0
M  V30 2654 C 253.262 0.590636 2.94842 0
M  V30 2655 C 254.81 0.550215 3.08126 0
M  V30 2656 C 255.285 1.03836 4.46074 0
M  V30 2657 N 256.776 0.995943 4.52366 0
M  V30 2658 C 257.511 1.34463 5.57411 0
M  V30 2659 N 257.007 1.76569 6.69922 0
M  V30 2660 N 258.8 1.26343 5.47717 0
M  V30 2661 H 250.951 1.39687 1.60004 0
M  V30 2662 H 253.214 0.575003 0.753708 0
M  V30 2663 H 252.92 1.63251 3.11516 0
M  V30 2664 H 252.794 0.0102061 3.77199 0
M  V30 2665 H 255.181 -0.482654 2.91126 0
M  V30 2666 H 255.262 1.16693 2.27632 0
M  V30 2667 H 254.906 2.06965 4.63819 0
M  V30 2668 H 254.836 0.398286 5.25092 0
M  V30 2669 H 257.327 0.68661 3.7161 0
M  V30 2670 H 257.64 2.01438 7.46085 0
M  V30 2671 H 255.985 1.80488 6.71155 0
M  V30 2672 H 259.176 0.933209 4.58703 0
M  V30 2673 H 259.349 1.53846 6.29472 0
M  V30 2674 N 252.755 -1.56801 0.158532 0
M  V30 2675 C 254.032 -1.88131 -0.535357 0
M  V30 2676 C 254.412 -1.06638 -1.82186 0
M  V30 2677 O 253.76 -0.156533 -2.27963 0
M  V30 2678 C 253.97 -3.39949 -0.789653 0
M  V30 2679 C 255.318 -4.09416 -1.12533 0
M  V30 2680 O 256.342 -3.45194 -0.878622 0
M  V30 2681 O 255.201 -5.22855 -1.59014 0
M  V30 2682 H 252.295 -0.780143 -0.27442 0
M  V30 2683 H 254.841 -1.68564 0.19601 0
M  V30 2684 H 253.613 -3.91115 0.120353 0
M  V30 2685 H 253.236 -3.65084 -1.57479 0
M  V30 2686 N 254.233 0.115231 -1.57178 0
M  V30 2687 C 255.482 0.820945 -1.84237 0
M  V30 2688 C 255.795 1.80866 -0.744761 0
M  V30 2689 O 257.001 2.56083 -0.901871 0
M  V30 2690 C 255.457 1.51072 -3.26658 0
M  V30 2691 C 255.065 0.563795 -4.44438 0
M  V30 2692 C 256.809 2.20134 -3.62962 0
M  V30 2693 C 254.716 1.25701 -5.77887 0
M  V30 2694 H 253.646 0.310328 -0.687177 0
M  V30 2695 H 256.297 0.0737134 -1.83352 0
M  V30 2696 H 254.679 2.30471 -3.22024 0
M  V30 2697 H 255.853 -0.197247 -4.60378 0
M  V30 2698 H 254.168 -0.0200638 -4.16395 0
M  V30 2699 H 256.765 2.72696 -4.59936 0
M  V30 2700 H 257.108 2.98107 -2.90582 0
M  V30 2701 H 257.641 1.47619 -3.69396 0
M  V30 2702 H 254.38 0.518493 -6.53446 0
M  V30 2703 H 253.9 1.98997 -5.65827 0
M  V30 2704 H 255.579 1.78915 -6.2177 0
M  V30 2705 N 255.711 1.52812 0.385517 0
M  V30 2706 C 256.674 1.77188 1.45386 0
M  V30 2707 C 257.674 0.641953 1.4743 0
M  V30 2708 O 258.864 0.910033 1.4854 0
M  V30 2709 C 255.996 1.87582 2.8465 0
M  V30 2710 H 257.189 2.72583 1.25054 0
M  V30 2711 H 254.742 1.43586 0.617467 0
M  V30 2712 H 255.477 0.941849 3.10322 0
M  V30 2713 H 255.262 2.69748 2.84567 0
M  V30 2714 H 256.752 2.08102 3.62054 0
M  V30 2715 N 257.189 -0.644168 1.43834 0
M  V30 2716 C 258.466 -1.40188 1.36406 0
M  V30 2717 C 258.846 -2.11094 0.0163124 0
M  V30 2718 O 258.194 -2.05426 -1.00062 0
M  V30 2719 C 258.404 -2.3791 2.55343 0
M  V30 2720 C 259.752 -3.01637 2.98832 0
M  V30 2721 O 260.776 -2.48237 2.55455 0
M  V30 2722 O 259.635 -3.98477 3.74003 0
M  V30 2723 H 256.729 -0.626773 0.539523 0
M  V30 2724 H 259.275 -0.670317 1.559 0
M  V30 2725 H 258.047 -1.84525 3.4506 0
M  V30 2726 H 257.67 -3.18503 2.37995 0
M  V30 2727 N 258.668 -1.30515 -0.883378 0
M  V30 2728 C 260.084 -1.08881 -1.16692 0
M  V30 2729 C 260.284 0.149409 -2.00945 0
M  V30 2730 O 259.34 0.84257 -2.38027 0
M  V30 2731 C 260.653 -2.35319 -1.87204 0
M  V30 2732 C 262.201 -2.40799 -1.99962 0
M  V30 2733 C 262.676 -3.67083 -2.73887 0
M  V30 2734 N 264.167 -3.679 -2.81432 0
M  V30 2735 C 264.902 -4.62303 -3.3921 0
M  V30 2736 N 264.398 -5.67052 -3.98025 0
M  V30 2737 N 266.191 -4.49845 -3.3704 0
M  V30 2738 H 258.342 -2.09951 -0.321633 0
M  V30 2739 H 260.605 -0.92556 -0.205043 0
M  V30 2740 H 260.311 -3.25689 -1.3274 0
M  V30 2741 H 260.185 -2.44089 -2.87577 0
M  V30 2742 H 262.572 -1.50907 -2.53597 0
M  V30 2743 H 262.653 -2.36003 -0.98673 0
M  V30 2744 H 262.297 -4.57334 -2.20925 0
M  V30 2745 H 262.227 -3.69141 -3.75556 0
M  V30 2746 H 264.718 -2.92171 -2.39676 0
M  V30 2747 H 265.031 -6.35184 -4.40183 0
M  V30 2748 H 263.376 -5.70842 -3.96439 0
M  V30 2749 H 266.567 -3.67194 -2.90321 0
M  V30 2750 H 266.74 -5.23597 -3.81772 0
M  V30 2751 N 260.146 1.09593 -1.13257 0
M  V30 2752 C 261.393 1.81734 -0.893257 0
M  V30 2753 C 261.721 1.8563 0.580656 0
M  V30 2754 O 260.976 1.31906 1.44566 0
M  V30 2755 C 261.275 3.27802 -1.42411 0
M  V30 2756 C 260.941 3.44041 -2.91456 0
M  V30 2757 C 259.603 3.48181 -3.3215 0
M  V30 2758 C 261.955 3.48719 -3.87356 0
M  V30 2759 C 259.283 3.54575 -4.67433 0
M  V30 2760 C 261.635 3.56648 -5.2248 0
M  V30 2761 C 260.299 3.59055 -5.62704 0
M  V30 2762 H 259.569 0.665011 -0.326866 0
M  V30 2763 H 262.216 1.2912 -1.41422 0
M  V30 2764 H 260.521 3.83042 -0.823795 0
M  V30 2765 H 262.218 3.82149 -1.21503 0
M  V30 2766 H 258.808 3.41502 -2.58987 0
M  V30 2767 H 262.992 3.44763 -3.57004 0
M  V30 2768 H 258.248 3.54725 -4.97976 0
M  V30 2769 H 262.422 3.59212 -5.96607 0
M  V30 2770 H 260.049 3.63763 -6.67518 0
M  V30 2771 N 261.624 0.925811 1.2754 0
M  V30 2772 C 262.572 0.413897 2.28888 0
M  V30 2773 C 263.566 -0.500779 1.61829 0
M  V30 2774 O 264.772 -0.38069 1.75928 0
M  V30 2775 H 261.147 0.115274 0.743112 0
M  V30 2776 H 263.118 1.28151 2.69481 0
M  V30 2777 C 261.867 -0.319792 3.46226 0
M  V30 2778 H 261.19 0.374846 3.98039 0
M  V30 2779 H 262.63 -0.642435 4.19105 0
M  V30 2780 C 261.089 -1.53209 3.00048 0
M  V30 2781 O 261.619 -2.6309 3.03557 0
M  V30 2782 N 259.825 -1.38326 2.55566 0
M  V30 2783 H 259.372 -0.489292 2.5291 0
M  V30 2784 H 259.33 -2.19564 2.25031 0
M  V30 2785 N 263.102 -1.41638 0.69111 0
M  V30 2786 C 264.348 -2.01598 0.220519 0
M  V30 2787 C 264.681 -1.54594 -1.17535 0
M  V30 2788 O 263.956 -0.755177 -1.79241 0
M  V30 2789 C 264.239 -3.59062 0.273243 0
M  V30 2790 C 264.092 -4.16203 1.70573 0
M  V30 2791 C 265.411 -4.38546 -0.369457 0
M  V30 2792 H 262.53 -0.732468 0.0816045 0
M  V30 2793 H 265.172 -1.68445 0.878986 0
M  V30 2794 H 263.322 -3.87435 -0.287411 0
M  V30 2795 H 264.994 -3.98722 2.31989 0
M  V30 2796 H 263.237 -3.71414 2.2413 0
M  V30 2797 H 263.908 -5.25358 1.69419 0
M  V30 2798 H 266.384 -4.1596 0.107977 0
M  V30 2799 H 265.26 -5.48069 -0.302002 0
M  V30 2800 H 265.521 -4.17662 -1.44951 0
M  V30 2801 N 264.58 -0.43555 -1.51462 0
M  V30 2802 C 265.857 0.191364 -1.94662 0
M  V30 2803 C 266.237 1.60254 -1.37411 0
M  V30 2804 O 265.585 2.2152 -0.560458 0
M  V30 2805 C 265.795 0.17091 -3.48581 0
M  V30 2806 C 267.143 0.377357 -4.2292 0
M  V30 2807 O 268.167 0.249104 -3.55328 0
M  V30 2808 O 267.026 0.63247 -5.42828 0
M  V30 2809 H 264.12 0.130932 -0.816569 0
M  V30 2810 H 266.666 -0.4934 -1.62369 0
M  V30 2811 H 265.438 -0.815738 -3.82703 0
M  V30 2812 H 265.061 0.898659 -3.87311 0
M  V30 2813 N 266.058 1.56714 -0.166846 0
M  V30 2814 C 267.008 2.14338 0.777382 0
M  V30 2815 C 267.992 1.07642 1.19591 0
M  V30 2816 O 269.184 1.33775 1.15902 0
M  V30 2817 C 266.313 2.78417 2.00846 0
M  V30 2818 C 265.399 3.92264 1.61212 0
M  V30 2819 N 265.79 4.97268 0.925104 0
M  V30 2820 C 264.088 4.03342 1.90346 0
M  V30 2821 C 264.789 5.77093 0.730627 0
M  V30 2822 N 263.765 5.2854 1.27067 0
M  V30 2823 H 267.567 2.9289 0.243466 0
M  V30 2824 H 265.081 1.62364 0.0339954 0
M  V30 2825 H 267.078 3.18073 2.69509 0
M  V30 2826 H 265.738 2.01344 2.54736 0
M  V30 2827 H 266.749 5.14601 0.583646 0
M  V30 2828 H 263.426 3.37368 2.45946 0
M  V30 2829 H 264.816 6.71638 0.187668 0
M  V30 2830 N 267.536 -0.106894 1.57237 0
M  V30 2831 C 268.813 -0.843526 1.76477 0
M  V30 2832 C 269.193 -1.97499 0.745464 0
M  V30 2833 O 268.541 -2.27357 -0.228306 0
M  V30 2834 C 268.751 -1.34903 3.21873 0
M  V30 2835 C 270.099 -1.79654 3.8472 0
M  V30 2836 O 271.123 -1.44554 3.2555 0
M  V30 2837 O 269.982 -2.44515 4.88748 0
M  V30 2838 H 267.076 -0.401468 0.723016 0
M  V30 2839 H 269.622 -0.0896927 1.69463 0
M  V30 2840 H 268.394 -0.53781 3.87586 0
M  V30 2841 H 268.017 -2.16522 3.33473 0
M  V30 2842 N 269.014 -1.53014 -0.377408 0
M  V30 2843 C 269.977 -1.77957 -1.44444 0
M  V30 2844 C 270.977 -0.649763 -1.47087 0
M  V30 2845 O 272.167 -0.917897 -1.48055 0
M  V30 2846 C 269.299 -1.89089 -2.83651 0
M  V30 2847 H 270.492 -2.73243 -1.23606 0
M  V30 2848 H 268.045 -1.43912 -0.609844 0
M  V30 2849 H 268.78 -0.958293 -3.09818 0
M  V30 2850 H 268.565 -2.71254 -2.83132 0
M  V30 2851 H 270.055 -2.1002 -3.60945 0
M  V30 2852 N 270.492 0.636531 -1.44174 0
M  V30 2853 C 271.738 1.39826 -1.4689 0
M  V30 2854 C 272.071 1.93947 -0.0990585 0
M  V30 2855 O 271.346 1.73325 0.882544 0
M  V30 2856 C 271.629 2.56751 -2.5249 0
M  V30 2857 C 271.482 2.08014 -3.98811 0
M  V30 2858 C 272.801 3.58946 -2.54649 0
M  V30 2859 H 269.92 0.507075 -0.53483 0
M  V30 2860 H 272.562 0.720188 -1.75822 0
M  V30 2861 H 270.712 3.14597 -2.2795 0
M  V30 2862 H 272.384 1.5504 -4.34466 0
M  V30 2863 H 270.627 1.39242 -4.10846 0
M  V30 2864 H 271.298 2.92169 -4.68339 0
M  V30 2865 H 273.774 3.1089 -2.76563 0
M  V30 2866 H 272.65 4.38286 -3.3045 0
M  V30 2867 H 272.911 4.12655 -1.58646 0
M  V30 2868 N 271.97 1.30982 0.876444 0
M  V30 2869 C 272.9 1.20668 1.99903 0
M  V30 2870 C 273.881 0.095354 1.69833 0
M  V30 2871 O 275.066 0.27885 1.92188 0
M  V30 2872 C 272.196 0.90655 3.3526 0
M  V30 2873 C 271.15 1.97675 3.79617 0
M  V30 2874 C 270.476 1.52943 5.1236 0
M  V30 2875 C 271.776 3.389 3.97422 0
M  V30 2876 H 273.47 2.14586 2.0879 0
M  V30 2877 H 271.016 1.03308 1.00317 0
M  V30 2878 H 272.969 0.821025 4.13324 0
M  V30 2879 H 271.693 -0.0682969 3.26529 0
M  V30 2880 H 270.352 2.05205 3.03787 0
M  V30 2881 H 270 0.54262 5.00065 0
M  V30 2882 H 269.7 2.24532 5.43009 0
M  V30 2883 H 271.224 1.45786 5.92941 0
M  V30 2884 H 272.638 3.34081 4.659 0
M  V30 2885 H 271.035 4.0865 4.3946 0
M  V30 2886 H 272.105 3.80163 3.01006 0
M  V30 2887 N 273.449 -1.08991 1.13837 0
M  V30 2888 C 274.726 -1.77863 0.813876 0
M  V30 2889 C 275.106 -1.99375 -0.693746 0
M  V30 2890 O 274.454 -1.59875 -1.63255 0
M  V30 2891 C 274.664 -3.0986 1.60586 0
M  V30 2892 C 276.012 -3.84493 1.8014 0
M  V30 2893 O 277.036 -3.19624 1.57222 0
M  V30 2894 O 275.895 -5.00957 2.18413 0
M  V30 2895 H 272.989 -0.771589 0.297624 0
M  V30 2896 H 275.535 -1.15507 1.24323 0
M  V30 2897 H 274.307 -2.89715 2.63022 0
M  V30 2898 H 273.93 -3.79942 1.17173 0
M  V30 2899 N 274.927 -0.932562 -1.27047 0
M  V30 2900 C 275.875 -0.42603 -2.28665 0
M  V30 2901 C 276.869 0.49219 -1.62092 0
M  V30 2902 O 278.075 0.371355 -1.76128 0
M  V30 2903 H 274.45 -0.119213 -0.742491 0
M  V30 2904 H 276.421 -1.29579 -2.68797 0
M  V30 2905 C 275.17 0.301426 -3.46391 0
M  V30 2906 H 274.493 -0.39595 -3.97834 0
M  V30 2907 H 275.933 0.6202 -4.1944 0
M  V30 2908 C 274.392 1.51616 -3.00856 0
M  V30 2909 O 274.922 2.61476 -3.04948 0
M  V30 2910 N 273.128 1.36969 -2.56296 0
M  V30 2911 H 272.675 0.475873 -2.53166 0
M  V30 2912 H 272.633 2.18368 -2.26192 0
M  V30 2913 N 276.405 1.4127 -0.698611 0
M  V30 2914 C 277.651 2.01478 -0.231207 0
M  V30 2915 C 277.984 1.55215 1.16713 0
M  V30 2916 O 277.259 0.764672 1.78838 0
M  V30 2917 C 277.542 3.58912 -0.292281 0
M  V30 2918 C 277.395 4.15293 -1.72778 0
M  V30 2919 C 278.714 4.38736 0.346194 0
M  V30 2920 H 275.833 0.732025 -0.0854878 0
M  V30 2921 H 278.475 1.67977 -0.887906 0
M  V30 2922 H 276.625 3.87582 0.26686 0
M  V30 2923 H 278.297 3.97486 -2.341 0
M  V30 2924 H 276.54 3.7022 -2.26096 0
M  V30 2925 H 277.211 5.24452 -1.72202 0
M  V30 2926 H 279.687 4.15897 -0.130035 0
M  V30 2927 H 278.563 5.48221 0.272932 0
M  V30 2928 H 278.824 4.18425 1.42734 0
M  V30 2929 N 277.883 0.443576 1.51229 0
M  V30 2930 C 278.813 -0.355142 2.30783 0
M  V30 2931 C 279.794 -1.0154 1.36468 0
M  V30 2932 O 280.979 -1.01785 1.65389 0
M  V30 2933 C 278.109 -1.45312 3.15439 0
M  V30 2934 C 277.063 -0.916002 4.18083 0
M  V30 2935 C 276.389 -2.1102 4.91299 0
M  V30 2936 C 277.689 0.0538602 5.22272 0
M  V30 2937 H 279.383 0.308767 2.97804 0
M  V30 2938 H 276.929 0.149937 1.43217 0
M  V30 2939 H 278.882 -2.01914 3.69876 0
M  V30 2940 H 277.606 -2.14541 2.46252 0
M  V30 2941 H 276.265 -0.372145 3.64706 0
M  V30 2942 H 275.913 -2.78882 4.18609 0
M  V30 2943 H 275.613 -1.75717 5.60712 0
M  V30 2944 H 277.137 -2.68164 5.48562 0
M  V30 2945 H 278.551 -0.422069 5.71744 0
M  V30 2946 H 276.948 0.319776 5.99247 0
M  V30 2947 H 278.018 0.98858 4.74716 0
M  V30 2948 N 279.361 -1.56624 0.175154 0
M  V30 2949 C 280.591 -2.01082 -0.474283 0
M  V30 2950 C 280.999 -1.05447 -1.57091 0
M  V30 2951 O 280.342 -0.0480595 -1.83637 0
M  V30 2952 C 280.404 -3.41963 -1.10911 0
M  V30 2953 C 280.068 -4.56742 -0.153666 0
M  V30 2954 C 281.065 -5.16076 0.629448 0
M  V30 2955 C 278.75 -5.02277 -0.0483776 0
M  V30 2956 C 280.744 -6.19377 1.50501 0
M  V30 2957 C 278.431 -6.05427 0.830768 0
M  V30 2958 C 279.429 -6.63849 1.60605 0
M  V30 2959 O 279.117 -7.64998 2.47049 0
M  V30 2960 H 278.849 -0.664261 -0.125432 0
M  V30 2961 H 281.403 -2.03549 0.275163 0
M  V30 2962 H 279.633 -3.36422 -1.90676 0
M  V30 2963 H 281.322 -3.70352 -1.66114 0
M  V30 2964 H 282.088 -4.81776 0.558297 0
M  V30 2965 H 277.967 -4.56513 -0.641611 0
M  V30 2966 H 281.511 -6.64906 2.1106 0
M  V30 2967 H 277.408 -6.39151 0.903107 0
M  V30 2968 H 278.176 -7.82336 2.40607 0
M  V30 2969 N 280.839 0.0985539 -1.57292 0
M  V30 2970 C 281.802 1.10402 -2.00858 0
M  V30 2971 C 282.802 1.33146 -0.901593 0
M  V30 2972 O 283.992 1.29318 -1.16716 0
M  V30 2973 C 281.124 2.45394 -2.36632 0
M  V30 2974 H 282.317 0.729099 -2.90902 0
M  V30 2975 H 279.87 0.343495 -1.52479 0
M  V30 2976 H 280.605 2.87769 -1.49531 0
M  V30 2977 H 280.39 2.30235 -3.17387 0
M  V30 2978 H 281.88 3.17718 -2.71007 0
M  V30 2979 N 282.317 1.53212 0.369288 0
M  V30 2980 C 283.733 1.42902 0.710712 0
M  V30 2981 C 283.933 0.565135 1.93413 0
M  V30 2982 O 282.989 0.0461484 2.52458 0
M  V30 2983 C 284.302 2.86042 0.927382 0
M  V30 2984 C 285.85 2.9565 1.02762 0
M  V30 2985 C 286.325 4.39843 1.27679 0
M  V30 2986 N 287.816 4.43256 1.34457 0
M  V30 2987 C 288.551 5.51929 1.55439 0
M  V30 2988 N 288.047 6.70655 1.73762 0
M  V30 2989 N 289.84 5.39502 1.57779 0
M  V30 2990 H 281.991 2.07888 -0.435457 0
M  V30 2991 H 284.254 0.938661 -0.132739 0
M  V30 2992 H 283.96 3.51557 0.100287 0
M  V30 2993 H 283.834 3.29472 1.83653 0
M  V30 2994 H 286.221 2.30291 1.84527 0
M  V30 2995 H 286.302 2.5562 0.0959504 0
M  V30 2996 H 285.946 5.05774 0.464175 0
M  V30 2997 H 285.876 4.77443 2.22162 0
M  V30 2998 H 288.367 3.5769 1.21926 0
M  V30 2999 H 288.68 7.49248 1.89335 0
M  V30 3000 H 287.025 6.73648 1.70948 0
M  V30 3001 H 290.216 4.45713 1.43029 0
M  V30 3002 H 290.389 6.2426 1.7379 0
M  V30 3003 N 283.795 -0.628877 1.44509 0
M  V30 3004 C 284.758 -1.72263 1.51188 0
M  V30 3005 C 285.758 -1.55907 0.39367 0
M  V30 3006 O 286.948 -1.61361 0.656377 0
M  V30 3007 C 284.08 -3.11365 1.38798 0
M  V30 3008 H 285.273 -1.67714 2.4862 0
M  V30 3009 H 282.826 -0.842737 1.31634 0
M  V30 3010 H 283.561 -3.21507 0.424693 0
M  V30 3011 H 283.346 -3.24644 2.19884 0
M  V30 3012 H 284.836 -3.91075 1.46458 0
M  V30 3013 N 285.273 -1.31445 -0.869486 0
M  V30 3014 C 286.503 -1.23942 -1.65294 0
M  V30 3015 C 286.911 0.197561 -1.88166 0
M  V30 3016 O 286.254 1.14019 -1.44033 0
M  V30 3017 C 286.316 -1.91385 -3.04322 0
M  V30 3018 C 285.98 -3.40726 -3.04557 0
M  V30 3019 C 286.977 -4.36464 -2.82481 0
M  V30 3020 C 284.662 -3.82425 -3.25663 0
M  V30 3021 C 286.656 -5.71876 -2.8149 0
M  V30 3022 C 284.343 -5.1795 -3.243 0
M  V30 3023 C 285.341 -6.12486 -3.02241 0
M  V30 3024 O 285.029 -7.45534 -3.00724 0
M  V30 3025 H 284.761 -0.429459 -0.522054 0
M  V30 3026 H 287.315 -1.73873 -1.0935 0
M  V30 3027 H 285.545 -1.36004 -3.61994 0
M  V30 3028 H 287.234 -1.77791 -3.64891 0
M  V30 3029 H 288 -4.05576 -2.65956 0
M  V30 3030 H 283.879 -3.09274 -3.41863 0
M  V30 3031 H 287.423 -6.45638 -2.64191 0
M  V30 3032 H 283.32 -5.48473 -3.40365 0
M  V30 3033 H 284.088 -7.54713 -3.16782 0
M  V30 3034 N 286.751 1.08385 -1.14413 0
M  V30 3035 C 287.979 1.84517 -0.936001 0
M  V30 3036 C 288.394 1.81626 0.515503 0
M  V30 3037 O 287.751 1.22008 1.35721 0
M  V30 3038 C 287.802 3.32049 -1.42918 0
M  V30 3039 O 287.523 3.34951 -2.82381 0
M  V30 3040 C 289.024 4.24986 -1.26103 0
M  V30 3041 H 286.244 0.582491 -0.333084 0
M  V30 3042 H 288.788 1.36885 -1.5193 0
M  V30 3043 H 286.943 3.7707 -0.888641 0
M  V30 3044 H 287.357 4.27048 -3.04517 0
M  V30 3045 H 288.831 5.26615 -1.6547 0
M  V30 3046 H 289.308 4.38726 -0.20392 0
M  V30 3047 H 289.914 3.85791 -1.79012 0
M  V30 3048 N 288.23 0.939286 1.26551 0
M  V30 3049 C 289.455 0.602008 1.98471 0
M  V30 3050 C 289.88 -0.815624 1.69497 0
M  V30 3051 O 289.238 -1.54912 0.941905 0
M  V30 3052 C 289.286 0.848407 3.50477 0
M  V30 3053 O 288.39 -0.0804009 4.12322 0
M  V30 3054 H 287.731 0.23049 0.622712 0
M  V30 3055 H 290.261 1.2617 1.61066 0
M  V30 3056 H 290.271 0.768553 4.00696 0
M  V30 3057 H 288.946 1.88171 3.70897 0
M  V30 3058 H 287.523 0.0503508 3.72866 0
M  V30 3059 N 289.708 -1.40897 0.706093 0
M  V30 3060 C 290.618 -2.3455 0.0482286 0
M  V30 3061 C 291.634 -1.56796 -0.754396 0
M  V30 3062 O 292.81 -1.89228 -0.689538 0
M  V30 3063 C 289.875 -3.35625 -0.869303 0
M  V30 3064 C 288.936 -4.29261 -0.0576994 0
M  V30 3065 C 288.169 -5.25508 -0.931531 0
M  V30 3066 O 288.392 -5.27472 -2.17092 0
M  V30 3067 O 287.326 -6.00727 -0.375587 0
M  V30 3068 H 291.152 -2.92407 0.820476 0
M  V30 3069 H 288.737 -1.4193 0.4665 0
M  V30 3070 H 290.619 -3.97635 -1.39514 0
M  V30 3071 H 289.294 -2.80196 -1.62086 0
M  V30 3072 H 288.201 -3.70566 0.512988 0
M  V30 3073 H 289.534 -4.87817 0.655426 0
M  V30 3074 N 291.186 -0.45159 -1.50991 0
M  V30 3075 C 292.136 0.370861 -2.24964 0
M  V30 3076 C 293.12 0.978074 -1.2776 0
M  V30 3077 O 294.312 0.893854 -1.52772 0
M  V30 3078 C 291.441 1.46344 -3.10545 0
M  V30 3079 C 290.527 0.864924 -4.15187 0
M  V30 3080 N 290.918 -0.00311354 -5.058 0
M  V30 3081 C 289.216 1.13099 -4.31422 0
M  V30 3082 C 289.917 -0.340772 -5.80701 0
M  V30 3083 N 288.893 0.279203 -5.42883 0
M  V30 3084 H 292.695 -0.298134 -2.92384 0
M  V30 3085 H 290.209 -0.264528 -1.60231 0
M  V30 3086 H 292.206 2.06565 -3.62128 0
M  V30 3087 H 290.866 2.13463 -2.4467 0
M  V30 3088 H 291.877 -0.37058 -5.16572 0
M  V30 3089 H 288.554 1.79861 -3.76771 0
M  V30 3090 H 289.944 -1.048 -6.63677 0
M  V30 3091 N 292.664 1.56529 -0.183458 0
M  V30 3092 C 293.596 2.15747 0.773697 0
M  V30 3093 C 294.609 1.1162 1.1851 0
M  V30 3094 O 295.798 1.3876 1.12285 0
M  V30 3095 C 292.898 2.6952 2.05456 0
M  V30 3096 C 292.071 3.98429 1.8048 0
M  V30 3097 C 291.13 4.37145 2.92901 0
M  V30 3098 O 290.156 5.04791 2.6301 0
M  V30 3099 N 291.358 3.99695 4.2098 0
M  V30 3100 H 294.123 2.98505 0.26736 0
M  V30 3101 H 291.684 1.619 -0.0010878 0
M  V30 3102 H 293.676 2.92412 2.79781 0
M  V30 3103 H 292.246 1.91282 2.47245 0
M  V30 3104 H 291.466 3.8379 0.899947 0
M  V30 3105 H 292.754 4.82597 1.61175 0
M  V30 3106 H 292.152 3.4526 4.48121 0
M  V30 3107 H 290.709 4.27562 4.9197 0
M  V30 3108 N 294.142 -0.090211 1.57342 0
M  V30 3109 C 295.075 -1.14035 1.97664 0
M  V30 3110 C 296.053 -1.38576 0.850616 0
M  V30 3111 O 297.237 -1.52255 1.11134 0
M  V30 3112 C 294.364 -2.48854 2.2976 0
M  V30 3113 C 293.41 -2.40564 3.52181 0
M  V30 3114 S 294.243 -1.81745 5.03715 0
M  V30 3115 C 295.399 -3.18178 5.38993 0
M  V30 3116 H 295.632 -0.796636 2.86428 0
M  V30 3117 H 293.165 -0.298072 1.51496 0
M  V30 3118 H 295.123 -3.26413 2.48927 0
M  V30 3119 H 293.784 -2.80393 1.41558 0
M  V30 3120 H 292.977 -3.39942 3.72096 0
M  V30 3121 H 292.579 -1.71135 3.32549 0
M  V30 3122 H 294.871 -4.14461 5.35937 0
M  V30 3123 H 295.814 -3.03062 6.39968 0
M  V30 3124 H 296.222 -3.17935 4.66452 0
M  V30 3125 N 295.62 -1.53406 -0.361157 0
M  V30 3126 C 296.53 -1.83122 -1.4664 0
M  V30 3127 C 297.546 -0.719943 -1.58407 0
M  V30 3128 O 298.722 -1.01046 -1.74218 0
M  V30 3129 C 295.787 -2.01891 -2.81853 0
M  V30 3130 C 294.848 -3.25784 -2.79577 0
M  V30 3131 C 294.081 -3.43648 -4.0834 0
M  V30 3132 O 294.304 -2.65714 -5.0473 0
M  V30 3133 O 293.238 -4.37018 -4.13883 0
M  V30 3134 H 297.064 -2.7703 -1.24451 0
M  V30 3135 H 294.649 -1.38841 -0.551678 0
M  V30 3136 H 296.531 -2.15782 -3.61962 0
M  V30 3137 H 295.206 -1.11173 -3.0401 0
M  V30 3138 H 294.113 -3.17312 -1.98151 0
M  V30 3139 H 295.446 -4.16439 -2.62373 0
M  V30 3140 N 297.098 0.621204 -1.44841 0
M  V30 3141 C 298.028 1.74366 -1.55303 0
M  V30 3142 C 299.009 1.65199 -0.405385 0
M  V30 3143 O 300.194 1.83807 -0.626787 0
M  V30 3144 C 297.324 3.12931 -1.50637 0
M  V30 3145 C 296.278 3.36896 -2.63979 0
M  V30 3146 C 295.604 4.75594 -2.44366 0
M  V30 3147 C 296.904 3.28483 -4.06074 0
M  V30 3148 H 298.598 1.65867 -2.49256 0
M  V30 3149 H 296.144 0.796558 -1.19962 0
M  V30 3150 H 298.097 3.9124 -1.56555 0
M  V30 3151 H 296.821 3.22237 -0.532057 0
M  V30 3152 H 295.48 2.60972 -2.57467 0
M  V30 3153 H 295.128 4.81616 -1.45105 0
M  V30 3154 H 294.828 4.92586 -3.20364 0
M  V30 3155 H 296.352 5.5612 -2.52117 0
M  V30 3156 H 297.766 3.96684 -4.13902 0
M  V30 3157 H 296.163 3.57008 -4.82354 0
M  V30 3158 H 297.233 2.26133 -4.28943 0
M  V30 3159 N 298.576 1.31904 0.862503 0
M  V30 3160 C 299.506 1.22782 1.98612 0
M  V30 3161 C 300.487 0.113362 1.69722 0
M  V30 3162 O 301.672 0.299218 1.91881 0
M  V30 3163 C 298.802 0.942058 3.34279 0
M  V30 3164 C 297.756 2.0169 3.77499 0
M  V30 3165 C 297.082 1.58369 5.10709 0
M  V30 3166 C 298.382 3.43096 3.93805 0
M  V30 3167 H 300.076 2.16788 2.06502 0
M  V30 3168 H 297.622 1.04366 0.992154 0
M  V30 3169 H 299.575 0.864818 4.1243 0
M  V30 3170 H 298.299 -0.0336603 3.26583 0
M  V30 3171 H 296.958 2.08416 3.01593 0
M  V30 3172 H 296.606 0.595628 4.99461 0
M  V30 3173 H 296.306 2.30279 5.40597 0
M  V30 3174 H 297.83 1.52067 5.91361 0
M  V30 3175 H 299.244 3.39003 4.62331 0
M  V30 3176 H 297.641 4.13288 4.35101 0
M  V30 3177 H 298.711 3.83334 2.96957 0
M  V30 3178 N 300.054 -1.07777 1.14986 0
M  V30 3179 C 301.331 -1.7699 0.832695 0
M  V30 3180 C 301.711 -2.001 -0.672561 0
M  V30 3181 O 301.059 -1.61598 -1.6155 0
M  V30 3182 C 301.269 -3.08139 1.63863 0
M  V30 3183 C 302.617 -3.8256 1.84208 0
M  V30 3184 O 303.641 -3.17939 1.60603 0
M  V30 3185 O 302.5 -4.98612 2.23714 0
M  V30 3186 H 299.594 -0.768389 0.305791 0
M  V30 3187 H 302.14 -1.14182 1.25541 0
M  V30 3188 H 300.912 -2.86909 2.6608 0
M  V30 3189 H 300.535 -3.78678 1.21197 0
M  V30 3190 N 301.532 -0.945985 -1.26051 0
M  V30 3191 C 302.762 -0.612136 -1.97323 0
M  V30 3192 C 303.17 0.818171 -1.70595 0
M  V30 3193 O 302.513 1.55777 -0.973613 0
M  V30 3194 C 302.575 -0.780347 -3.50929 0
M  V30 3195 C 302.239 -2.18619 -4.01317 0
M  V30 3196 C 303.236 -3.16209 -4.12683 0
M  V30 3197 C 300.921 -2.50805 -4.35203 0
M  V30 3198 C 302.915 -4.44085 -4.57238 0
M  V30 3199 C 300.602 -3.78912 -4.79446 0
M  V30 3200 C 301.6 -4.75365 -4.90425 0
M  V30 3201 O 301.288 -6.01191 -5.3369 0
M  V30 3202 H 301.02 -0.229134 -0.635982 0
M  V30 3203 H 303.574 -1.27036 -1.61404 0
M  V30 3204 H 301.804 -0.0649864 -3.86645 0
M  V30 3205 H 303.493 -0.448842 -4.03411 0
M  V30 3206 H 304.259 -2.92668 -3.86744 0
M  V30 3207 H 300.138 -1.76463 -4.2589 0
M  V30 3208 H 303.682 -5.19373 -4.65723 0
M  V30 3209 H 299.579 -4.02265 -5.0483 0
M  V30 3210 H 300.347 -6.04442 -5.51899 0
M  V30 3211 N 303.011 1.40521 -0.713556 0
M  V30 3212 C 304.257 2.01221 -0.252564 0
M  V30 3213 C 304.59 1.56444 1.1506 0
M  V30 3214 O 303.865 0.783597 1.78017 0
M  V30 3215 C 304.148 3.58582 -0.330332 0
M  V30 3216 C 304.001 4.13437 -1.77173 0
M  V30 3217 C 305.32 4.39079 0.299641 0
M  V30 3218 H 302.439 0.731077 -0.0932471 0
M  V30 3219 H 305.081 1.67026 -0.905673 0
M  V30 3220 H 303.231 3.87844 0.225737 0
M  V30 3221 H 304.903 3.9498 -2.38303 0
M  V30 3222 H 303.146 3.67801 -2.3001 0
M  V30 3223 H 303.817 5.22597 -1.77755 0
M  V30 3224 H 306.293 4.15735 -0.174139 0
M  V30 3225 H 305.169 5.4848 0.214771 0
M  V30 3226 H 305.43 4.19915 1.38288 0
M  V30 3227 N 304.489 0.459591 1.5075 0
M  V30 3228 C 305.452 -0.329093 2.26825 0
M  V30 3229 C 306.452 -0.930481 1.31144 0
M  V30 3230 O 307.642 -0.801453 1.54669 0
M  V30 3231 C 304.774 -1.46768 3.07688 0
M  V30 3232 H 305.967 0.337924 2.9799 0
M  V30 3233 H 303.52 0.213336 1.54837 0
M  V30 3234 H 304.255 -2.17009 2.40993 0
M  V30 3235 H 304.04 -1.04238 3.77991 0
M  V30 3236 H 305.53 -2.02433 3.65254 0
M  V30 3237 N 305.967 -1.56429 0.191757 0
M  V30 3238 C 306.93 -2.17707 -0.716688 0
M  V30 3239 C 307.93 -1.13061 -1.14341 0
M  V30 3240 O 309.12 -1.38464 -1.05704 0
M  V30 3241 C 306.252 -2.77644 -1.97804 0
M  V30 3242 H 307.445 -2.99342 -0.1829 0
M  V30 3243 H 304.998 -1.56193 -0.0578566 0
M  V30 3244 H 305.733 -1.99799 -2.55443 0
M  V30 3245 H 305.518 -3.54246 -1.68083 0
M  V30 3246 H 307.008 -3.24708 -2.62592 0
M  V30 3247 N 307.445 0.0818655 -1.57387 0
M  V30 3248 C 308.392 1.09834 -2.0299 0
M  V30 3249 C 309.362 1.39043 -0.908639 0
M  V30 3250 O 310.547 1.50282 -1.17559 0
M  V30 3251 C 307.687 2.40971 -2.47037 0
M  V30 3252 C 306.8 2.18379 -3.7274 0
M  V30 3253 C 305.935 3.43008 -4.0561 0
M  V30 3254 C 304.974 3.15736 -5.24383 0
M  V30 3255 N 304.111 4.32667 -5.52941 0
M  V30 3256 H 308.951 0.702472 -2.89602 0
M  V30 3257 H 306.488 0.33531 -1.43227 0
M  V30 3258 H 308.446 3.1752 -2.70623 0
M  V30 3259 H 307.076 2.78379 -1.63417 0
M  V30 3260 H 306.128 1.32569 -3.56552 0
M  V30 3261 H 307.44 1.94227 -4.59431 0
M  V30 3262 H 306.594 4.27958 -4.30043 0
M  V30 3263 H 305.333 3.70225 -3.17466 0
M  V30 3264 H 304.338 2.2918 -4.99757 0
M  V30 3265 H 305.563 2.8985 -6.14136 0
M  V30 3266 H 303.509 4.59935 -4.67756 0
M  V30 3267 H 303.426 4.11753 -6.34031 0
M  V30 3268 H 304.694 5.18644 -5.81918 0
M  V30 3269 N 308.923 1.53595 0.353017 0
M  V30 3270 C 310.17 1.70385 1.09431 0
M  V30 3271 C 310.498 0.462113 1.88931 0
M  V30 3272 O 309.753 -0.556074 1.87633 0
M  V30 3273 C 310.052 2.91313 2.07054 0
M  V30 3274 C 309.718 4.27308 1.43939 0
M  V30 3275 C 308.38 4.64287 1.26454 0
M  V30 3276 C 310.732 5.11829 0.983883 0
M  V30 3277 C 308.06 5.83412 0.620226 0
M  V30 3278 C 310.412 6.31611 0.353516 0
M  V30 3279 C 309.076 6.67293 0.166272 0
M  V30 3280 H 308.346 0.623484 0.400436 0
M  V30 3281 H 310.993 1.87799 0.374655 0
M  V30 3282 H 309.298 2.68463 2.85368 0
M  V30 3283 H 310.995 3.01497 2.64387 0
M  V30 3284 H 307.585 3.98198 1.58543 0
M  V30 3285 H 311.769 4.838 1.10685 0
M  V30 3286 H 307.025 6.09639 0.463681 0
M  V30 3287 H 311.199 6.964 -0.00757555 0
M  V30 3288 H 308.826 7.59461 -0.335047 0
M  V30 3289 N 310.401 -0.613514 1.45168 0
M  V30 3290 C 311.351 -1.71871 1.49815 0
M  V30 3291 C 312.335 -1.56774 0.362021 0
M  V30 3292 O 313.527 -1.66212 0.608493 0
M  V30 3293 C 310.656 -3.1061 1.46207 0
M  V30 3294 C 309.742 -3.31114 2.64999 0
M  V30 3295 N 310.133 -3.21904 3.90143 0
M  V30 3296 C 308.431 -3.61966 2.6057 0
M  V30 3297 C 309.132 -3.43577 4.69393 0
M  V30 3298 N 308.108 -3.67287 4.00751 0
M  V30 3299 H 311.91 -1.63235 2.444 0
M  V30 3300 H 309.424 -0.816577 1.40377 0
M  V30 3301 H 311.421 -3.8989 1.4762 0
M  V30 3302 H 310.081 -3.20399 0.52673 0
M  V30 3303 H 311.092 -3.00436 4.21852 0
M  V30 3304 H 307.769 -3.78629 1.75916 0
M  V30 3305 H 309.159 -3.41901 5.78406 0
M  V30 3306 N 311.879 -1.3236 -0.855495 0
M  V30 3307 C 312.789 -1.23221 -1.99634 0
M  V30 3308 C 313.805 -0.145983 -1.73387 0
M  V30 3309 O 314.981 -0.366502 -1.98037 0
M  V30 3310 C 312.046 -0.954782 -3.33294 0
M  V30 3311 C 311.107 -2.12937 -3.72769 0
M  V30 3312 C 310.34 -1.86508 -5.00051 0
M  V30 3313 O 310.563 -0.807231 -5.64659 0
M  V30 3314 O 309.497 -2.72591 -5.36636 0
M  V30 3315 H 313.323 -2.19126 -2.1028 0
M  V30 3316 H 310.908 -1.12241 -0.986018 0
M  V30 3317 H 312.79 -0.816519 -4.13414 0
M  V30 3318 H 311.465 -0.0258854 -3.2369 0
M  V30 3319 H 310.372 -2.3231 -2.93228 0
M  V30 3320 H 311.705 -3.04102 -3.87018 0
M  V30 3321 N 313.357 1.07166 -1.15556 0
M  V30 3322 C 314.267 2.17947 -0.868116 0
M  V30 3323 C 315.283 1.73297 0.156297 0
M  V30 3324 O 316.459 2.01392 -0.0182327 0
M  V30 3325 C 313.524 3.44789 -0.36355 0
M  V30 3326 C 312.585 4.03996 -1.45209 0
M  V30 3327 C 311.818 5.24783 -0.971508 0
M  V30 3328 O 312.041 5.70109 0.182194 0
M  V30 3329 O 310.975 5.75715 -1.75603 0
M  V30 3330 H 314.801 2.4503 -1.79427 0
M  V30 3331 H 312.386 1.16539 -0.934824 0
M  V30 3332 H 314.268 4.21307 -0.0887113 0
M  V30 3333 H 312.943 3.19253 0.534708 0
M  V30 3334 H 311.85 3.29009 -1.78056 0
M  V30 3335 H 313.183 4.33808 -2.32533 0
M  V30 3336 N 314.835 0.952656 1.25548 0
M  V30 3337 C 315.798 0.475794 2.24207 0
M  V30 3338 C 316.798 -0.419428 1.55234 0
M  V30 3339 O 317.988 -0.216994 1.72843 0
M  V30 3340 C 315.12 -0.312814 3.39462 0
M  V30 3341 H 316.313 1.34779 2.67908 0
M  V30 3342 H 313.866 0.735739 1.37901 0
M  V30 3343 H 314.601 -1.20257 3.01179 0
M  V30 3344 H 314.386 0.329404 3.90714 0
M  V30 3345 H 315.876 -0.635986 4.12729 0
M  V30 3346 N 316.313 -1.40141 0.720998 0
M  V30 3347 C 317.561 -2.0039 0.262323 0
M  V30 3348 C 317.882 -1.57469 -1.15015 0
M  V30 3349 O 317.152 -0.816582 -1.78069 0
M  V30 3350 H 315.732 -0.741063 0.093996 0
M  V30 3351 H 318.394 -1.71398 0.927835 0
M  V30 3352 H 317.49 -3.10658 0.299671 0
M  V30 3353 N 317.792 -0.46758 -1.50504 0
M  V30 3354 C 319.041 0.0902868 -2.01498 0
M  V30 3355 C 319.354 1.411 -1.35463 0
M  V30 3356 O 320.56 2.0536 -1.77594 0
M  V30 3357 C 319.016 0.21142 -3.59278 0
M  V30 3358 C 318.624 -1.10065 -4.34269 0
M  V30 3359 C 320.368 0.721433 -4.18325 0
M  V30 3360 C 318.275 -0.943505 -5.83825 0
M  V30 3361 H 317.205 0.037517 -0.753066 0
M  V30 3362 H 319.856 -0.601943 -1.73346 0
M  V30 3363 H 318.238 0.967352 -3.84003 0
M  V30 3364 H 319.412 -1.86726 -4.21272 0
M  V30 3365 H 317.727 -1.5415 -3.86816 0
M  V30 3366 H 320.324 0.85598 -5.27804 0
M  V30 3367 H 320.667 1.71186 -3.79475 0
M  V30 3368 H 321.2 0.0229843 -3.97793 0
M  V30 3369 H 317.939 -1.90719 -6.27141 0
M  V30 3370 H 317.459 -0.217213 -5.99407 0
M  V30 3371 H 319.138 -0.608715 -6.4413 0
M  V30 3372 N 319.27 1.56325 -0.20005 0
M  V30 3373 C 320.517 1.97719 0.437411 0
M  V30 3374 C 320.845 1.08709 1.61284 0
M  V30 3375 O 320.1 0.127261 1.95286 0
M  V30 3376 C 320.399 3.4495 0.935103 0
M  V30 3377 C 320.065 4.5072 -0.12749 0
M  V30 3378 C 318.727 4.79368 -0.419451 0
M  V30 3379 C 321.079 5.14268 -0.847231 0
M  V30 3380 C 318.407 5.68854 -1.43604 0
M  V30 3381 C 320.759 6.04852 -1.85301 0
M  V30 3382 C 319.423 6.31855 -2.15211 0
M  V30 3383 H 318.693 0.723507 0.16006 0
M  V30 3384 H 321.34 1.89166 -0.298056 0
M  V30 3385 H 319.645 3.50599 1.74894 0
M  V30 3386 H 321.342 3.74337 1.43781 0
M  V30 3387 H 317.932 4.28458 0.11023 0
M  V30 3388 H 322.116 4.92222 -0.634901 0
M  V30 3389 H 317.372 5.88047 -1.67364 0
M  V30 3390 H 321.546 6.53152 -2.41591 0
M  V30 3391 H 319.173 7.00994 -2.94129 0
M  V30 3392 N 320.748 -0.0735177 1.57428 0
M  V30 3393 C 321.695 -1.08756 2.0357 0
M  V30 3394 C 322.665 -1.38559 0.916 0
M  V30 3395 O 323.85 -1.49656 1.18354 0
M  V30 3396 C 320.99 -2.39657 2.48311 0
M  V30 3397 C 320.103 -2.16399 3.73892 0
M  V30 3398 C 319.238 -3.40852 4.07423 0
M  V30 3399 C 318.277 -3.1295 5.2605 0
M  V30 3400 N 317.414 -4.29729 5.55228 0
M  V30 3401 H 322.254 -0.687104 2.8997 0
M  V30 3402 H 319.791 -0.327709 1.43403 0
M  V30 3403 H 321.749 -3.16081 2.72303 0
M  V30 3404 H 320.379 -2.77508 1.64891 0
M  V30 3405 H 319.431 -1.30676 3.57251 0
M  V30 3406 H 320.743 -1.91788 4.60455 0
M  V30 3407 H 319.897 -4.25671 4.32306 0
M  V30 3408 H 318.636 -3.68537 3.19425 0
M  V30 3409 H 317.641 -2.26526 5.00965 0
M  V30 3410 H 318.866 -2.86589 6.15665 0
M  V30 3411 H 316.812 -4.57448 4.70188 0
M  V30 3412 H 316.729 -4.08385 6.36206 0
M  V30 3413 H 317.997 -5.1555 5.84661 0
M  V30 3414 N 322.226 -1.5378 -0.344866 0
M  V30 3415 C 323.156 -1.84662 -1.42906 0
M  V30 3416 C 324.137 -0.701648 -1.54955 0
M  V30 3417 O 325.322 -0.953438 -1.69184 0
M  V30 3418 C 322.452 -2.05503 -2.79974 0
M  V30 3419 C 321.406 -3.21318 -2.82734 0
M  V30 3420 C 320.732 -3.2749 -4.22675 0
M  V30 3421 C 322.032 -4.59456 -2.48389 0
M  V30 3422 H 323.726 -2.75461 -1.17311 0
M  V30 3423 H 321.272 -1.32542 -0.562896 0
M  V30 3424 H 323.225 -2.25691 -3.55867 0
M  V30 3425 H 321.949 -1.11434 -3.07002 0
M  V30 3426 H 320.608 -3.00984 -2.09294 0
M  V30 3427 H 320.256 -2.31019 -4.4681 0
M  V30 3428 H 319.956 -4.05316 -4.25433 0
M  V30 3429 H 321.48 -3.49887 -5.00412 0
M  V30 3430 H 322.894 -4.79667 -3.13995 0
M  V30 3431 H 321.291 -5.39675 -2.62432 0
M  V30 3432 H 322.361 -4.63155 -1.4358 0
M  V30 3433 N 323.704 0.605807 -1.45491 0
M  V30 3434 C 324.634 1.72709 -1.57143 0
M  V30 3435 C 325.615 1.6476 -0.422884 0
M  V30 3436 O 326.8 1.83132 -0.646247 0
M  V30 3437 C 323.93 3.11316 -1.53948 0
M  V30 3438 C 322.884 3.34077 -2.67537 0
M  V30 3439 C 322.21 4.72975 -2.49397 0
M  V30 3440 C 323.51 3.24158 -4.09535 0
M  V30 3441 H 325.204 1.63214 -2.51001 0
M  V30 3442 H 322.75 0.78379 -1.208 0
M  V30 3443 H 324.703 3.89557 -1.60696 0
M  V30 3444 H 323.427 3.21655 -0.566205 0
M  V30 3445 H 322.086 2.58227 -2.6022 0
M  V30 3446 H 321.734 4.8005 -1.50205 0
M  V30 3447 H 321.434 4.8916 -3.25571 0
M  V30 3448 H 322.958 5.53414 -2.58002 0
M  V30 3449 H 324.372 3.92271 -4.18086 0
M  V30 3450 H 322.769 3.51872 -4.86113 0
M  V30 3451 H 323.839 2.2157 -4.31317 0
M  V30 3452 N 325.182 1.32811 0.848464 0
M  V30 3453 C 326.431 1.23075 1.59798 0
M  V30 3454 C 326.744 -0.204419 1.94529 0
M  V30 3455 O 327.95 -0.423701 2.68173 0
M  V30 3456 C 326.406 2.15594 2.88179 0
M  V30 3457 C 326.014 3.64228 2.60849 0
M  V30 3458 C 327.758 2.14709 3.66197 0
M  V30 3459 C 325.665 4.48689 3.85269 0
M  V30 3460 H 324.595 0.457091 0.599653 0
M  V30 3461 H 327.246 1.57813 0.936342 0
M  V30 3462 H 325.628 1.73778 3.55833 0
M  V30 3463 H 326.802 4.14424 2.01467 0
M  V30 3464 H 325.117 3.67306 1.96151 0
M  V30 3465 H 327.714 2.75046 4.58534 0
M  V30 3466 H 328.057 1.13966 4.00397 0
M  V30 3467 H 328.59 2.54837 3.05455 0
M  V30 3468 H 325.329 5.5027 3.56207 0
M  V30 3469 H 324.849 4.03241 4.44024 0
M  V30 3470 H 326.528 4.62006 4.52946 0
M  V30 3471 N 326.66 -1.06551 1.16123 0
M  V30 3472 C 327.909 -1.78687 0.935622 0
M  V30 3473 C 328.222 -1.88056 -0.538001 0
M  V30 3474 O 329.428 -2.56794 -0.88143 0
M  V30 3475 C 327.884 -3.21143 1.62466 0
M  V30 3476 C 327.492 -3.19949 3.13587 0
M  V30 3477 C 329.236 -3.9783 1.48092 0
M  V30 3478 C 327.143 -4.57108 3.75241 0
M  V30 3479 H 326.073 -0.669712 0.346412 0
M  V30 3480 H 328.724 -1.19534 1.39226 0
M  V30 3481 H 327.106 -3.80539 1.09572 0
M  V30 3482 H 328.28 -2.70151 3.73303 0
M  V30 3483 H 326.595 -2.5676 3.27816 0
M  V30 3484 H 329.192 -4.99217 1.91538 0
M  V30 3485 H 329.535 -4.14078 0.429507 0
M  V30 3486 H 330.068 -3.4495 1.98127 0
M  V30 3487 H 326.807 -4.46065 4.80319 0
M  V30 3488 H 326.327 -5.07111 3.20309 0
M  V30 3489 H 328.006 -5.26069 3.76644 0
M  V30 3490 N 328.138 -0.959301 -1.25041 0
M  V30 3491 C 329.415 -0.533805 -1.88175 0
M  V30 3492 C 329.795 0.988994 -1.865 0
M  V30 3493 O 329.143 1.85677 -1.33177 0
M  V30 3494 C 329.353 -1.11575 -3.30684 0
M  V30 3495 C 330.701 -1.19548 -4.07423 0
M  V30 3496 O 331.725 -1.06765 -3.39823 0
M  V30 3497 O 330.584 -1.39656 -5.28354 0
M  V30 3498 H 327.678 -0.176772 -0.807887 0
M  V30 3499 H 330.224 -1.05303 -1.33076 0
M  V30 3500 H 328.996 -2.15884 -3.26358 0
M  V30 3501 H 328.619 -0.580059 -3.93346 0
M  V30 3502 N 329.616 1.39756 -0.72842 0
M  V30 3503 C 330.841 2.05472 -0.282159 0
M  V30 3504 C 331.266 1.54549 1.07221 0
M  V30 3505 O 330.624 0.686372 1.67805 0
M  V30 3506 C 330.672 3.59462 -0.286264 0
M  V30 3507 O 329.776 4.05918 0.728298 0
M  V30 3508 H 329.117 0.651226 -0.129618 0
M  V30 3509 H 331.647 1.78915 -0.992499 0
M  V30 3510 H 331.657 4.07798 -0.128373 0
M  V30 3511 H 330.332 3.95889 -1.27456 0
M  V30 3512 H 328.909 3.69012 0.537081 0
M  V30 3513 N 331.094 0.475555 1.50254 0
M  V30 3514 C 332.343 -0.0795996 2.01543 0
M  V30 3515 C 332.656 -1.4038 1.36209 0
M  V30 3516 O 333.862 -2.04415 1.7868 0
M  V30 3517 C 332.318 -0.192363 3.59386 0
M  V30 3518 C 331.926 1.12367 4.33679 0
M  V30 3519 C 333.67 -0.699238 4.18701 0
M  V30 3520 C 331.577 0.974453 5.83317 0
M  V30 3521 H 330.507 -0.0335228 0.753254 0
M  V30 3522 H 333.158 0.611128 1.73025 0
M  V30 3523 H 331.54 -0.946974 3.84511 0
M  V30 3524 H 332.714 1.88958 4.20276 0
M  V30 3525 H 331.029 1.562 3.85993 0
M  V30 3526 H 333.626 -0.827978 5.28251 0
M  V30 3527 H 333.969 -1.69171 3.80377 0
M  V30 3528 H 334.502 -0.00188807 3.978 0
M  V30 3529 H 331.241 1.94042 6.26121 0
M  V30 3530 H 330.761 0.248998 5.99283 0
M  V30 3531 H 332.44 0.642867 6.43798 0
M  V30 3532 N 332.573 -1.56217 0.208337 0
M  V30 3533 C 333.506 -2.15633 -0.746842 0
M  V30 3534 C 334.484 -1.09685 -1.20034 0
M  V30 3535 O 335.668 -1.3787 -1.28547 0
M  V30 3536 C 332.795 -2.72594 -2.01023 0
M  V30 3537 C 331.841 -3.91251 -1.69779 0
M  V30 3538 S 332.674 -5.28962 -0.834209 0
M  V30 3539 C 333.83 -5.89353 -2.10745 0
M  V30 3540 H 334.063 -2.96315 -0.241789 0
M  V30 3541 H 331.596 -1.54398 -0.00682183 0
M  V30 3542 H 333.554 -3.06053 -2.73572 0
M  V30 3543 H 332.215 -1.91929 -2.48641 0
M  V30 3544 H 331.408 -4.29562 -2.63614 0
M  V30 3545 H 331.01 -3.58869 -1.05303 0
M  V30 3546 H 333.302 -6.04522 -3.05875 0
M  V30 3547 H 334.245 -6.85661 -1.76845 0
M  V30 3548 H 334.653 -5.1807 -2.24196 0
M  V30 3549 N 334.051 0.0651679 -1.57465 0
M  V30 3550 C 335.014 1.06117 -2.03155 0
M  V30 3551 C 336.014 1.31204 -0.929632 0
M  V30 3552 O 337.204 1.26813 -1.19432 0
M  V30 3553 C 334.336 2.4032 -2.41783 0
M  V30 3554 H 335.529 0.667231 -2.92383 0
M  V30 3555 H 333.082 0.311075 -1.53173 0
M  V30 3556 H 333.817 2.84532 -1.55601 0
M  V30 3557 H 333.602 2.23451 -3.22199 0
M  V30 3558 H 335.092 3.11898 -2.77685 0
M  V30 3559 N 335.529 1.53961 0.336706 0
M  V30 3560 C 336.459 1.85417 1.41925 0
M  V30 3561 C 337.44 0.709856 1.5458 0
M  V30 3562 O 338.625 0.962396 1.68676 0
M  V30 3563 C 335.755 2.06985 2.78881 0
M  V30 3564 C 334.709 3.22813 2.81026 0
M  V30 3565 C 334.035 3.29727 4.20932 0
M  V30 3566 C 335.335 4.60767 2.45949 0
M  V30 3567 H 337.029 2.76079 1.15848 0
M  V30 3568 H 334.575 1.32839 0.555859 0
M  V30 3569 H 336.528 2.27575 3.54665 0
M  V30 3570 H 335.252 1.13061 3.06406 0
M  V30 3571 H 333.911 3.0209 2.07695 0
M  V30 3572 H 333.559 2.33385 4.45579 0
M  V30 3573 H 333.259 4.07566 4.23277 0
M  V30 3574 H 334.783 3.52536 4.98549 0
M  V30 3575 H 336.197 4.81325 3.11446 0
M  V30 3576 H 334.594 5.4106 2.59566 0
M  V30 3577 H 335.664 4.6391 1.41122 0
M  V30 3578 N 337.007 -0.598083 1.45811 0
M  V30 3579 C 338.254 -1.35681 1.50323 0
M  V30 3580 C 338.582 -1.9393 0.148739 0
M  V30 3581 O 337.837 -1.76094 -0.853787 0
M  V30 3582 C 338.136 -2.51669 2.53766 0
M  V30 3583 C 337.802 -2.11508 3.98215 0
M  V30 3584 C 336.464 -2.0027 4.37545 0
M  V30 3585 C 338.816 -1.80308 4.89018 0
M  V30 3586 C 336.144 -1.56067 5.65562 0
M  V30 3587 C 338.496 -1.37589 6.17456 0
M  V30 3588 C 337.16 -1.24916 6.55708 0
M  V30 3589 H 336.43 -0.496492 0.550069 0
M  V30 3590 H 339.077 -0.675052 1.79207 0
M  V30 3591 H 337.382 -3.25225 2.18486 0
M  V30 3592 H 339.079 -3.09895 2.54492 0
M  V30 3593 H 335.669 -2.21185 3.67117 0
M  V30 3594 H 339.853 -1.87884 4.59362 0
M  V30 3595 H 335.109 -1.44886 5.93985 0
M  V30 3596 H 339.283 -1.12495 6.87254 0
M  V30 3597 H 336.91 -0.904386 7.54801 0
M  V30 3598 N 338.485 -1.33259 -0.841409 0
M  V30 3599 C 339.901 -1.12538 -1.13169 0
M  V30 3600 C 340.101 0.0854037 -2.01319 0
M  V30 3601 O 339.157 0.766417 -2.40587 0
M  V30 3602 C 340.47 -2.41156 -1.79623 0
M  V30 3603 C 342.018 -2.47038 -1.922 0
M  V30 3604 C 342.493 -3.7561 -2.6207 0
M  V30 3605 N 343.984 -3.76667 -2.69585 0
M  V30 3606 C 344.719 -4.72861 -3.2433 0
M  V30 3607 N 344.215 -5.79428 -3.79783 0
M  V30 3608 N 346.008 -4.6034 -3.22558 0
M  V30 3609 H 338.159 -2.10868 -0.254676 0
M  V30 3610 H 340.422 -0.931615 -0.175493 0
M  V30 3611 H 340.128 -3.29747 -1.22311 0
M  V30 3612 H 340.002 -2.53114 -2.79666 0
M  V30 3613 H 342.389 -1.58898 -2.48667 0
M  V30 3614 H 342.47 -2.39022 -0.911148 0
M  V30 3615 H 342.114 -4.64131 -2.06263 0
M  V30 3616 H 342.044 -3.80902 -3.63622 0
M  V30 3617 H 344.535 -2.99648 -2.30259 0
M  V30 3618 H 344.848 -6.48867 -4.19752 0
M  V30 3619 H 343.193 -5.83166 -3.78078 0
M  V30 3620 H 346.384 -3.76244 -2.78492 0
M  V30 3621 H 346.557 -5.35478 -3.64921 0
M  V30 3622 N 339.963 1.05934 -1.16686 0
M  V30 3623 C 341.209 1.79065 -0.95203 0
M  V30 3624 C 341.542 1.87147 0.518629 0
M  V30 3625 O 340.817 1.36574 1.38484 0
M  V30 3626 C 341.1 3.23359 -1.58464 0
M  V30 3627 C 340.953 3.23336 -3.12689 0
M  V30 3628 C 342.272 4.21004 -1.28232 0
M  V30 3629 H 339.391 0.65005 -0.34728 0
M  V30 3630 H 342.033 1.23868 -1.44072 0
M  V30 3631 H 340.183 3.70493 -1.16908 0
M  V30 3632 H 341.855 2.84336 -3.6325 0
M  V30 3633 H 340.098 2.61886 -3.4583 0
M  V30 3634 H 340.769 4.25144 -3.52075 0
M  V30 3635 H 343.245 3.8233 -1.64203 0
M  V30 3636 H 342.121 5.20225 -1.75092 0
M  V30 3637 H 342.382 4.41639 -0.201791 0
M  V30 3638 N 341.441 0.965919 1.2453 0
M  V30 3639 C 342.718 0.543777 1.87889 0
M  V30 3640 C 343.098 -0.97909 1.87021 0
M  V30 3641 O 342.446 -1.84969 1.3416 0
M  V30 3642 C 342.656 1.13327 3.30088 0
M  V30 3643 C 344.004 1.21707 4.06783 0
M  V30 3644 O 345.028 1.08566 3.39252 0
M  V30 3645 O 343.887 1.42456 5.27606 0
M  V30 3646 H 340.981 0.181054 0.806938 0
M  V30 3647 H 343.527 1.06007 1.32516 0
M  V30 3648 H 342.299 2.17612 3.25209 0
M  V30 3649 H 341.922 0.600911 3.93033 0
M  V30 3650 N 342.919 -1.39368 0.735821 0
M  V30 3651 C 344.166 -2.00497 0.284123 0
M  V30 3652 C 344.494 -1.58387 -1.12889 0
M  V30 3653 O 343.749 -0.804359 -1.78406 0
M  V30 3654 C 344.048 -3.5583 0.334651 0
M  V30 3655 C 343.714 -4.17593 1.7008 0
M  V30 3656 C 342.376 -4.34176 2.07472 0
M  V30 3657 C 344.728 -4.51848 2.59775 0
M  V30 3658 C 342.056 -4.82304 3.34065 0
M  V30 3659 C 344.408 -5.01384 3.85741 0
M  V30 3660 C 343.072 -5.16175 4.23225 0
M  V30 3661 H 342.342 -0.73367 0.103968 0
M  V30 3662 H 344.989 -1.66683 0.942825 0
M  V30 3663 H 343.294 -3.89674 -0.407625 0
M  V30 3664 H 344.991 -4.00986 -0.0329927 0
M  V30 3665 H 341.581 -4.05087 1.40008 0
M  V30 3666 H 345.765 -4.38653 2.32157 0
M  V30 3667 H 341.021 -4.91941 3.63049 0
M  V30 3668 H 345.195 -5.26863 4.55399 0
M  V30 3669 H 342.822 -5.5323 5.21384 0
M  V30 3670 N 344.397 -0.483516 -1.5 0
M  V30 3671 C 345.622 0.0667119 -2.07293 0
M  V30 3672 C 346.047 1.3164 -1.3436 0
M  V30 3673 O 345.405 1.76945 -0.394987 0
M  V30 3674 C 345.453 0.321126 -3.59167 0
M  V30 3675 O 344.557 1.39927 -3.87936 0
M  V30 3676 H 343.898 -0.0184758 -0.663743 0
M  V30 3677 H 346.428 -0.678125 -1.93035 0
M  V30 3678 H 346.438 0.557906 -4.04168 0
M  V30 3679 H 345.113 -0.592007 -4.11665 0
M  V30 3680 H 343.69 1.14882 -3.54763 0
M  V30 3681 N 345.875 1.56104 -0.216619 0
M  V30 3682 C 347.123 1.97781 0.415593 0
M  V30 3683 C 347.444 1.10536 1.60645 0
M  V30 3684 O 346.714 0.181303 1.95059 0
M  V30 3685 H 345.294 0.730415 0.156534 0
M  V30 3686 H 347.956 1.92445 -0.308366 0
M  V30 3687 H 347.052 3.03072 0.74525 0
M  V30 3688 N 347.353 -0.0568162 1.57498 0
M  V30 3689 C 348.769 -0.411933 1.54192 0
M  V30 3690 C 348.969 -1.78287 0.938942 0
M  V30 3691 O 348.025 -2.46483 0.547919 0
M  V30 3692 C 349.338 -0.339244 2.9878 0
M  V30 3693 C 350.886 -0.418348 3.10192 0
M  V30 3694 C 351.361 -0.375407 4.56459 0
M  V30 3695 N 352.852 -0.435038 4.61153 0
M  V30 3696 C 353.587 -0.424265 5.71828 0
M  V30 3697 N 353.083 -0.367418 6.91825 0
M  V30 3698 N 354.876 -0.471938 5.60115 0
M  V30 3699 H 347.027 0.840684 1.95055 0
M  V30 3700 H 349.29 0.316987 0.893433 0
M  V30 3701 H 348.996 0.601742 3.46514 0
M  V30 3702 H 348.87 -1.14371 3.59443 0
M  V30 3703 H 351.257 -1.34976 2.62422 0
M  V30 3704 H 351.338 0.414962 2.52412 0
M  V30 3705 H 350.982 0.552219 5.04889 0
M  V30 3706 H 350.912 -1.22645 5.12119 0
M  V30 3707 H 353.403 -0.482612 3.74806 0
M  V30 3708 H 353.716 -0.363535 7.71944 0
M  V30 3709 H 352.061 -0.333879 6.94198 0
M  V30 3710 H 355.252 -0.514145 4.65268 0
M  V30 3711 H 355.425 -0.460073 6.46365 0
M  V30 3712 N 348.832 -1.54138 -0.328536 0
M  V30 3713 C 350.08 -1.71765 -1.06496 0
M  V30 3714 C 350.401 -0.49149 -1.88704 0
M  V30 3715 O 349.671 0.494539 -1.89555 0
M  V30 3716 H 348.251 -0.633295 -0.396164 0
M  V30 3717 H 350.913 -1.91429 -0.366176 0
M  V30 3718 H 350.009 -2.5951 -1.73381 0
M  V30 3719 N 350.31 0.590341 -1.46126 0
M  V30 3720 C 351.22 1.72793 -1.58681 0
M  V30 3721 C 352.236 1.67516 -0.470566 0
M  V30 3722 O 353.412 1.87562 -0.733642 0
M  V30 3723 C 350.477 3.09287 -1.5666 0
M  V30 3724 C 349.538 3.25886 -2.79458 0
M  V30 3725 C 348.771 4.55869 -2.77524 0
M  V30 3726 O 348.994 5.3928 -1.85832 0
M  V30 3727 O 347.928 4.75552 -3.68964 0
M  V30 3728 H 351.754 1.65149 -2.54872 0
M  V30 3729 H 349.339 0.756486 -1.28832 0
M  V30 3730 H 351.221 3.90577 -1.58202 0
M  V30 3731 H 349.896 3.17385 -0.636271 0
M  V30 3732 H 348.803 2.44119 -2.83472 0
M  V30 3733 H 350.136 3.22675 -3.71674 0
M  V30 3734 N 351.788 1.33704 0.83433 0
M  V30 3735 C 352.718 1.26967 1.95963 0
M  V30 3736 C 353.699 0.149337 1.69443 0
M  V30 3737 O 354.884 0.339852 1.91203 0
M  V30 3738 C 352.014 1.01275 3.32206 0
M  V30 3739 C 350.968 2.09652 3.73136 0
M  V30 3740 C 350.294 1.69166 5.07235 0
M  V30 3741 C 351.594 3.51372 3.86439 0
M  V30 3742 H 353.288 2.2112 2.01857 0
M  V30 3743 H 350.834 1.06447 0.969793 0
M  V30 3744 H 352.787 0.952106 4.10503 0
M  V30 3745 H 351.511 0.0356203 3.26581 0
M  V30 3746 H 350.17 2.14766 2.97104 0
M  V30 3747 H 349.818 0.701437 4.98085 0
M  V30 3748 H 349.518 2.41694 5.35591 0
M  V30 3749 H 351.042 1.64576 5.88003 0
M  V30 3750 H 352.456 3.48734 4.55036 0
M  V30 3751 H 350.853 4.22425 4.26236 0
M  V30 3752 H 351.923 3.89546 2.88759 0
M  V30 3753 N 353.266 -1.05314 1.17247 0
M  V30 3754 C 354.229 -2.112 0.890357 0
M  V30 3755 C 355.229 -1.60359 -0.118943 0
M  V30 3756 O 356.419 -1.73833 0.113086 0
M  V30 3757 C 353.551 -3.39266 0.333422 0
M  V30 3758 H 354.744 -2.37659 1.82916 0
M  V30 3759 H 352.297 -1.21538 0.982758 0
M  V30 3760 H 353.032 -3.18462 -0.612587 0
M  V30 3761 H 352.817 -3.77477 1.06082 0
M  V30 3762 H 354.307 -4.17315 0.154322 0
M  V30 3763 N 354.744 -0.972509 -1.24016 0
M  V30 3764 C 355.654 -0.5143 -2.28893 0
M  V30 3765 C 356.67 0.427078 -1.68677 0
M  V30 3766 O 357.846 0.298939 -1.99169 0
M  V30 3767 C 354.911 0.183598 -3.46214 0
M  V30 3768 C 353.972 -0.798202 -4.21814 0
M  V30 3769 C 353.205 -0.133514 -5.33533 0
M  V30 3770 O 353.428 1.07714 -5.60137 0
M  V30 3771 O 352.362 -0.828103 -5.96176 0
M  V30 3772 H 356.188 -1.38629 -2.70214 0
M  V30 3773 H 353.773 -0.739769 -1.29799 0
M  V30 3774 H 355.655 0.575433 -4.17453 0
M  V30 3775 H 354.33 1.03048 -3.0686 0
M  V30 3776 H 353.237 -1.24059 -3.52931 0
M  V30 3777 H 354.57 -1.61364 -4.64997 0
M  V30 3778 N 356.222 1.38976 -0.743202 0
M  V30 3779 C 357.638 1.53984 -0.419664 0
M  V30 3780 C 357.838 1.70837 1.0685 0
M  V30 3781 O 356.894 1.7135 1.8546 0
M  V30 3782 C 358.207 2.75287 -1.20985 0
M  V30 3783 C 359.755 2.89129 -1.19889 0
M  V30 3784 C 360.23 4.13381 -1.97181 0
M  V30 3785 N 361.721 4.20437 -1.94389 0
M  V30 3786 C 362.456 5.15547 -2.50996 0
M  V30 3787 N 361.952 6.16395 -3.16274 0
M  V30 3788 N 363.745 5.07822 -2.40984 0
M  V30 3789 H 355.896 1.26285 -1.7078 0
M  V30 3790 H 358.159 0.612689 -0.723406 0
M  V30 3791 H 357.865 2.69204 -2.26323 0
M  V30 3792 H 357.739 3.68184 -0.819759 0
M  V30 3793 H 360.126 2.947 -0.153606 0
M  V30 3794 H 360.207 1.97272 -1.62841 0
M  V30 3795 H 359.851 4.08572 -3.01714 0
M  V30 3796 H 359.781 5.04298 -1.51629 0
M  V30 3797 H 362.272 3.48205 -1.46839 0
M  V30 3798 H 362.585 6.85443 -3.56915 0
M  V30 3799 H 360.93 6.16758 -3.20367 0
M  V30 3800 H 364.121 4.27973 -1.89622 0
M  V30 3801 H 364.294 5.81767 -2.85397 0
M  V30 3802 N 357.7 0.491464 1.49741 0
M  V30 3803 C 358.632 -0.328609 2.26832 0
M  V30 3804 C 359.645 -0.939113 1.32983 0
M  V30 3805 O 360.834 -0.824067 1.58339 0
M  V30 3806 C 357.934 -1.47675 3.05033 0
M  V30 3807 C 357.107 -0.975305 4.26388 0
M  V30 3808 C 356.166 -1.99991 4.86714 0
M  V30 3809 O 355.192 -1.57229 5.47054 0
M  V30 3810 N 356.394 -3.32962 4.75517 0
M  V30 3811 H 359.159 0.332377 2.97851 0
M  V30 3812 H 356.72 0.323441 1.58636 0
M  V30 3813 H 358.712 -2.15954 3.42266 0
M  V30 3814 H 357.282 -2.04206 2.36683 0
M  V30 3815 H 356.502 -0.117723 3.94024 0
M  V30 3816 H 357.79 -0.618531 5.05026 0
M  V30 3817 H 357.188 -3.70399 4.27576 0
M  V30 3818 H 355.745 -3.96982 5.16961 0
M  V30 3819 N 359.178 -1.55987 0.224894 0
M  V30 3820 C 360.11 -2.17722 -0.716224 0
M  V30 3821 C 361.123 -1.14723 -1.15509 0
M  V30 3822 O 362.312 -1.41688 -1.08567 0
M  V30 3823 C 359.412 -2.74873 -1.98238 0
M  V30 3824 C 358.585 -4.03074 -1.69853 0
M  V30 3825 C 357.644 -4.44757 -2.81208 0
M  V30 3826 O 356.67 -5.11587 -2.49534 0
M  V30 3827 N 357.872 -4.10716 -4.10235 0
M  V30 3828 H 360.637 -2.99109 -0.188123 0
M  V30 3829 H 358.198 -1.6184 0.0440123 0
M  V30 3830 H 360.19 -2.99727 -2.7193 0
M  V30 3831 H 358.76 -1.9777 -2.42086 0
M  V30 3832 H 357.98 -3.86041 -0.797875 0
M  V30 3833 H 359.268 -4.86701 -1.48324 0
M  V30 3834 H 358.666 -3.57019 -4.38809 0
M  V30 3835 H 357.223 -4.40455 -4.80461 0
M  V30 3836 N 360.656 0.0484629 -1.57525 0
M  V30 3837 C 361.603 1.05504 -2.05275 0
M  V30 3838 C 362.573 1.37084 -0.937927 0
M  V30 3839 O 363.758 1.47754 -1.2072 0
M  V30 3840 C 360.898 2.35676 -2.52093 0
M  V30 3841 C 360.011 2.10423 -3.77288 0
M  V30 3842 C 359.146 3.34327 -4.12794 0
M  V30 3843 C 358.185 3.04542 -5.30962 0
M  V30 3844 N 357.322 4.20841 -5.61994 0
M  V30 3845 H 362.162 0.640885 -2.91027 0
M  V30 3846 H 359.699 0.304854 -1.43906 0
M  V30 3847 H 361.657 3.11709 -2.77297 0
M  V30 3848 H 360.287 2.7485 -1.69285 0
M  V30 3849 H 359.339 1.24976 -3.59284 0
M  V30 3850 H 360.651 1.84438 -4.63448 0
M  V30 3851 H 359.805 4.1874 -4.39024 0
M  V30 3852 H 358.544 3.63408 -3.25247 0
M  V30 3853 H 357.549 2.18528 -5.04505 0
M  V30 3854 H 358.774 2.76758 -6.20146 0
M  V30 3855 H 356.72 4.4991 -4.77406 0
M  V30 3856 H 356.637 3.98212 -6.42622 0
M  V30 3857 H 357.905 5.06184 -5.92789 0
M  V30 3858 N 362.134 1.5431 0.320358 0
M  V30 3859 C 363.064 1.86912 1.3995 0
M  V30 3860 C 364.045 0.726211 1.53819 0
M  V30 3861 O 365.23 0.980233 1.67646 0
M  V30 3862 C 362.36 2.09932 2.7667 0
M  V30 3863 C 361.314 3.25776 2.77586 0
M  V30 3864 C 360.64 3.34173 4.17412 0
M  V30 3865 C 361.94 4.6335 2.41048 0
M  V30 3866 H 363.634 2.77292 1.12914 0
M  V30 3867 H 361.18 1.33421 0.541738 0
M  V30 3868 H 363.133 2.31324 3.52232 0
M  V30 3869 H 361.857 1.16304 3.0519 0
M  V30 3870 H 360.516 3.04276 2.04479 0
M  V30 3871 H 360.164 2.38098 4.43078 0
M  V30 3872 H 359.864 4.12033 4.18931 0
M  V30 3873 H 361.388 3.57803 4.94782 0
M  V30 3874 H 362.802 4.84602 3.06324 0
M  V30 3875 H 361.199 5.43782 2.53813 0
M  V30 3876 H 362.269 4.65381 1.36193 0
M  V30 3877 N 363.613 -0.582584 1.46437 0
M  V30 3878 C 364.576 -1.67366 1.56592 0
M  V30 3879 C 365.576 -1.54575 0.443072 0
M  V30 3880 O 366.766 -1.59191 0.707381 0
M  V30 3881 C 363.898 -3.06791 1.48634 0
M  V30 3882 H 365.091 -1.5972 2.5383 0
M  V30 3883 H 362.644 -0.800432 1.34249 0
M  V30 3884 H 363.379 -3.19993 0.526763 0
M  V30 3885 H 363.164 -3.17484 2.30101 0
M  V30 3886 H 364.654 -3.86218 1.58826 0
M  V30 3887 N 365.091 -1.34144 -0.827227 0
M  V30 3888 C 366.023 -1.21206 -1.9453 0
M  V30 3889 C 367.036 -0.140176 -1.62195 0
M  V30 3890 O 368.225 -0.391647 -1.7415 0
M  V30 3891 C 365.325 -0.839141 -3.28347 0
M  V30 3892 C 364.498 -2.0051 -3.88734 0
M  V30 3893 C 363.557 -1.61128 -5.00923 0
M  V30 3894 O 362.583 -2.32726 -5.19449 0
M  V30 3895 N 363.785 -0.522958 -5.7814 0
M  V30 3896 H 366.55 -2.17525 -2.06162 0
M  V30 3897 H 364.111 -1.27043 -1.00358 0
M  V30 3898 H 366.103 -0.557556 -4.00841 0
M  V30 3899 H 364.673 0.0337293 -3.12582 0
M  V30 3900 H 363.893 -2.45166 -3.08686 0
M  V30 3901 H 365.181 -2.78498 -4.25812 0
M  V30 3902 H 364.579 0.0723518 -5.65654 0
M  V30 3903 H 363.136 -0.301089 -6.51104 0
M  V30 3904 N 366.569 1.04691 -1.17803 0
M  V30 3905 C 367.502 2.12068 -0.842765 0
M  V30 3906 C 368.48 1.61455 0.192608 0
M  V30 3907 O 369.664 1.88359 0.072995 0
M  V30 3908 C 366.791 3.37715 -0.258063 0
M  V30 3909 C 365.837 4.07164 -1.26962 0
M  V30 3910 S 366.67 4.55047 -2.82299 0
M  V30 3911 C 367.826 5.83935 -2.25323 0
M  V30 3912 H 368.059 2.4018 -1.75217 0
M  V30 3913 H 365.592 1.17366 -1.00323 0
M  V30 3914 H 367.55 4.10435 0.0727935 0
M  V30 3915 H 366.211 3.0773 0.629357 0
M  V30 3916 H 365.404 4.9746 -0.809263 0
M  V30 3917 H 365.006 3.40533 -1.54639 0
M  V30 3918 H 367.298 6.57552 -1.63192 0
M  V30 3919 H 368.241 6.34725 -3.13894 0
M  V30 3920 H 368.649 5.3874 -1.68582 0
M  V30 3921 N 368.047 0.979072 1.23499 0
M  V30 3922 C 368.977 0.537606 2.27227 0
M  V30 3923 C 369.958 -0.428539 1.64613 0
M  V30 3924 O 371.143 -0.322191 1.91509 0
M  V30 3925 C 368.273 -0.162052 3.46922 0
M  V30 3926 C 367.227 0.721242 4.21879 0
M  V30 3927 C 366.553 -0.110555 5.34586 0
M  V30 3928 C 367.853 2.01141 4.82016 0
M  V30 3929 H 369.547 1.40462 2.64406 0
M  V30 3930 H 367.093 0.67684 1.27102 0
M  V30 3931 H 369.046 -0.482192 4.18632 0
M  V30 3932 H 367.77 -1.06351 3.08799 0
M  V30 3933 H 366.429 1.02482 3.51984 0
M  V30 3934 H 366.077 -1.0125 4.92704 0
M  V30 3935 H 365.777 0.477325 5.85658 0
M  V30 3936 H 367.301 -0.425107 6.09118 0
M  V30 3937 H 368.715 1.75612 5.45741 0
M  V30 3938 H 367.112 2.54695 5.43369 0
M  V30 3939 H 368.182 2.69909 4.02836 0
M  V30 3940 N 369.525 -1.3858 0.750561 0
M  V30 3941 C 370.75 -2.04997 0.314812 0
M  V30 3942 C 371.175 -1.56235 -1.04749 0
M  V30 3943 O 370.533 -0.712981 -1.66692 0
M  V30 3944 C 370.581 -3.58961 0.343415 0
M  V30 3945 O 369.685 -4.07025 -0.663628 0
M  V30 3946 H 369.026 -0.649081 0.139962 0
M  V30 3947 H 371.556 -1.77313 1.02084 0
M  V30 3948 H 371.566 -4.07542 0.193233 0
M  V30 3949 H 370.241 -3.93811 1.33738 0
M  V30 3950 H 368.818 -3.6982 -0.478307 0
M  V30 3951 N 371.003 -0.499398 -1.49478 0
M  V30 3952 C 372.419 -0.155261 -1.58843 0
M  V30 3953 C 372.619 1.34008 -1.50479 0
M  V30 3954 O 371.675 2.11589 -1.37791 0
M  V30 3955 C 372.988 -0.730636 -2.91689 0
M  V30 3956 C 374.536 -0.696599 -3.0515 0
M  V30 3957 C 375.011 -1.25001 -4.40612 0
M  V30 3958 N 376.502 -1.21064 -4.47099 0
M  V30 3959 C 377.237 -1.60905 -5.50361 0
M  V30 3960 N 376.733 -2.08331 -6.60735 0
M  V30 3961 N 378.526 -1.52331 -5.41065 0
M  V30 3962 H 370.677 -1.47162 -1.53158 0
M  V30 3963 H 372.94 -0.610309 -0.725415 0
M  V30 3964 H 372.646 -1.77928 -3.03372 0
M  V30 3965 H 372.52 -0.190161 -3.7672 0
M  V30 3966 H 374.907 0.343204 -2.93097 0
M  V30 3967 H 374.988 -1.2742 -2.21806 0
M  V30 3968 H 374.632 -2.28859 -4.53416 0
M  V30 3969 H 374.562 -0.64836 -5.22593 0
M  V30 3970 H 377.053 -0.863128 -3.67911 0
M  V30 3971 H 377.366 -2.36805 -7.35624 0
M  V30 3972 H 375.711 -2.12304 -6.6178 0
M  V30 3973 H 378.902 -1.151 -4.53729 0
M  V30 3974 H 379.075 -1.83704 -6.21415 0
M  V30 3975 N 372.481 1.55866 -0.233164 0
M  V30 3976 C 373.411 2.23783 0.666599 0
M  V30 3977 C 374.392 1.21343 1.19205 0
M  V30 3978 O 375.577 1.4996 1.23392 0
M  V30 3979 C 372.707 2.92671 1.86978 0
M  V30 3980 C 371.661 4.01682 1.47768 0
M  V30 3981 C 370.987 4.57926 2.76058 0
M  V30 3982 C 372.287 5.18126 0.658993 0
M  V30 3983 H 373.981 2.99232 0.100306 0
M  V30 3984 H 371.527 1.43924 0.046804 0
M  V30 3985 H 373.48 3.3888 2.50476 0
M  V30 3986 H 372.204 2.14688 2.46123 0
M  V30 3987 H 370.863 3.56222 0.866106 0
M  V30 3988 H 370.511 3.76659 3.33372 0
M  V30 3989 H 370.211 5.31505 2.50552 0
M  V30 3990 H 371.735 5.06859 3.40479 0
M  V30 3991 H 373.149 5.60644 1.19795 0
M  V30 3992 H 371.546 5.98009 0.500552 0
M  V30 3993 H 372.616 4.83763 -0.331856 0
M  V30 3994 N 373.959 -0.0401083 1.57549 0
M  V30 3995 C 374.891 -1.07149 2.02612 0
M  V30 3996 C 375.904 -1.33126 0.937085 0
M  V30 3997 O 377.093 -1.30808 1.21456 0
M  V30 3998 C 374.193 -2.41561 2.37701 0
M  V30 3999 C 373.366 -2.35096 3.68848 0
M  V30 4000 C 372.425 -3.51867 3.91249 0
M  V30 4001 O 371.451 -3.3186 4.62447 0
M  V30 4002 N 372.653 -4.73351 3.36035 0
M  V30 4003 H 375.418 -0.687485 2.91708 0
M  V30 4004 H 372.979 -0.228248 1.60283 0
M  V30 4005 H 374.971 -3.18379 2.49833 0
M  V30 4006 H 373.541 -2.71846 1.54332 0
M  V30 4007 H 372.761 -1.4345 3.67173 0
M  V30 4008 H 374.049 -2.27908 4.54901 0
M  V30 4009 H 373.447 -4.92507 2.78304 0
M  V30 4010 H 372.004 -5.47572 3.53565 0
M  V30 4011 N 375.437 -1.54477 -0.31217 0
M  V30 4012 C 376.384 -1.84655 -1.38461 0
M  V30 4013 C 377.354 -0.694536 -1.50882 0
M  V30 4014 O 378.539 -0.942081 -1.6592 0
M  V30 4015 C 375.679 -2.0896 -2.74645 0
M  V30 4016 C 374.792 -3.36618 -2.70763 0
M  V30 4017 C 373.927 -3.50824 -3.98868 0
M  V30 4018 C 372.966 -4.72315 -3.89339 0
M  V30 4019 N 372.103 -4.83387 -5.09197 0
M  V30 4020 H 376.943 -2.76142 -1.12026 0
M  V30 4021 H 374.48 -1.36748 -0.542065 0
M  V30 4022 H 376.438 -2.21045 -3.53829 0
M  V30 4023 H 375.068 -1.20752 -2.99364 0
M  V30 4024 H 374.12 -3.33211 -1.83506 0
M  V30 4025 H 375.432 -4.25917 -2.59608 0
M  V30 4026 H 374.586 -3.62513 -4.86486 0
M  V30 4027 H 373.325 -2.59638 -4.12843 0
M  V30 4028 H 372.33 -4.6067 -3.00105 0
M  V30 4029 H 373.555 -5.64897 -3.76919 0
M  V30 4030 H 371.501 -3.9512 -5.23657 0
M  V30 4031 H 371.418 -5.66669 -5.00422 0
M  V30 4032 H 372.686 -4.9942 -5.98498 0
M  V30 4033 N 376.915 0.57481 -1.46744 0
M  V30 4034 C 378.164 1.32898 -1.51727 0
M  V30 4035 C 378.477 1.948 -0.176692 0
M  V30 4036 O 379.683 2.71299 -0.104385 0
M  V30 4037 C 378.139 2.40901 -2.67385 0
M  V30 4038 C 377.747 1.85266 -4.07898 0
M  V30 4039 C 379.491 3.17609 -2.81646 0
M  V30 4040 C 377.398 2.90945 -5.14883 0
M  V30 4041 H 376.328 0.499631 -0.564699 0
M  V30 4042 H 378.979 0.612536 -1.72975 0
M  V30 4043 H 377.361 3.15379 -2.39483 0
M  V30 4044 H 378.535 1.17278 -4.45626 0
M  V30 4045 H 376.85 1.21199 -3.98371 0
M  V30 4046 H 379.447 3.96493 -3.58744 0
M  V30 4047 H 379.79 3.70696 -1.89448 0
M  V30 4048 H 380.323 2.50239 -3.09233 0
M  V30 4049 H 377.062 2.42736 -6.089 0
M  V30 4050 H 376.582 3.57398 -4.81691 0
M  V30 4051 H 378.261 3.54755 -5.41071 0
M  V30 4052 N 378.394 1.34581 0.820102 0
M  V30 4053 C 379.619 1.30333 1.61332 0
M  V30 4054 C 380.044 -0.119339 1.87721 0
M  V30 4055 O 379.402 -1.08197 1.45475 0
M  V30 4056 C 379.45 2.10258 2.92957 0
M  V30 4057 O 378.554 1.47404 3.85157 0
M  V30 4058 H 377.895 0.447488 0.490561 0
M  V30 4059 H 380.425 1.77425 1.01889 0
M  V30 4060 H 380.435 2.21718 3.42498 0
M  V30 4061 H 379.11 3.13693 2.73074 0
M  V30 4062 H 377.687 1.44703 3.43679 0
M  V30 4063 N 379.872 -1.04064 1.18357 0
M  V30 4064 C 380.782 -2.15569 0.925596 0
M  V30 4065 C 381.798 -1.7365 -0.110295 0
M  V30 4066 O 382.974 -2.01273 0.0716218 0
M  V30 4067 C 380.039 -3.43704 0.454836 0
M  V30 4068 C 379.1 -4.00004 1.55869 0
M  V30 4069 C 378.333 -5.22023 1.1103 0
M  V30 4070 O 378.556 -5.70392 -0.0309756 0
M  V30 4071 O 377.49 -5.70856 1.90805 0
M  V30 4072 H 381.316 -2.40187 1.8586 0
M  V30 4073 H 378.901 -1.1402 0.965394 0
M  V30 4074 H 380.783 -4.20923 0.200382 0
M  V30 4075 H 379.458 -3.20559 -0.449876 0
M  V30 4076 H 378.365 -3.24172 1.86716 0
M  V30 4077 H 379.698 -4.2749 2.43953 0
M  V30 4078 N 381.35 -0.985608 -1.22978 0
M  V30 4079 C 382.26 -0.538548 -2.28335 0
M  V30 4080 C 383.276 0.409163 -1.69121 0
M  V30 4081 O 384.452 0.277797 -1.99475 0
M  V30 4082 C 381.517 0.146867 -3.46389 0
M  V30 4083 C 380.578 -0.842896 -4.20944 0
M  V30 4084 C 379.811 -0.190095 -5.33361 0
M  V30 4085 O 380.034 1.01767 -5.61248 0
M  V30 4086 O 378.968 -0.891289 -5.95264 0
M  V30 4087 H 382.794 -1.41487 -2.68729 0
M  V30 4088 H 380.379 -0.753495 -1.29007 0
M  V30 4089 H 382.261 0.531125 -4.1804 0
M  V30 4090 H 380.936 0.997871 -3.07935 0
M  V30 4091 H 379.843 -1.27795 -3.51595 0
M  V30 4092 H 381.176 -1.66287 -4.6326 0
M  V30 4093 N 382.828 1.3818 -0.7579 0
M  V30 4094 C 384.058 2.04004 -0.326463 0
M  V30 4095 C 384.466 1.57286 1.05156 0
M  V30 4096 O 383.809 0.743144 1.67997 0
M  V30 4097 C 383.871 3.58444 -0.275402 0
M  V30 4098 C 383.535 4.28237 -1.59569 0
M  V30 4099 C 384.532 4.53312 -2.54566 0
M  V30 4100 C 382.217 4.66341 -1.86631 0
M  V30 4101 C 384.211 5.15531 -3.74842 0
M  V30 4102 C 381.898 5.28283 -3.0718 0
M  V30 4103 C 382.896 5.52814 -4.01106 0
M  V30 4104 O 382.584 6.13465 -5.19534 0
M  V30 4105 H 382.316 0.662026 -0.136739 0
M  V30 4106 H 384.87 1.7777 -1.02893 0
M  V30 4107 H 383.1 3.83667 0.483337 0
M  V30 4108 H 384.789 4.05701 0.127099 0
M  V30 4109 H 385.555 4.24299 -2.34936 0
M  V30 4110 H 381.434 4.46591 -1.14358 0
M  V30 4111 H 384.978 5.34594 -4.48168 0
M  V30 4112 H 380.875 5.56719 -3.26702 0
M  V30 4113 H 381.643 6.31951 -5.20173 0
M  V30 4114 N 384.306 0.507319 1.49211 0
M  V30 4115 C 385.254 -0.281364 2.30892 0
M  V30 4116 C 386.248 -0.95687 1.39787 0
M  V30 4117 O 387.454 -0.883838 1.56807 0
M  V30 4118 H 383.829 -0.109597 0.743971 0
M  V30 4119 H 385.8 0.42744 2.95323 0
M  V30 4120 C 384.549 -1.32918 3.21291 0
M  V30 4121 H 383.872 -0.818799 3.91326 0
M  V30 4122 H 385.312 -1.85288 3.81372 0
M  V30 4123 C 383.771 -2.35074 2.41333 0
M  V30 4124 O 384.301 -3.4108 2.12197 0
M  V30 4125 N 382.507 -2.07705 2.03241 0
M  V30 4126 H 382.054 -1.2152 2.27136 0
M  V30 4127 H 382.012 -2.76283 1.50051 0
M  V30 4128 N 385.784 -1.5574 0.241426 0
M  V30 4129 C 387.03 -1.99104 -0.385406 0
M  V30 4130 C 387.363 -1.1293 -1.57988 0
M  V30 4131 O 386.638 -0.191449 -1.93555 0
M  V30 4132 C 386.921 -3.51087 -0.800616 0
M  V30 4133 C 386.774 -4.48028 0.398874 0
M  V30 4134 C 388.093 -4.08015 -1.64959 0
M  V30 4135 H 385.212 -0.723848 -0.138614 0
M  V30 4136 H 387.854 -1.86903 0.341642 0
M  V30 4137 H 386.004 -3.61615 -1.4201 0
M  V30 4138 H 387.676 -4.49487 1.03726 0
M  V30 4139 H 385.919 -4.21077 1.04293 0
M  V30 4140 H 386.59 -5.51962 0.0651056 0
M  V30 4141 H 389.066 -4.00555 -1.12672 0
M  V30 4142 H 387.942 -5.14635 -1.90898 0
M  V30 4143 H 388.203 -3.56131 -2.61961 0
M  V30 4144 N 387.262 0.0317525 -1.57568 0
M  V30 4145 C 388.225 1.01783 -2.0536 0
M  V30 4146 C 389.225 1.29203 -0.957253 0
M  V30 4147 O 390.415 1.24251 -1.22095 0
M  V30 4148 C 387.547 2.35137 -2.46827 0
M  V30 4149 H 388.74 0.605062 -2.93733 0
M  V30 4150 H 386.293 0.278514 -1.53799 0
M  V30 4151 H 387.028 2.81168 -1.61602 0
M  V30 4152 H 386.813 2.16566 -3.26866 0
M  V30 4153 H 388.303 3.05938 -2.84239 0
M  V30 4154 N 388.74 1.54641 0.303973 0
M  V30 4155 C 389.986 1.74038 1.04109 0
M  V30 4156 C 390.319 0.523051 1.87024 0
M  V30 4157 O 389.594 -0.479874 1.88487 0
M  V30 4158 C 389.877 3.02761 1.94955 0
M  V30 4159 C 389.73 4.34787 1.1524 0
M  V30 4160 C 391.049 3.27336 2.94175 0
M  V30 4161 H 388.168 0.63323 0.377079 0
M  V30 4162 H 390.81 1.87354 0.316001 0
M  V30 4163 H 388.96 2.9154 2.56782 0
M  V30 4164 H 390.632 4.57922 0.557236 0
M  V30 4165 H 388.875 4.31407 0.455053 0
M  V30 4166 H 389.546 5.21116 1.8205 0
M  V30 4167 H 392.022 3.38148 2.42477 0
M  V30 4168 H 390.898 4.18726 3.54908 0
M  V30 4169 H 391.159 2.45491 3.67677 0
M  V30 4170 N 390.218 -0.567019 1.47046 0
M  V30 4171 C 391.465 -1.32462 1.53167 0
M  V30 4172 C 391.793 -1.93571 0.189841 0
M  V30 4173 O 391.048 -1.77865 -0.816243 0
M  V30 4174 C 391.347 -2.4623 2.59047 0
M  V30 4175 C 391.013 -2.03014 4.02612 0
M  V30 4176 C 389.675 -1.90944 4.41694 0
M  V30 4177 C 392.027 -1.69895 4.92732 0
M  V30 4178 C 389.355 -1.44035 5.68745 0
M  V30 4179 C 391.707 -1.2446 6.20236 0
M  V30 4180 C 390.371 -1.10979 6.5821 0
M  V30 4181 H 389.641 -0.484713 0.560477 0
M  V30 4182 H 392.288 -0.636888 1.80599 0
M  V30 4183 H 390.593 -3.20517 2.25335 0
M  V30 4184 H 392.29 -3.04427 2.61008 0
M  V30 4185 H 388.88 -2.13348 3.71726 0
M  V30 4186 H 393.064 -1.78098 4.63244 0
M  V30 4187 H 388.32 -1.32254 5.96925 0
M  V30 4188 H 392.494 -0.978924 6.89485 0
M  V30 4189 H 390.121 -0.744078 7.5655 0
M  V30 4190 N 391.696 -1.35014 -0.812953 0
M  V30 4191 C 392.942 -1.2812 -1.57204 0
M  V30 4192 C 393.275 0.145869 -1.93651 0
M  V30 4193 O 392.55 1.0937 -1.60836 0
M  V30 4194 C 392.833 -2.18162 -2.86492 0
M  V30 4195 C 392.686 -3.69454 -2.56561 0
M  V30 4196 C 394.005 -2.07439 -3.88145 0
M  V30 4197 H 391.124 -0.466746 -0.570366 0
M  V30 4198 H 393.766 -1.65357 -0.935783 0
M  V30 4199 H 391.916 -1.86535 -3.40789 0
M  V30 4200 H 393.588 -4.11493 -2.08497 0
M  V30 4201 H 391.831 -3.9005 -1.89851 0
M  V30 4202 H 392.502 -4.27835 -3.48799 0
M  V30 4203 H 394.978 -2.35228 -3.4323 0
M  V30 4204 H 393.854 -2.7265 -4.76396 0
M  V30 4205 H 394.115 -1.05439 -4.29343 0
M  V30 4206 N 393.175 1.03435 -1.18907 0
M  V30 4207 C 394.403 1.80381 -1.01342 0
M  V30 4208 C 394.818 1.83649 0.438005 0
M  V30 4209 O 394.175 1.27655 1.30424 0
M  V30 4210 C 394.226 3.25689 -1.56873 0
M  V30 4211 O 393.947 3.22673 -2.96334 0
M  V30 4212 C 395.448 4.19255 -1.44014 0
M  V30 4213 H 392.668 0.56784 -0.35749 0
M  V30 4214 H 395.212 1.30317 -1.576 0
M  V30 4215 H 393.367 3.72962 -1.04777 0
M  V30 4216 H 393.781 4.13748 -3.22355 0
M  V30 4217 H 395.255 5.19123 -1.87657 0
M  V30 4218 H 395.732 4.37467 -0.389815 0
M  V30 4219 H 396.338 3.77851 -1.95214 0
M  V30 4220 N 394.653 0.992116 1.22453 0
M  V30 4221 C 395.601 0.534644 2.26372 0
M  V30 4222 C 396.595 -0.414293 1.64256 0
M  V30 4223 O 397.801 -0.286899 1.77699 0
M  V30 4224 H 394.176 0.154502 0.735957 0
M  V30 4225 H 396.147 1.42256 2.62309 0
M  V30 4226 C 394.896 -0.135815 3.47435 0
M  V30 4227 H 394.219 0.585311 3.95492 0
M  V30 4228 H 395.659 -0.419374 4.21921 0
M  V30 4229 C 394.118 -1.37089 3.07747 0
M  V30 4230 O 394.648 -2.46629 3.17076 0
M  V30 4231 N 392.854 -1.24585 2.62539 0
M  V30 4232 H 392.401 -0.354542 2.55149 0
M  V30 4233 H 392.359 -2.07327 2.36353 0
M  V30 4234 N 396.131 -1.37776 0.765217 0
M  V30 4235 C 397.063 -2.28958 0.105361 0
M  V30 4236 C 398.076 -1.48316 -0.67128 0
M  V30 4237 O 399.265 -1.71046 -0.51045 0
M  V30 4238 C 396.365 -3.27421 -0.874569 0
M  V30 4239 C 395.538 -4.37132 -0.153123 0
M  V30 4240 C 394.597 -5.1571 -1.04547 0
M  V30 4241 O 393.623 -5.66896 -0.511672 0
M  V30 4242 N 394.825 -5.29808 -2.37243 0
M  V30 4243 H 397.59 -2.86227 0.888495 0
M  V30 4244 H 395.151 -1.49682 0.617 0
M  V30 4245 H 397.143 -3.7687 -1.47483 0
M  V30 4246 H 395.713 -2.70967 -1.55871 0
M  V30 4247 H 394.933 -3.89166 0.627975 0
M  V30 4248 H 396.221 -5.07625 0.345643 0
M  V30 4249 H 395.619 -4.89793 -2.83054 0
M  V30 4250 H 394.176 -5.82589 -2.9229 0
M  V30 4251 N 397.609 -0.515225 -1.4894 0
M  V30 4252 C 398.542 0.302518 -2.26186 0
M  V30 4253 C 399.52 0.957895 -1.31389 0
M  V30 4254 O 400.704 0.985198 -1.60705 0
M  V30 4255 C 397.831 1.42719 -3.07163 0
M  V30 4256 C 396.877 0.884736 -4.17223 0
M  V30 4257 S 397.71 -0.235767 -5.34981 0
M  V30 4258 C 398.866 0.891731 -6.19515 0
M  V30 4259 H 399.099 -0.353076 -2.95196 0
M  V30 4260 H 396.632 -0.300753 -1.51443 0
M  V30 4261 H 398.59 2.07152 -3.54398 0
M  V30 4262 H 397.251 2.05445 -2.37595 0
M  V30 4263 H 396.444 1.72801 -4.73451 0
M  V30 4264 H 396.046 0.317362 -3.72651 0
M  V30 4265 H 398.338 1.79377 -6.53322 0
M  V30 4266 H 399.281 0.367751 -7.07144 0
M  V30 4267 H 399.689 1.16548 -5.52338 0
M  V30 4268 N 399.087 1.5561 -0.249682 0
M  V30 4269 C 400.315 2.03411 0.378352 0
M  V30 4270 C 400.73 1.12886 1.51335 0
M  V30 4271 O 400.087 0.143833 1.81932 0
M  V30 4272 C 400.138 3.50537 0.88351 0
M  V30 4273 O 399.859 4.37614 -0.20626 0
M  V30 4274 C 401.36 4.14113 1.58195 0
M  V30 4275 H 398.58 0.664994 0.08958 0
M  V30 4276 H 401.124 2.01044 -0.374357 0
M  V30 4277 H 399.279 3.5343 1.58639 0
M  V30 4278 H 399.693 5.24199 0.177782 0
M  V30 4279 H 401.167 5.18741 1.8871 0
M  V30 4280 H 401.644 3.60767 2.50487 0
M  V30 4281 H 402.25 4.15151 0.923573 0
M  V30 4282 N 400.565 -0.0233959 1.57583 0
M  V30 4283 C 401.528 -1.00693 2.05897 0
M  V30 4284 C 402.528 -1.28693 0.964092 0
M  V30 4285 O 403.718 -1.23602 1.22753 0
M  V30 4286 C 400.85 -2.33825 2.4807 0
M  V30 4287 H 402.043 -0.589476 2.9405 0
M  V30 4288 H 399.596 -0.270354 1.53944 0
M  V30 4289 H 400.331 -2.80307 1.6309 0
M  V30 4290 H 400.116 -2.1483 3.2801 0
M  V30 4291 H 401.606 -3.04426 2.85857 0
M  V30 4292 N 402.043 -1.548 -0.295768 0
M  V30 4293 C 403.32 -1.65014 -1.05023 0
M  V30 4294 C 403.7 -0.501805 -2.05049 0
M  V30 4295 O 403.048 0.500869 -2.22943 0
M  V30 4296 C 403.258 -3.03252 -1.72741 0
M  V30 4297 C 404.606 -3.60242 -2.24746 0
M  V30 4298 O 405.63 -3.05737 -1.82765 0
M  V30 4299 O 404.489 -4.55687 -3.01681 0
M  V30 4300 H 401.583 -0.669314 -0.485744 0
M  V30 4301 H 404.129 -1.67144 -0.293438 0
M  V30 4302 H 402.901 -3.7827 -1.00138 0
M  V30 4303 H 402.524 -3.04922 -2.55163 0
M  V30 4304 N 403.521 0.559213 -1.47345 0
M  V30 4305 C 404.932 1.14134 -1.47751 0
M  V30 4306 C 405.283 1.94834 -0.231103 0
M  V30 4307 O 404.408 2.05957 0.664137 0
M  V30 4308 C 405.003 2.07653 -2.67705 0
M  V30 4309 C 403.562 2.61141 -2.71076 0
M  V30 4310 C 402.709 1.3748 -2.40821 0
M  V30 4311 H 405.66 0.345917 -1.54884 0
M  V30 4312 H 405.681 2.91497 -2.44561 0
M  V30 4313 H 405.193 1.4889 -3.58404 0
M  V30 4314 H 403.294 3.23707 -1.84511 0
M  V30 4315 H 403.407 3.02272 -3.7171 0
M  V30 4316 H 401.771 1.68086 -1.91362 0
M  V30 4317 H 402.554 0.805135 -3.33725 0
M  V30 4318 N 404.999 1.35443 0.805782 0
M  V30 4319 C 406.247 1.28507 1.55982 0
M  V30 4320 C 406.568 -0.140046 1.94496 0
M  V30 4321 O 405.838 -1.07666 1.63661 0
M  V30 4322 H 404.418 0.472676 0.578434 0
M  V30 4323 H 407.08 1.69555 0.961098 0
M  V30 4324 H 406.176 1.90148 2.47488 0
M  V30 4325 N 406.477 -1.02803 1.19454 0
M  V30 4326 C 407.44 -2.09264 0.934955 0
M  V30 4327 C 408.44 -1.60576 -0.0849015 0
M  V30 4328 O 409.63 -1.73554 0.149933 0
M  V30 4329 C 406.762 -3.38482 0.40531 0
M  V30 4330 H 407.955 -2.33726 1.87916 0
M  V30 4331 H 405.508 -1.19426 1.00832 0
M  V30 4332 H 406.243 -3.19689 -0.544899 0
M  V30 4333 H 406.028 -3.75142 1.14065 0
M  V30 4334 H 407.518 -4.16894 0.242806 0
M  V30 4335 N 407.956 -0.998596 -1.21925 0
M  V30 4336 C 409.184 -0.696286 -1.94832 0
M  V30 4337 C 409.599 0.740032 -1.73692 0
M  V30 4338 O 408.956 1.5 -1.03953 0
M  V30 4339 C 409.007 -0.999833 -3.47398 0
M  V30 4340 O 408.728 -2.37972 -3.67833 0
M  V30 4341 C 410.229 -0.716025 -4.37479 0
M  V30 4342 H 407.449 -0.257111 -0.619786 0
M  V30 4343 H 409.993 -1.33491 -1.54921 0
M  V30 4344 H 408.148 -0.406918 -3.85257 0
M  V30 4345 H 408.562 -2.48338 -4.61983 0
M  V30 4346 H 410.036 -0.978642 -5.43256 0
M  V30 4347 H 410.513 0.349968 -4.37803 0
M  V30 4348 H 411.119 -1.29025 -4.05256 0
M  V30 4349 N 409.434 1.37368 -0.772513 0
M  V30 4350 C 410.367 2.27956 -0.105593 0
M  V30 4351 C 411.345 1.46362 0.708295 0
M  V30 4352 O 412.529 1.75695 0.682895 0
M  V30 4353 C 409.656 3.27687 0.856686 0
M  V30 4354 C 408.702 4.26312 0.1267 0
M  V30 4355 S 409.535 5.22206 -1.1858 0
M  V30 4356 C 410.691 6.25488 -0.227081 0
M  V30 4357 H 410.924 2.84171 -0.87372 0
M  V30 4358 H 408.457 1.43654 -0.565939 0
M  V30 4359 H 410.415 3.85653 1.40648 0
M  V30 4360 H 409.076 2.70417 1.59793 0
M  V30 4361 H 408.269 4.96674 0.856212 0
M  V30 4362 H 407.871 3.72339 -0.352117 0
M  V30 4363 H 410.163 6.74836 0.600231 0
M  V30 4364 H 411.106 7.02371 -0.898899 0
M  V30 4365 H 411.514 5.64267 0.162053 0
M  V30 4366 N 410.912 0.523116 1.48665 0
M  V30 4367 C 412.14 -0.0096312 2.06898 0
M  V30 4368 C 412.555 -1.28784 1.38059 0
M  V30 4369 O 411.912 -1.76453 0.465893 0
M  V30 4370 C 411.963 -0.244386 3.60673 0
M  V30 4371 O 411.684 0.983172 4.26925 0
M  V30 4372 C 413.185 -0.818289 4.35682 0
M  V30 4373 H 410.405 0.0304161 0.67031 0
M  V30 4374 H 412.949 0.726799 1.91149 0
M  V30 4375 H 411.104 -0.930847 3.76051 0
M  V30 4376 H 411.518 0.759653 5.1897 0
M  V30 4377 H 412.992 -0.93201 5.44075 0
M  V30 4378 H 413.469 -1.82153 3.99646 0
M  V30 4379 H 414.075 -0.168609 4.24966 0
M  V30 4380 N 412.39 -1.55475 0.257931 0
M  V30 4381 C 413.637 -1.99207 -0.363728 0
M  V30 4382 C 413.965 -1.1462 -1.57139 0
M  V30 4383 O 413.22 -0.199653 -1.94679 0
M  V30 4384 C 413.519 -3.48183 -0.806433 0
M  V30 4385 C 413.185 -4.49936 0.294684 0
M  V30 4386 C 411.847 -4.77481 0.597076 0
M  V30 4387 C 414.199 -5.10769 1.03751 0
M  V30 4388 C 411.527 -5.63132 1.64618 0
M  V30 4389 C 413.879 -5.97558 2.07622 0
M  V30 4390 C 412.543 -6.23432 2.38514 0
M  V30 4391 H 411.813 -0.728949 -0.133097 0
M  V30 4392 H 414.46 -1.8793 0.368059 0
M  V30 4393 H 412.765 -3.56848 -1.61761 0
M  V30 4394 H 414.462 -3.79415 -1.29789 0
M  V30 4395 H 411.052 -4.28572 0.0488649 0
M  V30 4396 H 415.236 -4.89527 0.817149 0
M  V30 4397 H 410.492 -5.8143 1.89074 0
M  V30 4398 H 414.666 -6.43735 2.65666 0
M  V30 4399 H 412.293 -6.89594 3.19943 0
M  V30 4400 N 413.868 0.0150385 -1.57593 0
M  V30 4401 C 414.8 1.03912 -2.04291 0
M  V30 4402 C 415.813 1.31618 -0.958146 0
M  V30 4403 O 417.002 1.28859 -1.23522 0
M  V30 4404 C 414.102 2.37749 -2.41514 0
M  V30 4405 C 413.275 2.29198 -3.72541 0
M  V30 4406 C 412.334 3.45598 -3.96797 0
M  V30 4407 O 411.36 3.24461 -4.67668 0
M  V30 4408 N 412.562 4.67945 -3.43523 0
M  V30 4409 H 415.327 0.64099 -2.92765 0
M  V30 4410 H 412.888 0.20272 -1.60626 0
M  V30 4411 H 414.88 3.14364 -2.54867 0
M  V30 4412 H 413.45 2.69357 -1.58637 0
M  V30 4413 H 412.67 1.3759 -3.69408 0
M  V30 4414 H 413.958 2.20642 -4.5847 0
M  V30 4415 H 413.356 4.88017 -2.86104 0
M  V30 4416 H 411.913 5.41878 -3.62232 0
M  V30 4417 N 415.346 1.54954 0.287554 0
M  V30 4418 C 416.309 1.86076 1.33823 0
M  V30 4419 C 417.309 0.734414 1.43049 0
M  V30 4420 O 418.499 1.00266 1.42452 0
M  V30 4421 C 415.631 2.05305 2.72144 0
M  V30 4422 H 416.824 2.79984 1.07465 0
M  V30 4423 H 414.377 1.47223 0.524902 0
M  V30 4424 H 415.112 1.1373 3.03704 0
M  V30 4425 H 414.897 2.873 2.66836 0
M  V30 4426 H 416.387 2.30706 3.48087 0
M  V30 4427 N 416.824 -0.551391 1.4764 0
M  V30 4428 C 418.101 -1.31229 1.45046 0
M  V30 4429 C 418.481 -2.10563 0.150527 0
M  V30 4430 O 417.829 -2.11374 -0.867956 0
M  V30 4431 C 418.039 -2.21189 2.69956 0
M  V30 4432 C 419.387 -2.82021 3.1741 0
M  V30 4433 O 420.411 -2.31488 2.70724 0
M  V30 4434 O 419.27 -3.73885 3.98588 0
M  V30 4435 H 416.364 -0.591193 0.578291 0
M  V30 4436 H 418.91 -0.569813 1.59847 0
M  V30 4437 H 417.682 -1.62207 3.56096 0
M  V30 4438 H 417.305 -3.02722 2.57769 0
M  V30 4439 N 418.302 -1.35869 -0.798587 0
M  V30 4440 C 419.713 -1.26498 -1.37314 0
M  V30 4441 C 420.064 0.0991899 -1.95949 0
M  V30 4442 O 419.189 1.0004 -1.91888 0
M  V30 4443 C 419.784 -2.29054 -2.49639 0
M  V30 4444 C 418.343 -2.234 -3.02935 0
M  V30 4445 C 417.49 -2.14329 -1.75949 0
M  V30 4446 H 420.441 -1.46881 -0.600971 0
M  V30 4447 H 420.462 -1.92166 -3.28409 0
M  V30 4448 H 419.974 -3.2833 -2.06933 0
M  V30 4449 H 418.075 -1.27562 -3.50084 0
M  V30 4450 H 418.188 -3.15703 -3.60372 0
M  V30 4451 H 416.552 -1.60435 -1.9782 0
M  V30 4452 H 417.335 -3.15477 -1.35384 0
M  V30 4453 N 419.78 1.02168 -1.19998 0
M  V30 4454 C 420.727 2.10601 -0.944228 0
M  V30 4455 C 421.697 1.65639 0.123664 0
M  V30 4456 O 422.882 1.9079 -0.0199941 0
M  V30 4457 C 420.022 3.41504 -0.496865 0
M  V30 4458 C 419.135 3.99973 -1.63234 0
M  V30 4459 C 418.27 5.18915 -1.13579 0
M  V30 4460 C 417.309 5.69456 -2.24468 0
M  V30 4461 N 416.446 6.79665 -1.76068 0
M  V30 4462 H 421.286 2.31814 -1.8726 0
M  V30 4463 H 418.823 1.13686 -0.933483 0
M  V30 4464 H 420.781 4.16626 -0.218843 0
M  V30 4465 H 419.411 3.2038 0.394508 0
M  V30 4466 H 418.463 3.21997 -2.0254 0
M  V30 4467 H 419.775 4.33492 -2.46752 0
M  V30 4468 H 418.929 6.01222 -0.813429 0
M  V30 4469 H 417.668 4.8695 -0.270434 0
M  V30 4470 H 416.673 4.85757 -2.57526 0
M  V30 4471 H 417.898 6.03459 -3.11472 0
M  V30 4472 H 415.844 6.49538 -0.918516 0
M  V30 4473 H 415.761 7.12349 -2.5317 0
M  V30 4474 H 417.029 7.65549 -1.46817 0
M  V30 4475 N 421.258 1.00505 1.21394 0
M  V30 4476 C 422.205 0.565496 2.23765 0
M  V30 4477 C 423.175 -0.408466 1.60999 0
M  V30 4478 O 424.36 -0.310503 1.88257 0
M  V30 4479 C 421.5 -0.101667 3.4495 0
M  V30 4480 C 420.613 0.915479 4.22188 0
M  V30 4481 C 419.748 0.220574 5.30742 0
M  V30 4482 C 418.787 1.22527 5.99711 0
M  V30 4483 N 417.924 0.557831 6.9988 0
M  V30 4484 H 422.764 1.44314 2.60725 0
M  V30 4485 H 420.301 0.722643 1.28126 0
M  V30 4486 H 422.259 -0.505504 4.14126 0
M  V30 4487 H 420.889 -0.94303 3.08718 0
M  V30 4488 H 419.941 1.43756 3.52191 0
M  V30 4489 H 421.253 1.68005 4.69655 0
M  V30 4490 H 420.407 -0.239368 6.06228 0
M  V30 4491 H 419.146 -0.576401 4.84282 0
M  V30 4492 H 418.151 1.69571 5.22997 0
M  V30 4493 H 419.376 2.02332 6.48258 0
M  V30 4494 H 417.322 -0.219486 6.55633 0
M  V30 4495 H 417.239 1.26065 7.45415 0
M  V30 4496 H 418.507 0.121095 7.79406 0
M  V30 4497 N 422.737 -1.36956 0.779787 0
M  V30 4498 C 424.148 -1.82094 0.412156 0
M  V30 4499 C 424.499 -1.64926 -1.06273 0
M  V30 4500 O 423.624 -1.16483 -1.82375 0
M  V30 4501 C 424.219 -3.3059 0.741319 0
M  V30 4502 C 422.778 -3.73974 0.426641 0
M  V30 4503 C 421.925 -2.59368 0.980987 0
M  V30 4504 H 424.876 -1.25314 0.973758 0
M  V30 4505 H 424.897 -3.80489 0.028887 0
M  V30 4506 H 424.409 -3.43054 1.81482 0
M  V30 4507 H 422.51 -3.67076 -0.639215 0
M  V30 4508 H 422.623 -4.69778 0.940515 0
M  V30 4509 H 420.987 -2.51463 0.404757 0
M  V30 4510 H 421.77 -2.74621 2.06005 0
M  V30 4511 N 424.215 -0.530993 -1.48385 0
M  V30 4512 C 425.464 0.00474348 -2.01699 0
M  V30 4513 C 425.777 1.35227 -1.41325 0
M  V30 4514 O 426.983 1.97643 -1.86144 0
M  V30 4515 C 425.439 0.0588473 -3.59852 0
M  V30 4516 C 425.047 -1.28385 -4.2921 0
M  V30 4517 C 426.791 0.543358 -4.21008 0
M  V30 4518 C 424.698 -1.19028 -5.79298 0
M  V30 4519 H 423.628 0.00554317 -0.75398 0
M  V30 4520 H 426.279 -0.674924 -1.70637 0
M  V30 4521 H 424.661 0.803612 -3.8776 0
M  V30 4522 H 425.835 -2.04426 -4.12973 0
M  V30 4523 H 424.15 -1.70418 -3.7993 0
M  V30 4524 H 426.747 0.631351 -5.3096 0
M  V30 4525 H 427.09 1.54937 -3.86394 0
M  V30 4526 H 427.623 -0.145754 -3.97533 0
M  V30 4527 H 424.362 -2.17147 -6.18488 0
M  V30 4528 H 423.882 -0.471246 -5.97946 0
M  V30 4529 H 425.561 -0.881365 -6.40969 0
M  V30 4530 N 425.693 1.55336 -0.266172 0
M  V30 4531 C 426.941 1.99003 0.35246 0
M  V30 4532 C 427.262 1.15591 1.57047 0
M  V30 4533 O 426.532 0.243268 1.94384 0
M  V30 4534 H 425.112 0.735025 0.133217 0
M  V30 4535 H 427.774 1.91367 -0.369434 0
M  V30 4536 H 426.87 3.05289 0.648453 0
M  V30 4537 N 427.171 -0.0066808 1.57599 0
M  V30 4538 C 428.419 -0.691552 1.899 0
M  V30 4539 C 428.74 -1.74682 0.866672 0
M  V30 4540 O 428.01 -1.95661 -0.0968189 0
M  V30 4541 H 426.59 -0.258416 0.700878 0
M  V30 4542 H 429.252 0.0326655 1.94873 0
M  V30 4543 H 428.348 -1.16702 2.8946 0
M  V30 4544 N 428.649 -1.55105 -0.279332 0
M  V30 4545 C 429.599 -1.83937 -1.34727 0
M  V30 4546 C 430.583 -0.69785 -1.44979 0
M  V30 4547 O 431.775 -0.95904 -1.48766 0
M  V30 4548 C 428.904 -2.1092 -2.70864 0
M  V30 4549 C 427.99 -3.31314 -2.64748 0
M  V30 4550 N 428.381 -4.51371 -2.2825 0
M  V30 4551 C 426.679 -3.33777 -2.95819 0
M  V30 4552 C 427.38 -5.33447 -2.31969 0
M  V30 4553 N 426.356 -4.71697 -2.7019 0
M  V30 4554 H 430.158 -2.74309 -1.05506 0
M  V30 4555 H 427.672 -1.54896 -0.487959 0
M  V30 4556 H 429.669 -2.2973 -3.47893 0
M  V30 4557 H 428.329 -1.21828 -3.00979 0
M  V30 4558 H 429.34 -4.77584 -2.00335 0
M  V30 4559 H 426.017 -2.54858 -3.30687 0
M  V30 4560 H 427.407 -6.39424 -2.06365 0
M  V30 4561 N 430.127 0.543554 -1.4793 0
M  V30 4562 C 431.376 1.29649 -1.54512 0
M  V30 4563 C 431.689 1.94382 -0.217973 0
M  V30 4564 O 432.895 2.71017 -0.161908 0
M  V30 4565 C 431.351 2.35175 -2.72435 0
M  V30 4566 C 430.959 1.76572 -4.11736 0
M  V30 4567 C 432.703 3.11564 -2.8832 0
M  V30 4568 C 430.61 2.79958 -5.20939 0
M  V30 4569 H 429.54 0.487541 -0.57517 0
M  V30 4570 H 432.191 0.575708 -1.74235 0
M  V30 4571 H 430.573 3.10229 -2.46118 0
M  V30 4572 H 431.747 1.07799 -4.48013 0
M  V30 4573 H 430.062 1.12722 -4.00852 0
M  V30 4574 H 432.659 3.88794 -3.67074 0
M  V30 4575 H 433.002 3.66594 -1.97268 0
M  V30 4576 H 433.535 2.43623 -3.14472 0
M  V30 4577 H 430.274 2.29766 -6.13912 0
M  V30 4578 H 429.794 3.47101 -4.89164 0
M  V30 4579 H 431.473 3.43198 -5.48474 0
M  V30 4580 N 431.605 1.3629 0.791371 0
M  V30 4581 C 432.535 1.33137 1.91825 0
M  V30 4582 C 433.516 0.203168 1.68882 0
M  V30 4583 O 434.701 0.400509 1.90025 0
M  V30 4584 C 431.831 1.11793 3.28816 0
M  V30 4585 C 430.785 2.21417 3.66277 0
M  V30 4586 C 430.111 1.85218 5.01596 0
M  V30 4587 C 431.411 3.63489 3.75064 0
M  V30 4588 H 433.105 2.2743 1.9472 0
M  V30 4589 H 430.651 1.09479 0.935437 0
M  V30 4590 H 432.604 1.08222 4.07266 0
M  V30 4591 H 431.328 0.139501 3.26302 0
M  V30 4592 H 429.987 2.2411 2.90121 0
M  V30 4593 H 429.635 0.859544 4.95602 0
M  V30 4594 H 429.335 2.58611 5.27631 0
M  V30 4595 H 430.859 1.832 5.82469 0
M  V30 4596 H 432.273 3.63034 4.43711 0
M  V30 4597 H 430.67 4.35771 4.12582 0
M  V30 4598 H 431.74 3.98536 2.76219 0
M  V30 4599 N 433.083 -1.0153 1.20538 0
M  V30 4600 C 434.046 -2.0826 0.957098 0
M  V30 4601 C 435.046 -1.60657 -0.0678655 0
M  V30 4602 O 436.236 -1.73385 0.168332 0
M  V30 4603 C 433.368 -3.38033 0.441188 0
M  V30 4604 H 434.561 -2.31719 1.90384 0
M  V30 4605 H 432.114 -1.1835 1.02093 0
M  V30 4606 H 432.849 -3.20249 -0.510961 0
M  V30 4607 H 432.634 -3.73911 1.18038 0
M  V30 4608 H 434.124 -4.16613 0.287009 0
M  V30 4609 N 434.561 -1.01147 -1.20859 0
M  V30 4610 C 435.511 -0.548247 -2.2131 0
M  V30 4611 C 436.495 0.393646 -1.5601 0
M  V30 4612 O 437.687 0.217445 -1.75659 0
M  V30 4613 C 434.816 0.117252 -3.431 0
M  V30 4614 C 433.902 -0.846043 -4.15575 0
M  V30 4615 N 434.293 -2.00149 -4.64515 0
M  V30 4616 C 432.591 -0.665783 -4.41003 0
M  V30 4617 C 433.292 -2.60764 -5.19978 0
M  V30 4618 N 432.268 -1.88868 -5.09735 0
M  V30 4619 H 436.07 -1.42921 -2.56809 0
M  V30 4620 H 433.584 -0.876142 -1.36739 0
M  V30 4621 H 435.581 0.46662 -4.1428 0
M  V30 4622 H 434.241 0.994115 -3.09107 0
M  V30 4623 H 435.252 -2.38162 -4.5989 0
M  V30 4624 H 431.929 0.163456 -4.1718 0
M  V30 4625 H 433.319 -3.58519 -5.68255 0
M  V30 4626 N 436.039 1.36541 -0.78704 0
M  V30 4627 C 437.002 2.28413 -0.189778 0
M  V30 4628 C 438.002 1.48719 0.611499 0
M  V30 4629 O 439.192 1.68737 0.432842 0
M  V30 4630 C 436.324 3.32824 0.737638 0
M  V30 4631 H 437.517 2.82743 -0.999831 0
M  V30 4632 H 435.07 1.46065 -0.556298 0
M  V30 4633 H 435.805 2.83646 1.57212 0
M  V30 4634 H 435.59 3.91752 0.165044 0
M  V30 4635 H 437.08 4.0144 1.15047 0
M  V30 4636 N 437.518 0.538854 1.48102 0
M  V30 4637 C 438.743 0.0102694 2.07397 0
M  V30 4638 C 439.168 -1.26562 1.39153 0
M  V30 4639 O 438.526 -1.75357 0.460387 0
M  V30 4640 C 438.574 -0.187602 3.60112 0
M  V30 4641 O 437.678 -1.25432 3.92862 0
M  V30 4642 H 437.019 0.0430975 0.6626 0
M  V30 4643 H 439.549 0.749301 1.90385 0
M  V30 4644 H 439.559 -0.407517 4.0596 0
M  V30 4645 H 438.234 0.744386 4.09184 0
M  V30 4646 H 436.811 -1.01636 3.58782 0
M  V30 4647 N 438.996 -1.55193 0.274407 0
M  V30 4648 C 440.224 -2.03987 -0.345943 0
M  V30 4649 C 440.639 -1.15279 -1.4952 0
M  V30 4650 O 439.996 -0.172759 -1.8168 0
M  V30 4651 C 440.047 -3.51898 -0.827631 0
M  V30 4652 O 439.768 -4.37231 0.275855 0
M  V30 4653 C 441.269 -4.16577 -1.51587 0
M  V30 4654 H 438.489 -0.666335 -0.0789892 0
M  V30 4655 H 441.033 -2.00423 0.406294 0
M  V30 4656 H 439.188 -3.55909 -1.52996 0
M  V30 4657 H 439.602 -5.24415 -0.0943638 0
M  V30 4658 H 441.076 -5.21678 -1.80433 0
M  V30 4659 H 441.553 -3.64707 -2.44716 0
M  V30 4660 H 442.159 -4.16568 -0.857409 0
M  V30 4661 N 440.474 -0.00167713 -1.576 0
M  V30 4662 C 441.702 0.693759 -1.94922 0
M  V30 4663 C 442.117 1.67215 -0.876626 0
M  V30 4664 O 441.474 1.81929 0.144279 0
M  V30 4665 C 441.525 1.42416 -3.32265 0
M  V30 4666 O 441.246 0.485014 -4.35407 0
M  V30 4667 C 442.747 2.21395 -3.84056 0
M  V30 4668 H 439.967 0.193118 -0.642609 0
M  V30 4669 H 442.511 -0.0532952 -2.04431 0
M  V30 4670 H 440.666 2.12284 -3.24059 0
M  V30 4671 H 441.08 1.00053 -5.14868 0
M  V30 4672 H 442.554 2.67996 -4.82578 0
M  V30 4673 H 443.031 3.04142 -3.16851 0
M  V30 4674 H 443.637 1.56542 -3.95443 0
M  V30 4675 N 441.952 1.55251 0.271103 0
M  V30 4676 C 443.368 1.47133 0.618393 0
M  V30 4677 C 443.568 0.686994 1.89427 0
M  V30 4678 O 442.624 0.206609 2.51653 0
M  V30 4679 C 443.937 2.91361 0.743593 0
M  V30 4680 C 445.485 3.01587 0.837522 0
M  V30 4681 C 445.96 4.47073 0.994483 0
M  V30 4682 N 447.451 4.50909 1.05996 0
M  V30 4683 C 448.186 5.60698 1.20024 0
M  V30 4684 N 447.682 6.80348 1.30759 0
M  V30 4685 N 449.475 5.48444 1.23149 0
M  V30 4686 H 441.626 2.04698 -0.566784 0
M  V30 4687 H 443.889 0.928319 -0.192165 0
M  V30 4688 H 443.595 3.51483 -0.123493 0
M  V30 4689 H 443.469 3.40484 1.62328 0
M  V30 4690 H 445.856 2.4156 1.69507 0
M  V30 4691 H 445.937 2.55713 -0.0668086 0
M  V30 4692 H 445.581 5.07703 0.141582 0
M  V30 4693 H 445.511 4.90605 1.91349 0
M  V30 4694 H 448.002 3.6472 0.989316 0
M  V30 4695 H 448.315 7.59772 1.41303 0
M  V30 4696 H 446.66 6.83156 1.27761 0
M  V30 4697 H 449.851 4.53907 1.14394 0
M  V30 4698 H 450.024 6.34049 1.33738 0
M  V30 4699 N 443.43 -0.535701 1.48216 0
M  V30 4700 C 444.679 -1.28828 1.55197 0
M  V30 4701 C 444.992 -1.94263 0.228278 0
M  V30 4702 O 446.198 -2.70927 0.176278 0
M  V30 4703 C 444.654 -2.33727 2.73678 0
M  V30 4704 C 444.262 -1.74386 4.12666 0
M  V30 4705 C 446.006 -3.1003 2.89968 0
M  V30 4706 C 443.913 -2.77192 5.22416 0
M  V30 4707 H 442.843 -0.484484 0.577747 0
M  V30 4708 H 445.494 -0.56646 1.74538 0
M  V30 4709 H 443.876 -3.08919 2.4776 0
M  V30 4710 H 445.05 -1.05421 4.48579 0
M  V30 4711 H 443.365 -1.10595 4.01445 0
M  V30 4712 H 445.962 -3.86842 3.6913 0
M  V30 4713 H 446.305 -3.65542 1.9921 0
M  V30 4714 H 446.838 -2.41952 3.15759 0
M  V30 4715 H 443.577 -2.26507 6.15122 0
M  V30 4716 H 443.097 -3.44502 4.90998 0
M  V30 4717 H 444.776 -3.40285 5.50286 0
M  V30 4718 N 444.908 -1.36708 -0.784132 0
M  V30 4719 C 446.133 -1.34565 -1.5782 0
M  V30 4720 C 446.558 0.0695257 -1.87971 0
M  V30 4721 O 445.916 1.04302 -1.48293 0
M  V30 4722 C 445.964 -2.17952 -2.87279 0
M  V30 4723 O 445.068 -1.57563 -3.81114 0
M  V30 4724 H 444.409 -0.460337 -0.478524 0
M  V30 4725 H 446.939 -1.80064 -0.971495 0
M  V30 4726 H 446.949 -2.30721 -3.365 0
M  V30 4727 H 445.624 -3.20823 -2.64661 0
M  V30 4728 H 444.201 -1.53764 -3.39722 0
M  V30 4729 N 446.386 1.0089 -1.21074 0
M  V30 4730 C 447.316 2.1145 -0.990523 0
M  V30 4731 C 448.297 1.69897 0.0831699 0
M  V30 4732 O 449.482 1.94052 -0.0758853 0
M  V30 4733 C 446.612 3.42914 -0.550177 0
M  V30 4734 C 445.566 3.98244 -1.56799 0
M  V30 4735 C 444.892 5.25568 -0.984013 0
M  V30 4736 C 446.192 4.30752 -2.95381 0
M  V30 4737 H 447.886 2.3013 -1.91521 0
M  V30 4738 H 445.432 1.10592 -0.92225 0
M  V30 4739 H 447.385 4.19653 -0.383305 0
M  V30 4740 H 446.109 3.24014 0.41015 0
M  V30 4741 H 444.768 3.23621 -1.72236 0
M  V30 4742 H 444.416 5.02998 -0.0155216 0
M  V30 4743 H 444.116 5.63551 -1.66384 0
M  V30 4744 H 445.64 6.04955 -0.828378 0
M  V30 4745 H 447.054 4.98349 -2.8341 0
M  V30 4746 H 445.451 4.79869 -3.60341 0
M  V30 4747 H 446.521 3.39192 -3.46521 0
M  V30 4748 N 447.864 1.01787 1.20321 0
M  V30 4749 C 449.28 0.732951 1.41774 0
M  V30 4750 C 449.48 -0.686883 1.89431 0
M  V30 4751 O 448.536 -1.45446 2.06402 0
M  V30 4752 C 449.849 1.75973 2.43832 0
M  V30 4753 C 451.397 1.77802 2.57596 0
M  V30 4754 C 451.872 2.7941 3.62897 0
M  V30 4755 N 453.363 2.78157 3.70382 0
M  V30 4756 C 454.098 3.53434 4.51521 0
M  V30 4757 N 453.594 4.38392 5.36455 0
M  V30 4758 N 455.387 3.42026 4.46066 0
M  V30 4759 H 447.538 1.93447 0.877035 0
M  V30 4760 H 449.801 0.835712 0.447536 0
M  V30 4761 H 449.507 2.77699 2.15815 0
M  V30 4762 H 449.381 1.57292 3.4284 0
M  V30 4763 H 451.768 0.767602 2.84942 0
M  V30 4764 H 451.849 2.00557 1.58779 0
M  V30 4765 H 451.493 3.80616 3.36295 0
M  V30 4766 H 451.423 2.53916 4.61339 0
M  V30 4767 H 453.914 2.16531 3.09714 0
M  V30 4768 H 454.227 4.92596 5.95457 0
M  V30 4769 H 452.572 4.4247 5.35953 0
M  V30 4770 H 455.763 2.75075 3.78749 0
M  V30 4771 H 455.936 4.00946 5.09064 0
M  V30 4772 N 449.342 -1.36122 0.79427 0
M  V30 4773 C 450.289 -2.29982 0.194101 0
M  V30 4774 C 451.259 -1.52214 -0.664833 0
M  V30 4775 O 452.444 -1.80702 -0.612498 0
M  V30 4776 C 449.584 -3.38706 -0.661244 0
M  V30 4777 C 448.697 -4.31456 0.216766 0
M  V30 4778 C 447.832 -5.27265 -0.645411 0
M  V30 4779 C 446.871 -6.11653 0.233756 0
M  V30 4780 N 446.008 -6.99636 -0.587682 0
M  V30 4781 H 450.848 -2.80722 0.999965 0
M  V30 4782 H 448.385 -1.38172 0.504677 0
M  V30 4783 H 450.343 -4.00394 -1.17219 0
M  V30 4784 H 448.973 -2.89274 -1.43249 0
M  V30 4785 H 448.025 -3.7088 0.845724 0
M  V30 4786 H 449.337 -4.90724 0.893973 0
M  V30 4787 H 448.491 -5.94266 -1.22198 0
M  V30 4788 H 447.23 -4.68463 -1.35623 0
M  V30 4789 H 446.235 -5.4361 0.82269 0
M  V30 4790 H 447.46 -6.72531 0.942247 0
M  V30 4791 H 445.406 -6.43337 -1.2827 0
M  V30 4792 H 445.323 -7.55993 0.0317402 0
M  V30 4793 H 446.591 -7.71001 -1.14792 0
M  V30 4794 N 450.82 -0.546701 -1.47814 0
M  V30 4795 C 452.068 -0.0187037 -2.02091 0
M  V30 4796 C 452.389 1.33168 -1.42447 0
M  V30 4797 O 451.659 1.86619 -0.595839 0
M  V30 4798 H 450.239 -0.00392531 -0.74699 0
M  V30 4799 H 452.901 -0.714327 -1.81338 0
M  V30 4800 H 451.997 0.0772219 -3.12004 0
M  V30 4801 N 452.299 1.55045 -0.282633 0
M  V30 4802 C 453.715 1.59441 0.0712997 0
M  V30 4803 C 453.915 1.2998 1.53972 0
M  V30 4804 O 452.971 1.06431 2.28973 0
M  V30 4805 C 454.284 2.99097 -0.310104 0
M  V30 4806 C 455.832 3.1194 -0.257343 0
M  V30 4807 C 456.307 4.53875 -0.613297 0
M  V30 4808 N 457.798 4.5974 -0.565134 0
M  V30 4809 C 458.533 5.67603 -0.81326 0
M  V30 4810 N 458.029 6.83582 -1.1264 0
M  V30 4811 N 459.822 5.57187 -0.741553 0
M  V30 4812 H 451.973 1.72458 -1.23984 0
M  V30 4813 H 454.236 0.804549 -0.501403 0
M  V30 4814 H 453.942 3.25516 -1.33163 0
M  V30 4815 H 453.816 3.75616 0.345366 0
M  V30 4816 H 456.203 2.85281 0.754905 0
M  V30 4817 H 456.284 2.37618 -0.947178 0
M  V30 4818 H 455.928 4.81261 -1.62327 0
M  V30 4819 H 455.858 5.26508 0.09841 0
M  V30 4820 H 458.349 3.76427 -0.333294 0
M  V30 4821 H 458.662 7.6175 -1.30219 0
M  V30 4822 H 457.007 6.85179 -1.16425 0
M  V30 4823 H 460.198 4.65457 -0.496705 0
M  V30 4824 H 460.371 6.41171 -0.938306 0
M  V30 4825 N 453.777 0.010035 1.57597 0
M  V30 4826 C 455.025 -0.671371 1.90623 0
M  V30 4827 C 455.346 -1.73753 0.885151 0
M  V30 4828 O 454.616 -1.95752 -0.0760611 0
M  V30 4829 H 453.196 -0.250968 0.703579 0
M  V30 4830 H 455.858 0.0533325 1.94827 0
M  V30 4831 H 454.954 -1.13626 2.90681 0
M  V30 4832 N 455.255 -1.55392 -0.262866 0
M  V30 4833 C 456.165 -1.92077 -1.34698 0
M  V30 4834 C 457.181 -0.819227 -1.53508 0
M  V30 4835 O 458.357 -1.11921 -1.67439 0
M  V30 4836 C 455.422 -2.19407 -2.68443 0
M  V30 4837 C 454.483 -3.42905 -2.58292 0
M  V30 4838 C 453.716 -3.68921 -3.85659 0
M  V30 4839 O 453.939 -2.97275 -4.8681 0
M  V30 4840 O 452.873 -4.62455 -3.85252 0
M  V30 4841 H 456.699 -2.84384 -1.06581 0
M  V30 4842 H 454.284 -1.42069 -0.462264 0
M  V30 4843 H 456.166 -2.38365 -3.47506 0
M  V30 4844 H 454.841 -1.30282 -2.96325 0
M  V30 4845 H 453.748 -3.29272 -1.7757 0
M  V30 4846 H 455.081 -4.32282 -2.35358 0
M  V30 4847 N 456.733 0.527833 -1.48498 0
M  V30 4848 C 457.663 1.64136 -1.66077 0
M  V30 4849 C 458.644 1.62286 -0.509625 0
M  V30 4850 O 459.829 1.79449 -0.742413 0
M  V30 4851 C 456.959 3.02717 -1.70234 0
M  V30 4852 C 455.913 3.19426 -2.8487 0
M  V30 4853 C 455.239 4.5909 -2.74118 0
M  V30 4854 C 456.539 3.01993 -4.26142 0
M  V30 4855 H 458.233 1.4968 -2.593 0
M  V30 4856 H 455.779 0.718654 -1.24785 0
M  V30 4857 H 457.732 3.80491 -1.8112 0
M  V30 4858 H 456.456 3.18201 -0.735911 0
M  V30 4859 H 455.115 2.4407 -2.73542 0
M  V30 4860 H 454.763 4.71413 -1.7544 0
M  V30 4861 H 454.463 4.71214 -3.51042 0
M  V30 4862 H 455.987 5.3896 -2.86974 0
M  V30 4863 H 457.401 3.69558 -4.38292 0
M  V30 4864 H 455.798 3.2561 -5.04082 0
M  V30 4865 H 456.868 1.98396 -4.42456 0
M  V30 4866 N 458.211 1.37122 0.776871 0
M  V30 4867 C 459.627 1.1781 1.07671 0
M  V30 4868 C 459.827 0.0107454 2.01497 0
M  V30 4869 O 458.883 -0.650756 2.4397 0
M  V30 4870 C 460.196 2.49451 1.67913 0
M  V30 4871 C 461.744 2.55927 1.80195 0
M  V30 4872 C 462.219 3.87686 2.43851 0
M  V30 4873 N 463.71 3.891 2.51307 0
M  V30 4874 C 464.445 4.87797 3.014 0
M  V30 4875 N 463.941 5.96888 3.51705 0
M  V30 4876 N 465.734 4.75205 3.00227 0
M  V30 4877 H 457.885 2.11843 0.153778 0
M  V30 4878 H 460.148 0.938927 0.130844 0
M  V30 4879 H 459.854 3.35207 1.06439 0
M  V30 4880 H 459.728 2.66169 2.67271 0
M  V30 4881 H 462.115 1.70582 2.40803 0
M  V30 4882 H 462.196 2.43097 0.796069 0
M  V30 4883 H 461.84 4.73444 1.83884 0
M  V30 4884 H 461.77 3.97817 3.45035 0
M  V30 4885 H 464.261 3.10293 2.157 0
M  V30 4886 H 464.574 6.68155 3.88316 0
M  V30 4887 H 462.919 6.0054 3.49824 0
M  V30 4888 H 466.11 3.89103 2.60224 0
M  V30 4889 H 466.283 5.52279 3.38957 0
M  V30 4890 N 459.689 -1.00246 1.21608 0
M  V30 4891 C 460.938 -1.73476 1.02902 0
M  V30 4892 C 461.251 -1.90643 -0.437561 0
M  V30 4893 O 462.457 -2.61105 -0.74407 0
M  V30 4894 C 460.913 -3.12079 1.79261 0
M  V30 4895 C 460.521 -3.02877 3.30106 0
M  V30 4896 C 462.265 -3.89421 1.68972 0
M  V30 4897 C 460.172 -4.36575 3.98944 0
M  V30 4898 H 459.102 -0.650408 0.381425 0
M  V30 4899 H 461.753 -1.11985 1.45367 0
M  V30 4900 H 460.135 -3.74196 1.2959 0
M  V30 4901 H 461.309 -2.49983 3.87098 0
M  V30 4902 H 459.624 -2.39022 3.40965 0
M  V30 4903 H 462.221 -4.88362 2.17731 0
M  V30 4904 H 462.564 -4.1122 0.648397 0
M  V30 4905 H 463.097 -3.33963 2.16133 0
M  V30 4906 H 459.836 -4.19978 5.03288 0
M  V30 4907 H 459.356 -4.8942 3.4674 0
M  V30 4908 H 461.035 -5.05364 4.04 0
M  V30 4909 N 461.167 -1.02423 -1.1978 0
M  V30 4910 C 462.13 -0.605703 -2.21052 0
M  V30 4911 C 463.13 0.328209 -1.57415 0
M  V30 4912 O 464.32 0.115853 -1.73814 0
M  V30 4913 C 461.452 0.114366 -3.40708 0
M  V30 4914 H 462.645 -1.5017 -2.59594 0
M  V30 4915 H 460.198 -0.814888 -1.33376 0
M  V30 4916 H 460.933 1.02492 -3.07678 0
M  V30 4917 H 460.718 -0.556641 -3.88129 0
M  V30 4918 H 462.208 0.394272 -4.15735 0
M  V30 4919 N 462.645 1.35699 -0.801477 0
M  V30 4920 C 463.592 2.29876 -0.206294 0
M  V30 4921 C 464.562 1.52565 0.656752 0
M  V30 4922 O 465.747 1.81024 0.602906 0
M  V30 4923 C 462.887 3.39052 0.643272 0
M  V30 4924 C 462 4.31335 -0.239644 0
M  V30 4925 C 461.135 5.27599 0.61744 0
M  V30 4926 C 460.174 6.11521 -0.26619 0
M  V30 4927 N 459.311 6.99938 0.550571 0
M  V30 4928 H 464.151 2.80187 -1.01484 0
M  V30 4929 H 461.688 1.37902 -0.511997 0
M  V30 4930 H 463.646 4.0101 1.15094 0
M  V30 4931 H 462.276 2.9003 1.41713 0
M  V30 4932 H 461.328 3.70426 -0.865381 0
M  V30 4933 H 462.64 4.90243 -0.919985 0
M  V30 4934 H 461.794 5.94906 1.19045 0
M  V30 4935 H 460.533 4.69176 1.33137 0
M  V30 4936 H 459.538 5.43166 -0.851507 0
M  V30 4937 H 460.763 6.72022 -0.9779 0
M  V30 4938 H 458.709 6.44008 1.24856 0
M  V30 4939 H 458.626 7.55966 -0.071832 0
M  V30 4940 H 459.894 7.71599 1.10702 0
M  V30 4941 N 464.123 0.554532 1.47522 0
M  V30 4942 C 465.372 0.0273458 2.01681 0
M  V30 4943 C 465.685 -1.32962 1.43459 0
M  V30 4944 O 466.891 -1.94657 1.89265 0
M  V30 4945 C 465.347 -0.00159057 3.599 0
M  V30 4946 C 464.955 1.35197 4.27113 0
M  V30 4947 C 466.699 -0.476311 4.21819 0
M  V30 4948 C 464.606 1.28229 5.77331 0
M  V30 4949 H 463.536 0.00645269 0.753972 0
M  V30 4950 H 466.187 0.701985 1.69542 0
M  V30 4951 H 464.569 -0.741821 3.8899 0
M  V30 4952 H 465.743 2.1097 4.09668 0
M  V30 4953 H 464.058 1.76441 3.77171 0
M  V30 4954 H 466.655 -0.5468 5.31897 0
M  V30 4955 H 466.998 -1.4877 3.8881 0
M  V30 4956 H 467.531 0.20898 3.97251 0
M  V30 4957 H 464.27 2.26959 6.14955 0
M  V30 4958 H 463.79 0.566314 5.97121 0
M  V30 4959 H 465.469 0.983226 6.39485 0
M  V30 4960 N 465.601 -1.54893 0.290851 0
M  V30 4961 C 466.831 -2.04047 -0.323818 0
M  V30 4962 C 467.239 -1.16809 -1.48837 0
M  V30 4963 O 466.582 -0.184145 -1.82775 0
M  V30 4964 C 466.644 -3.49248 -0.852395 0
M  V30 4965 C 466.308 -4.56623 0.185557 0
M  V30 4966 C 467.305 -5.09985 1.01053 0
M  V30 4967 C 464.99 -5.01252 0.324332 0
M  V30 4968 C 466.984 -6.06507 1.96031 0
M  V30 4969 C 464.671 -5.97596 1.27757 0
M  V30 4970 C 465.669 -6.50107 2.09405 0
M  V30 4971 O 465.357 -7.44565 3.03114 0
M  V30 4972 H 465.089 -0.671735 -0.0758129 0
M  V30 4973 H 467.643 -2.00947 0.425393 0
M  V30 4974 H 465.873 -3.49639 -1.65195 0
M  V30 4975 H 467.562 -3.81654 -1.38185 0
M  V30 4976 H 468.328 -4.76307 0.914129 0
M  V30 4977 H 464.207 -4.60015 -0.301213 0
M  V30 4978 H 467.751 -6.47418 2.598 0
M  V30 4979 H 463.648 -6.30691 1.37473 0
M  V30 4980 H 464.416 -7.62334 2.97976 0
M  V30 4981 N 467.08 -0.0183926 -1.57589 0
M  V30 4982 C 468.357 0.700621 -1.82622 0
M  V30 4983 C 468.737 1.90951 -0.90005 0
M  V30 4984 O 468.085 2.28452 0.0469145 0
M  V30 4985 C 468.295 1.08899 -3.31575 0
M  V30 4986 C 469.643 1.48514 -3.9778 0
M  V30 4987 O 470.667 1.18227 -3.36007 0
M  V30 4988 O 469.526 2.04903 -5.06633 0
M  V30 4989 H 466.62 0.342743 -0.752633 0
M  V30 4990 H 469.166 -0.0452548 -1.6964 0
M  V30 4991 H 467.938 0.228113 -3.90635 0
M  V30 4992 H 467.561 1.89338 -3.49624 0
M  V30 4993 N 468.558 1.5553 0.254621 0
M  V30 4994 C 469.783 1.81383 1.00573 0
M  V30 4995 C 470.208 0.594419 1.78461 0
M  V30 4996 O 469.566 -0.456403 1.75461 0
M  V30 4997 C 469.614 3.04892 1.92545 0
M  V30 4998 O 468.718 2.81266 3.01601 0
M  V30 4999 H 468.059 0.598969 0.286587 0
M  V30 5000 H 470.589 2.02703 0.277952 0
M  V30 5001 H 470.599 3.34119 2.34155 0
M  V30 5002 H 469.274 3.93287 1.3527 0
M  V30 5003 H 467.851 2.63185 2.64174 0
M  V30 5004 N 470.036 -0.519951 1.48776 0
M  V30 5005 C 471.447 -1.10177 1.50725 0
M  V30 5006 C 471.798 -1.94153 0.282678 0
M  V30 5007 O 470.923 -2.07645 -0.609298 0
M  V30 5008 C 471.518 -2.00482 2.73116 0
M  V30 5009 C 470.077 -2.53862 2.77905 0
M  V30 5010 C 469.224 -1.31047 2.44381 0
M  V30 5011 H 472.175 -0.30473 1.55747 0
M  V30 5012 H 472.196 -2.8491 2.52203 0
M  V30 5013 H 471.708 -1.39335 3.62225 0
M  V30 5014 H 469.809 -3.18702 1.93029 0
M  V30 5015 H 469.922 -2.9231 3.79594 0
M  V30 5016 H 468.286 -1.62953 1.95751 0
M  V30 5017 H 469.069 -0.71637 3.35743 0
M  V30 5018 N 471.514 -1.37532 -0.769588 0
M  V30 5019 C 472.424 -1.35668 -1.91393 0
M  V30 5020 C 473.44 -0.255954 -1.72107 0
M  V30 5021 O 474.616 -0.491704 -1.95305 0
M  V30 5022 C 471.681 -1.16481 -3.26547 0
M  V30 5023 C 470.742 -2.36212 -3.58472 0
M  V30 5024 C 469.975 -2.17932 -4.87177 0
M  V30 5025 O 470.198 -1.1647 -5.58382 0
M  V30 5026 O 469.132 -3.06167 -5.18214 0
M  V30 5027 H 472.958 -2.32055 -1.95918 0
M  V30 5028 H 470.543 -1.18284 -0.912641 0
M  V30 5029 H 472.425 -1.07778 -4.07384 0
M  V30 5030 H 471.1 -0.231687 -3.2287 0
M  V30 5031 H 470.007 -2.50488 -2.77861 0
M  V30 5032 H 471.34 -3.281 -3.66894 0
M  V30 5033 N 472.992 0.995999 -1.22138 0
M  V30 5034 C 473.925 2.08302 -0.931952 0
M  V30 5035 C 474.903 1.62127 0.123956 0
M  V30 5036 O 476.087 1.88499 -0.00696004 0
M  V30 5037 C 473.214 3.36317 -0.401068 0
M  V30 5038 C 472.26 4.01413 -1.44117 0
M  V30 5039 S 473.093 4.42664 -3.01345 0
M  V30 5040 C 474.249 5.73853 -2.49887 0
M  V30 5041 H 474.482 2.32532 -1.85246 0
M  V30 5042 H 472.015 1.13005 -1.0521 0
M  V30 5043 H 473.973 4.10375 -0.101352 0
M  V30 5044 H 472.634 3.10123 0.498272 0
M  V30 5045 H 471.827 4.9358 -1.01952 0
M  V30 5046 H 471.429 3.33668 -1.68943 0
M  V30 5047 H 473.721 6.50039 -1.90934 0
M  V30 5048 H 474.664 6.20841 -3.40532 0
M  V30 5049 H 475.072 5.31105 -1.9128 0
M  V30 5050 N 474.47 1.03057 1.19235 0
M  V30 5051 C 475.881 0.757449 1.70645 0
M  V30 5052 C 476.232 -0.722735 1.82403 0
M  V30 5053 O 475.357 -1.56325 1.49638 0
M  V30 5054 C 475.952 1.36833 3.09939 0
M  V30 5055 C 474.511 1.14375 3.58602 0
M  V30 5056 C 473.658 1.46533 2.35422 0
M  V30 5057 H 476.609 1.19828 1.04052 0
M  V30 5058 H 476.63 0.766184 3.72706 0
M  V30 5059 H 476.142 2.44562 3.01349 0
M  V30 5060 H 474.243 0.0847542 3.72504 0
M  V30 5061 H 474.356 1.83366 4.42622 0
M  V30 5062 H 472.72 0.884712 2.38841 0
M  V30 5063 H 473.503 2.55349 2.2946 0
M  V30 5064 N 475.948 -1.35272 0.808662 0
M  V30 5065 C 476.858 -2.33546 0.222079 0
M  V30 5066 C 477.874 -1.6196 -0.636011 0
M  V30 5067 O 479.05 -1.93822 -0.547274 0
M  V30 5068 C 476.115 -3.41148 -0.61795 0
M  V30 5069 C 475.176 -4.28507 0.260875 0
M  V30 5070 C 474.409 -5.3097 -0.539156 0
M  V30 5071 O 474.632 -5.42123 -1.77367 0
M  V30 5072 O 473.566 -6.01858 0.0710526 0
M  V30 5073 H 477.392 -2.85515 1.03512 0
M  V30 5074 H 474.977 -1.38079 0.570495 0
M  V30 5075 H 476.859 -4.06889 -1.09634 0
M  V30 5076 H 475.534 -2.91447 -1.40855 0
M  V30 5077 H 474.441 -3.6574 0.786451 0
M  V30 5078 H 475.774 -4.81611 1.01547 0
M  V30 5079 N 477.426 -0.562348 -1.47226 0
M  V30 5080 C 478.374 0.195476 -2.31777 0
M  V30 5081 C 479.368 0.90433 -1.43242 0
M  V30 5082 O 480.574 0.825031 -1.59979 0
M  V30 5083 H 476.949 0.0819095 -0.747526 0
M  V30 5084 H 478.92 -0.536753 -2.93533 0
M  V30 5085 C 477.669 1.20902 -3.26003 0
M  V30 5086 H 476.992 0.672997 -3.94095 0
M  V30 5087 H 478.432 1.71006 -3.87986 0
M  V30 5088 C 476.891 2.25955 -2.49891 0
M  V30 5089 O 477.421 3.32969 -2.2471 0
M  V30 5090 N 475.627 2.00019 -2.1081 0
M  V30 5091 H 475.174 1.13006 -2.31489 0
M  V30 5092 H 475.132 2.70523 -1.60201 0
M  V30 5093 N 478.904 1.54736 -0.299062 0
M  V30 5094 C 479.814 2.27127 0.587413 0
M  V30 5095 C 480.83 1.30575 1.15005 0
M  V30 5096 O 482.006 1.63554 1.17525 0
M  V30 5097 C 479.071 2.99645 1.74395 0
M  V30 5098 C 478.132 4.11731 1.21559 0
M  V30 5099 C 477.365 4.80781 2.317 0
M  V30 5100 O 477.588 4.4918 3.51558 0
M  V30 5101 O 476.522 5.68226 1.98501 0
M  V30 5102 H 480.348 3.037 0.000250109 0
M  V30 5103 H 477.933 1.49256 -0.0655919 0
M  V30 5104 H 479.815 3.45138 2.4178 0
M  V30 5105 H 478.49 2.25969 2.31775 0
M  V30 5106 H 477.397 3.70641 0.507514 0
M  V30 5107 H 478.73 4.87379 0.687233 0
M  V30 5108 N 480.382 0.0267497 1.57577 0
M  V30 5109 C 481.345 -0.940916 2.08996 0
M  V30 5110 C 482.345 -1.25561 1.00455 0
M  V30 5111 O 483.535 -1.19634 1.26623 0
M  V30 5112 C 480.667 -2.25814 2.55384 0
M  V30 5113 H 481.86 -0.495628 2.95776 0
M  V30 5114 H 479.413 -0.221241 1.54726 0
M  V30 5115 H 480.148 -2.74976 1.71926 0
M  V30 5116 H 479.933 -2.04285 3.34679 0
M  V30 5117 H 481.423 -2.95178 2.95398 0
M  V30 5118 N 481.861 -1.55662 -0.24637 0
M  V30 5119 C 483.089 -1.81575 -0.991876 0
M  V30 5120 C 483.504 -0.602545 -1.78927 0
M  V30 5121 O 482.861 0.428795 -1.77391 0
M  V30 5122 C 482.912 -3.05711 -1.92933 0
M  V30 5123 O 482.633 -4.22348 -1.1642 0
M  V30 5124 C 484.134 -3.44428 -2.79078 0
M  V30 5125 H 481.354 -0.604209 -0.291844 0
M  V30 5126 H 483.898 -2.02722 -0.269095 0
M  V30 5127 H 482.053 -2.86612 -2.60638 0
M  V30 5128 H 482.467 -4.92706 -1.79835 0
M  V30 5129 H 483.941 -4.34388 -3.40603 0
M  V30 5130 H 484.418 -2.65037 -3.50217 0
M  V30 5131 H 485.024 -3.65879 -2.16824 0
M  V30 5132 N 483.339 0.512053 -1.4905 0
M  V30 5133 C 484.586 1.26686 -1.57978 0
M  V30 5134 C 484.914 1.92733 -0.261553 0
M  V30 5135 O 484.169 1.80772 0.749667 0
M  V30 5136 C 484.468 2.36446 -2.68008 0
M  V30 5137 C 484.134 1.87932 -4.09869 0
M  V30 5138 C 482.796 1.74419 -4.48477 0
M  V30 5139 C 485.148 1.5149 -4.98698 0
M  V30 5140 C 482.476 1.22827 -5.73699 0
M  V30 5141 C 484.828 1.01355 -6.24428 0
M  V30 5142 C 483.492 0.864735 -6.61875 0
M  V30 5143 H 482.762 0.463577 -0.578081 0
M  V30 5144 H 485.409 0.569421 -1.82838 0
M  V30 5145 H 483.714 3.11933 -2.37076 0
M  V30 5146 H 485.411 2.9453 -2.72127 0
M  V30 5147 H 482.001 1.99405 -3.79389 0
M  V30 5148 H 486.185 1.60782 -4.69535 0
M  V30 5149 H 481.441 1.10008 -6.01422 0
M  V30 5150 H 485.615 0.722351 -6.92644 0
M  V30 5151 H 483.242 0.462777 -7.5879 0
M  V30 5152 N 484.817 1.37938 0.762283 0
M  V30 5153 C 485.78 1.34279 1.85747 0
M  V30 5154 C 486.78 0.244969 1.58923 0
M  V30 5155 O 487.97 0.501365 1.66829 0
M  V30 5156 C 485.102 1.08833 3.23061 0
M  V30 5157 H 486.295 2.31705 1.90401 0
M  V30 5158 H 483.848 1.23105 0.963057 0
M  V30 5159 H 484.583 0.119767 3.24079 0
M  V30 5160 H 484.368 1.88306 3.43923 0
M  V30 5161 H 485.858 1.08946 4.03138 0
M  V30 5162 N 486.295 -0.989507 1.22664 0
M  V30 5163 C 487.544 -1.72375 1.04737 0
M  V30 5164 C 487.857 -1.91096 -0.417316 0
M  V30 5165 O 489.063 -2.6188 -0.716334 0
M  V30 5166 C 487.519 -3.10161 1.82561 0
M  V30 5167 C 487.127 -2.99358 3.333 0
M  V30 5168 C 488.871 -3.87607 1.73093 0
M  V30 5169 C 486.778 -4.32319 4.03552 0
M  V30 5170 H 485.708 -0.646326 0.388302 0
M  V30 5171 H 488.359 -1.10437 1.46546 0
M  V30 5172 H 486.741 -3.728 1.33552 0
M  V30 5173 H 487.915 -2.45863 3.89728 0
M  V30 5174 H 486.23 -2.35392 3.43481 0
M  V30 5175 H 488.827 -4.86025 2.22899 0
M  V30 5176 H 489.17 -4.10509 0.691976 0
M  V30 5177 H 489.703 -3.31652 2.19663 0
M  V30 5178 H 486.442 -4.14616 5.07714 0
M  V30 5179 H 485.962 -4.85714 3.51911 0
M  V30 5180 H 487.641 -5.01051 4.09337 0
M  V30 5181 N 487.773 -1.03688 -1.18687 0
M  V30 5182 C 489.001 -0.757918 -1.92518 0
M  V30 5183 C 489.416 0.684398 -1.75959 0
M  V30 5184 O 488.773 1.46617 -1.08673 0
M  V30 5185 C 488.824 -1.10985 -3.44042 0
M  V30 5186 O 488.545 -2.49554 -3.60076 0
M  V30 5187 C 490.046 -0.854844 -4.3498 0
M  V30 5188 H 487.266 -0.276699 -0.611293 0
M  V30 5189 H 489.81 -1.38352 -1.50595 0
M  V30 5190 H 487.965 -0.529279 -3.83767 0
M  V30 5191 H 488.379 -2.6291 -4.53849 0
M  V30 5192 H 489.853 -1.15098 -5.39867 0
M  V30 5193 H 490.33 0.210507 -4.38695 0
M  V30 5194 H 490.936 -1.41853 -4.00946 0
M  V30 5195 N 489.251 1.34841 -0.815825 0
M  V30 5196 C 490.214 2.27959 -0.238185 0
M  V30 5197 C 491.214 1.49983 0.579816 0
M  V30 5198 O 492.404 1.69617 0.396953 0
M  V30 5199 C 489.536 3.34314 0.666876 0
M  V30 5200 H 490.729 2.80558 -1.05958 0
M  V30 5201 H 488.282 1.44852 -0.587156 0
M  V30 5202 H 489.017 2.86916 1.5116 0
M  V30 5203 H 488.802 3.92014 0.0819106 0
M  V30 5204 H 490.292 4.0379 1.06506 0
M  V30 5205 N 490.729 0.570148 1.46925 0
M  V30 5206 C 491.977 0.0508523 2.02036 0
M  V30 5207 C 492.298 -1.30885 1.44548 0
M  V30 5208 O 491.568 -1.85647 0.625453 0
M  V30 5209 H 490.148 0.0158088 0.746833 0
M  V30 5210 H 492.81 0.743086 1.80178 0
M  V30 5211 H 491.906 -0.027575 3.12088 0
M  V30 5212 N 492.207 -1.54576 0.307264 0
M  V30 5213 C 493.455 -1.99867 -0.299574 0
M  V30 5214 C 493.776 -1.19714 -1.53927 0
M  V30 5215 O 493.046 -0.29472 -1.9367 0
M  V30 5216 H 491.626 -0.738299 -0.113683 0
M  V30 5217 H 494.288 -1.9032 0.420042 0
M  V30 5218 H 493.384 -3.06901 -0.567283 0
M  V30 5219 N 493.685 -0.035106 -1.57561 0
M  V30 5220 C 494.934 0.641604 -1.91223 0
M  V30 5221 C 495.247 1.72944 -0.913761 0
M  V30 5222 O 496.453 2.46321 -1.14185 0
M  V30 5223 C 494.909 1.19249 -3.3957 0
M  V30 5224 C 494.517 0.137616 -4.47789 0
M  V30 5225 C 496.261 1.84537 -3.82291 0
M  V30 5226 C 494.168 0.700478 -5.87237 0
M  V30 5227 H 493.098 0.243417 -0.713627 0
M  V30 5228 H 495.749 -0.101382 -1.8322 0
M  V30 5229 H 494.131 1.98728 -3.42525 0
M  V30 5230 H 495.305 -0.635153 -4.56402 0
M  V30 5231 H 493.62 -0.416855 -4.14308 0
M  V30 5232 H 496.217 2.27616 -4.83834 0
M  V30 5233 H 496.56 2.69054 -3.17672 0
M  V30 5234 H 497.093 1.11739 -3.81784 0
M  V30 5235 H 493.832 -0.106693 -6.55413 0
M  V30 5236 H 493.352 1.4416 -5.82218 0
M  V30 5237 H 495.031 1.18837 -6.35993 0
M  V30 5238 N 495.163 1.55791 0.238111 0
M  V30 5239 C 496.411 1.77681 0.963001 0
M  V30 5240 C 496.732 0.600674 1.85518 0
M  V30 5241 O 496.002 -0.383182 1.92116 0
M  V30 5242 H 494.582 0.655315 0.358568 0
M  V30 5243 H 497.244 1.93239 0.253945 0
M  V30 5244 H 496.34 2.69177 1.57956 0
M  V30 5245 N 496.642 -0.504142 1.49319 0
M  V30 5246 C 497.919 -1.26548 1.49147 0
M  V30 5247 C 498.299 -2.09977 0.21744 0
M  V30 5248 O 497.647 -2.14028 -0.800269 0
M  V30 5249 C 497.857 -2.12489 2.76857 0
M  V30 5250 C 499.205 -2.7178 3.26222 0
M  V30 5251 O 500.229 -2.22758 2.77952 0
M  V30 5252 O 499.088 -3.61015 4.10281 0
M  V30 5253 H 496.182 -0.572495 0.596806 0
M  V30 5254 H 498.728 -0.51867 1.61579 0
M  V30 5255 H 497.5 -1.50796 3.61077 0
M  V30 5256 H 497.123 -2.94368 2.6727 0
M  V30 5257 N 498.12 -1.38341 -0.754957 0
M  V30 5258 C 499.083 -1.35262 -1.85032 0
M  V30 5259 C 500.083 -0.253393 -1.58791 0
M  V30 5260 O 501.273 -0.510205 -1.66561 0
M  V30 5261 C 498.405 -1.10544 -3.22479 0
M  V30 5262 H 499.598 -2.32712 -1.8917 0
M  V30 5263 H 497.151 -1.23614 -0.956515 0
M  V30 5264 H 497.886 -0.136952 -3.24011 0
M  V30 5265 H 497.671 -1.90127 -3.4292 0
M  V30 5266 H 499.161 -1.11082 -4.02555 0
M  V30 5267 N 499.598 0.982988 -1.23187 0
M  V30 5268 C 500.545 2.07491 -1.01075 0
M  V30 5269 C 501.515 1.65949 0.070905 0
M  V30 5270 O 502.7 1.90629 -0.0806822 0
M  V30 5271 C 499.84 3.39751 -0.605261 0
M  V30 5272 C 498.953 3.94578 -1.75876 0
M  V30 5273 C 498.088 5.15039 -1.3003 0
M  V30 5274 C 497.127 5.62027 -2.42472 0
M  V30 5275 N 496.264 6.73719 -1.97602 0
M  V30 5276 H 501.104 2.25739 -1.9454 0
M  V30 5277 H 498.641 1.10659 -0.969179 0
M  V30 5278 H 500.599 4.15719 -0.351279 0
M  V30 5279 H 499.229 3.21473 0.292382 0
M  V30 5280 H 498.281 3.1539 -2.12681 0
M  V30 5281 H 499.593 4.25422 -2.60418 0
M  V30 5282 H 498.747 5.9833 -1.00429 0
M  V30 5283 H 497.486 4.85843 -0.425216 0
M  V30 5284 H 496.491 4.77318 -2.7285 0
M  V30 5285 H 497.716 5.93244 -3.30512 0
M  V30 5286 H 495.662 6.46287 -1.1247 0
M  V30 5287 H 495.579 7.03934 -2.75705 0
M  V30 5288 H 496.847 7.6049 -1.71098 0
M  V30 5289 N 501.076 1.04316 1.18135 0
M  V30 5290 C 501.986 0.646876 2.25505 0
M  V30 5291 C 503.002 -0.328008 1.7088 0
M  V30 5292 O 504.178 -0.182309 2.00573 0
M  V30 5293 C 501.243 0.0185664 3.46695 0
M  V30 5294 C 500.304 1.04277 4.16443 0
M  V30 5295 C 499.537 0.444352 5.31847 0
M  V30 5296 O 499.76 -0.748735 5.65465 0
M  V30 5297 O 498.694 1.17428 5.90334 0
M  V30 5298 H 502.52 1.54147 2.61672 0
M  V30 5299 H 500.105 0.814188 1.25265 0
M  V30 5300 H 501.987 -0.331068 4.20097 0
M  V30 5301 H 500.662 -0.849814 3.12346 0
M  V30 5302 H 499.569 1.44425 3.45098 0
M  V30 5303 H 500.902 1.882 4.54798 0
M  V30 5304 O 502.593 -1.30005 0.958179 0
M  V30 5305 H 503.284 -1.84399 0.593022 0
M  V30 END ATOM
M  V30 BEGIN BOND
M  V30 END BOND
M  V30 END CTAB
M  END
$$$$
