drugbank_target|P24228 D-alanyl-D-alanine carboxypeptidase DacB (DB00303; DB00417; DB00760; DB01328; DB01329; DB01331; DB04570; DB14879)
 OpenBabel12092119393D

  0  0  0     0  0            999 V3000
M  V30 BEGIN CTAB
M  V30 COUNTS 7297 7369 0 0 0
M  V30 BEGIN ATOM
M  V30 1 H -0.908 1.98254 -0.117106 0
M  V30 2 N 0 1.576 0 0
M  V30 3 C 0.933 2.03868 1.02534 0
M  V30 4 C 1.911 0.928543 1.3348 0
M  V30 5 O 3.095 1.19667 1.45644 0
M  V30 6 C 0.222 2.43627 2.35294 0
M  V30 7 C -0.732 3.65373 2.2001 0
M  V30 8 S 0.101 5.13292 1.52614 0
M  V30 9 C 1.257 5.56322 2.86805 0
M  V30 10 H 1.49 2.90518 0.631377 0
M  V30 11 H -0.977 1.52953 0.210867 0
M  V30 12 H 0.981 2.67203 3.11629 0
M  V30 13 H -0.358 1.57376 2.7183 0
M  V30 14 H -1.165 3.90944 3.18086 0
M  V30 15 H -1.563 3.418 1.51819 0
M  V30 16 H 0.729 5.58782 3.83104 0
M  V30 17 H 1.672 6.56266 2.65933 0
M  V30 18 H 2.08 4.83886 2.90714 0
M  V30 19 N 1.4781 -0.272755 1.55222 0
M  V30 20 C 2.8941 -0.619959 1.47067 0
M  V30 21 C 3.0941 -1.895 0.684978 0
M  V30 22 O 2.1501 -2.51675 0.203931 0
M  V30 23 C 3.4631 -0.746693 2.91282 0
M  V30 24 C 5.0111 -0.840731 3.01497 0
M  V30 25 C 5.4861 -0.99924 4.46967 0
M  V30 26 N 6.9771 -1.06476 4.50796 0
M  V30 27 C 7.7121 -1.20621 5.6057 0
M  V30 28 N 7.2081 -1.31483 6.80209 0
M  V30 29 N 9.0011 -1.23733 5.48312 0
M  V30 30 H 1.1521 0.564606 2.04758 0
M  V30 31 H 3.4151 0.191177 0.928523 0
M  V30 32 H 3.1211 0.119753 3.51496 0
M  V30 33 H 2.9951 -1.6269 3.40311 0
M  V30 34 H 5.3821 -1.69764 2.41379 0
M  V30 35 H 5.4631 0.0640874 2.5572 0
M  V30 36 H 5.1071 -0.146984 5.07687 0
M  V30 37 H 5.0371 -1.91871 4.90401 0
M  V30 38 H 7.5281 -0.993196 3.64615 0
M  V30 39 H 7.8411 -1.42111 7.59621 0
M  V30 40 H 6.1861 -1.28487 6.8302 0
M  V30 41 H 9.3771 -1.14877 4.53785 0
M  V30 42 H 9.5501 -1.34412 6.33906 0
M  V30 43 N 2.9562 -1.48159 -0.537278 0
M  V30 44 C 4.2032 -1.55804 -1.29349 0
M  V30 45 C 4.5312 -0.228802 -1.9315 0
M  V30 46 O 3.7862 0.780242 -1.79473 0
M  V30 47 C 4.0852 -2.63956 -2.40961 0
M  V30 48 C 3.7512 -4.0662 -1.94861 0
M  V30 49 C 2.4132 -4.45452 -1.82006 0
M  V30 50 C 4.7652 -4.96055 -1.59933 0
M  V30 51 C 2.0932 -5.71531 -1.32547 0
M  V30 52 C 4.4452 -6.22617 -1.11939 0
M  V30 53 C 3.1092 -6.60312 -0.976951 0
M  V30 54 H 2.3792 -0.570129 -0.473322 0
M  V30 55 H 5.0262 -1.81845 -0.600372 0
M  V30 56 H 3.3312 -2.31747 -3.15912 0
M  V30 57 H 5.0282 -2.67089 -2.99107 0
M  V30 58 H 1.6182 -3.75949 -2.05815 0
M  V30 59 H 5.8022 -4.66738 -1.68728 0
M  V30 60 H 1.0582 -5.99468 -1.202 0
M  V30 61 H 5.2322 -6.91318 -0.839811 0
M  V30 62 H 2.8592 -7.57895 -0.591501 0
M  V30 63 N 4.4343 0.785586 -1.36625 0
M  V30 64 C 5.6593 1.57963 -1.34397 0
M  V30 65 C 6.0843 1.87964 0.071526 0
M  V30 66 O 5.4423 1.48182 1.0446 0
M  V30 67 C 5.4903 2.87511 -2.17646 0
M  V30 68 O 4.5943 3.81281 -1.57158 0
M  V30 69 H 3.9353 0.479014 -0.459828 0
M  V30 70 H 6.4653 0.973411 -1.79961 0
M  V30 71 H 6.4753 3.36745 -2.30362 0
M  V30 72 H 5.1503 2.65002 -3.20541 0
M  V30 73 H 3.7273 3.39885 -1.53403 0
M  V30 74 N 5.9124 1.20967 1.01018 0
M  V30 75 C 7.3284 0.965905 1.27053 0
M  V30 76 C 7.5284 -0.350785 1.98423 0
M  V30 77 O 6.5844 -1.07773 2.28344 0
M  V30 78 C 7.8974 2.15294 2.09926 0
M  V30 79 C 9.4454 2.19463 2.23171 0
M  V30 80 C 9.9204 3.3767 3.09424 0
M  V30 81 N 11.4114 3.37724 3.17012 0
M  V30 82 C 12.1464 4.25837 3.83993 0
M  V30 83 N 11.6424 5.24138 4.53047 0
M  V30 84 N 13.4354 4.1366 3.80581 0
M  V30 85 H 5.5864 2.0565 0.531194 0
M  V30 86 H 7.8494 0.90024 0.297106 0
M  V30 87 H 7.5554 3.10684 1.64828 0
M  V30 88 H 7.4294 2.13923 3.10672 0
M  V30 89 H 9.8164 1.24632 2.6749 0
M  V30 90 H 9.8974 2.2488 1.21912 0
M  V30 91 H 9.5414 4.32791 2.65808 0
M  V30 92 H 9.4714 3.29491 4.10784 0
M  V30 93 H 11.9624 2.6658 2.6785 0
M  V30 94 H 12.2754 5.87684 5.01844 0
M  V30 95 H 10.6204 5.28068 4.5185 0
M  V30 96 H 13.8114 3.36127 3.25785 0
M  V30 97 H 13.9844 4.82538 4.32505 0
M  V30 98 N 7.3905 -1.2043 1.01659 0
M  V30 99 C 8.6375 -1.89797 0.705917 0
M  V30 100 C 8.9655 -1.78848 -0.764439 0
M  V30 101 O 8.2205 -1.16694 -1.57102 0
M  V30 102 C 8.5195 -3.40464 1.08714 0
M  V30 103 C 8.1855 -3.71614 2.5537 0
M  V30 104 C 6.8475 -3.79826 2.95441 0
M  V30 105 C 9.1995 -3.85915 3.50313 0
M  V30 106 C 6.5275 -3.99797 4.29394 0
M  V30 107 C 8.8795 -4.07396 4.83954 0
M  V30 108 C 7.5435 -4.13837 5.23732 0
M  V30 109 H 6.8135 -0.694518 0.258313 0
M  V30 110 H 9.4605 -1.42691 1.27717 0
M  V30 111 H 7.7655 -3.89385 0.434309 0
M  V30 112 H 9.4625 -3.92433 0.824461 0
M  V30 113 H 6.0525 -3.65822 2.23321 0
M  V30 114 H 10.2365 -3.78926 3.20513 0
M  V30 115 H 5.4925 -4.03018 4.59768 0
M  V30 116 H 9.6665 -4.17404 5.57447 0
M  V30 117 H 7.2935 -4.29064 6.27541 0
M  V30 118 N 8.8686 -0.792821 -1.36206 0
M  V30 119 C 10.1176 -0.363353 -1.984 0
M  V30 120 C 10.4306 1.07172 -1.63626 0
M  V30 121 O 11.6366 1.60362 -2.19081 0
M  V30 122 C 10.0926 -0.59872 -3.54885 0
M  V30 123 C 9.7006 -2.04543 -3.9858 0
M  V30 124 C 11.4446 -0.233926 -4.23855 0
M  V30 125 C 9.3516 -2.22727 -5.47856 0
M  V30 126 H 8.2816 -0.13212 -0.742334 0
M  V30 127 H 10.9326 -0.974935 -1.55458 0
M  V30 128 H 9.3146 0.0826222 -3.95914 0
M  V30 129 H 10.4886 -2.76345 -3.68741 0
M  V30 130 H 8.8036 -2.36879 -3.42458 0
M  V30 131 H 11.4006 -0.348027 -5.33566 0
M  V30 132 H 11.7436 0.818351 -4.08177 0
M  V30 133 H 12.2766 -0.868639 -3.882 0
M  V30 134 H 9.0156 -3.2635 -5.68486 0
M  V30 135 H 8.5356 -1.55434 -5.7931 0
M  V30 136 H 10.2146 -2.03607 -6.14128 0
M  V30 137 N 10.3467 1.47872 -0.545128 0
M  V30 138 C 11.5957 2.01695 -0.0145033 0
M  V30 139 C 11.9087 1.42609 1.33873 0
M  V30 140 O 13.1147 1.88021 1.95858 0
M  V30 141 C 11.5707 3.59892 0.0245068 0
M  V30 142 C 11.1787 4.27966 -1.32475 0
M  V30 143 C 12.9227 4.21507 0.50316 0
M  V30 144 C 10.8297 5.78136 -1.2455 0
M  V30 145 H 9.7597 0.753998 -0.00165172 0
M  V30 146 H 12.4107 1.69985 -0.691175 0
M  V30 147 H 10.7927 3.88509 0.766575 0
M  V30 148 H 11.9667 4.11003 -2.08357 0
M  V30 149 H 10.2817 3.78286 -1.74036 0
M  V30 150 H 12.8787 5.31538 0.580656 0
M  V30 151 H 13.2217 3.87855 1.51243 0
M  V30 152 H 13.7547 3.97376 -0.183681 0
M  V30 153 H 10.4937 6.16388 -2.23039 0
M  V30 154 H 10.0137 5.97469 -0.528282 0
M  V30 155 H 11.6927 6.40099 -0.942488 0
M  V30 156 N 11.8248 0.280983 1.55075 0
M  V30 157 C 13.0728 -0.333455 1.9933 0
M  V30 158 C 13.3938 -1.55937 1.17085 0
M  V30 159 O 12.6638 -1.94143 0.261805 0
M  V30 160 H 11.2438 -0.126197 0.736263 0
M  V30 161 H 13.9058 0.387678 1.91005 0
M  V30 162 H 13.0018 -0.619292 3.05894 0
M  V30 163 N 13.3029 -1.57598 0.00835791 0
M  V30 164 C 14.2329 -2.1198 -0.979113 0
M  V30 165 C 15.2139 -1.03091 -1.35301 0
M  V30 166 O 16.3989 -1.30818 -1.43528 0
M  V30 167 C 13.5289 -2.62995 -2.26828 0
M  V30 168 C 12.4829 -3.76485 -2.03576 0
M  V30 169 C 11.8089 -4.13846 -3.38579 0
M  V30 170 C 13.1089 -5.0342 -1.39161 0
M  V30 171 H 14.8029 -2.94738 -0.526281 0
M  V30 172 H 12.3489 -1.41783 -0.251704 0
M  V30 173 H 14.3019 -2.99669 -2.96271 0
M  V30 174 H 13.0259 -1.7737 -2.7424 0
M  V30 175 H 11.6849 -3.40217 -1.36557 0
M  V30 176 H 11.3329 -3.25232 -3.83709 0
M  V30 177 H 11.0329 -4.90312 -3.23834 0
M  V30 178 H 12.5569 -4.53086 -4.09323 0
M  V30 179 H 13.9709 -5.37812 -1.98573 0
M  V30 180 H 12.3679 -5.84746 -1.34878 0
M  V30 181 H 13.4379 -4.83548 -0.361868 0
M  V30 182 N 14.781 0.264519 -1.55364 0
M  V30 183 C 16.009 1.013 -1.80405 0
M  V30 184 C 16.424 1.79618 -0.581622 0
M  V30 185 O 15.781 1.76879 0.449468 0
M  V30 186 C 15.832 1.96487 -3.03439 0
M  V30 187 O 15.553 1.21341 -4.20961 0
M  V30 188 C 17.054 2.83079 -3.41147 0
M  V30 189 H 14.274 0.298875 -0.600762 0
M  V30 190 H 16.818 0.292736 -2.02394 0
M  V30 191 H 14.973 2.63965 -2.83551 0
M  V30 192 H 15.387 1.85573 -4.90574 0
M  V30 193 H 16.861 3.4565 -4.30384 0
M  V30 194 H 17.338 3.53286 -2.60932 0
M  V30 195 H 17.944 2.2108 -3.63323 0
M  V30 196 N 16.2591 1.48442 0.529413 0
M  V30 197 C 17.4841 1.60406 1.31471 0
M  V30 198 C 17.9091 0.264738 1.86228 0
M  V30 199 O 17.2671 -0.763668 1.64432 0
M  V30 200 C 17.3151 2.65419 2.44101 0
M  V30 201 O 16.4191 2.22618 3.47153 0
M  V30 202 H 15.7601 0.537863 0.389357 0
M  V30 203 H 18.2901 1.94432 0.636965 0
M  V30 204 H 18.3001 2.86709 2.90279 0
M  V30 205 H 16.9751 3.62652 2.03608 0
M  V30 206 H 15.5521 2.11543 3.0709 0
M  V30 207 N 17.7372 -0.778329 1.37039 0
M  V30 208 C 18.9772 -1.54973 1.33276 0
M  V30 209 C 19.3412 -1.91816 -0.0839376 0
M  V30 210 O 20.5422 -2.6767 -0.246228 0
M  V30 211 C 18.8132 -2.78517 2.23971 0
M  V30 212 S 20.3722 -3.6865 2.37997 0
M  V30 213 H 17.1902 -0.530639 0.473226 0
M  V30 214 H 19.7922 -0.915806 1.72723 0
M  V30 215 H 18.4962 -2.4952 3.25835 0
M  V30 216 H 18.0272 -3.46875 1.85584 0
M  V30 217 H 20.0422 -4.70182 1.58567 0
M  V30 218 N 19.2153 -1.21501 -1.00376 0
M  V30 219 C 20.4643 -1.02718 -1.73586 0
M  V30 220 C 20.7773 0.439589 -1.90596 0
M  V30 221 O 21.9833 0.746848 -2.61026 0
M  V30 222 C 20.4393 -1.78929 -3.1227 0
M  V30 223 C 20.0473 -3.29783 -3.03228 0
M  V30 224 C 21.7913 -1.68557 -3.89601 0
M  V30 225 C 19.6983 -3.98479 -4.36999 0
M  V30 226 H 18.6283 -0.380733 -0.650814 0
M  V30 227 H 21.2793 -1.45248 -1.1214 0
M  V30 228 H 19.6613 -1.29192 -3.74333 0
M  V30 229 H 20.8353 -3.86832 -2.50395 0
M  V30 230 H 19.1503 -3.40711 -2.39385 0
M  V30 231 H 21.7473 -2.17211 -4.88593 0
M  V30 232 H 22.0903 -0.644021 -4.11288 0
M  V30 233 H 22.6233 -2.15778 -3.34193 0
M  V30 234 H 19.3623 -5.02841 -4.20513 0
M  V30 235 H 18.8823 -3.46219 -4.89788 0
M  V30 236 H 20.5613 -4.03462 -5.05794 0
M  V30 237 N 20.6934 1.19889 -1.02296 0
M  V30 238 C 21.6564 2.21116 -0.603351 0
M  V30 239 C 22.6564 1.5738 0.329884 0
M  V30 240 O 23.8464 1.73802 0.117702 0
M  V30 241 C 20.9784 3.40696 0.117992 0
M  V30 242 H 22.1714 2.59754 -1.49893 0
M  V30 243 H 19.7244 1.33463 -0.813468 0
M  V30 244 H 20.4594 3.07569 1.0282 0
M  V30 245 H 20.2444 3.88188 -0.552511 0
M  V30 246 H 21.7344 4.15692 0.398696 0
M  V30 247 N 22.1715 0.800033 1.35784 0
M  V30 248 C 23.4185 0.377342 1.98953 0
M  V30 249 C 23.7465 -1.05378 1.6348 0
M  V30 250 O 23.0015 -1.74459 0.886707 0
M  V30 251 C 23.3005 0.500276 3.53881 0
M  V30 252 C 22.9665 1.89375 4.09204 0
M  V30 253 C 21.6285 2.27499 4.24025 0
M  V30 254 C 23.9805 2.8057 4.39238 0
M  V30 255 C 21.3085 3.562 4.66195 0
M  V30 256 C 23.6605 4.0871 4.82844 0
M  V30 257 C 22.3245 4.46843 4.95871 0
M  V30 258 H 21.5945 0.138079 0.728021 0
M  V30 259 H 24.2415 1.01955 1.62103 0
M  V30 260 H 22.5465 -0.225405 3.91151 0
M  V30 261 H 24.2435 0.154097 4.00704 0
M  V30 262 H 20.8335 1.58753 3.98115 0
M  V30 263 H 25.0175 2.52367 4.27346 0
M  V30 264 H 20.2735 3.85602 4.74469 0
M  V30 265 H 24.4475 4.79481 5.05046 0
M  V30 266 H 22.0745 5.46623 5.28306 0
M  V30 267 N 23.6496 -1.47581 0.552962 0
M  V30 268 C 24.8746 -2.07378 0.0300593 0
M  V30 269 C 25.2996 -1.40355 -1.25229 0
M  V30 270 O 24.6576 -0.477099 -1.7491 0
M  V30 271 C 24.7056 -3.60274 -0.153231 0
M  V30 272 O 23.8096 -3.94041 -1.21678 0
M  V30 273 H 23.1506 -0.662158 0.0494182 0
M  V30 274 H 25.6806 -1.89662 0.767434 0
M  V30 275 H 25.6906 -4.0633 -0.368761 0
M  V30 276 H 24.3656 -4.08455 0.783397 0
M  V30 277 H 22.9426 -3.59735 -0.982079 0
M  V30 278 N 25.1277 -0.289203 -1.54924 0
M  V30 279 C 26.3737 0.323998 -2.00195 0
M  V30 280 C 26.7067 1.54441 -1.17735 0
M  V30 281 O 25.9817 1.92875 -0.250878 0
M  V30 282 C 26.2647 0.692276 -3.53383 0
M  V30 283 C 26.1177 -0.536457 -4.46589 0
M  V30 284 C 27.4367 1.52335 -4.12895 0
M  V30 285 H 24.5557 0.116289 -0.727768 0
M  V30 286 H 27.1977 -0.398954 -1.85764 0
M  V30 287 H 25.3477 1.30822 -3.65811 0
M  V30 288 H 27.0197 -1.17499 -4.46085 0
M  V30 289 H 25.2627 -1.17192 -4.1767 0
M  V30 290 H 25.9337 -0.234806 -5.515 0
M  V30 291 H 28.4097 1.00302 -4.0383 0
M  V30 292 H 27.2857 1.74982 -5.20262 0
M  V30 293 H 27.5467 2.50886 -3.64018 0
M  V30 294 N 26.6058 1.57591 -0.0167156 0
M  V30 295 C 27.5378 2.06343 0.997753 0
M  V30 296 C 28.5508 0.984469 1.29661 0
M  V30 297 O 29.7398 1.26093 1.26344 0
M  V30 298 C 26.8398 2.46255 2.32834 0
M  V30 299 C 26.0128 3.77083 2.21646 0
M  V30 300 C 25.0718 4.0368 3.37534 0
M  V30 301 O 24.0978 4.7411 3.14973 0
M  V30 302 N 25.2998 3.52881 4.60929 0
M  V30 303 H 28.0648 2.93997 0.581875 0
M  V30 304 H 25.6258 1.61002 0.170316 0
M  V30 305 H 27.6178 2.61149 3.09166 0
M  V30 306 H 26.1878 1.64032 2.66106 0
M  V30 307 H 25.4078 3.72106 1.30119 0
M  V30 308 H 26.6958 4.62822 2.11361 0
M  V30 309 H 26.0938 2.95878 4.82154 0
M  V30 310 H 24.6508 3.73076 5.34469 0
M  V30 311 N 28.0839 -0.256276 1.55502 0
M  V30 312 C 29.0469 -1.30047 1.88734 0
M  V30 313 C 30.0469 -1.4154 0.763086 0
M  V30 314 O 31.2369 -1.40403 1.03115 0
M  V30 315 C 28.3689 -2.67953 2.10747 0
M  V30 316 H 29.5619 -1.01802 2.82093 0
M  V30 317 H 27.1149 -0.495134 1.4825 0
M  V30 318 H 27.8499 -3.01351 1.19825 0
M  V30 319 H 27.6349 -2.60993 2.92617 0
M  V30 320 H 29.1249 -3.43368 2.37673 0
M  V30 321 N 29.562 -1.4872 -0.521534 0
M  V30 322 C 30.525 -1.63379 -1.60748 0
M  V30 323 C 31.525 -0.50661 -1.52611 0
M  V30 324 O 32.715 -0.772601 -1.5613 0
M  V30 325 C 29.847 -1.61192 -3.00383 0
M  V30 326 H 31.04 -2.60217 -1.49087 0
M  V30 327 H 28.593 -1.37444 -0.744235 0
M  V30 328 H 29.328 -0.65863 -3.17541 0
M  V30 329 H 29.113 -2.43032 -3.07698 0
M  V30 330 H 30.603 -1.7466 -3.7932 0
M  V30 331 N 31.0401 0.771051 -1.3745 0
M  V30 332 C 31.9881 1.90574 -1.33358 0
M  V30 333 C 32.9821 1.67936 -0.22224 0
M  V30 334 O 34.1881 1.75717 -0.390304 0
M  V30 335 H 30.5631 0.626714 -0.415612 0
M  V30 336 H 32.5341 1.91142 -2.29144 0
M  V30 337 C 31.2831 3.27845 -1.15813 0
M  V30 338 H 30.6061 3.45842 -2.00583 0
M  V30 339 H 32.0461 4.07538 -1.17 0
M  V30 340 C 30.5051 3.36625 0.136165 0
M  V30 341 O 31.0351 3.85785 1.11949 0
M  V30 342 N 29.2411 2.89997 0.187099 0
M  V30 343 H 28.7881 2.50182 -0.613753 0
M  V30 344 H 28.7461 2.96252 1.05272 0
M  V30 345 N 32.5182 1.22032 0.997298 0
M  V30 346 C 33.7642 1.04376 1.73878 0
M  V30 347 C 34.0972 -0.420716 1.89588 0
M  V30 348 O 33.3722 -1.31202 1.43583 0
M  V30 349 C 33.6552 1.75047 3.14691 0
M  V30 350 C 33.5082 3.29062 3.06656 0
M  V30 351 C 34.8272 1.49928 4.13775 0
M  V30 352 H 31.9462 0.380578 0.631133 0
M  V30 353 H 34.5882 1.50312 1.16217 0
M  V30 354 H 32.7382 1.35996 3.63919 0
M  V30 355 H 34.4102 3.7753 2.65083 0
M  V30 356 H 32.6532 3.58967 2.43568 0
M  V30 357 H 33.3242 3.73683 4.06282 0
M  V30 358 H 35.8002 1.83842 3.73285 0
M  V30 359 H 34.6762 2.01878 5.10428 0
M  V30 360 H 34.9372 0.430929 4.39995 0
M  V30 361 N 33.9963 -1.19345 1.0293 0
M  V30 362 C 35.2733 -1.84811 0.640642 0
M  V30 363 C 35.6533 -1.91855 -0.88062 0
M  V30 364 O 35.0013 -1.43587 -1.7775 0
M  V30 365 C 35.2113 -3.23755 1.30321 0
M  V30 366 C 36.5593 -3.99912 1.42673 0
M  V30 367 O 37.5833 -3.33155 1.26041 0
M  V30 368 O 36.4423 -5.19494 1.6967 0
M  V30 369 H 33.5363 -0.796443 0.222726 0
M  V30 370 H 36.0823 -1.26831 1.12748 0
M  V30 371 H 34.8543 -3.13466 2.34211 0
M  V30 372 H 34.4773 -3.89381 0.804261 0
M  V30 373 N 35.4744 -0.807222 -1.35358 0
M  V30 374 C 36.3844 -0.219594 -2.3357 0
M  V30 375 C 37.4004 0.637734 -1.61892 0
M  V30 376 O 38.5764 0.549336 -1.93763 0
M  V30 377 C 35.6414 0.62158 -3.41083 0
M  V30 378 C 34.7024 -0.256315 -4.28534 0
M  V30 379 C 33.9354 0.544807 -5.30912 0
M  V30 380 O 34.1584 1.77944 -5.41934 0
M  V30 381 O 33.0924 -0.0646478 -6.01865 0
M  V30 382 H 36.9184 -1.03208 -2.85625 0
M  V30 383 H 34.5034 -0.569025 -1.38139 0
M  V30 384 H 36.3854 1.10067 -4.06772 0
M  V30 385 H 35.0604 1.41165 -2.91297 0
M  V30 386 H 33.9674 -0.782559 -3.65823 0
M  V30 387 H 35.3004 -1.01034 -4.81719 0
M  V30 388 N 36.9525 1.47285 -0.560781 0
M  V30 389 C 38.1825 2.06555 -0.0429638 0
M  V30 390 C 38.5905 1.41339 1.25777 0
M  V30 391 O 37.9335 0.505182 1.76617 0
M  V30 392 C 37.9955 3.58827 0.219887 0
M  V30 393 C 37.6595 4.46105 -0.991944 0
M  V30 394 C 38.6565 4.84 -1.89843 0
M  V30 395 C 36.3415 4.87567 -1.20762 0
M  V30 396 C 38.3355 5.6216 -3.00425 0
M  V30 397 C 36.0225 5.65491 -2.31653 0
M  V30 398 C 37.0205 6.02699 -3.21315 0
M  V30 399 O 36.7085 6.79052 -4.30283 0
M  V30 400 H 36.4405 0.674537 -0.0444468 0
M  V30 401 H 38.9945 1.90225 -0.774818 0
M  V30 402 H 37.2245 3.73383 1.00609 0
M  V30 403 H 38.9135 4.00103 0.683522 0
M  V30 404 H 39.6795 4.52564 -1.74387 0
M  V30 405 H 35.5585 4.5807 -0.518893 0
M  V30 406 H 39.1025 5.9112 -3.70436 0
M  V30 407 H 34.9995 5.9634 -2.47081 0
M  V30 408 H 35.7675 6.9745 -4.28376 0
M  V30 409 N 38.4306 0.297415 1.54768 0
M  V30 410 C 39.6796 -0.313669 1.99246 0
M  V30 411 C 39.9926 -1.55281 1.18942 0
M  V30 412 O 41.1986 -2.23825 1.5367 0
M  V30 413 C 39.6546 -0.609407 3.54703 0
M  V30 414 C 39.2626 0.611192 4.43811 0
M  V30 415 C 41.0066 -1.18188 4.07715 0
M  V30 416 C 38.9136 0.288805 5.90694 0
M  V30 417 H 37.8436 -0.120979 0.744231 0
M  V30 418 H 40.4946 0.40556 1.78962 0
M  V30 419 H 38.8766 -1.38813 3.70873 0
M  V30 420 H 40.0506 1.3875 4.39414 0
M  V30 421 H 38.3656 1.10205 4.01552 0
M  V30 422 H 40.9626 -1.43727 5.15021 0
M  V30 423 H 41.3056 -2.12299 3.58099 0
M  V30 424 H 41.8386 -0.464944 3.95074 0
M  V30 425 H 38.5776 1.19838 6.44453 0
M  V30 426 H 38.0976 -0.450305 5.98107 0
M  V30 427 H 39.7766 -0.110933 6.46905 0
M  V30 428 N 39.9087 -1.5758 0.0250728 0
M  V30 429 C 41.1367 -1.9593 -0.664747 0
M  V30 430 C 41.5517 -0.901352 -1.65895 0
M  V30 431 O 40.9087 0.117255 -1.82123 0
M  V30 432 C 40.9597 -3.34342 -1.37468 0
M  V30 433 O 40.6807 -4.36079 -0.420324 0
M  V30 434 C 42.1817 -3.873 -2.1567 0
M  V30 435 H 39.4017 -0.645405 -0.183557 0
M  V30 436 H 41.9457 -2.04329 0.0836372 0
M  V30 437 H 40.1007 -3.27175 -2.0745 0
M  V30 438 H 40.5147 -5.16297 -0.923991 0
M  V30 439 H 41.9887 -4.86504 -2.60803 0
M  V30 440 H 42.4657 -3.21331 -2.99405 0
M  V30 441 H 43.0717 -3.97723 -1.50654 0
M  V30 442 N 41.3868 0.248026 -1.55636 0
M  V30 443 C 42.3188 1.32993 -1.8667 0
M  V30 444 C 43.3318 1.44345 -0.752877 0
M  V30 445 O 44.5208 1.45715 -1.03098 0
M  V30 446 C 41.6208 2.70863 -2.03682 0
M  V30 447 C 40.7938 2.81792 -3.34532 0
M  V30 448 C 39.8528 4.005 -3.41301 0
M  V30 449 O 38.8788 3.9008 -4.14519 0
M  V30 450 N 40.0808 5.13618 -2.70512 0
M  V30 451 H 42.8458 1.06707 -2.8006 0
M  V30 452 H 40.4068 0.438129 -1.55859 0
M  V30 453 H 42.3988 3.48612 -2.05553 0
M  V30 454 H 40.9688 2.89862 -1.17041 0
M  V30 455 H 40.1888 1.90729 -3.44987 0
M  V30 456 H 41.4768 2.86043 -4.20781 0
M  V30 457 H 40.8748 5.24975 -2.10755 0
M  V30 458 H 39.4318 5.89505 -2.78077 0
M  V30 459 N 42.8649 1.48995 0.513639 0
M  V30 460 C 43.7949 1.67636 1.62544 0
M  V30 461 C 44.7759 0.525087 1.61793 0
M  V30 462 O 45.9609 0.759502 1.78732 0
M  V30 463 C 43.0909 1.73114 3.01079 0
M  V30 464 C 42.0449 2.87905 3.16693 0
M  V30 465 C 41.3709 2.78486 4.56453 0
M  V30 466 C 42.6709 4.29005 2.97913 0
M  V30 467 H 44.3649 2.60716 1.47198 0
M  V30 468 H 41.9109 1.25465 0.706714 0
M  V30 469 H 43.8639 1.84742 3.78746 0
M  V30 470 H 42.5879 0.766241 3.17484 0
M  V30 471 H 41.2469 2.75859 2.41448 0
M  V30 472 H 40.8949 1.7993 4.69717 0
M  V30 473 H 40.5949 3.55523 4.67843 0
M  V30 474 H 42.1189 2.92104 5.36197 0
M  V30 475 H 43.5329 4.41798 3.65359 0
M  V30 476 H 41.9299 5.07166 3.20785 0
M  V30 477 H 42.9999 4.44329 1.94165 0
M  V30 478 N 44.343 -0.763751 1.37857 0
M  V30 479 C 45.754 -1.3405 1.29952 0
M  V30 480 C 46.105 -1.96138 -0.0492898 0
M  V30 481 O 45.23 -1.94372 -0.951239 0
M  V30 482 C 45.825 -2.43729 2.35333 0
M  V30 483 C 44.384 -2.97151 2.31037 0
M  V30 484 C 43.531 -1.70438 2.18738 0
M  V30 485 H 46.482 -0.563396 1.48363 0
M  V30 486 H 46.503 -3.23412 2.00462 0
M  V30 487 H 46.015 -1.9851 3.33489 0
M  V30 488 H 44.116 -3.46724 1.3643 0
M  V30 489 H 44.229 -3.52221 3.24772 0
M  V30 490 H 42.593 -1.93673 1.65418 0
M  V30 491 H 43.376 -1.27312 3.18821 0
M  V30 492 N 45.8211 -1.22559 -0.990812 0
M  V30 493 C 46.7841 -0.998863 -2.0629 0
M  V30 494 C 47.7841 0.0354834 -1.60761 0
M  V30 495 O 48.9741 -0.203231 -1.7301 0
M  V30 496 C 46.1061 -0.509203 -3.37076 0
M  V30 497 H 47.2991 -1.95014 -2.27837 0
M  V30 498 H 44.8521 -1.04456 -1.16269 0
M  V30 499 H 45.5871 0.446335 -3.21214 0
M  V30 500 H 45.3721 -1.25547 -3.71457 0
M  V30 501 H 46.8621 -0.370888 -4.1595 0
M  V30 502 N 47.2992 1.18797 -1.03562 0
M  V30 503 C 48.5472 1.88278 -0.734569 0
M  V30 504 C 48.8682 1.8043 0.739586 0
M  V30 505 O 48.1382 1.21925 1.53333 0
M  V30 506 H 46.7182 0.696991 -0.268725 0
M  V30 507 H 49.3802 1.44192 -1.31129 0
M  V30 508 H 48.4762 2.94443 -1.03489 0
M  V30 509 N 48.7773 0.814389 1.34928 0
M  V30 510 C 49.7403 0.235759 2.27984 0
M  V30 511 C 50.7403 -0.581412 1.49921 0
M  V30 512 O 51.9303 -0.398758 1.69575 0
M  V30 513 C 49.0623 -0.670433 3.34242 0
M  V30 514 H 50.2553 1.05659 2.80671 0
M  V30 515 H 47.8083 0.585614 1.44915 0
M  V30 516 H 48.5433 -1.51466 2.86755 0
M  V30 517 H 48.3283 -0.0860822 3.92005 0
M  V30 518 H 49.8183 -1.06935 4.03676 0
M  V30 519 N 50.2554 -1.46986 0.568584 0
M  V30 520 C 51.2034 -2.31858 -0.185649 0
M  V30 521 C 52.1974 -1.43624 -0.898249 0
M  V30 522 O 53.4034 -1.60327 -0.818242 0
M  V30 523 H 49.7784 -0.747866 -0.0787399 0
M  V30 524 H 51.7494 -2.93303 0.549191 0
M  V30 525 C 50.4984 -3.26513 -1.19519 0
M  V30 526 H 49.8214 -3.94377 -0.656285 0
M  V30 527 H 51.2614 -3.88707 -1.6936 0
M  V30 528 C 49.7204 -2.50847 -2.24894 0
M  V30 529 O 50.2504 -2.26119 -3.32014 0
M  V30 530 N 48.4564 -2.11656 -1.99124 0
M  V30 531 H 48.0034 -2.31966 -1.12024 0
M  V30 532 H 47.9614 -1.61347 -2.69842 0
M  V30 533 N 51.7335 -0.305618 -1.54608 0
M  V30 534 C 52.6635 0.561482 -2.26649 0
M  V30 535 C 53.6445 1.13415 -1.26772 0
M  V30 536 O 54.8295 1.16262 -1.55553 0
M  V30 537 C 51.9595 1.73122 -3.01075 0
M  V30 538 C 50.9135 1.2887 -4.08138 0
M  V30 539 C 50.2395 2.54396 -4.70305 0
M  V30 540 C 51.5395 0.416578 -5.20636 0
M  V30 541 H 53.2335 -0.0393902 -2.99374 0
M  V30 542 H 50.7795 -0.020385 -1.43986 0
M  V30 543 H 52.7325 2.34396 -3.50195 0
M  V30 544 H 51.4565 2.3584 -2.25936 0
M  V30 545 H 50.1155 0.698991 -3.59875 0
M  V30 546 H 49.7635 3.15439 -3.918 0
M  V30 547 H 49.4635 2.25486 -5.42614 0
M  V30 548 H 50.9875 3.16464 -5.2219 0
M  V30 549 H 52.4015 0.935116 -5.65622 0
M  V30 550 H 50.7985 0.221046 -5.99693 0
M  V30 551 H 51.8685 -0.557162 -4.81688 0
M  V30 552 N 53.2116 1.57565 -0.0334293 0
M  V30 553 C 54.1746 2.09393 0.932048 0
M  V30 554 C 55.1746 1.00986 1.25134 0
M  V30 555 O 56.3646 1.27129 1.19096 0
M  V30 556 C 53.4966 2.56338 2.2473 0
M  V30 557 H 54.6896 2.95984 0.483085 0
M  V30 558 H 52.2426 1.54819 0.21468 0
M  V30 559 H 52.9776 1.7309 2.74245 0
M  V30 560 H 52.7626 3.35542 2.02865 0
M  V30 561 H 54.2526 2.96646 2.93923 0
M  V30 562 N 54.6897 -0.239769 1.55765 0
M  V30 563 C 55.6197 -1.30052 1.9393 0
M  V30 564 C 56.6007 -1.49839 0.805132 0
M  V30 565 O 57.7857 -1.62328 1.06599 0
M  V30 566 C 54.9157 -2.65391 2.2402 0
M  V30 567 C 53.8697 -2.60289 3.39755 0
M  V30 568 C 53.1957 -3.99489 3.55405 0
M  V30 569 C 54.4957 -2.16654 4.75246 0
M  V30 570 H 56.1897 -0.983573 2.82783 0
M  V30 571 H 53.7357 -0.471701 1.36055 0
M  V30 572 H 55.6887 -3.3974 2.49308 0
M  V30 573 H 54.4127 -2.98736 1.32 0
M  V30 574 H 53.0717 -1.88398 3.14487 0
M  V30 575 H 52.7197 -4.30112 2.60793 0
M  V30 576 H 52.4197 -3.96962 4.33238 0
M  V30 577 H 53.9437 -4.75528 3.83022 0
M  V30 578 H 55.3577 -2.80737 4.99859 0
M  V30 579 H 53.7547 -2.25223 5.56232 0
M  V30 580 H 54.8247 -1.11835 4.71827 0
M  V30 581 N 56.1678 -1.49265 -0.50573 0
M  V30 582 C 57.1008 -1.60183 -1.62532 0
M  V30 583 C 58.0788 -0.451107 -1.56217 0
M  V30 584 O 59.2628 -0.666016 -1.76342 0
M  V30 585 C 56.3898 -1.55238 -3.01029 0
M  V30 586 C 55.4358 -2.7545 -3.25621 0
M  V30 587 S 56.2688 -4.37174 -3.09256 0
M  V30 588 C 57.4248 -4.34866 -4.50158 0
M  V30 589 H 57.6578 -2.54894 -1.53025 0
M  V30 590 H 55.1908 -1.38098 -0.690535 0
M  V30 591 H 57.1488 -1.53071 -3.80893 0
M  V30 592 H 55.8098 -0.618238 -3.07956 0
M  V30 593 H 55.0028 -2.68197 -4.26716 0
M  V30 594 H 54.6048 -2.75005 -2.53472 0
M  V30 595 H 56.8968 -4.06295 -5.42154 0
M  V30 596 H 57.8398 -5.36223 -4.62462 0
M  V30 597 H 58.2478 -3.65007 -4.30616 0
M  V30 598 N 57.6459 0.756429 -1.3826 0
M  V30 599 C 58.8919 1.51772 -1.34511 0
M  V30 600 C 59.2249 1.94089 0.0656691 0
M  V30 601 O 58.4999 1.65221 1.02626 0
M  V30 602 C 58.7829 2.77226 -2.29821 0
M  V30 603 C 58.6359 2.41065 -3.79747 0
M  V30 604 C 59.9549 3.79236 -2.23312 0
M  V30 605 H 57.0739 0.550578 -0.489931 0
M  V30 606 H 59.7159 0.866607 -1.69086 0
M  V30 607 H 57.8659 3.32784 -2.00467 0
M  V30 608 H 59.5379 1.91303 -4.19763 0
M  V30 609 H 57.7809 1.7356 -3.97567 0
M  V30 610 H 58.4519 3.3081 -4.41892 0
M  V30 611 H 60.9279 3.3321 -2.49219 0
M  V30 612 H 59.8039 4.64714 -2.92116 0
M  V30 613 H 60.0649 4.24615 -1.23102 0
M  V30 614 N 59.124 1.23083 0.984299 0
M  V30 615 C 60.056 0.96636 2.07832 0
M  V30 616 C 61.069 -0.0582135 1.62696 0
M  V30 617 O 62.258 0.176843 1.77622 0
M  V30 618 C 59.358 0.433397 3.36117 0
M  V30 619 C 58.531 1.51722 4.10243 0
M  V30 620 C 57.59 0.989821 5.16807 0
M  V30 621 O 56.616 1.67794 5.43906 0
M  V30 622 N 57.818 -0.184367 5.80207 0
M  V30 623 H 60.583 1.90824 2.31098 0
M  V30 624 H 58.144 1.13888 1.1507 0
M  V30 625 H 60.136 0.065699 4.04647 0
M  V30 626 H 58.706 -0.413806 3.09849 0
M  V30 627 H 57.926 2.05786 3.36223 0
M  V30 628 H 59.214 2.24619 4.56534 0
M  V30 629 H 58.612 -0.760062 5.60571 0
M  V30 630 H 57.169 -0.493366 6.4993 0
M  V30 631 N 60.6021 -1.18246 1.0419 0
M  V30 632 C 61.5491 -2.2192 0.634037 0
M  V30 633 C 62.5191 -1.62179 -0.358765 0
M  V30 634 O 63.7041 -1.89122 -0.252466 0
M  V30 635 C 60.8441 -3.451 0.00445535 0
M  V30 636 C 59.9571 -4.19174 1.04487 0
M  V30 637 C 59.0921 -5.29813 0.383676 0
M  V30 638 C 58.1311 -5.9566 1.4091 0
M  V30 639 N 57.2681 -6.97834 0.772784 0
M  V30 640 H 62.1081 -2.56164 1.52263 0
M  V30 641 H 59.6451 -1.25843 0.761701 0
M  V30 642 H 61.6031 -4.15485 -0.377919 0
M  V30 643 H 60.2331 -3.11472 -0.847652 0
M  V30 644 H 59.2851 -3.47604 1.54518 0
M  V30 645 H 60.5971 -4.64267 1.82368 0
M  V30 646 H 59.7511 -6.06677 -0.0528366 0
M  V30 647 H 58.4901 -4.85825 -0.427208 0
M  V30 648 H 57.4951 -5.17535 1.85574 0
M  V30 649 H 58.7201 -6.4173 2.22171 0
M  V30 650 H 56.6661 -6.55998 -0.0177708 0
M  V30 651 H 56.5831 -7.41186 1.48928 0
M  V30 652 H 57.8511 -7.78665 0.36071 0
M  V30 653 N 62.0802 -0.821533 -1.34494 0
M  V30 654 C 63.3262 -0.409552 -1.98622 0
M  V30 655 C 63.6592 1.0244 -1.64984 0
M  V30 656 O 62.9342 1.71325 -0.920758 0
M  V30 657 C 63.2172 -0.610458 -3.54888 0
M  V30 658 C 63.0702 -2.09043 -3.98273 0
M  V30 659 C 64.3892 -0.0455379 -4.40076 0
M  V30 660 H 61.5082 -0.15028 -0.721516 0
M  V30 661 H 64.1502 -1.03384 -1.59411 0
M  V30 662 H 62.3002 -0.079044 -3.8842 0
M  V30 663 H 63.9722 -2.68537 -3.75081 0
M  V30 664 H 62.2152 -2.58139 -3.48635 0
M  V30 665 H 62.8862 -2.18182 -5.07051 0
M  V30 666 H 65.3622 -0.499557 -4.1309 0
M  V30 667 H 64.2382 -0.215922 -5.48475 0
M  V30 668 H 64.4992 1.04939 -4.29465 0
M  V30 669 N 63.5583 1.46682 -0.576371 0
M  V30 670 C 64.8063 2.02013 -0.0594163 0
M  V30 671 C 65.1273 1.45101 1.30271 0
M  V30 672 O 64.3973 0.633317 1.8538 0
M  V30 673 H 62.9773 0.746759 -0.0189745 0
M  V30 674 H 65.6393 1.79862 -0.750717 0
M  V30 675 H 64.7353 3.12097 0.014345 0
M  V30 676 N 65.0364 0.313813 1.54444 0
M  V30 677 C 65.9994 -0.54379 2.22656 0
M  V30 678 C 66.9994 -1.05124 1.21678 0
M  V30 679 O 68.1894 -0.945225 1.46325 0
M  V30 680 C 65.3214 -1.75427 2.92298 0
M  V30 681 H 66.5144 0.0523599 2.99854 0
M  V30 682 H 64.0674 0.0647834 1.56166 0
M  V30 683 H 64.8024 -2.38991 2.19211 0
M  V30 684 H 64.5874 -1.39791 3.66334 0
M  V30 685 H 66.0774 -2.36325 3.44297 0
M  V30 686 N 66.5145 -1.57545 0.0417849 0
M  V30 687 C 67.7395 -1.97035 -0.647455 0
M  V30 688 C 68.1645 -0.918775 -1.64135 0
M  V30 689 O 67.5225 0.119006 -1.80909 0
M  V30 690 C 67.5705 -3.35609 -1.31905 0
M  V30 691 O 66.6745 -3.3287 -2.43457 0
M  V30 692 H 66.0155 -0.64211 -0.169086 0
M  V30 693 H 68.5455 -2.04318 0.107399 0
M  V30 694 H 68.5555 -3.72126 -1.67291 0
M  V30 695 H 67.2305 -4.11685 -0.590586 0
M  V30 696 H 65.8075 -3.08087 -2.10088 0
M  V30 697 N 67.9926 0.231505 -1.5589 0
M  V30 698 C 68.9556 1.27028 -1.90779 0
M  V30 699 C 69.9556 1.40308 -0.785507 0
M  V30 700 O 71.1456 1.38744 -1.05336 0
M  V30 701 C 68.2776 2.64566 -2.14983 0
M  V30 702 H 69.4706 0.973017 -2.83677 0
M  V30 703 H 67.0236 0.471486 -1.49019 0
M  V30 704 H 67.7586 2.99406 -1.24604 0
M  V30 705 H 67.5436 2.56305 -2.96732 0
M  V30 706 H 69.0336 3.39543 -2.43105 0
M  V30 707 N 69.4707 1.49531 0.497807 0
M  V30 708 C 70.8817 1.52344 1.07927 0
M  V30 709 C 71.2327 0.311469 1.93712 0
M  V30 710 O 70.3577 -0.578405 2.08527 0
M  V30 711 C 70.9527 2.76062 1.96405 0
M  V30 712 C 69.5117 2.81643 2.49709 0
M  V30 713 C 68.6587 2.46299 1.27404 0
M  V30 714 H 71.6097 1.56182 0.281576 0
M  V30 715 H 71.6307 2.56405 2.81135 0
M  V30 716 H 71.1427 3.64254 1.33943 0
M  V30 717 H 69.2437 1.97739 3.15801 0
M  V30 718 H 69.3567 3.83891 2.86643 0
M  V30 719 H 67.7207 1.98148 1.60029 0
M  V30 720 H 68.5037 3.36769 0.66645 0
M  V30 721 N 70.9488 -0.749086 1.3866 0
M  V30 722 C 71.9118 -1.84457 1.36045 0
M  V30 723 C 72.9118 -1.58682 0.260122 0
M  V30 724 O 74.1018 -1.66343 0.517261 0
M  V30 725 C 71.2338 -3.22008 1.11911 0
M  V30 726 H 72.4268 -1.88182 2.33512 0
M  V30 727 H 69.9798 -0.951266 1.24019 0
M  V30 728 H 70.7148 -3.2395 0.150686 0
M  V30 729 H 70.4998 -3.42111 1.91579 0
M  V30 730 H 71.9898 -4.0208 1.12788 0
M  V30 731 N 72.4269 -1.23603 -0.977757 0
M  V30 732 C 73.6759 -1.06377 -1.71368 0
M  V30 733 C 73.9889 0.399062 -1.91486 0
M  V30 734 O 75.1949 0.691312 -2.62551 0
M  V30 735 C 73.6509 -1.85512 -3.08404 0
M  V30 736 C 73.2589 -3.36141 -2.96164 0
M  V30 737 C 75.0029 -1.76783 -3.85938 0
M  V30 738 C 72.9099 -4.07659 -4.28449 0
M  V30 739 H 71.8399 -0.394452 -0.642591 0
M  V30 740 H 74.4909 -1.47594 -1.09034 0
M  V30 741 H 72.8729 -1.37103 -3.71509 0
M  V30 742 H 74.0469 -3.92056 -2.42133 0
M  V30 743 H 72.3619 -3.45712 -2.32104 0
M  V30 744 H 74.9589 -2.27526 -4.83876 0
M  V30 745 H 75.3019 -0.731116 -4.0983 0
M  V30 746 H 75.8349 -2.22818 -3.2954 0
M  V30 747 H 72.5739 -5.11648 -4.09752 0
M  V30 748 H 72.0939 -3.5653 -4.82334 0
M  V30 749 H 73.7729 -4.141 -4.97122 0
M  V30 750 N 73.905 1.17692 -1.04816 0
M  V30 751 C 75.182 1.83768 -0.669963 0
M  V30 752 C 75.562 1.93232 0.849986 0
M  V30 753 O 74.91 1.46397 1.75443 0
M  V30 754 C 75.12 3.21641 -1.35455 0
M  V30 755 C 76.468 3.97592 -1.49017 0
M  V30 756 O 77.492 3.31107 -1.31326 0
M  V30 757 O 76.351 5.16729 -1.77914 0
M  V30 758 H 73.445 0.792799 -0.235368 0
M  V30 759 H 75.991 1.25021 -1.14751 0
M  V30 760 H 74.763 3.097 -2.39168 0
M  V30 761 H 74.386 3.88052 -0.866107 0
M  V30 762 N 75.3831 0.828654 1.34056 0
M  V30 763 C 76.6131 0.431993 2.02033 0
M  V30 764 C 77.0211 -0.96844 1.62536 0
M  V30 765 O 76.3641 -1.6391 0.829408 0
M  V30 766 C 76.4261 0.461224 3.56529 0
M  V30 767 C 76.0901 1.81599 4.1937 0
M  V30 768 C 77.0871 2.7777 4.39477 0
M  V30 769 C 74.7721 2.10604 4.56017 0
M  V30 770 C 76.7661 4.01115 4.95364 0
M  V30 771 C 74.4531 3.34207 5.11614 0
M  V30 772 C 75.4511 4.2928 5.31232 0
M  V30 773 O 75.1391 5.50699 5.8565 0
M  V30 774 H 74.8711 0.170943 0.654029 0
M  V30 775 H 77.4251 1.11988 1.72185 0
M  V30 776 H 75.6551 -0.283388 3.8566 0
M  V30 777 H 77.3441 0.0838149 4.05813 0
M  V30 778 H 78.1101 2.56659 4.11523 0
M  V30 779 H 73.9891 1.37402 4.40047 0
M  V30 780 H 77.5331 4.75333 5.10592 0
M  V30 781 H 73.4301 3.55179 5.38997 0
M  V30 782 H 74.1981 5.52298 6.04077 0
M  V30 783 N 76.8612 -1.46375 0.584142 0
M  V30 784 C 77.8112 -2.27371 -0.169232 0
M  V30 785 C 78.7952 -1.35955 -0.860523 0
M  V30 786 O 79.9872 -1.60119 -0.754382 0
M  V30 787 C 77.1162 -3.22334 -1.18134 0
M  V30 788 C 76.2022 -4.21235 -0.492088 0
M  V30 789 N 76.5932 -5.03766 0.453129 0
M  V30 790 C 74.8912 -4.39773 -0.742652 0
M  V30 791 C 75.5922 -5.75366 0.85609 0
M  V30 792 N 74.5682 -5.43214 0.204926 0
M  V30 793 H 78.3702 -2.88572 0.557097 0
M  V30 794 H 75.8842 -1.57242 0.406042 0
M  V30 795 H 77.8812 -3.79071 -1.73525 0
M  V30 796 H 76.5412 -2.62693 -1.90847 0
M  V30 797 H 77.5522 -5.11227 0.828723 0
M  V30 798 H 74.2292 -3.91279 -1.45625 0
M  V30 799 H 75.6192 -6.5172 1.63434 0
M  V30 800 N 78.3393 -0.321999 -1.54275 0
M  V30 801 C 79.5643 0.285791 -2.05422 0
M  V30 802 C 79.9893 1.45124 -1.19669 0
M  V30 803 O 79.3473 1.80132 -0.205441 0
M  V30 804 C 79.3953 0.69956 -3.53749 0
M  V30 805 O 78.4993 1.8021 -3.70942 0
M  V30 806 H 77.8403 0.0518962 -0.661969 0
M  V30 807 H 80.3703 -0.469954 -1.9913 0
M  V30 808 H 80.3803 0.982649 -3.9599 0
M  V30 809 H 79.0553 -0.152864 -4.15619 0
M  V30 810 H 77.6323 1.51794 -3.40607 0
M  V30 811 N 79.8174 1.5752 -0.0501392 0
M  V30 812 C 80.7494 2.08413 0.95376 0
M  V30 813 C 81.7624 1.01175 1.27544 0
M  V30 814 O 82.9514 1.28744 1.23641 0
M  V30 815 C 80.0514 2.51138 2.27559 0
M  V30 816 C 79.2244 3.817 2.13598 0
M  V30 817 C 78.2834 4.10749 3.28895 0
M  V30 818 O 77.3094 4.80685 3.04845 0
M  V30 819 N 78.5114 3.62579 4.5334 0
M  V30 820 H 81.2764 2.95165 0.519383 0
M  V30 821 H 78.8374 1.61327 0.136127 0
M  V30 822 H 80.8294 2.67648 3.03557 0
M  V30 823 H 79.3994 1.6964 2.62567 0
M  V30 824 H 78.6194 3.74782 1.22197 0
M  V30 825 H 79.9074 4.67201 2.01496 0
M  V30 826 H 79.3054 3.06039 4.75769 0
M  V30 827 H 77.8624 3.84329 5.26436 0
M  V30 828 N 81.2955 -0.223234 1.56011 0
M  V30 829 C 82.2275 -1.30006 1.88762 0
M  V30 830 C 83.2405 -1.43129 0.775746 0
M  V30 831 O 84.4295 -1.44057 1.05403 0
M  V30 832 C 81.5295 -2.67589 2.07965 0
M  V30 833 C 80.7025 -2.76434 3.38973 0
M  V30 834 C 79.7615 -3.95019 3.47629 0
M  V30 835 O 78.7875 -3.83436 4.20672 0
M  V30 836 N 79.9895 -5.09249 2.78649 0
M  V30 837 H 82.7545 -1.02238 2.81722 0
M  V30 838 H 80.3155 -0.413278 1.56536 0
M  V30 839 H 82.3075 -3.45297 2.11073 0
M  V30 840 H 80.8775 -2.87964 1.21638 0
M  V30 841 H 80.0975 -1.85216 3.47978 0
M  V30 842 H 81.3855 -2.79313 4.25278 0
M  V30 843 H 80.7835 -5.21556 2.19081 0
M  V30 844 H 79.3405 -5.85007 2.8742 0
M  V30 845 N 82.7736 -1.49793 -0.48987 0
M  V30 846 C 83.7066 -1.61898 -1.60823 0
M  V30 847 C 84.6846 -0.467651 -1.5573 0
M  V30 848 O 85.8686 -0.684682 -1.75626 0
M  V30 849 C 82.9956 -1.58422 -2.99366 0
M  V30 850 C 82.0416 -2.78889 -3.22682 0
M  V30 851 S 82.8746 -4.40429 -3.04602 0
M  V30 852 C 84.0306 -4.39617 -4.4552 0
M  V30 853 H 84.2636 -2.56502 -1.50312 0
M  V30 854 H 81.7966 -1.38822 -0.675849 0
M  V30 855 H 83.7546 -1.57103 -3.79248 0
M  V30 856 H 82.4156 -0.650866 -3.07283 0
M  V30 857 H 81.6086 -2.72708 -4.23847 0
M  V30 858 H 81.2106 -2.77678 -2.50541 0
M  V30 859 H 83.5026 -4.12022 -5.37814 0
M  V30 860 H 84.4456 -5.41097 -4.56749 0
M  V30 861 H 84.8536 -3.69554 -4.2672 0
M  V30 862 N 84.2517 0.741722 -1.39055 0
M  V30 863 C 85.2147 1.83733 -1.37021 0
M  V30 864 C 86.2147 1.58542 -0.268534 0
M  V30 865 O 87.4047 1.66067 -0.526076 0
M  V30 866 C 84.5367 3.2141 -1.13617 0
M  V30 867 H 85.7297 1.86941 -2.34506 0
M  V30 868 H 83.2827 0.944676 -1.24521 0
M  V30 869 H 84.0177 3.23865 -0.167863 0
M  V30 870 H 83.8027 3.4109 -1.93391 0
M  V30 871 H 85.2927 4.01477 -1.14918 0
M  V30 872 N 85.7298 1.2412 0.971189 0
M  V30 873 C 86.6598 1.05508 2.08304 0
M  V30 874 C 87.6408 -0.0308864 1.70072 0
M  V30 875 O 88.8258 0.135521 1.93727 0
M  V30 876 C 85.9558 0.655365 3.4106 0
M  V30 877 C 84.9098 1.68971 3.93234 0
M  V30 878 C 84.2358 1.14516 5.22293 0
M  V30 879 C 85.5358 3.08487 4.21465 0
M  V30 880 H 87.2298 1.98507 2.24132 0
M  V30 881 H 84.7758 0.955821 1.07704 0
M  V30 882 H 86.7288 0.51217 4.18276 0
M  V30 883 H 85.4528 -0.31032 3.25122 0
M  V30 884 H 84.1118 1.82106 3.18171 0
M  V30 885 H 83.7598 0.170189 5.02712 0
M  V30 886 H 83.4598 1.83635 5.58168 0
M  V30 887 H 84.9838 1.01401 6.02121 0
M  V30 888 H 86.3978 2.98601 4.89398 0
M  V30 889 H 84.7948 3.74926 4.68562 0
M  V30 890 H 85.8648 3.56787 3.28376 0
M  V30 891 N 87.2079 -1.17134 1.05439 0
M  V30 892 C 88.6189 -1.69084 0.791676 0
M  V30 893 C 88.9699 -1.83822 -0.685839 0
M  V30 894 O 88.0949 -1.52757 -1.53278 0
M  V30 895 C 88.6899 -3.07119 1.4305 0
M  V30 896 C 87.2489 -3.56225 1.21577 0
M  V30 897 C 86.3959 -2.32421 1.51247 0
M  V30 898 H 89.3469 -1.01617 1.219 0
M  V30 899 H 89.3679 -3.71087 0.84112 0
M  V30 900 H 88.8799 -2.9636 2.50584 0
M  V30 901 H 86.9809 -3.72257 0.159787 0
M  V30 902 H 87.0939 -4.38837 1.92246 0
M  V30 903 H 85.4579 -2.3701 0.932653 0
M  V30 904 H 86.2409 -2.24268 2.5992 0
M  V30 905 N 88.686 -0.835752 -1.33615 0
M  V30 906 C 89.649 -0.272 -2.2758 0
M  V30 907 C 90.649 0.557487 -1.50827 0
M  V30 908 O 91.839 0.37173 -1.70188 0
M  V30 909 C 88.971 0.617173 -3.35267 0
M  V30 910 H 90.164 -1.10111 -2.78954 0
M  V30 911 H 87.717 -0.608594 -1.43965 0
M  V30 912 H 88.452 1.46884 -2.89129 0
M  V30 913 H 88.237 0.0237066 -3.92093 0
M  V30 914 H 89.727 1.005 -4.05326 0
M  V30 915 N 90.1641 1.46063 -0.591896 0
M  V30 916 C 91.3891 2.07226 -0.0850314 0
M  V30 917 C 91.8141 1.43625 1.21463 0
M  V30 918 O 91.1721 0.523305 1.73583 0
M  V30 919 C 91.2201 3.60554 0.0576567 0
M  V30 920 O 90.3241 3.97128 1.11188 0
M  V30 921 H 89.6651 0.660615 -0.0669568 0
M  V30 922 H 92.1951 1.8756 -0.81745 0
M  V30 923 H 92.2051 4.07165 0.2609 0
M  V30 924 H 90.8801 4.06235 -0.891416 0
M  V30 925 H 89.4571 3.62213 0.886356 0
M  V30 926 N 91.6422 0.330177 1.54103 0
M  V30 927 C 92.8702 -0.272179 2.05102 0
M  V30 928 C 93.2852 -1.45267 1.20595 0
M  V30 929 O 92.6422 -1.8094 0.238144 0
M  V30 930 C 92.6932 -0.70023 3.54653 0
M  V30 931 O 92.4142 0.433301 4.35952 0
M  V30 932 C 93.9152 -1.3647 4.21771 0
M  V30 933 H 91.1352 -0.0549159 0.668749 0
M  V30 934 H 93.6792 0.478285 1.98828 0
M  V30 935 H 91.8342 -1.40066 3.61193 0
M  V30 936 H 92.2482 0.0947539 5.24414 0
M  V30 937 H 93.7222 -1.61509 5.27843 0
M  V30 938 H 94.1992 -2.31409 3.73292 0
M  V30 939 H 94.8052 -0.706675 4.19388 0
M  V30 940 N 93.1203 -1.57491 0.0584922 0
M  V30 941 C 94.0523 -2.08916 -0.942694 0
M  V30 942 C 95.0653 -1.0185 -1.27006 0
M  V30 943 O 96.2543 -1.29398 -1.22957 0
M  V30 944 C 93.3543 -2.52341 -2.26224 0
M  V30 945 C 92.5273 -3.82827 -2.1157 0
M  V30 946 C 91.5863 -4.12487 -3.26712 0
M  V30 947 O 90.6123 -4.82295 -3.02292 0
M  V30 948 N 91.8143 -3.64978 -4.5141 0
M  V30 949 H 94.5793 -2.95437 -0.503722 0
M  V30 950 H 92.1403 -1.61397 -0.12757 0
M  V30 951 H 94.1323 -2.69254 -3.02133 0
M  V30 952 H 92.7023 -1.7103 -2.61663 0
M  V30 953 H 91.9223 -3.75425 -1.20208 0
M  V30 954 H 93.2103 -4.68263 -1.99015 0
M  V30 955 H 92.6083 -3.08558 -4.7414 0
M  V30 956 H 91.1653 -3.87115 -5.2439 0
M  V30 957 N 94.5984 0.214957 -1.56127 0
M  V30 958 C 95.5454 1.26642 -1.92952 0
M  V30 959 C 96.5154 1.46244 -0.78753 0
M  V30 960 O 97.7004 1.59704 -1.04399 0
M  V30 961 C 94.8404 2.6104 -2.25726 0
M  V30 962 C 93.9534 2.49183 -3.52891 0
M  V30 963 C 93.0884 3.76149 -3.7508 0
M  V30 964 C 92.1274 3.59041 -4.95738 0
M  V30 965 N 91.2644 4.77972 -5.14283 0
M  V30 966 H 96.1044 0.945384 -2.82607 0
M  V30 967 H 93.6414 0.455489 -1.3987 0
M  V30 968 H 95.5994 3.39313 -2.42739 0
M  V30 969 H 94.2294 2.91227 -1.39236 0
M  V30 970 H 93.2814 1.6231 -3.44034 0
M  V30 971 H 94.5934 2.32466 -4.41318 0
M  V30 972 H 93.7474 4.62865 -3.92226 0
M  V30 973 H 92.4864 3.95799 -2.84947 0
M  V30 974 H 91.4914 2.7071 -4.78535 0
M  V30 975 H 92.7164 3.40856 -5.87362 0
M  V30 976 H 90.6624 4.97923 -4.27093 0
M  V30 977 H 90.5794 4.64006 -5.96853 0
M  V30 978 H 91.8474 5.66096 -5.35869 0
M  V30 979 N 96.0765 1.50051 0.48192 0
M  V30 980 C 97.3225 1.60736 1.2366 0
M  V30 981 C 97.6555 0.301786 1.91841 0
M  V30 982 O 96.9305 -0.696025 1.8162 0
M  V30 983 C 97.2135 2.78009 2.28874 0
M  V30 984 C 97.0665 4.18416 1.65069 0
M  V30 985 C 98.3855 2.90867 3.30279 0
M  V30 986 H 95.5045 0.585031 0.448228 0
M  V30 987 H 98.1465 1.82402 0.531946 0
M  V30 988 H 96.2965 2.59667 2.88973 0
M  V30 989 H 97.9685 4.48322 1.0865 0
M  V30 990 H 96.2115 4.23177 0.954148 0
M  V30 991 H 96.8825 4.96381 2.41474 0
M  V30 992 H 99.3585 3.07623 2.80191 0
M  V30 993 H 98.2345 3.74566 4.01238 0
M  V30 994 H 98.4955 2.01021 3.93755 0
M  V30 995 N 97.5546 -0.734337 1.39446 0
M  V30 996 C 98.8036 -1.48937 1.36017 0
M  V30 997 C 99.1166 -1.95557 -0.0409005 0
M  V30 998 O 100.323 -2.70779 -0.19778 0
M  V30 999 C 98.7786 -2.69125 2.38955 0
M  V30 1000 C 98.3866 -2.29452 3.8478 0
M  V30 1001 C 100.131 -3.46944 2.44603 0
M  V30 1002 C 98.0376 -3.46366 4.79358 0
M  V30 1003 H 96.9676 -0.559296 0.505672 0
M  V30 1004 H 99.6186 -0.800983 1.65095 0
M  V30 1005 H 98.0006 -3.40041 2.02948 0
M  V30 1006 H 99.1746 -1.66077 4.29831 0
M  V30 1007 H 97.4896 -1.64723 3.82433 0
M  V30 1008 H 100.087 -4.33907 3.12456 0
M  V30 1009 H 100.43 -3.89454 1.47076 0
M  V30 1010 H 100.963 -2.83056 2.79507 0
M  V30 1011 H 97.7016 -3.08905 5.78151 0
M  V30 1012 H 97.2216 -4.08719 4.38986 0
M  V30 1013 H 98.9006 -4.12691 4.98292 0
M  V30 1014 N 99.0327 -1.24633 -0.964593 0
M  V30 1015 C 100.261 -1.11501 -1.74285 0
M  V30 1016 C 100.676 0.332165 -1.85855 0
M  V30 1017 O 100.033 1.22903 -1.34911 0
M  V30 1018 C 100.084 -1.75258 -3.16175 0
M  V30 1019 O 99.8047 -3.14318 -3.05182 0
M  V30 1020 C 101.306 -1.67776 -4.10324 0
M  V30 1021 H 98.5257 -0.389407 -0.546446 0
M  V30 1022 H 101.07 -1.64801 -1.21083 0
M  V30 1023 H 99.2247 -1.25954 -3.66353 0
M  V30 1024 H 99.6387 -3.4551 -3.94618 0
M  V30 1025 H 101.113 -2.17064 -5.0753 0
M  V30 1026 H 101.59 -0.639584 -4.34518 0
M  V30 1027 H 102.196 -2.16522 -3.66058 0
M  V30 1028 N 100.511 1.16574 -1.06058 0
M  V30 1029 C 101.474 2.19085 -0.673392 0
M  V30 1030 C 102.474 1.5835 0.279648 0
M  V30 1031 O 103.664 1.74088 0.0623488 0
M  V30 1032 C 100.796 3.40899 0.00954234 0
M  V30 1033 H 101.989 2.54853 -1.58081 0
M  V30 1034 H 99.5418 1.30808 -0.855516 0
M  V30 1035 H 100.277 3.10684 0.929826 0
M  V30 1036 H 100.062 3.86233 -0.67573 0
M  V30 1037 H 101.552 4.1675 0.266245 0
M  V30 1038 N 101.989 0.842826 1.3317 0
M  V30 1039 C 102.919 0.294028 2.31641 0
M  V30 1040 C 103.9 -0.600401 1.59151 0
M  V30 1041 O 105.085 -0.523124 1.87022 0
M  V30 1042 C 102.215 -0.528416 3.43257 0
M  V30 1043 C 101.169 0.27056 4.27144 0
M  V30 1044 C 100.495 -0.675881 5.30411 0
M  V30 1045 C 101.795 1.48981 5.00602 0
M  V30 1046 H 103.489 1.11681 2.77791 0
M  V30 1047 H 101.035 0.538478 1.33553 0
M  V30 1048 H 102.988 -0.922674 4.11175 0
M  V30 1049 H 101.712 -1.38445 2.95805 0
M  V30 1050 H 100.371 0.646427 3.60856 0
M  V30 1051 H 100.019 -1.52842 4.79216 0
M  V30 1052 H 99.7189 -0.145374 5.8742 0
M  V30 1053 H 101.243 -1.06757 6.01195 0
M  V30 1054 H 102.657 1.16849 5.61266 0
M  V30 1055 H 101.054 1.95739 5.6728 0
M  V30 1056 H 102.124 2.25746 4.29147 0
M  V30 1057 N 103.467 -1.45747 0.599634 0
M  V30 1058 C 104.43 -2.28917 -0.113835 0
M  V30 1059 C 105.43 -1.3933 -0.802729 0
M  V30 1060 O 106.62 -1.61534 -0.652103 0
M  V30 1061 C 103.752 -3.20152 -1.17114 0
M  V30 1062 H 104.945 -2.93478 0.617289 0
M  V30 1063 H 102.498 -1.52137 0.358327 0
M  V30 1064 H 103.233 -2.60374 -1.93329 0
M  V30 1065 H 103.018 -3.86133 -0.681468 0
M  V30 1066 H 104.508 -3.82708 -1.67105 0
M  V30 1067 N 104.945 -0.338344 -1.53925 0
M  V30 1068 C 105.908 0.508299 -2.23493 0
M  V30 1069 C 106.908 1.03175 -1.23335 0
M  V30 1070 O 108.098 0.921826 -1.47811 0
M  V30 1071 C 105.23 1.70754 -2.95052 0
M  V30 1072 H 106.423 -0.100058 -2.99733 0
M  V30 1073 H 103.976 -0.0896198 -1.56043 0
M  V30 1074 H 104.711 2.35474 -2.22986 0
M  V30 1075 H 104.496 1.33946 -3.68512 0
M  V30 1076 H 105.986 2.30818 -3.48013 0
M  V30 1077 N 106.423 1.57458 -0.0668435 0
M  V30 1078 C 107.353 2.15468 0.899764 0
M  V30 1079 C 108.334 1.08042 1.31381 0
M  V30 1080 O 109.519 1.36054 1.38574 0
M  V30 1081 C 106.649 2.71232 2.16911 0
M  V30 1082 C 105.603 3.83781 1.89463 0
M  V30 1083 C 104.929 4.26127 3.22986 0
M  V30 1084 C 106.229 5.08238 1.20381 0
M  V30 1085 H 107.923 2.96488 0.416529 0
M  V30 1086 H 105.469 1.4262 0.198908 0
M  V30 1087 H 107.422 3.10458 2.84945 0
M  V30 1088 H 106.146 1.87426 2.67468 0
M  V30 1089 H 104.805 3.45051 1.23836 0
M  V30 1090 H 104.453 3.39249 3.71374 0
M  V30 1091 H 104.153 5.01993 3.05413 0
M  V30 1092 H 105.677 4.67966 3.92225 0
M  V30 1093 H 107.091 5.44811 1.78475 0
M  V30 1094 H 105.488 5.89349 1.13083 0
M  V30 1095 H 106.558 4.84558 0.182153 0
M  V30 1096 N 107.901 -0.206675 1.56239 0
M  V30 1097 C 109.15 -0.926964 1.79138 0
M  V30 1098 C 109.463 -1.84901 0.638043 0
M  V30 1099 O 110.669 -2.60906 0.751033 0
M  V30 1100 C 109.125 -1.6986 3.17294 0
M  V30 1101 C 108.733 -0.821956 4.40395 0
M  V30 1102 C 110.477 -2.40922 3.4951 0
M  V30 1103 C 108.384 -1.59179 5.69575 0
M  V30 1104 H 107.314 -0.349864 0.667915 0
M  V30 1105 H 109.965 -0.180487 1.8261 0
M  V30 1106 H 108.347 -2.48853 3.08039 0
M  V30 1107 H 109.521 -0.0715019 4.60745 0
M  V30 1108 H 107.836 -0.222741 4.15804 0
M  V30 1109 H 110.433 -2.99047 4.43255 0
M  V30 1110 H 110.776 -3.14542 2.72707 0
M  V30 1111 H 111.309 -1.68905 3.60161 0
M  V30 1112 H 108.048 -0.898589 6.49312 0
M  V30 1113 H 107.568 -2.31648 5.53262 0
M  V30 1114 H 109.247 -2.14862 6.10281 0
M  V30 1115 N 109.379 -1.50304 -0.473955 0
M  V30 1116 C 110.311 -1.65109 -1.58971 0
M  V30 1117 C 111.324 -0.532676 -1.53839 0
M  V30 1118 O 112.513 -0.805751 -1.59279 0
M  V30 1119 C 109.613 -1.61684 -2.97845 0
M  V30 1120 C 108.786 -2.8951 -3.27876 0
M  V30 1121 C 107.845 -2.78768 -4.4629 0
M  V30 1122 O 106.871 -3.52722 -4.46739 0
M  V30 1123 N 108.073 -1.9213 -5.47783 0
M  V30 1124 H 110.838 -2.61347 -1.46689 0
M  V30 1125 H 108.399 -1.47732 -0.662324 0
M  V30 1126 H 110.391 -1.52114 -3.75024 0
M  V30 1127 H 108.961 -0.731925 -3.03911 0
M  V30 1128 H 108.181 -3.13228 -2.39336 0
M  V30 1129 H 109.469 -3.74199 -3.4475 0
M  V30 1130 H 108.867 -1.31353 -5.50239 0
M  V30 1131 H 107.424 -1.88466 -6.23958 0
M  V30 1132 N 110.857 0.726932 -1.39834 0
M  V30 1133 C 111.787 1.85405 -1.41941 0
M  V30 1134 C 112.768 1.67751 -0.281728 0
M  V30 1135 O 113.953 1.8795 -0.488717 0
M  V30 1136 C 111.083 3.23243 -1.2701 0
M  V30 1137 C 110.037 3.55549 -2.38262 0
M  V30 1138 C 109.363 4.9241 -2.08415 0
M  V30 1139 C 110.663 3.577 -3.80589 0
M  V30 1140 H 112.357 1.83899 -2.36266 0
M  V30 1141 H 109.903 0.883349 -1.13723 0
M  V30 1142 H 111.856 4.01775 -1.27103 0
M  V30 1143 H 110.58 3.25296 -0.291564 0
M  V30 1144 H 109.239 2.79351 -2.37399 0
M  V30 1145 H 108.887 4.91052 -1.0898 0
M  V30 1146 H 108.587 5.14992 -2.82943 0
M  V30 1147 H 110.111 5.73289 -2.10171 0
M  V30 1148 H 111.525 4.26293 -3.83337 0
M  V30 1149 H 109.922 3.91804 -4.54543 0
M  V30 1150 H 110.992 2.57328 -4.10987 0
M  V30 1151 N 112.336 1.25143 0.95797 0
M  V30 1152 C 113.584 1.09476 1.69881 0
M  V30 1153 C 113.905 -0.365502 1.91544 0
M  V30 1154 O 113.175 -1.25985 1.50015 0
M  V30 1155 H 111.755 0.402128 0.629525 0
M  V30 1156 H 114.417 1.57214 1.15194 0
M  V30 1157 H 113.513 1.60046 2.6794 0
M  V30 1158 N 113.814 -1.1601 1.06675 0
M  V30 1159 C 115.225 -1.68235 0.809565 0
M  V30 1160 C 115.576 -1.8454 -0.666303 0
M  V30 1161 O 114.701 -1.54374 -1.5165 0
M  V30 1162 C 115.296 -3.05585 1.46299 0
M  V30 1163 C 113.855 -3.54915 1.25349 0
M  V30 1164 C 113.002 -2.30804 1.53703 0
M  V30 1165 H 115.953 -1.00318 1.22971 0
M  V30 1166 H 115.974 -3.70174 0.880431 0
M  V30 1167 H 115.486 -2.93686 2.53713 0
M  V30 1168 H 113.587 -3.72067 0.199261 0
M  V30 1169 H 113.7 -4.36774 1.9689 0
M  V30 1170 H 112.064 -2.36007 0.957739 0
M  V30 1171 H 112.847 -2.21499 2.62284 0
M  V30 1172 N 115.292 -0.849877 -1.32721 0
M  V30 1173 C 116.569 -0.372405 -1.92022 0
M  V30 1174 C 116.949 1.1435 -1.77447 0
M  V30 1175 O 116.297 1.96296 -1.16962 0
M  V30 1176 C 116.507 -0.831482 -3.3895 0
M  V30 1177 C 117.855 -0.845882 -4.16089 0
M  V30 1178 O 118.879 -0.775806 -3.47649 0
M  V30 1179 O 117.738 -0.943753 -5.38289 0
M  V30 1180 H 114.832 -0.107667 -0.819961 0
M  V30 1181 H 117.378 -0.93646 -1.41522 0
M  V30 1182 H 116.15 -1.87448 -3.4348 0
M  V30 1183 H 115.773 -0.24461 -3.96847 0
M  V30 1184 N 116.77 1.45427 -0.607355 0
M  V30 1185 C 118.017 2.02241 -0.102455 0
M  V30 1186 C 118.345 1.4758 1.26691 0
M  V30 1187 O 117.6 0.640468 1.84923 0
M  V30 1188 C 117.899 3.57398 -0.0129263 0
M  V30 1189 C 117.565 4.3121 -1.31792 0
M  V30 1190 C 116.227 4.51092 -1.67539 0
M  V30 1191 C 118.579 4.73401 -2.18039 0
M  V30 1192 C 115.907 5.10422 -2.89285 0
M  V30 1193 C 118.259 5.34078 -3.39034 0
M  V30 1194 C 116.923 5.52184 -3.75033 0
M  V30 1195 H 116.193 0.740051 -0.037491 0
M  V30 1196 H 118.84 1.74494 -0.788926 0
M  V30 1197 H 117.145 3.84421 0.756806 0
M  V30 1198 H 118.842 3.99061 0.393881 0
M  V30 1199 H 115.432 4.16047 -1.02968 0
M  V30 1200 H 119.616 4.57774 -1.91721 0
M  V30 1201 H 114.872 5.22629 -3.17283 0
M  V30 1202 H 119.046 5.65724 -4.06115 0
M  V30 1203 H 116.673 5.97925 -4.69457 0
M  V30 1204 N 118.248 0.346503 1.53744 0
M  V30 1205 C 119.664 -0.00530975 1.59599 0
M  V30 1206 C 119.864 -1.48465 1.36236 0
M  V30 1207 O 118.92 -2.24376 1.15808 0
M  V30 1208 C 120.233 0.433516 2.97559 0
M  V30 1209 C 121.781 0.386111 3.10609 0
M  V30 1210 C 122.256 0.800451 4.50951 0
M  V30 1211 N 123.747 0.754753 4.5701 0
M  V30 1212 C 124.482 1.04727 5.63755 0
M  V30 1213 N 123.978 1.4081 6.7834 0
M  V30 1214 N 125.771 0.971316 5.53644 0
M  V30 1215 H 117.922 1.31009 1.67184 0
M  V30 1216 H 120.185 0.534242 0.783128 0
M  V30 1217 H 119.891 1.46509 3.19731 0
M  V30 1218 H 119.765 -0.189753 3.76722 0
M  V30 1219 H 122.152 -0.636295 2.88158 0
M  V30 1220 H 122.233 1.04462 2.33498 0
M  V30 1221 H 121.877 1.82088 4.74137 0
M  V30 1222 H 121.807 0.119386 5.26465 0
M  V30 1223 H 124.298 0.488662 3.74727 0
M  V30 1224 H 124.611 1.61607 7.55714 0
M  V30 1225 H 122.956 1.44657 6.79779 0
M  V30 1226 H 126.147 0.688748 4.63005 0
M  V30 1227 H 126.32 1.20263 6.36742 0
M  V30 1228 N 119.726 -1.57421 0.075193 0
M  V30 1229 C 120.973 -1.93618 -0.593146 0
M  V30 1230 C 121.301 -0.955484 -1.69413 0
M  V30 1231 O 120.556 0.0283251 -1.9568 0
M  V30 1232 C 120.855 -3.36428 -1.20626 0
M  V30 1233 C 120.521 -4.50307 -0.231078 0
M  V30 1234 C 119.183 -4.81186 0.0371936 0
M  V30 1235 C 121.535 -5.19374 0.435888 0
M  V30 1236 C 118.863 -5.78466 0.979461 0
M  V30 1237 C 121.215 -6.17665 1.3665 0
M  V30 1238 C 119.879 -6.46958 1.6432 0
M  V30 1239 H 119.149 -0.708499 -0.217047 0
M  V30 1240 H 121.796 -1.90937 0.146793 0
M  V30 1241 H 120.101 -3.35592 -2.02201 0
M  V30 1242 H 121.798 -3.61727 -1.73073 0
M  V30 1243 H 118.388 -4.26227 -0.450357 0
M  V30 1244 H 122.572 -4.95711 0.241748 0
M  V30 1245 H 117.828 -5.99487 1.20106 0
M  V30 1246 H 122.002 -6.70284 1.88924 0
M  V30 1247 H 119.629 -7.2215 2.37494 0
M  V30 1248 N 121.204 0.198386 -1.56346 0
M  V30 1249 C 122.432 0.935572 -1.84539 0
M  V30 1250 C 122.847 1.76989 -0.657281 0
M  V30 1251 O 122.204 1.78626 0.374043 0
M  V30 1252 C 122.255 1.8344 -3.11499 0
M  V30 1253 O 121.976 1.03377 -4.25728 0
M  V30 1254 C 123.477 2.68355 -3.52846 0
M  V30 1255 H 120.697 0.273126 -0.612897 0
M  V30 1256 H 123.241 0.20663 -2.03453 0
M  V30 1257 H 121.396 2.51701 -2.94492 0
M  V30 1258 H 121.81 1.64599 -4.98003 0
M  V30 1259 H 123.284 3.27085 -4.44657 0
M  V30 1260 H 123.761 3.41901 -2.75681 0
M  V30 1261 H 124.367 2.05471 -3.72373 0
M  V30 1262 N 122.682 1.50554 0.465978 0
M  V30 1263 C 123.91 1.65563 1.24083 0
M  V30 1264 C 124.325 0.341051 1.85694 0
M  V30 1265 O 123.682 -0.677543 1.69457 0
M  V30 1266 C 123.733 2.75051 2.34583 0
M  V30 1267 O 123.454 4.01413 1.75497 0
M  V30 1268 C 124.955 3.01078 3.25372 0
M  V30 1269 H 122.175 0.55638 0.375077 0
M  V30 1270 H 124.719 1.96807 0.555624 0
M  V30 1271 H 122.874 2.46486 2.9887 0
M  V30 1272 H 123.288 4.62002 2.48303 0
M  V30 1273 H 124.762 3.81339 3.99105 0
M  V30 1274 H 125.239 2.12349 3.84453 0
M  V30 1275 H 125.845 3.31194 2.66816 0
M  V30 1276 N 124.16 -0.719506 1.40217 0
M  V30 1277 C 125.388 -1.50864 1.41589 0
M  V30 1278 C 125.803 -1.88794 0.0145275 0
M  V30 1279 O 125.16 -1.55174 -0.960594 0
M  V30 1280 C 125.211 -2.78646 2.30302 0
M  V30 1281 O 124.932 -2.42321 3.64983 0
M  V30 1282 C 126.433 -3.72569 2.40224 0
M  V30 1283 H 123.653 -0.465709 0.48307 0
M  V30 1284 H 126.197 -0.88785 1.84221 0
M  V30 1285 H 124.352 -3.37019 1.91042 0
M  V30 1286 H 124.766 -3.24514 4.12057 0
M  V30 1287 H 126.24 -4.5908 3.06512 0
M  V30 1288 H 126.717 -4.15403 1.42608 0
M  V30 1289 H 127.323 -3.20109 2.80019 0
M  V30 1290 N 125.638 -1.25649 -0.95132 0
M  V30 1291 C 126.568 -1.08808 -2.06599 0
M  V30 1292 C 127.549 0.00382547 -1.701 0
M  V30 1293 O 128.734 -0.166325 -1.93486 0
M  V30 1294 C 125.864 -0.709542 -3.39975 0
M  V30 1295 C 124.818 -1.75206 -3.90496 0
M  V30 1296 C 124.144 -1.22811 -5.20405 0
M  V30 1297 C 125.444 -3.15153 -4.16504 0
M  V30 1298 H 127.138 -2.02048 -2.20946 0
M  V30 1299 H 124.684 -0.972835 -1.06169 0
M  V30 1300 H 126.637 -0.578649 -4.17408 0
M  V30 1301 H 125.361 0.258556 -3.25575 0
M  V30 1302 H 124.02 -1.87145 -3.15234 0
M  V30 1303 H 123.668 -0.250145 -5.02378 0
M  V30 1304 H 123.368 -1.92492 -5.55176 0
M  V30 1305 H 124.892 -1.10968 -6.00432 0
M  V30 1306 H 126.306 -3.06349 -4.84586 0
M  V30 1307 H 124.703 -3.82333 -4.62538 0
M  V30 1308 H 125.773 -3.61966 -3.22658 0
M  V30 1309 N 127.117 1.15442 -1.07289 0
M  V30 1310 C 128.027 2.23786 -0.704057 0
M  V30 1311 C 129.043 1.7166 0.284413 0
M  V30 1312 O 130.219 2.00972 0.131205 0
M  V30 1313 C 127.284 3.46535 -0.106792 0
M  V30 1314 C 126.345 4.13654 -1.14842 0
M  V30 1315 C 125.578 5.30544 -0.57956 0
M  V30 1316 O 125.801 5.67187 0.604585 0
M  V30 1317 O 124.735 5.87154 -1.32414 0
M  V30 1318 H 128.561 2.57664 -1.60757 0
M  V30 1319 H 126.146 1.23152 -0.845803 0
M  V30 1320 H 128.028 4.20804 0.224048 0
M  V30 1321 H 126.703 3.14407 0.770049 0
M  V30 1322 H 125.61 3.4131 -1.5316 0
M  V30 1323 H 126.943 4.49861 -1.99714 0
M  V30 1324 N 128.595 0.856903 1.32268 0
M  V30 1325 C 129.823 0.475439 2.01363 0
M  V30 1326 C 130.238 -0.928486 1.64392 0
M  V30 1327 O 129.595 -1.60624 0.866387 0
M  V30 1328 C 129.646 0.607545 3.56358 0
M  V30 1329 O 129.367 1.95617 3.92002 0
M  V30 1330 C 130.868 0.225382 4.42727 0
M  V30 1331 H 128.088 0.186636 0.644521 0
M  V30 1332 H 130.632 1.15446 1.68797 0
M  V30 1333 H 128.787 -0.0237719 3.87393 0
M  V30 1334 H 129.201 1.95455 4.86721 0
M  V30 1335 H 130.675 0.368813 5.50767 0
M  V30 1336 H 131.152 -0.834369 4.31202 0
M  V30 1337 H 131.758 0.831864 4.17085 0
M  V30 1338 N 130.073 -1.45103 0.615059 0
M  V30 1339 C 131.02 -2.30586 -0.0993978 0
M  V30 1340 C 131.99 -1.42544 -0.852669 0
M  V30 1341 O 133.175 -1.71465 -0.836917 0
M  V30 1342 C 130.315 -3.27572 -1.08583 0
M  V30 1343 C 129.428 -4.30717 -0.332656 0
M  V30 1344 C 128.563 -5.14807 -1.30947 0
M  V30 1345 C 127.602 -6.09673 -0.544538 0
M  V30 1346 N 126.739 -6.86517 -1.47101 0
M  V30 1347 H 131.579 -2.91144 0.635542 0
M  V30 1348 H 129.116 -1.4346 0.325206 0
M  V30 1349 H 131.074 -3.82276 -1.67095 0
M  V30 1350 H 129.704 -2.68751 -1.78809 0
M  V30 1351 H 128.756 -3.78615 0.368107 0
M  V30 1352 H 130.068 -4.98102 0.263842 0
M  V30 1353 H 129.222 -5.73948 -1.96643 0
M  V30 1354 H 127.961 -4.47458 -1.9399 0
M  V30 1355 H 126.966 -5.49656 0.126003 0
M  V30 1356 H 128.191 -6.79052 0.080947 0
M  V30 1357 H 126.137 -6.21851 -2.08895 0
M  V30 1358 H 126.054 -7.50281 -0.928137 0
M  V30 1359 H 127.322 -7.50194 -2.11731 0
M  V30 1360 N 131.551 -0.354651 -1.53558 0
M  V30 1361 C 132.799 0.237972 -2.00694 0
M  V30 1362 C 133.12 1.50173 -1.24391 0
M  V30 1363 O 132.39 1.92673 -0.354135 0
M  V30 1364 H 130.97 0.0909256 -0.741446 0
M  V30 1365 H 133.632 -0.478368 -1.88938 0
M  V30 1366 H 132.728 0.47264 -3.085 0
M  V30 1367 N 133.029 1.57378 -0.0835403 0
M  V30 1368 C 133.977 2.14602 0.89714 0
M  V30 1369 C 134.971 1.08589 1.30018 0
M  V30 1370 O 136.177 1.26952 1.27606 0
M  V30 1371 H 132.552 0.686346 0.3073 0
M  V30 1372 H 134.523 2.95845 0.38969 0
M  V30 1373 C 133.272 2.73188 2.15089 0
M  V30 1374 H 132.595 3.54442 1.84962 0
M  V30 1375 H 134.035 3.1681 2.81793 0
M  V30 1376 C 132.494 1.68517 2.91725 0
M  V30 1377 O 133.024 1.11718 3.85852 0
M  V30 1378 N 131.23 1.39277 2.55049 0
M  V30 1379 H 130.777 1.85655 1.78577 0
M  V30 1380 H 130.735 0.694791 3.06627 0
M  V30 1381 N 134.507 -0.190092 1.56449 0
M  V30 1382 C 135.753 -0.911052 1.81184 0
M  V30 1383 C 136.086 -1.82699 0.658396 0
M  V30 1384 O 135.361 -1.91491 -0.340775 0
M  V30 1385 C 135.644 -1.72297 3.16205 0
M  V30 1386 C 135.497 -0.831419 4.42049 0
M  V30 1387 C 136.816 -2.69454 3.47969 0
M  V30 1388 H 133.935 -0.32977 0.659106 0
M  V30 1389 H 136.577 -0.178169 1.89163 0
M  V30 1390 H 134.727 -2.34778 3.09534 0
M  V30 1391 H 136.399 -0.220929 4.60771 0
M  V30 1392 H 134.642 -0.138406 4.33579 0
M  V30 1393 H 135.313 -1.43461 5.33032 0
M  V30 1394 H 137.789 -2.17104 3.54972 0
M  V30 1395 H 136.665 -3.23342 4.43555 0
M  V30 1396 H 136.926 -3.48744 2.71717 0
M  V30 1397 N 135.985 -1.50799 -0.457987 0
M  V30 1398 C 136.895 -1.73426 -1.57989 0
M  V30 1399 C 137.911 -0.617745 -1.62665 0
M  V30 1400 O 139.087 -0.897614 -1.80291 0
M  V30 1401 C 136.152 -1.83557 -2.94122 0
M  V30 1402 C 135.213 -3.07345 -2.99729 0
M  V30 1403 C 134.446 -3.16983 -4.29368 0
M  V30 1404 O 134.669 -2.33077 -5.20607 0
M  V30 1405 O 133.603 -4.09812 -4.40837 0
M  V30 1406 H 137.429 -2.68555 -1.41817 0
M  V30 1407 H 135.014 -1.35052 -0.638859 0
M  V30 1408 H 136.896 -1.92326 -3.74952 0
M  V30 1409 H 135.571 -0.916137 -3.10465 0
M  V30 1410 H 134.478 -3.04068 -2.1793 0
M  V30 1411 H 135.811 -3.9891 -2.88326 0
M  V30 1412 N 137.463 0.71206 -1.40597 0
M  V30 1413 C 138.411 1.84746 -1.41321 0
M  V30 1414 C 139.405 1.66842 -0.293268 0
M  V30 1415 O 140.611 1.73904 -0.464481 0
M  V30 1416 H 136.986 0.608522 -0.441819 0
M  V30 1417 H 138.957 1.81252 -2.37045 0
M  V30 1418 C 137.706 3.22638 -1.29614 0
M  V30 1419 H 137.029 3.37023 -2.15071 0
M  V30 1420 H 138.469 4.02209 -1.3418 0
M  V30 1421 C 136.928 3.36899 -0.00673121 0
M  V30 1422 O 137.458 3.90186 0.954859 0
M  V30 1423 N 135.664 2.9053 0.0639327 0
M  V30 1424 H 135.211 2.47353 -0.719311 0
M  V30 1425 H 135.169 3.0045 0.926118 0
M  V30 1426 N 138.941 1.26152 0.944643 0
M  V30 1427 C 140.189 1.11271 1.6871 0
M  V30 1428 C 140.51 -0.345166 1.91921 0
M  V30 1429 O 139.78 -1.24387 1.51343 0
M  V30 1430 H 138.36 0.408783 0.625224 0
M  V30 1431 H 141.022 1.58427 1.1352 0
M  V30 1432 H 140.118 1.62879 2.66227 0
M  V30 1433 N 140.419 -1.14872 1.07899 0
M  V30 1434 C 141.665 -1.86064 0.806725 0
M  V30 1435 C 141.998 -1.82434 -0.665706 0
M  V30 1436 O 141.273 -1.25138 -1.48899 0
M  V30 1437 C 141.556 -3.34929 1.32267 0
M  V30 1438 C 141.409 -3.47161 2.86006 0
M  V30 1439 C 142.728 -4.29863 0.943717 0
M  V30 1440 H 139.847 -0.675591 0.294526 0
M  V30 1441 H 142.489 -1.34925 1.33773 0
M  V30 1442 H 140.639 -3.78611 0.870974 0
M  V30 1443 H 142.311 -3.12302 3.39507 0
M  V30 1444 H 140.554 -2.88539 3.23925 0
M  V30 1445 H 141.225 -4.51777 3.17177 0
M  V30 1446 H 143.701 -3.9417 1.33302 0
M  V30 1447 H 142.577 -5.32494 1.33198 0
M  V30 1448 H 142.838 -4.41846 -0.149796 0
M  V30 1449 N 141.898 -0.863906 -1.31812 0
M  V30 1450 C 142.828 -0.330843 -2.31144 0
M  V30 1451 C 143.809 0.575005 -1.60087 0
M  V30 1452 O 144.994 0.493304 -1.8783 0
M  V30 1453 C 142.124 0.47374 -3.44054 0
M  V30 1454 C 141.078 -0.338481 -4.26659 0
M  V30 1455 C 140.404 0.591412 -5.31419 0
M  V30 1456 C 141.704 -1.56926 -4.98168 0
M  V30 1457 H 143.398 -1.16086 -2.75979 0
M  V30 1458 H 140.944 -0.559657 -1.32679 0
M  V30 1459 H 142.897 0.857143 -4.12591 0
M  V30 1460 H 141.621 1.33721 -2.9797 0
M  V30 1461 H 140.28 -0.703754 -3.59782 0
M  V30 1462 H 139.928 1.45199 -4.81587 0
M  V30 1463 H 139.628 0.0519022 -5.87577 0
M  V30 1464 H 141.152 0.97179 -6.02817 0
M  V30 1465 H 142.566 -1.25764 -5.59336 0
M  V30 1466 H 140.963 -2.04739 -5.64094 0
M  V30 1467 H 142.033 -2.32544 -4.25501 0
M  V30 1468 N 143.376 1.44774 -0.622745 0
M  V30 1469 C 144.323 2.30635 0.0871679 0
M  V30 1470 C 145.293 1.42994 0.845097 0
M  V30 1471 O 146.478 1.71907 0.827812 0
M  V30 1472 C 143.618 3.28144 1.06844 0
M  V30 1473 C 142.731 4.30888 0.309809 0
M  V30 1474 C 141.866 5.15494 1.28215 0
M  V30 1475 C 140.905 6.09953 0.512198 0
M  V30 1476 N 140.042 6.87287 1.43458 0
M  V30 1477 H 144.882 2.90803 -0.650974 0
M  V30 1478 H 142.419 1.43286 -0.33281 0
M  V30 1479 H 144.377 3.83157 1.65066 0
M  V30 1480 H 143.007 2.69695 1.77382 0
M  V30 1481 H 142.059 3.78414 -0.388181 0
M  V30 1482 H 143.371 4.97955 -0.290254 0
M  V30 1483 H 142.525 5.74983 1.93596 0
M  V30 1484 H 141.264 4.48481 1.91614 0
M  V30 1485 H 140.269 5.49581 -0.155151 0
M  V30 1486 H 141.494 6.78999 -0.116958 0
M  V30 1487 H 139.44 6.2295 2.05594 0
M  V30 1488 H 139.357 7.50763 0.888335 0
M  V30 1489 H 140.625 7.51306 2.07749 0
M  V30 1490 N 144.854 0.36279 1.53368 0
M  V30 1491 C 146.102 -0.227326 2.00817 0
M  V30 1492 C 146.423 -1.49511 1.25186 0
M  V30 1493 O 145.693 -1.92482 0.364348 0
M  V30 1494 H 144.273 -0.0869923 0.741917 0
M  V30 1495 H 146.935 0.488381 1.88682 0
M  V30 1496 H 146.031 -0.456273 3.08747 0
M  V30 1497 N 146.332 -1.57332 0.0918853 0
M  V30 1498 C 147.609 -1.85691 -0.614668 0
M  V30 1499 C 147.989 -0.988146 -1.86545 0
M  V30 1500 O 147.337 -0.0597055 -2.28422 0
M  V30 1501 C 147.547 -3.36294 -0.933126 0
M  V30 1502 C 148.895 -4.04275 -1.29796 0
M  V30 1503 O 149.919 -3.41157 -1.02424 0
M  V30 1504 O 148.778 -5.1564 -1.81047 0
M  V30 1505 H 145.872 -0.767802 -0.307261 0
M  V30 1506 H 148.418 -1.69244 0.12434 0
M  V30 1507 H 147.19 -3.91273 -0.0456404 0
M  V30 1508 H 146.813 -3.58076 -1.72822 0
M  V30 1509 N 147.81 0.181792 -1.56548 0
M  V30 1510 C 148.74 1.22765 -1.98623 0
M  V30 1511 C 149.721 1.46747 -0.860189 0
M  V30 1512 O 150.906 1.58259 -1.12551 0
M  V30 1513 C 148.036 2.56894 -2.33715 0
M  V30 1514 C 146.99 2.475 -3.49182 0
M  V30 1515 C 146.316 3.86023 -3.69986 0
M  V30 1516 C 147.616 1.98866 -4.82959 0
M  V30 1517 H 149.31 0.877942 -2.86239 0
M  V30 1518 H 146.856 0.42088 -1.37712 0
M  V30 1519 H 148.809 3.30253 -2.61746 0
M  V30 1520 H 147.533 2.93632 -1.42997 0
M  V30 1521 H 146.192 1.76596 -3.21262 0
M  V30 1522 H 145.84 4.20136 -2.76576 0
M  V30 1523 H 145.54 3.80609 -4.47672 0
M  V30 1524 H 147.064 4.60984 -4.00407 0
M  V30 1525 H 148.478 2.61992 -5.09934 0
M  V30 1526 H 146.875 2.04424 -5.64208 0
M  V30 1527 H 147.945 0.942465 -4.75653 0
M  V30 1528 N 149.288 1.51039 0.449983 0
M  V30 1529 C 150.534 1.63322 1.20223 0
M  V30 1530 C 150.867 0.34241 1.91158 0
M  V30 1531 O 150.142 -0.657344 1.83055 0
M  V30 1532 C 150.425 2.82801 2.22925 0
M  V30 1533 C 150.278 4.21823 1.56157 0
M  V30 1534 C 151.597 2.97807 3.24035 0
M  V30 1535 H 148.716 0.594407 0.435718 0
M  V30 1536 H 151.358 1.83489 0.493136 0
M  V30 1537 H 149.508 2.65738 2.834 0
M  V30 1538 H 151.18 4.50526 0.991162 0
M  V30 1539 H 149.423 4.25105 0.864172 0
M  V30 1540 H 150.094 5.01391 2.30891 0
M  V30 1541 H 152.57 3.13497 2.73603 0
M  V30 1542 H 151.446 3.82992 3.93202 0
M  V30 1543 H 151.707 2.09328 3.89402 0
M  V30 1544 N 150.766 -0.704594 1.40972 0
M  V30 1545 C 151.729 -1.80035 1.41845 0
M  V30 1546 C 152.729 -1.57774 0.310474 0
M  V30 1547 O 153.919 -1.64613 0.56992 0
M  V30 1548 C 151.051 -3.18284 1.22098 0
M  V30 1549 H 152.244 -1.80658 2.3938 0
M  V30 1550 H 149.797 -0.911329 1.26982 0
M  V30 1551 H 150.532 -3.23306 0.253672 0
M  V30 1552 H 150.317 -3.35843 2.02366 0
M  V30 1553 H 151.807 -3.98289 1.25522 0
M  V30 1554 N 152.244 -1.26651 -0.937939 0
M  V30 1555 C 153.66 -1.03834 -1.21205 0
M  V30 1556 C 153.86 0.234502 -2.00131 0
M  V30 1557 O 152.916 0.942767 -2.3424 0
M  V30 1558 C 154.229 -2.27167 -1.97017 0
M  V30 1559 C 155.777 -2.32101 -2.09996 0
M  V30 1560 C 156.252 -3.55136 -2.8921 0
M  V30 1561 N 157.743 -3.55632 -2.96783 0
M  V30 1562 C 158.478 -4.475 -3.58512 0
M  V30 1563 N 157.974 -5.4966 -4.21717 0
M  V30 1564 N 159.767 -4.35145 -3.55816 0
M  V30 1565 H 151.918 -2.08398 -0.410391 0
M  V30 1566 H 154.181 -0.916031 -0.244114 0
M  V30 1567 H 153.887 -3.19765 -1.46434 0
M  V30 1568 H 153.761 -2.31672 -2.97671 0
M  V30 1569 H 156.148 -1.40015 -2.59769 0
M  V30 1570 H 156.229 -2.31605 -1.08594 0
M  V30 1571 H 155.873 -4.47553 -2.40123 0
M  V30 1572 H 155.803 -3.5288 -3.90875 0
M  V30 1573 H 158.294 -2.81743 -2.51852 0
M  V30 1574 H 158.607 -6.15943 -4.66727 0
M  V30 1575 H 156.952 -5.53514 -4.20294 0
M  V30 1576 H 160.143 -3.5455 -3.05634 0
M  V30 1577 H 160.316 -5.06934 -4.03636 0
M  V30 1578 N 153.722 1.14298 -1.08507 0
M  V30 1579 C 154.969 1.85359 -0.815373 0
M  V30 1580 C 155.297 1.83001 0.658865 0
M  V30 1581 O 154.552 1.25655 1.50031 0
M  V30 1582 C 154.851 3.33547 -1.28379 0
M  V30 1583 C 154.517 3.56093 -2.76602 0
M  V30 1584 C 153.179 3.61955 -3.17084 0
M  V30 1585 C 155.531 3.64834 -3.72217 0
M  V30 1586 C 152.859 3.74082 -4.51973 0
M  V30 1587 C 155.211 3.78487 -5.06883 0
M  V30 1588 C 153.875 3.82598 -5.46969 0
M  V30 1589 H 153.145 0.678276 -0.298366 0
M  V30 1590 H 155.792 1.35002 -1.35819 0
M  V30 1591 H 154.097 3.86191 -0.660593 0
M  V30 1592 H 155.794 3.86959 -1.05186 0
M  V30 1593 H 152.384 3.52179 -2.4427 0
M  V30 1594 H 156.568 3.59595 -3.42061 0
M  V30 1595 H 151.824 3.75527 -4.82483 0
M  V30 1596 H 155.998 3.84193 -5.80834 0
M  V30 1597 H 153.625 3.91747 -6.51489 0
M  V30 1598 N 155.201 0.870884 1.31352 0
M  V30 1599 C 156.449 0.48132 1.96285 0
M  V30 1600 C 156.77 -0.969813 1.69173 0
M  V30 1601 O 156.04 -1.67998 1.00764 0
M  V30 1602 H 154.62 0.175002 0.726212 0
M  V30 1603 H 157.282 1.11087 1.60143 0
M  V30 1604 H 156.378 0.639825 3.05471 0
M  V30 1605 N 156.679 -1.44442 0.630414 0
M  V30 1606 C 157.642 -2.29107 -0.0652523 0
M  V30 1607 C 158.642 -1.41002 -0.772995 0
M  V30 1608 O 159.832 -1.62881 -0.617692 0
M  V30 1609 C 156.964 -3.22564 -1.10296 0
M  V30 1610 H 158.157 -2.92103 0.679401 0
M  V30 1611 H 155.71 -1.51343 0.390517 0
M  V30 1612 H 156.445 -2.64416 -1.87762 0
M  V30 1613 H 156.23 -3.87491 -0.59941 0
M  V30 1614 H 157.72 -3.86167 -1.5895 0
M  V30 1615 N 158.157 -0.370918 -1.53173 0
M  V30 1616 C 159.434 0.273754 -1.93675 0
M  V30 1617 C 159.814 1.65938 -1.3049 0
M  V30 1618 O 159.162 2.23698 -0.465999 0
M  V30 1619 C 159.372 0.318602 -3.47543 0
M  V30 1620 C 160.72 0.556392 -4.20939 0
M  V30 1621 O 161.744 0.399587 -3.53952 0
M  V30 1622 O 160.603 0.862133 -5.39657 0
M  V30 1623 H 157.697 0.165448 -0.810281 0
M  V30 1624 H 160.243 -0.42409 -1.64315 0
M  V30 1625 H 159.015 -0.652687 -3.85818 0
M  V30 1626 H 158.638 1.06212 -3.83151 0
M  V30 1627 N 159.635 1.57281 -0.100228 0
M  V30 1628 C 161.046 1.81725 0.428107 0
M  V30 1629 C 161.397 1.01619 1.67833 0
M  V30 1630 O 160.522 0.247098 2.14985 0
M  V30 1631 C 161.117 3.29617 0.78347 0
M  V30 1632 C 159.676 3.54808 1.25653 0
M  V30 1633 C 158.823 2.76118 0.255752 0
M  V30 1634 H 161.774 1.55324 -0.325608 0
M  V30 1635 H 161.795 3.4322 1.64256 0
M  V30 1636 H 161.307 3.87893 -0.12665 0
M  V30 1637 H 159.408 3.01868 2.18418 0
M  V30 1638 H 159.521 4.63443 1.21482 0
M  V30 1639 H 157.885 2.43745 0.738956 0
M  V30 1640 H 158.668 3.37145 -0.647136 0
M  V30 1641 N 161.113 -0.173488 1.56642 0
M  V30 1642 C 162.341 -0.906095 1.86004 0
M  V30 1643 C 162.756 -1.75921 0.685355 0
M  V30 1644 O 162.113 -1.79198 -0.345578 0
M  V30 1645 C 162.164 -1.78462 3.14378 0
M  V30 1646 O 161.885 -0.965914 4.27319 0
M  V30 1647 C 163.386 -2.62707 3.57071 0
M  V30 1648 H 160.606 -0.263341 0.617165 0
M  V30 1649 H 163.15 -0.174236 2.03756 0
M  V30 1650 H 161.305 -2.46984 2.98459 0
M  V30 1651 H 161.719 -1.56655 5.00559 0
M  V30 1652 H 163.193 -3.19969 4.49804 0
M  V30 1653 H 163.67 -3.37472 2.81086 0
M  V30 1654 H 164.276 -1.99521 3.75595 0
M  V30 1655 N 162.591 -1.51276 -0.441967 0
M  V30 1656 C 163.521 -1.752 -1.54361 0
M  V30 1657 C 164.502 -0.601682 -1.59103 0
M  V30 1658 O 165.687 -0.843913 -1.74905 0
M  V30 1659 C 162.817 -1.87282 -2.92477 0
M  V30 1660 C 161.771 -3.02687 -3.02596 0
M  V30 1661 C 161.097 -2.99947 -4.42647 0
M  V30 1662 C 162.397 -4.4273 -2.77106 0
M  V30 1663 H 164.091 -2.67442 -1.34592 0
M  V30 1664 H 161.637 -1.28694 -0.646048 0
M  V30 1665 H 163.59 -2.02602 -3.695 0
M  V30 1666 H 162.314 -0.916844 -3.13467 0
M  V30 1667 H 160.973 -2.87065 -2.28012 0
M  V30 1668 H 160.621 -2.02136 -4.60597 0
M  V30 1669 H 160.321 -3.77439 -4.50348 0
M  V30 1670 H 161.845 -3.17354 -5.2165 0
M  V30 1671 H 163.259 -4.58727 -3.43864 0
M  V30 1672 H 161.656 -5.21893 -2.96222 0
M  V30 1673 H 162.726 -4.53087 -1.72744 0
M  V30 1674 N 164.069 0.697108 -1.41344 0
M  V30 1675 C 165.016 1.81106 -1.43071 0
M  V30 1676 C 165.986 1.63632 -0.285275 0
M  V30 1677 O 167.171 1.84504 -0.486091 0
M  V30 1678 C 164.311 3.18975 -1.31715 0
M  V30 1679 C 163.424 3.47892 -2.56115 0
M  V30 1680 C 162.559 4.75367 -2.37064 0
M  V30 1681 C 161.598 4.97247 -3.56948 0
M  V30 1682 N 160.735 6.15947 -3.36977 0
M  V30 1683 H 165.575 1.78965 -2.38276 0
M  V30 1684 H 163.112 0.873975 -1.18322 0
M  V30 1685 H 165.07 3.98615 -1.23133 0
M  V30 1686 H 163.7 3.20297 -0.401183 0
M  V30 1687 H 162.752 2.62669 -2.75153 0
M  V30 1688 H 164.064 3.59962 -3.45295 0
M  V30 1689 H 163.218 5.63059 -2.25941 0
M  V30 1690 H 161.957 4.65541 -1.45338 0
M  V30 1691 H 160.962 4.08004 -3.68527 0
M  V30 1692 H 162.187 5.08934 -4.49626 0
M  V30 1693 H 160.133 6.07336 -2.47949 0
M  V30 1694 H 160.05 6.28777 -4.19732 0
M  V30 1695 H 161.318 7.06377 -3.29623 0
M  V30 1696 N 165.547 1.27147 0.931209 0
M  V30 1697 C 166.963 1.04475 1.20653 0
M  V30 1698 C 167.163 -0.223885 2.00252 0
M  V30 1699 O 166.219 -0.930332 2.34736 0
M  V30 1700 C 167.532 2.28209 1.95809 0
M  V30 1701 C 169.08 2.33211 2.08762 0
M  V30 1702 C 169.555 3.56665 2.87323 0
M  V30 1703 N 171.046 3.57201 2.94892 0
M  V30 1704 C 171.781 4.49395 3.56134 0
M  V30 1705 N 171.277 5.51889 4.18796 0
M  V30 1706 N 173.07 4.37026 3.53504 0
M  V30 1707 H 165.221 2.08612 0.399333 0
M  V30 1708 H 167.484 0.917312 0.239253 0
M  V30 1709 H 167.19 3.20538 1.44736 0
M  V30 1710 H 167.064 2.33247 2.96438 0
M  V30 1711 H 169.451 1.41391 2.59023 0
M  V30 1712 H 169.532 2.32178 1.07364 0
M  V30 1713 H 169.176 4.4882 2.37746 0
M  V30 1714 H 169.106 3.54948 3.88998 0
M  V30 1715 H 171.597 2.83074 2.50354 0
M  V30 1716 H 171.91 6.18409 4.63454 0
M  V30 1717 H 170.255 5.55735 4.17353 0
M  V30 1718 H 173.446 3.56166 3.03749 0
M  V30 1719 H 173.619 5.09067 4.00942 0
M  V30 1720 N 167.025 -1.13721 1.09112 0
M  V30 1721 C 167.957 -2.1871 0.685467 0
M  V30 1722 C 168.97 -1.60527 -0.271068 0
M  V30 1723 O 170.159 -1.78407 -0.0576148 0
M  V30 1724 C 167.259 -3.38898 -0.0111255 0
M  V30 1725 C 166.432 -4.26597 0.966131 0
M  V30 1726 C 165.491 -5.25324 0.303539 0
M  V30 1727 O 164.517 -5.61213 0.950177 0
M  V30 1728 N 165.719 -5.72779 -0.943651 0
M  V30 1729 H 168.484 -2.54126 1.58871 0
M  V30 1730 H 166.045 -1.29012 0.978143 0
M  V30 1731 H 168.037 -4.02014 -0.465517 0
M  V30 1732 H 166.607 -3.01747 -0.816565 0
M  V30 1733 H 165.827 -3.60306 1.59917 0
M  V30 1734 H 167.115 -4.82048 1.6281 0
M  V30 1735 H 166.513 -5.45762 -1.48862 0
M  V30 1736 H 165.07 -6.37847 -1.34142 0
M  V30 1737 N 168.503 -0.877838 -1.30888 0
M  V30 1738 C 169.78 -0.413052 -1.91189 0
M  V30 1739 C 170.16 1.1056 -1.79832 0
M  V30 1740 O 169.508 1.93771 -1.21099 0
M  V30 1741 C 169.718 -0.903191 -3.3711 0
M  V30 1742 C 171.066 -0.93395 -4.14201 0
M  V30 1743 O 172.09 -0.849373 -3.45925 0
M  V30 1744 O 170.949 -1.05772 -5.36167 0
M  V30 1745 H 168.043 -0.125035 -0.817493 0
M  V30 1746 H 170.589 -0.966269 -1.39504 0
M  V30 1747 H 169.361 -1.94692 -3.39427 0
M  V30 1748 H 168.984 -0.328732 -3.96239 0
M  V30 1749 N 169.982 1.44106 -0.638065 0
M  V30 1750 C 171.231 2.01194 -0.142744 0
M  V30 1751 C 171.544 1.50835 1.24532 0
M  V30 1752 O 172.75 2.00096 1.83504 0
M  V30 1753 C 171.206 3.59319 -0.20442 0
M  V30 1754 C 170.814 4.18674 -1.59423 0
M  V30 1755 C 172.558 4.23854 0.234079 0
M  V30 1756 C 170.465 5.69045 -1.61065 0
M  V30 1757 H 169.395 0.752367 -0.0495998 0
M  V30 1758 H 172.046 1.65246 -0.797881 0
M  V30 1759 H 170.428 3.92598 0.517946 0
M  V30 1760 H 171.602 3.96921 -2.34074 0
M  V30 1761 H 169.917 3.66453 -1.97741 0
M  V30 1762 H 172.514 5.34155 0.241443 0
M  V30 1763 H 172.857 3.96688 1.2627 0
M  V30 1764 H 173.39 3.95403 -0.436025 0
M  V30 1765 H 170.129 6.00956 -2.61787 0
M  V30 1766 H 169.649 5.929 -0.90718 0
M  V30 1767 H 171.328 6.32809 -1.34766 0
M  V30 1768 N 171.46 0.379036 1.52974 0
M  V30 1769 C 172.876 0.0285448 1.59574 0
M  V30 1770 C 173.076 -1.45542 1.39355 0
M  V30 1771 O 172.132 -2.2187 1.20541 0
M  V30 1772 C 173.445 0.496535 2.96572 0
M  V30 1773 C 174.993 0.451909 3.0972 0
M  V30 1774 C 175.468 0.895924 4.49152 0
M  V30 1775 N 176.959 0.851522 4.55306 0
M  V30 1776 C 177.694 1.16661 5.61407 0
M  V30 1777 N 177.19 1.55166 6.752 0
M  V30 1778 N 178.983 1.08853 5.51459 0
M  V30 1779 H 171.134 1.34525 1.64367 0
M  V30 1780 H 173.397 0.550733 0.771619 0
M  V30 1781 H 173.103 1.53258 3.16552 0
M  V30 1782 H 172.977 -0.109802 3.7704 0
M  V30 1783 H 175.364 -0.575029 2.89443 0
M  V30 1784 H 175.445 1.09392 2.3123 0
M  V30 1785 H 175.089 1.92104 4.70168 0
M  V30 1786 H 175.019 0.23103 5.26093 0
M  V30 1787 H 177.51 0.568038 3.73606 0
M  V30 1788 H 177.823 1.776 7.52116 0
M  V30 1789 H 176.168 1.59044 6.76557 0
M  V30 1790 H 179.359 0.786803 4.6144 0
M  V30 1791 H 179.532 1.33742 6.34048 0
M  V30 1792 N 172.938 -1.57226 0.108567 0
M  V30 1793 C 173.886 -2.16002 -0.862885 0
M  V30 1794 C 174.88 -1.10644 -1.28274 0
M  V30 1795 O 176.086 -1.28966 -1.2557 0
M  V30 1796 H 172.461 -0.691148 -0.296342 0
M  V30 1797 H 174.432 -2.96427 -0.342575 0
M  V30 1798 C 173.181 -2.76576 -2.10716 0
M  V30 1799 H 172.504 -3.5734 -1.793 0
M  V30 1800 H 173.944 -3.21253 -2.76717 0
M  V30 1801 C 172.403 -1.73137 -2.89007 0
M  V30 1802 O 172.933 -1.17842 -3.84026 0
M  V30 1803 N 171.139 -1.43317 -2.52801 0
M  V30 1804 H 170.686 -1.88473 -1.75601 0
M  V30 1805 H 170.644 -0.743485 -3.05483 0
M  V30 1806 N 174.416 0.165178 -1.56732 0
M  V30 1807 C 175.349 1.23336 -1.91998 0
M  V30 1808 C 176.327 1.42476 -0.783531 0
M  V30 1809 O 177.511 1.57384 -1.03743 0
M  V30 1810 C 174.638 2.59533 -2.17625 0
M  V30 1811 C 173.684 2.57093 -3.40302 0
M  V30 1812 S 174.517 2.05571 -4.9447 0
M  V30 1813 C 175.673 3.43532 -5.23198 0
M  V30 1814 H 175.906 0.932387 -2.82301 0
M  V30 1815 H 173.439 0.370013 -1.49901 0
M  V30 1816 H 175.397 3.37918 -2.3307 0
M  V30 1817 H 174.058 2.86827 -1.28019 0
M  V30 1818 H 173.251 3.57308 -3.55453 0
M  V30 1819 H 172.853 1.86806 -3.24005 0
M  V30 1820 H 175.145 4.39559 -5.15552 0
M  V30 1821 H 176.088 3.33251 -6.2478 0
M  V30 1822 H 176.496 3.39828 -4.50752 0
M  V30 1823 N 175.894 1.51508 0.433938 0
M  V30 1824 C 177.14 1.64588 1.18484 0
M  V30 1825 C 177.473 0.362666 1.90784 0
M  V30 1826 O 176.748 -0.637892 1.83742 0
M  V30 1827 C 177.031 2.85149 2.19913 0
M  V30 1828 C 176.884 4.23456 1.51674 0
M  V30 1829 C 178.203 3.01227 3.20858 0
M  V30 1830 H 175.322 0.598994 0.429389 0
M  V30 1831 H 177.964 1.84002 0.473647 0
M  V30 1832 H 176.114 2.68729 2.80566 0
M  V30 1833 H 177.786 4.51552 0.943322 0
M  V30 1834 H 176.029 4.25998 0.819035 0
M  V30 1835 H 176.7 5.03812 2.2556 0
M  V30 1836 H 179.176 3.16382 2.70263 0
M  V30 1837 H 178.052 3.87141 3.89118 0
M  V30 1838 H 178.313 2.13447 3.8716 0
M  V30 1839 N 177.372 -0.689602 1.41712 0
M  V30 1840 C 178.335 -1.78521 1.43746 0
M  V30 1841 C 179.335 -1.57436 0.327191 0
M  V30 1842 O 180.525 -1.64 0.587348 0
M  V30 1843 C 177.657 -3.16971 1.25467 0
M  V30 1844 H 178.85 -1.78108 2.41283 0
M  V30 1845 H 176.403 -0.89781 1.27942 0
M  V30 1846 H 177.138 -3.23019 0.287948 0
M  V30 1847 H 176.923 -3.33678 2.05917 0
M  V30 1848 H 178.413 -3.96935 1.2974 0
M  V30 1849 N 178.85 -1.27639 -0.924453 0
M  V30 1850 C 180.078 -1.16989 -1.70649 0
M  V30 1851 C 180.493 0.272869 -1.86818 0
M  V30 1852 O 179.85 1.18549 -1.38753 0
M  V30 1853 C 179.901 -1.85229 -3.10439 0
M  V30 1854 O 179.622 -3.23868 -2.95028 0
M  V30 1855 C 181.123 -1.80746 -4.04779 0
M  V30 1856 H 178.343 -0.406595 -0.53378 0
M  V30 1857 H 180.887 -1.68569 -1.15778 0
M  V30 1858 H 179.042 -1.37545 -3.6216 0
M  V30 1859 H 179.456 -3.57889 -3.83426 0
M  V30 1860 H 180.93 -2.33101 -5.00368 0
M  V30 1861 H 181.407 -0.777499 -4.32263 0
M  V30 1862 H 182.013 -2.28059 -3.58984 0
M  V30 1863 N 180.328 1.1314 -1.09713 0
M  V30 1864 C 181.258 2.20748 -0.761102 0
M  V30 1865 C 182.239 1.68061 0.262566 0
M  V30 1866 O 183.424 1.93765 0.129977 0
M  V30 1867 C 180.554 3.46812 -0.184054 0
M  V30 1868 C 179.508 4.12606 -1.13757 0
M  V30 1869 C 178.834 5.33031 -0.422083 0
M  V30 1870 C 180.134 4.59603 -2.48118 0
M  V30 1871 H 181.828 2.49113 -1.66082 0
M  V30 1872 H 179.374 1.19734 -0.799987 0
M  V30 1873 H 181.327 4.21353 0.0631215 0
M  V30 1874 H 180.051 3.17851 0.750868 0
M  V30 1875 H 178.71 3.40036 -1.37007 0
M  V30 1876 H 178.358 5.00335 0.517072 0
M  V30 1877 H 178.058 5.77999 -1.05788 0
M  V30 1878 H 179.582 6.10325 -0.183277 0
M  V30 1879 H 180.996 5.25552 -2.29059 0
M  V30 1880 H 179.393 5.15321 -3.07514 0
M  V30 1881 H 180.463 3.73971 -3.08665 0
M  V30 1882 N 181.806 0.884767 1.30421 0
M  V30 1883 C 182.753 0.349642 2.28136 0
M  V30 1884 C 183.723 -0.560061 1.56373 0
M  V30 1885 O 184.908 -0.488524 1.8444 0
M  V30 1886 C 182.048 -0.42999 3.42411 0
M  V30 1887 C 181.161 0.508907 4.28992 0
M  V30 1888 C 180.296 -0.286301 5.30428 0
M  V30 1889 C 179.335 0.648079 6.08659 0
M  V30 1890 N 178.472 -0.111792 7.02011 0
M  V30 1891 H 183.312 1.18807 2.73293 0
M  V30 1892 H 180.849 0.597231 1.3443 0
M  V30 1893 H 182.807 -0.897923 4.07423 0
M  V30 1894 H 181.437 -1.23299 2.98324 0
M  V30 1895 H 180.489 1.09533 3.64289 0
M  V30 1896 H 181.801 1.22475 4.8353 0
M  V30 1897 H 180.955 -0.816098 6.01186 0
M  V30 1898 H 179.694 -1.03536 4.76583 0
M  V30 1899 H 178.699 1.18951 5.36778 0
M  V30 1900 H 179.924 1.39623 6.64592 0
M  V30 1901 H 177.87 -0.843395 6.50556 0
M  V30 1902 H 177.787 0.544429 7.54037 0
M  V30 1903 H 179.055 -0.622339 7.77012 0
M  V30 1904 N 183.284 -1.43765 0.645699 0
M  V30 1905 C 184.231 -2.30745 -0.0504648 0
M  V30 1906 C 185.201 -1.4432 -0.822241 0
M  V30 1907 O 186.386 -1.73202 -0.800358 0
M  V30 1908 C 183.526 -3.29802 -1.0161 0
M  V30 1909 C 182.639 -4.31326 -0.241219 0
M  V30 1910 C 181.774 -5.17469 -1.19998 0
M  V30 1911 C 180.813 -6.10691 -0.415094 0
M  V30 1912 N 179.95 -6.89483 -1.32506 0
M  V30 1913 H 184.79 -2.8973 0.697155 0
M  V30 1914 H 182.327 -1.42738 0.355563 0
M  V30 1915 H 184.285 -3.85734 -1.58949 0
M  V30 1916 H 182.915 -2.72483 -1.73069 0
M  V30 1917 H 181.967 -3.77749 0.448334 0
M  V30 1918 H 183.279 -4.9743 0.369437 0
M  V30 1919 H 182.433 -5.7799 -1.84424 0
M  V30 1920 H 181.172 -4.51473 -1.84455 0
M  V30 1921 H 180.177 -5.49265 0.242565 0
M  V30 1922 H 181.402 -6.78727 0.224966 0
M  V30 1923 H 179.348 -6.26142 -1.95657 0
M  V30 1924 H 179.265 -7.52081 -0.768783 0
M  V30 1925 H 180.533 -7.54516 -1.9577 0
M  V30 1926 N 184.763 -0.387143 -1.52771 0
M  V30 1927 C 185.988 0.198407 -2.06449 0
M  V30 1928 C 186.413 1.39918 -1.25716 0
M  V30 1929 O 185.771 1.79099 -0.281657 0
M  V30 1930 C 185.819 0.548893 -3.56398 0
M  V30 1931 O 184.923 1.64315 -3.78252 0
M  V30 1932 H 184.264 0.0237731 -0.663574 0
M  V30 1933 H 186.794 -0.553989 -1.96957 0
M  V30 1934 H 186.804 0.813812 -3.99801 0
M  V30 1935 H 185.479 -0.329005 -4.14597 0
M  V30 1936 H 184.056 1.37211 -3.46738 0
M  V30 1937 N 186.241 1.57166 -0.116904 0
M  V30 1938 C 187.489 1.94737 0.540533 0
M  V30 1939 C 187.81 1.00096 1.67349 0
M  V30 1940 O 187.08 0.0568854 1.95817 0
M  V30 1941 H 185.66 0.718981 0.202669 0
M  V30 1942 H 188.322 1.94017 -0.185353 0
M  V30 1943 H 187.418 2.97719 0.936483 0
M  V30 1944 N 187.719 -0.156864 1.56817 0
M  V30 1945 C 188.965 -0.872416 1.83076 0
M  V30 1946 C 189.298 -1.81261 0.697001 0
M  V30 1947 O 188.573 -1.92171 -0.30008 0
M  V30 1948 C 188.856 -1.65551 3.19789 0
M  V30 1949 C 188.709 -0.737467 4.43713 0
M  V30 1950 C 190.028 -2.62012 3.53606 0
M  V30 1951 H 187.147 -0.315715 0.665953 0
M  V30 1952 H 189.789 -0.138004 1.89498 0
M  V30 1953 H 187.939 -2.28159 3.14445 0
M  V30 1954 H 189.611 -0.123143 4.61136 0
M  V30 1955 H 187.854 -0.0464067 4.33775 0
M  V30 1956 H 188.525 -1.32122 5.35955 0
M  V30 1957 H 191.001 -2.09525 3.59497 0
M  V30 1958 H 189.877 -3.13861 4.50314 0
M  V30 1959 H 190.138 -3.42902 2.79053 0
M  V30 1960 N 189.197 -1.51736 -0.425897 0
M  V30 1961 C 190.145 -1.74464 -1.53834 0
M  V30 1962 C 191.139 -0.611241 -1.57988 0
M  V30 1963 O 192.345 -0.792899 -1.61596 0
M  V30 1964 H 188.72 -0.551437 -0.511293 0
M  V30 1965 H 190.691 -2.67694 -1.31843 0
M  V30 1966 C 189.44 -1.8972 -2.91379 0
M  V30 1967 H 188.763 -2.76344 -2.88919 0
M  V30 1968 H 190.203 -2.09629 -3.68553 0
M  V30 1969 C 188.662 -0.65992 -3.30374 0
M  V30 1970 O 189.192 0.180083 -4.01296 0
M  V30 1971 N 187.398 -0.500677 -2.86254 0
M  V30 1972 H 186.945 -1.18532 -2.28709 0
M  V30 1973 H 186.903 0.325903 -3.12706 0
M  V30 1974 N 190.675 0.682077 -1.42076 0
M  V30 1975 C 191.607 1.80755 -1.40926 0
M  V30 1976 C 192.62 1.59833 -0.309398 0
M  V30 1977 O 193.809 1.69087 -0.572014 0
M  V30 1978 C 190.909 3.17744 -1.17865 0
M  V30 1979 C 190.082 3.65578 -2.40149 0
M  V30 1980 C 189.141 4.81277 -2.12742 0
M  V30 1981 O 188.167 4.92197 -2.85887 0
M  V30 1982 N 189.369 5.69474 -1.12602 0
M  V30 1983 H 192.134 1.82229 -2.37935 0
M  V30 1984 H 189.695 0.864903 -1.36861 0
M  V30 1985 H 191.687 3.9279 -0.9746 0
M  V30 1986 H 190.257 3.11214 -0.294068 0
M  V30 1987 H 189.477 2.81291 -2.76169 0
M  V30 1988 H 190.765 3.94278 -3.21593 0
M  V30 1989 H 190.163 5.63297 -0.520899 0
M  V30 1990 H 188.72 6.44363 -0.981842 0
M  V30 1991 N 192.153 1.28127 0.917671 0
M  V30 1992 C 193.402 1.14432 1.66097 0
M  V30 1993 C 193.715 -0.307247 1.93172 0
M  V30 1994 O 194.921 -0.565259 2.65551 0
M  V30 1995 C 193.377 2.00015 2.99202 0
M  V30 1996 C 192.985 3.49889 2.79789 0
M  V30 1997 C 194.729 1.94996 3.77064 0
M  V30 1998 C 192.636 4.27636 4.08511 0
M  V30 1999 H 191.566 0.424662 0.62304 0
M  V30 2000 H 194.217 1.52628 1.01868 0
M  V30 2001 H 192.599 1.54672 3.64544 0
M  V30 2002 H 193.773 4.03162 2.23152 0
M  V30 2003 H 192.088 3.56392 2.15345 0
M  V30 2004 H 194.685 2.50354 4.72469 0
M  V30 2005 H 195.028 0.925819 4.05875 0
M  V30 2006 H 195.561 2.38287 3.18534 0
M  V30 2007 H 192.3 5.30615 3.84874 0
M  V30 2008 H 191.82 3.79137 4.64774 0
M  V30 2009 H 193.499 4.37346 4.76799 0
M  V30 2010 N 193.631 -1.12557 1.10312 0
M  V30 2011 C 194.908 -1.80363 0.756878 0
M  V30 2012 C 195.288 -1.97067 -0.756824 0
M  V30 2013 O 194.636 -1.54601 -1.68259 0
M  V30 2014 C 194.846 -3.14812 1.50647 0
M  V30 2015 C 196.194 -3.90029 1.67817 0
M  V30 2016 O 197.218 -3.24464 1.46974 0
M  V30 2017 O 196.077 -5.07652 2.02365 0
M  V30 2018 H 193.171 -0.780667 0.272926 0
M  V30 2019 H 195.717 -1.19404 1.20586 0
M  V30 2020 H 194.489 -2.97936 2.53672 0
M  V30 2021 H 194.112 -3.83478 1.05026 0
M  V30 2022 N 195.109 -0.891671 -1.2995 0
M  V30 2023 C 196.357 -0.512486 -1.95494 0
M  V30 2024 C 196.678 0.942776 -1.70695 0
M  V30 2025 O 195.948 1.66374 -1.03424 0
M  V30 2026 H 194.528 -0.186533 -0.723336 0
M  V30 2027 H 197.19 -1.13621 -1.58355 0
M  V30 2028 H 196.286 -0.688342 -3.04415 0
M  V30 2029 N 196.587 1.43421 -0.653314 0
M  V30 2030 C 197.535 2.32546 0.0501531 0
M  V30 2031 C 198.529 1.48617 0.812985 0
M  V30 2032 O 199.735 1.64825 0.723375 0
M  V30 2033 H 196.11 0.751185 0.0350032 0
M  V30 2034 H 198.081 2.89602 -0.719261 0
M  V30 2035 C 196.83 3.32925 1.00279 0
M  V30 2036 H 196.153 3.97532 0.425236 0
M  V30 2037 H 197.593 3.9792 1.46409 0
M  V30 2038 C 196.052 2.63532 2.09886 0
M  V30 2039 O 196.582 2.45092 3.18265 0
M  V30 2040 N 194.788 2.22905 1.86445 0
M  V30 2041 H 194.335 2.38103 0.98309 0
M  V30 2042 H 194.293 1.76805 2.59976 0
M  V30 2043 N 198.065 0.39524 1.52563 0
M  V30 2044 C 199.311 -0.185318 2.01952 0
M  V30 2045 C 199.644 -1.45964 1.28095 0
M  V30 2046 O 198.919 -1.90689 0.38315 0
M  V30 2047 C 199.202 -0.447193 3.57312 0
M  V30 2048 C 199.055 0.842828 4.41833 0
M  V30 2049 C 200.374 -1.23529 4.22408 0
M  V30 2050 H 197.493 -0.0658788 0.73405 0
M  V30 2051 H 200.135 0.525975 1.82575 0
M  V30 2052 H 198.285 -1.05312 3.73954 0
M  V30 2053 H 199.957 1.4795 4.36931 0
M  V30 2054 H 198.2 1.45686 4.08605 0
M  V30 2055 H 198.871 0.614165 5.48573 0
M  V30 2056 H 201.347 -0.722445 4.0978 0
M  V30 2057 H 200.223 -1.38727 5.3108 0
M  V30 2058 H 200.484 -2.25213 3.80436 0
M  V30 2059 N 199.544 -1.57102 0.125237 0
M  V30 2060 C 200.474 -2.18659 -0.819174 0
M  V30 2061 C 201.455 -1.12843 -1.27281 0
M  V30 2062 O 202.64 -1.41104 -1.33429 0
M  V30 2063 C 199.77 -2.79096 -2.06695 0
M  V30 2064 C 198.724 -3.90548 -1.75088 0
M  V30 2065 C 198.05 -4.37821 -3.06948 0
M  V30 2066 C 199.35 -5.12356 -1.01435 0
M  V30 2067 H 201.044 -2.9783 -0.306202 0
M  V30 2068 H 198.59 -1.4326 -0.145839 0
M  V30 2069 H 200.543 -3.2082 -2.73226 0
M  V30 2070 H 199.267 -1.97223 -2.60328 0
M  V30 2071 H 197.926 -3.49409 -1.10944 0
M  V30 2072 H 197.574 -3.52799 -3.58527 0
M  V30 2073 H 197.274 -5.12982 -2.86571 0
M  V30 2074 H 198.798 -4.822 -3.74587 0
M  V30 2075 H 200.212 -5.5106 -1.58132 0
M  V30 2076 H 198.609 -5.9314 -0.911319 0
M  V30 2077 H 199.679 -4.849 -0.00218681 0
M  V30 2078 N 201.022 0.148545 -1.56898 0
M  V30 2079 C 202.271 0.85984 -1.82454 0
M  V30 2080 C 202.584 1.82406 -0.706229 0
M  V30 2081 O 203.79 2.57938 -0.847349 0
M  V30 2082 C 202.246 1.57967 -3.2338 0
M  V30 2083 C 201.854 0.65794 -4.43142 0
M  V30 2084 C 203.598 2.27784 -3.58211 0
M  V30 2085 C 201.505 1.3793 -5.75091 0
M  V30 2086 H 200.435 0.324834 -0.68044 0
M  V30 2087 H 203.086 0.112588 -1.83154 0
M  V30 2088 H 201.468 2.37249 -3.17063 0
M  V30 2089 H 202.642 -0.0995497 -4.60692 0
M  V30 2090 H 200.957 0.0682643 -4.16344 0
M  V30 2091 H 203.554 2.8239 -4.54048 0
M  V30 2092 H 203.897 3.04204 -2.84193 0
M  V30 2093 H 204.43 1.55421 -3.66182 0
M  V30 2094 H 201.169 0.656982 -6.52199 0
M  V30 2095 H 200.689 2.10954 -5.61479 0
M  V30 2096 H 202.368 1.92063 -6.17835 0
M  V30 2097 N 202.5 1.5196 0.417844 0
M  V30 2098 C 203.777 1.56146 1.17803 0
M  V30 2099 C 204.157 0.337275 2.08388 0
M  V30 2100 O 203.505 -0.676447 2.18258 0
M  V30 2101 C 203.715 2.88566 1.96293 0
M  V30 2102 C 205.063 3.41244 2.52662 0
M  V30 2103 O 206.087 2.90247 2.06483 0
M  V30 2104 O 204.946 4.30273 3.36938 0
M  V30 2105 H 202.04 0.628598 0.537395 0
M  V30 2106 H 204.586 1.64283 0.425331 0
M  V30 2107 H 203.358 3.69116 1.2988 0
M  V30 2108 H 202.981 2.83681 2.78587 0
M  V30 2109 N 203.978 -0.674533 1.42435 0
M  V30 2110 C 205.206 -1.46283 1.46317 0
M  V30 2111 C 205.621 -1.88653 0.0745836 0
M  V30 2112 O 204.978 -1.58151 -0.91074 0
M  V30 2113 C 205.029 -2.71178 2.3905 0
M  V30 2114 O 204.75 -2.30586 3.72507 0
M  V30 2115 C 206.251 -3.64738 2.51955 0
M  V30 2116 H 203.471 -0.450104 0.497642 0
M  V30 2117 H 206.015 -0.828792 1.86953 0
M  V30 2118 H 204.17 -3.3077 2.01667 0
M  V30 2119 H 204.584 -3.11241 4.22172 0
M  V30 2120 H 206.058 -4.49096 3.20962 0
M  V30 2121 H 206.535 -4.10656 1.55752 0
M  V30 2122 H 207.141 -3.11038 2.90061 0
M  V30 2123 N 205.456 -1.28612 -0.910864 0
M  V30 2124 C 206.681 -1.1891 -1.69927 0
M  V30 2125 C 207.106 0.248372 -1.86453 0
M  V30 2126 O 206.464 1.17961 -1.37676 0
M  V30 2127 C 206.512 -1.89578 -3.06745 0
M  V30 2128 O 205.616 -1.20521 -3.94396 0
M  V30 2129 H 204.957 -0.412632 -0.520222 0
M  V30 2130 H 207.487 -1.69985 -1.1387 0
M  V30 2131 H 207.497 -1.97597 -3.56958 0
M  V30 2132 H 206.172 -2.94136 -2.94035 0
M  V30 2133 H 204.749 -1.20684 -3.52831 0
M  V30 2134 N 206.934 1.1197 -1.10907 0
M  V30 2135 C 208.183 1.82947 -0.849302 0
M  V30 2136 C 208.496 1.85275 0.627112 0
M  V30 2137 O 209.702 2.52296 1.00295 0
M  V30 2138 C 208.158 3.28529 -1.46959 0
M  V30 2139 C 207.766 3.34546 -2.97965 0
M  V30 2140 C 209.51 4.04443 -1.28942 0
M  V30 2141 C 207.417 4.74491 -3.53004 0
M  V30 2142 H 206.347 0.685477 -0.314065 0
M  V30 2143 H 208.998 1.2604 -1.33365 0
M  V30 2144 H 207.38 3.85333 -0.912917 0
M  V30 2145 H 208.554 2.87654 -3.59989 0
M  V30 2146 H 206.869 2.72108 -3.15192 0
M  V30 2147 H 209.466 5.07787 -1.67502 0
M  V30 2148 H 209.809 4.15656 -0.231456 0
M  V30 2149 H 210.342 3.5401 -1.81443 0
M  V30 2150 H 207.081 4.68474 -4.58489 0
M  V30 2151 H 206.601 5.21816 -2.9575 0
M  V30 2152 H 208.28 5.4344 -3.51115 0
M  V30 2153 N 208.412 0.89855 1.29475 0
M  V30 2154 C 209.659 0.523882 1.95606 0
M  V30 2155 C 209.987 -0.929608 1.70847 0
M  V30 2156 O 209.242 -1.67401 1.01367 0
M  V30 2157 C 209.541 0.761398 3.49195 0
M  V30 2158 C 209.207 2.19207 3.94029 0
M  V30 2159 C 207.869 2.58326 4.05982 0
M  V30 2160 C 210.221 3.12379 4.17216 0
M  V30 2161 C 207.549 3.898 4.38489 0
M  V30 2162 C 209.901 4.43401 4.51197 0
M  V30 2163 C 208.565 4.82394 4.61359 0
M  V30 2164 H 207.835 0.191702 0.715773 0
M  V30 2165 H 210.482 1.13699 1.54094 0
M  V30 2166 H 208.787 0.0653622 3.91745 0
M  V30 2167 H 210.484 0.450904 3.98457 0
M  V30 2168 H 207.074 1.87846 3.85242 0
M  V30 2169 H 211.258 2.83371 4.07449 0
M  V30 2170 H 206.514 4.19734 4.44559 0
M  V30 2171 H 210.688 5.15623 4.68087 0
M  V30 2172 H 208.315 5.84306 4.86303 0
M  V30 2173 N 209.89 -1.43072 0.660911 0
M  V30 2174 C 210.853 -2.29194 -0.0166406 0
M  V30 2175 C 211.853 -1.42609 -0.742912 0
M  V30 2176 O 213.043 -1.64155 -0.583004 0
M  V30 2177 C 210.175 -3.24831 -1.0343 0
M  V30 2178 H 211.368 -2.90596 0.741208 0
M  V30 2179 H 208.921 -1.5048 0.422532 0
M  V30 2180 H 209.656 -2.68339 -1.82111 0
M  V30 2181 H 209.441 -3.88676 -0.517082 0
M  V30 2182 H 210.931 -3.89451 -1.50723 0
M  V30 2183 N 211.368 -0.403325 -1.52352 0
M  V30 2184 C 212.593 0.176499 -2.06648 0
M  V30 2185 C 213.018 1.38577 -1.27193 0
M  V30 2186 O 212.376 1.7879 -0.300637 0
M  V30 2187 C 212.424 0.511061 -3.5696 0
M  V30 2188 O 211.528 1.60294 -3.79973 0
M  V30 2189 H 210.869 0.0167337 -0.663789 0
M  V30 2190 H 213.399 -0.574848 -1.96359 0
M  V30 2191 H 213.409 0.771362 -4.00642 0
M  V30 2192 H 212.084 -0.37296 -4.14224 0
M  V30 2193 H 210.661 1.33526 -3.48174 0
M  V30 2194 N 212.846 1.57033 -0.133567 0
M  V30 2195 C 213.796 2.12641 0.822671 0
M  V30 2196 C 214.78 1.05081 1.21847 0
M  V30 2197 O 215.972 1.31287 1.18713 0
M  V30 2198 C 213.101 2.74094 2.06706 0
M  V30 2199 C 212.187 3.88757 1.69497 0
M  V30 2200 N 212.578 4.95194 1.03037 0
M  V30 2201 C 210.876 3.99213 1.98859 0
M  V30 2202 C 211.577 5.75414 0.852873 0
M  V30 2203 N 210.553 5.25726 1.3825 0
M  V30 2204 H 214.355 2.92308 0.305537 0
M  V30 2205 H 211.869 1.62256 0.0684276 0
M  V30 2206 H 213.866 3.12285 2.76195 0
M  V30 2207 H 212.526 1.95896 2.5895 0
M  V30 2208 H 213.537 5.13247 0.692669 0
M  V30 2209 H 210.214 3.32075 2.53047 0
M  V30 2210 H 211.604 6.71089 0.330091 0
M  V30 2211 N 214.325 -0.140222 1.56975 0
M  V30 2212 C 215.602 -0.880769 1.74648 0
M  V30 2213 C 215.982 -1.99036 0.703404 0
M  V30 2214 O 215.33 -2.26821 -0.27648 0
M  V30 2215 C 215.54 -1.417 3.18939 0
M  V30 2216 C 216.888 -1.87774 3.80823 0
M  V30 2217 O 217.912 -1.51427 3.2241 0
M  V30 2218 O 216.771 -2.54827 4.83452 0
M  V30 2219 H 213.865 -0.416713 0.714338 0
M  V30 2220 H 216.411 -0.125618 1.69234 0
M  V30 2221 H 215.183 -0.619902 3.86359 0
M  V30 2222 H 214.806 -2.23546 3.28805 0
M  V30 2223 N 215.803 -1.52179 -0.40978 0
M  V30 2224 C 216.75 -1.75475 -1.49924 0
M  V30 2225 C 217.72 -0.597175 -1.54994 0
M  V30 2226 O 218.905 -0.834655 -1.71575 0
M  V30 2227 C 216.045 -1.9107 -2.87378 0
M  V30 2228 C 215.158 -3.18717 -2.91622 0
M  V30 2229 C 214.293 -3.24747 -4.20372 0
M  V30 2230 C 213.332 -4.46598 -4.18588 0
M  V30 2231 N 212.469 -4.50025 -5.38908 0
M  V30 2232 H 217.309 -2.68458 -1.29361 0
M  V30 2233 H 214.846 -1.33024 -0.627934 0
M  V30 2234 H 216.804 -1.98096 -3.6717 0
M  V30 2235 H 215.434 -1.01469 -3.06437 0
M  V30 2236 H 214.486 -3.20866 -2.04326 0
M  V30 2237 H 215.798 -4.08544 -2.86169 0
M  V30 2238 H 214.952 -3.30841 -5.08556 0
M  V30 2239 H 213.691 -2.32857 -4.28519 0
M  V30 2240 H 212.696 -4.40652 -3.28794 0
M  V30 2241 H 213.921 -5.39783 -4.12081 0
M  V30 2242 H 211.867 -3.61017 -5.47725 0
M  V30 2243 H 211.784 -5.33697 -5.35447 0
M  V30 2244 H 213.052 -4.60347 -6.29048 0
M  V30 2245 N 217.281 0.66697 -1.42791 0
M  V30 2246 C 218.244 1.76211 -1.46568 0
M  V30 2247 C 219.244 1.56896 -0.352196 0
M  V30 2248 O 220.434 1.63044 -0.613364 0
M  V30 2249 C 217.566 3.14935 -1.30494 0
M  V30 2250 H 218.759 1.74247 -2.44086 0
M  V30 2251 H 216.312 0.877342 -1.29354 0
M  V30 2252 H 217.047 3.2252 -0.339301 0
M  V30 2253 H 216.832 3.30359 -2.11199 0
M  V30 2254 H 218.322 3.94821 -1.36038 0
M  V30 2255 N 218.759 1.29093 0.90403 0
M  V30 2256 C 220.17 1.15186 1.46932 0
M  V30 2257 C 220.521 -0.254587 1.94541 0
M  V30 2258 O 219.646 -1.14972 1.83332 0
M  V30 2259 C 220.241 2.08492 2.67051 0
M  V30 2260 C 218.8 1.98621 3.19729 0
M  V30 2261 C 217.947 1.9967 1.92425 0
M  V30 2262 H 220.898 1.41641 0.715789 0
M  V30 2263 H 220.919 1.65461 3.42641 0
M  V30 2264 H 220.431 3.10847 2.3237 0
M  V30 2265 H 218.532 0.993389 3.59114 0
M  V30 2266 H 218.645 2.86068 3.8432 0
M  V30 2267 H 217.009 1.44208 2.09943 0
M  V30 2268 H 217.792 3.03721 1.60026 0
M  V30 2269 N 220.237 -1.11381 1.11499 0
M  V30 2270 C 221.485 -1.8277 0.862524 0
M  V30 2271 C 221.806 -1.85097 -0.613534 0
M  V30 2272 O 221.076 -1.32198 -1.4457 0
M  V30 2273 H 219.656 -0.676823 0.316101 0
M  V30 2274 H 222.318 -1.34816 1.4075 0
M  V30 2275 H 221.414 -2.86614 1.23527 0
M  V30 2276 N 221.715 -0.905404 -1.28997 0
M  V30 2277 C 222.961 -0.544465 -1.95977 0
M  V30 2278 C 223.316 0.90041 -1.70031 0
M  V30 2279 O 222.609 1.63064 -1.00601 0
M  V30 2280 C 222.803 -0.779906 -3.48787 0
M  V30 2281 C 222.632 -2.24612 -3.89589 0
M  V30 2282 C 221.402 -2.89464 -4.14172 0
M  V30 2283 C 223.6 -3.22182 -4.00878 0
M  V30 2284 N 221.582 -4.26469 -4.41585 0
M  V30 2285 C 222.953 -4.44323 -4.32409 0
M  V30 2286 C 225.008 -3.17694 -3.83373 0
M  V30 2287 C 223.711 -5.62546 -4.48258 0
M  V30 2288 C 225.737 -4.35208 -4.00435 0
M  V30 2289 C 225.099 -5.56121 -4.3233 0
M  V30 2290 H 221.198 -0.248948 -0.741316 0
M  V30 2291 H 223.782 -1.1674 -1.5582 0
M  V30 2292 H 221.953 -0.186308 -3.87953 0
M  V30 2293 H 223.685 -0.383833 -4.02876 0
M  V30 2294 H 220.44 -2.40232 -4.08149 0
M  V30 2295 H 220.864 -4.97283 -4.5939 0
M  V30 2296 H 225.506 -2.25297 -3.57773 0
M  V30 2297 H 223.224 -6.55429 -4.72692 0
M  V30 2298 H 226.81 -4.33228 -3.88336 0
M  V30 2299 H 225.69 -6.45537 -4.45255 0
M  V30 2300 N 223.193 1.4272 -0.668489 0
M  V30 2301 C 224.604 1.84793 -0.266151 0
M  V30 2302 C 224.955 1.55959 1.19043 0
M  V30 2303 O 224.08 1.01622 1.91055 0
M  V30 2304 C 224.675 3.35436 -0.476271 0
M  V30 2305 C 223.234 3.76182 -0.128113 0
M  V30 2306 C 222.381 2.66344 -0.771777 0
M  V30 2307 H 225.332 1.32656 -0.871098 0
M  V30 2308 H 225.353 3.79515 0.273561 0
M  V30 2309 H 224.865 3.5639 -1.53647 0
M  V30 2310 H 222.966 3.60836 0.928891 0
M  V30 2311 H 223.079 4.75766 -0.564231 0
M  V30 2312 H 221.443 2.53885 -0.203652 0
M  V30 2313 H 222.226 2.90123 -1.83531 0
M  V30 2314 N 224.671 0.411399 1.52136 0
M  V30 2315 C 225.917 -0.156262 2.02799 0
M  V30 2316 C 226.272 -1.42613 1.29149 0
M  V30 2317 O 225.565 -1.87592 0.389839 0
M  V30 2318 C 225.759 -0.455872 3.54481 0
M  V30 2319 C 225.588 0.783404 4.42824 0
M  V30 2320 C 224.358 1.30928 4.88043 0
M  V30 2321 C 226.556 1.66217 4.86699 0
M  V30 2322 N 224.538 2.5038 5.6052 0
M  V30 2323 C 225.909 2.70292 5.5798 0
M  V30 2324 C 227.964 1.67966 4.68713 0
M  V30 2325 C 226.667 3.7603 6.13184 0
M  V30 2326 C 228.693 2.72624 5.24815 0
M  V30 2327 C 228.055 3.7542 5.9602 0
M  V30 2328 H 224.154 -0.0186886 0.781777 0
M  V30 2329 H 226.738 0.566255 1.86284 0
M  V30 2330 H 224.909 -1.14743 3.71064 0
M  V30 2331 H 226.641 -1.01261 3.91827 0
M  V30 2332 H 223.396 0.866977 4.65597 0
M  V30 2333 H 223.82 3.10881 6.014 0
M  V30 2334 H 228.462 0.898312 4.13147 0
M  V30 2335 H 226.18 4.55019 6.6782 0
M  V30 2336 H 229.766 2.74887 5.12765 0
M  V30 2337 H 228.646 4.55073 6.38654 0
M  V30 2338 N 226.149 -1.5696 0.141893 0
M  V30 2339 C 227.097 -2.17784 -0.816874 0
M  V30 2340 C 228.091 -1.1334 -1.25899 0
M  V30 2341 O 229.297 -1.316 -1.22806 0
M  V30 2342 H 225.672 -0.697278 -0.281615 0
M  V30 2343 H 227.643 -2.97087 -0.279621 0
M  V30 2344 C 226.392 -2.80983 -2.04802 0
M  V30 2345 H 225.715 -3.61062 -1.7168 0
M  V30 2346 H 227.155 -3.2705 -2.69841 0
M  V30 2347 C 225.614 -1.79228 -2.8527 0
M  V30 2348 O 226.144 -1.25962 -3.8144 0
M  V30 2349 N 224.35 -1.48647 -2.49704 0
M  V30 2350 H 223.897 -1.92155 -1.71564 0
M  V30 2351 H 223.855 -0.808115 -3.03837 0
M  V30 2352 N 227.627 0.131896 -1.57047 0
M  V30 2353 C 228.904 0.871495 -1.75112 0
M  V30 2354 C 229.284 1.9866 -0.713949 0
M  V30 2355 O 228.632 2.26965 0.264447 0
M  V30 2356 C 228.842 1.40007 -3.19686 0
M  V30 2357 C 230.19 1.85752 -3.81813 0
M  V30 2358 O 231.214 1.49715 -3.23209 0
M  V30 2359 O 230.073 2.5226 -4.84796 0
M  V30 2360 H 227.167 0.412919 -0.716538 0
M  V30 2361 H 229.713 0.116641 -1.69299 0
M  V30 2362 H 228.485 0.599404 -3.86682 0
M  V30 2363 H 228.108 2.218 -3.29986 0
M  V30 2364 N 229.106 1.52395 0.401703 0
M  V30 2365 C 230.039 1.70999 1.51111 0
M  V30 2366 C 231.017 0.55765 1.52738 0
M  V30 2367 O 232.201 0.785912 1.71335 0
M  V30 2368 C 229.328 1.75607 2.8962 0
M  V30 2369 C 228.374 2.97227 3.05873 0
M  V30 2370 S 229.207 4.57439 2.78405 0
M  V30 2371 C 230.363 4.64844 4.19131 0
M  V30 2372 H 230.596 2.6483 1.35102 0
M  V30 2373 H 228.129 1.42527 0.593762 0
M  V30 2374 H 230.087 1.78947 3.69443 0
M  V30 2375 H 228.748 0.828914 3.02965 0
M  V30 2376 H 227.941 2.96955 4.07227 0
M  V30 2377 H 227.543 2.91813 2.33925 0
M  V30 2378 H 229.835 4.42677 5.12877 0
M  V30 2379 H 230.778 5.66807 4.24424 0
M  V30 2380 H 231.186 3.93804 4.04448 0
M  V30 2381 N 230.584 -0.659388 1.43143 0
M  V30 2382 C 231.812 -1.44723 1.47861 0
M  V30 2383 C 232.227 -1.88563 0.0945886 0
M  V30 2384 O 231.584 -1.59108 -0.893915 0
M  V30 2385 C 231.635 -2.68627 2.41913 0
M  V30 2386 O 231.356 -2.26623 3.74932 0
M  V30 2387 C 232.857 -3.62045 2.55809 0
M  V30 2388 H 230.077 -0.444801 0.502387 0
M  V30 2389 H 232.621 -0.808916 1.87821 0
M  V30 2390 H 230.776 -3.28613 2.05164 0
M  V30 2391 H 231.19 -3.06745 4.2545 0
M  V30 2392 H 232.664 -4.45666 3.25708 0
M  V30 2393 H 233.141 -4.08981 1.60099 0
M  V30 2394 H 233.747 -3.07944 2.93344 0
M  V30 2395 N 232.062 -1.29571 -0.897171 0
M  V30 2396 C 232.994 -1.10724 -2.00681 0
M  V30 2397 C 234.007 -0.0540026 -1.6271 0
M  V30 2398 O 235.196 -0.298783 -1.75982 0
M  V30 2399 C 232.296 -0.663912 -3.32333 0
M  V30 2400 C 231.469 -1.79622 -3.98816 0
M  V30 2401 C 230.528 -1.34349 -5.0876 0
M  V30 2402 O 229.554 -2.04864 -5.31055 0
M  V30 2403 N 230.756 -0.215764 -5.80099 0
M  V30 2404 H 233.521 -2.06291 -2.17403 0
M  V30 2405 H 231.082 -1.21544 -1.06951 0
M  V30 2406 H 233.074 -0.344295 -4.03233 0
M  V30 2407 H 231.644 0.199375 -3.11964 0
M  V30 2408 H 230.864 -2.28459 -3.21248 0
M  V30 2409 H 232.152 -2.55535 -4.39976 0
M  V30 2410 H 231.55 0.372091 -5.64475 0
M  V30 2411 H 230.107 0.0444707 -6.51785 0
M  V30 2412 N 233.54 1.10788 -1.12088 0
M  V30 2413 C 234.78 1.84297 -0.883974 0
M  V30 2414 C 235.144 1.83036 0.579797 0
M  V30 2415 O 236.345 2.52061 0.933734 0
M  V30 2416 C 234.616 3.27173 -1.43849 0
M  V30 2417 S 236.175 4.17853 -1.33957 0
M  V30 2418 H 232.993 0.635433 -0.318977 0
M  V30 2419 H 235.595 1.33341 -1.4297 0
M  V30 2420 H 234.299 3.25658 -2.49749 0
M  V30 2421 H 233.83 3.83198 -0.890096 0
M  V30 2422 H 235.845 4.95239 -0.308603 0
M  V30 2423 N 235.018 0.912232 1.28515 0
M  V30 2424 C 236.265 0.544599 1.95039 0
M  V30 2425 C 236.593 -0.911435 1.71823 0
M  V30 2426 O 235.848 -1.66317 1.03137 0
M  V30 2427 C 236.147 0.798392 3.48368 0
M  V30 2428 C 235.813 2.23374 3.91682 0
M  V30 2429 C 234.475 2.62617 4.03219 0
M  V30 2430 C 236.827 3.16786 4.13879 0
M  V30 2431 C 234.155 3.94429 4.3433 0
M  V30 2432 C 236.507 4.48161 4.46469 0
M  V30 2433 C 235.171 4.8726 4.56217 0
M  V30 2434 H 234.441 0.199283 0.7137 0
M  V30 2435 H 237.088 1.15327 1.52879 0
M  V30 2436 H 235.393 0.106908 3.91654 0
M  V30 2437 H 237.09 0.493141 3.97956 0
M  V30 2438 H 233.68 1.91922 3.83228 0
M  V30 2439 H 237.864 2.87677 4.0442 0
M  V30 2440 H 233.12 4.24426 4.40082 0
M  V30 2441 H 237.294 5.20559 4.62592 0
M  V30 2442 H 234.921 5.89431 4.80078 0
M  V30 2443 N 236.496 -1.42363 0.676048 0
M  V30 2444 C 237.721 -2.06377 0.205705 0
M  V30 2445 C 238.146 -1.50463 -1.12883 0
M  V30 2446 O 237.504 -0.623619 -1.70237 0
M  V30 2447 C 237.552 -3.60277 0.152655 0
M  V30 2448 O 236.656 -4.02935 -0.87845 0
M  V30 2449 H 235.997 -0.655588 0.105359 0
M  V30 2450 H 238.527 -1.82475 0.925412 0
M  V30 2451 H 238.537 -4.07993 -0.0230675 0
M  V30 2452 H 237.212 -4.00346 1.12675 0
M  V30 2453 H 235.789 -3.66764 -0.673668 0
M  V30 2454 N 237.974 -0.419461 -1.51915 0
M  V30 2455 C 238.937 0.389116 -2.25873 0
M  V30 2456 C 239.937 0.964924 -1.28631 0
M  V30 2457 O 241.127 0.842179 -1.52489 0
M  V30 2458 C 238.259 1.54874 -3.03689 0
M  V30 2459 H 239.452 -0.258799 -2.98781 0
M  V30 2460 H 237.005 -0.172209 -1.55348 0
M  V30 2461 H 237.74 2.23323 -2.35154 0
M  V30 2462 H 237.525 1.14223 -3.75094 0
M  V30 2463 H 239.015 2.12046 -3.59759 0
M  V30 2464 N 239.452 1.56882 -0.150215 0
M  V30 2465 C 240.863 1.82995 0.370076 0
M  V30 2466 C 241.214 1.06907 1.64515 0
M  V30 2467 O 240.339 0.315369 2.1409 0
M  V30 2468 C 240.934 3.31942 0.678208 0
M  V30 2469 C 239.493 3.58625 1.14301 0
M  V30 2470 C 238.64 2.76792 0.167778 0
M  V30 2471 H 241.591 1.54209 -0.374858 0
M  V30 2472 H 241.612 3.48272 1.53254 0
M  V30 2473 H 241.124 3.87294 -0.249991 0
M  V30 2474 H 239.225 3.08664 2.08704 0
M  V30 2475 H 239.338 4.67073 1.06676 0
M  V30 2476 H 237.702 2.45972 0.661037 0
M  V30 2477 H 238.485 3.34916 -0.754069 0
M  V30 2478 N 240.93 -0.123565 1.57115 0
M  V30 2479 C 242.341 -0.681198 1.73829 0
M  V30 2480 C 242.692 -1.80535 0.768214 0
M  V30 2481 O 241.817 -2.16317 -0.0599103 0
M  V30 2482 C 242.412 -1.24246 3.15196 0
M  V30 2483 C 240.971 -1.74643 3.33432 0
M  V30 2484 C 240.118 -0.644284 2.69711 0
M  V30 2485 H 243.069 0.102315 1.5837 0
M  V30 2486 H 243.09 -2.11216 3.16493 0
M  V30 2487 H 242.602 -0.424062 3.85776 0
M  V30 2488 H 240.703 -2.58974 2.67886 0
M  V30 2489 H 240.816 -1.85902 4.41562 0
M  V30 2490 H 239.18 -1.07676 2.3082 0
M  V30 2491 H 239.963 0.163058 3.42913 0
M  V30 2492 N 242.408 -1.52605 -0.393616 0
M  V30 2493 C 243.371 -1.76415 -1.46323 0
M  V30 2494 C 244.371 -0.634126 -1.47768 0
M  V30 2495 O 245.561 -0.902142 -1.4902 0
M  V30 2496 C 242.693 -1.8607 -2.85641 0
M  V30 2497 H 243.886 -2.71916 -1.26498 0
M  V30 2498 H 241.439 -1.43257 -0.625073 0
M  V30 2499 H 242.174 -0.925378 -3.10817 0
M  V30 2500 H 241.959 -2.68235 -2.85993 0
M  V30 2501 H 243.449 -2.06179 -3.63153 0
M  V30 2502 N 243.887 0.651787 -1.4349 0
M  V30 2503 C 244.85 1.74647 -1.48429 0
M  V30 2504 C 245.85 1.56513 -0.368817 0
M  V30 2505 O 247.04 1.62385 -0.630623 0
M  V30 2506 C 244.172 3.13533 -1.33827 0
M  V30 2507 H 245.365 1.71649 -2.4592 0
M  V30 2508 H 242.918 0.863573 -1.30277 0
M  V30 2509 H 243.653 3.22142 -0.37349 0
M  V30 2510 H 243.438 3.28101 -2.14691 0
M  V30 2511 H 244.928 3.93356 -1.40218 0
M  V30 2512 N 245.365 1.30045 0.890287 0
M  V30 2513 C 246.328 1.15963 1.977 0
M  V30 2514 C 247.328 0.0923777 1.60534 0
M  V30 2515 O 248.518 0.340071 1.70848 0
M  V30 2516 C 245.65 0.775451 3.31963 0
M  V30 2517 H 246.843 2.12502 2.11619 0
M  V30 2518 H 244.396 1.13366 1.07601 0
M  V30 2519 H 245.131 -0.189671 3.23745 0
M  V30 2520 H 244.916 1.54668 3.60306 0
M  V30 2521 H 246.406 0.700251 4.11687 0
M  V30 2522 N 246.843 -1.10192 1.12674 0
M  V30 2523 C 248.092 -1.81573 0.8783 0
M  V30 2524 C 248.405 -1.86249 -0.597557 0
M  V30 2525 O 249.611 -2.5386 -0.962681 0
M  V30 2526 C 248.067 -3.26149 1.52167 0
M  V30 2527 C 247.675 -3.29763 3.03249 0
M  V30 2528 C 249.419 -4.0234 1.3536 0
M  V30 2529 C 247.326 -4.68815 3.60508 0
M  V30 2530 H 246.256 -0.680394 0.324931 0
M  V30 2531 H 248.907 -1.23902 1.35353 0
M  V30 2532 H 247.289 -3.83832 0.974104 0
M  V30 2533 H 248.463 -2.8189 3.6452 0
M  V30 2534 H 246.778 -2.67059 3.19481 0
M  V30 2535 H 249.375 -5.05058 1.75559 0
M  V30 2536 H 249.718 -4.15235 0.297554 0
M  V30 2537 H 250.251 -3.51079 1.87052 0
M  V30 2538 H 246.99 -4.61121 4.65884 0
M  V30 2539 H 246.51 -5.17045 3.04014 0
M  V30 2540 H 248.189 -5.37785 3.59717 0
M  V30 2541 N 248.321 -0.919034 -1.28029 0
M  V30 2542 C 249.567 -0.555757 -1.95036 0
M  V30 2543 C 249.9 0.899198 -1.72128 0
M  V30 2544 O 249.175 1.64023 -1.04531 0
M  V30 2545 C 249.458 -0.872024 -3.49382 0
M  V30 2546 C 249.311 -2.3801 -3.81669 0
M  V30 2547 C 250.63 -0.37185 -4.38526 0
M  V30 2548 H 247.749 -0.203386 -0.708381 0
M  V30 2549 H 250.391 -1.14924 -1.51303 0
M  V30 2550 H 248.541 -0.366946 -3.86763 0
M  V30 2551 H 250.213 -2.9562 -3.54128 0
M  V30 2552 H 248.456 -2.83289 -3.28526 0
M  V30 2553 H 249.127 -2.55192 -4.8947 0
M  V30 2554 H 251.603 -0.804602 -4.08247 0
M  V30 2555 H 250.479 -0.622173 -5.45362 0
M  V30 2556 H 250.74 0.727934 -4.36066 0
M  V30 2557 N 249.799 1.42003 -0.683588 0
M  V30 2558 C 251.076 1.95112 -0.138075 0
M  V30 2559 C 251.456 1.62359 1.34918 0
M  V30 2560 O 250.804 0.924311 2.08971 0
M  V30 2561 C 251.014 3.46505 -0.416581 0
M  V30 2562 C 252.362 4.23254 -0.337834 0
M  V30 2563 O 253.386 3.54468 -0.35082 0
M  V30 2564 O 252.245 5.45743 -0.287596 0
M  V30 2565 H 249.339 0.826961 -0.00797996 0
M  V30 2566 H 251.885 1.51784 -0.758924 0
M  V30 2567 H 250.657 3.63582 -1.4465 0
M  V30 2568 H 250.28 3.969 0.235839 0
M  V30 2569 N 251.277 0.427512 1.51691 0
M  V30 2570 C 252.693 0.0792977 1.59403 0
M  V30 2571 C 252.893 -1.41035 1.43914 0
M  V30 2572 O 251.949 -2.17922 1.27539 0
M  V30 2573 C 253.262 0.590636 2.94842 0
M  V30 2574 C 254.81 0.550215 3.08126 0
M  V30 2575 C 255.285 1.03836 4.46074 0
M  V30 2576 N 256.776 0.995943 4.52366 0
M  V30 2577 C 257.511 1.34463 5.57411 0
M  V30 2578 N 257.007 1.76569 6.69922 0
M  V30 2579 N 258.8 1.26343 5.47717 0
M  V30 2580 H 250.951 1.39687 1.60004 0
M  V30 2581 H 253.214 0.575003 0.753708 0
M  V30 2582 H 252.92 1.63251 3.11516 0
M  V30 2583 H 252.794 0.0102061 3.77199 0
M  V30 2584 H 255.181 -0.482654 2.91126 0
M  V30 2585 H 255.262 1.16693 2.27632 0
M  V30 2586 H 254.906 2.06965 4.63819 0
M  V30 2587 H 254.836 0.398286 5.25092 0
M  V30 2588 H 257.327 0.68661 3.7161 0
M  V30 2589 H 257.64 2.01438 7.46085 0
M  V30 2590 H 255.985 1.80488 6.71155 0
M  V30 2591 H 259.176 0.933209 4.58703 0
M  V30 2592 H 259.349 1.53846 6.29472 0
M  V30 2593 N 252.755 -1.56801 0.158532 0
M  V30 2594 C 253.703 -2.18638 -0.793729 0
M  V30 2595 C 254.697 -1.14669 -1.24689 0
M  V30 2596 O 255.903 -1.32895 -1.21403 0
M  V30 2597 H 252.278 -0.700226 -0.274204 0
M  V30 2598 H 254.249 -2.97367 -0.248095 0
M  V30 2599 C 252.998 -2.83139 -2.0181 0
M  V30 2600 H 252.321 -3.62863 -1.67841 0
M  V30 2601 H 253.761 -3.29894 -2.66357 0
M  V30 2602 C 252.22 -1.82244 -2.83353 0
M  V30 2603 O 252.75 -1.3 -3.80083 0
M  V30 2604 N 250.956 -1.51288 -2.48114 0
M  V30 2605 H 250.503 -1.93964 -1.69516 0
M  V30 2606 H 250.461 -0.840296 -3.02963 0
M  V30 2607 N 254.233 0.115231 -1.57178 0
M  V30 2608 C 255.473 0.828199 -1.8687 0
M  V30 2609 C 255.837 1.76873 -0.747002 0
M  V30 2610 O 257.038 2.52354 -0.925785 0
M  V30 2611 C 255.309 1.55515 -3.21792 0
M  V30 2612 S 256.868 2.30917 -3.73125 0
M  V30 2613 H 253.686 0.27634 -0.655101 0
M  V30 2614 H 256.288 0.0863469 -1.95309 0
M  V30 2615 H 254.992 0.856248 -4.01368 0
M  V30 2616 H 254.523 2.3373 -3.16439 0
M  V30 2617 H 256.538 3.56705 -3.44929 0
M  V30 2618 N 255.711 1.52812 0.385517 0
M  V30 2619 C 256.958 1.68026 1.1302 0
M  V30 2620 C 257.286 0.421934 1.89868 0
M  V30 2621 O 256.541 -0.595749 1.86412 0
M  V30 2622 C 256.84 2.86856 2.13187 0
M  V30 2623 C 256.506 4.24159 1.5297 0
M  V30 2624 C 255.168 4.61501 1.36274 0
M  V30 2625 C 257.52 5.09627 1.09223 0
M  V30 2626 C 254.848 5.81966 0.743837 0
M  V30 2627 C 257.2 6.30719 0.487411 0
M  V30 2628 C 255.864 6.6679 0.307777 0
M  V30 2629 H 255.134 0.614849 0.413571 0
M  V30 2630 H 257.781 1.86962 0.414405 0
M  V30 2631 H 256.086 2.6235 2.90998 0
M  V30 2632 H 257.783 2.95821 2.70722 0
M  V30 2633 H 254.373 3.94746 1.66954 0
M  V30 2634 H 258.557 4.81343 1.20922 0
M  V30 2635 H 253.813 6.08519 0.592891 0
M  V30 2636 H 257.987 6.96259 0.140143 0
M  V30 2637 H 255.614 7.60001 -0.173879 0
M  V30 2638 N 257.189 -0.644168 1.43834 0
M  V30 2639 C 258.414 -1.43642 1.49605 0
M  V30 2640 C 258.839 -1.8773 0.117913 0
M  V30 2641 O 258.197 -1.57938 -0.890239 0
M  V30 2642 C 258.245 -2.6416 2.45463 0
M  V30 2643 O 257.349 -3.63538 1.94714 0
M  V30 2644 H 256.69 -0.430329 0.50568 0
M  V30 2645 H 259.22 -0.787448 1.8884 0
M  V30 2646 H 259.23 -3.11864 2.63068 0
M  V30 2647 H 257.905 -2.31414 3.45572 0
M  V30 2648 H 256.482 -3.2273 1.86814 0
M  V30 2649 N 258.668 -1.30515 -0.883378 0
M  V30 2650 C 259.914 -1.19607 -1.63774 0
M  V30 2651 C 260.247 0.248314 -1.92606 0
M  V30 2652 O 259.522 1.17742 -1.54813 0
M  V30 2653 C 259.805 -2.02669 -2.97653 0
M  V30 2654 C 259.658 -3.55335 -2.75784 0
M  V30 2655 C 260.977 -1.86573 -3.98596 0
M  V30 2656 H 258.096 -0.435856 -0.594305 0
M  V30 2657 H 260.738 -1.60165 -1.02212 0
M  V30 2658 H 258.888 -1.68208 -3.50197 0
M  V30 2659 H 260.56 -3.99863 -2.30016 0
M  V30 2660 H 258.803 -3.79438 -2.1026 0
M  V30 2661 H 259.474 -4.08745 -3.70988 0
M  V30 2662 H 261.95 -2.16703 -3.55217 0
M  V30 2663 H 260.826 -2.47014 -4.90179 0
M  V30 2664 H 261.087 -0.825321 -4.34328 0
M  V30 2665 N 260.146 1.09593 -1.13257 0
M  V30 2666 C 261.371 1.8604 -0.916732 0
M  V30 2667 C 261.796 1.80504 0.529146 0
M  V30 2668 O 261.154 1.18127 1.37534 0
M  V30 2669 C 261.202 3.32017 -1.40703 0
M  V30 2670 O 260.306 4.08141 -0.591153 0
M  V30 2671 H 259.647 0.576943 -0.328683 0
M  V30 2672 H 262.177 1.38405 -1.50682 0
M  V30 2673 H 262.187 3.82865 -1.4099 0
M  V30 2674 H 260.862 3.35361 -2.45979 0
M  V30 2675 H 259.439 3.67084 -0.656005 0
M  V30 2676 N 261.624 0.925811 1.2754 0
M  V30 2677 C 262.554 0.440748 2.29303 0
M  V30 2678 C 263.535 -0.497971 1.62648 0
M  V30 2679 O 264.72 -0.403126 1.8997 0
M  V30 2680 C 261.85 -0.309048 3.45922 0
M  V30 2681 C 260.804 0.54166 4.24559 0
M  V30 2682 C 260.13 -0.337191 5.33636 0
M  V30 2683 C 261.43 1.80516 4.90114 0
M  V30 2684 H 263.124 1.29121 2.70126 0
M  V30 2685 H 260.67 0.622323 1.29858 0
M  V30 2686 H 262.623 -0.659315 4.1621 0
M  V30 2687 H 261.347 -1.19352 3.04011 0
M  V30 2688 H 260.006 0.874609 3.56014 0
M  V30 2689 H 259.654 -1.22056 4.87966 0
M  V30 2690 H 259.354 0.228497 5.87156 0
M  V30 2691 H 260.878 -0.683072 6.06767 0
M  V30 2692 H 262.292 1.52307 5.52698 0
M  V30 2693 H 260.689 2.3142 5.53683 0
M  V30 2694 H 261.759 2.52581 4.13921 0
M  V30 2695 N 263.102 -1.41638 0.69111 0
M  V30 2696 C 264.332 -2.0533 0.228758 0
M  V30 2697 C 264.74 -1.52089 -1.12541 0
M  V30 2698 O 264.083 -0.662145 -1.71351 0
M  V30 2699 C 264.145 -3.59349 0.10407 0
M  V30 2700 C 263.809 -4.35362 1.38956 0
M  V30 2701 C 264.806 -4.64942 2.32648 0
M  V30 2702 C 262.491 -4.74714 1.64169 0
M  V30 2703 C 264.485 -5.32828 3.49818 0
M  V30 2704 C 262.172 -5.42338 2.81625 0
M  V30 2705 C 263.17 -5.71322 3.74273 0
M  V30 2706 O 262.858 -6.37554 4.89673 0
M  V30 2707 H 262.59 -0.667796 0.104997 0
M  V30 2708 H 265.144 -1.82477 0.942938 0
M  V30 2709 H 263.374 -3.80924 -0.665839 0
M  V30 2710 H 265.063 -4.04633 -0.320519 0
M  V30 2711 H 265.829 -4.35025 2.14425 0
M  V30 2712 H 261.708 -4.51538 0.929202 0
M  V30 2713 H 265.252 -5.55368 4.22152 0
M  V30 2714 H 261.149 -5.71673 2.99768 0
M  V30 2715 H 261.917 -6.56049 4.8943 0
M  V30 2716 N 264.58 -0.43555 -1.51462 0
M  V30 2717 C 265.805 0.132627 -2.06976 0
M  V30 2718 C 266.23 1.35848 -1.30104 0
M  V30 2719 O 265.588 1.78112 -0.338493 0
M  V30 2720 C 265.636 0.43523 -3.57964 0
M  V30 2721 O 264.74 1.52198 -3.83288 0
M  V30 2722 H 264.081 0.00265 -0.663995 0
M  V30 2723 H 266.611 -0.616369 -1.95095 0
M  V30 2724 H 266.621 0.686206 -4.02188 0
M  V30 2725 H 265.296 -0.460739 -4.1334 0
M  V30 2726 H 263.873 1.2611 -3.50928 0
M  V30 2727 N 266.058 1.56714 -0.166846 0
M  V30 2728 C 267.021 2.16539 0.751232 0
M  V30 2729 C 268.021 1.11228 1.16125 0
M  V30 2730 O 269.211 1.36765 1.07894 0
M  V30 2731 C 266.343 2.74462 2.02196 0
M  V30 2732 H 267.536 2.99013 0.230499 0
M  V30 2733 H 265.089 1.56081 0.0826982 0
M  V30 2734 H 265.824 1.95709 2.58589 0
M  V30 2735 H 265.609 3.51527 1.73698 0
M  V30 2736 H 267.099 3.20489 2.67725 0
M  V30 2737 N 267.536 -0.106894 1.57237 0
M  V30 2738 C 268.947 -0.662723 1.74542 0
M  V30 2739 C 269.298 -1.7971 0.787319 0
M  V30 2740 O 268.423 -2.16368 -0.0369636 0
M  V30 2741 C 269.018 -1.20896 3.16496 0
M  V30 2742 C 267.577 -1.71096 3.35266 0
M  V30 2743 C 266.724 -0.615642 2.7038 0
M  V30 2744 H 269.675 0.119106 1.58252 0
M  V30 2745 H 269.696 -2.07847 3.18716 0
M  V30 2746 H 269.208 -0.383122 3.86204 0
M  V30 2747 H 267.309 -2.56119 2.70618 0
M  V30 2748 H 267.422 -1.81208 4.43509 0
M  V30 2749 H 265.786 -1.05222 2.31949 0
M  V30 2750 H 266.569 0.199419 3.4272 0
M  V30 2751 N 269.014 -1.53014 -0.377408 0
M  V30 2752 C 269.961 -1.78616 -1.46168 0
M  V30 2753 C 270.931 -0.629917 -1.53692 0
M  V30 2754 O 272.116 -0.870861 -1.69766 0
M  V30 2755 C 269.256 -1.97123 -2.8326 0
M  V30 2756 C 268.369 -3.24831 -2.84796 0
M  V30 2757 C 267.504 -3.33591 -4.13389 0
M  V30 2758 C 266.543 -4.55377 -4.09021 0
M  V30 2759 N 265.68 -4.61355 -5.29241 0
M  V30 2760 H 270.52 -2.71142 -1.23637 0
M  V30 2761 H 268.057 -1.34326 -0.599577 0
M  V30 2762 H 270.015 -2.05839 -3.62886 0
M  V30 2763 H 268.645 -1.07946 -3.04216 0
M  V30 2764 H 267.697 -3.25128 -1.97474 0
M  V30 2765 H 269.009 -4.14523 -2.77439 0
M  V30 2766 H 268.163 -3.41554 -5.01424 0
M  V30 2767 H 266.902 -2.41894 -4.23484 0
M  V30 2768 H 265.907 -4.47527 -3.19373 0
M  V30 2769 H 267.132 -5.48402 -4.00539 0
M  V30 2770 H 265.078 -3.72554 -5.39944 0
M  V30 2771 H 264.995 -5.44935 -5.24006 0
M  V30 2772 H 266.263 -4.73586 -6.19141 0
M  V30 2773 N 270.492 0.636531 -1.44174 0
M  V30 2774 C 271.903 1.21806 -1.41493 0
M  V30 2775 C 272.254 1.95785 -0.1275 0
M  V30 2776 O 271.379 2.02147 0.772376 0
M  V30 2777 C 271.974 2.21551 -2.56321 0
M  V30 2778 C 270.533 2.75143 -2.56853 0
M  V30 2779 C 269.68 1.50052 -2.33195 0
M  V30 2780 H 272.631 0.427531 -1.52833 0
M  V30 2781 H 272.652 3.0405 -2.28765 0
M  V30 2782 H 272.164 1.67679 -3.50008 0
M  V30 2783 H 270.265 3.33033 -1.67093 0
M  V30 2784 H 270.378 3.2155 -3.55165 0
M  V30 2785 H 268.742 1.77993 -1.82183 0
M  V30 2786 H 269.525 0.980903 -3.28988 0
M  V30 2787 N 271.97 1.30982 0.876444 0
M  V30 2788 C 273.218 1.20058 1.62575 0
M  V30 2789 C 273.539 -0.242947 1.93481 0
M  V30 2790 O 272.809 -1.1619 1.57724 0
M  V30 2791 H 271.389 0.44135 0.602677 0
M  V30 2792 H 274.051 1.64222 1.04962 0
M  V30 2793 H 273.147 1.76762 2.57219 0
M  V30 2794 N 273.449 -1.08991 1.13837 0
M  V30 2795 C 274.726 -1.77863 0.813876 0
M  V30 2796 C 275.106 -1.99375 -0.693746 0
M  V30 2797 O 274.454 -1.59875 -1.63255 0
M  V30 2798 C 274.664 -3.0986 1.60586 0
M  V30 2799 C 276.012 -3.84493 1.8014 0
M  V30 2800 O 277.036 -3.19624 1.57222 0
M  V30 2801 O 275.895 -5.00957 2.18413 0
M  V30 2802 H 272.989 -0.771589 0.297624 0
M  V30 2803 H 275.535 -1.15507 1.24323 0
M  V30 2804 H 274.307 -2.89715 2.63022 0
M  V30 2805 H 273.93 -3.79942 1.17173 0
M  V30 2806 N 274.927 -0.932562 -1.27047 0
M  V30 2807 C 275.86 -0.379774 -2.25018 0
M  V30 2808 C 276.838 0.526587 -1.53837 0
M  V30 2809 O 278.022 0.465992 -1.82649 0
M  V30 2810 C 275.149 0.455187 -3.35627 0
M  V30 2811 C 274.195 -0.388428 -4.24728 0
M  V30 2812 S 275.028 -1.80701 -5.04091 0
M  V30 2813 C 276.184 -0.979865 -6.18182 0
M  V30 2814 H 276.417 -1.2101 -2.71558 0
M  V30 2815 H 273.95 -0.735078 -1.35779 0
M  V30 2816 H 275.908 0.931052 -3.99802 0
M  V30 2817 H 274.569 1.26009 -2.87716 0
M  V30 2818 H 273.762 0.25089 -5.03375 0
M  V30 2819 H 273.364 -0.798649 -3.65373 0
M  V30 2820 H 275.656 -0.218115 -6.77149 0
M  V30 2821 H 276.599 -1.73951 -6.86401 0
M  V30 2822 H 277.007 -0.51973 -5.62102 0
M  V30 2823 N 276.405 1.4127 -0.698611 0
M  V30 2824 C 277.368 2.29158 -0.044132 0
M  V30 2825 C 278.368 1.44529 0.704841 0
M  V30 2826 O 279.558 1.65643 0.539276 0
M  V30 2827 C 276.69 3.27459 0.947809 0
M  V30 2828 H 277.883 2.88529 -0.817994 0
M  V30 2829 H 275.436 1.49307 -0.46228 0
M  V30 2830 H 276.171 2.73073 1.74933 0
M  V30 2831 H 275.956 3.8991 0.41385 0
M  V30 2832 H 277.446 3.93311 1.40344 0
M  V30 2833 N 277.883 0.443576 1.51229 0
M  V30 2834 C 279.13 -0.120796 2.02139 0
M  V30 2835 C 279.458 -1.42166 1.32736 0
M  V30 2836 O 278.713 -1.90849 0.43301 0
M  V30 2837 C 279.012 -0.380579 3.55368 0
M  V30 2838 C 278.678 0.83523 4.43097 0
M  V30 2839 C 277.34 1.16864 4.66794 0
M  V30 2840 C 279.692 1.64601 4.94526 0
M  V30 2841 C 277.02 2.31339 5.39165 0
M  V30 2842 C 279.372 2.78181 5.68153 0
M  V30 2843 C 278.036 3.11969 5.90112 0
M  V30 2844 H 277.306 -0.0442023 0.73968 0
M  V30 2845 H 279.953 0.592046 1.82118 0
M  V30 2846 H 278.258 -1.17538 3.73754 0
M  V30 2847 H 279.955 -0.830777 3.923 0
M  V30 2848 H 276.545 0.565437 4.24854 0
M  V30 2849 H 280.729 1.40163 4.76097 0
M  V30 2850 H 275.985 2.57823 5.5438 0
M  V30 2851 H 280.159 3.41371 6.06992 0
M  V30 2852 H 277.786 4.00784 6.45969 0
M  V30 2853 N 279.361 -1.56624 0.175154 0
M  V30 2854 C 280.61 -1.96173 -0.468921 0
M  V30 2855 C 280.923 -1.06401 -1.64128 0
M  V30 2856 O 282.129 -1.35648 -2.35185 0
M  V30 2857 C 280.585 -3.48833 -0.885633 0
M  V30 2858 C 280.193 -4.47237 0.261343 0
M  V30 2859 C 281.937 -3.97194 -1.49791 0
M  V30 2860 C 279.844 -5.9114 -0.175214 0
M  V30 2861 H 278.774 -0.732455 -0.178958 0
M  V30 2862 H 281.425 -1.81591 0.263997 0
M  V30 2863 H 279.807 -3.58848 -1.67464 0
M  V30 2864 H 280.981 -4.4894 1.03871 0
M  V30 2865 H 279.296 -4.08956 0.783827 0
M  V30 2866 H 281.893 -5.02167 -1.83665 0
M  V30 2867 H 282.236 -3.40351 -2.39722 0
M  V30 2868 H 282.769 -3.90212 -0.773267 0
M  V30 2869 H 279.508 -6.51865 0.689414 0
M  V30 2870 H 279.028 -5.92735 -0.91786 0
M  V30 2871 H 280.707 -6.44044 -0.617792 0
M  V30 2872 N 280.839 0.0985539 -1.57292 0
M  V30 2873 C 282.255 0.45267 -1.53046 0
M  V30 2874 C 282.455 1.80713 -0.891342 0
M  V30 2875 O 281.511 2.4785 -0.482375 0
M  V30 2876 C 282.824 0.418341 -2.97776 0
M  V30 2877 C 284.372 0.500443 -3.08973 0
M  V30 2878 C 284.847 0.496297 -4.55303 0
M  V30 2879 N 286.338 0.557151 -4.59837 0
M  V30 2880 C 287.073 0.575726 -5.70502 0
M  V30 2881 N 286.569 0.550714 -6.90608 0
M  V30 2882 N 288.362 0.620277 -5.58667 0
M  V30 2883 H 280.513 -0.788673 -1.97215 0
M  V30 2884 H 282.776 -0.293188 -0.901524 0
M  V30 2885 H 282.482 -0.509659 -3.47988 0
M  V30 2886 H 282.356 1.2386 -3.56284 0
M  V30 2887 H 284.743 1.41886 -2.58751 0
M  V30 2888 H 284.824 -0.347894 -2.53423 0
M  V30 2889 H 284.468 -0.418162 -5.06176 0
M  V30 2890 H 284.398 1.3618 -5.08687 0
M  V30 2891 H 286.889 0.581816 -3.73394 0
M  V30 2892 H 287.202 0.568075 -7.70709 0
M  V30 2893 H 285.547 0.517816 -6.93068 0
M  V30 2894 H 288.738 0.637322 -4.63741 0
M  V30 2895 H 288.911 0.631283 -6.44918 0
M  V30 2896 N 282.317 1.53212 0.369288 0
M  V30 2897 C 283.563 1.69466 1.11397 0
M  V30 2898 C 283.896 0.443257 1.89074 0
M  V30 2899 O 283.171 -0.559386 1.86282 0
M  V30 2900 C 283.454 2.9422 2.07621 0
M  V30 2901 C 283.307 4.29508 1.33577 0
M  V30 2902 C 284.626 3.14565 3.07794 0
M  V30 2903 H 281.745 0.616667 0.403597 0
M  V30 2904 H 284.387 1.85845 0.395179 0
M  V30 2905 H 282.537 2.80387 2.68916 0
M  V30 2906 H 284.209 4.55147 0.750955 0
M  V30 2907 H 282.452 4.29088 0.637618 0
M  V30 2908 H 283.123 5.12926 2.03989 0
M  V30 2909 H 285.599 3.2756 2.56601 0
M  V30 2910 H 284.475 4.03297 3.72348 0
M  V30 2911 H 284.736 2.29675 3.77759 0
M  V30 2912 N 283.795 -0.628877 1.44509 0
M  V30 2913 C 284.758 -1.72263 1.51188 0
M  V30 2914 C 285.758 -1.55907 0.39367 0
M  V30 2915 O 286.948 -1.61361 0.656377 0
M  V30 2916 C 284.08 -3.11365 1.38798 0
M  V30 2917 H 285.273 -1.67714 2.4862 0
M  V30 2918 H 282.826 -0.842737 1.31634 0
M  V30 2919 H 283.561 -3.21507 0.424693 0
M  V30 2920 H 283.346 -3.24644 2.19884 0
M  V30 2921 H 284.836 -3.91075 1.46458 0
M  V30 2922 N 285.273 -1.31445 -0.869486 0
M  V30 2923 C 286.498 -1.24256 -1.66058 0
M  V30 2924 C 286.923 0.188928 -1.87149 0
M  V30 2925 O 286.281 1.13522 -1.4136 0
M  V30 2926 C 286.329 -1.9924 -3.00559 0
M  V30 2927 O 285.433 -1.33007 -3.90362 0
M  V30 2928 H 284.774 -0.428973 -0.506831 0
M  V30 2929 H 287.304 -1.73521 -1.08404 0
M  V30 2930 H 287.314 -2.08854 -3.50491 0
M  V30 2931 H 285.989 -3.03342 -2.84528 0
M  V30 2932 H 284.566 -1.31848 -3.48813 0
M  V30 2933 N 286.751 1.08385 -1.14413 0
M  V30 2934 C 287.981 1.8425 -0.934644 0
M  V30 2935 C 288.389 1.81907 0.520234 0
M  V30 2936 O 287.732 1.22126 1.37226 0
M  V30 2937 C 287.794 3.32853 -1.35828 0
M  V30 2938 C 287.458 3.5893 -2.82875 0
M  V30 2939 C 288.455 3.53756 -3.80989 0
M  V30 2940 C 286.14 3.86934 -3.20293 0
M  V30 2941 C 288.134 3.76216 -5.14529 0
M  V30 2942 C 285.821 4.09047 -4.54008 0
M  V30 2943 C 286.819 4.03682 -5.50936 0
M  V30 2944 O 286.507 4.25214 -6.82238 0
M  V30 2945 H 286.239 0.588502 -0.332628 0
M  V30 2946 H 288.793 1.37792 -1.52324 0
M  V30 2947 H 287.023 3.8007 -0.713019 0
M  V30 2948 H 288.712 3.90154 -1.11957 0
M  V30 2949 H 289.478 3.32135 -3.53428 0
M  V30 2950 H 285.357 3.9023 -2.45442 0
M  V30 2951 H 288.901 3.71943 -5.90173 0
M  V30 2952 H 284.798 4.30151 -4.8129 0
M  V30 2953 H 285.566 4.42619 -6.88499 0
M  V30 2954 N 288.23 0.939286 1.26551 0
M  V30 2955 C 289.46 0.601663 1.97645 0
M  V30 2956 C 289.868 -0.827206 1.70159 0
M  V30 2957 O 289.211 -1.56291 0.965338 0
M  V30 2958 C 289.273 0.761725 3.51337 0
M  V30 2959 C 288.937 2.16487 4.0247 0
M  V30 2960 C 289.934 3.14016 4.14355 0
M  V30 2961 C 287.619 2.48494 4.36527 0
M  V30 2962 C 289.613 4.41654 4.59587 0
M  V30 2963 C 287.3 3.76364 4.81449 0
M  V30 2964 C 288.298 4.72758 4.92939 0
M  V30 2965 O 287.986 5.98352 5.36871 0
M  V30 2966 H 287.718 0.225758 0.637189 0
M  V30 2967 H 290.272 1.26178 1.62075 0
M  V30 2968 H 288.502 0.0444808 3.86674 0
M  V30 2969 H 290.191 0.427442 4.03643 0
M  V30 2970 H 290.957 2.90613 3.8829 0
M  V30 2971 H 286.836 1.74202 4.26819 0
M  V30 2972 H 290.38 5.16896 4.68471 0
M  V30 2973 H 286.277 3.99582 5.06956 0
M  V30 2974 H 287.045 6.01507 5.55096 0
M  V30 2975 N 289.708 -1.40897 0.706093 0
M  V30 2976 C 291.119 -1.84023 0.315052 0
M  V30 2977 C 291.47 -1.5906 -1.14866 0
M  V30 2978 O 290.595 -1.06651 -1.88293 0
M  V30 2979 C 291.19 -3.34055 0.565038 0
M  V30 2980 C 289.749 -3.7571 0.227806 0
M  V30 2981 C 288.896 -2.64204 0.842122 0
M  V30 2982 H 291.847 -1.303 0.905963 0
M  V30 2983 H 291.868 -3.80107 -0.172843 0
M  V30 2984 H 291.38 -3.52192 1.63042 0
M  V30 2985 H 289.481 -3.63172 -0.832895 0
M  V30 2986 H 289.594 -4.74103 0.690174 0
M  V30 2987 H 287.958 -2.53255 0.270893 0
M  V30 2988 H 288.741 -2.85155 1.91158 0
M  V30 2989 N 291.186 -0.45159 -1.50991 0
M  V30 2990 C 292.432 0.110237 -2.025 0
M  V30 2991 C 292.765 1.41109 -1.33424 0
M  V30 2992 O 292.04 1.89135 -0.453659 0
M  V30 2993 C 292.323 0.314271 -3.58726 0
M  V30 2994 C 292.176 -1.00623 -4.38401 0
M  V30 2995 C 293.495 1.07767 -4.26702 0
M  V30 2996 H 290.614 0.0385897 -0.735989 0
M  V30 2997 H 293.256 -0.593374 -1.80497 0
M  V30 2998 H 291.406 0.913601 -3.77605 0
M  V30 2999 H 293.078 -1.64064 -4.31139 0
M  V30 3000 H 291.321 -1.6075 -4.02917 0
M  V30 3001 H 291.992 -0.817341 -5.45915 0
M  V30 3002 H 294.468 0.56986 -4.12179 0
M  V30 3003 H 293.344 1.18921 -5.35863 0
M  V30 3004 H 293.605 2.10939 -3.88532 0
M  V30 3005 N 292.664 1.56529 -0.183458 0
M  V30 3006 C 293.892 2.01623 0.464285 0
M  V30 3007 C 294.307 1.06366 1.55986 0
M  V30 3008 O 293.664 0.0665398 1.82379 0
M  V30 3009 C 293.715 3.46475 1.03139 0
M  V30 3010 O 293.436 4.38095 -0.0204675 0
M  V30 3011 C 294.937 4.0703 1.75617 0
M  V30 3012 H 292.157 0.660596 0.117704 0
M  V30 3013 H 294.701 2.02451 -0.288751 0
M  V30 3014 H 292.856 3.46383 1.73486 0
M  V30 3015 H 293.27 5.22973 0.399952 0
M  V30 3016 H 294.744 5.10271 2.10542 0
M  V30 3017 H 295.221 3.49819 2.65563 0
M  V30 3018 H 295.827 4.1086 1.09882 0
M  V30 3019 N 294.142 -0.090211 1.57342 0
M  V30 3020 C 295.075 -1.14035 1.97664 0
M  V30 3021 C 296.053 -1.38576 0.850616 0
M  V30 3022 O 297.237 -1.52255 1.11134 0
M  V30 3023 C 294.364 -2.48854 2.2976 0
M  V30 3024 C 293.41 -2.40564 3.52181 0
M  V30 3025 S 294.243 -1.81745 5.03715 0
M  V30 3026 C 295.399 -3.18178 5.38993 0
M  V30 3027 H 295.632 -0.796636 2.86428 0
M  V30 3028 H 293.165 -0.298072 1.51496 0
M  V30 3029 H 295.123 -3.26413 2.48927 0
M  V30 3030 H 293.784 -2.80393 1.41558 0
M  V30 3031 H 292.977 -3.39942 3.72096 0
M  V30 3032 H 292.579 -1.71135 3.32549 0
M  V30 3033 H 294.871 -4.14461 5.35937 0
M  V30 3034 H 295.814 -3.03062 6.39968 0
M  V30 3035 H 296.222 -3.17935 4.66452 0
M  V30 3036 N 295.62 -1.53406 -0.361157 0
M  V30 3037 C 296.867 -1.69802 -1.10333 0
M  V30 3038 C 297.195 -0.452087 -1.89173 0
M  V30 3039 O 296.45 0.566017 -1.87336 0
M  V30 3040 C 296.749 -2.90211 -2.08596 0
M  V30 3041 C 296.415 -4.26539 -1.46203 0
M  V30 3042 C 295.077 -4.6361 -1.28915 0
M  V30 3043 C 297.429 -5.113 -1.01101 0
M  V30 3044 C 294.757 -5.83075 -0.651157 0
M  V30 3045 C 297.109 -6.31415 -0.387007 0
M  V30 3046 C 295.773 -6.67195 -0.201657 0
M  V30 3047 H 295.043 -0.621351 -0.403737 0
M  V30 3048 H 297.69 -1.87598 -0.384609 0
M  V30 3049 H 295.995 -2.66946 -2.86788 0
M  V30 3050 H 297.692 -3.00091 -2.65982 0
M  V30 3051 H 294.282 -3.97352 -1.60653 0
M  V30 3052 H 298.466 -4.83206 -1.13249 0
M  V30 3053 H 293.722 -6.09385 -0.496006 0
M  V30 3054 H 297.896 -6.96394 -0.0293563 0
M  V30 3055 H 295.523 -7.59628 0.294766 0
M  V30 3056 N 297.098 0.621204 -1.44841 0
M  V30 3057 C 298.323 1.41244 -1.51871 0
M  V30 3058 C 298.748 1.87519 -0.147764 0
M  V30 3059 O 298.106 1.59334 0.865 0
M  V30 3060 C 298.154 2.60221 -2.49634 0
M  V30 3061 O 297.258 3.60395 -2.00473 0
M  V30 3062 H 296.599 0.42223 -0.512463 0
M  V30 3063 H 299.129 0.757305 -1.90069 0
M  V30 3064 H 299.139 3.0764 -2.67996 0
M  V30 3065 H 297.814 2.25887 -3.4921 0
M  V30 3066 H 296.391 3.19717 -1.91925 0
M  V30 3067 N 298.576 1.31904 0.862503 0
M  V30 3068 C 299.508 1.16005 1.97675 0
M  V30 3069 C 300.521 0.0971234 1.6251 0
M  V30 3070 O 301.71 0.345337 1.75128 0
M  V30 3071 C 298.81 0.751791 3.30456 0
M  V30 3072 C 297.983 1.90133 3.93914 0
M  V30 3073 C 297.042 1.4779 5.05019 0
M  V30 3074 O 296.068 2.18872 5.25437 0
M  V30 3075 N 297.27 0.369491 5.79323 0
M  V30 3076 H 300.035 2.11982 2.11857 0
M  V30 3077 H 297.596 1.24337 1.03691 0
M  V30 3078 H 299.588 0.451084 4.02178 0
M  V30 3079 H 298.158 -0.116593 3.12382 0
M  V30 3080 H 297.378 2.36896 3.15078 0
M  V30 3081 H 298.666 2.67111 4.33047 0
M  V30 3082 H 298.064 -0.222299 5.65263 0
M  V30 3083 H 296.621 0.128354 6.51674 0
M  V30 3084 N 300.054 -1.07777 1.14986 0
M  V30 3085 C 301.3 -1.80557 0.923422 0
M  V30 3086 C 301.633 -1.86298 -0.548337 0
M  V30 3087 O 300.908 -1.34354 -1.40639 0
M  V30 3088 C 301.191 -3.25839 1.53299 0
M  V30 3089 C 301.044 -3.28269 3.07505 0
M  V30 3090 C 302.363 -4.22991 1.21518 0
M  V30 3091 H 299.482 -0.655493 0.336894 0
M  V30 3092 H 302.124 -1.26144 1.42083 0
M  V30 3093 H 300.274 -3.72306 1.10999 0
M  V30 3094 H 301.946 -2.90079 3.58681 0
M  V30 3095 H 300.189 -2.67355 3.4162 0
M  V30 3096 H 300.86 -4.30691 3.45266 0
M  V30 3097 H 303.336 -3.84894 1.581 0
M  V30 3098 H 302.212 -5.22945 1.66793 0
M  V30 3099 H 302.473 -4.41904 0.131505 0
M  V30 3100 N 301.532 -0.945985 -1.26051 0
M  V30 3101 C 302.948 -0.649045 -1.45807 0
M  V30 3102 C 303.148 0.796158 -1.85104 0
M  V30 3103 O 302.204 1.57233 -1.97571 0
M  V30 3104 C 303.517 -1.61458 -2.53677 0
M  V30 3105 C 305.065 -1.62481 -2.67524 0
M  V30 3106 C 305.54 -2.57776 -3.7857 0
M  V30 3107 N 307.031 -2.5609 -3.85969 0
M  V30 3108 C 307.766 -3.26508 -4.7136 0
M  V30 3109 N 307.262 -4.0637 -5.61102 0
M  V30 3110 N 309.055 -3.15437 -4.65248 0
M  V30 3111 H 301.206 -1.88005 -0.988328 0
M  V30 3112 H 303.469 -0.808198 -0.4955 0
M  V30 3113 H 303.175 -2.64644 -2.31638 0
M  V30 3114 H 303.049 -1.37036 -3.51427 0
M  V30 3115 H 305.436 -0.600167 -2.88933 0
M  V30 3116 H 305.517 -1.90958 -1.70202 0
M  V30 3117 H 305.161 -3.60361 -3.57913 0
M  V30 3118 H 305.091 -2.26587 -4.75359 0
M  V30 3119 H 307.582 -1.98105 -3.21812 0
M  V30 3120 H 307.895 -4.57042 -6.23164 0
M  V30 3121 H 306.24 -4.10469 -5.60839 0
M  V30 3122 H 309.431 -2.52525 -3.94143 0
M  V30 3123 H 309.604 -3.70584 -5.31575 0
M  V30 3124 N 303.011 1.40521 -0.713556 0
M  V30 3125 C 304.239 2.05237 -0.261775 0
M  V30 3126 C 304.654 1.53755 1.09567 0
M  V30 3127 O 304.011 0.693268 1.6882 0
M  V30 3128 C 304.062 3.60763 -0.230706 0
M  V30 3129 O 303.783 4.10345 -1.53455 0
M  V30 3130 C 305.284 4.42651 0.239874 0
M  V30 3131 H 302.504 0.660533 -0.118057 0
M  V30 3132 H 305.048 1.79967 -0.971192 0
M  V30 3133 H 303.203 3.8501 0.429661 0
M  V30 3134 H 303.617 5.04526 -1.43366 0
M  V30 3135 H 305.091 5.51599 0.210468 0
M  V30 3136 H 305.568 4.20082 1.28171 0
M  V30 3137 H 306.174 4.23507 -0.390142 0
M  V30 3138 N 304.489 0.459591 1.5075 0
M  V30 3139 C 305.419 -0.330644 2.31147 0
M  V30 3140 C 306.4 -1.00087 1.37538 0
M  V30 3141 O 307.585 -1.00025 1.66459 0
M  V30 3142 C 304.715 -1.41958 3.16962 0
M  V30 3143 C 303.669 -0.871608 4.19031 0
M  V30 3144 C 302.995 -2.05797 4.9351 0
M  V30 3145 C 304.295 0.109251 5.22186 0
M  V30 3146 H 305.989 0.340336 2.97459 0
M  V30 3147 H 303.535 0.165119 1.4305 0
M  V30 3148 H 305.488 -1.9798 3.71997 0
M  V30 3149 H 304.212 -2.11917 2.48513 0
M  V30 3150 H 302.871 -0.333442 3.6508 0
M  V30 3151 H 302.519 -2.74427 4.21544 0
M  V30 3152 H 302.219 -1.6976 5.62544 0
M  V30 3153 H 303.743 -2.62331 5.51375 0
M  V30 3154 H 305.157 -0.361405 5.7216 0
M  V30 3155 H 303.554 0.383316 5.98875 0
M  V30 3156 H 304.624 1.03887 4.73641 0
M  V30 3157 N 305.967 -1.56429 0.191757 0
M  V30 3158 C 307.378 -1.83912 -0.321428 0
M  V30 3159 C 307.729 -1.11231 -1.61623 0
M  V30 3160 O 306.854 -0.37202 -2.13178 0
M  V30 3161 C 307.449 -3.33624 -0.589961 0
M  V30 3162 C 306.008 -3.6153 -1.04753 0
M  V30 3163 C 305.155 -2.7714 -0.0943327 0
M  V30 3164 H 308.106 -1.53161 0.415612 0
M  V30 3165 H 308.127 -3.52213 -1.43966 0
M  V30 3166 H 307.639 -3.86495 0.352588 0
M  V30 3167 H 305.74 -3.14089 -2.00447 0
M  V30 3168 H 305.853 -4.69737 -0.942549 0
M  V30 3169 H 304.217 -2.47638 -0.595589 0
M  V30 3170 H 305 -3.32799 0.842601 0
M  V30 3171 N 307.445 0.0818655 -1.57387 0
M  V30 3172 C 308.861 0.436412 -1.53517 0
M  V30 3173 C 309.061 1.79758 -0.910459 0
M  V30 3174 O 308.117 2.47324 -0.508636 0
M  V30 3175 C 309.43 0.386734 -2.98203 0
M  V30 3176 C 310.978 0.467644 -3.09487 0
M  V30 3177 C 311.453 0.447978 -4.55804 0
M  V30 3178 N 312.944 0.508348 -4.60402 0
M  V30 3179 C 313.679 0.515184 -5.71081 0
M  V30 3180 N 313.175 0.477435 -6.91153 0
M  V30 3181 N 314.968 0.560988 -5.59294 0
M  V30 3182 H 307.119 -0.809546 -1.96367 0
M  V30 3183 H 309.382 -0.302733 -0.898363 0
M  V30 3184 H 309.088 -0.546539 -3.47427 0
M  V30 3185 H 308.962 1.20075 -3.57578 0
M  V30 3186 H 311.349 1.39134 -2.60242 0
M  V30 3187 H 311.43 -0.374753 -2.5304 0
M  V30 3188 H 311.074 -0.471826 -5.05704 0
M  V30 3189 H 311.004 1.30777 -5.10103 0
M  V30 3190 H 313.495 0.54218 -3.7399 0
M  V30 3191 H 313.808 0.486299 -7.71268 0
M  V30 3192 H 312.153 0.444278 -6.93579 0
M  V30 3193 H 315.344 0.5881 -4.64391 0
M  V30 3194 H 315.517 0.562846 -6.45551 0
M  V30 3195 N 308.923 1.53595 0.353017 0
M  V30 3196 C 310.171 1.70049 1.09215 0
M  V30 3197 C 310.492 0.461406 1.89463 0
M  V30 3198 O 309.762 -0.524633 1.88744 0
M  V30 3199 H 308.342 0.626912 0.40619 0
M  V30 3200 H 311.004 1.90822 0.396585 0
M  V30 3201 H 310.1 2.56718 1.77488 0
M  V30 3202 N 310.401 -0.613514 1.45168 0
M  V30 3203 C 311.626 -1.40437 1.52618 0
M  V30 3204 C 312.051 -1.87438 0.157707 0
M  V30 3205 O 311.409 -1.59791 -0.856537 0
M  V30 3206 C 311.457 -2.58894 2.51011 0
M  V30 3207 O 310.561 -3.59326 2.02382 0
M  V30 3208 H 309.902 -0.419506 0.514695 0
M  V30 3209 H 312.432 -0.747215 1.90467 0
M  V30 3210 H 312.442 -3.06214 2.69624 0
M  V30 3211 H 311.117 -2.24032 3.50403 0
M  V30 3212 H 309.694 -3.18695 1.93618 0
M  V30 3213 N 311.879 -1.3236 -0.855495 0
M  V30 3214 C 312.842 -1.21164 -1.94556 0
M  V30 3215 C 313.842 -0.134908 -1.60233 0
M  V30 3216 O 315.032 -0.385249 -1.69887 0
M  V30 3217 C 312.164 -0.863192 -3.29791 0
M  V30 3218 H 313.357 -2.18038 -2.05911 0
M  V30 3219 H 310.91 -1.16179 -1.04557 0
M  V30 3220 H 311.645 0.103769 -3.24134 0
M  V30 3221 H 311.43 -1.64166 -3.56078 0
M  V30 3222 H 312.92 -0.809156 -4.09686 0
M  V30 3223 N 313.357 1.07166 -1.15556 0
M  V30 3224 C 314.267 2.17947 -0.868116 0
M  V30 3225 C 315.283 1.73297 0.156297 0
M  V30 3226 O 316.459 2.01392 -0.0182327 0
M  V30 3227 C 313.524 3.44789 -0.36355 0
M  V30 3228 C 312.585 4.03996 -1.45209 0
M  V30 3229 C 311.818 5.24783 -0.971508 0
M  V30 3230 O 312.041 5.70109 0.182194 0
M  V30 3231 O 310.975 5.75715 -1.75603 0
M  V30 3232 H 314.801 2.4503 -1.79427 0
M  V30 3233 H 312.386 1.16539 -0.934824 0
M  V30 3234 H 314.268 4.21307 -0.0887113 0
M  V30 3235 H 312.943 3.19253 0.534708 0
M  V30 3236 H 311.85 3.29009 -1.78056 0
M  V30 3237 H 313.183 4.33808 -2.32533 0
M  V30 3238 N 314.835 0.952656 1.25548 0
M  V30 3239 C 315.798 0.475794 2.24207 0
M  V30 3240 C 316.798 -0.419428 1.55234 0
M  V30 3241 O 317.988 -0.216994 1.72843 0
M  V30 3242 C 315.12 -0.312814 3.39462 0
M  V30 3243 H 316.313 1.34779 2.67908 0
M  V30 3244 H 313.866 0.735739 1.37901 0
M  V30 3245 H 314.601 -1.20257 3.01179 0
M  V30 3246 H 314.386 0.329404 3.90714 0
M  V30 3247 H 315.876 -0.635986 4.12729 0
M  V30 3248 N 316.313 -1.40141 0.720998 0
M  V30 3249 C 317.245 -2.29177 0.0324669 0
M  V30 3250 C 318.258 -1.46105 -0.718126 0
M  V30 3251 O 319.447 -1.69335 -0.564608 0
M  V30 3252 C 316.547 -3.24473 -0.978292 0
M  V30 3253 C 315.72 -4.36423 -0.292115 0
M  V30 3254 C 314.779 -5.12122 -1.20901 0
M  V30 3255 O 313.805 -5.64981 -0.691766 0
M  V30 3256 N 315.007 -5.21992 -2.53978 0
M  V30 3257 H 317.772 -2.88909 0.796984 0
M  V30 3258 H 315.333 -1.51569 0.569068 0
M  V30 3259 H 317.325 -3.71987 -1.59398 0
M  V30 3260 H 315.895 -2.65871 -1.64413 0
M  V30 3261 H 315.115 -3.90967 0.503847 0
M  V30 3262 H 316.403 -5.08467 0.183971 0
M  V30 3263 H 315.801 -4.8054 -2.98493 0
M  V30 3264 H 314.358 -5.72995 -3.10677 0
M  V30 3265 N 317.792 -0.46758 -1.50504 0
M  V30 3266 C 319.022 0.086288 -2.0642 0
M  V30 3267 C 319.43 1.34369 -1.33197 0
M  V30 3268 O 318.773 1.79431 -0.393747 0
M  V30 3269 C 318.835 0.443846 -3.5675 0
M  V30 3270 C 318.499 -0.711035 -4.51435 0
M  V30 3271 C 319.496 -1.59205 -4.94924 0
M  V30 3272 C 317.181 -0.900363 -4.94165 0
M  V30 3273 C 319.175 -2.64683 -5.79846 0
M  V30 3274 C 316.862 -1.95837 -5.7887 0
M  V30 3275 C 317.86 -2.82997 -6.21612 0
M  V30 3276 O 317.548 -3.86977 -7.0463 0
M  V30 3277 H 317.28 -0.00217814 -0.675996 0
M  V30 3278 H 319.834 -0.654346 -1.94698 0
M  V30 3279 H 318.064 1.23762 -3.6636 0
M  V30 3280 H 319.753 0.932386 -3.95046 0
M  V30 3281 H 320.519 -1.45745 -4.62583 0
M  V30 3282 H 316.398 -0.231427 -4.60419 0
M  V30 3283 H 319.942 -3.32745 -6.13128 0
M  V30 3284 H 315.839 -2.09305 -6.10624 0
M  V30 3285 H 316.607 -3.83923 -7.22873 0
M  V30 3286 N 319.27 1.56325 -0.20005 0
M  V30 3287 C 320.51 1.99619 0.439519 0
M  V30 3288 C 320.874 1.08423 1.58456 0
M  V30 3289 O 322.075 1.40973 2.28867 0
M  V30 3290 C 320.346 3.46314 0.883258 0
M  V30 3291 S 321.905 4.11634 1.51997 0
M  V30 3292 H 318.723 0.697007 0.140363 0
M  V30 3293 H 321.325 1.93118 -0.304282 0
M  V30 3294 H 320.029 4.10381 0.0398967 0
M  V30 3295 H 319.56 3.56643 1.6604 0
M  V30 3296 H 321.575 4.09049 2.8088 0
M  V30 3297 N 320.748 -0.0735177 1.57428 0
M  V30 3298 C 321.658 -1.10547 2.06922 0
M  V30 3299 C 322.674 -1.42506 0.998402 0
M  V30 3300 O 323.85 -1.52717 1.31299 0
M  V30 3301 C 320.915 -2.40019 2.50184 0
M  V30 3302 C 319.976 -2.15046 3.71556 0
M  V30 3303 C 319.209 -3.38345 4.12745 0
M  V30 3304 O 319.432 -4.47399 3.53822 0
M  V30 3305 O 318.366 -3.2666 5.05546 0
M  V30 3306 H 322.192 -0.715013 2.95163 0
M  V30 3307 H 319.777 -0.287531 1.46607 0
M  V30 3308 H 321.659 -3.16218 2.78539 0
M  V30 3309 H 320.334 -2.78447 1.65072 0
M  V30 3310 H 319.241 -1.36558 3.48285 0
M  V30 3311 H 320.574 -1.81499 4.57514 0
M  V30 3312 N 322.226 -1.5378 -0.344866 0
M  V30 3313 C 323.156 -1.84662 -1.42906 0
M  V30 3314 C 324.137 -0.701648 -1.54955 0
M  V30 3315 O 325.322 -0.953438 -1.69184 0
M  V30 3316 C 322.452 -2.05503 -2.79974 0
M  V30 3317 C 321.406 -3.21318 -2.82734 0
M  V30 3318 C 320.732 -3.2749 -4.22675 0
M  V30 3319 C 322.032 -4.59456 -2.48389 0
M  V30 3320 H 323.726 -2.75461 -1.17311 0
M  V30 3321 H 321.272 -1.32542 -0.562896 0
M  V30 3322 H 323.225 -2.25691 -3.55867 0
M  V30 3323 H 321.949 -1.11434 -3.07002 0
M  V30 3324 H 320.608 -3.00984 -2.09294 0
M  V30 3325 H 320.256 -2.31019 -4.4681 0
M  V30 3326 H 319.956 -4.05316 -4.25433 0
M  V30 3327 H 321.48 -3.49887 -5.00412 0
M  V30 3328 H 322.894 -4.79667 -3.13995 0
M  V30 3329 H 321.291 -5.39675 -2.62432 0
M  V30 3330 H 322.361 -4.63155 -1.4358 0
M  V30 3331 N 323.704 0.605807 -1.45491 0
M  V30 3332 C 324.981 1.36522 -1.40075 0
M  V30 3333 C 325.361 2.10976 -0.0722744 0
M  V30 3334 O 324.709 2.08007 0.945808 0
M  V30 3335 C 324.919 2.31056 -2.61561 0
M  V30 3336 C 326.267 2.93608 -3.06724 0
M  V30 3337 O 327.291 2.41376 -2.61946 0
M  V30 3338 O 326.15 3.88421 -3.84437 0
M  V30 3339 H 323.244 0.612248 -0.555951 0
M  V30 3340 H 325.79 0.628747 -1.57623 0
M  V30 3341 H 324.562 1.75311 -3.49831 0
M  V30 3342 H 324.185 3.12081 -2.46356 0
M  V30 3343 N 325.182 1.32811 0.848464 0
M  V30 3344 C 326.428 1.23907 1.60546 0
M  V30 3345 C 326.761 -0.197161 1.93197 0
M  V30 3346 O 326.036 -1.13596 1.5788 0
M  V30 3347 C 326.319 2.10489 2.92175 0
M  V30 3348 C 326.172 3.62522 2.66266 0
M  V30 3349 C 327.491 1.97075 3.93509 0
M  V30 3350 H 324.61 0.451459 0.58254 0
M  V30 3351 H 327.252 1.62818 0.979296 0
M  V30 3352 H 325.402 1.77434 3.45614 0
M  V30 3353 H 327.074 4.05821 2.19334 0
M  V30 3354 H 325.317 3.84879 2.00126 0
M  V30 3355 H 325.988 4.18437 3.6002 0
M  V30 3356 H 328.464 2.26045 3.49346 0
M  V30 3357 H 327.34 2.59923 4.83457 0
M  V30 3358 H 327.601 0.940186 4.31987 0
M  V30 3359 N 326.66 -1.06551 1.16123 0
M  V30 3360 C 327.906 -1.79567 0.94252 0
M  V30 3361 C 328.239 -1.86869 -0.528547 0
M  V30 3362 O 327.514 -1.35838 -1.39206 0
M  V30 3363 C 327.797 -3.24195 1.56747 0
M  V30 3364 C 327.65 -3.24989 3.10969 0
M  V30 3365 C 328.969 -4.21678 1.25998 0
M  V30 3366 H 326.088 -0.651883 0.343828 0
M  V30 3367 H 328.73 -1.2463 1.43413 0
M  V30 3368 H 326.88 -3.71107 1.14942 0
M  V30 3369 H 328.552 -2.86258 3.61737 0
M  V30 3370 H 326.795 -2.63716 3.44436 0
M  V30 3371 H 327.466 -4.27005 3.49815 0
M  V30 3372 H 329.942 -3.83196 1.62174 0
M  V30 3373 H 328.818 -5.21146 1.7233 0
M  V30 3374 H 329.079 -4.4174 0.178367 0
M  V30 3375 N 328.138 -0.959301 -1.25041 0
M  V30 3376 C 329.549 -0.65667 -1.74771 0
M  V30 3377 C 329.9 0.827852 -1.77879 0
M  V30 3378 O 329.025 1.64783 -1.40269 0
M  V30 3379 C 329.62 -1.1853 -3.1739 0
M  V30 3380 C 328.179 -0.932734 -3.6466 0
M  V30 3381 C 327.326 -1.32558 -2.43564 0
M  V30 3382 H 330.277 -1.13558 -1.10862 0
M  V30 3383 H 330.298 -0.547582 -3.76539 0
M  V30 3384 H 329.81 -2.26576 -3.15095 0
M  V30 3385 H 327.911 0.13257 -3.72364 0
M  V30 3386 H 328.024 -1.57248 -4.52559 0
M  V30 3387 H 326.388 -0.743956 -2.43593 0
M  V30 3388 H 327.171 -2.41537 -2.43957 0
M  V30 3389 N 329.616 1.39756 -0.72842 0
M  V30 3390 C 330.864 2.00248 -0.272946 0
M  V30 3391 C 331.185 1.58077 1.14178 0
M  V30 3392 O 330.455 0.826014 1.77634 0
M  V30 3393 H 329.035 0.740554 -0.0979247 0
M  V30 3394 H 331.697 1.70903 -0.936912 0
M  V30 3395 H 330.793 3.10495 -0.316142 0
M  V30 3396 N 331.094 0.475555 1.50254 0
M  V30 3397 C 332.371 -0.139685 1.95101 0
M  V30 3398 C 332.751 -1.56555 1.41611 0
M  V30 3399 O 332.099 -2.19956 0.618993 0
M  V30 3400 C 332.309 -0.0784298 3.48912 0
M  V30 3401 C 333.657 -0.265095 4.23772 0
M  V30 3402 O 334.681 -0.154808 3.55863 0
M  V30 3403 O 333.54 -0.488327 5.44314 0
M  V30 3404 H 330.634 -0.109236 0.819754 0
M  V30 3405 H 333.18 0.536276 1.61004 0
M  V30 3406 H 331.952 0.916918 3.80405 0
M  V30 3407 H 331.575 -0.795655 3.89558 0
M  V30 3408 N 332.573 -1.56217 0.208337 0
M  V30 3409 C 333.503 -2.22694 -0.702116 0
M  V30 3410 C 334.484 -1.19432 -1.2112 0
M  V30 3411 O 335.669 -1.47978 -1.25762 0
M  V30 3412 C 332.799 -2.8966 -1.9161 0
M  V30 3413 C 331.753 -3.9928 -1.5414 0
M  V30 3414 C 331.079 -4.53476 -2.83308 0
M  V30 3415 C 332.379 -5.17012 -0.741339 0
M  V30 3416 H 334.073 -2.99034 -0.147898 0
M  V30 3417 H 331.619 -1.43831 -0.0696951 0
M  V30 3418 H 333.572 -3.34852 -2.55836 0
M  V30 3419 H 332.296 -2.10746 -2.49507 0
M  V30 3420 H 330.955 -3.54799 -0.922668 0
M  V30 3421 H 330.603 -3.71308 -3.39322 0
M  V30 3422 H 330.303 -5.27451 -2.58976 0
M  V30 3423 H 331.827 -5.01378 -3.485 0
M  V30 3424 H 333.241 -5.58667 -1.28699 0
M  V30 3425 H 331.638 -5.97137 -0.595627 0
M  V30 3426 H 332.708 -4.8423 0.254851 0
M  V30 3427 N 334.051 0.0651679 -1.57465 0
M  V30 3428 C 334.999 1.09542 -2.05191 0
M  V30 3429 C 335.993 1.39675 -0.958509 0
M  V30 3430 O 337.199 1.39003 -1.14359 0
M  V30 3431 H 333.574 0.370623 -0.654326 0
M  V30 3432 H 335.545 0.666802 -2.90854 0
M  V30 3433 C 334.294 2.39881 -2.51699 0
M  V30 3434 H 333.617 2.17547 -3.3543 0
M  V30 3435 H 335.057 3.104 -2.88839 0
M  V30 3436 C 333.516 3.0631 -1.40271 0
M  V30 3437 O 334.046 3.94664 -0.748523 0
M  V30 3438 N 332.252 2.67041 -1.14618 0
M  V30 3439 H 331.799 1.95281 -1.67997 0
M  V30 3440 H 331.757 3.1181 -0.402688 0
M  V30 3441 N 335.529 1.53961 0.336706 0
M  V30 3442 C 336.945 1.44378 0.680241 0
M  V30 3443 C 337.145 0.606034 1.9217 0
M  V30 3444 O 336.201 0.099688 2.52303 0
M  V30 3445 C 337.514 2.87945 0.8665 0
M  V30 3446 C 339.062 2.97763 0.964682 0
M  V30 3447 C 339.537 4.42453 1.18321 0
M  V30 3448 N 341.028 4.46008 1.25025 0
M  V30 3449 C 341.763 5.55102 1.43697 0
M  V30 3450 N 341.259 6.7419 1.59498 0
M  V30 3451 N 343.052 5.42727 1.463 0
M  V30 3452 H 335.203 2.06918 -0.479455 0
M  V30 3453 H 337.466 0.935634 -0.152619 0
M  V30 3454 H 337.172 3.51691 0.0256937 0
M  V30 3455 H 337.046 3.33293 1.76623 0
M  V30 3456 H 339.433 2.34153 1.796 0
M  V30 3457 H 339.514 2.55766 0.041708 0
M  V30 3458 H 339.158 5.06645 0.356788 0
M  V30 3459 H 339.088 4.82048 2.11985 0
M  V30 3460 H 341.579 3.60196 1.14312 0
M  V30 3461 H 341.892 7.53095 1.734 0
M  V30 3462 H 340.237 6.77123 1.56621 0
M  V30 3463 H 343.428 4.48647 1.33543 0
M  V30 3464 H 343.601 6.27806 1.6051 0
M  V30 3465 N 337.007 -0.598083 1.45811 0
M  V30 3466 C 338.254 -1.35681 1.50323 0
M  V30 3467 C 338.582 -1.9393 0.148739 0
M  V30 3468 O 337.837 -1.76094 -0.853787 0
M  V30 3469 C 338.136 -2.51669 2.53766 0
M  V30 3470 C 337.802 -2.11508 3.98215 0
M  V30 3471 C 336.464 -2.0027 4.37545 0
M  V30 3472 C 338.816 -1.80308 4.89018 0
M  V30 3473 C 336.144 -1.56067 5.65562 0
M  V30 3474 C 338.496 -1.37589 6.17456 0
M  V30 3475 C 337.16 -1.24916 6.55708 0
M  V30 3476 H 336.43 -0.496492 0.550069 0
M  V30 3477 H 339.077 -0.675052 1.79207 0
M  V30 3478 H 337.382 -3.25225 2.18486 0
M  V30 3479 H 339.079 -3.09895 2.54492 0
M  V30 3480 H 335.669 -2.21185 3.67117 0
M  V30 3481 H 339.853 -1.87884 4.59362 0
M  V30 3482 H 335.109 -1.44886 5.93985 0
M  V30 3483 H 339.283 -1.12495 6.87254 0
M  V30 3484 H 336.91 -0.904386 7.54801 0
M  V30 3485 N 338.485 -1.33259 -0.841409 0
M  V30 3486 C 339.713 -1.27605 -1.62864 0
M  V30 3487 C 340.128 0.153507 -1.88175 0
M  V30 3488 O 339.485 1.09485 -1.46011 0
M  V30 3489 C 339.536 -2.04596 -2.98031 0
M  V30 3490 O 339.257 -3.41975 -2.73834 0
M  V30 3491 C 340.758 -2.06122 -3.92465 0
M  V30 3492 H 337.978 -0.439718 -0.506842 0
M  V30 3493 H 340.522 -1.75591 -1.04824 0
M  V30 3494 H 338.677 -1.60299 -3.5268 0
M  V30 3495 H 339.091 -3.81549 -3.59889 0
M  V30 3496 H 340.565 -2.64451 -4.84531 0
M  V30 3497 H 341.042 -1.05083 -4.26444 0
M  V30 3498 H 341.648 -2.50427 -3.43753 0
M  V30 3499 N 339.963 1.05934 -1.16686 0
M  V30 3500 C 340.893 2.1546 -0.899949 0
M  V30 3501 C 341.874 1.69391 0.155154 0
M  V30 3502 O 343.059 1.94199 0.00648693 0
M  V30 3503 C 340.189 3.44939 -0.404241 0
M  V30 3504 C 339.143 4.04536 -1.39767 0
M  V30 3505 C 338.469 5.29268 -0.760216 0
M  V30 3506 C 339.769 4.42893 -2.76845 0
M  V30 3507 H 341.463 2.38046 -1.81588 0
M  V30 3508 H 339.009 1.14404 -0.874514 0
M  V30 3509 H 340.962 4.20901 -0.204971 0
M  V30 3510 H 339.686 3.21983 0.547206 0
M  V30 3511 H 338.345 3.30635 -1.58355 0
M  V30 3512 H 337.993 5.02611 0.197831 0
M  V30 3513 H 337.693 5.70101 -1.42332 0
M  V30 3514 H 339.217 6.07924 -0.57105 0
M  V30 3515 H 340.631 5.09921 -2.62019 0
M  V30 3516 H 339.028 4.94721 -3.39663 0
M  V30 3517 H 340.098 3.53584 -3.31823 0
M  V30 3518 N 341.441 0.965919 1.2453 0
M  V30 3519 C 342.669 0.644385 1.96609 0
M  V30 3520 C 343.084 -0.785823 1.71669 0
M  V30 3521 O 342.441 -1.52703 0.999399 0
M  V30 3522 C 342.492 0.907375 3.49927 0
M  V30 3523 O 342.213 2.28136 3.74013 0
M  V30 3524 C 343.714 0.599784 4.39224 0
M  V30 3525 H 340.934 0.240588 0.626385 0
M  V30 3526 H 343.478 1.29337 1.58405 0
M  V30 3527 H 341.633 0.304631 3.862 0
M  V30 3528 H 342.047 2.36002 4.68405 0
M  V30 3529 H 343.521 0.834263 5.45659 0
M  V30 3530 H 343.998 -0.465921 4.36722 0
M  V30 3531 H 344.604 1.18235 4.08535 0
M  V30 3532 N 342.919 -1.39368 0.735821 0
M  V30 3533 C 344.167 -2.00101 0.283562 0
M  V30 3534 C 344.488 -1.5868 -1.13338 0
M  V30 3535 O 343.758 -0.835423 -1.77193 0
M  V30 3536 H 342.338 -0.740024 0.101851 0
M  V30 3537 H 345 -1.70404 0.945962 0
M  V30 3538 H 344.096 -3.10323 0.332604 0
M  V30 3539 N 344.397 -0.483516 -1.5 0
M  V30 3540 C 345.637 0.0657469 -2.04294 0
M  V30 3541 C 346.001 1.35869 -1.35659 0
M  V30 3542 O 347.202 1.99111 -1.80578 0
M  V30 3543 C 345.473 0.232758 -3.56641 0
M  V30 3544 S 347.032 0.738788 -4.32536 0
M  V30 3545 H 343.85 0.0100755 -0.710929 0
M  V30 3546 H 346.452 -0.653494 -1.84254 0
M  V30 3547 H 345.156 -0.713847 -4.04144 0
M  V30 3548 H 344.687 0.977751 -3.81056 0
M  V30 3549 H 346.702 2.01048 -4.53645 0
M  V30 3550 N 345.875 1.56104 -0.216619 0
M  V30 3551 C 346.805 2.23063 0.690296 0
M  V30 3552 C 347.786 1.20072 1.20485 0
M  V30 3553 O 348.971 1.48643 1.24976 0
M  V30 3554 C 346.101 2.90672 1.90072 0
M  V30 3555 C 345.055 4.00092 1.5202 0
M  V30 3556 C 344.381 4.54972 2.80899 0
M  V30 3557 C 345.681 5.17398 0.71391 0
M  V30 3558 H 347.375 2.99109 0.132038 0
M  V30 3559 H 344.921 1.43866 0.0620664 0
M  V30 3560 H 346.874 3.36204 2.54057 0
M  V30 3561 H 345.598 2.12066 2.48386 0
M  V30 3562 H 344.257 3.55283 0.903839 0
M  V30 3563 H 343.905 3.73102 3.37348 0
M  V30 3564 H 343.605 5.28817 2.56176 0
M  V30 3565 H 345.129 5.0322 3.45836 0
M  V30 3566 H 346.543 5.59342 1.25735 0
M  V30 3567 H 344.94 5.97444 0.563951 0
M  V30 3568 H 346.01 4.84088 -0.280527 0
M  V30 3569 N 347.353 -0.0568162 1.57498 0
M  V30 3570 C 348.764 -0.606858 1.76562 0
M  V30 3571 C 349.115 -1.77114 0.844094 0
M  V30 3572 O 348.24 -2.16376 0.0318911 0
M  V30 3573 C 348.835 -1.10766 3.20182 0
M  V30 3574 C 347.394 -1.60344 3.40539 0
M  V30 3575 C 346.541 -0.529311 2.72201 0
M  V30 3576 H 349.492 0.169393 1.57793 0
M  V30 3577 H 349.513 -1.97602 3.25167 0
M  V30 3578 H 349.025 -0.26006 3.87228 0
M  V30 3579 H 347.126 -2.47379 2.78629 0
M  V30 3580 H 347.239 -1.67006 4.4905 0
M  V30 3581 H 345.603 -0.977893 2.35179 0
M  V30 3582 H 346.386 0.308352 3.41912 0
M  V30 3583 N 348.832 -1.54138 -0.328536 0
M  V30 3584 C 349.764 -1.79509 -1.4251 0
M  V30 3585 C 350.777 -0.67688 -1.48061 0
M  V30 3586 O 351.966 -0.953898 -1.50874 0
M  V30 3587 C 349.066 -1.89337 -2.81078 0
M  V30 3588 C 348.239 -3.19443 -2.98789 0
M  V30 3589 C 347.298 -3.20036 -4.17688 0
M  V30 3590 O 346.324 -3.93697 -4.11086 0
M  V30 3591 N 347.526 -2.43467 -5.26976 0
M  V30 3592 H 350.291 -2.74139 -1.21111 0
M  V30 3593 H 347.852 -1.53373 -0.518499 0
M  V30 3594 H 349.844 -1.87167 -3.58818 0
M  V30 3595 H 348.414 -1.01826 -2.95551 0
M  V30 3596 H 347.634 -3.34614 -2.08391 0
M  V30 3597 H 348.922 -4.05354 -3.07515 0
M  V30 3598 H 348.32 -1.83201 -5.35214 0
M  V30 3599 H 346.877 -2.4708 -6.03154 0
M  V30 3600 N 350.31 0.590341 -1.46126 0
M  V30 3601 C 351.726 0.912917 -1.30912 0
M  V30 3602 C 351.926 1.99616 -0.274893 0
M  V30 3603 O 350.982 2.50397 0.325197 0
M  V30 3604 C 352.295 1.3375 -2.69317 0
M  V30 3605 C 353.843 1.45077 -2.77348 0
M  V30 3606 C 354.318 1.90904 -4.16317 0
M  V30 3607 N 355.809 1.9811 -4.18696 0
M  V30 3608 C 356.544 2.34828 -5.23109 0
M  V30 3609 N 356.04 2.70393 -6.37856 0
M  V30 3610 N 357.833 2.35317 -5.10473 0
M  V30 3611 H 349.984 -0.125358 -2.1203 0
M  V30 3612 H 352.247 0.00658481 -0.947977 0
M  V30 3613 H 351.953 0.615614 -3.4627 0
M  V30 3614 H 351.827 2.30058 -2.9892 0
M  V30 3615 H 354.214 2.16353 -2.00687 0
M  V30 3616 H 354.295 0.4704 -2.51438 0
M  V30 3617 H 353.939 1.20209 -4.9347 0
M  V30 3618 H 353.869 2.89886 -4.39629 0
M  V30 3619 H 356.36 1.73146 -3.359 0
M  V30 3620 H 356.673 2.97341 -7.13308 0
M  V30 3621 H 355.018 2.68048 -6.41229 0
M  V30 3622 H 358.209 2.0695 -4.19868 0
M  V30 3623 H 358.382 2.63605 -5.9196 0
M  V30 3624 N 351.788 1.33704 0.83433 0
M  V30 3625 C 353.013 1.28615 1.62705 0
M  V30 3626 C 353.438 -0.139242 1.87584 0
M  V30 3627 O 352.796 -1.09734 1.4432 0
M  V30 3628 C 352.844 2.07139 2.95171 0
M  V30 3629 O 351.948 1.4331 3.86699 0
M  V30 3630 H 351.289 0.44226 0.49528 0
M  V30 3631 H 353.819 1.76335 1.03766 0
M  V30 3632 H 353.829 2.18073 3.44831 0
M  V30 3633 H 352.504 3.10779 2.76386 0
M  V30 3634 H 351.081 1.4105 3.45195 0
M  V30 3635 N 353.266 -1.05314 1.17247 0
M  V30 3636 C 354.176 -2.16538 0.90268 0
M  V30 3637 C 355.192 -1.73523 -0.128707 0
M  V30 3638 O 356.368 -2.01337 0.0502701 0
M  V30 3639 C 353.433 -3.44167 0.418356 0
M  V30 3640 C 352.494 -4.01635 1.51618 0
M  V30 3641 C 351.727 -5.23171 1.05487 0
M  V30 3642 O 351.95 -5.70327 -0.0914715 0
M  V30 3643 O 350.884 -5.72848 1.8474 0
M  V30 3644 H 354.71 -2.42145 1.83302 0
M  V30 3645 H 352.295 -1.15037 0.953246 0
M  V30 3646 H 354.177 -4.21112 0.155726 0
M  V30 3647 H 352.852 -3.20063 -0.48385 0
M  V30 3648 H 351.759 -3.26135 1.83268 0
M  V30 3649 H 353.092 -4.30053 2.39405 0
M  V30 3650 N 354.744 -0.972509 -1.24016 0
M  V30 3651 C 356.155 -0.67517 -1.74064 0
M  V30 3652 C 356.506 0.808939 -1.78747 0
M  V30 3653 O 355.631 1.63286 -1.42009 0
M  V30 3654 C 356.226 -1.21889 -3.16115 0
M  V30 3655 C 354.785 -0.971358 -3.6365 0
M  V30 3656 C 353.932 -1.35134 -2.42145 0
M  V30 3657 H 356.883 -1.14727 -1.09651 0
M  V30 3658 H 356.904 -0.587489 -3.75937 0
M  V30 3659 H 356.416 -2.29906 -3.12674 0
M  V30 3660 H 354.517 0.0930686 -3.72484 0
M  V30 3661 H 354.63 -1.62039 -4.50866 0
M  V30 3662 H 352.994 -0.769751 -2.4279 0
M  V30 3663 H 353.777 -2.4411 -2.41381 0
M  V30 3664 N 356.222 1.38976 -0.743202 0
M  V30 3665 C 357.152 2.33171 -0.123873 0
M  V30 3666 C 358.133 1.54336 0.71516 0
M  V30 3667 O 359.318 1.82696 0.658467 0
M  V30 3668 C 356.448 3.38474 0.777978 0
M  V30 3669 C 355.402 4.27979 0.0424758 0
M  V30 3670 C 354.728 5.2405 1.06189 0
M  V30 3671 C 356.028 5.10155 -1.1198 0
M  V30 3672 H 357.722 2.85213 -0.910709 0
M  V30 3673 H 355.268 1.37133 -0.439388 0
M  V30 3674 H 357.221 4.03328 1.22084 0
M  V30 3675 H 355.945 2.84891 1.59702 0
M  V30 3676 H 354.604 3.64616 -0.380853 0
M  V30 3677 H 354.252 4.66758 1.87472 0
M  V30 3678 H 353.952 5.84785 0.574485 0
M  V30 3679 H 355.476 5.9178 1.50428 0
M  V30 3680 H 356.89 5.68307 -0.75499 0
M  V30 3681 H 355.287 5.80073 -1.53738 0
M  V30 3682 H 356.357 4.44504 -1.93764 0
M  V30 3683 N 357.7 0.491464 1.49741 0
M  V30 3684 C 359.111 0.0413169 1.86654 0
M  V30 3685 C 359.462 -1.36985 1.40462 0
M  V30 3686 O 358.587 -2.01917 0.778354 0
M  V30 3687 C 359.182 0.0682023 3.38731 0
M  V30 3688 C 357.741 -0.32656 3.74981 0
M  V30 3689 C 356.888 0.444888 2.73708 0
M  V30 3690 H 359.839 0.704733 1.42194 0
M  V30 3691 H 359.86 -0.729322 3.73445 0
M  V30 3692 H 359.372 1.09539 3.72321 0
M  V30 3693 H 357.473 -1.35734 3.46997 0
M  V30 3694 H 357.586 -0.013741 4.79098 0
M  V30 3695 H 355.95 -0.104062 2.54487 0
M  V30 3696 H 356.733 1.47197 3.10142 0
M  V30 3697 N 359.178 -1.55987 0.224894 0
M  V30 3698 C 360.108 -2.23426 -0.678457 0
M  V30 3699 C 361.089 -1.20709 -1.19847 0
M  V30 3700 O 362.274 -1.49304 -1.24186 0
M  V30 3701 C 359.404 -2.91676 -1.88527 0
M  V30 3702 C 358.358 -4.00893 -1.49896 0
M  V30 3703 C 357.684 -4.56455 -2.78483 0
M  V30 3704 C 358.984 -5.17769 -0.686461 0
M  V30 3705 H 360.678 -2.99175 -0.116173 0
M  V30 3706 H 358.224 -1.43897 -0.054436 0
M  V30 3707 H 360.177 -3.37547 -2.5227 0
M  V30 3708 H 358.901 -2.1338 -2.47258 0
M  V30 3709 H 357.56 -3.55758 -0.884985 0
M  V30 3710 H 357.208 -3.74886 -3.35365 0
M  V30 3711 H 356.908 -5.30169 -2.53368 0
M  V30 3712 H 358.432 -5.05047 -3.43162 0
M  V30 3713 H 359.846 -5.60001 -1.22767 0
M  V30 3714 H 358.243 -5.97735 -0.532259 0
M  V30 3715 H 359.313 -4.83932 0.306196 0
M  V30 3716 N 360.656 0.0484629 -1.57525 0
M  V30 3717 C 361.619 1.03956 -2.04269 0
M  V30 3718 C 362.619 1.30211 -0.943496 0
M  V30 3719 O 363.809 1.25539 -1.20771 0
M  V30 3720 C 360.941 2.37742 -2.44319 0
M  V30 3721 H 362.134 0.636182 -2.93075 0
M  V30 3722 H 359.687 0.294811 -1.53494 0
M  V30 3723 H 360.422 2.82866 -1.5861 0
M  V30 3724 H 360.207 2.20021 -3.24551 0
M  V30 3725 H 361.697 3.08936 -2.80978 0
M  V30 3726 N 362.134 1.5431 0.320358 0
M  V30 3727 C 363.381 1.72668 1.05792 0
M  V30 3728 C 363.709 0.502084 1.87908 0
M  V30 3729 O 362.964 -0.516149 1.88771 0
M  V30 3730 C 363.263 2.95639 2.00828 0
M  V30 3731 C 362.929 4.30265 1.34843 0
M  V30 3732 C 361.591 4.66865 1.16578 0
M  V30 3733 C 363.943 5.13801 0.875095 0
M  V30 3734 C 361.271 5.84597 0.496336 0
M  V30 3735 C 363.623 6.32219 0.219463 0
M  V30 3736 C 362.287 6.67495 0.0246915 0
M  V30 3737 H 361.557 0.631837 0.387121 0
M  V30 3738 H 364.204 1.88552 0.334735 0
M  V30 3739 H 362.509 2.74456 2.79609 0
M  V30 3740 H 364.206 3.07038 2.57932 0
M  V30 3741 H 360.796 4.01472 1.50061 0
M  V30 3742 H 364.98 4.86039 1.00398 0
M  V30 3743 H 360.236 6.10486 0.334264 0
M  V30 3744 H 364.41 6.96227 -0.155291 0
M  V30 3745 H 362.037 7.5858 -0.496065 0
M  V30 3746 N 363.613 -0.582584 1.46437 0
M  V30 3747 C 364.576 -1.67366 1.56592 0
M  V30 3748 C 365.576 -1.54575 0.443072 0
M  V30 3749 O 366.766 -1.59191 0.707381 0
M  V30 3750 C 363.898 -3.06791 1.48634 0
M  V30 3751 H 365.091 -1.5972 2.5383 0
M  V30 3752 H 362.644 -0.800432 1.34249 0
M  V30 3753 H 363.379 -3.19993 0.526763 0
M  V30 3754 H 363.164 -3.17484 2.30101 0
M  V30 3755 H 364.654 -3.86218 1.58826 0
M  V30 3756 N 365.091 -1.34144 -0.827227 0
M  V30 3757 C 366.337 -1.26446 -1.58554 0
M  V30 3758 C 366.67 0.1664 -1.93486 0
M  V30 3759 O 365.945 1.1107 -1.59667 0
M  V30 3760 C 366.228 -2.15111 -2.8879 0
M  V30 3761 C 366.081 -3.66712 -2.60465 0
M  V30 3762 C 367.4 -2.03311 -3.90324 0
M  V30 3763 H 364.519 -0.46067 -0.575284 0
M  V30 3764 H 367.161 -1.64356 -0.953269 0
M  V30 3765 H 365.311 -1.8291 -3.42748 0
M  V30 3766 H 366.983 -4.09259 -2.1285 0
M  V30 3767 H 365.226 -3.88014 -1.93978 0
M  V30 3768 H 365.897 -4.24112 -3.53317 0
M  V30 3769 H 368.373 -2.31574 -3.45706 0
M  V30 3770 H 367.249 -2.67582 -4.79261 0
M  V30 3771 H 367.51 -1.00879 -4.30437 0
M  V30 3772 N 366.569 1.04691 -1.17803 0
M  V30 3773 C 367.501 2.12571 -0.857097 0
M  V30 3774 C 368.514 1.62174 0.142647 0
M  V30 3775 O 369.703 1.78301 -0.0843387 0
M  V30 3776 C 366.803 3.37915 -0.258216 0
M  V30 3777 C 365.976 4.1757 -1.30207 0
M  V30 3778 C 365.035 5.2125 -0.720029 0
M  V30 3779 O 364.061 5.51888 -1.39314 0
M  V30 3780 N 365.263 5.78466 0.485507 0
M  V30 3781 H 368.028 2.40698 -1.78562 0
M  V30 3782 H 365.589 1.20831 -1.07757 0
M  V30 3783 H 367.581 4.04442 0.144584 0
M  V30 3784 H 366.151 3.07281 0.574199 0
M  V30 3785 H 365.371 3.46458 -1.88043 0
M  V30 3786 H 366.659 4.67586 -2.00601 0
M  V30 3787 H 366.057 5.55866 1.05022 0
M  V30 3788 H 364.614 6.4649 0.830307 0
M  V30 3789 N 368.047 0.979072 1.23499 0
M  V30 3790 C 369.324 0.563674 1.87302 0
M  V30 3791 C 369.704 -0.959199 1.88049 0
M  V30 3792 O 369.052 -1.83535 1.36114 0
M  V30 3793 C 369.262 1.16822 3.28867 0
M  V30 3794 C 370.61 1.26014 4.0547 0
M  V30 3795 O 371.634 1.12158 3.38082 0
M  V30 3796 O 370.493 1.48044 5.26066 0
M  V30 3797 H 367.587 0.189602 0.804972 0
M  V30 3798 H 370.133 1.07407 1.31384 0
M  V30 3799 H 368.905 2.21049 3.22883 0
M  V30 3800 H 368.528 0.642564 3.92373 0
M  V30 3801 N 369.525 -1.3858 0.750561 0
M  V30 3802 C 370.773 -1.99789 0.30477 0
M  V30 3803 C 371.094 -1.59874 -1.11649 0
M  V30 3804 O 370.364 -0.85417 -1.76297 0
M  V30 3805 H 368.944 -0.738902 0.109694 0
M  V30 3806 H 371.606 -1.69391 0.963983 0
M  V30 3807 H 370.702 -3.09952 0.365499 0
M  V30 3808 N 371.003 -0.499398 -1.49478 0
M  V30 3809 C 371.966 0.268838 -2.27618 0
M  V30 3810 C 372.966 0.895383 -1.33565 0
M  V30 3811 O 374.156 0.760164 -1.56739 0
M  V30 3812 C 371.288 1.38559 -3.11471 0
M  V30 3813 H 372.481 -0.416812 -2.96989 0
M  V30 3814 H 370.034 -0.254313 -1.54217 0
M  V30 3815 H 370.769 2.10544 -2.46661 0
M  V30 3816 H 370.554 0.941797 -3.80621 0
M  V30 3817 H 372.044 1.92678 -3.70493 0
M  V30 3818 N 372.481 1.55866 -0.233164 0
M  V30 3819 C 373.706 2.03449 0.402906 0
M  V30 3820 C 374.131 1.11166 1.51736 0
M  V30 3821 O 373.489 0.101996 1.81013 0
M  V30 3822 C 373.537 3.49165 0.9009 0
M  V30 3823 O 372.641 3.60019 2.01147 0
M  V30 3824 H 371.982 0.657913 0.0897025 0
M  V30 3825 H 374.512 2.01493 -0.355201 0
M  V30 3826 H 374.522 3.89716 1.2077 0
M  V30 3827 H 373.197 4.15813 0.0852889 0
M  V30 3828 H 371.774 3.3136 1.71042 0
M  V30 3829 N 373.959 -0.0401083 1.57549 0
M  V30 3830 C 375.189 -0.744115 1.92734 0
M  V30 3831 C 375.597 -1.70005 0.830348 0
M  V30 3832 O 374.94 -1.82576 -0.20286 0
M  V30 3833 C 375.002 -1.56516 3.2364 0
M  V30 3834 C 374.666 -0.7752 4.50377 0
M  V30 3835 C 375.663 -0.0803326 5.19838 0
M  V30 3836 C 373.348 -0.733002 4.96923 0
M  V30 3837 C 375.342 0.646154 6.34116 0
M  V30 3838 C 373.029 -0.00276321 6.111 0
M  V30 3839 C 374.027 0.685585 6.7955 0
M  V30 3840 O 373.715 1.40399 7.91545 0
M  V30 3841 H 373.447 -0.214861 0.640945 0
M  V30 3842 H 376.001 -0.00503675 2.05399 0
M  V30 3843 H 374.231 -2.3478 3.07271 0
M  V30 3844 H 375.92 -2.15076 3.44234 0
M  V30 3845 H 376.686 -0.104035 4.84888 0
M  V30 3846 H 372.565 -1.25827 4.43496 0
M  V30 3847 H 376.109 1.18398 6.87479 0
M  V30 3848 H 372.006 0.0229012 6.45496 0
M  V30 3849 H 372.774 1.31653 8.07843 0
M  V30 3850 N 375.437 -1.54477 -0.31217 0
M  V30 3851 C 376.4 -1.83923 -1.36766 0
M  V30 3852 C 377.4 -0.711563 -1.44199 0
M  V30 3853 O 378.59 -0.979866 -1.44029 0
M  V30 3854 C 375.722 -2.0095 -2.75376 0
M  V30 3855 H 376.915 -2.78239 -1.11906 0
M  V30 3856 H 374.468 -1.46369 -0.548257 0
M  V30 3857 H 375.203 -1.08883 -3.05475 0
M  V30 3858 H 374.988 -2.83018 -2.71373 0
M  V30 3859 H 376.478 -2.2514 -3.51713 0
M  V30 3860 N 376.915 0.57481 -1.46744 0
M  V30 3861 C 378.163 1.33009 -1.52161 0
M  V30 3862 C 378.484 1.94185 -0.178092 0
M  V30 3863 O 377.754 1.7899 0.796196 0
M  V30 3864 H 376.334 0.493873 -0.560445 0
M  V30 3865 H 378.996 0.672589 -1.82927 0
M  V30 3866 H 378.092 2.13273 -2.27862 0
M  V30 3867 N 378.394 1.34581 0.820102 0
M  V30 3868 C 379.357 1.2628 1.91275 0
M  V30 3869 C 380.357 0.177344 1.59819 0
M  V30 3870 O 381.547 0.430156 1.68806 0
M  V30 3871 C 378.679 0.950327 3.27386 0
M  V30 3872 H 379.872 2.23421 2.00057 0
M  V30 3873 H 377.425 1.1891 1.0144 0
M  V30 3874 H 378.16 -0.0177938 3.24295 0
M  V30 3875 H 377.945 1.73549 3.51601 0
M  V30 3876 H 379.435 0.917492 4.07396 0
M  V30 3877 N 379.872 -1.04064 1.18357 0
M  V30 3878 C 381.121 -1.76662 0.973313 0
M  V30 3879 C 381.434 -1.89154 -0.497991 0
M  V30 3880 O 382.64 -2.58606 -0.826762 0
M  V30 3881 C 381.096 -3.17624 1.69242 0
M  V30 3882 C 380.704 -3.13225 3.20303 0
M  V30 3883 C 382.448 -3.946 1.56497 0
M  V30 3884 C 380.355 -4.49046 3.84853 0
M  V30 3885 H 379.285 -0.662214 0.36054 0
M  V30 3886 H 381.936 -1.16553 1.41731 0
M  V30 3887 H 380.318 -3.78129 1.1762 0
M  V30 3888 H 381.492 -2.62172 3.78949 0
M  V30 3889 H 379.807 -2.49749 3.33189 0
M  V30 3890 H 382.404 -4.95042 2.02084 0
M  V30 3891 H 382.747 -4.13074 0.517243 0
M  V30 3892 H 383.28 -3.4067 2.05399 0
M  V30 3893 H 380.019 -4.35777 4.89672 0
M  V30 3894 H 379.539 -5.00203 3.30994 0
M  V30 3895 H 381.218 -5.17961 3.87718 0
M  V30 3896 N 381.35 -0.985608 -1.22978 0
M  V30 3897 C 382.28 -0.549649 -2.26939 0
M  V30 3898 C 383.261 0.419803 -1.64838 0
M  V30 3899 O 384.446 0.31203 -1.91677 0
M  V30 3900 C 381.576 0.143652 -3.47003 0
M  V30 3901 C 380.53 -0.743606 -4.21491 0
M  V30 3902 C 379.856 0.0822027 -5.34637 0
M  V30 3903 C 381.156 -2.03694 -4.80943 0
M  V30 3904 H 382.85 -1.41862 -2.63658 0
M  V30 3905 H 380.396 -0.683571 -1.26741 0
M  V30 3906 H 382.349 0.459985 -4.18882 0
M  V30 3907 H 381.073 1.04711 -3.09359 0
M  V30 3908 H 379.732 -1.04347 -3.51436 0
M  V30 3909 H 379.38 0.986359 -4.93234 0
M  V30 3910 H 379.08 -0.508377 -5.85397 0
M  V30 3911 H 380.604 0.392797 -6.09335 0
M  V30 3912 H 382.018 -1.78504 -5.44802 0
M  V30 3913 H 380.415 -2.57573 -5.42011 0
M  V30 3914 H 381.485 -2.72042 -4.01399 0
M  V30 3915 N 382.828 1.3818 -0.7579 0
M  V30 3916 C 383.775 2.30416 -0.133057 0
M  V30 3917 C 384.745 1.50398 0.704957 0
M  V30 3918 O 385.93 1.79014 0.660192 0
M  V30 3919 C 383.07 3.36834 0.750813 0
M  V30 3920 C 382.183 4.31879 -0.102297 0
M  V30 3921 C 381.318 5.25368 0.784979 0
M  V30 3922 C 380.357 6.12058 -0.0715046 0
M  V30 3923 N 379.494 6.97832 0.772972 0
M  V30 3924 H 384.334 2.83274 -0.925186 0
M  V30 3925 H 381.871 1.39461 -0.467866 0
M  V30 3926 H 383.829 3.97145 1.27794 0
M  V30 3927 H 382.459 2.85374 1.50868 0
M  V30 3928 H 381.511 3.72991 -0.747095 0
M  V30 3929 H 382.823 4.92921 -0.763552 0
M  V30 3930 H 381.977 5.90818 1.37911 0
M  V30 3931 H 380.716 4.64703 1.47996 0
M  V30 3932 H 379.721 5.456 -0.678272 0
M  V30 3933 H 380.946 6.74793 -0.763606 0
M  V30 3934 H 378.892 6.3971 1.45282 0
M  V30 3935 H 378.809 7.55812 0.168709 0
M  V30 3936 H 380.077 7.67687 1.35194 0
M  V30 3937 N 384.306 0.507319 1.49211 0
M  V30 3938 C 385.583 -0.0982702 1.95353 0
M  V30 3939 C 385.963 -1.53516 1.449 0
M  V30 3940 O 385.311 -2.18594 0.66551 0
M  V30 3941 C 385.521 -0.00440283 3.49 0
M  V30 3942 C 386.869 -0.175147 4.24239 0
M  V30 3943 O 387.893 -0.0792891 3.56112 0
M  V30 3944 O 386.752 -0.37276 5.45227 0
M  V30 3945 H 383.846 -0.0918236 0.821887 0
M  V30 3946 H 386.392 0.570307 1.5983 0
M  V30 3947 H 385.164 0.997402 3.78375 0
M  V30 3948 H 384.787 -0.712845 3.91158 0
M  V30 3949 N 385.784 -1.5574 0.241426 0
M  V30 3950 C 386.694 -2.2479 -0.671305 0
M  V30 3951 C 387.71 -1.26217 -1.19772 0
M  V30 3952 O 388.886 -1.59079 -1.23514 0
M  V30 3953 C 385.951 -2.92966 -1.85396 0
M  V30 3954 C 385.012 -4.06935 -1.36756 0
M  V30 3955 C 384.245 -4.71851 -2.49384 0
M  V30 3956 O 384.468 -4.35823 -3.67987 0
M  V30 3957 O 383.402 -5.60467 -2.19454 0
M  V30 3958 H 387.228 -3.0349 -0.112966 0
M  V30 3959 H 384.813 -1.49397 0.0101513 0
M  V30 3960 H 386.695 -3.35927 -2.54423 0
M  V30 3961 H 385.37 -2.17211 -2.40002 0
M  V30 3962 H 384.277 -3.68503 -0.644726 0
M  V30 3963 H 385.61 -4.84492 -0.867647 0
M  V30 3964 N 387.262 0.0317525 -1.57568 0
M  V30 3965 C 388.192 1.03274 -2.0942 0
M  V30 3966 C 389.173 1.3788 -0.996143 0
M  V30 3967 O 390.358 1.46811 -1.27122 0
M  V30 3968 C 387.488 2.33448 -2.57137 0
M  V30 3969 C 386.442 2.13091 -3.71182 0
M  V30 3970 C 385.768 3.49001 -4.05095 0
M  V30 3971 C 387.068 1.51928 -4.99715 0
M  V30 3972 H 388.762 0.60112 -2.93303 0
M  V30 3973 H 386.308 0.287705 -1.41097 0
M  V30 3974 H 388.261 3.03802 -2.92032 0
M  V30 3975 H 386.985 2.78665 -1.70333 0
M  V30 3976 H 385.644 1.45171 -3.36632 0
M  V30 3977 H 385.292 3.91862 -3.15362 0
M  V30 3978 H 384.992 3.36207 -4.81911 0
M  V30 3979 H 386.516 4.20721 -4.42522 0
M  V30 3980 H 387.93 2.12196 -5.32584 0
M  V30 3981 H 386.327 1.49716 -5.81124 0
M  V30 3982 H 387.397 0.484811 -4.8247 0
M  V30 3983 N 388.74 1.54641 0.303973 0
M  V30 3984 C 389.687 1.85386 1.37479 0
M  V30 3985 C 390.657 0.702528 1.50512 0
M  V30 3986 O 391.842 0.950867 1.65418 0
M  V30 3987 C 388.982 2.10413 2.73533 0
M  V30 3988 C 388.095 3.38049 2.68974 0
M  V30 3989 C 387.23 3.52934 3.97002 0
M  V30 3990 C 386.269 4.74373 3.86829 0
M  V30 3991 N 385.406 4.8608 5.06627 0
M  V30 3992 H 390.246 2.76732 1.1056 0
M  V30 3993 H 387.783 1.37034 0.534805 0
M  V30 3994 H 389.741 2.22919 3.52652 0
M  V30 3995 H 388.371 1.22338 2.98719 0
M  V30 3996 H 387.423 3.3418 1.81736 0
M  V30 3997 H 388.735 4.27288 2.57346 0
M  V30 3998 H 387.889 3.65088 4.84557 0
M  V30 3999 H 386.628 2.61824 4.1146 0
M  V30 4000 H 385.633 4.62255 2.97658 0
M  V30 4001 H 386.858 5.66888 3.73918 0
M  V30 4002 H 384.804 3.97891 5.21554 0
M  V30 4003 H 384.721 5.69315 4.9741 0
M  V30 4004 H 385.989 5.02587 5.95841 0
M  V30 4005 N 390.218 -0.567019 1.47046 0
M  V30 4006 C 391.15 -1.68985 1.54844 0
M  V30 4007 C 392.163 -1.56869 0.435431 0
M  V30 4008 O 393.352 -1.64006 0.70457 0
M  V30 4009 C 390.452 -3.07373 1.42742 0
M  V30 4010 C 389.625 -3.45339 2.6844 0
M  V30 4011 C 388.684 -4.62849 2.50314 0
M  V30 4012 O 387.71 -4.67922 3.24095 0
M  V30 4013 N 388.912 -5.58726 1.57499 0
M  V30 4014 H 391.677 -1.62745 2.51663 0
M  V30 4015 H 389.238 -0.753411 1.43302 0
M  V30 4016 H 391.23 -3.83803 1.28365 0
M  V30 4017 H 389.8 -3.07893 0.540445 0
M  V30 4018 H 389.02 -2.58455 2.97648 0
M  V30 4019 H 390.308 -3.67476 3.51907 0
M  V30 4020 H 389.706 -5.57376 0.966876 0
M  V30 4021 H 388.263 -6.34523 1.49078 0
M  V30 4022 N 391.696 -1.35014 -0.812953 0
M  V30 4023 C 392.659 -1.27292 -1.90602 0
M  V30 4024 C 393.659 -0.185817 -1.59723 0
M  V30 4025 O 394.849 -0.439102 -1.68575 0
M  V30 4026 C 391.981 -0.967676 -3.26877 0
M  V30 4027 H 393.174 -2.24479 -1.9887 0
M  V30 4028 H 390.727 -1.19446 -1.00808 0
M  V30 4029 H 391.462 0.0005954 -3.243 0
M  V30 4030 H 391.247 -1.75412 -3.50675 0
M  V30 4031 H 392.737 -0.939085 -4.06904 0
M  V30 4032 N 393.175 1.03435 -1.18907 0
M  V30 4033 C 394.423 1.76394 -0.986382 0
M  V30 4034 C 394.744 1.88883 0.484567 0
M  V30 4035 O 394.014 1.41843 1.3512 0
M  V30 4036 H 392.594 0.65344 -0.361975 0
M  V30 4037 H 395.256 1.248 -1.49703 0
M  V30 4038 H 394.352 2.77424 -1.42978 0
M  V30 4039 N 394.653 0.992116 1.22453 0
M  V30 4040 C 395.902 0.662992 1.90492 0
M  V30 4041 C 396.215 -0.808407 1.78113 0
M  V30 4042 O 397.421 -1.24908 2.41061 0
M  V30 4043 C 395.877 1.1353 3.41524 0
M  V30 4044 C 395.485 2.63187 3.62542 0
M  V30 4045 C 397.229 0.880465 4.15269 0
M  V30 4046 C 395.136 3.04024 5.0727 0
M  V30 4047 H 394.066 0.244278 0.713333 0
M  V30 4048 H 396.717 1.20157 1.38688 0
M  V30 4049 H 395.099 0.52485 3.92506 0
M  V30 4050 H 396.273 3.2957 3.22056 0
M  V30 4051 H 394.588 2.86543 3.02129 0
M  V30 4052 H 397.185 1.16128 5.21937 0
M  V30 4053 H 397.528 -0.183408 4.15896 0
M  V30 4054 H 398.061 1.45307 3.70312 0
M  V30 4055 H 394.8 4.09584 5.11782 0
M  V30 4056 H 394.32 2.42343 5.48662 0
M  V30 4057 H 395.999 2.95282 5.75689 0
M  V30 4058 N 396.131 -1.37776 0.765217 0
M  V30 4059 C 397.359 -2.04124 0.337767 0
M  V30 4060 C 397.774 -1.57715 -1.03785 0
M  V30 4061 O 397.131 -0.755447 -1.6613 0
M  V30 4062 C 397.182 -3.59658 0.364442 0
M  V30 4063 O 396.903 -4.04367 1.68579 0
M  V30 4064 C 398.404 -4.43236 -0.0754221 0
M  V30 4065 H 395.624 -0.655696 0.142491 0
M  V30 4066 H 398.168 -1.76238 1.03732 0
M  V30 4067 H 396.323 -3.86339 -0.286471 0
M  V30 4068 H 396.737 -4.98857 1.61993 0
M  V30 4069 H 398.211 -5.52 -0.00560067 0
M  V30 4070 H 398.688 -4.2455 -1.12491 0
M  V30 4071 H 399.294 -4.21767 0.547055 0
M  V30 4072 N 397.609 -0.515225 -1.4894 0
M  V30 4073 C 398.855 0.016187 -2.03394 0
M  V30 4074 C 399.21 1.33377 -1.38666 0
M  V30 4075 O 398.503 1.84461 -0.518141 0
M  V30 4076 C 398.697 0.210595 -3.56779 0
M  V30 4077 C 398.526 -1.08659 -4.36375 0
M  V30 4078 C 397.296 -1.64237 -4.77864 0
M  V30 4079 C 399.494 -1.9935 -4.74093 0
M  V30 4080 N 397.476 -2.88398 -5.41941 0
M  V30 4081 C 398.847 -3.08088 -5.38035 0
M  V30 4082 C 400.902 -1.99856 -4.56029 0
M  V30 4083 C 399.605 -4.17377 -5.85823 0
M  V30 4084 C 401.631 -3.08129 -5.04787 0
M  V30 4085 C 400.993 -4.15586 -5.68742 0
M  V30 4086 H 397.092 -0.0352107 -0.781207 0
M  V30 4087 H 399.676 -0.693237 -1.8194 0
M  V30 4088 H 397.847 0.889088 -3.78087 0
M  V30 4089 H 399.579 0.740287 -3.97872 0
M  V30 4090 H 396.334 -1.18566 -4.58518 0
M  V30 4091 H 396.758 -3.51572 -5.78555 0
M  V30 4092 H 401.4 -1.18079 -4.05977 0
M  V30 4093 H 399.118 -4.99943 -6.34888 0
M  V30 4094 H 402.704 -3.09557 -4.92611 0
M  V30 4095 H 401.584 -4.97987 -6.05787 0
M  V30 4096 N 399.087 1.5561 -0.249682 0
M  V30 4097 C 400.312 2.03865 0.381305 0
M  V30 4098 C 400.737 1.12769 1.50548 0
M  V30 4099 O 400.095 0.121189 1.80895 0
M  V30 4100 C 400.143 3.50101 0.863816 0
M  V30 4101 O 399.247 3.62132 1.97318 0
M  V30 4102 H 398.588 0.658827 0.0827194 0
M  V30 4103 H 401.118 2.01105 -0.376552 0
M  V30 4104 H 401.128 3.90975 1.1663 0
M  V30 4105 H 399.803 4.1588 0.0411816 0
M  V30 4106 H 398.38 3.33155 1.67517 0
M  V30 4107 N 400.565 -0.0233959 1.57583 0
M  V30 4108 C 401.813 -0.711654 1.89156 0
M  V30 4109 C 402.134 -1.75591 0.848096 0
M  V30 4110 O 401.404 -1.95547 -0.117566 0
M  V30 4111 H 399.984 -0.265835 0.698098 0
M  V30 4112 H 402.646 0.0119948 1.94896 0
M  V30 4113 H 401.742 -1.19766 2.88206 0
M  V30 4114 N 402.043 -1.548 -0.295768 0
M  V30 4115 C 403.271 -1.78327 -1.04914 0
M  V30 4116 C 403.686 -0.545316 -1.80753 0
M  V30 4117 O 403.043 0.485013 -1.75937 0
M  V30 4118 C 403.094 -2.99418 -2.02561 0
M  V30 4119 O 402.815 -4.18431 -1.29798 0
M  V30 4120 C 404.316 -3.35375 -2.89895 0
M  V30 4121 H 401.536 -0.594618 -0.310918 0
M  V30 4122 H 404.08 -2.01763 -0.333454 0
M  V30 4123 H 402.235 -2.78175 -2.69624 0
M  V30 4124 H 402.649 -4.86736 -1.95419 0
M  V30 4125 H 404.123 -4.23332 -3.54251 0
M  V30 4126 H 404.6 -2.53761 -3.58472 0
M  V30 4127 H 405.206 -3.58796 -2.28355 0
M  V30 4128 N 403.521 0.559213 -1.47345 0
M  V30 4129 C 404.451 1.67622 -1.62558 0
M  V30 4130 C 405.432 1.63331 -0.475087 0
M  V30 4131 O 406.617 1.80983 -0.704182 0
M  V30 4132 C 403.747 3.0626 -1.63774 0
M  V30 4133 C 402.701 3.25397 -2.7803 0
M  V30 4134 C 402.027 4.64801 -2.64318 0
M  V30 4135 C 403.327 3.10965 -4.19641 0
M  V30 4136 H 405.021 1.55146 -2.56067 0
M  V30 4137 H 402.567 0.744961 -1.23233 0
M  V30 4138 H 404.52 3.84247 -1.73008 0
M  V30 4139 H 403.244 3.1969 -0.66825 0
M  V30 4140 H 401.903 2.49817 -2.68304 0
M  V30 4141 H 401.551 4.75028 -1.65401 0
M  V30 4142 H 401.251 4.78555 -3.40968 0
M  V30 4143 H 402.775 5.44926 -2.75478 0
M  V30 4144 H 404.189 3.78772 -4.30354 0
M  V30 4145 H 402.586 3.36229 -4.97062 0
M  V30 4146 H 403.656 2.07736 -4.38148 0
M  V30 4147 N 404.999 1.35443 0.805782 0
M  V30 4148 C 405.929 1.31095 1.93226 0
M  V30 4149 C 406.91 0.185244 1.69088 0
M  V30 4150 O 408.095 0.380332 1.90439 0
M  V30 4151 C 405.225 1.08299 3.29983 0
M  V30 4152 C 404.179 2.17519 3.68605 0
M  V30 4153 C 403.505 1.79887 5.03532 0
M  V30 4154 C 404.805 3.5949 3.78898 0
M  V30 4155 H 406.499 2.25352 1.97122 0
M  V30 4156 H 404.045 1.0848 0.946996 0
M  V30 4157 H 405.998 1.03897 4.08391 0
M  V30 4158 H 404.722 0.104885 3.26432 0
M  V30 4159 H 403.381 2.2102 2.92482 0
M  V30 4160 H 403.029 0.80693 4.96485 0
M  V30 4161 H 402.729 2.53001 5.30344 0
M  V30 4162 H 404.253 1.77011 5.84379 0
M  V30 4163 H 405.667 3.58307 4.47536 0
M  V30 4164 H 404.064 4.31371 4.1718 0
M  V30 4165 H 405.134 3.95584 2.80431 0
M  V30 4166 N 406.477 -1.02803 1.19454 0
M  V30 4167 C 407.893 -1.28473 0.946937 0
M  V30 4168 C 408.093 -1.97881 -0.380202 0
M  V30 4169 O 407.149 -2.26719 -1.11151 0
M  V30 4170 C 408.462 -2.13099 2.12154 0
M  V30 4171 C 410.01 -2.26404 2.16126 0
M  V30 4172 C 410.485 -3.14402 3.33039 0
M  V30 4173 N 411.976 -3.21991 3.32981 0
M  V30 4174 C 412.711 -3.90272 4.20089 0
M  V30 4175 N 412.207 -4.60777 5.17355 0
M  V30 4176 N 414 -3.8668 4.07964 0
M  V30 4177 H 406.151 -0.561665 2.04839 0
M  V30 4178 H 408.414 -0.310438 0.89573 0
M  V30 4179 H 408.12 -1.69422 3.08203 0
M  V30 4180 H 407.994 -3.13813 2.09287 0
M  V30 4181 H 410.381 -2.69311 1.20647 0
M  V30 4182 H 410.462 -1.25237 2.23045 0
M  V30 4183 H 410.106 -2.72204 4.28798 0
M  V30 4184 H 410.036 -4.1563 3.23356 0
M  V30 4185 H 412.527 -2.71778 2.62574 0
M  V30 4186 H 412.84 -5.10513 5.80169 0
M  V30 4187 H 411.185 -4.5964 5.21302 0
M  V30 4188 H 414.376 -3.30739 3.31254 0
M  V30 4189 H 414.549 -4.39621 4.76064 0
M  V30 4190 N 407.956 -0.998596 -1.21925 0
M  V30 4191 C 408.888 -0.511879 -2.23411 0
M  V30 4192 C 409.901 0.396094 -1.57908 0
M  V30 4193 O 411.09 0.197316 -1.77406 0
M  V30 4194 C 408.19 0.276802 -3.37768 0
M  V30 4195 C 407.363 -0.628687 -4.32858 0
M  V30 4196 C 406.422 0.109272 -5.26087 0
M  V30 4197 O 405.448 -0.507237 -5.66935 0
M  V30 4198 N 406.65 1.38983 -5.63617 0
M  V30 4199 H 409.415 -1.38457 -2.658 0
M  V30 4200 H 406.976 -0.873981 -1.36283 0
M  V30 4201 H 408.968 0.77928 -3.97126 0
M  V30 4202 H 407.538 1.05063 -2.94415 0
M  V30 4203 H 406.758 -1.31175 -3.71735 0
M  V30 4204 H 408.046 -1.24514 -4.93329 0
M  V30 4205 H 407.444 1.91194 -5.32411 0
M  V30 4206 H 406.001 1.83739 -6.25367 0
M  V30 4207 N 409.434 1.37368 -0.772513 0
M  V30 4208 C 410.662 2.03942 -0.348588 0
M  V30 4209 C 411.077 1.58264 1.02947 0
M  V30 4210 O 410.434 0.764246 1.65727 0
M  V30 4211 C 410.485 3.5946 -0.38351 0
M  V30 4212 O 410.206 4.03468 -1.70721 0
M  V30 4213 C 411.707 4.4327 0.0519152 0
M  V30 4214 H 408.927 0.654931 -0.145966 0
M  V30 4215 H 411.471 1.75686 -1.04665 0
M  V30 4216 H 409.626 3.86486 0.265978 0
M  V30 4217 H 410.04 4.97991 -1.64636 0
M  V30 4218 H 411.514 5.51995 -0.0236733 0
M  V30 4219 H 411.991 4.2514 1.10238 0
M  V30 4220 H 412.597 4.21471 -0.569415 0
M  V30 4221 N 410.912 0.523116 1.48665 0
M  V30 4222 C 411.844 -0.280421 2.27478 0
M  V30 4223 C 412.857 -0.910694 1.34945 0
M  V30 4224 O 414.046 -0.790295 1.60052 0
M  V30 4225 C 411.146 -1.41171 3.08097 0
M  V30 4226 C 410.319 -0.884642 4.28361 0
M  V30 4227 C 409.378 -1.89622 4.90846 0
M  V30 4228 O 408.404 -1.4559 5.50265 0
M  V30 4229 N 409.606 -3.22801 4.82472 0
M  V30 4230 H 412.371 0.395481 2.97079 0
M  V30 4231 H 409.932 0.357018 1.57915 0
M  V30 4232 H 411.924 -2.08645 3.4677 0
M  V30 4233 H 410.494 -1.99139 2.40961 0
M  V30 4234 H 409.714 -0.0341177 3.94185 0
M  V30 4235 H 411.002 -0.511268 5.06225 0
M  V30 4236 H 410.4 -3.61246 4.35336 0
M  V30 4237 H 408.957 -3.85927 5.25265 0
M  V30 4238 N 412.39 -1.55475 0.257931 0
M  V30 4239 C 413.636 -1.99502 -0.364266 0
M  V30 4240 C 413.969 -1.146 -1.56782 0
M  V30 4241 O 413.244 -0.211968 -1.93342 0
M  V30 4242 C 413.527 -3.51917 -0.763333 0
M  V30 4243 C 413.38 -4.4758 0.446371 0
M  V30 4244 C 414.699 -4.09742 -1.60623 0
M  V30 4245 H 411.818 -0.725277 -0.130929 0
M  V30 4246 H 414.46 -1.8653 0.361446 0
M  V30 4247 H 412.61 -3.63101 -1.38166 0
M  V30 4248 H 414.282 -4.48362 1.08487 0
M  V30 4249 H 412.525 -4.19947 1.08753 0
M  V30 4250 H 413.196 -5.51862 0.123645 0
M  V30 4251 H 415.672 -4.01727 -1.08418 0
M  V30 4252 H 414.548 -5.16631 -1.85429 0
M  V30 4253 H 414.809 -3.58889 -2.58169 0
M  V30 4254 N 413.868 0.0150385 -1.57593 0
M  V30 4255 C 414.816 1.02958 -2.08572 0
M  V30 4256 C 415.81 1.36554 -1.00246 0
M  V30 4257 O 417.016 1.35295 -1.18724 0
M  V30 4258 H 413.391 0.349619 -0.665786 0
M  V30 4259 H 415.362 0.573932 -2.92829 0
M  V30 4260 C 414.111 2.31752 -2.59203 0
M  V30 4261 H 413.434 2.06765 -3.42182 0
M  V30 4262 H 414.874 3.01053 -2.98568 0
M  V30 4263 C 413.333 3.01692 -1.49945 0
M  V30 4264 O 413.863 3.92083 -0.873704 0
M  V30 4265 N 412.069 2.6326 -1.23056 0
M  V30 4266 H 411.616 1.89838 -1.74125 0
M  V30 4267 H 411.574 3.10372 -0.501685 0
M  V30 4268 N 415.346 1.54954 0.287554 0
M  V30 4269 C 416.256 1.8991 1.37736 0
M  V30 4270 C 417.272 0.794701 1.54792 0
M  V30 4271 O 418.448 1.09243 1.69198 0
M  V30 4272 C 415.513 2.15108 2.71899 0
M  V30 4273 C 414.574 3.38752 2.63715 0
M  V30 4274 C 413.807 3.62739 3.91479 0
M  V30 4275 O 414.03 2.89492 4.91478 0
M  V30 4276 O 412.964 4.56267 3.92561 0
M  V30 4277 H 416.79 2.82652 1.11092 0
M  V30 4278 H 414.375 1.41315 0.484807 0
M  V30 4279 H 416.257 2.32806 3.51254 0
M  V30 4280 H 414.932 1.25551 2.9836 0
M  V30 4281 H 413.839 3.26405 1.82786 0
M  V30 4282 H 415.172 4.28483 2.42205 0
M  V30 4283 N 416.824 -0.551391 1.4764 0
M  V30 4284 C 418.235 -1.13349 1.48354 0
M  V30 4285 C 418.586 -1.94709 0.241432 0
M  V30 4286 O 417.711 -2.06306 -0.653205 0
M  V30 4287 C 418.306 -2.0623 2.68802 0
M  V30 4288 C 416.865 -2.597 2.72457 0
M  V30 4289 C 416.012 -1.36201 2.41546 0
M  V30 4290 H 418.963 -0.337698 1.55065 0
M  V30 4291 H 418.984 -2.90196 2.46103 0
M  V30 4292 H 418.496 -1.46987 3.59188 0
M  V30 4293 H 416.597 -3.22724 1.86225 0
M  V30 4294 H 416.71 -3.00296 3.73308 0
M  V30 4295 H 415.074 -1.67068 1.9225 0
M  V30 4296 H 415.857 -0.787425 3.34147 0
M  V30 4297 N 418.302 -1.35869 -0.798587 0
M  V30 4298 C 419.55 -1.29332 -1.55298 0
M  V30 4299 C 419.871 0.129729 -1.94568 0
M  V30 4300 O 419.141 1.06796 -1.6423 0
M  V30 4301 H 417.721 -0.475737 -0.57592 0
M  V30 4302 H 420.383 -1.70062 -0.952093 0
M  V30 4303 H 419.479 -1.91458 -2.46476 0
M  V30 4304 N 419.78 1.02168 -1.19998 0
M  V30 4305 C 421.008 1.79296 -1.03249 0
M  V30 4306 C 421.423 1.84103 0.418502 0
M  V30 4307 O 420.78 1.29031 1.29063 0
M  V30 4308 C 420.831 3.24007 -1.60319 0
M  V30 4309 O 420.552 3.19512 -2.99739 0
M  V30 4310 C 422.053 4.17704 -1.48453 0
M  V30 4311 H 419.273 0.564016 -0.363493 0
M  V30 4312 H 421.817 1.28639 -1.58973 0
M  V30 4313 H 419.972 3.7183 -1.08727 0
M  V30 4314 H 420.386 4.10306 -3.26725 0
M  V30 4315 H 421.86 5.17104 -1.93153 0
M  V30 4316 H 422.337 4.37029 -0.436193 0
M  V30 4317 H 422.943 3.7576 -1.99211 0
M  V30 4318 N 421.258 1.00505 1.21394 0
M  V30 4319 C 422.504 0.688793 1.90745 0
M  V30 4320 C 422.837 -0.778486 1.77914 0
M  V30 4321 O 422.112 -1.56433 1.15581 0
M  V30 4322 C 422.395 1.11063 3.42545 0
M  V30 4323 C 422.248 2.63737 3.64367 0
M  V30 4324 C 423.567 0.673059 4.34923 0
M  V30 4325 H 420.686 0.251702 0.692687 0
M  V30 4326 H 423.328 1.25074 1.43026 0
M  V30 4327 H 421.478 0.632508 3.83317 0
M  V30 4328 H 423.15 3.19313 3.32922 0
M  V30 4329 H 421.393 3.05248 3.08231 0
M  V30 4330 H 422.064 2.88305 4.70727 0
M  V30 4331 H 424.54 1.08392 4.01734 0
M  V30 4332 H 423.416 0.996383 5.39781 0
M  V30 4333 H 423.677 -0.425808 4.40045 0
M  V30 4334 N 422.737 -1.36956 0.779787 0
M  V30 4335 C 423.983 -1.99787 0.348281 0
M  V30 4336 C 424.316 -1.61756 -1.07465 0
M  V30 4337 O 423.591 -0.867639 -1.74075 0
M  V30 4338 C 423.874 -3.56597 0.50104 0
M  V30 4339 C 423.727 -4.04513 1.96697 0
M  V30 4340 C 425.046 -4.40008 -0.0898097 0
M  V30 4341 H 422.165 -0.725796 0.128022 0
M  V30 4342 H 424.807 -1.62514 0.984331 0
M  V30 4343 H 422.957 -3.88479 -0.0404347 0
M  V30 4344 H 424.629 -3.83161 2.56876 0
M  V30 4345 H 422.872 -3.56408 2.47297 0
M  V30 4346 H 423.543 -5.1352 2.02486 0
M  V30 4347 H 426.019 -4.14431 0.372293 0
M  V30 4348 H 424.895 -5.4888 0.0471605 0
M  V30 4349 H 425.156 -4.26035 -1.18096 0
M  V30 4350 N 424.215 -0.530993 -1.48385 0
M  V30 4351 C 425.178 0.220497 -2.28137 0
M  V30 4352 C 426.178 0.866851 -1.35434 0
M  V30 4353 O 427.368 0.726746 -1.58316 0
M  V30 4354 C 424.5 1.31921 -3.1434 0
M  V30 4355 H 425.693 -0.479714 -2.96038 0
M  V30 4356 H 423.246 -0.286968 -1.53643 0
M  V30 4357 H 423.981 2.05264 -2.51072 0
M  V30 4358 H 423.766 0.86085 -3.82533 0
M  V30 4359 H 425.256 1.84776 -3.74497 0
M  V30 4360 N 425.693 1.55336 -0.266172 0
M  V30 4361 C 426.918 2.04258 0.359661 0
M  V30 4362 C 427.343 1.14359 1.49344 0
M  V30 4363 O 426.701 0.140369 1.80756 0
M  V30 4364 C 426.749 3.50997 0.826635 0
M  V30 4365 O 425.853 3.64204 1.93466 0
M  V30 4366 H 425.194 0.659668 0.075727 0
M  V30 4367 H 427.724 2.00694 -0.39786 0
M  V30 4368 H 427.734 3.9219 1.12477 0
M  V30 4369 H 426.409 4.159 -0.00293032 0
M  V30 4370 H 424.986 3.34913 1.63974 0
M  V30 4371 N 427.171 -0.0066808 1.57599 0
M  V30 4372 C 428.118 -1.00024 2.08 0
M  V30 4373 C 429.088 -1.34549 0.973943 0
M  V30 4374 O 430.273 -1.44502 1.24595 0
M  V30 4375 C 427.413 -2.2891 2.58252 0
M  V30 4376 C 426.526 -2.00346 3.82734 0
M  V30 4377 C 425.661 -3.23265 4.21513 0
M  V30 4378 C 424.7 -2.90357 5.3885 0
M  V30 4379 N 423.837 -4.05793 5.72954 0
M  V30 4380 H 428.677 -0.563499 2.92624 0
M  V30 4381 H 426.214 -0.266592 1.44664 0
M  V30 4382 H 428.172 -3.04247 2.85464 0
M  V30 4383 H 426.802 -2.70265 1.76512 0
M  V30 4384 H 425.854 -1.15406 3.62471 0
M  V30 4385 H 427.166 -1.72086 4.68175 0
M  V30 4386 H 426.32 -4.06953 4.49971 0
M  V30 4387 H 425.059 -3.54657 3.34768 0
M  V30 4388 H 424.064 -2.05075 5.10122 0
M  V30 4389 H 425.289 -2.60219 6.27266 0
M  V30 4390 H 423.235 -4.37094 4.89167 0
M  V30 4391 H 423.152 -3.81034 6.52954 0
M  V30 4392 H 424.42 -4.90289 6.06001 0
M  V30 4393 N 428.649 -1.55105 -0.279332 0
M  V30 4394 C 429.581 -1.83952 -1.36727 0
M  V30 4395 C 430.594 -0.723642 -1.45833 0
M  V30 4396 O 431.783 -1.00141 -1.47763 0
M  V30 4397 C 428.883 -1.98183 -2.74912 0
M  V30 4398 C 428.056 -3.28787 -2.88475 0
M  V30 4399 C 427.115 -3.33162 -4.07295 0
M  V30 4400 O 426.141 -4.06576 -3.98353 0
M  V30 4401 N 427.343 -2.60109 -5.18964 0
M  V30 4402 H 430.108 -2.77853 -1.12328 0
M  V30 4403 H 427.669 -1.54945 -0.469442 0
M  V30 4404 H 429.661 -1.98488 -3.52682 0
M  V30 4405 H 428.231 -1.11177 -2.92162 0
M  V30 4406 H 427.451 -3.41075 -1.97641 0
M  V30 4407 H 428.739 -4.14933 -2.94463 0
M  V30 4408 H 428.137 -2.00136 -5.29115 0
M  V30 4409 H 426.694 -2.66143 -5.94988 0
M  V30 4410 N 430.127 0.543554 -1.4793 0
M  V30 4411 C 431.352 1.32995 -1.59145 0
M  V30 4412 C 431.777 1.86472 -0.246956 0
M  V30 4413 O 431.135 1.63696 0.779324 0
M  V30 4414 C 431.183 2.46623 -2.63077 0
M  V30 4415 O 430.287 3.49261 -2.19295 0
M  V30 4416 H 429.628 0.394472 -0.534124 0
M  V30 4417 H 432.158 0.655489 -1.93816 0
M  V30 4418 H 432.168 2.93001 -2.83926 0
M  V30 4419 H 430.843 2.07059 -3.60693 0
M  V30 4420 H 429.42 3.09094 -2.08603 0
M  V30 4421 N 431.605 1.3629 0.791371 0
M  V30 4422 C 432.568 1.30309 1.88553 0
M  V30 4423 C 433.568 0.211204 1.59407 0
M  V30 4424 O 434.758 0.465865 1.67855 0
M  V30 4425 C 431.89 1.01956 3.25297 0
M  V30 4426 H 433.083 2.27614 1.95273 0
M  V30 4427 H 430.636 1.21035 0.988953 0
M  V30 4428 H 431.371 0.050998 3.2426 0
M  V30 4429 H 431.156 1.80968 3.4784 0
M  V30 4430 H 432.646 1.0037 4.05359 0
M  V30 4431 N 433.083 -1.0153 1.20538 0
M  V30 4432 C 434.494 -1.56598 1.01657 0
M  V30 4433 C 434.845 -1.91505 -0.426668 0
M  V30 4434 O 433.97 -1.72375 -1.30827 0
M  V30 4435 C 434.565 -2.84542 1.83905 0
M  V30 4436 C 433.124 -3.36133 1.69386 0
M  V30 4437 C 432.271 -2.09427 1.81757 0
M  V30 4438 H 435.222 -0.838974 1.34711 0
M  V30 4439 H 435.243 -3.56004 1.34319 0
M  V30 4440 H 434.755 -2.59105 2.8894 0
M  V30 4441 H 432.856 -3.66528 0.669933 0
M  V30 4442 H 432.969 -4.08248 2.50739 0
M  V30 4443 H 431.333 -2.21941 1.24957 0
M  V30 4444 H 432.116 -1.86414 2.88279 0
M  V30 4445 N 434.561 -1.01147 -1.20859 0
M  V30 4446 C 435.491 -0.597663 -2.25722 0
M  V30 4447 C 436.472 0.384744 -1.65692 0
M  V30 4448 O 437.657 0.271303 -1.92296 0
M  V30 4449 C 434.787 0.0700149 -3.47229 0
M  V30 4450 C 433.741 -0.832843 -4.19819 0
M  V30 4451 C 433.067 -0.0312202 -5.34691 0
M  V30 4452 C 434.367 -2.1385 -4.76514 0
M  V30 4453 H 436.061 -1.47423 -2.60589 0
M  V30 4454 H 433.607 -0.710301 -1.25263 0
M  V30 4455 H 435.56 0.37103 -4.19763 0
M  V30 4456 H 434.284 0.981259 -3.11511 0
M  V30 4457 H 432.943 -1.11778 -3.49144 0
M  V30 4458 H 432.591 0.881515 -4.95215 0
M  V30 4459 H 432.291 -0.632434 -5.84187 0
M  V30 4460 H 433.815 0.26346 -6.10031 0
M  V30 4461 H 435.229 -1.9002 -5.40893 0
M  V30 4462 H 433.626 -2.69012 -5.36426 0
M  V30 4463 H 434.696 -2.80495 -3.95538 0
M  V30 4464 N 436.039 1.36541 -0.78704 0
M  V30 4465 C 436.989 2.27459 -0.156957 0
M  V30 4466 C 437.973 1.46843 0.657709 0
M  V30 4467 O 439.165 1.69245 0.518173 0
M  V30 4468 C 436.294 3.35893 0.709278 0
M  V30 4469 C 435.38 4.23947 -0.114049 0
M  V30 4470 N 435.771 4.92145 -1.16736 0
M  V30 4471 C 434.069 4.4587 0.107497 0
M  V30 4472 C 434.77 5.57261 -1.66837 0
M  V30 4473 N 433.746 5.3473 -0.977992 0
M  V30 4474 H 437.548 2.77669 -0.963185 0
M  V30 4475 H 435.062 1.49839 -0.62627 0
M  V30 4476 H 437.059 3.99953 1.17656 0
M  V30 4477 H 435.719 2.87238 1.51408 0
M  V30 4478 H 436.73 4.94169 -1.54976 0
M  V30 4479 H 433.407 4.08056 0.882994 0
M  V30 4480 H 434.797 6.21728 -2.54762 0
M  V30 4481 N 437.518 0.538854 1.48102 0
M  V30 4482 C 438.795 -0.0568108 1.95517 0
M  V30 4483 C 439.175 -1.50408 1.48124 0
M  V30 4484 O 438.523 -2.17133 0.711727 0
M  V30 4485 C 438.733 0.0696262 3.48931 0
M  V30 4486 C 440.081 -0.0851202 4.24515 0
M  V30 4487 O 441.105 -0.0037347 3.562 0
M  V30 4488 O 439.964 -0.257025 5.45895 0
M  V30 4489 H 437.058 -0.0743695 0.823649 0
M  V30 4490 H 439.604 0.604081 1.58584 0
M  V30 4491 H 438.376 1.07744 3.76174 0
M  V30 4492 H 437.999 -0.629714 3.92582 0
M  V30 4493 N 438.996 -1.55193 0.274407 0
M  V30 4494 C 439.926 -2.25471 -0.607032 0
M  V30 4495 C 440.907 -1.24461 -1.15946 0
M  V30 4496 O 442.092 -1.53179 -1.19373 0
M  V30 4497 C 439.222 -2.97526 -1.79153 0
M  V30 4498 C 438.176 -4.05459 -1.37067 0
M  V30 4499 C 437.502 -4.65084 -2.6382 0
M  V30 4500 C 438.802 -5.19691 -0.521389 0
M  V30 4501 H 440.496 -2.99393 -0.0209343 0
M  V30 4502 H 438.042 -1.43997 -0.00862866 0
M  V30 4503 H 439.995 -3.45402 -2.41404 0
M  V30 4504 H 438.719 -2.21138 -2.40344 0
M  V30 4505 H 437.378 -3.58393 -0.771355 0
M  V30 4506 H 437.026 -3.85365 -3.23268 0
M  V30 4507 H 436.726 -5.37961 -2.36372 0
M  V30 4508 H 438.25 -5.15708 -3.26921 0
M  V30 4509 H 439.664 -5.63623 -1.04889 0
M  V30 4510 H 438.061 -5.99126 -0.341825 0
M  V30 4511 H 439.131 -4.82713 0.46 0
M  V30 4512 N 440.474 -0.00167713 -1.576 0
M  V30 4513 C 441.404 0.988091 -2.11563 0
M  V30 4514 C 442.385 1.35736 -1.02517 0
M  V30 4515 O 443.57 1.44082 -1.30208 0
M  V30 4516 C 440.7 2.27941 -2.62031 0
M  V30 4517 C 439.654 2.0517 -3.75619 0
M  V30 4518 C 438.98 3.4033 -4.12407 0
M  V30 4519 C 440.28 1.41294 -5.02825 0
M  V30 4520 H 441.974 0.538771 -2.94513 0
M  V30 4521 H 439.52 0.257712 -1.41675 0
M  V30 4522 H 441.473 2.97539 -2.9841 0
M  V30 4523 H 440.197 2.74989 -1.76205 0
M  V30 4524 H 438.856 1.37998 -3.39635 0
M  V30 4525 H 438.504 3.85085 -3.23603 0
M  V30 4526 H 438.204 3.25909 -4.88935 0
M  V30 4527 H 439.728 4.1124 -4.51347 0
M  V30 4528 H 441.142 2.00851 -5.36965 0
M  V30 4529 H 439.539 1.37356 -5.84169 0
M  V30 4530 H 440.609 0.382362 -4.8339 0
M  V30 4531 N 441.952 1.55251 0.271103 0
M  V30 4532 C 442.899 1.88261 1.33516 0
M  V30 4533 C 443.869 0.734296 1.48988 0
M  V30 4534 O 445.054 0.985741 1.63364 0
M  V30 4535 C 442.194 2.16168 2.69008 0
M  V30 4536 C 441.307 3.43678 2.61743 0
M  V30 4537 C 440.442 3.61276 3.89427 0
M  V30 4538 C 439.481 4.82472 3.7668 0
M  V30 4539 N 438.618 4.96717 4.96202 0
M  V30 4540 H 443.458 2.79015 1.04665 0
M  V30 4541 H 440.995 1.38137 0.505618 0
M  V30 4542 H 442.953 2.30349 3.47844 0
M  V30 4543 H 441.583 1.28646 2.96057 0
M  V30 4544 H 440.635 3.37959 1.74607 0
M  V30 4545 H 441.947 4.3265 2.48224 0
M  V30 4546 H 441.101 3.75284 4.76704 0
M  V30 4547 H 439.84 2.70492 4.05814 0
M  V30 4548 H 438.845 4.68465 2.87786 0
M  V30 4549 H 440.07 5.74692 3.61809 0
M  V30 4550 H 438.016 4.08865 5.12997 0
M  V30 4551 H 437.933 5.79738 4.85222 0
M  V30 4552 H 439.201 5.15113 5.85046 0
M  V30 4553 N 443.43 -0.535701 1.48216 0
M  V30 4554 C 444.679 -1.28828 1.55197 0
M  V30 4555 C 444.992 -1.94263 0.228278 0
M  V30 4556 O 446.198 -2.70927 0.176278 0
M  V30 4557 C 444.654 -2.33727 2.73678 0
M  V30 4558 C 444.262 -1.74386 4.12666 0
M  V30 4559 C 446.006 -3.1003 2.89968 0
M  V30 4560 C 443.913 -2.77192 5.22416 0
M  V30 4561 H 442.843 -0.484484 0.577747 0
M  V30 4562 H 445.494 -0.56646 1.74538 0
M  V30 4563 H 443.876 -3.08919 2.4776 0
M  V30 4564 H 445.05 -1.05421 4.48579 0
M  V30 4565 H 443.365 -1.10595 4.01445 0
M  V30 4566 H 445.962 -3.86842 3.6913 0
M  V30 4567 H 446.305 -3.65542 1.9921 0
M  V30 4568 H 446.838 -2.41952 3.15759 0
M  V30 4569 H 443.577 -2.26507 6.15122 0
M  V30 4570 H 443.097 -3.44502 4.90998 0
M  V30 4571 H 444.776 -3.40285 5.50286 0
M  V30 4572 N 444.908 -1.36708 -0.784132 0
M  V30 4573 C 445.841 -1.25827 -1.90375 0
M  V30 4574 C 446.819 -0.141331 -1.61985 0
M  V30 4575 O 448.003 -0.313389 -1.85877 0
M  V30 4576 C 445.13 -0.942621 -3.25319 0
M  V30 4577 C 444.176 -2.07474 -3.72635 0
M  V30 4578 S 445.009 -3.69317 -3.8777 0
M  V30 4579 C 446.165 -3.39876 -5.25581 0
M  V30 4580 H 446.398 -2.20593 -1.99314 0
M  V30 4581 H 443.931 -1.22186 -0.943926 0
M  V30 4582 H 445.889 -0.767321 -4.03265 0
M  V30 4583 H 444.55 -0.0126566 -3.14097 0
M  V30 4584 H 443.743 -1.80858 -4.70432 0
M  V30 4585 H 443.345 -2.20953 -3.01754 0
M  V30 4586 H 445.637 -2.94097 -6.10339 0
M  V30 4587 H 446.58 -4.36956 -5.57203 0
M  V30 4588 H 446.988 -2.75098 -4.92931 0
M  V30 4589 N 446.386 1.0089 -1.21074 0
M  V30 4590 C 447.316 2.1145 -0.990523 0
M  V30 4591 C 448.297 1.69897 0.0831699 0
M  V30 4592 O 449.482 1.94052 -0.0758853 0
M  V30 4593 C 446.612 3.42914 -0.550177 0
M  V30 4594 C 445.566 3.98244 -1.56799 0
M  V30 4595 C 444.892 5.25568 -0.984013 0
M  V30 4596 C 446.192 4.30752 -2.95381 0
M  V30 4597 H 447.886 2.3013 -1.91521 0
M  V30 4598 H 445.432 1.10592 -0.92225 0
M  V30 4599 H 447.385 4.19653 -0.383305 0
M  V30 4600 H 446.109 3.24014 0.41015 0
M  V30 4601 H 444.768 3.23621 -1.72236 0
M  V30 4602 H 444.416 5.02998 -0.0155216 0
M  V30 4603 H 444.116 5.63551 -1.66384 0
M  V30 4604 H 445.64 6.04955 -0.828378 0
M  V30 4605 H 447.054 4.98349 -2.8341 0
M  V30 4606 H 445.451 4.79869 -3.60341 0
M  V30 4607 H 446.521 3.39192 -3.46521 0
M  V30 4608 N 447.864 1.01787 1.20321 0
M  V30 4609 C 448.811 0.589197 2.23153 0
M  V30 4610 C 449.781 -0.391367 1.61423 0
M  V30 4611 O 450.966 -0.290518 1.88575 0
M  V30 4612 C 448.106 -0.0650747 3.45039 0
M  V30 4613 C 447.219 0.960207 4.21194 0
M  V30 4614 C 446.354 0.276854 5.30478 0
M  V30 4615 C 445.393 1.2888 5.98378 0
M  V30 4616 N 444.53 0.632031 6.99249 0
M  V30 4617 H 449.37 1.47071 2.59179 0
M  V30 4618 H 446.907 0.736192 1.27352 0
M  V30 4619 H 448.865 -0.461552 4.14639 0
M  V30 4620 H 447.495 -0.910233 3.09701 0
M  V30 4621 H 446.547 1.47484 3.50646 0
M  V30 4622 H 447.859 1.72977 4.67847 0
M  V30 4623 H 447.013 -0.175056 6.06447 0
M  V30 4624 H 445.752 -0.525004 4.84866 0
M  V30 4625 H 444.757 1.75109 5.21169 0
M  V30 4626 H 445.982 2.09196 6.46076 0
M  V30 4627 H 443.928 -0.149935 6.55829 0
M  V30 4628 H 443.845 1.33964 7.44036 0
M  V30 4629 H 445.113 0.203755 7.79234 0
M  V30 4630 N 449.342 -1.36122 0.79427 0
M  V30 4631 C 450.289 -2.29982 0.194101 0
M  V30 4632 C 451.259 -1.52214 -0.664833 0
M  V30 4633 O 452.444 -1.80702 -0.612498 0
M  V30 4634 C 449.584 -3.38706 -0.661244 0
M  V30 4635 C 448.697 -4.31456 0.216766 0
M  V30 4636 C 447.832 -5.27265 -0.645411 0
M  V30 4637 C 446.871 -6.11653 0.233756 0
M  V30 4638 N 446.008 -6.99636 -0.587682 0
M  V30 4639 H 450.848 -2.80722 0.999965 0
M  V30 4640 H 448.385 -1.38172 0.504677 0
M  V30 4641 H 450.343 -4.00394 -1.17219 0
M  V30 4642 H 448.973 -2.89274 -1.43249 0
M  V30 4643 H 448.025 -3.7088 0.845724 0
M  V30 4644 H 449.337 -4.90724 0.893973 0
M  V30 4645 H 448.491 -5.94266 -1.22198 0
M  V30 4646 H 447.23 -4.68463 -1.35623 0
M  V30 4647 H 446.235 -5.4361 0.82269 0
M  V30 4648 H 447.46 -6.72531 0.942247 0
M  V30 4649 H 445.406 -6.43337 -1.2827 0
M  V30 4650 H 445.323 -7.55993 0.0317402 0
M  V30 4651 H 446.591 -7.71001 -1.14792 0
M  V30 4652 N 450.82 -0.546701 -1.47814 0
M  V30 4653 C 452.045 -0.021268 -2.07389 0
M  V30 4654 C 452.47 1.25822 -1.39822 0
M  V30 4655 O 451.828 1.75111 -0.46968 0
M  V30 4656 C 451.876 0.168502 -3.60206 0
M  V30 4657 O 450.98 1.23347 -3.93522 0
M  V30 4658 H 450.321 -0.0466108 -0.662362 0
M  V30 4659 H 452.851 -0.759387 -1.89985 0
M  V30 4660 H 452.861 0.385982 -4.0617 0
M  V30 4661 H 451.536 -0.766075 -4.08784 0
M  V30 4662 H 450.113 0.997319 -3.59316 0
M  V30 4663 N 452.299 1.55045 -0.282633 0
M  V30 4664 C 453.576 1.9179 0.384166 0
M  V30 4665 C 453.956 1.20778 1.73136 0
M  V30 4666 O 453.304 0.33719 2.25998 0
M  V30 4667 C 453.514 3.45149 0.517014 0
M  V30 4668 C 454.862 4.17064 0.796427 0
M  V30 4669 O 455.886 3.51084 0.601535 0
M  V30 4670 O 454.745 5.33837 1.16962 0
M  V30 4671 H 451.839 0.799483 0.211558 0
M  V30 4672 H 454.385 1.66474 -0.32934 0
M  V30 4673 H 453.157 3.88922 -0.430772 0
M  V30 4674 H 452.78 3.76443 1.2797 0
M  V30 4675 N 453.777 0.010035 1.57597 0
M  V30 4676 C 454.725 -0.996272 2.10184 0
M  V30 4677 C 455.719 -1.34942 1.02406 0
M  V30 4678 O 456.925 -1.33389 1.20861 0
M  V30 4679 H 453.3 -0.338982 0.671264 0
M  V30 4680 H 455.271 -0.527272 2.93705 0
M  V30 4681 C 454.02 -2.27599 2.62857 0
M  V30 4682 H 453.343 -2.01295 3.45428 0
M  V30 4683 H 454.783 -2.96265 3.0332 0
M  V30 4684 C 453.242 -2.99269 1.54725 0
M  V30 4685 O 453.772 -3.90644 0.93597 0
M  V30 4686 N 451.978 -2.61269 1.27228 0
M  V30 4687 H 451.525 -1.87043 1.77123 0
M  V30 4688 H 451.483 -3.09534 0.550999 0
M  V30 4689 N 455.255 -1.55392 -0.262866 0
M  V30 4690 C 456.188 -1.8391 -1.35101 0
M  V30 4691 C 457.166 -0.692901 -1.47097 0
M  V30 4692 O 458.35 -0.936979 -1.63563 0
M  V30 4693 C 455.477 -2.00969 -2.72634 0
M  V30 4694 C 454.523 -3.23559 -2.7787 0
M  V30 4695 S 455.356 -4.80647 -2.3609 0
M  V30 4696 C 456.512 -5.00692 -3.75578 0
M  V30 4697 H 456.745 -2.75918 -1.1071 0
M  V30 4698 H 454.278 -1.47294 -0.463029 0
M  V30 4699 H 456.236 -2.11482 -3.51832 0
M  V30 4700 H 454.897 -1.09832 -2.94272 0
M  V30 4701 H 454.09 -3.32413 -3.78837 0
M  V30 4702 H 453.692 -3.11689 -2.06702 0
M  V30 4703 H 455.984 -4.87055 -4.70939 0
M  V30 4704 H 456.927 -6.02717 -3.71669 0
M  V30 4705 H 457.335 -4.28619 -3.6735 0
M  V30 4706 N 456.733 0.527833 -1.48498 0
M  V30 4707 C 457.982 1.28003 -1.55878 0
M  V30 4708 C 458.295 1.9414 -0.238577 0
M  V30 4709 O 459.501 2.7083 -0.190643 0
M  V30 4710 C 457.957 2.32272 -2.74914 0
M  V30 4711 C 457.565 1.72196 -4.13585 0
M  V30 4712 C 459.309 3.08488 -2.91608 0
M  V30 4713 C 457.216 2.74417 -5.23879 0
M  V30 4714 H 456.146 0.481413 -0.580308 0
M  V30 4715 H 458.797 0.557195 -1.74836 0
M  V30 4716 H 457.179 3.07601 -2.49395 0
M  V30 4717 H 458.353 1.03041 -4.49132 0
M  V30 4718 H 456.668 1.08464 -4.02025 0
M  V30 4719 H 459.265 3.84879 -3.71177 0
M  V30 4720 H 459.608 3.64481 -2.01145 0
M  V30 4721 H 460.141 2.40274 -3.17038 0
M  V30 4722 H 456.88 2.23242 -6.16314 0
M  V30 4723 H 456.4 3.41893 -4.92818 0
M  V30 4724 H 458.079 3.37362 -5.52083 0
M  V30 4725 N 458.211 1.37122 0.776871 0
M  V30 4726 C 459.174 1.32301 1.8716 0
M  V30 4727 C 460.174 0.228099 1.59174 0
M  V30 4728 O 461.364 0.483642 1.67352 0
M  V30 4729 C 458.496 1.054 3.24197 0
M  V30 4730 H 459.689 2.29673 1.92848 0
M  V30 4731 H 457.242 1.22077 0.97606 0
M  V30 4732 H 457.977 0.0853872 3.24188 0
M  V30 4733 H 457.762 1.84648 3.45901 0
M  V30 4734 H 459.252 1.04664 4.04271 0
M  V30 4735 N 459.689 -1.00246 1.21608 0
M  V30 4736 C 460.966 -1.71336 0.943568 0
M  V30 4737 C 461.346 -2.03972 -0.543943 0
M  V30 4738 O 460.694 -1.71545 -1.50946 0
M  V30 4739 C 460.904 -2.97094 1.83128 0
M  V30 4740 C 462.252 -3.70071 2.08165 0
M  V30 4741 O 463.276 -3.07081 1.80498 0
M  V30 4742 O 462.135 -4.83376 2.54971 0
M  V30 4743 H 459.229 -0.747386 0.354039 0
M  V30 4744 H 461.775 -1.05967 1.32549 0
M  V30 4745 H 460.547 -2.69407 2.83788 0
M  V30 4746 H 460.17 -3.70204 1.45034 0
M  V30 4747 N 461.167 -1.02423 -1.1978 0
M  V30 4748 C 462.395 -0.737456 -1.93311 0
M  V30 4749 C 462.81 0.703023 -1.75223 0
M  V30 4750 O 462.167 1.47761 -1.07112 0
M  V30 4751 C 462.218 -1.0733 -3.45199 0
M  V30 4752 O 461.939 -2.4572 -3.62702 0
M  V30 4753 C 463.44 -0.80866 -4.35862 0
M  V30 4754 H 460.66 -0.2702 -0.614193 0
M  V30 4755 H 463.204 -1.36747 -1.52054 0
M  V30 4756 H 461.359 -0.488545 -3.84307 0
M  V30 4757 H 461.773 -2.58081 -4.56612 0
M  V30 4758 H 463.247 -1.09365 -5.41057 0
M  V30 4759 H 463.724 0.257025 -4.38447 0
M  V30 4760 H 464.33 -1.37592 -4.02428 0
M  V30 4761 N 462.645 1.35699 -0.801477 0
M  V30 4762 C 463.891 1.99208 -0.380022 0
M  V30 4763 C 464.224 1.63445 1.04878 0
M  V30 4764 O 463.499 0.895223 1.72673 0
M  V30 4765 C 463.782 3.55755 -0.557708 0
M  V30 4766 C 463.635 4.01332 -2.03107 0
M  V30 4767 C 464.954 4.40096 0.0197968 0
M  V30 4768 H 462.073 0.723667 -0.139552 0
M  V30 4769 H 464.715 1.60928 -1.01006 0
M  V30 4770 H 462.865 3.88494 -0.0213741 0
M  V30 4771 H 464.537 3.79026 -2.62939 0
M  V30 4772 H 462.78 3.52429 -2.52936 0
M  V30 4773 H 463.451 5.10234 -2.1063 0
M  V30 4774 H 465.927 4.13786 -0.438179 0
M  V30 4775 H 464.803 5.48735 -0.134477 0
M  V30 4776 H 465.064 4.2786 1.11303 0
M  V30 4777 N 464.123 0.554532 1.47522 0
M  V30 4778 C 465.37 0.029479 2.02479 0
M  V30 4779 C 465.698 -1.31929 1.42916 0
M  V30 4780 O 464.953 -1.87112 0.573385 0
M  V30 4781 C 465.252 -0.115927 3.57212 0
M  V30 4782 C 464.918 1.16161 4.3568 0
M  V30 4783 C 463.58 1.51168 4.56839 0
M  V30 4784 C 465.932 2.0083 4.80954 0
M  V30 4785 C 463.26 2.70696 5.2052 0
M  V30 4786 C 465.612 3.19559 5.45953 0
M  V30 4787 C 464.276 3.54882 5.65345 0
M  V30 4788 H 463.546 0.0107871 0.740921 0
M  V30 4789 H 466.193 0.725506 1.77225 0
M  V30 4790 H 464.498 -0.894902 3.81443 0
M  V30 4791 H 466.195 -0.53749 3.97381 0
M  V30 4792 H 462.785 0.879026 4.19489 0
M  V30 4793 H 466.969 1.75093 4.64388 0
M  V30 4794 H 462.225 2.98236 5.33728 0
M  V30 4795 H 466.399 3.85456 5.79997 0
M  V30 4796 H 464.026 4.47596 6.1446 0
M  V30 4797 N 465.601 -1.54893 0.290851 0
M  V30 4798 C 467.017 -1.59476 -0.0628432 0
M  V30 4799 C 467.217 -1.30795 -1.5328 0
M  V30 4800 O 466.273 -1.07644 -2.28406 0
M  V30 4801 C 467.586 -2.98928 0.325962 0
M  V30 4802 C 469.134 -3.11799 0.273882 0
M  V30 4803 C 469.609 -4.53544 0.637359 0
M  V30 4804 N 471.1 -4.59433 0.589507 0
M  V30 4805 C 471.835 -5.67164 0.84335 0
M  V30 4806 N 471.331 -6.82975 1.16263 0
M  V30 4807 N 473.124 -5.56786 0.771091 0
M  V30 4808 H 465.275 -1.71798 1.24896 0
M  V30 4809 H 467.538 -0.801879 0.505663 0
M  V30 4810 H 467.244 -3.24805 1.34887 0
M  V30 4811 H 467.118 -3.75793 -0.325441 0
M  V30 4812 H 469.505 -2.85677 -0.739765 0
M  V30 4813 H 469.586 -2.37112 0.959766 0
M  V30 4814 H 469.23 -4.80394 1.64877 0
M  V30 4815 H 469.16 -5.26553 -0.0704866 0
M  V30 4816 H 471.651 -3.76245 0.353252 0
M  V30 4817 H 471.964 -7.61048 1.34257 0
M  V30 4818 H 470.309 -6.84552 1.20057 0
M  V30 4819 H 473.5 -4.65187 0.521383 0
M  V30 4820 H 473.673 -6.40664 0.972295 0
M  V30 4821 N 467.08 -0.0183926 -1.57589 0
M  V30 4822 C 468.013 1.00148 -2.0505 0
M  V30 4823 C 468.991 1.32387 -0.944058 0
M  V30 4824 O 470.175 1.44237 -1.21358 0
M  V30 4825 C 467.302 2.32435 -2.46357 0
M  V30 4826 C 466.348 2.15731 -3.67916 0
M  V30 4827 S 467.181 1.46613 -5.15039 0
M  V30 4828 C 468.337 2.80293 -5.59631 0
M  V30 4829 H 468.57 0.597429 -2.91235 0
M  V30 4830 H 466.103 0.193002 -1.53189 0
M  V30 4831 H 468.061 3.0849 -2.70822 0
M  V30 4832 H 466.722 2.69975 -1.60537 0
M  V30 4833 H 465.915 3.13502 -3.9463 0
M  V30 4834 H 465.517 1.4782 -3.43548 0
M  V30 4835 H 467.809 3.76557 -5.63215 0
M  V30 4836 H 468.752 2.58256 -6.59325 0
M  V30 4837 H 469.16 2.85047 -4.87246 0
M  V30 4838 N 468.558 1.5553 0.254621 0
M  V30 4839 C 469.807 1.76202 0.981612 0
M  V30 4840 C 470.12 0.580883 1.86776 0
M  V30 4841 O 471.326 0.670448 2.63092 0
M  V30 4842 C 469.782 3.11921 1.79537 0
M  V30 4843 C 469.39 4.37659 0.956991 0
M  V30 4844 C 471.134 3.41936 2.51555 0
M  V30 4845 C 469.041 5.64411 1.76619 0
M  V30 4846 H 467.971 0.656841 0.370237 0
M  V30 4847 H 470.622 1.81969 0.236556 0
M  V30 4848 H 469.004 3.00241 2.58208 0
M  V30 4849 H 470.178 4.60307 0.21315 0
M  V30 4850 H 468.493 4.14922 0.350497 0
M  V30 4851 H 471.09 4.33849 3.12536 0
M  V30 4852 H 471.433 2.62905 3.22779 0
M  V30 4853 H 471.966 3.54797 1.799 0
M  V30 4854 H 468.705 6.46241 1.09783 0
M  V30 4855 H 468.225 5.45877 2.48551 0
M  V30 4856 H 469.904 6.03386 2.33527 0
M  V30 4857 N 470.036 -0.519951 1.48776 0
M  V30 4858 C 471.284 -1.2727 1.56993 0
M  V30 4859 C 471.605 -1.9339 0.25004 0
M  V30 4860 O 470.875 -1.81822 -0.729216 0
M  V30 4861 H 469.455 -0.472732 0.578389 0
M  V30 4862 H 472.117 -0.604234 1.85297 0
M  V30 4863 H 471.213 -2.04669 2.3562 0
M  V30 4864 N 471.514 -1.37532 -0.769588 0
M  V30 4865 C 472.464 -1.29984 -1.87318 0
M  V30 4866 C 473.448 -0.187242 -1.59807 0
M  V30 4867 O 474.64 -0.421827 -1.719 0
M  V30 4868 C 471.769 -1.11126 -3.24817 0
M  V30 4869 C 470.855 -2.26939 -3.58273 0
M  V30 4870 N 471.246 -3.52336 -3.62895 0
M  V30 4871 C 469.544 -2.19141 -3.8845 0
M  V30 4872 C 470.245 -4.28719 -3.9316 0
M  V30 4873 N 469.221 -3.57884 -4.0917 0
M  V30 4874 H 473.023 -2.24946 -1.89147 0
M  V30 4875 H 470.537 -1.30535 -0.966143 0
M  V30 4876 H 472.534 -1.03803 -4.0377 0
M  V30 4877 H 471.194 -0.17083 -3.2425 0
M  V30 4878 H 472.205 -3.86216 -3.45048 0
M  V30 4879 H 468.882 -1.33167 -3.95693 0
M  V30 4880 H 470.272 -5.37254 -4.03494 0
M  V30 4881 N 472.992 0.995999 -1.22138 0
M  V30 4882 C 473.955 2.06711 -0.990109 0
M  V30 4883 C 474.955 1.60744 0.0422978 0
M  V30 4884 O 476.145 1.73095 -0.195895 0
M  V30 4885 C 473.277 3.37288 -0.49491 0
M  V30 4886 H 474.47 2.28661 -1.94047 0
M  V30 4887 H 472.023 1.16711 -1.03963 0
M  V30 4888 H 472.758 3.21022 0.459948 0
M  V30 4889 H 472.543 3.71986 -1.23971 0
M  V30 4890 H 474.033 4.16103 -0.353253 0
M  V30 4891 N 474.47 1.03057 1.19235 0
M  V30 4892 C 475.886 0.747947 1.40989 0
M  V30 4893 C 476.086 -0.666752 1.90149 0
M  V30 4894 O 475.142 -1.43249 2.07933 0
M  V30 4895 C 476.455 1.7855 2.41951 0
M  V30 4896 C 478.003 1.80524 2.55695 0
M  V30 4897 C 478.478 2.83243 3.59913 0
M  V30 4898 N 479.969 2.8207 3.67411 0
M  V30 4899 C 480.704 3.58204 4.47747 0
M  V30 4900 N 480.2 4.44057 5.31775 0
M  V30 4901 N 481.993 3.46738 4.42413 0
M  V30 4902 H 474.144 1.94367 0.856468 0
M  V30 4903 H 476.407 0.840412 0.438647 0
M  V30 4904 H 476.113 2.79973 2.12857 0
M  V30 4905 H 475.987 1.6092 3.41152 0
M  V30 4906 H 478.374 0.79778 2.84112 0
M  V30 4907 H 478.455 2.02229 1.56643 0
M  V30 4908 H 478.099 3.84161 3.32239 0
M  V30 4909 H 478.029 2.58795 4.5862 0
M  V30 4910 H 480.52 2.19803 3.074 0
M  V30 4911 H 480.833 4.98884 5.90199 0
M  V30 4912 H 479.178 4.48129 5.3123 0
M  V30 4913 H 482.369 2.79077 3.75811 0
M  V30 4914 H 482.542 4.06322 5.04783 0
M  V30 4915 N 475.948 -1.35272 0.808662 0
M  V30 4916 C 477.195 -1.98709 0.390003 0
M  V30 4917 C 477.523 -1.64148 -1.04335 0
M  V30 4918 O 476.778 -0.897797 -1.73891 0
M  V30 4919 C 477.077 -3.53556 0.522798 0
M  V30 4920 C 476.743 -4.0799 1.91977 0
M  V30 4921 C 475.405 -4.22568 2.30195 0
M  V30 4922 C 477.757 -4.37442 2.83361 0
M  V30 4923 C 475.085 -4.63918 3.59162 0
M  V30 4924 C 477.437 -4.80232 4.11776 0
M  V30 4925 C 476.101 -4.93016 4.49991 0
M  V30 4926 H 475.371 -0.727127 0.142712 0
M  V30 4927 H 478.018 -1.6145 1.02985 0
M  V30 4928 H 476.323 -3.91287 -0.200494 0
M  V30 4929 H 478.02 -4.00598 0.179608 0
M  V30 4930 H 474.61 -3.97096 1.61284 0
M  V30 4931 H 478.794 -4.25731 2.55083 0
M  V30 4932 H 474.05 -4.72005 3.88615 0
M  V30 4933 H 478.224 -5.01982 4.82687 0
M  V30 4934 H 475.851 -5.24814 5.49976 0
M  V30 4935 N 477.426 -0.562348 -1.47226 0
M  V30 4936 C 478.374 0.195476 -2.31777 0
M  V30 4937 C 479.368 0.90433 -1.43242 0
M  V30 4938 O 480.574 0.825031 -1.59979 0
M  V30 4939 H 476.949 0.0819095 -0.747526 0
M  V30 4940 H 478.92 -0.536753 -2.93533 0
M  V30 4941 C 477.669 1.20902 -3.26003 0
M  V30 4942 H 476.992 0.672997 -3.94095 0
M  V30 4943 H 478.432 1.71006 -3.87986 0
M  V30 4944 C 476.891 2.25955 -2.49891 0
M  V30 4945 O 477.421 3.32969 -2.2471 0
M  V30 4946 N 475.627 2.00019 -2.1081 0
M  V30 4947 H 475.174 1.13006 -2.31489 0
M  V30 4948 H 475.132 2.70523 -1.60201 0
M  V30 4949 N 478.904 1.54736 -0.299062 0
M  V30 4950 C 480.15 2.00397 0.311244 0
M  V30 4951 C 480.483 1.18716 1.53688 0
M  V30 4952 O 479.758 0.263154 1.92712 0
M  V30 4953 C 480.041 3.53817 0.669761 0
M  V30 4954 C 479.894 4.46239 -0.564882 0
M  V30 4955 C 481.213 4.13856 1.49702 0
M  V30 4956 H 478.332 0.728493 0.111653 0
M  V30 4957 H 480.974 1.85506 -0.410774 0
M  V30 4958 H 479.124 3.66637 1.28491 0
M  V30 4959 H 480.796 4.45328 -1.20337 0
M  V30 4960 H 479.039 4.16916 -1.19849 0
M  V30 4961 H 479.71 5.5134 -0.269918 0
M  V30 4962 H 482.186 4.04461 0.977284 0
M  V30 4963 H 481.062 5.21365 1.71666 0
M  V30 4964 H 481.323 3.65608 2.48563 0
M  V30 4965 N 480.382 0.0267497 1.57577 0
M  V30 4966 C 481.793 -0.512413 1.79531 0
M  V30 4967 C 482.144 -1.72391 0.936791 0
M  V30 4968 O 481.269 -2.15903 0.146543 0
M  V30 4969 C 481.864 -0.936378 3.25603 0
M  V30 4970 C 480.423 -1.42067 3.4856 0
M  V30 4971 C 479.57 -0.384278 2.74624 0
M  V30 4972 H 482.521 0.252797 1.56674 0
M  V30 4973 H 482.542 -1.80088 3.35184 0
M  V30 4974 H 482.054 -0.0544332 3.88062 0
M  V30 4975 H 480.155 -2.32262 2.9135 0
M  V30 4976 H 480.268 -1.42968 4.57271 0
M  V30 4977 H 478.632 -0.851855 2.40032 0
M  V30 4978 H 479.415 0.489159 3.39797 0
M  V30 4979 N 481.861 -1.55662 -0.24637 0
M  V30 4980 C 483.109 -1.77168 -0.972411 0
M  V30 4981 C 483.43 -0.590827 -1.85834 0
M  V30 4982 O 482.7 0.393365 -1.9191 0
M  V30 4983 H 481.28 -0.653405 -0.362038 0
M  V30 4984 H 483.942 -1.93101 -0.264189 0
M  V30 4985 H 483.038 -2.68335 -1.59382 0
M  V30 4986 N 483.339 0.512053 -1.4905 0
M  V30 4987 C 484.567 1.29116 -1.61669 0
M  V30 4988 C 484.982 1.86655 -0.283787 0
M  V30 4989 O 484.339 1.67293 0.729331 0
M  V30 4990 C 484.39 2.4293 -2.67707 0
M  V30 4991 O 484.111 1.87758 -3.95826 0
M  V30 4992 C 485.612 3.34476 -2.90931 0
M  V30 4993 H 482.832 0.392009 -0.544583 0
M  V30 4994 H 485.376 0.615881 -1.95006 0
M  V30 4995 H 483.531 3.06308 -2.37179 0
M  V30 4996 H 483.945 2.62393 -4.54148 0
M  V30 4997 H 485.419 4.10642 -3.68886 0
M  V30 4998 H 485.896 3.90801 -2.00427 0
M  V30 4999 H 486.502 2.76874 -3.22832 0
M  V30 5000 N 484.817 1.37938 0.762283 0
M  V30 5001 C 486.063 1.34873 1.52253 0
M  V30 5002 C 486.418 -0.0635972 1.92295 0
M  V30 5003 O 485.711 -1.02434 1.61919 0
M  V30 5004 C 485.905 2.23042 2.79261 0
M  V30 5005 C 485.734 3.72706 2.51635 0
M  V30 5006 C 484.504 4.41771 2.45289 0
M  V30 5007 C 486.702 4.65345 2.18994 0
M  V30 5008 N 484.684 5.76921 2.09846 0
M  V30 5009 C 486.055 5.88943 1.9377 0
M  V30 5010 C 488.11 4.53636 2.0523 0
M  V30 5011 C 486.813 7.02142 1.5617 0
M  V30 5012 C 488.839 5.6673 1.69031 0
M  V30 5013 C 488.201 6.89383 1.44673 0
M  V30 5014 H 484.3 0.548818 0.557067 0
M  V30 5015 H 486.884 1.73247 0.888458 0
M  V30 5016 H 485.055 1.8687 3.40491 0
M  V30 5017 H 486.787 2.11165 3.45241 0
M  V30 5018 H 483.542 3.94883 2.61465 0
M  V30 5019 H 483.966 6.4837 1.94794 0
M  V30 5020 H 488.608 3.5937 2.2274 0
M  V30 5021 H 486.326 7.96334 1.37399 0
M  V30 5022 H 489.912 5.59645 1.59026 0
M  V30 5023 H 488.792 7.75411 1.17079 0
M  V30 5024 N 486.295 -0.989507 1.22664 0
M  V30 5025 C 487.711 -1.25395 0.987331 0
M  V30 5026 C 487.911 -1.9899 -0.317056 0
M  V30 5027 O 486.967 -2.30141 -1.03882 0
M  V30 5028 C 488.28 -2.06242 2.18826 0
M  V30 5029 C 489.828 -2.19413 2.23219 0
M  V30 5030 C 490.303 -3.03648 3.42873 0
M  V30 5031 N 491.794 -3.11234 3.43056 0
M  V30 5032 C 492.529 -3.7671 4.32293 0
M  V30 5033 N 492.025 -4.44085 5.31752 0
M  V30 5034 N 493.818 -3.73505 4.2006 0
M  V30 5035 H 485.969 -0.496212 2.06522 0
M  V30 5036 H 488.232 -0.281784 0.905153 0
M  V30 5037 H 487.938 -1.59531 3.13437 0
M  V30 5038 H 487.812 -3.06996 2.19165 0
M  V30 5039 H 490.199 -2.65336 1.29154 0
M  V30 5040 H 490.28 -1.18078 2.26917 0
M  V30 5041 H 489.924 -2.58424 4.37241 0
M  V30 5042 H 489.854 -4.05132 3.36416 0
M  V30 5043 H 492.345 -2.63287 2.71088 0
M  V30 5044 H 492.658 -4.91797 5.96117 0
M  V30 5045 H 491.003 -4.42822 5.35662 0
M  V30 5046 H 494.194 -3.20033 3.41609 0
M  V30 5047 H 494.367 -4.24253 4.8981 0
M  V30 5048 N 487.773 -1.03688 -1.18687 0
M  V30 5049 C 488.736 -0.629115 -2.20397 0
M  V30 5050 C 489.736 0.311495 -1.57754 0
M  V30 5051 O 490.926 0.0974107 -1.73927 0
M  V30 5052 C 488.058 0.0782231 -3.4081 0
M  V30 5053 H 489.251 -1.52915 -2.57987 0
M  V30 5054 H 486.804 -0.828988 -1.32505 0
M  V30 5055 H 487.539 0.992233 -3.08748 0
M  V30 5056 H 487.324 -0.597776 -3.87517 0
M  V30 5057 H 488.814 0.350156 -4.16129 0
M  V30 5058 N 489.251 1.34841 -0.815825 0
M  V30 5059 C 490.499 1.98107 -0.399744 0
M  V30 5060 C 490.82 1.65019 1.03894 0
M  V30 5061 O 490.09 0.937311 1.72021 0
M  V30 5062 H 488.67 0.732827 -0.144823 0
M  V30 5063 H 491.332 1.64599 -1.0437 0
M  V30 5064 H 490.428 3.07856 -0.512965 0
M  V30 5065 N 490.729 0.570148 1.46925 0
M  V30 5066 C 491.954 0.0542592 2.07329 0
M  V30 5067 C 492.379 -1.23582 1.41806 0
M  V30 5068 O 491.737 -1.74341 0.497479 0
M  V30 5069 C 491.785 -0.111175 3.60429 0
M  V30 5070 O 490.889 -1.17071 3.95434 0
M  V30 5071 H 490.23 0.0571425 0.661537 0
M  V30 5072 H 492.76 0.789516 1.88753 0
M  V30 5073 H 492.77 -0.321315 4.06733 0
M  V30 5074 H 491.445 0.831012 4.07513 0
M  V30 5075 H 490.022 -0.940029 3.60857 0
M  V30 5076 N 492.207 -1.54576 0.307264 0
M  V30 5077 C 493.484 -1.92377 -0.353605 0
M  V30 5078 C 493.864 -1.23517 -1.71192 0
M  V30 5079 O 493.212 -0.373101 -2.25433 0
M  V30 5080 C 493.422 -3.45928 -0.462039 0
M  V30 5081 C 494.77 -4.18278 -0.729975 0
M  V30 5082 O 495.794 -3.51997 -0.545605 0
M  V30 5083 O 494.653 -5.3563 -1.08454 0
M  V30 5084 H 491.747 -0.802747 -0.198812 0
M  V30 5085 H 494.293 -1.65929 0.355783 0
M  V30 5086 H 493.065 -3.88187 0.492592 0
M  V30 5087 H 492.688 -3.78431 -1.21965 0
M  V30 5088 N 493.685 -0.035106 -1.57561 0
M  V30 5089 C 494.648 0.929819 -2.09492 0
M  V30 5090 C 495.648 1.25026 -1.01119 0
M  V30 5091 O 496.838 1.18961 -1.27255 0
M  V30 5092 C 493.97 2.24457 -2.56577 0
M  V30 5093 H 495.163 0.479935 -2.96035 0
M  V30 5094 H 492.716 0.213033 -1.54841 0
M  V30 5095 H 493.451 2.74061 -1.73382 0
M  V30 5096 H 493.236 2.02508 -3.35757 0
M  V30 5097 H 494.726 2.93607 -2.96959 0
M  V30 5098 N 495.163 1.55791 0.238111 0
M  V30 5099 C 496.409 1.78297 0.966337 0
M  V30 5100 C 496.742 0.601903 1.84637 0
M  V30 5101 O 496.017 -0.399499 1.90353 0
M  V30 5102 C 496.3 3.10758 1.81939 0
M  V30 5103 C 496.153 4.39283 0.966958 0
M  V30 5104 C 497.472 3.39519 2.80027 0
M  V30 5105 H 494.591 0.648654 0.349882 0
M  V30 5106 H 497.233 1.88525 0.236253 0
M  V30 5107 H 495.383 3.02168 2.44185 0
M  V30 5108 H 497.055 4.59873 0.362514 0
M  V30 5109 H 495.298 4.32948 0.271669 0
M  V30 5110 H 495.969 5.28368 1.59784 0
M  V30 5111 H 498.445 3.48128 2.27917 0
M  V30 5112 H 497.321 4.33402 3.36829 0
M  V30 5113 H 497.582 2.60864 3.56934 0
M  V30 5114 N 496.642 -0.504142 1.49319 0
M  V30 5115 C 498.058 -0.835039 1.36012 0
M  V30 5116 C 498.258 -1.97674 0.390808 0
M  V30 5117 O 497.314 -2.51867 -0.178655 0
M  V30 5118 C 498.627 -1.17821 2.76656 0
M  V30 5119 C 500.175 -1.2866 2.85334 0
M  V30 5120 C 500.65 -1.66307 4.26739 0
M  V30 5121 N 502.141 -1.73362 4.29534 0
M  V30 5122 C 502.876 -2.0393 5.35911 0
M  V30 5123 N 502.372 -2.32744 6.52535 0
M  V30 5124 N 504.165 -2.05155 5.23324 0
M  V30 5125 H 496.316 0.248764 2.10938 0
M  V30 5126 H 498.579 0.0486962 0.946748 0
M  V30 5127 H 498.285 -0.412682 3.4927 0
M  V30 5128 H 498.159 -2.12239 3.11825 0
M  V30 5129 H 500.546 -2.04285 2.1296 0
M  V30 5130 H 500.627 -0.323004 2.53752 0
M  V30 5131 H 500.271 -0.91234 4.99639 0
M  V30 5132 H 500.201 -2.63761 4.55782 0
M  V30 5133 H 502.692 -1.53268 3.45424 0
M  V30 5134 H 503.005 -2.55248 7.2943 0
M  V30 5135 H 501.35 -2.30207 6.55767 0
M  V30 5136 H 504.541 -1.82119 4.3122 0
M  V30 5137 H 504.714 -2.28644 6.06322 0
M  V30 5138 N 498.12 -1.38341 -0.754957 0
M  V30 5139 C 499.052 -1.31347 -1.87831 0
M  V30 5140 C 500.065 -0.225955 -1.61224 0
M  V30 5141 O 501.254 -0.48341 -1.7183 0
M  V30 5142 C 498.354 -1.01201 -3.23437 0
M  V30 5143 C 497.527 -2.20834 -3.77559 0
M  V30 5144 C 496.586 -1.87454 -4.91678 0
M  V30 5145 O 495.612 -2.59934 -5.06382 0
M  V30 5146 N 496.814 -0.828682 -5.74555 0
M  V30 5147 H 499.579 -2.28147 -1.94342 0
M  V30 5148 H 497.14 -1.32184 -0.934828 0
M  V30 5149 H 499.132 -0.769249 -3.97322 0
M  V30 5150 H 497.702 -0.132011 -3.12321 0
M  V30 5151 H 496.922 -2.61184 -2.95256 0
M  V30 5152 H 498.21 -3.00678 -4.10451 0
M  V30 5153 H 497.608 -0.227591 -5.65242 0
M  V30 5154 H 496.165 -0.645802 -6.48593 0
M  V30 5155 N 499.598 0.982988 -1.23187 0
M  V30 5156 C 500.847 1.71817 -1.05649 0
M  V30 5157 C 501.16 1.91315 0.407176 0
M  V30 5158 O 502.366 2.62256 0.702436 0
M  V30 5159 C 500.822 3.09188 -1.84203 0
M  V30 5160 C 500.43 2.97586 -3.34882 0
M  V30 5161 C 502.174 3.86684 -1.75146 0
M  V30 5162 C 500.081 4.30173 -4.05839 0
M  V30 5163 H 499.011 0.644258 -0.391724 0
M  V30 5164 H 501.662 1.09659 -1.4713 0
M  V30 5165 H 500.044 3.72087 -1.35527 0
M  V30 5166 H 501.218 2.43793 -3.91026 0
M  V30 5167 H 499.533 2.33567 -3.44725 0
M  V30 5168 H 502.13 4.84836 -2.25473 0
M  V30 5169 H 502.473 4.10136 -0.713737 0
M  V30 5170 H 503.006 3.30482 -2.21419 0
M  V30 5171 H 499.745 4.11918 -5.09906 0
M  V30 5172 H 499.265 4.83841 -3.54482 0
M  V30 5173 H 500.944 4.98873 -4.11989 0
M  V30 5174 N 501.076 1.04316 1.18135 0
M  V30 5175 C 502.006 0.657299 2.24058 0
M  V30 5176 C 502.987 -0.340678 1.66654 0
M  V30 5177 O 504.172 -0.220223 1.92947 0
M  V30 5178 C 501.302 0.0220715 3.47293 0
M  V30 5179 C 500.256 0.943857 4.17463 0
M  V30 5180 C 499.582 0.172973 5.3442 0
M  V30 5181 C 500.882 2.26409 4.70677 0
M  V30 5182 H 502.576 1.5428 2.56589 0
M  V30 5183 H 500.122 0.743263 1.23335 0
M  V30 5184 H 502.075 -0.259607 4.206 0
M  V30 5185 H 500.799 -0.898323 3.14003 0
M  V30 5186 H 499.458 1.20996 3.46057 0
M  V30 5187 H 499.106 -0.749907 4.97379 0
M  V30 5188 H 498.806 0.787098 5.82304 0
M  V30 5189 H 500.33 -0.101628 6.10515 0
M  V30 5190 H 501.744 2.04294 5.35665 0
M  V30 5191 H 500.141 2.8314 5.29105 0
M  V30 5192 H 501.211 2.90883 3.87962 0
M  V30 5193 N 502.554 -1.34406 0.822964 0
M  V30 5194 C 503.97 -1.51275 0.508727 0
M  V30 5195 C 504.17 -1.76776 -0.967083 0
M  V30 5196 O 503.226 -1.81871 -1.75155 0
M  V30 5197 C 504.539 -2.67765 1.36829 0
M  V30 5198 C 506.087 -2.81647 1.36542 0
M  V30 5199 C 506.562 -4.01181 2.20947 0
M  V30 5200 N 508.053 -4.08388 2.18571 0
M  V30 5201 C 508.788 -5.00036 2.80627 0
M  V30 5202 N 508.284 -5.96906 3.51674 0
M  V30 5203 N 510.077 -4.92908 2.70181 0
M  V30 5204 H 502.228 -1.16113 1.77852 0
M  V30 5205 H 504.491 -0.56947 0.757897 0
M  V30 5206 H 504.197 -2.55551 2.41633 0
M  V30 5207 H 504.071 -3.62779 1.03303 0
M  V30 5208 H 506.458 -2.93303 0.325163 0
M  V30 5209 H 506.539 -1.87443 1.74066 0
M  V30 5210 H 506.183 -3.90286 3.25022 0
M  V30 5211 H 506.113 -4.94599 1.80774 0
M  V30 5212 H 508.604 -3.39051 1.66891 0
M  V30 5213 H 508.917 -6.63468 3.96271 0
M  V30 5214 H 507.262 -5.9703 3.5578 0
M  V30 5215 H 510.453 -4.1619 2.14251 0
M  V30 5216 H 510.626 -5.64137 3.18831 0
M  V30 5217 N 504.032 -0.577932 -1.46621 0
M  V30 5218 C 504.964 0.195801 -2.28362 0
M  V30 5219 C 505.977 0.859983 -1.38232 0
M  V30 5220 O 507.166 0.730349 -1.62875 0
M  V30 5221 C 504.266 1.29639 -3.13124 0
M  V30 5222 C 503.439 0.725049 -4.31349 0
M  V30 5223 C 502.498 1.71274 -4.97546 0
M  V30 5224 O 501.524 1.25067 -5.5529 0
M  V30 5225 N 502.726 3.04672 -4.94121 0
M  V30 5226 H 505.491 -0.505468 -2.95407 0
M  V30 5227 H 503.052 -0.415381 -1.56481 0
M  V30 5228 H 505.044 1.95631 -3.54275 0
M  V30 5229 H 503.614 1.90059 -2.48186 0
M  V30 5230 H 502.834 -0.112205 -3.9404 0
M  V30 5231 H 504.122 0.323034 -5.07774 0
M  V30 5232 H 503.52 3.4484 -4.48444 0
M  V30 5233 H 502.077 3.66166 -5.39227 0
M  V30 5234 N 505.51 1.54411 -0.315457 0
M  V30 5235 C 506.442 2.21527 0.588067 0
M  V30 5236 C 507.455 1.21263 1.08624 0
M  V30 5237 O 508.644 1.47777 1.00121 0
M  V30 5238 C 505.744 2.85963 1.81875 0
M  V30 5239 C 504.917 4.12291 1.46063 0
M  V30 5240 C 503.976 4.60396 2.54799 0
M  V30 5241 O 503.002 5.25265 2.19283 0
M  V30 5242 N 504.204 4.33935 3.85591 0
M  V30 5243 H 506.969 2.99697 0.013414 0
M  V30 5244 H 504.53 1.61308 -0.138295 0
M  V30 5245 H 506.522 3.15071 2.53993 0
M  V30 5246 H 505.092 2.11548 2.30144 0
M  V30 5247 H 504.312 3.90036 0.571445 0
M  V30 5248 H 505.6 4.9452 1.19695 0
M  V30 5249 H 504.998 3.81996 4.17248 0
M  V30 5250 H 503.555 4.67718 4.53964 0
M  V30 5251 N 506.988 0.0434614 1.5754 0
M  V30 5252 C 507.951 -0.918696 2.09982 0
M  V30 5253 C 508.951 -1.24488 1.01781 0
M  V30 5254 O 510.141 -1.18284 1.27885 0
M  V30 5255 C 507.273 -2.23093 2.57764 0
M  V30 5256 H 508.466 -0.464229 2.96285 0
M  V30 5257 H 506.019 -0.204818 1.54952 0
M  V30 5258 H 506.754 -2.73137 1.74832 0
M  V30 5259 H 506.539 -2.00724 3.36827 0
M  V30 5260 H 508.029 -2.92028 2.98512 0
M  V30 5261 N 508.466 -1.55915 -0.229846 0
M  V30 5262 C 509.714 -1.7819 -0.953565 0
M  V30 5263 C 510.035 -0.610504 -1.85197 0
M  V30 5264 O 509.305 0.372988 -1.92316 0
M  V30 5265 H 507.885 -0.657208 -0.355087 0
M  V30 5266 H 510.547 -1.9337 -0.243693 0
M  V30 5267 H 509.643 -2.70011 -1.56527 0
M  V30 5268 N 509.944 0.496216 -1.49584 0
M  V30 5269 C 511.19 1.25189 -1.59548 0
M  V30 5270 C 511.523 1.9212 -0.283466 0
M  V30 5271 O 510.798 1.80947 0.713324 0
M  V30 5272 C 511.081 2.31516 -2.75812 0
M  V30 5273 C 510.934 1.69054 -4.16822 0
M  V30 5274 C 512.253 3.3304 -2.87702 0
M  V30 5275 H 509.372 0.45379 -0.580727 0
M  V30 5276 H 512.014 0.549327 -1.81886 0
M  V30 5277 H 510.164 2.91438 -2.56897 0
M  V30 5278 H 511.836 1.12923 -4.47265 0
M  V30 5279 H 510.079 0.994485 -4.22247 0
M  V30 5280 H 510.75 2.462 -4.94054 0
M  V30 5281 H 513.226 2.83114 -3.04936 0
M  V30 5282 H 512.102 4.04794 -3.7072 0
M  V30 5283 H 512.363 3.95655 -1.97255 0
M  V30 5284 N 511.423 1.38739 0.74761 0
M  V30 5285 C 512.7 1.25791 1.49786 0
M  V30 5286 C 513.08 -0.138075 2.10648 0
M  V30 5287 O 512.428 -1.14815 1.9756 0
M  V30 5288 C 512.638 2.37265 2.55942 0
M  V30 5289 C 513.986 2.75978 3.22679 0
M  V30 5290 O 515.01 2.36621 2.6625 0
M  V30 5291 O 513.869 3.43867 4.24756 0
M  V30 5292 H 510.963 0.492251 0.664543 0
M  V30 5293 H 513.509 1.50582 0.782511 0
M  V30 5294 H 512.281 3.30644 2.0926 0
M  V30 5295 H 511.904 2.14071 3.35051 0
M  V30 5296 N 512.901 -0.976442 1.23707 0
M  V30 5297 C 514.15 -1.71254 1.06559 0
M  V30 5298 C 514.463 -1.91528 -0.397024 0
M  V30 5299 O 515.669 -2.62625 -0.688518 0
M  V30 5300 C 514.125 -3.08207 1.8584 0
M  V30 5301 C 513.733 -2.95806 3.36456 0
M  V30 5302 C 515.477 -3.85749 1.77194 0
M  V30 5303 C 513.384 -4.28015 4.08114 0
M  V30 5304 H 512.314 -0.642171 0.395136 0
M  V30 5305 H 514.965 -1.08877 1.4771 0
M  V30 5306 H 513.347 -3.71363 1.37498 0
M  V30 5307 H 514.521 -2.41716 3.92314 0
M  V30 5308 H 512.836 -2.31736 3.45959 0
M  V30 5309 H 515.433 -4.83633 2.28041 0
M  V30 5310 H 515.776 -4.09752 0.735477 0
M  V30 5311 H 516.309 -3.29303 2.23169 0
M  V30 5312 H 513.048 -4.09208 5.12083 0
M  V30 5313 H 512.568 -4.81955 3.57043 0
M  V30 5314 H 514.247 -4.96681 4.14629 0
M  V30 5315 N 514.379 -1.04941 -1.1758 0
M  V30 5316 C 515.627 -0.756492 -1.87408 0
M  V30 5317 C 515.948 0.718478 -1.81281 0
M  V30 5318 O 515.218 1.519 -1.23706 0
M  V30 5319 H 513.798 -0.276841 -0.693807 0
M  V30 5320 H 516.46 -1.32803 -1.42652 0
M  V30 5321 H 515.556 -1.06918 -2.93215 0
M  V30 5322 N 515.857 1.33968 -0.830081 0
M  V30 5323 C 516.805 2.31301 -0.245435 0
M  V30 5324 C 517.799 1.57734 0.617762 0
M  V30 5325 O 519.005 1.72674 0.508303 0
M  V30 5326 H 515.38 0.749552 -0.0606316 0
M  V30 5327 H 517.351 2.78129 -1.08105 0
M  V30 5328 C 516.1 3.42961 0.572084 0
M  V30 5329 H 515.423 3.99714 -0.0828118 0
M  V30 5330 H 516.863 4.13286 0.94715 0
M  V30 5331 C 515.322 2.88043 1.74737 0
M  V30 5332 O 515.852 2.83508 2.8458 0
M  V30 5333 N 514.058 2.44768 1.56642 0
M  V30 5334 H 513.605 2.48656 0.672901 0
M  V30 5335 H 513.563 2.08375 2.3543 0
M  V30 5336 N 517.335 0.585699 1.46312 0
M  V30 5337 C 518.563 0.0781299 2.06752 0
M  V30 5338 C 518.978 -1.22812 1.43396 0
M  V30 5339 O 518.335 -1.74318 0.540314 0
M  V30 5340 C 518.386 -0.0911927 3.61385 0
M  V30 5341 O 518.107 1.16336 4.22371 0
M  V30 5342 C 519.608 -0.632765 4.38761 0
M  V30 5343 H 516.828 0.0588188 0.668417 0
M  V30 5344 H 519.372 0.807218 1.87894 0
M  V30 5345 H 517.527 -0.770514 3.7966 0
M  V30 5346 H 517.941 0.979082 5.15281 0
M  V30 5347 H 519.415 -0.70041 5.47538 0
M  V30 5348 H 519.892 -1.65039 4.07012 0
M  V30 5349 H 520.498 0.0117856 4.25298 0
M  V30 5350 N 518.813 -1.54241 0.323641 0
M  V30 5351 C 520.062 -1.9975 -0.279806 0
M  V30 5352 C 520.375 -1.2156 -1.5324 0
M  V30 5353 O 521.581 -1.57447 -2.21185 0
M  V30 5354 C 520.037 -3.55686 -0.549115 0
M  V30 5355 C 519.645 -4.4271 0.686432 0
M  V30 5356 C 521.389 -4.09663 -1.11251 0
M  V30 5357 C 519.296 -5.90119 0.389022 0
M  V30 5358 H 518.226 -0.746177 -0.10833 0
M  V30 5359 H 520.877 -1.78248 0.435877 0
M  V30 5360 H 519.259 -3.73176 -1.32499 0
M  V30 5361 H 520.433 -4.36996 1.46188 0
M  V30 5362 H 518.748 -3.99623 1.17005 0
M  V30 5363 H 521.345 -5.17386 -1.34965 0
M  V30 5364 H 521.688 -3.61651 -2.06191 0
M  V30 5365 H 522.221 -3.95806 -0.39782 0
M  V30 5366 H 518.96 -6.42326 1.30759 0
M  V30 5367 H 518.48 -5.98785 -0.348722 0
M  V30 5368 H 520.159 -6.47 -0.0011164 0
M  V30 5369 N 520.291 -0.0518155 -1.57515 0
M  V30 5370 C 521.54 0.621286 -1.91893 0
M  V30 5371 C 521.853 1.71966 -0.932052 0
M  V30 5372 O 523.059 2.45096 -1.16791 0
M  V30 5373 C 521.515 1.15641 -3.40816 0
M  V30 5374 C 521.123 0.0901146 -4.47909 0
M  V30 5375 C 522.867 1.80472 -3.84227 0
M  V30 5376 C 520.774 0.638154 -5.87947 0
M  V30 5377 H 519.704 0.235835 -0.716169 0
M  V30 5378 H 522.355 -0.120809 -1.83102 0
M  V30 5379 H 520.737 1.95084 -3.44613 0
M  V30 5380 H 521.911 -0.683525 -4.55702 0
M  V30 5381 H 520.226 -0.460774 -4.13843 0
M  V30 5382 H 522.823 2.22471 -4.86221 0
M  V30 5383 H 523.166 2.65669 -3.20508 0
M  V30 5384 H 523.699 1.07683 -3.82948 0
M  V30 5385 H 520.438 -0.176202 -6.55263 0
M  V30 5386 H 519.958 1.37976 -5.83714 0
M  V30 5387 H 521.637 1.12085 -6.37217 0
M  V30 5388 N 521.769 1.56035 0.221574 0
M  V30 5389 C 522.732 1.91584 1.2581 0
M  V30 5390 C 523.732 0.794425 1.39805 0
M  V30 5391 O 524.922 1.06217 1.38071 0
M  V30 5392 C 522.054 2.16663 2.63192 0
M  V30 5393 H 523.247 2.8429 0.954935 0
M  V30 5394 H 520.8 1.49316 0.461988 0
M  V30 5395 H 521.535 1.26508 2.98607 0
M  V30 5396 H 521.32 2.98358 2.5441 0
M  V30 5397 H 522.81 2.45262 3.37988 0
M  V30 5398 N 523.247 -0.488276 1.49845 0
M  V30 5399 C 524.524 -1.24959 1.50481 0
M  V30 5400 C 524.904 -2.09735 0.239698 0
M  V30 5401 O 524.252 -2.14865 -0.777524 0
M  V30 5402 C 524.462 -2.0954 2.79095 0
M  V30 5403 C 525.81 -2.68305 3.29086 0
M  V30 5404 O 526.834 -2.19797 2.80299 0
M  V30 5405 O 525.693 -3.56643 4.14087 0
M  V30 5406 H 522.787 -0.566133 0.602845 0
M  V30 5407 H 525.333 -0.501504 1.6212 0
M  V30 5408 H 524.105 -1.46958 3.62656 0
M  V30 5409 H 523.728 -2.91517 2.70377 0
M  V30 5410 N 524.725 -1.39134 -0.740242 0
M  V30 5411 C 525.973 -1.35803 -1.49673 0
M  V30 5412 C 526.294 0.0470897 -1.94943 0
M  V30 5413 O 525.564 0.997347 -1.68611 0
M  V30 5414 H 524.144 -0.499736 -0.555224 0
M  V30 5415 H 526.806 -1.73947 -0.879107 0
M  V30 5416 H 525.902 -2.0174 -2.38133 0
M  V30 5417 N 526.204 0.969867 -1.24223 0
M  V30 5418 C 527.429 1.75289 -1.10853 0
M  V30 5419 C 527.854 1.85091 0.335079 0
M  V30 5420 O 527.212 1.32024 1.24255 0
M  V30 5421 C 527.26 3.15255 -1.75062 0
M  V30 5422 O 526.364 3.99589 -1.01992 0
M  V30 5423 H 525.705 0.538904 -0.387915 0
M  V30 5424 H 528.235 1.21675 -1.64488 0
M  V30 5425 H 528.245 3.65787 -1.80731 0
M  V30 5426 H 526.92 3.07436 -2.801 0
M  V30 5427 H 525.497 3.58077 -1.04094 0
M  V30 5428 N 527.682 1.05563 1.17022 0
M  V30 5429 C 528.93 0.76642 1.87004 0
M  V30 5430 C 529.251 -0.708854 1.8166 0
M  V30 5431 O 528.521 -1.51242 1.2451 0
M  V30 5432 H 527.101 0.280516 0.692329 0
M  V30 5433 H 529.763 1.33557 1.41945 0
M  V30 5434 H 528.859 1.08472 2.92644 0
M  V30 5435 N 529.16 -1.33526 0.837174 0
M  V30 5436 C 530.09 -2.31764 0.284206 0
M  V30 5437 C 531.071 -1.58896 -0.607142 0
M  V30 5438 O 532.256 -1.86798 -0.531047 0
M  V30 5439 C 529.386 -3.43029 -0.542962 0
M  V30 5440 C 528.34 -4.27255 0.252451 0
M  V30 5441 C 527.666 -5.3012 -0.69836 0
M  V30 5442 C 528.966 -5.01229 1.46858 0
M  V30 5443 H 530.66 -2.78262 1.10502 0
M  V30 5444 H 528.206 -1.3378 0.532812 0
M  V30 5445 H 530.159 -4.1078 -0.940096 0
M  V30 5446 H 528.883 -2.95216 -1.39697 0
M  V30 5447 H 527.542 -3.61127 0.631124 0
M  V30 5448 H 527.19 -4.78564 -1.54872 0
M  V30 5449 H 526.89 -5.87353 -0.170274 0
M  V30 5450 H 528.414 -6.00737 -1.09305 0
M  V30 5451 H 529.828 -5.61756 1.14469 0
M  V30 5452 H 528.225 -5.68104 1.93333 0
M  V30 5453 H 529.295 -4.301 2.23924 0
M  V30 5454 N 530.638 -0.59345 -1.46 0
M  V30 5455 C 531.863 -0.0872365 -2.07216 0
M  V30 5456 C 532.288 1.2131 -1.43755 0
M  V30 5457 O 531.646 1.73528 -0.525152 0
M  V30 5458 C 531.694 0.0538197 -3.6056 0
M  V30 5459 O 530.798 1.10765 -3.97247 0
M  V30 5460 H 530.139 -0.0676598 -0.660544 0
M  V30 5461 H 532.669 -0.819445 -1.87473 0
M  V30 5462 H 532.679 0.256567 -4.07193 0
M  V30 5463 H 531.354 -0.895739 -4.0614 0
M  V30 5464 H 529.931 0.882501 -3.62307 0
M  V30 5465 N 532.116 1.54067 -0.331816 0
M  V30 5466 C 533.532 1.59587 0.0205388 0
M  V30 5467 C 533.732 1.34813 1.49759 0
M  V30 5468 O 532.788 1.13661 2.25471 0
M  V30 5469 C 534.101 2.97959 -0.405103 0
M  V30 5470 C 535.649 3.10964 -0.356454 0
M  V30 5471 C 536.124 4.51694 -0.757384 0
M  V30 5472 N 537.615 4.57709 -0.71111 0
M  V30 5473 C 538.35 5.64729 -0.993427 0
M  V30 5474 N 537.846 6.79652 -1.3433 0
M  V30 5475 N 539.639 5.54546 -0.918442 0
M  V30 5476 H 531.79 1.68426 -1.29407 0
M  V30 5477 H 534.053 0.78819 -0.526745 0
M  V30 5478 H 533.759 3.21115 -1.43451 0
M  V30 5479 H 533.633 3.76524 0.225692 0
M  V30 5480 H 536.02 2.87538 0.663763 0
M  V30 5481 H 536.101 2.34484 -1.02229 0
M  V30 5482 H 535.745 4.75853 -1.77555 0
M  V30 5483 H 535.675 5.26555 -0.0691444 0
M  V30 5484 H 538.166 3.75176 -0.452883 0
M  V30 5485 H 538.479 7.57221 -1.54388 0
M  V30 5486 H 536.824 6.81128 -1.38164 0
M  V30 5487 H 540.015 4.63641 -0.644536 0
M  V30 5488 H 540.188 6.37861 -1.14181 0
M  V30 5489 N 533.594 0.0601682 1.57485 0
M  V30 5490 C 534.544 -0.920969 2.08572 0
M  V30 5491 C 535.528 -1.26617 0.992827 0
M  V30 5492 O 536.72 -1.24708 1.25606 0
M  V30 5493 C 533.849 -2.19267 2.64153 0
M  V30 5494 C 532.935 -1.87447 3.80427 0
M  V30 5495 N 533.326 -1.26025 4.89848 0
M  V30 5496 C 531.624 -2.17265 3.89502 0
M  V30 5497 C 532.325 -1.12036 5.70809 0
M  V30 5498 N 531.301 -1.62624 5.18705 0
M  V30 5499 H 535.103 -0.441561 2.90564 0
M  V30 5500 H 532.617 -0.144043 1.6176 0
M  V30 5501 H 534.614 -2.90462 2.99061 0
M  V30 5502 H 533.274 -2.67806 1.83603 0
M  V30 5503 H 534.285 -0.931336 5.09457 0
M  V30 5504 H 530.962 -2.68262 3.19909 0
M  V30 5505 H 532.352 -0.642783 6.68818 0
M  V30 5506 N 535.072 -1.5615 -0.213296 0
M  V30 5507 C 536.02 -1.93953 -1.28394 0
M  V30 5508 C 537.014 -0.822592 -1.48087 0
M  V30 5509 O 538.22 -1.00748 -1.49164 0
M  V30 5510 H 534.595 -0.61648 -0.430646 0
M  V30 5511 H 536.566 -2.83275 -0.937977 0
M  V30 5512 C 535.315 -2.27969 -2.62537 0
M  V30 5513 H 534.638 -3.13432 -2.48194 0
M  V30 5514 H 536.078 -2.58297 -3.36242 0
M  V30 5515 C 534.537 -1.10775 -3.18167 0
M  V30 5516 O 535.067 -0.373201 -3.99963 0
M  V30 5517 N 533.273 -0.889377 -2.76656 0
M  V30 5518 H 532.82 -1.48843 -2.10246 0
M  V30 5519 H 532.778 -0.107 -3.14218 0
M  V30 5520 N 536.55 0.480323 -1.50102 0
M  V30 5521 C 537.48 1.58769 -1.71215 0
M  V30 5522 C 538.461 1.60583 -0.560997 0
M  V30 5523 O 539.646 1.76996 -0.799127 0
M  V30 5524 C 536.776 2.97148 -1.79778 0
M  V30 5525 C 535.73 3.10201 -2.94888 0
M  V30 5526 C 535.056 4.50137 -2.88584 0
M  V30 5527 C 536.356 2.88283 -4.35534 0
M  V30 5528 H 538.05 1.41354 -2.6393 0
M  V30 5529 H 535.596 0.678591 -1.27008 0
M  V30 5530 H 537.549 3.74536 -1.93133 0
M  V30 5531 H 536.273 3.15699 -0.836772 0
M  V30 5532 H 534.932 2.35244 -2.81169 0
M  V30 5533 H 534.58 4.65593 -1.90349 0
M  V30 5534 H 534.28 4.59808 -3.65856 0
M  V30 5535 H 535.804 5.29558 -3.03976 0
M  V30 5536 H 537.218 3.55427 -4.49827 0
M  V30 5537 H 535.615 3.09408 -5.14186 0
M  V30 5538 H 536.685 1.84219 -4.48544 0
M  V30 5539 N 538.028 1.39524 0.732853 0
M  V30 5540 C 539.277 1.36175 1.48792 0
M  V30 5541 C 539.59 -0.0388195 1.95561 0
M  V30 5542 O 540.796 -0.194899 2.708 0
M  V30 5543 C 539.252 2.39242 2.68871 0
M  V30 5544 C 538.86 3.85024 2.29042 0
M  V30 5545 C 540.604 2.44972 3.46683 0
M  V30 5546 C 538.511 4.79727 3.45856 0
M  V30 5547 H 537.441 0.506267 0.558757 0
M  V30 5548 H 540.092 1.65181 0.799226 0
M  V30 5549 H 538.474 2.0331 3.39825 0
M  V30 5550 H 539.648 4.30008 1.6562 0
M  V30 5551 H 537.963 3.82609 1.64316 0
M  V30 5552 H 540.56 3.12918 4.33574 0
M  V30 5553 H 540.903 1.4749 3.89297 0
M  V30 5554 H 541.436 2.79808 2.82759 0
M  V30 5555 H 538.175 5.78479 3.08289 0
M  V30 5556 H 537.695 4.39421 4.08251 0
M  V30 5557 H 539.374 4.98731 4.12161 0
M  V30 5558 N 539.506 -0.963266 1.24736 0
M  V30 5559 C 540.469 -2.04013 1.04457 0
M  V30 5560 C 541.469 -1.608 0.000335555 0
M  V30 5561 O 542.659 -1.72515 0.241719 0
M  V30 5562 C 539.791 -3.35858 0.584162 0
M  V30 5563 H 540.984 -2.23436 2.00041 0
M  V30 5564 H 538.537 -1.13914 1.07021 0
M  V30 5565 H 539.272 -3.22128 -0.374673 0
M  V30 5566 H 539.057 -3.68568 1.3379 0
M  V30 5567 H 540.547 -4.1502 0.463451 0
M  V30 5568 N 540.985 -1.06182 -1.16461 0
M  V30 5569 C 542.396 -0.802426 -1.68576 0
M  V30 5570 C 542.747 0.67412 -1.84255 0
M  V30 5571 O 541.872 1.52303 -1.5373 0
M  V30 5572 C 542.467 -1.45002 -3.06202 0
M  V30 5573 C 541.026 -1.23843 -3.55443 0
M  V30 5574 C 540.173 -1.52724 -2.31454 0
M  V30 5575 H 543.124 -1.22545 -1.00839 0
M  V30 5576 H 543.145 -0.864731 -3.70544 0
M  V30 5577 H 542.657 -2.52466 -2.94759 0
M  V30 5578 H 540.758 -0.183487 -3.72148 0
M  V30 5579 H 540.871 -1.95036 -4.37604 0
M  V30 5580 H 539.235 -0.947726 -2.36411 0
M  V30 5581 H 540.018 -2.61343 -2.22609 0
M  V30 5582 N 542.463 1.3308 -0.844243 0
M  V30 5583 C 543.426 2.27403 -0.286485 0
M  V30 5584 C 544.426 1.51179 0.547872 0
M  V30 5585 O 545.616 1.70421 0.360886 0
M  V30 5586 C 542.748 3.35653 0.595813 0
M  V30 5587 H 543.941 2.78248 -1.11885 0
M  V30 5588 H 541.494 1.43574 -0.617749 0
M  V30 5589 H 542.229 2.90058 1.4504 0
M  V30 5590 H 542.014 3.921 -0.00125994 0
M  V30 5591 H 543.504 4.05958 0.979168 0
M  V30 5592 N 543.941 0.601185 1.45683 0
M  V30 5593 C 545.169 0.100054 2.06658 0
M  V30 5594 C 545.584 -1.21285 1.44691 0
M  V30 5595 O 544.941 -1.73735 0.558772 0
M  V30 5596 C 544.992 -0.0528579 3.61461 0
M  V30 5597 O 544.713 1.20809 4.21114 0
M  V30 5598 C 546.214 -0.586193 4.39407 0
M  V30 5599 H 543.434 0.065905 0.667756 0
M  V30 5600 H 545.978 0.827101 1.87028 0
M  V30 5601 H 544.133 -0.730203 3.80456 0
M  V30 5602 H 544.547 1.03368 5.14213 0
M  V30 5603 H 546.021 -0.642297 5.4825 0
M  V30 5604 H 546.498 -1.60713 4.0874 0
M  V30 5605 H 547.104 0.0568935 4.25262 0
M  V30 5606 N 545.419 -1.53889 0.339982 0
M  V30 5607 C 546.352 -2.21187 -0.561405 0
M  V30 5608 C 547.33 -1.19463 -1.10306 0
M  V30 5609 O 548.514 -1.48268 -1.164 0
M  V30 5610 C 545.641 -2.8865 -1.77198 0
M  V30 5611 C 544.687 -4.04232 -1.3601 0
M  V30 5612 S 545.52 -5.34129 -0.382909 0
M  V30 5613 C 546.676 -6.05094 -1.60039 0
M  V30 5614 H 546.909 -2.97298 0.0102092 0
M  V30 5615 H 544.442 -1.53901 0.124056 0
M  V30 5616 H 546.4 -3.28138 -2.4665 0
M  V30 5617 H 545.061 -2.12311 -2.3148 0
M  V30 5618 H 544.254 -4.50358 -2.2626 0
M  V30 5619 H 543.856 -3.66503 -0.745098 0
M  V30 5620 H 546.148 -6.2827 -2.53541 0
M  V30 5621 H 547.091 -6.98182 -1.18099 0
M  V30 5622 H 547.499 -5.35207 -1.79483 0
M  V30 5623 N 546.897 -0.0685191 -1.57451 0
M  V30 5624 C 547.83 0.935736 -2.08133 0
M  V30 5625 C 548.808 1.29317 -0.985698 0
M  V30 5626 O 549.992 1.40304 -1.25886 0
M  V30 5627 C 547.119 2.2448 -2.53627 0
M  V30 5628 C 546.165 2.03917 -3.74593 0
M  V30 5629 S 546.998 1.30154 -5.19442 0
M  V30 5630 C 548.154 2.62346 -5.68265 0
M  V30 5631 H 548.387 0.504473 -2.92989 0
M  V30 5632 H 545.92 0.144169 -1.53725 0
M  V30 5633 H 547.878 2.99718 -2.80499 0
M  V30 5634 H 546.539 2.64731 -1.69045 0
M  V30 5635 H 545.732 3.00788 -4.04404 0
M  V30 5636 H 545.334 1.36815 -3.48077 0
M  V30 5637 H 547.626 3.58448 -5.7491 0
M  V30 5638 H 548.569 2.3715 -6.67207 0
M  V30 5639 H 548.977 2.69401 -4.96068 0
M  V30 5640 N 548.375 1.56261 0.205012 0
M  V30 5641 C 549.307 1.90266 1.27795 0
M  V30 5642 C 550.32 0.792397 1.42214 0
M  V30 5643 O 551.509 1.07077 1.42817 0
M  V30 5644 C 548.609 2.11074 2.65143 0
M  V30 5645 C 547.782 3.42176 2.7246 0
M  V30 5646 C 546.841 3.52216 3.90936 0
M  V30 5647 O 545.867 4.25119 3.78501 0
M  V30 5648 N 547.069 2.84573 5.05963 0
M  V30 5649 H 549.834 2.82896 0.989434 0
M  V30 5650 H 547.395 1.57008 0.394981 0
M  V30 5651 H 549.387 2.15089 3.4281 0
M  V30 5652 H 547.957 1.2499 2.86524 0
M  V30 5653 H 547.177 3.50116 1.81142 0
M  V30 5654 H 548.465 4.28509 2.74331 0
M  V30 5655 H 547.863 2.25152 5.18963 0
M  V30 5656 H 546.42 2.94228 5.81613 0
M  V30 5657 N 549.853 -0.472356 1.50355 0
M  V30 5658 C 551.099 -1.22634 1.6152 0
M  V30 5659 C 551.432 -1.91645 0.313995 0
M  V30 5660 O 550.707 -1.82059 -0.684446 0
M  V30 5661 C 550.99 -2.27099 2.7946 0
M  V30 5662 C 550.843 -1.62402 4.19459 0
M  V30 5663 C 552.162 -3.28421 2.92964 0
M  V30 5664 H 549.281 -0.444494 0.587873 0
M  V30 5665 H 551.923 -0.520321 1.82737 0
M  V30 5666 H 550.073 -2.87314 2.61501 0
M  V30 5667 H 551.745 -1.05793 4.49005 0
M  V30 5668 H 549.988 -0.927184 4.23776 0
M  V30 5669 H 550.659 -2.38309 4.97909 0
M  V30 5670 H 553.135 -2.78227 3.09401 0
M  V30 5671 H 552.011 -3.98845 3.77113 0
M  V30 5672 H 552.272 -3.92467 2.03525 0
M  V30 5673 N 551.331 -1.39911 -0.725443 0
M  V30 5674 C 552.261 -1.42138 -1.85254 0
M  V30 5675 C 553.242 -0.283513 -1.67721 0
M  V30 5676 O 554.427 -0.490717 -1.87898 0
M  V30 5677 C 551.557 -1.27354 -3.23107 0
M  V30 5678 C 550.511 -2.3864 -3.55296 0
M  V30 5679 C 549.837 -2.08939 -4.92188 0
M  V30 5680 C 551.137 -3.8097 -3.57295 0
M  V30 5681 H 552.831 -2.36461 -1.83648 0
M  V30 5682 H 550.377 -1.13817 -0.882138 0
M  V30 5683 H 552.33 -1.2753 -4.01639 0
M  V30 5684 H 551.054 -0.295025 -3.25265 0
M  V30 5685 H 549.713 -2.37696 -2.79099 0
M  V30 5686 H 549.361 -1.09502 -4.90936 0
M  V30 5687 H 549.061 -2.83491 -5.14691 0
M  V30 5688 H 550.585 -2.10781 -5.73065 0
M  V30 5689 H 551.999 -3.8379 -4.25885 0
M  V30 5690 H 550.396 -4.5496 -3.9132 0
M  V30 5691 H 551.466 -4.11261 -2.5689 0
M  V30 5692 N 552.809 0.956637 -1.25245 0
M  V30 5693 C 553.741 2.05628 -1.01242 0
M  V30 5694 C 554.754 1.62785 0.0219579 0
M  V30 5695 O 555.943 1.77184 -0.216365 0
M  V30 5696 C 553.043 3.35069 -0.508161 0
M  V30 5697 C 552.216 4.06761 -1.60823 0
M  V30 5698 C 551.275 5.14473 -1.1047 0
M  V30 5699 O 550.301 5.40033 -1.79868 0
M  V30 5700 N 551.503 5.80474 0.0550773 0
M  V30 5701 H 554.268 2.2679 -1.95925 0
M  V30 5702 H 551.829 1.12505 -1.16423 0
M  V30 5703 H 553.821 4.044 -0.155819 0
M  V30 5704 H 552.391 3.10694 0.344683 0
M  V30 5705 H 551.611 3.31555 -2.13224 0
M  V30 5706 H 552.899 4.51418 -2.34733 0
M  V30 5707 H 552.297 5.62125 0.635004 0
M  V30 5708 H 550.854 6.50868 0.348469 0
M  V30 5709 N 554.287 1.06798 1.15896 0
M  V30 5710 C 555.517 0.807522 1.90165 0
M  V30 5711 C 555.925 -0.642417 1.7796 0
M  V30 5712 O 555.268 -1.45193 1.12537 0
M  V30 5713 C 555.33 1.12939 3.41299 0
M  V30 5714 C 554.994 2.57879 3.7729 0
M  V30 5715 C 555.991 3.56118 3.78782 0
M  V30 5716 C 553.676 2.93311 4.07767 0
M  V30 5717 C 555.67 4.87827 4.10248 0
M  V30 5718 C 553.357 4.25219 4.38899 0
M  V30 5719 C 554.355 5.22287 4.4012 0
M  V30 5720 O 554.043 6.51826 4.70508 0
M  V30 5721 H 553.775 0.291946 0.609708 0
M  V30 5722 H 556.329 1.42627 1.47806 0
M  V30 5723 H 554.559 0.45359 3.84031 0
M  V30 5724 H 556.248 0.852363 3.9685 0
M  V30 5725 H 557.014 3.30086 3.55342 0
M  V30 5726 H 552.893 2.18409 4.05979 0
M  V30 5727 H 556.437 5.63586 4.11116 0
M  V30 5728 H 552.334 4.51006 4.61805 0
M  V30 5729 H 553.102 6.56893 4.88298 0
M  V30 5730 N 555.766 -1.3263 0.851289 0
M  V30 5731 C 557.015 -1.96633 0.449267 0
M  V30 5732 C 557.328 -1.68131 -0.999562 0
M  V30 5733 O 558.534 -2.25845 -1.50685 0
M  V30 5734 C 556.99 -3.51946 0.752446 0
M  V30 5735 C 556.598 -3.89311 2.21678 0
M  V30 5736 C 558.342 -4.22437 0.417983 0
M  V30 5737 C 556.249 -5.37655 2.46336 0
M  V30 5738 H 555.179 -0.735888 0.164269 0
M  V30 5739 H 557.83 -1.51073 1.0416 0
M  V30 5740 H 556.212 -3.95899 0.0895858 0
M  V30 5741 H 557.386 -3.56378 2.92115 0
M  V30 5742 H 555.701 -3.31836 2.51543 0
M  V30 5743 H 558.298 -5.31549 0.579674 0
M  V30 5744 H 558.641 -4.11349 -0.640115 0
M  V30 5745 H 559.174 -3.84057 1.03659 0
M  V30 5746 H 555.913 -5.5376 3.50757 0
M  V30 5747 H 555.433 -5.72005 1.80473 0
M  V30 5748 H 557.112 -6.04695 2.30115 0
M  V30 5749 N 557.244 -0.608902 -1.45362 0
M  V30 5750 C 558.207 0.0992563 -2.28985 0
M  V30 5751 C 559.207 0.793841 -1.39838 0
M  V30 5752 O 560.397 0.641804 -1.61946 0
M  V30 5753 C 557.529 1.15073 -3.20891 0
M  V30 5754 H 558.722 -0.635964 -2.93079 0
M  V30 5755 H 556.275 -0.368007 -1.51906 0
M  V30 5756 H 557.01 1.91667 -2.616 0
M  V30 5757 H 556.795 0.656867 -3.86559 0
M  V30 5758 H 558.285 1.64665 -3.83765 0
M  V30 5759 N 558.722 1.53707 -0.348139 0
M  V30 5760 C 559.654 2.22725 0.540946 0
M  V30 5761 C 560.667 1.2354 1.06027 0
M  V30 5762 O 561.856 1.49867 0.96964 0
M  V30 5763 C 558.956 2.89756 1.75768 0
M  V30 5764 C 558.129 4.15297 1.37285 0
M  V30 5765 C 557.188 4.65697 2.44976 0
M  V30 5766 O 556.214 5.29798 2.08092 0
M  V30 5767 N 557.416 4.42017 3.763 0
M  V30 5768 H 560.181 2.99658 -0.0501592 0
M  V30 5769 H 557.742 1.60979 -0.17248 0
M  V30 5770 H 559.734 3.20388 2.47252 0
M  V30 5771 H 558.304 2.16382 2.25605 0
M  V30 5772 H 557.524 3.9116 0.488584 0
M  V30 5773 H 558.812 4.96948 1.09179 0
M  V30 5774 H 558.21 3.9076 4.09051 0
M  V30 5775 H 556.767 4.77242 4.4394 0
M  V30 5776 N 560.2 0.0768682 1.57412 0
M  V30 5777 C 561.15 -0.898795 2.09537 0
M  V30 5778 C 562.134 -1.25556 1.0062 0
M  V30 5779 O 563.326 -1.23369 1.26921 0
M  V30 5780 C 560.455 -2.16453 2.66464 0
M  V30 5781 C 559.541 -1.83401 3.82393 0
M  V30 5782 N 559.932 -1.20823 4.91157 0
M  V30 5783 C 558.23 -2.13121 3.91785 0
M  V30 5784 C 558.931 -1.05976 5.71965 0
M  V30 5785 N 557.907 -1.57113 5.204 0
M  V30 5786 H 561.709 -0.410718 2.91016 0
M  V30 5787 H 559.223 -0.126878 1.61904 0
M  V30 5788 H 561.22 -2.87274 3.02125 0
M  V30 5789 H 559.88 -2.65844 1.86433 0
M  V30 5790 H 560.891 -0.877249 5.10416 0
M  V30 5791 H 557.568 -2.64854 3.22736 0
M  V30 5792 H 558.958 -0.571809 6.69462 0
M  V30 5793 N 561.678 -1.56367 -0.196722 0
M  V30 5794 C 562.955 -1.71359 -0.943159 0
M  V30 5795 C 563.335 -0.631192 -2.01443 0
M  V30 5796 O 562.683 0.358071 -2.25677 0
M  V30 5797 C 562.893 -3.13623 -1.53106 0
M  V30 5798 C 564.241 -3.73806 -2.01381 0
M  V30 5799 O 565.265 -3.16742 -1.62951 0
M  V30 5800 O 564.124 -4.73951 -2.7209 0
M  V30 5801 H 561.218 -0.698851 -0.442195 0
M  V30 5802 H 563.764 -1.68672 -0.186547 0
M  V30 5803 H 562.536 -3.83873 -0.758785 0
M  V30 5804 H 562.159 -3.20532 -2.35255 0
M  V30 5805 N 563.156 0.464375 -1.50603 0
M  V30 5806 C 564.104 1.58224 -1.70493 0
M  V30 5807 C 565.098 1.59492 -0.570836 0
M  V30 5808 O 566.304 1.63561 -0.751517 0
M  V30 5809 H 562.679 0.525161 -0.538247 0
M  V30 5810 H 564.65 1.38613 -2.64252 0
M  V30 5811 C 563.399 2.96113 -1.82243 0
M  V30 5812 H 562.722 2.95858 -2.68901 0
M  V30 5813 H 564.162 3.73769 -2.00182 0
M  V30 5814 C 562.621 3.31946 -0.575628 0
M  V30 5815 O 563.151 4.00708 0.282152 0
M  V30 5816 N 561.357 2.87436 -0.427665 0
M  V30 5817 H 560.904 2.31652 -1.12674 0
M  V30 5818 H 560.862 3.11776 0.405379 0
M  V30 5819 N 564.634 1.40294 0.718013 0
M  V30 5820 C 565.544 1.42678 1.86226 0
M  V30 5821 C 566.56 0.319655 1.71039 0
M  V30 5822 O 567.736 0.563852 1.93346 0
M  V30 5823 C 564.801 1.2852 3.21999 0
M  V30 5824 C 563.862 2.49354 3.49458 0
M  V30 5825 C 563.095 2.35863 4.78753 0
M  V30 5826 O 563.318 1.37114 5.53675 0
M  V30 5827 O 562.252 3.25189 5.06494 0
M  V30 5828 H 566.078 2.39167 1.87171 0
M  V30 5829 H 563.663 1.2159 0.868112 0
M  V30 5830 H 565.545 1.22824 4.03103 0
M  V30 5831 H 564.22 0.351359 3.21787 0
M  V30 5832 H 563.127 2.60628 2.68373 0
M  V30 5833 H 564.46 3.41491 3.54464 0
M  V30 5834 N 566.112 -0.949982 1.2575 0
M  V30 5835 C 567.042 -2.06483 1.09028 0
M  V30 5836 C 568.023 -1.701 -0.00201532 0
M  V30 5837 O 569.208 -1.93469 0.168383 0
M  V30 5838 C 566.338 -3.39899 0.71316 0
M  V30 5839 C 565.292 -3.90309 1.75621 0
M  V30 5840 C 564.618 -5.20274 1.23365 0
M  V30 5841 C 565.918 -4.16169 3.15596 0
M  V30 5842 H 567.612 -2.20731 2.02283 0
M  V30 5843 H 565.158 -1.06066 0.973964 0
M  V30 5844 H 567.111 -4.17346 0.58309 0
M  V30 5845 H 565.835 -3.25602 -0.255091 0
M  V30 5846 H 564.494 -3.15035 1.8748 0
M  V30 5847 H 564.142 -5.02351 0.255491 0
M  V30 5848 H 563.842 -5.54971 1.93082 0
M  V30 5849 H 565.366 -6.00314 1.11607 0
M  V30 5850 H 566.78 -4.84259 3.06864 0
M  V30 5851 H 565.177 -4.62131 3.82825 0
M  V30 5852 H 566.247 -3.22273 3.6231 0
M  V30 5853 N 567.59 -1.07411 -1.15328 0
M  V30 5854 C 568.538 -0.689316 -2.22151 0
M  V30 5855 C 569.532 0.300156 -1.6672 0
M  V30 5856 O 570.738 0.163804 -1.79253 0
M  V30 5857 H 567.113 -0.204834 -0.723566 0
M  V30 5858 H 569.084 -1.59988 -2.51886 0
M  V30 5859 C 567.833 -0.103848 -3.47545 0
M  V30 5860 H 567.156 -0.856367 -3.90521 0
M  V30 5861 H 568.596 0.127725 -4.23808 0
M  V30 5862 C 567.055 1.15563 -3.1646 0
M  V30 5863 O 567.585 2.242 -3.33312 0
M  V30 5864 N 565.791 1.06203 -2.70498 0
M  V30 5865 H 565.338 0.177933 -2.56985 0
M  V30 5866 H 565.296 1.90553 -2.50074 0
M  V30 5867 N 569.068 1.32177 -0.85831 0
M  V30 5868 C 570.315 1.97125 -0.463484 0
M  V30 5869 C 570.643 1.67907 0.981705 0
M  V30 5870 O 569.898 0.961717 1.70439 0
M  V30 5871 C 570.197 3.51372 -0.653658 0
M  V30 5872 C 569.863 4.00584 -2.06987 0
M  V30 5873 C 568.525 4.13733 -2.4572 0
M  V30 5874 C 570.877 4.26624 -2.99402 0
M  V30 5875 C 568.205 4.50268 -3.76132 0
M  V30 5876 C 570.557 4.64618 -4.29316 0
M  V30 5877 C 569.221 4.75975 -4.67979 0
M  V30 5878 H 568.491 0.72133 -0.169601 0
M  V30 5879 H 571.138 1.57517 -1.08907 0
M  V30 5880 H 569.443 3.91761 0.0551328 0
M  V30 5881 H 571.14 3.99655 -0.328163 0
M  V30 5882 H 567.73 3.90837 -1.75911 0
M  V30 5883 H 571.914 4.1597 -2.70708 0
M  V30 5884 H 567.17 4.57256 -4.05865 0
M  V30 5885 H 571.344 4.83722 -5.00985 0
M  V30 5886 H 568.971 5.04041 -5.69076 0
M  V30 5887 N 570.547 0.616602 1.45037 0
M  V30 5888 C 571.796 0.112861 2.01384 0
M  V30 5889 C 572.109 -1.26758 1.48969 0
M  V30 5890 O 573.315 -1.86454 1.9735 0
M  V30 5891 C 571.771 0.151057 3.59583 0
M  V30 5892 C 571.379 1.53191 4.20995 0
M  V30 5893 C 573.123 -0.296974 4.2346 0
M  V30 5894 C 571.03 1.526 5.71373 0
M  V30 5895 H 569.96 0.0384254 0.75302 0
M  V30 5896 H 572.611 0.773262 1.66412 0
M  V30 5897 H 570.993 -0.57617 3.91786 0
M  V30 5898 H 572.167 2.28156 4.00352 0
M  V30 5899 H 570.482 1.92279 3.69348 0
M  V30 5900 H 573.079 -0.320712 5.33737 0
M  V30 5901 H 573.422 -1.32145 3.9477 0
M  V30 5902 H 573.955 0.377279 3.96007 0
M  V30 5903 H 570.694 2.52837 6.04776 0
M  V30 5904 H 570.214 0.819064 5.94181 0
M  V30 5905 H 571.893 1.25357 6.3474 0
M  V30 5906 N 572.025 -1.5352 0.356285 0
M  V30 5907 C 573.25 -2.06007 -0.239961 0
M  V30 5908 C 573.675 -1.22872 -1.42422 0
M  V30 5909 O 573.033 -0.245516 -1.7963 0
M  V30 5910 C 573.081 -3.5522 -0.620587 0
M  V30 5911 O 572.185 -3.74864 -1.71902 0
M  V30 5912 H 571.526 -0.662961 -0.0371377 0
M  V30 5913 H 574.056 -1.98033 0.514194 0
M  V30 5914 H 574.066 -3.98081 -0.894197 0
M  V30 5915 H 572.741 -4.15175 0.245407 0
M  V30 5916 H 571.318 -3.43904 -1.44169 0
M  V30 5917 N 573.503 -0.0852151 -1.57369 0
M  V30 5918 C 574.436 0.913608 -2.09113 0
M  V30 5919 C 575.414 1.28264 -0.999358 0
M  V30 5920 O 576.598 1.3896 -1.27367 0
M  V30 5921 C 573.725 2.21777 -2.55993 0
M  V30 5922 C 572.771 1.99932 -3.76735 0
M  V30 5923 S 573.604 1.24637 -5.20794 0
M  V30 5924 C 574.76 2.56304 -5.71016 0
M  V30 5925 H 574.993 0.473369 -2.93507 0
M  V30 5926 H 572.526 0.127856 -1.5387 0
M  V30 5927 H 574.484 2.96726 -2.83662 0
M  V30 5928 H 573.145 2.62923 -1.71843 0
M  V30 5929 H 572.338 2.96482 -4.07571 0
M  V30 5930 H 571.94 1.33116 -3.49509 0
M  V30 5931 H 574.232 3.5233 -5.78679 0
M  V30 5932 H 575.175 2.3006 -6.69685 0
M  V30 5933 H 575.583 2.64125 -4.98897 0
M  V30 5934 N 574.981 1.5647 0.188427 0
M  V30 5935 C 575.911 1.98101 1.23606 0
M  V30 5936 C 576.892 0.853961 1.47111 0
M  V30 5937 O 578.077 1.11879 1.58735 0
M  V30 5938 C 575.207 2.32624 2.57882 0
M  V30 5939 C 574.161 3.48129 2.48978 0
M  V30 5940 C 573.487 3.68347 3.87588 0
M  V30 5941 C 574.787 4.82112 2.00911 0
M  V30 5942 H 576.481 2.85864 0.890068 0
M  V30 5943 H 574.027 1.37532 0.426714 0
M  V30 5944 H 575.98 2.60343 3.3136 0
M  V30 5945 H 574.704 1.41751 2.94235 0
M  V30 5946 H 573.363 3.20511 1.77956 0
M  V30 5947 H 573.011 2.74793 4.21305 0
M  V30 5948 H 572.711 4.46055 3.82503 0
M  V30 5949 H 574.235 3.98449 4.62678 0
M  V30 5950 H 575.649 5.08819 2.64151 0
M  V30 5951 H 574.046 5.63337 2.06814 0
M  V30 5952 H 575.116 4.75249 0.96262 0
M  V30 5953 N 576.459 -0.456382 1.50847 0
M  V30 5954 C 577.87 -1.03685 1.55262 0
M  V30 5955 C 578.221 -1.92779 0.364771 0
M  V30 5956 O 577.346 -2.10043 -0.52068 0
M  V30 5957 C 577.941 -1.88718 2.81374 0
M  V30 5958 C 576.5 -2.41847 2.88422 0
M  V30 5959 C 575.647 -1.20564 2.49719 0
M  V30 5960 H 578.598 -0.238399 1.56899 0
M  V30 5961 H 578.619 -2.73957 2.6406 0
M  V30 5962 H 578.131 -1.23847 3.67809 0
M  V30 5963 H 576.232 -3.10228 2.06372 0
M  V30 5964 H 576.345 -2.75947 3.9165 0
M  V30 5965 H 574.709 -1.54504 2.02486 0
M  V30 5966 H 575.492 -0.573326 3.38479 0
M  V30 5967 N 577.937 -1.40673 -0.710563 0
M  V30 5968 C 578.867 -1.44095 -1.83736 0
M  V30 5969 C 579.848 -0.301286 -1.67411 0
M  V30 5970 O 581.033 -0.510618 -1.87367 0
M  V30 5971 C 578.163 -1.30773 -3.21738 0
M  V30 5972 C 577.117 -2.42395 -3.52745 0
M  V30 5973 C 576.443 -2.14147 -4.89944 0
M  V30 5974 C 577.743 -3.84738 -3.53234 0
M  V30 5975 H 579.437 -2.38396 -1.81129 0
M  V30 5976 H 576.983 -1.14746 -0.870017 0
M  V30 5977 H 578.936 -1.31783 -4.00264 0
M  V30 5978 H 577.66 -0.329507 -3.24934 0
M  V30 5979 H 576.319 -2.40643 -2.76562 0
M  V30 5980 H 575.967 -1.14703 -4.89747 0
M  V30 5981 H 575.667 -2.88934 -5.11655 0
M  V30 5982 H 577.191 -2.16848 -5.70797 0
M  V30 5983 H 578.605 -3.88286 -4.2179 0
M  V30 5984 H 577.002 -4.59085 -3.86473 0
M  V30 5985 H 578.072 -4.13962 -2.52514 0
M  V30 5986 N 579.415 0.9433 -1.26252 0
M  V30 5987 C 580.378 2.02326 -1.07689 0
M  V30 5988 C 581.378 1.60779 -0.0259174 0
M  V30 5989 O 582.568 1.72108 -0.269134 0
M  V30 5990 C 579.7 3.34886 -0.63752 0
M  V30 5991 H 580.893 2.20225 -2.0357 0
M  V30 5992 H 578.446 1.12197 -1.08819 0
M  V30 5993 H 579.181 3.22684 0.323377 0
M  V30 5994 H 578.966 3.66393 -1.39637 0
M  V30 5995 H 580.456 4.14231 -0.529418 0
M  V30 5996 N 580.893 1.08022 1.14757 0
M  V30 5997 C 582.141 0.805913 1.85336 0
M  V30 5998 C 582.462 -0.670162 1.83122 0
M  V30 5999 O 581.732 -1.48567 1.2769 0
M  V30 6000 H 580.312 0.295138 0.686223 0
M  V30 6001 H 582.974 1.36538 1.3908 0
M  V30 6002 H 582.07 1.14655 2.90277 0
M  V30 6003 N 582.371 -1.3172 0.865308 0
M  V30 6004 C 583.601 -2.00765 0.487543 0
M  V30 6005 C 584.009 -1.65145 -0.92325 0
M  V30 6006 O 583.352 -0.874294 -1.61561 0
M  V30 6007 C 583.414 -3.55122 0.559369 0
M  V30 6008 C 583.078 -4.14202 1.93095 0
M  V30 6009 C 584.075 -4.3165 2.89784 0
M  V30 6010 C 581.76 -4.50036 2.23099 0
M  V30 6011 C 583.754 -4.84114 4.14623 0
M  V30 6012 C 581.441 -5.02203 3.48189 0
M  V30 6013 C 582.439 -5.19192 4.43767 0
M  V30 6014 O 582.127 -5.70241 5.6664 0
M  V30 6015 H 581.859 -0.649066 0.188915 0
M  V30 6016 H 584.413 -1.69032 1.16694 0
M  V30 6017 H 582.643 -3.86295 -0.176926 0
M  V30 6018 H 584.332 -4.05428 0.195694 0
M  V30 6019 H 585.098 -4.04288 2.6791 0
M  V30 6020 H 580.977 -4.36091 1.49485 0
M  V30 6021 H 584.521 -4.9729 4.89233 0
M  V30 6022 H 580.418 -5.28997 3.69908 0
M  V30 6023 H 581.186 -5.88617 5.68746 0
M  V30 6024 N 583.85 -0.624285 -1.44708 0
M  V30 6025 C 585.127 -0.0572781 -1.95516 0
M  V30 6026 C 585.507 1.41516 -1.56641 0
M  V30 6027 O 584.855 2.12614 -0.837111 0
M  V30 6028 C 585.065 -0.272944 -3.47931 0
M  V30 6029 C 586.413 -0.162529 -4.24289 0
M  V30 6030 O 587.437 -0.203946 -3.55616 0
M  V30 6031 O 586.296 -0.0616847 -5.46465 0
M  V30 6032 H 583.389 0.0262219 -0.826584 0
M  V30 6033 H 585.936 -0.695512 -1.54793 0
M  V30 6034 H 584.707 -1.29492 -3.69253 0
M  V30 6035 H 584.331 0.399756 -3.95585 0
M  V30 6036 N 585.328 1.53329 -0.364422 0
M  V30 6037 C 586.576 2.00842 0.225189 0
M  V30 6038 C 586.897 1.25345 1.49378 0
M  V30 6039 O 586.167 0.366396 1.92443 0
M  V30 6040 H 584.747 0.742009 0.0862027 0
M  V30 6041 H 587.409 1.8863 -0.490389 0
M  V30 6042 H 586.505 3.08795 0.452987 0
M  V30 6043 N 586.806 0.0935595 1.57322 0
M  V30 6044 C 588.031 -0.582324 1.99057 0
M  V30 6045 C 588.456 -1.61025 0.972242 0
M  V30 6046 O 587.814 -1.81202 -0.0594622 0
M  V30 6047 C 587.862 -1.20799 3.39765 0
M  V30 6048 O 586.966 -2.32382 3.40694 0
M  V30 6049 H 586.307 -0.147884 0.647323 0
M  V30 6050 H 588.837 0.174516 2.03854 0
M  V30 6051 H 588.847 -1.54966 3.77425 0
M  V30 6052 H 587.522 -0.454914 4.13405 0
M  V30 6053 H 586.099 -1.99845 3.14827 0
M  V30 6054 N 588.284 -1.56567 -0.180126 0
M  V30 6055 C 589.214 -1.98753 -1.22553 0
M  V30 6056 C 590.195 -0.86175 -1.46656 0
M  V30 6057 O 591.38 -1.12719 -1.58139 0
M  V30 6058 C 588.51 -2.33988 -2.56645 0
M  V30 6059 C 587.464 -3.49445 -2.47128 0
M  V30 6060 C 586.79 -3.70397 -3.8563 0
M  V30 6061 C 588.09 -4.83171 -1.98352 0
M  V30 6062 H 589.784 -2.86332 -0.874896 0
M  V30 6063 H 587.33 -1.37757 -0.419414 0
M  V30 6064 H 589.283 -2.62097 -3.29974 0
M  V30 6065 H 588.007 -1.43309 -2.93479 0
M  V30 6066 H 586.666 -3.2145 -1.76254 0
M  V30 6067 H 586.314 -2.77023 -4.19842 0
M  V30 6068 H 586.014 -4.48077 -3.80132 0
M  V30 6069 H 587.538 -4.00897 -4.60558 0
M  V30 6070 H 588.952 -5.10213 -2.61449 0
M  V30 6071 H 587.349 -5.64425 -2.03823 0
M  V30 6072 H 588.419 -4.75753 -0.937402 0
M  V30 6073 N 589.762 0.448376 -1.51087 0
M  V30 6074 C 590.694 1.56146 -1.67783 0
M  V30 6075 C 591.707 1.52913 -0.55871 0
M  V30 6076 O 592.896 1.57889 -0.83267 0
M  V30 6077 C 589.996 2.95057 -1.66716 0
M  V30 6078 C 589.169 3.22915 -2.95033 0
M  V30 6079 C 588.228 4.41495 -2.86302 0
M  V30 6080 O 587.254 4.40688 -3.60254 0
M  V30 6081 N 588.456 5.44443 -2.014 0
M  V30 6082 H 591.221 1.42232 -2.638 0
M  V30 6083 H 588.782 0.637153 -1.48835 0
M  V30 6084 H 590.774 3.72388 -1.58458 0
M  V30 6085 H 589.344 3.02624 -0.783403 0
M  V30 6086 H 588.564 2.33985 -3.17245 0
M  V30 6087 H 589.852 3.38349 -3.79996 0
M  V30 6088 H 589.25 5.4793 -1.40674 0
M  V30 6089 H 587.807 6.2067 -1.99029 0
M  V30 6090 N 591.24 1.41047 0.703093 0
M  V30 6091 C 592.47 1.43133 1.48985 0
M  V30 6092 C 592.878 0.0328537 1.89171 0
M  V30 6093 O 592.221 -0.956469 1.56835 0
M  V30 6094 C 592.283 2.26991 2.78775 0
M  V30 6095 C 591.947 3.7525 2.60837 0
M  V30 6096 C 592.944 4.67591 2.27276 0
M  V30 6097 C 590.629 4.19208 2.76712 0
M  V30 6098 C 592.623 6.01877 2.09817 0
M  V30 6099 C 590.31 5.53561 2.5887 0
M  V30 6100 C 591.308 6.4471 2.25472 0
M  V30 6101 O 590.996 7.76584 2.07778 0
M  V30 6102 H 590.728 0.489788 0.465922 0
M  V30 6103 H 593.282 1.85886 0.873822 0
M  V30 6104 H 591.512 1.79038 3.42757 0
M  V30 6105 H 593.201 2.20867 3.40547 0
M  V30 6106 H 593.967 4.34923 2.14633 0
M  V30 6107 H 589.846 3.48572 3.01693 0
M  V30 6108 H 593.39 6.72986 1.83671 0
M  V30 6109 H 589.287 5.85811 2.71102 0
M  V30 6110 H 590.055 7.87649 2.22601 0
M  V30 6111 N 592.718 -0.936591 1.26751 0
M  V30 6112 C 594.134 -1.21095 1.03963 0
M  V30 6113 C 594.334 -2.00156 -0.232372 0
M  V30 6114 O 593.39 -2.3434 -0.940274 0
M  V30 6115 C 594.703 -1.96775 2.27377 0
M  V30 6116 C 596.251 -2.09749 2.32324 0
M  V30 6117 C 596.726 -2.88832 3.55443 0
M  V30 6118 N 598.217 -2.96404 3.55948 0
M  V30 6119 C 598.952 -3.58036 4.47881 0
M  V30 6120 N 598.448 -4.21132 5.50109 0
M  V30 6121 N 600.241 -3.55353 4.35523 0
M  V30 6122 H 592.392 -0.408173 2.08441 0
M  V30 6123 H 594.655 -0.243139 0.91629 0
M  V30 6124 H 594.361 -1.46094 3.19921 0
M  V30 6125 H 594.235 -2.97424 2.31989 0
M  V30 6126 H 596.622 -2.5962 1.40291 0
M  V30 6127 H 596.703 -1.08347 2.31721 0
M  V30 6128 H 596.347 -2.39647 4.47808 0
M  V30 6129 H 596.277 -3.90499 3.53296 0
M  V30 6130 H 598.768 -2.51552 2.82011 0
M  V30 6131 H 599.081 -4.66071 6.16439 0
M  V30 6132 H 597.426 -4.19705 5.53961 0
M  V30 6133 H 600.617 -3.05256 3.54875 0
M  V30 6134 H 600.79 -4.03097 5.07363 0
M  V30 6135 N 594.196 -1.08629 -1.14182 0
M  V30 6136 C 595.159 -0.722027 -2.1753 0
M  V30 6137 C 596.159 0.244305 -1.58933 0
M  V30 6138 O 597.349 0.0235545 -1.74184 0
M  V30 6139 C 594.481 -0.0663966 -3.40835 0
M  V30 6140 H 595.674 -1.63719 -2.51269 0
M  V30 6141 H 593.227 -0.884442 -1.28869 0
M  V30 6142 H 593.962 0.860389 -3.12678 0
M  V30 6143 H 593.747 -0.761598 -3.84632 0
M  V30 6144 H 595.237 0.173346 -4.1724 0
M  V30 6145 N 595.674 1.31259 -0.872281 0
M  V30 6146 C 596.922 1.96233 -0.483409 0
M  V30 6147 C 597.243 1.69276 0.968012 0
M  V30 6148 O 596.513 1.00943 1.67891 0
M  V30 6149 H 595.093 0.726025 -0.175774 0
M  V30 6150 H 597.755 1.60024 -1.11258 0
M  V30 6151 H 596.851 3.05403 -0.643075 0
M  V30 6152 N 597.152 0.631951 1.44375 0
M  V30 6153 C 598.082 -0.0593243 2.33425 0
M  V30 6154 C 599.063 -0.833964 1.48253 0
M  V30 6155 O 600.248 -0.799682 1.76971 0
M  V30 6156 C 597.378 -1.04096 3.31333 0
M  V30 6157 C 596.332 -0.377899 4.26328 0
M  V30 6158 C 595.658 -1.4695 5.14111 0
M  V30 6159 C 596.958 0.716371 5.17364 0
M  V30 6160 H 598.652 0.684287 2.91475 0
M  V30 6161 H 596.198 0.330518 1.40156 0
M  V30 6162 H 598.151 -1.53331 3.92514 0
M  V30 6163 H 596.875 -1.81547 2.71493 0
M  V30 6164 H 595.534 0.0938054 3.6648 0
M  V30 6165 H 595.182 -2.2349 4.50623 0
M  V30 6166 H 594.882 -1.03121 5.78481 0
M  V30 6167 H 596.406 -1.96363 5.78164 0
M  V30 6168 H 597.82 0.307089 5.72477 0
M  V30 6169 H 596.217 1.07784 5.90341 0
M  V30 6170 H 597.287 1.58316 4.58327 0
M  V30 6171 N 598.631 -1.53133 0.372548 0
M  V30 6172 C 599.581 -2.22733 -0.487218 0
M  V30 6173 C 600.565 -1.22506 -1.04312 0
M  V30 6174 O 601.757 -1.47923 -0.972005 0
M  V30 6175 C 598.886 -3.02524 -1.62278 0
M  V30 6176 C 597.972 -4.10133 -1.07943 0
M  V30 6177 N 598.363 -5.05133 -0.259629 0
M  V30 6178 C 596.661 -4.24964 -1.35356 0
M  V30 6179 C 597.362 -5.81687 0.0386656 0
M  V30 6180 N 596.338 -5.40699 -0.560827 0
M  V30 6181 H 600.14 -2.93538 0.145853 0
M  V30 6182 H 597.654 -1.61389 0.180938 0
M  V30 6183 H 599.651 -3.50909 -2.25096 0
M  V30 6184 H 598.311 -2.33252 -2.25884 0
M  V30 6185 H 599.322 -5.178 0.101746 0
M  V30 6186 H 595.999 -3.66919 -1.9919 0
M  V30 6187 H 597.389 -6.68224 0.701841 0
M  V30 6188 N 600.109 -0.101901 -1.5727 0
M  V30 6189 C 601.041 0.884723 -2.11436 0
M  V30 6190 C 602.054 1.24149 -1.05314 0
M  V30 6191 O 603.243 1.19341 -1.3274 0
M  V30 6192 C 600.343 2.19179 -2.58484 0
M  V30 6193 C 599.516 2.00933 -3.88516 0
M  V30 6194 C 598.575 3.15213 -4.2134 0
M  V30 6195 O 597.601 2.88877 -4.90448 0
M  V30 6196 N 598.803 4.41174 -3.77288 0
M  V30 6197 H 601.568 0.422058 -2.96713 0
M  V30 6198 H 599.129 0.0830128 -1.61687 0
M  V30 6199 H 601.121 2.94593 -2.77484 0
M  V30 6200 H 599.691 2.56847 -1.7818 0
M  V30 6201 H 598.911 1.09809 -3.78597 0
M  V30 6202 H 600.199 1.86026 -4.73573 0
M  V30 6203 H 599.597 4.6545 -3.21516 0
M  V30 6204 H 598.154 5.13515 -4.01429 0
M  V30 6205 N 601.587 1.56661 0.17182 0
M  V30 6206 C 602.55 1.9549 1.19651 0
M  V30 6207 C 603.55 0.838501 1.37207 0
M  V30 6208 O 604.74 1.10556 1.34622 0
M  V30 6209 C 601.872 2.24927 2.56166 0
M  V30 6210 H 603.065 2.87184 0.864007 0
M  V30 6211 H 600.618 1.50711 0.41425 0
M  V30 6212 H 601.353 1.35944 2.94431 0
M  V30 6213 H 601.138 3.06301 2.4479 0
M  V30 6214 H 602.628 2.55891 3.30014 0
M  V30 6215 N 603.065 -0.440357 1.51323 0
M  V30 6216 C 604.313 -1.18769 1.63518 0
M  V30 6217 C 604.634 -1.91793 0.352201 0
M  V30 6218 O 603.904 -1.85432 -0.631811 0
M  V30 6219 H 602.484 -0.441408 0.602634 0
M  V30 6220 H 605.146 -0.505162 1.8824 0
M  V30 6221 H 604.242 -1.91892 2.46138 0
M  V30 6222 N 604.543 -1.41418 -0.695603 0
M  V30 6223 C 605.789 -1.40982 -1.4578 0
M  V30 6224 C 606.122 -0.0187763 -1.94191 0
M  V30 6225 O 605.397 0.95346 -1.69527 0
M  V30 6226 C 605.68 -2.41657 -2.66972 0
M  V30 6227 C 605.533 -3.89869 -2.24327 0
M  V30 6228 C 606.852 -2.39589 -3.69168 0
M  V30 6229 H 603.971 -0.513405 -0.528757 0
M  V30 6230 H 606.613 -1.72693 -0.792275 0
M  V30 6231 H 604.763 -2.14746 -3.23754 0
M  V30 6232 H 606.435 -4.27683 -1.72872 0
M  V30 6233 H 604.678 -4.04737 -1.56111 0
M  V30 6234 H 605.349 -4.55857 -3.11285 0
M  V30 6235 H 607.825 -2.63471 -3.2206 0
M  V30 6236 H 606.701 -3.12044 -4.51575 0
M  V30 6237 H 606.962 -1.41447 -4.18862 0
M  V30 6238 N 606.021 0.929856 -1.27246 0
M  V30 6239 C 607.298 1.65544 -1.04186 0
M  V30 6240 C 607.678 2.06796 0.424097 0
M  V30 6241 O 607.026 1.80053 1.40688 0
M  V30 6242 C 607.236 2.85912 -2.00138 0
M  V30 6243 C 608.584 3.57305 -2.29387 0
M  V30 6244 O 609.608 2.96036 -1.98094 0
M  V30 6245 O 608.467 4.67688 -2.82719 0
M  V30 6246 H 605.561 0.725473 -0.397011 0
M  V30 6247 H 608.107 0.980583 -1.38501 0
M  V30 6248 H 606.879 2.52403 -2.99013 0
M  V30 6249 H 606.502 3.61118 -1.66371 0
M  V30 6250 N 607.499 1.09233 1.13605 0
M  V30 6251 C 608.747 0.825525 1.84471 0
M  V30 6252 C 609.068 -0.650702 1.83823 0
M  V30 6253 O 608.338 -1.47204 1.29259 0
M  V30 6254 H 606.918 0.3024 0.683054 0
M  V30 6255 H 609.58 1.38006 1.37624 0
M  V30 6256 H 608.676 1.17727 2.89045 0
M  V30 6257 N 608.977 -1.30795 0.87923 0
M  V30 6258 C 609.924 -2.28282 0.339968 0
M  V30 6259 C 610.894 -1.56134 -0.566685 0
M  V30 6260 O 612.079 -1.84231 -0.496338 0
M  V30 6261 C 609.219 -3.42225 -0.444501 0
M  V30 6262 C 608.332 -4.29204 0.490717 0
M  V30 6263 C 607.467 -5.30302 -0.308784 0
M  V30 6264 C 606.506 -6.08929 0.622272 0
M  V30 6265 N 605.643 -7.01957 -0.14155 0
M  V30 6266 H 610.483 -2.73794 1.17647 0
M  V30 6267 H 608.02 -1.34682 0.591527 0
M  V30 6268 H 609.978 -4.07038 -0.915186 0
M  V30 6269 H 608.608 -2.97799 -1.24562 0
M  V30 6270 H 607.66 -3.6475 1.07988 0
M  V30 6271 H 608.972 -4.84045 1.20425 0
M  V30 6272 H 608.126 -6.00835 -0.841575 0
M  V30 6273 H 606.865 -4.7614 -1.05556 0
M  V30 6274 H 605.87 -5.37278 1.16674 0
M  V30 6275 H 607.095 -6.65178 1.36804 0
M  V30 6276 H 605.041 -6.50192 -0.870966 0
M  V30 6277 H 604.958 -7.54261 0.51246 0
M  V30 6278 H 606.226 -7.76741 -0.655271 0
M  V30 6279 N 610.455 -0.639598 -1.44038 0
M  V30 6280 C 611.701 -0.147698 -2.02261 0
M  V30 6281 C 612.034 1.23031 -1.50256 0
M  V30 6282 O 611.309 1.81847 -0.690068 0
M  V30 6283 C 611.592 -0.14362 -3.59813 0
M  V30 6284 C 611.445 -1.55458 -4.22082 0
M  V30 6285 C 612.764 0.527317 -4.36929 0
M  V30 6286 H 609.883 -0.0551453 -0.734934 0
M  V30 6287 H 612.525 -0.817688 -1.71505 0
M  V30 6288 H 610.675 0.426898 -3.86147 0
M  V30 6289 H 612.347 -2.17464 -4.06826 0
M  V30 6290 H 610.59 -2.10594 -3.79253 0
M  V30 6291 H 611.261 -1.50369 -5.31124 0
M  V30 6292 H 613.737 0.0420504 -4.16079 0
M  V30 6293 H 612.613 0.499389 -5.46624 0
M  V30 6294 H 612.874 1.59914 -4.12165 0
M  V30 6295 N 611.933 1.52934 -0.380664 0
M  V30 6296 C 613.158 2.06363 0.207157 0
M  V30 6297 C 613.583 1.25122 1.4045 0
M  V30 6298 O 612.941 0.274062 1.79217 0
M  V30 6299 C 612.989 3.56162 0.563996 0
M  V30 6300 O 612.093 3.77552 1.65917 0
M  V30 6301 H 611.434 0.663468 0.0265859 0
M  V30 6302 H 613.964 1.9719 -0.545635 0
M  V30 6303 H 613.974 3.99453 0.830752 0
M  V30 6304 H 612.649 4.14732 -0.311427 0
M  V30 6305 H 611.226 3.46154 1.3868 0
M  V30 6306 N 613.412 0.11024 1.57214 0
M  V30 6307 C 614.375 -0.828808 2.1369 0
M  V30 6308 C 615.375 -1.20059 1.06969 0
M  V30 6309 O 616.565 -1.12754 1.32786 0
M  V30 6310 C 613.697 -2.11959 2.66994 0
M  V30 6311 H 614.89 -0.338146 2.97988 0
M  V30 6312 H 612.443 -0.138913 1.55681 0
M  V30 6313 H 613.178 -2.65476 1.8626 0
M  V30 6314 H 612.963 -1.86258 3.45037 0
M  V30 6315 H 614.453 -2.79105 3.10629 0
M  V30 6316 N 614.89 -1.56749 -0.16351 0
M  V30 6317 C 615.837 -1.97011 -1.2023 0
M  V30 6318 C 616.807 -0.835186 -1.43575 0
M  V30 6319 O 617.992 -1.09594 -1.56185 0
M  V30 6320 C 615.132 -2.34186 -2.53478 0
M  V30 6321 C 614.245 -3.60893 -2.37446 0
M  V30 6322 C 613.38 -3.87245 -3.63614 0
M  V30 6323 C 612.419 -5.07274 -3.42548 0
M  V30 6324 N 611.556 -5.29719 -4.60806 0
M  V30 6325 H 616.396 -2.85562 -0.851958 0
M  V30 6326 H 613.933 -1.41292 -0.409257 0
M  V30 6327 H 615.891 -2.53764 -3.31149 0
M  V30 6328 H 614.521 -1.48736 -2.86492 0
M  V30 6329 H 613.573 -3.49185 -1.50911 0
M  V30 6330 H 614.885 -4.48722 -2.1783 0
M  V30 6331 H 614.039 -4.07232 -4.49719 0
M  V30 6332 H 612.778 -2.97806 -3.86216 0
M  V30 6333 H 611.783 -4.87177 -2.5483 0
M  V30 6334 H 613.008 -5.98251 -3.2136 0
M  V30 6335 H 610.954 -4.43233 -4.83612 0
M  V30 6336 H 610.871 -6.11786 -4.44132 0
M  V30 6337 H 612.139 -5.54192 -5.48171 0
M  V30 6338 N 616.368 0.432326 -1.51554 0
M  V30 6339 C 617.596 1.20364 -1.68286 0
M  V30 6340 C 618.011 1.84888 -0.38233 0
M  V30 6341 O 617.368 1.70924 0.639627 0
M  V30 6342 C 617.419 2.28398 -2.80208 0
M  V30 6343 O 617.14 1.66512 -4.05223 0
M  V30 6344 C 618.641 3.18584 -3.08251 0
M  V30 6345 H 615.861 0.36259 -0.564596 0
M  V30 6346 H 618.405 0.511647 -1.97996 0
M  V30 6347 H 616.56 2.93305 -2.53083 0
M  V30 6348 H 616.974 2.37951 -4.67418 0
M  V30 6349 H 618.448 3.90511 -3.90135 0
M  V30 6350 H 618.925 3.79628 -2.2086 0
M  V30 6351 H 619.531 2.59372 -3.37055 0
M  V30 6352 N 617.846 1.41785 0.688094 0
M  V30 6353 C 619.094 1.41264 1.4453 0
M  V30 6354 C 619.415 0.0252946 1.94984 0
M  V30 6355 O 618.685 -0.934081 1.72197 0
M  V30 6356 H 617.265 0.519998 0.536294 0
M  V30 6357 H 619.927 1.7709 0.813941 0
M  V30 6358 H 619.023 2.10439 2.30482 0
M  V30 6359 N 619.324 -0.923095 1.27737 0
M  V30 6360 C 620.549 -1.71054 1.17283 0
M  V30 6361 C 620.974 -1.86208 -0.266153 0
M  V30 6362 O 620.332 -1.36545 -1.1927 0
M  V30 6363 C 620.38 -3.0854 1.86642 0
M  V30 6364 O 619.484 -3.95528 1.16752 0
M  V30 6365 H 618.825 -0.524136 0.407649 0
M  V30 6366 H 621.355 -1.15487 1.6889 0
M  V30 6367 H 621.365 -3.58828 1.94182 0
M  V30 6368 H 620.04 -2.96828 2.91317 0
M  V30 6369 H 618.617 -3.53967 1.17312 0
M  V30 6370 N 620.802 -1.09834 -1.13024 0
M  V30 6371 C 621.732 -0.763451 -2.20666 0
M  V30 6372 C 622.713 0.260778 -1.68089 0
M  V30 6373 O 623.898 0.127915 -1.93778 0
M  V30 6374 C 621.028 -0.187744 -3.46792 0
M  V30 6375 C 619.982 -1.14196 -4.12484 0
M  V30 6376 C 619.308 -0.427755 -5.32986 0
M  V30 6377 C 620.608 -2.48607 -4.59338 0
M  V30 6378 H 622.302 -1.66347 -2.48936 0
M  V30 6379 H 619.848 -0.801261 -1.19649 0
M  V30 6380 H 621.801 0.0586375 -4.21359 0
M  V30 6381 H 620.525 0.747485 -3.17931 0
M  V30 6382 H 619.184 -1.37369 -3.3989 0
M  V30 6383 H 618.832 0.511747 -5.0039 0
M  V30 6384 H 618.532 -1.06403 -5.77886 0
M  V30 6385 H 620.056 -0.189772 -6.10305 0
M  V30 6386 H 621.47 -2.29618 -5.25308 0
M  V30 6387 H 619.867 -3.08062 -5.14993 0
M  V30 6388 H 620.937 -3.09062 -3.73642 0
M  V30 6389 N 622.28 1.30327 -0.886154 0
M  V30 6390 C 623.212 2.27079 -0.311072 0
M  V30 6391 C 624.225 1.53758 0.53502 0
M  V30 6392 O 625.414 1.74947 0.354378 0
M  V30 6393 C 622.514 3.33965 0.576228 0
M  V30 6394 C 621.687 4.36735 -0.241064 0
M  V30 6395 C 620.746 5.23028 0.576916 0
M  V30 6396 O 619.772 5.692 -0.000802231 0
M  V30 6397 N 620.974 5.49016 1.88579 0
M  V30 6398 H 623.739 2.77065 -1.14259 0
M  V30 6399 H 621.3 1.43519 -0.749258 0
M  V30 6400 H 623.292 3.88618 1.12953 0
M  V30 6401 H 621.862 2.839 1.30842 0
M  V30 6402 H 621.082 3.81932 -0.975805 0
M  V30 6403 H 622.37 5.02451 -0.801272 0
M  V30 6404 H 621.768 5.13288 2.37806 0
M  V30 6405 H 620.325 6.06539 2.38651 0
M  V30 6406 N 623.758 0.647228 1.43697 0
M  V30 6407 C 625.006 0.157876 2.01482 0
M  V30 6408 C 625.327 -1.23039 1.51282 0
M  V30 6409 O 624.597 -1.82071 0.722982 0
M  V30 6410 H 623.177 0.0553745 0.744945 0
M  V30 6411 H 625.839 0.83755 1.75986 0
M  V30 6412 H 624.935 0.137895 3.11795 0
M  V30 6413 N 625.236 -1.5273 0.388769 0
M  V30 6414 C 626.482 -2.01871 -0.193877 0
M  V30 6415 C 626.815 -1.27475 -1.46505 0
M  V30 6416 O 626.09 -0.375063 -1.90849 0
M  V30 6417 C 626.373 -3.5712 -0.462336 0
M  V30 6418 C 626.226 -4.42186 0.824091 0
M  V30 6419 C 627.545 -4.21881 -1.25319 0
M  V30 6420 H 624.664 -0.733764 -0.0689899 0
M  V30 6421 H 627.306 -1.82796 0.518231 0
M  V30 6422 H 625.456 -3.73504 -1.06896 0
M  V30 6423 H 627.128 -4.37554 1.46096 0
M  V30 6424 H 625.371 -4.09219 1.43952 0
M  V30 6425 H 626.042 -5.48828 0.590905 0
M  V30 6426 H 628.518 -4.0947 -0.73981 0
M  V30 6427 H 627.394 -5.30487 -1.40977 0
M  V30 6428 H 627.655 -3.79478 -2.26824 0
M  V30 6429 N 626.714 -0.118576 -1.57153 0
M  V30 6430 C 627.944 0.546466 -1.99242 0
M  V30 6431 C 628.352 1.60791 -0.997148 0
M  V30 6432 O 627.695 1.83691 0.0181745 0
M  V30 6433 C 627.757 1.23167 -3.37743 0
M  V30 6434 C 627.421 0.318226 -4.55891 0
M  V30 6435 C 628.418 -0.442988 -5.18009 0
M  V30 6436 C 626.103 0.229421 -5.01776 0
M  V30 6437 C 628.097 -1.28074 -6.244 0
M  V30 6438 C 625.784 -0.611966 -6.08028 0
M  V30 6439 C 626.782 -1.36568 -6.69207 0
M  V30 6440 O 626.47 -2.1931 -7.73407 0
M  V30 6441 H 626.202 0.149297 -0.659307 0
M  V30 6442 H 628.756 -0.201603 -2.04408 0
M  V30 6443 H 626.986 2.0268 -3.29329 0
M  V30 6444 H 628.675 1.79358 -3.64123 0
M  V30 6445 H 629.441 -0.38425 -4.83475 0
M  V30 6446 H 625.32 0.805771 -4.53903 0
M  V30 6447 H 628.864 -1.86952 -6.72082 0
M  V30 6448 H 624.761 -0.6721 -6.41991 0
M  V30 6449 H 625.529 -2.12247 -7.90502 0
M  V30 6450 N 628.193 1.56834 0.155195 0
M  V30 6451 C 629.141 1.98584 1.21107 0
M  V30 6452 C 630.135 0.876987 1.44932 0
M  V30 6453 O 631.341 1.06215 1.45322 0
M  V30 6454 H 627.716 0.632039 0.407469 0
M  V30 6455 H 629.687 2.86561 0.832195 0
M  V30 6456 C 628.436 2.37555 2.53895 0
M  V30 6457 H 627.759 3.22428 2.3639 0
M  V30 6458 H 629.199 2.70598 3.26424 0
M  V30 6459 C 627.658 1.22507 3.13837 0
M  V30 6460 O 628.188 0.521388 3.98302 0
M  V30 6461 N 626.394 0.991444 2.73164 0
M  V30 6462 H 625.941 1.56544 2.04577 0
M  V30 6463 H 625.899 0.223546 3.13604 0
M  V30 6464 N 629.671 -0.424282 1.51781 0
M  V30 6465 C 630.601 -1.52305 1.7699 0
M  V30 6466 C 631.582 -1.5839 0.620209 0
M  V30 6467 O 632.767 -1.73908 0.864268 0
M  V30 6468 C 629.897 -2.90271 1.90683 0
M  V30 6469 C 628.851 -2.99043 3.06198 0
M  V30 6470 C 628.177 -4.39116 3.05092 0
M  V30 6471 C 629.477 -2.7192 4.45934 0
M  V30 6472 H 631.171 -1.31461 2.68995 0
M  V30 6473 H 628.717 -0.630985 1.29439 0
M  V30 6474 H 630.67 -3.6711 2.06901 0
M  V30 6475 H 629.394 -3.12376 0.953365 0
M  V30 6476 H 628.053 -2.24646 2.89706 0
M  V30 6477 H 627.701 -4.58207 2.07498 0
M  V30 6478 H 627.401 -4.45912 3.82669 0
M  V30 6479 H 628.925 -5.17911 3.2342 0
M  V30 6480 H 630.339 -3.38487 4.62709 0
M  V30 6481 H 628.736 -2.90111 5.25315 0
M  V30 6482 H 629.806 -1.67445 4.55072 0
M  V30 6483 N 631.149 -1.42148 -0.680565 0
M  V30 6484 C 632.112 -1.4488 -1.77602 0
M  V30 6485 C 633.112 -0.337209 -1.57224 0
M  V30 6486 O 634.302 -0.597778 -1.63622 0
M  V30 6487 C 631.434 -1.27483 -3.16166 0
M  V30 6488 H 632.627 -2.42412 -1.76568 0
M  V30 6489 H 630.18 -1.28511 -0.889645 0
M  V30 6490 H 630.915 -0.30851 -3.22829 0
M  V30 6491 H 630.7 -2.08037 -3.3236 0
M  V30 6492 H 632.19 -1.32265 -3.96101 0
M  V30 6493 N 632.627 0.916307 -1.28225 0
M  V30 6494 C 633.875 1.6619 -1.15002 0
M  V30 6495 C 634.196 1.92642 0.302329 0
M  V30 6496 O 633.466 1.54076 1.20985 0
M  V30 6497 H 632.046 0.615964 -0.422608 0
M  V30 6498 H 634.708 1.09963 -1.60917 0
M  V30 6499 H 633.804 2.62533 -1.68769 0
M  V30 6500 N 634.105 1.10431 1.1244 0
M  V30 6501 C 635.352 0.846717 1.83948 0
M  V30 6502 C 635.68 -0.627709 1.84093 0
M  V30 6503 O 634.935 -1.47876 1.28184 0
M  V30 6504 C 635.234 1.34022 3.3132 0
M  V30 6505 C 634.9 2.82606 3.51347 0
M  V30 6506 C 633.562 3.23182 3.56521 0
M  V30 6507 C 635.914 3.78356 3.58464 0
M  V30 6508 C 633.242 4.58258 3.66356 0
M  V30 6509 C 635.594 5.13234 3.69829 0
M  V30 6510 C 634.258 5.53384 3.73259 0
M  V30 6511 H 633.528 0.309836 0.673114 0
M  V30 6512 H 636.175 1.38091 1.32677 0
M  V30 6513 H 634.48 0.726047 3.85014 0
M  V30 6514 H 636.177 1.11739 3.85118 0
M  V30 6515 H 632.767 2.50212 3.47983 0
M  V30 6516 H 636.951 3.48115 3.53737 0
M  V30 6517 H 632.207 4.88787 3.67284 0
M  V30 6518 H 636.381 5.87272 3.74279 0
M  V30 6519 H 634.008 6.58045 3.80633 0
M  V30 6520 N 635.583 -1.29855 0.893053 0
M  V30 6521 C 636.832 -1.95104 0.511597 0
M  V30 6522 C 637.145 -1.71226 -0.945567 0
M  V30 6523 O 638.351 -2.30525 -1.43424 0
M  V30 6524 C 636.807 -3.49374 0.864034 0
M  V30 6525 C 636.415 -3.82061 2.33952 0
M  V30 6526 C 638.159 -4.20894 0.552167 0
M  V30 6527 C 636.066 -5.29546 2.63316 0
M  V30 6528 H 634.996 -0.73029 0.187597 0
M  V30 6529 H 637.647 -1.47682 1.08914 0
M  V30 6530 H 636.029 -3.95413 0.215493 0
M  V30 6531 H 637.203 -3.46904 3.03305 0
M  V30 6532 H 635.518 -3.23665 2.61973 0
M  V30 6533 H 638.115 -5.29435 0.748489 0
M  V30 6534 H 638.458 -4.13178 -0.508924 0
M  V30 6535 H 638.991 -3.80564 1.15825 0
M  V30 6536 H 635.73 -5.4232 3.68197 0
M  V30 6537 H 635.25 -5.65974 1.9858 0
M  V30 6538 H 636.929 -5.97068 2.49236 0
M  V30 6539 N 637.061 -0.65484 -1.43351 0
M  V30 6540 C 638.289 -0.176685 -2.06144 0
M  V30 6541 C 638.704 1.15831 -1.49093 0
M  V30 6542 O 638.061 1.71542 -0.622868 0
M  V30 6543 C 638.112 -0.0813326 -3.61408 0
M  V30 6544 O 637.833 -1.36355 -4.1634 0
M  V30 6545 C 639.334 0.422706 -4.4128 0
M  V30 6546 H 636.554 -0.0906429 -0.66485 0
M  V30 6547 H 639.098 -0.895945 -1.83829 0
M  V30 6548 H 637.253 0.588496 -3.82904 0
M  V30 6549 H 637.667 -1.22381 -5.10023 0
M  V30 6550 H 639.141 0.438375 -5.50257 0
M  V30 6551 H 639.618 1.45432 -4.14423 0
M  V30 6552 H 640.224 -0.214687 -4.24758 0
M  V30 6553 N 638.539 1.52521 -0.396863 0
M  V30 6554 C 639.767 2.06091 0.18275 0
M  V30 6555 C 640.182 1.26796 1.39886 0
M  V30 6556 O 639.539 0.316585 1.79733 0
M  V30 6557 C 639.59 3.57362 0.545377 0
M  V30 6558 O 639.311 4.33656 -0.622428 0
M  V30 6559 C 640.812 4.27305 1.18004 0
M  V30 6560 H 638.032 0.670504 0.025789 0
M  V30 6561 H 640.576 1.96561 -0.564276 0
M  V30 6562 H 638.731 3.66941 1.2423 0
M  V30 6563 H 639.145 5.23507 -0.322662 0
M  V30 6564 H 640.619 5.34366 1.38408 0
M  V30 6565 H 641.096 3.83 2.1496 0
M  V30 6566 H 641.702 4.22064 0.523671 0
M  V30 6567 N 640.017 0.126909 1.57088 0
M  V30 6568 C 640.98 -0.806097 2.14557 0
M  V30 6569 C 641.98 -1.18918 1.08236 0
M  V30 6570 O 643.17 -1.11339 1.33975 0
M  V30 6571 C 640.302 -2.09116 2.69227 0
M  V30 6572 H 641.495 -0.306522 2.98329 0
M  V30 6573 H 639.048 -0.122393 1.5582 0
M  V30 6574 H 639.783 -2.63486 1.89065 0
M  V30 6575 H 639.568 -1.82588 3.46993 0
M  V30 6576 H 641.058 -2.75794 3.13572 0
M  V30 6577 N 641.495 -1.56914 -0.146875 0
M  V30 6578 C 642.72 -1.87881 -0.878386 0
M  V30 6579 C 643.145 -0.715945 -1.73942 0
M  V30 6580 O 642.503 0.334447 -1.78189 0
M  V30 6581 C 642.551 -3.17431 -1.71084 0
M  V30 6582 O 641.655 -3.01374 -2.81509 0
M  V30 6583 H 640.996 -0.617289 -0.244644 0
M  V30 6584 H 643.526 -2.04136 -0.137654 0
M  V30 6585 H 643.536 -3.49455 -2.10582 0
M  V30 6586 H 642.211 -4.01671 -1.07856 0
M  V30 6587 H 640.788 -2.80758 -2.45416 0
M  V30 6588 N 642.974 0.416227 -1.52004 0
M  V30 6589 C 644.222 1.16153 -1.65387 0
M  V30 6590 C 644.543 1.91208 -0.382669 0
M  V30 6591 O 643.813 1.86413 0.602231 0
M  V30 6592 H 642.393 0.431765 -0.60958 0
M  V30 6593 H 645.055 0.475151 -1.89019 0
M  V30 6594 H 644.151 1.87952 -2.4916 0
M  V30 6595 N 644.452 1.42507 0.673017 0
M  V30 6596 C 645.384 1.42074 1.79854 0
M  V30 6597 C 646.397 0.319569 1.59633 0
M  V30 6598 O 647.586 0.582769 1.68719 0
M  V30 6599 C 644.686 1.19886 3.16987 0
M  V30 6600 C 643.859 2.42471 3.64042 0
M  V30 6601 C 642.918 2.15802 4.79913 0
M  V30 6602 O 641.944 2.89015 4.90366 0
M  V30 6603 N 643.146 1.16225 5.68746 0
M  V30 6604 H 645.911 2.3909 1.8071 0
M  V30 6605 H 643.472 1.37409 0.856171 0
M  V30 6606 H 645.464 0.999591 3.92161 0
M  V30 6607 H 644.034 0.313879 3.1102 0
M  V30 6608 H 643.254 2.77954 2.79526 0
M  V30 6609 H 644.542 3.24097 3.92223 0
M  V30 6610 H 643.94 0.556756 5.62954 0
M  V30 6611 H 642.497 1.02285 6.43724 0
M  V30 6612 N 645.93 -0.909495 1.28709 0
M  V30 6613 C 647.346 -1.18862 1.06508 0
M  V30 6614 C 647.546 -2.00604 -0.189864 0
M  V30 6615 O 646.602 -2.36281 -0.890355 0
M  V30 6616 C 647.915 -1.91908 2.31499 0
M  V30 6617 C 649.463 -2.04773 2.36721 0
M  V30 6618 C 649.938 -2.81228 3.6149 0
M  V30 6619 N 651.429 -2.88787 3.62155 0
M  V30 6620 C 652.164 -3.48455 4.55375 0
M  V30 6621 N 651.66 -4.09369 5.58918 0
M  V30 6622 N 653.453 -3.46035 4.42963 0
M  V30 6623 H 645.604 -0.363867 2.0926 0
M  V30 6624 H 647.867 -0.223649 0.921241 0
M  V30 6625 H 647.573 -1.39275 3.22948 0
M  V30 6626 H 647.447 -2.92436 2.38245 0
M  V30 6627 H 649.834 -2.56585 1.45767 0
M  V30 6628 H 649.915 -1.03408 2.33967 0
M  V30 6629 H 649.559 -2.30094 4.5279 0
M  V30 6630 H 649.489 -3.82917 3.61499 0
M  V30 6631 H 651.98 -2.45514 2.87283 0
M  V30 6632 H 652.293 -4.52891 6.26187 0
M  V30 6633 H 650.638 -4.0786 5.62739 0
M  V30 6634 H 653.829 -2.9766 3.6127 0
M  V30 6635 H 654.002 -3.92244 5.15799 0
M  V30 6636 N 647.408 -1.11026 -1.11852 0
M  V30 6637 C 648.341 -0.708501 -2.16923 0
M  V30 6638 C 649.319 0.293196 -1.59935 0
M  V30 6639 O 650.503 0.190641 -1.87533 0
M  V30 6640 C 647.63 -0.0463705 -3.38668 0
M  V30 6641 C 646.676 -1.01252 -4.14307 0
M  V30 6642 S 647.509 -2.53291 -4.71809 0
M  V30 6643 C 648.665 -1.88366 -5.96883 0
M  V30 6644 H 648.898 -1.59854 -2.50667 0
M  V30 6645 H 646.431 -0.927869 -1.2341 0
M  V30 6646 H 648.389 0.329314 -4.09177 0
M  V30 6647 H 647.05 0.820562 -3.03192 0
M  V30 6648 H 646.243 -0.496596 -5.01548 0
M  V30 6649 H 645.845 -1.33042 -3.49537 0
M  V30 6650 H 648.137 -1.21753 -6.6647 0
M  V30 6651 H 649.08 -2.73588 -6.53112 0
M  V30 6652 H 649.488 -1.34562 -5.48227 0
M  V30 6653 N 648.886 1.2938 -0.899927 0
M  V30 6654 C 649.849 2.25983 -0.382677 0
M  V30 6655 C 650.849 1.53366 0.483259 0
M  V30 6656 O 652.039 1.71798 0.28828 0
M  V30 6657 C 649.171 3.37878 0.452915 0
M  V30 6658 H 650.364 2.73252 -1.23586 0
M  V30 6659 H 647.917 1.40825 -0.678088 0
M  V30 6660 H 648.652 2.95949 1.32608 0
M  V30 6661 H 648.437 3.91742 -0.167562 0
M  V30 6662 H 649.927 4.09746 0.806107 0
M  V30 6663 N 650.364 0.662433 1.43002 0
M  V30 6664 C 651.611 0.179591 2.01702 0
M  V30 6665 C 651.939 -1.20964 1.52309 0
M  V30 6666 O 651.194 -1.82343 0.7106 0
M  V30 6667 C 651.493 0.149363 3.57088 0
M  V30 6668 C 651.159 1.48158 4.25864 0
M  V30 6669 C 649.821 1.84638 4.44367 0
M  V30 6670 C 652.173 2.35953 4.64732 0
M  V30 6671 C 649.501 3.08561 4.99006 0
M  V30 6672 C 651.853 3.59176 5.20745 0
M  V30 6673 C 650.517 3.95841 5.37463 0
M  V30 6674 H 649.787 0.0657172 0.73808 0
M  V30 6675 H 652.434 0.854968 1.71355 0
M  V30 6676 H 650.739 -0.609491 3.8703 0
M  V30 6677 H 652.436 -0.241241 4.00274 0
M  V30 6678 H 649.026 1.18777 4.11813 0
M  V30 6679 H 653.21 2.09058 4.50121 0
M  V30 6680 H 648.466 3.37005 5.10135 0
M  V30 6681 H 652.64 4.27417 5.49807 0
M  V30 6682 H 650.267 4.91942 5.79566 0
M  V30 6683 N 651.842 -1.52309 0.404946 0
M  V30 6684 C 653.088 -2.02065 -0.172455 0
M  V30 6685 C 653.421 -1.29022 -1.45145 0
M  V30 6686 O 652.696 -0.395284 -1.90441 0
M  V30 6687 C 652.979 -3.5759 -0.424433 0
M  V30 6688 C 652.832 -4.41287 0.870945 0
M  V30 6689 C 654.151 -4.23186 -1.20837 0
M  V30 6690 H 651.27 -0.734454 -0.0612035 0
M  V30 6691 H 653.912 -1.82236 0.53759 0
M  V30 6692 H 652.062 -3.74617 -1.02929 0
M  V30 6693 H 653.734 -4.3598 1.50729 0
M  V30 6694 H 651.977 -4.07669 1.48284 0
M  V30 6695 H 652.648 -5.48171 0.649083 0
M  V30 6696 H 655.124 -4.10232 -0.696338 0
M  V30 6697 H 654 -5.31953 -1.35343 0
M  V30 6698 H 654.261 -3.81862 -2.22786 0
M  V30 6699 N 653.32 -0.135238 -1.57019 0
M  V30 6700 C 654.252 0.839675 -2.13265 0
M  V30 6701 C 655.265 1.21887 -1.07923 0
M  V30 6702 O 656.454 1.16499 -1.35241 0
M  V30 6703 C 653.554 2.13647 -2.63075 0
M  V30 6704 C 652.727 1.92646 -3.92691 0
M  V30 6705 C 651.786 3.06205 -4.27931 0
M  V30 6706 O 650.812 2.78409 -4.96465 0
M  V30 6707 N 652.014 4.33072 -3.86561 0
M  V30 6708 H 654.779 0.359026 -2.97542 0
M  V30 6709 H 652.34 0.0486979 -1.61827 0
M  V30 6710 H 654.332 2.88641 -2.8367 0
M  V30 6711 H 652.902 2.5301 -1.83588 0
M  V30 6712 H 652.122 1.01754 -3.80841 0
M  V30 6713 H 653.41 1.75939 -4.77413 0
M  V30 6714 H 652.808 4.58526 -3.31316 0
M  V30 6715 H 651.365 5.04885 -4.12231 0
M  V30 6716 N 654.798 1.5699 0.138552 0
M  V30 6717 C 656.028 1.87704 0.863184 0
M  V30 6718 C 656.436 0.722411 1.74865 0
M  V30 6719 O 655.779 -0.316636 1.80951 0
M  V30 6720 C 655.841 3.13219 1.76449 0
M  V30 6721 C 655.505 4.44648 1.05532 0
M  V30 6722 C 656.502 5.18318 0.405252 0
M  V30 6723 C 654.187 4.91367 1.04231 0
M  V30 6724 C 656.181 6.36916 -0.24835 0
M  V30 6725 C 653.868 6.09887 0.384904 0
M  V30 6726 C 654.866 6.82508 -0.259292 0
M  V30 6727 O 654.554 7.98775 -0.906258 0
M  V30 6728 H 654.286 0.626255 0.254521 0
M  V30 6729 H 656.84 2.04966 0.133472 0
M  V30 6730 H 655.07 2.91988 2.53535 0
M  V30 6731 H 656.759 3.30111 2.36181 0
M  V30 6732 H 657.525 4.83289 0.407053 0
M  V30 6733 H 653.404 4.34759 1.53315 0
M  V30 6734 H 656.948 6.93538 -0.751755 0
M  V30 6735 H 652.845 6.44376 0.380799 0
M  V30 6736 H 653.613 8.14494 -0.80877 0
M  V30 6737 N 656.276 -0.40816 1.52223 0
M  V30 6738 C 657.206 -1.5042 1.78595 0
M  V30 6739 C 658.187 -1.57723 0.636974 0
M  V30 6740 O 659.372 -1.72982 0.882664 0
M  V30 6741 C 656.502 -2.88232 1.93751 0
M  V30 6742 C 655.456 -2.95779 3.09352 0
M  V30 6743 C 654.782 -4.35855 3.09732 0
M  V30 6744 C 656.082 -2.67175 4.48793 0
M  V30 6745 H 657.776 -1.28601 2.70374 0
M  V30 6746 H 655.322 -0.617221 1.30101 0
M  V30 6747 H 657.275 -3.64895 2.10783 0
M  V30 6748 H 655.999 -3.11347 0.986443 0
M  V30 6749 H 654.658 -2.21561 2.92072 0
M  V30 6750 H 654.306 -4.55981 2.12346 0
M  V30 6751 H 654.006 -4.41829 3.87377 0
M  V30 6752 H 655.53 -5.14451 3.28895 0
M  V30 6753 H 656.944 -3.3356 4.66273 0
M  V30 6754 H 655.341 -2.84523 5.28362 0
M  V30 6755 H 656.411 -1.62609 4.56822 0
M  V30 6756 N 657.755 -1.42862 -0.66545 0
M  V30 6757 C 658.98 -1.47456 -1.45848 0
M  V30 6758 C 659.405 -0.0900312 -1.87884 0
M  V30 6759 O 658.763 0.913587 -1.56599 0
M  V30 6760 C 658.811 -2.41514 -2.67774 0
M  V30 6761 O 657.915 -1.89296 -3.66389 0
M  V30 6762 H 657.256 -0.499236 -0.437789 0
M  V30 6763 H 659.786 -1.8765 -0.815394 0
M  V30 6764 H 659.796 -2.58409 -3.15735 0
M  V30 6765 H 658.471 -3.42099 -2.36519 0
M  V30 6766 H 657.048 -1.82003 -3.25468 0
M  V30 6767 N 659.233 0.902656 -1.29189 0
M  V30 6768 C 660.481 1.6496 -1.16758 0
M  V30 6769 C 660.802 1.92952 0.28188 0
M  V30 6770 O 660.072 1.55351 1.19344 0
M  V30 6771 H 658.652 0.611447 -0.429118 0
M  V30 6772 H 661.314 1.0825 -1.62074 0
M  V30 6773 H 660.41 2.60728 -1.71544 0
M  V30 6774 N 660.711 1.11618 1.11262 0
M  V30 6775 C 661.941 0.88745 1.86569 0
M  V30 6776 C 662.349 -0.56636 1.80524 0
M  V30 6777 O 661.692 -1.40289 1.18594 0
M  V30 6778 C 661.754 1.27313 3.36202 0
M  V30 6779 C 661.418 2.73649 3.66013 0
M  V30 6780 C 662.415 3.71863 3.63337 0
M  V30 6781 C 660.1 3.10342 3.9496 0
M  V30 6782 C 662.094 5.04788 3.89188 0
M  V30 6783 C 659.781 4.43451 4.20469 0
M  V30 6784 C 660.779 5.40484 4.17572 0
M  V30 6785 O 660.467 6.71195 4.42439 0
M  V30 6786 H 660.199 0.317543 0.596777 0
M  V30 6787 H 662.753 1.48768 1.41624 0
M  V30 6788 H 660.983 0.616062 3.81761 0
M  V30 6789 H 662.672 1.01991 3.92877 0
M  V30 6790 H 663.438 3.44861 3.41022 0
M  V30 6791 H 659.317 2.35431 3.9635 0
M  V30 6792 H 662.861 5.80516 3.86842 0
M  V30 6793 H 658.758 4.70187 4.42261 0
M  V30 6794 H 659.526 6.77012 4.59997 0
M  V30 6795 N 662.189 -1.289 0.906776 0
M  V30 6796 C 663.152 -2.25777 0.394656 0
M  V30 6797 C 664.152 -1.53621 -0.475119 0
M  V30 6798 O 665.342 -1.71949 -0.279165 0
M  V30 6799 C 662.474 -3.38113 -0.43499 0
M  V30 6800 H 663.667 -2.72592 1.25033 0
M  V30 6801 H 661.22 -1.40463 0.685547 0
M  V30 6802 H 661.955 -2.96648 -1.31036 0
M  V30 6803 H 661.74 -3.91647 0.188334 0
M  V30 6804 H 663.23 -4.10168 -0.784365 0
M  V30 6805 N 663.667 -0.670007 -1.42649 0
M  V30 6806 C 664.913 -0.190568 -2.01903 0
M  V30 6807 C 665.246 1.19817 -1.52832 0
M  V30 6808 O 664.521 1.80342 -0.728485 0
M  V30 6809 C 664.804 -0.21991 -3.59428 0
M  V30 6810 C 664.657 -1.64376 -4.18689 0
M  V30 6811 C 665.976 0.434519 -4.3795 0
M  V30 6812 H 663.095 -0.0707219 -0.733599 0
M  V30 6813 H 665.737 -0.853883 -1.69732 0
M  V30 6814 H 663.887 0.344894 -3.86966 0
M  V30 6815 H 665.559 -2.26044 -4.02122 0
M  V30 6816 H 663.802 -2.18591 -3.747 0
M  V30 6817 H 664.473 -1.61601 -5.27815 0
M  V30 6818 H 666.949 -0.0462156 -4.16074 0
M  V30 6819 H 665.825 0.38333 -5.4756 0
M  V30 6820 H 666.086 1.51135 -4.15464 0
M  V30 6821 N 665.145 1.52092 -0.413018 0
M  V30 6822 C 666.055 2.30858 0.417318 0
M  V30 6823 C 667.071 1.38746 1.05003 0
M  V30 6824 O 668.247 1.71821 1.05069 0
M  V30 6825 C 665.312 3.11756 1.51687 0
M  V30 6826 C 664.373 4.19613 0.906825 0
M  V30 6827 C 663.606 4.96644 1.95399 0
M  V30 6828 O 663.829 4.7402 3.17271 0
M  V30 6829 O 662.763 5.81385 1.55805 0
M  V30 6830 H 666.589 3.02865 -0.225028 0
M  V30 6831 H 664.174 1.48358 -0.176126 0
M  V30 6832 H 666.056 3.62122 2.15512 0
M  V30 6833 H 664.731 2.42539 2.14375 0
M  V30 6834 H 663.638 3.73385 0.231183 0
M  V30 6835 H 664.971 4.91134 0.323814 0
M  V30 6836 N 666.623 0.143563 1.56945 0
M  V30 6837 C 668.034 -0.37783 1.82837 0
M  V30 6838 C 668.385 -1.64967 1.06209 0
M  V30 6839 O 667.51 -2.14221 0.306291 0
M  V30 6840 C 668.105 -0.692274 3.31652 0
M  V30 6841 C 666.664 -1.1582 3.58138 0
M  V30 6842 C 665.811 -0.17951 2.76718 0
M  V30 6843 H 668.762 0.368317 1.54367 0
M  V30 6844 H 668.783 -1.54729 3.47619 0
M  V30 6845 H 668.295 0.233572 3.87397 0
M  V30 6846 H 666.396 -2.10011 3.07776 0
M  V30 6847 H 666.509 -1.08655 4.66616 0
M  V30 6848 H 664.873 -0.671458 2.4569 0
M  V30 6849 H 665.656 0.739865 3.35233 0
M  V30 6850 N 668.101 -1.57061 -0.130224 0
M  V30 6851 C 669.064 -1.98593 -1.14426 0
M  V30 6852 C 670.064 -0.874584 -1.34936 0
M  V30 6853 O 671.254 -1.14086 -1.31643 0
M  V30 6854 C 668.386 -2.31639 -2.50112 0
M  V30 6855 H 669.579 -2.89374 -0.787561 0
M  V30 6856 H 667.132 -1.51756 -0.374146 0
M  V30 6857 H 667.867 -1.43703 -2.90723 0
M  V30 6858 H 667.652 -3.12684 -2.36583 0
M  V30 6859 H 669.142 -2.64551 -3.23114 0
M  V30 6860 N 669.579 0.400081 -1.52437 0
M  V30 6861 C 670.856 1.15973 -1.57511 0
M  V30 6862 C 671.236 2.0798 -0.361572 0
M  V30 6863 O 670.584 2.19032 0.650929 0
M  V30 6864 C 670.794 1.92912 -2.90837 0
M  V30 6865 C 672.142 2.48662 -3.44169 0
M  V30 6866 O 673.166 2.03081 -2.92637 0
M  V30 6867 O 672.025 3.31894 -4.34176 0
M  V30 6868 H 669.119 0.530023 -0.634827 0
M  V30 6869 H 671.665 0.40613 -1.64769 0
M  V30 6870 H 670.437 1.25564 -3.70607 0
M  V30 6871 H 670.06 2.75257 -2.86913 0
M  V30 6872 N 671.057 1.43213 0.657864 0
M  V30 6873 C 671.989 1.43974 1.78337 0
M  V30 6874 C 673.002 0.336482 1.59285 0
M  V30 6875 O 674.191 0.600631 1.68091 0
M  V30 6876 C 671.291 1.23242 3.15697 0
M  V30 6877 C 670.464 2.46319 3.61449 0
M  V30 6878 C 669.523 2.2088 4.77597 0
M  V30 6879 O 668.549 2.942 4.87273 0
M  V30 6880 N 669.751 1.22251 5.67481 0
M  V30 6881 H 672.516 2.40993 1.78164 0
M  V30 6882 H 670.077 1.3831 0.841549 0
M  V30 6883 H 672.069 1.04113 3.91079 0
M  V30 6884 H 670.639 0.346849 3.1067 0
M  V30 6885 H 669.859 2.80904 2.76563 0
M  V30 6886 H 671.147 3.28239 3.88763 0
M  V30 6887 H 670.545 0.616433 5.62331 0
M  V30 6888 H 669.102 1.09107 6.42603 0
M  V30 6889 N 672.536 -0.895792 1.29666 0
M  V30 6890 C 673.952 -1.17726 1.07763 0
M  V30 6891 C 674.152 -2.00794 -0.168576 0
M  V30 6892 O 673.208 -2.37213 -0.865244 0
M  V30 6893 C 674.521 -1.89441 2.33522 0
M  V30 6894 C 676.069 -2.02251 2.3888 0
M  V30 6895 C 676.544 -2.77378 3.64452 0
M  V30 6896 N 678.035 -2.8493 3.65198 0
M  V30 6897 C 678.77 -3.43606 4.59045 0
M  V30 6898 N 678.266 -4.03417 5.63228 0
M  V30 6899 N 680.059 -3.41317 4.46608 0
M  V30 6900 H 672.21 -0.341652 2.09634 0
M  V30 6901 H 674.473 -0.213865 0.923561 0
M  V30 6902 H 674.179 -1.35842 3.24407 0
M  V30 6903 H 674.053 -2.89893 2.41334 0
M  V30 6904 H 676.44 -2.55025 1.4848 0
M  V30 6905 H 676.521 -1.0092 2.3505 0
M  V30 6906 H 676.165 -2.25279 4.55205 0
M  V30 6907 H 676.095 -3.79062 3.65541 0
M  V30 6908 H 678.586 -2.42453 2.89871 0
M  V30 6909 H 678.899 -4.46224 6.30955 0
M  V30 6910 H 677.244 -4.01868 5.67033 0
M  V30 6911 H 680.435 -2.93812 3.64407 0
M  V30 6912 H 680.608 -3.86751 5.1993 0
M  V30 6913 N 674.014 -1.12206 -1.10668 0
M  V30 6914 C 674.962 -0.782918 -2.19028 0
M  V30 6915 C 675.956 0.229175 -1.67843 0
M  V30 6916 O 677.162 0.0876295 -1.79787 0
M  V30 6917 H 673.537 -0.235339 -0.714227 0
M  V30 6918 H 675.508 -1.70527 -2.44874 0
M  V30 6919 C 674.257 -0.25116 -3.46792 0
M  V30 6920 H 673.58 -1.02123 -3.86537 0
M  V30 6921 H 675.02 -0.0521409 -4.23968 0
M  V30 6922 C 673.479 1.02037 -3.21076 0
M  V30 6923 O 674.009 2.09862 -3.42522 0
M  V30 6924 N 672.215 0.946348 -2.74759 0
M  V30 6925 H 671.762 0.068777 -2.57508 0
M  V30 6926 H 671.72 1.79775 -2.57931 0
M  V30 6927 N 675.492 1.28418 -0.913599 0
M  V30 6928 C 676.908 1.47411 -0.611728 0
M  V30 6929 C 677.108 1.83018 0.843008 0
M  V30 6930 O 676.164 1.93505 1.6221 0
M  V30 6931 C 677.477 2.57703 -1.5495 0
M  V30 6932 C 679.025 2.71572 -1.5562 0
M  V30 6933 C 679.5 3.85008 -2.48058 0
M  V30 6934 N 680.991 3.92361 -2.46184 0
M  V30 6935 C 681.726 4.79516 -3.14407 0
M  V30 6936 N 681.222 5.71262 -3.91958 0
M  V30 6937 N 683.015 4.73125 -3.03495 0
M  V30 6938 H 675.166 1.03585 -1.85429 0
M  V30 6939 H 677.429 0.515907 -0.795326 0
M  V30 6940 H 677.135 2.38298 -2.58663 0
M  V30 6941 H 677.009 3.54801 -1.28048 0
M  V30 6942 H 679.396 2.90366 -0.526441 0
M  V30 6943 H 679.477 1.75006 -1.86565 0
M  V30 6944 H 679.121 3.66969 -3.51136 0
M  V30 6945 H 679.051 4.80971 -2.14416 0
M  V30 6946 H 681.542 3.26749 -1.89851 0
M  V30 6947 H 681.855 6.34593 -4.41034 0
M  V30 6948 H 680.2 5.71103 -3.96063 0
M  V30 6949 H 683.391 4.00442 -2.42413 0
M  V30 6950 H 683.564 5.40834 -3.56935 0
M  V30 6951 N 676.97 0.677563 1.42291 0
M  V30 6952 C 678.386 0.347376 1.55774 0
M  V30 6953 C 678.586 -1.14703 1.65667 0
M  V30 6954 O 677.642 -1.93252 1.62512 0
M  V30 6955 C 678.955 1.08011 2.80631 0
M  V30 6956 C 680.503 1.06271 2.94407 0
M  V30 6957 C 680.978 1.77683 4.22129 0
M  V30 6958 N 682.469 1.74564 4.29047 0
M  V30 6959 C 683.204 2.26673 5.26694 0
M  V30 6960 N 682.7 2.87176 6.30477 0
M  V30 6961 N 684.493 2.17032 5.18511 0
M  V30 6962 H 676.644 1.64703 1.34114 0
M  V30 6963 H 678.907 0.694038 0.645768 0
M  V30 6964 H 678.613 2.13518 2.79469 0
M  V30 6965 H 678.487 0.647115 3.71608 0
M  V30 6966 H 680.874 0.0159658 2.95096 0
M  V30 6967 H 680.955 1.53461 2.04654 0
M  V30 6968 H 680.599 2.82327 4.22201 0
M  V30 6969 H 680.529 1.2794 5.10822 0
M  V30 6970 H 683.02 1.30436 3.54676 0
M  V30 6971 H 683.333 3.24551 7.01346 0
M  V30 6972 H 681.678 2.91247 6.31031 0
M  V30 6973 H 684.869 1.69451 4.36353 0
M  V30 6974 H 685.042 2.57948 5.94446 0
M  V30 6975 N 678.448 -1.51871 0.421078 0
M  V30 6976 C 679.697 -2.01125 -0.152206 0
M  V30 6977 C 680.01 -1.3106 -1.45199 0
M  V30 6978 O 681.216 -1.71195 -2.10724 0
M  V30 6979 C 679.672 -3.58458 -0.3218 0
M  V30 6980 C 679.28 -4.37448 0.96659 0
M  V30 6981 C 681.024 -4.15908 -0.84973 0
M  V30 6982 C 678.931 -5.86451 0.763529 0
M  V30 6983 H 677.861 -0.751556 -0.0606565 0
M  V30 6984 H 680.512 -1.75115 0.548354 0
M  V30 6985 H 678.894 -3.80847 -1.08498 0
M  V30 6986 H 680.068 -4.26814 1.73684 0
M  V30 6987 H 678.383 -3.91373 1.42183 0
M  V30 6988 H 680.98 -5.24922 -1.01788 0
M  V30 6989 H 681.323 -3.74031 -1.82774 0
M  V30 6990 H 681.856 -3.97535 -0.145297 0
M  V30 6991 H 678.595 -6.3271 1.71344 0
M  V30 6992 H 678.115 -5.99791 0.0327889 0
M  V30 6993 H 679.794 -6.45697 0.410354 0
M  V30 6994 N 679.926 -0.151884 -1.56866 0
M  V30 6995 C 681.337 0.368128 -1.83035 0
M  V30 6996 C 681.688 1.64402 -1.07082 0
M  V30 6997 O 680.813 2.14056 -0.317647 0
M  V30 6998 C 681.408 0.674676 -3.32014 0
M  V30 6999 C 679.967 1.13919 -3.58747 0
M  V30 7000 C 679.114 0.164833 -2.7681 0
M  V30 7001 H 682.065 -0.376499 -1.54169 0
M  V30 7002 H 682.086 1.52883 -3.48435 0
M  V30 7003 H 681.598 -0.254113 -3.87267 0
M  V30 7004 H 679.699 2.08375 -3.08886 0
M  V30 7005 H 679.812 1.06179 -4.67186 0
M  V30 7006 H 678.176 0.658419 -2.46043 0
M  V30 7007 H 678.959 -0.757633 -3.34836 0
M  V30 7008 N 681.404 1.57128 0.121893 0
M  V30 7009 C 682.334 2.03165 1.15092 0
M  V30 7010 C 683.315 0.915587 1.43356 0
M  V30 7011 O 684.5 1.1851 1.53847 0
M  V30 7012 C 681.63 2.43352 2.47784 0
M  V30 7013 C 680.584 3.58376 2.33989 0
M  V30 7014 C 679.91 3.84454 3.71617 0
M  V30 7015 C 681.21 4.90199 1.80283 0
M  V30 7016 H 682.904 2.89382 0.768023 0
M  V30 7017 H 680.45 1.39218 0.367998 0
M  V30 7018 H 682.403 2.74163 3.20019 0
M  V30 7019 H 681.127 1.54103 2.87958 0
M  V30 7020 H 679.786 3.2777 1.64202 0
M  V30 7021 H 679.434 2.92414 4.09271 0
M  V30 7022 H 679.134 4.61877 3.6324 0
M  V30 7023 H 680.658 4.17714 4.45362 0
M  V30 7024 H 682.072 5.19565 2.42333 0
M  V30 7025 H 680.469 5.71601 1.82735 0
M  V30 7026 H 681.539 4.78904 0.760184 0
M  V30 7027 N 682.882 -0.391992 1.52647 0
M  V30 7028 C 684.128 -1.139 1.67793 0
M  V30 7029 C 684.461 -1.89711 0.41514 0
M  V30 7030 O 683.736 -1.85431 -0.586979 0
M  V30 7031 C 684.019 -2.11966 2.91105 0
M  V30 7032 C 683.872 -1.39939 4.27478 0
M  V30 7033 C 685.191 -3.1243 3.09961 0
M  V30 7034 H 682.31 -0.412707 0.610608 0
M  V30 7035 H 684.952 -0.422725 1.85238 0
M  V30 7036 H 683.102 -2.73048 2.76364 0
M  V30 7037 H 684.774 -0.818439 4.53982 0
M  V30 7038 H 683.017 -0.701246 4.28095 0
M  V30 7039 H 683.688 -2.1158 5.09841 0
M  V30 7040 H 686.164 -2.61435 3.23714 0
M  V30 7041 H 685.04 -3.78294 3.97725 0
M  V30 7042 H 685.301 -3.81127 2.24042 0
M  V30 7043 N 684.36 -1.4356 -0.65026 0
M  V30 7044 C 685.776 -1.27025 -0.966269 0
M  V30 7045 C 685.976 -0.192117 -2.00582 0
M  V30 7046 O 685.032 0.428459 -2.48838 0
M  V30 7047 C 686.345 -2.63556 -1.44772 0
M  V30 7048 C 687.893 -2.71111 -1.56421 0
M  V30 7049 C 688.368 -4.08067 -2.07956 0
M  V30 7050 N 689.859 -4.10146 -2.15254 0
M  V30 7051 C 690.594 -5.12952 -2.56258 0
M  V30 7052 N 690.09 -6.26129 -2.96537 0
M  V30 7053 N 691.883 -5.00306 -2.56224 0
M  V30 7054 H 684.034 -2.12367 0.0375758 0
M  V30 7055 H 686.297 -0.946894 -0.0457782 0
M  V30 7056 H 686.003 -3.43429 -0.758271 0
M  V30 7057 H 685.877 -2.89152 -2.42221 0
M  V30 7058 H 688.264 -1.91569 -2.24467 0
M  V30 7059 H 688.345 -2.49277 -0.573967 0
M  V30 7060 H 687.989 -4.88077 -1.40511 0
M  V30 7061 H 687.919 -4.27266 -3.07817 0
M  V30 7062 H 690.41 -3.28453 -1.86887 0
M  V30 7063 H 690.723 -7.00403 -3.26582 0
M  V30 7064 H 689.068 -6.29597 -2.94334 0
M  V30 7065 H 692.259 -4.10952 -2.24135 0
M  V30 7066 H 692.432 -5.80553 -2.87857 0
M  V30 7067 N 685.838 0.888903 -1.30139 0
M  V30 7068 C 687.085 1.64037 -1.18736 0
M  V30 7069 C 687.413 1.92771 0.258801 0
M  V30 7070 O 686.668 1.54427 1.20212 0
M  V30 7071 C 686.967 2.99041 -1.95728 0
M  V30 7072 C 686.633 2.89874 -3.45375 0
M  V30 7073 C 685.295 2.87082 -3.86183 0
M  V30 7074 C 687.647 2.78289 -4.40687 0
M  V30 7075 C 684.975 2.70536 -5.20603 0
M  V30 7076 C 687.327 2.63282 -5.75209 0
M  V30 7077 C 685.991 2.58861 -6.15262 0
M  V30 7078 H 685.261 0.600253 -0.434485 0
M  V30 7079 H 687.908 1.0338 -1.61198 0
M  V30 7080 H 686.213 3.63626 -1.45888 0
M  V30 7081 H 687.91 3.56139 -1.843 0
M  V30 7082 H 684.5 2.92856 -3.12943 0
M  V30 7083 H 688.684 2.79516 -4.10103 0
M  V30 7084 H 683.94 2.65526 -5.50732 0
M  V30 7085 H 688.114 2.5329 -6.48704 0
M  V30 7086 H 685.741 2.45799 -7.19366 0
M  V30 7087 N 687.317 1.12792 1.10072 0
M  V30 7088 C 688.227 0.812369 2.20086 0
M  V30 7089 C 689.243 -0.200349 1.72843 0
M  V30 7090 O 690.419 -0.0330262 2.01373 0
M  V30 7091 C 687.484 0.275685 3.45602 0
M  V30 7092 C 686.545 1.34881 4.07561 0
M  V30 7093 C 685.778 0.837639 5.27086 0
M  V30 7094 O 686.001 -0.327224 5.69461 0
M  V30 7095 O 684.935 1.60894 5.79997 0
M  V30 7096 H 688.761 1.73133 2.49517 0
M  V30 7097 H 686.346 0.904863 1.18881 0
M  V30 7098 H 688.228 -0.0185375 4.21396 0
M  V30 7099 H 686.903 -0.615783 3.17789 0
M  V30 7100 H 685.81 1.69625 3.33434 0
M  V30 7101 H 687.143 2.21418 4.39585 0
M  V30 7102 N 688.795 -1.27931 0.920396 0
M  V30 7103 C 690.02 -1.99343 0.572478 0
M  V30 7104 C 690.445 -1.68267 -0.840696 0
M  V30 7105 O 689.803 -0.918805 -1.56294 0
M  V30 7106 C 689.851 -3.51698 0.796284 0
M  V30 7107 O 688.955 -4.12157 -0.141602 0
M  V30 7108 H 688.296 -0.626065 0.221221 0
M  V30 7109 H 690.826 -1.62921 1.23765 0
M  V30 7110 H 690.836 -4.01793 0.708984 0
M  V30 7111 H 689.511 -3.73649 1.82644 0
M  V30 7112 H 688.088 -3.729 -0.005007 0
M  V30 7113 N 690.273 -0.685099 -1.4193 0
M  V30 7114 C 691.689 -0.355632 -1.55587 0
M  V30 7115 C 691.889 1.13823 -1.66273 0
M  V30 7116 O 690.945 1.92387 -1.63534 0
M  V30 7117 C 692.258 -1.09498 -2.80055 0
M  V30 7118 C 693.806 -1.07831 -2.93839 0
M  V30 7119 C 694.281 -1.79919 -4.21181 0
M  V30 7120 N 695.772 -1.76837 -4.28115 0
M  V30 7121 C 696.507 -2.29463 -5.25485 0
M  V30 7122 N 696.003 -2.90516 -6.28945 0
M  V30 7123 N 697.796 -2.19779 -5.17353 0
M  V30 7124 H 689.947 -1.65412 -1.33239 0
M  V30 7125 H 692.21 -0.697453 -0.642078 0
M  V30 7126 H 691.916 -2.14997 -2.78333 0
M  V30 7127 H 691.79 -0.666813 -3.71259 0
M  V30 7128 H 694.177 -0.0316152 -2.95083 0
M  V30 7129 H 694.258 -1.54545 -2.03837 0
M  V30 7130 H 693.902 -2.84562 -4.20698 0
M  V30 7131 H 693.832 -1.30647 -5.10136 0
M  V30 7132 H 696.323 -1.32315 -3.53979 0
M  V30 7133 H 696.636 -3.28266 -6.99615 0
M  V30 7134 H 694.981 -2.94589 -6.29478 0
M  V30 7135 H 698.172 -1.71763 -4.35448 0
M  V30 7136 H 698.345 -2.61097 -5.9307 0
M  V30 7137 N 691.751 1.51645 -0.429126 0
M  V30 7138 C 692.681 2.30434 0.377148 0
M  V30 7139 C 693.662 1.35493 1.02838 0
M  V30 7140 O 694.847 1.6441 1.03359 0
M  V30 7141 C 691.977 3.14038 1.48315 0
M  V30 7142 C 690.931 4.1719 0.955855 0
M  V30 7143 C 690.257 4.89263 2.15698 0
M  V30 7144 C 691.557 5.223 -0.00402136 0
M  V30 7145 H 693.251 2.98085 -0.280336 0
M  V30 7146 H 690.797 1.43354 -0.136265 0
M  V30 7147 H 692.75 3.67933 2.05435 0
M  V30 7148 H 691.474 2.44193 2.16881 0
M  V30 7149 H 690.133 3.64335 0.406929 0
M  V30 7150 H 689.781 4.15929 2.82864 0
M  V30 7151 H 689.481 5.59009 1.81059 0
M  V30 7152 H 691.005 5.45978 2.73387 0
M  V30 7153 H 692.419 5.71315 0.476607 0
M  V30 7154 H 690.816 5.99525 -0.26258 0
M  V30 7155 H 691.886 4.75638 -0.943236 0
M  V30 7156 N 693.229 0.160201 1.56784 0
M  V30 7157 C 694.459 -0.493449 2.00621 0
M  V30 7158 C 694.867 -1.5809 1.03943 0
M  V30 7159 O 694.21 -1.83675 0.0305343 0
M  V30 7160 C 694.272 -1.14169 3.4089 0
M  V30 7161 C 693.936 -0.197243 4.56574 0
M  V30 7162 C 694.933 0.580174 5.16653 0
M  V30 7163 C 692.618 -0.0963038 5.02208 0
M  V30 7164 C 694.612 1.44584 6.20785 0
M  V30 7165 C 692.299 0.772959 6.06192 0
M  V30 7166 C 693.297 1.54263 6.65351 0
M  V30 7167 O 692.985 2.39738 7.67321 0
M  V30 7168 H 692.717 -0.131764 0.663034 0
M  V30 7169 H 695.271 0.255728 2.03802 0
M  V30 7170 H 693.501 -1.93877 3.34587 0
M  V30 7171 H 695.19 -1.69641 3.6875 0
M  V30 7172 H 695.956 0.5123 4.82287 0
M  V30 7173 H 691.835 -0.685143 4.5588 0
M  V30 7174 H 695.379 2.04706 6.66889 0
M  V30 7175 H 691.276 0.842077 6.39984 0
M  V30 7176 H 692.044 2.33131 7.84597 0
M  V30 7177 N 694.707 -1.5719 -0.113559 0
M  V30 7178 C 695.654 -2.00736 -1.13901 0
M  V30 7179 C 696.624 -0.88044 -1.40846 0
M  V30 7180 O 697.809 -1.14507 -1.5262 0
M  V30 7181 C 694.949 -2.42132 -2.45899 0
M  V30 7182 C 694.062 -3.68264 -2.25844 0
M  V30 7183 C 693.197 -3.98617 -3.5111 0
M  V30 7184 C 692.236 -5.17915 -3.26236 0
M  V30 7185 N 691.373 -5.44111 -4.4372 0
M  V30 7186 H 696.213 -2.88128 -0.760677 0
M  V30 7187 H 693.75 -1.42523 -0.364099 0
M  V30 7188 H 695.708 -2.6417 -3.22908 0
M  V30 7189 H 694.338 -1.57775 -2.81615 0
M  V30 7190 H 693.39 -3.53809 -1.39726 0
M  V30 7191 H 694.702 -4.55425 -2.03444 0
M  V30 7192 H 693.856 -4.21333 -4.36536 0
M  V30 7193 H 692.595 -3.09942 -3.76546 0
M  V30 7194 H 691.6 -4.95038 -2.39202 0
M  V30 7195 H 692.825 -6.08172 -3.02165 0
M  V30 7196 H 690.771 -4.58394 -4.69266 0
M  V30 7197 H 690.688 -6.25606 -4.24444 0
M  V30 7198 H 691.956 -5.71351 -5.30263 0
M  V30 7199 N 696.185 0.383891 -1.52853 0
M  V30 7200 C 697.462 1.14296 -1.58732 0
M  V30 7201 C 697.842 2.07585 -0.383611 0
M  V30 7202 O 697.19 2.1971 0.627661 0
M  V30 7203 C 697.4 1.89816 -2.92867 0
M  V30 7204 C 698.748 2.44998 -3.46787 0
M  V30 7205 O 699.772 1.99966 -2.94774 0
M  V30 7206 O 698.631 3.2727 -4.37672 0
M  V30 7207 H 695.725 0.52326 -0.640413 0
M  V30 7208 H 698.271 0.388631 -1.6519 0
M  V30 7209 H 697.043 1.21626 -3.71918 0
M  V30 7210 H 696.666 2.72199 -2.89816 0
M  V30 7211 N 697.663 1.43903 0.642637 0
M  V30 7212 C 698.912 1.45362 1.39831 0
M  V30 7213 C 699.225 0.0856289 1.95412 0
M  V30 7214 O 700.431 -0.0222856 2.71491 0
M  V30 7215 C 698.887 2.55857 2.53111 0
M  V30 7216 C 698.495 3.98811 2.04092 0
M  V30 7217 C 700.239 2.66524 3.30402 0
M  V30 7218 C 698.146 5.00751 3.14647 0
M  V30 7219 H 697.076 0.540777 0.52543 0
M  V30 7220 H 699.727 1.69929 0.692559 0
M  V30 7221 H 698.109 2.2451 3.26207 0
M  V30 7222 H 699.283 4.3967 1.37938 0
M  V30 7223 H 697.598 3.92284 1.39651 0
M  V30 7224 H 700.195 3.39858 4.12796 0
M  V30 7225 H 700.538 1.71949 3.79129 0
M  V30 7226 H 701.071 2.97224 2.64392 0
M  V30 7227 H 697.81 5.96914 2.70876 0
M  V30 7228 H 697.33 4.64495 3.79479 0
M  V30 7229 H 699.009 5.23933 3.79609 0
M  V30 7230 N 699.141 -0.881989 1.30609 0
M  V30 7231 C 700.371 -1.66469 1.22359 0
M  V30 7232 C 700.779 -1.87969 -0.215507 0
M  V30 7233 O 700.122 -1.42938 -1.15388 0
M  V30 7234 C 700.184 -3.06135 1.88472 0
M  V30 7235 C 699.848 -3.07795 3.37804 0
M  V30 7236 C 700.845 -2.86633 4.33749 0
M  V30 7237 C 698.53 -3.29297 3.793 0
M  V30 7238 C 700.524 -2.86934 5.69164 0
M  V30 7239 C 698.211 -3.29228 5.14832 0
M  V30 7240 C 699.209 -3.08071 6.09574 0
M  V30 7241 O 698.897 -3.07824 7.4263 0
M  V30 7242 H 698.629 -0.526129 0.424458 0
M  V30 7243 H 701.183 -1.11004 1.72821 0
M  V30 7244 H 699.413 -3.63276 1.32543 0
M  V30 7245 H 701.102 -3.66571 1.74301 0
M  V30 7246 H 701.868 -2.69814 4.0302 0
M  V30 7247 H 697.747 -3.44799 3.05998 0
M  V30 7248 H 701.291 -2.70339 6.43088 0
M  V30 7249 H 697.188 -3.45583 5.452 0
M  V30 7250 H 697.956 -3.2397 7.51656 0
M  V30 7251 N 700.619 -1.13374 -1.09472 0
M  V30 7252 C 701.551 -0.768466 -2.15933 0
M  V30 7253 C 702.564 0.209585 -1.61445 0
M  V30 7254 O 703.753 -0.010539 -1.78497 0
M  V30 7255 C 700.853 -0.118266 -3.38694 0
M  V30 7256 C 700.026 -1.12829 -4.22597 0
M  V30 7257 C 699.085 -0.503875 -5.23782 0
M  V30 7258 O 698.111 -1.16374 -5.57177 0
M  V30 7259 N 699.313 0.724288 -5.75964 0
M  V30 7260 H 702.078 -1.68457 -2.47876 0
M  V30 7261 H 699.639 -1.02668 -1.25183 0
M  V30 7262 H 701.631 0.311698 -4.03498 0
M  V30 7263 H 700.201 0.700769 -3.04644 0
M  V30 7264 H 699.421 -1.73556 -3.53938 0
M  V30 7265 H 700.709 -1.81095 -4.75481 0
M  V30 7266 H 700.107 1.27918 -5.51048 0
M  V30 7267 H 698.664 1.09692 -6.42504 0
M  V30 7268 N 702.098 1.27442 -0.927168 0
M  V30 7269 C 703.046 2.28844 -0.416333 0
M  V30 7270 C 704.04 1.61882 0.499057 0
M  V30 7271 O 705.246 1.75969 0.378817 0
M  V30 7272 H 701.621 0.742989 -0.116065 0
M  V30 7273 H 703.592 2.69344 -1.28438 0
M  V30 7274 C 702.341 3.4626 0.316107 0
M  V30 7275 H 701.664 3.97999 -0.379082 0
M  V30 7276 H 703.104 4.19173 0.637975 0
M  V30 7277 C 701.563 3.00211 1.5289 0
M  V30 7278 O 702.093 3.03837 2.62766 0
M  V30 7279 N 700.299 2.55713 1.38054 0
M  V30 7280 H 699.846 2.52962 0.4866 0
M  V30 7281 H 699.804 2.25264 2.19325 0
M  V30 7282 N 703.576 0.692616 1.41565 0
M  V30 7283 C 704.524 0.0139952 2.32596 0
M  V30 7284 C 705.518 -0.771691 1.50802 0
M  V30 7285 O 706.724 -0.677646 1.66757 0
M  V30 7286 H 703.099 -0.0142745 0.751865 0
M  V30 7287 H 705.07 0.798851 2.87508 0
M  V30 7288 C 703.819 -0.910602 3.35564 0
M  V30 7289 H 703.142 -0.315446 3.98554 0
M  V30 7290 H 704.582 -1.3538 4.01806 0
M  V30 7291 C 703.041 -2.02539 2.6922 0
M  V30 7292 O 703.571 -3.11386 2.53775 0
M  V30 7293 N 701.777 -1.80227 2.27962 0
M  V30 7294 H 701.324 -0.917054 2.40724 0
M  V30 7295 H 701.282 -2.55001 1.83907 0
M  V30 7296 O 705.093 -1.50756 0.579208 0
M  V30 7297 H 705.784 -1.93523 0.0829038 0
M  V30 END ATOM
M  V30 BEGIN BOND
M  V30 END BOND
M  V30 END CTAB
M  END
$$$$
