drugbank_target|C6KTA4 Pyruvate kinase (DB11638)
 OpenBabel12092121103D

  0  0  0     0  0            999 V3000
M  V30 BEGIN CTAB
M  V30 COUNTS 7927 7975 0 0 0
M  V30 BEGIN ATOM
M  V30 1 H -0.908 1.98254 -0.117106 0
M  V30 2 N 0 1.576 0 0
M  V30 3 C 0.933 2.03868 1.02534 0
M  V30 4 C 1.911 0.928543 1.3348 0
M  V30 5 O 3.095 1.19667 1.45644 0
M  V30 6 C 0.222 2.43627 2.35294 0
M  V30 7 C -0.732 3.65373 2.2001 0
M  V30 8 S 0.101 5.13292 1.52614 0
M  V30 9 C 1.257 5.56322 2.86805 0
M  V30 10 H 1.49 2.90518 0.631377 0
M  V30 11 H -0.977 1.52953 0.210867 0
M  V30 12 H 0.981 2.67203 3.11629 0
M  V30 13 H -0.358 1.57376 2.7183 0
M  V30 14 H -1.165 3.90944 3.18086 0
M  V30 15 H -1.563 3.418 1.51819 0
M  V30 16 H 0.729 5.58782 3.83104 0
M  V30 17 H 1.672 6.56266 2.65933 0
M  V30 18 H 2.08 4.83886 2.90714 0
M  V30 19 N 1.4781 -0.272755 1.55222 0
M  V30 20 C 2.7031 -1.02683 1.80197 0
M  V30 21 C 3.1281 -1.79142 0.573551 0
M  V30 22 O 2.4861 -1.74917 -0.476849 0
M  V30 23 C 2.5341 -1.9609 3.02624 0
M  V30 24 O 1.6381 -3.04863 2.77727 0
M  V30 25 H 0.9791 -0.293557 0.595584 0
M  V30 26 H 3.5091 -0.30159 2.02365 0
M  V30 27 H 3.5191 -2.38039 3.31363 0
M  V30 28 H 2.1941 -1.39851 3.91682 0
M  V30 29 H 0.7711 -2.67228 2.60084 0
M  V30 30 N 2.9562 -1.48159 -0.537278 0
M  V30 31 C 4.1812 -1.59707 -1.32319 0
M  V30 32 C 4.6062 -0.254859 -1.86365 0
M  V30 33 O 3.9642 0.772378 -1.64024 0
M  V30 34 C 4.0122 -2.6412 -2.45505 0
M  V30 35 O 3.1162 -2.20774 -3.48328 0
M  V30 36 H 2.4572 -0.535791 -0.392204 0
M  V30 37 H 4.9872 -1.94092 -0.647268 0
M  V30 38 H 4.9972 -2.85166 -2.91795 0
M  V30 39 H 3.6722 -3.61567 -2.05528 0
M  V30 40 H 2.2492 -2.09911 -3.08207 0
M  V30 41 N 4.4343 0.785586 -1.36625 0
M  V30 42 C 5.6813 1.54362 -1.31067 0
M  V30 43 C 6.0093 1.94195 0.10893 0
M  V30 44 O 5.2643 1.63262 1.07908 0
M  V30 45 C 5.5633 2.83007 -2.1827 0
M  V30 46 C 5.2293 2.62294 -3.6676 0
M  V30 47 C 3.8913 2.56353 -4.0723 0
M  V30 48 C 6.2433 2.43371 -4.6089 0
M  V30 49 C 3.5713 2.29461 -5.39967 0
M  V30 50 C 5.9233 2.18005 -5.93849 0
M  V30 51 C 4.5873 2.105 -6.3344 0
M  V30 52 H 3.8573 0.564851 -0.479609 0
M  V30 53 H 6.5043 0.906028 -1.68711 0
M  V30 54 H 4.8093 3.51253 -1.73576 0
M  V30 55 H 6.5063 3.40817 -2.11292 0
M  V30 56 H 3.0963 2.67774 -3.34656 0
M  V30 57 H 7.2803 2.46959 -4.30494 0
M  V30 58 H 2.5363 2.22135 -5.69619 0
M  V30 59 H 6.7103 2.02359 -6.66351 0
M  V30 60 H 4.3373 1.89425 -7.36222 0
M  V30 61 N 5.9124 1.20967 1.01018 0
M  V30 62 C 6.8594 0.964281 2.09691 0
M  V30 63 C 7.8294 -0.107853 1.65749 0
M  V30 64 O 9.0144 0.0381987 1.90762 0
M  V30 65 C 6.1544 0.52943 3.41015 0
M  V30 66 C 5.2674 1.67043 3.98398 0
M  V30 67 C 4.4024 1.18525 5.17808 0
M  V30 68 C 3.4414 2.29892 5.67288 0
M  V30 69 N 2.5784 1.82546 6.77954 0
M  V30 70 H 7.4184 1.89463 2.30017 0
M  V30 71 H 4.9554 0.944289 1.1279 0
M  V30 72 H 6.9134 0.258588 4.16398 0
M  V30 73 H 5.5434 -0.363919 3.20742 0
M  V30 74 H 4.5954 2.05603 3.20049 0
M  V30 75 H 5.9074 2.50877 4.31117 0
M  V30 76 H 5.0614 0.870762 6.00419 0
M  V30 77 H 3.8004 0.316887 4.86669 0
M  V30 78 H 2.8054 2.6215 4.83278 0
M  V30 79 H 4.0304 3.17216 6.00459 0
M  V30 80 H 1.9764 0.980454 6.48632 0
M  V30 81 H 1.8934 2.59956 7.09901 0
M  V30 82 H 3.1614 1.54115 7.64113 0
M  V30 83 N 7.3905 -1.2043 1.01659 0
M  V30 84 C 8.6205 -1.93496 0.724081 0
M  V30 85 C 9.0285 -1.74998 -0.71918 0
M  V30 86 O 8.3715 -1.06118 -1.49949 0
M  V30 87 C 8.4335 -3.45886 0.97994 0
M  V30 88 C 8.0975 -3.88145 2.41232 0
M  V30 89 C 9.0945 -3.93907 3.39313 0
M  V30 90 C 6.7795 -4.20134 2.75305 0
M  V30 91 C 8.7735 -4.31069 4.6953 0
M  V30 92 C 6.4605 -4.56971 4.05735 0
M  V30 93 C 7.4585 -4.62411 5.02658 0
M  V30 94 O 7.1465 -4.98403 6.30754 0
M  V30 95 H 6.8785 -0.621824 0.265162 0
M  V30 96 H 9.4325 -1.53867 1.36066 0
M  V30 97 H 7.6625 -3.85639 0.286198 0
M  V30 98 H 9.3515 -4.0018 0.679021 0
M  V30 99 H 10.1175 -3.69357 3.14325 0
M  V30 100 H 5.9965 -4.1509 2.00551 0
M  V30 101 H 9.5405 -4.3523 5.45179 0
M  V30 102 H 5.4375 -4.80977 4.30502 0
M  V30 103 H 6.2055 -5.16395 6.35042 0
M  V30 104 N 8.8686 -0.792821 -1.36206 0
M  V30 105 C 9.8156 -0.191653 -2.30003 0
M  V30 106 C 10.7856 0.666453 -1.52143 0
M  V30 107 O 11.9706 0.61442 -1.80636 0
M  V30 108 C 9.1106 0.664848 -3.38635 0
M  V30 109 C 8.2236 -0.212175 -4.31479 0
M  V30 110 C 7.3586 0.651022 -5.27196 0
M  V30 111 C 6.3976 -0.227247 -6.11678 0
M  V30 112 N 5.5346 0.595127 -6.99573 0
M  V30 113 H 10.3746 -0.996978 -2.80828 0
M  V30 114 H 7.9116 -0.503206 -1.38225 0
M  V30 115 H 9.8696 1.17645 -4.00269 0
M  V30 116 H 8.4996 1.43557 -2.89122 0
M  V30 117 H 7.5516 -0.841777 -3.70969 0
M  V30 118 H 8.8636 -0.888751 -4.90818 0
M  V30 119 H 8.0176 1.2283 -5.94136 0
M  V30 120 H 6.7566 1.36121 -4.68319 0
M  V30 121 H 5.7616 -0.816904 -5.43697 0
M  V30 122 H 6.9866 -0.93509 -6.72631 0
M  V30 123 H 4.9326 1.28955 -6.432 0
M  V30 124 H 4.8496 -0.0236952 -7.55996 0
M  V30 125 H 6.1176 1.15613 -7.70879 0
M  V30 126 N 10.3467 1.47872 -0.545128 0
M  V30 127 C 11.2947 2.31533 0.222512 0
M  V30 128 C 12.2887 1.42177 0.920985 0
M  V30 129 O 13.4947 1.59005 0.843645 0
M  V30 130 H 9.8697 0.746519 0.0906278 0
M  V30 131 H 11.8407 2.94139 -0.50246 0
M  V30 132 C 10.5897 3.2457 1.24699 0
M  V30 133 H 9.9127 3.93283 0.718944 0
M  V30 134 H 11.3527 3.85963 1.75523 0
M  V30 135 C 9.8117 2.47237 2.28856 0
M  V30 136 O 10.3417 2.20808 3.35569 0
M  V30 137 N 8.5477 2.08461 2.02466 0
M  V30 138 H 8.0947 2.30155 1.157 0
M  V30 139 H 8.0527 1.57033 2.72375 0
M  V30 140 N 11.8248 0.280983 1.55075 0
M  V30 141 C 13.0498 -0.340154 2.04592 0
M  V30 142 C 13.4748 -1.48246 1.15779 0
M  V30 143 O 12.8328 -1.80614 0.15761 0
M  V30 144 C 12.8808 -0.793104 3.5177 0
M  V30 145 O 11.9848 -1.89981 3.66034 0
M  V30 146 H 11.3258 -0.0694289 0.66036 0
M  V30 147 H 13.8558 0.416993 2.00306 0
M  V30 148 H 13.8658 -1.08729 3.93245 0
M  V30 149 H 12.5408 0.0426163 4.15878 0
M  V30 150 H 11.1178 -1.60771 3.36463 0
M  V30 151 N 13.3029 -1.57598 0.00835791 0
M  V30 152 C 14.2659 -2.07884 -0.965242 0
M  V30 153 C 15.2659 -0.989825 -1.26725 0
M  V30 154 O 16.4559 -1.25218 -1.21104 0
M  V30 155 C 13.5879 -2.52731 -2.28779 0
M  V30 156 H 14.7809 -2.95178 -0.530112 0
M  V30 157 H 12.3339 -1.54458 -0.239283 0
M  V30 158 H 13.0689 -1.68705 -2.76964 0
M  V30 159 H 12.8539 -3.32272 -2.08177 0
M  V30 160 H 14.3439 -2.91933 -2.98605 0
M  V30 161 N 14.781 0.264519 -1.55364 0
M  V30 162 C 15.744 1.31046 -1.88042 0
M  V30 163 C 16.744 1.41943 -0.755569 0
M  V30 164 O 17.934 1.40947 -1.02369 0
M  V30 165 C 15.066 2.69067 -2.09323 0
M  V30 166 H 16.259 1.03297 -2.81549 0
M  V30 167 H 13.812 0.502989 -1.47986 0
M  V30 168 H 14.547 3.01982 -1.18226 0
M  V30 169 H 14.332 2.62542 -2.91229 0
M  V30 170 H 15.822 3.44623 -2.35848 0
M  V30 171 N 16.2591 1.48442 0.529413 0
M  V30 172 C 17.5071 1.56179 1.28267 0
M  V30 173 C 17.8281 0.237721 1.93546 0
M  V30 174 O 17.0981 -0.740779 1.81354 0
M  V30 175 H 15.6781 0.575367 0.476405 0
M  V30 176 H 18.3401 1.84909 0.61602 0
M  V30 177 H 17.4361 2.34312 2.06165 0
M  V30 178 N 17.7372 -0.778329 1.37039 0
M  V30 179 C 18.7002 -1.87301 1.32102 0
M  V30 180 C 19.7002 -1.59198 0.226405 0
M  V30 181 O 20.8902 -1.67403 0.481861 0
M  V30 182 C 18.0222 -3.24309 1.05055 0
M  V30 183 H 19.2152 -1.93093 2.29467 0
M  V30 184 H 16.7682 -0.977358 1.21973 0
M  V30 185 H 17.5032 -3.24196 0.0819373 0
M  V30 186 H 17.2882 -3.46098 1.84279 0
M  V30 187 H 18.7782 -4.04382 1.04234 0
M  V30 188 N 19.2153 -1.21501 -1.00376 0
M  V30 189 C 20.4403 -1.05977 -1.78279 0
M  V30 190 C 20.8653 0.385994 -1.84097 0
M  V30 191 O 20.2233 1.27849 -1.28547 0
M  V30 192 C 20.2713 -1.66302 -3.19963 0
M  V30 193 O 19.3753 -0.909333 -4.0225 0
M  V30 194 H 18.7163 -0.372906 -0.549397 0
M  V30 195 H 21.2463 -1.6107 -1.26165 0
M  V30 196 H 21.2563 -1.70574 -3.70632 0
M  V30 197 H 19.9313 -2.71515 -3.15043 0
M  V30 198 H 18.5083 -0.941795 -3.60811 0
M  V30 199 N 20.6934 1.19889 -1.02296 0
M  V30 200 C 21.6264 2.21639 -0.543282 0
M  V30 201 C 22.6044 1.57275 0.412698 0
M  V30 202 O 23.7884 1.85568 0.331198 0
M  V30 203 C 20.9154 3.38057 0.208571 0
M  V30 204 C 19.9614 4.20751 -0.697933 0
M  V30 205 S 20.7944 4.89529 -2.17075 0
M  V30 206 C 21.9504 6.09363 -1.42923 0
M  V30 207 H 22.1834 2.61984 -1.40541 0
M  V30 208 H 19.7164 1.30041 -0.832387 0
M  V30 209 H 21.6744 4.05539 0.63624 0
M  V30 210 H 20.3354 2.96159 1.04635 0
M  V30 211 H 19.5284 5.03862 -0.117831 0
M  V30 212 H 19.1304 3.58556 -1.06366 0
M  V30 213 H 21.4224 6.73742 -0.712637 0
M  V30 214 H 22.3654 6.71845 -2.23673 0
M  V30 215 H 22.7734 5.56798 -0.929327 0
M  V30 216 N 22.1715 0.800033 1.35784 0
M  V30 217 C 23.1035 0.163596 2.28615 0
M  V30 218 C 24.1165 -0.633317 1.49976 0
M  V30 219 O 25.3055 -0.466754 1.72289 0
M  V30 220 C 22.4055 -0.790958 3.29541 0
M  V30 221 C 21.5785 -0.0418255 4.3738 0
M  V30 222 C 20.6375 -0.91389 5.18203 0
M  V30 223 O 19.6635 -0.367234 5.68014 0
M  V30 224 N 20.8655 -2.23682 5.35674 0
M  V30 225 H 23.6305 0.96105 2.83873 0
M  V30 226 H 21.1915 0.654894 1.48063 0
M  V30 227 H 23.1835 -1.37844 3.80501 0
M  V30 228 H 21.7535 -1.48925 2.74846 0
M  V30 229 H 20.9735 0.726813 3.87442 0
M  V30 230 H 22.2615 0.474719 5.06581 0
M  V30 231 H 21.6595 -2.70497 4.96838 0
M  V30 232 H 20.2165 -2.77369 5.89839 0
M  V30 233 N 23.6496 -1.47581 0.552962 0
M  V30 234 C 24.8746 -2.07378 0.0300593 0
M  V30 235 C 25.2996 -1.40355 -1.25229 0
M  V30 236 O 24.6576 -0.477099 -1.7491 0
M  V30 237 C 24.7056 -3.60274 -0.153231 0
M  V30 238 O 23.8096 -3.94041 -1.21678 0
M  V30 239 H 23.1506 -0.662158 0.0494182 0
M  V30 240 H 25.6806 -1.89662 0.767434 0
M  V30 241 H 25.6906 -4.0633 -0.368761 0
M  V30 242 H 24.3656 -4.08455 0.783397 0
M  V30 243 H 22.9426 -3.59735 -0.982079 0
M  V30 244 N 25.1277 -0.289203 -1.54924 0
M  V30 245 C 26.0907 0.579144 -2.21762 0
M  V30 246 C 27.0907 1.07047 -1.1999 0
M  V30 247 O 28.2807 0.968384 -1.44803 0
M  V30 248 C 25.4127 1.80055 -2.8947 0
M  V30 249 H 26.6057 -0.00464908 -2.999 0
M  V30 250 H 24.1587 -0.0399306 -1.56249 0
M  V30 251 H 24.8937 2.42449 -2.15381 0
M  V30 252 H 24.6787 1.45602 -3.64064 0
M  V30 253 H 26.1687 2.41773 -3.40493 0
M  V30 254 N 26.6058 1.57591 -0.0167156 0
M  V30 255 C 27.5688 2.08393 0.954204 0
M  V30 256 C 28.5688 0.996531 1.26198 0
M  V30 257 O 29.7588 1.25858 1.20438 0
M  V30 258 C 26.8908 2.5394 2.27436 0
M  V30 259 H 28.0838 2.95455 0.514451 0
M  V30 260 H 25.6368 1.54582 0.231089 0
M  V30 261 H 26.3718 1.70171 2.76066 0
M  V30 262 H 26.1568 3.33371 2.06412 0
M  V30 263 H 27.6468 2.93512 2.97053 0
M  V30 264 N 28.0839 -0.256276 1.55502 0
M  V30 265 C 29.0319 -1.33694 1.90338 0
M  V30 266 C 30.0259 -1.50299 0.781441 0
M  V30 267 O 31.2319 -1.51885 0.965966 0
M  V30 268 H 27.6069 -0.447483 0.60437 0
M  V30 269 H 29.5779 -1.01574 2.8058 0
M  V30 270 C 28.3269 -2.68724 2.20642 0
M  V30 271 H 27.6499 -2.56743 3.06469 0
M  V30 272 H 29.0899 -3.43237 2.48926 0
M  V30 273 C 27.5489 -3.21101 1.01959 0
M  V30 274 O 28.0789 -4.0084 0.262762 0
M  V30 275 N 26.2849 -2.79003 0.812746 0
M  V30 276 H 25.8319 -2.14271 1.42989 0
M  V30 277 H 25.7899 -3.14393 0.0203076 0
M  V30 278 N 29.562 -1.4872 -0.521534 0
M  V30 279 C 30.811 -1.56419 -1.27341 0
M  V30 280 C 31.124 -0.246805 -1.94037 0
M  V30 281 O 32.33 -0.202122 -2.70747 0
M  V30 282 C 30.786 -2.75896 -2.31105 0
M  V30 283 C 30.394 -4.14311 -1.70441 0
M  V30 284 C 32.138 -2.92913 -3.07249 0
M  V30 285 C 30.045 -5.25038 -2.72194 0
M  V30 286 H 28.975 -0.582344 -0.478949 0
M  V30 287 H 31.626 -1.75071 -0.549779 0
M  V30 288 H 30.008 -2.50697 -3.06541 0
M  V30 289 H 31.182 -4.49564 -1.01136 0
M  V30 290 H 29.497 -4.02482 -1.06759 0
M  V30 291 H 32.094 -3.72805 -3.83302 0
M  V30 292 H 32.437 -2.02689 -3.63625 0
M  V30 293 H 32.97 -3.18054 -2.38928 0
M  V30 294 H 29.709 -6.17255 -2.20627 0
M  V30 295 H 29.229 -4.94263 -3.39801 0
M  V30 296 H 30.908 -5.53508 -3.35019 0
M  V30 297 N 31.0401 0.771051 -1.3745 0
M  V30 298 C 32.2681 1.56015 -1.35893 0
M  V30 299 C 32.6831 1.88718 0.0555523 0
M  V30 300 O 32.0401 1.51502 1.01752 0
M  V30 301 C 32.0911 2.87001 -2.19801 0
M  V30 302 O 31.8121 2.557 -3.55738 0
M  V30 303 C 33.3131 3.81228 -2.26231 0
M  V30 304 H 30.5331 0.483317 -0.465453 0
M  V30 305 H 33.0771 0.955611 -1.80799 0
M  V30 306 H 31.2321 3.43877 -1.78402 0
M  V30 307 H 31.6461 3.39584 -3.99729 0
M  V30 308 H 33.1201 4.70139 -2.89263 0
M  V30 309 H 33.5971 4.20409 -1.27093 0
M  V30 310 H 34.2031 3.30281 -2.67945 0
M  V30 311 N 32.5182 1.22032 0.997298 0
M  V30 312 C 33.4482 1.01065 2.10495 0
M  V30 313 C 34.4292 -0.0669542 1.69968 0
M  V30 314 O 35.6142 0.0943987 1.9397 0
M  V30 315 C 32.7442 0.582874 3.42374 0
M  V30 316 C 31.6982 1.60592 3.96729 0
M  V30 317 C 31.0242 1.03412 5.24605 0
M  V30 318 C 32.3242 2.99478 4.27914 0
M  V30 319 H 34.0182 1.93708 2.28292 0
M  V30 320 H 31.5642 0.932761 1.09707 0
M  V30 321 H 33.5172 0.423332 4.19268 0
M  V30 322 H 32.2412 -0.379213 3.24391 0
M  V30 323 H 30.9002 1.75316 3.21963 0
M  V30 324 H 30.5482 0.063518 5.0296 0
M  V30 325 H 30.2482 1.71754 5.61938 0
M  V30 326 H 31.7722 0.886066 6.04137 0
M  V30 327 H 33.1862 2.88153 4.95622 0
M  V30 328 H 31.5832 3.64903 4.76409 0
M  V30 329 H 32.6532 3.49742 3.3587 0
M  V30 330 N 33.9963 -1.19345 1.0293 0
M  V30 331 C 35.4123 -1.41069 0.746446 0
M  V30 332 C 35.6123 -1.90078 -0.668776 0
M  V30 333 O 34.6683 -2.0778 -1.4347 0
M  V30 334 C 35.9813 -2.42141 1.78292 0
M  V30 335 C 37.5293 -2.55887 1.80252 0
M  V30 336 C 38.0043 -3.60214 2.8286 0
M  V30 337 N 39.4953 -3.67711 2.81679 0
M  V30 338 C 40.2303 -4.48128 3.57727 0
M  V30 339 N 39.7263 -5.32248 4.43491 0
M  V30 340 N 41.5193 -4.42782 3.46267 0
M  V30 341 H 33.6703 -0.858536 1.94275 0
M  V30 342 H 35.9333 -0.439541 0.839945 0
M  V30 343 H 35.6393 -2.13155 2.79746 0
M  V30 344 H 35.5133 -3.41323 1.60557 0
M  V30 345 H 37.9003 -2.84196 0.794757 0
M  V30 346 H 37.9813 -1.56858 2.02062 0
M  V30 347 H 37.6253 -3.32647 3.83807 0
M  V30 348 H 37.5553 -4.58895 2.58307 0
M  V30 349 H 40.0463 -3.07634 2.19476 0
M  V30 350 H 40.3593 -5.90729 4.98256 0
M  V30 351 H 38.7043 -5.31707 4.47564 0
M  V30 352 H 41.8953 -3.76107 2.78677 0
M  V30 353 H 42.0683 -5.05215 4.05785 0
M  V30 354 N 35.4744 -0.807222 -1.35358 0
M  V30 355 C 36.4064 -0.175717 -2.28525 0
M  V30 356 C 37.4194 0.625354 -1.5031 0
M  V30 357 O 38.6084 0.457611 -1.72535 0
M  V30 358 C 35.7084 0.773471 -3.29956 0
M  V30 359 C 34.8814 0.0186296 -4.37396 0
M  V30 360 C 33.9404 0.886395 -5.18681 0
M  V30 361 O 32.9664 0.337106 -5.68201 0
M  V30 362 N 34.1684 2.20839 -5.36852 0
M  V30 363 H 36.9334 -0.976091 -2.83359 0
M  V30 364 H 34.4944 -0.662737 -1.47714 0
M  V30 365 H 36.4864 1.35824 -3.81227 0
M  V30 366 H 35.0564 1.47465 -2.75632 0
M  V30 367 H 34.2764 -0.747349 -3.87051 0
M  V30 368 H 35.5644 -0.501577 -5.06322 0
M  V30 369 H 34.9624 2.67858 -4.98265 0
M  V30 370 H 33.5194 2.74237 -5.91301 0
M  V30 371 N 36.9525 1.47285 -0.560781 0
M  V30 372 C 38.2015 2.01668 -0.035895 0
M  V30 373 C 38.5145 1.44021 1.32353 0
M  V30 374 O 39.7205 1.90088 1.93853 0
M  V30 375 C 38.1765 3.59897 -0.0136659 0
M  V30 376 C 37.7845 4.26536 -1.37006 0
M  V30 377 C 39.5285 4.22017 0.458425 0
M  V30 378 C 37.4355 5.76782 -1.30675 0
M  V30 379 H 36.3655 0.753938 -0.00964879 0
M  V30 380 H 39.0165 1.69243 -0.709166 0
M  V30 381 H 37.3985 3.89301 0.725325 0
M  V30 382 H 38.5725 4.0877 -2.12705 0
M  V30 383 H 36.8875 3.76419 -1.78038 0
M  V30 384 H 39.4845 5.32124 0.524247 0
M  V30 385 H 39.8275 3.89437 1.4712 0
M  V30 386 H 40.3605 3.97159 -0.225818 0
M  V30 387 H 37.0995 6.13988 -2.29564 0
M  V30 388 H 36.6195 5.96875 -0.591622 0
M  V30 389 H 38.2985 6.39063 -1.01033 0
M  V30 390 N 38.4306 0.297415 1.54768 0
M  V30 391 C 39.3606 -0.573494 2.26348 0
M  V30 392 C 40.3416 -1.14085 1.26169 0
M  V30 393 O 41.5266 -1.17086 1.54934 0
M  V30 394 C 38.6566 -1.74716 3.00153 0
M  V30 395 C 37.6106 -1.31032 4.07449 0
M  V30 396 C 36.9366 -2.56887 4.68949 0
M  V30 397 C 38.2366 -0.444183 5.20408 0
M  V30 398 H 39.9306 0.0235131 2.99391 0
M  V30 399 H 37.4766 0.0127488 1.43994 0
M  V30 400 H 39.4296 -2.3625 3.48947 0
M  V30 401 H 38.1536 -2.37035 2.24682 0
M  V30 402 H 36.8126 -0.718066 3.59499 0
M  V30 403 H 36.4606 -3.17512 3.90122 0
M  V30 404 H 36.1606 -2.2836 5.41411 0
M  V30 405 H 37.6846 -3.19229 5.20505 0
M  V30 406 H 39.0986 -0.9651 5.65118 0
M  V30 407 H 37.4956 -0.252846 5.99567 0
M  V30 408 H 38.5656 0.531609 4.81977 0
M  V30 409 N 39.9087 -1.5758 0.0250728 0
M  V30 410 C 40.8187 -2.1343 -0.973905 0
M  V30 411 C 41.8347 -1.08556 -1.35984 0
M  V30 412 O 43.0107 -1.40592 -1.44207 0
M  V30 413 C 40.0757 -2.64703 -2.23904 0
M  V30 414 C 39.1367 -3.84276 -1.91391 0
M  V30 415 C 38.3697 -4.33095 -3.11873 0
M  V30 416 O 38.5927 -3.81107 -4.24398 0
M  V30 417 O 37.5267 -5.24984 -2.94406 0
M  V30 418 H 41.3527 -2.99057 -0.529036 0
M  V30 419 H 38.9377 -1.48118 -0.195288 0
M  V30 420 H 40.8197 -2.97769 -2.98181 0
M  V30 421 H 39.4947 -1.82161 -2.6758 0
M  V30 422 H 38.4017 -3.56143 -1.14511 0
M  V30 423 H 39.7347 -4.67968 -1.52534 0
M  V30 424 N 41.3868 0.248026 -1.55636 0
M  V30 425 C 42.7978 0.817177 -1.67866 0
M  V30 426 C 43.1488 1.86069 -0.622322 0
M  V30 427 O 42.2738 2.15157 0.231618 0
M  V30 428 C 42.8688 1.489 -3.04326 0
M  V30 429 C 41.4278 2.00587 -3.185 0
M  V30 430 C 40.5748 0.856573 -2.63739 0
M  V30 431 H 43.5258 0.0238579 -1.58682 0
M  V30 432 H 43.5468 2.35698 -2.98708 0
M  V30 433 H 43.0588 0.729279 -3.81186 0
M  V30 434 H 41.1598 2.79443 -2.4646 0
M  V30 435 H 41.2728 2.20402 -4.25393 0
M  V30 436 H 39.6368 1.25678 -2.21534 0
M  V30 437 H 40.4198 0.109953 -3.43124 0
M  V30 438 N 42.8649 1.48995 0.513639 0
M  V30 439 C 43.8129 1.65199 1.63744 0
M  V30 440 C 44.8069 0.51809 1.61283 0
M  V30 441 O 46.0129 0.697335 1.65943 0
M  V30 442 H 42.3879 0.52069 0.542574 0
M  V30 443 H 44.3589 2.59552 1.47226 0
M  V30 444 C 43.1079 1.72409 3.01945 0
M  V30 445 H 42.4309 2.59029 3.04539 0
M  V30 446 H 43.8709 1.87785 3.80148 0
M  V30 447 C 42.3299 0.46618 3.33659 0
M  V30 448 O 42.8599 -0.413744 3.99564 0
M  V30 449 N 41.0659 0.332931 2.88687 0
M  V30 450 H 40.6129 1.04996 2.35231 0
M  V30 451 H 40.5709 -0.507665 3.10274 0
M  V30 452 N 44.343 -0.763751 1.37857 0
M  V30 453 C 45.291 -1.89864 1.34367 0
M  V30 454 C 46.285 -1.67816 0.231143 0
M  V30 455 O 47.491 -1.75508 0.399617 0
M  V30 456 H 43.866 -0.624501 0.41893 0
M  V30 457 H 45.837 -1.89925 2.30155 0
M  V30 458 C 44.586 -3.27227 1.1755 0
M  V30 459 H 43.909 -3.44773 2.02414 0
M  V30 460 H 45.349 -4.06911 1.1916 0
M  V30 461 C 43.808 -3.36692 -0.118311 0
M  V30 462 O 44.338 -3.86374 -1.09902 0
M  V30 463 N 42.544 -2.90092 -0.171717 0
M  V30 464 H 42.091 -2.49853 0.627012 0
M  V30 465 H 42.049 -2.96806 -1.03699 0
M  V30 466 N 45.8211 -1.22559 -0.990812 0
M  V30 467 C 47.0671 -1.05297 -1.73322 0
M  V30 468 C 47.4001 0.410655 -1.89808 0
M  V30 469 O 46.6751 1.30439 -1.44277 0
M  V30 470 C 46.9581 -1.76713 -3.13759 0
M  V30 471 C 46.8111 -3.30684 -3.04907 0
M  V30 472 C 48.1301 -1.52121 -4.12974 0
M  V30 473 H 45.2491 -0.38392 -0.629106 0
M  V30 474 H 47.8911 -1.50926 -1.15418 0
M  V30 475 H 46.0411 -1.37924 -3.63193 0
M  V30 476 H 47.7131 -3.7893 -2.63077 0
M  V30 477 H 45.9561 -3.60253 -2.41661 0
M  V30 478 H 46.6271 -3.75833 -4.04294 0
M  V30 479 H 49.1031 -1.85819 -3.72304 0
M  V30 480 H 47.9791 -2.04582 -5.0935 0
M  V30 481 H 48.2401 -0.454257 -4.3976 0
M  V30 482 N 47.2992 1.18797 -1.03562 0
M  V30 483 C 48.2472 2.24297 -0.615905 0
M  V30 484 C 49.2412 1.65643 0.354808 0
M  V30 485 O 50.4472 1.78618 0.22265 0
M  V30 486 H 46.8222 0.729909 -0.180934 0
M  V30 487 H 48.7932 2.5701 -1.5162 0
M  V30 488 C 47.5422 3.47698 0.0104735 0
M  V30 489 H 46.8652 3.93125 -0.727509 0
M  V30 490 H 48.3052 4.23159 0.266995 0
M  V30 491 C 46.7642 3.12489 1.25905 0
M  V30 492 O 47.2942 3.25761 2.35038 0
M  V30 493 N 45.5002 2.6686 1.15039 0
M  V30 494 H 45.0472 2.56261 0.262328 0
M  V30 495 H 45.0052 2.43674 1.98672 0
M  V30 496 N 48.7773 0.814389 1.34928 0
M  V30 497 C 49.7073 0.244827 2.32213 0
M  V30 498 C 50.6883 -0.634024 1.57842 0
M  V30 499 O 51.8733 -0.562676 1.8587 0
M  V30 500 C 49.0033 -0.601106 3.42058 0
M  V30 501 C 47.9573 0.179896 4.27622 0
M  V30 502 C 47.2833 -0.788237 5.28858 0
M  V30 503 C 48.5833 1.38329 5.03649 0
M  V30 504 H 50.2773 1.05763 2.80097 0
M  V30 505 H 47.8233 0.510029 1.34665 0
M  V30 506 H 49.7763 -1.00968 4.09125 0
M  V30 507 H 48.5003 -1.44688 2.92802 0
M  V30 508 H 47.1593 0.569739 3.62146 0
M  V30 509 H 46.8073 -1.62973 4.75866 0
M  V30 510 H 46.5073 -0.269942 5.8698 0
M  V30 511 H 48.0313 -1.19485 5.98795 0
M  V30 512 H 49.4453 1.04918 5.63618 0
M  V30 513 H 47.8423 1.83662 5.71304 0
M  V30 514 H 48.9123 2.16592 4.33839 0
M  V30 515 N 50.2554 -1.46986 0.568584 0
M  V30 516 C 51.6714 -1.57946 0.229189 0
M  V30 517 C 51.8714 -1.56567 -1.26843 0
M  V30 518 O 50.9274 -1.47511 -2.04931 0
M  V30 519 C 52.2404 -2.87963 0.865909 0
M  V30 520 C 53.7884 -3.01568 0.838188 0
M  V30 521 C 54.2634 -4.34301 1.45419 0
M  V30 522 N 55.7544 -4.40965 1.41788 0
M  V30 523 C 56.4894 -5.42256 1.86403 0
M  V30 524 N 55.9854 -6.50297 2.38926 0
M  V30 525 N 57.7784 -5.3337 1.77405 0
M  V30 526 H 49.9294 -1.46126 1.54146 0
M  V30 527 H 52.1924 -0.696156 0.643484 0
M  V30 528 H 51.8984 -2.94742 1.91886 0
M  V30 529 H 51.7724 -3.75423 0.365687 0
M  V30 530 H 54.1594 -2.94379 -0.206106 0
M  V30 531 H 54.2404 -2.1562 1.37629 0
M  V30 532 H 53.8844 -4.42247 2.49761 0
M  V30 533 H 53.8144 -5.19 0.891435 0
M  V30 534 H 56.3054 -3.63484 1.03381 0
M  V30 535 H 56.6184 -7.23777 2.70863 0
M  V30 536 H 54.9634 -6.51155 2.42944 0
M  V30 537 H 58.1544 -4.47865 1.3614 0
M  V30 538 H 58.3274 -6.12169 2.12492 0
M  V30 539 N 51.7335 -0.305618 -1.54608 0
M  V30 540 C 52.9585 0.307562 -2.05107 0
M  V30 541 C 53.3835 1.46385 -1.18123 0
M  V30 542 O 52.7415 1.8034 -0.186324 0
M  V30 543 C 52.7895 0.73704 -3.52987 0
M  V30 544 O 51.8935 1.84134 -3.6901 0
M  V30 545 H 51.2345 0.0589143 -0.661381 0
M  V30 546 H 53.7645 -0.448807 -1.99617 0
M  V30 547 H 53.7745 1.02459 -3.94925 0
M  V30 548 H 52.4495 -0.108773 -4.15758 0
M  V30 549 H 51.0265 1.55398 -3.38978 0
M  V30 550 N 53.2116 1.57565 -0.0334293 0
M  V30 551 C 54.1586 2.10478 0.946981 0
M  V30 552 C 55.1286 1.00787 1.32027 0
M  V30 553 O 56.3136 1.28232 1.41284 0
M  V30 554 C 53.4536 2.63994 2.22263 0
M  V30 555 C 52.5666 3.87709 1.90541 0
M  V30 556 C 51.7016 4.29604 3.12433 0
M  V30 557 C 50.7406 5.46065 2.76549 0
M  V30 558 N 49.8776 5.83096 3.9108 0
M  V30 559 H 54.7176 2.93963 0.488846 0
M  V30 560 H 52.2546 1.45296 0.22969 0
M  V30 561 H 54.2126 2.93114 2.96884 0
M  V30 562 H 52.8426 1.83333 2.65685 0
M  V30 563 H 51.8946 3.65291 1.06144 0
M  V30 564 H 53.2066 4.72403 1.60116 0
M  V30 565 H 52.3606 4.60182 3.9537 0
M  V30 566 H 51.0996 3.43685 3.46023 0
M  V30 567 H 50.1046 5.15176 1.92026 0
M  V30 568 H 51.3296 6.33685 2.44171 0
M  V30 569 H 49.2756 5.00132 4.24504 0
M  V30 570 H 49.1926 6.6244 3.64293 0
M  V30 571 H 50.4606 6.18282 4.74708 0
M  V30 572 N 54.6897 -0.239769 1.55765 0
M  V30 573 C 55.6367 -1.29696 1.90913 0
M  V30 574 C 56.6067 -1.47478 0.764164 0
M  V30 575 O 57.7917 -1.61345 1.01845 0
M  V30 576 C 54.9317 -2.64598 2.21544 0
M  V30 577 C 54.0447 -2.54765 3.48882 0
M  V30 578 C 53.1797 -3.82069 3.69049 0
M  V30 579 C 52.2187 -3.66883 4.89963 0
M  V30 580 N 51.3557 -4.86094 5.06614 0
M  V30 581 H 56.1957 -0.990224 2.81067 0
M  V30 582 H 53.7327 -0.477684 1.39128 0
M  V30 583 H 55.6907 -3.43132 2.3731 0
M  V30 584 H 54.3207 -2.93405 1.34585 0
M  V30 585 H 53.3727 -1.67763 3.41409 0
M  V30 586 H 54.6847 -2.39457 4.37563 0
M  V30 587 H 53.8387 -4.69046 3.84812 0
M  V30 588 H 52.5777 -4.00282 2.78614 0
M  V30 589 H 51.5827 -2.78289 4.74168 0
M  V30 590 H 52.8077 -3.50157 5.81865 0
M  V30 591 H 50.7537 -5.04655 4.19117 0
M  V30 592 H 50.6707 -4.73443 5.89396 0
M  V30 593 H 51.9387 -5.74549 5.26795 0
M  V30 594 N 56.1678 -1.49265 -0.50573 0
M  V30 595 C 57.3958 -1.62215 -1.28429 0
M  V30 596 C 57.8108 -0.291697 -1.86533 0
M  V30 597 O 57.1678 0.722233 -1.67601 0
M  V30 598 C 57.2188 -2.68735 -2.41793 0
M  V30 599 O 56.9398 -3.96619 -1.86078 0
M  V30 600 C 58.4408 -2.92346 -3.3324 0
M  V30 601 H 55.6608 -0.546239 -0.389697 0
M  V30 602 H 58.2048 -1.95265 -0.607609 0
M  V30 603 H 56.3598 -2.38476 -3.053 0
M  V30 604 H 56.7738 -4.55256 -2.60465 0
M  V30 605 H 58.2478 -3.70623 -4.09075 0
M  V30 606 H 58.7248 -2.02081 -3.89948 0
M  V30 607 H 59.3308 -3.24003 -2.75503 0
M  V30 608 N 57.6459 0.756429 -1.3826 0
M  V30 609 C 58.5959 1.86069 -1.31766 0
M  V30 610 C 59.5799 1.59621 -0.202483 0
M  V30 611 O 60.7719 1.7149 -0.438211 0
M  V30 612 C 57.9009 3.23742 -1.1422 0
M  V30 613 C 56.9869 3.56091 -2.30348 0
M  V30 614 N 57.3779 3.59517 -3.55783 0
M  V30 615 C 55.6759 3.86341 -2.22838 0
M  V30 616 C 56.3769 3.89052 -4.32451 0
M  V30 617 N 55.3529 4.05736 -3.61772 0
M  V30 618 H 59.1549 1.86992 -2.26741 0
M  V30 619 H 56.6689 0.953643 -1.31451 0
M  V30 620 H 58.6659 4.02761 -1.07652 0
M  V30 621 H 57.3259 3.24073 -0.201763 0
M  V30 622 H 58.3369 3.41347 -3.89491 0
M  V30 623 H 55.0139 3.94404 -1.36937 0
M  V30 624 H 56.4039 3.98349 -5.4108 0
M  V30 625 N 59.124 1.23083 0.984299 0
M  V30 626 C 60.373 1.05466 1.71929 0
M  V30 627 C 60.686 -0.409211 1.91272 0
M  V30 628 O 61.892 -0.705226 2.62181 0
M  V30 629 C 60.348 1.83874 3.09384 0
M  V30 630 C 59.956 3.34566 2.97943 0
M  V30 631 C 61.7 1.74734 3.8687 0
M  V30 632 C 59.607 4.05381 4.30605 0
M  V30 633 H 58.537 0.391039 0.644674 0
M  V30 634 H 61.188 1.47013 1.09815 0
M  V30 635 H 59.57 1.35131 3.72231 0
M  V30 636 H 60.744 3.90767 2.44209 0
M  V30 637 H 59.059 3.44476 2.33934 0
M  V30 638 H 61.656 2.24957 4.85076 0
M  V30 639 H 61.999 0.709372 4.10212 0
M  V30 640 H 62.532 2.21067 3.30717 0
M  V30 641 H 59.271 5.09467 4.1246 0
M  V30 642 H 58.791 3.53967 4.84218 0
M  V30 643 H 60.47 4.11458 4.99311 0
M  V30 644 N 60.6021 -1.18246 1.0419 0
M  V30 645 C 61.8481 -1.88536 0.747122 0
M  V30 646 C 62.1811 -1.80223 -0.723409 0
M  V30 647 O 61.4561 -1.20337 -1.52804 0
M  V30 648 C 61.7391 -3.38968 1.21544 0
M  V30 649 C 61.5921 -3.56084 2.74816 0
M  V30 650 C 62.9111 -4.32648 0.806482 0
M  V30 651 H 60.0301 -0.684619 0.272883 0
M  V30 652 H 62.6721 -1.39113 1.29413 0
M  V30 653 H 60.8221 -3.8119 0.750081 0
M  V30 654 H 62.4941 -3.22946 3.29399 0
M  V30 655 H 60.7371 -2.98699 3.14582 0
M  V30 656 H 61.4081 -4.61639 3.02644 0
M  V30 657 H 63.8841 -3.98211 1.20695 0
M  V30 658 H 62.7601 -5.36462 1.1619 0
M  V30 659 H 63.0211 -4.41146 -0.29029 0
M  V30 660 N 62.0802 -0.821533 -1.34494 0
M  V30 661 C 63.3202 -0.414785 -2.00147 0
M  V30 662 C 63.6842 1.00299 -1.6372 0
M  V30 663 O 64.8852 1.51255 -2.22206 0
M  V30 664 C 63.1562 -0.609403 -3.52166 0
M  V30 665 S 64.7152 -0.295297 -4.37805 0
M  V30 666 H 61.5332 -0.15679 -0.693497 0
M  V30 667 H 64.1352 -1.06705 -1.63812 0
M  V30 668 H 62.8392 -1.64096 -3.76166 0
M  V30 669 H 62.3702 0.0576414 -3.93358 0
M  V30 670 H 64.3852 0.891531 -4.88125 0
M  V30 671 N 63.5583 1.46682 -0.576371 0
M  V30 672 C 64.7863 2.06798 -0.0649635 0
M  V30 673 C 65.2013 1.42612 1.23723 0
M  V30 674 O 64.5583 0.529203 1.74659 0
M  V30 675 C 64.6093 3.6132 0.114202 0
M  V30 676 O 64.3303 4.23104 -1.13644 0
M  V30 677 C 65.8313 4.38349 0.66069 0
M  V30 678 H 63.0513 0.668778 -0.0545616 0
M  V30 679 H 65.5953 1.88404 -0.795237 0
M  V30 680 H 63.7503 3.79162 0.794673 0
M  V30 681 H 64.1643 5.15894 -0.946253 0
M  V30 682 H 65.6383 5.47081 0.73526 0
M  V30 683 H 66.1153 4.05953 1.67627 0
M  V30 684 H 66.7213 4.25297 0.0152951 0
M  V30 685 N 65.0364 0.313813 1.54444 0
M  V30 686 C 65.9664 -0.549454 2.26943 0
M  V30 687 C 66.9474 -1.12741 1.27372 0
M  V30 688 O 68.1324 -1.15436 1.56167 0
M  V30 689 C 65.2624 -1.71523 3.01989 0
M  V30 690 C 64.2164 -1.26703 4.08816 0
M  V30 691 C 63.5424 -2.51898 4.71647 0
M  V30 692 C 64.8424 -0.388962 5.2085 0
M  V30 693 H 66.5364 0.0552661 2.99349 0
M  V30 694 H 64.0824 0.0280207 1.43973 0
M  V30 695 H 66.0354 -2.32535 3.51433 0
M  V30 696 H 64.7594 -2.34639 2.27183 0
M  V30 697 H 63.4184 -0.679896 3.6024 0
M  V30 698 H 63.0664 -3.13356 3.93468 0
M  V30 699 H 62.7664 -2.22605 5.43802 0
M  V30 700 H 64.2904 -3.1369 5.23861 0
M  V30 701 H 65.7044 -0.905107 5.6611 0
M  V30 702 H 64.1014 -0.18924 5.99802 0
M  V30 703 H 65.1714 0.582699 4.81386 0
M  V30 704 N 66.5145 -1.57545 0.0417849 0
M  V30 705 C 67.7625 -1.91937 -0.632829 0
M  V30 706 C 68.0835 -0.919978 -1.71934 0
M  V30 707 O 67.3535 0.0366064 -1.95866 0
M  V30 708 H 65.9335 -0.708493 -0.236742 0
M  V30 709 H 68.5955 -1.9468 0.0925745 0
M  V30 710 H 67.6915 -2.92912 -1.07746 0
M  V30 711 N 67.9926 0.231505 -1.5589 0
M  V30 712 C 69.4036 0.799327 -1.68724 0
M  V30 713 C 69.7546 1.85398 -0.642022 0
M  V30 714 O 68.8796 2.1539 0.208784 0
M  V30 715 C 69.4746 1.45664 -3.05888 0
M  V30 716 C 68.0336 1.97197 -3.20609 0
M  V30 717 C 67.1806 0.828552 -2.64632 0
M  V30 718 H 70.1316 0.00702616 -1.58698 0
M  V30 719 H 70.1526 2.32517 -3.01191 0
M  V30 720 H 69.6646 0.688808 -3.81939 0
M  V30 721 H 67.7656 2.76813 -2.4941 0
M  V30 722 H 67.8786 2.15878 -4.27707 0
M  V30 723 H 66.2426 1.23321 -2.22854 0
M  V30 724 H 67.0256 0.0735544 -3.43221 0
M  V30 725 N 69.4707 1.49531 0.497807 0
M  V30 726 C 70.4337 1.65916 1.58128 0
M  V30 727 C 71.4337 0.530825 1.51786 0
M  V30 728 O 72.6237 0.797342 1.54881 0
M  V30 729 C 69.7557 1.65951 2.9778 0
M  V30 730 H 70.9487 2.62556 1.44929 0
M  V30 731 H 68.5017 1.38611 0.722275 0
M  V30 732 H 69.2367 0.709065 3.16453 0
M  V30 733 H 69.0217 2.47897 3.03792 0
M  V30 734 H 70.5117 1.80673 3.76493 0
M  V30 735 N 70.9488 -0.749086 1.3866 0
M  V30 736 C 72.1888 -1.52112 1.36534 0
M  V30 737 C 72.5528 -1.91951 -0.0432316 0
M  V30 738 O 73.7538 -2.68132 -0.189396 0
M  V30 739 C 72.0248 -2.73704 2.29828 0
M  V30 740 S 73.5838 -3.63519 2.45763 0
M  V30 741 H 70.4018 -0.520482 0.484375 0
M  V30 742 H 73.0038 -0.878963 1.74627 0
M  V30 743 H 71.7078 -2.42552 3.31054 0
M  V30 744 H 71.2388 -3.4286 1.929 0
M  V30 745 H 73.2538 -4.66712 1.68505 0
M  V30 746 N 72.4269 -1.23603 -0.977757 0
M  V30 747 C 73.3739 -1.01954 -2.07061 0
M  V30 748 C 74.3439 0.0638697 -1.65977 0
M  V30 749 O 75.5289 -0.0887624 -1.90593 0
M  V30 750 C 72.6689 -0.619658 -3.39491 0
M  V30 751 C 71.7819 -1.77547 -3.93829 0
M  V30 752 C 70.9169 -1.32212 -5.14484 0
M  V30 753 C 69.9559 -2.44852 -5.60994 0
M  V30 754 N 69.0929 -2.00456 -6.72876 0
M  V30 755 H 73.9329 -1.95495 -2.24913 0
M  V30 756 H 71.4699 -0.973861 -1.10247 0
M  V30 757 H 73.4279 -0.368898 -4.15566 0
M  V30 758 H 72.0579 0.278752 -3.21594 0
M  V30 759 H 71.1099 -2.14016 -3.14486 0
M  V30 760 H 72.4219 -2.62219 -4.24314 0
M  V30 761 H 71.5759 -1.02965 -5.97899 0
M  V30 762 H 70.3149 -0.445808 -4.85658 0
M  V30 763 H 69.3199 -2.74871 -4.76157 0
M  V30 764 H 70.5449 -3.33024 -5.91837 0
M  V30 765 H 68.4909 -1.15208 -6.45804 0
M  V30 766 H 68.4079 -2.78687 -7.02759 0
M  V30 767 H 69.6759 -1.7432 -7.59758 0
M  V30 768 N 73.905 1.17692 -1.04816 0
M  V30 769 C 75.13 1.92327 -0.776207 0
M  V30 770 C 75.555 1.76082 0.661581 0
M  V30 771 O 74.913 1.076 1.45917 0
M  V30 772 C 74.961 3.41539 -1.15687 0
M  V30 773 O 74.065 4.11402 -0.286775 0
M  V30 774 H 73.406 0.599735 -0.284981 0
M  V30 775 H 75.936 1.49201 -1.4 0
M  V30 776 H 75.946 3.92269 -1.12202 0
M  V30 777 H 74.621 3.52684 -2.20425 0
M  V30 778 H 73.198 3.70939 -0.381903 0
M  V30 779 N 75.3831 0.828654 1.34056 0
M  V30 780 C 76.6291 0.42008 1.98402 0
M  V30 781 C 76.9621 -1.01564 1.65525 0
M  V30 782 O 76.2371 -1.70834 0.929831 0
M  V30 783 C 76.5201 0.62927 3.54559 0
M  V30 784 C 76.3731 2.11152 3.97159 0
M  V30 785 C 77.6921 0.0688756 4.40046 0
M  V30 786 H 74.8111 0.154104 0.720709 0
M  V30 787 H 77.4531 1.04228 1.5886 0
M  V30 788 H 75.6031 0.0996418 3.88372 0
M  V30 789 H 77.2751 2.70522 3.73651 0
M  V30 790 H 75.5181 2.59985 3.47261 0
M  V30 791 H 76.1891 2.20868 5.05887 0
M  V30 792 H 78.6651 0.521458 4.1282 0
M  V30 793 H 77.5411 0.245006 5.48353 0
M  V30 794 H 77.8021 -1.0266 4.30015 0
M  V30 795 N 76.8612 -1.46375 0.584142 0
M  V30 796 C 77.7712 -2.34115 -0.150728 0
M  V30 797 C 78.7872 -1.49838 -0.884567 0
M  V30 798 O 79.9632 -1.82704 -0.847429 0
M  V30 799 C 77.0282 -3.2705 -1.15062 0
M  V30 800 C 76.0892 -4.27228 -0.421293 0
M  V30 801 C 75.3222 -5.15722 -1.37355 0
M  V30 802 O 75.5452 -5.07176 -2.61014 0
M  V30 803 O 74.4792 -5.95383 -0.883355 0
M  V30 804 H 78.3052 -2.98309 0.569708 0
M  V30 805 H 75.8902 -1.45373 0.344535 0
M  V30 806 H 77.7722 -3.84381 -1.72712 0
M  V30 807 H 76.4472 -2.65451 -1.8525 0
M  V30 808 H 75.3542 -3.7358 0.197085 0
M  V30 809 H 76.6872 -4.91616 0.239641 0
M  V30 810 N 78.3393 -0.321999 -1.54275 0
M  V30 811 C 79.5673 0.283052 -2.04955 0
M  V30 812 C 79.9823 1.45904 -1.19823 0
M  V30 813 O 79.3393 1.81063 -0.228545 0
M  V30 814 C 79.3903 0.719028 -3.54277 0
M  V30 815 O 79.1113 -0.410175 -4.36176 0
M  V30 816 C 80.6123 1.38705 -4.21041 0
M  V30 817 H 77.8323 0.0584616 -0.668448 0
M  V30 818 H 80.3763 -0.467734 -1.99079 0
M  V30 819 H 78.5313 1.41979 -3.60445 0
M  V30 820 H 78.9453 -0.0669416 -5.24457 0
M  V30 821 H 80.4193 1.64306 -5.2698 0
M  V30 822 H 80.8963 2.33385 -3.72059 0
M  V30 823 H 81.5023 0.728906 -4.19007 0
M  V30 824 N 79.8174 1.5752 -0.0501392 0
M  V30 825 C 80.7474 2.14502 0.922566 0
M  V30 826 C 81.7284 1.06642 1.3252 0
M  V30 827 O 82.9134 1.34577 1.4001 0
M  V30 828 C 80.0434 2.68916 2.19776 0
M  V30 829 C 78.9974 3.8175 1.93523 0
M  V30 830 C 78.3234 4.22677 3.27487 0
M  V30 831 C 79.6234 5.06932 1.25765 0
M  V30 832 H 81.3174 2.9603 0.447952 0
M  V30 833 H 78.8634 1.42401 0.214024 0
M  V30 834 H 80.8164 3.07419 2.88222 0
M  V30 835 H 79.5404 1.84578 2.69441 0
M  V30 836 H 78.1994 3.43718 1.27489 0
M  V30 837 H 77.8474 3.35291 3.74952 0
M  V30 838 H 77.5474 4.98725 3.1072 0
M  V30 839 H 79.0714 4.63779 3.97166 0
M  V30 840 H 80.4854 5.42888 1.84244 0
M  V30 841 H 78.8824 5.88116 1.19328 0
M  V30 842 H 79.9524 4.84337 0.233536 0
M  V30 843 N 81.2955 -0.223234 1.56011 0
M  V30 844 C 82.5415 -0.949279 1.79211 0
M  V30 845 C 82.8745 -1.84054 0.619494 0
M  V30 846 O 82.1495 -1.90726 -0.381317 0
M  V30 847 C 82.4325 -1.78965 3.12479 0
M  V30 848 C 82.2855 -0.924997 4.40186 0
M  V30 849 C 83.6045 -2.76774 3.42175 0
M  V30 850 H 80.7235 -0.343676 0.651963 0
M  V30 851 H 83.3655 -0.218253 1.88742 0
M  V30 852 H 81.5155 -2.41291 3.04485 0
M  V30 853 H 83.1875 -0.318615 4.60198 0
M  V30 854 H 81.4305 -0.230344 4.33188 0
M  V30 855 H 82.1015 -1.54735 5.29869 0
M  V30 856 H 84.5775 -2.24584 3.50287 0
M  V30 857 H 83.4535 -3.32678 4.36597 0
M  V30 858 H 83.7145 -3.54429 2.64258 0
M  V30 859 N 82.7736 -1.49793 -0.48987 0
M  V30 860 C 83.7206 -1.67281 -1.59014 0
M  V30 861 C 84.6906 -0.514177 -1.57941 0
M  V30 862 O 85.8756 -0.742533 -1.75759 0
M  V30 863 C 83.0156 -1.75569 -2.97102 0
M  V30 864 C 82.1286 -3.0281 -3.08107 0
M  V30 865 C 81.2636 -3.02008 -4.36995 0
M  V30 866 C 80.3026 -4.23782 -4.41673 0
M  V30 867 N 79.4396 -4.20826 -5.62005 0
M  V30 868 H 84.2796 -2.61224 -1.43409 0
M  V30 869 H 81.8166 -1.29508 -0.697565 0
M  V30 870 H 83.7746 -1.78354 -3.77155 0
M  V30 871 H 82.4046 -0.850827 -3.11385 0
M  V30 872 H 81.4566 -3.09584 -2.21047 0
M  V30 873 H 82.7686 -3.92801 -3.07423 0
M  V30 874 H 81.9226 -3.03418 -5.25378 0
M  V30 875 H 80.6616 -2.09815 -4.4026 0
M  V30 876 H 79.6666 -4.22604 -3.5169 0
M  V30 877 H 80.8916 -5.17181 -4.40115 0
M  V30 878 H 78.8376 -3.31476 -5.66091 0
M  V30 879 H 78.7546 -5.04564 -5.62984 0
M  V30 880 H 80.0226 -4.26355 -6.52565 0
M  V30 881 N 84.2517 0.741722 -1.39055 0
M  V30 882 C 85.1817 1.869 -1.39966 0
M  V30 883 C 86.1627 1.6804 -0.26392 0
M  V30 884 O 87.3477 1.88458 -0.468755 0
M  V30 885 C 84.4777 3.24572 -1.23574 0
M  V30 886 C 83.4317 3.58056 -2.34477 0
M  V30 887 C 82.7577 4.94593 -2.0318 0
M  V30 888 C 84.0577 3.61716 -3.76774 0
M  V30 889 H 85.7517 1.86395 -2.34302 0
M  V30 890 H 83.2977 0.895361 -1.1278 0
M  V30 891 H 85.2507 4.031 -1.22834 0
M  V30 892 H 83.9747 3.25587 -0.257045 0
M  V30 893 H 82.6337 2.81854 -2.34423 0
M  V30 894 H 82.2817 4.92181 -1.03765 0
M  V30 895 H 81.9817 5.17964 -2.77465 0
M  V30 896 H 83.5057 5.75486 -2.04079 0
M  V30 897 H 84.9197 4.30335 -3.78794 0
M  V30 898 H 83.3167 3.96603 -4.50362 0
M  V30 899 H 84.3867 2.61672 -4.08235 0
M  V30 900 N 85.7298 1.2412 0.971189 0
M  V30 901 C 86.9788 1.07284 1.70801 0
M  V30 902 C 87.2918 -0.388902 1.91695 0
M  V30 903 O 88.4978 -0.677379 2.62914 0
M  V30 904 C 86.9538 1.87145 3.07416 0
M  V30 905 C 86.5618 3.37707 2.94377 0
M  V30 906 C 88.3058 1.78828 3.84995 0
M  V30 907 C 86.2128 4.09925 4.26281 0
M  V30 908 H 85.1428 0.397854 0.64049 0
M  V30 909 H 87.7938 1.4817 1.0825 0
M  V30 910 H 86.1758 1.39071 3.70777 0
M  V30 911 H 87.3498 3.93335 2.4005 0
M  V30 912 H 85.6648 3.46938 2.30267 0
M  V30 913 H 88.2618 2.30089 4.82662 0
M  V30 914 H 88.6048 0.75284 4.09436 0
M  V30 915 H 89.1378 2.24563 3.28354 0
M  V30 916 H 85.8768 5.13813 4.07033 0
M  V30 917 H 85.3968 3.59083 4.80437 0
M  V30 918 H 87.0758 4.1673 4.94919 0
M  V30 919 N 87.2079 -1.17134 1.05439 0
M  V30 920 C 88.4849 -1.83411 0.679699 0
M  V30 921 C 88.8649 -1.9368 -0.839726 0
M  V30 922 O 88.2129 -1.47325 -1.74664 0
M  V30 923 C 88.4229 -3.20918 1.37159 0
M  V30 924 C 89.7709 -3.96796 1.51123 0
M  V30 925 O 90.7949 -3.30406 1.3308 0
M  V30 926 O 89.6539 -5.15778 1.80651 0
M  V30 927 H 86.7479 -0.79154 0.239569 0
M  V30 928 H 89.2939 -1.24411 1.15413 0
M  V30 929 H 88.0659 -3.08428 2.40807 0
M  V30 930 H 87.6889 -3.87587 0.886674 0
M  V30 931 N 88.686 -0.835752 -1.33615 0
M  V30 932 C 89.649 -0.272 -2.2758 0
M  V30 933 C 90.649 0.557487 -1.50827 0
M  V30 934 O 91.839 0.37173 -1.70188 0
M  V30 935 C 88.971 0.617173 -3.35267 0
M  V30 936 H 90.164 -1.10111 -2.78954 0
M  V30 937 H 87.717 -0.608594 -1.43965 0
M  V30 938 H 88.452 1.46884 -2.89129 0
M  V30 939 H 88.237 0.0237066 -3.92093 0
M  V30 940 H 89.727 1.005 -4.05326 0
M  V30 941 N 90.1641 1.46063 -0.591896 0
M  V30 942 C 91.4121 2.01938 -0.0808391 0
M  V30 943 C 91.7331 1.46475 1.28725 0
M  V30 944 O 91.0031 0.652944 1.84698 0
M  V30 945 H 89.5831 0.746516 -0.0268938 0
M  V30 946 H 92.2451 1.79055 -0.769752 0
M  V30 947 H 91.3411 3.12094 -0.0187578 0
M  V30 948 N 91.6422 0.330177 1.54103 0
M  V30 949 C 92.5752 -0.575477 2.20825 0
M  V30 950 C 93.5532 -1.11064 1.18758 0
M  V30 951 O 94.7372 -1.17341 1.47524 0
M  V30 952 C 91.8642 -1.79032 2.87516 0
M  V30 953 C 90.9102 -1.38581 4.03358 0
M  V30 954 S 91.7432 -0.416911 5.33875 0
M  V30 955 C 92.8992 -1.63889 6.04062 0
M  V30 956 H 93.1322 -0.00872114 2.97299 0
M  V30 957 H 90.6652 0.114254 1.53977 0
M  V30 958 H 92.6232 -2.48734 3.2656 0
M  V30 959 H 91.2842 -2.32827 2.10832 0
M  V30 960 H 90.4772 -2.29123 4.48908 0
M  V30 961 H 90.0792 -0.768419 3.66021 0
M  V30 962 H 92.3712 -2.57536 6.26643 0
M  V30 963 H 93.3142 -1.22542 6.97416 0
M  V30 964 H 93.7222 -1.82887 5.34053 0
M  V30 965 N 93.1203 -1.57491 0.0584922 0
M  V30 966 C 94.3973 -1.84346 -0.653918 0
M  V30 967 C 94.7773 -0.948355 -1.88599 0
M  V30 968 O 94.1253 -0.0112403 -2.28497 0
M  V30 969 C 94.3353 -3.34239 -1.00425 0
M  V30 970 C 95.6833 -4.01431 -1.38342 0
M  V30 971 O 96.7073 -3.38907 -1.09637 0
M  V30 972 O 95.5663 -5.11683 -1.91943 0
M  V30 973 H 92.6603 -0.761112 -0.323478 0
M  V30 974 H 95.2063 -1.6947 0.0884125 0
M  V30 975 H 93.9783 -3.91089 -0.128625 0
M  V30 976 H 93.6013 -3.54329 -1.80378 0
M  V30 977 N 94.5984 0.214957 -1.56127 0
M  V30 978 C 95.8474 0.936451 -1.78643 0
M  V30 979 C 96.1604 1.85237 -0.628229 0
M  V30 980 O 97.3664 2.613 -0.737186 0
M  V30 981 C 95.8224 1.7154 -3.16389 0
M  V30 982 C 95.4304 0.845299 -4.39953 0
M  V30 983 C 97.1744 2.42772 -3.48227 0
M  V30 984 C 95.0814 1.62198 -5.68723 0
M  V30 985 H 94.0114 0.353401 -0.666051 0
M  V30 986 H 96.6624 0.190169 -1.82512 0
M  V30 987 H 95.0444 2.50484 -3.06715 0
M  V30 988 H 96.2184 0.0959353 -4.607 0
M  V30 989 H 94.5334 0.244789 -4.1568 0
M  V30 990 H 97.1304 3.01394 -4.41663 0
M  V30 991 H 97.4734 3.15984 -2.71035 0
M  V30 992 H 98.0064 1.70813 -3.5926 0
M  V30 993 H 94.7454 0.933011 -6.48826 0
M  V30 994 H 94.2654 2.34579 -5.52026 0
M  V30 995 H 95.9444 2.18095 -6.09133 0
M  V30 996 N 96.0765 1.50051 0.48192 0
M  V30 997 C 97.3165 1.62128 1.24474 0
M  V30 998 C 97.6805 0.309742 1.89485 0
M  V30 999 O 98.8815 0.305854 2.67054 0
M  V30 1000 C 97.1525 2.76151 2.26882 0
M  V30 1001 S 98.7115 3.08297 3.12247 0
M  V30 1002 H 95.5295 0.571661 0.422759 0
M  V30 1003 H 98.1315 1.87791 0.54359 0
M  V30 1004 H 96.8355 3.69942 1.77683 0
M  V30 1005 H 96.3665 2.52541 3.0164 0
M  V30 1006 H 98.3815 2.51287 4.27866 0
M  V30 1007 N 97.5546 -0.734337 1.39446 0
M  V30 1008 C 98.9706 -1.03997 1.21065 0
M  V30 1009 C 99.1706 -2.01369 0.0727019 0
M  V30 1010 O 98.2266 -2.45856 -0.575426 0
M  V30 1011 C 99.5396 -1.60163 2.54496 0
M  V30 1012 C 101.088 -1.7224 2.61347 0
M  V30 1013 C 101.563 -2.31814 3.95002 0
M  V30 1014 N 103.054 -2.39223 3.96644 0
M  V30 1015 C 103.789 -2.86258 4.96834 0
M  V30 1016 N 103.285 -3.33184 6.07421 0
M  V30 1017 N 105.078 -2.85473 4.84213 0
M  V30 1018 H 97.2286 -0.0885624 2.12215 0
M  V30 1019 H 99.4916 -0.10191 0.942506 0
M  V30 1020 H 99.1976 -0.960811 3.38321 0
M  V30 1021 H 99.0716 -2.5896 2.74262 0
M  V30 1022 H 101.459 -2.35443 1.77906 0
M  V30 1023 H 101.54 -0.720939 2.4543 0
M  V30 1024 H 101.184 -1.69238 4.78875 0
M  V30 1025 H 101.114 -3.32638 4.08239 0
M  V30 1026 H 103.605 -2.06057 3.16779 0
M  V30 1027 H 103.918 -3.67586 6.7978 0
M  V30 1028 H 102.263 -3.31191 6.11013 0
M  V30 1029 H 105.454 -2.48136 3.96921 0
M  V30 1030 H 105.627 -3.21814 5.62441 0
M  V30 1031 N 99.0327 -1.24633 -0.964593 0
M  V30 1032 C 100.28 -1.08788 -1.70796 0
M  V30 1033 C 100.608 0.372783 -1.90894 0
M  V30 1034 O 99.8627 1.29167 -1.47018 0
M  V30 1035 C 100.162 -1.7763 -3.10133 0
M  V30 1036 C 99.8277 -3.27557 -3.09866 0
M  V30 1037 C 98.4897 -3.6846 -3.09501 0
M  V30 1038 C 100.842 -4.23389 -3.03959 0
M  V30 1039 C 98.1697 -5.03624 -3.00965 0
M  V30 1040 C 100.522 -5.58565 -2.96965 0
M  V30 1041 C 99.1857 -5.98809 -2.9493 0
M  V30 1042 H 98.4557 -0.398084 -0.624988 0
M  V30 1043 H 101.103 -1.54777 -1.12767 0
M  V30 1044 H 99.4077 -1.24044 -3.71645 0
M  V30 1045 H 101.105 -1.62832 -3.66451 0
M  V30 1046 H 97.6947 -2.95006 -3.10917 0
M  V30 1047 H 101.879 -3.92787 -3.03368 0
M  V30 1048 H 97.1347 -5.33998 -2.97752 0
M  V30 1049 H 101.309 -6.32523 -2.91354 0
M  V30 1050 H 98.9357 -7.03505 -2.88071 0
M  V30 1051 N 100.511 1.16574 -1.06058 0
M  V30 1052 C 101.459 2.22941 -0.663343 0
M  V30 1053 C 102.453 1.66358 0.319593 0
M  V30 1054 O 103.659 1.7905 0.184713 0
M  V30 1055 H 100.034 0.725907 -0.196376 0
M  V30 1056 H 102.005 2.53736 -1.57037 0
M  V30 1057 C 100.754 3.47642 -0.0632808 0
M  V30 1058 H 100.077 3.91493 -0.810733 0
M  V30 1059 H 101.517 4.2363 0.177177 0
M  V30 1060 C 99.9758 3.1509 1.19248 0
M  V30 1061 O 100.506 3.30673 2.28075 0
M  V30 1062 N 98.7118 2.6924 1.09353 0
M  V30 1063 H 98.2588 2.5676 0.207912 0
M  V30 1064 H 98.2168 2.47833 1.93458 0
M  V30 1065 N 101.989 0.842826 1.3317 0
M  V30 1066 C 103.236 0.440447 1.97652 0
M  V30 1067 C 103.564 -1.00123 1.6675 0
M  V30 1068 O 102.819 -1.7155 0.941761 0
M  V30 1069 C 103.118 0.612607 3.52111 0
M  V30 1070 C 102.784 2.02297 4.02972 0
M  V30 1071 C 101.446 2.40874 4.16573 0
M  V30 1072 C 103.798 2.94402 4.30089 0
M  V30 1073 C 101.126 3.70852 4.54627 0
M  V30 1074 C 103.478 4.23865 4.69597 0
M  V30 1075 C 102.142 4.62392 4.81404 0
M  V30 1076 H 101.412 0.161171 0.72326 0
M  V30 1077 H 104.059 1.07061 1.58777 0
M  V30 1078 H 102.364 -0.100849 3.9167 0
M  V30 1079 H 104.061 0.2815 4.00011 0
M  V30 1080 H 100.651 1.71338 3.92863 0
M  V30 1081 H 104.835 2.65835 4.19101 0
M  V30 1082 H 100.091 4.00501 4.61962 0
M  V30 1083 H 104.265 4.95306 4.89536 0
M  V30 1084 H 101.892 5.63154 5.10648 0
M  V30 1085 N 103.467 -1.45747 0.599634 0
M  V30 1086 C 104.692 -2.07178 0.0960198 0
M  V30 1087 C 105.117 -1.44268 -1.207 0
M  V30 1088 O 104.475 -0.532503 -1.73303 0
M  V30 1089 C 104.523 -3.60579 -0.0385348 0
M  V30 1090 O 103.627 -3.97713 -1.0908 0
M  V30 1091 H 102.968 -0.660251 0.0704593 0
M  V30 1092 H 105.498 -1.87124 0.827385 0
M  V30 1093 H 105.508 -4.07298 -0.239304 0
M  V30 1094 H 104.183 -4.05756 0.912947 0
M  V30 1095 H 102.76 -3.62678 -0.867135 0
M  V30 1096 N 104.945 -0.338344 -1.53925 0
M  V30 1097 C 105.895 0.536712 -2.21593 0
M  V30 1098 C 106.879 1.07015 -1.20153 0
M  V30 1099 O 108.071 1.00471 -1.45721 0
M  V30 1100 C 105.2 1.68977 -2.98834 0
M  V30 1101 C 104.286 1.17052 -4.07627 0
M  V30 1102 N 104.677 0.372085 -5.0443 0
M  V30 1103 C 102.975 1.44789 -4.21844 0
M  V30 1104 C 103.676 0.0909171 -5.81629 0
M  V30 1105 N 102.652 0.681131 -5.39316 0
M  V30 1106 H 106.454 -0.0804298 -2.9379 0
M  V30 1107 H 103.968 -0.144943 -1.61752 0
M  V30 1108 H 105.965 2.32857 -3.45808 0
M  V30 1109 H 104.625 2.31024 -2.28162 0
M  V30 1110 H 105.636 0.0136217 -5.17898 0
M  V30 1111 H 102.313 2.07313 -3.62391 0
M  V30 1112 H 103.703 -0.552817 -6.69622 0
M  V30 1113 N 106.423 1.57458 -0.0668435 0
M  V30 1114 C 107.671 1.92919 0.602214 0
M  V30 1115 C 107.992 0.947215 1.70449 0
M  V30 1116 O 107.262 -0.00544117 1.95899 0
M  V30 1117 H 105.842 0.71217 0.22544 0
M  V30 1118 H 108.504 1.94508 -0.123535 0
M  V30 1119 H 107.6 2.94589 1.03073 0
M  V30 1120 N 107.901 -0.206675 1.56239 0
M  V30 1121 C 109.126 -0.949474 1.8439 0
M  V30 1122 C 109.551 -1.76549 0.649016 0
M  V30 1123 O 108.909 -1.76782 -0.402231 0
M  V30 1124 C 108.957 -1.83078 3.10668 0
M  V30 1125 O 108.061 -2.9281 2.90407 0
M  V30 1126 H 107.402 -0.268033 0.607499 0
M  V30 1127 H 109.932 -0.215488 2.03462 0
M  V30 1128 H 109.942 -2.2377 3.41161 0
M  V30 1129 H 108.617 -1.23112 3.97261 0
M  V30 1130 H 107.194 -2.55956 2.71184 0
M  V30 1131 N 109.379 -1.50304 -0.473955 0
M  V30 1132 C 110.329 -1.65347 -1.56985 0
M  V30 1133 C 111.313 -0.508176 -1.52664 0
M  V30 1134 O 112.505 -0.762446 -1.59737 0
M  V30 1135 C 109.634 -1.74832 -2.95447 0
M  V30 1136 C 108.72 -2.95028 -3.04662 0
M  V30 1137 N 109.111 -4.18747 -2.83698 0
M  V30 1138 C 107.409 -2.93527 -3.35795 0
M  V30 1139 C 108.11 -4.99687 -2.97805 0
M  V30 1140 N 107.086 -4.33585 -3.2788 0
M  V30 1141 H 110.888 -2.58698 -1.39472 0
M  V30 1142 H 108.402 -1.47449 -0.680629 0
M  V30 1143 H 110.399 -1.83712 -3.7424 0
M  V30 1144 H 109.059 -0.826376 -3.14008 0
M  V30 1145 H 110.07 -4.48291 -2.59337 0
M  V30 1146 H 106.747 -2.10821 -3.60362 0
M  V30 1147 H 108.137 -6.08057 -2.85861 0
M  V30 1148 N 110.857 0.726932 -1.39834 0
M  V30 1149 C 111.767 1.87131 -1.41489 0
M  V30 1150 C 112.783 1.71239 -0.308757 0
M  V30 1151 O 113.959 1.93701 -0.551529 0
M  V30 1152 C 111.024 3.22811 -1.26468 0
M  V30 1153 C 110.085 3.51039 -2.47124 0
M  V30 1154 C 109.318 4.80245 -2.3281 0
M  V30 1155 O 109.541 5.54537 -1.33585 0
M  V30 1156 O 108.475 5.08554 -3.21957 0
M  V30 1157 H 112.301 1.8869 -2.3797 0
M  V30 1158 H 109.886 0.875837 -1.21035 0
M  V30 1159 H 111.768 4.03877 -1.20255 0
M  V30 1160 H 110.443 3.22005 -0.330862 0
M  V30 1161 H 109.35 2.70027 -2.58914 0
M  V30 1162 H 110.683 3.56632 -3.39227 0
M  V30 1163 N 112.336 1.25143 0.95797 0
M  V30 1164 C 113.613 1.00472 1.67823 0
M  V30 1165 C 113.993 -0.470056 2.058 0
M  V30 1166 O 113.341 -1.44663 1.76875 0
M  V30 1167 C 113.551 1.9372 2.90299 0
M  V30 1168 C 114.899 2.21371 3.62326 0
M  V30 1169 O 115.923 1.91451 3.00375 0
M  V30 1170 O 114.782 2.72231 4.7387 0
M  V30 1171 H 111.876 0.380752 0.734137 0
M  V30 1172 H 114.422 1.36283 1.01119 0
M  V30 1173 H 113.194 2.93316 2.59001 0
M  V30 1174 H 112.817 1.58286 3.64735 0
M  V30 1175 N 113.814 -1.1601 1.06675 0
M  V30 1176 C 114.764 -2.18512 0.650888 0
M  V30 1177 C 115.748 -1.57677 -0.320441 0
M  V30 1178 O 116.94 -1.76482 -0.135266 0
M  V30 1179 C 114.069 -3.43273 0.0429255 0
M  V30 1180 C 113.155 -4.11176 1.03898 0
M  V30 1181 N 113.546 -4.54672 2.216 0
M  V30 1182 C 111.844 -4.37417 0.870779 0
M  V30 1183 C 112.545 -5.07248 2.84736 0
M  V30 1184 N 111.521 -5.0037 2.12441 0
M  V30 1185 H 115.323 -2.49863 1.54745 0
M  V30 1186 H 112.837 -1.32503 0.938975 0
M  V30 1187 H 114.834 -4.16006 -0.272857 0
M  V30 1188 H 113.494 -3.13408 -0.84884 0
M  V30 1189 H 114.505 -4.4828 2.59356 0
M  V30 1190 H 111.182 -4.17488 0.0313293 0
M  V30 1191 H 112.572 -5.50912 3.84636 0
M  V30 1192 N 115.292 -0.849877 -1.32721 0
M  V30 1193 C 116.239 -0.289033 -2.28983 0
M  V30 1194 C 117.209 0.601324 -1.54833 0
M  V30 1195 O 118.394 0.537253 -1.8308 0
M  V30 1196 C 115.534 0.520623 -3.4115 0
M  V30 1197 C 114.647 -0.394989 -4.3019 0
M  V30 1198 C 113.782 0.426834 -5.29482 0
M  V30 1199 C 112.821 -0.486476 -6.10164 0
M  V30 1200 N 111.958 0.297879 -7.01468 0
M  V30 1201 H 116.798 -1.11519 -2.76347 0
M  V30 1202 H 114.335 -0.56138 -1.35967 0
M  V30 1203 H 116.293 1.00563 -4.04899 0
M  V30 1204 H 114.923 1.31165 -2.9495 0
M  V30 1205 H 113.975 -0.99836 -3.67065 0
M  V30 1206 H 115.287 -1.09612 -4.86607 0
M  V30 1207 H 114.441 0.975205 -5.98811 0
M  V30 1208 H 113.18 1.16136 -4.73671 0
M  V30 1209 H 112.185 -1.04677 -5.39743 0
M  V30 1210 H 113.41 -1.21953 -6.6806 0
M  V30 1211 H 111.356 1.01558 -6.48091 0
M  V30 1212 H 111.273 -0.344318 -7.55216 0
M  V30 1213 H 112.541 0.828131 -7.75089 0
M  V30 1214 N 116.77 1.45427 -0.607355 0
M  V30 1215 C 117.68 2.34325 0.113463 0
M  V30 1216 C 118.696 1.51226 0.860617 0
M  V30 1217 O 119.872 1.84029 0.818255 0
M  V30 1218 C 116.937 3.28839 1.09844 0
M  V30 1219 C 115.998 4.27844 0.353271 0
M  V30 1220 C 115.231 5.17842 1.29133 0
M  V30 1221 O 115.454 5.11264 2.52913 0
M  V30 1222 O 114.388 5.96713 0.788523 0
M  V30 1223 H 118.214 2.97364 -0.617094 0
M  V30 1224 H 115.799 1.44807 -0.367619 0
M  V30 1225 H 117.681 3.8708 1.66575 0
M  V30 1226 H 116.356 2.68365 1.81003 0
M  V30 1227 H 115.263 3.7322 -0.256494 0
M  V30 1228 H 116.596 4.91173 -0.317822 0
M  V30 1229 N 118.248 0.346503 1.53744 0
M  V30 1230 C 119.181 -0.552023 2.21423 0
M  V30 1231 C 120.159 -1.09798 1.19929 0
M  V30 1232 O 121.343 -1.1577 1.4876 0
M  V30 1233 C 118.47 -1.75972 2.89398 0
M  V30 1234 C 117.516 -1.34295 4.04805 0
M  V30 1235 S 118.349 -0.360263 5.34287 0
M  V30 1236 C 119.505 -1.57473 6.05767 0
M  V30 1237 H 119.738 0.0228119 2.97291 0
M  V30 1238 H 117.271 0.130579 1.53847 0
M  V30 1239 H 119.229 -2.45256 3.2918 0
M  V30 1240 H 117.89 -2.30578 2.1329 0
M  V30 1241 H 117.083 -2.24349 4.51313 0
M  V30 1242 H 116.685 -0.729555 3.66815 0
M  V30 1243 H 118.977 -2.50875 6.29339 0
M  V30 1244 H 119.92 -1.15138 6.98676 0
M  V30 1245 H 120.328 -1.77212 5.35963 0
M  V30 1246 N 119.726 -1.57421 0.075193 0
M  V30 1247 C 120.973 -1.93618 -0.593146 0
M  V30 1248 C 121.301 -0.955484 -1.69413 0
M  V30 1249 O 120.556 0.0283251 -1.9568 0
M  V30 1250 C 120.855 -3.36428 -1.20626 0
M  V30 1251 C 120.521 -4.50307 -0.231078 0
M  V30 1252 C 119.183 -4.81186 0.0371936 0
M  V30 1253 C 121.535 -5.19374 0.435888 0
M  V30 1254 C 118.863 -5.78466 0.979461 0
M  V30 1255 C 121.215 -6.17665 1.3665 0
M  V30 1256 C 119.879 -6.46958 1.6432 0
M  V30 1257 H 119.149 -0.708499 -0.217047 0
M  V30 1258 H 121.796 -1.90937 0.146793 0
M  V30 1259 H 120.101 -3.35592 -2.02201 0
M  V30 1260 H 121.798 -3.61727 -1.73073 0
M  V30 1261 H 118.388 -4.26227 -0.450357 0
M  V30 1262 H 122.572 -4.95711 0.241748 0
M  V30 1263 H 117.828 -5.99487 1.20106 0
M  V30 1264 H 122.002 -6.70284 1.88924 0
M  V30 1265 H 119.629 -7.2215 2.37494 0
M  V30 1266 N 121.204 0.198386 -1.56346 0
M  V30 1267 C 122.152 1.26538 -1.95169 0
M  V30 1268 C 123.146 1.47295 -0.836685 0
M  V30 1269 O 124.352 1.48195 -1.02167 0
M  V30 1270 H 120.727 0.424744 -0.620561 0
M  V30 1271 H 122.698 0.910904 -2.84157 0
M  V30 1272 C 121.447 2.6035 -2.30463 0
M  V30 1273 H 120.77 2.45192 -3.15786 0
M  V30 1274 H 122.21 3.33762 -2.61494 0
M  V30 1275 C 120.669 3.17096 -1.13806 0
M  V30 1276 O 121.199 3.99588 -0.41135 0
M  V30 1277 N 119.405 2.75795 -0.915736 0
M  V30 1278 H 118.952 2.08816 -1.50843 0
M  V30 1279 H 118.91 3.14101 -0.136979 0
M  V30 1280 N 122.682 1.50554 0.465978 0
M  V30 1281 C 123.63 1.70324 1.58406 0
M  V30 1282 C 124.624 0.569139 1.59553 0
M  V30 1283 O 125.83 0.749776 1.63641 0
M  V30 1284 H 122.205 0.537688 0.525734 0
M  V30 1285 H 124.176 2.64104 1.38894 0
M  V30 1286 C 122.925 1.81928 2.96307 0
M  V30 1287 H 122.248 2.68586 2.96144 0
M  V30 1288 H 123.688 1.99784 3.73982 0
M  V30 1289 C 122.147 0.572095 3.32007 0
M  V30 1290 O 122.677 -0.286416 4.00678 0
M  V30 1291 N 120.883 0.424606 2.87481 0
M  V30 1292 H 120.43 1.12427 2.31771 0
M  V30 1293 H 120.388 -0.408697 3.11732 0
M  V30 1294 N 124.16 -0.719506 1.40217 0
M  V30 1295 C 125.406 -1.48152 1.38488 0
M  V30 1296 C 125.739 -1.94195 -0.0141867 0
M  V30 1297 O 125.014 -1.67884 -0.982096 0
M  V30 1298 C 125.297 -2.71035 2.37091 0
M  V30 1299 C 125.15 -2.30912 3.86005 0
M  V30 1300 C 126.469 -3.73182 2.33288 0
M  V30 1301 H 123.588 -0.537395 0.504357 0
M  V30 1302 H 126.23 -0.821472 1.71324 0
M  V30 1303 H 124.38 -3.27352 2.0922 0
M  V30 1304 H 126.052 -1.80107 4.24687 0
M  V30 1305 H 124.295 -1.62958 4.02029 0
M  V30 1306 H 124.966 -3.18978 4.50508 0
M  V30 1307 H 127.442 -3.26485 2.57966 0
M  V30 1308 H 126.318 -4.56806 3.04334 0
M  V30 1309 H 126.579 -4.21202 1.34317 0
M  V30 1310 N 125.638 -1.25649 -0.95132 0
M  V30 1311 C 126.568 -1.08808 -2.06599 0
M  V30 1312 C 127.549 0.00382547 -1.701 0
M  V30 1313 O 128.734 -0.166325 -1.93486 0
M  V30 1314 C 125.864 -0.709542 -3.39975 0
M  V30 1315 C 124.818 -1.75206 -3.90496 0
M  V30 1316 C 124.144 -1.22811 -5.20405 0
M  V30 1317 C 125.444 -3.15153 -4.16504 0
M  V30 1318 H 127.138 -2.02048 -2.20946 0
M  V30 1319 H 124.684 -0.972835 -1.06169 0
M  V30 1320 H 126.637 -0.578649 -4.17408 0
M  V30 1321 H 125.361 0.258556 -3.25575 0
M  V30 1322 H 124.02 -1.87145 -3.15234 0
M  V30 1323 H 123.668 -0.250145 -5.02378 0
M  V30 1324 H 123.368 -1.92492 -5.55176 0
M  V30 1325 H 124.892 -1.10968 -6.00432 0
M  V30 1326 H 126.306 -3.06349 -4.84586 0
M  V30 1327 H 124.703 -3.82333 -4.62538 0
M  V30 1328 H 125.773 -3.61966 -3.22658 0
M  V30 1329 N 127.117 1.15442 -1.07289 0
M  V30 1330 C 128.064 2.20161 -0.692653 0
M  V30 1331 C 129.034 1.63073 0.31564 0
M  V30 1332 O 130.219 1.89725 0.202235 0
M  V30 1333 C 127.359 3.44967 -0.0959509 0
M  V30 1334 C 126.472 4.16256 -1.15564 0
M  V30 1335 C 125.607 5.28609 -0.524011 0
M  V30 1336 C 124.646 5.91715 -1.56653 0
M  V30 1337 N 123.783 6.9554 -0.957531 0
M  V30 1338 H 128.623 2.52037 -1.59002 0
M  V30 1339 H 126.16 1.2378 -0.794798 0
M  V30 1340 H 128.118 4.16341 0.267628 0
M  V30 1341 H 126.748 3.1361 0.764772 0
M  V30 1342 H 125.8 3.43385 -1.6368 0
M  V30 1343 H 127.112 4.59268 -1.94613 0
M  V30 1344 H 126.266 6.06604 -0.108032 0
M  V30 1345 H 125.005 4.86787 0.29825 0
M  V30 1346 H 124.01 5.12433 -1.9923 0
M  V30 1347 H 125.235 6.35614 -2.39107 0
M  V30 1348 H 123.181 6.55814 -0.156162 0
M  V30 1349 H 123.098 7.36977 -1.68526 0
M  V30 1350 H 124.366 7.77435 -0.567032 0
M  V30 1351 N 128.595 0.856903 1.32268 0
M  V30 1352 C 129.558 0.308171 2.27119 0
M  V30 1353 C 130.558 -0.533421 1.51695 0
M  V30 1354 O 131.748 -0.344607 1.70757 0
M  V30 1355 C 128.88 -0.563757 3.36206 0
M  V30 1356 H 130.073 1.14535 2.77167 0
M  V30 1357 H 127.626 0.631421 1.42978 0
M  V30 1358 H 128.361 -1.42266 2.91429 0
M  V30 1359 H 128.146 0.0386749 3.92081 0
M  V30 1360 H 129.636 -0.940386 4.06874 0
M  V30 1361 N 130.073 -1.45103 0.615059 0
M  V30 1362 C 131.005 -2.28786 -0.13762 0
M  V30 1363 C 132.018 -1.40376 -0.824525 0
M  V30 1364 O 133.207 -1.64681 -0.688662 0
M  V30 1365 C 130.307 -3.16322 -1.21628 0
M  V30 1366 C 129.48 -4.33054 -0.615039 0
M  V30 1367 C 128.539 -5.01743 -1.58556 0
M  V30 1368 O 127.565 -5.58293 -1.10895 0
M  V30 1369 N 128.767 -5.01714 -2.91998 0
M  V30 1370 H 131.532 -2.94025 0.580483 0
M  V30 1371 H 129.093 -1.55373 0.45507 0
M  V30 1372 H 131.085 -3.59139 -1.86552 0
M  V30 1373 H 129.655 -2.52943 -1.83681 0
M  V30 1374 H 128.875 -3.93627 0.21245 0
M  V30 1375 H 130.163 -5.08431 -0.193704 0
M  V30 1376 H 129.561 -4.57075 -3.33316 0
M  V30 1377 H 128.118 -5.48371 -3.52325 0
M  V30 1378 N 131.551 -0.354651 -1.53558 0
M  V30 1379 C 132.461 0.50515 -2.29097 0
M  V30 1380 C 133.477 1.10223 -1.34636 0
M  V30 1381 O 134.653 1.11553 -1.67684 0
M  V30 1382 C 131.718 1.63479 -3.05738 0
M  V30 1383 C 130.779 1.06636 -4.15845 0
M  V30 1384 C 130.012 2.14217 -4.88822 0
M  V30 1385 O 130.235 3.35137 -4.61562 0
M  V30 1386 O 129.169 1.77887 -5.75013 0
M  V30 1387 H 132.995 -0.109237 -3.03503 0
M  V30 1388 H 130.58 -0.119357 -1.48922 0
M  V30 1389 H 132.462 2.2918 -3.5363 0
M  V30 1390 H 131.137 2.23478 -2.34178 0
M  V30 1391 H 130.044 0.373565 -3.7223 0
M  V30 1392 H 131.377 0.511081 -4.89539 0
M  V30 1393 N 133.029 1.57378 -0.0835403 0
M  V30 1394 C 133.959 2.1641 0.87686 0
M  V30 1395 C 134.94 1.09429 1.30228 0
M  V30 1396 O 136.125 1.37516 1.37124 0
M  V30 1397 C 133.255 2.73517 2.14022 0
M  V30 1398 C 132.209 3.85769 1.85381 0
M  V30 1399 C 131.535 4.29529 3.18448 0
M  V30 1400 C 132.835 5.09486 1.14984 0
M  V30 1401 H 134.529 2.96914 0.385059 0
M  V30 1402 H 132.075 1.42823 0.18377 0
M  V30 1403 H 134.028 3.13463 2.81636 0
M  V30 1404 H 132.752 1.90252 2.65465 0
M  V30 1405 H 131.411 3.46345 1.20169 0
M  V30 1406 H 131.059 3.43169 3.67755 0
M  V30 1407 H 130.759 5.05204 3.00071 0
M  V30 1408 H 132.283 4.72099 3.8724 0
M  V30 1409 H 133.697 5.46674 1.72687 0
M  V30 1410 H 132.094 5.90515 1.06826 0
M  V30 1411 H 133.164 4.84724 0.130749 0
M  V30 1412 N 134.507 -0.190092 1.56449 0
M  V30 1413 C 135.923 -0.54113 1.50146 0
M  V30 1414 C 136.123 -1.85603 0.784465 0
M  V30 1415 O 135.179 -2.5024 0.337051 0
M  V30 1416 C 136.492 -0.591241 2.9483 0
M  V30 1417 C 138.04 -0.679732 3.0553 0
M  V30 1418 C 138.515 -0.760908 4.51635 0
M  V30 1419 N 140.006 -0.824302 4.55806 0
M  V30 1420 C 140.741 -0.907365 5.66175 0
M  V30 1421 N 140.237 -0.952422 6.86222 0
M  V30 1422 N 142.03 -0.94494 5.541 0
M  V30 1423 H 134.181 0.67235 2.01478 0
M  V30 1424 H 136.444 0.240127 0.917084 0
M  V30 1425 H 136.15 0.305905 3.50367 0
M  V30 1426 H 136.024 -1.44422 3.48457 0
M  V30 1427 H 138.411 -1.56731 2.50039 0
M  V30 1428 H 138.492 0.199549 2.5502 0
M  V30 1429 H 138.136 0.122336 5.07753 0
M  V30 1430 H 138.066 -1.65606 4.99882 0
M  V30 1431 H 140.557 -0.798526 3.69367 0
M  V30 1432 H 140.87 -1.01645 7.66086 0
M  V30 1433 H 139.215 -0.921014 6.8887 0
M  V30 1434 H 142.406 -0.906612 4.59236 0
M  V30 1435 H 142.579 -1.00622 6.4014 0
M  V30 1436 N 135.985 -1.50799 -0.457987 0
M  V30 1437 C 137.396 -1.55152 -1.0385 0
M  V30 1438 C 137.747 -0.362719 -1.92818 0
M  V30 1439 O 136.872 0.522915 -2.09987 0
M  V30 1440 C 137.467 -2.81173 -1.89017 0
M  V30 1441 C 136.026 -2.88164 -2.42154 0
M  V30 1442 C 135.173 -2.49591 -1.20829 0
M  V30 1443 H 138.124 -1.56874 -0.240068 0
M  V30 1444 H 138.145 -2.63769 -2.74238 0
M  V30 1445 H 137.657 -3.67677 -1.24238 0
M  V30 1446 H 135.758 -2.06042 -3.10447 0
M  V30 1447 H 135.871 -3.91356 -2.76364 0
M  V30 1448 H 134.235 -2.02322 -1.54719 0
M  V30 1449 H 135.018 -3.38418 -0.576927 0
M  V30 1450 N 137.463 0.71206 -1.40597 0
M  V30 1451 C 138.411 1.84746 -1.41321 0
M  V30 1452 C 139.405 1.66842 -0.293268 0
M  V30 1453 O 140.611 1.73904 -0.464481 0
M  V30 1454 H 136.986 0.608522 -0.441819 0
M  V30 1455 H 138.957 1.81252 -2.37045 0
M  V30 1456 C 137.706 3.22638 -1.29614 0
M  V30 1457 H 137.029 3.37023 -2.15071 0
M  V30 1458 H 138.469 4.02209 -1.3418 0
M  V30 1459 C 136.928 3.36899 -0.00673121 0
M  V30 1460 O 137.458 3.90186 0.954859 0
M  V30 1461 N 135.664 2.9053 0.0639327 0
M  V30 1462 H 135.211 2.47353 -0.719311 0
M  V30 1463 H 135.169 3.0045 0.926118 0
M  V30 1464 N 138.941 1.26152 0.944643 0
M  V30 1465 C 140.181 1.12708 1.70517 0
M  V30 1466 C 140.545 -0.324727 1.89234 0
M  V30 1467 O 141.746 -0.581211 2.62441 0
M  V30 1468 C 140.017 1.8713 3.04495 0
M  V30 1469 S 141.576 1.89698 3.95677 0
M  V30 1470 H 138.394 0.402665 0.585988 0
M  V30 1471 H 140.996 1.59821 1.12594 0
M  V30 1472 H 139.7 2.91833 2.88551 0
M  V30 1473 H 139.231 1.40444 3.67477 0
M  V30 1474 H 141.246 0.981198 4.86402 0
M  V30 1475 N 140.419 -1.14872 1.07899 0
M  V30 1476 C 141.349 -2.2193 0.725887 0
M  V30 1477 C 142.33 -1.67622 -0.28927 0
M  V30 1478 O 143.515 -1.93533 -0.160787 0
M  V30 1479 C 140.645 -3.47061 0.128856 0
M  V30 1480 C 139.599 -4.14363 1.07178 0
M  V30 1481 C 138.925 -5.33636 0.337229 0
M  V30 1482 C 140.225 -4.63492 2.40775 0
M  V30 1483 H 141.919 -2.51724 1.62097 0
M  V30 1484 H 139.465 -1.20991 0.780838 0
M  V30 1485 H 141.418 -4.21199 -0.130147 0
M  V30 1486 H 140.142 -3.16617 -0.80134 0
M  V30 1487 H 138.801 -3.42173 1.3158 0
M  V30 1488 H 138.449 -4.99449 -0.596606 0
M  V30 1489 H 138.149 -5.79609 0.965788 0
M  V30 1490 H 139.673 -6.10539 0.0861567 0
M  V30 1491 H 141.087 -5.2913 2.20669 0
M  V30 1492 H 139.484 -5.20148 2.99276 0
M  V30 1493 H 140.554 -3.78834 3.02676 0
M  V30 1494 N 141.898 -0.863906 -1.31812 0
M  V30 1495 C 142.828 -0.330843 -2.31144 0
M  V30 1496 C 143.809 0.575005 -1.60087 0
M  V30 1497 O 144.994 0.493304 -1.8783 0
M  V30 1498 C 142.124 0.47374 -3.44054 0
M  V30 1499 C 141.078 -0.338481 -4.26659 0
M  V30 1500 C 140.404 0.591412 -5.31419 0
M  V30 1501 C 141.704 -1.56926 -4.98168 0
M  V30 1502 H 143.398 -1.16086 -2.75979 0
M  V30 1503 H 140.944 -0.559657 -1.32679 0
M  V30 1504 H 142.897 0.857143 -4.12591 0
M  V30 1505 H 141.621 1.33721 -2.9797 0
M  V30 1506 H 140.28 -0.703754 -3.59782 0
M  V30 1507 H 139.928 1.45199 -4.81587 0
M  V30 1508 H 139.628 0.0519022 -5.87577 0
M  V30 1509 H 141.152 0.97179 -6.02817 0
M  V30 1510 H 142.566 -1.25764 -5.59336 0
M  V30 1511 H 140.963 -2.04739 -5.64094 0
M  V30 1512 H 142.033 -2.32544 -4.25501 0
M  V30 1513 N 143.376 1.44774 -0.622745 0
M  V30 1514 C 144.624 2.01721 -0.123655 0
M  V30 1515 C 144.945 1.49172 1.25589 0
M  V30 1516 O 144.215 0.691974 1.83272 0
M  V30 1517 H 142.795 0.745777 -0.0427225 0
M  V30 1518 H 145.457 1.77382 -0.807559 0
M  V30 1519 H 144.553 3.11984 -0.0849534 0
M  V30 1520 N 144.854 0.36279 1.53368 0
M  V30 1521 C 145.787 -0.528507 2.21996 0
M  V30 1522 C 146.765 -1.0852 1.21087 0
M  V30 1523 O 147.949 -1.14186 1.4998 0
M  V30 1524 C 145.076 -1.72893 2.91249 0
M  V30 1525 C 144.122 -1.29994 4.06207 0
M  V30 1526 S 144.955 -0.303575 5.34639 0
M  V30 1527 C 146.111 -1.51039 6.07403 0
M  V30 1528 H 146.344 0.0543423 2.9725 0
M  V30 1529 H 143.877 0.146889 1.537 0
M  V30 1530 H 145.835 -2.41751 3.31763 0
M  V30 1531 H 144.496 -2.28303 2.15724 0
M  V30 1532 H 143.689 -2.19549 4.53667 0
M  V30 1533 H 143.291 -0.690608 3.67569 0
M  V30 1534 H 145.583 -2.44186 6.31965 0
M  V30 1535 H 146.526 -1.07721 6.99858 0
M  V30 1536 H 146.934 -1.71518 5.37812 0
M  V30 1537 N 146.332 -1.57332 0.0918853 0
M  V30 1538 C 147.262 -2.16872 -0.865371 0
M  V30 1539 C 148.243 -1.10118 -1.29646 0
M  V30 1540 O 149.428 -1.38242 -1.36392 0
M  V30 1541 C 146.558 -2.74649 -2.12569 0
M  V30 1542 C 145.512 -3.86747 -1.83333 0
M  V30 1543 C 144.838 -4.31212 -3.16166 0
M  V30 1544 C 146.138 -5.10089 -1.1228 0
M  V30 1545 H 147.832 -2.97114 -0.369307 0
M  V30 1546 H 145.378 -1.42918 -0.176194 0
M  V30 1547 H 147.331 -3.14952 -2.7997 0
M  V30 1548 H 146.055 -1.91657 -2.64452 0
M  V30 1549 H 144.714 -3.46978 -1.18331 0
M  V30 1550 H 144.362 -3.45115 -3.6593 0
M  V30 1551 H 144.062 -5.06788 -2.97388 0
M  V30 1552 H 145.586 -4.74146 -3.84731 0
M  V30 1553 H 147 -5.47582 -1.69785 0
M  V30 1554 H 145.397 -5.91073 -1.03693 0
M  V30 1555 H 146.467 -4.84786 -0.105041 0
M  V30 1556 N 147.81 0.181792 -1.56548 0
M  V30 1557 C 148.74 1.22765 -1.98623 0
M  V30 1558 C 149.721 1.46747 -0.860189 0
M  V30 1559 O 150.906 1.58259 -1.12551 0
M  V30 1560 C 148.036 2.56894 -2.33715 0
M  V30 1561 C 146.99 2.475 -3.49182 0
M  V30 1562 C 146.316 3.86023 -3.69986 0
M  V30 1563 C 147.616 1.98866 -4.82959 0
M  V30 1564 H 149.31 0.877942 -2.86239 0
M  V30 1565 H 146.856 0.42088 -1.37712 0
M  V30 1566 H 148.809 3.30253 -2.61746 0
M  V30 1567 H 147.533 2.93632 -1.42997 0
M  V30 1568 H 146.192 1.76596 -3.21262 0
M  V30 1569 H 145.84 4.20136 -2.76576 0
M  V30 1570 H 145.54 3.80609 -4.47672 0
M  V30 1571 H 147.064 4.60984 -4.00407 0
M  V30 1572 H 148.478 2.61992 -5.09934 0
M  V30 1573 H 146.875 2.04424 -5.64208 0
M  V30 1574 H 147.945 0.942465 -4.75653 0
M  V30 1575 N 149.288 1.51039 0.449983 0
M  V30 1576 C 150.565 1.53612 1.21089 0
M  V30 1577 C 150.945 0.292997 2.09057 0
M  V30 1578 O 150.293 -0.72259 2.16774 0
M  V30 1579 C 150.503 2.84337 2.0237 0
M  V30 1580 C 151.851 3.35807 2.59843 0
M  V30 1581 O 152.875 2.85802 2.12593 0
M  V30 1582 O 151.734 4.23029 3.45989 0
M  V30 1583 H 148.828 0.617057 0.550608 0
M  V30 1584 H 151.374 1.63344 0.460082 0
M  V30 1585 H 150.146 3.66278 1.37681 0
M  V30 1586 H 149.769 2.77708 2.84542 0
M  V30 1587 N 150.766 -0.704594 1.40972 0
M  V30 1588 C 151.994 -1.49354 1.43182 0
M  V30 1589 C 152.409 -1.88768 0.0345508 0
M  V30 1590 O 151.766 -1.56184 -0.944081 0
M  V30 1591 C 151.817 -2.76187 2.33244 0
M  V30 1592 O 151.538 -2.38436 3.67532 0
M  V30 1593 C 153.039 -3.7 2.44162 0
M  V30 1594 H 150.259 -0.460559 0.487982 0
M  V30 1595 H 152.803 -0.868261 1.85153 0
M  V30 1596 H 150.958 -3.34974 1.94606 0
M  V30 1597 H 151.372 -3.20126 4.15475 0
M  V30 1598 H 152.846 -4.55803 3.11364 0
M  V30 1599 H 153.323 -4.13867 1.47006 0
M  V30 1600 H 153.929 -3.17121 2.83398 0
M  V30 1601 N 152.244 -1.26651 -0.937939 0
M  V30 1602 C 153.191 -1.0849 -2.03712 0
M  V30 1603 C 154.161 0.011033 -1.66096 0
M  V30 1604 O 155.346 -0.149353 -1.90215 0
M  V30 1605 C 152.486 -0.72735 -3.37348 0
M  V30 1606 C 151.599 -1.89986 -3.87981 0
M  V30 1607 C 150.734 -1.48513 -5.10017 0
M  V30 1608 C 149.773 -2.62575 -5.5292 0
M  V30 1609 N 148.91 -2.21762 -6.66158 0
M  V30 1610 H 153.75 -2.02551 -2.18579 0
M  V30 1611 H 151.287 -1.00844 -1.07093 0
M  V30 1612 H 153.245 -0.50092 -4.14182 0
M  V30 1613 H 151.875 0.176298 -3.22318 0
M  V30 1614 H 150.927 -2.23913 -3.07518 0
M  V30 1615 H 152.239 -2.75586 -4.15757 0
M  V30 1616 H 151.393 -1.21934 -5.94321 0
M  V30 1617 H 150.132 -0.60009 -4.83994 0
M  V30 1618 H 149.137 -2.8988 -4.67172 0
M  V30 1619 H 150.362 -3.51685 -5.80943 0
M  V30 1620 H 148.308 -1.35696 -6.41812 0
M  V30 1621 H 148.225 -3.00903 -6.93537 0
M  V30 1622 H 149.493 -1.98403 -7.53828 0
M  V30 1623 N 153.722 1.14298 -1.08507 0
M  V30 1624 C 154.97 1.84993 -0.813763 0
M  V30 1625 C 155.291 1.83405 0.662393 0
M  V30 1626 O 154.561 1.28319 1.48024 0
M  V30 1627 H 153.141 0.684966 -0.298045 0
M  V30 1628 H 155.803 1.385 -1.37126 0
M  V30 1629 H 154.899 2.89788 -1.15884 0
M  V30 1630 N 155.201 0.870884 1.31352 0
M  V30 1631 C 156.612 0.534714 1.78879 0
M  V30 1632 C 156.963 -0.948423 1.71754 0
M  V30 1633 O 156.088 -1.74055 1.28584 0
M  V30 1634 C 156.683 0.963839 3.24801 0
M  V30 1635 C 155.242 0.679311 3.70219 0
M  V30 1636 C 154.389 1.15465 2.52117 0
M  V30 1637 H 157.34 1.05651 1.18421 0
M  V30 1638 H 157.361 0.286892 3.79417 0
M  V30 1639 H 156.873 2.04332 3.29955 0
M  V30 1640 H 154.974 -0.388769 3.70566 0
M  V30 1641 H 155.087 1.25698 4.62317 0
M  V30 1642 H 153.451 0.574383 2.48139 0
M  V30 1643 H 154.234 2.24157 2.60016 0
M  V30 1644 N 156.679 -1.44442 0.630414 0
M  V30 1645 C 157.589 -2.34476 -0.0761693 0
M  V30 1646 C 158.605 -1.52576 -0.836449 0
M  V30 1647 O 159.781 -1.85307 -0.788874 0
M  V30 1648 C 156.846 -3.30545 -1.04599 0
M  V30 1649 C 155.907 -4.28352 -0.28516 0
M  V30 1650 C 155.14 -5.19831 -1.20878 0
M  V30 1651 O 155.363 -5.15223 -2.44747 0
M  V30 1652 O 154.297 -5.97892 -0.693491 0
M  V30 1653 H 158.123 -2.96345 0.664324 0
M  V30 1654 H 155.708 -1.44203 0.39061 0
M  V30 1655 H 157.59 -3.89681 -1.60396 0
M  V30 1656 H 156.265 -2.7121 -1.76711 0
M  V30 1657 H 155.172 -3.72764 0.315837 0
M  V30 1658 H 156.505 -4.90605 0.395924 0
M  V30 1659 N 158.157 -0.370918 -1.53173 0
M  V30 1660 C 159.406 0.218249 -2.00516 0
M  V30 1661 C 159.719 1.49429 -1.26215 0
M  V30 1662 O 160.925 2.16239 -1.64174 0
M  V30 1663 C 159.381 0.43948 -3.57207 0
M  V30 1664 C 158.989 -0.822244 -4.4039 0
M  V30 1665 C 160.733 0.986012 -4.1289 0
M  V30 1666 C 158.64 -0.570304 -5.88644 0
M  V30 1667 H 157.57 0.0853333 -0.749156 0
M  V30 1668 H 160.221 -0.490483 -1.76823 0
M  V30 1669 H 158.603 1.20961 -3.77074 0
M  V30 1670 H 159.777 -1.59557 -4.32294 0
M  V30 1671 H 158.092 -1.29238 -3.95836 0
M  V30 1672 H 160.689 1.18991 -5.21292 0
M  V30 1673 H 161.032 1.94972 -3.6782 0
M  V30 1674 H 161.565 0.27592 -3.96842 0
M  V30 1675 H 158.304 -1.50449 -6.38001 0
M  V30 1676 H 157.824 0.164427 -5.99575 0
M  V30 1677 H 159.503 -0.19784 -6.46697 0
M  V30 1678 N 159.635 1.57281 -0.100228 0
M  V30 1679 C 161.051 1.57527 0.256416 0
M  V30 1680 C 161.251 1.11173 1.68056 0
M  V30 1681 O 160.307 0.79053 2.39806 0
M  V30 1682 C 161.62 3.00673 0.0401747 0
M  V30 1683 C 163.168 3.12815 0.107528 0
M  V30 1684 C 163.643 4.57929 -0.0807834 0
M  V30 1685 N 165.134 4.63193 -0.0261207 0
M  V30 1686 C 165.869 5.73212 -0.146999 0
M  V30 1687 N 165.365 6.92047 -0.322999 0
M  V30 1688 N 167.158 5.62031 -0.0879044 0
M  V30 1689 H 159.309 1.85718 -1.03065 0
M  V30 1690 H 161.572 0.857446 -0.404339 0
M  V30 1691 H 161.278 3.38804 -0.943649 0
M  V30 1692 H 161.152 3.69042 0.780262 0
M  V30 1693 H 163.539 2.74554 1.08186 0
M  V30 1694 H 163.62 2.47028 -0.664134 0
M  V30 1695 H 163.264 4.96886 -1.05201 0
M  V30 1696 H 163.194 5.21783 0.710635 0
M  V30 1697 H 165.685 3.77748 0.107161 0
M  V30 1698 H 165.998 7.7173 -0.406608 0
M  V30 1699 H 164.343 6.94074 -0.358733 0
M  V30 1700 H 167.534 4.68075 0.048498 0
M  V30 1701 H 167.707 6.47734 -0.185557 0
M  V30 1702 N 161.113 -0.173488 1.56642 0
M  V30 1703 C 162.341 -0.906095 1.86004 0
M  V30 1704 C 162.756 -1.75921 0.685355 0
M  V30 1705 O 162.113 -1.79198 -0.345578 0
M  V30 1706 C 162.164 -1.78462 3.14378 0
M  V30 1707 O 161.885 -0.965914 4.27319 0
M  V30 1708 C 163.386 -2.62707 3.57071 0
M  V30 1709 H 160.606 -0.263341 0.617165 0
M  V30 1710 H 163.15 -0.174236 2.03756 0
M  V30 1711 H 161.305 -2.46984 2.98459 0
M  V30 1712 H 161.719 -1.56655 5.00559 0
M  V30 1713 H 163.193 -3.19969 4.49804 0
M  V30 1714 H 163.67 -3.37472 2.81086 0
M  V30 1715 H 164.276 -1.99521 3.75595 0
M  V30 1716 N 162.591 -1.51276 -0.441967 0
M  V30 1717 C 163.839 -1.63392 -1.18943 0
M  V30 1718 C 164.16 -0.350159 -1.9183 0
M  V30 1719 O 163.43 0.633784 -1.85364 0
M  V30 1720 H 162.01 -0.602164 -0.442049 0
M  V30 1721 H 164.672 -1.88186 -0.507165 0
M  V30 1722 H 163.768 -2.45934 -1.92154 0
M  V30 1723 N 164.069 0.697108 -1.41344 0
M  V30 1724 C 165.316 1.45714 -1.40619 0
M  V30 1725 C 165.644 1.94494 -0.0147907 0
M  V30 1726 O 164.899 1.69794 0.973066 0
M  V30 1727 C 165.198 2.68553 -2.35826 0
M  V30 1728 C 164.864 2.38438 -3.82698 0
M  V30 1729 C 163.526 2.29936 -4.22709 0
M  V30 1730 C 165.878 2.13567 -4.75435 0
M  V30 1731 C 163.206 1.94656 -5.53467 0
M  V30 1732 C 165.558 1.79797 -6.06511 0
M  V30 1733 C 164.222 1.69789 -6.45545 0
M  V30 1734 H 163.492 0.533206 -0.51456 0
M  V30 1735 H 166.139 0.796901 -1.74131 0
M  V30 1736 H 164.444 3.39503 -1.95563 0
M  V30 1737 H 166.141 3.2669 -2.32539 0
M  V30 1738 H 162.731 2.4595 -3.51008 0
M  V30 1739 H 166.915 2.19082 -4.45328 0
M  V30 1740 H 162.171 1.8546 -5.82593 0
M  V30 1741 H 166.345 1.59572 -6.77872 0
M  V30 1742 H 163.972 1.4222 -7.46778 0
M  V30 1743 N 165.547 1.27147 0.931209 0
M  V30 1744 C 166.477 1.12081 2.04842 0
M  V30 1745 C 167.458 0.0232364 1.70084 0
M  V30 1746 O 168.643 0.197085 1.93197 0
M  V30 1747 C 165.773 0.76354 3.38803 0
M  V30 1748 C 164.727 1.81396 3.87659 0
M  V30 1749 C 164.053 1.31075 5.18385 0
M  V30 1750 C 165.353 3.21739 4.11438 0
M  V30 1751 H 167.047 2.05537 2.17703 0
M  V30 1752 H 164.593 0.989603 1.04608 0
M  V30 1753 H 166.546 0.644982 4.16435 0
M  V30 1754 H 165.27 -0.206727 3.25945 0
M  V30 1755 H 163.929 1.92136 3.12217 0
M  V30 1756 H 163.577 0.330037 5.01916 0
M  V30 1757 H 163.277 2.013 5.52044 0
M  V30 1758 H 164.801 1.20506 5.98591 0
M  V30 1759 H 166.215 3.14019 4.79651 0
M  V30 1760 H 164.612 3.89644 4.56397 0
M  V30 1761 H 165.682 3.67054 3.16859 0
M  V30 1762 N 167.025 -1.13721 1.09112 0
M  V30 1763 C 167.972 -2.19031 0.727591 0
M  V30 1764 C 168.942 -1.63555 -0.289656 0
M  V30 1765 O 170.127 -1.90023 -0.172026 0
M  V30 1766 C 167.267 -3.4477 0.15082 0
M  V30 1767 C 166.38 -4.14365 1.22172 0
M  V30 1768 C 165.515 -5.27709 0.608042 0
M  V30 1769 C 164.554 -5.89147 1.66047 0
M  V30 1770 N 163.691 -6.93929 1.06806 0
M  V30 1771 H 168.531 -2.49475 1.62991 0
M  V30 1772 H 166.068 -1.22499 0.81439 0
M  V30 1773 H 168.026 -4.16714 -0.201358 0
M  V30 1774 H 166.656 -3.14787 -0.714783 0
M  V30 1775 H 165.708 -3.40737 1.69122 0
M  V30 1776 H 167.02 -4.56114 2.01895 0
M  V30 1777 H 166.174 -6.06355 0.204523 0
M  V30 1778 H 164.913 -4.872 -0.220769 0
M  V30 1779 H 163.918 -5.09198 2.07357 0
M  V30 1780 H 165.143 -6.31729 2.49189 0
M  V30 1781 H 163.089 -6.55483 0.260476 0
M  V30 1782 H 163.006 -7.34202 1.8023 0
M  V30 1783 H 164.274 -7.76434 0.690644 0
M  V30 1784 N 168.503 -0.877838 -1.30888 0
M  V30 1785 C 169.451 -0.328662 -2.30266 0
M  V30 1786 C 170.445 0.560496 -1.59859 0
M  V30 1787 O 171.651 0.445722 -1.74394 0
M  V30 1788 H 168.026 -0.0876142 -0.746879 0
M  V30 1789 H 169.997 -1.18061 -2.74051 0
M  V30 1790 C 168.746 0.448071 -3.44801 0
M  V30 1791 H 168.069 -0.226859 -3.99156 0
M  V30 1792 H 169.509 0.797541 -4.16432 0
M  V30 1793 C 167.968 1.64239 -2.94155 0
M  V30 1794 O 168.498 2.74175 -2.93583 0
M  V30 1795 N 166.704 1.47716 -2.50256 0
M  V30 1796 H 166.251 0.582821 -2.5092 0
M  V30 1797 H 166.209 2.27765 -2.16727 0
M  V30 1798 N 169.982 1.44106 -0.638065 0
M  V30 1799 C 170.929 2.30715 0.062701 0
M  V30 1800 C 171.899 1.43882 0.829883 0
M  V30 1801 O 173.084 1.72775 0.809532 0
M  V30 1802 C 170.224 3.29258 1.03358 0
M  V30 1803 C 169.337 4.31192 0.26409 0
M  V30 1804 C 168.472 5.16825 1.22741 0
M  V30 1805 C 167.511 6.10462 0.447475 0
M  V30 1806 N 166.648 6.8877 1.36161 0
M  V30 1807 H 171.488 2.90096 -0.681781 0
M  V30 1808 H 169.025 1.42925 -0.347988 0
M  V30 1809 H 170.983 3.84886 1.60992 0
M  V30 1810 H 169.613 2.71562 1.74511 0
M  V30 1811 H 168.665 3.77981 -0.428295 0
M  V30 1812 H 169.977 4.97619 -0.343052 0
M  V30 1813 H 169.131 5.77004 1.87487 0
M  V30 1814 H 167.87 4.50488 1.86847 0
M  V30 1815 H 166.875 5.49386 -0.213433 0
M  V30 1816 H 168.1 6.78837 -0.188968 0
M  V30 1817 H 166.046 6.25096 1.98975 0
M  V30 1818 H 165.963 7.51663 0.808656 0
M  V30 1819 H 167.231 7.53467 1.99769 0
M  V30 1820 N 171.46 0.379036 1.52974 0
M  V30 1821 C 172.37 -0.468639 2.29872 0
M  V30 1822 C 173.386 -1.08067 1.36373 0
M  V30 1823 O 174.562 -1.08871 1.69438 0
M  V30 1824 C 171.627 -1.58594 3.083 0
M  V30 1825 C 170.688 -1.00007 4.17489 0
M  V30 1826 C 169.921 -2.06413 4.92168 0
M  V30 1827 O 170.144 -3.27751 4.66835 0
M  V30 1828 O 169.078 -1.68717 5.7777 0
M  V30 1829 H 172.904 0.157508 3.03291 0
M  V30 1830 H 170.489 0.143035 1.48714 0
M  V30 1831 H 172.371 -2.23525 3.57232 0
M  V30 1832 H 171.046 -2.19724 2.37703 0
M  V30 1833 H 169.953 -0.314299 3.72777 0
M  V30 1834 H 171.286 -0.433135 4.90291 0
M  V30 1835 N 172.938 -1.57226 0.108567 0
M  V30 1836 C 174.184 -1.95121 -0.552761 0
M  V30 1837 C 174.517 -0.991345 -1.66991 0
M  V30 1838 O 173.792 -0.0267211 -1.94482 0
M  V30 1839 C 174.075 -3.43039 -1.09528 0
M  V30 1840 C 173.928 -4.49797 0.0177332 0
M  V30 1841 C 175.247 -3.92567 -1.98945 0
M  V30 1842 H 172.366 -0.709496 -0.199461 0
M  V30 1843 H 175.008 -1.89126 0.182011 0
M  V30 1844 H 173.158 -3.48279 -1.72146 0
M  V30 1845 H 174.83 -4.56661 0.652584 0
M  V30 1846 H 173.073 -4.284 0.682309 0
M  V30 1847 H 173.744 -5.50528 -0.402919 0
M  V30 1848 H 176.22 -3.89565 -1.46214 0
M  V30 1849 H 175.096 -4.96605 -2.33827 0
M  V30 1850 H 175.357 -3.32648 -2.91201 0
M  V30 1851 N 174.416 0.165178 -1.56732 0
M  V30 1852 C 175.366 1.20917 -1.93295 0
M  V30 1853 C 176.35 1.39488 -0.801985 0
M  V30 1854 O 177.542 1.41356 -1.06525 0
M  V30 1855 C 174.671 2.54718 -2.3016 0
M  V30 1856 C 173.757 2.39815 -3.49785 0
M  V30 1857 N 174.148 1.94637 -4.66851 0
M  V30 1858 C 172.446 2.70623 -3.54513 0
M  V30 1859 C 173.147 1.92344 -5.4898 0
M  V30 1860 N 172.123 2.34978 -4.9019 0
M  V30 1861 H 175.925 0.851675 -2.81289 0
M  V30 1862 H 173.439 0.373399 -1.58049 0
M  V30 1863 H 175.436 3.30165 -2.54552 0
M  V30 1864 H 174.096 2.91265 -1.43508 0
M  V30 1865 H 175.107 1.6488 -4.90953 0
M  V30 1866 H 171.784 3.11167 -2.78354 0
M  V30 1867 H 173.174 1.5906 -6.52801 0
M  V30 1868 N 175.894 1.51508 0.433938 0
M  V30 1869 C 176.824 1.76016 1.53429 0
M  V30 1870 C 177.805 0.610112 1.58782 0
M  V30 1871 O 178.99 0.853177 1.74455 0
M  V30 1872 C 176.12 1.88831 2.9148 0
M  V30 1873 C 175.074 3.04288 3.00987 0
M  V30 1874 C 174.4 3.0229 4.4105 0
M  V30 1875 C 175.7 4.44193 2.74754 0
M  V30 1876 H 177.394 2.68152 1.33171 0
M  V30 1877 H 174.94 1.29035 0.639214 0
M  V30 1878 H 176.893 2.04559 3.6842 0
M  V30 1879 H 175.617 0.933455 3.12976 0
M  V30 1880 H 174.276 2.8827 2.26486 0
M  V30 1881 H 173.924 2.04576 4.59519 0
M  V30 1882 H 173.624 3.79822 4.4834 0
M  V30 1883 H 175.148 3.20116 5.1996 0
M  V30 1884 H 176.562 4.60544 3.41426 0
M  V30 1885 H 174.959 5.23457 2.9345 0
M  V30 1886 H 176.029 4.53996 1.70339 0
M  V30 1887 N 177.372 -0.689602 1.41712 0
M  V30 1888 C 178.319 -1.80345 1.44029 0
M  V30 1889 C 179.289 -1.63478 0.293948 0
M  V30 1890 O 180.474 -1.84244 0.495869 0
M  V30 1891 C 177.614 -3.18272 1.33405 0
M  V30 1892 C 176.727 -3.46529 2.57956 0
M  V30 1893 C 175.862 -4.74103 2.39582 0
M  V30 1894 C 174.901 -4.95347 3.5958 0
M  V30 1895 N 174.038 -6.14151 3.40239 0
M  V30 1896 H 178.878 -1.77698 2.39222 0
M  V30 1897 H 176.415 -0.867688 1.18784 0
M  V30 1898 H 178.373 -3.97956 1.25246 0
M  V30 1899 H 177.003 -3.2008 0.418164 0
M  V30 1900 H 176.055 -2.61207 2.76542 0
M  V30 1901 H 177.367 -3.58126 3.47199 0
M  V30 1902 H 176.521 -5.61853 2.28924 0
M  V30 1903 H 175.26 -4.64763 1.47805 0
M  V30 1904 H 174.265 -4.06044 3.70686 0
M  V30 1905 H 175.49 -5.06542 4.52318 0
M  V30 1906 H 173.436 -6.06013 2.51167 0
M  V30 1907 H 173.353 -6.26543 4.23061 0
M  V30 1908 H 174.621 -7.04619 3.33365 0
M  V30 1909 N 178.85 -1.27639 -0.924453 0
M  V30 1910 C 179.76 -1.12466 -2.05885 0
M  V30 1911 C 180.776 -0.053869 -1.73917 0
M  V30 1912 O 181.952 -0.261012 -1.99702 0
M  V30 1913 C 179.017 -0.776768 -3.37886 0
M  V30 1914 C 178.078 -1.92878 -3.83532 0
M  V30 1915 C 177.311 -1.59739 -5.09234 0
M  V30 1916 O 177.534 -0.506782 -5.68144 0
M  V30 1917 O 176.468 -2.43761 -5.50331 0
M  V30 1918 H 180.294 -2.07671 -2.21599 0
M  V30 1919 H 177.879 -1.06857 -1.04413 0
M  V30 1920 H 179.761 -0.596229 -4.17161 0
M  V30 1921 H 178.436 0.145732 -3.23372 0
M  V30 1922 H 177.343 -2.1644 -3.0513 0
M  V30 1923 H 178.676 -2.8316 -4.02593 0
M  V30 1924 N 180.328 1.1314 -1.09713 0
M  V30 1925 C 181.576 1.84119 -0.833338 0
M  V30 1926 C 181.897 1.84097 0.642904 0
M  V30 1927 O 181.167 1.29881 1.46655 0
M  V30 1928 H 179.747 0.681766 -0.305293 0
M  V30 1929 H 182.409 1.37038 -1.38588 0
M  V30 1930 H 181.505 2.88543 -1.18951 0
M  V30 1931 N 181.806 0.884767 1.30421 0
M  V30 1932 C 183.031 0.517288 2.00845 0
M  V30 1933 C 183.456 -0.886779 1.65885 0
M  V30 1934 O 182.814 -1.58768 0.875354 0
M  V30 1935 C 182.862 0.698994 3.5376 0
M  V30 1936 O 181.966 -0.255208 4.1161 0
M  V30 1937 H 181.307 0.203872 0.631927 0
M  V30 1938 H 183.837 1.19225 1.66272 0
M  V30 1939 H 183.847 0.597912 4.03595 0
M  V30 1940 H 182.522 1.72271 3.78544 0
M  V30 1941 H 181.099 -0.10784 3.72744 0
M  V30 1942 N 183.284 -1.43765 0.645699 0
M  V30 1943 C 184.231 -2.30745 -0.0504648 0
M  V30 1944 C 185.201 -1.4432 -0.822241 0
M  V30 1945 O 186.386 -1.73202 -0.800358 0
M  V30 1946 C 183.526 -3.29802 -1.0161 0
M  V30 1947 C 182.639 -4.31326 -0.241219 0
M  V30 1948 C 181.774 -5.17469 -1.19998 0
M  V30 1949 C 180.813 -6.10691 -0.415094 0
M  V30 1950 N 179.95 -6.89483 -1.32506 0
M  V30 1951 H 184.79 -2.8973 0.697155 0
M  V30 1952 H 182.327 -1.42738 0.355563 0
M  V30 1953 H 184.285 -3.85734 -1.58949 0
M  V30 1954 H 182.915 -2.72483 -1.73069 0
M  V30 1955 H 181.967 -3.77749 0.448334 0
M  V30 1956 H 183.279 -4.9743 0.369437 0
M  V30 1957 H 182.433 -5.7799 -1.84424 0
M  V30 1958 H 181.172 -4.51473 -1.84455 0
M  V30 1959 H 180.177 -5.49265 0.242565 0
M  V30 1960 H 181.402 -6.78727 0.224966 0
M  V30 1961 H 179.348 -6.26142 -1.95657 0
M  V30 1962 H 179.265 -7.52081 -0.768783 0
M  V30 1963 H 180.533 -7.54516 -1.9577 0
M  V30 1964 N 184.763 -0.387143 -1.52771 0
M  V30 1965 C 185.693 0.440551 -2.29306 0
M  V30 1966 C 186.674 1.06535 -1.32606 0
M  V30 1967 O 187.859 1.07853 -1.61497 0
M  V30 1968 C 184.989 1.56919 -3.09829 0
M  V30 1969 C 183.943 1.07054 -4.14395 0
M  V30 1970 C 183.269 2.29109 -4.83129 0
M  V30 1971 C 184.569 0.140015 -5.22112 0
M  V30 1972 H 186.263 -0.198026 -2.98744 0
M  V30 1973 H 183.809 -0.09668 -1.43675 0
M  V30 1974 H 185.762 2.15503 -3.62128 0
M  V30 1975 H 184.486 2.23532 -2.3812 0
M  V30 1976 H 183.145 0.507247 -3.63074 0
M  V30 1977 H 182.793 2.94227 -4.0797 0
M  V30 1978 H 182.493 1.96406 -5.53804 0
M  V30 1979 H 184.017 2.88339 -5.38231 0
M  V30 1980 H 185.431 0.633978 -5.69784 0
M  V30 1981 H 183.828 -0.0971485 -6.00021 0
M  V30 1982 H 184.898 -0.811711 -4.78058 0
M  V30 1983 N 186.241 1.57166 -0.116904 0
M  V30 1984 C 187.188 2.15202 0.83408 0
M  V30 1985 C 188.158 1.07644 1.26499 0
M  V30 1986 O 189.343 1.35541 1.34288 0
M  V30 1987 C 186.483 2.75405 2.07957 0
M  V30 1988 C 185.596 3.97264 1.69721 0
M  V30 1989 C 184.731 4.45561 2.89221 0
M  V30 1990 C 183.77 5.59956 2.47215 0
M  V30 1991 N 182.907 6.03006 3.59622 0
M  V30 1992 H 187.747 2.96141 0.332335 0
M  V30 1993 H 185.284 1.46309 0.152349 0
M  V30 1994 H 187.242 3.08439 2.80929 0
M  V30 1995 H 185.872 1.97159 2.55594 0
M  V30 1996 H 184.924 3.70404 0.866316 0
M  V30 1997 H 186.236 4.80226 1.34849 0
M  V30 1998 H 185.39 4.80493 3.7042 0
M  V30 1999 H 184.129 3.61544 3.27318 0
M  V30 2000 H 183.134 5.2463 1.64448 0
M  V30 2001 H 184.359 6.45738 2.10238 0
M  V30 2002 H 182.305 5.21931 3.97396 0
M  V30 2003 H 182.222 6.80819 3.28667 0
M  V30 2004 H 183.49 6.42576 4.41267 0
M  V30 2005 N 187.719 -0.156864 1.56817 0
M  V30 2006 C 188.649 -1.19589 2.00551 0
M  V30 2007 C 189.63 -1.4536 0.883426 0
M  V30 2008 O 190.815 -1.56449 1.15054 0
M  V30 2009 C 187.945 -2.53143 2.37773 0
M  V30 2010 C 186.899 -2.41913 3.53075 0
M  V30 2011 C 186.225 -3.80088 3.76081 0
M  V30 2012 C 187.525 -1.91157 4.86062 0
M  V30 2013 H 189.219 -0.832293 2.87599 0
M  V30 2014 H 186.765 -0.398918 1.38364 0
M  V30 2015 H 188.718 -3.26047 2.66967 0
M  V30 2016 H 187.442 -2.91319 1.4765 0
M  V30 2017 H 186.101 -1.71462 3.24031 0
M  V30 2018 H 185.749 -4.15683 2.83225 0
M  V30 2019 H 185.449 -3.73439 4.53671 0
M  V30 2020 H 186.973 -4.54556 4.0769 0
M  V30 2021 H 188.387 -2.53846 5.14038 0
M  V30 2022 H 186.784 -1.95422 5.67389 0
M  V30 2023 H 187.854 -0.866673 4.77092 0
M  V30 2024 N 189.197 -1.51736 -0.425897 0
M  V30 2025 C 190.443 -1.65214 -1.1761 0
M  V30 2026 C 190.776 -0.372778 -1.90589 0
M  V30 2027 O 190.051 0.628139 -1.84078 0
M  V30 2028 C 190.334 -2.86312 -2.18398 0
M  V30 2029 C 190.187 -4.24254 -1.49426 0
M  V30 2030 C 191.506 -3.02925 -3.19256 0
M  V30 2031 H 188.625 -0.601263 -0.426206 0
M  V30 2032 H 191.267 -1.8425 -0.463882 0
M  V30 2033 H 189.417 -2.70213 -2.79137 0
M  V30 2034 H 191.089 -4.52046 -0.919362 0
M  V30 2035 H 189.332 -4.26426 -0.796432 0
M  V30 2036 H 190.003 -5.05001 -2.22885 0
M  V30 2037 H 192.479 -3.1781 -2.68581 0
M  V30 2038 H 191.355 -3.89199 -3.8706 0
M  V30 2039 H 191.616 -2.15497 -3.86023 0
M  V30 2040 N 190.675 0.682077 -1.42076 0
M  V30 2041 C 191.903 1.47057 -1.4554 0
M  V30 2042 C 192.318 1.8869 -0.0645779 0
M  V30 2043 O 191.675 1.57666 0.919115 0
M  V30 2044 C 191.726 2.72442 -2.37609 0
M  V30 2045 O 191.447 2.32559 -3.71279 0
M  V30 2046 C 192.948 3.66069 -2.50017 0
M  V30 2047 H 190.168 0.452737 -0.495248 0
M  V30 2048 H 192.712 0.838695 -1.8651 0
M  V30 2049 H 190.867 3.31835 -1.9991 0
M  V30 2050 H 191.281 3.13475 -4.20516 0
M  V30 2051 H 192.755 4.50792 -3.18576 0
M  V30 2052 H 193.232 4.11476 -1.53572 0
M  V30 2053 H 193.838 3.12572 -2.88407 0
M  V30 2054 N 192.153 1.28127 0.917671 0
M  V30 2055 C 193.43 1.05761 1.64542 0
M  V30 2056 C 193.81 -0.404344 2.07191 0
M  V30 2057 O 193.158 -1.38963 1.81388 0
M  V30 2058 C 193.368 2.02857 2.83989 0
M  V30 2059 C 194.716 2.32786 3.551 0
M  V30 2060 O 195.74 2.0091 2.94132 0
M  V30 2061 O 194.599 2.87169 4.64969 0
M  V30 2062 H 191.693 0.403916 0.721652 0
M  V30 2063 H 194.239 1.39431 0.967322 0
M  V30 2064 H 193.011 3.01407 2.49538 0
M  V30 2065 H 192.634 1.69809 3.59514 0
M  V30 2066 N 193.631 -1.12557 1.10312 0
M  V30 2067 C 194.861 -1.87592 0.865617 0
M  V30 2068 C 195.269 -1.79851 -0.587389 0
M  V30 2069 O 194.612 -1.16949 -1.41664 0
M  V30 2070 C 194.674 -3.37665 1.23381 0
M  V30 2071 C 194.338 -3.69181 2.69359 0
M  V30 2072 C 195.335 -3.67652 3.67597 0
M  V30 2073 C 193.02 -3.98555 3.05711 0
M  V30 2074 C 195.014 -3.95053 5.00212 0
M  V30 2075 C 192.701 -4.25616 4.38514 0
M  V30 2076 C 193.699 -4.23851 5.35574 0
M  V30 2077 O 193.387 -4.50242 6.65986 0
M  V30 2078 H 193.119 -0.600442 0.310557 0
M  V30 2079 H 195.673 -1.4335 1.47105 0
M  V30 2080 H 193.903 -3.82454 0.571467 0
M  V30 2081 H 195.592 -3.94041 0.973994 0
M  V30 2082 H 196.358 -3.45024 3.40857 0
M  V30 2083 H 192.237 -3.99071 2.30789 0
M  V30 2084 H 195.781 -3.93591 5.75962 0
M  V30 2085 H 191.678 -4.47718 4.64994 0
M  V30 2086 H 192.446 -4.67867 6.71597 0
M  V30 2087 N 195.109 -0.891671 -1.2995 0
M  V30 2088 C 196.019 -0.367691 -2.31701 0
M  V30 2089 C 197.035 0.533486 -1.6562 0
M  V30 2090 O 198.211 0.424997 -1.96865 0
M  V30 2091 C 195.276 0.403406 -3.44345 0
M  V30 2092 C 194.337 -0.528328 -4.26037 0
M  V30 2093 C 193.57 0.206063 -5.33302 0
M  V30 2094 O 193.793 1.43119 -5.52153 0
M  V30 2095 O 192.727 -0.447281 -6.00236 0
M  V30 2096 H 196.553 -1.21163 -2.78484 0
M  V30 2097 H 194.138 -0.655725 -1.34241 0
M  V30 2098 H 196.02 0.839753 -4.12948 0
M  V30 2099 H 194.695 1.22354 -2.99685 0
M  V30 2100 H 193.602 -1.01362 -3.60106 0
M  V30 2101 H 194.935 -1.31465 -4.74318 0
M  V30 2102 N 196.587 1.43421 -0.653314 0
M  V30 2103 C 197.834 2.01812 -0.166745 0
M  V30 2104 C 198.162 1.51535 1.21931 0
M  V30 2105 O 197.417 0.698975 1.82792 0
M  V30 2106 C 197.716 3.57176 -0.126623 0
M  V30 2107 C 197.382 4.26798 -1.45444 0
M  V30 2108 C 196.044 4.45534 -1.81805 0
M  V30 2109 C 198.396 4.66225 -2.32989 0
M  V30 2110 C 195.724 5.00961 -3.05377 0
M  V30 2111 C 198.076 5.23021 -3.55853 0
M  V30 2112 C 196.74 5.39973 -3.9241 0
M  V30 2113 H 196.01 0.738484 -0.0610162 0
M  V30 2114 H 198.657 1.71896 -0.84404 0
M  V30 2115 H 196.962 3.86634 0.634123 0
M  V30 2116 H 198.659 4.00112 0.266723 0
M  V30 2117 H 195.249 4.12561 -1.16153 0
M  V30 2118 H 199.433 4.51443 -2.06187 0
M  V30 2119 H 194.689 5.12271 -3.3375 0
M  V30 2120 H 198.863 5.52518 -4.23907 0
M  V30 2121 H 196.49 5.82687 -4.88242 0
M  V30 2122 N 198.065 0.39524 1.52563 0
M  V30 2123 C 198.995 -0.428384 2.29537 0
M  V30 2124 C 199.976 -1.05831 1.33169 0
M  V30 2125 O 201.161 -1.06995 1.62067 0
M  V30 2126 C 198.291 -1.55274 3.10656 0
M  V30 2127 C 197.245 -1.04855 4.14957 0
M  V30 2128 C 196.571 -2.26543 4.84337 0
M  V30 2129 C 197.871 -0.112324 5.22179 0
M  V30 2130 H 199.565 0.213867 2.98635 0
M  V30 2131 H 197.111 0.104298 1.43622 0
M  V30 2132 H 199.064 -2.1358 3.63265 0
M  V30 2133 H 197.788 -2.22266 2.39302 0
M  V30 2134 H 196.447 -0.487985 3.63338 0
M  V30 2135 H 196.095 -2.92059 4.09525 0
M  V30 2136 H 195.795 -1.93466 5.54837 0
M  V30 2137 H 197.319 -2.85481 5.39753 0
M  V30 2138 H 198.733 -0.603752 5.70112 0
M  V30 2139 H 197.13 0.128968 5.99961 0
M  V30 2140 H 198.2 0.837052 4.77621 0
M  V30 2141 N 199.544 -1.57102 0.125237 0
M  V30 2142 C 200.792 -1.95021 -0.530198 0
M  V30 2143 C 201.113 -1.00982 -1.66816 0
M  V30 2144 O 200.383 -0.0672693 -1.95784 0
M  V30 2145 H 198.963 -0.720046 -0.198853 0
M  V30 2146 H 201.625 -1.93916 0.19564 0
M  V30 2147 H 200.721 -2.98211 -0.920681 0
M  V30 2148 N 201.022 0.148545 -1.56898 0
M  V30 2149 C 202.299 0.890019 -1.74178 0
M  V30 2150 C 202.679 1.99407 -0.692839 0
M  V30 2151 O 202.027 2.26671 0.288505 0
M  V30 2152 C 202.237 1.43389 -3.18183 0
M  V30 2153 C 203.585 1.89791 -3.79822 0
M  V30 2154 O 204.609 1.53134 -3.21603 0
M  V30 2155 O 203.468 2.57387 -4.82093 0
M  V30 2156 H 200.562 0.420496 -0.712118 0
M  V30 2157 H 203.108 0.134591 -1.69165 0
M  V30 2158 H 201.88 0.640383 -3.86024 0
M  V30 2159 H 201.503 2.25287 -3.27615 0
M  V30 2160 N 202.5 1.5196 0.417844 0
M  V30 2161 C 203.41 1.77554 1.53336 0
M  V30 2162 C 204.426 0.660655 1.6097 0
M  V30 2163 O 205.602 0.945099 1.77848 0
M  V30 2164 C 202.667 1.91291 2.89152 0
M  V30 2165 C 201.728 3.15183 2.91475 0
M  V30 2166 C 200.961 3.28256 4.20813 0
M  V30 2167 O 201.184 2.46798 5.14244 0
M  V30 2168 O 200.118 4.21356 4.29817 0
M  V30 2169 H 203.944 2.7222 1.34647 0
M  V30 2170 H 201.529 1.36698 0.602828 0
M  V30 2171 H 203.411 2.02199 3.69721 0
M  V30 2172 H 202.086 0.998129 3.07927 0
M  V30 2173 H 200.993 3.09739 2.09791 0
M  V30 2174 H 202.326 4.06414 2.77648 0
M  V30 2175 N 203.978 -0.674533 1.42435 0
M  V30 2176 C 205.206 -1.46283 1.46317 0
M  V30 2177 C 205.621 -1.88653 0.0745836 0
M  V30 2178 O 204.978 -1.58151 -0.91074 0
M  V30 2179 C 205.029 -2.71178 2.3905 0
M  V30 2180 O 204.75 -2.30586 3.72507 0
M  V30 2181 C 206.251 -3.64738 2.51955 0
M  V30 2182 H 203.471 -0.450104 0.497642 0
M  V30 2183 H 206.015 -0.828792 1.86953 0
M  V30 2184 H 204.17 -3.3077 2.01667 0
M  V30 2185 H 204.584 -3.11241 4.22172 0
M  V30 2186 H 206.058 -4.49096 3.20962 0
M  V30 2187 H 206.535 -4.10656 1.55752 0
M  V30 2188 H 207.141 -3.11038 2.90061 0
M  V30 2189 N 205.456 -1.28612 -0.910864 0
M  V30 2190 C 206.696 -1.1719 -1.67469 0
M  V30 2191 C 207.06 0.274441 -1.90028 0
M  V30 2192 O 208.261 0.511425 -2.6389 0
M  V30 2193 C 206.532 -1.95137 -2.99427 0
M  V30 2194 S 208.091 -2.00122 -3.90508 0
M  V30 2195 H 204.909 -0.41806 -0.575106 0
M  V30 2196 H 207.511 -1.6275 -1.08317 0
M  V30 2197 H 206.215 -2.99381 -2.80712 0
M  V30 2198 H 205.746 -1.50137 -3.63624 0
M  V30 2199 H 207.761 -1.10981 -4.8363 0
M  V30 2200 N 206.934 1.1197 -1.10907 0
M  V30 2201 C 208.183 1.82947 -0.849302 0
M  V30 2202 C 208.496 1.85275 0.627112 0
M  V30 2203 O 209.702 2.52296 1.00295 0
M  V30 2204 C 208.158 3.28529 -1.46959 0
M  V30 2205 C 207.766 3.34546 -2.97965 0
M  V30 2206 C 209.51 4.04443 -1.28942 0
M  V30 2207 C 207.417 4.74491 -3.53004 0
M  V30 2208 H 206.347 0.685477 -0.314065 0
M  V30 2209 H 208.998 1.2604 -1.33365 0
M  V30 2210 H 207.38 3.85333 -0.912917 0
M  V30 2211 H 208.554 2.87654 -3.59989 0
M  V30 2212 H 206.869 2.72108 -3.15192 0
M  V30 2213 H 209.466 5.07787 -1.67502 0
M  V30 2214 H 209.809 4.15656 -0.231456 0
M  V30 2215 H 210.342 3.5401 -1.81443 0
M  V30 2216 H 207.081 4.68474 -4.58489 0
M  V30 2217 H 206.601 5.21816 -2.9575 0
M  V30 2218 H 208.28 5.4344 -3.51115 0
M  V30 2219 N 208.412 0.89855 1.29475 0
M  V30 2220 C 209.375 0.380272 2.26023 0
M  V30 2221 C 210.375 -0.484891 1.53315 0
M  V30 2222 O 211.565 -0.290108 1.71767 0
M  V30 2223 C 208.697 -0.45651 3.3783 0
M  V30 2224 H 209.89 1.23295 2.73383 0
M  V30 2225 H 207.443 0.676589 1.40897 0
M  V30 2226 H 208.178 -1.32922 2.95808 0
M  V30 2227 H 207.963 0.163393 3.91759 0
M  V30 2228 H 209.453 -0.810466 4.0966 0
M  V30 2229 N 209.89 -1.43072 0.660911 0
M  V30 2230 C 211.13 -2.03596 0.181146 0
M  V30 2231 C 211.494 -1.51057 -1.18515 0
M  V30 2232 O 212.695 -2.03275 -1.75877 0
M  V30 2233 C 210.966 -3.56845 0.19911 0
M  V30 2234 S 212.525 -4.38289 -0.211684 0
M  V30 2235 H 209.343 -0.706954 0.0757479 0
M  V30 2236 H 211.945 -1.75027 0.870965 0
M  V30 2237 H 210.649 -3.92583 1.1961 0
M  V30 2238 H 210.18 -3.90067 -0.510996 0
M  V30 2239 H 212.195 -4.74583 -1.44863 0
M  V30 2240 N 211.368 -0.403325 -1.52352 0
M  V30 2241 C 212.593 0.176499 -2.06648 0
M  V30 2242 C 213.018 1.38577 -1.27193 0
M  V30 2243 O 212.376 1.7879 -0.300637 0
M  V30 2244 C 212.424 0.511061 -3.5696 0
M  V30 2245 O 211.528 1.60294 -3.79973 0
M  V30 2246 H 210.869 0.0167337 -0.663789 0
M  V30 2247 H 213.399 -0.574848 -1.96359 0
M  V30 2248 H 213.409 0.771362 -4.00642 0
M  V30 2249 H 212.084 -0.37296 -4.14224 0
M  V30 2250 H 210.661 1.33526 -3.48174 0
M  V30 2251 N 212.846 1.57033 -0.133567 0
M  V30 2252 C 214.076 1.99754 0.527429 0
M  V30 2253 C 214.484 1.01245 1.59832 0
M  V30 2254 O 213.827 -0.000645496 1.837 0
M  V30 2255 C 213.889 3.38903 1.19939 0
M  V30 2256 C 213.553 4.56174 0.274709 0
M  V30 2257 C 214.55 5.17563 -0.492398 0
M  V30 2258 C 212.235 5.01972 0.18153 0
M  V30 2259 C 214.229 6.2315 -1.34027 0
M  V30 2260 C 211.916 6.07416 -0.669958 0
M  V30 2261 C 212.914 6.67874 -1.42947 0
M  V30 2262 O 212.602 7.71279 -2.2668 0
M  V30 2263 H 212.334 0.660702 0.142999 0
M  V30 2264 H 214.888 2.04207 -0.221099 0
M  V30 2265 H 213.118 3.31248 1.99528 0
M  V30 2266 H 214.807 3.65818 1.75875 0
M  V30 2267 H 215.573 4.83087 -0.430367 0
M  V30 2268 H 211.452 4.54652 0.762422 0
M  V30 2269 H 214.996 6.70268 -1.93357 0
M  V30 2270 H 210.893 6.41321 -0.73333 0
M  V30 2271 H 211.661 7.88441 -2.1978 0
M  V30 2272 N 214.325 -0.140222 1.56975 0
M  V30 2273 C 215.272 -1.17292 1.98774 0
M  V30 2274 C 216.242 -1.4232 0.856408 0
M  V30 2275 O 217.427 -1.54541 1.119 0
M  V30 2276 C 214.567 -2.49973 2.37923 0
M  V30 2277 C 213.68 -2.32062 3.64378 0
M  V30 2278 C 212.815 -3.57825 3.926 0
M  V30 2279 C 211.854 -3.3498 5.12303 0
M  V30 2280 N 210.991 -4.52891 5.36502 0
M  V30 2281 H 215.831 -0.809472 2.86795 0
M  V30 2282 H 213.368 -0.388237 1.41884 0
M  V30 2283 H 215.326 -3.27346 2.58652 0
M  V30 2284 H 213.956 -2.84252 1.52972 0
M  V30 2285 H 213.008 -1.45711 3.51387 0
M  V30 2286 H 214.32 -2.11145 4.51906 0
M  V30 2287 H 213.474 -4.43624 4.13863 0
M  V30 2288 H 212.213 -3.81753 3.03506 0
M  V30 2289 H 211.218 -2.4757 4.90906 0
M  V30 2290 H 212.443 -3.12444 6.02956 0
M  V30 2291 H 210.389 -4.76979 4.50363 0
M  V30 2292 H 210.306 -4.35001 6.18312 0
M  V30 2293 H 211.574 -5.39884 5.62268 0
M  V30 2294 N 215.803 -1.52179 -0.40978 0
M  V30 2295 C 216.75 -1.75475 -1.49924 0
M  V30 2296 C 217.72 -0.597175 -1.54994 0
M  V30 2297 O 218.905 -0.834655 -1.71575 0
M  V30 2298 C 216.045 -1.9107 -2.87378 0
M  V30 2299 C 215.158 -3.18717 -2.91622 0
M  V30 2300 C 214.293 -3.24747 -4.20372 0
M  V30 2301 C 213.332 -4.46598 -4.18588 0
M  V30 2302 N 212.469 -4.50025 -5.38908 0
M  V30 2303 H 217.309 -2.68458 -1.29361 0
M  V30 2304 H 214.846 -1.33024 -0.627934 0
M  V30 2305 H 216.804 -1.98096 -3.6717 0
M  V30 2306 H 215.434 -1.01469 -3.06437 0
M  V30 2307 H 214.486 -3.20866 -2.04326 0
M  V30 2308 H 215.798 -4.08544 -2.86169 0
M  V30 2309 H 214.952 -3.30841 -5.08556 0
M  V30 2310 H 213.691 -2.32857 -4.28519 0
M  V30 2311 H 212.696 -4.40652 -3.28794 0
M  V30 2312 H 213.921 -5.39783 -4.12081 0
M  V30 2313 H 211.867 -3.61017 -5.47725 0
M  V30 2314 H 211.784 -5.33697 -5.35447 0
M  V30 2315 H 213.052 -4.60347 -6.29048 0
M  V30 2316 N 217.281 0.66697 -1.42791 0
M  V30 2317 C 218.211 1.79218 -1.49677 0
M  V30 2318 C 219.192 1.66405 -0.352623 0
M  V30 2319 O 220.377 1.85708 -0.567993 0
M  V30 2320 C 217.507 3.17565 -1.40605 0
M  V30 2321 C 216.461 3.45124 -2.53127 0
M  V30 2322 C 215.787 4.83127 -2.29112 0
M  V30 2323 C 217.087 3.41236 -3.95418 0
M  V30 2324 H 218.781 1.73713 -2.43853 0
M  V30 2325 H 216.327 0.83432 -1.17367 0
M  V30 2326 H 218.28 3.96022 -1.44029 0
M  V30 2327 H 217.004 3.23767 -0.429271 0
M  V30 2328 H 215.663 2.69031 -2.49034 0
M  V30 2329 H 215.311 4.85988 -1.29709 0
M  V30 2330 H 215.011 5.02528 -3.04531 0
M  V30 2331 H 216.535 5.63859 -2.34297 0
M  V30 2332 H 217.949 4.09651 -4.01073 0
M  V30 2333 H 216.346 3.72173 -4.70752 0
M  V30 2334 H 217.416 2.39665 -4.21532 0
M  V30 2335 N 218.759 1.29093 0.90403 0
M  V30 2336 C 220.17 1.15186 1.46932 0
M  V30 2337 C 220.521 -0.254587 1.94541 0
M  V30 2338 O 219.646 -1.14972 1.83332 0
M  V30 2339 C 220.241 2.08492 2.67051 0
M  V30 2340 C 218.8 1.98621 3.19729 0
M  V30 2341 C 217.947 1.9967 1.92425 0
M  V30 2342 H 220.898 1.41641 0.715789 0
M  V30 2343 H 220.919 1.65461 3.42641 0
M  V30 2344 H 220.431 3.10847 2.3237 0
M  V30 2345 H 218.532 0.993389 3.59114 0
M  V30 2346 H 218.645 2.86068 3.8432 0
M  V30 2347 H 217.009 1.44208 2.09943 0
M  V30 2348 H 217.792 3.03721 1.60026 0
M  V30 2349 N 220.237 -1.11381 1.11499 0
M  V30 2350 C 221.169 -2.17207 0.731704 0
M  V30 2351 C 222.182 -1.61066 -0.236957 0
M  V30 2352 O 223.371 -1.78489 -0.0197591 0
M  V30 2353 C 220.471 -3.38846 0.0607624 0
M  V30 2354 C 219.644 -4.24451 1.0564 0
M  V30 2355 C 218.703 -5.24562 0.4149 0
M  V30 2356 O 217.729 -5.59071 1.069 0
M  V30 2357 N 218.931 -5.74651 -0.821943 0
M  V30 2358 H 221.696 -2.50699 1.64225 0
M  V30 2359 H 219.257 -1.26908 1.00529 0
M  V30 2360 H 221.249 -4.02911 -0.380139 0
M  V30 2361 H 219.819 -3.03411 -0.752376 0
M  V30 2362 H 219.039 -3.56833 1.67524 0
M  V30 2363 H 220.327 -4.78486 1.72998 0
M  V30 2364 H 219.725 -5.48797 -1.37252 0
M  V30 2365 H 218.282 -6.40549 -1.20582 0
M  V30 2366 N 221.715 -0.905404 -1.28997 0
M  V30 2367 C 222.94 -0.549175 -1.99997 0
M  V30 2368 C 223.365 0.860276 -1.67275 0
M  V30 2369 O 222.723 1.57355 -0.900502 0
M  V30 2370 C 222.771 -0.755185 -3.52604 0
M  V30 2371 O 221.875 0.189692 -4.11964 0
M  V30 2372 H 221.216 -0.213899 -0.628604 0
M  V30 2373 H 223.746 -1.21856 -1.64354 0
M  V30 2374 H 223.756 -0.662045 -4.02593 0
M  V30 2375 H 222.431 -1.78271 -3.75755 0
M  V30 2376 H 221.008 0.0485257 -3.72868 0
M  V30 2377 N 223.193 1.4272 -0.668489 0
M  V30 2378 C 224.439 2.01923 -0.188419 0
M  V30 2379 C 224.772 1.52704 1.19979 0
M  V30 2380 O 224.047 0.726566 1.8042 0
M  V30 2381 C 224.33 3.59451 -0.216085 0
M  V30 2382 C 224.183 4.18864 -1.6393 0
M  V30 2383 C 225.502 4.37903 0.439179 0
M  V30 2384 H 222.621 0.733674 -0.0699412 0
M  V30 2385 H 225.263 1.69822 -0.852076 0
M  V30 2386 H 223.413 3.86929 0.349012 0
M  V30 2387 H 225.085 4.02362 -2.25616 0
M  V30 2388 H 223.328 3.74933 -2.18193 0
M  V30 2389 H 223.999 5.27987 -1.61039 0
M  V30 2390 H 226.475 4.16079 -0.0417878 0
M  V30 2391 H 225.351 5.47519 0.389157 0
M  V30 2392 H 225.612 4.15303 1.51577 0
M  V30 2393 N 224.671 0.411399 1.52136 0
M  V30 2394 C 225.618 -0.412975 2.27075 0
M  V30 2395 C 226.588 -1.03912 1.29582 0
M  V30 2396 O 227.773 -1.06296 1.58448 0
M  V30 2397 C 224.913 -1.52247 3.09701 0
M  V30 2398 C 224.026 -0.917021 4.22155 0
M  V30 2399 C 223.161 -1.9994 4.92135 0
M  V30 2400 C 222.2 -1.37101 5.96548 0
M  V30 2401 N 221.337 -2.39364 6.60038 0
M  V30 2402 H 226.177 0.232499 2.97092 0
M  V30 2403 H 223.714 0.126496 1.46555 0
M  V30 2404 H 225.672 -2.17674 3.55913 0
M  V30 2405 H 224.302 -2.13794 2.41851 0
M  V30 2406 H 223.354 -0.151742 3.80097 0
M  V30 2407 H 224.666 -0.418006 4.97045 0
M  V30 2408 H 223.82 -2.73088 5.41763 0
M  V30 2409 H 222.559 -2.53208 4.16818 0
M  V30 2410 H 221.564 -0.624873 5.46237 0
M  V30 2411 H 222.789 -0.845998 6.7381 0
M  V30 2412 H 220.735 -2.91759 5.87548 0
M  V30 2413 H 220.652 -1.9428 7.3061 0
M  V30 2414 H 221.92 -3.12074 7.14304 0
M  V30 2415 N 226.149 -1.5696 0.141893 0
M  V30 2416 C 227.56 -1.82797 -0.379776 0
M  V30 2417 C 227.911 -1.06033 -1.6508 0
M  V30 2418 O 227.036 -0.304011 -2.14254 0
M  V30 2419 C 227.631 -3.31578 -0.695802 0
M  V30 2420 C 226.19 -3.58014 -1.16201 0
M  V30 2421 C 225.337 -2.76699 -0.182455 0
M  V30 2422 H 228.288 -1.54406 0.366675 0
M  V30 2423 H 228.309 -3.47454 -1.55099 0
M  V30 2424 H 227.821 -3.87421 0.229449 0
M  V30 2425 H 225.922 -3.07553 -2.10338 0
M  V30 2426 H 226.035 -4.66501 -1.09151 0
M  V30 2427 H 224.399 -2.45618 -0.674072 0
M  V30 2428 H 225.182 -3.35311 0.736297 0
M  V30 2429 N 227.627 0.131896 -1.57047 0
M  V30 2430 C 228.875 0.840269 -1.83804 0
M  V30 2431 C 229.196 1.81017 -0.72512 0
M  V30 2432 O 228.466 1.94272 0.251995 0
M  V30 2433 H 227.046 0.313294 -0.678127 0
M  V30 2434 H 229.708 0.122294 -1.94516 0
M  V30 2435 H 228.804 1.39335 -2.79271 0
M  V30 2436 N 229.106 1.52395 0.401703 0
M  V30 2437 C 230.054 1.7689 1.51039 0
M  V30 2438 C 231.048 0.636298 1.56996 0
M  V30 2439 O 232.254 0.818507 1.60314 0
M  V30 2440 H 228.629 0.559502 0.502456 0
M  V30 2441 H 230.6 2.69757 1.27568 0
M  V30 2442 C 229.349 1.94331 2.88324 0
M  V30 2443 H 228.672 2.80905 2.84486 0
M  V30 2444 H 230.112 2.15466 3.65172 0
M  V30 2445 C 228.571 0.712396 3.29282 0
M  V30 2446 O 229.101 -0.116218 4.01532 0
M  V30 2447 N 227.307 0.546154 2.85422 0
M  V30 2448 H 226.854 1.22156 2.26794 0
M  V30 2449 H 226.812 -0.276113 3.13185 0
M  V30 2450 N 230.584 -0.659388 1.43143 0
M  V30 2451 C 231.833 -1.41518 1.43721 0
M  V30 2452 C 232.146 -1.95499 0.0628176 0
M  V30 2453 O 233.352 -2.71446 -0.0539683 0
M  V30 2454 C 231.808 -2.5608 2.52885 0
M  V30 2455 C 231.416 -2.08733 3.96402 0
M  V30 2456 C 233.16 -3.3349 2.62649 0
M  V30 2457 C 231.067 -3.20469 4.97045 0
M  V30 2458 H 229.997 -0.531705 0.534608 0
M  V30 2459 H 232.648 -0.712343 1.69109 0
M  V30 2460 H 231.03 -3.28805 2.20688 0
M  V30 2461 H 232.204 -1.43059 4.3803 0
M  V30 2462 H 230.519 -1.44219 3.90627 0
M  V30 2463 H 233.116 -4.16734 3.35017 0
M  V30 2464 H 233.459 -3.8111 1.67513 0
M  V30 2465 H 233.992 -2.67842 2.94118 0
M  V30 2466 H 230.731 -2.77824 5.93712 0
M  V30 2467 H 230.251 -3.84874 4.60034 0
M  V30 2468 H 231.93 -3.85698 5.19467 0
M  V30 2469 N 232.062 -1.29571 -0.897171 0
M  V30 2470 C 233.311 -1.1706 -1.64256 0
M  V30 2471 C 233.624 0.276476 -1.93636 0
M  V30 2472 O 234.83 0.52294 -2.66416 0
M  V30 2473 C 233.286 -2.0475 -2.95982 0
M  V30 2474 C 232.894 -3.54295 -2.74187 0
M  V30 2475 C 234.638 -2.0097 -3.73914 0
M  V30 2476 C 232.545 -4.34081 -4.01656 0
M  V30 2477 H 231.475 -0.43452 -0.616205 0
M  V30 2478 H 234.126 -1.54229 -0.994268 0
M  V30 2479 H 232.508 -1.60452 -3.62038 0
M  V30 2480 H 233.682 -4.06662 -2.1671 0
M  V30 2481 H 231.997 -3.59773 -2.09648 0
M  V30 2482 H 234.594 -2.57838 -4.68427 0
M  V30 2483 H 234.937 -0.990273 -4.0435 0
M  V30 2484 H 235.47 -2.43325 -3.14703 0
M  V30 2485 H 232.209 -5.36671 -3.76384 0
M  V30 2486 H 231.729 -3.86483 -4.58684 0
M  V30 2487 H 233.408 -4.44877 -4.69781 0
M  V30 2488 N 233.54 1.10788 -1.12088 0
M  V30 2489 C 234.47 2.19083 -0.807755 0
M  V30 2490 C 235.451 1.6858 0.226859 0
M  V30 2491 O 236.636 1.93997 0.0888475 0
M  V30 2492 C 233.766 3.46344 -0.257576 0
M  V30 2493 C 232.72 4.101 -1.22483 0
M  V30 2494 C 232.046 5.32016 -0.535052 0
M  V30 2495 C 233.346 4.54236 -2.57811 0
M  V30 2496 H 235.04 2.45534 -1.71328 0
M  V30 2497 H 232.586 1.1801 -0.825205 0
M  V30 2498 H 234.539 4.21392 -0.0262679 0
M  V30 2499 H 233.263 3.19373 0.683278 0
M  V30 2500 H 231.922 3.37054 -1.44189 0
M  V30 2501 H 231.57 5.01319 0.410827 0
M  V30 2502 H 231.27 5.75625 -1.18024 0
M  V30 2503 H 232.794 6.09799 -0.312695 0
M  V30 2504 H 234.208 5.20575 -2.40155 0
M  V30 2505 H 232.605 5.08682 -3.18375 0
M  V30 2506 H 233.675 3.6734 -3.16528 0
M  V30 2507 N 235.018 0.912232 1.28515 0
M  V30 2508 C 236.267 0.540504 1.94323 0
M  V30 2509 C 236.58 -0.920044 1.72611 0
M  V30 2510 O 237.786 -1.39986 2.32629 0
M  V30 2511 C 236.242 0.915803 3.48053 0
M  V30 2512 C 235.85 2.39598 3.78546 0
M  V30 2513 C 237.594 0.614588 4.20027 0
M  V30 2514 C 235.501 2.71148 5.25578 0
M  V30 2515 H 234.431 0.198418 0.727424 0
M  V30 2516 H 237.082 1.11094 1.46049 0
M  V30 2517 H 235.464 0.274168 3.9505 0
M  V30 2518 H 236.638 3.08422 3.42364 0
M  V30 2519 H 234.953 2.66749 3.1974 0
M  V30 2520 H 237.55 0.827002 5.28266 0
M  V30 2521 H 237.893 -0.447531 4.13887 0
M  V30 2522 H 238.426 1.21462 3.78803 0
M  V30 2523 H 235.165 3.76207 5.36794 0
M  V30 2524 H 234.685 2.0696 5.62963 0
M  V30 2525 H 236.364 2.58072 5.93302 0
M  V30 2526 N 236.496 -1.42363 0.676048 0
M  V30 2527 C 237.459 -2.29199 0.00766941 0
M  V30 2528 C 238.459 -1.43389 -0.727745 0
M  V30 2529 O 239.649 -1.64764 -0.56556 0
M  V30 2530 C 236.781 -3.2591 -0.999785 0
M  V30 2531 H 237.974 -2.89794 0.771988 0
M  V30 2532 H 235.527 -1.50024 0.438468 0
M  V30 2533 H 236.262 -2.70256 -1.79255 0
M  V30 2534 H 236.047 -3.89202 -0.475829 0
M  V30 2535 H 237.537 -3.91028 -1.46583 0
M  V30 2536 N 237.974 -0.419461 -1.51915 0
M  V30 2537 C 239.251 0.211999 -1.94448 0
M  V30 2538 C 239.631 1.61703 -1.35703 0
M  V30 2539 O 238.979 2.22102 -0.536931 0
M  V30 2540 C 239.189 0.207872 -3.4838 0
M  V30 2541 C 240.537 0.422192 -4.22496 0
M  V30 2542 O 241.561 0.286778 -3.55044 0
M  V30 2543 O 240.42 0.690009 -5.42126 0
M  V30 2544 H 237.514 0.139586 -0.815135 0
M  V30 2545 H 240.06 -0.476151 -1.62883 0
M  V30 2546 H 238.832 -0.775102 -3.83546 0
M  V30 2547 H 238.455 0.939688 -3.86336 0
M  V30 2548 N 239.452 1.56882 -0.150215 0
M  V30 2549 C 240.7 1.9584 0.499105 0
M  V30 2550 C 241.021 1.03623 1.65188 0
M  V30 2551 O 240.291 0.0984084 1.95653 0
M  V30 2552 H 238.871 0.723119 0.187373 0
M  V30 2553 H 241.533 1.9358 -0.226466 0
M  V30 2554 H 240.629 2.99638 0.873122 0
M  V30 2555 N 240.93 -0.123565 1.57115 0
M  V30 2556 C 242.155 -0.850398 1.89164 0
M  V30 2557 C 242.58 -1.7286 0.741688 0
M  V30 2558 O 241.938 -1.78665 -0.307958 0
M  V30 2559 C 241.986 -1.66353 3.19936 0
M  V30 2560 O 241.09 -2.77004 3.0552 0
M  V30 2561 H 240.431 -0.235454 0.620852 0
M  V30 2562 H 242.961 -0.107335 2.04318 0
M  V30 2563 H 242.971 -2.05372 3.52543 0
M  V30 2564 H 241.646 -1.01881 4.03228 0
M  V30 2565 H 240.223 -2.41221 2.84371 0
M  V30 2566 N 242.408 -1.52605 -0.393616 0
M  V30 2567 C 243.654 -1.67672 -1.14079 0
M  V30 2568 C 243.987 -0.413121 -1.89755 0
M  V30 2569 O 243.262 0.588952 -1.85369 0
M  V30 2570 C 243.545 -2.9088 -2.12276 0
M  V30 2571 C 243.398 -4.27329 -1.40394 0
M  V30 2572 C 244.717 -3.09628 -3.12759 0
M  V30 2573 H 241.836 -0.610168 -0.413356 0
M  V30 2574 H 244.478 -1.85193 -0.424696 0
M  V30 2575 H 242.628 -2.76073 -2.73342 0
M  V30 2576 H 244.3 -4.53894 -0.82327 0
M  V30 2577 H 242.543 -4.2802 -0.705801 0
M  V30 2578 H 243.214 -5.09615 -2.12123 0
M  V30 2579 H 245.69 -3.23436 -2.61779 0
M  V30 2580 H 244.566 -3.97322 -3.78717 0
M  V30 2581 H 244.827 -2.23637 -3.81365 0
M  V30 2582 N 243.887 0.651787 -1.4349 0
M  V30 2583 C 245.112 1.44434 -1.48841 0
M  V30 2584 C 245.537 1.8779 -0.107955 0
M  V30 2585 O 244.895 1.57464 0.898602 0
M  V30 2586 C 244.943 2.65458 -2.44059 0
M  V30 2587 O 244.047 3.64566 -1.92784 0
M  V30 2588 H 243.388 0.433005 -0.503391 0
M  V30 2589 H 245.918 0.797451 -1.88419 0
M  V30 2590 H 245.928 3.13255 -2.6141 0
M  V30 2591 H 244.603 2.33244 -3.4434 0
M  V30 2592 H 243.18 3.23716 -1.851 0
M  V30 2593 N 245.365 1.30045 0.890287 0
M  V30 2594 C 246.605 1.19839 1.65584 0
M  V30 2595 C 246.969 -0.244175 1.90441 0
M  V30 2596 O 248.17 -0.469378 2.6467 0
M  V30 2597 C 246.441 1.99876 2.96284 0
M  V30 2598 S 248 2.06309 3.87275 0
M  V30 2599 H 244.818 0.427157 0.568382 0
M  V30 2600 H 247.42 1.64453 1.05715 0
M  V30 2601 H 246.124 3.03809 2.75913 0
M  V30 2602 H 245.655 1.55903 3.61189 0
M  V30 2603 H 247.67 1.18661 4.81803 0
M  V30 2604 N 246.843 -1.10192 1.12674 0
M  V30 2605 C 247.79 -2.16606 0.796906 0
M  V30 2606 C 248.76 -1.64394 -0.237476 0
M  V30 2607 O 249.945 -1.90474 -0.111484 0
M  V30 2608 C 247.085 -3.44116 0.26043 0
M  V30 2609 C 246.198 -4.10268 1.35293 0
M  V30 2610 C 245.333 -5.25507 0.775621 0
M  V30 2611 C 244.372 -5.83567 1.84706 0
M  V30 2612 N 243.509 -6.90179 1.28829 0
M  V30 2613 H 248.349 -2.44163 1.70846 0
M  V30 2614 H 245.886 -1.19846 0.85295 0
M  V30 2615 H 247.844 -4.17143 -0.0686814 0
M  V30 2616 H 246.474 -3.16901 -0.614274 0
M  V30 2617 H 245.526 -3.35184 1.79877 0
M  V30 2618 H 246.838 -4.4946 2.16303 0
M  V30 2619 H 245.992 -6.05398 0.397327 0
M  V30 2620 H 244.731 -4.87656 -0.0656581 0
M  V30 2621 H 243.736 -5.02344 2.23452 0
M  V30 2622 H 244.961 -6.23482 2.69161 0
M  V30 2623 H 242.907 -6.54322 0.468881 0
M  V30 2624 H 242.824 -7.28097 2.03497 0
M  V30 2625 H 244.092 -7.73844 0.937311 0
M  V30 2626 N 248.321 -0.919034 -1.28029 0
M  V30 2627 C 249.567 -0.555757 -1.95036 0
M  V30 2628 C 249.9 0.899198 -1.72128 0
M  V30 2629 O 249.175 1.64023 -1.04531 0
M  V30 2630 C 249.458 -0.872024 -3.49382 0
M  V30 2631 C 249.311 -2.3801 -3.81669 0
M  V30 2632 C 250.63 -0.37185 -4.38526 0
M  V30 2633 H 247.749 -0.203386 -0.708381 0
M  V30 2634 H 250.391 -1.14924 -1.51303 0
M  V30 2635 H 248.541 -0.366946 -3.86763 0
M  V30 2636 H 250.213 -2.9562 -3.54128 0
M  V30 2637 H 248.456 -2.83289 -3.28526 0
M  V30 2638 H 249.127 -2.55192 -4.8947 0
M  V30 2639 H 251.603 -0.804602 -4.08247 0
M  V30 2640 H 250.479 -0.622173 -5.45362 0
M  V30 2641 H 250.74 0.727934 -4.36066 0
M  V30 2642 N 249.799 1.42003 -0.683588 0
M  V30 2643 C 250.729 2.33487 -0.024866 0
M  V30 2644 C 251.71 1.51163 0.779975 0
M  V30 2645 O 252.895 1.79739 0.735362 0
M  V30 2646 C 250.025 3.3487 0.920836 0
M  V30 2647 C 248.979 4.27414 0.223958 0
M  V30 2648 C 248.305 5.19074 1.2832 0
M  V30 2649 C 249.605 5.14445 -0.90242 0
M  V30 2650 H 251.299 2.88819 -0.788921 0
M  V30 2651 H 248.845 1.38873 -0.38083 0
M  V30 2652 H 250.798 3.97787 1.39081 0
M  V30 2653 H 249.522 2.77861 1.71642 0
M  V30 2654 H 248.181 3.65904 -0.225864 0
M  V30 2655 H 247.829 4.58387 2.071 0
M  V30 2656 H 247.529 5.81822 0.821995 0
M  V30 2657 H 249.053 5.84867 1.75392 0
M  V30 2658 H 250.467 5.70998 -0.513272 0
M  V30 2659 H 248.864 5.86072 -1.28997 0
M  V30 2660 H 249.934 4.52322 -1.74737 0
M  V30 2661 N 251.277 0.427512 1.51691 0
M  V30 2662 C 252.187 -0.39527 2.31246 0
M  V30 2663 C 253.203 -1.03674 1.39742 0
M  V30 2664 O 254.379 -1.03425 1.72816 0
M  V30 2665 C 251.444 -1.48706 3.13189 0
M  V30 2666 C 250.505 -0.866743 4.20459 0
M  V30 2667 C 249.738 -1.90651 4.98486 0
M  V30 2668 O 249.961 -3.12733 4.77026 0
M  V30 2669 O 248.895 -1.5025 5.82845 0
M  V30 2670 H 252.721 0.253918 3.02637 0
M  V30 2671 H 250.306 0.190274 1.48183 0
M  V30 2672 H 252.188 -2.12047 3.64162 0
M  V30 2673 H 250.863 -2.12051 2.44573 0
M  V30 2674 H 249.77 -0.195544 3.73589 0
M  V30 2675 H 251.103 -0.276934 4.9142 0
M  V30 2676 N 252.755 -1.56801 0.158532 0
M  V30 2677 C 253.983 -2.00859 -0.496303 0
M  V30 2678 C 254.398 -1.03871 -1.57659 0
M  V30 2679 O 253.755 -0.0375165 -1.82461 0
M  V30 2680 C 253.806 -3.4479 -1.08638 0
M  V30 2681 O 253.527 -4.38072 -0.0492322 0
M  V30 2682 C 255.028 -4.04185 -1.8207 0
M  V30 2683 H 252.248 -0.65864 -0.128199 0
M  V30 2684 H 254.792 -2.02885 0.256506 0
M  V30 2685 H 252.947 -3.43579 -1.78975 0
M  V30 2686 H 253.361 -5.2227 -0.483102 0
M  V30 2687 H 254.835 -5.06857 -2.18633 0
M  V30 2688 H 255.312 -3.45549 -2.71095 0
M  V30 2689 H 255.918 -4.0906 -1.16405 0
M  V30 2690 N 254.233 0.115231 -1.57178 0
M  V30 2691 C 255.183 1.14707 -1.97044 0
M  V30 2692 C 256.167 1.36866 -0.845957 0
M  V30 2693 O 257.359 1.37895 -1.10968 0
M  V30 2694 C 254.488 2.47266 -2.38148 0
M  V30 2695 C 253.574 2.28566 -3.57237 0
M  V30 2696 N 253.965 1.79685 -4.72807 0
M  V30 2697 C 252.263 2.59208 -3.62943 0
M  V30 2698 C 252.964 1.74781 -5.54821 0
M  V30 2699 N 251.94 2.19264 -4.97417 0
M  V30 2700 H 255.742 0.761754 -2.83857 0
M  V30 2701 H 253.256 0.322928 -1.59157 0
M  V30 2702 H 255.253 3.219 -2.64927 0
M  V30 2703 H 253.913 2.86552 -1.52702 0
M  V30 2704 H 254.924 1.49177 -4.9595 0
M  V30 2705 H 251.601 3.02154 -2.88113 0
M  V30 2706 H 252.991 1.38212 -6.57531 0
M  V30 2707 N 255.711 1.52812 0.385517 0
M  V30 2708 C 256.621 1.80766 1.49535 0
M  V30 2709 C 257.637 0.694651 1.59532 0
M  V30 2710 O 258.813 0.982611 1.75803 0
M  V30 2711 C 255.878 1.97381 2.85029 0
M  V30 2712 C 254.939 3.21295 2.84724 0
M  V30 2713 C 254.172 3.37108 4.13756 0
M  V30 2714 O 254.395 2.5765 5.08893 0
M  V30 2715 O 253.329 4.30378 4.20783 0
M  V30 2716 H 257.155 2.75015 1.28842 0
M  V30 2717 H 254.74 1.37946 0.573697 0
M  V30 2718 H 256.622 2.09996 3.65349 0
M  V30 2719 H 255.297 1.06322 3.05741 0
M  V30 2720 H 254.204 3.1412 2.03174 0
M  V30 2721 H 255.537 4.12212 2.68965 0
M  V30 2722 N 257.189 -0.644168 1.43834 0
M  V30 2723 C 258.466 -1.40188 1.36406 0
M  V30 2724 C 258.846 -2.11094 0.0163124 0
M  V30 2725 O 258.194 -2.05426 -1.00062 0
M  V30 2726 C 258.404 -2.3791 2.55343 0
M  V30 2727 C 259.752 -3.01637 2.98832 0
M  V30 2728 O 260.776 -2.48237 2.55455 0
M  V30 2729 O 259.635 -3.98477 3.74003 0
M  V30 2730 H 256.729 -0.626773 0.539523 0
M  V30 2731 H 259.275 -0.670317 1.559 0
M  V30 2732 H 258.047 -1.84525 3.4506 0
M  V30 2733 H 257.67 -3.18503 2.37995 0
M  V30 2734 N 258.668 -1.30515 -0.883378 0
M  V30 2735 C 259.618 -1.13641 -1.9766 0
M  V30 2736 C 260.602 -0.0511314 -1.60819 0
M  V30 2737 O 261.794 -0.274623 -1.74857 0
M  V30 2738 C 258.923 -0.831976 -3.33066 0
M  V30 2739 C 258.009 -1.95759 -3.76217 0
M  V30 2740 N 258.4 -3.20313 -3.9145 0
M  V30 2741 C 256.698 -1.85431 -4.05625 0
M  V30 2742 C 257.399 -3.93856 -4.2808 0
M  V30 2743 N 256.375 -3.21919 -4.38029 0
M  V30 2744 H 260.177 -2.08106 -2.07531 0
M  V30 2745 H 257.691 -1.21877 -1.0733 0
M  V30 2746 H 259.688 -0.692102 -4.11115 0
M  V30 2747 H 258.348 0.104588 -3.24532 0
M  V30 2748 H 259.359 -3.55583 -3.76538 0
M  V30 2749 H 256.036 -0.991531 -4.05555 0
M  V30 2750 H 257.426 -5.01125 -4.47575 0
M  V30 2751 N 260.146 1.09593 -1.13257 0
M  V30 2752 C 261.392 1.82003 -0.89458 0
M  V30 2753 C 261.725 1.85402 0.577906 0
M  V30 2754 O 261 1.32099 1.42759 0
M  V30 2755 C 261.283 3.28237 -1.48096 0
M  V30 2756 C 261.136 3.3312 -3.02244 0
M  V30 2757 C 262.455 4.24871 -1.14774 0
M  V30 2758 H 259.574 0.66077 -0.326424 0
M  V30 2759 H 262.216 1.28389 -1.40058 0
M  V30 2760 H 260.366 3.74024 -1.05062 0
M  V30 2761 H 262.038 2.95748 -3.54021 0
M  V30 2762 H 260.281 2.72756 -3.37323 0
M  V30 2763 H 260.952 4.3613 -3.38371 0
M  V30 2764 H 263.428 3.87361 -1.51957 0
M  V30 2765 H 262.304 5.25532 -1.58452 0
M  V30 2766 H 262.565 4.42058 -0.0611849 0
M  V30 2767 N 261.624 0.925811 1.2754 0
M  V30 2768 C 262.873 0.561084 1.93739 0
M  V30 2769 C 263.186 -0.901685 1.73577 0
M  V30 2770 O 264.392 -1.37511 2.34101 0
M  V30 2771 C 262.848 0.952668 3.47062 0
M  V30 2772 C 262.456 2.43599 3.75983 0
M  V30 2773 C 264.2 0.659103 4.19352 0
M  V30 2774 C 262.107 2.76707 5.22673 0
M  V30 2775 H 261.037 0.206122 0.725279 0
M  V30 2776 H 263.688 1.12637 1.44863 0
M  V30 2777 H 262.07 0.316053 3.94737 0
M  V30 2778 H 263.244 3.12035 3.39073 0
M  V30 2779 H 261.559 2.70125 3.16893 0
M  V30 2780 H 264.156 0.882985 5.27359 0
M  V30 2781 H 264.499 -0.403607 4.14339 0
M  V30 2782 H 265.032 1.25473 3.77494 0
M  V30 2783 H 261.771 3.8188 5.32774 0
M  V30 2784 H 261.291 2.12919 5.60737 0
M  V30 2785 H 262.97 2.6435 5.90532 0
M  V30 2786 N 263.102 -1.41638 0.69111 0
M  V30 2787 C 264.33 -2.05628 0.22909 0
M  V30 2788 C 264.745 -1.51992 -1.11999 0
M  V30 2789 O 264.102 -0.666322 -1.69901 0
M  V30 2790 C 264.153 -3.61084 0.173283 0
M  V30 2791 O 263.874 -4.12735 1.46907 0
M  V30 2792 C 265.375 -4.42213 -0.310266 0
M  V30 2793 H 262.595 -0.662327 0.107534 0
M  V30 2794 H 265.139 -1.81489 0.942438 0
M  V30 2795 H 263.294 -3.84278 -0.490858 0
M  V30 2796 H 263.708 -5.06743 1.35322 0
M  V30 2797 H 265.182 -5.51194 -0.298196 0
M  V30 2798 H 265.659 -4.1799 -1.34838 0
M  V30 2799 H 266.265 -4.24074 0.322716 0
M  V30 2800 N 264.58 -0.43555 -1.51462 0
M  V30 2801 C 265.49 0.383001 -2.31453 0
M  V30 2802 C 266.506 1.02931 -1.4029 0
M  V30 2803 O 267.682 1.02507 -1.73362 0
M  V30 2804 C 264.747 1.47043 -3.13973 0
M  V30 2805 C 263.808 0.844433 -4.20913 0
M  V30 2806 C 263.041 1.88004 -4.9949 0
M  V30 2807 O 263.264 3.10199 -4.78678 0
M  V30 2808 O 262.198 1.47157 -5.83634 0
M  V30 2809 H 266.024 -0.269964 -3.02498 0
M  V30 2810 H 263.609 -0.19813 -1.4808 0
M  V30 2811 H 265.491 2.10113 -3.65281 0
M  V30 2812 H 264.166 2.10751 -2.45695 0
M  V30 2813 H 263.073 0.175729 -3.73687 0
M  V30 2814 H 264.406 0.250869 -4.9156 0
M  V30 2815 N 266.058 1.56714 -0.166846 0
M  V30 2816 C 267.304 1.97039 0.479962 0
M  V30 2817 C 267.637 1.05264 1.63197 0
M  V30 2818 O 266.912 0.0988833 1.94248 0
M  V30 2819 C 267.195 3.46867 0.967212 0
M  V30 2820 C 267.048 4.49421 -0.18466 0
M  V30 2821 C 268.367 3.9968 1.84238 0
M  V30 2822 H 265.486 0.71641 0.172992 0
M  V30 2823 H 268.128 1.8832 -0.252079 0
M  V30 2824 H 266.278 3.54428 1.59101 0
M  V30 2825 H 267.95 4.53924 -0.821621 0
M  V30 2826 H 266.193 4.25573 -0.840837 0
M  V30 2827 H 266.864 5.51644 0.198317 0
M  V30 2828 H 269.34 3.94723 1.31655 0
M  V30 2829 H 268.216 5.04941 2.15234 0
M  V30 2830 H 268.477 3.43226 2.78654 0
M  V30 2831 N 267.536 -0.106894 1.57237 0
M  V30 2832 C 268.466 -1.13148 2.04254 0
M  V30 2833 C 269.447 -1.42476 0.929224 0
M  V30 2834 O 270.632 -1.52709 1.19973 0
M  V30 2835 C 267.762 -2.4545 2.45706 0
M  V30 2836 C 266.716 -2.30558 3.60592 0
M  V30 2837 C 266.042 -3.67931 3.87983 0
M  V30 2838 C 267.342 -1.75597 4.91897 0
M  V30 2839 H 269.036 -0.740374 2.90101 0
M  V30 2840 H 266.582 -0.354696 1.39563 0
M  V30 2841 H 268.535 -3.17389 2.77205 0
M  V30 2842 H 267.259 -2.86475 1.56843 0
M  V30 2843 H 265.918 -1.61067 3.29322 0
M  V30 2844 H 265.566 -4.06462 2.96306 0
M  V30 2845 H 265.266 -3.58817 4.65322 0
M  V30 2846 H 266.79 -4.41356 4.21945 0
M  V30 2847 H 268.204 -2.37364 5.21854 0
M  V30 2848 H 266.601 -1.77272 5.73319 0
M  V30 2849 H 267.671 -0.714451 4.79608 0
M  V30 2850 N 269.014 -1.53014 -0.377408 0
M  V30 2851 C 269.962 -1.7927 -1.48206 0
M  V30 2852 C 270.956 -0.661195 -1.55963 0
M  V30 2853 O 272.162 -0.843908 -1.58991 0
M  V30 2854 H 268.537 -0.567425 -0.493491 0
M  V30 2855 H 270.508 -2.71753 -1.2326 0
M  V30 2856 C 269.257 -1.98894 -2.85196 0
M  V30 2857 H 268.58 -2.85395 -2.79981 0
M  V30 2858 H 270.02 -2.21249 -3.61698 0
M  V30 2859 C 268.479 -0.764691 -3.28107 0
M  V30 2860 O 269.009 0.0523226 -4.01666 0
M  V30 2861 N 267.215 -0.591493 -2.84517 0
M  V30 2862 H 266.762 -1.25749 -2.24822 0
M  V30 2863 H 266.72 0.226253 -3.13585 0
M  V30 2864 N 270.492 0.636531 -1.44174 0
M  V30 2865 C 271.717 1.42847 -1.50364 0
M  V30 2866 C 272.142 1.87665 -0.127867 0
M  V30 2867 O 271.5 1.58408 0.88185 0
M  V30 2868 C 271.548 2.62854 -2.4686 0
M  V30 2869 O 270.652 3.62501 -1.9664 0
M  V30 2870 H 269.993 0.427642 -0.507955 0
M  V30 2871 H 272.523 0.777422 -1.89255 0
M  V30 2872 H 272.533 3.10465 -2.64718 0
M  V30 2873 H 271.208 2.29578 -3.46795 0
M  V30 2874 H 269.785 3.21735 -1.88523 0
M  V30 2875 N 271.97 1.30982 0.876444 0
M  V30 2876 C 272.933 1.18054 1.96459 0
M  V30 2877 C 273.933 0.109399 1.60427 0
M  V30 2878 O 275.123 0.358173 1.70478 0
M  V30 2879 C 272.255 0.810616 3.31122 0
M  V30 2880 H 273.448 2.14735 2.09354 0
M  V30 2881 H 271.001 1.145 1.06392 0
M  V30 2882 H 271.736 -0.155322 3.23928 0
M  V30 2883 H 271.521 1.58481 3.58645 0
M  V30 2884 H 273.011 0.743876 4.10921 0
M  V30 2885 N 273.449 -1.08991 1.13837 0
M  V30 2886 C 274.695 -1.81526 0.90422 0
M  V30 2887 C 275.028 -1.85706 -0.568066 0
M  V30 2888 O 274.303 -1.32855 -1.42056 0
M  V30 2889 C 274.586 -3.27447 1.49835 0
M  V30 2890 C 274.439 -3.31512 3.04006 0
M  V30 2891 C 275.758 -4.24256 1.17025 0
M  V30 2892 H 272.877 -0.659029 0.329923 0
M  V30 2893 H 275.519 -1.27644 1.40737 0
M  V30 2894 H 273.669 -3.73462 1.07044 0
M  V30 2895 H 275.341 -2.93867 3.55584 0
M  V30 2896 H 273.584 -2.70963 3.38765 0
M  V30 2897 H 274.255 -4.34329 3.40679 0
M  V30 2898 H 276.731 -3.86549 1.54009 0
M  V30 2899 H 275.607 -5.24684 1.61237 0
M  V30 2900 H 275.868 -4.42019 0.0846274 0
M  V30 2901 N 274.927 -0.932562 -1.27047 0
M  V30 2902 C 276.176 -0.571351 -1.93439 0
M  V30 2903 C 276.489 0.892467 -1.74053 0
M  V30 2904 O 277.695 1.36267 -2.34826 0
M  V30 2905 C 276.151 -0.97106 -3.46552 0
M  V30 2906 C 275.759 -2.4559 -3.74686 0
M  V30 2907 C 277.503 -0.681333 -4.18997 0
M  V30 2908 C 275.41 -2.79475 -5.21198 0
M  V30 2909 H 274.34 -0.209966 -0.724176 0
M  V30 2910 H 276.991 -1.13403 -1.44263 0
M  V30 2911 H 275.373 -0.336983 -3.94564 0
M  V30 2912 H 276.547 -3.13829 -3.37414 0
M  V30 2913 H 274.862 -2.71802 -3.15456 0
M  V30 2914 H 277.459 -0.910939 -5.26883 0
M  V30 2915 H 277.802 0.381628 -4.14547 0
M  V30 2916 H 278.335 -1.27473 -3.76823 0
M  V30 2917 H 275.074 -3.847 -5.30741 0
M  V30 2918 H 274.594 -2.1589 -5.596 0
M  V30 2919 H 276.273 -2.67478 -5.89122 0
M  V30 2920 N 276.405 1.4127 -0.698611 0
M  V30 2921 C 277.653 2.00782 -0.230409 0
M  V30 2922 C 277.974 1.5562 1.17505 0
M  V30 2923 O 277.244 0.78815 1.79346 0
M  V30 2924 H 275.824 0.742464 -0.0821944 0
M  V30 2925 H 278.486 1.72852 -0.90045 0
M  V30 2926 H 277.582 3.11095 -0.25021 0
M  V30 2927 N 277.883 0.443576 1.51229 0
M  V30 2928 C 278.793 -0.370721 2.31652 0
M  V30 2929 C 279.809 -1.02186 1.40833 0
M  V30 2930 O 280.985 -1.01586 1.73903 0
M  V30 2931 C 278.05 -1.45376 3.14749 0
M  V30 2932 C 277.111 -0.822099 4.21355 0
M  V30 2933 C 276.344 -1.85353 5.0048 0
M  V30 2934 O 276.567 -3.07656 4.80316 0
M  V30 2935 O 275.501 -1.4406 5.84406 0
M  V30 2936 H 279.327 0.286002 3.0235 0
M  V30 2937 H 276.912 0.20598 1.47973 0
M  V30 2938 H 278.794 -2.08173 3.66391 0
M  V30 2939 H 277.469 -2.09445 2.46809 0
M  V30 2940 H 276.376 -0.155909 3.73775 0
M  V30 2941 H 277.709 -0.224797 4.91686 0
M  V30 2942 N 279.361 -1.56624 0.175154 0
M  V30 2943 C 280.777 -1.58571 -0.180966 0
M  V30 2944 C 280.977 -1.19065 -1.6256 0
M  V30 2945 O 280.033 -0.904044 -2.35761 0
M  V30 2946 C 281.346 -3.00522 0.103326 0
M  V30 2947 C 282.894 -3.12972 0.0418426 0
M  V30 2948 C 283.369 -4.57022 0.299175 0
M  V30 2949 N 284.86 -4.62541 0.247086 0
M  V30 2950 C 285.595 -5.71857 0.420318 0
M  V30 2951 N 285.091 -6.89717 0.652816 0
M  V30 2952 N 286.884 -5.60972 0.355957 0
M  V30 2953 H 279.035 -1.80589 1.11809 0
M  V30 2954 H 281.298 -0.837178 0.444788 0
M  V30 2955 H 281.004 -3.33916 1.10422 0
M  V30 2956 H 280.878 -3.72344 -0.603299 0
M  V30 2957 H 283.265 -2.79403 -0.949636 0
M  V30 2958 H 283.346 -2.43578 0.781238 0
M  V30 2959 H 282.99 -4.913 1.28788 0
M  V30 2960 H 282.92 -5.24579 -0.460876 0
M  V30 2961 H 285.411 -3.77829 0.0731895 0
M  V30 2962 H 285.724 -7.68911 0.774347 0
M  V30 2963 H 284.069 -6.91572 0.689476 0
M  V30 2964 H 287.26 -4.67773 0.174882 0
M  V30 2965 H 287.433 -6.46111 0.494388 0
M  V30 2966 N 280.839 0.0985539 -1.57292 0
M  V30 2967 C 281.786 1.11981 -2.01814 0
M  V30 2968 C 282.756 1.39999 -0.89384 0
M  V30 2969 O 283.941 1.5152 -1.15958 0
M  V30 2970 C 281.081 2.43577 -2.44467 0
M  V30 2971 C 280.194 2.2232 -3.70402 0
M  V30 2972 C 279.329 3.4729 -4.01949 0
M  V30 2973 C 278.368 3.2128 -5.21005 0
M  V30 2974 N 277.505 4.38507 -5.48321 0
M  V30 2975 H 282.345 0.733149 -2.88841 0
M  V30 2976 H 279.882 0.350482 -1.42864 0
M  V30 2977 H 281.84 3.20373 -2.6724 0
M  V30 2978 H 280.47 2.80097 -1.60455 0
M  V30 2979 H 279.522 1.36343 -3.55126 0
M  V30 2980 H 280.834 1.99089 -4.57345 0
M  V30 2981 H 279.988 4.32495 -4.25479 0
M  V30 2982 H 278.727 3.73572 -3.13521 0
M  V30 2983 H 277.732 2.34468 -4.97298 0
M  V30 2984 H 278.957 2.96348 -6.11028 0
M  V30 2985 H 276.903 4.64871 -4.62851 0
M  V30 2986 H 276.82 4.18455 -6.29628 0
M  V30 2987 H 278.088 5.24787 -5.76385 0
M  V30 2988 N 282.317 1.53212 0.369288 0
M  V30 2989 C 283.265 1.80054 1.47253 0
M  V30 2990 C 284.259 0.669456 1.55611 0
M  V30 2991 O 285.465 0.852328 1.58541 0
M  V30 2992 H 281.84 0.570034 0.490475 0
M  V30 2993 H 283.811 2.72403 1.21817 0
M  V30 2994 C 282.56 2.00403 2.84137 0
M  V30 2995 H 281.883 2.86876 2.78464 0
M  V30 2996 H 283.323 2.23164 3.60519 0
M  V30 2997 C 281.782 0.782081 3.27697 0
M  V30 2998 O 282.312 -0.0310205 4.01688 0
M  V30 2999 N 280.518 0.606573 2.84199 0
M  V30 3000 H 280.065 1.26939 2.24152 0
M  V30 3001 H 280.023 -0.20962 3.137 0
M  V30 3002 N 283.795 -0.628877 1.44509 0
M  V30 3003 C 284.728 -1.75367 1.46019 0
M  V30 3004 C 285.706 -1.59444 0.318787 0
M  V30 3005 O 286.89 -1.81297 0.516099 0
M  V30 3006 C 284.017 -3.12965 1.29501 0
M  V30 3007 C 283.063 -3.47532 2.47233 0
M  V30 3008 S 283.896 -3.44758 4.09758 0
M  V30 3009 C 285.052 -4.84973 3.95667 0
M  V30 3010 H 285.285 -1.7382 2.41193 0
M  V30 3011 H 282.818 -0.803686 1.31834 0
M  V30 3012 H 284.776 -3.92367 1.20658 0
M  V30 3013 H 283.437 -3.12049 0.358341 0
M  V30 3014 H 282.63 -4.47664 2.31544 0
M  V30 3015 H 282.232 -2.75598 2.52828 0
M  V30 3016 H 284.524 -5.74255 3.59496 0
M  V30 3017 H 285.467 -5.05716 4.95638 0
M  V30 3018 H 285.875 -4.59653 3.27688 0
M  V30 3019 N 285.273 -1.31445 -0.869486 0
M  V30 3020 C 286.221 -1.19067 -1.99814 0
M  V30 3021 C 287.215 -0.0988569 -1.69111 0
M  V30 3022 O 288.421 -0.260781 -1.78101 0
M  V30 3023 H 284.796 -0.368677 -0.655425 0
M  V30 3024 H 286.767 -2.14555 -2.07385 0
M  V30 3025 C 285.516 -0.915323 -3.35436 0
M  V30 3026 H 284.839 -1.74759 -3.59582 0
M  V30 3027 H 286.279 -0.868895 -4.15001 0
M  V30 3028 C 284.738 0.381928 -3.34728 0
M  V30 3029 O 285.268 1.39857 -3.76567 0
M  V30 3030 N 283.474 0.398633 -2.87853 0
M  V30 3031 H 283.021 -0.429186 -2.54 0
M  V30 3032 H 282.979 1.26651 -2.87762 0
M  V30 3033 N 286.751 1.08385 -1.14413 0
M  V30 3034 C 287.681 2.17321 -0.854044 0
M  V30 3035 C 288.662 1.69024 0.191049 0
M  V30 3036 O 289.847 1.94141 0.0476779 0
M  V30 3037 C 286.977 3.45719 -0.330983 0
M  V30 3038 C 285.931 4.07409 -1.31155 0
M  V30 3039 C 285.257 5.30762 -0.64778 0
M  V30 3040 C 286.557 4.48665 -2.67388 0
M  V30 3041 H 288.251 2.41845 -1.76498 0
M  V30 3042 H 285.797 1.16233 -0.850051 0
M  V30 3043 H 287.75 4.21241 -0.115645 0
M  V30 3044 H 286.474 3.2075 0.615381 0
M  V30 3045 H 285.133 3.33919 -1.51306 0
M  V30 3046 H 284.781 5.02078 0.304398 0
M  V30 3047 H 284.481 5.72992 -1.30207 0
M  V30 3048 H 286.005 6.08998 -0.441972 0
M  V30 3049 H 287.419 5.15364 -2.51143 0
M  V30 3050 H 285.816 5.01814 -3.29093 0
M  V30 3051 H 286.886 3.60543 -3.24248 0
M  V30 3052 N 288.23 0.939286 1.26551 0
M  V30 3053 C 289.641 0.628782 1.75793 0
M  V30 3054 C 289.992 -0.856046 1.7654 0
M  V30 3055 O 289.117 -1.66994 1.3763 0
M  V30 3056 C 289.712 1.13465 3.19235 0
M  V30 3057 C 288.271 0.874601 3.66098 0
M  V30 3058 C 287.418 1.28667 2.45642 0
M  V30 3059 H 290.369 1.1178 1.12654 0
M  V30 3060 H 290.39 0.487609 3.77363 0
M  V30 3061 H 289.902 2.21535 3.1866 0
M  V30 3062 H 288.003 -0.191793 3.72106 0
M  V30 3063 H 288.116 1.50028 4.55004 0
M  V30 3064 H 286.48 0.705109 2.44745 0
M  V30 3065 H 287.263 2.37625 2.47769 0
M  V30 3066 N 289.708 -1.40897 0.706093 0
M  V30 3067 C 290.656 -2.32572 0.0361893 0
M  V30 3068 C 291.65 -1.51532 -0.757266 0
M  V30 3069 O 292.856 -1.67396 -0.661703 0
M  V30 3070 H 289.231 -0.751966 -0.00709935 0
M  V30 3071 H 291.202 -2.86733 0.826249 0
M  V30 3072 C 289.951 -3.36418 -0.87854 0
M  V30 3073 H 289.274 -3.98836 -0.277401 0
M  V30 3074 H 290.714 -4.0308 -1.3154 0
M  V30 3075 C 289.173 -2.71141 -1.99961 0
M  V30 3076 O 289.703 -2.56735 -3.0895 0
M  V30 3077 N 287.909 -2.29671 -1.78043 0
M  V30 3078 H 287.456 -2.41588 -0.894042 0
M  V30 3079 H 287.414 -1.86332 -2.53235 0
M  V30 3080 N 291.186 -0.45159 -1.50991 0
M  V30 3081 C 292.432 0.110237 -2.025 0
M  V30 3082 C 292.765 1.41109 -1.33424 0
M  V30 3083 O 292.04 1.89135 -0.453659 0
M  V30 3084 C 292.323 0.314271 -3.58726 0
M  V30 3085 C 292.176 -1.00623 -4.38401 0
M  V30 3086 C 293.495 1.07767 -4.26702 0
M  V30 3087 H 290.614 0.0385897 -0.735989 0
M  V30 3088 H 293.256 -0.593374 -1.80497 0
M  V30 3089 H 291.406 0.913601 -3.77605 0
M  V30 3090 H 293.078 -1.64064 -4.31139 0
M  V30 3091 H 291.321 -1.6075 -4.02917 0
M  V30 3092 H 291.992 -0.817341 -5.45915 0
M  V30 3093 H 294.468 0.56986 -4.12179 0
M  V30 3094 H 293.344 1.18921 -5.35863 0
M  V30 3095 H 293.605 2.10939 -3.88532 0
M  V30 3096 N 292.664 1.56529 -0.183458 0
M  V30 3097 C 293.611 2.18546 0.742055 0
M  V30 3098 C 294.581 1.12912 1.2182 0
M  V30 3099 O 295.766 1.41115 1.28418 0
M  V30 3100 C 292.906 2.83977 1.96089 0
M  V30 3101 C 292.019 4.04105 1.52719 0
M  V30 3102 C 291.154 4.57427 2.70063 0
M  V30 3103 C 290.193 5.69938 2.23243 0
M  V30 3104 N 289.33 6.17717 3.33722 0
M  V30 3105 H 294.17 2.97284 0.206432 0
M  V30 3106 H 291.707 1.46823 0.0901571 0
M  V30 3107 H 293.665 3.20077 2.67594 0
M  V30 3108 H 292.295 2.07822 2.47002 0
M  V30 3109 H 291.347 3.73745 0.708436 0
M  V30 3110 H 292.659 4.85513 1.1436 0
M  V30 3111 H 291.813 4.95772 3.49708 0
M  V30 3112 H 290.552 3.75101 3.11689 0
M  V30 3113 H 289.557 5.31133 1.42048 0
M  V30 3114 H 290.782 6.54073 1.82661 0
M  V30 3115 H 288.728 5.38317 3.74902 0
M  V30 3116 H 288.645 6.94146 2.99495 0
M  V30 3117 H 289.913 6.60713 4.13616 0
M  V30 3118 N 294.142 -0.090211 1.57342 0
M  V30 3119 C 295.388 -0.793982 1.86611 0
M  V30 3120 C 295.721 -1.78142 0.773252 0
M  V30 3121 O 294.996 -1.93271 -0.218304 0
M  V30 3122 C 295.279 -1.51839 3.26523 0
M  V30 3123 C 295.132 -0.548609 4.46442 0
M  V30 3124 C 296.451 -2.46779 3.64401 0
M  V30 3125 H 293.57 -0.287186 0.678744 0
M  V30 3126 H 296.212 -0.0575076 1.89913 0
M  V30 3127 H 294.362 -2.14617 3.23839 0
M  V30 3128 H 296.034 0.0725513 4.61243 0
M  V30 3129 H 294.277 0.137614 4.33582 0
M  V30 3130 H 294.948 -1.09271 5.41076 0
M  V30 3131 H 297.424 -1.94089 3.68061 0
M  V30 3132 H 296.3 -2.94479 4.63221 0
M  V30 3133 H 296.561 -3.30758 2.93346 0
M  V30 3134 N 295.62 -1.53406 -0.361157 0
M  V30 3135 C 296.897 -1.60411 -1.11927 0
M  V30 3136 C 297.277 -0.414385 -2.06993 0
M  V30 3137 O 296.625 0.594976 -2.20618 0
M  V30 3138 C 296.835 -2.95652 -1.85448 0
M  V30 3139 C 298.183 -3.50386 -2.39823 0
M  V30 3140 O 299.207 -2.97711 -1.95568 0
M  V30 3141 O 298.066 -4.42482 -3.20737 0
M  V30 3142 H 295.16 -0.64811 -0.513695 0
M  V30 3143 H 297.706 -1.65749 -0.364065 0
M  V30 3144 H 296.478 -3.73682 -1.16091 0
M  V30 3145 H 296.101 -2.93825 -2.67866 0
M  V30 3146 N 297.098 0.621204 -1.44841 0
M  V30 3147 C 298.028 1.74366 -1.55303 0
M  V30 3148 C 299.009 1.65199 -0.405385 0
M  V30 3149 O 300.194 1.83807 -0.626787 0
M  V30 3150 C 297.324 3.12931 -1.50637 0
M  V30 3151 C 296.278 3.36896 -2.63979 0
M  V30 3152 C 295.604 4.75594 -2.44366 0
M  V30 3153 C 296.904 3.28483 -4.06074 0
M  V30 3154 H 298.598 1.65867 -2.49256 0
M  V30 3155 H 296.144 0.796558 -1.19962 0
M  V30 3156 H 298.097 3.9124 -1.56555 0
M  V30 3157 H 296.821 3.22237 -0.532057 0
M  V30 3158 H 295.48 2.60972 -2.57467 0
M  V30 3159 H 295.128 4.81616 -1.45105 0
M  V30 3160 H 294.828 4.92586 -3.20364 0
M  V30 3161 H 296.352 5.5612 -2.52117 0
M  V30 3162 H 297.766 3.96684 -4.13902 0
M  V30 3163 H 296.163 3.57008 -4.82354 0
M  V30 3164 H 297.233 2.26133 -4.28943 0
M  V30 3165 N 298.576 1.31904 0.862503 0
M  V30 3166 C 299.987 1.19803 1.43193 0
M  V30 3167 C 300.338 -0.192567 1.95253 0
M  V30 3168 O 299.463 -1.09081 1.86896 0
M  V30 3169 C 300.058 2.16883 2.60283 0
M  V30 3170 C 298.617 2.08692 3.13248 0
M  V30 3171 C 297.764 2.05691 1.85975 0
M  V30 3172 H 300.715 1.43846 0.670365 0
M  V30 3173 H 300.736 1.76278 3.37204 0
M  V30 3174 H 300.248 3.18083 2.22363 0
M  V30 3175 H 298.349 1.10713 3.55771 0
M  V30 3176 H 298.462 2.9815 3.75025 0
M  V30 3177 H 296.826 1.50814 2.05249 0
M  V30 3178 H 297.609 3.08659 1.50282 0
M  V30 3179 N 300.054 -1.07777 1.14986 0
M  V30 3180 C 301.303 -1.79669 0.916617 0
M  V30 3181 C 301.616 -1.87474 -0.557917 0
M  V30 3182 O 302.822 -2.55845 -0.908617 0
M  V30 3183 C 301.278 -3.22848 1.59051 0
M  V30 3184 C 300.886 -3.23257 3.10176 0
M  V30 3185 C 302.63 -3.99379 1.43864 0
M  V30 3186 C 300.537 -4.61063 3.70372 0
M  V30 3187 H 299.467 -0.673349 0.33929 0
M  V30 3188 H 302.118 -1.21003 1.37951 0
M  V30 3189 H 300.5 -3.8168 1.0553 0
M  V30 3190 H 301.674 -2.74095 3.70417 0
M  V30 3191 H 299.989 -2.60222 3.25074 0
M  V30 3192 H 302.586 -5.0122 1.86232 0
M  V30 3193 H 302.929 -4.14511 0.385564 0
M  V30 3194 H 303.462 -3.47032 1.94457 0
M  V30 3195 H 300.201 -4.51135 4.7556 0
M  V30 3196 H 299.721 -5.1048 3.14913 0
M  V30 3197 H 301.4 -5.30034 3.71043 0
M  V30 3198 N 301.532 -0.945985 -1.26051 0
M  V30 3199 C 302.781 -0.591836 -1.92822 0
M  V30 3200 C 303.094 0.873956 -1.7499 0
M  V30 3201 O 304.3 1.33769 -2.36259 0
M  V30 3202 C 302.756 -1.00776 -3.45503 0
M  V30 3203 C 302.364 -2.4955 -3.7206 0
M  V30 3204 C 304.108 -0.725735 -4.1825 0
M  V30 3205 C 302.015 -2.84988 -5.18205 0
M  V30 3206 H 300.945 -0.217635 -0.721908 0
M  V30 3207 H 303.596 -1.14927 -1.43052 0
M  V30 3208 H 301.978 -0.378812 -3.94184 0
M  V30 3209 H 303.152 -3.1739 -3.34066 0
M  V30 3210 H 301.467 -2.75133 -3.12555 0
M  V30 3211 H 304.064 -0.966771 -5.25887 0
M  V30 3212 H 304.407 0.337639 -4.14929 0
M  V30 3213 H 304.94 -1.31463 -3.7545 0
M  V30 3214 H 301.679 -3.90307 -5.26631 0
M  V30 3215 H 301.199 -2.21813 -5.57278 0
M  V30 3216 H 302.878 -2.73712 -5.86252 0
M  V30 3217 N 303.011 1.40521 -0.713556 0
M  V30 3218 C 304.236 2.05759 -0.26035 0
M  V30 3219 C 304.661 1.53403 1.08854 0
M  V30 3220 O 304.019 0.668535 1.68524 0
M  V30 3221 C 304.067 3.59745 -0.248122 0
M  V30 3222 O 303.171 4.05123 0.77131 0
M  V30 3223 H 302.512 0.652564 -0.122703 0
M  V30 3224 H 305.042 1.79958 -0.973467 0
M  V30 3225 H 305.052 4.07911 -0.0851129 0
M  V30 3226 H 303.727 3.97218 -1.2325 0
M  V30 3227 H 302.304 3.68422 0.57619 0
M  V30 3228 N 304.489 0.459591 1.5075 0
M  V30 3229 C 305.399 -0.34613 2.32033 0
M  V30 3230 C 306.415 -1.00686 1.41909 0
M  V30 3231 O 307.591 -0.997361 1.7497 0
M  V30 3232 C 304.656 -1.42029 3.16273 0
M  V30 3233 C 303.717 -0.777362 4.22203 0
M  V30 3234 C 302.95 -1.80034 5.02418 0
M  V30 3235 O 303.173 -3.02544 4.83553 0
M  V30 3236 O 302.107 -1.37853 5.85901 0
M  V30 3237 H 305.933 0.318054 3.0203 0
M  V30 3238 H 303.518 0.221663 1.47746 0
M  V30 3239 H 305.4 -2.04275 3.68578 0
M  V30 3240 H 304.075 -2.06815 2.49016 0
M  V30 3241 H 302.982 -0.116256 3.73919 0
M  V30 3242 H 304.315 -0.172634 4.91897 0
M  V30 3243 N 305.967 -1.56429 0.191757 0
M  V30 3244 C 306.914 -2.18936 -0.730454 0
M  V30 3245 C 307.884 -1.13557 -1.21219 0
M  V30 3246 O 309.069 -1.41794 -1.27668 0
M  V30 3247 C 306.209 -2.85013 -1.9458 0
M  V30 3248 C 305.322 -4.04909 -1.50574 0
M  V30 3249 C 304.457 -4.58853 -2.67634 0
M  V30 3250 C 303.496 -5.71114 -2.20217 0
M  V30 3251 N 302.633 -6.19478 -3.30442 0
M  V30 3252 H 307.473 -2.97389 -0.190664 0
M  V30 3253 H 305.01 -1.46869 -0.0823694 0
M  V30 3254 H 306.968 -3.21492 -2.65893 0
M  V30 3255 H 305.598 -2.09129 -2.45896 0
M  V30 3256 H 304.65 -3.74115 -0.688605 0
M  V30 3257 H 305.962 -4.86113 -1.11784 0
M  V30 3258 H 305.116 -4.97619 -3.47074 0
M  V30 3259 H 303.855 -3.76749 -3.09696 0
M  V30 3260 H 302.86 -5.31879 -1.3923 0
M  V30 3261 H 304.085 -6.55033 -1.79189 0
M  V30 3262 H 302.031 -5.40297 -3.72041 0
M  V30 3263 H 301.948 -6.95725 -2.9581 0
M  V30 3264 H 303.216 -6.62898 -4.10106 0
M  V30 3265 N 307.445 0.0818655 -1.57387 0
M  V30 3266 C 308.722 0.815343 -1.77796 0
M  V30 3267 C 309.102 1.96289 -0.77679 0
M  V30 3268 O 308.45 2.27691 0.192106 0
M  V30 3269 C 308.66 1.29765 -3.23978 0
M  V30 3270 C 310.008 1.7351 -3.8753 0
M  V30 3271 O 311.032 1.39356 -3.27808 0
M  V30 3272 O 309.891 2.36708 -4.92576 0
M  V30 3273 H 306.985 0.389914 -0.729312 0
M  V30 3274 H 309.531 0.0627213 -1.69584 0
M  V30 3275 H 308.303 0.47608 -3.88393 0
M  V30 3276 H 307.926 2.11189 -3.36875 0
M  V30 3277 N 308.923 1.53595 0.353017 0
M  V30 3278 C 309.87 1.80919 1.43308 0
M  V30 3279 C 310.84 0.654288 1.5267 0
M  V30 3280 O 312.025 0.897759 1.6836 0
M  V30 3281 C 309.165 2.01605 2.80089 0
M  V30 3282 C 308.278 3.29321 2.79593 0
M  V30 3283 C 307.413 3.40125 4.0803 0
M  V30 3284 C 306.452 4.61826 4.01725 0
M  V30 3285 N 305.589 4.69716 5.21834 0
M  V30 3286 H 310.429 2.73074 1.19308 0
M  V30 3287 H 307.966 1.35263 0.578131 0
M  V30 3288 H 309.924 2.11586 3.59565 0
M  V30 3289 H 308.554 1.12772 3.0246 0
M  V30 3290 H 307.606 3.28229 1.92276 0
M  V30 3291 H 308.918 4.18884 2.70809 0
M  V30 3292 H 308.072 3.49488 4.95927 0
M  V30 3293 H 306.811 2.48601 4.19582 0
M  V30 3294 H 305.816 4.52552 3.12213 0
M  V30 3295 H 307.041 5.54705 3.91764 0
M  V30 3296 H 304.987 3.81097 5.33948 0
M  V30 3297 H 304.904 5.53202 5.1527 0
M  V30 3298 H 306.172 4.83376 6.11529 0
M  V30 3299 N 310.401 -0.613514 1.45168 0
M  V30 3300 C 311.349 -1.74572 1.53712 0
M  V30 3301 C 312.343 -1.64426 0.407505 0
M  V30 3302 O 313.549 -1.70291 0.583176 0
M  V30 3303 H 309.924 -0.576641 0.48269 0
M  V30 3304 H 311.895 -1.64492 2.48968 0
M  V30 3305 C 310.644 -3.12943 1.51532 0
M  V30 3306 H 309.967 -3.21407 2.37776 0
M  V30 3307 H 311.407 -3.9201 1.61569 0
M  V30 3308 C 309.866 -3.36053 0.238798 0
M  V30 3309 O 310.396 -3.95837 -0.6838 0
M  V30 3310 N 308.602 -2.9028 0.136359 0
M  V30 3311 H 308.149 -2.41811 0.887999 0
M  V30 3312 H 308.107 -3.06116 -0.716944 0
M  V30 3313 N 311.879 -1.3236 -0.855495 0
M  V30 3314 C 313.156 -1.13491 -1.59309 0
M  V30 3315 C 313.536 0.30503 -2.08885 0
M  V30 3316 O 312.884 1.30151 -1.87811 0
M  V30 3317 C 313.094 -2.16176 -2.73987 0
M  V30 3318 C 314.442 -2.49463 -3.43589 0
M  V30 3319 O 315.466 -2.14715 -2.84211 0
M  V30 3320 O 314.325 -3.09027 -4.50738 0
M  V30 3321 H 311.419 -0.437887 -0.701559 0
M  V30 3322 H 313.965 -1.43887 -0.899696 0
M  V30 3323 H 312.737 -3.1297 -2.34873 0
M  V30 3324 H 312.36 -1.86769 -3.51003 0
M  V30 3325 N 313.357 1.07166 -1.15556 0
M  V30 3326 C 314.606 1.79181 -0.926132 0
M  V30 3327 C 314.919 1.87768 0.547967 0
M  V30 3328 O 316.125 2.56323 0.895036 0
M  V30 3329 C 314.581 3.22 -1.60761 0
M  V30 3330 C 314.189 3.21607 -3.11886 0
M  V30 3331 C 315.933 3.9861 -1.4598 0
M  V30 3332 C 313.84 4.59092 -3.72812 0
M  V30 3333 H 312.77 0.67154 -0.342856 0
M  V30 3334 H 315.421 1.2027 -1.3859 0
M  V30 3335 H 313.803 3.81115 -1.07553 0
M  V30 3336 H 314.977 2.72127 -3.71865 0
M  V30 3337 H 313.292 2.58495 -3.2645 0
M  V30 3338 H 315.889 5.00225 -1.88888 0
M  V30 3339 H 316.232 4.143 -0.407541 0
M  V30 3340 H 316.765 3.45996 -1.96295 0
M  V30 3341 H 313.504 4.48606 -4.77946 0
M  V30 3342 H 313.024 5.08803 -3.17616 0
M  V30 3343 H 314.703 5.28059 -3.73848 0
M  V30 3344 N 314.835 0.952656 1.25548 0
M  V30 3345 C 315.765 0.489287 2.28316 0
M  V30 3346 C 316.746 -0.463359 1.63667 0
M  V30 3347 O 317.931 -0.36274 1.90782 0
M  V30 3348 C 315.061 -0.235603 3.465 0
M  V30 3349 C 314.015 0.631593 4.23314 0
M  V30 3350 C 313.341 -0.223923 5.34231 0
M  V30 3351 C 314.641 1.90871 4.86174 0
M  V30 3352 H 316.335 1.34822 2.67326 0
M  V30 3353 H 313.881 0.649728 1.28509 0
M  V30 3354 H 315.834 -0.570882 4.17515 0
M  V30 3355 H 314.558 -1.12877 3.06474 0
M  V30 3356 H 313.217 0.949929 3.54079 0
M  V30 3357 H 312.865 -1.11678 4.90446 0
M  V30 3358 H 312.565 0.35299 5.86539 0
M  V30 3359 H 314.089 -0.554214 6.0808 0
M  V30 3360 H 315.503 1.63997 5.49343 0
M  V30 3361 H 313.9 2.43112 5.4865 0
M  V30 3362 H 314.97 2.61304 4.08471 0
M  V30 3363 N 316.313 -1.40141 0.720998 0
M  V30 3364 C 317.261 -2.3252 0.0608547 0
M  V30 3365 C 318.255 -1.52326 -0.741152 0
M  V30 3366 O 319.461 -1.68089 -0.643911 0
M  V30 3367 H 315.836 -0.751999 0.000876664 0
M  V30 3368 H 317.807 -2.8584 0.856614 0
M  V30 3369 C 316.556 -3.37331 -0.842809 0
M  V30 3370 H 315.879 -3.99108 -0.235084 0
M  V30 3371 H 317.319 -4.04452 -1.27257 0
M  V30 3372 C 315.778 -2.73246 -1.97074 0
M  V30 3373 O 316.308 -2.59998 -3.06209 0
M  V30 3374 N 314.514 -2.31547 -1.75597 0
M  V30 3375 H 314.061 -2.42522 -0.868368 0
M  V30 3376 H 314.019 -1.89007 -2.51244 0
M  V30 3377 N 317.792 -0.46758 -1.50504 0
M  V30 3378 C 319.039 0.0886219 -2.02306 0
M  V30 3379 C 319.367 1.40037 -1.34981 0
M  V30 3380 O 318.622 1.90136 -0.463318 0
M  V30 3381 C 318.921 0.323995 -3.55928 0
M  V30 3382 C 318.587 -0.905618 -4.41712 0
M  V30 3383 C 317.249 -1.24275 -4.64875 0
M  V30 3384 C 319.601 -1.72448 -4.91845 0
M  V30 3385 C 316.929 -2.39888 -5.35417 0
M  V30 3386 C 319.281 -2.87185 -5.63656 0
M  V30 3387 C 317.945 -3.21317 -5.85074 0
M  V30 3388 H 317.215 0.0324291 -0.74029 0
M  V30 3389 H 319.862 -0.620945 -1.81153 0
M  V30 3390 H 318.167 1.11577 -3.75577 0
M  V30 3391 H 319.864 0.76826 -3.93572 0
M  V30 3392 H 316.454 -0.632956 -4.239 0
M  V30 3393 H 320.638 -1.4772 -4.73806 0
M  V30 3394 H 315.894 -2.66611 -5.50208 0
M  V30 3395 H 320.068 -3.50985 -6.01484 0
M  V30 3396 H 317.695 -4.1101 -6.39511 0
M  V30 3397 N 319.27 1.56325 -0.20005 0
M  V30 3398 C 320.233 2.18084 0.705132 0
M  V30 3399 C 321.233 1.13666 1.1374 0
M  V30 3400 O 322.423 1.39023 1.04968 0
M  V30 3401 C 319.555 2.78689 1.96329 0
M  V30 3402 H 320.748 2.99435 0.167023 0
M  V30 3403 H 318.301 1.56221 0.0495725 0
M  V30 3404 H 319.036 2.0115 2.5438 0
M  V30 3405 H 318.821 3.55133 1.66202 0
M  V30 3406 H 320.311 3.26096 2.60866 0
M  V30 3407 N 320.748 -0.0735177 1.57428 0
M  V30 3408 C 321.997 -0.771809 1.86349 0
M  V30 3409 C 322.31 -1.78828 0.792452 0
M  V30 3410 O 323.516 -2.53602 0.96945 0
M  V30 3411 C 321.972 -1.42358 3.30548 0
M  V30 3412 C 321.58 -0.445761 4.45777 0
M  V30 3413 C 323.324 -2.10434 3.6867 0
M  V30 3414 C 321.231 -1.10335 5.81016 0
M  V30 3415 H 320.161 -0.291999 0.695164 0
M  V30 3416 H 322.812 -0.0250749 1.83483 0
M  V30 3417 H 321.194 -2.21852 3.28021 0
M  V30 3418 H 322.368 0.319239 4.59693 0
M  V30 3419 H 320.683 0.130457 4.16196 0
M  V30 3420 H 323.28 -2.60405 4.67004 0
M  V30 3421 H 323.623 -2.90298 2.98383 0
M  V30 3422 H 324.156 -1.37773 3.7318 0
M  V30 3423 H 320.895 -0.345061 6.54591 0
M  V30 3424 H 320.415 -1.83925 5.70904 0
M  V30 3425 H 322.094 -1.62367 6.26295 0
M  V30 3426 N 322.226 -1.5378 -0.344866 0
M  V30 3427 C 323.637 -1.62428 -0.920552 0
M  V30 3428 C 323.988 -0.504747 -1.89596 0
M  V30 3429 O 323.113 0.365711 -2.13287 0
M  V30 3430 C 323.708 -2.94419 -1.67639 0
M  V30 3431 C 322.267 -3.05333 -2.20111 0
M  V30 3432 C 321.414 -2.57866 -1.01982 0
M  V30 3433 H 324.365 -1.58222 -0.123042 0
M  V30 3434 H 324.386 -2.83384 -2.53917 0
M  V30 3435 H 323.898 -3.7588 -0.966224 0
M  V30 3436 H 321.999 -2.28502 -2.94308 0
M  V30 3437 H 322.112 -4.10778 -2.46573 0
M  V30 3438 H 320.476 -2.13241 -1.39285 0
M  V30 3439 H 321.259 -3.41765 -0.324308 0
M  V30 3440 N 323.704 0.605807 -1.45491 0
M  V30 3441 C 324.637 1.73022 -1.48791 0
M  V30 3442 C 325.615 1.58917 -0.344112 0
M  V30 3443 O 326.799 1.80453 -0.544876 0
M  V30 3444 C 323.926 3.10865 -1.34463 0
M  V30 3445 C 322.972 3.43554 -2.5273 0
M  V30 3446 S 323.805 3.38196 -4.15191 0
M  V30 3447 C 324.961 4.78616 -4.03333 0
M  V30 3448 H 325.194 1.69961 -2.43928 0
M  V30 3449 H 322.727 0.782611 -1.33096 0
M  V30 3450 H 324.685 3.90398 -1.26884 0
M  V30 3451 H 323.346 3.1144 -0.40794 0
M  V30 3452 H 322.539 4.43924 -2.38637 0
M  V30 3453 H 322.141 2.71541 -2.5718 0
M  V30 3454 H 324.433 5.68463 -3.68587 0
M  V30 3455 H 325.376 4.97767 -5.03621 0
M  V30 3456 H 325.784 4.54381 -3.34959 0
M  V30 3457 N 325.182 1.32811 0.848464 0
M  V30 3458 C 326.43 1.23479 1.59991 0
M  V30 3459 C 326.751 -0.201853 1.93952 0
M  V30 3460 O 326.021 -1.12818 1.60153 0
M  V30 3461 H 324.601 0.454034 0.593179 0
M  V30 3462 H 327.263 1.66412 1.01455 0
M  V30 3463 H 326.359 1.82178 2.53412 0
M  V30 3464 N 326.66 -1.06551 1.16123 0
M  V30 3465 C 327.9 -1.80889 0.951766 0
M  V30 3466 C 328.264 -1.85062 -0.511465 0
M  V30 3467 O 329.465 -2.55353 -0.83954 0
M  V30 3468 C 327.736 -3.21609 1.55893 0
M  V30 3469 S 329.295 -4.12593 1.49373 0
M  V30 3470 H 326.113 -0.623156 0.342341 0
M  V30 3471 H 328.715 -1.27943 1.47821 0
M  V30 3472 H 327.419 -3.16165 2.61664 0
M  V30 3473 H 326.95 -3.79631 1.0317 0
M  V30 3474 H 328.965 -4.93753 0.492196 0
M  V30 3475 N 328.138 -0.959301 -1.25041 0
M  V30 3476 C 329.086 -0.474437 -2.2771 0
M  V30 3477 C 330.08 0.457697 -1.631 0
M  V30 3478 O 331.286 0.333912 -1.76876 0
M  V30 3479 H 327.661 -0.134936 -0.739795 0
M  V30 3480 H 329.632 -1.35251 -2.65988 0
M  V30 3481 C 328.381 0.227884 -3.46952 0
M  V30 3482 H 327.704 -0.480248 -3.96905 0
M  V30 3483 H 329.144 0.531091 -4.20661 0
M  V30 3484 C 327.603 1.452 -3.04004 0
M  V30 3485 O 328.133 2.54949 -3.10426 0
M  V30 3486 N 326.339 1.31502 -2.59144 0
M  V30 3487 H 325.886 0.422065 -2.54119 0
M  V30 3488 H 325.844 2.13521 -2.30773 0
M  V30 3489 N 329.616 1.39756 -0.72842 0
M  V30 3490 C 330.863 2.00645 -0.273487 0
M  V30 3491 C 331.191 1.57786 1.13727 0
M  V30 3492 O 330.446 0.794886 1.7883 0
M  V30 3493 C 330.745 3.56002 -0.315776 0
M  V30 3494 C 330.411 4.18489 -1.67863 0
M  V30 3495 C 329.073 4.3527 -2.05166 0
M  V30 3496 C 331.425 4.53219 -2.57375 0
M  V30 3497 C 328.753 4.84069 -3.31503 0
M  V30 3498 C 331.105 5.03423 -3.83077 0
M  V30 3499 C 329.769 5.18413 -4.20481 0
M  V30 3500 H 329.039 0.734211 -0.100076 0
M  V30 3501 H 331.686 1.6718 -0.933972 0
M  V30 3502 H 329.991 3.89452 0.428285 0
M  V30 3503 H 331.688 4.00963 0.0542575 0
M  V30 3504 H 328.278 4.05824 -1.37858 0
M  V30 3505 H 332.462 4.39878 -2.29827 0
M  V30 3506 H 327.718 4.93859 -3.60435 0
M  V30 3507 H 331.892 5.2927 -4.52599 0
M  V30 3508 H 329.519 5.55987 -5.18443 0
M  V30 3509 N 331.094 0.475555 1.50254 0
M  V30 3510 C 332.343 -0.0795996 2.01543 0
M  V30 3511 C 332.656 -1.4038 1.36209 0
M  V30 3512 O 333.862 -2.04415 1.7868 0
M  V30 3513 C 332.318 -0.192363 3.59386 0
M  V30 3514 C 331.926 1.12367 4.33679 0
M  V30 3515 C 333.67 -0.699238 4.18701 0
M  V30 3516 C 331.577 0.974453 5.83317 0
M  V30 3517 H 330.507 -0.0335228 0.753254 0
M  V30 3518 H 333.158 0.611128 1.73025 0
M  V30 3519 H 331.54 -0.946974 3.84511 0
M  V30 3520 H 332.714 1.88958 4.20276 0
M  V30 3521 H 331.029 1.562 3.85993 0
M  V30 3522 H 333.626 -0.827978 5.28251 0
M  V30 3523 H 333.969 -1.69171 3.80377 0
M  V30 3524 H 334.502 -0.00188807 3.978 0
M  V30 3525 H 331.241 1.94042 6.26121 0
M  V30 3526 H 330.761 0.248998 5.99283 0
M  V30 3527 H 332.44 0.642867 6.43798 0
M  V30 3528 N 332.573 -1.56217 0.208337 0
M  V30 3529 C 333.536 -2.18455 -0.693557 0
M  V30 3530 C 334.536 -1.14268 -1.13135 0
M  V30 3531 O 335.726 -1.39577 -1.0423 0
M  V30 3532 C 332.858 -2.79727 -1.94848 0
M  V30 3533 H 334.051 -2.99519 -0.15114 0
M  V30 3534 H 331.604 -1.56245 -0.041287 0
M  V30 3535 H 332.339 -2.02497 -2.53309 0
M  V30 3536 H 332.124 -3.56009 -1.64316 0
M  V30 3537 H 333.614 -3.27475 -2.59133 0
M  V30 3538 N 334.051 0.0651679 -1.57465 0
M  V30 3539 C 335.014 1.06117 -2.03155 0
M  V30 3540 C 336.014 1.31204 -0.929632 0
M  V30 3541 O 337.204 1.26813 -1.19432 0
M  V30 3542 C 334.336 2.4032 -2.41783 0
M  V30 3543 H 335.529 0.667231 -2.92383 0
M  V30 3544 H 333.082 0.311075 -1.53173 0
M  V30 3545 H 333.817 2.84532 -1.55601 0
M  V30 3546 H 333.602 2.23451 -3.22199 0
M  V30 3547 H 335.092 3.11898 -2.77685 0
M  V30 3548 N 335.529 1.53961 0.336706 0
M  V30 3549 C 336.754 1.75797 1.10046 0
M  V30 3550 C 337.179 0.498985 1.81361 0
M  V30 3551 O 336.537 -0.548769 1.72795 0
M  V30 3552 C 336.585 2.94257 2.08436 0
M  V30 3553 O 335.689 2.64883 3.16087 0
M  V30 3554 H 335.03 0.582936 0.317934 0
M  V30 3555 H 337.56 2.00945 0.38501 0
M  V30 3556 H 337.57 3.21237 2.51537 0
M  V30 3557 H 336.245 3.85564 1.55927 0
M  V30 3558 H 334.822 2.48812 2.77753 0
M  V30 3559 N 337.007 -0.598083 1.45811 0
M  V30 3560 C 338.254 -1.35681 1.50323 0
M  V30 3561 C 338.582 -1.9393 0.148739 0
M  V30 3562 O 337.837 -1.76094 -0.853787 0
M  V30 3563 C 338.136 -2.51669 2.53766 0
M  V30 3564 C 337.802 -2.11508 3.98215 0
M  V30 3565 C 336.464 -2.0027 4.37545 0
M  V30 3566 C 338.816 -1.80308 4.89018 0
M  V30 3567 C 336.144 -1.56067 5.65562 0
M  V30 3568 C 338.496 -1.37589 6.17456 0
M  V30 3569 C 337.16 -1.24916 6.55708 0
M  V30 3570 H 336.43 -0.496492 0.550069 0
M  V30 3571 H 339.077 -0.675052 1.79207 0
M  V30 3572 H 337.382 -3.25225 2.18486 0
M  V30 3573 H 339.079 -3.09895 2.54492 0
M  V30 3574 H 335.669 -2.21185 3.67117 0
M  V30 3575 H 339.853 -1.87884 4.59362 0
M  V30 3576 H 335.109 -1.44886 5.93985 0
M  V30 3577 H 339.283 -1.12495 6.87254 0
M  V30 3578 H 336.91 -0.904386 7.54801 0
M  V30 3579 N 338.485 -1.33259 -0.841409 0
M  V30 3580 C 339.734 -1.23921 -1.59143 0
M  V30 3581 C 340.047 0.1941 -1.94635 0
M  V30 3582 O 341.253 0.409474 -2.68394 0
M  V30 3583 C 339.709 -2.17119 -2.87032 0
M  V30 3584 C 339.317 -3.65606 -2.58914 0
M  V30 3585 C 341.061 -2.16648 -3.65053 0
M  V30 3586 C 338.968 -4.50726 -3.82884 0
M  V30 3587 H 337.898 -0.460264 -0.597221 0
M  V30 3588 H 340.549 -1.58307 -0.927959 0
M  V30 3589 H 338.931 -1.75663 -3.54906 0
M  V30 3590 H 340.105 -4.15487 -1.99267 0
M  V30 3591 H 338.42 -3.68341 -1.942 0
M  V30 3592 H 341.017 -2.77474 -4.57069 0
M  V30 3593 H 341.36 -1.16088 -3.99787 0
M  V30 3594 H 341.893 -2.56453 -3.041 0
M  V30 3595 H 338.632 -5.52151 -3.53283 0
M  V30 3596 H 338.152 -4.0559 -4.41879 0
M  V30 3597 H 339.831 -4.64401 -4.50489 0
M  V30 3598 N 339.963 1.05934 -1.16686 0
M  V30 3599 C 340.895 2.13468 -0.834503 0
M  V30 3600 C 341.908 1.62013 0.15984 0
M  V30 3601 O 343.097 1.7838 -0.0654228 0
M  V30 3602 C 340.197 3.3817 -0.222361 0
M  V30 3603 C 339.37 4.18928 -1.25771 0
M  V30 3604 C 338.429 5.21985 -0.664703 0
M  V30 3605 O 337.455 5.53334 -1.33453 0
M  V30 3606 N 338.657 5.77919 0.546834 0
M  V30 3607 H 341.422 2.42578 -1.75999 0
M  V30 3608 H 338.983 1.21967 -1.06469 0
M  V30 3609 H 340.975 4.04266 0.187472 0
M  V30 3610 H 339.545 3.06655 0.606758 0
M  V30 3611 H 338.765 3.48433 -1.84358 0
M  V30 3612 H 340.053 4.69687 -1.95631 0
M  V30 3613 H 339.451 5.54721 1.10912 0
M  V30 3614 H 338.008 6.45573 0.898829 0
M  V30 3615 N 341.441 0.965919 1.2453 0
M  V30 3616 C 342.666 0.643971 1.97149 0
M  V30 3617 C 343.091 -0.779487 1.71189 0
M  V30 3618 O 342.449 -1.5288 0.974553 0
M  V30 3619 C 342.497 0.922557 3.48599 0
M  V30 3620 O 341.601 0.00707672 4.12399 0
M  V30 3621 H 340.942 0.243647 0.617683 0
M  V30 3622 H 343.472 1.29558 1.58353 0
M  V30 3623 H 343.482 0.853373 3.98976 0
M  V30 3624 H 342.157 1.95996 3.66822 0
M  V30 3625 H 340.734 0.12943 3.72675 0
M  V30 3626 N 342.919 -1.39368 0.735821 0
M  V30 3627 C 343.882 -2.2896 0.104874 0
M  V30 3628 C 344.882 -1.46347 -0.666274 0
M  V30 3629 O 346.072 -1.67014 -0.49517 0
M  V30 3630 C 343.204 -3.29857 -0.860656 0
M  V30 3631 H 344.397 -2.86259 0.894205 0
M  V30 3632 H 341.95 -1.48029 0.501704 0
M  V30 3633 H 342.685 -2.77615 -1.67631 0
M  V30 3634 H 342.47 -3.9087 -0.310327 0
M  V30 3635 H 343.96 -3.96893 -1.29867 0
M  V30 3636 N 344.397 -0.483516 -1.5 0
M  V30 3637 C 345.674 0.129337 -1.95172 0
M  V30 3638 C 346.054 1.55802 -1.4244 0
M  V30 3639 O 345.402 2.19625 -0.630649 0
M  V30 3640 C 345.612 0.0599251 -3.48949 0
M  V30 3641 C 346.96 0.242617 -4.23906 0
M  V30 3642 O 347.984 0.135933 -3.55941 0
M  V30 3643 O 346.843 0.459454 -5.44565 0
M  V30 3644 H 343.937 0.104887 -0.820322 0
M  V30 3645 H 346.483 -0.544807 -1.60717 0
M  V30 3646 H 345.255 -0.937079 -3.79914 0
M  V30 3647 H 344.878 0.774984 -3.89974 0
M  V30 3648 N 345.875 1.56104 -0.216619 0
M  V30 3649 C 347.152 1.89988 0.465165 0
M  V30 3650 C 347.532 1.13326 1.78102 0
M  V30 3651 O 346.88 0.241033 2.27225 0
M  V30 3652 C 347.09 3.42646 0.662939 0
M  V30 3653 C 348.438 4.13311 0.972602 0
M  V30 3654 O 349.462 3.48217 0.749901 0
M  V30 3655 O 348.321 5.28396 1.39499 0
M  V30 3656 H 345.415 0.78979 0.245276 0
M  V30 3657 H 347.961 1.67721 -0.258436 0
M  V30 3658 H 346.733 3.90399 -0.26543 0
M  V30 3659 H 346.356 3.70677 1.43821 0
M  V30 3660 N 347.353 -0.0568162 1.57498 0
M  V30 3661 C 348.599 -0.75422 1.88253 0
M  V30 3662 C 348.932 -1.76461 0.810865 0
M  V30 3663 O 348.207 -1.93691 -0.177259 0
M  V30 3664 C 348.49 -1.44878 3.2967 0
M  V30 3665 C 348.343 -0.453789 4.47505 0
M  V30 3666 C 349.662 -2.38994 3.69554 0
M  V30 3667 H 346.781 -0.272724 0.684683 0
M  V30 3668 H 349.423 -0.0172113 1.89992 0
M  V30 3669 H 347.573 -2.077 3.28318 0
M  V30 3670 H 349.245 0.170371 4.60985 0
M  V30 3671 H 347.488 0.229552 4.33192 0
M  V30 3672 H 348.159 -0.977699 5.43273 0
M  V30 3673 H 350.635 -1.86239 3.72095 0
M  V30 3674 H 349.511 -2.84587 4.69363 0
M  V30 3675 H 349.772 -3.24461 3.00296 0
M  V30 3676 N 348.832 -1.54138 -0.328536 0
M  V30 3677 C 350.248 -1.44736 -0.672574 0
M  V30 3678 C 350.448 -0.616217 -1.91846 0
M  V30 3679 O 349.504 -0.113067 -2.52247 0
M  V30 3680 C 350.817 -2.884 -0.851217 0
M  V30 3681 C 352.365 -2.98271 -0.948877 0
M  V30 3682 C 352.84 -4.43074 -1.15973 0
M  V30 3683 N 354.331 -4.46665 -1.22658 0
M  V30 3684 C 355.066 -5.55857 -1.40751 0
M  V30 3685 N 354.562 -6.75026 -1.5592 0
M  V30 3686 N 356.355 -5.43495 -1.4342 0
M  V30 3687 H 348.506 -2.06661 0.490421 0
M  V30 3688 H 350.769 -0.934812 0.157579 0
M  V30 3689 H 350.475 -3.51699 -0.00704236 0
M  V30 3690 H 350.349 -3.34225 -1.74853 0
M  V30 3691 H 352.736 -2.35102 -1.78356 0
M  V30 3692 H 352.817 -2.55785 -0.0281435 0
M  V30 3693 H 352.461 -5.06827 -0.329915 0
M  V30 3694 H 352.391 -4.83165 -2.09426 0
M  V30 3695 H 354.882 -3.60797 -1.124 0
M  V30 3696 H 355.195 -7.54004 -1.69404 0
M  V30 3697 H 353.54 -6.77944 -1.53027 0
M  V30 3698 H 356.731 -4.49349 -1.31162 0
M  V30 3699 H 356.904 -6.28649 -1.57178 0
M  V30 3700 N 350.31 0.590341 -1.46126 0
M  V30 3701 C 351.24 1.71032 -1.58966 0
M  V30 3702 C 352.221 1.64302 -0.440335 0
M  V30 3703 O 353.406 1.82436 -0.665634 0
M  V30 3704 C 350.536 3.09665 -1.57241 0
M  V30 3705 C 349.49 3.31221 -2.71066 0
M  V30 3706 C 348.816 4.70303 -2.54399 0
M  V30 3707 C 350.116 3.19796 -4.1295 0
M  V30 3708 H 351.81 1.60543 -2.52718 0
M  V30 3709 H 349.356 0.770933 -1.21625 0
M  V30 3710 H 351.309 3.87831 -1.64819 0
M  V30 3711 H 350.033 3.21036 -0.600289 0
M  V30 3712 H 348.692 2.55452 -2.62944 0
M  V30 3713 H 348.34 4.78429 -1.55288 0
M  V30 3714 H 348.04 4.85679 -3.30741 0
M  V30 3715 H 349.564 5.50647 -2.63857 0
M  V30 3716 H 350.978 3.87815 -4.22223 0
M  V30 3717 H 349.375 3.46696 -4.89818 0
M  V30 3718 H 350.445 2.16983 -4.33643 0
M  V30 3719 N 351.788 1.33704 0.83433 0
M  V30 3720 C 353.037 1.24763 1.58484 0
M  V30 3721 C 353.35 -0.183775 1.94735 0
M  V30 3722 O 354.556 -0.395234 2.68608 0
M  V30 3723 C 353.012 2.18638 2.85876 0
M  V30 3724 C 352.62 3.66974 2.56971 0
M  V30 3725 C 354.364 2.18581 3.63899 0
M  V30 3726 C 352.271 4.5275 3.80488 0
M  V30 3727 H 351.201 0.463425 0.594772 0
M  V30 3728 H 353.852 1.58797 0.919551 0
M  V30 3729 H 352.234 1.77542 3.5397 0
M  V30 3730 H 353.408 4.16538 1.9706 0
M  V30 3731 H 351.723 3.69366 1.92244 0
M  V30 3732 H 354.32 2.79894 4.55591 0
M  V30 3733 H 354.663 1.18207 3.99165 0
M  V30 3734 H 355.196 2.58062 3.02735 0
M  V30 3735 H 351.935 5.54017 3.5035 0
M  V30 3736 H 351.455 4.07927 4.39722 0
M  V30 3737 H 353.134 4.66784 4.4802 0
M  V30 3738 N 353.266 -1.05314 1.17247 0
M  V30 3739 C 354.682 -1.30452 0.919473 0
M  V30 3740 C 354.882 -1.9703 -0.42209 0
M  V30 3741 O 353.938 -2.24311 -1.15935 0
M  V30 3742 C 355.251 -2.17551 2.07586 0
M  V30 3743 C 356.799 -2.30937 2.11275 0
M  V30 3744 C 357.274 -3.21396 3.26296 0
M  V30 3745 N 358.765 -3.28981 3.26076 0
M  V30 3746 C 359.5 -3.99095 4.11716 0
M  V30 3747 N 358.996 -4.71648 5.07465 0
M  V30 3748 N 360.789 -3.95247 3.9967 0
M  V30 3749 H 352.94 -0.604988 2.03602 0
M  V30 3750 H 355.203 -0.329368 0.888944 0
M  V30 3751 H 354.909 -1.75921 3.0454 0
M  V30 3752 H 354.783 -3.18182 2.02584 0
M  V30 3753 H 357.17 -2.71809 1.14907 0
M  V30 3754 H 357.251 -1.2994 2.20339 0
M  V30 3755 H 356.895 -2.81238 4.22927 0
M  V30 3756 H 356.825 -4.22395 3.14467 0
M  V30 3757 H 359.316 -2.77286 2.5675 0
M  V30 3758 H 359.629 -5.22705 5.6921 0
M  V30 3759 H 357.974 -4.70594 5.11435 0
M  V30 3760 H 361.165 -3.37691 3.24164 0
M  V30 3761 H 361.338 -4.4962 4.66632 0
M  V30 3762 N 354.744 -0.972509 -1.24016 0
M  V30 3763 C 355.692 -0.498562 -2.27194 0
M  V30 3764 C 356.686 0.440372 -1.63576 0
M  V30 3765 O 357.892 0.315133 -1.7722 0
M  V30 3766 H 354.267 -0.142775 -0.738322 0
M  V30 3767 H 356.238 -1.38065 -2.64539 0
M  V30 3768 C 354.987 0.191072 -3.47175 0
M  V30 3769 H 354.31 -0.522318 -3.96373 0
M  V30 3770 H 355.75 0.486445 -4.212 0
M  V30 3771 C 354.209 1.41967 -3.05527 0
M  V30 3772 O 354.739 2.51642 -3.13112 0
M  V30 3773 N 352.945 1.28746 -2.60524 0
M  V30 3774 H 352.492 0.395089 -2.54552 0
M  V30 3775 H 352.45 2.11061 -2.33025 0
M  V30 3776 N 356.222 1.38976 -0.743202 0
M  V30 3777 C 357.152 2.33171 -0.123873 0
M  V30 3778 C 358.133 1.54336 0.71516 0
M  V30 3779 O 359.318 1.82696 0.658467 0
M  V30 3780 C 356.448 3.38474 0.777978 0
M  V30 3781 C 355.402 4.27979 0.0424758 0
M  V30 3782 C 354.728 5.2405 1.06189 0
M  V30 3783 C 356.028 5.10155 -1.1198 0
M  V30 3784 H 357.722 2.85213 -0.910709 0
M  V30 3785 H 355.268 1.37133 -0.439388 0
M  V30 3786 H 357.221 4.03328 1.22084 0
M  V30 3787 H 355.945 2.84891 1.59702 0
M  V30 3788 H 354.604 3.64616 -0.380853 0
M  V30 3789 H 354.252 4.66758 1.87472 0
M  V30 3790 H 353.952 5.84785 0.574485 0
M  V30 3791 H 355.476 5.9178 1.50428 0
M  V30 3792 H 356.89 5.68307 -0.75499 0
M  V30 3793 H 355.287 5.80073 -1.53738 0
M  V30 3794 H 356.357 4.44504 -1.93764 0
M  V30 3795 N 357.7 0.491464 1.49741 0
M  V30 3796 C 358.63 -0.28154 2.31796 0
M  V30 3797 C 359.611 -0.971473 1.3963 0
M  V30 3798 O 360.796 -0.964719 1.68543 0
M  V30 3799 C 357.926 -1.35203 3.19902 0
M  V30 3800 C 356.88 -0.782529 4.20786 0
M  V30 3801 C 356.206 -1.95283 4.97764 0
M  V30 3802 C 357.506 0.21999 5.21837 0
M  V30 3803 H 359.2 0.403355 2.96671 0
M  V30 3804 H 356.746 0.195425 1.42668 0
M  V30 3805 H 358.699 -1.90045 3.76113 0
M  V30 3806 H 357.423 -2.06598 2.52953 0
M  V30 3807 H 356.082 -0.255928 3.65706 0
M  V30 3808 H 355.73 -2.65423 4.2727 0
M  V30 3809 H 355.43 -1.57789 5.66018 0
M  V30 3810 H 356.954 -2.50577 5.56816 0
M  V30 3811 H 358.368 -0.23996 5.72798 0
M  V30 3812 H 356.765 0.51026 5.97927 0
M  V30 3813 H 357.835 1.13911 4.7133 0
M  V30 3814 N 359.178 -1.55987 0.224894 0
M  V30 3815 C 360.426 -1.97998 -0.405099 0
M  V30 3816 C 360.747 -1.11387 -1.60056 0
M  V30 3817 O 360.017 -0.191645 -1.9496 0
M  V30 3818 H 358.597 -0.731235 -0.152658 0
M  V30 3819 H 361.259 -1.92279 0.318567 0
M  V30 3820 H 360.355 -3.03463 -0.729167 0
M  V30 3821 N 360.656 0.0484629 -1.57525 0
M  V30 3822 C 362.067 0.597486 -1.76881 0
M  V30 3823 C 362.418 1.76664 -0.853475 0
M  V30 3824 O 361.543 2.16357 -0.0433656 0
M  V30 3825 C 362.138 1.09066 -3.20765 0
M  V30 3826 C 360.697 1.58535 -3.41385 0
M  V30 3827 C 359.844 0.514868 -2.72478 0
M  V30 3828 H 362.795 -0.177758 -1.57701 0
M  V30 3829 H 362.816 1.95875 -3.2621 0
M  V30 3830 H 362.328 0.239521 -3.8736 0
M  V30 3831 H 360.429 2.45898 -2.79937 0
M  V30 3832 H 360.542 1.64622 -4.49929 0
M  V30 3833 H 358.906 0.965407 -2.35695 0
M  V30 3834 H 359.689 -0.32648 -3.41744 0
M  V30 3835 N 362.134 1.5431 0.320358 0
M  V30 3836 C 363.55 1.45091 0.664889 0
M  V30 3837 C 363.75 0.626382 1.91517 0
M  V30 3838 O 362.806 0.126443 2.52183 0
M  V30 3839 C 364.119 2.88848 0.83591 0
M  V30 3840 C 365.667 2.9877 0.933046 0
M  V30 3841 C 366.142 4.43683 1.13621 0
M  V30 3842 N 367.633 4.47309 1.20287 0
M  V30 3843 C 368.368 5.56595 1.37801 0
M  V30 3844 N 367.864 6.75844 1.52338 0
M  V30 3845 N 369.657 5.44248 1.40535 0
M  V30 3846 H 361.808 2.06398 -0.501374 0
M  V30 3847 H 364.071 0.933963 -0.162534 0
M  V30 3848 H 363.777 3.51698 -0.0116092 0
M  V30 3849 H 363.651 3.35148 1.73078 0
M  V30 3850 H 366.038 2.36045 1.77107 0
M  V30 3851 H 366.119 2.55796 0.0145782 0
M  V30 3852 H 365.763 5.06995 0.303032 0
M  V30 3853 H 365.693 4.84269 2.0686 0
M  V30 3854 H 368.184 3.61388 1.10485 0
M  V30 3855 H 368.497 7.54892 1.65403 0
M  V30 3856 H 366.842 6.78746 1.4943 0
M  V30 3857 H 370.033 4.50038 1.28777 0
M  V30 3858 H 370.206 6.29473 1.53842 0
M  V30 3859 N 363.613 -0.582584 1.46437 0
M  V30 3860 C 364.861 -1.33814 1.51453 0
M  V30 3861 C 365.182 -1.94277 0.167792 0
M  V30 3862 O 364.452 -1.78566 -0.805677 0
M  V30 3863 H 363.032 -0.496838 0.557818 0
M  V30 3864 H 365.694 -0.682281 1.82568 0
M  V30 3865 H 364.79 -2.14479 2.26728 0
M  V30 3866 N 365.091 -1.34144 -0.827227 0
M  V30 3867 C 366.507 -1.13732 -1.11969 0
M  V30 3868 C 366.707 0.0640463 -2.01398 0
M  V30 3869 O 365.763 0.740856 -2.41387 0
M  V30 3870 C 367.076 -2.43047 -1.77055 0
M  V30 3871 C 368.624 -2.49063 -1.89569 0
M  V30 3872 C 369.099 -3.78369 -2.58072 0
M  V30 3873 N 370.59 -3.79505 -2.65575 0
M  V30 3874 C 371.325 -4.76274 -3.19297 0
M  V30 3875 N 370.821 -5.83424 -3.73616 0
M  V30 3876 N 372.614 -4.63735 -3.17658 0
M  V30 3877 H 364.765 -2.11126 -0.232296 0
M  V30 3878 H 367.028 -0.933424 -0.165602 0
M  V30 3879 H 366.734 -3.31025 -1.18807 0
M  V30 3880 H 366.608 -2.56066 -2.76966 0
M  V30 3881 H 368.995 -1.61527 -2.46968 0
M  V30 3882 H 369.076 -2.39975 -0.885745 0
M  V30 3883 H 368.72 -4.66293 -2.01329 0
M  V30 3884 H 368.65 -3.84737 -3.59562 0
M  V30 3885 H 371.141 -3.02074 -2.27068 0
M  V30 3886 H 371.454 -6.53282 -4.12846 0
M  V30 3887 H 369.799 -5.87143 -3.71871 0
M  V30 3888 H 372.99 -3.79177 -2.74486 0
M  V30 3889 H 373.163 -5.39318 -3.59221 0
M  V30 3890 N 366.569 1.04691 -1.17803 0
M  V30 3891 C 367.519 2.10856 -0.867391 0
M  V30 3892 C 368.503 1.601 0.160206 0
M  V30 3893 O 369.695 1.76948 -0.042947 0
M  V30 3894 C 366.824 3.411 -0.388012 0
M  V30 3895 C 365.91 3.9864 -1.44732 0
M  V30 3896 N 366.301 4.30075 -2.66212 0
M  V30 3897 C 364.599 4.26439 -1.30637 0
M  V30 3898 C 365.3 4.76033 -3.34317 0
M  V30 3899 N 364.276 4.76462 -2.61696 0
M  V30 3900 H 368.078 2.33029 -1.79094 0
M  V30 3901 H 365.592 1.22386 -1.0675 0
M  V30 3902 H 367.589 4.16641 -0.146994 0
M  V30 3903 H 366.249 3.20357 0.529271 0
M  V30 3904 H 367.26 4.19917 -3.03134 0
M  V30 3905 H 363.937 4.15056 -0.451129 0
M  V30 3906 H 365.327 5.09427 -4.38103 0
M  V30 3907 N 368.047 0.979072 1.23499 0
M  V30 3908 C 369.296 0.642751 1.91185 0
M  V30 3909 C 369.609 -0.827253 1.77245 0
M  V30 3910 O 370.815 -1.27458 2.39722 0
M  V30 3911 C 369.271 1.09901 3.42709 0
M  V30 3912 C 368.879 2.59327 3.65313 0
M  V30 3913 C 370.623 0.836371 4.16179 0
M  V30 3914 C 368.53 2.98627 5.10467 0
M  V30 3915 H 367.46 0.236698 0.715884 0
M  V30 3916 H 370.111 1.1868 1.39955 0
M  V30 3917 H 368.493 0.48319 3.93041 0
M  V30 3918 H 369.667 3.26136 3.25533 0
M  V30 3919 H 367.982 2.83323 3.05151 0
M  V30 3920 H 370.579 1.10586 5.23139 0
M  V30 3921 H 370.922 -0.227509 4.15678 0
M  V30 3922 H 371.455 1.41371 3.71832 0
M  V30 3923 H 368.194 4.04133 5.16098 0
M  V30 3924 H 367.714 2.3651 5.51201 0
M  V30 3925 H 369.393 2.89159 5.78788 0
M  V30 3926 N 369.525 -1.3858 0.750561 0
M  V30 3927 C 370.472 -2.30483 0.120835 0
M  V30 3928 C 371.442 -1.50022 -0.712923 0
M  V30 3929 O 372.627 -1.78662 -0.669676 0
M  V30 3930 C 369.767 -3.36431 -0.768666 0
M  V30 3931 C 368.88 -4.31927 0.0793922 0
M  V30 3932 C 368.015 -5.24944 -0.81283 0
M  V30 3933 C 367.054 -6.12088 0.0390447 0
M  V30 3934 N 366.191 -6.97412 -0.809969 0
M  V30 3935 H 371.031 -2.83761 0.91015 0
M  V30 3936 H 368.568 -1.39707 0.460463 0
M  V30 3937 H 370.526 -3.96462 -1.29898 0
M  V30 3938 H 369.156 -2.8457 -1.5238 0
M  V30 3939 H 368.208 -3.73382 0.727303 0
M  V30 3940 H 369.52 -4.93319 0.737401 0
M  V30 3941 H 368.674 -5.90078 -1.41042 0
M  V30 3942 H 367.413 -4.63911 -1.50458 0
M  V30 3943 H 366.418 -5.45952 0.649328 0
M  V30 3944 H 367.643 -6.75189 0.727809 0
M  V30 3945 H 365.589 -6.38931 -1.48672 0
M  V30 3946 H 365.506 -7.55712 -0.208789 0
M  V30 3947 H 366.774 -7.66959 -1.39263 0
M  V30 3948 N 371.003 -0.499398 -1.49478 0
M  V30 3949 C 372.252 0.0475259 -2.01644 0
M  V30 3950 C 372.565 1.38195 -1.38425 0
M  V30 3951 O 373.771 2.01547 -1.8191 0
M  V30 3952 C 372.227 0.135164 -3.59646 0
M  V30 3953 C 371.835 -1.19252 -4.31837 0
M  V30 3954 C 373.579 0.632538 -4.19761 0
M  V30 3955 C 371.486 -1.06713 -5.81693 0
M  V30 3956 H 370.416 0.0215349 -0.753692 0
M  V30 3957 H 373.067 -0.638577 -1.7203 0
M  V30 3958 H 371.449 0.885681 -3.85969 0
M  V30 3959 H 372.623 -1.9562 -4.17216 0
M  V30 3960 H 370.938 -1.62321 -3.83459 0
M  V30 3961 H 373.535 0.743833 -5.29501 0
M  V30 3962 H 373.878 1.63098 -3.83021 0
M  V30 3963 H 374.411 -0.0613987 -3.97753 0
M  V30 3964 H 371.15 -2.03979 -6.22955 0
M  V30 3965 H 370.67 -0.344307 -5.98811 0
M  V30 3966 H 372.349 -0.745208 -6.42694 0
M  V30 3967 N 372.481 1.55866 -0.233164 0
M  V30 3968 C 373.73 1.97779 0.39579 0
M  V30 3969 C 374.043 1.12419 1.60066 0
M  V30 3970 O 375.249 1.44283 2.29988 0
M  V30 3971 C 373.705 3.5188 0.755556 0
M  V30 3972 C 373.313 4.45959 -0.427152 0
M  V30 3973 C 375.057 4.02479 1.34946 0
M  V30 3974 C 372.964 5.91383 -0.0443043 0
M  V30 3975 H 371.894 0.738592 0.15165 0
M  V30 3976 H 374.545 1.80486 -0.331212 0
M  V30 3977 H 372.927 3.64816 1.5403 0
M  V30 3978 H 374.101 4.44776 -1.20462 0
M  V30 3979 H 372.416 4.05765 -0.935068 0
M  V30 3980 H 375.013 5.08637 1.649 0
M  V30 3981 H 375.356 3.49014 2.26925 0
M  V30 3982 H 375.889 3.92813 0.62791 0
M  V30 3983 H 372.628 6.48857 -0.930874 0
M  V30 3984 H 372.148 5.95734 0.697238 0
M  V30 3985 H 373.827 6.45893 0.378334 0
M  V30 3986 N 373.959 -0.0401083 1.57549 0
M  V30 3987 C 375.37 -0.588097 1.77196 0
M  V30 3988 C 375.721 -1.76209 0.862832 0
M  V30 3989 O 374.846 -2.16331 0.0548389 0
M  V30 3990 C 375.441 -1.07363 3.21339 0
M  V30 3991 C 374 -1.56723 3.42221 0
M  V30 3992 C 373.147 -0.50041 2.72747 0
M  V30 3993 H 376.098 0.186119 1.57605 0
M  V30 3994 H 376.119 -1.94143 3.27244 0
M  V30 3995 H 375.631 -0.218975 3.87482 0
M  V30 3996 H 373.732 -2.4441 2.81237 0
M  V30 3997 H 373.845 -1.62234 4.50796 0
M  V30 3998 H 372.209 -0.952894 2.36203 0
M  V30 3999 H 372.992 0.344599 3.41566 0
M  V30 4000 N 375.437 -1.54477 -0.31217 0
M  V30 4001 C 376.384 -1.84655 -1.38461 0
M  V30 4002 C 377.354 -0.694536 -1.50882 0
M  V30 4003 O 378.539 -0.942081 -1.6592 0
M  V30 4004 C 375.679 -2.0896 -2.74645 0
M  V30 4005 C 374.792 -3.36618 -2.70763 0
M  V30 4006 C 373.927 -3.50824 -3.98868 0
M  V30 4007 C 372.966 -4.72315 -3.89339 0
M  V30 4008 N 372.103 -4.83387 -5.09197 0
M  V30 4009 H 376.943 -2.76142 -1.12026 0
M  V30 4010 H 374.48 -1.36748 -0.542065 0
M  V30 4011 H 376.438 -2.21045 -3.53829 0
M  V30 4012 H 375.068 -1.20752 -2.99364 0
M  V30 4013 H 374.12 -3.33211 -1.83506 0
M  V30 4014 H 375.432 -4.25917 -2.59608 0
M  V30 4015 H 374.586 -3.62513 -4.86486 0
M  V30 4016 H 373.325 -2.59638 -4.12843 0
M  V30 4017 H 372.33 -4.6067 -3.00105 0
M  V30 4018 H 373.555 -5.64897 -3.76919 0
M  V30 4019 H 371.501 -3.9512 -5.23657 0
M  V30 4020 H 371.418 -5.66669 -5.00422 0
M  V30 4021 H 372.686 -4.9942 -5.98498 0
M  V30 4022 N 376.915 0.57481 -1.46744 0
M  V30 4023 C 378.164 1.32898 -1.51727 0
M  V30 4024 C 378.477 1.948 -0.176692 0
M  V30 4025 O 379.683 2.71299 -0.104385 0
M  V30 4026 C 378.139 2.40901 -2.67385 0
M  V30 4027 C 377.747 1.85266 -4.07898 0
M  V30 4028 C 379.491 3.17609 -2.81646 0
M  V30 4029 C 377.398 2.90945 -5.14883 0
M  V30 4030 H 376.328 0.499631 -0.564699 0
M  V30 4031 H 378.979 0.612536 -1.72975 0
M  V30 4032 H 377.361 3.15379 -2.39483 0
M  V30 4033 H 378.535 1.17278 -4.45626 0
M  V30 4034 H 376.85 1.21199 -3.98371 0
M  V30 4035 H 379.447 3.96493 -3.58744 0
M  V30 4036 H 379.79 3.70696 -1.89448 0
M  V30 4037 H 380.323 2.50239 -3.09233 0
M  V30 4038 H 377.062 2.42736 -6.089 0
M  V30 4039 H 376.582 3.57398 -4.81691 0
M  V30 4040 H 378.261 3.54755 -5.41071 0
M  V30 4041 N 378.394 1.34581 0.820102 0
M  V30 4042 C 379.304 1.28471 1.96297 0
M  V30 4043 C 380.32 0.191902 1.72939 0
M  V30 4044 O 381.496 0.418879 1.96996 0
M  V30 4045 C 378.561 1.04281 3.30645 0
M  V30 4046 C 377.622 2.22745 3.66992 0
M  V30 4047 C 376.855 1.997 4.9493 0
M  V30 4048 O 377.078 0.956656 5.6232 0
M  V30 4049 O 376.012 2.86723 5.2922 0
M  V30 4050 H 379.838 2.24624 2.04396 0
M  V30 4051 H 377.423 1.14816 0.955913 0
M  V30 4052 H 379.305 0.925841 4.11104 0
M  V30 4053 H 377.98 0.111697 3.23507 0
M  V30 4054 H 376.887 2.40003 2.86966 0
M  V30 4055 H 378.22 3.14257 3.78819 0
M  V30 4056 N 379.872 -1.04064 1.18357 0
M  V30 4057 C 380.82 -2.14187 0.907007 0
M  V30 4058 C 381.814 -1.68879 -0.132725 0
M  V30 4059 O 383.02 -1.79993 0.0154248 0
M  V30 4060 H 379.395 -0.699585 0.275835 0
M  V30 4061 H 381.366 -2.34711 1.84264 0
M  V30 4062 C 380.115 -3.44785 0.449254 0
M  V30 4063 H 379.438 -3.80058 1.24081 0
M  V30 4064 H 380.878 -4.22974 0.294737 0
M  V30 4065 C 379.337 -3.26391 -0.834909 0
M  V30 4066 O 379.867 -3.53973 -1.89911 0
M  V30 4067 N 378.073 -2.79726 -0.787523 0
M  V30 4068 H 377.62 -2.5748 0.0787347 0
M  V30 4069 H 377.578 -2.67798 -1.64716 0
M  V30 4070 N 381.35 -0.985608 -1.22978 0
M  V30 4071 C 382.599 -0.652881 -1.90841 0
M  V30 4072 C 382.912 0.817842 -1.77681 0
M  V30 4073 O 384.118 1.26185 -2.40395 0
M  V30 4074 C 382.574 -1.11717 -3.42122 0
M  V30 4075 C 382.182 -2.6126 -3.63933 0
M  V30 4076 C 383.926 -0.85843 -4.1573 0
M  V30 4077 C 381.833 -3.0133 -5.08876 0
M  V30 4078 H 380.763 -0.240491 -0.714619 0
M  V30 4079 H 383.414 -1.1942 -1.39324 0
M  V30 4080 H 381.796 -0.504027 -3.92779 0
M  V30 4081 H 382.97 -3.27858 -3.23799 0
M  V30 4082 H 381.285 -2.84937 -3.03644 0
M  V30 4083 H 383.882 -1.13359 -5.22546 0
M  V30 4084 H 384.225 0.205461 -4.15793 0
M  V30 4085 H 384.758 -1.43341 -3.71077 0
M  V30 4086 H 381.497 -4.06864 -5.13947 0
M  V30 4087 H 381.017 -2.3943 -5.49939 0
M  V30 4088 H 382.696 -2.92224 -5.77247 0
M  V30 4089 N 382.828 1.3818 -0.7579 0
M  V30 4090 C 383.738 2.3421 -0.135247 0
M  V30 4091 C 384.754 1.59487 0.695683 0
M  V30 4092 O 385.93 1.91657 0.618832 0
M  V30 4093 C 382.995 3.3862 0.744139 0
M  V30 4094 C 382.056 4.2918 -0.101658 0
M  V30 4095 C 381.289 5.28603 0.735851 0
M  V30 4096 O 381.512 5.35166 1.97366 0
M  V30 4097 O 380.446 6.01707 0.152372 0
M  V30 4098 H 384.272 2.8916 -0.928436 0
M  V30 4099 H 381.857 1.40101 -0.518855 0
M  V30 4100 H 383.739 4.02539 1.2466 0
M  V30 4101 H 382.414 2.86019 1.51575 0
M  V30 4102 H 381.321 3.68407 -0.650167 0
M  V30 4103 H 382.654 4.85048 -0.836024 0
M  V30 4104 N 384.306 0.507319 1.49211 0
M  V30 4105 C 385.554 -0.0348839 2.0207 0
M  V30 4106 C 385.875 -1.36898 1.38866 0
M  V30 4107 O 385.145 -1.88133 0.546151 0
M  V30 4108 H 383.725 -0.0158812 0.746831 0
M  V30 4109 H 386.387 0.665998 1.83168 0
M  V30 4110 H 385.483 -0.159917 3.1169 0
M  V30 4111 N 385.784 -1.5574 0.241426 0
M  V30 4112 C 387.033 -1.97986 -0.385295 0
M  V30 4113 C 387.346 -1.13267 -1.59468 0
M  V30 4114 O 388.552 -1.45501 -2.2922 0
M  V30 4115 C 387.008 -3.52275 -0.736884 0
M  V30 4116 C 386.616 -4.45726 0.450796 0
M  V30 4117 C 388.36 -4.03189 -1.3281 0
M  V30 4118 C 386.267 -5.91352 0.0756662 0
M  V30 4119 H 385.197 -0.739386 -0.147731 0
M  V30 4120 H 387.848 -1.80308 0.340779 0
M  V30 4121 H 386.23 -3.65628 -1.52094 0
M  V30 4122 H 387.404 -4.44131 1.22819 0
M  V30 4123 H 385.719 -4.05264 0.956573 0
M  V30 4124 H 388.316 -5.09505 -1.62201 0
M  V30 4125 H 388.659 -3.50212 -2.25071 0
M  V30 4126 H 389.192 -3.93141 -0.607069 0
M  V30 4127 H 385.931 -6.48354 0.965272 0
M  V30 4128 H 385.451 -5.96095 -0.665635 0
M  V30 4129 H 387.13 -6.46084 -0.344075 0
M  V30 4130 N 387.262 0.0317525 -1.57568 0
M  V30 4131 C 388.511 0.722131 -1.8833 0
M  V30 4132 C 388.824 1.76664 -0.839587 0
M  V30 4133 O 390.03 2.50942 -1.03635 0
M  V30 4134 C 388.486 1.33544 -3.34207 0
M  V30 4135 C 388.094 0.327415 -4.46802 0
M  V30 4136 C 389.838 2.00585 -3.7412 0
M  V30 4137 C 387.745 0.948915 -5.83738 0
M  V30 4138 H 386.675 0.273466 -0.702661 0
M  V30 4139 H 389.326 -0.0235811 -1.83485 0
M  V30 4140 H 387.708 2.13077 -3.33788 0
M  V30 4141 H 388.882 -0.441006 -4.58685 0
M  V30 4142 H 387.197 -0.240758 -4.15703 0
M  V30 4143 H 389.794 2.47932 -4.73744 0
M  V30 4144 H 390.137 2.82285 -3.05975 0
M  V30 4145 H 390.67 1.27831 -3.76702 0
M  V30 4146 H 387.409 0.171387 -6.55276 0
M  V30 4147 H 386.929 1.68724 -5.7558 0
M  V30 4148 H 388.608 1.45705 -6.3038 0
M  V30 4149 N 388.74 1.54641 0.303973 0
M  V30 4150 C 389.69 1.8177 1.37636 0
M  V30 4151 C 390.674 0.674697 1.46071 0
M  V30 4152 O 391.866 0.935251 1.50273 0
M  V30 4153 C 388.995 2.06584 2.74186 0
M  V30 4154 C 388.081 3.2706 2.69986 0
M  V30 4155 N 388.472 4.47682 2.35402 0
M  V30 4156 C 386.77 3.29028 3.01092 0
M  V30 4157 C 387.471 5.29689 2.40426 0
M  V30 4158 N 386.447 4.67339 2.7766 0
M  V30 4159 H 390.249 2.72596 1.09857 0
M  V30 4160 H 387.763 1.541 0.51254 0
M  V30 4161 H 389.76 2.24166 3.51504 0
M  V30 4162 H 388.42 1.17024 3.02879 0
M  V30 4163 H 389.431 4.74336 2.07908 0
M  V30 4164 H 386.108 2.49565 3.34699 0
M  V30 4165 H 387.498 6.3606 2.16512 0
M  V30 4166 N 390.218 -0.567019 1.47046 0
M  V30 4167 C 391.465 -1.32462 1.53167 0
M  V30 4168 C 391.793 -1.93571 0.189841 0
M  V30 4169 O 391.048 -1.77865 -0.816243 0
M  V30 4170 C 391.347 -2.4623 2.59047 0
M  V30 4171 C 391.013 -2.03014 4.02612 0
M  V30 4172 C 389.675 -1.90944 4.41694 0
M  V30 4173 C 392.027 -1.69895 4.92732 0
M  V30 4174 C 389.355 -1.44035 5.68745 0
M  V30 4175 C 391.707 -1.2446 6.20236 0
M  V30 4176 C 390.371 -1.10979 6.5821 0
M  V30 4177 H 389.641 -0.484713 0.560477 0
M  V30 4178 H 392.288 -0.636888 1.80599 0
M  V30 4179 H 390.593 -3.20517 2.25335 0
M  V30 4180 H 392.29 -3.04427 2.61008 0
M  V30 4181 H 388.88 -2.13348 3.71726 0
M  V30 4182 H 393.064 -1.78098 4.63244 0
M  V30 4183 H 388.32 -1.32254 5.96925 0
M  V30 4184 H 392.494 -0.978924 6.89485 0
M  V30 4185 H 390.121 -0.744078 7.5655 0
M  V30 4186 N 391.696 -1.35014 -0.812953 0
M  V30 4187 C 392.973 -1.18502 -1.55617 0
M  V30 4188 C 393.353 0.238421 -2.09749 0
M  V30 4189 O 392.701 1.2411 -1.91857 0
M  V30 4190 C 392.911 -2.24783 -2.66971 0
M  V30 4191 C 394.259 -2.60268 -3.35478 0
M  V30 4192 O 395.283 -2.23648 -2.77236 0
M  V30 4193 O 394.142 -3.2321 -4.40678 0
M  V30 4194 H 391.236 -0.459984 -0.687272 0
M  V30 4195 H 393.782 -1.46677 -0.853464 0
M  V30 4196 H 392.554 -3.20284 -2.24798 0
M  V30 4197 H 392.177 -1.97841 -3.44884 0
M  V30 4198 N 393.175 1.03435 -1.18907 0
M  V30 4199 C 394.122 2.11591 -0.921837 0
M  V30 4200 C 395.092 1.65499 0.141226 0
M  V30 4201 O 396.277 1.908 0.000242829 0
M  V30 4202 C 393.417 3.42012 -0.460616 0
M  V30 4203 C 392.53 4.01682 -1.58982 0
M  V30 4204 C 391.665 5.20091 -1.08069 0
M  V30 4205 C 390.704 5.71805 -2.18416 0
M  V30 4206 N 389.841 6.81494 -1.68849 0
M  V30 4207 H 394.681 2.33787 -1.8479 0
M  V30 4208 H 392.218 1.1467 -0.921373 0
M  V30 4209 H 394.176 4.16834 -0.174642 0
M  V30 4210 H 392.806 3.19944 0.428467 0
M  V30 4211 H 391.858 3.24127 -1.99113 0
M  V30 4212 H 393.17 4.36084 -2.4214 0
M  V30 4213 H 392.324 6.02051 -0.749615 0
M  V30 4214 H 391.063 4.87209 -0.218771 0
M  V30 4215 H 390.068 4.88461 -2.5236 0
M  V30 4216 H 391.293 6.06728 -3.05054 0
M  V30 4217 H 389.239 6.50475 -0.849572 0
M  V30 4218 H 389.156 7.14994 -2.45601 0
M  V30 4219 H 390.424 7.67063 -1.38689 0
M  V30 4220 N 394.653 0.992116 1.22453 0
M  V30 4221 C 395.902 0.662992 1.90492 0
M  V30 4222 C 396.215 -0.808407 1.78113 0
M  V30 4223 O 397.421 -1.24908 2.41061 0
M  V30 4224 C 395.877 1.1353 3.41524 0
M  V30 4225 C 395.485 2.63187 3.62542 0
M  V30 4226 C 397.229 0.880465 4.15269 0
M  V30 4227 C 395.136 3.04024 5.0727 0
M  V30 4228 H 394.066 0.244278 0.713333 0
M  V30 4229 H 396.717 1.20157 1.38688 0
M  V30 4230 H 395.099 0.52485 3.92506 0
M  V30 4231 H 396.273 3.2957 3.22056 0
M  V30 4232 H 394.588 2.86543 3.02129 0
M  V30 4233 H 397.185 1.16128 5.21937 0
M  V30 4234 H 397.528 -0.183408 4.15896 0
M  V30 4235 H 398.061 1.45307 3.70312 0
M  V30 4236 H 394.8 4.09584 5.11782 0
M  V30 4237 H 394.32 2.42343 5.48662 0
M  V30 4238 H 395.999 2.95282 5.75689 0
M  V30 4239 N 396.131 -1.37776 0.765217 0
M  V30 4240 C 397.061 -2.32945 0.160953 0
M  V30 4241 C 398.042 -1.55454 -0.690516 0
M  V30 4242 O 399.227 -1.83721 -0.629318 0
M  V30 4243 C 396.357 -3.39669 -0.724031 0
M  V30 4244 C 395.311 -4.27992 0.0256173 0
M  V30 4245 C 394.637 -5.25673 -0.978383 0
M  V30 4246 C 395.937 -5.08309 1.20082 0
M  V30 4247 H 397.631 -2.83728 0.955969 0
M  V30 4248 H 395.177 -1.36416 0.461149 0
M  V30 4249 H 397.13 -4.05219 -1.15652 0
M  V30 4250 H 395.854 -2.87396 -1.5515 0
M  V30 4251 H 394.513 -3.63964 0.438812 0
M  V30 4252 H 394.161 -4.69682 -1.80022 0
M  V30 4253 H 393.861 -5.85625 -0.481378 0
M  V30 4254 H 395.385 -5.94098 -1.40995 0
M  V30 4255 H 396.799 -5.67034 0.845307 0
M  V30 4256 H 395.196 -5.77554 1.62947 0
M  V30 4257 H 396.266 -4.41365 2.00811 0
M  V30 4258 N 397.609 -0.515225 -1.4894 0
M  V30 4259 C 398.572 0.244681 -2.2789 0
M  V30 4260 C 399.572 0.881166 -1.34507 0
M  V30 4261 O 400.762 0.743497 -1.57537 0
M  V30 4262 C 397.894 1.35247 -3.12923 0
M  V30 4263 H 399.087 -0.448289 -2.96531 0
M  V30 4264 H 396.64 -0.270656 -1.53939 0
M  V30 4265 H 397.375 2.07916 -2.48881 0
M  V30 4266 H 397.16 0.901374 -3.81599 0
M  V30 4267 H 398.65 1.88737 -3.72516 0
M  V30 4268 N 399.087 1.5561 -0.249682 0
M  V30 4269 C 399.997 2.25143 0.659375 0
M  V30 4270 C 401.013 1.2685 1.19101 0
M  V30 4271 O 402.189 1.59732 1.22669 0
M  V30 4272 C 399.254 2.93945 1.8384 0
M  V30 4273 C 398.315 4.07655 1.34596 0
M  V30 4274 C 397.548 4.73167 2.46878 0
M  V30 4275 O 397.771 4.37768 3.65671 0
M  V30 4276 O 396.705 5.61623 2.16478 0
M  V30 4277 H 400.531 3.03545 0.0968698 0
M  V30 4278 H 398.116 1.49389 -0.018074 0
M  V30 4279 H 399.998 3.37271 2.52638 0
M  V30 4280 H 398.673 2.18481 2.38847 0
M  V30 4281 H 397.58 3.68839 0.625174 0
M  V30 4282 H 398.913 4.84946 0.841941 0
M  V30 4283 N 400.565 -0.0233959 1.57583 0
M  V30 4284 C 401.79 -0.728376 1.94189 0
M  V30 4285 C 402.215 -1.67793 0.850119 0
M  V30 4286 O 401.573 -1.80262 -0.19371 0
M  V30 4287 C 401.621 -1.45669 3.29868 0
M  V30 4288 O 400.725 -2.57013 3.22518 0
M  V30 4289 H 400.066 -0.195493 0.63457 0
M  V30 4290 H 402.596 0.0228214 2.04587 0
M  V30 4291 H 402.606 -1.82535 3.6489 0
M  V30 4292 H 401.281 -0.760314 4.08891 0
M  V30 4293 H 399.858 -2.22648 2.99136 0
M  V30 4294 N 402.043 -1.548 -0.295768 0
M  V30 4295 C 403.32 -1.65014 -1.05023 0
M  V30 4296 C 403.7 -0.501805 -2.05049 0
M  V30 4297 O 403.048 0.500869 -2.22943 0
M  V30 4298 C 403.258 -3.03252 -1.72741 0
M  V30 4299 C 404.606 -3.60242 -2.24746 0
M  V30 4300 O 405.63 -3.05737 -1.82765 0
M  V30 4301 O 404.489 -4.55687 -3.01681 0
M  V30 4302 H 401.583 -0.669314 -0.485744 0
M  V30 4303 H 404.129 -1.67144 -0.293438 0
M  V30 4304 H 402.901 -3.7827 -1.00138 0
M  V30 4305 H 402.524 -3.04922 -2.55163 0
M  V30 4306 N 403.521 0.559213 -1.47345 0
M  V30 4307 C 404.769 1.31388 -1.53563 0
M  V30 4308 C 405.09 1.93985 -0.198678 0
M  V30 4309 O 404.36 1.79825 0.777167 0
M  V30 4310 H 402.94 0.487901 -0.565652 0
M  V30 4311 H 405.602 0.65315 -1.8363 0
M  V30 4312 H 404.698 2.10844 -2.30111 0
M  V30 4313 N 404.999 1.35443 0.805782 0
M  V30 4314 C 406.248 1.28097 1.55801 0
M  V30 4315 C 406.561 -0.142428 1.95081 0
M  V30 4316 O 407.767 -0.33817 2.69386 0
M  V30 4317 C 406.223 2.24653 2.81174 0
M  V30 4318 C 405.831 3.72342 2.49129 0
M  V30 4319 C 407.575 2.2625 3.59181 0
M  V30 4320 C 405.482 4.60719 3.70799 0
M  V30 4321 H 404.412 0.475937 0.584808 0
M  V30 4322 H 407.063 1.60712 0.885661 0
M  V30 4323 H 405.445 1.85011 3.50124 0
M  V30 4324 H 406.619 4.20624 1.88181 0
M  V30 4325 H 404.934 3.73361 1.84366 0
M  V30 4326 H 407.531 2.89495 4.49552 0
M  V30 4327 H 407.874 1.26647 3.96568 0
M  V30 4328 H 408.407 2.64426 2.97193 0
M  V30 4329 H 405.146 5.61324 3.3852 0
M  V30 4330 H 404.666 4.17163 4.3097 0
M  V30 4331 H 406.345 4.76182 4.38018 0
M  V30 4332 N 406.477 -1.02803 1.19454 0
M  V30 4333 C 407.41 -2.107 0.876396 0
M  V30 4334 C 408.388 -1.61741 -0.166897 0
M  V30 4335 O 409.572 -1.88451 -0.0430195 0
M  V30 4336 C 406.699 -3.37262 0.311758 0
M  V30 4337 C 405.745 -4.05093 1.33424 0
M  V30 4338 S 406.578 -4.50498 2.89503 0
M  V30 4339 C 407.734 -5.80277 2.34584 0
M  V30 4340 H 407.967 -2.37362 1.79016 0
M  V30 4341 H 405.5 -1.15755 1.02177 0
M  V30 4342 H 407.458 -4.10499 -0.00748752 0
M  V30 4343 H 406.119 -3.08693 -0.58032 0
M  V30 4344 H 405.312 -4.9611 0.888302 0
M  V30 4345 H 404.914 -3.3803 1.60037 0
M  V30 4346 H 407.206 -6.54873 1.73633 0
M  V30 4347 H 408.149 -6.29651 3.23952 0
M  V30 4348 H 408.557 -5.3599 1.77131 0
M  V30 4349 N 407.956 -0.998596 -1.21925 0
M  V30 4350 C 409.205 -0.673085 -1.90138 0
M  V30 4351 C 409.518 0.79895 -1.78539 0
M  V30 4352 O 410.724 1.23628 -2.4172 0
M  V30 4353 C 409.18 -1.15339 -3.40918 0
M  V30 4354 C 408.788 -2.65106 -3.61141 0
M  V30 4355 C 410.532 -0.902476 -4.14796 0
M  V30 4356 C 408.439 -3.0671 -5.05651 0
M  V30 4357 H 407.369 -0.248057 -0.712028 0
M  V30 4358 H 410.02 -1.20891 -1.38049 0
M  V30 4359 H 408.402 -0.545658 -3.92223 0
M  V30 4360 H 409.576 -3.31274 -3.20304 0
M  V30 4361 H 407.891 -2.88142 -3.00605 0
M  V30 4362 H 410.488 -1.18895 -5.21314 0
M  V30 4363 H 410.831 0.161349 -4.15987 0
M  V30 4364 H 411.364 -1.47269 -3.69536 0
M  V30 4365 H 408.103 -4.12292 -5.09603 0
M  V30 4366 H 407.623 -2.45249 -5.47369 0
M  V30 4367 H 409.302 -2.9833 -5.74115 0
M  V30 4368 N 409.434 1.37368 -0.772513 0
M  V30 4369 C 410.397 2.28601 -0.165541 0
M  V30 4370 C 411.397 1.48062 0.627238 0
M  V30 4371 O 412.587 1.68268 0.450715 0
M  V30 4372 C 409.719 3.32023 0.772897 0
M  V30 4373 H 410.912 2.83787 -0.969787 0
M  V30 4374 H 408.465 1.46647 -0.540775 0
M  V30 4375 H 409.2 2.81962 1.60212 0
M  V30 4376 H 408.985 3.91555 0.206585 0
M  V30 4377 H 410.475 4.00197 1.19298 0
M  V30 4378 N 410.912 0.523116 1.48665 0
M  V30 4379 C 412.328 0.180511 1.58576 0
M  V30 4380 C 412.528 -1.31597 1.52592 0
M  V30 4381 O 411.584 -2.0937 1.4114 0
M  V30 4382 C 412.897 0.776949 2.90489 0
M  V30 4383 C 414.445 0.745058 3.04003 0
M  V30 4384 C 414.92 1.31995 4.38567 0
M  V30 4385 N 416.411 1.28162 4.45117 0
M  V30 4386 C 417.146 1.6964 5.47731 0
M  V30 4387 N 416.642 2.18816 6.57337 0
M  V30 4388 N 418.435 1.6092 5.38573 0
M  V30 4389 H 410.586 1.4958 1.50797 0
M  V30 4390 H 412.849 0.621772 0.715614 0
M  V30 4391 H 412.555 1.82732 3.00503 0
M  V30 4392 H 412.429 0.25007 3.7637 0
M  V30 4393 H 414.816 -0.296532 2.93606 0
M  V30 4394 H 414.897 1.30933 2.1975 0
M  V30 4395 H 414.541 2.36043 4.49718 0
M  V30 4396 H 414.471 0.731418 5.21496 0
M  V30 4397 H 416.962 0.92155 3.66491 0
M  V30 4398 H 417.275 2.48478 7.31764 0
M  V30 4399 H 415.62 2.22805 6.58318 0
M  V30 4400 H 418.811 1.22304 4.5184 0
M  V30 4401 H 418.984 1.93567 6.18414 0
M  V30 4402 N 412.39 -1.55475 0.257931 0
M  V30 4403 C 413.638 -1.98813 -0.363009 0
M  V30 4404 C 413.959 -1.14757 -1.57657 0
M  V30 4405 O 413.229 -0.232956 -1.9451 0
M  V30 4406 H 411.809 -0.734308 -0.137113 0
M  V30 4407 H 414.471 -1.9156 0.359281 0
M  V30 4408 H 413.567 -3.04941 -0.664634 0
M  V30 4409 N 413.868 0.0150385 -1.57593 0
M  V30 4410 C 415.145 0.7392 -1.81094 0
M  V30 4411 C 415.525 1.92817 -0.859344 0
M  V30 4412 O 414.873 2.28301 0.095362 0
M  V30 4413 C 415.083 1.15907 -3.29191 0
M  V30 4414 C 416.431 1.56918 -3.9454 0
M  V30 4415 O 417.455 1.25328 -3.33424 0
M  V30 4416 O 416.314 2.15604 -5.02173 0
M  V30 4417 H 413.408 0.358631 -0.745193 0
M  V30 4418 H 415.954 -0.00926156 -1.69697 0
M  V30 4419 H 414.726 0.310921 -3.90063 0
M  V30 4420 H 414.349 1.96711 -3.45529 0
M  V30 4421 N 415.346 1.54954 0.287554 0
M  V30 4422 C 416.276 1.89839 1.35954 0
M  V30 4423 C 417.257 0.758675 1.52244 0
M  V30 4424 O 418.442 1.01557 1.65529 0
M  V30 4425 C 415.572 2.15753 2.72154 0
M  V30 4426 C 414.526 3.3159 2.70614 0
M  V30 4427 C 413.852 3.42952 4.10229 0
M  V30 4428 C 415.152 4.68359 2.31165 0
M  V30 4429 H 416.846 2.79625 1.07007 0
M  V30 4430 H 414.392 1.3454 0.513316 0
M  V30 4431 H 416.345 2.38743 3.47246 0
M  V30 4432 H 415.069 1.22752 3.02654 0
M  V30 4433 H 413.728 3.08545 1.97979 0
M  V30 4434 H 413.376 2.47443 4.37928 0
M  V30 4435 H 413.076 4.20826 4.10097 0
M  V30 4436 H 414.6 3.68218 4.87081 0
M  V30 4437 H 416.014 4.9099 2.95976 0
M  V30 4438 H 414.411 5.49044 2.42221 0
M  V30 4439 H 415.481 4.68165 1.26291 0
M  V30 4440 N 416.824 -0.551391 1.4764 0
M  V30 4441 C 418.072 -1.30572 1.54258 0
M  V30 4442 C 418.393 -1.93877 0.208963 0
M  V30 4443 O 417.663 -1.80234 -0.767619 0
M  V30 4444 H 416.243 -0.484894 0.568231 0
M  V30 4445 H 418.905 -0.643402 1.83974 0
M  V30 4446 H 418.001 -2.09621 2.31226 0
M  V30 4447 N 418.302 -1.35869 -0.798587 0
M  V30 4448 C 419.235 -1.23801 -1.91699 0
M  V30 4449 C 420.213 -0.124143 -1.62125 0
M  V30 4450 O 421.397 -0.293656 -1.86199 0
M  V30 4451 C 418.524 -0.908063 -3.263 0
M  V30 4452 C 417.57 -2.0351 -3.74815 0
M  V30 4453 S 418.403 -3.65183 -3.91665 0
M  V30 4454 C 419.559 -3.34283 -5.29156 0
M  V30 4455 H 419.792 -2.18466 -2.01643 0
M  V30 4456 H 417.325 -1.21178 -0.956833 0
M  V30 4457 H 419.283 -0.724506 -4.04056 0
M  V30 4458 H 417.944 0.0206584 -3.14093 0
M  V30 4459 H 417.137 -1.75858 -4.72324 0
M  V30 4460 H 416.739 -2.1774 -3.04081 0
M  V30 4461 H 419.031 -2.87607 -6.13424 0
M  V30 4462 H 419.974 -4.31022 -5.61806 0
M  V30 4463 H 420.382 -2.69854 -4.95822 0
M  V30 4464 N 419.78 1.02168 -1.19998 0
M  V30 4465 C 420.69 2.14069 -0.959774 0
M  V30 4466 C 421.706 1.73804 0.082655 0
M  V30 4467 O 422.882 2.01133 -0.103633 0
M  V30 4468 C 419.947 3.42936 -0.509459 0
M  V30 4469 C 419.008 3.97474 -1.62213 0
M  V30 4470 C 418.241 5.2019 -1.19321 0
M  V30 4471 O 418.464 5.70369 -0.0597726 0
M  V30 4472 O 417.398 5.67749 -1.99863 0
M  V30 4473 H 421.224 2.37199 -1.89658 0
M  V30 4474 H 418.809 1.12469 -0.983411 0
M  V30 4475 H 420.691 4.20551 -0.267322 0
M  V30 4476 H 419.366 3.21234 0.398821 0
M  V30 4477 H 418.273 3.21161 -1.9185 0
M  V30 4478 H 419.606 4.23555 -2.50723 0
M  V30 4479 N 421.258 1.00505 1.21394 0
M  V30 4480 C 422.507 0.683159 1.89778 0
M  V30 4481 C 422.82 -0.789471 1.7896 0
M  V30 4482 O 424.026 -1.22344 2.42372 0
M  V30 4483 C 422.482 1.17146 3.40301 0
M  V30 4484 C 422.09 2.67017 3.5973 0
M  V30 4485 C 423.834 0.924461 4.14311 0
M  V30 4486 C 421.741 3.09387 5.04017 0
M  V30 4487 H 420.671 0.25183 0.710702 0
M  V30 4488 H 423.322 1.21622 1.37406 0
M  V30 4489 H 421.704 0.566451 3.91928 0
M  V30 4490 H 422.878 3.32968 3.18542 0
M  V30 4491 H 421.193 2.89732 2.99073 0
M  V30 4492 H 423.79 1.21658 5.20676 0
M  V30 4493 H 424.133 -0.139286 4.16067 0
M  V30 4494 H 424.666 1.49226 3.6875 0
M  V30 4495 H 421.405 4.14989 5.07409 0
M  V30 4496 H 420.925 2.48149 5.46061 0
M  V30 4497 H 422.604 3.01371 5.72525 0
M  V30 4498 N 422.737 -1.36956 0.779787 0
M  V30 4499 C 423.962 -2.04283 0.358224 0
M  V30 4500 C 424.387 -1.58422 -1.01411 0
M  V30 4501 O 423.745 -0.748179 -1.65142 0
M  V30 4502 C 423.793 -3.58152 0.419479 0
M  V30 4503 O 422.897 -4.08342 -0.577142 0
M  V30 4504 H 422.238 -0.645967 0.153698 0
M  V30 4505 H 424.768 -1.75108 1.05822 0
M  V30 4506 H 424.778 -4.07041 0.279636 0
M  V30 4507 H 423.453 -3.90886 1.42061 0
M  V30 4508 H 422.03 -3.70751 -0.399755 0
M  V30 4509 N 424.215 -0.530993 -1.48385 0
M  V30 4510 C 425.626 -0.0907905 -1.86479 0
M  V30 4511 C 425.977 1.33213 -1.44044 0
M  V30 4512 O 425.102 1.99783 -0.831615 0
M  V30 4513 C 425.697 -0.157987 -3.38431 0
M  V30 4514 C 424.256 0.227026 -3.75715 0
M  V30 4515 C 423.403 -0.5173 -2.72432 0
M  V30 4516 H 426.354 -0.742186 -1.40276 0
M  V30 4517 H 426.375 0.630053 -3.75247 0
M  V30 4518 H 425.887 -1.19372 -3.69286 0
M  V30 4519 H 423.988 1.26486 -3.50474 0
M  V30 4520 H 424.101 -0.113288 -4.78966 0
M  V30 4521 H 422.465 0.0365527 -2.54674 0
M  V30 4522 H 423.248 -1.55368 -3.0613 0
M  V30 4523 N 425.693 1.55336 -0.266172 0
M  V30 4524 C 426.603 2.2583 0.635458 0
M  V30 4525 C 427.619 1.28106 1.17749 0
M  V30 4526 O 428.795 1.61024 1.20968 0
M  V30 4527 C 425.86 2.95879 1.80712 0
M  V30 4528 C 424.921 4.09059 1.30265 0
M  V30 4529 C 424.154 4.75759 2.41846 0
M  V30 4530 O 424.377 4.41622 3.61007 0
M  V30 4531 O 423.311 5.63888 2.1051 0
M  V30 4532 H 427.137 3.03631 0.0646693 0
M  V30 4533 H 424.722 1.49361 -0.0339177 0
M  V30 4534 H 426.604 3.39932 2.49047 0
M  V30 4535 H 425.279 2.21002 2.36516 0
M  V30 4536 H 424.186 3.69482 0.586019 0
M  V30 4537 H 425.519 4.85811 0.790458 0
M  V30 4538 N 427.171 -0.0066808 1.57599 0
M  V30 4539 C 428.118 -1.00024 2.08 0
M  V30 4540 C 429.088 -1.34549 0.973943 0
M  V30 4541 O 430.273 -1.44502 1.24595 0
M  V30 4542 C 427.413 -2.2891 2.58252 0
M  V30 4543 C 426.526 -2.00346 3.82734 0
M  V30 4544 C 425.661 -3.23265 4.21513 0
M  V30 4545 C 424.7 -2.90357 5.3885 0
M  V30 4546 N 423.837 -4.05793 5.72954 0
M  V30 4547 H 428.677 -0.563499 2.92624 0
M  V30 4548 H 426.214 -0.266592 1.44664 0
M  V30 4549 H 428.172 -3.04247 2.85464 0
M  V30 4550 H 426.802 -2.70265 1.76512 0
M  V30 4551 H 425.854 -1.15406 3.62471 0
M  V30 4552 H 427.166 -1.72086 4.68175 0
M  V30 4553 H 426.32 -4.06953 4.49971 0
M  V30 4554 H 425.059 -3.54657 3.34768 0
M  V30 4555 H 424.064 -2.05075 5.10122 0
M  V30 4556 H 425.289 -2.60219 6.27266 0
M  V30 4557 H 423.235 -4.37094 4.89167 0
M  V30 4558 H 423.152 -3.81034 6.52954 0
M  V30 4559 H 424.42 -4.90289 6.06001 0
M  V30 4560 N 428.649 -1.55105 -0.279332 0
M  V30 4561 C 429.895 -1.75672 -1.01327 0
M  V30 4562 C 430.228 -0.552739 -1.86168 0
M  V30 4563 O 429.503 0.449827 -1.89227 0
M  V30 4564 C 429.786 -3.05825 -1.90114 0
M  V30 4565 C 429.639 -4.36565 -1.08309 0
M  V30 4566 C 430.958 -3.31975 -2.8893 0
M  V30 4567 H 428.077 -0.639149 -0.366957 0
M  V30 4568 H 430.719 -1.87833 -0.286154 0
M  V30 4569 H 428.869 -2.95588 -2.52111 0
M  V30 4570 H 430.541 -4.58751 -0.484314 0
M  V30 4571 H 428.784 -4.32076 -0.386362 0
M  V30 4572 H 429.455 -5.23946 -1.73737 0
M  V30 4573 H 431.931 -3.41963 -2.37067 0
M  V30 4574 H 430.807 -4.2432 -3.48201 0
M  V30 4575 H 431.068 -2.51309 -3.63725 0
M  V30 4576 N 430.127 0.543554 -1.4793 0
M  V30 4577 C 431.374 1.30008 -1.55255 0
M  V30 4578 C 431.702 1.93245 -0.220612 0
M  V30 4579 O 430.957 1.79141 0.787843 0
M  V30 4580 C 431.256 2.42078 -2.62932 0
M  V30 4581 C 430.922 1.96583 -4.0579 0
M  V30 4582 C 429.584 1.83893 -4.44676 0
M  V30 4583 C 431.936 1.62034 -4.95373 0
M  V30 4584 C 429.264 1.34969 -5.70964 0
M  V30 4585 C 431.616 1.14577 -6.22137 0
M  V30 4586 C 430.28 1.00493 -6.59892 0
M  V30 4587 H 429.55 0.475735 -0.568117 0
M  V30 4588 H 432.197 0.608075 -1.81589 0
M  V30 4589 H 430.502 3.16892 -2.30406 0
M  V30 4590 H 432.199 3.00236 -2.65818 0
M  V30 4591 H 428.789 2.07407 -3.75074 0
M  V30 4592 H 432.973 1.70705 -4.66019 0
M  V30 4593 H 428.229 1.2274 -5.98953 0
M  V30 4594 H 432.403 0.869109 -6.90955 0
M  V30 4595 H 430.03 0.623624 -7.57638 0
M  V30 4596 N 431.605 1.3629 0.791371 0
M  V30 4597 C 432.535 1.33137 1.91825 0
M  V30 4598 C 433.516 0.203168 1.68882 0
M  V30 4599 O 434.701 0.400509 1.90025 0
M  V30 4600 C 431.831 1.11793 3.28816 0
M  V30 4601 C 430.785 2.21417 3.66277 0
M  V30 4602 C 430.111 1.85218 5.01596 0
M  V30 4603 C 431.411 3.63489 3.75064 0
M  V30 4604 H 433.105 2.2743 1.9472 0
M  V30 4605 H 430.651 1.09479 0.935437 0
M  V30 4606 H 432.604 1.08222 4.07266 0
M  V30 4607 H 431.328 0.139501 3.26302 0
M  V30 4608 H 429.987 2.2411 2.90121 0
M  V30 4609 H 429.635 0.859544 4.95602 0
M  V30 4610 H 429.335 2.58611 5.27631 0
M  V30 4611 H 430.859 1.832 5.82469 0
M  V30 4612 H 432.273 3.63034 4.43711 0
M  V30 4613 H 430.67 4.35771 4.12582 0
M  V30 4614 H 431.74 3.98536 2.76219 0
M  V30 4615 N 433.083 -1.0153 1.20538 0
M  V30 4616 C 434.046 -2.0826 0.957098 0
M  V30 4617 C 435.046 -1.60657 -0.0678655 0
M  V30 4618 O 436.236 -1.73385 0.168332 0
M  V30 4619 C 433.368 -3.38033 0.441188 0
M  V30 4620 H 434.561 -2.31719 1.90384 0
M  V30 4621 H 432.114 -1.1835 1.02093 0
M  V30 4622 H 432.849 -3.20249 -0.510961 0
M  V30 4623 H 432.634 -3.73911 1.18038 0
M  V30 4624 H 434.124 -4.16613 0.287009 0
M  V30 4625 N 434.561 -1.01147 -1.20859 0
M  V30 4626 C 435.493 -0.535546 -2.22855 0
M  V30 4627 C 436.506 0.379323 -1.58319 0
M  V30 4628 O 437.695 0.178489 -1.77605 0
M  V30 4629 C 434.795 0.240962 -3.38042 0
M  V30 4630 C 433.968 -0.674562 -4.32167 0
M  V30 4631 C 433.027 0.053467 -5.26173 0
M  V30 4632 O 432.053 -0.567339 -5.66366 0
M  V30 4633 N 433.255 1.32997 -5.65059 0
M  V30 4634 H 436.02 -1.41268 -2.64317 0
M  V30 4635 H 433.581 -0.888386 -1.35349 0
M  V30 4636 H 435.573 0.737115 -3.97931 0
M  V30 4637 H 434.143 1.01935 -2.95513 0
M  V30 4638 H 433.363 -1.35111 -3.70322 0
M  V30 4639 H 434.651 -1.2974 -4.91981 0
M  V30 4640 H 434.049 1.85536 -5.34409 0
M  V30 4641 H 432.606 1.77095 -6.2728 0
M  V30 4642 N 436.039 1.36541 -0.78704 0
M  V30 4643 C 436.986 2.30082 -0.181901 0
M  V30 4644 C 437.956 1.5186 0.672896 0
M  V30 4645 O 439.141 1.80374 0.622072 0
M  V30 4646 C 436.281 3.3835 0.679197 0
M  V30 4647 C 435.394 4.31565 -0.193882 0
M  V30 4648 C 434.529 5.26915 0.673364 0
M  V30 4649 C 433.568 6.11769 -0.201315 0
M  V30 4650 N 432.705 6.99315 0.624777 0
M  V30 4651 H 437.545 2.81248 -0.985064 0
M  V30 4652 H 435.082 1.38437 -0.497342 0
M  V30 4653 H 437.04 3.99767 1.19341 0
M  V30 4654 H 435.67 2.8851 1.44781 0
M  V30 4655 H 434.722 3.71323 -0.826044 0
M  V30 4656 H 436.034 4.91191 -0.867937 0
M  V30 4657 H 435.188 5.9361 1.25348 0
M  V30 4658 H 433.927 4.67737 1.38105 0
M  V30 4659 H 432.932 5.44039 -0.793849 0
M  V30 4660 H 434.157 6.73022 -0.906568 0
M  V30 4661 H 432.103 6.42648 1.3168 0
M  V30 4662 H 432.02 7.56 0.00835237 0
M  V30 4663 H 433.288 7.70382 1.18879 0
M  V30 4664 N 437.518 0.538854 1.48102 0
M  V30 4665 C 438.448 -0.207654 2.32575 0
M  V30 4666 C 439.429 -0.926559 1.4265 0
M  V30 4667 O 440.614 -0.91061 1.71527 0
M  V30 4668 C 437.744 -1.24957 3.24042 0
M  V30 4669 C 436.698 -0.648263 4.23062 0
M  V30 4670 C 436.024 -1.79348 5.03725 0
M  V30 4671 C 437.324 0.385897 5.20872 0
M  V30 4672 H 439.018 0.497534 2.95237 0
M  V30 4673 H 436.564 0.240715 1.41974 0
M  V30 4674 H 438.517 -1.77983 3.81969 0
M  V30 4675 H 437.241 -1.98446 2.59397 0
M  V30 4676 H 435.9 -0.139452 3.66335 0
M  V30 4677 H 435.548 -2.51696 4.35498 0
M  V30 4678 H 435.248 -1.39702 5.70751 0
M  V30 4679 H 436.772 -2.32735 5.64506 0
M  V30 4680 H 438.186 -0.057607 5.73271 0
M  V30 4681 H 436.583 0.700227 5.96001 0
M  V30 4682 H 437.653 1.28848 4.67468 0
M  V30 4683 N 438.996 -1.55193 0.274407 0
M  V30 4684 C 439.929 -2.18606 -0.654712 0
M  V30 4685 C 440.907 -1.14677 -1.15273 0
M  V30 4686 O 442.091 -1.43198 -1.22583 0
M  V30 4687 C 439.218 -2.80875 -1.89281 0
M  V30 4688 C 438.264 -3.981 -1.53032 0
M  V30 4689 S 439.097 -5.32025 -0.609107 0
M  V30 4690 C 440.253 -5.97761 -1.85559 0
M  V30 4691 H 440.486 -2.97074 -0.115894 0
M  V30 4692 H 438.019 -1.54288 0.05867 0
M  V30 4693 H 439.977 -3.17381 -2.60345 0
M  V30 4694 H 438.638 -2.02302 -2.40277 0
M  V30 4695 H 437.831 -4.40356 -2.45158 0
M  V30 4696 H 437.433 -3.63013 -0.899874 0
M  V30 4697 H 439.725 -6.16951 -2.7996 0
M  V30 4698 H 440.668 -6.92545 -1.47605 0
M  V30 4699 H 441.076 -5.27113 -2.02021 0
M  V30 4700 N 440.474 -0.00167713 -1.576 0
M  V30 4701 C 441.723 0.682021 -1.89819 0
M  V30 4702 C 442.036 1.74844 -0.876871 0
M  V30 4703 O 443.242 2.48688 -1.08934 0
M  V30 4704 C 441.698 1.26425 -3.36964 0
M  V30 4705 C 441.306 0.232568 -4.47396 0
M  V30 4706 C 443.05 1.92604 -3.78291 0
M  V30 4707 C 440.957 0.824882 -5.85619 0
M  V30 4708 H 439.887 0.258499 -0.708304 0
M  V30 4709 H 442.538 -0.0624957 -1.83394 0
M  V30 4710 H 440.92 2.05949 -3.38232 0
M  V30 4711 H 442.094 -0.5382 -4.57646 0
M  V30 4712 H 440.409 -0.32888 -4.15099 0
M  V30 4713 H 443.006 2.37827 -4.78897 0
M  V30 4714 H 443.349 2.75732 -3.11894 0
M  V30 4715 H 443.882 1.19812 -3.79328 0
M  V30 4716 H 440.621 0.0323542 -6.55492 0
M  V30 4717 H 440.141 1.56477 -5.79029 0
M  V30 4718 H 441.82 1.32301 -6.33329 0
M  V30 4719 N 441.952 1.55251 0.271103 0
M  V30 4720 C 443.177 1.80306 1.02491 0
M  V30 4721 C 443.602 0.575457 1.79081 0
M  V30 4722 O 442.96 -0.474987 1.74967 0
M  V30 4723 C 443.008 3.02832 1.95768 0
M  V30 4724 O 442.112 2.78051 3.04568 0
M  V30 4725 H 441.453 0.595896 0.292923 0
M  V30 4726 H 443.983 2.02397 0.299436 0
M  V30 4727 H 443.993 3.31616 2.37686 0
M  V30 4728 H 442.668 3.9183 1.39434 0
M  V30 4729 H 441.245 2.60369 2.66951 0
M  V30 4730 N 443.43 -0.535701 1.48216 0
M  V30 4731 C 444.377 -1.64083 1.62312 0
M  V30 4732 C 445.347 -1.59448 0.465365 0
M  V30 4733 O 446.532 -1.77959 0.688135 0
M  V30 4734 C 443.672 -3.0236 1.66349 0
M  V30 4735 C 442.785 -3.17273 2.93193 0
M  V30 4736 C 441.92 -4.46075 2.88427 0
M  V30 4737 C 440.959 -4.54496 4.1 0
M  V30 4738 N 440.096 -5.7468 4.03345 0
M  V30 4739 H 444.936 -1.51374 2.5669 0
M  V30 4740 H 442.473 -0.737059 1.27302 0
M  V30 4741 H 444.431 -3.82461 1.66672 0
M  V30 4742 H 443.061 -3.13854 0.754672 0
M  V30 4743 H 442.113 -2.30462 3.02641 0
M  V30 4744 H 443.425 -3.19357 3.83162 0
M  V30 4745 H 442.579 -5.3446 2.87119 0
M  V30 4746 H 441.318 -4.46504 1.96177 0
M  V30 4747 H 440.323 -3.64519 4.11589 0
M  V30 4748 H 441.548 -4.5581 5.03402 0
M  V30 4749 H 439.494 -5.76017 3.13912 0
M  V30 4750 H 439.411 -5.78234 4.87013 0
M  V30 4751 H 440.679 -6.65367 4.06087 0
M  V30 4752 N 444.908 -1.36708 -0.784132 0
M  V30 4753 C 446.148 -1.32618 -1.55537 0
M  V30 4754 C 446.512 0.0920681 -1.91779 0
M  V30 4755 O 447.713 0.257573 -2.67563 0
M  V30 4756 C 445.984 -2.22788 -2.79464 0
M  V30 4757 S 447.543 -2.36432 -3.69656 0
M  V30 4758 H 444.361 -0.470973 -0.53264 0
M  V30 4759 H 446.963 -1.72333 -0.92312 0
M  V30 4760 H 445.667 -3.24774 -2.50899 0
M  V30 4761 H 445.198 -1.84112 -3.47658 0
M  V30 4762 H 447.213 -1.56573 -4.7085 0
M  V30 4763 N 446.386 1.0089 -1.21074 0
M  V30 4764 C 447.334 2.11707 -0.963476 0
M  V30 4765 C 448.328 1.69172 0.0879032 0
M  V30 4766 O 449.534 1.79889 -0.0631415 0
M  V30 4767 H 445.909 0.692026 -0.294287 0
M  V30 4768 H 447.88 2.29743 -1.90422 0
M  V30 4769 C 446.629 3.43473 -0.540509 0
M  V30 4770 H 445.952 3.76634 -1.34114 0
M  V30 4771 H 447.392 4.22044 -0.406777 0
M  V30 4772 C 445.851 3.2849 0.748079 0
M  V30 4773 O 446.381 3.58883 1.8046 0
M  V30 4774 N 444.587 2.81715 0.713081 0
M  V30 4775 H 444.134 2.5718 -0.146973 0
M  V30 4776 H 444.092 2.72071 1.57558 0
M  V30 4777 N 447.864 1.01787 1.20321 0
M  V30 4778 C 448.794 0.609625 2.25401 0
M  V30 4779 C 449.775 -0.375951 1.65893 0
M  V30 4780 O 450.96 -0.261101 1.92437 0
M  V30 4781 C 448.09 -0.0515995 3.47262 0
M  V30 4782 C 447.044 0.855095 4.19371 0
M  V30 4783 C 446.37 0.0595757 5.34667 0
M  V30 4784 C 447.67 2.16374 4.75373 0
M  V30 4785 H 449.364 1.48803 2.59804 0
M  V30 4786 H 446.91 0.716934 1.24884 0
M  V30 4787 H 448.863 -0.348764 4.19954 0
M  V30 4788 H 447.587 -0.964726 3.12027 0
M  V30 4789 H 446.246 1.13628 3.48546 0
M  V30 4790 H 445.894 -0.85524 4.95676 0
M  V30 4791 H 445.594 0.663406 5.83843 0
M  V30 4792 H 447.118 -0.231105 6.10162 0
M  V30 4793 H 448.532 1.92885 5.39878 0
M  V30 4794 H 446.929 2.71853 5.34991 0
M  V30 4795 H 447.999 2.82589 3.94045 0
M  V30 4796 N 449.342 -1.36122 0.79427 0
M  V30 4797 C 450.274 -2.28683 0.153903 0
M  V30 4798 C 451.287 -1.49707 -0.639669 0
M  V30 4799 O 452.476 -1.7209 -0.474054 0
M  V30 4800 C 449.576 -3.29202 -0.804921 0
M  V30 4801 C 448.749 -4.37358 -0.060366 0
M  V30 4802 C 447.808 -5.17811 -0.935849 0
M  V30 4803 O 446.834 -5.67853 -0.391309 0
M  V30 4804 N 448.036 -5.34721 -2.25951 0
M  V30 4805 H 450.801 -2.84278 0.949008 0
M  V30 4806 H 448.362 -1.4834 0.648611 0
M  V30 4807 H 450.354 -3.79914 -1.39455 0
M  V30 4808 H 448.924 -2.74212 -1.50088 0
M  V30 4809 H 448.144 -3.87746 0.710382 0
M  V30 4810 H 449.432 -5.06777 0.45324 0
M  V30 4811 H 448.83 -4.95687 -2.72601 0
M  V30 4812 H 447.387 -5.88657 -2.79867 0
M  V30 4813 N 450.82 -0.546701 -1.47814 0
M  V30 4814 C 452.068 -0.0187037 -2.02091 0
M  V30 4815 C 452.389 1.33168 -1.42447 0
M  V30 4816 O 451.659 1.86619 -0.595839 0
M  V30 4817 H 450.239 -0.00392531 -0.74699 0
M  V30 4818 H 452.901 -0.714327 -1.81338 0
M  V30 4819 H 451.997 0.0772219 -3.12004 0
M  V30 4820 N 452.299 1.55045 -0.282633 0
M  V30 4821 C 453.246 2.22822 0.601566 0
M  V30 4822 C 454.216 1.20431 1.14392 0
M  V30 4823 O 455.401 1.48996 1.19184 0
M  V30 4824 C 452.541 2.95873 1.77632 0
M  V30 4825 C 451.654 4.12999 1.26711 0
M  V30 4826 C 450.789 4.73676 2.40426 0
M  V30 4827 C 449.828 5.82981 1.86545 0
M  V30 4828 N 448.965 6.3769 2.93762 0
M  V30 4829 H 453.805 2.97995 0.0169528 0
M  V30 4830 H 451.342 1.471 -0.00339964 0
M  V30 4831 H 453.3 3.36447 2.46697 0
M  V30 4832 H 451.93 2.2311 2.33285 0
M  V30 4833 H 450.982 3.77494 0.469314 0
M  V30 4834 H 452.294 4.91803 0.832518 0
M  V30 4835 H 451.448 5.17008 3.17471 0
M  V30 4836 H 450.187 3.94164 2.87203 0
M  V30 4837 H 449.192 5.39092 1.07983 0
M  V30 4838 H 450.417 6.64366 1.40694 0
M  V30 4839 H 448.363 5.61069 3.39908 0
M  V30 4840 H 448.28 7.11788 2.54744 0
M  V30 4841 H 449.548 6.8568 3.7076 0
M  V30 4842 N 453.777 0.010035 1.57597 0
M  V30 4843 C 455.188 -0.531426 1.78977 0
M  V30 4844 C 455.539 -1.73375 0.918454 0
M  V30 4845 O 454.664 -2.16047 0.123635 0
M  V30 4846 C 455.259 -0.97086 3.24592 0
M  V30 4847 C 453.818 -1.45756 3.47033 0
M  V30 4848 C 452.965 -0.413384 2.74201 0
M  V30 4849 H 455.916 0.236166 1.56933 0
M  V30 4850 H 455.937 -1.83633 3.33255 0
M  V30 4851 H 455.449 -0.0955893 3.87982 0
M  V30 4852 H 453.55 -2.35339 2.88871 0
M  V30 4853 H 453.663 -1.4781 4.55729 0
M  V30 4854 H 452.027 -0.877266 2.39115 0
M  V30 4855 H 452.81 0.453092 3.40297 0
M  V30 4856 N 455.255 -1.55392 -0.262866 0
M  V30 4857 C 456.504 -1.75679 -0.990943 0
M  V30 4858 C 456.817 -0.57097 -1.87081 0
M  V30 4859 O 458.023 -0.656486 -2.63444 0
M  V30 4860 C 456.479 -3.10964 -1.81188 0
M  V30 4861 C 456.087 -4.37146 -0.980188 0
M  V30 4862 C 457.831 -3.40597 -2.53365 0
M  V30 4863 C 455.738 -5.63466 -1.7961 0
M  V30 4864 H 454.668 -0.654868 -0.373716 0
M  V30 4865 H 457.319 -1.81841 -0.246203 0
M  V30 4866 H 455.701 -2.98867 -2.59797 0
M  V30 4867 H 456.875 -4.60187 -0.237558 0
M  V30 4868 H 455.19 -4.14731 -0.372497 0
M  V30 4869 H 457.787 -4.32186 -3.14833 0
M  V30 4870 H 458.13 -2.6119 -3.24169 0
M  V30 4871 H 458.663 -3.53838 -1.81779 0
M  V30 4872 H 455.402 -6.4565 -1.13209 0
M  V30 4873 H 454.922 -5.44552 -2.51443 0
M  V30 4874 H 456.601 -6.02139 -2.36723 0
M  V30 4875 N 456.733 0.527833 -1.48498 0
M  V30 4876 C 457.982 1.28003 -1.55878 0
M  V30 4877 C 458.295 1.9414 -0.238577 0
M  V30 4878 O 459.501 2.7083 -0.190643 0
M  V30 4879 C 457.957 2.32272 -2.74914 0
M  V30 4880 C 457.565 1.72196 -4.13585 0
M  V30 4881 C 459.309 3.08488 -2.91608 0
M  V30 4882 C 457.216 2.74417 -5.23879 0
M  V30 4883 H 456.146 0.481413 -0.580308 0
M  V30 4884 H 458.797 0.557195 -1.74836 0
M  V30 4885 H 457.179 3.07601 -2.49395 0
M  V30 4886 H 458.353 1.03041 -4.49132 0
M  V30 4887 H 456.668 1.08464 -4.02025 0
M  V30 4888 H 459.265 3.84879 -3.71177 0
M  V30 4889 H 459.608 3.64481 -2.01145 0
M  V30 4890 H 460.141 2.40274 -3.17038 0
M  V30 4891 H 456.88 2.23242 -6.16314 0
M  V30 4892 H 456.4 3.41893 -4.92818 0
M  V30 4893 H 458.079 3.37362 -5.52083 0
M  V30 4894 N 458.211 1.37122 0.776871 0
M  V30 4895 C 459.439 1.3523 1.5659 0
M  V30 4896 C 459.854 -0.0635518 1.88693 0
M  V30 4897 O 459.211 -1.02394 1.51069 0
M  V30 4898 C 459.262 2.18583 2.8793 0
M  V30 4899 O 458.983 3.5465 2.57206 0
M  V30 4900 C 460.484 2.24612 3.82183 0
M  V30 4901 H 457.704 0.4634 0.485285 0
M  V30 4902 H 460.248 1.80392 0.963266 0
M  V30 4903 H 458.403 1.76943 3.4463 0
M  V30 4904 H 458.817 3.98286 3.41275 0
M  V30 4905 H 460.291 2.87267 4.71361 0
M  V30 4906 H 460.768 1.25309 4.20944 0
M  V30 4907 H 461.374 2.66543 3.31414 0
M  V30 4908 N 459.689 -1.00246 1.21608 0
M  V30 4909 C 460.652 -2.07233 0.979133 0
M  V30 4910 C 461.652 -1.6072 -0.0508219 0
M  V30 4911 O 462.842 -1.73196 0.186712 0
M  V30 4912 C 459.974 -3.37546 0.477016 0
M  V30 4913 H 461.167 -2.29687 1.92831 0
M  V30 4914 H 458.72 -1.17261 1.03342 0
M  V30 4915 H 459.455 -3.20773 -0.476966 0
M  V30 4916 H 459.24 -3.72638 1.21997 0
M  V30 4917 H 460.73 -4.16285 0.331181 0
M  V30 4918 N 461.167 -1.02423 -1.1978 0
M  V30 4919 C 462.395 -0.737456 -1.93311 0
M  V30 4920 C 462.81 0.703023 -1.75223 0
M  V30 4921 O 462.167 1.47761 -1.07112 0
M  V30 4922 C 462.218 -1.0733 -3.45199 0
M  V30 4923 O 461.939 -2.4572 -3.62702 0
M  V30 4924 C 463.44 -0.80866 -4.35862 0
M  V30 4925 H 460.66 -0.2702 -0.614193 0
M  V30 4926 H 463.204 -1.36747 -1.52054 0
M  V30 4927 H 461.359 -0.488545 -3.84307 0
M  V30 4928 H 461.773 -2.58081 -4.56612 0
M  V30 4929 H 463.247 -1.09365 -5.41057 0
M  V30 4930 H 463.724 0.257025 -4.38447 0
M  V30 4931 H 464.33 -1.37592 -4.02428 0
M  V30 4932 N 462.645 1.35699 -0.801477 0
M  V30 4933 C 463.577 2.28598 -0.166028 0
M  V30 4934 C 464.59 1.50044 0.631721 0
M  V30 4935 O 465.779 1.72339 0.464921 0
M  V30 4936 C 462.879 3.29625 0.787451 0
M  V30 4937 C 462.052 4.37384 0.037171 0
M  V30 4938 C 461.111 5.183 0.908375 0
M  V30 4939 O 460.137 5.68053 0.361189 0
M  V30 4940 N 461.339 5.35912 2.23112 0
M  V30 4941 H 464.104 2.83771 -0.964071 0
M  V30 4942 H 461.665 1.47994 -0.656469 0
M  V30 4943 H 463.657 3.80648 1.37439 0
M  V30 4944 H 462.227 2.75004 1.48632 0
M  V30 4945 H 461.447 3.87364 -0.730935 0
M  V30 4946 H 462.735 5.0653 -0.480109 0
M  V30 4947 H 462.133 4.97125 2.69968 0
M  V30 4948 H 460.69 5.90133 2.76741 0
M  V30 4949 N 464.123 0.554532 1.47522 0
M  V30 4950 C 465.056 -0.242442 2.26908 0
M  V30 4951 C 466.034 -0.922722 1.33883 0
M  V30 4952 O 467.218 -0.942244 1.63261 0
M  V30 4953 C 464.345 -1.34525 3.10839 0
M  V30 4954 C 463.391 -0.773805 4.19422 0
M  V30 4955 S 464.224 0.377525 5.34168 0
M  V30 4956 C 465.38 -0.727164 6.21662 0
M  V30 4957 H 465.613 0.431218 2.94156 0
M  V30 4958 H 463.146 0.3408 1.50592 0
M  V30 4959 H 465.104 -1.97683 3.59766 0
M  V30 4960 H 463.765 -1.99073 2.42958 0
M  V30 4961 H 462.958 -1.60187 4.77866 0
M  V30 4962 H 462.56 -0.218448 3.73361 0
M  V30 4963 H 464.852 -1.61992 6.57849 0
M  V30 4964 H 465.795 -0.180135 7.07871 0
M  V30 4965 H 466.203 -1.01863 5.55233 0
M  V30 4966 N 465.601 -1.54893 0.290851 0
M  V30 4967 C 466.531 -2.26103 -0.583084 0
M  V30 4968 C 467.512 -1.25684 -1.14619 0
M  V30 4969 O 468.697 -1.54436 -1.17741 0
M  V30 4970 C 465.827 -2.99409 -1.75987 0
M  V30 4971 C 464.781 -4.0689 -1.32758 0
M  V30 4972 C 464.107 -4.67856 -2.58872 0
M  V30 4973 C 465.407 -5.20215 -0.46624 0
M  V30 4974 H 467.101 -2.99398 0.0108214 0
M  V30 4975 H 464.647 -1.43998 0.00664468 0
M  V30 4976 H 466.6 -3.47943 -2.37727 0
M  V30 4977 H 465.324 -2.23675 -2.37985 0
M  V30 4978 H 463.983 -3.59191 -0.733299 0
M  V30 4979 H 463.631 -3.88772 -3.19163 0
M  V30 4980 H 463.331 -5.40438 -2.30653 0
M  V30 4981 H 464.855 -5.19147 -3.21433 0
M  V30 4982 H 466.269 -5.64704 -0.989047 0
M  V30 4983 H 464.666 -5.99455 -0.27826 0
M  V30 4984 H 465.736 -4.82198 0.511173 0
M  V30 4985 N 467.08 -0.0183926 -1.57589 0
M  V30 4986 C 467.99 0.982943 -2.13015 0
M  V30 4987 C 469.006 1.36443 -1.07979 0
M  V30 4988 O 470.182 1.44802 -1.3998 0
M  V30 4989 C 467.247 2.25024 -2.63752 0
M  V30 4990 C 466.308 1.93018 -3.83461 0
M  V30 4991 C 465.541 3.13706 -4.31769 0
M  V30 4992 O 465.764 4.2601 -3.79305 0
M  V30 4993 O 464.698 2.96629 -5.23732 0
M  V30 4994 H 468.524 0.541709 -2.9883 0
M  V30 4995 H 466.109 0.201565 -1.48034 0
M  V30 4996 H 467.991 2.99441 -2.96502 0
M  V30 4997 H 466.666 2.68349 -1.81026 0
M  V30 4998 H 465.573 1.16019 -3.55655 0
M  V30 4999 H 466.906 1.54516 -4.67317 0
M  V30 5000 N 468.558 1.5553 0.254621 0
M  V30 5001 C 469.783 1.81383 1.00573 0
M  V30 5002 C 470.208 0.594419 1.78461 0
M  V30 5003 O 469.566 -0.456403 1.75461 0
M  V30 5004 C 469.614 3.04892 1.92545 0
M  V30 5005 O 468.718 2.81266 3.01601 0
M  V30 5006 H 468.059 0.598969 0.286587 0
M  V30 5007 H 470.589 2.02703 0.277952 0
M  V30 5008 H 470.599 3.34119 2.34155 0
M  V30 5009 H 469.274 3.93287 1.3527 0
M  V30 5010 H 467.851 2.63185 2.64174 0
M  V30 5011 N 470.036 -0.519951 1.48776 0
M  V30 5012 C 470.969 -1.64053 1.58625 0
M  V30 5013 C 471.947 -1.5664 0.43618 0
M  V30 5014 O 473.131 -1.76969 0.649159 0
M  V30 5015 C 470.258 -3.02497 1.52359 0
M  V30 5016 C 469.304 -3.28235 2.72331 0
M  V30 5017 S 470.137 -3.13414 4.34203 0
M  V30 5018 C 471.293 -4.54287 4.30551 0
M  V30 5019 H 471.526 -1.5545 2.53422 0
M  V30 5020 H 469.059 -0.703681 1.37433 0
M  V30 5021 H 471.017 -3.82336 1.4943 0
M  V30 5022 H 469.678 -3.08531 0.588824 0
M  V30 5023 H 468.871 -4.29256 2.64113 0
M  V30 5024 H 468.473 -2.56085 2.72574 0
M  V30 5025 H 470.765 -5.46006 4.01103 0
M  V30 5026 H 471.708 -4.67558 5.31785 0
M  V30 5027 H 472.116 -4.34079 3.60881 0
M  V30 5028 N 471.514 -1.37532 -0.769588 0
M  V30 5029 C 472.742 -1.36059 -1.55871 0
M  V30 5030 C 473.157 0.053544 -1.88724 0
M  V30 5031 O 472.514 1.01591 -1.5161 0
M  V30 5032 C 472.565 -2.20107 -2.86767 0
M  V30 5033 O 472.286 -3.56009 -2.55321 0
M  V30 5034 C 473.787 -2.26636 -3.80987 0
M  V30 5035 H 471.007 -0.465967 -0.482821 0
M  V30 5036 H 473.551 -1.80901 -0.953686 0
M  V30 5037 H 471.706 -1.78768 -3.43687 0
M  V30 5038 H 472.12 -4.0009 -3.39158 0
M  V30 5039 H 473.594 -2.89763 -4.69831 0
M  V30 5040 H 474.071 -1.2754 -4.20274 0
M  V30 5041 H 474.677 -2.68296 -3.29996 0
M  V30 5042 N 472.992 0.995999 -1.22138 0
M  V30 5043 C 473.939 2.08551 -0.988687 0
M  V30 5044 C 474.909 1.65864 0.0885021 0
M  V30 5045 O 476.094 1.90704 -0.0604589 0
M  V30 5046 C 473.234 3.40374 -0.569191 0
M  V30 5047 C 472.347 3.96421 -1.71681 0
M  V30 5048 C 471.482 5.1639 -1.2456 0
M  V30 5049 C 470.521 5.64567 -2.36497 0
M  V30 5050 N 469.658 6.75777 -1.90445 0
M  V30 5051 H 474.498 2.2779 -1.92135 0
M  V30 5052 H 472.035 1.1168 -0.957388 0
M  V30 5053 H 473.993 4.16068 -0.307166 0
M  V30 5054 H 472.623 3.21145 0.326462 0
M  V30 5055 H 471.675 3.17628 -2.09324 0
M  V30 5056 H 472.987 4.2816 -2.55891 0
M  V30 5057 H 472.141 5.99362 -0.940774 0
M  V30 5058 H 470.88 4.86266 -0.373662 0
M  V30 5059 H 469.885 4.80185 -2.67772 0
M  V30 5060 H 471.11 5.96716 -3.24202 0
M  V30 5061 H 469.056 6.47443 -1.05609 0
M  V30 5062 H 468.973 7.06818 -2.68223 0
M  V30 5063 H 470.241 7.62262 -1.63022 0
M  V30 5064 N 474.47 1.03057 1.19235 0
M  V30 5065 C 475.418 0.606391 2.24557 0
M  V30 5066 C 476.412 -0.361826 1.65491 0
M  V30 5067 O 477.618 -0.23022 1.78522 0
M  V30 5068 H 473.993 0.177838 0.730669 0
M  V30 5069 H 475.964 1.50529 2.5765 0
M  V30 5070 C 474.713 -0.0252127 3.47691 0
M  V30 5071 H 474.036 0.710838 3.9343 0
M  V30 5072 H 475.476 -0.284931 4.23042 0
M  V30 5073 C 473.935 -1.27229 3.11953 0
M  V30 5074 O 474.465 -2.36416 3.24762 0
M  V30 5075 N 472.671 -1.16169 2.6637 0
M  V30 5076 H 472.218 -0.273189 2.56147 0
M  V30 5077 H 472.176 -1.99703 2.42829 0
M  V30 5078 N 475.948 -1.35272 0.808662 0
M  V30 5079 C 477.359 -1.81179 0.450688 0
M  V30 5080 C 477.71 -1.67143 -1.02751 0
M  V30 5081 O 476.835 -1.20325 -1.79864 0
M  V30 5082 C 477.43 -3.28943 0.811275 0
M  V30 5083 C 475.989 -3.72985 0.505871 0
M  V30 5084 C 475.136 -2.57229 1.03578 0
M  V30 5085 H 478.087 -1.2322 1.00012 0
M  V30 5086 H 478.108 -3.80342 0.109588 0
M  V30 5087 H 477.62 -3.39127 1.88718 0
M  V30 5088 H 475.721 -3.68349 -0.561209 0
M  V30 5089 H 475.834 -4.67677 1.03995 0
M  V30 5090 H 474.198 -2.50548 0.458005 0
M  V30 5091 H 474.981 -2.7019 2.11784 0
M  V30 5092 N 477.426 -0.562348 -1.47226 0
M  V30 5093 C 478.842 -0.222492 -1.58042 0
M  V30 5094 C 479.042 1.27505 -1.56028 0
M  V30 5095 O 478.098 2.05555 -1.46641 0
M  V30 5096 C 479.411 -0.853694 -2.88327 0
M  V30 5097 C 480.959 -0.825397 -3.01921 0
M  V30 5098 C 481.434 -1.43576 -4.34914 0
M  V30 5099 N 482.925 -1.39918 -4.41562 0
M  V30 5100 C 483.66 -1.84103 -5.43041 0
M  V30 5101 N 483.156 -2.36167 -6.51304 0
M  V30 5102 N 484.949 -1.75142 -5.34118 0
M  V30 5103 H 477.1 -1.53525 -1.46778 0
M  V30 5104 H 479.363 -0.640527 -0.698877 0
M  V30 5105 H 479.069 -1.90635 -2.95552 0
M  V30 5106 H 478.943 -0.34977 -3.75575 0
M  V30 5107 H 481.33 0.218583 -2.94289 0
M  V30 5108 H 481.411 -1.36713 -2.16202 0
M  V30 5109 H 481.055 -2.47884 -4.43301 0
M  V30 5110 H 480.985 -0.869427 -5.19373 0
M  V30 5111 H 483.476 -1.0184 -3.63919 0
M  V30 5112 H 483.789 -2.67793 -7.24919 0
M  V30 5113 H 482.134 -2.40181 -6.52179 0
M  V30 5114 H 485.325 -1.34241 -4.48439 0
M  V30 5115 H 485.498 -2.09895 -6.13065 0
M  V30 5116 N 478.904 1.54736 -0.299062 0
M  V30 5117 C 480.315 1.8569 0.193971 0
M  V30 5118 C 480.666 1.22101 1.53577 0
M  V30 5119 O 479.791 0.51799 2.10109 0
M  V30 5120 C 480.386 3.36895 0.358733 0
M  V30 5121 C 478.945 3.67887 0.795986 0
M  V30 5122 C 478.092 2.77131 -0.096807 0
M  V30 5123 H 481.043 1.49934 -0.520134 0
M  V30 5124 H 481.064 3.61294 1.19361 0
M  V30 5125 H 480.576 3.83148 -0.617998 0
M  V30 5126 H 478.677 3.27151 1.78334 0
M  V30 5127 H 478.79 4.75114 0.616718 0
M  V30 5128 H 477.154 2.51153 0.423581 0
M  V30 5129 H 477.937 3.26204 -1.06986 0
M  V30 5130 N 480.382 0.0267497 1.57577 0
M  V30 5131 C 481.61 -0.662661 1.96001 0
M  V30 5132 C 482.025 -1.65799 0.903117 0
M  V30 5133 O 481.382 -1.82135 -0.115317 0
M  V30 5134 C 481.433 -1.37112 3.34488 0
M  V30 5135 O 481.154 -0.415683 4.36123 0
M  V30 5136 C 482.655 -2.15257 3.8753 0
M  V30 5137 H 479.875 -0.18287 0.6456 0
M  V30 5138 H 482.419 0.0858116 2.0432 0
M  V30 5139 H 480.574 -2.07101 3.27395 0
M  V30 5140 H 480.988 -0.918496 5.16395 0
M  V30 5141 H 482.462 -2.60285 4.86781 0
M  V30 5142 H 482.939 -2.99063 3.21649 0
M  V30 5143 H 483.545 -1.50231 3.97883 0
M  V30 5144 N 481.861 -1.55662 -0.24637 0
M  V30 5145 C 483.277 -1.48098 -0.594907 0
M  V30 5146 C 483.477 -0.717044 -1.8831 0
M  V30 5147 O 482.533 -0.246618 -2.51293 0
M  V30 5148 C 483.846 -2.92507 -0.697146 0
M  V30 5149 C 485.394 -3.02881 -0.789436 0
M  V30 5150 C 485.869 -4.48598 -0.923232 0
M  V30 5151 N 487.36 -4.52538 -0.988088 0
M  V30 5152 C 488.095 -5.62536 -1.11089 0
M  V30 5153 N 487.591 -6.82342 -1.19919 0
M  V30 5154 N 489.384 -5.50334 -1.14408 0
M  V30 5155 H 481.535 -2.0377 0.599278 0
M  V30 5156 H 483.798 -0.925145 0.20691 0
M  V30 5157 H 483.504 -3.51242 0.179396 0
M  V30 5158 H 483.378 -3.43024 -1.5689 0
M  V30 5159 H 485.765 -2.44226 -1.65643 0
M  V30 5160 H 485.846 -2.55574 0.107482 0
M  V30 5161 H 485.49 -5.07864 -0.0607927 0
M  V30 5162 H 485.42 -4.93587 -1.8352 0
M  V30 5163 H 487.911 -3.66248 -0.931167 0
M  V30 5164 H 488.224 -7.61924 -1.29197 0
M  V30 5165 H 486.569 -6.85102 -1.16876 0
M  V30 5166 H 489.76 -4.5567 -1.07158 0
M  V30 5167 H 489.933 -6.36096 -1.23634 0
M  V30 5168 N 483.339 0.512053 -1.4905 0
M  V30 5169 C 484.302 1.59704 -1.64399 0
M  V30 5170 C 485.302 1.52285 -0.516317 0
M  V30 5171 O 486.492 1.55635 -0.782527 0
M  V30 5172 C 483.624 2.9935 -1.63102 0
M  V30 5173 H 484.817 1.47428 -2.61161 0
M  V30 5174 H 482.37 0.735469 -1.37915 0
M  V30 5175 H 483.105 3.17116 -0.678836 0
M  V30 5176 H 482.89 3.06144 -2.44986 0
M  V30 5177 H 484.38 3.782 -1.77072 0
M  V30 5178 N 484.817 1.37938 0.762283 0
M  V30 5179 C 485.727 1.36681 1.90671 0
M  V30 5180 C 486.743 0.265078 1.71969 0
M  V30 5181 O 487.919 0.502055 1.95042 0
M  V30 5182 C 484.984 1.18211 3.25925 0
M  V30 5183 C 484.045 2.3811 3.57214 0
M  V30 5184 C 483.278 2.20512 4.86014 0
M  V30 5185 O 483.501 1.19429 5.57757 0
M  V30 5186 O 482.435 3.08911 5.16583 0
M  V30 5187 H 486.261 2.33091 1.94685 0
M  V30 5188 H 483.846 1.18767 0.906356 0
M  V30 5189 H 485.728 1.09937 4.06807 0
M  V30 5190 H 484.403 0.248807 3.22742 0
M  V30 5191 H 483.31 2.51958 2.76529 0
M  V30 5192 H 484.643 3.30041 3.65149 0
M  V30 5193 N 486.295 -0.989507 1.22664 0
M  V30 5194 C 487.541 -1.7321 1.05481 0
M  V30 5195 C 487.874 -1.89852 -0.408635 0
M  V30 5196 O 487.149 -1.44416 -1.30285 0
M  V30 5197 C 487.432 -3.1357 1.77047 0
M  V30 5198 C 487.285 -3.04555 3.31008 0
M  V30 5199 C 488.604 -4.12812 1.5256 0
M  V30 5200 H 485.723 -0.628697 0.384589 0
M  V30 5201 H 488.365 -1.15258 1.51049 0
M  V30 5202 H 486.515 -3.63046 1.3831 0
M  V30 5203 H 488.187 -2.62674 3.7921 0
M  V30 5204 H 486.43 -2.41278 3.6051 0
M  V30 5205 H 487.101 -4.03894 3.76263 0
M  V30 5206 H 489.577 -3.72106 1.86215 0
M  V30 5207 H 488.453 -5.09132 2.05124 0
M  V30 5208 H 488.714 -4.39711 0.458936 0
M  V30 5209 N 487.773 -1.03688 -1.18687 0
M  V30 5210 C 489.001 -0.757918 -1.92518 0
M  V30 5211 C 489.416 0.684398 -1.75959 0
M  V30 5212 O 488.773 1.46617 -1.08673 0
M  V30 5213 C 488.824 -1.10985 -3.44042 0
M  V30 5214 O 488.545 -2.49554 -3.60076 0
M  V30 5215 C 490.046 -0.854844 -4.3498 0
M  V30 5216 H 487.266 -0.276699 -0.611293 0
M  V30 5217 H 489.81 -1.38352 -1.50595 0
M  V30 5218 H 487.965 -0.529279 -3.83767 0
M  V30 5219 H 488.379 -2.6291 -4.53849 0
M  V30 5220 H 489.853 -1.15098 -5.39867 0
M  V30 5221 H 490.33 0.210507 -4.38695 0
M  V30 5222 H 490.936 -1.41853 -4.00946 0
M  V30 5223 N 489.251 1.34841 -0.815825 0
M  V30 5224 C 490.528 1.92908 -0.323416 0
M  V30 5225 C 490.908 1.74479 1.18828 0
M  V30 5226 O 490.256 1.11928 1.99209 0
M  V30 5227 C 490.466 3.40957 -0.744952 0
M  V30 5228 C 491.814 4.18107 -0.739716 0
M  V30 5229 O 492.838 3.49511 -0.68708 0
M  V30 5230 O 491.697 5.40517 -0.806456 0
M  V30 5231 H 488.791 0.822436 -0.0867646 0
M  V30 5232 H 491.337 1.4386 -0.90014 0
M  V30 5233 H 490.109 3.4814 -1.78646 0
M  V30 5234 H 489.732 3.97341 -0.143535 0
M  V30 5235 N 490.729 0.570148 1.46925 0
M  V30 5236 C 491.975 0.0510284 2.02736 0
M  V30 5237 C 492.308 -1.3006 1.44215 0
M  V30 5238 O 491.583 -1.84932 0.602521 0
M  V30 5239 C 491.866 -0.028215 3.60089 0
M  V30 5240 C 491.719 1.35142 4.29018 0
M  V30 5241 C 493.038 -0.735181 4.33916 0
M  V30 5242 H 490.157 0.0200178 0.736728 0
M  V30 5243 H 492.799 0.73493 1.75211 0
M  V30 5244 H 490.949 -0.610648 3.83671 0
M  V30 5245 H 492.621 1.97806 4.16738 0
M  V30 5246 H 490.864 1.9226 3.88868 0
M  V30 5247 H 491.535 1.24857 5.37694 0
M  V30 5248 H 494.011 -0.240519 4.15404 0
M  V30 5249 H 492.887 -0.759622 5.43618 0
M  V30 5250 H 493.148 -1.79397 4.04066 0
M  V30 5251 N 492.207 -1.54576 0.307264 0
M  V30 5252 C 493.17 -2.22423 -0.553224 0
M  V30 5253 C 494.17 -1.21231 -1.05639 0
M  V30 5254 O 495.36 -1.45923 -0.951419 0
M  V30 5255 C 492.492 -2.91552 -1.76664 0
M  V30 5256 H 493.685 -2.99874 0.0396484 0
M  V30 5257 H 491.238 -1.56192 0.0581629 0
M  V30 5258 H 491.973 -2.18196 -2.39918 0
M  V30 5259 H 491.758 -3.65738 -1.41343 0
M  V30 5260 H 493.248 -3.43292 -2.37783 0
M  V30 5261 N 493.685 -0.035106 -1.57561 0
M  V30 5262 C 494.633 0.962707 -2.11742 0
M  V30 5263 C 495.627 1.33296 -1.0454 0
M  V30 5264 O 496.833 1.31449 -1.22968 0
M  V30 5265 H 493.208 0.32826 -0.676572 0
M  V30 5266 H 495.179 0.48048 -2.94506 0
M  V30 5267 C 493.928 2.23388 -2.66445 0
M  V30 5268 H 493.251 1.95774 -3.48587 0
M  V30 5269 H 494.691 2.91402 -3.07995 0
M  V30 5270 C 493.15 2.96769 -1.59467 0
M  V30 5271 O 493.68 3.89105 -0.998 0
M  V30 5272 N 491.886 2.59212 -1.31369 0
M  V30 5273 H 491.433 1.84202 -1.80076 0
M  V30 5274 H 491.391 3.08618 -0.600173 0
M  V30 5275 N 495.163 1.55791 0.238111 0
M  V30 5276 C 496.126 1.90239 1.27835 0
M  V30 5277 C 497.126 0.779552 1.4064 0
M  V30 5278 O 498.316 1.04747 1.3919 0
M  V30 5279 C 495.448 2.13859 2.65475 0
M  V30 5280 H 496.641 2.83262 0.985034 0
M  V30 5281 H 494.194 1.48818 0.477799 0
M  V30 5282 H 494.929 1.23334 2.99932 0
M  V30 5283 H 494.714 2.95643 2.57561 0
M  V30 5284 H 496.204 2.41664 3.40571 0
M  V30 5285 N 496.642 -0.504142 1.49319 0
M  V30 5286 C 497.888 -1.26033 1.58882 0
M  V30 5287 C 498.221 -1.92268 0.273274 0
M  V30 5288 O 497.496 -1.80567 -0.72291 0
M  V30 5289 C 497.779 -2.32976 2.7458 0
M  V30 5290 C 497.632 -1.71263 4.1592 0
M  V30 5291 C 498.951 -3.34561 2.85932 0
M  V30 5292 H 496.07 -0.456863 0.578312 0
M  V30 5293 H 498.712 -0.558965 1.81592 0
M  V30 5294 H 496.862 -2.92796 2.55348 0
M  V30 5295 H 498.534 -1.15294 4.4666 0
M  V30 5296 H 496.777 -1.01686 4.21714 0
M  V30 5297 H 497.448 -2.48816 4.92742 0
M  V30 5298 H 499.924 -2.84727 3.0343 0
M  V30 5299 H 498.8 -4.06754 3.68568 0
M  V30 5300 H 499.061 -3.96695 1.95154 0
M  V30 5301 N 498.12 -1.38341 -0.754957 0
M  V30 5302 C 499.05 -1.38176 -1.88227 0
M  V30 5303 C 500.031 -0.247873 -1.68284 0
M  V30 5304 O 501.216 -0.45075 -1.88896 0
M  V30 5305 C 498.346 -1.20471 -3.25736 0
M  V30 5306 C 497.3 -2.3105 -3.60278 0
M  V30 5307 C 496.626 -1.98452 -4.96509 0
M  V30 5308 C 497.926 -3.73305 -3.65295 0
M  V30 5309 H 499.62 -2.32512 -1.88622 0
M  V30 5310 H 497.166 -1.1192 -0.906082 0
M  V30 5311 H 499.119 -1.18982 -4.04254 0
M  V30 5312 H 497.843 -0.225965 -3.25817 0
M  V30 5313 H 496.502 -2.31723 -2.84078 0
M  V30 5314 H 496.15 -0.990641 -4.93148 0
M  V30 5315 H 495.85 -2.7251 -5.20588 0
M  V30 5316 H 497.374 -1.98578 -5.77407 0
M  V30 5317 H 498.788 -3.7467 -4.3393 0
M  V30 5318 H 497.185 -4.46557 -4.00883 0
M  V30 5319 H 498.255 -4.05719 -2.65556 0
M  V30 5320 N 499.598 0.982988 -1.23187 0
M  V30 5321 C 500.875 1.69814 -0.970707 0
M  V30 5322 C 501.255 2.04811 0.511424 0
M  V30 5323 O 500.603 1.73924 1.48198 0
M  V30 5324 C 500.813 2.94143 -1.87831 0
M  V30 5325 C 502.161 3.66712 -2.14026 0
M  V30 5326 O 503.185 3.04171 -1.8536 0
M  V30 5327 O 502.044 4.79258 -2.62629 0
M  V30 5328 H 499.138 0.741659 -0.365884 0
M  V30 5329 H 501.684 1.03844 -1.34218 0
M  V30 5330 H 500.456 2.64858 -2.88038 0
M  V30 5331 H 500.079 3.6785 -1.50905 0
M  V30 5332 N 501.076 1.04316 1.18135 0
M  V30 5333 C 502.324 0.746542 1.87806 0
M  V30 5334 C 502.645 -0.728082 1.80898 0
M  V30 5335 O 501.915 -1.52554 1.22899 0
M  V30 5336 H 500.495 0.273157 0.695265 0
M  V30 5337 H 503.157 1.32044 1.43354 0
M  V30 5338 H 502.253 1.05362 2.93778 0
M  V30 5339 N 502.554 -1.34406 0.822964 0
M  V30 5340 C 503.782 -2.02508 0.424039 0
M  V30 5341 C 504.197 -1.61975 -0.970022 0
M  V30 5342 O 503.554 -0.825228 -1.62777 0
M  V30 5343 C 503.605 -3.57789 0.516657 0
M  V30 5344 O 503.326 -3.96853 1.85577 0
M  V30 5345 C 504.827 -4.43157 0.112637 0
M  V30 5346 H 502.047 -0.649063 0.170173 0
M  V30 5347 H 504.591 -1.7168 1.11113 0
M  V30 5348 H 502.746 -3.87207 -0.122353 0
M  V30 5349 H 503.16 -4.91538 1.83005 0
M  V30 5350 H 504.634 -5.51527 0.228526 0
M  V30 5351 H 505.111 -4.28939 -0.943837 0
M  V30 5352 H 505.717 -4.19067 0.725449 0
M  V30 5353 N 504.032 -0.577932 -1.46621 0
M  V30 5354 C 505.309 0.00495287 -1.95599 0
M  V30 5355 C 505.689 1.46428 -1.5206 0
M  V30 5356 O 505.037 2.1517 -0.769046 0
M  V30 5357 C 505.247 -0.162114 -3.48623 0
M  V30 5358 C 506.595 -0.0274623 -4.24591 0
M  V30 5359 O 507.619 -0.0907067 -3.56084 0
M  V30 5360 O 506.478 0.1122 -5.46385 0
M  V30 5361 H 503.572 0.0525057 -0.825332 0
M  V30 5362 H 506.118 -0.645914 -1.56927 0
M  V30 5363 H 504.89 -1.17679 -3.73185 0
M  V30 5364 H 504.513 0.525407 -3.94113 0
M  V30 5365 N 505.51 1.54411 -0.315457 0
M  V30 5366 C 506.75 2.02329 0.290236 0
M  V30 5367 C 507.114 1.19878 1.49977 0
M  V30 5368 O 508.315 1.57562 2.17779 0
M  V30 5369 C 506.586 3.51912 0.623937 0
M  V30 5370 S 508.145 4.21775 1.21044 0
M  V30 5371 H 504.963 0.705499 0.0882739 0
M  V30 5372 H 507.565 1.90328 -0.446694 0
M  V30 5373 H 506.269 4.09546 -0.264624 0
M  V30 5374 H 505.8 3.67977 1.39128 0
M  V30 5375 H 507.815 4.28757 2.49764 0
M  V30 5376 N 506.988 0.0434614 1.5754 0
M  V30 5377 C 508.234 -0.632971 1.92669 0
M  V30 5378 C 508.567 -1.70947 0.921446 0
M  V30 5379 O 507.842 -1.94426 -0.0537202 0
M  V30 5380 C 508.125 -1.23619 3.38216 0
M  V30 5381 C 507.978 -0.168274 4.49485 0
M  V30 5382 C 509.297 -2.15008 3.84005 0
M  V30 5383 H 506.416 -0.228629 0.700641 0
M  V30 5384 H 509.058 0.103651 1.89717 0
M  V30 5385 H 507.208 -1.864 3.40863 0
M  V30 5386 H 508.88 0.463196 4.58969 0
M  V30 5387 H 507.123 0.504581 4.30855 0
M  V30 5388 H 507.794 -0.630218 5.48391 0
M  V30 5389 H 510.27 -1.62198 3.83185 0
M  V30 5390 H 509.146 -2.54161 4.86511 0
M  V30 5391 H 509.407 -3.04707 3.20322 0
M  V30 5392 N 508.466 -1.55915 -0.229846 0
M  V30 5393 C 509.399 -1.86734 -1.3117 0
M  V30 5394 C 510.377 -0.723947 -1.45595 0
M  V30 5395 O 511.561 -0.971462 -1.61539 0
M  V30 5396 C 508.688 -2.06707 -2.68309 0
M  V30 5397 C 507.734 -3.2938 -2.70944 0
M  V30 5398 S 508.567 -4.85547 -2.25842 0
M  V30 5399 C 509.723 -5.08546 -3.64873 0
M  V30 5400 H 509.956 -2.78204 -1.04832 0
M  V30 5401 H 507.489 -1.48243 -0.431681 0
M  V30 5402 H 509.447 -2.18898 -3.47267 0
M  V30 5403 H 508.108 -1.16049 -2.91876 0
M  V30 5404 H 507.301 -3.40374 -3.71701 0
M  V30 5405 H 506.903 -3.16004 -2.00044 0
M  V30 5406 H 509.195 -4.96935 -4.60502 0
M  V30 5407 H 510.138 -6.10465 -3.58801 0
M  V30 5408 H 510.546 -4.36314 -3.58176 0
M  V30 5409 N 509.944 0.496216 -1.49584 0
M  V30 5410 C 510.874 1.60576 -1.69521 0
M  V30 5411 C 511.855 1.61169 -0.543933 0
M  V30 5412 O 513.04 1.77834 -0.78031 0
M  V30 5413 C 510.17 2.99038 -1.76616 0
M  V30 5414 C 509.124 3.13312 -2.91581 0
M  V30 5415 C 508.45 4.53172 -2.83794 0
M  V30 5416 C 509.75 2.92886 -4.32452 0
M  V30 5417 H 511.444 1.44146 -2.62416 0
M  V30 5418 H 508.99 0.692024 -1.26282 0
M  V30 5419 H 510.943 3.76564 -1.8915 0
M  V30 5420 H 509.667 3.16568 -0.80324 0
M  V30 5421 H 508.326 2.38213 -2.78658 0
M  V30 5422 H 507.974 4.67585 -1.854 0
M  V30 5423 H 507.674 4.63662 -3.60958 0
M  V30 5424 H 509.198 5.32752 -2.98342 0
M  V30 5425 H 510.612 3.60178 -4.46032 0
M  V30 5426 H 509.009 3.14844 -5.10875 0
M  V30 5427 H 510.079 1.88966 -4.46565 0
M  V30 5428 N 511.423 1.38739 0.74761 0
M  V30 5429 C 512.648 1.38702 1.54197 0
M  V30 5430 C 513.073 -0.019664 1.8809 0
M  V30 5431 O 512.431 -1.00333 1.51006 0
M  V30 5432 C 512.479 2.25492 2.814 0
M  V30 5433 O 511.583 1.67613 3.76802 0
M  V30 5434 H 510.924 0.472863 0.466151 0
M  V30 5435 H 513.454 1.82577 0.923413 0
M  V30 5436 H 513.464 2.39561 3.30264 0
M  V30 5437 H 512.139 3.27727 2.56062 0
M  V30 5438 H 510.716 1.62718 3.35526 0
M  V30 5439 N 512.901 -0.976442 1.23707 0
M  V30 5440 C 514.149 -1.71487 1.06942 0
M  V30 5441 C 514.47 -1.9098 -0.393897 0
M  V30 5442 O 513.74 -1.48128 -1.28198 0
M  V30 5443 H 512.32 -0.635425 0.392739 0
M  V30 5444 H 514.982 -1.17515 1.55487 0
M  V30 5445 H 514.078 -2.70286 1.56051 0
M  V30 5446 N 514.379 -1.04941 -1.1758 0
M  V30 5447 C 515.289 -0.658826 -2.25159 0
M  V30 5448 C 516.305 0.318941 -1.71052 0
M  V30 5449 O 517.481 0.171669 -2.00667 0
M  V30 5450 C 514.546 -0.0369522 -3.4668 0
M  V30 5451 C 513.607 -1.06484 -4.15884 0
M  V30 5452 C 512.84 -0.472551 -5.31604 0
M  V30 5453 O 513.063 0.718736 -5.65854 0
M  V30 5454 O 511.997 -1.20557 -5.89703 0
M  V30 5455 H 515.823 -1.55533 -2.60851 0
M  V30 5456 H 513.408 -0.820819 -1.24832 0
M  V30 5457 H 515.29 0.308784 -4.20267 0
M  V30 5458 H 513.965 0.833238 -3.12792 0
M  V30 5459 H 512.872 -1.46253 -3.44327 0
M  V30 5460 H 514.205 -1.9061 -4.53794 0
M  V30 5461 N 515.857 1.33968 -0.830081 0
M  V30 5462 C 517.085 2.0228 -0.434773 0
M  V30 5463 C 517.5 1.62487 0.961419 0
M  V30 5464 O 516.857 0.833849 1.62337 0
M  V30 5465 C 516.908 3.5751 -0.535625 0
M  V30 5466 O 516.629 3.95864 -1.87679 0
M  V30 5467 C 518.13 4.43091 -0.136137 0
M  V30 5468 H 515.35 0.648151 -0.173613 0
M  V30 5469 H 517.894 1.71089 -1.12022 0
M  V30 5470 H 516.049 3.87266 0.101817 0
M  V30 5471 H 516.463 4.9056 -1.85609 0
M  V30 5472 H 517.937 5.51398 -0.257772 0
M  V30 5473 H 518.414 4.29433 0.921076 0
M  V30 5474 H 519.02 4.18677 -0.747662 0
M  V30 5475 N 517.335 0.585699 1.46312 0
M  V30 5476 C 518.298 -0.135673 2.28798 0
M  V30 5477 C 519.298 -0.815988 1.38558 0
M  V30 5478 O 520.488 -0.667487 1.60904 0
M  V30 5479 C 517.62 -1.20163 3.1902 0
M  V30 5480 H 518.813 0.589257 2.94054 0
M  V30 5481 H 516.366 0.343794 1.52472 0
M  V30 5482 H 517.101 -1.95804 2.58517 0
M  V30 5483 H 516.886 -0.718282 3.85465 0
M  V30 5484 H 518.376 -1.70749 3.81096 0
M  V30 5485 N 518.813 -1.54241 0.323641 0
M  V30 5486 C 520.061 -2.00174 -0.278359 0
M  V30 5487 C 520.382 -1.2134 -1.52648 0
M  V30 5488 O 519.652 -0.315244 -1.93347 0
M  V30 5489 H 518.232 -0.739463 -0.105845 0
M  V30 5490 H 520.894 -1.89864 0.440204 0
M  V30 5491 H 519.99 -3.07486 -0.5347 0
M  V30 5492 N 520.291 -0.0518155 -1.57515 0
M  V30 5493 C 521.539 0.620595 -1.92336 0
M  V30 5494 C 521.86 1.71345 -0.930907 0
M  V30 5495 O 521.13 1.95885 0.0241341 0
M  V30 5496 H 519.71 0.232226 -0.709986 0
M  V30 5497 H 522.372 -0.104969 -1.94617 0
M  V30 5498 H 521.468 1.05879 -2.93592 0
M  V30 5499 N 521.769 1.56035 0.221574 0
M  V30 5500 C 522.716 1.92413 1.27459 0
M  V30 5501 C 523.686 0.781323 1.46576 0
M  V30 5502 O 524.871 1.03721 1.60145 0
M  V30 5503 C 522.011 2.24617 2.61995 0
M  V30 5504 C 521.124 3.51831 2.50677 0
M  V30 5505 C 520.259 3.73482 3.77736 0
M  V30 5506 C 519.298 4.94211 3.6114 0
M  V30 5507 N 518.435 5.12252 4.80148 0
M  V30 5508 H 523.275 2.82203 0.957355 0
M  V30 5509 H 520.812 1.39676 0.461415 0
M  V30 5510 H 522.77 2.41298 3.40339 0
M  V30 5511 H 521.4 1.38 2.91815 0
M  V30 5512 H 520.452 3.43343 1.63767 0
M  V30 5513 H 521.764 4.40328 2.34334 0
M  V30 5514 H 520.918 3.9026 4.64523 0
M  V30 5515 H 519.657 2.83266 3.97003 0
M  V30 5516 H 518.662 4.77384 2.72736 0
M  V30 5517 H 519.887 5.85912 3.43343 0
M  V30 5518 H 517.833 4.24978 4.99729 0
M  V30 5519 H 517.75 5.94881 4.66532 0
M  V30 5520 H 519.018 5.33465 5.68362 0
M  V30 5521 N 523.247 -0.488276 1.49845 0
M  V30 5522 C 524.494 -1.24157 1.59973 0
M  V30 5523 C 524.822 -1.92293 0.292182 0
M  V30 5524 O 524.077 -1.81942 -0.720813 0
M  V30 5525 C 524.376 -2.32152 2.71735 0
M  V30 5526 C 524.042 -1.81387 4.12807 0
M  V30 5527 C 522.704 -1.67262 4.51195 0
M  V30 5528 C 525.056 -1.43537 5.01045 0
M  V30 5529 C 522.384 -1.13685 5.7558 0
M  V30 5530 C 524.736 -0.914081 6.25961 0
M  V30 5531 C 523.4 -0.759327 6.63167 0
M  V30 5532 H 522.67 -0.454322 0.585383 0
M  V30 5533 H 525.317 -0.540261 1.83721 0
M  V30 5534 H 523.622 -3.08122 2.42008 0
M  V30 5535 H 525.319 -2.90164 2.76778 0
M  V30 5536 H 521.909 -1.93344 3.82513 0
M  V30 5537 H 526.093 -1.53292 4.72033 0
M  V30 5538 H 521.349 -1.00426 6.03096 0
M  V30 5539 H 525.523 -0.612066 6.93705 0
M  V30 5540 H 523.15 -0.342002 7.5943 0
M  V30 5541 N 524.725 -1.39134 -0.740242 0
M  V30 5542 C 526.136 -1.32208 -1.31825 0
M  V30 5543 C 526.487 0.0159919 -1.96193 0
M  V30 5544 O 525.612 0.918111 -1.95958 0
M  V30 5545 C 526.207 -2.39436 -2.39699 0
M  V30 5546 C 524.766 -2.36048 -2.93187 0
M  V30 5547 C 523.913 -2.21599 -1.66701 0
M  V30 5548 H 526.864 -1.49298 -0.538133 0
M  V30 5549 H 526.885 -2.05922 -3.19963 0
M  V30 5550 H 526.397 -3.36811 -1.92821 0
M  V30 5551 H 524.498 -1.42295 -3.44359 0
M  V30 5552 H 524.611 -3.30704 -3.46658 0
M  V30 5553 H 522.975 -1.68681 -1.90837 0
M  V30 5554 H 523.758 -3.20936 -1.21882 0
M  V30 5555 N 526.204 0.969867 -1.24223 0
M  V30 5556 C 527.45 1.7151 -1.08223 0
M  V30 5557 C 527.783 1.90478 0.37838 0
M  V30 5558 O 527.058 1.4647 1.27971 0
M  V30 5559 C 527.341 3.10714 -1.82013 0
M  V30 5560 C 527.194 2.9925 -3.35811 0
M  V30 5561 C 528.513 4.10332 -1.59108 0
M  V30 5562 H 525.632 0.622499 -0.394543 0
M  V30 5563 H 528.274 1.1284 -1.52863 0
M  V30 5564 H 526.424 3.608 -1.44068 0
M  V30 5565 H 528.096 2.56608 -3.83341 0
M  V30 5566 H 526.339 2.35512 -3.64303 0
M  V30 5567 H 527.01 3.97857 -3.82641 0
M  V30 5568 H 529.486 3.69097 -1.92111 0
M  V30 5569 H 528.362 5.05804 -2.13198 0
M  V30 5570 H 528.623 4.38926 -0.528832 0
M  V30 5571 N 527.682 1.05563 1.17022 0
M  V30 5572 C 528.592 0.670758 2.24807 0
M  V30 5573 C 529.608 -0.309865 1.71219 0
M  V30 5574 O 530.784 -0.161025 2.00755 0
M  V30 5575 C 527.849 0.055337 3.46656 0
M  V30 5576 C 526.91 1.08688 4.15314 0
M  V30 5577 C 526.143 0.500736 5.31346 0
M  V30 5578 O 526.366 -0.688718 5.66227 0
M  V30 5579 O 525.3 1.23683 5.89055 0
M  V30 5580 H 529.126 1.56914 2.60023 0
M  V30 5581 H 526.711 0.827428 1.24395 0
M  V30 5582 H 528.593 -0.286492 4.20425 0
M  V30 5583 H 527.268 -0.816638 3.13229 0
M  V30 5584 H 526.175 1.48077 3.43546 0
M  V30 5585 H 527.508 1.93014 4.52777 0
M  V30 5586 N 529.16 -1.33526 0.837174 0
M  V30 5587 C 530.123 -2.27551 0.274421 0
M  V30 5588 C 531.123 -1.50886 -0.555881 0
M  V30 5589 O 532.313 -1.70227 -0.369918 0
M  V30 5590 C 529.445 -3.35332 -0.613605 0
M  V30 5591 H 530.638 -2.78837 1.10408 0
M  V30 5592 H 528.191 -1.439 0.610126 0
M  V30 5593 H 528.926 -2.89285 -1.46577 0
M  V30 5594 H 528.711 -3.92095 -0.0195341 0
M  V30 5595 H 530.201 -4.05433 -1.00068 0
M  V30 5596 N 530.638 -0.59345 -1.46 0
M  V30 5597 C 531.884 -0.0832754 -2.02629 0
M  V30 5598 C 532.217 1.27749 -1.46266 0
M  V30 5599 O 531.492 1.8395 -0.631866 0
M  V30 5600 C 531.775 -0.0290756 -3.60088 0
M  V30 5601 C 531.628 -1.41951 -4.26814 0
M  V30 5602 C 532.947 0.666055 -4.35031 0
M  V30 5603 H 530.066 -0.031736 -0.736316 0
M  V30 5604 H 532.708 -0.762711 -1.74019 0
M  V30 5605 H 530.858 0.549532 -3.84594 0
M  V30 5606 H 532.53 -2.04411 -4.13538 0
M  V30 5607 H 530.773 -1.98422 -3.8576 0
M  V30 5608 H 531.444 -1.33395 -5.3564 0
M  V30 5609 H 533.92 0.174401 -4.15734 0
M  V30 5610 H 532.796 0.673041 -5.44758 0
M  V30 5611 H 533.057 1.72946 -4.06869 0
M  V30 5612 N 532.116 1.54067 -0.331816 0
M  V30 5613 C 533.344 2.05131 0.269996 0
M  V30 5614 C 533.759 1.20749 1.45138 0
M  V30 5615 O 533.116 0.240069 1.80914 0
M  V30 5616 C 533.167 3.54728 0.696456 0
M  V30 5617 O 532.888 4.35906 -0.43794 0
M  V30 5618 C 534.389 4.21916 1.36021 0
M  V30 5619 H 531.609 0.668807 0.0542042 0
M  V30 5620 H 534.153 1.98777 -0.4804 0
M  V30 5621 H 532.308 3.61342 1.39681 0
M  V30 5622 H 532.722 5.24404 -0.100334 0
M  V30 5623 H 534.196 5.28015 1.60947 0
M  V30 5624 H 534.673 3.73538 2.31011 0
M  V30 5625 H 535.279 4.19463 0.702212 0
M  V30 5626 N 533.594 0.0601682 1.57485 0
M  V30 5627 C 534.843 -0.611101 1.9222 0
M  V30 5628 C 535.156 -1.71469 0.941159 0
M  V30 5629 O 536.362 -2.44473 1.18089 0
M  V30 5630 C 534.818 -1.13832 3.41424 0
M  V30 5631 C 534.426 -0.0663596 4.47951 0
M  V30 5632 C 536.17 -1.78432 3.85178 0
M  V30 5633 C 534.077 -0.606965 5.88277 0
M  V30 5634 H 533.007 -0.232033 0.71741 0
M  V30 5635 H 535.658 0.130518 1.83035 0
M  V30 5636 H 534.04 -1.93254 3.45643 0
M  V30 5637 H 535.214 0.707682 4.55333 0
M  V30 5638 H 533.529 0.482715 4.13593 0
M  V30 5639 H 536.126 -2.1989 4.87394 0
M  V30 5640 H 536.469 -2.63966 3.21913 0
M  V30 5641 H 537.002 -1.05651 3.83514 0
M  V30 5642 H 533.741 0.21095 6.5516 0
M  V30 5643 H 533.261 -1.34879 5.84438 0
M  V30 5644 H 534.94 -1.08704 6.37803 0
M  V30 5645 N 535.072 -1.5615 -0.213296 0
M  V30 5646 C 536.005 -1.88115 -1.29182 0
M  V30 5647 C 536.983 -0.739348 -1.44819 0
M  V30 5648 O 538.167 -0.988541 -1.605 0
M  V30 5649 C 535.294 -2.09541 -2.66102 0
M  V30 5650 C 534.34 -3.32236 -2.67436 0
M  V30 5651 S 535.173 -4.87915 -2.20679 0
M  V30 5652 C 536.329 -5.12387 -3.59458 0
M  V30 5653 H 536.562 -2.793 -1.01876 0
M  V30 5654 H 534.095 -1.48692 -0.415934 0
M  V30 5655 H 536.053 -2.22568 -3.44925 0
M  V30 5656 H 534.714 -1.19138 -2.90628 0
M  V30 5657 H 533.907 -3.44297 -3.6807 0
M  V30 5658 H 533.509 -3.18108 -1.96681 0
M  V30 5659 H 535.801 -5.01791 -4.55205 0
M  V30 5660 H 536.744 -6.14236 -3.52306 0
M  V30 5661 H 537.152 -4.40089 -3.53528 0
M  V30 5662 N 536.55 0.480323 -1.50102 0
M  V30 5663 C 537.775 1.26126 -1.64642 0
M  V30 5664 C 538.2 1.85257 -0.325823 0
M  V30 5665 O 537.558 1.66854 0.709194 0
M  V30 5666 C 537.606 2.35243 -2.73301 0
M  V30 5667 O 536.71 3.39646 -2.33911 0
M  V30 5668 H 536.051 0.371463 -0.550374 0
M  V30 5669 H 538.581 0.572696 -1.96421 0
M  V30 5670 H 538.591 2.80695 -2.96098 0
M  V30 5671 H 537.266 1.91574 -3.6915 0
M  V30 5672 H 535.843 2.99969 -2.21525 0
M  V30 5673 N 538.028 1.39524 0.732853 0
M  V30 5674 C 538.975 1.38416 1.84688 0
M  V30 5675 C 539.945 0.243539 1.64305 0
M  V30 5676 O 541.13 0.438979 1.85681 0
M  V30 5677 C 538.27 1.23555 3.22224 0
M  V30 5678 C 537.383 2.47179 3.54298 0
M  V30 5679 C 536.518 2.2489 4.81246 0
M  V30 5680 C 535.557 3.44178 5.0617 0
M  V30 5681 N 534.694 3.21192 6.24323 0
M  V30 5682 H 539.534 2.33645 1.84971 0
M  V30 5683 H 537.071 1.16059 0.903804 0
M  V30 5684 H 539.029 1.12949 4.0162 0
M  V30 5685 H 537.659 0.31954 3.21215 0
M  V30 5686 H 536.711 2.68379 2.69587 0
M  V30 5687 H 538.023 3.36022 3.68633 0
M  V30 5688 H 537.177 2.11538 5.68627 0
M  V30 5689 H 535.916 1.33443 4.69089 0
M  V30 5690 H 534.921 3.58025 4.17251 0
M  V30 5691 H 536.146 4.36528 5.20212 0
M  V30 5692 H 534.092 2.32413 6.1345 0
M  V30 5693 H 534.009 4.03594 6.39256 0
M  V30 5694 H 535.277 3.1154 7.14537 0
M  V30 5695 N 539.506 -0.963266 1.24736 0
M  V30 5696 C 540.755 -1.70115 1.08369 0
M  V30 5697 C 541.068 -1.91939 -0.376688 0
M  V30 5698 O 542.274 -2.6334 -0.660624 0
M  V30 5699 C 540.73 -3.06218 1.89099 0
M  V30 5700 C 540.338 -2.92221 3.39574 0
M  V30 5701 C 542.082 -3.83848 1.81275 0
M  V30 5702 C 539.989 -4.23662 4.12631 0
M  V30 5703 H 538.919 -0.637944 0.401924 0
M  V30 5704 H 541.57 -1.07304 1.48856 0
M  V30 5705 H 539.952 -3.69884 1.41429 0
M  V30 5706 H 541.126 -2.37541 3.94856 0
M  V30 5707 H 539.441 -2.28054 3.48397 0
M  V30 5708 H 542.038 -4.81188 2.33158 0
M  V30 5709 H 542.381 -4.08949 0.778895 0
M  V30 5710 H 542.914 -3.26918 2.26649 0
M  V30 5711 H 539.653 -4.03753 5.16395 0
M  V30 5712 H 539.173 -4.78141 3.62135 0
M  V30 5713 H 540.852 -4.92256 4.19873 0
M  V30 5714 N 540.985 -1.06182 -1.16461 0
M  V30 5715 C 542.225 -0.787048 -1.8864 0
M  V30 5716 C 542.589 0.674093 -1.79778 0
M  V30 5717 O 543.79 1.06341 -2.46871 0
M  V30 5718 C 542.061 -1.2666 -3.34203 0
M  V30 5719 S 543.62 -1.12071 -4.24247 0
M  V30 5720 H 540.438 -0.285539 -0.651144 0
M  V30 5721 H 543.04 -1.35851 -1.40587 0
M  V30 5722 H 541.744 -2.32496 -3.38192 0
M  V30 5723 H 541.275 -0.689841 -3.87304 0
M  V30 5724 H 543.29 -0.0509341 -4.96174 0
M  V30 5725 N 542.463 1.3308 -0.844243 0
M  V30 5726 C 543.393 2.3161 -0.296493 0
M  V30 5727 C 544.374 1.59215 0.598707 0
M  V30 5728 O 545.559 1.87077 0.521134 0
M  V30 5729 C 542.689 3.43313 0.524762 0
M  V30 5730 C 541.643 4.27115 -0.275106 0
M  V30 5731 C 540.969 5.30483 0.670236 0
M  V30 5732 C 542.269 5.00443 -1.49514 0
M  V30 5733 H 543.963 2.77672 -1.11976 0
M  V30 5734 H 541.509 1.33496 -0.539899 0
M  V30 5735 H 543.462 4.11273 0.918298 0
M  V30 5736 H 542.186 2.95952 1.3813 0
M  V30 5737 H 540.845 3.60787 -0.650267 0
M  V30 5738 H 540.493 4.79379 1.52332 0
M  V30 5739 H 540.193 5.87435 0.139123 0
M  V30 5740 H 541.717 6.01308 1.06117 0
M  V30 5741 H 543.131 5.61141 -1.17447 0
M  V30 5742 H 541.528 5.67071 -1.96343 0
M  V30 5743 H 542.598 4.28906 -2.26202 0
M  V30 5744 N 543.941 0.601185 1.45683 0
M  V30 5745 C 544.851 -0.123395 2.34275 0
M  V30 5746 C 545.867 -0.86702 1.5086 0
M  V30 5747 O 547.043 -0.826049 1.8368 0
M  V30 5748 C 544.108 -1.11237 3.2837 0
M  V30 5749 C 543.169 -0.371405 4.2769 0
M  V30 5750 C 542.402 -1.31327 5.1729 0
M  V30 5751 O 542.625 -2.55078 5.10188 0
M  V30 5752 O 541.559 -0.813811 5.96373 0
M  V30 5753 H 545.385 0.604483 2.97623 0
M  V30 5754 H 542.97 0.361477 1.44961 0
M  V30 5755 H 544.852 -1.68214 3.8637 0
M  V30 5756 H 543.527 -1.82139 2.67595 0
M  V30 5757 H 542.434 0.24067 3.73325 0
M  V30 5758 H 543.767 0.296998 4.91303 0
M  V30 5759 N 545.419 -1.53889 0.339982 0
M  V30 5760 C 546.382 -2.23547 -0.50592 0
M  V30 5761 C 547.382 -1.23445 -1.03044 0
M  V30 5762 O 548.572 -1.47909 -0.920253 0
M  V30 5763 C 545.704 -2.95234 -1.7044 0
M  V30 5764 H 546.897 -2.99722 0.103247 0
M  V30 5765 H 544.45 -1.56033 0.0912804 0
M  V30 5766 H 545.185 -2.23236 -2.35236 0
M  V30 5767 H 544.97 -3.68654 -1.33553 0
M  V30 5768 H 546.46 -3.48258 -2.30447 0
M  V30 5769 N 546.897 -0.0685191 -1.57451 0
M  V30 5770 C 547.807 0.914677 -2.16034 0
M  V30 5771 C 548.823 1.32938 -1.12265 0
M  V30 5772 O 549.999 1.40275 -1.44516 0
M  V30 5773 C 547.064 2.16519 -2.70777 0
M  V30 5774 C 546.125 1.80721 -3.89408 0
M  V30 5775 C 545.358 2.9981 -4.41531 0
M  V30 5776 O 545.581 4.13727 -3.92666 0
M  V30 5777 O 544.515 2.79817 -5.32903 0
M  V30 5778 H 548.341 0.446364 -3.00402 0
M  V30 5779 H 545.926 0.154367 -1.486 0
M  V30 5780 H 547.808 2.89856 -3.05878 0
M  V30 5781 H 546.483 2.62454 -1.89471 0
M  V30 5782 H 545.39 1.04646 -3.59166 0
M  V30 5783 H 546.723 1.39571 -4.71997 0
M  V30 5784 N 548.375 1.56261 0.205012 0
M  V30 5785 C 549.338 1.92908 1.23771 0
M  V30 5786 C 550.338 0.809208 1.38955 0
M  V30 5787 O 551.528 1.07676 1.36936 0
M  V30 5788 C 548.66 2.19442 2.60879 0
M  V30 5789 H 549.853 2.85287 0.924728 0
M  V30 5790 H 547.406 1.49798 0.446125 0
M  V30 5791 H 548.141 1.29668 2.97248 0
M  V30 5792 H 547.926 3.0104 2.51232 0
M  V30 5793 H 549.416 2.48833 3.35368 0
M  V30 5794 N 549.853 -0.472356 1.50355 0
M  V30 5795 C 551.093 -1.23439 1.62918 0
M  V30 5796 C 551.457 -1.89284 0.321801 0
M  V30 5797 O 552.658 -2.66854 0.322852 0
M  V30 5798 C 550.929 -2.25119 2.7759 0
M  V30 5799 S 552.488 -3.10278 3.10279 0
M  V30 5800 H 549.306 -0.41911 0.574341 0
M  V30 5801 H 551.908 -0.531621 1.88133 0
M  V30 5802 H 550.612 -1.75324 3.71066 0
M  V30 5803 H 550.143 -3.00026 2.54457 0
M  V30 5804 H 552.158 -4.26257 2.54007 0
M  V30 5805 N 551.331 -1.39911 -0.725443 0
M  V30 5806 C 552.58 -1.36963 -1.48068 0
M  V30 5807 C 552.893 0.0284478 -1.95579 0
M  V30 5808 O 554.099 0.180535 -2.70899 0
M  V30 5809 C 552.555 -2.40664 -2.67598 0
M  V30 5810 C 552.163 -3.86234 -2.26997 0
M  V30 5811 C 553.907 -2.46807 -3.45379 0
M  V30 5812 C 551.814 -4.81554 -3.43307 0
M  V30 5813 H 550.744 -0.509223 -0.556065 0
M  V30 5814 H 553.395 -1.65602 -0.790454 0
M  V30 5815 H 551.777 -2.05109 -3.38742 0
M  V30 5816 H 552.951 -4.3088 -1.63337 0
M  V30 5817 H 551.266 -3.83475 -1.62284 0
M  V30 5818 H 553.863 -3.15213 -4.31909 0
M  V30 5819 H 554.206 -1.49552 -3.8851 0
M  V30 5820 H 554.739 -2.81303 -2.81271 0
M  V30 5821 H 551.478 -5.80106 -3.05217 0
M  V30 5822 H 550.998 -4.4158 -4.05915 0
M  V30 5823 H 552.677 -5.0091 -4.0951 0
M  V30 5824 N 552.809 0.956637 -1.25245 0
M  V30 5825 C 554.086 1.67716 -1.00651 0
M  V30 5826 C 554.466 2.0585 0.467866 0
M  V30 5827 O 553.814 1.77029 1.44475 0
M  V30 5828 C 554.024 2.90093 -1.94028 0
M  V30 5829 C 555.372 3.6209 -2.21756 0
M  V30 5830 O 556.396 3.00171 -1.9177 0
M  V30 5831 O 555.255 4.7358 -2.72735 0
M  V30 5832 H 552.349 0.733731 -0.381533 0
M  V30 5833 H 554.895 1.00974 -1.3639 0
M  V30 5834 H 553.667 2.58689 -2.93591 0
M  V30 5835 H 553.29 3.64566 -1.58674 0
M  V30 5836 N 554.287 1.06798 1.15896 0
M  V30 5837 C 555.517 0.807522 1.90165 0
M  V30 5838 C 555.925 -0.642417 1.7796 0
M  V30 5839 O 555.268 -1.45193 1.12537 0
M  V30 5840 C 555.33 1.12939 3.41299 0
M  V30 5841 C 554.994 2.57879 3.7729 0
M  V30 5842 C 555.991 3.56118 3.78782 0
M  V30 5843 C 553.676 2.93311 4.07767 0
M  V30 5844 C 555.67 4.87827 4.10248 0
M  V30 5845 C 553.357 4.25219 4.38899 0
M  V30 5846 C 554.355 5.22287 4.4012 0
M  V30 5847 O 554.043 6.51826 4.70508 0
M  V30 5848 H 553.775 0.291946 0.609708 0
M  V30 5849 H 556.329 1.42627 1.47806 0
M  V30 5850 H 554.559 0.45359 3.84031 0
M  V30 5851 H 556.248 0.852363 3.9685 0
M  V30 5852 H 557.014 3.30086 3.55342 0
M  V30 5853 H 552.893 2.18409 4.05979 0
M  V30 5854 H 556.437 5.63586 4.11116 0
M  V30 5855 H 552.334 4.51006 4.61805 0
M  V30 5856 H 553.102 6.56893 4.88298 0
M  V30 5857 N 555.766 -1.3263 0.851289 0
M  V30 5858 C 556.713 -2.28952 0.291469 0
M  V30 5859 C 557.683 -1.54897 -0.599676 0
M  V30 5860 O 558.868 -1.83137 -0.535305 0
M  V30 5861 C 556.008 -3.41206 -0.516992 0
M  V30 5862 C 555.121 -4.30148 0.399566 0
M  V30 5863 C 554.256 -5.29527 -0.4212 0
M  V30 5864 C 553.295 -6.10112 0.492969 0
M  V30 5865 N 552.432 -7.01499 -0.290414 0
M  V30 5866 H 557.272 -2.76228 1.11813 0
M  V30 5867 H 554.809 -1.35907 0.562826 0
M  V30 5868 H 556.767 -4.05005 -1.00132 0
M  V30 5869 H 555.397 -2.9509 -1.30851 0
M  V30 5870 H 554.449 -3.66959 1.00227 0
M  V30 5871 H 555.761 -4.8649 1.1013 0
M  V30 5872 H 554.915 -5.98914 -0.968832 0
M  V30 5873 H 553.654 -4.73794 -1.15632 0
M  V30 5874 H 552.659 -5.39632 1.05251 0
M  V30 5875 H 553.884 -6.6793 1.22664 0
M  V30 5876 H 551.83 -6.48199 -1.00868 0
M  V30 5877 H 551.747 -7.55178 0.352354 0
M  V30 5878 H 553.015 -7.75176 -0.819882 0
M  V30 5879 N 557.244 -0.608902 -1.45362 0
M  V30 5880 C 558.174 0.0964526 -2.33301 0
M  V30 5881 C 559.155 0.857444 -1.46908 0
M  V30 5882 O 560.34 0.827735 -1.75676 0
M  V30 5883 C 557.47 1.09354 -3.29635 0
M  V30 5884 C 556.424 0.445676 -4.25673 0
M  V30 5885 C 555.75 1.5511 -5.11708 0
M  V30 5886 C 557.05 -0.633972 -5.18438 0
M  V30 5887 H 558.744 -0.637829 -2.92527 0
M  V30 5888 H 556.29 -0.308178 -1.40664 0
M  V30 5889 H 558.243 1.59556 -3.90025 0
M  V30 5890 H 556.967 1.85843 -2.6857 0
M  V30 5891 H 555.626 -0.0354897 -3.66583 0
M  V30 5892 H 555.274 2.30631 -4.4701 0
M  V30 5893 H 554.974 1.12311 -5.76767 0
M  V30 5894 H 556.498 2.05537 -5.74967 0
M  V30 5895 H 557.912 -0.215974 -5.72893 0
M  V30 5896 H 556.309 -0.983789 -5.91981 0
M  V30 5897 H 557.379 -1.51005 -4.60788 0
M  V30 5898 N 558.722 1.53707 -0.348139 0
M  V30 5899 C 559.652 2.28111 0.498766 0
M  V30 5900 C 560.633 1.29851 1.09876 0
M  V30 5901 O 561.818 1.587 1.11928 0
M  V30 5902 C 558.948 3.05735 1.64753 0
M  V30 5903 C 557.902 4.11537 1.17565 0
M  V30 5904 C 557.228 4.77142 2.4133 0
M  V30 5905 C 558.528 5.21587 0.272844 0
M  V30 5906 H 560.222 2.99152 -0.121934 0
M  V30 5907 H 557.768 1.43875 -0.0600842 0
M  V30 5908 H 559.721 3.56526 2.24649 0
M  V30 5909 H 558.445 2.32354 2.2952 0
M  V30 5910 H 557.104 3.61665 0.599483 0
M  V30 5911 H 556.752 4.0035 3.04514 0
M  V30 5912 H 556.452 5.48626 2.10436 0
M  V30 5913 H 557.976 5.30719 3.01943 0
M  V30 5914 H 559.39 5.67986 0.778779 0
M  V30 5915 H 557.787 6.00074 0.0555849 0
M  V30 5916 H 558.857 4.79969 -0.689785 0
M  V30 5917 N 560.2 0.0768682 1.57412 0
M  V30 5918 C 561.43 -0.5991 1.97723 0
M  V30 5919 C 561.838 -1.63378 0.954166 0
M  V30 5920 O 561.181 -1.83578 -0.0668706 0
M  V30 5921 C 561.243 -1.32078 3.34358 0
M  V30 5922 C 560.907 -0.438985 4.54887 0
M  V30 5923 C 561.904 0.305492 5.19002 0
M  V30 5924 C 559.589 -0.362378 5.00991 0
M  V30 5925 C 561.583 1.11475 6.27576 0
M  V30 5926 C 559.27 0.450543 6.09437 0
M  V30 5927 C 560.268 1.18777 6.72593 0
M  V30 5928 O 559.956 1.98727 7.7895 0
M  V30 5929 H 559.688 -0.166725 0.655117 0
M  V30 5930 H 562.242 0.147337 2.04871 0
M  V30 5931 H 560.472 -2.1134 3.2384 0
M  V30 5932 H 562.161 -1.88949 3.5924 0
M  V30 5933 H 562.927 0.25593 4.84324 0
M  V30 5934 H 558.806 -0.925832 4.51608 0
M  V30 5935 H 562.35 1.69068 6.76803 0
M  V30 5936 H 558.247 0.501651 6.43548 0
M  V30 5937 H 559.015 1.91214 7.95851 0
M  V30 5938 N 561.678 -1.56367 -0.196722 0
M  V30 5939 C 562.61 -1.90941 -1.26784 0
M  V30 5940 C 563.623 -0.799928 -1.41792 0
M  V30 5941 O 564.812 -1.07833 -1.42247 0
M  V30 5942 C 561.912 -2.12477 -2.6402 0
M  V30 5943 C 561.085 -3.43616 -2.70641 0
M  V30 5944 C 560.144 -3.54284 -3.89062 0
M  V30 5945 O 559.17 -4.2712 -3.76241 0
M  V30 5946 N 560.372 -2.87252 -5.04447 0
M  V30 5947 H 563.137 -2.83417 -0.974417 0
M  V30 5948 H 560.698 -1.57215 -0.386649 0
M  V30 5949 H 562.69 -2.16904 -3.41665 0
M  V30 5950 H 561.26 -1.26508 -2.85857 0
M  V30 5951 H 560.48 -3.51072 -1.79283 0
M  V30 5952 H 561.768 -4.29958 -2.72054 0
M  V30 5953 H 561.166 -2.27901 -5.17762 0
M  V30 5954 H 559.723 -2.97308 -5.80044 0
M  V30 5955 N 563.156 0.464375 -1.50603 0
M  V30 5956 C 564.381 1.24372 -1.65971 0
M  V30 5957 C 564.806 1.84901 -0.345453 0
M  V30 5958 O 564.164 1.67596 0.691457 0
M  V30 5959 C 564.212 2.32331 -2.7578 0
M  V30 5960 O 563.316 3.37146 -2.375 0
M  V30 5961 H 562.657 0.365604 -0.554283 0
M  V30 5962 H 565.187 0.55183 -1.97018 0
M  V30 5963 H 565.197 2.77539 -2.99059 0
M  V30 5964 H 563.872 1.87648 -3.71162 0
M  V30 5965 H 562.449 2.97602 -2.24694 0
M  V30 5966 N 564.634 1.40294 0.718013 0
M  V30 5967 C 565.564 1.43118 1.84498 0
M  V30 5968 C 566.545 0.292403 1.67568 0
M  V30 5969 O 567.73 0.500675 1.87635 0
M  V30 5970 C 564.86 1.29065 3.22427 0
M  V30 5971 C 563.814 2.40521 3.54025 0
M  V30 5972 C 563.14 2.11546 4.91073 0
M  V30 5973 C 564.44 3.82859 3.55269 0
M  V30 5974 H 566.134 2.37432 1.82391 0
M  V30 5975 H 563.68 1.14283 0.87609 0
M  V30 5976 H 565.633 1.29658 4.00957 0
M  V30 5977 H 564.357 0.312271 3.25104 0
M  V30 5978 H 563.016 2.39173 2.77834 0
M  V30 5979 H 562.664 1.12104 4.90348 0
M  V30 5980 H 562.364 2.86216 5.1318 0
M  V30 5981 H 563.888 2.13817 5.71939 0
M  V30 5982 H 565.302 3.86044 4.23843 0
M  V30 5983 H 563.699 4.57029 3.88902 0
M  V30 5984 H 564.769 4.12617 2.54706 0
M  V30 5985 N 566.112 -0.949982 1.2575 0
M  V30 5986 C 567.358 -1.69766 1.10938 0
M  V30 5987 C 567.691 -1.91056 -0.348028 0
M  V30 5988 O 566.966 -1.48488 -1.25625 0
M  V30 5989 C 567.249 -3.07779 1.86933 0
M  V30 5990 C 567.102 -2.9387 3.4053 0
M  V30 5991 C 568.421 -4.07749 1.65616 0
M  V30 5992 H 565.54 -0.616144 0.404396 0
M  V30 5993 H 568.182 -1.10394 1.54639 0
M  V30 5994 H 566.332 -3.58462 1.4979 0
M  V30 5995 H 568.004 -2.50476 3.87375 0
M  V30 5996 H 566.247 -2.29686 3.68004 0
M  V30 5997 H 566.918 -3.91719 3.88922 0
M  V30 5998 H 569.394 -3.65994 1.97959 0
M  V30 5999 H 568.27 -5.02348 2.21218 0
M  V30 6000 H 568.531 -4.38029 0.598595 0
M  V30 6001 N 567.59 -1.07411 -1.15328 0
M  V30 6002 C 568.538 -0.689316 -2.22151 0
M  V30 6003 C 569.532 0.300156 -1.6672 0
M  V30 6004 O 570.738 0.163804 -1.79253 0
M  V30 6005 H 567.113 -0.204834 -0.723566 0
M  V30 6006 H 569.084 -1.59988 -2.51886 0
M  V30 6007 C 567.833 -0.103848 -3.47545 0
M  V30 6008 H 567.156 -0.856367 -3.90521 0
M  V30 6009 H 568.596 0.127725 -4.23808 0
M  V30 6010 C 567.055 1.15563 -3.1646 0
M  V30 6011 O 567.585 2.242 -3.33312 0
M  V30 6012 N 565.791 1.06203 -2.70498 0
M  V30 6013 H 565.338 0.177933 -2.56985 0
M  V30 6014 H 565.296 1.90553 -2.50074 0
M  V30 6015 N 569.068 1.32177 -0.85831 0
M  V30 6016 C 570.031 2.27086 -0.310588 0
M  V30 6017 C 571.031 1.51751 0.531806 0
M  V30 6018 O 572.221 1.70794 0.34279 0
M  V30 6019 C 569.353 3.36266 0.560179 0
M  V30 6020 H 570.546 2.77045 -1.1483 0
M  V30 6021 H 568.099 1.42911 -0.632942 0
M  V30 6022 H 568.834 2.9158 1.41956 0
M  V30 6023 H 568.619 3.92077 -0.0428473 0
M  V30 6024 H 570.109 4.06974 0.936056 0
M  V30 6025 N 570.547 0.616602 1.45037 0
M  V30 6026 C 571.796 0.112861 2.01384 0
M  V30 6027 C 572.109 -1.26758 1.48969 0
M  V30 6028 O 573.315 -1.86454 1.9735 0
M  V30 6029 C 571.771 0.151057 3.59583 0
M  V30 6030 C 571.379 1.53191 4.20995 0
M  V30 6031 C 573.123 -0.296974 4.2346 0
M  V30 6032 C 571.03 1.526 5.71373 0
M  V30 6033 H 569.96 0.0384254 0.75302 0
M  V30 6034 H 572.611 0.773262 1.66412 0
M  V30 6035 H 570.993 -0.57617 3.91786 0
M  V30 6036 H 572.167 2.28156 4.00352 0
M  V30 6037 H 570.482 1.92279 3.69348 0
M  V30 6038 H 573.079 -0.320712 5.33737 0
M  V30 6039 H 573.422 -1.32145 3.9477 0
M  V30 6040 H 573.955 0.377279 3.96007 0
M  V30 6041 H 570.694 2.52837 6.04776 0
M  V30 6042 H 570.214 0.819064 5.94181 0
M  V30 6043 H 571.893 1.25357 6.3474 0
M  V30 6044 N 572.025 -1.5352 0.356285 0
M  V30 6045 C 572.935 -2.29151 -0.502712 0
M  V30 6046 C 573.951 -1.34753 -1.1008 0
M  V30 6047 O 575.127 -1.67803 -1.11374 0
M  V30 6048 C 572.192 -3.05911 -1.63154 0
M  V30 6049 C 571.253 -4.15958 -1.06194 0
M  V30 6050 C 570.486 -4.8905 -2.13696 0
M  V30 6051 O 570.709 -4.61919 -3.34645 0
M  V30 6052 O 569.643 -5.75202 -1.77275 0
M  V30 6053 H 573.469 -3.03492 0.112466 0
M  V30 6054 H 571.054 -1.4891 0.120942 0
M  V30 6055 H 572.936 -3.53874 -2.28804 0
M  V30 6056 H 571.611 -2.34415 -2.23229 0
M  V30 6057 H 570.518 -3.7227 -0.369603 0
M  V30 6058 H 571.851 -4.89593 -0.505872 0
M  V30 6059 N 573.503 -0.0852151 -1.57369 0
M  V30 6060 C 574.731 0.58946 -1.98325 0
M  V30 6061 C 575.146 1.62333 -0.96403 0
M  V30 6062 O 574.503 1.82438 0.0476395 0
M  V30 6063 C 574.554 1.24604 -3.39347 0
M  V30 6064 O 574.275 0.253532 -4.37366 0
M  V30 6065 C 575.776 2.00726 -3.95252 0
M  V30 6066 H 572.996 0.158783 -0.651942 0
M  V30 6067 H 575.54 -0.161584 -2.03861 0
M  V30 6068 H 573.695 1.94808 -3.34856 0
M  V30 6069 H 574.109 0.726207 -5.19448 0
M  V30 6070 H 575.583 2.42039 -4.96106 0
M  V30 6071 H 576.06 2.86919 -3.32527 0
M  V30 6072 H 576.666 1.3536 -4.03185 0
M  V30 6073 N 574.981 1.5647 0.188427 0
M  V30 6074 C 576.392 1.70864 0.752494 0
M  V30 6075 C 576.743 0.692905 1.83557 0
M  V30 6076 O 575.868 -0.149307 2.15884 0
M  V30 6077 C 576.463 3.09789 1.37173 0
M  V30 6078 C 575.022 3.25925 1.88281 0
M  V30 6079 C 574.169 2.66817 0.755259 0
M  V30 6080 H 577.12 1.58657 -0.0367408 0
M  V30 6081 H 577.141 3.07489 2.24122 0
M  V30 6082 H 576.653 3.83693 0.583219 0
M  V30 6083 H 574.754 2.56948 2.6983 0
M  V30 6084 H 574.867 4.33498 2.04001 0
M  V30 6085 H 573.231 2.2617 1.17128 0
M  V30 6086 H 574.014 3.43294 -0.0211237 0
M  V30 6087 N 576.459 -0.456382 1.50847 0
M  V30 6088 C 577.708 -1.2042 1.61808 0
M  V30 6089 C 578.021 -1.9278 0.330932 0
M  V30 6090 O 579.227 -2.69612 0.319643 0
M  V30 6091 C 577.683 -2.18891 2.85683 0
M  V30 6092 C 577.291 -1.52267 4.2133 0
M  V30 6093 C 579.035 -2.94224 3.05994 0
M  V30 6094 C 576.942 -2.4911 5.36375 0
M  V30 6095 H 575.872 -0.453177 0.602616 0
M  V30 6096 H 578.523 -0.473144 1.77295 0
M  V30 6097 H 576.905 -2.95351 2.63787 0
M  V30 6098 H 578.079 -0.814949 4.53536 0
M  V30 6099 H 576.394 -0.891594 4.06743 0
M  V30 6100 H 578.991 -3.66732 3.89117 0
M  V30 6101 H 579.334 -3.54469 2.18306 0
M  V30 6102 H 579.867 -2.24874 3.28141 0
M  V30 6103 H 576.606 -1.93582 6.26264 0
M  V30 6104 H 576.126 -3.17991 5.08569 0
M  V30 6105 H 577.805 -3.10637 5.67551 0
M  V30 6106 N 577.937 -1.40673 -0.710563 0
M  V30 6107 C 579.162 -1.42741 -1.50465 0
M  V30 6108 C 579.587 -0.0302116 -1.88076 0
M  V30 6109 O 578.945 0.962945 -1.53613 0
M  V30 6110 C 578.993 -2.32873 -2.75322 0
M  V30 6111 O 578.097 -1.77544 -3.72226 0
M  V30 6112 H 577.438 -0.485056 -0.45345 0
M  V30 6113 H 579.968 -1.84961 -0.874681 0
M  V30 6114 H 579.978 -2.48233 -3.23797 0
M  V30 6115 H 578.653 -3.34401 -2.47283 0
M  V30 6116 H 577.23 -1.71556 -3.31093 0
M  V30 6117 N 579.415 0.9433 -1.26252 0
M  V30 6118 C 580.661 1.69175 -1.11837 0
M  V30 6119 C 580.994 1.91238 0.337891 0
M  V30 6120 O 580.269 1.49152 1.24836 0
M  V30 6121 C 580.552 3.06783 -1.88563 0
M  V30 6122 C 580.405 2.9206 -3.42083 0
M  V30 6123 C 581.724 4.06865 -1.67776 0
M  V30 6124 H 578.843 0.61399 -0.407658 0
M  V30 6125 H 581.485 1.09572 -1.55222 0
M  V30 6126 H 579.635 3.57663 -1.51689 0
M  V30 6127 H 581.307 2.48419 -3.88698 0
M  V30 6128 H 579.55 2.27731 -3.69217 0
M  V30 6129 H 580.221 3.89651 -3.90994 0
M  V30 6130 H 582.697 3.64939 -1.99897 0
M  V30 6131 H 581.573 5.01168 -2.23879 0
M  V30 6132 H 581.834 4.37705 -0.621816 0
M  V30 6133 N 580.893 1.08022 1.14757 0
M  V30 6134 C 581.825 0.664566 2.19354 0
M  V30 6135 C 582.838 -0.286374 1.60261 0
M  V30 6136 O 584.027 -0.0746362 1.78344 0
M  V30 6137 C 581.127 -0.0434634 3.38872 0
M  V30 6138 C 580.3 0.925381 4.27499 0
M  V30 6139 C 579.359 0.253398 5.2559 0
M  V30 6140 O 578.385 0.896581 5.62094 0
M  V30 6141 N 579.587 -0.998263 5.71852 0
M  V30 6142 H 582.352 1.56438 2.55631 0
M  V30 6143 H 579.913 0.965788 1.29939 0
M  V30 6144 H 581.905 -0.503857 4.01551 0
M  V30 6145 H 580.475 -0.845321 3.00954 0
M  V30 6146 H 579.695 1.56472 3.61815 0
M  V30 6147 H 580.983 1.58203 4.8358 0
M  V30 6148 H 580.381 -1.54063 5.44317 0
M  V30 6149 H 578.938 -1.40222 6.36538 0
M  V30 6150 N 582.371 -1.3172 0.865308 0
M  V30 6151 C 583.281 -2.32394 0.320935 0
M  V30 6152 C 584.297 -1.64511 -0.566746 0
M  V30 6153 O 585.473 -1.95969 -0.464575 0
M  V30 6154 C 582.538 -3.43462 -0.472701 0
M  V30 6155 C 581.599 -4.27015 0.442385 0
M  V30 6156 C 580.832 -5.32779 -0.313469 0
M  V30 6157 O 581.055 -5.49158 -1.54214 0
M  V30 6158 O 579.989 -6.01015 0.326257 0
M  V30 6159 H 583.815 -2.80868 1.15528 0
M  V30 6160 H 581.4 -1.35535 0.628545 0
M  V30 6161 H 583.282 -4.11172 -0.922781 0
M  V30 6162 H 581.957 -2.97159 -1.28367 0
M  V30 6163 H 580.864 -3.62075 0.940866 0
M  V30 6164 H 582.197 -4.76871 1.21882 0
M  V30 6165 N 583.85 -0.624285 -1.44708 0
M  V30 6166 C 584.812 0.0749638 -2.29077 0
M  V30 6167 C 585.812 0.778965 -1.40673 0
M  V30 6168 O 587.003 0.624591 -1.62618 0
M  V30 6169 C 584.135 1.11663 -3.22094 0
M  V30 6170 H 585.327 -0.667013 -2.92388 0
M  V30 6171 H 582.88 -0.384098 -1.51507 0
M  V30 6172 H 583.615 1.88881 -2.63618 0
M  V30 6173 H 583.401 0.61583 -3.87234 0
M  V30 6174 H 584.891 1.60585 -3.8549 0
M  V30 6175 N 585.328 1.53329 -0.364422 0
M  V30 6176 C 586.574 2.01537 0.225969 0
M  V30 6177 C 586.907 1.25128 1.48515 0
M  V30 6178 O 586.182 0.344653 1.91422 0
M  V30 6179 C 586.465 3.56339 0.519092 0
M  V30 6180 C 586.318 4.43441 -0.753639 0
M  V30 6181 C 587.637 4.19833 1.32015 0
M  V30 6182 H 584.756 0.732573 0.0806548 0
M  V30 6183 H 587.398 1.83597 -0.489084 0
M  V30 6184 H 585.548 3.71756 1.12825 0
M  V30 6185 H 587.22 4.39823 -1.39116 0
M  V30 6186 H 585.463 4.11457 -1.37424 0
M  V30 6187 H 586.134 5.49699 -0.503517 0
M  V30 6188 H 588.61 4.08242 0.804859 0
M  V30 6189 H 587.486 5.28177 1.49399 0
M  V30 6190 H 587.747 3.75821 2.32832 0
M  V30 6191 N 586.806 0.0935595 1.57322 0
M  V30 6192 C 587.769 -0.851426 2.12799 0
M  V30 6193 C 588.769 -1.21187 1.0569 0
M  V30 6194 O 589.959 -1.14156 1.31583 0
M  V30 6195 C 587.091 -2.14779 2.64731 0
M  V30 6196 H 588.284 -0.369733 2.97612 0
M  V30 6197 H 585.837 -0.155417 1.55525 0
M  V30 6198 H 586.572 -2.67437 1.83434 0
M  V30 6199 H 586.357 -1.89907 3.43042 0
M  V30 6200 H 587.847 -2.82383 3.07651 0
M  V30 6201 N 588.284 -1.56567 -0.180126 0
M  V30 6202 C 589.7 -1.50488 -0.531559 0
M  V30 6203 C 589.9 -0.796267 -1.851 0
M  V30 6204 O 588.956 -0.352978 -2.50021 0
M  V30 6205 C 590.269 -2.95201 -0.572456 0
M  V30 6206 C 591.817 -3.05957 -0.660264 0
M  V30 6207 C 592.292 -4.5211 -0.732135 0
M  V30 6208 N 593.783 -4.56322 -0.795262 0
M  V30 6209 C 594.518 -5.66742 -0.871296 0
M  V30 6210 N 594.014 -6.86815 -0.908708 0
M  V30 6211 N 595.807 -5.54691 -0.909639 0
M  V30 6212 H 587.958 -2.01045 0.685165 0
M  V30 6213 H 590.221 -0.915536 0.245962 0
M  V30 6214 H 589.927 -3.50165 0.328208 0
M  V30 6215 H 589.801 -3.49369 -1.422 0
M  V30 6216 H 592.188 -2.51032 -1.55136 0
M  V30 6217 H 592.269 -2.54888 0.215783 0
M  V30 6218 H 591.913 -5.07664 0.154664 0
M  V30 6219 H 591.843 -5.00926 -1.6242 0
M  V30 6220 H 594.334 -3.69868 -0.77499 0
M  V30 6221 H 594.647 -7.66718 -0.967654 0
M  V30 6222 H 592.992 -6.89443 -0.877132 0
M  V30 6223 H 596.183 -4.59804 -0.877353 0
M  V30 6224 H 596.356 -6.40768 -0.965434 0
M  V30 6225 N 589.762 0.448376 -1.51087 0
M  V30 6226 C 590.987 1.22605 -1.6728 0
M  V30 6227 C 591.412 1.84524 -0.365045 0
M  V30 6228 O 590.77 1.6832 0.673642 0
M  V30 6229 C 590.818 2.29393 -2.78229 0
M  V30 6230 O 589.922 3.34608 -2.41063 0
M  V30 6231 H 589.263 0.359705 -0.558129 0
M  V30 6232 H 591.793 0.530903 -1.97592 0
M  V30 6233 H 591.803 2.74352 -3.01986 0
M  V30 6234 H 590.478 1.83701 -3.73131 0
M  V30 6235 H 589.055 2.95202 -2.27838 0
M  V30 6236 N 591.24 1.41047 0.703093 0
M  V30 6237 C 592.203 1.42036 1.79884 0
M  V30 6238 C 593.203 0.312153 1.57741 0
M  V30 6239 O 594.393 0.571672 1.64553 0
M  V30 6240 C 591.525 1.22437 3.18154 0
M  V30 6241 H 592.718 2.39572 1.80403 0
M  V30 6242 H 590.271 1.27079 0.909977 0
M  V30 6243 H 591.006 0.257112 3.23279 0
M  V30 6244 H 590.791 2.02723 3.35627 0
M  V30 6245 H 592.281 1.25946 3.98155 0
M  V30 6246 N 592.718 -0.936591 1.26751 0
M  V30 6247 C 593.964 -1.6858 1.12733 0
M  V30 6248 C 594.297 -1.91414 -0.327745 0
M  V30 6249 O 593.572 -1.49812 -1.24043 0
M  V30 6250 C 593.855 -3.05779 1.90187 0
M  V30 6251 C 593.708 -2.90242 3.43627 0
M  V30 6252 C 595.027 -4.0597 1.69931 0
M  V30 6253 H 592.146 -0.61182 0.410908 0
M  V30 6254 H 594.788 -1.08747 1.55801 0
M  V30 6255 H 592.938 -3.56853 1.53584 0
M  V30 6256 H 594.61 -2.46354 3.9001 0
M  V30 6257 H 592.853 -2.2577 3.70419 0
M  V30 6258 H 593.524 -3.87572 3.93055 0
M  V30 6259 H 596 -3.63874 2.0183 0
M  V30 6260 H 594.876 -4.99974 2.26534 0
M  V30 6261 H 595.137 -4.37369 0.64502 0
M  V30 6262 N 594.196 -1.08629 -1.14182 0
M  V30 6263 C 595.106 -0.730126 -2.22949 0
M  V30 6264 C 596.122 0.26436 -1.7198 0
M  V30 6265 O 597.298 0.107742 -2.01112 0
M  V30 6266 C 594.363 -0.147227 -3.46387 0
M  V30 6267 C 593.424 -1.19662 -4.12286 0
M  V30 6268 C 592.657 -0.641437 -5.29831 0
M  V30 6269 O 592.88 0.538351 -5.67854 0
M  V30 6270 O 591.814 -1.39257 -5.85569 0
M  V30 6271 H 595.64 -1.63753 -2.55771 0
M  V30 6272 H 593.225 -0.860118 -1.22157 0
M  V30 6273 H 595.107 0.174923 -4.21037 0
M  V30 6274 H 593.782 0.733304 -3.15285 0
M  V30 6275 H 592.689 -1.57133 -3.395 0
M  V30 6276 H 594.022 -2.0495 -4.475 0
M  V30 6277 N 595.674 1.31259 -0.872281 0
M  V30 6278 C 596.902 2.00795 -0.498907 0
M  V30 6279 C 597.317 1.65464 0.909238 0
M  V30 6280 O 596.674 0.885073 1.59602 0
M  V30 6281 C 596.725 3.55625 -0.649092 0
M  V30 6282 O 596.446 3.89692 -2.00179 0
M  V30 6283 C 597.947 4.42434 -0.277034 0
M  V30 6284 H 595.167 0.642299 -0.194145 0
M  V30 6285 H 597.711 1.67438 -1.17408 0
M  V30 6286 H 595.866 3.87394 -0.0214402 0
M  V30 6287 H 596.28 4.84407 -2.01122 0
M  V30 6288 H 597.754 5.50299 -0.433064 0
M  V30 6289 H 598.231 4.32146 0.783989 0
M  V30 6290 H 598.837 4.16086 -0.880483 0
M  V30 6291 N 597.152 0.631951 1.44375 0
M  V30 6292 C 598.115 -0.0628142 2.29114 0
M  V30 6293 C 599.115 -0.771494 1.41084 0
M  V30 6294 O 600.305 -0.615959 1.62947 0
M  V30 6295 C 597.437 -1.09953 3.22681 0
M  V30 6296 H 598.63 0.682509 2.92031 0
M  V30 6297 H 596.183 0.392128 1.51301 0
M  V30 6298 H 596.918 -1.87481 2.64616 0
M  V30 6299 H 596.703 -0.595286 3.87555 0
M  V30 6300 H 598.193 -1.58538 3.86336 0
M  V30 6301 N 598.631 -1.53133 0.372548 0
M  V30 6302 C 599.541 -2.29671 -0.478379 0
M  V30 6303 C 600.557 -1.35913 -1.08644 0
M  V30 6304 O 601.733 -1.68975 -1.09588 0
M  V30 6305 C 598.798 -3.07625 -1.599 0
M  V30 6306 C 597.859 -4.17061 -1.01776 0
M  V30 6307 C 597.092 -4.91289 -2.08497 0
M  V30 6308 O 597.315 -4.65442 -3.29727 0
M  V30 6309 O 596.249 -5.7705 -1.71164 0
M  V30 6310 H 600.075 -3.03355 0.144649 0
M  V30 6311 H 597.66 -1.48773 0.136729 0
M  V30 6312 H 599.542 -3.56281 -2.25038 0
M  V30 6313 H 598.217 -2.3677 -2.2073 0
M  V30 6314 H 597.124 -3.72641 -0.330098 0
M  V30 6315 H 598.457 -4.90102 -0.453915 0
M  V30 6316 N 600.109 -0.101901 -1.5727 0
M  V30 6317 C 601.334 0.571759 -1.99363 0
M  V30 6318 C 601.759 1.60507 -0.980768 0
M  V30 6319 O 601.117 1.81231 0.0498517 0
M  V30 6320 C 601.165 1.18996 -3.404 0
M  V30 6321 O 600.269 2.30572 -3.41922 0
M  V30 6322 H 599.61 0.144449 -0.648098 0
M  V30 6323 H 602.14 -0.185325 -2.03759 0
M  V30 6324 H 602.15 1.52962 -3.78241 0
M  V30 6325 H 600.825 0.432984 -4.1364 0
M  V30 6326 H 599.402 1.98173 -3.15883 0
M  V30 6327 N 601.587 1.56661 0.17182 0
M  V30 6328 C 602.836 1.81158 0.886831 0
M  V30 6329 C 603.149 0.679072 1.83434 0
M  V30 6330 O 604.355 0.808964 2.59168 0
M  V30 6331 C 602.811 3.20999 1.6275 0
M  V30 6332 C 602.419 4.42117 0.723652 0
M  V30 6333 C 604.163 3.5479 2.33076 0
M  V30 6334 C 602.07 5.7298 1.46452 0
M  V30 6335 H 601 0.675543 0.334899 0
M  V30 6336 H 603.651 1.82967 0.139765 0
M  V30 6337 H 602.033 3.13506 2.4193 0
M  V30 6338 H 603.207 4.60789 -0.0311485 0
M  V30 6339 H 601.522 4.16197 0.130063 0
M  V30 6340 H 604.119 4.49806 2.89099 0
M  V30 6341 H 604.462 2.79646 3.08389 0
M  V30 6342 H 604.995 3.63834 1.6084 0
M  V30 6343 H 601.734 6.51152 0.753729 0
M  V30 6344 H 601.254 5.58285 2.19266 0
M  V30 6345 H 602.933 6.14916 2.01214 0
M  V30 6346 N 603.065 -0.440357 1.51323 0
M  V30 6347 C 603.997 -1.55254 1.68609 0
M  V30 6348 C 605.01 -1.52614 0.566812 0
M  V30 6349 O 606.199 -1.57445 0.841032 0
M  V30 6350 C 603.299 -2.94169 1.68279 0
M  V30 6351 C 602.472 -3.21346 2.96742 0
M  V30 6352 C 601.531 -4.3997 2.8864 0
M  V30 6353 O 600.557 -4.38771 3.62586 0
M  V30 6354 N 601.759 -5.43367 2.04285 0
M  V30 6355 H 604.524 -1.40831 2.6455 0
M  V30 6356 H 602.085 -0.629251 1.49171 0
M  V30 6357 H 604.077 -3.71543 1.60431 0
M  V30 6358 H 602.647 -3.02205 0.799441 0
M  V30 6359 H 601.867 -2.32299 3.18482 0
M  V30 6360 H 603.155 -3.3633 3.81785 0
M  V30 6361 H 602.553 -5.47176 1.43578 0
M  V30 6362 H 601.11 -6.19605 2.02318 0
M  V30 6363 N 604.543 -1.41418 -0.695603 0
M  V30 6364 C 605.506 -1.42988 -1.79129 0
M  V30 6365 C 606.506 -0.320514 -1.57573 0
M  V30 6366 O 607.696 -0.58039 -1.64247 0
M  V30 6367 C 604.828 -1.24122 -3.175 0
M  V30 6368 H 606.021 -2.40526 -1.7913 0
M  V30 6369 H 603.574 -1.2756 -0.903225 0
M  V30 6370 H 604.309 -0.274253 -3.23138 0
M  V30 6371 H 604.094 -2.045 -3.34547 0
M  V30 6372 H 605.584 -1.28056 -3.97481 0
M  V30 6373 N 606.021 0.929856 -1.27246 0
M  V30 6374 C 607.246 1.71674 -1.16374 0
M  V30 6375 C 607.671 1.86064 0.276024 0
M  V30 6376 O 607.029 1.3591 1.19992 0
M  V30 6377 C 607.077 3.09526 -1.85003 0
M  V30 6378 O 606.181 3.96142 -1.14653 0
M  V30 6379 H 605.522 0.52629 -0.404863 0
M  V30 6380 H 608.052 1.16381 -1.68276 0
M  V30 6381 H 608.062 3.59852 -1.92276 0
M  V30 6382 H 606.737 2.98369 -2.89739 0
M  V30 6383 H 605.314 3.54584 -1.15433 0
M  V30 6384 N 607.499 1.09233 1.13605 0
M  V30 6385 C 608.429 0.751738 2.21068 0
M  V30 6386 C 609.41 -0.269688 1.67948 0
M  V30 6387 O 610.595 -0.13819 1.93708 0
M  V30 6388 C 607.725 0.16935 3.46887 0
M  V30 6389 C 606.679 1.12007 4.13084 0
M  V30 6390 C 606.005 0.399483 5.33206 0
M  V30 6391 C 607.305 2.46168 4.6065 0
M  V30 6392 H 608.999 1.65024 2.49815 0
M  V30 6393 H 606.545 0.794905 1.20072 0
M  V30 6394 H 608.498 -0.0809824 4.21322 0
M  V30 6395 H 607.222 -0.764335 3.1753 0
M  V30 6396 H 605.881 1.35564 3.40614 0
M  V30 6397 H 605.529 -0.538277 5.00112 0
M  V30 6398 H 605.229 1.03337 5.78442 0
M  V30 6399 H 606.753 0.157403 6.10397 0
M  V30 6400 H 608.167 2.26829 5.26518 0
M  V30 6401 H 606.564 3.05326 5.1662 0
M  V30 6402 H 607.634 3.07076 3.75276 0
M  V30 6403 N 608.977 -1.30795 0.87923 0
M  V30 6404 C 610.226 -1.95636 0.490875 0
M  V30 6405 C 610.539 -1.70214 -0.963674 0
M  V30 6406 O 611.745 -2.28991 -1.45861 0
M  V30 6407 C 610.201 -3.50271 0.826929 0
M  V30 6408 C 609.809 -3.84521 2.29886 0
M  V30 6409 C 611.553 -4.21456 0.507494 0
M  V30 6410 C 609.46 -5.32309 2.57685 0
M  V30 6411 H 608.39 -0.732238 0.179841 0
M  V30 6412 H 611.041 -1.48829 1.07341 0
M  V30 6413 H 609.423 -3.9562 0.173542 0
M  V30 6414 H 610.597 -3.50102 2.99609 0
M  V30 6415 H 608.912 -3.26425 2.58526 0
M  V30 6416 H 611.509 -5.30199 0.692293 0
M  V30 6417 H 611.852 -4.12614 -0.552718 0
M  V30 6418 H 612.385 -3.81772 1.11782 0
M  V30 6419 H 609.124 -5.46195 3.62424 0
M  V30 6420 H 608.644 -5.68048 1.92566 0
M  V30 6421 H 610.323 -5.99678 2.42889 0
M  V30 6422 N 610.455 -0.639598 -1.44038 0
M  V30 6423 C 611.704 -0.144885 -2.01179 0
M  V30 6424 C 612.017 1.24372 -1.50967 0
M  V30 6425 O 613.223 1.83291 -2.00292 0
M  V30 6426 C 611.679 -0.208244 -3.59297 0
M  V30 6427 C 611.287 -1.59869 -4.18504 0
M  V30 6428 C 613.031 0.229568 -4.23879 0
M  V30 6429 C 610.938 -1.61671 -5.68873 0
M  V30 6430 H 609.868 -0.0504005 -0.752314 0
M  V30 6431 H 612.519 -0.799639 -1.65161 0
M  V30 6432 H 610.901 0.513767 -3.92653 0
M  V30 6433 H 612.075 -2.34496 -3.96671 0
M  V30 6434 H 610.39 -1.98131 -3.66242 0
M  V30 6435 H 612.987 0.235758 -5.3418 0
M  V30 6436 H 613.33 1.25848 -3.96822 0
M  V30 6437 H 613.863 -0.440233 -3.95357 0
M  V30 6438 H 610.602 -2.62427 -6.00677 0
M  V30 6439 H 610.122 -0.913489 -5.92803 0
M  V30 6440 H 611.801 -1.35439 -6.32665 0
M  V30 6441 N 611.933 1.52934 -0.380664 0
M  V30 6442 C 612.896 2.24809 0.446473 0
M  V30 6443 C 613.896 1.26133 0.997347 0
M  V30 6444 O 615.086 1.50297 0.880714 0
M  V30 6445 C 612.218 2.99649 1.62553 0
M  V30 6446 H 613.411 2.99343 -0.182677 0
M  V30 6447 H 610.964 1.55736 -0.132618 0
M  V30 6448 H 611.699 2.29395 2.29235 0
M  V30 6449 H 611.484 3.72066 1.23732 0
M  V30 6450 H 612.974 3.54246 2.21133 0
M  V30 6451 N 613.412 0.11024 1.57214 0
M  V30 6452 C 614.342 -0.840002 2.17867 0
M  V30 6453 C 615.323 -1.28352 1.11624 0
M  V30 6454 O 616.508 -1.3477 1.39824 0
M  V30 6455 C 613.638 -2.09349 2.77111 0
M  V30 6456 C 612.592 -1.78807 3.8886 0
M  V30 6457 C 611.918 -3.11112 4.34872 0
M  V30 6458 C 613.218 -1.0632 5.11364 0
M  V30 6459 H 614.912 -0.334608 2.97524 0
M  V30 6460 H 612.458 -0.159502 1.43114 0
M  V30 6461 H 614.411 -2.76275 3.18198 0
M  V30 6462 H 613.135 -2.62198 1.9473 0
M  V30 6463 H 611.794 -1.14273 3.48335 0
M  V30 6464 H 611.442 -3.61877 3.49362 0
M  V30 6465 H 611.142 -2.91453 5.10224 0
M  V30 6466 H 612.666 -3.79171 4.78604 0
M  V30 6467 H 614.08 -1.63383 5.49526 0
M  V30 6468 H 612.477 -0.967876 5.92243 0
M  V30 6469 H 613.547 -0.0484569 4.84876 0
M  V30 6470 N 614.89 -1.56749 -0.16351 0
M  V30 6471 C 616.118 -1.86577 -0.894233 0
M  V30 6472 C 616.533 -0.696543 -1.75481 0
M  V30 6473 O 615.89 0.334161 -1.79415 0
M  V30 6474 C 615.941 -3.15508 -1.76456 0
M  V30 6475 O 615.662 -4.27926 -0.938685 0
M  V30 6476 C 617.163 -3.58737 -2.60428 0
M  V30 6477 H 614.383 -0.618829 -0.259405 0
M  V30 6478 H 616.927 -2.03863 -0.161259 0
M  V30 6479 H 615.082 -3.00025 -2.45079 0
M  V30 6480 H 615.496 -5.01546 -1.53465 0
M  V30 6481 H 616.97 -4.51832 -3.17099 0
M  V30 6482 H 617.447 -2.83229 -3.35675 0
M  V30 6483 H 618.053 -3.76858 -1.97125 0
M  V30 6484 N 616.368 0.432326 -1.51554 0
M  V30 6485 C 617.278 1.55023 -1.76082 0
M  V30 6486 C 618.294 1.61593 -0.645265 0
M  V30 6487 O 619.47 1.78742 -0.928086 0
M  V30 6488 C 616.535 2.90964 -1.88523 0
M  V30 6489 C 615.596 2.9447 -3.12388 0
M  V30 6490 C 614.829 4.23926 -3.24225 0
M  V30 6491 O 615.052 5.16576 -2.4188 0
M  V30 6492 O 613.986 4.33818 -4.17235 0
M  V30 6493 H 617.812 1.37238 -2.70923 0
M  V30 6494 H 615.397 0.615845 -1.36117 0
M  V30 6495 H 617.279 3.71633 -1.98662 0
M  V30 6496 H 615.954 3.08865 -0.9687 0
M  V30 6497 H 614.861 2.12737 -3.07723 0
M  V30 6498 H 616.194 2.81514 -4.03746 0
M  V30 6499 N 617.846 1.41785 0.688094 0
M  V30 6500 C 619.074 1.44915 1.47673 0
M  V30 6501 C 619.489 0.0565786 1.88715 0
M  V30 6502 O 618.846 -0.92579 1.57275 0
M  V30 6503 C 618.897 2.36452 2.73446 0
M  V30 6504 O 618.618 3.7029 2.34131 0
M  V30 6505 C 620.119 2.48463 3.67125 0
M  V30 6506 H 617.339 0.493324 0.454832 0
M  V30 6507 H 619.883 1.86153 0.846594 0
M  V30 6508 H 618.038 1.98502 3.3268 0
M  V30 6509 H 618.452 4.19183 3.15255 0
M  V30 6510 H 619.926 3.16662 4.52138 0
M  V30 6511 H 620.403 1.51826 4.12123 0
M  V30 6512 H 621.009 2.8708 3.13792 0
M  V30 6513 N 619.324 -0.923095 1.27737 0
M  V30 6514 C 620.572 -1.66797 1.14119 0
M  V30 6515 C 620.893 -1.92479 -0.312541 0
M  V30 6516 O 620.163 -1.53432 -1.218 0
M  V30 6517 H 618.743 -0.618196 0.419336 0
M  V30 6518 H 621.405 -1.10815 1.60331 0
M  V30 6519 H 620.501 -2.63424 1.67374 0
M  V30 6520 N 620.802 -1.09834 -1.13024 0
M  V30 6521 C 622.032 -0.857657 -1.87957 0
M  V30 6522 C 622.44 0.595008 -1.796 0
M  V30 6523 O 621.783 1.42158 -1.16347 0
M  V30 6524 C 621.845 -1.21949 -3.38185 0
M  V30 6525 C 621.509 -2.67791 -3.7032 0
M  V30 6526 C 622.506 -3.66036 -3.69207 0
M  V30 6527 C 620.191 -3.04019 -3.99847 0
M  V30 6528 C 622.185 -4.98533 -3.9717 0
M  V30 6529 C 619.872 -4.36706 -4.27471 0
M  V30 6530 C 620.87 -5.33772 -4.26118 0
M  V30 6531 O 620.558 -6.64072 -4.53061 0
M  V30 6532 H 620.29 -0.308009 -0.601753 0
M  V30 6533 H 622.844 -1.46496 -1.43973 0
M  V30 6534 H 621.074 -0.555249 -3.82693 0
M  V30 6535 H 622.763 -0.957281 -3.9445 0
M  V30 6536 H 623.529 -3.39392 -3.46465 0
M  V30 6537 H 619.408 -2.29096 -4.00045 0
M  V30 6538 H 622.952 -5.74288 -3.96029 0
M  V30 6539 H 618.849 -4.63091 -4.49685 0
M  V30 6540 H 619.617 -6.69608 -4.7071 0
M  V30 6541 N 622.28 1.30327 -0.886154 0
M  V30 6542 C 623.508 2.00254 -0.520176 0
M  V30 6543 C 623.923 1.66419 0.891637 0
M  V30 6544 O 623.28 0.901951 1.58654 0
M  V30 6545 C 623.331 3.54916 -0.686775 0
M  V30 6546 O 623.052 3.87547 -2.04301 0
M  V30 6547 C 624.553 4.42115 -0.323945 0
M  V30 6548 H 621.773 0.640204 -0.200947 0
M  V30 6549 H 624.317 1.66183 -1.19178 0
M  V30 6550 H 622.472 3.8735 -0.0625273 0
M  V30 6551 H 622.886 4.82247 -2.06249 0
M  V30 6552 H 624.36 5.49808 -0.491407 0
M  V30 6553 H 624.837 4.32953 0.73811 0
M  V30 6554 H 625.443 4.15129 -0.924565 0
M  V30 6555 N 623.758 0.647228 1.43697 0
M  V30 6556 C 624.721 -0.0385101 2.29168 0
M  V30 6557 C 625.721 -0.756487 1.41894 0
M  V30 6558 O 626.911 -0.598641 1.63591 0
M  V30 6559 C 624.043 -1.06524 3.23829 0
M  V30 6560 H 625.236 0.713445 2.9129 0
M  V30 6561 H 622.789 0.408153 1.50877 0
M  V30 6562 H 623.524 -1.84664 2.66589 0
M  V30 6563 H 623.309 -0.554147 3.88164 0
M  V30 6564 H 624.799 -1.54432 3.87996 0
M  V30 6565 N 625.236 -1.5273 0.388769 0
M  V30 6566 C 626.652 -1.59553 0.0387049 0
M  V30 6567 C 626.852 -1.40278 -1.44652 0
M  V30 6568 O 625.908 -1.21951 -2.21098 0
M  V30 6569 C 627.221 -2.9625 0.515409 0
M  V30 6570 C 628.769 -3.09426 0.471621 0
M  V30 6571 C 629.244 -4.48572 0.924505 0
M  V30 6572 N 630.735 -4.54754 0.880496 0
M  V30 6573 C 631.47 -5.60653 1.20234 0
M  V30 6574 N 630.966 -6.74198 1.59463 0
M  V30 6575 N 632.759 -5.50755 1.12363 0
M  V30 6576 H 624.91 -1.63508 1.35569 0
M  V30 6577 H 627.173 -0.768097 0.555636 0
M  V30 6578 H 626.879 -3.15569 1.5527 0
M  V30 6579 H 626.753 -3.77102 -0.085792 0
M  V30 6580 H 629.14 -2.89804 -0.556588 0
M  V30 6581 H 629.221 -2.30528 1.10862 0
M  V30 6582 H 628.865 -4.68936 1.95094 0
M  V30 6583 H 628.795 -5.25935 0.264524 0
M  V30 6584 H 631.286 -3.73237 0.591815 0
M  V30 6585 H 631.599 -7.5097 1.82385 0
M  V30 6586 H 629.944 -6.75531 1.63349 0
M  V30 6587 H 633.135 -4.6093 0.816169 0
M  V30 6588 H 633.308 -6.33184 1.37777 0
M  V30 6589 N 626.714 -0.118576 -1.57153 0
M  V30 6590 C 627.644 0.828436 -2.1831 0
M  V30 6591 C 628.625 1.27758 -1.12303 0
M  V30 6592 O 629.81 1.34026 -1.40537 0
M  V30 6593 C 626.94 2.07876 -2.78217 0
M  V30 6594 C 625.894 1.76742 -3.89803 0
M  V30 6595 C 625.22 3.08801 -4.36516 0
M  V30 6596 C 626.52 1.03606 -5.11921 0
M  V30 6597 H 628.214 0.318824 -2.97698 0
M  V30 6598 H 625.76 0.151911 -1.43196 0
M  V30 6599 H 627.713 2.74584 -3.19659 0
M  V30 6600 H 626.437 2.61161 -1.96118 0
M  V30 6601 H 625.096 1.12424 -3.48936 0
M  V30 6602 H 624.744 3.6002 -3.51276 0
M  V30 6603 H 624.444 2.88743 -5.11763 0
M  V30 6604 H 625.968 3.76627 -4.80608 0
M  V30 6605 H 627.382 1.60467 -5.50385 0
M  V30 6606 H 625.779 0.936454 -5.92748 0
M  V30 6607 H 626.849 0.0227421 -4.84895 0
M  V30 6608 N 628.193 1.56834 0.155195 0
M  V30 6609 C 629.442 1.82088 0.867567 0
M  V30 6610 C 629.755 0.69849 1.82703 0
M  V30 6611 O 630.961 0.836407 2.58295 0
M  V30 6612 C 629.417 3.22707 1.59336 0
M  V30 6613 C 629.025 4.42859 0.676719 0
M  V30 6614 C 630.769 3.57242 2.293 0
M  V30 6615 C 628.676 5.74501 1.40367 0
M  V30 6616 H 627.606 0.679057 0.327715 0
M  V30 6617 H 630.257 1.83105 0.120351 0
M  V30 6618 H 628.639 3.16054 2.38591 0
M  V30 6619 H 629.813 4.60731 -0.0800196 0
M  V30 6620 H 628.128 4.16311 0.0859129 0
M  V30 6621 H 630.725 4.52847 2.84312 0
M  V30 6622 H 631.068 2.82901 3.05406 0
M  V30 6623 H 631.601 3.6552 1.56972 0
M  V30 6624 H 628.34 6.51915 0.684623 0
M  V30 6625 H 627.86 5.60579 2.13332 0
M  V30 6626 H 629.539 6.17016 1.94681 0
M  V30 6627 N 629.671 -0.424282 1.51781 0
M  V30 6628 C 630.634 -1.49848 1.73431 0
M  V30 6629 C 631.634 -1.49016 0.604225 0
M  V30 6630 O 632.824 -1.50808 0.871935 0
M  V30 6631 C 629.956 -2.89332 1.80277 0
M  V30 6632 H 631.149 -1.3195 2.69312 0
M  V30 6633 H 628.702 -0.653809 1.41968 0
M  V30 6634 H 629.437 -3.12618 0.862568 0
M  V30 6635 H 629.222 -2.9134 2.62419 0
M  V30 6636 H 630.712 -3.67233 1.98821 0
M  V30 6637 N 631.149 -1.42148 -0.680565 0
M  V30 6638 C 632.096 -1.45175 -1.79424 0
M  V30 6639 C 633.066 -0.304352 -1.63288 0
M  V30 6640 O 634.251 -0.507591 -1.83924 0
M  V30 6641 C 631.391 -1.35429 -3.17416 0
M  V30 6642 C 630.504 -2.60158 -3.4488 0
M  V30 6643 C 629.639 -2.42596 -4.72568 0
M  V30 6644 C 628.678 -3.62727 -4.93047 0
M  V30 6645 N 627.815 -3.44143 -6.11973 0
M  V30 6646 H 632.655 -2.40349 -1.76172 0
M  V30 6647 H 630.192 -1.19334 -0.860107 0
M  V30 6648 H 632.15 -1.27777 -3.97151 0
M  V30 6649 H 630.78 -0.438536 -3.19807 0
M  V30 6650 H 629.832 -2.78199 -2.5944 0
M  V30 6651 H 631.144 -3.49473 -3.55908 0
M  V30 6652 H 630.298 -2.32497 -5.60384 0
M  V30 6653 H 629.037 -1.50761 -4.63813 0
M  V30 6654 H 628.042 -3.73264 -4.03676 0
M  V30 6655 H 629.267 -4.55534 -5.03652 0
M  V30 6656 H 627.213 -2.5502 -6.04401 0
M  V30 6657 H 627.13 -4.27041 -6.23836 0
M  V30 6658 H 628.398 -3.37845 -7.02482 0
M  V30 6659 N 632.627 0.916307 -1.28225 0
M  V30 6660 C 633.857 1.69654 -1.17902 0
M  V30 6661 C 634.265 1.87331 0.265268 0
M  V30 6662 O 633.608 1.39828 1.19137 0
M  V30 6663 C 633.67 3.11024 -1.80289 0
M  V30 6664 C 633.334 3.16643 -3.29525 0
M  V30 6665 C 634.331 2.98032 -4.25997 0
M  V30 6666 C 632.016 3.39238 -3.70436 0
M  V30 6667 C 634.01 3.01924 -5.61356 0
M  V30 6668 C 631.697 3.42762 -5.05922 0
M  V30 6669 C 632.695 3.24125 -6.01192 0
M  V30 6670 O 632.383 3.27406 -7.34208 0
M  V30 6671 H 632.115 0.537197 -0.41036 0
M  V30 6672 H 634.669 1.15547 -1.69817 0
M  V30 6673 H 632.899 3.66662 -1.22865 0
M  V30 6674 H 634.588 3.71063 -1.6452 0
M  V30 6675 H 635.354 2.80405 -3.95725 0
M  V30 6676 H 631.233 3.52791 -2.96749 0
M  V30 6677 H 634.777 2.87295 -6.35694 0
M  V30 6678 H 630.674 3.59916 -5.35846 0
M  V30 6679 H 631.442 3.43784 -7.42802 0
M  V30 6680 N 634.105 1.10431 1.1244 0
M  V30 6681 C 635.052 0.753103 2.18167 0
M  V30 6682 C 636.022 -0.270549 1.63882 0
M  V30 6683 O 637.207 -0.149837 1.90211 0
M  V30 6684 C 634.347 0.191046 3.44571 0
M  V30 6685 C 633.46 1.26999 4.12911 0
M  V30 6686 C 632.595 0.669586 5.26963 0
M  V30 6687 C 631.634 1.72912 5.87169 0
M  V30 6688 N 630.771 1.14898 6.92635 0
M  V30 6689 H 635.611 1.65892 2.47556 0
M  V30 6690 H 633.148 0.828631 1.21541 0
M  V30 6691 H 635.106 -0.152712 4.1692 0
M  V30 6692 H 633.736 -0.677997 3.15599 0
M  V30 6693 H 632.788 1.73087 3.3874 0
M  V30 6694 H 634.1 2.07204 4.53727 0
M  V30 6695 H 633.254 0.275274 6.06075 0
M  V30 6696 H 631.993 -0.163895 4.87425 0
M  V30 6697 H 630.998 2.13286 5.06744 0
M  V30 6698 H 632.223 2.56544 6.28778 0
M  V30 6699 H 630.169 0.336956 6.55134 0
M  V30 6700 H 630.086 1.88786 7.32049 0
M  V30 6701 H 631.354 0.78121 7.75576 0
M  V30 6702 N 635.583 -1.29855 0.893053 0
M  V30 6703 C 636.994 -1.77946 0.564998 0
M  V30 6704 C 637.345 -1.73339 -0.919134 0
M  V30 6705 O 636.47 -1.3152 -1.71847 0
M  V30 6706 C 637.065 -3.23118 1.01883 0
M  V30 6707 C 635.624 -3.69013 0.742051 0
M  V30 6708 C 634.771 -2.50121 1.19727 0
M  V30 6709 H 637.722 -1.16611 1.07646 0
M  V30 6710 H 637.743 -3.78875 0.351249 0
M  V30 6711 H 637.255 -3.26439 2.09903 0
M  V30 6712 H 635.356 -3.71173 -0.325816 0
M  V30 6713 H 635.469 -4.60117 1.33527 0
M  V30 6714 H 633.833 -2.47128 0.616418 0
M  V30 6715 H 634.616 -2.56174 2.28538 0
M  V30 6716 N 637.061 -0.65484 -1.43351 0
M  V30 6717 C 638.286 -0.175046 -2.0666 0
M  V30 6718 C 638.711 1.15104 -1.4877 0
M  V30 6719 O 638.069 1.71144 -0.598279 0
M  V30 6720 C 638.117 -0.0991544 -3.60464 0
M  V30 6721 O 637.221 0.938169 -4.01587 0
M  V30 6722 H 636.562 -0.0956148 -0.65708 0
M  V30 6723 H 639.092 -0.898222 -1.83829 0
M  V30 6724 H 639.102 0.083632 -4.07914 0
M  V30 6725 H 637.777 -1.06719 -4.01975 0
M  V30 6726 H 636.354 0.72804 -3.65724 0
M  V30 6727 N 638.539 1.52521 -0.396863 0
M  V30 6728 C 639.779 2.03583 0.182578 0
M  V30 6729 C 640.143 1.2766 1.43412 0
M  V30 6730 O 641.344 1.68884 2.09121 0
M  V30 6731 C 639.615 3.54724 0.436519 0
M  V30 6732 S 641.174 4.27598 0.985163 0
M  V30 6733 H 637.992 0.709186 0.0507529 0
M  V30 6734 H 640.594 1.87693 -0.546955 0
M  V30 6735 H 639.298 4.07567 -0.481343 0
M  V30 6736 H 638.829 3.74834 1.19427 0
M  V30 6737 H 640.844 4.41393 2.26686 0
M  V30 6738 N 640.017 0.126909 1.57088 0
M  V30 6739 C 641.245 -0.53667 1.99819 0
M  V30 6740 C 641.66 -1.5972 1.00673 0
M  V30 6741 O 641.017 -1.825 0.000747365 0
M  V30 6742 C 641.068 -1.15563 3.42531 0
M  V30 6743 O 640.789 -0.137483 4.37884 0
M  V30 6744 C 642.29 -1.90176 4.00435 0
M  V30 6745 H 639.51 -0.141443 0.655923 0
M  V30 6746 H 642.054 0.215578 2.03361 0
M  V30 6747 H 640.209 -1.85861 3.39904 0
M  V30 6748 H 640.623 -0.588229 5.21191 0
M  V30 6749 H 642.097 -2.28801 5.02349 0
M  V30 6750 H 642.574 -2.78002 3.40017 0
M  V30 6751 H 643.18 -1.24623 4.06632 0
M  V30 6752 N 641.495 -1.56914 -0.146875 0
M  V30 6753 C 642.744 -1.82546 -0.857898 0
M  V30 6754 C 643.057 -0.708169 -1.8233 0
M  V30 6755 O 644.263 -0.850093 -2.57848 0
M  V30 6756 C 642.719 -3.23548 -1.57623 0
M  V30 6757 C 642.327 -4.43212 -0.653224 0
M  V30 6758 C 644.071 -3.58453 -2.27402 0
M  V30 6759 C 641.978 -5.75237 -1.37318 0
M  V30 6760 H 640.908 -0.680786 -0.32411 0
M  V30 6761 H 643.559 -1.83166 -0.110639 0
M  V30 6762 H 641.941 -3.17315 -2.36912 0
M  V30 6763 H 643.115 -4.60682 0.104452 0
M  V30 6764 H 641.43 -4.16351 -0.0638336 0
M  V30 6765 H 644.027 -4.54349 -2.81907 0
M  V30 6766 H 644.37 -2.84516 -3.03901 0
M  V30 6767 H 644.903 -3.66347 -1.55032 0
M  V30 6768 H 641.642 -6.52269 -0.650041 0
M  V30 6769 H 641.162 -5.61703 -2.10357 0
M  V30 6770 H 642.841 -6.18039 -1.91406 0
M  V30 6771 N 642.974 0.416227 -1.52004 0
M  V30 6772 C 643.904 1.51365 -1.77795 0
M  V30 6773 C 644.885 1.58059 -0.628601 0
M  V30 6774 O 646.07 1.73447 -0.873478 0
M  V30 6775 C 643.2 2.89256 -1.92219 0
M  V30 6776 C 642.154 2.97415 -3.0778 0
M  V30 6777 C 641.48 4.37492 -3.07417 0
M  V30 6778 C 642.78 2.69551 -4.47369 0
M  V30 6779 H 644.474 1.30033 -2.69688 0
M  V30 6780 H 642.02 0.624112 -1.29772 0
M  V30 6781 H 643.973 3.66008 -2.08845 0
M  V30 6782 H 642.697 3.11866 -0.969917 0
M  V30 6783 H 641.356 2.23107 -2.90893 0
M  V30 6784 H 641.004 4.571 -2.09925 0
M  V30 6785 H 640.704 4.43877 -3.85029 0
M  V30 6786 H 642.228 5.16188 -3.26162 0
M  V30 6787 H 643.642 3.36028 -4.64497 0
M  V30 6788 H 642.039 2.87321 -5.26846 0
M  V30 6789 H 643.109 1.65029 -4.55953 0
M  V30 6790 N 644.452 1.42507 0.673017 0
M  V30 6791 C 645.415 1.4582 1.76831 0
M  V30 6792 C 646.415 0.345542 1.57043 0
M  V30 6793 O 647.605 0.606447 1.63303 0
M  V30 6794 C 644.737 1.29158 3.15485 0
M  V30 6795 H 645.93 2.43345 1.7528 0
M  V30 6796 H 643.483 1.28981 0.882817 0
M  V30 6797 H 644.218 0.325626 3.22661 0
M  V30 6798 H 644.003 2.09797 3.31252 0
M  V30 6799 H 645.493 1.34363 3.95394 0
M  V30 6800 N 645.93 -0.909495 1.28709 0
M  V30 6801 C 646.86 -2.0291 1.15542 0
M  V30 6802 C 647.841 -1.7002 0.0521017 0
M  V30 6803 O 649.026 -1.92835 0.229849 0
M  V30 6804 C 646.156 -3.37458 0.820935 0
M  V30 6805 C 645.11 -3.84524 1.87949 0
M  V30 6806 C 644.436 -5.16086 1.39854 0
M  V30 6807 C 645.736 -4.05918 3.28676 0
M  V30 6808 H 647.43 -2.14183 2.09203 0
M  V30 6809 H 644.976 -1.02913 1.00722 0
M  V30 6810 H 646.929 -4.1528 0.715571 0
M  V30 6811 H 645.653 -3.26249 -0.151374 0
M  V30 6812 H 644.312 -3.08911 1.97408 0
M  V30 6813 H 643.96 -5.01284 0.41518 0
M  V30 6814 H 643.66 -5.48547 2.1064 0
M  V30 6815 H 645.184 -5.96459 1.30649 0
M  V30 6816 H 646.598 -4.74252 3.22115 0
M  V30 6817 H 644.995 -4.49717 3.97334 0
M  V30 6818 H 646.065 -3.10583 3.72379 0
M  V30 6819 N 647.408 -1.11026 -1.11852 0
M  V30 6820 C 648.633 -0.879064 -1.87849 0
M  V30 6821 C 649.058 0.565406 -1.79401 0
M  V30 6822 O 648.416 1.39886 -1.15333 0
M  V30 6823 C 648.464 -1.33985 -3.34784 0
M  V30 6824 O 647.568 -0.508803 -4.09249 0
M  V30 6825 H 646.909 -0.316992 -0.583448 0
M  V30 6826 H 649.439 -1.47863 -1.41413 0
M  V30 6827 H 649.449 -1.33248 -3.85628 0
M  V30 6828 H 648.124 -2.39172 -3.40249 0
M  V30 6829 H 646.701 -0.581913 -3.68332 0
M  V30 6830 N 648.886 1.2938 -0.899927 0
M  V30 6831 C 649.849 2.25983 -0.382677 0
M  V30 6832 C 650.849 1.53366 0.483259 0
M  V30 6833 O 652.039 1.71798 0.28828 0
M  V30 6834 C 649.171 3.37878 0.452915 0
M  V30 6835 H 650.364 2.73252 -1.23586 0
M  V30 6836 H 647.917 1.40825 -0.678088 0
M  V30 6837 H 648.652 2.95949 1.32608 0
M  V30 6838 H 648.437 3.91742 -0.167562 0
M  V30 6839 H 649.927 4.09746 0.806107 0
M  V30 6840 N 650.364 0.662433 1.43002 0
M  V30 6841 C 651.589 0.186003 2.06564 0
M  V30 6842 C 652.014 -1.14314 1.49379 0
M  V30 6843 O 651.372 -1.70824 0.607346 0
M  V30 6844 C 651.42 0.118269 3.60406 0
M  V30 6845 O 650.524 -0.916859 4.02079 0
M  V30 6846 H 649.865 0.0990981 0.656563 0
M  V30 6847 H 652.395 0.907958 1.8335 0
M  V30 6848 H 652.405 -0.0619981 4.07953 0
M  V30 6849 H 651.08 1.08849 4.01403 0
M  V30 6850 H 649.657 -0.708635 3.66105 0
M  V30 6851 N 651.842 -1.52309 0.404946 0
M  V30 6852 C 653.119 -1.94237 -0.230544 0
M  V30 6853 C 653.499 -1.34154 -1.6299 0
M  V30 6854 O 652.847 -0.515713 -2.22604 0
M  V30 6855 C 653.057 -3.48166 -0.241106 0
M  V30 6856 C 654.405 -4.22074 -0.462488 0
M  V30 6857 O 655.429 -3.54754 -0.320644 0
M  V30 6858 O 654.288 -5.41443 -0.741708 0
M  V30 6859 H 651.382 -0.813766 -0.147358 0
M  V30 6860 H 653.928 -1.6333 0.460587 0
M  V30 6861 H 652.7 -3.84269 0.738467 0
M  V30 6862 H 652.323 -3.85422 -0.97651 0
M  V30 6863 N 653.32 -0.135238 -1.57019 0
M  V30 6864 C 654.545 0.529343 -2.00531 0
M  V30 6865 C 654.97 1.58391 -1.01459 0
M  V30 6866 O 654.328 1.81296 0.0113986 0
M  V30 6867 C 654.376 1.11748 -3.42848 0
M  V30 6868 O 653.48 2.23267 -3.46736 0
M  V30 6869 H 652.821 0.130669 -0.651016 0
M  V30 6870 H 655.351 -0.228503 -2.0332 0
M  V30 6871 H 655.361 1.44905 -3.81401 0
M  V30 6872 H 654.036 0.345147 -4.14465 0
M  V30 6873 H 652.613 1.91428 -3.20015 0
M  V30 6874 N 654.798 1.5699 0.138552 0
M  V30 6875 C 656.026 1.87976 0.864437 0
M  V30 6876 C 656.441 0.724372 1.74351 0
M  V30 6877 O 655.798 -0.305575 1.79924 0
M  V30 6878 C 655.849 3.18276 1.71414 0
M  V30 6879 O 655.57 4.29365 0.870487 0
M  V30 6880 C 657.071 3.62834 2.54688 0
M  V30 6881 H 654.291 0.622878 0.249528 0
M  V30 6882 H 656.835 2.04094 0.128805 0
M  V30 6883 H 654.99 3.03886 2.40274 0
M  V30 6884 H 655.404 5.03924 1.45466 0
M  V30 6885 H 656.878 4.5682 3.0987 0
M  V30 6886 H 657.355 2.88533 3.31127 0
M  V30 6887 H 657.961 3.79946 1.91105 0
M  V30 6888 N 656.276 -0.40816 1.52223 0
M  V30 6889 C 657.522 -1.15673 1.66576 0
M  V30 6890 C 657.855 -1.90141 0.394996 0
M  V30 6891 O 657.13 -1.84798 -0.606613 0
M  V30 6892 C 657.413 -2.15042 2.88841 0
M  V30 6893 C 657.266 -1.44465 4.25969 0
M  V30 6894 C 658.585 -3.15699 3.0663 0
M  V30 6895 H 655.704 -0.41916 0.606196 0
M  V30 6896 H 658.346 -0.442348 1.84779 0
M  V30 6897 H 656.496 -2.75964 2.73452 0
M  V30 6898 H 658.168 -0.866544 4.53088 0
M  V30 6899 H 656.411 -0.746612 4.27327 0
M  V30 6900 H 657.082 -2.16976 5.07568 0
M  V30 6901 H 659.558 -2.64854 3.20923 0
M  V30 6902 H 658.434 -3.82491 3.9369 0
M  V30 6903 H 658.695 -3.83481 2.19987 0
M  V30 6904 N 657.755 -1.42862 -0.66545 0
M  V30 6905 C 658.702 -1.4707 -1.77874 0
M  V30 6906 C 659.672 -0.321654 -1.62956 0
M  V30 6907 O 660.857 -0.52707 -1.83376 0
M  V30 6908 C 657.997 -1.38788 -3.15962 0
M  V30 6909 C 657.11 -2.63801 -3.42101 0
M  V30 6910 C 656.245 -2.47594 -4.69969 0
M  V30 6911 C 655.284 -3.67936 -4.89172 0
M  V30 6912 N 654.421 -3.50614 -6.08288 0
M  V30 6913 H 659.261 -2.42204 -1.73613 0
M  V30 6914 H 656.798 -1.20239 -0.847401 0
M  V30 6915 H 658.756 -1.31982 -3.95773 0
M  V30 6916 H 657.386 -0.472431 -3.19324 0
M  V30 6917 H 656.438 -2.80935 -2.56475 0
M  V30 6918 H 657.75 -3.53228 -3.52181 0
M  V30 6919 H 656.904 -2.38427 -5.57886 0
M  V30 6920 H 655.643 -1.55672 -4.62188 0
M  V30 6921 H 654.648 -3.77525 -3.99694 0
M  V30 6922 H 655.873 -4.60851 -4.98792 0
M  V30 6923 H 653.819 -2.61417 -6.01662 0
M  V30 6924 H 653.736 -4.33634 -6.19272 0
M  V30 6925 H 655.004 -3.45276 -6.98859 0
M  V30 6926 N 659.233 0.902656 -1.29189 0
M  V30 6927 C 660.473 1.6672 -1.18254 0
M  V30 6928 C 660.837 1.90199 0.262336 0
M  V30 6929 O 662.038 2.6421 0.494612 0
M  V30 6930 C 660.309 2.98178 -1.9704 0
M  V30 6931 S 661.868 3.89226 -2.02605 0
M  V30 6932 H 658.686 0.572432 -0.421714 0
M  V30 6933 H 661.288 1.07279 -1.63436 0
M  V30 6934 H 659.992 2.788 -3.01163 0
M  V30 6935 H 659.523 3.62661 -1.5245 0
M  V30 6936 H 661.538 4.82913 -1.14059 0
M  V30 6937 N 660.711 1.11618 1.11262 0
M  V30 6938 C 661.641 0.79846 2.19424 0
M  V30 6939 C 662.622 -0.234003 1.68483 0
M  V30 6940 O 663.807 -0.0970704 1.93957 0
M  V30 6941 C 660.937 0.242892 3.4645 0
M  V30 6942 C 659.891 1.20744 4.10615 0
M  V30 6943 C 659.217 0.512494 5.32238 0
M  V30 6944 C 660.517 2.55884 4.55325 0
M  V30 6945 H 662.211 1.70286 2.46258 0
M  V30 6946 H 659.757 0.820195 1.18359 0
M  V30 6947 H 661.71 0.00840447 4.21399 0
M  V30 6948 H 660.434 -0.696811 3.1908 0
M  V30 6949 H 659.093 1.42759 3.37662 0
M  V30 6950 H 658.741 -0.432075 5.01141 0
M  V30 6951 H 658.441 1.15583 5.7612 0
M  V30 6952 H 659.965 0.286842 6.09926 0
M  V30 6953 H 661.379 2.37946 5.21588 0
M  V30 6954 H 659.776 3.16216 5.10027 0
M  V30 6955 H 660.846 3.14968 3.68678 0
M  V30 6956 N 662.189 -1.289 0.906776 0
M  V30 6957 C 663.137 -2.29477 0.379873 0
M  V30 6958 C 664.131 -1.61068 -0.524747 0
M  V30 6959 O 665.337 -1.75344 -0.406765 0
M  V30 6960 H 661.712 -0.744742 0.10423 0
M  V30 6961 H 663.683 -2.71353 1.24137 0
M  V30 6962 C 662.432 -3.45713 -0.371154 0
M  V30 6963 H 661.755 -3.98551 0.315716 0
M  V30 6964 H 663.195 -4.18105 -0.704581 0
M  V30 6965 C 661.654 -2.9774 -1.57646 0
M  V30 6966 O 662.184 -2.99618 -2.67567 0
M  V30 6967 N 660.39 -2.53485 -1.42105 0
M  V30 6968 H 659.937 -2.52156 -0.526783 0
M  V30 6969 H 659.895 -2.21747 -2.22881 0
M  V30 6970 N 663.667 -0.670007 -1.42649 0
M  V30 6971 C 664.913 -0.190568 -2.01903 0
M  V30 6972 C 665.246 1.19817 -1.52832 0
M  V30 6973 O 664.521 1.80342 -0.728485 0
M  V30 6974 C 664.804 -0.21991 -3.59428 0
M  V30 6975 C 664.657 -1.64376 -4.18689 0
M  V30 6976 C 665.976 0.434519 -4.3795 0
M  V30 6977 H 663.095 -0.0707219 -0.733599 0
M  V30 6978 H 665.737 -0.853883 -1.69732 0
M  V30 6979 H 663.887 0.344894 -3.86966 0
M  V30 6980 H 665.559 -2.26044 -4.02122 0
M  V30 6981 H 663.802 -2.18591 -3.747 0
M  V30 6982 H 664.473 -1.61601 -5.27815 0
M  V30 6983 H 666.949 -0.0462156 -4.16074 0
M  V30 6984 H 665.825 0.38333 -5.4756 0
M  V30 6985 H 666.086 1.51135 -4.15464 0
M  V30 6986 N 665.145 1.52092 -0.413018 0
M  V30 6987 C 666.095 2.23947 0.427993 0
M  V30 6988 C 667.079 1.25229 1.01027 0
M  V30 6989 O 668.271 1.50448 0.932444 0
M  V30 6990 C 665.4 3.0672 1.542 0
M  V30 6991 C 664.486 4.12851 0.970307 0
M  V30 6992 N 664.877 5.05644 0.125611 0
M  V30 6993 C 663.175 4.28404 1.24042 0
M  V30 6994 C 663.876 5.8138 -0.192876 0
M  V30 6995 N 662.852 5.41996 0.417273 0
M  V30 6996 H 666.654 2.93048 -0.223628 0
M  V30 6997 H 664.168 1.60852 -0.223664 0
M  V30 6998 H 666.165 3.56754 2.15714 0
M  V30 6999 H 664.825 2.39159 2.19621 0
M  V30 7000 H 665.836 5.17348 -0.238995 0
M  V30 7001 H 662.513 3.72071 1.89391 0
M  V30 7002 H 663.903 6.66129 -0.878762 0
M  V30 7003 N 666.623 0.143563 1.56945 0
M  V30 7004 C 668.039 -0.212877 1.58174 0
M  V30 7005 C 668.239 -1.64926 1.15766 0
M  V30 7006 O 667.295 -2.37535 0.856361 0
M  V30 7007 C 668.608 0.0427573 3.0067 0
M  V30 7008 C 670.156 -0.0212221 3.12993 0
M  V30 7009 C 670.631 0.207036 4.57532 0
M  V30 7010 N 672.122 0.153845 4.62944 0
M  V30 7011 C 672.857 0.305018 5.72588 0
M  V30 7012 N 672.353 0.513722 6.90893 0
M  V30 7013 N 674.146 0.242862 5.61575 0
M  V30 7014 H 666.297 1.08148 1.82805 0
M  V30 7015 H 668.56 0.427831 0.84597 0
M  V30 7016 H 668.266 1.03672 3.36073 0
M  V30 7017 H 668.14 -0.678195 3.71053 0
M  V30 7018 H 670.527 -1.00574 2.77433 0
M  V30 7019 H 670.608 0.732004 2.45103 0
M  V30 7020 H 670.252 1.18863 4.93795 0
M  V30 7021 H 670.182 -0.566473 5.23544 0
M  V30 7022 H 672.673 -0.00294866 3.779 0
M  V30 7023 H 672.986 0.619273 7.70315 0
M  V30 7024 H 671.331 0.550001 6.9282 0
M  V30 7025 H 674.522 0.0806015 4.68031 0
M  V30 7026 H 674.695 0.364112 6.46976 0
M  V30 7027 N 668.101 -1.57061 -0.130224 0
M  V30 7028 C 669.349 -1.83893 -0.838313 0
M  V30 7029 C 669.67 -0.727046 -1.80939 0
M  V30 7030 O 668.94 0.249927 -1.94299 0
M  V30 7031 H 667.52 -0.67846 -0.312573 0
M  V30 7032 H 670.182 -1.94529 -0.120224 0
M  V30 7033 H 669.278 -2.79419 -1.39038 0
M  V30 7034 N 669.579 0.400081 -1.52437 0
M  V30 7035 C 670.825 1.14788 -1.67187 0
M  V30 7036 C 671.158 1.89928 -0.405074 0
M  V30 7037 O 670.433 1.85118 0.596804 0
M  V30 7038 C 670.716 2.13507 -2.89977 0
M  V30 7039 C 670.569 1.42204 -4.2673 0
M  V30 7040 C 671.888 3.14069 -3.083 0
M  V30 7041 H 669.007 0.415939 -0.608411 0
M  V30 7042 H 671.649 0.432542 -1.85011 0
M  V30 7043 H 669.799 2.7451 -2.74912 0
M  V30 7044 H 671.471 0.842503 -4.53541 0
M  V30 7045 H 669.714 0.723939 -4.27717 0
M  V30 7046 H 670.385 2.14281 -5.08712 0
M  V30 7047 H 672.861 2.63148 -3.22323 0
M  V30 7048 H 671.737 3.80398 -3.95713 0
M  V30 7049 H 671.998 3.82309 -2.22018 0
M  V30 7050 N 671.057 1.43213 0.657864 0
M  V30 7051 C 672.285 1.48015 1.44566 0
M  V30 7052 C 672.7 0.0965951 1.88553 0
M  V30 7053 O 672.057 -0.892221 1.59203 0
M  V30 7054 C 672.108 2.42199 2.68369 0
M  V30 7055 O 671.829 3.75173 2.26223 0
M  V30 7056 C 673.33 2.56195 3.61772 0
M  V30 7057 H 670.55 0.502861 0.444266 0
M  V30 7058 H 673.094 1.87907 0.806917 0
M  V30 7059 H 671.249 2.05514 3.28394 0
M  V30 7060 H 671.663 4.25776 3.06293 0
M  V30 7061 H 673.137 3.26182 4.4532 0
M  V30 7062 H 673.614 1.60534 4.0881 0
M  V30 7063 H 674.22 2.93671 3.07632 0
M  V30 7064 N 672.536 -0.895792 1.29666 0
M  V30 7065 C 673.776 -1.6609 1.19136 0
M  V30 7066 C 674.14 -1.90336 -0.252245 0
M  V30 7067 O 675.341 -2.64469 -0.480593 0
M  V30 7068 C 673.612 -2.97129 1.98618 0
M  V30 7069 S 675.171 -3.88146 2.04666 0
M  V30 7070 H 671.989 -0.570188 0.424744 0
M  V30 7071 H 674.591 -1.06411 1.64003 0
M  V30 7072 H 673.295 -2.77199 3.02637 0
M  V30 7073 H 672.826 -3.61847 1.54371 0
M  V30 7074 H 674.841 -4.82301 1.16618 0
M  V30 7075 N 674.014 -1.12206 -1.10668 0
M  V30 7076 C 675.263 -0.870595 -1.81944 0
M  V30 7077 C 675.576 0.605447 -1.85994 0
M  V30 7078 O 676.782 0.973433 -2.53449 0
M  V30 7079 C 675.238 -1.50783 -3.26791 0
M  V30 7080 C 674.846 -3.01849 -3.31046 0
M  V30 7081 C 676.59 -1.33653 -4.02911 0
M  V30 7082 C 674.497 -3.58518 -4.70339 0
M  V30 7083 H 673.427 -0.322043 -0.681765 0
M  V30 7084 H 676.078 -1.34827 -1.24475 0
M  V30 7085 H 674.46 -0.957825 -3.84242 0
M  V30 7086 H 675.634 -3.63321 -2.83433 0
M  V30 7087 H 673.949 -3.18346 -2.68411 0
M  V30 7088 H 676.546 -1.73416 -5.05797 0
M  V30 7089 H 676.889 -0.279949 -4.15358 0
M  V30 7090 H 677.422 -1.85562 -3.51868 0
M  V30 7091 H 674.161 -4.63925 -4.63091 0
M  V30 7092 H 673.681 -3.01819 -5.18329 0
M  V30 7093 H 675.36 -3.57434 -5.39305 0
M  V30 7094 N 675.492 1.28418 -0.913599 0
M  V30 7095 C 676.439 2.27301 -0.400373 0
M  V30 7096 C 677.409 1.57582 0.52509 0
M  V30 7097 O 678.594 1.85482 0.447318 0
M  V30 7098 C 675.734 3.43284 0.35361 0
M  V30 7099 C 674.847 4.27752 -0.604341 0
M  V30 7100 C 673.982 5.30934 0.168075 0
M  V30 7101 C 673.021 6.07065 -0.783499 0
M  V30 7102 N 672.158 7.02086 -0.0446112 0
M  V30 7103 H 676.998 2.70579 -1.24865 0
M  V30 7104 H 674.535 1.33067 -0.627028 0
M  V30 7105 H 676.493 4.09322 0.806945 0
M  V30 7106 H 675.123 3.00997 1.16623 0
M  V30 7107 H 674.175 3.61759 -1.17621 0
M  V30 7108 H 675.487 4.80682 -1.33216 0
M  V30 7109 H 674.641 6.02855 0.681979 0
M  V30 7110 H 673.38 4.78771 0.928947 0
M  V30 7111 H 672.385 5.33995 -1.30878 0
M  V30 7112 H 673.61 6.61317 -1.54392 0
M  V30 7113 H 671.556 6.52273 0.698272 0
M  V30 7114 H 671.473 7.52637 -0.712258 0
M  V30 7115 H 672.741 7.78205 0.449102 0
M  V30 7116 N 676.97 0.677563 1.42291 0
M  V30 7117 C 678.216 0.201272 2.01799 0
M  V30 7118 C 678.549 -1.19004 1.53465 0
M  V30 7119 O 677.824 -1.79953 0.738039 0
M  V30 7120 C 678.107 0.238968 3.59306 0
M  V30 7121 C 677.96 1.66594 4.17812 0
M  V30 7122 C 679.279 -0.411287 4.38174 0
M  V30 7123 H 676.398 0.0746114 0.733214 0
M  V30 7124 H 679.04 0.862872 1.69276 0
M  V30 7125 H 677.19 -0.324368 3.87144 0
M  V30 7126 H 678.862 2.28173 4.00917 0
M  V30 7127 H 677.105 2.20576 3.73536 0
M  V30 7128 H 677.776 1.64398 5.26951 0
M  V30 7129 H 680.252 0.0682804 4.16044 0
M  V30 7130 H 679.128 -0.354286 5.47755 0
M  V30 7131 H 679.389 -1.4893 4.1626 0
M  V30 7132 N 678.448 -1.51871 0.421078 0
M  V30 7133 C 679.696 -2.01539 -0.150492 0
M  V30 7134 C 680.017 -1.30803 -1.44623 0
M  V30 7135 O 679.287 -0.437568 -1.90951 0
M  V30 7136 H 677.867 -0.744698 -0.0586041 0
M  V30 7137 H 680.529 -1.8668 0.560059 0
M  V30 7138 H 679.625 -3.10264 -0.338068 0
M  V30 7139 N 679.926 -0.151884 -1.56866 0
M  V30 7140 C 681.151 0.508044 -2.01081 0
M  V30 7141 C 681.576 1.57306 -1.03134 0
M  V30 7142 O 680.934 1.81298 -0.0078309 0
M  V30 7143 C 680.982 1.08106 -3.44014 0
M  V30 7144 O 680.086 2.19577 -3.49084 0
M  V30 7145 H 679.427 0.123757 -0.652365 0
M  V30 7146 H 681.957 -0.250055 -2.03066 0
M  V30 7147 H 681.967 1.40851 -3.82916 0
M  V30 7148 H 680.642 0.301168 -4.14808 0
M  V30 7149 H 679.219 1.88023 -3.22027 0
M  V30 7150 N 681.404 1.57128 0.121893 0
M  V30 7151 C 682.651 1.847 0.830188 0
M  V30 7152 C 682.979 0.736543 1.80015 0
M  V30 7153 O 682.234 -0.272358 1.93796 0
M  V30 7154 C 682.533 3.1874 1.61677 0
M  V30 7155 C 682.199 4.43901 0.791361 0
M  V30 7156 C 680.861 4.77887 0.563731 0
M  V30 7157 C 683.213 5.20753 0.215823 0
M  V30 7158 C 680.541 5.86168 -0.249737 0
M  V30 7159 C 682.893 6.29891 -0.584821 0
M  V30 7160 C 681.557 6.6241 -0.822794 0
M  V30 7161 H 680.827 0.675866 0.303787 0
M  V30 7162 H 683.474 1.91276 0.0926894 0
M  V30 7163 H 681.779 3.07728 2.42509 0
M  V30 7164 H 683.476 3.37295 2.16872 0
M  V30 7165 H 680.066 4.17272 0.978867 0
M  V30 7166 H 684.25 4.94851 0.378907 0
M  V30 7167 H 679.506 6.0979 -0.44336 0
M  V30 7168 H 683.68 6.88624 -1.03779 0
M  V30 7169 H 681.307 7.46147 -1.45496 0
M  V30 7170 N 682.882 -0.391992 1.52647 0
M  V30 7171 C 683.814 -1.49811 1.73463 0
M  V30 7172 C 684.827 -1.50734 0.615078 0
M  V30 7173 O 686.016 -1.5469 0.890696 0
M  V30 7174 C 683.116 -2.88667 1.77552 0
M  V30 7175 C 682.289 -3.11743 3.06815 0
M  V30 7176 C 681.348 -4.30564 3.02491 0
M  V30 7177 O 680.374 -4.27014 3.76361 0
M  V30 7178 N 681.576 -5.36593 2.21468 0
M  V30 7179 H 684.341 -1.32343 2.68897 0
M  V30 7180 H 681.902 -0.581475 1.51098 0
M  V30 7181 H 683.894 -3.66251 1.7217 0
M  V30 7182 H 682.464 -2.99508 0.895181 0
M  V30 7183 H 681.684 -2.2205 3.25711 0
M  V30 7184 H 682.972 -3.24013 3.92292 0
M  V30 7185 H 682.37 -5.42332 1.60913 0
M  V30 7186 H 680.927 -6.12855 2.21928 0
M  V30 7187 N 684.36 -1.4356 -0.65026 0
M  V30 7188 C 685.608 -1.45046 -1.40734 0
M  V30 7189 C 685.929 -0.0769822 -1.94848 0
M  V30 7190 O 685.199 0.888098 -1.74613 0
M  V30 7191 H 683.779 -0.534034 -0.522318 0
M  V30 7192 H 686.441 -1.79186 -0.766703 0
M  V30 7193 H 685.537 -2.16476 -2.24822 0
M  V30 7194 N 685.838 0.888903 -1.30139 0
M  V30 7195 C 687.066 1.67358 -1.21651 0
M  V30 7196 C 687.481 1.87499 0.221246 0
M  V30 7197 O 686.838 1.41969 1.14677 0
M  V30 7198 C 686.889 3.05213 -1.93719 0
M  V30 7199 O 686.61 2.85984 -3.31881 0
M  V30 7200 C 688.111 3.9964 -1.9184 0
M  V30 7201 H 685.331 0.522365 -0.42116 0
M  V30 7202 H 687.875 1.11086 -1.71698 0
M  V30 7203 H 686.03 3.5823 -1.4748 0
M  V30 7204 H 686.444 3.73411 -3.68327 0
M  V30 7205 H 687.918 4.93749 -2.46811 0
M  V30 7206 H 688.395 4.29955 -0.896409 0
M  V30 7207 H 689.001 3.52558 -2.37872 0
M  V30 7208 N 687.317 1.12792 1.10072 0
M  V30 7209 C 688.594 0.796867 1.78632 0
M  V30 7210 C 688.974 -0.712739 1.98704 0
M  V30 7211 O 688.322 -1.64773 1.5831 0
M  V30 7212 C 688.532 1.57622 3.11378 0
M  V30 7213 C 689.88 1.76463 3.86194 0
M  V30 7214 O 690.904 1.54165 3.2111 0
M  V30 7215 O 689.763 2.13623 5.03018 0
M  V30 7216 H 686.857 0.290248 0.774394 0
M  V30 7217 H 689.403 1.23215 1.16688 0
M  V30 7218 H 688.175 2.60246 2.92212 0
M  V30 7219 H 687.798 1.13543 3.81043 0
M  V30 7220 N 688.795 -1.27931 0.920396 0
M  V30 7221 C 690.044 -1.93975 0.552867 0
M  V30 7222 C 690.357 -1.73193 -0.909035 0
M  V30 7223 O 691.563 -2.33515 -1.38502 0
M  V30 7224 C 690.019 -3.47463 0.937947 0
M  V30 7225 C 689.627 -3.77013 2.42003 0
M  V30 7226 C 691.371 -4.19628 0.64132 0
M  V30 7227 C 689.278 -5.23841 2.74489 0
M  V30 7228 H 688.208 -0.726146 0.203046 0
M  V30 7229 H 690.859 -1.45339 1.12022 0
M  V30 7230 H 689.241 -3.94867 0.299317 0
M  V30 7231 H 690.415 -3.40393 3.10595 0
M  V30 7232 H 688.73 -3.18035 2.6878 0
M  V30 7233 H 691.327 -5.27729 0.860622 0
M  V30 7234 H 691.67 -4.14164 -0.421168 0
M  V30 7235 H 692.203 -3.78022 1.23872 0
M  V30 7236 H 688.942 -5.34388 3.79618 0
M  V30 7237 H 688.462 -5.61634 2.1054 0
M  V30 7238 H 690.141 -5.91647 2.61845 0
M  V30 7239 N 690.273 -0.685099 -1.4193 0
M  V30 7240 C 691.519 -0.211971 -2.01689 0
M  V30 7241 C 691.852 1.18189 -1.54094 0
M  V30 7242 O 691.127 1.79559 -0.747572 0
M  V30 7243 C 691.41 -0.258019 -3.59174 0
M  V30 7244 C 691.263 -1.68807 -4.16922 0
M  V30 7245 C 692.582 0.388044 -4.38386 0
M  V30 7246 H 689.701 -0.0784987 -0.732808 0
M  V30 7247 H 692.343 -0.871837 -1.68816 0
M  V30 7248 H 690.493 0.303832 -3.8731 0
M  V30 7249 H 692.165 -2.30296 -3.99702 0
M  V30 7250 H 690.408 -2.22553 -3.72361 0
M  V30 7251 H 691.079 -1.6719 -5.26072 0
M  V30 7252 H 693.555 -0.0903432 -4.16002 0
M  V30 7253 H 692.431 0.325232 -5.47936 0
M  V30 7254 H 692.692 1.4672 -4.17044 0
M  V30 7255 N 691.751 1.51645 -0.429126 0
M  V30 7256 C 693 2.01203 0.141538 0
M  V30 7257 C 693.313 1.31828 1.44502 0
M  V30 7258 O 694.519 1.7231 2.09813 0
M  V30 7259 C 692.975 3.58624 0.302786 0
M  V30 7260 C 692.583 4.3693 -0.989775 0
M  V30 7261 C 694.327 4.16353 0.827661 0
M  V30 7262 C 692.234 5.86037 -0.794619 0
M  V30 7263 H 691.164 0.751867 0.05667 0
M  V30 7264 H 693.815 1.74822 -0.557633 0
M  V30 7265 H 692.197 3.81417 1.06476 0
M  V30 7266 H 693.371 4.25887 -1.75945 0
M  V30 7267 H 691.686 3.90614 -1.44256 0
M  V30 7268 H 694.283 5.25455 0.990026 0
M  V30 7269 H 694.626 3.74995 1.80787 0
M  V30 7270 H 695.159 3.97606 0.124213 0
M  V30 7271 H 691.898 6.31792 -1.74697 0
M  V30 7272 H 691.418 5.99765 -0.0645968 0
M  V30 7273 H 693.097 6.45471 -0.444591 0
M  V30 7274 N 693.229 0.160201 1.56784 0
M  V30 7275 C 694.645 -0.196089 1.58391 0
M  V30 7276 C 694.845 -1.63689 1.17508 0
M  V30 7277 O 693.901 -2.36613 0.881506 0
M  V30 7278 C 695.214 0.0746449 3.00607 0
M  V30 7279 C 696.762 0.0119762 3.12998 0
M  V30 7280 C 697.237 0.255551 4.57286 0
M  V30 7281 N 698.728 0.202938 4.62755 0
M  V30 7282 C 699.463 0.365731 5.72232 0
M  V30 7283 N 698.959 0.586972 6.90309 0
M  V30 7284 N 700.752 0.302411 5.61286 0
M  V30 7285 H 692.903 1.1008 1.81648 0
M  V30 7286 H 695.166 0.436779 0.841384 0
M  V30 7287 H 694.872 1.07231 3.34954 0
M  V30 7288 H 694.746 -0.638802 3.71751 0
M  V30 7289 H 697.133 -0.976254 2.78484 0
M  V30 7290 H 697.214 0.75796 2.44313 0
M  V30 7291 H 696.858 1.24094 4.92507 0
M  V30 7292 H 696.788 -0.510912 5.24116 0
M  V30 7293 H 699.279 0.0371328 3.77882 0
M  V30 7294 H 699.592 0.700941 7.69615 0
M  V30 7295 H 697.937 0.623453 6.92198 0
M  V30 7296 H 701.128 0.130238 4.67919 0
M  V30 7297 H 701.301 0.432712 6.46554 0
M  V30 7298 N 694.707 -1.5719 -0.113559 0
M  V30 7299 C 695.655 -2.01725 -1.158 0
M  V30 7300 C 696.649 -0.915105 -1.42556 0
M  V30 7301 O 697.855 -1.10031 -1.42454 0
M  V30 7302 H 694.23 -0.64262 -0.390569 0
M  V30 7303 H 696.201 -2.88666 -0.755926 0
M  V30 7304 C 694.95 -2.44203 -2.47507 0
M  V30 7305 H 694.273 -3.28582 -2.27758 0
M  V30 7306 H 695.713 -2.79158 -3.19135 0
M  V30 7307 C 694.172 -1.30785 -3.10478 0
M  V30 7308 O 694.702 -0.626807 -3.9678 0
M  V30 7309 N 692.908 -1.06352 -2.7044 0
M  V30 7310 H 692.455 -1.61913 -2.00355 0
M  V30 7311 H 692.413 -0.306614 -3.12901 0
M  V30 7312 N 696.185 0.383891 -1.52853 0
M  V30 7313 C 697.148 1.45197 -1.77343 0
M  V30 7314 C 698.148 1.47362 -0.643522 0
M  V30 7315 O 699.338 1.48443 -0.911613 0
M  V30 7316 C 696.47 2.8445 -1.87885 0
M  V30 7317 H 697.663 1.24764 -2.72716 0
M  V30 7318 H 695.216 0.615939 -1.43652 0
M  V30 7319 H 695.951 3.10222 -0.94515 0
M  V30 7320 H 695.736 2.8428 -2.70051 0
M  V30 7321 H 697.226 3.61832 -2.08488 0
M  V30 7322 N 697.663 1.43903 0.642637 0
M  V30 7323 C 698.912 1.45362 1.39831 0
M  V30 7324 C 699.225 0.0856289 1.95412 0
M  V30 7325 O 700.431 -0.0222856 2.71491 0
M  V30 7326 C 698.887 2.55857 2.53111 0
M  V30 7327 C 698.495 3.98811 2.04092 0
M  V30 7328 C 700.239 2.66524 3.30402 0
M  V30 7329 C 698.146 5.00751 3.14647 0
M  V30 7330 H 697.076 0.540777 0.52543 0
M  V30 7331 H 699.727 1.69929 0.692559 0
M  V30 7332 H 698.109 2.2451 3.26207 0
M  V30 7333 H 699.283 4.3967 1.37938 0
M  V30 7334 H 697.598 3.92284 1.39651 0
M  V30 7335 H 700.195 3.39858 4.12796 0
M  V30 7336 H 700.538 1.71949 3.79129 0
M  V30 7337 H 701.071 2.97224 2.64392 0
M  V30 7338 H 697.81 5.96914 2.70876 0
M  V30 7339 H 697.33 4.64495 3.79479 0
M  V30 7340 H 699.009 5.23933 3.79609 0
M  V30 7341 N 699.141 -0.881989 1.30609 0
M  V30 7342 C 700.051 -2.02076 1.19174 0
M  V30 7343 C 701.067 -1.73645 0.11102 0
M  V30 7344 O 702.243 -1.98735 0.326528 0
M  V30 7345 C 699.308 -3.3515 0.887438 0
M  V30 7346 C 698.369 -3.76983 2.05383 0
M  V30 7347 C 697.602 -5.03707 1.76395 0
M  V30 7348 O 697.825 -5.66171 0.693302 0
M  V30 7349 O 696.759 -5.42019 2.61723 0
M  V30 7350 H 700.585 -2.14652 2.14845 0
M  V30 7351 H 698.17 -1.00843 1.10232 0
M  V30 7352 H 700.052 -4.14975 0.73306 0
M  V30 7353 H 698.727 -3.23676 -0.0393354 0
M  V30 7354 H 697.634 -2.97849 2.26355 0
M  V30 7355 H 698.967 -3.93066 2.96243 0
M  V30 7356 N 700.619 -1.13374 -1.09472 0
M  V30 7357 C 701.868 -0.889844 -1.8101 0
M  V30 7358 C 702.181 0.585686 -1.86625 0
M  V30 7359 O 703.387 0.946497 -2.54467 0
M  V30 7360 C 701.843 -1.54241 -3.25174 0
M  V30 7361 C 701.451 -3.05343 -3.27826 0
M  V30 7362 C 703.195 -1.37919 -4.0147 0
M  V30 7363 C 701.102 -3.63486 -4.6651 0
M  V30 7364 H 700.032 -0.329256 -0.678311 0
M  V30 7365 H 702.683 -1.36139 -1.23038 0
M  V30 7366 H 701.065 -0.998525 -3.83204 0
M  V30 7367 H 702.239 -3.66307 -2.79563 0
M  V30 7368 H 700.554 -3.21175 -2.65019 0
M  V30 7369 H 703.151 -1.78771 -5.03929 0
M  V30 7370 H 703.494 -0.323987 -4.15037 0
M  V30 7371 H 704.027 -1.89284 -3.49881 0
M  V30 7372 H 700.766 -4.68811 -4.58145 0
M  V30 7373 H 700.286 -3.073 -5.15099 0
M  V30 7374 H 701.965 -3.63134 -5.35484 0
M  V30 7375 N 702.098 1.27442 -0.927168 0
M  V30 7376 C 703.061 2.2512 -0.430525 0
M  V30 7377 C 704.061 1.54357 0.450619 0
M  V30 7378 O 705.251 1.72371 0.251774 0
M  V30 7379 C 702.383 3.38763 0.381144 0
M  V30 7380 H 703.576 2.70569 -1.29354 0
M  V30 7381 H 701.129 1.39355 -0.707806 0
M  V30 7382 H 701.864 2.98695 1.263 0
M  V30 7383 H 701.649 3.91298 -0.250618 0
M  V30 7384 H 703.139 4.11364 0.719012 0
M  V30 7385 N 703.576 0.692616 1.41565 0
M  V30 7386 C 704.523 0.0254264 2.30786 0
M  V30 7387 C 705.493 -0.774347 1.46946 0
M  V30 7388 O 706.678 -0.742981 1.7574 0
M  V30 7389 C 703.818 -0.907123 3.32964 0
M  V30 7390 C 702.931 -0.0992784 4.31886 0
M  V30 7391 C 702.066 -1.0292 5.21134 0
M  V30 7392 C 701.105 -0.214088 6.11725 0
M  V30 7393 N 700.242 -1.09766 6.93467 0
M  V30 7394 H 705.082 0.792036 2.87282 0
M  V30 7395 H 702.619 0.4023 1.41492 0
M  V30 7396 H 704.577 -1.46181 3.90752 0
M  V30 7397 H 703.207 -1.64016 2.78026 0
M  V30 7398 H 702.259 0.572287 3.76071 0
M  V30 7399 H 703.571 0.532782 4.95946 0
M  V30 7400 H 702.725 -1.65321 5.83741 0
M  V30 7401 H 701.464 -1.69512 4.57293 0
M  V30 7402 H 700.469 0.42302 5.4817 0
M  V30 7403 H 701.694 0.447995 6.77621 0
M  V30 7404 H 699.64 -1.74965 6.32237 0
M  V30 7405 H 699.557 -0.521099 7.54202 0
M  V30 7406 H 700.825 -1.70858 7.60544 0
M  V30 7407 N 705.054 -1.51416 0.437162 0
M  V30 7408 C 705.986 -2.255 -0.410171 0
M  V30 7409 C 706.999 -1.29511 -0.986444 0
M  V30 7410 O 708.188 -1.55266 -0.880614 0
M  V30 7411 C 705.288 -2.99511 -1.58575 0
M  V30 7412 C 704.461 -4.22595 -1.12839 0
M  V30 7413 C 703.52 -4.79187 -2.17407 0
M  V30 7414 O 702.546 -5.4103 -1.76849 0
M  V30 7415 N 703.748 -4.63204 -3.49889 0
M  V30 7416 H 706.513 -2.98856 0.224783 0
M  V30 7417 H 704.074 -1.59699 0.266041 0
M  V30 7418 H 706.066 -3.34258 -2.28152 0
M  V30 7419 H 704.636 -2.29167 -2.12606 0
M  V30 7420 H 703.856 -3.93344 -0.259695 0
M  V30 7421 H 705.144 -5.02468 -0.800196 0
M  V30 7422 H 704.542 -4.13945 -3.85573 0
M  V30 7423 H 703.099 -5.02313 -4.15361 0
M  V30 7424 N 706.532 -0.168513 -1.56696 0
M  V30 7425 C 707.948 0.187686 -1.58493 0
M  V30 7426 C 708.148 1.63063 -1.18375 0
M  V30 7427 O 707.204 2.36142 -0.894042 0
M  V30 7428 C 708.517 -0.0905858 -3.00564 0
M  V30 7429 C 710.065 -0.028575 -3.12987 0
M  V30 7430 C 710.54 -0.279799 -4.57145 0
M  V30 7431 N 712.031 -0.227476 -4.62641 0
M  V30 7432 C 712.766 -0.396073 -5.7203 0
M  V30 7433 N 712.262 -0.623572 -6.89988 0
M  V30 7434 N 714.055 -0.332173 -5.61118 0
M  V30 7435 H 706.206 -1.11042 -1.81062 0
M  V30 7436 H 708.469 -0.441235 -0.839056 0
M  V30 7437 H 708.175 -1.09006 -3.34381 0
M  V30 7438 H 708.049 0.619078 -3.72085 0
M  V30 7439 H 710.436 0.961471 -2.78998 0
M  V30 7440 H 710.517 -0.770905 -2.43907 0
M  V30 7441 H 710.161 -1.26704 -4.91842 0
M  V30 7442 H 710.091 0.48311 -5.24379 0
M  V30 7443 H 712.582 -0.0571723 -3.77857 0
M  V30 7444 H 712.895 -0.741745 -7.69232 0
M  V30 7445 H 711.24 -0.660153 -6.91858 0
M  V30 7446 H 714.431 -0.155051 -4.67843 0
M  V30 7447 H 714.604 -0.466994 -6.46315 0
M  V30 7448 N 708.01 1.57248 0.105221 0
M  V30 7449 C 708.958 2.02337 1.14728 0
M  V30 7450 C 709.952 0.922652 1.42069 0
M  V30 7451 O 711.158 1.10785 1.41869 0
M  V30 7452 H 707.533 0.644682 0.387155 0
M  V30 7453 H 709.504 2.89063 0.740607 0
M  V30 7454 C 708.253 2.45513 2.46209 0
M  V30 7455 H 707.576 3.29785 2.26013 0
M  V30 7456 H 709.016 2.80846 3.1765 0
M  V30 7457 C 707.475 1.3243 3.09781 0
M  V30 7458 O 708.005 0.647841 3.96442 0
M  V30 7459 N 706.211 1.07785 2.69872 0
M  V30 7460 H 705.758 1.62973 1.99493 0
M  V30 7461 H 705.716 0.323204 3.12734 0
M  V30 7462 N 709.488 -0.375779 1.53054 0
M  V30 7463 C 710.421 -1.48187 1.7354 0
M  V30 7464 C 711.399 -1.5177 0.583495 0
M  V30 7465 O 712.583 -1.69976 0.81488 0
M  V30 7466 C 709.71 -2.86598 1.80497 0
M  V30 7467 C 708.756 -3.00784 3.02376 0
M  V30 7468 S 709.589 -2.70601 4.62099 0
M  V30 7469 C 710.745 -4.11181 4.71891 0
M  V30 7470 H 710.978 -1.30587 2.67085 0
M  V30 7471 H 708.511 -0.569485 1.43514 0
M  V30 7472 H 710.469 -3.66353 1.85192 0
M  V30 7473 H 709.13 -3.01514 0.880217 0
M  V30 7474 H 708.323 -4.02128 3.03824 0
M  V30 7475 H 707.925 -2.28939 2.95742 0
M  V30 7476 H 710.217 -5.0529 4.51319 0
M  V30 7477 H 711.16 -4.14742 5.73929 0
M  V30 7478 H 711.568 -3.97706 4.00612 0
M  V30 7479 N 710.966 -1.44241 -0.634997 0
M  V30 7480 C 711.929 -1.50457 -1.72903 0
M  V30 7481 C 712.929 -0.387058 -1.56072 0
M  V30 7482 O 714.119 -0.649531 -1.61638 0
M  V30 7483 C 711.251 -1.37477 -3.1195 0
M  V30 7484 H 712.444 -2.47907 -1.68767 0
M  V30 7485 H 709.997 -1.31276 -0.84831 0
M  V30 7486 H 710.732 -0.41106 -3.21684 0
M  V30 7487 H 710.517 -2.18506 -3.25573 0
M  V30 7488 H 712.007 -1.44799 -3.91692 0
M  V30 7489 N 712.444 0.87505 -1.31075 0
M  V30 7490 C 713.391 1.98178 -1.18296 0
M  V30 7491 C 714.361 1.65952 -0.0699923 0
M  V30 7492 O 715.546 1.8926 -0.241951 0
M  V30 7493 C 712.686 3.33399 -0.891024 0
M  V30 7494 C 711.799 3.78253 -2.08684 0
M  V30 7495 C 710.934 5.02166 -1.73212 0
M  V30 7496 C 709.973 5.39455 -2.89231 0
M  V30 7497 N 709.11 6.54549 -2.53989 0
M  V30 7498 H 713.95 2.0844 -2.12971 0
M  V30 7499 H 711.487 1.02047 -1.05948 0
M  V30 7500 H 713.445 4.11246 -0.702338 0
M  V30 7501 H 712.075 3.22794 0.0188799 0
M  V30 7502 H 711.127 2.9623 -2.38646 0
M  V30 7503 H 712.439 4.01821 -2.95536 0
M  V30 7504 H 711.593 5.87666 -1.50777 0
M  V30 7505 H 710.332 4.80491 -0.83544 0
M  V30 7506 H 709.337 4.52477 -3.12321 0
M  V30 7507 H 710.562 5.63098 -3.79601 0
M  V30 7508 H 708.508 6.3443 -1.66838 0
M  V30 7509 H 708.425 6.78035 -3.34372 0
M  V30 7510 H 709.693 7.43254 -2.34934 0
M  V30 7511 N 713.922 1.13953 1.08869 0
M  V30 7512 C 715.168 0.906151 1.8143 0
M  V30 7513 C 715.501 -0.566089 1.85766 0
M  V30 7514 O 714.776 -1.41915 1.33006 0
M  V30 7515 C 715.059 1.50183 3.27287 0
M  V30 7516 C 714.912 3.04359 3.31189 0
M  V30 7517 C 716.231 1.17477 4.24131 0
M  V30 7518 H 713.35 0.330624 0.658678 0
M  V30 7519 H 715.992 1.40873 1.27495 0
M  V30 7520 H 714.142 1.07442 3.73348 0
M  V30 7521 H 715.814 3.55896 2.93488 0
M  V30 7522 H 714.057 3.39053 2.70602 0
M  V30 7523 H 714.728 3.41141 4.33966 0
M  V30 7524 H 717.204 1.5442 3.86385 0
M  V30 7525 H 716.08 1.61795 5.24513 0
M  V30 7526 H 716.341 0.0893312 4.4201 0
M  V30 7527 N 715.4 -1.26948 0.933913 0
M  V30 7528 C 716.648 -1.93704 0.576484 0
M  V30 7529 C 716.969 -1.73702 -0.886145 0
M  V30 7530 O 716.239 -1.08838 -1.62884 0
M  V30 7531 H 714.819 -0.716812 0.210214 0
M  V30 7532 H 717.481 -1.54534 1.18766 0
M  V30 7533 H 716.577 -3.01987 0.788055 0
M  V30 7534 N 716.879 -0.700114 -1.41195 0
M  V30 7535 C 718.156 -0.160836 -1.94938 0
M  V30 7536 C 718.536 1.33014 -1.63922 0
M  V30 7537 O 717.884 2.07878 -0.948636 0
M  V30 7538 C 718.094 -0.456991 -3.45995 0
M  V30 7539 C 719.442 -0.387207 -4.22831 0
M  V30 7540 O 720.466 -0.392164 -3.54035 0
M  V30 7541 O 719.325 -0.351267 -5.4537 0
M  V30 7542 H 716.419 -0.0176304 -0.826812 0
M  V30 7543 H 718.965 -0.776586 -1.50888 0
M  V30 7544 H 717.737 -1.48884 -3.61869 0
M  V30 7545 H 717.36 0.189503 -3.97148 0
M  V30 7546 N 718.357 1.51182 -0.445186 0
M  V30 7547 C 719.582 2.07056 0.119445 0
M  V30 7548 C 720.007 1.30966 1.35016 0
M  V30 7549 O 719.365 0.349827 1.77893 0
M  V30 7550 C 719.413 3.58234 0.412428 0
M  V30 7551 O 718.517 3.84249 1.49754 0
M  V30 7552 H 717.858 0.663998 -0.00157797 0
M  V30 7553 H 720.388 1.94699 -0.628779 0
M  V30 7554 H 720.398 4.02617 0.660583 0
M  V30 7555 H 719.073 4.13038 -0.487049 0
M  V30 7556 H 717.65 3.51724 1.23873 0
M  V30 7557 N 719.835 0.176821 1.56605 0
M  V30 7558 C 721.081 -0.467406 1.9734 0
M  V30 7559 C 721.414 -1.62523 1.06301 0
M  V30 7560 O 720.689 -1.94182 0.11125 0
M  V30 7561 C 720.972 -0.945106 3.47476 0
M  V30 7562 C 720.825 0.213273 4.49294 0
M  V30 7563 C 722.144 -1.8169 4.00845 0
M  V30 7564 H 719.263 -0.168426 0.717497 0
M  V30 7565 H 721.905 0.264065 1.88156 0
M  V30 7566 H 720.055 -1.56841 3.55434 0
M  V30 7567 H 721.727 0.850508 4.53392 0
M  V30 7568 H 719.97 0.867918 4.25029 0
M  V30 7569 H 720.641 -0.163187 5.51759 0
M  V30 7570 H 723.117 -1.29139 3.95553 0
M  V30 7571 H 721.993 -2.12015 5.06301 0
M  V30 7572 H 722.254 -2.76463 3.44994 0
M  V30 7573 N 721.313 -1.57302 -0.09688 0
M  V30 7574 C 722.562 -1.85183 -0.799388 0
M  V30 7575 C 722.875 -0.765818 -1.79985 0
M  V30 7576 O 724.081 -0.931696 -2.55013 0
M  V30 7577 C 722.537 -3.28399 -1.47249 0
M  V30 7578 C 722.145 -4.45066 -0.511888 0
M  V30 7579 C 723.889 -3.65506 -2.15883 0
M  V30 7580 C 721.796 -5.79315 -1.18948 0
M  V30 7581 H 720.726 -0.690752 -0.302287 0
M  V30 7582 H 723.377 -1.83425 -0.0523104 0
M  V30 7583 H 721.759 -3.24692 -2.26697 0
M  V30 7584 H 722.933 -4.60116 0.250962 0
M  V30 7585 H 721.248 -4.16343 0.0686576 0
M  V30 7586 H 723.845 -4.63087 -2.67309 0
M  V30 7587 H 724.188 -2.94041 -2.94696 0
M  V30 7588 H 724.721 -3.71094 -1.43298 0
M  V30 7589 H 721.46 -6.54007 -0.442198 0
M  V30 7590 H 720.98 -5.68111 -1.9238 0
M  V30 7591 H 722.659 -6.23816 -1.71646 0
M  V30 7592 N 722.791 0.367657 -1.53252 0
M  V30 7593 C 723.754 1.43308 -1.78873 0
M  V30 7594 C 724.754 1.46671 -0.659115 0
M  V30 7595 O 725.944 1.47468 -0.927306 0
M  V30 7596 C 723.076 2.82442 -1.90892 0
M  V30 7597 H 724.269 1.21864 -2.74024 0
M  V30 7598 H 721.822 0.600668 -1.44297 0
M  V30 7599 H 722.557 3.09202 -0.978 0
M  V30 7600 H 722.342 2.81399 -2.73051 0
M  V30 7601 H 723.832 3.59601 -2.12314 0
M  V30 7602 N 724.269 1.44576 0.627338 0
M  V30 7603 C 725.518 1.46837 1.38281 0
M  V30 7604 C 725.831 0.10635 1.95311 0
M  V30 7605 O 727.037 0.00651084 2.71499 0
M  V30 7606 C 725.493 2.58527 2.50384 0
M  V30 7607 C 725.101 4.00953 1.99851 0
M  V30 7608 C 726.845 2.70013 3.27557 0
M  V30 7609 C 724.752 5.0406 3.09318 0
M  V30 7610 H 723.682 0.546319 0.519664 0
M  V30 7611 H 726.333 1.70654 0.674497 0
M  V30 7612 H 724.715 2.27957 3.23808 0
M  V30 7613 H 725.889 4.41108 1.33267 0
M  V30 7614 H 724.204 3.93743 1.35482 0
M  V30 7615 H 726.801 3.44217 4.09168 0
M  V30 7616 H 727.144 1.75961 3.77284 0
M  V30 7617 H 727.677 3.00011 2.61224 0
M  V30 7618 H 724.416 5.99753 2.6453 0
M  V30 7619 H 723.936 4.68493 3.74532 0
M  V30 7620 H 725.615 5.2793 3.74031 0
M  V30 7621 N 725.747 -0.868086 1.31537 0
M  V30 7622 C 726.697 -1.96321 1.1594 0
M  V30 7623 C 727.681 -1.60748 0.0698962 0
M  V30 7624 O 728.873 -1.74524 0.295011 0
M  V30 7625 C 726.002 -3.32073 0.870789 0
M  V30 7626 C 725.088 -3.73907 2.00136 0
M  V30 7627 N 725.479 -3.87685 3.24859 0
M  V30 7628 C 723.777 -4.03433 1.90152 0
M  V30 7629 C 724.478 -4.23454 3.98825 0
M  V30 7630 N 723.454 -4.34242 3.27009 0
M  V30 7631 H 727.256 -2.05088 2.10514 0
M  V30 7632 H 724.77 -1.059 1.23122 0
M  V30 7633 H 726.767 -4.10279 0.740034 0
M  V30 7634 H 725.427 -3.24631 -0.0667068 0
M  V30 7635 H 726.438 -3.72363 3.59953 0
M  V30 7636 H 723.115 -4.0437 1.03879 0
M  V30 7637 H 724.505 -4.41696 5.06314 0
M  V30 7638 N 727.225 -1.14528 -1.08264 0
M  V30 7639 C 728.473 -0.912599 -1.80322 0
M  V30 7640 C 728.794 0.562256 -1.86718 0
M  V30 7641 O 728.064 1.40869 -1.36135 0
M  V30 7642 H 726.644 -0.334645 -0.667849 0
M  V30 7643 H 729.306 -1.44415 -1.30883 0
M  V30 7644 H 728.402 -1.31384 -2.83098 0
M  V30 7645 N 728.703 1.26451 -0.940633 0
M  V30 7646 C 729.952 1.93071 -0.583656 0
M  V30 7647 C 730.265 1.74618 0.881366 0
M  V30 7648 O 731.471 2.35689 1.34769 0
M  V30 7649 C 729.927 3.45927 -0.993106 0
M  V30 7650 C 729.535 3.73115 -2.4797 0
M  V30 7651 C 731.279 4.18554 -0.707998 0
M  V30 7652 C 729.186 5.19408 -2.82788 0
M  V30 7653 H 728.116 0.722824 -0.214572 0
M  V30 7654 H 730.767 1.43538 -1.1432 0
M  V30 7655 H 729.149 3.94341 -0.362099 0
M  V30 7656 H 730.323 3.35408 -3.15971 0
M  V30 7657 H 728.638 3.13719 -2.73805 0
M  V30 7658 H 731.235 5.26293 -0.94447 0
M  V30 7659 H 731.578 4.14782 0.355225 0
M  V30 7660 H 732.111 3.76003 -1.2987 0
M  V30 7661 H 728.85 5.28281 -3.88071 0
M  V30 7662 H 728.37 5.58214 -2.19449 0
M  V30 7663 H 730.049 5.87407 -2.71224 0
M  V30 7664 N 730.181 0.707592 1.40822 0
M  V30 7665 C 731.128 0.0499029 2.30746 0
M  V30 7666 C 732.098 -0.758718 1.47759 0
M  V30 7667 O 733.283 -0.724299 1.76518 0
M  V30 7668 C 730.423 -0.871756 3.33908 0
M  V30 7669 C 729.536 -0.0534655 4.31967 0
M  V30 7670 C 728.671 -0.973869 5.22197 0
M  V30 7671 C 727.71 -0.149194 6.11918 0
M  V30 7672 N 726.847 -1.02404 6.94592 0
M  V30 7673 H 731.687 0.822461 2.86426 0
M  V30 7674 H 729.224 0.417285 1.41057 0
M  V30 7675 H 731.182 -1.42028 3.9228 0
M  V30 7676 H 729.812 -1.61058 2.7975 0
M  V30 7677 H 728.864 0.612142 3.75442 0
M  V30 7678 H 730.176 0.585354 4.95353 0
M  V30 7679 H 729.33 -1.59121 5.85462 0
M  V30 7680 H 728.069 -1.64652 4.59065 0
M  V30 7681 H 727.074 0.481137 5.47691 0
M  V30 7682 H 728.299 0.519841 6.77107 0
M  V30 7683 H 726.245 -1.6825 6.34057 0
M  V30 7684 H 726.162 -0.441076 7.54712 0
M  V30 7685 H 727.43 -1.62782 7.62314 0
M  V30 7686 N 731.66 -1.50943 0.453197 0
M  V30 7687 C 732.57 -2.31884 -0.355963 0
M  V30 7688 C 733.586 -1.41481 -1.01287 0
M  V30 7689 O 734.762 -1.74546 -1.00477 0
M  V30 7690 C 731.827 -3.15668 -1.43369 0
M  V30 7691 C 730.888 -4.2187 -0.795253 0
M  V30 7692 C 730.121 -5.0165 -1.82162 0
M  V30 7693 O 730.344 -4.82266 -3.04592 0
M  V30 7694 O 729.278 -5.85311 -1.40336 0
M  V30 7695 H 733.104 -3.02162 0.305248 0
M  V30 7696 H 730.689 -1.47839 0.215398 0
M  V30 7697 H 732.571 -3.67709 -2.05836 0
M  V30 7698 H 731.246 -2.48137 -2.07869 0
M  V30 7699 H 730.153 -3.73867 -0.132106 0
M  V30 7700 H 731.486 -4.9182 -0.193484 0
M  V30 7701 N 733.138 -0.185124 -1.56509 0
M  V30 7702 C 734.048 0.751908 -2.22224 0
M  V30 7703 C 735.064 1.24244 -1.21817 0
M  V30 7704 O 736.24 1.29169 -1.54523 0
M  V30 7705 C 733.305 1.95837 -2.86092 0
M  V30 7706 C 732.366 1.51337 -4.01741 0
M  V30 7707 C 731.599 2.66233 -4.62554 0
M  V30 7708 O 731.822 3.8346 -4.22273 0
M  V30 7709 O 730.756 2.39517 -5.52191 0
M  V30 7710 H 734.582 0.222304 -3.02885 0
M  V30 7711 H 732.167 0.0437141 -1.49336 0
M  V30 7712 H 734.049 2.66368 -3.26536 0
M  V30 7713 H 732.724 2.47677 -2.08417 0
M  V30 7714 H 731.631 0.777155 -3.65939 0
M  V30 7715 H 732.964 1.04175 -4.81049 0
M  V30 7716 N 734.616 1.57351 0.0885366 0
M  V30 7717 C 735.862 1.86696 0.791996 0
M  V30 7718 C 736.195 0.775148 1.78059 0
M  V30 7719 O 735.47 -0.216247 1.93294 0
M  V30 7720 C 735.753 3.26684 1.51491 0
M  V30 7721 C 735.606 4.465 0.543858 0
M  V30 7722 C 736.925 3.64664 2.46391 0
M  V30 7723 H 734.044 0.679049 0.286463 0
M  V30 7724 H 736.686 1.89919 0.0554866 0
M  V30 7725 H 734.836 3.24067 2.14273 0
M  V30 7726 H 736.508 4.61235 -0.0774597 0
M  V30 7727 H 734.751 4.33567 -0.142228 0
M  V30 7728 H 735.422 5.41192 1.08696 0
M  V30 7729 H 737.898 3.68267 1.93698 0
M  V30 7730 H 736.774 4.63534 2.93986 0
M  V30 7731 H 737.035 2.93698 3.30445 0
M  V30 7732 N 736.094 -0.359525 1.53444 0
M  V30 7733 C 737.319 -1.12644 1.74144 0
M  V30 7734 C 737.744 -1.82082 0.472007 0
M  V30 7735 O 737.102 -1.71962 -0.57436 0
M  V30 7736 C 737.15 -2.12781 2.9113 0
M  V30 7737 O 736.254 -3.19984 2.60162 0
M  V30 7738 H 735.595 -0.326553 0.578152 0
M  V30 7739 H 738.125 -0.414798 2.00351 0
M  V30 7740 H 738.135 -2.56278 3.17467 0
M  V30 7741 H 736.81 -1.61634 3.83207 0
M  V30 7742 H 735.387 -2.81417 2.44661 0
M  V30 7743 N 737.572 -1.44907 -0.619662 0
M  V30 7744 C 738.82 -1.47999 -1.37625 0
M  V30 7745 C 739.141 -0.118295 -1.94641 0
M  V30 7746 O 738.411 0.85086 -1.76457 0
M  V30 7747 H 736.991 -0.544993 -0.510873 0
M  V30 7748 H 739.653 -1.80772 -0.728522 0
M  V30 7749 H 738.749 -2.21196 -2.20179 0
M  V30 7750 N 739.05 0.861098 -1.31996 0
M  V30 7751 C 740.298 1.61162 -1.21947 0
M  V30 7752 C 740.619 1.93751 0.220351 0
M  V30 7753 O 739.889 1.59069 1.14341 0
M  V30 7754 H 738.469 0.597485 -0.448353 0
M  V30 7755 H 741.131 1.03039 -1.65436 0
M  V30 7756 H 740.227 2.55138 -1.79752 0
M  V30 7757 N 740.528 1.15101 1.07655 0
M  V30 7758 C 741.756 0.947731 1.83918 0
M  V30 7759 C 742.171 -0.503927 1.81951 0
M  V30 7760 O 741.528 -1.34941 1.2287 0
M  V30 7761 C 741.579 1.4503 3.31132 0
M  V30 7762 O 741.3 2.84508 3.33146 0
M  V30 7763 C 742.801 1.28806 4.24174 0
M  V30 7764 H 740.021 0.336786 0.580358 0
M  V30 7765 H 742.565 1.52799 1.35914 0
M  V30 7766 H 740.72 0.912632 3.76497 0
M  V30 7767 H 741.134 3.0723 4.251 0
M  V30 7768 H 742.608 1.6882 5.25551 0
M  V30 7769 H 743.085 0.231851 4.38588 0
M  V30 7770 H 743.691 1.81465 3.84643 0
M  V30 7771 N 742.006 -1.2595 0.947325 0
M  V30 7772 C 742.954 -2.28152 0.452687 0
M  V30 7773 C 743.948 -1.62655 -0.473239 0
M  V30 7774 O 745.154 -1.76549 -0.350774 0
M  V30 7775 H 741.529 -0.741049 0.12787 0
M  V30 7776 H 743.5 -2.67267 1.32707 0
M  V30 7777 C 742.249 -3.46719 -0.26098 0
M  V30 7778 H 741.572 -3.97345 0.442352 0
M  V30 7779 H 743.012 -4.20135 -0.571208 0
M  V30 7780 C 741.471 -3.02605 -1.48094 0
M  V30 7781 O 742.001 -3.07979 -2.57899 0
M  V30 7782 N 740.207 -2.57877 -1.33969 0
M  V30 7783 H 739.754 -2.53704 -0.446295 0
M  V30 7784 H 739.712 -2.28725 -2.15713 0
M  V30 7785 N 743.484 -0.715051 -1.40445 0
M  V30 7786 C 744.414 -0.0768699 -2.33373 0
M  V30 7787 C 745.395 0.746109 -1.52863 0
M  V30 7788 O 746.58 0.695142 -1.81332 0
M  V30 7789 C 743.71 0.846014 -3.36838 0
M  V30 7790 C 742.664 0.128694 -4.27806 0
M  V30 7791 C 741.99 1.16726 -5.21804 0
M  V30 7792 C 743.29 -1.01679 -5.12307 0
M  V30 7793 H 744.984 -0.853061 -2.8699 0
M  V30 7794 H 742.53 -0.41167 -1.3799 0
M  V30 7795 H 744.483 1.30185 -4.00786 0
M  V30 7796 H 743.207 1.6541 -2.81615 0
M  V30 7797 H 741.866 -0.307314 -3.6531 0
M  V30 7798 H 741.514 1.96838 -4.62887 0
M  V30 7799 H 741.214 0.692188 -5.83509 0
M  V30 7800 H 742.738 1.62321 -5.88629 0
M  V30 7801 H 744.152 -0.640337 -5.69713 0
M  V30 7802 H 742.549 -1.4202 -5.83053 0
M  V30 7803 H 743.619 -1.84769 -4.48317 0
M  V30 7804 N 744.962 1.50701 -0.461195 0
M  V30 7805 C 745.895 2.24948 0.383863 0
M  V30 7806 C 746.873 1.27851 1.00464 0
M  V30 7807 O 748.057 1.57049 1.04249 0
M  V30 7808 C 745.184 3.01818 1.537 0
M  V30 7809 C 744.23 4.13762 1.03457 0
M  V30 7810 S 745.063 5.35483 -0.0427485 0
M  V30 7811 C 746.219 6.15898 1.11449 0
M  V30 7812 H 746.452 2.96277 -0.246425 0
M  V30 7813 H 743.985 1.52428 -0.245961 0
M  V30 7814 H 745.943 3.467 2.19794 0
M  V30 7815 H 744.604 2.30034 2.13877 0
M  V30 7816 H 743.797 4.66914 1.89757 0
M  V30 7817 H 743.399 3.71265 0.4515 0
M  V30 7818 H 745.691 6.46431 2.02813 0
M  V30 7819 H 746.634 7.05359 0.622444 0
M  V30 7820 H 747.042 5.47777 1.36385 0
M  V30 7821 N 746.441 0.193421 1.56409 0
M  V30 7822 C 747.388 -0.728124 2.19014 0
M  V30 7823 C 748.358 -1.21098 1.13686 0
M  V30 7824 O 749.543 -1.27517 1.4193 0
M  V30 7825 C 746.683 -1.94277 2.8522 0
M  V30 7826 C 745.796 -1.50143 4.05069 0
M  V30 7827 C 744.931 -2.67145 4.59137 0
M  V30 7828 C 743.97 -2.19609 5.71348 0
M  V30 7829 N 743.107 -3.29782 6.19829 0
M  V30 7830 H 747.947 -0.187499 2.9741 0
M  V30 7831 H 745.484 -0.0808064 1.46878 0
M  V30 7832 H 747.442 -2.65551 3.21774 0
M  V30 7833 H 746.072 -2.45673 2.09391 0
M  V30 7834 H 745.124 -0.684624 3.74189 0
M  V30 7835 H 746.436 -1.11266 4.86232 0
M  V30 7836 H 745.59 -3.46544 4.97988 0
M  V30 7837 H 744.329 -3.09295 3.77078 0
M  V30 7838 H 743.334 -1.38664 5.32027 0
M  V30 7839 H 744.559 -1.78492 6.55223 0
M  V30 7840 H 742.505 -3.71466 5.40693 0
M  V30 7841 H 742.422 -2.95069 6.96039 0
M  V30 7842 H 743.69 -4.094 6.63334 0
M  V30 7843 N 747.919 -1.57396 -0.0801906 0
M  V30 7844 C 749.165 -1.87113 -0.782083 0
M  V30 7845 C 749.498 -0.78458 -1.77646 0
M  V30 7846 O 748.773 0.205993 -1.93406 0
M  V30 7847 C 749.056 -3.27483 -1.49756 0
M  V30 7848 C 748.909 -4.46782 -0.520171 0
M  V30 7849 C 750.228 -3.65965 -2.44454 0
M  V30 7850 H 747.347 -0.680559 -0.282858 0
M  V30 7851 H 749.989 -1.89946 -0.0454139 0
M  V30 7852 H 748.139 -3.25199 -2.12551 0
M  V30 7853 H 749.811 -4.61187 0.101919 0
M  V30 7854 H 748.054 -4.33485 0.165219 0
M  V30 7855 H 748.725 -5.41761 -1.05824 0
M  V30 7856 H 751.201 -3.69289 -1.91742 0
M  V30 7857 H 750.077 -4.65086 -2.91524 0
M  V30 7858 H 750.338 -2.95446 -3.28883 0
M  V30 7859 N 749.397 0.351382 -1.53633 0
M  V30 7860 C 750.643 1.09411 -1.70754 0
M  V30 7861 C 750.976 1.88544 -0.465293 0
M  V30 7862 O 750.251 1.86923 0.537608 0
M  V30 7863 C 750.534 2.04173 -2.96623 0
M  V30 7864 C 750.387 1.28556 -4.31038 0
M  V30 7865 C 751.706 3.04102 -3.18136 0
M  V30 7866 H 748.825 0.396373 -0.621335 0
M  V30 7867 H 751.467 0.373464 -1.86293 0
M  V30 7868 H 749.617 2.65625 -2.83506 0
M  V30 7869 H 751.289 0.697786 -4.55992 0
M  V30 7870 H 749.532 0.587498 -4.29803 0
M  V30 7871 H 750.203 1.97989 -5.15271 0
M  V30 7872 H 752.679 2.5276 -3.30532 0
M  V30 7873 H 751.555 3.67616 -4.07615 0
M  V30 7874 H 751.816 3.75053 -2.34068 0
M  V30 7875 N 750.875 1.45233 0.611969 0
M  V30 7876 C 751.807 1.49575 1.73666 0
M  V30 7877 C 752.82 0.386987 1.58134 0
M  V30 7878 O 754.009 0.653804 1.66095 0
M  V30 7879 C 751.109 1.33223 3.11617 0
M  V30 7880 C 750.282 2.57694 3.5343 0
M  V30 7881 C 749.341 2.35962 4.70328 0
M  V30 7882 O 748.367 3.09553 4.77667 0
M  V30 7883 N 749.569 1.40243 5.63305 0
M  V30 7884 H 752.334 2.46539 1.70407 0
M  V30 7885 H 749.895 1.40917 0.79712 0
M  V30 7886 H 751.887 1.16502 3.87569 0
M  V30 7887 H 750.457 0.44551 3.09409 0
M  V30 7888 H 749.677 2.8956 2.67486 0
M  V30 7889 H 750.965 3.40441 3.78124 0
M  V30 7890 H 750.363 0.795023 5.60086 0
M  V30 7891 H 748.92 1.29496 6.38807 0
M  V30 7892 N 752.353 -0.854086 1.3245 0
M  V30 7893 C 753.602 -1.60318 1.22397 0
M  V30 7894 C 753.915 -1.9444 -0.212664 0
M  V30 7895 O 755.121 -2.67991 -0.435066 0
M  V30 7896 C 753.577 -2.8909 2.1437 0
M  V30 7897 C 753.185 -2.62391 3.63119 0
M  V30 7898 C 754.929 -3.67104 2.13155 0
M  V30 7899 C 752.836 -3.87167 4.47052 0
M  V30 7900 H 751.766 -0.601586 0.454544 0
M  V30 7901 H 754.417 -0.943023 1.57415 0
M  V30 7902 H 752.799 -3.56567 1.72268 0
M  V30 7903 H 753.973 -2.03222 4.13567 0
M  V30 7904 H 752.288 -1.97706 3.66471 0
M  V30 7905 H 754.885 -4.59696 2.731 0
M  V30 7906 H 755.228 -4.00876 1.12268 0
M  V30 7907 H 755.761 -3.06533 2.5354 0
M  V30 7908 H 752.5 -3.58536 5.48755 0
M  V30 7909 H 752.02 -4.45729 4.01355 0
M  V30 7910 H 753.699 -4.549 4.60081 0
M  V30 7911 N 753.831 -1.1567 -1.07043 0
M  V30 7912 C 754.741 -0.870435 -2.17855 0
M  V30 7913 C 755.757 0.154452 -1.73313 0
M  V30 7914 O 756.933 -0.0203759 -2.0139 0
M  V30 7915 C 753.998 -0.367219 -3.4475 0
M  V30 7916 C 753.059 -1.45639 -4.03841 0
M  V30 7917 C 752.292 -0.977092 -5.2468 0
M  V30 7918 O 752.515 0.176127 -5.70128 0
M  V30 7919 O 751.449 -1.76215 -5.75527 0
M  V30 7920 H 755.275 -1.79687 -2.44839 0
M  V30 7921 H 752.86 -0.936064 -1.1644 0
M  V30 7922 H 754.742 -0.0931947 -4.21297 0
M  V30 7923 H 753.417 0.53131 -3.1931 0
M  V30 7924 H 752.324 -1.78406 -3.28819 0
M  V30 7925 H 753.657 -2.32995 -4.3356 0
M  V30 7926 O 755.348 1.19707 -1.08409 0
M  V30 7927 H 756.039 1.77498 -0.775504 0
M  V30 END ATOM
M  V30 BEGIN BOND
M  V30 END BOND
M  V30 END CTAB
M  END
$$$$
