drugbank_target|P04054 Phospholipase A2 (DB00795; DB00972; DB02210; DB02448; DB02659; DB02795; DB02938; DB03565; DB03587; DB03633; DB04552; DB07657; DB07836; DB14009)
 OpenBabel12092120443D

  0  0  0     0  0            999 V3000
M  V30 BEGIN CTAB
M  V30 COUNTS 2248 2272 0 0 0
M  V30 BEGIN ATOM
M  V30 1 H -0.908 1.98254 -0.117106 0
M  V30 2 N 0 1.576 0 0
M  V30 3 C 0.933 2.03868 1.02534 0
M  V30 4 C 1.911 0.928543 1.3348 0
M  V30 5 O 3.095 1.19667 1.45644 0
M  V30 6 C 0.222 2.43627 2.35294 0
M  V30 7 C -0.732 3.65373 2.2001 0
M  V30 8 S 0.101 5.13292 1.52614 0
M  V30 9 C 1.257 5.56322 2.86805 0
M  V30 10 H 1.49 2.90518 0.631377 0
M  V30 11 H -0.977 1.52953 0.210867 0
M  V30 12 H 0.981 2.67203 3.11629 0
M  V30 13 H -0.358 1.57376 2.7183 0
M  V30 14 H -1.165 3.90944 3.18086 0
M  V30 15 H -1.563 3.418 1.51819 0
M  V30 16 H 0.729 5.58782 3.83104 0
M  V30 17 H 1.672 6.56266 2.65933 0
M  V30 18 H 2.08 4.83886 2.90714 0
M  V30 19 N 1.4781 -0.272755 1.55222 0
M  V30 20 C 2.4251 -1.33716 1.88119 0
M  V30 21 C 3.3951 -1.49066 0.73271 0
M  V30 22 O 4.5801 -1.63469 0.984002 0
M  V30 23 C 1.7201 -2.69238 2.15882 0
M  V30 24 C 0.8331 -2.62108 3.43399 0
M  V30 25 C -0.0319 -3.89811 3.60861 0
M  V30 26 C -0.9929 -3.77193 4.8207 0
M  V30 27 N -1.8559 -4.9673 4.96189 0
M  V30 28 H 2.9841 -1.04962 2.78903 0
M  V30 29 H 0.5211 -0.507088 1.38083 0
M  V30 30 H 2.4791 -3.48089 2.29978 0
M  V30 31 H 1.1091 -2.96194 1.28331 0
M  V30 32 H 0.1611 -1.74967 3.37773 0
M  V30 33 H 1.4731 -2.48685 4.32386 0
M  V30 34 H 0.6271 -4.77103 3.74777 0
M  V30 35 H -0.6339 -4.06102 2.7006 0
M  V30 36 H -1.6289 -2.88284 4.68159 0
M  V30 37 H -0.4039 -3.62421 5.74307 0
M  V30 38 H -2.4579 -5.13431 4.08319 0
M  V30 39 H -2.5409 -4.85839 5.79221 0
M  V30 40 H -1.2729 -5.85594 5.1449 0
M  V30 41 N 2.9562 -1.48159 -0.537278 0
M  V30 42 C 3.8862 -1.65029 -1.6519 0
M  V30 43 C 4.8672 -0.499281 -1.62607 0
M  V30 44 O 6.0522 -0.730972 -1.79918 0
M  V30 45 C 3.1822 -1.68303 -3.03795 0
M  V30 46 C 2.1362 -2.8283 -3.21234 0
M  V30 47 C 1.4622 -2.71189 -4.60826 0
M  V30 48 C 2.7622 -4.24211 -3.04701 0
M  V30 49 H 4.4562 -2.58341 -1.51328 0
M  V30 50 H 2.0022 -1.24325 -0.726585 0
M  V30 51 H 3.9552 -1.78693 -3.81637 0
M  V30 52 H 2.6792 -0.715635 -3.18663 0
M  V30 53 H 1.3382 -2.71983 -2.45807 0
M  V30 54 H 0.9862 -1.72435 -4.7252 0
M  V30 55 H 0.6862 -3.48035 -4.7344 0
M  V30 56 H 2.2102 -2.83537 -5.40777 0
M  V30 57 H 3.6242 -4.3593 -3.72341 0
M  V30 58 H 2.0212 -5.01998 -3.28813 0
M  V30 59 H 3.0912 -4.41184 -2.01209 0
M  V30 60 N 4.4343 0.785586 -1.36625 0
M  V30 61 C 5.3643 1.91259 -1.33949 0
M  V30 62 C 6.3453 1.68795 -0.210325 0
M  V30 63 O 7.5303 1.89854 -0.408561 0
M  V30 64 C 4.6603 3.28339 -1.13186 0
M  V30 65 C 3.6143 3.65335 -2.22967 0
M  V30 66 C 2.9403 5.00806 -1.87342 0
M  V30 67 C 4.2403 3.7352 -3.65075 0
M  V30 68 H 5.9343 1.93755 -2.28253 0
M  V30 69 H 3.4803 0.930788 -1.09874 0
M  V30 70 H 5.4333 4.06804 -1.09948 0
M  V30 71 H 4.1573 3.2624 -0.153332 0
M  V30 72 H 2.8163 2.89169 -2.25337 0
M  V30 73 H 2.4643 4.95233 -0.880545 0
M  V30 74 H 2.1643 5.26529 -2.60846 0
M  V30 75 H 3.6883 5.81687 -1.85667 0
M  V30 76 H 5.1023 4.42168 -3.64911 0
M  V30 77 H 3.4993 4.10731 -4.37516 0
M  V30 78 H 4.5693 2.74527 -3.99703 0
M  V30 79 N 5.9124 1.20967 1.01018 0
M  V30 80 C 7.1584 1.02526 1.74975 0
M  V30 81 C 7.4914 -0.4408 1.89131 0
M  V30 82 O 6.7664 -1.32718 1.42184 0
M  V30 83 C 7.0494 1.71699 3.1653 0
M  V30 84 C 6.9024 3.25791 3.10129 0
M  V30 85 C 8.2214 1.45531 4.15342 0
M  V30 86 H 5.3404 0.373863 0.635134 0
M  V30 87 H 7.9824 1.49071 1.17805 0
M  V30 88 H 6.1324 1.32128 3.65341 0
M  V30 89 H 7.8044 3.74697 2.69072 0
M  V30 90 H 6.0474 3.56363 2.47362 0
M  V30 91 H 6.7184 3.69353 4.10222 0
M  V30 92 H 9.1944 1.79872 3.75213 0
M  V30 93 H 8.0704 1.96453 5.1254 0
M  V30 94 H 8.3314 0.384237 4.40427 0
M  V30 95 N 7.3905 -1.2043 1.01659 0
M  V30 96 C 8.3205 -2.25466 0.607226 0
M  V30 97 C 9.3015 -1.65853 -0.377716 0
M  V30 98 O 10.4865 -1.92409 -0.263149 0
M  V30 99 C 7.6165 -3.47256 -0.0552949 0
M  V30 100 C 6.5705 -4.19462 0.850632 0
M  V30 101 C 5.8965 -5.34673 0.0538859 0
M  V30 102 C 7.1965 -4.75603 2.15868 0
M  V30 103 H 8.8905 -2.59962 1.48526 0
M  V30 104 H 6.4365 -1.2496 0.715605 0
M  V30 105 H 8.3895 -4.19917 -0.353233 0
M  V30 106 H 7.1135 -3.11924 -0.968045 0
M  V30 107 H 5.7725 -3.48667 1.13257 0
M  V30 108 H 5.4205 -4.95585 -0.860514 0
M  V30 109 H 5.1205 -5.83913 0.657192 0
M  V30 110 H 6.6445 -6.10138 -0.237598 0
M  V30 111 H 8.0585 -5.40083 1.92311 0
M  V30 112 H 6.4555 -5.3528 2.71284 0
M  V30 113 H 7.5255 -3.94346 2.82169 0
M  V30 114 N 8.8686 -0.792821 -1.36206 0
M  V30 115 C 9.8316 -0.199459 -2.2833 0
M  V30 116 C 10.8316 0.605189 -1.48977 0
M  V30 117 O 12.0216 0.425685 -1.68919 0
M  V30 118 C 9.1536 0.723523 -3.33134 0
M  V30 119 H 10.3466 -1.01181 -2.82316 0
M  V30 120 H 7.8996 -0.562485 -1.45828 0
M  V30 121 H 8.6346 1.56008 -2.84309 0
M  V30 122 H 8.4196 0.148436 -3.91819 0
M  V30 123 H 9.9096 1.13344 -4.01924 0
M  V30 124 N 10.3467 1.47872 -0.545128 0
M  V30 125 C 11.5927 2.02793 -0.0166104 0
M  V30 126 C 11.9257 1.41987 1.32489 0
M  V30 127 O 11.2007 0.571045 1.85928 0
M  V30 128 C 11.4837 3.59989 0.0893294 0
M  V30 129 C 11.3367 4.3125 -1.27841 0
M  V30 130 C 12.6557 4.32606 0.808724 0
M  V30 131 H 9.7747 0.736962 -0.00751035 0
M  V30 132 H 12.4167 1.76433 -0.705085 0
M  V30 133 H 10.5667 3.82579 0.675681 0
M  V30 134 H 12.2387 4.20035 -1.90704 0
M  V30 135 H 10.4817 3.92076 -1.85632 0
M  V30 136 H 11.1527 5.39736 -1.15713 0
M  V30 137 H 13.6287 4.14936 0.310992 0
M  V30 138 H 12.5047 5.42251 0.851782 0
M  V30 139 H 12.7657 4.00963 1.86229 0
M  V30 140 N 11.8248 0.280983 1.55075 0
M  V30 141 C 12.7548 -0.597469 2.25727 0
M  V30 142 C 13.7358 -1.15417 1.24952 0
M  V30 143 O 14.9208 -1.18722 1.53684 0
M  V30 144 C 12.0508 -1.7789 2.98283 0
M  V30 145 C 11.0048 -1.35347 4.06036 0
M  V30 146 C 10.3308 -2.61846 4.66198 0
M  V30 147 C 11.6308 -0.499354 5.19907 0
M  V30 148 H 13.3248 -0.00824265 2.99399 0
M  V30 149 H 10.8708 -0.0025244 1.44 0
M  V30 150 H 12.8238 -2.39937 3.46422 0
M  V30 151 H 11.5478 -2.39405 2.22155 0
M  V30 152 H 10.2068 -0.756156 3.58717 0
M  V30 153 H 9.8548 -3.21632 3.86732 0
M  V30 154 H 9.5548 -2.3409 5.38958 0
M  V30 155 H 11.0788 -3.24732 5.1709 0
M  V30 156 H 12.4928 -1.02498 5.64063 0
M  V30 157 H 10.8898 -0.316424 5.99265 0
M  V30 158 H 11.9598 0.480459 4.82514 0
M  V30 159 N 13.3029 -1.57598 0.00835791 0
M  V30 160 C 14.2329 -2.1198 -0.979113 0
M  V30 161 C 15.2139 -1.03091 -1.35301 0
M  V30 162 O 16.3989 -1.30818 -1.43528 0
M  V30 163 C 13.5289 -2.62995 -2.26828 0
M  V30 164 C 12.4829 -3.76485 -2.03576 0
M  V30 165 C 11.8089 -4.13846 -3.38579 0
M  V30 166 C 13.1089 -5.0342 -1.39161 0
M  V30 167 H 14.8029 -2.94738 -0.526281 0
M  V30 168 H 12.3489 -1.41783 -0.251704 0
M  V30 169 H 14.3019 -2.99669 -2.96271 0
M  V30 170 H 13.0259 -1.7737 -2.7424 0
M  V30 171 H 11.6849 -3.40217 -1.36557 0
M  V30 172 H 11.3329 -3.25232 -3.83709 0
M  V30 173 H 11.0329 -4.90312 -3.23834 0
M  V30 174 H 12.5569 -4.53086 -4.09323 0
M  V30 175 H 13.9709 -5.37812 -1.98573 0
M  V30 176 H 12.3679 -5.84746 -1.34878 0
M  V30 177 H 13.4379 -4.83548 -0.361868 0
M  V30 178 N 14.781 0.264519 -1.55364 0
M  V30 179 C 16.009 1.013 -1.80405 0
M  V30 180 C 16.424 1.79618 -0.581622 0
M  V30 181 O 15.781 1.76879 0.449468 0
M  V30 182 C 15.832 1.96487 -3.03439 0
M  V30 183 O 15.553 1.21341 -4.20961 0
M  V30 184 C 17.054 2.83079 -3.41147 0
M  V30 185 H 14.274 0.298875 -0.600762 0
M  V30 186 H 16.818 0.292736 -2.02394 0
M  V30 187 H 14.973 2.63965 -2.83551 0
M  V30 188 H 15.387 1.85573 -4.90574 0
M  V30 189 H 16.861 3.4565 -4.30384 0
M  V30 190 H 17.338 3.53286 -2.60932 0
M  V30 191 H 17.944 2.2108 -3.63323 0
M  V30 192 N 16.2591 1.48442 0.529413 0
M  V30 193 C 17.5051 1.5672 1.28711 0
M  V30 194 C 17.8381 0.2406 1.92704 0
M  V30 195 O 17.1131 -0.753454 1.79313 0
M  V30 196 C 17.3961 2.70587 2.37603 0
M  V30 197 C 17.2491 4.12953 1.78297 0
M  V30 198 C 18.5681 2.80212 3.39366 0
M  V30 199 H 15.6871 0.570474 0.466613 0
M  V30 200 H 18.3291 1.80617 0.589706 0
M  V30 201 H 16.4791 2.50342 2.97088 0
M  V30 202 H 18.1511 4.44639 1.22858 0
M  V30 203 H 16.3941 4.19927 1.0883 0
M  V30 204 H 17.0651 4.88448 2.57144 0
M  V30 205 H 19.5411 2.98553 2.89836 0
M  V30 206 H 18.4171 3.61611 4.12951 0
M  V30 207 H 18.6781 1.88393 3.99951 0
M  V30 208 N 17.7372 -0.778329 1.37039 0
M  V30 209 C 18.7002 -1.87301 1.32102 0
M  V30 210 C 19.7002 -1.59198 0.226405 0
M  V30 211 O 20.8902 -1.67403 0.481861 0
M  V30 212 C 18.0222 -3.24309 1.05055 0
M  V30 213 H 19.2152 -1.93093 2.29467 0
M  V30 214 H 16.7682 -0.977358 1.21973 0
M  V30 215 H 17.5032 -3.24196 0.0819373 0
M  V30 216 H 17.2882 -3.46098 1.84279 0
M  V30 217 H 18.7782 -4.04382 1.04234 0
M  V30 218 N 19.2153 -1.21501 -1.00376 0
M  V30 219 C 20.1783 -0.976927 -2.07337 0
M  V30 220 C 21.1783 0.0525322 -1.60714 0
M  V30 221 O 22.3683 -0.184869 -1.73216 0
M  V30 222 C 19.5003 -0.473423 -3.37597 0
M  V30 223 H 20.6933 -1.92587 -2.29892 0
M  V30 224 H 18.2463 -1.03217 -1.17371 0
M  V30 225 H 18.9813 0.480379 -3.20722 0
M  V30 226 H 18.7663 -1.216 -3.72768 0
M  V30 227 H 20.2563 -0.32675 -4.1632 0
M  V30 228 N 20.6934 1.19889 -1.02296 0
M  V30 229 C 21.6564 2.21116 -0.603351 0
M  V30 230 C 22.6564 1.5738 0.329884 0
M  V30 231 O 23.8464 1.73802 0.117702 0
M  V30 232 C 20.9784 3.40696 0.117992 0
M  V30 233 H 22.1714 2.59754 -1.49893 0
M  V30 234 H 19.7244 1.33463 -0.813468 0
M  V30 235 H 20.4594 3.07569 1.0282 0
M  V30 236 H 20.2444 3.88188 -0.552511 0
M  V30 237 H 21.7344 4.15692 0.398696 0
M  V30 238 N 22.1715 0.800033 1.35784 0
M  V30 239 C 23.4485 0.30088 1.93272 0
M  V30 240 C 23.8285 -1.20857 1.73081 0
M  V30 241 O 23.1765 -2.00502 1.09596 0
M  V30 242 C 23.3865 0.70511 3.41803 0
M  V30 243 C 24.7345 0.690871 4.18942 0
M  V30 244 O 25.7585 0.646244 3.50289 0
M  V30 245 O 24.6175 0.74332 5.41421 0
M  V30 246 H 21.7115 0.0771605 0.823393 0
M  V30 247 H 24.2575 0.88329 1.449 0
M  V30 248 H 23.0295 1.74571 3.50201 0
M  V30 249 H 22.6525 0.0971541 3.97481 0
M  V30 250 N 23.6496 -1.47581 0.552962 0
M  V30 251 C 24.8746 -2.07378 0.0300593 0
M  V30 252 C 25.2996 -1.40355 -1.25229 0
M  V30 253 O 24.6576 -0.477099 -1.7491 0
M  V30 254 C 24.7056 -3.60274 -0.153231 0
M  V30 255 O 23.8096 -3.94041 -1.21678 0
M  V30 256 H 23.1506 -0.662158 0.0494182 0
M  V30 257 H 25.6806 -1.89662 0.767434 0
M  V30 258 H 25.6906 -4.0633 -0.368761 0
M  V30 259 H 24.3656 -4.08455 0.783397 0
M  V30 260 H 22.9426 -3.59735 -0.982079 0
M  V30 261 N 25.1277 -0.289203 -1.54924 0
M  V30 262 C 26.3757 0.322879 -1.99504 0
M  V30 263 C 26.6967 1.55313 -1.1791 0
M  V30 264 O 25.9667 1.94001 -0.272097 0
M  V30 265 H 24.5467 0.122291 -0.736922 0
M  V30 266 H 27.2087 -0.397802 -1.90797 0
M  V30 267 H 26.3047 0.603061 -3.06218 0
M  V30 268 N 26.6058 1.57591 -0.0167156 0
M  V30 269 C 27.8548 1.90461 0.663877 0
M  V30 270 C 28.1678 0.893515 1.73999 0
M  V30 271 O 29.3738 1.11302 2.47637 0
M  V30 272 C 27.8298 3.38155 1.23204 0
M  V30 273 C 27.4378 4.47597 0.189866 0
M  V30 274 C 29.1818 3.80111 1.88986 0
M  V30 275 C 27.0888 5.86379 0.768964 0
M  V30 276 H 26.0188 0.710738 0.251729 0
M  V30 277 H 28.6698 1.83326 -0.0799926 0
M  V30 278 H 27.0518 3.40182 2.02712 0
M  V30 279 H 28.2258 4.57112 -0.581846 0
M  V30 280 H 26.5408 4.14766 -0.368475 0
M  V30 281 H 29.1378 4.81145 2.33247 0
M  V30 282 H 29.4808 3.14511 2.72743 0
M  V30 283 H 30.0138 3.80454 1.16187 0
M  V30 284 H 26.7528 6.55493 -0.0301957 0
M  V30 285 H 26.2728 5.80496 1.50945 0
M  V30 286 H 27.9518 6.34563 1.26251 0
M  V30 287 N 28.0839 -0.256276 1.55502 0
M  V30 288 C 29.3089 -1.00766 1.81276 0
M  V30 289 C 29.7339 -1.78524 0.59252 0
M  V30 290 O 29.0919 -1.75413 -0.45827 0
M  V30 291 C 29.1399 -1.92869 3.04687 0
M  V30 292 O 28.2439 -3.019 2.80945 0
M  V30 293 H 27.5849 -0.287224 0.598664 0
M  V30 294 H 30.1149 -0.280109 2.02674 0
M  V30 295 H 30.1249 -2.34511 3.33869 0
M  V30 296 H 28.7999 -1.35689 3.93143 0
M  V30 297 H 27.3769 -2.64454 2.62904 0
M  V30 298 N 29.562 -1.4872 -0.521534 0
M  V30 299 C 30.973 -1.50607 -1.10337 0
M  V30 300 C 31.324 -0.280612 -1.94183 0
M  V30 301 O 30.449 0.611507 -2.0758 0
M  V30 302 C 31.044 -2.72903 -2.00772 0
M  V30 303 C 29.603 -2.77634 -2.54158 0
M  V30 304 C 28.75 -2.44241 -1.31307 0
M  V30 305 H 31.701 -1.55714 -0.306388 0
M  V30 306 H 31.722 -2.519 -2.85178 0
M  V30 307 H 31.234 -3.62077 -1.39721 0
M  V30 308 H 29.335 -1.92689 -3.18907 0
M  V30 309 H 29.448 -3.79283 -2.92714 0
M  V30 310 H 27.812 -1.95577 -1.63161 0
M  V30 311 H 28.595 -3.35666 -0.719943 0
M  V30 312 N 31.0401 0.771051 -1.3745 0
M  V30 313 C 32.4561 1.07171 -1.18265 0
M  V30 314 C 32.6561 2.01491 -0.019287 0
M  V30 315 O 31.7121 2.44244 0.640408 0
M  V30 316 C 33.0251 1.66854 -2.50161 0
M  V30 317 C 34.5731 1.79109 -2.56689 0
M  V30 318 C 35.0481 2.42205 -3.88717 0
M  V30 319 N 36.5391 2.49655 -3.90162 0
M  V30 320 C 37.2741 2.9933 -4.8907 0
M  V30 321 N 36.7701 3.49172 -5.98374 0
M  V30 322 N 38.5631 2.9821 -4.76474 0
M  V30 323 H 30.7141 0.144796 -2.11906 0
M  V30 324 H 32.9771 0.126863 -0.939473 0
M  V30 325 H 32.6831 1.05017 -3.35655 0
M  V30 326 H 32.5571 2.6614 -2.673 0
M  V30 327 H 34.9441 2.40077 -1.71601 0
M  V30 328 H 35.0251 0.785757 -2.43433 0
M  V30 329 H 34.6691 1.81875 -4.74219 0
M  V30 330 H 34.5991 3.43345 -3.99276 0
M  V30 331 H 37.0901 2.14383 -3.11205 0
M  V30 332 H 37.4031 3.8548 -6.69795 0
M  V30 333 H 35.7481 3.47275 -6.02018 0
M  V30 334 H 38.9391 2.58572 -3.90203 0
M  V30 335 H 39.1121 3.36613 -5.53711 0
M  V30 336 N 32.5182 1.22032 0.997298 0
M  V30 337 C 33.4812 0.987909 2.06816 0
M  V30 338 C 34.4812 -0.0440084 1.6074 0
M  V30 339 O 35.6712 0.194053 1.73116 0
M  V30 340 C 32.8032 0.49132 3.37341 0
M  V30 341 H 33.9962 1.93803 2.28868 0
M  V30 342 H 31.5492 1.03838 1.16822 0
M  V30 343 H 32.2842 -0.463364 3.20973 0
M  V30 344 H 32.0692 1.23575 3.72118 0
M  V30 345 H 33.5592 0.348824 4.16141 0
M  V30 346 N 33.9963 -1.19345 1.0293 0
M  V30 347 C 35.2423 -1.89318 0.727083 0
M  V30 348 C 35.5753 -1.79446 -0.742483 0
M  V30 349 O 34.8503 -1.1871 -1.54072 0
M  V30 350 C 35.1333 -3.40238 1.17942 0
M  V30 351 C 34.9863 -3.58979 2.71024 0
M  V30 352 C 36.3053 -4.33479 0.760548 0
M  V30 353 H 33.4243 -0.687475 0.265606 0
M  V30 354 H 36.0663 -1.40477 1.2793 0
M  V30 355 H 34.2163 -3.81964 0.709608 0
M  V30 356 H 35.8883 -3.26421 3.25955 0
M  V30 357 H 34.1313 -3.02018 3.11396 0
M  V30 358 H 34.8023 -4.64823 2.9773 0
M  V30 359 H 37.2783 -3.99469 1.16464 0
M  V30 360 H 36.1543 -5.37664 1.10493 0
M  V30 361 H 36.4153 -4.40813 -0.337063 0
M  V30 362 N 35.4744 -0.807222 -1.35358 0
M  V30 363 C 36.7204 -0.397594 -1.99476 0
M  V30 364 C 37.0754 1.02405 -1.62883 0
M  V30 365 O 36.3684 1.70077 -0.882282 0
M  V30 366 C 36.5624 -0.519036 -3.53611 0
M  V30 367 C 36.3914 -1.95094 -4.05177 0
M  V30 368 C 35.1614 -2.57945 -4.34503 0
M  V30 369 C 37.3594 -2.91558 -4.23673 0
M  V30 370 N 35.3414 -3.92539 -4.72003 0
M  V30 371 C 36.7124 -4.11024 -4.64176 0
M  V30 372 C 38.7674 -2.88381 -4.05883 0
M  V30 373 C 37.4704 -5.27745 -4.88751 0
M  V30 374 C 39.4964 -4.04306 -4.31614 0
M  V30 375 C 38.8584 -5.22519 -4.72391 0
M  V30 376 H 34.9574 -0.193274 -0.75774 0
M  V30 377 H 37.5414 -1.0486 -1.6405 0
M  V30 378 H 35.7124 0.101979 -3.88266 0
M  V30 379 H 37.4444 -0.0839321 -4.04613 0
M  V30 380 H 34.1994 -2.09295 -4.24844 0
M  V30 381 H 34.6234 -4.61836 -4.95011 0
M  V30 382 H 39.2654 -1.98137 -3.73499 0
M  V30 383 H 36.9834 -6.1856 -5.20008 0
M  V30 384 H 40.5694 -4.03229 -4.19402 0
M  V30 385 H 39.4494 -6.1073 -4.91913 0
M  V30 386 N 36.9525 1.47285 -0.560781 0
M  V30 387 C 37.8845 2.28118 0.222438 0
M  V30 388 C 38.8975 1.37219 0.876056 0
M  V30 389 O 40.0865 1.62011 0.749307 0
M  V30 390 C 37.1865 3.1159 1.33285 0
M  V30 391 C 36.3595 4.30473 0.77534 0
M  V30 392 C 35.4185 4.95513 1.77069 0
M  V30 393 O 34.4445 5.53792 1.31539 0
M  V30 394 N 35.6465 4.90531 3.10418 0
M  V30 395 H 38.4115 2.95976 -0.470958 0
M  V30 396 H 35.9725 1.56955 -0.39709 0
M  V30 397 H 37.9645 3.51967 1.99752 0
M  V30 398 H 36.5345 2.45951 1.92943 0
M  V30 399 H 35.7545 3.94144 -0.0662113 0
M  V30 400 H 37.0425 5.07362 0.382272 0
M  V30 401 H 36.4405 4.44389 3.5005 0
M  V30 402 H 34.9975 5.34917 3.72434 0
M  V30 403 N 38.4306 0.297415 1.54768 0
M  V30 404 C 39.6776 -0.312913 2.00068 0
M  V30 405 C 40.0056 -1.54171 1.18582 0
M  V30 406 O 39.2606 -1.94108 0.249133 0
M  V30 407 C 39.5596 -0.717561 3.50123 0
M  V30 408 C 39.2256 0.409095 4.4904 0
M  V30 409 C 37.8876 0.718399 4.75807 0
M  V30 410 C 40.2396 1.16717 5.07963 0
M  V30 411 C 37.5676 1.78896 5.5876 0
M  V30 412 C 39.9196 2.22762 5.92081 0
M  V30 413 C 38.5836 2.54303 6.1716 0
M  V30 414 H 37.8536 -0.114503 0.7321 0
M  V30 415 H 40.5006 0.415767 1.86932 0
M  V30 416 H 38.8056 -1.52627 3.60849 0
M  V30 417 H 40.5026 -1.20091 3.82595 0
M  V30 418 H 37.0926 0.157918 4.28309 0
M  V30 419 H 41.2766 0.941466 4.87289 0
M  V30 420 H 36.5326 2.0381 5.7643 0
M  V30 421 H 40.7066 2.81962 6.36765 0
M  V30 422 H 38.3336 3.3739 6.81229 0
M  V30 423 N 39.9087 -1.5758 0.0250728 0
M  V30 424 C 41.3247 -1.56124 -0.331282 0
M  V30 425 C 41.5247 -1.03029 -1.73169 0
M  V30 426 O 40.5807 -0.675215 -2.43305 0
M  V30 427 C 41.8937 -3.00139 -0.183584 0
M  V30 428 C 43.4417 -3.11946 -0.256654 0
M  V30 429 C 43.9167 -4.57793 -0.137792 0
M  V30 430 N 45.4077 -4.6279 -0.194904 0
M  V30 431 C 46.1427 -5.7326 -0.126655 0
M  V30 432 N 45.6387 -6.928 -0.00755288 0
M  V30 433 N 47.4317 -5.61811 -0.180348 0
M  V30 434 H 39.5827 -1.90424 0.94087 0
M  V30 435 H 41.8457 -0.875761 0.362968 0
M  V30 436 H 41.5517 -3.4292 0.780927 0
M  V30 437 H 41.4257 -3.64899 -0.955448 0
M  V30 438 H 43.8127 -2.69079 -1.21162 0
M  V30 439 H 43.8937 -2.49915 0.545517 0
M  V30 440 H 43.5377 -5.01339 0.813739 0
M  V30 441 H 43.4677 -5.17798 -0.958775 0
M  V30 442 H 45.9587 -3.76807 -0.287267 0
M  V30 443 H 46.2717 -7.72791 0.0379428 0
M  V30 444 H 44.6167 -6.94995 0.0271731 0
M  V30 445 H 47.8077 -4.6731 -0.271767 0
M  V30 446 H 47.9807 -6.47882 -0.123697 0
M  V30 447 N 41.3868 0.248026 -1.55636 0
M  V30 448 C 42.3338 1.30707 -1.90222 0
M  V30 449 C 43.3038 1.47881 -0.756332 0
M  V30 450 O 44.4888 1.61883 -1.00988 0
M  V30 451 C 41.6288 2.65769 -2.20138 0
M  V30 452 C 40.7418 2.56612 -3.47526 0
M  V30 453 C 39.8768 3.8402 -3.67017 0
M  V30 454 C 38.9158 3.69476 -4.8801 0
M  V30 455 N 38.0528 4.88774 -5.04029 0
M  V30 456 H 42.8928 1.00512 -2.80538 0
M  V30 457 H 40.4298 0.485055 -1.38873 0
M  V30 458 H 42.3878 3.44386 -2.35487 0
M  V30 459 H 41.0178 2.94115 -1.33027 0
M  V30 460 H 40.0698 1.69571 -3.40514 0
M  V30 461 H 41.3818 2.41774 -4.36287 0
M  V30 462 H 40.5358 4.7108 -3.8232 0
M  V30 463 H 39.2748 4.01754 -2.76487 0
M  V30 464 H 38.2798 2.80799 -4.72686 0
M  V30 465 H 39.5048 3.53238 -5.8 0
M  V30 466 H 37.4508 5.0687 -4.16435 0
M  V30 467 H 37.3678 4.76562 -5.86877 0
M  V30 468 H 38.6358 5.77335 -5.23741 0
M  V30 469 N 42.8649 1.48995 0.513639 0
M  V30 470 C 43.7979 1.59319 1.63379 0
M  V30 471 C 44.7759 0.442816 1.56454 0
M  V30 472 O 45.9599 0.656655 1.76693 0
M  V30 473 C 43.0869 1.5364 3.01848 0
M  V30 474 C 42.1329 2.7372 3.27078 0
M  V30 475 S 42.9659 4.35528 3.1157 0
M  V30 476 C 44.1219 4.32473 4.52458 0
M  V30 477 H 44.3549 2.54079 1.54374 0
M  V30 478 H 41.8879 1.3773 0.697849 0
M  V30 479 H 43.8459 1.51049 3.81699 0
M  V30 480 H 42.5069 0.601898 3.08279 0
M  V30 481 H 41.6999 2.6593 4.28132 0
M  V30 482 H 41.3019 2.73657 2.54927 0
M  V30 483 H 43.5939 4.03414 5.44301 0
M  V30 484 H 44.5369 5.33762 4.65299 0
M  V30 485 H 44.9449 3.62718 4.32546 0
M  V30 486 N 44.343 -0.763751 1.37857 0
M  V30 487 C 45.592 -1.51789 1.32827 0
M  V30 488 C 45.905 -1.95426 -0.0823719 0
M  V30 489 O 47.111 -2.70298 -0.255172 0
M  V30 490 C 45.567 -2.74133 2.33193 0
M  V30 491 C 45.175 -2.37562 3.79827 0
M  V30 492 C 46.919 -3.52054 2.37188 0
M  V30 493 C 44.826 -3.56456 4.71904 0
M  V30 494 H 43.756 -0.569896 0.493695 0
M  V30 495 H 46.407 -0.835822 1.63359 0
M  V30 496 H 44.789 -3.4427 1.9569 0
M  V30 497 H 45.963 -1.75157 4.26212 0
M  V30 498 H 44.278 -1.72798 3.78853 0
M  V30 499 H 46.875 -4.40437 3.03182 0
M  V30 500 H 47.218 -3.92486 1.38782 0
M  V30 501 H 47.751 -2.88921 2.7344 0
M  V30 502 H 44.49 -3.21099 5.71468 0
M  V30 503 H 44.01 -4.17938 4.30218 0
M  V30 504 H 45.689 -4.23168 4.89426 0
M  V30 505 N 45.8211 -1.22559 -0.990812 0
M  V30 506 C 46.7681 -0.997519 -2.0813 0
M  V30 507 C 47.7381 0.0814702 -1.659 0
M  V30 508 O 48.9231 -0.0685424 -1.90677 0
M  V30 509 C 46.0631 -0.583615 -3.40129 0
M  V30 510 C 45.1761 -1.7336 -3.9569 0
M  V30 511 C 44.3111 -1.26748 -5.15857 0
M  V30 512 C 43.3501 -2.38888 -5.63559 0
M  V30 513 N 42.4871 -1.93308 -6.74964 0
M  V30 514 H 47.3271 -1.93099 -2.26973 0
M  V30 515 H 44.8641 -0.962114 -1.11273 0
M  V30 516 H 46.8221 -0.324801 -4.15934 0
M  V30 517 H 45.4521 0.312845 -3.2128 0
M  V30 518 H 44.5041 -2.10669 -3.16738 0
M  V30 519 H 45.8161 -2.57704 -4.27071 0
M  V30 520 H 44.9701 -0.966173 -5.98957 0
M  V30 521 H 43.7091 -0.394272 -4.86104 0
M  V30 522 H 42.7141 -2.69805 -4.79046 0
M  V30 523 H 43.9391 -3.26728 -5.95336 0
M  V30 524 H 41.8851 -1.08352 -6.4699 0
M  V30 525 H 41.8021 -2.71217 -7.05675 0
M  V30 526 H 43.0701 -1.66252 -7.61564 0
M  V30 527 N 47.2992 1.18797 -1.03562 0
M  V30 528 C 48.5392 1.90346 -0.744832 0
M  V30 529 C 48.9032 1.78231 0.713972 0
M  V30 530 O 50.1042 2.44441 1.11813 0
M  V30 531 C 48.3752 3.36942 -1.19184 0
M  V30 532 S 49.9342 4.26638 -1.02593 0
M  V30 533 H 46.7522 0.657343 -0.270963 0
M  V30 534 H 49.3542 1.43579 -1.32685 0
M  V30 535 H 48.0582 3.43287 -2.24905 0
M  V30 536 H 47.5892 3.88745 -0.603397 0
M  V30 537 H 49.6042 4.96164 0.0596033 0
M  V30 538 N 48.7773 0.814389 1.34928 0
M  V30 539 C 50.0233 0.399013 1.98836 0
M  V30 540 C 50.3563 -1.03314 1.64438 0
M  V30 541 O 49.6313 -1.71811 0.911659 0
M  V30 542 C 49.9143 0.591629 3.55207 0
M  V30 543 C 49.7673 2.06928 3.99376 0
M  V30 544 C 51.0863 0.022199 4.40094 0
M  V30 545 H 48.2053 0.146451 0.722303 0
M  V30 546 H 50.8473 1.02537 1.59957 0
M  V30 547 H 48.9973 0.0584441 3.88456 0
M  V30 548 H 50.6693 2.66544 3.76499 0
M  V30 549 H 48.9123 2.56287 3.49999 0
M  V30 550 H 49.5833 2.1549 5.08201 0
M  V30 551 H 52.0593 0.477643 4.13349 0
M  V30 552 H 50.9353 0.186832 5.48582 0
M  V30 553 H 51.1963 -1.07215 4.28902 0
M  V30 554 N 50.2554 -1.46986 0.568584 0
M  V30 555 C 51.5044 -2.01646 0.0465894 0
M  V30 556 C 51.8174 -1.44721 -1.31587 0
M  V30 557 O 53.0234 -1.91113 -1.92842 0
M  V30 558 C 51.4794 -3.59885 0.032752 0
M  V30 559 C 51.0874 -4.25804 1.39266 0
M  V30 560 C 52.8314 -4.22255 -0.436038 0
M  V30 561 C 50.7384 -5.76081 1.33732 0
M  V30 562 H 49.6684 -0.753876 0.013647 0
M  V30 563 H 52.3194 -1.68864 0.718131 0
M  V30 564 H 50.7014 -3.8968 -0.704669 0
M  V30 565 H 51.8754 -4.07637 2.1487 0
M  V30 566 H 50.1904 -3.7547 1.80032 0
M  V30 567 H 52.7874 -5.32394 -0.49602 0
M  V30 568 H 53.1304 -3.90212 -1.45053 0
M  V30 569 H 53.6634 -3.97033 0.246877 0
M  V30 570 H 50.4024 -6.12761 2.32817 0
M  V30 571 H 49.9224 -5.96553 0.623267 0
M  V30 572 H 51.6014 -6.38518 1.0442 0
M  V30 573 N 51.7335 -0.305618 -1.54608 0
M  V30 574 C 53.1445 0.186098 -1.8577 0
M  V30 575 C 53.4955 1.53058 -1.22751 0
M  V30 576 O 52.6205 2.09888 -0.526893 0
M  V30 577 C 53.2155 0.344449 -3.37044 0
M  V30 578 C 51.7745 0.780384 -3.68221 0
M  V30 579 C 50.9215 -0.108554 -2.77087 0
M  V30 580 H 53.8725 -0.526485 -1.49712 0
M  V30 581 H 53.8935 1.17828 -3.61796 0
M  V30 582 H 53.4055 -0.634235 -3.82883 0
M  V30 583 H 51.5065 1.76945 -3.27904 0
M  V30 584 H 51.6195 0.596572 -4.75371 0
M  V30 585 H 49.9835 0.412931 -2.5133 0
M  V30 586 H 50.7665 -1.08368 -3.25747 0
M  V30 587 N 53.2116 1.57565 -0.0334293 0
M  V30 588 C 54.4596 1.91598 0.642999 0
M  V30 589 C 54.7806 0.910847 1.7242 0
M  V30 590 O 54.0506 -0.0469931 1.95844 0
M  V30 591 H 52.6306 0.707228 0.240496 0
M  V30 592 H 55.2926 1.94726 -0.0822488 0
M  V30 593 H 54.3886 2.92336 1.09298 0
M  V30 594 N 54.6897 -0.239769 1.55765 0
M  V30 595 C 55.9147 -0.988373 1.82335 0
M  V30 596 C 56.3397 -1.77886 0.611421 0
M  V30 597 O 55.6977 -1.75889 -0.439639 0
M  V30 598 C 55.7457 -1.89627 3.06715 0
M  V30 599 O 54.8497 -2.98904 2.84131 0
M  V30 600 H 54.1907 -0.280858 0.601677 0
M  V30 601 H 56.7207 -0.258597 2.02959 0
M  V30 602 H 56.7307 -2.30957 3.36338 0
M  V30 603 H 55.4057 -1.31511 3.9456 0
M  V30 604 H 53.9827 -2.61651 2.65694 0
M  V30 605 N 56.1678 -1.49265 -0.50573 0
M  V30 606 C 57.4448 -1.49012 -1.26707 0
M  V30 607 C 57.8248 -0.215205 -2.1 0
M  V30 608 O 57.1728 0.802547 -2.13943 0
M  V30 609 C 57.3828 -2.7663 -2.12783 0
M  V30 610 C 58.7308 -3.25932 -2.72127 0
M  V30 611 O 59.7548 -2.77715 -2.23054 0
M  V30 612 O 58.6138 -4.09897 -3.61451 0
M  V30 613 H 55.7078 -0.596197 -0.57313 0
M  V30 614 H 58.2538 -1.61524 -0.52039 0
M  V30 615 H 57.0258 -3.60916 -1.5118 0
M  V30 616 H 56.6488 -2.66956 -2.94653 0
M  V30 617 N 57.6459 0.756429 -1.3826 0
M  V30 618 C 59.0569 1.33359 -1.30661 0
M  V30 619 C 59.4079 1.96161 0.0388875 0
M  V30 620 O 58.5329 1.94874 0.940918 0
M  V30 621 C 59.1279 2.42477 -2.36622 0
M  V30 622 C 57.6869 2.95922 -2.3261 0
M  V30 623 C 56.8339 1.69275 -2.19639 0
M  V30 624 H 59.7849 0.55552 -1.4866 0
M  V30 625 H 59.8059 3.22345 -2.02174 0
M  V30 626 H 59.3179 1.96739 -3.34538 0
M  V30 627 H 57.4189 3.45996 -1.38267 0
M  V30 628 H 57.5319 3.50494 -3.26636 0
M  V30 629 H 55.8959 1.92793 -1.66442 0
M  V30 630 H 56.6789 1.25619 -3.19491 0
M  V30 631 N 59.124 1.23083 0.984299 0
M  V30 632 C 60.371 1.06057 1.72505 0
M  V30 633 C 60.699 -0.403105 1.90277 0
M  V30 634 O 59.954 -1.3149 1.44944 0
M  V30 635 C 60.253 1.72673 3.1292 0
M  V30 636 C 59.919 3.22586 3.15038 0
M  V30 637 C 58.581 3.63489 3.15324 0
M  V30 638 C 60.933 4.185 3.10657 0
M  V30 639 C 58.261 4.98772 3.08939 0
M  V30 640 C 60.613 5.53769 3.05814 0
M  V30 641 C 59.277 5.94041 3.04419 0
M  V30 642 H 58.547 0.388091 0.631242 0
M  V30 643 H 61.194 1.52963 1.15215 0
M  V30 644 H 59.499 1.18116 3.73572 0
M  V30 645 H 61.196 1.56982 3.68996 0
M  V30 646 H 57.786 2.90022 3.15571 0
M  V30 647 H 61.97 3.87911 3.09579 0
M  V30 648 H 57.226 5.29193 3.0621 0
M  V30 649 H 61.4 6.27808 3.0138 0
M  V30 650 H 59.027 6.98833 2.99227 0
M  V30 651 N 60.6021 -1.18246 1.0419 0
M  V30 652 C 61.5321 -2.24127 0.654914 0
M  V30 653 C 62.5131 -1.66617 -0.342451 0
M  V30 654 O 63.6981 -1.92924 -0.222277 0
M  V30 655 C 60.8281 -3.47295 0.0183757 0
M  V30 656 C 59.7821 -4.17563 0.939414 0
M  V30 657 C 59.1081 -5.34438 0.167286 0
M  V30 658 C 60.4081 -4.70917 2.25908 0
M  V30 659 H 62.1021 -2.56753 1.54007 0
M  V30 660 H 59.6481 -1.23414 0.74195 0
M  V30 661 H 61.6011 -4.20572 -0.264082 0
M  V30 662 H 60.3251 -3.13907 -0.901664 0
M  V30 663 H 58.9841 -3.46186 1.20628 0
M  V30 664 H 58.6321 -4.97298 -0.7552 0
M  V30 665 H 58.3321 -5.82388 0.780901 0
M  V30 666 H 59.8561 -6.10504 -0.108125 0
M  V30 667 H 61.2701 -5.35882 2.03724 0
M  V30 668 H 59.6671 -5.29406 2.82577 0
M  V30 669 H 60.7371 -3.88272 2.9047 0
M  V30 670 N 62.0802 -0.821533 -1.34494 0
M  V30 671 C 62.9902 -0.244355 -2.33324 0
M  V30 672 C 64.0062 0.620527 -1.62559 0
M  V30 673 O 65.1822 0.528754 -1.94335 0
M  V30 674 C 62.2472 0.585368 -3.41723 0
M  V30 675 C 61.3082 -0.301752 -4.28238 0
M  V30 676 C 60.5412 0.488466 -5.3146 0
M  V30 677 O 60.7642 1.72186 -5.4379 0
M  V30 678 O 59.6982 -0.12848 -6.01763 0
M  V30 679 H 63.5242 -1.06231 -2.84515 0
M  V30 680 H 61.1092 -0.583645 -1.37528 0
M  V30 681 H 62.9912 1.05747 -4.07916 0
M  V30 682 H 61.6662 1.38068 -2.92778 0
M  V30 683 H 60.5732 -0.821315 -3.64973 0
M  V30 684 H 61.9062 -1.06138 -4.8062 0
M  V30 685 N 63.5583 1.46682 -0.576371 0
M  V30 686 C 64.7883 2.06498 -0.0648694 0
M  V30 687 C 65.1963 1.42665 1.24271 0
M  V30 688 O 64.5393 0.523886 1.76071 0
M  V30 689 C 64.6013 3.5904 0.181816 0
M  V30 690 C 64.2653 4.45028 -1.0392 0
M  V30 691 C 65.2623 4.81959 -1.94966 0
M  V30 692 C 62.9473 4.86259 -1.25927 0
M  V30 693 C 64.9413 5.58942 -3.06371 0
M  V30 694 C 62.6283 5.63002 -2.37638 0
M  V30 695 C 63.6263 5.99257 -3.2769 0
M  V30 696 O 63.3143 6.7445 -4.37461 0
M  V30 697 H 63.0463 0.674028 -0.0515987 0
M  V30 698 H 65.6003 1.89393 -0.794951 0
M  V30 699 H 63.8303 3.74429 0.966436 0
M  V30 700 H 65.5193 4.00806 0.641047 0
M  V30 701 H 66.2853 4.50689 -1.79177 0
M  V30 702 H 62.1643 4.57494 -0.567448 0
M  V30 703 H 65.7083 5.87158 -3.76684 0
M  V30 704 H 61.6053 5.93686 -2.53392 0
M  V30 705 H 62.3733 6.92867 -4.35749 0
M  V30 706 N 65.0364 0.313813 1.54444 0
M  V30 707 C 65.9844 -0.572171 2.25453 0
M  V30 708 C 66.9784 -1.12657 1.2651 0
M  V30 709 O 68.1844 -1.07573 1.44319 0
M  V30 710 H 64.5594 -0.203146 0.724041 0
M  V30 711 H 66.5304 0.0491145 2.9836 0
M  V30 712 C 65.2794 -1.72626 3.0182 0
M  V30 713 H 64.6024 -1.30891 3.77767 0
M  V30 714 H 66.0424 -2.32199 3.54767 0
M  V30 715 C 64.5014 -2.63806 2.09542 0
M  V30 716 O 65.0314 -3.65256 1.67185 0
M  V30 717 N 63.2374 -2.31824 1.75232 0
M  V30 718 H 62.7844 -1.49368 2.09873 0
M  V30 719 H 62.7424 -2.93095 1.13767 0
M  V30 720 N 66.5145 -1.57545 0.0417849 0
M  V30 721 C 67.4625 -2.12148 -0.953723 0
M  V30 722 C 68.4565 -1.05104 -1.32852 0
M  V30 723 O 69.6625 -1.23524 -1.30927 0
M  V30 724 H 66.0375 -0.677957 -0.325389 0
M  V30 725 H 68.0085 -2.94707 -0.467991 0
M  V30 726 C 66.7575 -2.6739 -2.22257 0
M  V30 727 H 66.0805 -3.49413 -1.94295 0
M  V30 728 H 67.5205 -3.09227 -2.90094 0
M  V30 729 C 65.9795 -1.60723 -2.96091 0
M  V30 730 O 66.5095 -1.01449 -3.88679 0
M  V30 731 N 64.7155 -1.32466 -2.58652 0
M  V30 732 H 64.2625 -1.80856 -1.83437 0
M  V30 733 H 64.2205 -0.61325 -3.08361 0
M  V30 734 N 67.9926 0.231505 -1.5589 0
M  V30 735 C 69.2226 0.973092 -1.82248 0
M  V30 736 C 69.6306 1.78845 -0.617328 0
M  V30 737 O 68.9736 1.78752 0.423499 0
M  V30 738 C 69.0356 1.94732 -3.02192 0
M  V30 739 C 68.6996 1.31743 -4.37599 0
M  V30 740 C 69.6966 0.712238 -5.14998 0
M  V30 741 C 67.3816 1.33218 -4.84312 0
M  V30 742 C 69.3756 0.130195 -6.37267 0
M  V30 743 C 67.0626 0.746286 -6.06526 0
M  V30 744 C 68.0606 0.146337 -6.82843 0
M  V30 745 O 67.7486 -0.430465 -8.02747 0
M  V30 746 H 67.4806 0.29125 -0.61004 0
M  V30 747 H 70.0346 0.254915 -2.03812 0
M  V30 748 H 68.2646 2.70422 -2.76422 0
M  V30 749 H 69.9536 2.55362 -3.15508 0
M  V30 750 H 70.7196 0.69324 -4.8002 0
M  V30 751 H 66.5986 1.78854 -4.24891 0
M  V30 752 H 70.1426 -0.33871 -6.96777 0
M  V30 753 H 66.0396 0.762663 -6.40979 0
M  V30 754 H 66.8076 -0.323818 -8.17859 0
M  V30 755 N 69.4707 1.49531 0.497807 0
M  V30 756 C 70.7187 1.58865 1.24926 0
M  V30 757 C 71.0397 0.278721 1.92998 0
M  V30 758 O 70.3097 -0.702144 1.82885 0
M  V30 759 H 68.8897 0.585343 0.464094 0
M  V30 760 H 71.5517 1.86174 0.57666 0
M  V30 761 H 70.6477 2.38633 2.01149 0
M  V30 762 N 70.9488 -0.749086 1.3866 0
M  V30 763 C 72.1888 -1.52112 1.36534 0
M  V30 764 C 72.5528 -1.91951 -0.0432316 0
M  V30 765 O 73.7538 -2.68132 -0.189396 0
M  V30 766 C 72.0248 -2.73704 2.29828 0
M  V30 767 S 73.5838 -3.63519 2.45763 0
M  V30 768 H 70.4018 -0.520482 0.484375 0
M  V30 769 H 73.0038 -0.878963 1.74627 0
M  V30 770 H 71.7078 -2.42552 3.31054 0
M  V30 771 H 71.2388 -3.4286 1.929 0
M  V30 772 H 73.2538 -4.66712 1.68505 0
M  V30 773 N 72.4269 -1.23603 -0.977757 0
M  V30 774 C 73.6569 -1.09487 -1.75203 0
M  V30 775 C 74.0649 0.356321 -1.85814 0
M  V30 776 O 73.4079 1.25816 -1.33851 0
M  V30 777 C 73.4699 -1.64905 -3.19447 0
M  V30 778 C 73.1339 -3.13688 -3.32338 0
M  V30 779 C 74.1309 -4.10953 -3.18455 0
M  V30 780 C 71.8159 -3.53449 -3.56902 0
M  V30 781 C 73.8099 -5.45962 -3.28944 0
M  V30 782 C 71.4969 -4.88602 -3.6703 0
M  V30 783 C 72.4949 -5.84668 -3.53062 0
M  V30 784 O 72.1829 -7.17365 -3.62826 0
M  V30 785 H 71.9149 -0.38367 -0.556573 0
M  V30 786 H 74.4689 -1.6398 -1.23693 0
M  V30 787 H 72.6989 -1.04835 -3.72218 0
M  V30 788 H 74.3879 -1.46226 -3.78646 0
M  V30 789 H 75.1539 -3.81577 -2.99372 0
M  V30 790 H 71.0329 -2.79188 -3.66844 0
M  V30 791 H 74.5769 -6.20925 -3.17958 0
M  V30 792 H 70.4739 -5.17653 -3.85623 0
M  V30 793 H 71.2419 -7.2515 -3.79605 0
M  V30 794 N 73.905 1.17692 -1.04816 0
M  V30 795 C 75.145 1.89545 -0.764979 0
M  V30 796 C 75.509 1.78979 0.695028 0
M  V30 797 O 76.71 2.45613 1.09215 0
M  V30 798 C 74.981 3.35659 -1.22751 0
M  V30 799 S 76.54 4.25526 -1.07112 0
M  V30 800 H 73.358 0.654432 -0.27792 0
M  V30 801 H 75.96 1.42163 -1.34201 0
M  V30 802 H 74.664 3.40882 -2.28533 0
M  V30 803 H 74.195 3.88083 -0.644594 0
M  V30 804 H 76.21 4.962 0.00697508 0
M  V30 805 N 75.3831 0.828654 1.34056 0
M  V30 806 C 76.6311 0.41863 1.97717 0
M  V30 807 C 76.9521 -1.02314 1.66002 0
M  V30 808 O 76.2221 -1.71119 0.953683 0
M  V30 809 H 74.8021 0.151809 0.731412 0
M  V30 810 H 77.4641 1.05936 1.63596 0
M  V30 811 H 76.5601 0.542318 3.07352 0
M  V30 812 N 76.8612 -1.46375 0.584142 0
M  V30 813 C 77.7912 -2.33103 -0.136037 0
M  V30 814 C 78.7722 -1.45431 -0.882255 0
M  V30 815 O 79.9572 -1.74246 -0.857434 0
M  V30 816 C 77.0872 -3.27731 -1.14933 0
M  V30 817 C 76.0412 -4.24855 -0.517862 0
M  V30 818 C 75.3672 -5.09001 -1.63773 0
M  V30 819 C 76.6672 -5.19439 0.545886 0
M  V30 820 H 78.3612 -2.93568 0.588086 0
M  V30 821 H 75.9072 -1.41166 0.284259 0
M  V30 822 H 77.8602 -3.87261 -1.66153 0
M  V30 823 H 76.5842 -2.65377 -1.90375 0
M  V30 824 H 75.2432 -3.6659 -0.0267361 0
M  V30 825 H 74.8912 -4.43031 -2.38185 0
M  V30 826 H 74.5912 -5.74777 -1.22085 0
M  V30 827 H 76.1152 -5.71396 -2.15266 0
M  V30 828 H 77.5292 -5.73177 0.118704 0
M  V30 829 H 75.9262 -5.93566 0.88317 0
M  V30 830 H 76.9962 -4.63285 1.43162 0
M  V30 831 N 78.3393 -0.321999 -1.54275 0
M  V30 832 C 79.5873 0.280489 -2.00144 0
M  V30 833 C 79.9083 1.52777 -1.21178 0
M  V30 834 O 79.1783 1.9338 -0.313187 0
M  V30 835 H 77.7583 0.106632 -0.73935 0
M  V30 836 H 80.4203 -0.438184 -1.8991 0
M  V30 837 H 79.5163 0.537972 -3.07428 0
M  V30 838 N 79.8174 1.5752 -0.0501392 0
M  V30 839 C 81.0654 1.9227 0.622642 0
M  V30 840 C 81.3864 0.929083 1.71444 0
M  V30 841 O 80.6564 -0.0262186 1.95882 0
M  V30 842 H 79.2364 0.709739 0.232981 0
M  V30 843 H 81.8984 1.94628 -0.102898 0
M  V30 844 H 80.9944 2.93479 1.06191 0
M  V30 845 N 81.2955 -0.223234 1.56011 0
M  V30 846 C 82.5205 -0.968978 1.83373 0
M  V30 847 C 82.9455 -1.77227 0.630254 0
M  V30 848 O 82.3035 -1.76345 -0.420959 0
M  V30 849 C 82.3515 -1.86363 3.08709 0
M  V30 850 O 81.4555 -2.95873 2.87285 0
M  V30 851 H 80.7965 -0.274461 0.604622 0
M  V30 852 H 83.3265 -0.237056 2.03222 0
M  V30 853 H 83.3365 -2.27376 3.38768 0
M  V30 854 H 82.0115 -1.27319 3.95933 0
M  V30 855 H 80.5885 -2.58818 2.68454 0
M  V30 856 N 82.7736 -1.49793 -0.48987 0
M  V30 857 C 84.0216 -1.59525 -1.24081 0
M  V30 858 C 84.3426 -0.288953 -1.92847 0
M  V30 859 O 83.6126 0.692436 -1.83254 0
M  V30 860 H 82.1926 -0.587796 -0.460983 0
M  V30 861 H 84.8546 -1.86477 -0.566778 0
M  V30 862 H 83.9506 -2.39696 -1.99881 0
M  V30 863 N 84.2517 0.741722 -1.39055 0
M  V30 864 C 85.4797 1.53098 -1.39171 0
M  V30 865 C 85.8947 1.88794 0.0155099 0
M  V30 866 O 85.2517 1.53626 0.985159 0
M  V30 867 C 85.3027 2.82274 -2.2584 0
M  V30 868 O 85.0237 2.48097 -3.61081 0
M  V30 869 C 86.5247 3.76343 -2.34266 0
M  V30 870 H 83.7447 0.473335 -0.4756 0
M  V30 871 H 86.2887 0.917045 -1.82785 0
M  V30 872 H 84.4437 3.40015 -1.85656 0
M  V30 873 H 84.8577 3.31029 -4.06842 0
M  V30 874 H 86.3317 4.63898 -2.9917 0
M  V30 875 H 86.8087 4.17619 -1.35982 0
M  V30 876 H 87.4147 3.24523 -2.74891 0
M  V30 877 N 85.7298 1.2412 0.971189 0
M  V30 878 C 87.1408 1.07236 1.52831 0
M  V30 879 C 87.4918 -0.357352 1.92918 0
M  V30 880 O 86.6168 -1.24528 1.76979 0
M  V30 881 C 87.2118 1.94043 2.77728 0
M  V30 882 C 85.7708 1.81394 3.29808 0
M  V30 883 C 84.9178 1.89189 2.02738 0
M  V30 884 H 87.8688 1.37648 0.789864 0
M  V30 885 H 87.8898 1.47066 3.5093 0
M  V30 886 H 87.4018 2.98093 2.4852 0
M  V30 887 H 85.5028 0.801634 3.63874 0
M  V30 888 H 85.6158 2.65294 3.98944 0
M  V30 889 H 83.9798 1.32877 2.17292 0
M  V30 890 H 84.7628 2.94812 1.759 0
M  V30 891 N 87.2079 -1.17134 1.05439 0
M  V30 892 C 88.4539 -1.87733 0.767077 0
M  V30 893 C 88.7869 -1.8098 -0.704253 0
M  V30 894 O 88.0619 -1.21951 -1.5152 0
M  V30 895 C 88.3449 -3.37659 1.25133 0
M  V30 896 C 88.1979 -3.53149 2.78578 0
M  V30 897 C 89.5169 -4.31768 0.852324 0
M  V30 898 H 86.6359 -0.681687 0.280129 0
M  V30 899 H 89.2779 -1.37732 1.30881 0
M  V30 900 H 87.4279 -3.80373 0.790469 0
M  V30 901 H 89.0999 -3.19434 3.32806 0
M  V30 902 H 87.3429 -2.95345 3.17732 0
M  V30 903 H 88.0139 -4.58403 3.07523 0
M  V30 904 H 90.4899 -3.96909 1.24911 0
M  V30 905 H 89.3659 -5.35199 1.21873 0
M  V30 906 H 89.6269 -4.41429 -0.243485 0
M  V30 907 N 88.686 -0.835752 -1.33615 0
M  V30 908 C 89.963 -0.352017 -1.92406 0
M  V30 909 C 90.343 1.16225 -1.76224 0
M  V30 910 O 89.691 1.97526 -1.14873 0
M  V30 911 C 89.901 -0.795485 -3.39813 0
M  V30 912 C 91.249 -0.801703 -4.16963 0
M  V30 913 O 92.273 -0.738889 -3.48452 0
M  V30 914 O 91.132 -0.886607 -5.3926 0
M  V30 915 H 88.226 -0.0989641 -0.821057 0
M  V30 916 H 90.772 -0.921397 -1.42507 0
M  V30 917 H 89.544 -1.83795 -3.45449 0
M  V30 918 H 89.167 -0.202505 -3.97084 0
M  V30 919 N 90.1641 1.46063 -0.591896 0
M  V30 920 C 91.0741 2.34192 0.13831 0
M  V30 921 C 92.0901 1.50305 0.876608 0
M  V30 922 O 93.2661 1.8315 0.837728 0
M  V30 923 C 90.3311 3.27656 1.13326 0
M  V30 924 C 89.3921 4.27445 0.39863 0
M  V30 925 C 88.6251 5.16443 1.34618 0
M  V30 926 O 88.8481 5.08553 2.58321 0
M  V30 927 O 87.7821 5.95843 0.851768 0
M  V30 928 H 91.6081 2.98002 -0.58552 0
M  V30 929 H 89.1931 1.45188 -0.352239 0
M  V30 930 H 91.0751 3.85291 1.70671 0
M  V30 931 H 89.7501 2.6643 1.83839 0
M  V30 932 H 88.6571 3.73471 -0.216895 0
M  V30 933 H 89.9901 4.91482 -0.265709 0
M  V30 934 N 91.6422 0.330177 1.54103 0
M  V30 935 C 92.5722 -0.525353 2.27513 0
M  V30 936 C 93.5532 -1.11383 1.2856 0
M  V30 937 O 94.7382 -1.13773 1.57383 0
M  V30 938 C 91.8682 -1.6831 3.03791 0
M  V30 939 C 90.8222 -1.2236 4.10137 0
M  V30 940 C 90.1482 -2.46882 4.74293 0
M  V30 941 C 91.4482 -0.333697 5.21233 0
M  V30 942 H 93.1422 0.087013 2.99274 0
M  V30 943 H 90.6882 0.0432893 1.43935 0
M  V30 944 H 92.6412 -2.28795 3.5388 0
M  V30 945 H 91.3652 -2.32216 2.29659 0
M  V30 946 H 90.0242 -0.64165 3.60941 0
M  V30 947 H 89.6722 -3.09165 3.96769 0
M  V30 948 H 89.3722 -2.16825 5.46133 0
M  V30 949 H 90.8962 -3.08117 5.27159 0
M  V30 950 H 92.3102 -0.845013 5.67038 0
M  V30 951 H 90.7072 -0.125612 5.99969 0
M  V30 952 H 91.7772 0.633724 4.80741 0
M  V30 953 N 93.1203 -1.57491 0.0584922 0
M  V30 954 C 94.3973 -1.84346 -0.653918 0
M  V30 955 C 94.7773 -0.948355 -1.88599 0
M  V30 956 O 94.1253 -0.0112403 -2.28497 0
M  V30 957 C 94.3353 -3.34239 -1.00425 0
M  V30 958 C 95.6833 -4.01431 -1.38342 0
M  V30 959 O 96.7073 -3.38907 -1.09637 0
M  V30 960 O 95.5663 -5.11683 -1.91943 0
M  V30 961 H 92.6603 -0.761112 -0.323478 0
M  V30 962 H 95.2063 -1.6947 0.0884125 0
M  V30 963 H 93.9783 -3.91089 -0.128625 0
M  V30 964 H 93.6013 -3.54329 -1.80378 0
M  V30 965 N 94.5984 0.214957 -1.56127 0
M  V30 966 C 95.5454 1.26642 -1.92952 0
M  V30 967 C 96.5154 1.46244 -0.78753 0
M  V30 968 O 97.7004 1.59704 -1.04399 0
M  V30 969 C 94.8404 2.6104 -2.25726 0
M  V30 970 C 93.9534 2.49183 -3.52891 0
M  V30 971 C 93.0884 3.76149 -3.7508 0
M  V30 972 C 92.1274 3.59041 -4.95738 0
M  V30 973 N 91.2644 4.77972 -5.14283 0
M  V30 974 H 96.1044 0.945384 -2.82607 0
M  V30 975 H 93.6414 0.455489 -1.3987 0
M  V30 976 H 95.5994 3.39313 -2.42739 0
M  V30 977 H 94.2294 2.91227 -1.39236 0
M  V30 978 H 93.2814 1.6231 -3.44034 0
M  V30 979 H 94.5934 2.32466 -4.41318 0
M  V30 980 H 93.7474 4.62865 -3.92226 0
M  V30 981 H 92.4864 3.95799 -2.84947 0
M  V30 982 H 91.4914 2.7071 -4.78535 0
M  V30 983 H 92.7164 3.40856 -5.87362 0
M  V30 984 H 90.6624 4.97923 -4.27093 0
M  V30 985 H 90.5794 4.64006 -5.96853 0
M  V30 986 H 91.8474 5.66096 -5.35869 0
M  V30 987 N 96.0765 1.50051 0.48192 0
M  V30 988 C 97.3165 1.62128 1.24474 0
M  V30 989 C 97.6805 0.309742 1.89485 0
M  V30 990 O 98.8815 0.305854 2.67054 0
M  V30 991 C 97.1525 2.76151 2.26882 0
M  V30 992 S 98.7115 3.08297 3.12247 0
M  V30 993 H 95.5295 0.571661 0.422759 0
M  V30 994 H 98.1315 1.87791 0.54359 0
M  V30 995 H 96.8355 3.69942 1.77683 0
M  V30 996 H 96.3665 2.52541 3.0164 0
M  V30 997 H 98.3815 2.51287 4.27866 0
M  V30 998 N 97.5546 -0.734337 1.39446 0
M  V30 999 C 98.7946 -1.50655 1.38139 0
M  V30 1000 C 99.1586 -1.91986 -0.0228701 0
M  V30 1001 O 100.36 -2.68318 -0.160947 0
M  V30 1002 C 98.6306 -2.71251 2.32718 0
M  V30 1003 S 100.19 -3.60892 2.49605 0
M  V30 1004 H 97.0076 -0.515315 0.489869 0
M  V30 1005 H 99.6096 -0.860392 1.75549 0
M  V30 1006 H 98.3136 -2.39027 3.33608 0
M  V30 1007 H 97.8446 -3.40795 1.96526 0
M  V30 1008 H 99.8596 -4.64899 1.73446 0
M  V30 1009 N 99.0327 -1.24633 -0.964593 0
M  V30 1010 C 99.9647 -0.999302 -2.06268 0
M  V30 1011 C 100.978 0.0323226 -1.62768 0
M  V30 1012 O 102.167 -0.205079 -1.77318 0
M  V30 1013 C 99.2667 -0.486816 -3.35385 0
M  V30 1014 C 98.4397 -1.5823 -4.07777 0
M  V30 1015 C 97.4987 -1.07191 -5.15166 0
M  V30 1016 O 96.5247 -1.76426 -5.41168 0
M  V30 1017 N 97.7267 0.0920373 -5.80427 0
M  V30 1018 H 100.492 -1.94477 -2.28033 0
M  V30 1019 H 98.0527 -1.15704 -1.13244 0
M  V30 1020 H 100.045 -0.130066 -4.04491 0
M  V30 1021 H 98.6147 0.364459 -3.10468 0
M  V30 1022 H 97.8347 -2.11109 -3.32906 0
M  V30 1023 H 99.1227 -2.31854 -4.52903 0
M  V30 1024 H 98.5207 0.670784 -5.61709 0
M  V30 1025 H 97.0777 0.389905 -6.50633 0
M  V30 1026 N 100.511 1.16574 -1.06058 0
M  V30 1027 C 101.739 1.90952 -0.796552 0
M  V30 1028 C 102.154 1.77302 0.648808 0
M  V30 1029 O 101.511 1.11605 1.44397 0
M  V30 1030 C 101.562 3.41736 -1.17894 0
M  V30 1031 O 101.283 3.54975 -2.56758 0
M  V30 1032 C 102.784 4.33169 -0.942308 0
M  V30 1033 H 100.004 0.605594 -0.288959 0
M  V30 1034 H 102.548 1.47777 -1.41358 0
M  V30 1035 H 100.703 3.82623 -0.606491 0
M  V30 1036 H 101.117 4.4846 -2.72 0
M  V30 1037 H 102.591 5.37439 -1.25952 0
M  V30 1038 H 103.068 4.3903 0.122078 0
M  V30 1039 H 103.674 3.98007 -1.49902 0
M  V30 1040 N 101.989 0.842826 1.3317 0
M  V30 1041 C 102.939 0.250877 2.26616 0
M  V30 1042 C 103.923 -0.596427 1.49437 0
M  V30 1043 O 105.115 -0.447747 1.71243 0
M  V30 1044 C 102.244 -0.569779 3.38539 0
M  V30 1045 C 101.33 0.289254 4.23112 0
M  V30 1046 N 101.721 1.36987 4.86897 0
M  V30 1047 C 100.019 0.0769631 4.45934 0
M  V30 1048 C 100.72 1.89737 5.49886 0
M  V30 1049 N 99.6959 1.19827 5.30229 0
M  V30 1050 H 103.498 1.07718 2.73448 0
M  V30 1051 H 101.012 0.687693 1.47121 0
M  V30 1052 H 103.009 -1.01018 4.04476 0
M  V30 1053 H 101.669 -1.39401 2.93253 0
M  V30 1054 H 102.68 1.75277 4.87338 0
M  V30 1055 H 99.3569 -0.713507 4.11358 0
M  V30 1056 H 100.747 2.80253 6.10662 0
M  V30 1057 N 103.467 -1.45747 0.599634 0
M  V30 1058 C 104.744 -1.95585 0.0240846 0
M  V30 1059 C 105.124 -1.54217 -1.44154 0
M  V30 1060 O 104.472 -0.800903 -2.14004 0
M  V30 1061 C 104.682 -3.48344 0.21385 0
M  V30 1062 C 106.03 -4.24504 0.0904902 0
M  V30 1063 O 107.054 -3.55911 0.143558 0
M  V30 1064 O 105.913 -5.46491 -0.0310766 0
M  V30 1065 H 103.007 -0.82602 -0.0402478 0
M  V30 1066 H 105.553 -1.55951 0.669139 0
M  V30 1067 H 104.325 -3.71397 1.23206 0
M  V30 1068 H 103.948 -3.9485 -0.466842 0
M  V30 1069 N 104.945 -0.338344 -1.53925 0
M  V30 1070 C 105.893 0.536231 -2.26335 0
M  V30 1071 C 106.887 1.1063 -1.28286 0
M  V30 1072 O 108.093 1.05264 -1.46012 0
M  V30 1073 H 104.468 0.191602 -0.727181 0
M  V30 1074 H 106.439 -0.0965747 -2.98244 0
M  V30 1075 C 105.188 1.67803 -3.04528 0
M  V30 1076 H 104.511 1.24864 -3.79801 0
M  V30 1077 H 105.951 2.26526 -3.58416 0
M  V30 1078 C 104.41 2.60439 -2.13712 0
M  V30 1079 O 104.94 3.6255 -1.72975 0
M  V30 1080 N 103.146 2.29006 -1.78898 0
M  V30 1081 H 102.693 1.46011 -2.12223 0
M  V30 1082 H 102.651 2.91248 -1.18416 0
M  V30 1083 N 106.423 1.57458 -0.0668435 0
M  V30 1084 C 107.663 1.95175 0.607116 0
M  V30 1085 C 108.027 0.946039 1.67075 0
M  V30 1086 O 109.228 1.2107 2.39991 0
M  V30 1087 C 107.499 3.37582 1.17358 0
M  V30 1088 S 109.058 3.97271 1.86336 0
M  V30 1089 H 105.876 0.682604 0.19893 0
M  V30 1090 H 108.478 1.95002 -0.139519 0
M  V30 1091 H 107.182 4.08566 0.387553 0
M  V30 1092 H 106.713 3.41288 1.95669 0
M  V30 1093 H 108.728 3.83772 3.14537 0
M  V30 1094 N 107.901 -0.206675 1.56239 0
M  V30 1095 C 109.131 -0.943975 1.83773 0
M  V30 1096 C 109.539 -1.77841 0.645703 0
M  V30 1097 O 108.882 -1.79403 -0.395008 0
M  V30 1098 C 108.944 -1.899 3.05251 0
M  V30 1099 C 108.608 -1.24764 4.39639 0
M  V30 1100 C 109.605 -0.630216 5.16066 0
M  V30 1101 C 107.29 -1.25496 4.8637 0
M  V30 1102 C 109.284 -0.0287946 6.37393 0
M  V30 1103 C 106.971 -0.649698 6.07637 0
M  V30 1104 C 107.969 -0.0376845 6.8299 0
M  V30 1105 O 107.657 0.55812 8.0196 0
M  V30 1106 H 107.389 -0.281508 0.614597 0
M  V30 1107 H 109.943 -0.222458 2.04192 0
M  V30 1108 H 108.173 -2.6599 2.80689 0
M  V30 1109 H 109.862 -2.5031 3.1953 0
M  V30 1110 H 110.628 -0.616785 4.81062 0
M  V30 1111 H 106.507 -1.72072 4.27683 0
M  V30 1112 H 110.051 0.449518 6.9615 0
M  V30 1113 H 105.948 -0.660592 6.42111 0
M  V30 1114 H 106.716 0.453891 8.17241 0
M  V30 1115 N 109.379 -1.50304 -0.473955 0
M  V30 1116 C 110.656 -1.51667 -1.23518 0
M  V30 1117 C 111.036 -0.259701 -2.09496 0
M  V30 1118 O 110.384 0.756986 -2.15597 0
M  V30 1119 C 110.594 -2.81082 -2.06868 0
M  V30 1120 C 111.942 -3.31631 -2.65153 0
M  V30 1121 O 112.966 -2.82384 -2.17113 0
M  V30 1122 O 111.825 -4.17471 -3.52675 0
M  V30 1123 H 108.919 -0.60822 -0.560355 0
M  V30 1124 H 111.465 -1.62592 -0.486011 0
M  V30 1125 H 110.237 -3.64041 -1.4349 0
M  V30 1126 H 109.86 -2.73146 -2.88924 0
M  V30 1127 N 110.857 0.726932 -1.39834 0
M  V30 1128 C 111.789 1.85147 -1.35104 0
M  V30 1129 C 112.802 1.60736 -0.258392 0
M  V30 1130 O 113.991 1.70821 -0.517931 0
M  V30 1131 C 111.091 3.21332 -1.07697 0
M  V30 1132 C 110.264 3.73033 -2.28396 0
M  V30 1133 C 109.323 4.87802 -1.97322 0
M  V30 1134 O 108.349 5.01043 -2.70083 0
M  V30 1135 N 109.551 5.72768 -0.944273 0
M  V30 1136 H 112.316 1.89706 -2.32017 0
M  V30 1137 H 109.877 0.908006 -1.3404 0
M  V30 1138 H 111.869 3.95691 -0.849144 0
M  V30 1139 H 110.439 3.11992 -0.194909 0
M  V30 1140 H 109.659 2.89934 -2.6708 0
M  V30 1141 H 110.947 4.0431 -3.08887 0
M  V30 1142 H 110.345 5.64669 -0.341427 0
M  V30 1143 H 108.902 6.4716 -0.776346 0
M  V30 1144 N 112.336 1.25143 0.95797 0
M  V30 1145 C 113.299 1.05321 2.03569 0
M  V30 1146 C 114.299 0.007152 1.60798 0
M  V30 1147 O 115.489 0.24903 1.72411 0
M  V30 1148 C 112.621 0.598394 3.35607 0
M  V30 1149 H 113.814 2.00986 2.22586 0
M  V30 1150 H 111.367 1.07502 1.13459 0
M  V30 1151 H 112.102 -0.361014 3.22284 0
M  V30 1152 H 111.887 1.35351 3.67998 0
M  V30 1153 H 113.377 0.48104 4.1482 0
M  V30 1154 N 113.814 -1.1601 1.06675 0
M  V30 1155 C 114.761 -2.20525 0.680967 0
M  V30 1156 C 115.731 -1.62904 -0.324283 0
M  V30 1157 O 116.916 -1.89615 -0.212294 0
M  V30 1158 C 114.056 -3.45013 0.0776551 0
M  V30 1159 C 113.169 -4.16863 1.13355 0
M  V30 1160 C 112.304 -5.2888 0.49597 0
M  V30 1161 C 111.343 -5.92537 1.53513 0
M  V30 1162 N 110.48 -6.96038 0.920631 0
M  V30 1163 H 115.32 -2.52876 1.57663 0
M  V30 1164 H 112.857 -1.24199 0.788223 0
M  V30 1165 H 114.815 -4.16193 -0.289704 0
M  V30 1166 H 113.445 -3.132 -0.781393 0
M  V30 1167 H 112.497 -3.44248 1.61857 0
M  V30 1168 H 113.809 -4.60294 1.92174 0
M  V30 1169 H 112.963 -6.06653 0.0758604 0
M  V30 1170 H 111.702 -4.86622 -0.324062 0
M  V30 1171 H 110.707 -5.13482 1.9651 0
M  V30 1172 H 111.932 -6.36873 2.35733 0
M  V30 1173 H 109.878 -6.55888 0.12138 0
M  V30 1174 H 109.795 -7.3786 1.64616 0
M  V30 1175 H 111.063 -7.77725 0.525795 0
M  V30 1176 N 115.292 -0.849877 -1.32721 0
M  V30 1177 C 116.239 -0.289033 -2.28983 0
M  V30 1178 C 117.209 0.601324 -1.54833 0
M  V30 1179 O 118.394 0.537253 -1.8308 0
M  V30 1180 C 115.534 0.520623 -3.4115 0
M  V30 1181 C 114.647 -0.394989 -4.3019 0
M  V30 1182 C 113.782 0.426834 -5.29482 0
M  V30 1183 C 112.821 -0.486476 -6.10164 0
M  V30 1184 N 111.958 0.297879 -7.01468 0
M  V30 1185 H 116.798 -1.11519 -2.76347 0
M  V30 1186 H 114.335 -0.56138 -1.35967 0
M  V30 1187 H 116.293 1.00563 -4.04899 0
M  V30 1188 H 114.923 1.31165 -2.9495 0
M  V30 1189 H 113.975 -0.99836 -3.67065 0
M  V30 1190 H 115.287 -1.09612 -4.86607 0
M  V30 1191 H 114.441 0.975205 -5.98811 0
M  V30 1192 H 113.18 1.16136 -4.73671 0
M  V30 1193 H 112.185 -1.04677 -5.39743 0
M  V30 1194 H 113.41 -1.21953 -6.6806 0
M  V30 1195 H 111.356 1.01558 -6.48091 0
M  V30 1196 H 111.273 -0.344318 -7.55216 0
M  V30 1197 H 112.541 0.828131 -7.75089 0
M  V30 1198 N 116.77 1.45427 -0.607355 0
M  V30 1199 C 117.7 2.3329 0.0989352 0
M  V30 1200 C 118.681 1.46816 0.859007 0
M  V30 1201 O 119.866 1.75588 0.829604 0
M  V30 1202 C 116.996 3.29518 1.09705 0
M  V30 1203 C 115.95 4.25626 0.450206 0
M  V30 1204 C 115.276 5.11542 1.55655 0
M  V30 1205 C 116.576 5.18505 -0.628455 0
M  V30 1206 H 118.27 2.92595 -0.634716 0
M  V30 1207 H 115.816 1.40696 -0.306681 0
M  V30 1208 H 117.769 3.89855 1.59971 0
M  V30 1209 H 116.493 2.68372 1.86129 0
M  V30 1210 H 115.152 3.66586 -0.0315886 0
M  V30 1211 H 114.8 4.46765 2.31107 0
M  V30 1212 H 114.5 5.76647 1.12925 0
M  V30 1213 H 116.024 5.74748 2.06148 0
M  V30 1214 H 117.438 5.72916 -0.209877 0
M  V30 1215 H 115.835 5.92085 -0.977489 0
M  V30 1216 H 116.905 4.60948 -1.50514 0
M  V30 1217 N 118.248 0.346503 1.53744 0
M  V30 1218 C 119.525 -0.304532 1.93215 0
M  V30 1219 C 119.905 -1.67993 1.27834 0
M  V30 1220 O 119.253 -2.24411 0.430352 0
M  V30 1221 C 119.463 -0.373852 3.46992 0
M  V30 1222 C 120.811 -0.62329 4.2 0
M  V30 1223 O 121.835 -0.455847 3.53271 0
M  V30 1224 O 120.694 -0.947879 5.38217 0
M  V30 1225 H 117.788 -0.178318 0.807547 0
M  V30 1226 H 120.334 0.397895 1.64969 0
M  V30 1227 H 119.106 0.591224 3.86808 0
M  V30 1228 H 118.729 -1.12294 3.81413 0
M  V30 1229 N 119.726 -1.57421 0.075193 0
M  V30 1230 C 120.951 -1.98364 -0.605515 0
M  V30 1231 C 121.376 -0.953383 -1.62149 0
M  V30 1232 O 120.734 0.0806053 -1.81121 0
M  V30 1233 C 120.782 -3.38332 -1.24756 0
M  V30 1234 O 119.886 -3.37959 -2.36342 0
M  V30 1235 H 119.227 -0.645553 -0.155428 0
M  V30 1236 H 121.757 -2.04044 0.150714 0
M  V30 1237 H 121.767 -3.75591 -1.5936 0
M  V30 1238 H 120.442 -4.12846 -0.503129 0
M  V30 1239 H 119.019 -3.12474 -2.03506 0
M  V30 1240 N 121.204 0.198386 -1.56346 0
M  V30 1241 C 122.444 0.92609 -1.82217 0
M  V30 1242 C 122.808 1.80584 -0.652195 0
M  V30 1243 O 124.009 2.56907 -0.790716 0
M  V30 1244 C 122.28 1.72354 -3.13096 0
M  V30 1245 S 123.839 2.50371 -3.6036 0
M  V30 1246 H 120.657 0.310677 -0.639532 0
M  V30 1247 H 123.259 0.189755 -1.94577 0
M  V30 1248 H 121.963 1.0678 -3.96265 0
M  V30 1249 H 121.494 2.50175 -3.03605 0
M  V30 1250 H 123.509 3.74488 -3.25535 0
M  V30 1251 N 122.682 1.50554 0.465978 0
M  V30 1252 C 123.629 1.6979 1.56333 0
M  V30 1253 C 124.599 0.539239 1.57103 0
M  V30 1254 O 125.784 0.770401 1.74555 0
M  V30 1255 C 122.924 1.80273 2.94271 0
M  V30 1256 C 122.037 3.07674 3.0325 0
M  V30 1257 C 121.172 3.08922 4.32135 0
M  V30 1258 C 120.211 4.30755 4.34875 0
M  V30 1259 N 119.348 4.29714 5.55239 0
M  V30 1260 H 124.188 2.63472 1.39235 0
M  V30 1261 H 121.725 1.30602 0.676873 0
M  V30 1262 H 123.683 1.84332 3.74269 0
M  V30 1263 H 122.313 0.900258 3.09992 0
M  V30 1264 H 121.365 3.13062 2.16094 0
M  V30 1265 H 122.677 3.97642 3.01135 0
M  V30 1266 H 121.831 3.11738 5.20485 0
M  V30 1267 H 120.57 2.16792 4.36866 0
M  V30 1268 H 119.575 4.28146 3.44922 0
M  V30 1269 H 120.8 5.24117 4.31831 0
M  V30 1270 H 118.746 3.4044 5.60746 0
M  V30 1271 H 118.663 5.13456 5.54886 0
M  V30 1272 H 119.931 4.36683 6.457 0
M  V30 1273 N 124.16 -0.719506 1.40217 0
M  V30 1274 C 125.407 -1.47933 1.38283 0
M  V30 1275 C 125.735 -1.94493 -0.0161536 0
M  V30 1276 O 124.99 -1.68224 -0.999956 0
M  V30 1277 C 125.289 -2.72271 2.31524 0
M  V30 1278 C 124.955 -2.44496 3.78857 0
M  V30 1279 C 123.617 -2.36631 4.18998 0
M  V30 1280 C 125.969 -2.21104 4.71977 0
M  V30 1281 C 123.297 -2.03437 5.503 0
M  V30 1282 C 125.649 -1.89423 6.03574 0
M  V30 1283 C 124.313 -1.80038 6.42762 0
M  V30 1284 H 123.583 -0.541325 0.506012 0
M  V30 1285 H 126.23 -0.824502 1.72842 0
M  V30 1286 H 124.535 -3.42572 1.90137 0
M  V30 1287 H 126.232 -3.30348 2.27313 0
M  V30 1288 H 122.822 -2.51503 3.47051 0
M  V30 1289 H 127.006 -2.26139 4.41786 0
M  V30 1290 H 122.262 -1.94705 5.79569 0
M  V30 1291 H 126.436 -1.70336 6.75247 0
M  V30 1292 H 124.063 -1.54083 7.44421 0
M  V30 1293 N 125.638 -1.25649 -0.95132 0
M  V30 1294 C 126.568 -1.08808 -2.06599 0
M  V30 1295 C 127.549 0.00382547 -1.701 0
M  V30 1296 O 128.734 -0.166325 -1.93486 0
M  V30 1297 C 125.864 -0.709542 -3.39975 0
M  V30 1298 C 124.818 -1.75206 -3.90496 0
M  V30 1299 C 124.144 -1.22811 -5.20405 0
M  V30 1300 C 125.444 -3.15153 -4.16504 0
M  V30 1301 H 127.138 -2.02048 -2.20946 0
M  V30 1302 H 124.684 -0.972835 -1.06169 0
M  V30 1303 H 126.637 -0.578649 -4.17408 0
M  V30 1304 H 125.361 0.258556 -3.25575 0
M  V30 1305 H 124.02 -1.87145 -3.15234 0
M  V30 1306 H 123.668 -0.250145 -5.02378 0
M  V30 1307 H 123.368 -1.92492 -5.55176 0
M  V30 1308 H 124.892 -1.10968 -6.00432 0
M  V30 1309 H 126.306 -3.06349 -4.84586 0
M  V30 1310 H 124.703 -3.82333 -4.62538 0
M  V30 1311 H 125.773 -3.61966 -3.22658 0
M  V30 1312 N 127.117 1.15442 -1.07289 0
M  V30 1313 C 128.047 2.22312 -0.714107 0
M  V30 1314 C 129.028 1.67467 0.298155 0
M  V30 1315 O 130.213 1.93445 0.171048 0
M  V30 1316 C 127.343 3.47124 -0.110448 0
M  V30 1317 C 126.297 4.14926 -1.04979 0
M  V30 1318 C 125.623 5.33807 -0.308924 0
M  V30 1319 C 126.923 4.64762 -2.38314 0
M  V30 1320 H 128.617 2.5258 -1.6076 0
M  V30 1321 H 126.163 1.21404 -0.77441 0
M  V30 1322 H 128.116 4.21124 0.152482 0
M  V30 1323 H 126.84 3.16187 0.81812 0
M  V30 1324 H 125.499 3.42866 -1.29764 0
M  V30 1325 H 125.147 4.99126 0.623084 0
M  V30 1326 H 124.847 5.80113 -0.935036 0
M  V30 1327 H 126.371 6.10576 -0.0537771 0
M  V30 1328 H 127.785 5.30292 -2.1786 0
M  V30 1329 H 126.182 5.21728 -2.96514 0
M  V30 1330 H 127.252 3.80434 -3.00663 0
M  V30 1331 N 128.595 0.856903 1.32268 0
M  V30 1332 C 129.872 0.382583 1.91822 0
M  V30 1333 C 130.252 -1.13407 1.78051 0
M  V30 1334 O 129.6 -1.95673 1.18001 0
M  V30 1335 C 129.81 0.849446 3.38505 0
M  V30 1336 C 131.158 0.867936 4.15634 0
M  V30 1337 O 132.182 0.794232 3.47232 0
M  V30 1338 O 131.041 0.972286 5.37781 0
M  V30 1339 H 128.135 0.112014 0.819379 0
M  V30 1340 H 130.681 0.943952 1.41024 0
M  V30 1341 H 129.453 1.89267 3.42482 0
M  V30 1342 H 129.076 0.265652 3.96712 0
M  V30 1343 N 130.073 -1.45103 0.615059 0
M  V30 1344 C 131.021 -2.32331 -0.111791 0
M  V30 1345 C 132.015 -1.46409 -0.852102 0
M  V30 1346 O 133.221 -1.62849 -0.766821 0
M  V30 1347 H 129.596 -0.749993 -0.0549072 0
M  V30 1348 H 131.567 -2.91407 0.642225 0
M  V30 1349 C 130.316 -3.3015 -1.09071 0
M  V30 1350 H 129.639 -3.96265 -0.530485 0
M  V30 1351 H 131.079 -3.93898 -1.56908 0
M  V30 1352 C 129.538 -2.57875 -2.168 0
M  V30 1353 O 130.068 -2.36567 -3.24652 0
M  V30 1354 N 128.274 -2.17884 -1.92289 0
M  V30 1355 H 127.821 -2.35413 -1.04587 0
M  V30 1356 H 127.779 -1.6985 -2.64572 0
M  V30 1357 N 131.551 -0.354651 -1.53558 0
M  V30 1358 C 132.962 0.126902 -1.86268 0
M  V30 1359 C 133.313 1.49075 -1.27558 0
M  V30 1360 O 132.438 2.08105 -0.5934 0
M  V30 1361 C 133.033 0.237046 -3.3797 0
M  V30 1362 C 131.592 0.662842 -3.70518 0
M  V30 1363 C 130.739 -0.196652 -2.76602 0
M  V30 1364 H 133.69 -0.573849 -1.47962 0
M  V30 1365 H 133.711 1.06259 -3.65362 0
M  V30 1366 H 133.223 -0.755725 -3.80671 0
M  V30 1367 H 131.324 1.66424 -3.33367 0
M  V30 1368 H 131.437 0.445034 -4.77029 0
M  V30 1369 H 129.801 0.332763 -2.52517 0
M  V30 1370 H 130.584 -1.18676 -3.22135 0
M  V30 1371 N 133.029 1.57378 -0.0835403 0
M  V30 1372 C 134.259 1.97975 0.590713 0
M  V30 1373 C 134.667 0.961083 1.62972 0
M  V30 1374 O 134.01 -0.0590879 1.83605 0
M  V30 1375 C 134.072 3.34915 1.3066 0
M  V30 1376 C 133.736 4.55069 0.419698 0
M  V30 1377 C 134.733 5.18868 -0.32749 0
M  V30 1378 C 132.418 5.0114 0.341137 0
M  V30 1379 C 134.412 6.27098 -1.14134 0
M  V30 1380 C 132.099 6.0924 -0.476374 0
M  V30 1381 C 133.097 6.72083 -1.21627 0
M  V30 1382 O 132.785 7.781 -2.02028 0
M  V30 1383 H 132.517 0.655818 0.163947 0
M  V30 1384 H 135.071 2.04807 -0.156021 0
M  V30 1385 H 133.301 3.24733 2.09966 0
M  V30 1386 H 134.99 3.60037 1.87424 0
M  V30 1387 H 135.756 4.84211 -0.276459 0
M  V30 1388 H 131.635 4.51996 0.90668 0
M  V30 1389 H 135.179 6.7608 -1.71935 0
M  V30 1390 H 131.076 6.43329 -0.528927 0
M  V30 1391 H 131.844 7.95034 -1.94586 0
M  V30 1392 N 134.507 -0.190092 1.56449 0
M  V30 1393 C 135.735 -0.925772 1.85033 0
M  V30 1394 C 136.15 -1.76638 0.666658 0
M  V30 1395 O 135.507 -1.78822 -0.364565 0
M  V30 1396 C 135.558 -1.81786 3.12468 0
M  V30 1397 O 135.279 -1.01118 4.26271 0
M  V30 1398 C 136.78 -2.6648 3.54265 0
M  V30 1399 H 134 -0.269872 0.614337 0
M  V30 1400 H 136.544 -0.195837 2.0356 0
M  V30 1401 H 134.699 -2.50136 2.95822 0
M  V30 1402 H 135.113 -1.61956 4.98869 0
M  V30 1403 H 136.587 -3.24722 4.46385 0
M  V30 1404 H 137.064 -3.40434 2.77491 0
M  V30 1405 H 137.67 -2.03493 3.73458 0
M  V30 1406 N 135.985 -1.50799 -0.457987 0
M  V30 1407 C 136.935 -1.67003 -1.55222 0
M  V30 1408 C 137.919 -0.52434 -1.52117 0
M  V30 1409 O 139.111 -0.779345 -1.58919 0
M  V30 1410 C 136.24 -1.77956 -2.93576 0
M  V30 1411 C 135.326 -2.98243 -3.01516 0
M  V30 1412 N 135.717 -4.21732 -2.79241 0
M  V30 1413 C 134.015 -2.97072 -3.32662 0
M  V30 1414 C 134.716 -5.02817 -2.92489 0
M  V30 1415 N 133.692 -4.37038 -3.23262 0
M  V30 1416 H 137.494 -2.60163 -1.36721 0
M  V30 1417 H 135.008 -1.48163 -0.664952 0
M  V30 1418 H 137.005 -1.87671 -3.72271 0
M  V30 1419 H 135.665 -0.859634 -3.13114 0
M  V30 1420 H 136.676 -4.51016 -2.54567 0
M  V30 1421 H 133.353 -2.14631 -3.58106 0
M  V30 1422 H 134.743 -6.11054 -2.79396 0
M  V30 1423 N 137.463 0.71206 -1.40597 0
M  V30 1424 C 138.691 1.50111 -1.42388 0
M  V30 1425 C 139.106 1.88784 -0.0245395 0
M  V30 1426 O 138.463 1.55681 0.952351 0
M  V30 1427 C 138.514 2.7742 -2.31776 0
M  V30 1428 O 138.235 2.40382 -3.66262 0
M  V30 1429 C 139.736 3.7129 -2.42196 0
M  V30 1430 H 136.956 0.46314 -0.485533 0
M  V30 1431 H 139.5 0.878068 -1.8469 0
M  V30 1432 H 137.655 3.36001 -1.92827 0
M  V30 1433 H 138.069 3.22324 -4.13772 0
M  V30 1434 H 139.543 4.57448 -3.08943 0
M  V30 1435 H 140.02 4.14641 -1.44809 0
M  V30 1436 H 140.626 3.18619 -2.81712 0
M  V30 1437 N 138.941 1.26152 0.944643 0
M  V30 1438 C 140.171 1.14094 1.72239 0
M  V30 1439 C 140.579 -0.306931 1.86694 0
M  V30 1440 O 139.922 -1.22222 1.3714 0
M  V30 1441 C 139.984 1.73316 3.14963 0
M  V30 1442 C 139.648 3.2239 3.23904 0
M  V30 1443 C 140.645 4.19252 3.07447 0
M  V30 1444 C 138.33 3.62788 3.47405 0
M  V30 1445 C 140.324 5.54491 3.14353 0
M  V30 1446 C 138.011 4.98162 3.53947 0
M  V30 1447 C 139.009 5.93823 3.37436 0
M  V30 1448 O 138.697 7.26732 3.43679 0
M  V30 1449 H 138.429 0.398292 0.546205 0
M  V30 1450 H 140.983 1.67201 1.19301 0
M  V30 1451 H 139.213 1.14667 3.69308 0
M  V30 1452 H 140.902 1.56214 3.74636 0
M  V30 1453 H 141.668 3.8938 2.8915 0
M  V30 1454 H 137.547 2.88816 3.59313 0
M  V30 1455 H 141.091 6.29137 3.01384 0
M  V30 1456 H 136.988 5.27695 3.71763 0
M  V30 1457 H 137.756 7.3496 3.60245 0
M  V30 1458 N 140.419 -1.14872 1.07899 0
M  V30 1459 C 141.644 -1.90202 0.826926 0
M  V30 1460 C 142.069 -1.77774 -0.614664 0
M  V30 1461 O 141.427 -1.11431 -1.43013 0
M  V30 1462 C 141.475 -3.38352 1.24702 0
M  V30 1463 O 140.579 -4.10497 0.39575 0
M  V30 1464 H 139.92 -0.591968 0.300782 0
M  V30 1465 H 142.45 -1.45437 1.43907 0
M  V30 1466 H 142.46 -3.89156 1.22563 0
M  V30 1467 H 141.135 -3.46715 2.29698 0
M  V30 1468 H 139.712 -3.69796 0.480117 0
M  V30 1469 N 141.898 -0.863906 -1.31812 0
M  V30 1470 C 143.128 -0.485406 -2.00817 0
M  V30 1471 C 143.536 0.925007 -1.65046 0
M  V30 1472 O 142.879 1.61653 -0.872574 0
M  V30 1473 C 142.941 -0.555589 -3.55181 0
M  V30 1474 C 142.605 -1.92654 -4.14407 0
M  V30 1475 C 143.602 -2.89324 -4.31958 0
M  V30 1476 C 141.287 -2.2262 -4.50273 0
M  V30 1477 C 143.281 -4.14108 -4.84555 0
M  V30 1478 C 140.968 -3.47654 -5.02573 0
M  V30 1479 C 141.966 -4.43214 -5.19664 0
M  V30 1480 O 141.654 -5.66033 -5.70843 0
M  V30 1481 H 141.386 -0.188224 -0.649267 0
M  V30 1482 H 143.94 -1.16514 -1.69156 0
M  V30 1483 H 142.17 0.181037 -3.86276 0
M  V30 1484 H 143.859 -0.19138 -4.05449 0
M  V30 1485 H 144.625 -2.6748 -4.04573 0
M  V30 1486 H 140.504 -1.4902 -4.3625 0
M  V30 1487 H 144.048 -4.88703 -4.9781 0
M  V30 1488 H 139.945 -3.69345 -5.29391 0
M  V30 1489 H 140.713 -5.6812 -5.89222 0
M  V30 1490 N 143.376 1.44774 -0.622745 0
M  V30 1491 C 144.601 2.06999 -0.128968 0
M  V30 1492 C 145.026 1.4617 1.1839 0
M  V30 1493 O 144.384 0.560007 1.72434 0
M  V30 1494 C 144.432 3.60595 -0.0188351 0
M  V30 1495 O 143.536 3.99398 1.02739 0
M  V30 1496 H 142.877 0.659047 -0.0809544 0
M  V30 1497 H 145.407 1.85784 -0.85705 0
M  V30 1498 H 145.417 4.07627 0.174476 0
M  V30 1499 H 144.092 4.04252 -0.977384 0
M  V30 1500 H 142.669 3.64011 0.809326 0
M  V30 1501 N 144.854 0.36279 1.53368 0
M  V30 1502 C 146.094 -0.227882 2.03126 0
M  V30 1503 C 146.458 -1.4622 1.24434 0
M  V30 1504 O 147.659 -2.12831 1.64184 0
M  V30 1505 C 145.93 -0.515427 3.53664 0
M  V30 1506 S 147.489 -1.08017 4.25297 0
M  V30 1507 H 144.307 -0.0665377 0.70788 0
M  V30 1508 H 146.909 0.50501 1.88865 0
M  V30 1509 H 145.613 0.390436 4.08539 0
M  V30 1510 H 145.144 -1.27747 3.72081 0
M  V30 1511 H 147.159 -2.36462 4.36234 0
M  V30 1512 N 146.332 -1.57332 0.0918853 0
M  V30 1513 C 147.557 -1.98995 -0.584442 0
M  V30 1514 C 147.982 -0.970528 -1.61128 0
M  V30 1515 O 147.34 0.0613904 -1.81196 0
M  V30 1516 C 147.388 -3.39636 -1.21161 0
M  V30 1517 O 146.492 -3.40447 -2.32744 0
M  V30 1518 H 145.833 -0.647165 -0.148572 0
M  V30 1519 H 148.363 -2.03873 0.172347 0
M  V30 1520 H 148.373 -3.7726 -1.55367 0
M  V30 1521 H 147.048 -4.13356 -0.459313 0
M  V30 1522 H 145.625 -3.14614 -2.0018 0
M  V30 1523 N 147.81 0.181792 -1.56548 0
M  V30 1524 C 149.058 0.89832 -1.81038 0
M  V30 1525 C 149.379 1.83232 -0.667164 0
M  V30 1526 O 148.649 1.93372 0.313673 0
M  V30 1527 H 147.229 0.33471 -0.667816 0
M  V30 1528 H 149.891 0.184116 -1.94028 0
M  V30 1529 H 148.987 1.4815 -2.74696 0
M  V30 1530 N 149.288 1.51039 0.449983 0
M  V30 1531 C 150.513 1.6715 1.22783 0
M  V30 1532 C 150.938 0.363081 1.84563 0
M  V30 1533 O 150.296 -0.675433 1.68249 0
M  V30 1534 C 150.344 2.77985 2.29689 0
M  V30 1535 O 149.448 2.40707 3.34864 0
M  V30 1536 H 148.789 0.557746 0.360299 0
M  V30 1537 H 151.319 1.97535 0.533005 0
M  V30 1538 H 151.329 3.01693 2.74673 0
M  V30 1539 H 150.004 3.72935 1.84098 0
M  V30 1540 H 148.581 2.27523 2.95445 0
M  V30 1541 N 150.766 -0.704594 1.40972 0
M  V30 1542 C 151.729 -1.80035 1.41845 0
M  V30 1543 C 152.729 -1.57774 0.310474 0
M  V30 1544 O 153.919 -1.64613 0.56992 0
M  V30 1545 C 151.051 -3.18284 1.22098 0
M  V30 1546 H 152.244 -1.80658 2.3938 0
M  V30 1547 H 149.797 -0.911329 1.26982 0
M  V30 1548 H 150.532 -3.23306 0.253672 0
M  V30 1549 H 150.317 -3.35843 2.02366 0
M  V30 1550 H 151.807 -3.98289 1.25522 0
M  V30 1551 N 152.244 -1.26651 -0.937939 0
M  V30 1552 C 153.493 -1.11775 -1.67897 0
M  V30 1553 C 153.806 0.33794 -1.92659 0
M  V30 1554 O 155.012 0.607434 -2.64618 0
M  V30 1555 C 153.468 -1.9523 -3.02346 0
M  V30 1556 C 153.076 -3.45393 -2.8532 0
M  V30 1557 C 154.82 -1.88972 -3.80118 0
M  V30 1558 C 152.727 -4.21083 -4.15263 0
M  V30 1559 H 151.657 -0.414696 -0.629717 0
M  V30 1560 H 154.308 -1.50988 -1.04283 0
M  V30 1561 H 152.69 -1.48853 -3.66959 0
M  V30 1562 H 153.864 -3.99561 -2.29537 0
M  V30 1563 H 152.179 -3.52921 -2.20988 0
M  V30 1564 H 154.776 -2.42805 -4.76392 0
M  V30 1565 H 155.119 -0.86113 -4.07296 0
M  V30 1566 H 155.652 -2.33189 -3.22285 0
M  V30 1567 H 152.391 -5.24425 -3.93267 0
M  V30 1568 H 151.911 -3.71695 -4.70747 0
M  V30 1569 H 153.59 -4.29706 -4.83696 0
M  V30 1570 N 153.722 1.14298 -1.08507 0
M  V30 1571 C 154.95 1.89219 -0.836876 0
M  V30 1572 C 155.365 1.78638 0.611054 0
M  V30 1573 O 154.722 1.14643 1.41998 0
M  V30 1574 C 154.773 3.39158 -1.25116 0
M  V30 1575 O 154.494 3.49449 -2.64229 0
M  V30 1576 C 155.995 4.31073 -1.03398 0
M  V30 1577 H 153.215 0.599328 -0.301739 0
M  V30 1578 H 155.759 1.44746 -1.44461 0
M  V30 1579 H 153.914 3.81251 -0.687514 0
M  V30 1580 H 154.328 4.42589 -2.81452 0
M  V30 1581 H 155.802 5.34646 -1.37323 0
M  V30 1582 H 156.279 4.3919 0.0289259 0
M  V30 1583 H 156.885 3.94738 -1.58311 0
M  V30 1584 N 155.201 0.870884 1.31352 0
M  V30 1585 C 156.441 0.488783 1.9847 0
M  V30 1586 C 156.805 -0.941536 1.67329 0
M  V30 1587 O 158.006 -1.42903 2.27667 0
M  V30 1588 C 156.277 0.739688 3.49662 0
M  V30 1589 S 157.836 0.457582 4.36408 0
M  V30 1590 H 154.654 0.18242 0.6872 0
M  V30 1591 H 157.256 1.12711 1.59739 0
M  V30 1592 H 155.96 1.77944 3.69816 0
M  V30 1593 H 155.491 0.0883905 3.93301 0
M  V30 1594 H 157.506 -0.709752 4.91098 0
M  V30 1595 N 156.679 -1.44442 0.630414 0
M  V30 1596 C 157.904 -2.06927 0.139944 0
M  V30 1597 C 158.329 -1.46795 -1.17613 0
M  V30 1598 O 157.687 -0.569144 -1.72135 0
M  V30 1599 C 157.735 -3.6058 0.0379581 0
M  V30 1600 O 156.839 -3.99937 -1.0062 0
M  V30 1601 H 156.18 -0.658608 0.0844483 0
M  V30 1602 H 158.71 -1.85327 0.866891 0
M  V30 1603 H 158.72 -4.07714 -0.152856 0
M  V30 1604 H 157.395 -4.03728 0.998809 0
M  V30 1605 H 155.972 -3.64436 -0.79001 0
M  V30 1606 N 158.157 -0.370918 -1.53173 0
M  V30 1607 C 159.382 0.220293 -2.06227 0
M  V30 1608 C 159.807 1.41243 -1.24225 0
M  V30 1609 O 159.165 1.79387 -0.262645 0
M  V30 1610 C 159.213 0.586663 -3.55796 0
M  V30 1611 O 158.317 1.68317 -3.76488 0
M  V30 1612 H 157.658 0.0308099 -0.663285 0
M  V30 1613 H 160.188 -0.533068 -1.97534 0
M  V30 1614 H 160.198 0.85617 -3.98916 0
M  V30 1615 H 158.873 -0.285013 -4.14922 0
M  V30 1616 H 157.45 1.40881 -3.45264 0
M  V30 1617 N 159.635 1.57281 -0.100228 0
M  V30 1618 C 160.582 2.14305 0.856858 0
M  V30 1619 C 161.552 1.06296 1.27634 0
M  V30 1620 O 162.737 1.34109 1.35718 0
M  V30 1621 C 159.877 2.73184 2.10866 0
M  V30 1622 C 158.99 3.95442 1.73925 0
M  V30 1623 C 158.125 4.42468 2.93931 0
M  V30 1624 C 157.164 5.57303 2.5314 0
M  V30 1625 N 156.301 5.99158 3.65997 0
M  V30 1626 H 161.141 2.95772 0.363726 0
M  V30 1627 H 158.678 1.46139 0.167858 0
M  V30 1628 H 160.636 3.05442 2.84185 0
M  V30 1629 H 159.266 1.94437 2.57671 0
M  V30 1630 H 158.318 3.69464 0.905554 0
M  V30 1631 H 159.63 4.78769 1.39935 0
M  V30 1632 H 158.784 4.76537 3.75496 0
M  V30 1633 H 157.523 3.58052 3.31134 0
M  V30 1634 H 156.528 5.22857 1.70003 0
M  V30 1635 H 157.753 6.43471 2.17075 0
M  V30 1636 H 155.699 5.17687 4.02909 0
M  V30 1637 H 155.616 6.77295 3.35869 0
M  V30 1638 H 156.884 6.3786 4.48057 0
M  V30 1639 N 161.113 -0.173488 1.56642 0
M  V30 1640 C 162.061 -1.23417 1.97157 0
M  V30 1641 C 163.055 -1.45946 0.860013 0
M  V30 1642 O 164.261 -1.46551 1.04512 0
M  V30 1643 H 160.636 -0.414818 0.62724 0
M  V30 1644 H 162.607 -0.865582 2.8557 0
M  V30 1645 C 161.356 -2.5665 2.34576 0
M  V30 1646 H 160.679 -2.40137 3.19647 0
M  V30 1647 H 162.119 -3.2956 2.6677 0
M  V30 1648 C 160.578 -3.15245 1.18836 0
M  V30 1649 O 161.108 -3.98883 0.474869 0
M  V30 1650 N 159.314 -2.74303 0.959497 0
M  V30 1651 H 158.861 -2.0639 1.54146 0
M  V30 1652 H 158.819 -3.13844 0.186932 0
M  V30 1653 N 162.591 -1.51276 -0.441967 0
M  V30 1654 C 163.538 -1.72256 -1.53612 0
M  V30 1655 C 164.508 -0.564164 -1.56225 0
M  V30 1656 O 165.693 -0.798074 -1.73307 0
M  V30 1657 C 162.833 -1.84932 -2.91366 0
M  V30 1658 C 161.946 -3.12459 -2.98317 0
M  V30 1659 C 161.081 -3.15758 -4.27166 0
M  V30 1660 C 160.12 -4.37619 -4.27967 0
M  V30 1661 N 159.257 -4.38493 -5.48333 0
M  V30 1662 H 164.097 -2.65654 -1.35026 0
M  V30 1663 H 161.634 -1.31662 -0.656009 0
M  V30 1664 H 163.592 -1.90263 -3.7129 0
M  V30 1665 H 162.222 -0.949461 -3.08521 0
M  V30 1666 H 161.274 -3.1646 -2.11086 0
M  V30 1667 H 162.586 -4.02382 -2.94771 0
M  V30 1668 H 161.74 -3.19979 -5.15459 0
M  V30 1669 H 160.479 -2.23715 -4.33362 0
M  V30 1670 H 159.484 -4.33579 -3.38067 0
M  V30 1671 H 160.709 -5.30921 -4.23438 0
M  V30 1672 H 158.655 -3.49318 -5.55259 0
M  V30 1673 H 158.572 -5.22219 -5.46647 0
M  V30 1674 H 159.84 -4.469 -6.38671 0
M  V30 1675 N 164.069 0.697108 -1.41344 0
M  V30 1676 C 164.979 1.84088 -1.45427 0
M  V30 1677 C 165.995 1.70545 -0.34501 0
M  V30 1678 O 167.171 1.92488 -0.592492 0
M  V30 1679 C 164.236 3.20056 -1.33286 0
M  V30 1680 C 163.297 3.45718 -2.54514 0
M  V30 1681 C 162.53 4.75199 -2.42944 0
M  V30 1682 O 162.753 5.51579 -1.45318 0
M  V30 1683 O 161.687 5.0161 -3.32672 0
M  V30 1684 H 165.513 1.836 -2.41919 0
M  V30 1685 H 163.098 0.849966 -1.22866 0
M  V30 1686 H 164.98 4.01236 -1.28794 0
M  V30 1687 H 163.655 3.2123 -0.39909 0
M  V30 1688 H 162.562 2.64474 -2.64583 0
M  V30 1689 H 163.895 3.49356 -3.46715 0
M  V30 1690 N 165.547 1.27147 0.931209 0
M  V30 1691 C 166.787 1.14511 1.69312 0
M  V30 1692 C 167.151 -0.304638 1.89568 0
M  V30 1693 O 168.352 -0.553343 2.63043 0
M  V30 1694 C 166.623 1.90349 3.02493 0
M  V30 1695 S 168.182 1.93884 3.93642 0
M  V30 1696 H 165 0.408858 0.581684 0
M  V30 1697 H 167.602 1.61006 1.10893 0
M  V30 1698 H 166.306 2.94877 2.85439 0
M  V30 1699 H 165.837 1.44333 3.65966 0
M  V30 1700 H 167.852 1.03273 4.85334 0
M  V30 1701 N 167.025 -1.13721 1.09112 0
M  V30 1702 C 167.935 -2.22638 0.73957 0
M  V30 1703 C 168.951 -1.72091 -0.257068 0
M  V30 1704 O 170.127 -2.01155 -0.0992154 0
M  V30 1705 C 167.192 -3.46322 0.16191 0
M  V30 1706 C 166.253 -4.11775 1.21408 0
M  V30 1707 C 165.486 -5.29555 0.663891 0
M  V30 1708 O 165.709 -5.68077 -0.514274 0
M  V30 1709 O 164.643 -5.84973 1.41738 0
M  V30 1710 H 168.469 -2.55074 1.64836 0
M  V30 1711 H 166.054 -1.21791 0.865289 0
M  V30 1712 H 167.936 -4.21107 -0.157073 0
M  V30 1713 H 166.611 -3.15593 -0.719932 0
M  V30 1714 H 165.518 -3.3883 1.58571 0
M  V30 1715 H 166.851 -4.46627 2.06845 0
M  V30 1716 N 168.503 -0.877838 -1.30888 0
M  V30 1717 C 169.466 -0.344265 -2.266 0
M  V30 1718 C 170.466 0.50922 -1.52524 0
M  V30 1719 O 171.656 0.317398 -1.71284 0
M  V30 1720 C 168.788 0.510198 -3.37061 0
M  V30 1721 H 169.981 -1.1893 -2.7531 0
M  V30 1722 H 167.534 -0.654088 -1.41956 0
M  V30 1723 H 168.269 1.37612 -2.93655 0
M  V30 1724 H 168.054 -0.101047 -3.9197 0
M  V30 1725 H 169.544 0.875537 -4.08319 0
M  V30 1726 N 169.982 1.44106 -0.638065 0
M  V30 1727 C 171.229 2.01978 -0.14533 0
M  V30 1728 C 171.557 1.50234 1.23532 0
M  V30 1729 O 170.812 0.679548 1.83523 0
M  V30 1730 C 171.111 3.5729 -0.0887327 0
M  V30 1731 C 170.777 4.28317 -1.40909 0
M  V30 1732 C 169.439 4.47437 -1.77069 0
M  V30 1733 C 171.791 4.6867 -2.28031 0
M  V30 1734 C 169.119 5.04171 -3.00047 0
M  V30 1735 C 171.471 5.26766 -3.50286 0
M  V30 1736 C 170.135 5.44104 -3.86661 0
M  V30 1737 H 169.405 0.739089 -0.0531801 0
M  V30 1738 H 172.052 1.72781 -0.825761 0
M  V30 1739 H 170.357 3.8594 0.675095 0
M  V30 1740 H 172.054 3.99807 0.309145 0
M  V30 1741 H 168.644 4.1377 -1.1177 0
M  V30 1742 H 172.828 4.53604 -2.01388 0
M  V30 1743 H 168.084 5.15782 -3.28298 0
M  V30 1744 H 172.258 5.56983 -4.18023 0
M  V30 1745 H 169.885 5.87832 -4.82034 0
M  V30 1746 N 171.46 0.379036 1.52974 0
M  V30 1747 C 172.709 -0.207612 2.00629 0
M  V30 1748 C 173.022 -1.48758 1.27006 0
M  V30 1749 O 174.228 -2.15365 1.65318 0
M  V30 1750 C 172.684 -0.42053 3.57435 0
M  V30 1751 C 172.292 0.845587 4.39948 0
M  V30 1752 C 174.036 -0.964102 4.13407 0
M  V30 1753 C 171.943 0.601513 5.88333 0
M  V30 1754 H 170.873 -0.0813591 0.749598 0
M  V30 1755 H 173.524 0.499853 1.76561 0
M  V30 1756 H 171.906 -1.18959 3.7771 0
M  V30 1757 H 173.08 1.61848 4.31442 0
M  V30 1758 H 171.395 1.31336 3.95145 0
M  V30 1759 H 173.992 -1.16225 5.21916 0
M  V30 1760 H 174.335 -1.93019 3.68849 0
M  V30 1761 H 174.868 -0.25487 3.96983 0
M  V30 1762 H 171.607 1.53831 6.37194 0
M  V30 1763 H 171.127 -0.132628 5.99653 0
M  V30 1764 H 172.806 0.232134 6.46583 0
M  V30 1765 N 172.938 -1.57226 0.108567 0
M  V30 1766 C 174.178 -1.96717 -0.555155 0
M  V30 1767 C 174.542 -0.990003 -1.64508 0
M  V30 1768 O 175.743 -1.2739 -2.36696 0
M  V30 1769 C 174.014 -3.40575 -1.08367 0
M  V30 1770 S 175.573 -4.02072 -1.75737 0
M  V30 1771 H 172.391 -0.687638 -0.180762 0
M  V30 1772 H 174.993 -1.94563 0.191172 0
M  V30 1773 H 173.697 -4.0945 -0.279092 0
M  V30 1774 H 173.228 -3.46356 -1.86551 0
M  V30 1775 H 175.243 -3.91977 -3.04251 0
M  V30 1776 N 174.416 0.165178 -1.56732 0
M  V30 1777 C 175.364 1.22369 -1.97809 0
M  V30 1778 C 176.358 1.45488 -0.867741 0
M  V30 1779 O 177.564 1.45995 -1.05288 0
M  V30 1780 H 173.939 0.411486 -0.629431 0
M  V30 1781 H 175.91 0.850425 -2.86025 0
M  V30 1782 C 174.659 2.55403 -2.35934 0
M  V30 1783 H 173.982 2.38438 -3.20916 0
M  V30 1784 H 175.422 3.2814 -2.68514 0
M  V30 1785 C 173.881 3.14611 -1.20506 0
M  V30 1786 O 174.411 3.98626 -0.496016 0
M  V30 1787 N 172.617 2.7379 -0.97403 0
M  V30 1788 H 172.164 2.0557 -1.55238 0
M  V30 1789 H 172.122 3.1374 -0.203573 0
M  V30 1790 N 175.894 1.51508 0.433938 0
M  V30 1791 C 177.134 1.66006 1.19253 0
M  V30 1792 C 177.498 0.369868 1.88404 0
M  V30 1793 O 178.699 0.39066 2.65946 0
M  V30 1794 C 176.97 2.83229 2.17981 0
M  V30 1795 S 178.529 3.18075 3.02281 0
M  V30 1796 H 175.347 0.584821 0.404358 0
M  V30 1797 H 177.949 1.89425 0.48357 0
M  V30 1798 H 176.653 3.75407 1.65824 0
M  V30 1799 H 176.184 2.6201 2.93453 0
M  V30 1800 H 178.199 2.64772 4.19655 0
M  V30 1801 N 177.372 -0.689602 1.41712 0
M  V30 1802 C 178.649 -1.44457 1.31877 0
M  V30 1803 C 179.029 -2.11039 -0.0508537 0
M  V30 1804 O 178.377 -2.02138 -1.06547 0
M  V30 1805 C 178.587 -2.45913 2.47645 0
M  V30 1806 C 179.935 -3.10991 2.89084 0
M  V30 1807 O 180.959 -2.56238 2.47428 0
M  V30 1808 O 179.818 -4.10174 3.61137 0
M  V30 1809 H 176.912 -0.64362 0.519309 0
M  V30 1810 H 179.458 -0.719576 1.53689 0
M  V30 1811 H 178.23 -1.95409 3.39015 0
M  V30 1812 H 177.853 -3.25913 2.27742 0
M  V30 1813 N 178.85 -1.27639 -0.924453 0
M  V30 1814 C 180.266 -1.05113 -1.20097 0
M  V30 1815 C 180.466 0.213262 -2.00368 0
M  V30 1816 O 179.522 0.91787 -2.35226 0
M  V30 1817 C 180.835 -2.29244 -1.94596 0
M  V30 1818 C 182.383 -2.34315 -2.07522 0
M  V30 1819 C 182.858 -3.58183 -2.85427 0
M  V30 1820 N 184.349 -3.5876 -2.92994 0
M  V30 1821 C 185.084 -4.51277 -3.53746 0
M  V30 1822 N 184.58 -5.54102 -4.15863 0
M  V30 1823 N 186.373 -4.38894 -3.51181 0
M  V30 1824 H 178.524 -2.08821 -0.388264 0
M  V30 1825 H 180.787 -0.918568 -0.234385 0
M  V30 1826 H 180.493 -3.21301 -1.43034 0
M  V30 1827 H 180.367 -2.34816 -2.95197 0
M  V30 1828 H 182.754 -1.42762 -2.58269 0
M  V30 1829 H 182.835 -2.32744 -1.06131 0
M  V30 1830 H 182.479 -4.50074 -2.35363 0
M  V30 1831 H 182.409 -3.57006 -3.8711 0
M  V30 1832 H 184.9 -2.84398 -2.4885 0
M  V30 1833 H 185.213 -6.20859 -4.60168 0
M  V30 1834 H 183.558 -5.57941 -4.144 0
M  V30 1835 H 186.749 -3.57772 -3.01856 0
M  V30 1836 H 186.922 -5.11186 -3.98237 0
M  V30 1837 N 180.328 1.1314 -1.09713 0
M  V30 1838 C 181.276 2.20717 -0.733934 0
M  V30 1839 C 182.27 1.6729 0.266506 0
M  V30 1840 O 183.476 1.79547 0.127656 0
M  V30 1841 H 179.851 0.719292 -0.21937 0
M  V30 1842 H 181.822 2.48611 -1.6503 0
M  V30 1843 C 180.571 3.47265 -0.173849 0
M  V30 1844 H 179.894 3.88716 -0.934873 0
M  V30 1845 H 181.334 4.23979 0.0423126 0
M  V30 1846 C 179.793 3.18724 1.09164 0
M  V30 1847 O 180.323 3.37762 2.17439 0
M  V30 1848 N 178.529 2.72583 1.00732 0
M  V30 1849 H 178.076 2.57291 0.126121 0
M  V30 1850 H 178.034 2.53862 1.85476 0
M  V30 1851 N 181.806 0.884767 1.30421 0
M  V30 1852 C 182.769 0.356277 2.26414 0
M  V30 1853 C 183.769 -0.501124 1.52792 0
M  V30 1854 O 184.959 -0.30831 1.7145 0
M  V30 1855 C 182.091 -0.492316 3.37326 0
M  V30 1856 H 183.284 1.20389 2.74675 0
M  V30 1857 H 180.837 0.661607 1.41607 0
M  V30 1858 H 181.572 -1.36052 2.94381 0
M  V30 1859 H 181.357 0.121832 3.91911 0
M  V30 1860 H 182.847 -0.853871 4.08777 0
M  V30 1861 N 183.284 -1.43765 0.645699 0
M  V30 1862 C 184.247 -2.29163 -0.0409488 0
M  V30 1863 C 185.247 -1.41813 -0.757996 0
M  V30 1864 O 186.437 -1.63527 -0.600382 0
M  V30 1865 C 183.569 -3.23716 -1.06869 0
M  V30 1866 H 184.762 -2.91366 0.710345 0
M  V30 1867 H 182.315 -1.5092 0.406547 0
M  V30 1868 H 183.05 -2.66393 -1.84947 0
M  V30 1869 H 182.835 -3.88105 -0.558277 0
M  V30 1870 H 184.325 -3.87831 -1.54845 0
M  V30 1871 N 184.763 -0.387143 -1.52771 0
M  V30 1872 C 186.012 0.19697 -2.00736 0
M  V30 1873 C 186.325 1.48082 -1.27793 0
M  V30 1874 O 187.531 2.14485 -1.66458 0
M  V30 1875 C 185.987 0.401568 -3.57653 0
M  V30 1876 C 185.595 -0.868907 -4.39493 0
M  V30 1877 C 187.339 0.942164 -4.13912 0
M  V30 1878 C 185.246 -0.632705 -5.88006 0
M  V30 1879 H 184.176 0.0773827 -0.750019 0
M  V30 1880 H 186.827 -0.50921 -1.76293 0
M  V30 1881 H 185.209 1.16954 -3.78335 0
M  V30 1882 H 186.383 -1.64133 -4.30577 0
M  V30 1883 H 184.698 -1.33429 -3.94443 0
M  V30 1884 H 187.295 1.13455 -5.22525 0
M  V30 1885 H 187.638 1.9106 -3.69867 0
M  V30 1886 H 188.171 0.233814 -3.97112 0
M  V30 1887 H 184.91 -1.57208 -6.36369 0
M  V30 1888 H 184.43 0.100825 -5.99715 0
M  V30 1889 H 186.109 -0.26642 -6.46451 0
M  V30 1890 N 186.241 1.57166 -0.116904 0
M  V30 1891 C 187.481 1.97008 0.544715 0
M  V30 1892 C 187.845 0.998713 1.63981 0
M  V30 1893 O 189.046 1.28644 2.36018 0
M  V30 1894 C 187.317 3.41145 1.06559 0
M  V30 1895 S 188.876 4.02998 1.73603 0
M  V30 1896 H 185.694 0.688587 0.177112 0
M  V30 1897 H 188.296 1.94459 -0.201487 0
M  V30 1898 H 187 4.09592 0.257374 0
M  V30 1899 H 186.531 3.4734 1.84712 0
M  V30 1900 H 188.546 3.93585 3.02168 0
M  V30 1901 N 187.719 -0.156864 1.56817 0
M  V30 1902 C 188.966 -0.871125 1.82805 0
M  V30 1903 C 189.294 -1.81611 0.696262 0
M  V30 1904 O 188.549 -1.93141 -0.315459 0
M  V30 1905 C 188.848 -1.68737 3.1506 0
M  V30 1906 C 188.514 -0.890045 4.42028 0
M  V30 1907 C 187.176 -0.670042 4.76512 0
M  V30 1908 C 189.528 -0.331769 5.20143 0
M  V30 1909 C 186.856 0.119104 5.86579 0
M  V30 1910 C 189.208 0.444365 6.31037 0
M  V30 1911 C 187.872 0.675035 6.64078 0
M  V30 1912 H 187.142 -0.318767 0.668931 0
M  V30 1913 H 189.789 -0.135274 1.91022 0
M  V30 1914 H 188.094 -2.49304 3.0225 0
M  V30 1915 H 189.791 -2.24331 3.3238 0
M  V30 1916 H 186.381 -1.07157 4.14988 0
M  V30 1917 H 190.565 -0.489043 4.93885 0
M  V30 1918 H 185.821 0.307417 6.10627 0
M  V30 1919 H 189.995 0.884139 6.90765 0
M  V30 1920 H 187.622 1.28839 7.49203 0
M  V30 1921 N 189.197 -1.51736 -0.425897 0
M  V30 1922 C 190.422 -1.69082 -1.20108 0
M  V30 1923 C 190.847 -0.392398 -1.83962 0
M  V30 1924 O 190.205 0.64858 -1.69302 0
M  V30 1925 C 190.253 -2.81604 -2.25237 0
M  V30 1926 O 189.357 -2.46004 -3.30992 0
M  V30 1927 H 188.698 -0.563408 -0.35138 0
M  V30 1928 H 191.228 -1.98358 -0.501512 0
M  V30 1929 H 191.238 -3.06025 -2.69838 0
M  V30 1930 H 189.913 -3.75817 -1.78142 0
M  V30 1931 H 188.49 -2.32195 -2.91787 0
M  V30 1932 N 190.675 0.682077 -1.42076 0
M  V30 1933 C 191.622 1.79578 -1.44984 0
M  V30 1934 C 192.592 1.6332 -0.302614 0
M  V30 1935 O 193.777 1.83978 -0.505633 0
M  V30 1936 C 190.917 3.1756 -1.35091 0
M  V30 1937 C 190.03 3.45156 -2.59791 0
M  V30 1938 C 189.165 4.72826 -2.42093 0
M  V30 1939 C 188.204 4.93433 -3.62202 0
M  V30 1940 N 187.341 6.12338 -3.43491 0
M  V30 1941 H 192.181 1.76427 -2.40161 0
M  V30 1942 H 189.718 0.861376 -1.19242 0
M  V30 1943 H 191.676 3.97287 -1.27354 0
M  V30 1944 H 190.306 3.19854 -0.435133 0
M  V30 1945 H 189.358 2.59736 -2.77923 0
M  V30 1946 H 190.67 3.5628 -3.49094 0
M  V30 1947 H 189.824 5.60631 -2.319 0
M  V30 1948 H 188.563 4.63973 -1.50268 0
M  V30 1949 H 187.568 4.04073 -3.72834 0
M  V30 1950 H 188.793 5.04136 -4.54998 0
M  V30 1951 H 186.739 6.04672 -2.54377 0
M  V30 1952 H 186.656 6.2429 -4.26377 0
M  V30 1953 H 187.924 7.02841 -3.37097 0
M  V30 1954 N 192.153 1.28127 0.917671 0
M  V30 1955 C 193.116 1.11744 2.00115 0
M  V30 1956 C 194.116 0.0583052 1.60694 0
M  V30 1957 O 195.306 0.303755 1.71531 0
M  V30 1958 C 192.438 0.704862 3.33533 0
M  V30 1959 H 193.631 2.07966 2.16079 0
M  V30 1960 H 191.184 1.11058 1.09981 0
M  V30 1961 H 191.919 -0.258299 3.2327 0
M  V30 1962 H 191.704 1.4699 3.63505 0
M  V30 1963 H 193.194 0.612768 4.1308 0
M  V30 1964 N 193.631 -1.12557 1.10312 0
M  V30 1965 C 195.042 -1.65574 0.862678 0
M  V30 1966 C 195.393 -1.86566 -0.607256 0
M  V30 1967 O 194.518 -1.59121 -1.46662 0
M  V30 1968 C 195.113 -3.00776 1.55947 0
M  V30 1969 C 193.672 -3.50748 1.36576 0
M  V30 1970 C 192.819 -2.25797 1.60968 0
M  V30 1971 H 195.77 -0.963552 1.26101 0
M  V30 1972 H 195.791 -3.67185 0.997753 0
M  V30 1973 H 195.303 -2.85465 2.62928 0
M  V30 1974 H 193.404 -3.71245 0.317531 0
M  V30 1975 H 193.517 -4.30289 2.10686 0
M  V30 1976 H 191.881 -2.32841 1.03234 0
M  V30 1977 H 192.664 -2.13043 2.69198 0
M  V30 1978 N 195.109 -0.891671 -1.2995 0
M  V30 1979 C 196.339 -0.527893 -1.99742 0
M  V30 1980 C 196.747 0.88979 -1.66971 0
M  V30 1981 O 196.09 1.59766 -0.906667 0
M  V30 1982 C 196.152 -0.630804 -3.53922 0
M  V30 1983 C 195.816 -2.01401 -4.10228 0
M  V30 1984 C 196.813 -2.98422 -4.25724 0
M  V30 1985 C 194.498 -2.32121 -4.45449 0
M  V30 1986 C 196.492 -4.24293 -4.75662 0
M  V30 1987 C 194.179 -3.58237 -4.95086 0
M  V30 1988 C 195.177 -4.54137 -5.10146 0
M  V30 1989 O 194.865 -5.78014 -5.58708 0
M  V30 1990 H 194.597 -0.201953 -0.645129 0
M  V30 1991 H 197.151 -1.20076 -1.66646 0
M  V30 1992 H 195.381 0.0990616 -3.86573 0
M  V30 1993 H 197.07 -0.277338 -4.04951 0
M  V30 1994 H 197.836 -2.76001 -3.98809 0
M  V30 1995 H 193.715 -1.5824 -4.32991 0
M  V30 1996 H 197.259 -4.99153 -4.87332 0
M  V30 1997 H 193.156 -3.80491 -5.21437 0
M  V30 1998 H 193.924 -5.8049 -5.77039 0
M  V30 1999 N 196.587 1.43421 -0.653314 0
M  V30 2000 C 197.535 2.32546 0.0501531 0
M  V30 2001 C 198.529 1.48617 0.812985 0
M  V30 2002 O 199.735 1.64825 0.723375 0
M  V30 2003 H 196.11 0.751185 0.0350032 0
M  V30 2004 H 198.081 2.89602 -0.719261 0
M  V30 2005 C 196.83 3.32925 1.00279 0
M  V30 2006 H 196.153 3.97532 0.425236 0
M  V30 2007 H 197.593 3.9792 1.46409 0
M  V30 2008 C 196.052 2.63532 2.09886 0
M  V30 2009 O 196.582 2.45092 3.18265 0
M  V30 2010 N 194.788 2.22905 1.86445 0
M  V30 2011 H 194.335 2.38103 0.98309 0
M  V30 2012 H 194.293 1.76805 2.59976 0
M  V30 2013 N 198.065 0.39524 1.52563 0
M  V30 2014 C 199.012 -0.437036 2.26624 0
M  V30 2015 C 199.982 -1.05281 1.28472 0
M  V30 2016 O 201.167 -1.07971 1.57311 0
M  V30 2017 C 198.307 -1.55524 3.08069 0
M  V30 2018 C 197.42 -0.961745 4.21158 0
M  V30 2019 C 196.555 -2.05149 4.89987 0
M  V30 2020 C 195.594 -1.4342 5.95061 0
M  V30 2021 N 194.731 -2.46351 6.57462 0
M  V30 2022 H 199.571 0.200976 2.97322 0
M  V30 2023 H 197.108 0.110944 1.46681 0
M  V30 2024 H 199.066 -2.21437 3.53584 0
M  V30 2025 H 197.696 -2.16348 2.3957 0
M  V30 2026 H 196.748 -0.192048 3.79915 0
M  V30 2027 H 198.06 -0.470701 4.96574 0
M  V30 2028 H 197.214 -2.78819 5.38837 0
M  V30 2029 H 195.953 -2.57615 4.14109 0
M  V30 2030 H 194.958 -0.682774 5.45544 0
M  V30 2031 H 196.183 -0.917416 6.72875 0
M  V30 2032 H 194.129 -2.97975 5.8442 0
M  V30 2033 H 194.046 -2.02019 7.28508 0
M  V30 2034 H 195.314 -3.19633 7.10954 0
M  V30 2035 N 199.544 -1.57102 0.125237 0
M  V30 2036 C 200.507 -2.14471 -0.80838 0
M  V30 2037 C 201.507 -1.0811 -1.19033 0
M  V30 2038 O 202.697 -1.33856 -1.11482 0
M  V30 2039 C 199.829 -2.69005 -2.09402 0
M  V30 2040 H 201.022 -2.98297 -0.309696 0
M  V30 2041 H 198.575 -1.55807 -0.124051 0
M  V30 2042 H 199.31 -1.88785 -2.63687 0
M  V30 2043 H 199.095 -3.46799 -1.82957 0
M  V30 2044 H 200.585 -3.13278 -2.76128 0
M  V30 2045 N 201.022 0.148545 -1.56898 0
M  V30 2046 C 201.972 1.1886 -1.94567 0
M  V30 2047 C 202.956 1.3863 -0.816735 0
M  V30 2048 O 204.148 1.40218 -1.08018 0
M  V30 2049 C 201.277 2.52262 -2.32849 0
M  V30 2050 C 200.363 2.36092 -3.52309 0
M  V30 2051 N 200.754 1.89674 -4.6889 0
M  V30 2052 C 199.052 2.66848 -3.57363 0
M  V30 2053 C 199.753 1.86511 -5.50989 0
M  V30 2054 N 198.729 2.29766 -4.92655 0
M  V30 2055 H 202.531 0.821793 -2.82177 0
M  V30 2056 H 200.045 0.356615 -1.58436 0
M  V30 2057 H 202.042 3.27447 -2.58039 0
M  V30 2058 H 200.702 2.89727 -1.46589 0
M  V30 2059 H 201.713 1.59663 -4.92674 0
M  V30 2060 H 198.39 3.08198 -2.81639 0
M  V30 2061 H 199.78 1.52128 -6.54452 0
M  V30 2062 N 202.5 1.5196 0.417844 0
M  V30 2063 C 203.447 1.74678 1.50852 0
M  V30 2064 C 204.417 0.588947 1.55308 0
M  V30 2065 O 205.602 0.825544 1.72016 0
M  V30 2066 C 202.742 1.89544 2.88387 0
M  V30 2067 C 201.855 3.17166 2.93309 0
M  V30 2068 C 200.99 3.22513 4.22088 0
M  V30 2069 C 200.029 4.44372 4.20951 0
M  V30 2070 N 199.166 4.47161 5.41287 0
M  V30 2071 H 204.006 2.67768 1.30783 0
M  V30 2072 H 201.543 1.32689 0.63498 0
M  V30 2073 H 203.501 1.96146 3.68216 0
M  V30 2074 H 202.131 0.998424 3.06971 0
M  V30 2075 H 201.183 3.19778 2.06024 0
M  V30 2076 H 202.495 4.07021 2.88332 0
M  V30 2077 H 201.649 3.28139 5.10303 0
M  V30 2078 H 200.388 2.30581 4.29748 0
M  V30 2079 H 199.393 4.38902 3.31127 0
M  V30 2080 H 200.618 5.3759 4.14938 0
M  V30 2081 H 198.564 3.58108 5.49632 0
M  V30 2082 H 198.481 5.3085 5.3827 0
M  V30 2083 H 199.749 4.57005 6.3148 0
M  V30 2084 N 203.978 -0.674533 1.42435 0
M  V30 2085 C 204.926 -1.80934 1.46169 0
M  V30 2086 C 205.92 -1.66006 0.3374 0
M  V30 2087 O 207.126 -1.72611 0.510425 0
M  V30 2088 H 203.501 -0.596594 0.457798 0
M  V30 2089 H 205.472 -1.74903 2.41767 0
M  V30 2090 C 204.221 -3.19088 1.38123 0
M  V30 2091 H 203.544 -3.31203 2.23931 0
M  V30 2092 H 204.984 -3.9851 1.44797 0
M  V30 2093 C 203.443 -3.36763 0.0960517 0
M  V30 2094 O 203.973 -3.92581 -0.851073 0
M  V30 2095 N 202.179 -2.90597 0.0131186 0
M  V30 2096 H 201.726 -2.45359 0.784639 0
M  V30 2097 H 201.684 -3.028 -0.846133 0
M  V30 2098 N 205.456 -1.28612 -0.910864 0
M  V30 2099 C 206.386 -1.15326 -2.03032 0
M  V30 2100 C 207.367 -0.0502924 -1.70026 0
M  V30 2101 O 208.552 -0.227797 -1.92859 0
M  V30 2102 C 205.682 -0.817343 -3.37545 0
M  V30 2103 C 204.636 -1.8754 -3.84724 0
M  V30 2104 C 203.962 -1.39305 -5.16235 0
M  V30 2105 C 205.262 -3.28244 -4.06267 0
M  V30 2106 H 206.956 -2.08975 -2.14406 0
M  V30 2107 H 204.502 -1.00612 -1.03021 0
M  V30 2108 H 206.455 -0.711151 -4.15356 0
M  V30 2109 H 205.179 0.154846 -3.26233 0
M  V30 2110 H 203.838 -1.97079 -3.09121 0
M  V30 2111 H 203.486 -0.409846 -5.01328 0
M  V30 2112 H 203.186 -2.10057 -5.48771 0
M  V30 2113 H 204.71 -1.30014 -5.96598 0
M  V30 2114 H 206.124 -3.21611 -4.74594 0
M  V30 2115 H 204.521 -3.96855 -4.5014 0
M  V30 2116 H 205.591 -3.72048 -3.10979 0
M  V30 2117 N 206.934 1.1197 -1.10907 0
M  V30 2118 C 208.211 1.79959 -0.766432 0
M  V30 2119 C 208.591 1.97466 0.746363 0
M  V30 2120 O 207.939 1.55491 1.67436 0
M  V30 2121 C 208.149 3.14009 -1.52314 0
M  V30 2122 C 209.497 3.89134 -1.69883 0
M  V30 2123 O 210.521 3.2368 -1.48692 0
M  V30 2124 O 209.38 5.06572 -2.05054 0
M  V30 2125 H 206.474 0.779208 -0.277062 0
M  V30 2126 H 209.02 1.18762 -1.21217 0
M  V30 2127 H 207.792 2.96587 -2.55249 0
M  V30 2128 H 207.415 3.82915 -1.07059 0
M  V30 2129 N 208.412 0.89855 1.29475 0
M  V30 2130 C 209.64 0.539261 1.99749 0
M  V30 2131 C 210.055 -0.875716 1.67262 0
M  V30 2132 O 209.412 -1.57786 0.917049 0
M  V30 2133 C 209.463 0.72061 3.54245 0
M  V30 2134 O 209.184 2.07989 3.8558 0
M  V30 2135 C 210.685 0.366118 4.41786 0
M  V30 2136 H 207.905 0.207047 0.638258 0
M  V30 2137 H 210.449 1.20758 1.65039 0
M  V30 2138 H 208.604 0.0994862 3.87272 0
M  V30 2139 H 209.018 2.10841 4.80257 0
M  V30 2140 H 210.492 0.543848 5.49314 0
M  V30 2141 H 210.969 -0.696763 4.33638 0
M  V30 2142 H 211.575 0.964135 4.14228 0
M  V30 2143 N 209.89 -1.43072 0.660911 0
M  V30 2144 C 210.837 -2.30785 -0.0259884 0
M  V30 2145 C 211.807 -1.45184 -0.806888 0
M  V30 2146 O 212.992 -1.74041 -0.781943 0
M  V30 2147 C 210.132 -3.30861 -0.981067 0
M  V30 2148 C 209.245 -4.31558 -0.195458 0
M  V30 2149 C 208.38 -5.18712 -1.14503 0
M  V30 2150 C 207.419 -6.11097 -0.350299 0
M  V30 2151 N 206.556 -6.90849 -1.25186 0
M  V30 2152 H 211.396 -2.88975 0.727846 0
M  V30 2153 H 208.933 -1.42353 0.370682 0
M  V30 2154 H 210.891 -3.87399 -1.54849 0
M  V30 2155 H 209.521 -2.74304 -1.70169 0
M  V30 2156 H 208.573 -3.77252 0.488374 0
M  V30 2157 H 209.885 -4.9701 0.422176 0
M  V30 2158 H 209.039 -5.79914 -1.78284 0
M  V30 2159 H 207.778 -4.53404 -1.79656 0
M  V30 2160 H 206.783 -5.48976 0.300808 0
M  V30 2161 H 208.008 -6.7845 0.296941 0
M  V30 2162 H 205.954 -6.28182 -1.89005 0
M  V30 2163 H 205.871 -7.52854 -0.688971 0
M  V30 2164 H 207.139 -7.5655 -1.87757 0
M  V30 2165 N 211.368 -0.403325 -1.52352 0
M  V30 2166 C 212.315 0.425011 -2.26853 0
M  V30 2167 C 213.285 1.04598 -1.29029 0
M  V30 2168 O 214.47 1.07135 -1.57882 0
M  V30 2169 C 211.61 1.53888 -3.08889 0
M  V30 2170 C 210.723 0.939396 -4.21663 0
M  V30 2171 C 209.858 2.02547 -4.91068 0
M  V30 2172 C 208.897 1.40263 -5.95813 0
M  V30 2173 N 208.034 2.4286 -6.58759 0
M  V30 2174 H 212.874 -0.21674 -2.97211 0
M  V30 2175 H 210.411 -0.118722 -1.4662 0
M  V30 2176 H 212.369 2.19558 -3.54753 0
M  V30 2177 H 210.999 2.15074 -2.40714 0
M  V30 2178 H 210.051 0.171898 -3.80011 0
M  V30 2179 H 211.363 0.44436 -4.96817 0
M  V30 2180 H 210.517 2.75958 -5.40308 0
M  V30 2181 H 209.256 2.55415 -4.15469 0
M  V30 2182 H 208.261 0.653833 -5.45898 0
M  V30 2183 H 209.486 0.881719 -6.73352 0
M  V30 2184 H 207.432 2.94871 -5.85992 0
M  V30 2185 H 207.349 1.98152 -7.2957 0
M  V30 2186 H 208.617 3.15858 -7.12639 0
M  V30 2187 N 212.846 1.57033 -0.133567 0
M  V30 2188 C 214.076 1.99754 0.527429 0
M  V30 2189 C 214.484 1.01245 1.59832 0
M  V30 2190 O 213.827 -0.000645496 1.837 0
M  V30 2191 C 213.889 3.38903 1.19939 0
M  V30 2192 C 213.553 4.56174 0.274709 0
M  V30 2193 C 214.55 5.17563 -0.492398 0
M  V30 2194 C 212.235 5.01972 0.18153 0
M  V30 2195 C 214.229 6.2315 -1.34027 0
M  V30 2196 C 211.916 6.07416 -0.669958 0
M  V30 2197 C 212.914 6.67874 -1.42947 0
M  V30 2198 O 212.602 7.71279 -2.2668 0
M  V30 2199 H 212.334 0.660702 0.142999 0
M  V30 2200 H 214.888 2.04207 -0.221099 0
M  V30 2201 H 213.118 3.31248 1.99528 0
M  V30 2202 H 214.807 3.65818 1.75875 0
M  V30 2203 H 215.573 4.83087 -0.430367 0
M  V30 2204 H 211.452 4.54652 0.762422 0
M  V30 2205 H 214.996 6.70268 -1.93357 0
M  V30 2206 H 210.893 6.41321 -0.73333 0
M  V30 2207 H 211.661 7.88441 -2.1978 0
M  V30 2208 N 214.325 -0.140222 1.56975 0
M  V30 2209 C 215.565 -0.857823 1.85528 0
M  V30 2210 C 215.929 -1.78039 0.718768 0
M  V30 2211 O 217.13 -2.53795 0.885521 0
M  V30 2212 C 215.401 -1.60615 3.19277 0
M  V30 2213 S 216.96 -2.36824 3.69405 0
M  V30 2214 H 213.778 -0.286727 0.650622 0
M  V30 2215 H 216.38 -0.117408 1.95147 0
M  V30 2216 H 215.084 -0.919994 3.99955 0
M  V30 2217 H 214.615 -2.38735 3.12681 0
M  V30 2218 H 216.63 -3.62148 3.3921 0
M  V30 2219 N 215.803 -1.52179 -0.40978 0
M  V30 2220 C 216.735 -1.71703 -1.51825 0
M  V30 2221 C 217.748 -0.597445 -1.51441 0
M  V30 2222 O 218.937 -0.872582 -1.55719 0
M  V30 2223 C 216.037 -1.74171 -2.90719 0
M  V30 2224 C 215.21 -3.03156 -3.15302 0
M  V30 2225 C 214.269 -2.97445 -4.34065 0
M  V30 2226 O 213.295 -3.71352 -4.31377 0
M  V30 2227 N 214.497 -2.15191 -5.39141 0
M  V30 2228 H 217.262 -2.67334 -1.35472 0
M  V30 2229 H 214.823 -1.50409 -0.599069 0
M  V30 2230 H 216.815 -1.67884 -3.68235 0
M  V30 2231 H 215.385 -0.860166 -3.00533 0
M  V30 2232 H 214.605 -3.23097 -2.25836 0
M  V30 2233 H 215.893 -3.88484 -3.28569 0
M  V30 2234 H 215.291 -1.54573 -5.44173 0
M  V30 2235 H 213.848 -2.1476 -6.15403 0
M  V30 2236 N 217.281 0.66697 -1.42791 0
M  V30 2237 C 218.506 1.46004 -1.47301 0
M  V30 2238 C 218.931 1.87894 -0.0880317 0
M  V30 2239 O 218.289 1.56502 0.915253 0
M  V30 2240 C 218.337 2.68031 -2.41229 0
M  V30 2241 O 217.441 3.6659 -1.88906 0
M  V30 2242 H 216.782 0.43832 -0.49877 0
M  V30 2243 H 219.312 0.817391 -1.87563 0
M  V30 2244 H 219.322 3.1601 -2.58073 0
M  V30 2245 H 217.997 2.36883 -3.41847 0
M  V30 2246 H 216.574 3.25661 -1.81656 0
M  V30 2247 O 218.798 1.39735 0.809714 0
M  V30 2248 H 219.489 1.27958 1.45418 0
M  V30 END ATOM
M  V30 BEGIN BOND
M  V30 END BOND
M  V30 END CTAB
M  END
$$$$
