drugbank_target|P17900 Ganglioside GM2 activator (DB02261; DB03017; DB03633; DB04660; DB08231)
 OpenBabel12092119543D

  0  0  0     0  0            999 V3000
M  V30 BEGIN CTAB
M  V30 COUNTS 2956 2992 0 0 0
M  V30 BEGIN ATOM
M  V30 1 H -0.908 1.98254 -0.117106 0
M  V30 2 N 0 1.576 0 0
M  V30 3 C 0.933 2.03868 1.02534 0
M  V30 4 C 1.911 0.928543 1.3348 0
M  V30 5 O 3.095 1.19667 1.45644 0
M  V30 6 C 0.222 2.43627 2.35294 0
M  V30 7 C -0.732 3.65373 2.2001 0
M  V30 8 S 0.101 5.13292 1.52614 0
M  V30 9 C 1.257 5.56322 2.86805 0
M  V30 10 H 1.49 2.90518 0.631377 0
M  V30 11 H -0.977 1.52953 0.210867 0
M  V30 12 H 0.981 2.67203 3.11629 0
M  V30 13 H -0.358 1.57376 2.7183 0
M  V30 14 H -1.165 3.90944 3.18086 0
M  V30 15 H -1.563 3.418 1.51819 0
M  V30 16 H 0.729 5.58782 3.83104 0
M  V30 17 H 1.672 6.56266 2.65933 0
M  V30 18 H 2.08 4.83886 2.90714 0
M  V30 19 N 1.4781 -0.272755 1.55222 0
M  V30 20 C 2.4101 -1.35946 1.8453 0
M  V30 21 C 3.4231 -1.45525 0.729818 0
M  V30 22 O 4.6121 -1.47337 1.00767 0
M  V30 23 C 1.7121 -2.74069 1.99347 0
M  V30 24 C 0.8851 -2.87079 3.30007 0
M  V30 25 C -0.0559 -4.05879 3.34886 0
M  V30 26 O -1.0299 -3.96626 4.08261 0
M  V30 27 N 0.1721 -5.17857 2.62307 0
M  V30 28 H 2.9371 -1.11149 2.78327 0
M  V30 29 H 0.4981 -0.462869 1.55142 0
M  V30 30 H 2.4901 -3.51838 1.99981 0
M  V30 31 H 1.0601 -2.91688 1.12415 0
M  V30 32 H 0.2801 -1.96193 3.41909 0
M  V30 33 H 1.5681 -2.92701 4.16177 0
M  V30 34 H 0.9661 -5.28261 2.02377 0
M  V30 35 H -0.4769 -5.93855 2.68663 0
M  V30 36 N 2.9562 -1.48159 -0.537278 0
M  V30 37 C 4.1812 -1.59707 -1.32319 0
M  V30 38 C 4.6062 -0.254859 -1.86365 0
M  V30 39 O 3.9642 0.772378 -1.64024 0
M  V30 40 C 4.0122 -2.6412 -2.45505 0
M  V30 41 O 3.1162 -2.20774 -3.48328 0
M  V30 42 H 2.4572 -0.535791 -0.392204 0
M  V30 43 H 4.9872 -1.94092 -0.647268 0
M  V30 44 H 4.9972 -2.85166 -2.91795 0
M  V30 45 H 3.6722 -3.61567 -2.05528 0
M  V30 46 H 2.2492 -2.09911 -3.08207 0
M  V30 47 N 4.4343 0.785586 -1.36625 0
M  V30 48 C 5.3643 1.91259 -1.33949 0
M  V30 49 C 6.3453 1.68795 -0.210325 0
M  V30 50 O 7.5303 1.89854 -0.408561 0
M  V30 51 C 4.6603 3.28339 -1.13186 0
M  V30 52 C 3.6143 3.65335 -2.22967 0
M  V30 53 C 2.9403 5.00806 -1.87342 0
M  V30 54 C 4.2403 3.7352 -3.65075 0
M  V30 55 H 5.9343 1.93755 -2.28253 0
M  V30 56 H 3.4803 0.930788 -1.09874 0
M  V30 57 H 5.4333 4.06804 -1.09948 0
M  V30 58 H 4.1573 3.2624 -0.153332 0
M  V30 59 H 2.8163 2.89169 -2.25337 0
M  V30 60 H 2.4643 4.95233 -0.880545 0
M  V30 61 H 2.1643 5.26529 -2.60846 0
M  V30 62 H 3.6883 5.81687 -1.85667 0
M  V30 63 H 5.1023 4.42168 -3.64911 0
M  V30 64 H 3.4993 4.10731 -4.37516 0
M  V30 65 H 4.5693 2.74527 -3.99703 0
M  V30 66 N 5.9124 1.20967 1.01018 0
M  V30 67 C 6.8454 0.907578 2.09376 0
M  V30 68 C 7.8234 -0.142868 1.61971 0
M  V30 69 O 9.0074 -0.0150391 1.88494 0
M  V30 70 C 6.1344 0.361791 3.36762 0
M  V30 71 C 5.1804 1.39423 4.03068 0
M  V30 72 S 6.0134 2.96159 4.4615 0
M  V30 73 C 7.1694 2.43173 5.7673 0
M  V30 74 H 7.4024 1.82519 2.34678 0
M  V30 75 H 4.9354 1.03884 1.14225 0
M  V30 76 H 6.8934 0.0534523 4.10465 0
M  V30 77 H 5.5544 -0.53443 3.0952 0
M  V30 78 H 4.7474 0.961853 4.94737 0
M  V30 79 H 4.3494 1.65038 3.35617 0
M  V30 80 H 6.6414 1.83335 6.52223 0
M  V30 81 H 7.5844 3.33264 6.24773 0
M  V30 82 H 7.9924 1.85069 5.33301 0
M  V30 83 N 7.3905 -1.2043 1.01659 0
M  V30 84 C 8.3225 -2.22626 0.544988 0
M  V30 85 C 9.3355 -1.58479 -0.372609 0
M  V30 86 O 10.5245 -1.77679 -0.170958 0
M  V30 87 C 7.6245 -3.38141 -0.22663 0
M  V30 88 C 6.7975 -4.31877 0.692876 0
M  V30 89 C 5.8565 -5.26191 -0.0311616 0
M  V30 90 O 4.8825 -5.6612 0.591343 0
M  V30 91 N 6.0845 -5.65618 -1.30601 0
M  V30 92 H 8.8495 -2.63716 1.42388 0
M  V30 93 H 6.4105 -1.34971 0.894116 0
M  V30 94 H 8.4025 -3.98239 -0.72024 0
M  V30 95 H 6.9725 -2.95943 -1.00681 0
M  V30 96 H 6.1925 -3.69746 1.36679 0
M  V30 97 H 7.4805 -4.91426 1.31824 0
M  V30 98 H 6.8785 -5.3519 -1.83269 0
M  V30 99 H 5.4355 -6.28025 -1.74435 0
M  V30 100 N 8.8686 -0.792821 -1.36206 0
M  V30 101 C 9.8316 -0.199459 -2.2833 0
M  V30 102 C 10.8316 0.605189 -1.48977 0
M  V30 103 O 12.0216 0.425685 -1.68919 0
M  V30 104 C 9.1536 0.723523 -3.33134 0
M  V30 105 H 10.3466 -1.01181 -2.82316 0
M  V30 106 H 7.8996 -0.562485 -1.45828 0
M  V30 107 H 8.6346 1.56008 -2.84309 0
M  V30 108 H 8.4196 0.148436 -3.91819 0
M  V30 109 H 9.9096 1.13344 -4.01924 0
M  V30 110 N 10.3467 1.47872 -0.545128 0
M  V30 111 C 11.7577 1.86384 -0.108581 0
M  V30 112 C 12.1087 1.45309 1.31832 0
M  V30 113 O 11.2337 0.850641 1.9898 0
M  V30 114 C 11.8287 3.38265 -0.190274 0
M  V30 115 C 10.3877 3.75914 0.191164 0
M  V30 116 C 9.5347 2.71926 -0.543273 0
M  V30 117 H 12.4857 1.39561 -0.755537 0
M  V30 118 H 12.5067 3.75831 0.594217 0
M  V30 119 H 12.0187 3.6813 -1.2289 0
M  V30 120 H 10.1197 3.51665 1.23136 0
M  V30 121 H 10.2327 4.78836 -0.158987 0
M  V30 122 H 8.5967 2.54697 0.0122495 0
M  V30 123 H 9.3797 3.04634 -1.58282 0
M  V30 124 N 11.8248 0.280983 1.55075 0
M  V30 125 C 12.7548 -0.597469 2.25727 0
M  V30 126 C 13.7358 -1.15417 1.24952 0
M  V30 127 O 14.9208 -1.18722 1.53684 0
M  V30 128 C 12.0508 -1.7789 2.98283 0
M  V30 129 C 11.0048 -1.35347 4.06036 0
M  V30 130 C 10.3308 -2.61846 4.66198 0
M  V30 131 C 11.6308 -0.499354 5.19907 0
M  V30 132 H 13.3248 -0.00824265 2.99399 0
M  V30 133 H 10.8708 -0.0025244 1.44 0
M  V30 134 H 12.8238 -2.39937 3.46422 0
M  V30 135 H 11.5478 -2.39405 2.22155 0
M  V30 136 H 10.2068 -0.756156 3.58717 0
M  V30 137 H 9.8548 -3.21632 3.86732 0
M  V30 138 H 9.5548 -2.3409 5.38958 0
M  V30 139 H 11.0788 -3.24732 5.1709 0
M  V30 140 H 12.4928 -1.02498 5.64063 0
M  V30 141 H 10.8898 -0.316424 5.99265 0
M  V30 142 H 11.9598 0.480459 4.82514 0
M  V30 143 N 13.3029 -1.57598 0.00835791 0
M  V30 144 C 14.2329 -2.1198 -0.979113 0
M  V30 145 C 15.2139 -1.03091 -1.35301 0
M  V30 146 O 16.3989 -1.30818 -1.43528 0
M  V30 147 C 13.5289 -2.62995 -2.26828 0
M  V30 148 C 12.4829 -3.76485 -2.03576 0
M  V30 149 C 11.8089 -4.13846 -3.38579 0
M  V30 150 C 13.1089 -5.0342 -1.39161 0
M  V30 151 H 14.8029 -2.94738 -0.526281 0
M  V30 152 H 12.3489 -1.41783 -0.251704 0
M  V30 153 H 14.3019 -2.99669 -2.96271 0
M  V30 154 H 13.0259 -1.7737 -2.7424 0
M  V30 155 H 11.6849 -3.40217 -1.36557 0
M  V30 156 H 11.3329 -3.25232 -3.83709 0
M  V30 157 H 11.0329 -4.90312 -3.23834 0
M  V30 158 H 12.5569 -4.53086 -4.09323 0
M  V30 159 H 13.9709 -5.37812 -1.98573 0
M  V30 160 H 12.3679 -5.84746 -1.34878 0
M  V30 161 H 13.4379 -4.83548 -0.361868 0
M  V30 162 N 14.781 0.264519 -1.55364 0
M  V30 163 C 16.03 0.992812 -1.75574 0
M  V30 164 C 16.343 1.87142 -0.568979 0
M  V30 165 O 17.549 2.63513 -0.653682 0
M  V30 166 C 16.005 1.81519 -3.10771 0
M  V30 167 C 15.613 0.984839 -4.37041 0
M  V30 168 C 17.357 2.53727 -3.40327 0
M  V30 169 C 15.264 1.80209 -5.63275 0
M  V30 170 H 14.194 0.374412 -0.65447 0
M  V30 171 H 16.845 0.248138 -1.81815 0
M  V30 172 H 15.227 2.60115 -2.98591 0
M  V30 173 H 16.401 0.242455 -4.60162 0
M  V30 174 H 14.716 0.37691 -4.14691 0
M  V30 175 H 17.313 3.15292 -4.3185 0
M  V30 176 H 17.656 3.24447 -2.60845 0
M  V30 177 H 18.189 1.82156 -3.53644 0
M  V30 178 H 14.928 1.13896 -6.45529 0
M  V30 179 H 14.448 2.52022 -5.44284 0
M  V30 180 H 16.127 2.37364 -6.01887 0
M  V30 181 N 16.2591 1.48442 0.529413 0
M  V30 182 C 17.2221 1.62524 1.61612 0
M  V30 183 C 18.2221 0.498509 1.52877 0
M  V30 184 O 19.4121 0.76431 1.56537 0
M  V30 185 C 16.5441 1.59597 3.01233 0
M  V30 186 H 17.7371 2.59423 1.50465 0
M  V30 187 H 15.2901 1.37047 0.751514 0
M  V30 188 H 16.0251 0.641781 3.17886 0
M  V30 189 H 15.8101 2.41397 3.08982 0
M  V30 190 H 17.3001 1.72646 3.80241 0
M  V30 191 N 17.7372 -0.778329 1.37039 0
M  V30 192 C 18.6672 -1.90546 1.34962 0
M  V30 193 C 19.6482 -1.68681 0.219274 0
M  V30 194 O 20.8332 -1.89634 0.418624 0
M  V30 195 C 17.9632 -3.27734 1.14925 0
M  V30 196 C 16.9172 -3.64147 2.24902 0
M  V30 197 C 16.2432 -4.99806 1.89996 0
M  V30 198 C 17.5432 -3.71579 3.67051 0
M  V30 199 H 19.2372 -1.92541 2.29277 0
M  V30 200 H 16.7832 -0.924948 1.10366 0
M  V30 201 H 18.7362 -4.06215 1.12104 0
M  V30 202 H 17.4602 -3.26154 0.170631 0
M  V30 203 H 16.1192 -2.8797 2.26868 0
M  V30 204 H 15.7672 -4.94759 0.906796 0
M  V30 205 H 15.4672 -5.25139 2.63634 0
M  V30 206 H 16.9912 -5.80694 1.88749 0
M  V30 207 H 18.4052 -4.40227 3.67251 0
M  V30 208 H 16.8022 -4.08405 4.39688 0
M  V30 209 H 17.8722 -2.72404 4.01154 0
M  V30 210 N 19.2153 -1.21501 -1.00376 0
M  V30 211 C 20.4633 -1.03095 -1.73827 0
M  V30 212 C 20.7843 0.436341 -1.90055 0
M  V30 213 O 20.0543 1.31466 -1.45236 0
M  V30 214 H 18.6343 -0.378487 -0.644016 0
M  V30 215 H 21.2963 -1.52831 -1.20949 0
M  V30 216 H 20.3923 -1.49991 -2.73695 0
M  V30 217 N 20.6934 1.19889 -1.02296 0
M  V30 218 C 21.6234 2.25141 -0.619174 0
M  V30 219 C 22.6044 1.66051 0.368915 0
M  V30 220 O 23.7894 1.92546 0.252941 0
M  V30 221 C 20.9194 3.4728 0.0368783 0
M  V30 222 C 19.8734 4.19005 -0.872865 0
M  V30 223 C 19.1994 5.34637 -0.0822402 0
M  V30 224 C 20.4994 4.74452 -2.18387 0
M  V30 225 H 22.1934 2.59171 -1.49903 0
M  V30 226 H 19.7394 1.24579 -0.722222 0
M  V30 227 H 21.6924 4.20098 0.330958 0
M  V30 228 H 20.4164 3.12433 0.95149 0
M  V30 229 H 19.0754 3.48061 -1.15105 0
M  V30 230 H 18.7234 4.96034 0.83422 0
M  V30 231 H 18.4234 5.83557 -0.688149 0
M  V30 232 H 19.9474 6.10255 0.205238 0
M  V30 233 H 21.3614 5.39055 -1.95172 0
M  V30 234 H 19.7584 5.33834 -2.74119 0
M  V30 235 H 20.8284 3.92844 -2.84257 0
M  V30 236 N 22.1715 0.800033 1.35784 0
M  V30 237 C 23.1015 0.220184 2.3246 0
M  V30 238 C 24.0825 -0.65073 1.57161 0
M  V30 239 O 25.2675 -0.582359 1.85263 0
M  V30 240 C 22.3975 -0.637353 3.41402 0
M  V30 241 C 21.3515 0.134531 4.27789 0
M  V30 242 C 20.6775 -0.844285 5.27992 0
M  V30 243 C 21.9775 1.32979 5.05088 0
M  V30 244 H 23.6715 1.02787 2.81203 0
M  V30 245 H 21.2175 0.495717 1.35199 0
M  V30 246 H 23.1705 -1.05302 4.08031 0
M  V30 247 H 21.8945 -1.47785 2.91251 0
M  V30 248 H 20.5535 0.531296 3.6273 0
M  V30 249 H 20.2015 -1.68011 4.74111 0
M  V30 250 H 19.9015 -0.332184 5.8666 0
M  V30 251 H 21.4255 -1.2583 5.97494 0
M  V30 252 H 22.8395 0.98934 5.64699 0
M  V30 253 H 21.2365 1.77593 5.7322 0
M  V30 254 H 22.3065 2.11978 4.36111 0
M  V30 255 N 23.6496 -1.47581 0.552962 0
M  V30 256 C 24.5796 -2.32762 -0.185451 0
M  V30 257 C 25.5606 -1.43527 -0.912905 0
M  V30 258 O 26.7456 -1.72388 -0.894201 0
M  V30 259 C 23.8756 -3.25219 -1.21859 0
M  V30 260 C 22.8296 -4.23661 -0.607864 0
M  V30 261 C 22.1556 -5.05413 -1.74533 0
M  V30 262 C 23.4556 -5.20481 0.435582 0
M  V30 263 H 25.1496 -2.94749 0.525684 0
M  V30 264 H 22.6956 -1.41738 0.254251 0
M  V30 265 H 24.6486 -3.8365 -1.7433 0
M  V30 266 H 23.3726 -2.61279 -1.95961 0
M  V30 267 H 22.0316 -3.66451 -0.104489 0
M  V30 268 H 21.6796 -4.3788 -2.47529 0
M  V30 269 H 21.3796 -5.72059 -1.34249 0
M  V30 270 H 22.9036 -5.66701 -2.27338 0
M  V30 271 H 24.3176 -5.733 -0.00290157 0
M  V30 272 H 22.7146 -5.95305 0.757067 0
M  V30 273 H 23.7846 -4.66217 1.33303 0
M  V30 274 N 25.1277 -0.289203 -1.54924 0
M  V30 275 C 26.0907 0.579144 -2.21762 0
M  V30 276 C 27.0907 1.07047 -1.1999 0
M  V30 277 O 28.2807 0.968384 -1.44803 0
M  V30 278 C 25.4127 1.80055 -2.8947 0
M  V30 279 H 26.6057 -0.00464908 -2.999 0
M  V30 280 H 24.1587 -0.0399306 -1.56249 0
M  V30 281 H 24.8937 2.42449 -2.15381 0
M  V30 282 H 24.6787 1.45602 -3.64064 0
M  V30 283 H 26.1687 2.41773 -3.40493 0
M  V30 284 N 26.6058 1.57591 -0.0167156 0
M  V30 285 C 27.5688 2.08393 0.954204 0
M  V30 286 C 28.5688 0.996531 1.26198 0
M  V30 287 O 29.7588 1.25858 1.20438 0
M  V30 288 C 26.8908 2.5394 2.27436 0
M  V30 289 H 28.0838 2.95455 0.514451 0
M  V30 290 H 25.6368 1.54582 0.231089 0
M  V30 291 H 26.3718 1.70171 2.76066 0
M  V30 292 H 26.1568 3.33371 2.06412 0
M  V30 293 H 27.6468 2.93512 2.97053 0
M  V30 294 N 28.0839 -0.256276 1.55502 0
M  V30 295 C 29.4949 -0.826068 1.67431 0
M  V30 296 C 29.8459 -1.86396 0.612446 0
M  V30 297 O 28.9709 -2.15031 -0.243025 0
M  V30 298 C 29.5659 -1.50512 3.03532 0
M  V30 299 C 28.1249 -2.02273 3.17431 0
M  V30 300 C 27.2719 -0.870548 2.63281 0
M  V30 301 H 30.2229 -0.0322728 1.58667 0
M  V30 302 H 30.2439 -2.37279 2.97454 0
M  V30 303 H 29.7559 -0.749484 3.80794 0
M  V30 304 H 27.8569 -2.80746 2.44974 0
M  V30 305 H 27.9699 -2.22655 4.24219 0
M  V30 306 H 26.3339 -1.26851 2.20864 0
M  V30 307 H 27.1169 -0.128149 3.43061 0
M  V30 308 N 29.562 -1.4872 -0.521534 0
M  V30 309 C 30.525 -1.63379 -1.60748 0
M  V30 310 C 31.525 -0.50661 -1.52611 0
M  V30 311 O 32.715 -0.772601 -1.5613 0
M  V30 312 C 29.847 -1.61192 -3.00383 0
M  V30 313 H 31.04 -2.60217 -1.49087 0
M  V30 314 H 28.593 -1.37444 -0.744235 0
M  V30 315 H 29.328 -0.65863 -3.17541 0
M  V30 316 H 29.113 -2.43032 -3.07698 0
M  V30 317 H 30.603 -1.7466 -3.7932 0
M  V30 318 N 31.0401 0.771051 -1.3745 0
M  V30 319 C 31.9721 1.89352 -1.29146 0
M  V30 320 C 32.9851 1.61477 -0.207124 0
M  V30 321 O 34.1741 1.72382 -0.463324 0
M  V30 322 C 31.2741 3.24596 -0.974195 0
M  V30 323 C 30.4471 3.80111 -2.16413 0
M  V30 324 C 29.5061 4.93832 -1.81703 0
M  V30 325 O 28.5321 5.09382 -2.54006 0
M  V30 326 N 29.7341 5.75483 -0.761573 0
M  V30 327 H 32.4991 1.96991 -2.25864 0
M  V30 328 H 30.0601 0.950191 -1.31084 0
M  V30 329 H 32.0521 3.98193 -0.722828 0
M  V30 330 H 30.6221 3.12454 -0.0955527 0
M  V30 331 H 29.8421 2.98284 -2.57721 0
M  V30 332 H 31.1301 4.13932 -2.95867 0
M  V30 333 H 30.5281 5.65469 -0.161609 0
M  V30 334 H 29.0851 6.49302 -0.570064 0
M  V30 335 N 32.5182 1.22032 0.997298 0
M  V30 336 C 33.4812 0.987909 2.06816 0
M  V30 337 C 34.4812 -0.0440084 1.6074 0
M  V30 338 O 35.6712 0.194053 1.73116 0
M  V30 339 C 32.8032 0.49132 3.37341 0
M  V30 340 H 33.9962 1.93803 2.28868 0
M  V30 341 H 31.5492 1.03838 1.16822 0
M  V30 342 H 32.2842 -0.463364 3.20973 0
M  V30 343 H 32.0692 1.23575 3.72118 0
M  V30 344 H 33.5592 0.348824 4.16141 0
M  V30 345 N 33.9963 -1.19345 1.0293 0
M  V30 346 C 34.9463 -2.20472 0.58104 0
M  V30 347 C 35.9303 -1.56578 -0.370442 0
M  V30 348 O 37.1223 -1.75963 -0.191344 0
M  V30 349 C 34.2513 -3.43236 -0.066306 0
M  V30 350 C 33.3373 -4.14274 0.907642 0
M  V30 351 N 33.7283 -4.61492 2.07023 0
M  V30 352 C 32.0263 -4.39966 0.731177 0
M  V30 353 C 32.7273 -5.1605 2.68454 0
M  V30 354 N 31.7033 -5.06875 1.96414 0
M  V30 355 H 35.5053 -2.54659 1.46717 0
M  V30 356 H 33.0193 -1.35423 0.896345 0
M  V30 357 H 35.0163 -4.14927 -0.405068 0
M  V30 358 H 33.6763 -3.10549 -0.948118 0
M  V30 359 H 34.6873 -4.56304 2.44963 0
M  V30 360 H 31.3643 -4.17377 -0.101507 0
M  V30 361 H 32.7543 -5.6287 3.66915 0
M  V30 362 N 35.4744 -0.807222 -1.35358 0
M  V30 363 C 36.4044 -0.232509 -2.3234 0
M  V30 364 C 37.3854 0.642386 -1.57504 0
M  V30 365 O 38.5704 0.572526 -1.85569 0
M  V30 366 C 35.7004 0.619238 -3.41735 0
M  V30 367 C 34.6544 -0.157215 -4.27711 0
M  V30 368 C 33.9804 0.816273 -5.28433 0
M  V30 369 C 35.2804 -1.35656 -5.04376 0
M  V30 370 H 36.9744 -1.04276 -2.80654 0
M  V30 371 H 34.5204 -0.50288 -1.34934 0
M  V30 372 H 36.4734 1.03137 -4.08584 0
M  V30 373 H 35.1974 1.46239 -2.92031 0
M  V30 374 H 33.8564 -0.550525 -3.62443 0
M  V30 375 H 33.5044 1.65494 -4.74996 0
M  V30 376 H 33.2044 0.301067 -5.86828 0
M  V30 377 H 34.7284 1.22659 -5.98153 0
M  V30 378 H 36.1424 -1.01927 -5.64166 0
M  V30 379 H 34.5394 -1.8063 -5.7227 0
M  V30 380 H 35.6094 -2.14288 -4.34981 0
M  V30 381 N 36.9525 1.47285 -0.560781 0
M  V30 382 C 37.8995 2.30058 0.18491 0
M  V30 383 C 38.8695 1.39281 0.904986 0
M  V30 384 O 40.0545 1.68241 0.899979 0
M  V30 385 C 37.1945 3.23317 1.20666 0
M  V30 386 C 36.3075 4.29186 0.492285 0
M  V30 387 C 35.4425 5.09592 1.49964 0
M  V30 388 C 34.4815 6.07232 0.770439 0
M  V30 389 N 33.6185 6.80584 1.72479 0
M  V30 390 H 38.4585 2.93302 -0.527048 0
M  V30 391 H 35.9955 1.44568 -0.271738 0
M  V30 392 H 37.9535 3.75811 1.81168 0
M  V30 393 H 36.5835 2.61929 1.88661 0
M  V30 394 H 35.6355 3.7972 -0.227333 0
M  V30 395 H 36.9475 4.98738 -0.0787929 0
M  V30 396 H 36.1015 5.66254 2.17809 0
M  V30 397 H 34.8405 4.3995 2.10464 0
M  V30 398 H 33.8455 5.49745 0.0780846 0
M  V30 399 H 35.0705 6.78884 0.171134 0
M  V30 400 H 33.0165 6.1367 2.3183 0
M  V30 401 H 32.9335 7.46319 1.20596 0
M  V30 402 H 34.2015 7.41818 2.39428 0
M  V30 403 N 38.4306 0.297415 1.54768 0
M  V30 404 C 39.3776 -0.580276 2.23386 0
M  V30 405 C 40.3476 -1.13238 1.21517 0
M  V30 406 O 41.5326 -1.17757 1.50126 0
M  V30 407 C 38.6726 -1.74801 2.97555 0
M  V30 408 C 37.7856 -1.22764 4.1419 0
M  V30 409 C 36.9206 -2.35895 4.75949 0
M  V30 410 C 35.9596 -1.80974 5.84735 0
M  V30 411 N 35.0966 -2.87664 6.40464 0
M  V30 412 H 39.9366 0.0114833 2.97998 0
M  V30 413 H 37.4736 0.0174361 1.4709 0
M  V30 414 H 39.4316 -2.43475 3.38786 0
M  V30 415 H 38.0616 -2.31145 2.25326 0
M  V30 416 H 37.1136 -0.433271 3.77924 0
M  V30 417 H 38.4256 -0.785551 4.92575 0
M  V30 418 H 37.5796 -3.12523 5.20014 0
M  V30 419 H 36.3186 -2.83429 3.96887 0
M  V30 420 H 35.3236 -1.02834 5.40097 0
M  V30 421 H 36.5486 -1.34348 6.65678 0
M  V30 422 H 34.4946 -3.34538 5.64287 0
M  V30 423 H 34.4116 -2.4794 7.14186 0
M  V30 424 H 35.6796 -3.642 6.89187 0
M  V30 425 N 39.9087 -1.5758 0.0250728 0
M  V30 426 C 41.3197 -1.79476 -0.514323 0
M  V30 427 C 41.6707 -0.934956 -1.72491 0
M  V30 428 O 40.7957 -0.144245 -2.15919 0
M  V30 429 C 41.3907 -3.25503 -0.939842 0
M  V30 430 C 39.9497 -3.48408 -1.42438 0
M  V30 431 C 39.0967 -2.74583 -0.387201 0
M  V30 432 H 42.0477 -1.567 0.25113 0
M  V30 433 H 42.0687 -3.34992 -1.80445 0
M  V30 434 H 41.5807 -3.88056 -0.0585628 0
M  V30 435 H 39.6817 -2.91103 -2.32572 0
M  V30 436 H 39.7947 -4.57119 -1.43455 0
M  V30 437 H 38.1587 -2.39942 -0.854409 0
M  V30 438 H 38.9417 -3.39849 0.485543 0
M  V30 439 N 41.3868 0.248026 -1.55636 0
M  V30 440 C 42.6118 0.998028 -1.81808 0
M  V30 441 C 43.0368 1.78207 -0.601979 0
M  V30 442 O 42.3948 1.75653 0.448961 0
M  V30 443 C 42.4428 1.9125 -3.05705 0
M  V30 444 O 41.5468 3.00406 -2.82542 0
M  V30 445 H 40.8878 0.284045 -0.600179 0
M  V30 446 H 43.4178 0.269357 -2.02819 0
M  V30 447 H 43.4278 2.32737 -3.35108 0
M  V30 448 H 42.1028 1.33602 -3.93857 0
M  V30 449 H 40.6798 2.63056 -2.64303 0
M  V30 450 N 42.8649 1.48995 0.513639 0
M  V30 451 C 43.7969 1.60836 1.63293 0
M  V30 452 C 44.8099 0.491701 1.55197 0
M  V30 453 O 45.9989 0.763238 1.6136 0
M  V30 454 C 43.0989 1.53731 3.02027 0
M  V30 455 C 42.2719 2.80715 3.35437 0
M  V30 456 C 41.3309 2.66837 4.53525 0
M  V30 457 O 40.3569 3.40753 4.55934 0
M  V30 458 N 41.5589 1.77539 5.52684 0
M  V30 459 H 44.3239 2.57366 1.53566 0
M  V30 460 H 41.8849 1.45925 0.701259 0
M  V30 461 H 43.8769 1.42118 3.78926 0
M  V30 462 H 42.4469 0.651092 3.05744 0
M  V30 463 H 41.6669 3.06772 2.47557 0
M  V30 464 H 42.9549 3.64927 3.54551 0
M  V30 465 H 42.3529 1.16719 5.53528 0
M  V30 466 H 40.9099 1.71856 6.28736 0
M  V30 467 N 44.343 -0.763751 1.37857 0
M  V30 468 C 45.273 -1.89103 1.36975 0
M  V30 469 C 46.254 -1.68439 0.237152 0
M  V30 470 O 47.439 -1.8918 0.438713 0
M  V30 471 C 44.569 -3.26496 1.18395 0
M  V30 472 C 43.523 -3.61741 2.28751 0
M  V30 473 C 42.849 -4.97762 1.95286 0
M  V30 474 C 44.149 -3.67665 3.70972 0
M  V30 475 H 45.843 -1.90099 2.31307 0
M  V30 476 H 43.389 -0.91319 1.11341 0
M  V30 477 H 45.342 -4.05003 1.16406 0
M  V30 478 H 44.066 -3.25955 0.205215 0
M  V30 479 H 42.725 -2.85547 2.29909 0
M  V30 480 H 42.373 -4.93769 0.959221 0
M  V30 481 H 42.073 -5.22313 2.69189 0
M  V30 482 H 43.597 -5.7866 1.94898 0
M  V30 483 H 45.011 -4.36307 3.719 0
M  V30 484 H 43.408 -4.03718 4.43995 0
M  V30 485 H 44.478 -2.68134 4.0402 0
M  V30 486 N 45.8211 -1.22559 -0.990812 0
M  V30 487 C 47.0461 -1.07862 -1.77145 0
M  V30 488 C 47.4711 0.366447 -1.84496 0
M  V30 489 O 46.8291 1.26478 -1.29896 0
M  V30 490 C 46.8771 -1.69686 -3.18181 0
M  V30 491 O 45.9811 -0.951946 -4.01263 0
M  V30 492 H 45.3221 -0.378712 -0.545411 0
M  V30 493 H 47.8521 -1.62399 -1.2445 0
M  V30 494 H 47.8621 -1.74496 -3.68802 0
M  V30 495 H 46.5371 -2.74841 -3.12146 0
M  V30 496 H 45.1141 -0.980011 -3.59792 0
M  V30 497 N 47.2992 1.18797 -1.03562 0
M  V30 498 C 48.5242 1.9314 -0.755764 0
M  V30 499 C 48.9492 1.7537 0.68022 0
M  V30 500 O 48.3072 1.06046 1.47051 0
M  V30 501 C 48.3552 3.42747 -1.12058 0
M  V30 502 O 47.4592 4.11683 -0.243124 0
M  V30 503 H 46.8002 0.602724 -0.278604 0
M  V30 504 H 49.3302 1.50678 -1.3841 0
M  V30 505 H 49.3402 3.93437 -1.08035 0
M  V30 506 H 48.0152 3.55002 -2.16672 0
M  V30 507 H 46.5922 3.71323 -0.342539 0
M  V30 508 N 48.7773 0.814389 1.34928 0
M  V30 509 C 50.0243 0.398423 1.98542 0
M  V30 510 C 50.3523 -1.03638 1.64589 0
M  V30 511 O 49.6073 -1.73509 0.90516 0
M  V30 512 C 49.9063 0.537781 3.53331 0
M  V30 513 C 49.5723 1.93704 4.07172 0
M  V30 514 C 48.2343 2.31984 4.21589 0
M  V30 515 C 50.5863 2.85213 4.36237 0
M  V30 516 C 47.9143 3.61125 4.62391 0
M  V30 517 C 50.2663 4.13809 4.78482 0
M  V30 518 C 48.9303 4.52077 4.91104 0
M  V30 519 H 48.2003 0.145793 0.726516 0
M  V30 520 H 50.8473 1.03669 1.61012 0
M  V30 521 H 49.1523 -0.183906 3.91368 0
M  V30 522 H 50.8493 0.196588 4.00518 0
M  V30 523 H 47.4393 1.62966 3.96409 0
M  V30 524 H 51.6233 2.56885 4.24645 0
M  V30 525 H 46.8793 3.90612 4.70353 0
M  V30 526 H 51.0533 4.84811 4.99932 0
M  V30 527 H 48.6803 5.52196 5.22478 0
M  V30 528 N 50.2554 -1.46986 0.568584 0
M  V30 529 C 51.4804 -2.07335 0.0520528 0
M  V30 530 C 51.9054 -1.41675 -1.23733 0
M  V30 531 O 51.2634 -0.495623 -1.74394 0
M  V30 532 C 51.3114 -3.60417 -0.11501 0
M  V30 533 O 50.4154 -3.95309 -1.17492 0
M  V30 534 H 49.7564 -0.661597 0.0564385 0
M  V30 535 H 52.2864 -1.88837 0.787507 0
M  V30 536 H 52.2964 -4.06698 -0.325644 0
M  V30 537 H 50.9714 -4.07601 0.826675 0
M  V30 538 H 49.5484 -3.60757 -0.943869 0
M  V30 539 N 51.7335 -0.305618 -1.54608 0
M  V30 540 C 52.9795 0.295595 -2.01241 0
M  V30 541 C 53.3345 1.51171 -1.19018 0
M  V30 542 O 52.6275 1.89832 -0.259684 0
M  V30 543 C 52.8215 0.698983 -3.50498 0
M  V30 544 C 52.6505 -0.476491 -4.47168 0
M  V30 545 C 51.4205 -0.969963 -4.95903 0
M  V30 546 C 53.6185 -1.32294 -4.96994 0
M  V30 547 N 51.6005 -2.11172 -5.76437 0
M  V30 548 C 52.9715 -2.31212 -5.75275 0
M  V30 549 C 55.0265 -1.35278 -4.7917 0
M  V30 550 C 53.7295 -3.32896 -6.37631 0
M  V30 551 C 55.7555 -2.35823 -5.42348 0
M  V30 552 C 55.1175 -3.33469 -6.20466 0
M  V30 553 H 51.2165 0.0724992 -0.778632 0
M  V30 554 H 53.8005 -0.436583 -1.89742 0
M  V30 555 H 51.9715 1.40032 -3.62278 0
M  V30 556 H 53.7035 1.28013 -3.8392 0
M  V30 557 H 50.4585 -0.544178 -4.70463 0
M  V30 558 H 50.8825 -2.68714 -6.21387 0
M  V30 559 H 55.5245 -0.61157 -4.18354 0
M  V30 560 H 53.2425 -4.07933 -6.97579 0
M  V30 561 H 56.8285 -2.38911 -5.30484 0
M  V30 562 H 55.7085 -4.09996 -6.68485 0
M  V30 563 N 53.2116 1.57565 -0.0334293 0
M  V30 564 C 54.4886 1.83282 0.683163 0
M  V30 565 C 54.8686 0.91823 1.90084 0
M  V30 566 O 54.2166 -0.025113 2.28486 0
M  V30 567 C 54.4266 3.32599 1.0573 0
M  V30 568 C 55.7746 3.99179 1.44711 0
M  V30 569 O 56.7986 3.3712 1.15015 0
M  V30 570 O 55.6576 5.08565 2.0006 0
M  V30 571 H 52.7516 0.755869 0.335546 0
M  V30 572 H 55.2976 1.69589 -0.0614402 0
M  V30 573 H 54.0696 3.90834 0.190828 0
M  V30 574 H 53.6926 3.51415 1.85993 0
M  V30 575 N 54.6897 -0.239769 1.55765 0
M  V30 576 C 55.6377 -1.31668 1.91745 0
M  V30 577 C 56.6317 -1.49462 0.797338 0
M  V30 578 O 57.8377 -1.50852 0.982021 0
M  V30 579 H 54.2127 -0.441048 0.609082 0
M  V30 580 H 56.1837 -0.985923 2.81642 0
M  V30 581 C 54.9327 -2.66368 2.2348 0
M  V30 582 H 54.2557 -2.53478 3.09175 0
M  V30 583 H 55.6957 -3.40578 2.52553 0
M  V30 584 C 54.1547 -3.20002 1.05359 0
M  V30 585 O 54.6847 -4.00538 0.305261 0
M  V30 586 N 52.8907 -2.78126 0.842292 0
M  V30 587 H 52.4377 -2.12742 1.45253 0
M  V30 588 H 52.3957 -3.14354 0.053652 0
M  V30 589 N 56.1678 -1.49265 -0.50573 0
M  V30 590 C 57.4078 -1.60128 -1.27038 0
M  V30 591 C 57.7718 -0.279557 -1.89954 0
M  V30 592 O 58.9728 -0.263329 -2.67507 0
M  V30 593 C 57.2438 -2.72507 -2.31246 0
M  V30 594 S 58.8028 -3.0329 -3.17113 0
M  V30 595 H 55.6208 -0.564863 -0.4318 0
M  V30 596 H 58.2228 -1.86902 -0.573397 0
M  V30 597 H 56.9268 -3.67068 -1.83546 0
M  V30 598 H 56.4578 -2.4771 -3.05619 0
M  V30 599 H 58.4728 -2.44448 -4.31809 0
M  V30 600 N 57.6459 0.756429 -1.3826 0
M  V30 601 C 58.9229 1.50584 -1.24835 0
M  V30 602 C 59.3029 2.10556 0.151485 0
M  V30 603 O 58.6509 1.96825 1.1607 0
M  V30 604 C 58.8609 2.57448 -2.3563 0
M  V30 605 C 60.2089 3.24429 -2.73917 0
M  V30 606 O 61.2329 2.67751 -2.34921 0
M  V30 607 O 60.0919 4.26937 -3.41156 0
M  V30 608 H 57.1859 0.667664 -0.48801 0
M  V30 609 H 59.7319 0.792083 -1.5008 0
M  V30 610 H 58.5039 2.11362 -3.29305 0
M  V30 611 H 58.1269 3.36408 -2.11933 0
M  V30 612 N 59.124 1.23083 0.984299 0
M  V30 613 C 60.034 1.02515 2.11016 0
M  V30 614 C 61.05 -0.0291702 1.73976 0
M  V30 615 O 62.226 0.165434 2.00719 0
M  V30 616 C 59.291 0.614673 3.41208 0
M  V30 617 C 58.352 1.74359 3.92297 0
M  V30 618 C 57.585 1.35261 5.16275 0
M  V30 619 O 57.808 0.235136 5.69915 0
M  V30 620 O 56.742 2.17227 5.61334 0
M  V30 621 H 60.568 1.96862 2.31255 0
M  V30 622 H 58.153 1.01753 1.09392 0
M  V30 623 H 60.035 0.396518 4.1953 0
M  V30 624 H 58.71 -0.299851 3.22308 0
M  V30 625 H 57.617 2.01635 3.1511 0
M  V30 626 H 58.95 2.63629 4.15645 0
M  V30 627 N 60.6021 -1.18246 1.0419 0
M  V30 628 C 61.8501 -1.87886 0.744543 0
M  V30 629 C 62.1711 -1.8082 -0.730006 0
M  V30 630 O 61.4411 -1.22736 -1.52685 0
M  V30 631 H 60.0211 -0.695556 0.272417 0
M  V30 632 H 62.6831 -1.43494 1.31892 0
M  V30 633 H 61.7791 -2.9389 1.05049 0
M  V30 634 N 62.0802 -0.821533 -1.34494 0
M  V30 635 C 63.0272 -0.240397 -2.29545 0
M  V30 636 C 63.9972 0.634031 -1.53523 0
M  V30 637 O 65.1822 0.575966 -1.81899 0
M  V30 638 C 62.3222 0.592869 -3.39969 0
M  V30 639 C 61.4352 -0.30365 -4.30932 0
M  V30 640 C 60.5702 0.539049 -5.28458 0
M  V30 641 C 59.6092 -0.356942 -6.11058 0
M  V30 642 N 58.7462 0.446603 -7.00678 0
M  V30 643 H 63.5862 -1.05632 -2.7865 0
M  V30 644 H 61.1232 -0.532413 -1.37127 0
M  V30 645 H 63.0812 1.09129 -4.02675 0
M  V30 646 H 61.7112 1.37392 -2.92102 0
M  V30 647 H 60.7632 -0.920276 -3.691 0
M  V30 648 H 62.0752 -0.992661 -4.88823 0
M  V30 649 H 61.2292 1.102 -5.96608 0
M  V30 650 H 59.9682 1.26157 -4.71101 0
M  V30 651 H 58.9732 -0.932047 -5.41842 0
M  V30 652 H 60.1982 -1.07755 -6.70497 0
M  V30 653 H 58.1442 1.15282 -6.45791 0
M  V30 654 H 58.0612 -0.184048 -7.55776 0
M  V30 655 H 59.3292 0.992352 -7.73158 0
M  V30 656 N 63.5583 1.46682 -0.576371 0
M  V30 657 C 64.8353 1.95599 0.00703437 0
M  V30 658 C 65.2153 1.51904 1.46589 0
M  V30 659 O 64.5633 0.766755 2.15251 0
M  V30 660 C 64.7733 3.4864 -0.158404 0
M  V30 661 C 66.1213 4.24594 -0.0229439 0
M  V30 662 O 67.1453 3.56094 -0.0869173 0
M  V30 663 O 66.0043 5.46373 0.118015 0
M  V30 664 H 63.0983 0.825275 0.053384 0
M  V30 665 H 65.6443 1.56996 -0.644244 0
M  V30 666 H 64.4163 3.7331 -1.17282 0
M  V30 667 H 64.0393 3.94057 0.5296 0
M  V30 668 N 65.0364 0.313813 1.54444 0
M  V30 669 C 66.4474 -0.176243 1.85866 0
M  V30 670 C 66.7984 -1.52405 1.23561 0
M  V30 671 O 65.9234 -2.09605 0.538016 0
M  V30 672 C 66.5184 -0.32657 3.37222 0
M  V30 673 C 65.0774 -0.760846 3.6863 0
M  V30 674 C 64.2244 0.123247 2.77026 0
M  V30 675 H 67.1754 0.534418 1.49431 0
M  V30 676 H 67.1964 -1.15908 3.62416 0
M  V30 677 H 66.7084 0.654531 3.82541 0
M  V30 678 H 64.8094 -1.75204 3.28838 0
M  V30 679 H 64.9224 -0.571353 4.75681 0
M  V30 680 H 63.2864 -0.399597 2.51546 0
M  V30 681 H 64.0694 1.10094 3.25168 0
M  V30 682 N 66.5145 -1.57545 0.0417849 0
M  V30 683 C 67.4775 -2.09885 -0.92093 0
M  V30 684 C 68.4775 -1.01648 -1.24596 0
M  V30 685 O 69.6675 -1.27759 -1.1842 0
M  V30 686 C 66.7995 -2.57527 -2.23367 0
M  V30 687 H 67.9925 -2.96236 -0.467382 0
M  V30 688 H 65.5455 -1.5493 -0.206467 0
M  V30 689 H 66.2805 -1.74542 -2.73323 0
M  V30 690 H 66.0655 -3.36613 -2.01083 0
M  V30 691 H 67.5555 -2.98201 -2.92346 0
M  V30 692 N 67.9926 0.231505 -1.5589 0
M  V30 693 C 69.2386 0.95877 -1.78705 0
M  V30 694 C 69.5716 1.8438 -0.609725 0
M  V30 695 O 68.8466 1.90521 0.391426 0
M  V30 696 C 69.1296 1.8062 -3.11526 0
M  V30 697 C 68.9826 0.948328 -4.39689 0
M  V30 698 C 70.3016 2.78585 -3.40703 0
M  V30 699 H 67.4206 0.347129 -0.650131 0
M  V30 700 H 70.0626 0.228259 -1.88624 0
M  V30 701 H 68.2126 2.42902 -3.03201 0
M  V30 702 H 69.8846 0.343016 -4.60023 0
M  V30 703 H 68.1276 0.253314 -4.3306 0
M  V30 704 H 68.7986 1.57543 -5.29041 0
M  V30 705 H 71.2746 2.26439 -3.49091 0
M  V30 706 H 70.1506 3.34988 -4.34826 0
M  V30 707 H 70.4116 3.55825 -2.62375 0
M  V30 708 N 69.4707 1.49531 0.497807 0
M  V30 709 C 70.7197 1.58426 1.24837 0
M  V30 710 C 71.0327 0.277643 1.93619 0
M  V30 711 O 72.2387 0.24517 2.70391 0
M  V30 712 C 70.6947 2.79538 2.26686 0
M  V30 713 C 70.3027 4.16971 1.63828 0
M  V30 714 C 72.0467 2.97764 3.0255 0
M  V30 715 C 69.9537 5.29301 2.63807 0
M  V30 716 H 68.8837 0.58989 0.469623 0
M  V30 717 H 71.5347 1.75923 0.521857 0
M  V30 718 H 69.9167 2.55542 3.02514 0
M  V30 719 H 71.0907 4.51116 0.939711 0
M  V30 720 H 69.4057 4.04129 1.00342 0
M  V30 721 H 72.0027 3.78856 3.77323 0
M  V30 722 H 72.3457 2.08448 3.60354 0
M  V30 723 H 72.8787 3.21815 2.33838 0
M  V30 724 H 69.6177 6.20687 2.10779 0
M  V30 725 H 69.1377 4.99606 3.31894 0
M  V30 726 H 70.8167 5.58768 3.2617 0
M  V30 727 N 70.9488 -0.749086 1.3866 0
M  V30 728 C 72.3648 -1.05276 1.19955 0
M  V30 729 C 72.5648 -2.01435 0.05134 0
M  V30 730 O 71.6208 -2.45232 -0.60147 0
M  V30 731 C 72.9338 -1.62853 2.52783 0
M  V30 732 C 74.4818 -1.75002 2.59506 0
M  V30 733 C 74.9568 -2.35991 3.92521 0
M  V30 734 N 76.4478 -2.43416 3.94085 0
M  V30 735 C 77.1828 -2.91511 4.9377 0
M  V30 736 N 76.6788 -3.39608 6.03853 0
M  V30 737 N 78.4718 -2.90592 4.81157 0
M  V30 738 H 70.6228 -0.111066 2.12109 0
M  V30 739 H 72.8858 -0.111901 0.941373 0
M  V30 740 H 72.5918 -0.99664 3.37283 0
M  V30 741 H 72.4658 -2.61854 2.715 0
M  V30 742 H 74.8528 -2.37317 1.75398 0
M  V30 743 H 74.9338 -0.74693 2.44652 0
M  V30 744 H 74.5778 -1.74308 4.77053 0
M  V30 745 H 74.5078 -3.3695 4.04688 0
M  V30 746 H 76.9988 -2.09405 3.14576 0
M  V30 747 H 77.3118 -3.74775 6.75843 0
M  V30 748 H 75.6568 -3.37653 6.07466 0
M  V30 749 H 78.8478 -2.52332 3.94267 0
M  V30 750 H 79.0208 -3.27762 5.58996 0
M  V30 751 N 72.4269 -1.23603 -0.977757 0
M  V30 752 C 73.6519 -1.09735 -1.75991 0
M  V30 753 C 74.0769 0.346858 -1.84874 0
M  V30 754 O 73.4349 1.25093 -1.3123 0
M  V30 755 C 73.4829 -1.73051 -3.16363 0
M  V30 756 O 72.5869 -0.994452 -4.0023 0
M  V30 757 H 71.9279 -0.384476 -0.541364 0
M  V30 758 H 74.4579 -1.6371 -1.2272 0
M  V30 759 H 74.4679 -1.78398 -3.66931 0
M  V30 760 H 73.1429 -2.78137 -3.09213 0
M  V30 761 H 71.7199 -1.01812 -3.58732 0
M  V30 762 N 73.905 1.17692 -1.04816 0
M  V30 763 C 74.835 2.23777 -0.666791 0
M  V30 764 C 75.816 1.66796 0.33361 0
M  V30 765 O 77.001 1.93039 0.212042 0
M  V30 766 C 74.131 3.47281 -0.0367933 0
M  V30 767 C 73.085 4.17059 -0.961546 0
M  V30 768 C 72.411 5.34342 -0.195626 0
M  V30 769 C 73.711 4.69713 -2.28402 0
M  V30 770 H 75.405 2.55933 -1.55367 0
M  V30 771 H 72.951 1.23019 -0.748484 0
M  V30 772 H 74.904 4.20706 0.241775 0
M  V30 773 H 73.628 3.14381 0.885004 0
M  V30 774 H 72.287 3.45541 -1.22462 0
M  V30 775 H 71.935 4.97692 0.728816 0
M  V30 776 H 71.635 5.81966 -0.811775 0
M  V30 777 H 73.159 6.10553 0.0757473 0
M  V30 778 H 74.573 5.34794 -2.06563 0
M  V30 779 H 72.97 5.279 -2.8538 0
M  V30 780 H 74.04 3.86726 -2.92525 0
M  V30 781 N 75.3831 0.828654 1.34056 0
M  V30 782 C 76.6111 0.43262 2.02326 0
M  V30 783 C 77.0261 -0.963147 1.62385 0
M  V30 784 O 76.3831 -1.62425 0.832121 0
M  V30 785 C 76.4341 0.53182 3.57567 0
M  V30 786 O 76.1551 1.87258 3.96063 0
M  V30 787 C 77.6561 0.131422 4.43105 0
M  V30 788 H 74.8761 0.172923 0.648335 0
M  V30 789 H 77.4201 1.1184 1.71208 0
M  V30 790 H 75.5751 -0.105938 3.87255 0
M  V30 791 H 75.9891 1.85087 4.90758 0
M  V30 792 H 77.4631 0.251904 5.51425 0
M  V30 793 H 77.9401 -0.925645 4.29335 0
M  V30 794 H 78.5461 0.743207 4.18756 0
M  V30 795 N 76.8612 -1.46375 0.584142 0
M  V30 796 C 77.7912 -2.33103 -0.136037 0
M  V30 797 C 78.7722 -1.45431 -0.882255 0
M  V30 798 O 79.9572 -1.74246 -0.857434 0
M  V30 799 C 77.0872 -3.27731 -1.14933 0
M  V30 800 C 76.0412 -4.24855 -0.517862 0
M  V30 801 C 75.3672 -5.09001 -1.63773 0
M  V30 802 C 76.6672 -5.19439 0.545886 0
M  V30 803 H 78.3612 -2.93568 0.588086 0
M  V30 804 H 75.9072 -1.41166 0.284259 0
M  V30 805 H 77.8602 -3.87261 -1.66153 0
M  V30 806 H 76.5842 -2.65377 -1.90375 0
M  V30 807 H 75.2432 -3.6659 -0.0267361 0
M  V30 808 H 74.8912 -4.43031 -2.38185 0
M  V30 809 H 74.5912 -5.74777 -1.22085 0
M  V30 810 H 76.1152 -5.71396 -2.15266 0
M  V30 811 H 77.5292 -5.73177 0.118704 0
M  V30 812 H 75.9262 -5.93566 0.88317 0
M  V30 813 H 76.9962 -4.63285 1.43162 0
M  V30 814 N 78.3393 -0.321999 -1.54275 0
M  V30 815 C 79.2493 0.553631 -2.27974 0
M  V30 816 C 80.2653 1.13054 -1.32268 0
M  V30 817 O 81.4413 1.15084 -1.6528 0
M  V30 818 C 78.5063 1.69927 -3.02201 0
M  V30 819 C 77.5673 1.15433 -4.1349 0
M  V30 820 C 76.8003 2.24537 -4.84168 0
M  V30 821 O 77.0233 3.44852 -4.5435 0
M  V30 822 O 75.9573 1.90044 -5.7111 0
M  V30 823 H 79.7833 -0.0448345 -3.03667 0
M  V30 824 H 77.3683 -0.0877418 -1.49142 0
M  V30 825 H 79.2503 2.3663 -3.48689 0
M  V30 826 H 77.9253 2.28395 -2.29385 0
M  V30 827 H 76.8323 0.452436 -3.71354 0
M  V30 828 H 78.1653 0.614805 -4.88345 0
M  V30 829 N 79.8174 1.5752 -0.0501392 0
M  V30 830 C 81.2284 1.80271 0.485705 0
M  V30 831 C 81.5794 0.96228 1.70981 0
M  V30 832 O 80.7044 0.178578 2.15662 0
M  V30 833 C 81.2994 3.26957 0.887938 0
M  V30 834 C 79.8584 3.5063 1.36877 0
M  V30 835 C 79.0054 2.75165 0.343468 0
M  V30 836 H 81.9564 1.56281 -0.276028 0
M  V30 837 H 81.9774 3.37821 1.75093 0
M  V30 838 H 81.4894 3.881 -0.0031809 0
M  V30 839 H 79.5904 2.94766 2.27911 0
M  V30 840 H 79.7034 4.59343 1.36164 0
M  V30 841 H 78.0674 2.4127 0.816128 0
M  V30 842 H 78.8504 3.39034 -0.539548 0
M  V30 843 N 81.2955 -0.223234 1.56011 0
M  V30 844 C 82.5725 -0.972108 1.69733 0
M  V30 845 C 82.9525 -2.02485 0.59691 0
M  V30 846 O 82.3005 -2.25037 -0.396324 0
M  V30 847 C 82.5105 -1.58407 3.10979 0
M  V30 848 C 83.8585 -2.07696 3.70334 0
M  V30 849 O 84.8825 -1.68304 3.1393 0
M  V30 850 O 83.7415 -2.80096 4.69264 0
M  V30 851 H 80.8355 -0.453993 0.691245 0
M  V30 852 H 83.3815 -0.215149 1.68331 0
M  V30 853 H 82.1535 -0.823831 3.82529 0
M  V30 854 H 81.7765 -2.40661 3.16493 0
M  V30 855 N 82.7736 -1.49793 -0.48987 0
M  V30 856 C 84.1846 -1.52914 -1.07118 0
M  V30 857 C 84.5356 -0.321738 -1.93544 0
M  V30 858 O 83.6606 0.567338 -2.08831 0
M  V30 859 C 84.2556 -2.771 -1.94938 0
M  V30 860 C 82.8146 -2.82963 -2.48212 0
M  V30 861 C 81.9616 -2.46972 -1.26096 0
M  V30 862 H 84.9126 -1.56329 -0.273289 0
M  V30 863 H 84.9336 -2.57892 -2.79771 0
M  V30 864 H 84.4456 -3.64959 -1.32009 0
M  V30 865 H 82.5466 -1.99411 -3.14748 0
M  V30 866 H 82.6596 -3.85406 -2.84603 0
M  V30 867 H 81.0236 -1.98994 -1.58976 0
M  V30 868 H 81.8066 -3.37118 -0.648581 0
M  V30 869 N 84.2517 0.741722 -1.39055 0
M  V30 870 C 85.5007 1.49656 -1.35225 0
M  V30 871 C 85.8137 1.95533 0.0512708 0
M  V30 872 O 87.0197 2.7067 0.212138 0
M  V30 873 C 85.4757 2.70389 -2.37525 0
M  V30 874 C 85.0837 2.31489 -3.83558 0
M  V30 875 C 86.8277 3.48236 -2.42759 0
M  V30 876 C 84.7347 3.48903 -4.77515 0
M  V30 877 H 83.6647 0.56197 -0.502699 0
M  V30 878 H 86.3157 0.809727 -1.64668 0
M  V30 879 H 84.6977 3.41113 -2.01142 0
M  V30 880 H 85.8717 1.68354 -4.28945 0
M  V30 881 H 84.1867 1.66749 -3.81554 0
M  V30 882 H 86.7837 4.35558 -3.1015 0
M  V30 883 H 87.1267 3.90229 -1.45008 0
M  V30 884 H 87.6597 2.84535 -2.78002 0
M  V30 885 H 84.3987 3.11966 -5.76504 0
M  V30 886 H 83.9187 4.11041 -4.36813 0
M  V30 887 H 85.5977 4.15328 -4.96096 0
M  V30 888 N 85.7298 1.2412 0.971189 0
M  V30 889 C 86.9788 1.07284 1.70801 0
M  V30 890 C 87.2918 -0.388902 1.91695 0
M  V30 891 O 88.4978 -0.677379 2.62914 0
M  V30 892 C 86.9538 1.87145 3.07416 0
M  V30 893 C 86.5618 3.37707 2.94377 0
M  V30 894 C 88.3058 1.78828 3.84995 0
M  V30 895 C 86.2128 4.09925 4.26281 0
M  V30 896 H 85.1428 0.397854 0.64049 0
M  V30 897 H 87.7938 1.4817 1.0825 0
M  V30 898 H 86.1758 1.39071 3.70777 0
M  V30 899 H 87.3498 3.93335 2.4005 0
M  V30 900 H 85.6648 3.46938 2.30267 0
M  V30 901 H 88.2618 2.30089 4.82662 0
M  V30 902 H 88.6048 0.75284 4.09436 0
M  V30 903 H 89.1378 2.24563 3.28354 0
M  V30 904 H 85.8768 5.13813 4.07033 0
M  V30 905 H 85.3968 3.59083 4.80437 0
M  V30 906 H 87.0758 4.1673 4.94919 0
M  V30 907 N 87.2079 -1.17134 1.05439 0
M  V30 908 C 88.4539 -1.87733 0.767077 0
M  V30 909 C 88.7869 -1.8098 -0.704253 0
M  V30 910 O 88.0619 -1.21951 -1.5152 0
M  V30 911 C 88.3449 -3.37659 1.25133 0
M  V30 912 C 88.1979 -3.53149 2.78578 0
M  V30 913 C 89.5169 -4.31768 0.852324 0
M  V30 914 H 86.6359 -0.681687 0.280129 0
M  V30 915 H 89.2779 -1.37732 1.30881 0
M  V30 916 H 87.4279 -3.80373 0.790469 0
M  V30 917 H 89.0999 -3.19434 3.32806 0
M  V30 918 H 87.3429 -2.95345 3.17732 0
M  V30 919 H 88.0139 -4.58403 3.07523 0
M  V30 920 H 90.4899 -3.96909 1.24911 0
M  V30 921 H 89.3659 -5.35199 1.21873 0
M  V30 922 H 89.6269 -4.41429 -0.243485 0
M  V30 923 N 88.686 -0.835752 -1.33615 0
M  V30 924 C 90.097 -0.487099 -1.80234 0
M  V30 925 C 90.448 0.993627 -1.69179 0
M  V30 926 O 89.573 1.77403 -1.23924 0
M  V30 927 C 90.168 -0.877385 -3.27242 0
M  V30 928 C 88.727 -0.580915 -3.7189 0
M  V30 929 C 87.874 -1.0874 -2.5509 0
M  V30 930 H 90.825 -1.02474 -1.2118 0
M  V30 931 H 90.846 -0.186195 -3.80044 0
M  V30 932 H 90.358 -1.95512 -3.35256 0
M  V30 933 H 88.459 0.486881 -3.69405 0
M  V30 934 H 88.572 -1.13396 -4.65487 0
M  V30 935 H 86.936 -0.508392 -2.49575 0
M  V30 936 H 87.719 -2.17184 -2.65868 0
M  V30 937 N 90.1641 1.46063 -0.591896 0
M  V30 938 C 91.4121 2.01938 -0.0808391 0
M  V30 939 C 91.7331 1.46475 1.28725 0
M  V30 940 O 91.0031 0.652944 1.84698 0
M  V30 941 H 89.5831 0.746516 -0.0268938 0
M  V30 942 H 92.2451 1.79055 -0.769752 0
M  V30 943 H 91.3411 3.12094 -0.0187578 0
M  V30 944 N 91.6422 0.330177 1.54103 0
M  V30 945 C 92.5902 -0.548226 2.26047 0
M  V30 946 C 93.5842 -1.11309 1.27698 0
M  V30 947 O 94.7902 -1.06036 1.45452 0
M  V30 948 H 91.1652 -0.195456 0.726155 0
M  V30 949 H 93.1362 0.0807567 2.98291 0
M  V30 950 C 91.8852 -1.69415 3.03634 0
M  V30 951 H 91.2082 -1.26876 3.79134 0
M  V30 952 H 92.6482 -2.28423 3.5721 0
M  V30 953 C 91.1072 -2.61569 2.12328 0
M  V30 954 O 91.6372 -3.63462 1.7105 0
M  V30 955 N 89.8432 -2.29952 1.77681 0
M  V30 956 H 89.3902 -1.47134 2.11446 0
M  V30 957 H 89.3482 -2.91871 1.16869 0
M  V30 958 N 93.1203 -1.57491 0.0584922 0
M  V30 959 C 94.3663 -1.93264 -0.614558 0
M  V30 960 C 94.6993 -0.937717 -1.7006 0
M  V30 961 O 93.9743 0.0351652 -1.94468 0
M  V30 962 C 94.2573 -3.3938 -1.20386 0
M  V30 963 C 94.1103 -4.49625 -0.125375 0
M  V30 964 C 95.4293 -3.86039 -2.11334 0
M  V30 965 H 92.5483 -0.702791 -0.221933 0
M  V30 966 H 95.1903 -1.8961 0.12175 0
M  V30 967 H 93.3403 -3.42626 -1.83139 0
M  V30 968 H 95.0123 -4.58506 0.506971 0
M  V30 969 H 93.2553 -4.30354 0.545672 0
M  V30 970 H 93.9263 -5.48967 -0.577861 0
M  V30 971 H 96.4023 -3.84716 -1.58534 0
M  V30 972 H 95.2783 -4.88914 -2.49507 0
M  V30 973 H 95.5393 -3.23215 -3.01636 0
M  V30 974 N 94.5984 0.214957 -1.56127 0
M  V30 975 C 95.8264 0.955092 -1.83536 0
M  V30 976 C 96.2414 1.77677 -0.638472 0
M  V30 977 O 95.5984 1.78219 0.392968 0
M  V30 978 C 95.6494 1.86734 -3.09536 0
M  V30 979 O 95.3704 1.07887 -4.24608 0
M  V30 980 C 96.8714 2.72082 -3.4998 0
M  V30 981 H 94.0914 0.279611 -0.609966 0
M  V30 982 H 96.6354 0.228197 -2.03223 0
M  V30 983 H 94.7904 2.5481 -2.91806 0
M  V30 984 H 95.2044 1.69872 -4.9623 0
M  V30 985 H 96.6784 3.31782 -4.41163 0
M  V30 986 H 97.1554 3.44806 -2.7204 0
M  V30 987 H 97.7614 2.09409 -3.70173 0
M  V30 988 N 96.0765 1.50051 0.48192 0
M  V30 989 C 97.0065 1.71046 1.58951 0
M  V30 990 C 97.9875 0.559288 1.60642 0
M  V30 991 O 99.1725 0.797243 1.77081 0
M  V30 992 C 96.3025 1.79462 2.97339 0
M  V30 993 C 95.2565 2.94558 3.10515 0
M  V30 994 C 94.5825 2.88105 4.50444 0
M  V30 995 C 95.8825 4.35227 2.88747 0
M  V30 996 H 97.5765 2.6378 1.41635 0
M  V30 997 H 95.1225 1.26936 0.679942 0
M  V30 998 H 97.0755 1.92734 3.74742 0
M  V30 999 H 95.7995 0.833412 3.15788 0
M  V30 1000 H 94.4585 2.80918 2.35543 0
M  V30 1001 H 94.1065 1.89853 4.65795 0
M  V30 1002 H 93.8065 3.65366 4.60197 0
M  V30 1003 H 95.3305 3.03412 5.29881 0
M  V30 1004 H 96.7445 4.49449 3.55905 0
M  V30 1005 H 95.1415 5.13856 3.09955 0
M  V30 1006 H 96.2115 4.48347 1.84696 0
M  V30 1007 N 97.5546 -0.734337 1.39446 0
M  V30 1008 C 98.7796 -1.52866 1.40167 0
M  V30 1009 C 99.2046 -1.881 -0.00171513 0
M  V30 1010 O 98.5626 -1.51957 -0.988879 0
M  V30 1011 C 98.6106 -2.79235 2.28167 0
M  V30 1012 O 97.7146 -3.75185 1.71201 0
M  V30 1013 H 97.0556 -0.461618 0.477289 0
M  V30 1014 H 99.5856 -0.905949 1.8345 0
M  V30 1015 H 99.5956 -3.27963 2.42702 0
M  V30 1016 H 98.2706 -2.52923 3.30156 0
M  V30 1017 H 96.8476 -3.33958 1.65912 0
M  V30 1018 N 99.0327 -1.24633 -0.964593 0
M  V30 1019 C 100.279 -1.08949 -1.71049 0
M  V30 1020 C 100.612 0.370302 -1.90637 0
M  V30 1021 O 99.8867 1.27349 -1.47011 0
M  V30 1022 C 100.17 -1.83329 -3.0994 0
M  V30 1023 C 100.023 -3.37077 -2.97824 0
M  V30 1024 C 101.342 -1.60846 -4.09654 0
M  V30 1025 H 98.4607 -0.397178 -0.620821 0
M  V30 1026 H 101.103 -1.5334 -1.12191 0
M  V30 1027 H 99.2527 -1.45597 -3.60186 0
M  V30 1028 H 100.925 -3.84425 -2.5498 0
M  V30 1029 H 99.1677 -3.65298 -2.33965 0
M  V30 1030 H 99.8387 -3.84324 -3.96231 0
M  V30 1031 H 102.315 -1.93674 -3.68279 0
M  V30 1032 H 101.191 -2.1534 -5.04896 0
M  V30 1033 H 101.452 -0.547434 -4.38698 0
M  V30 1034 N 100.511 1.16574 -1.06058 0
M  V30 1035 C 101.444 2.19798 -0.61352 0
M  V30 1036 C 102.422 1.58509 0.362453 0
M  V30 1037 O 103.606 1.86527 0.271994 0
M  V30 1038 C 100.733 3.3855 0.100915 0
M  V30 1039 C 99.7788 4.18317 -0.831438 0
M  V30 1040 S 100.612 4.82375 -2.32539 0
M  V30 1041 C 101.768 6.04508 -1.62238 0
M  V30 1042 H 102.001 2.5738 -1.48805 0
M  V30 1043 H 99.5338 1.27327 -0.873338 0
M  V30 1044 H 101.492 4.07358 0.506898 0
M  V30 1045 H 100.153 2.99338 0.951604 0
M  V30 1046 H 99.3458 5.03232 -0.278071 0
M  V30 1047 H 98.9478 3.5499 -1.17719 0
M  V30 1048 H 101.24 6.71133 -0.926622 0
M  V30 1049 H 102.183 6.64389 -2.44934 0
M  V30 1050 H 102.591 5.53559 -1.106 0
M  V30 1051 N 101.989 0.842826 1.3317 0
M  V30 1052 C 103.237 0.439577 1.97262 0
M  V30 1053 C 103.558 -1.00548 1.67078 0
M  V30 1054 O 102.828 -1.70098 0.971779 0
M  V30 1055 H 101.408 0.159558 0.72976 0
M  V30 1056 H 104.07 1.07665 1.62463 0
M  V30 1057 H 103.166 0.574886 3.0676 0
M  V30 1058 N 103.467 -1.45747 0.599634 0
M  V30 1059 C 104.692 -2.07178 0.0960198 0
M  V30 1060 C 105.117 -1.44268 -1.207 0
M  V30 1061 O 104.475 -0.532503 -1.73303 0
M  V30 1062 C 104.523 -3.60579 -0.0385348 0
M  V30 1063 O 103.627 -3.97713 -1.0908 0
M  V30 1064 H 102.968 -0.660251 0.0704593 0
M  V30 1065 H 105.498 -1.87124 0.827385 0
M  V30 1066 H 105.508 -4.07298 -0.239304 0
M  V30 1067 H 104.183 -4.05756 0.912947 0
M  V30 1068 H 102.76 -3.62678 -0.867135 0
M  V30 1069 N 104.945 -0.338344 -1.53925 0
M  V30 1070 C 106.173 0.261298 -2.05243 0
M  V30 1071 C 106.588 1.44625 -1.21363 0
M  V30 1072 O 105.945 1.80811 -0.247736 0
M  V30 1073 C 105.996 0.681412 -3.5502 0
M  V30 1074 O 105.717 -0.456414 -4.35716 0
M  V30 1075 C 107.218 1.34232 -4.22489 0
M  V30 1076 H 104.438 0.0513685 -0.669031 0
M  V30 1077 H 106.982 -0.488822 -1.98572 0
M  V30 1078 H 105.137 1.38148 -3.61931 0
M  V30 1079 H 105.551 -0.122564 -5.24357 0
M  V30 1080 H 107.025 1.58708 -5.28693 0
M  V30 1081 H 107.502 2.29426 -3.74514 0
M  V30 1082 H 108.108 0.684424 -4.19757 0
M  V30 1083 N 106.423 1.57458 -0.0668435 0
M  V30 1084 C 107.648 1.9804 0.616027 0
M  V30 1085 C 108.073 0.944771 1.62652 0
M  V30 1086 O 107.431 -0.0902094 1.81075 0
M  V30 1087 C 107.479 3.37665 1.26549 0
M  V30 1088 O 106.583 3.36701 2.38131 0
M  V30 1089 H 105.924 0.644719 0.158849 0
M  V30 1090 H 108.454 2.04121 -0.139891 0
M  V30 1091 H 108.464 3.7474 1.6135 0
M  V30 1092 H 107.139 4.12573 0.525016 0
M  V30 1093 H 105.716 3.1139 2.0516 0
M  V30 1094 N 107.901 -0.206675 1.56239 0
M  V30 1095 C 109.147 -0.930218 1.80208 0
M  V30 1096 C 109.48 -1.83387 0.638981 0
M  V30 1097 O 108.755 -1.91119 -0.361066 0
M  V30 1098 C 109.038 -1.75641 3.1436 0
M  V30 1099 C 108.891 -0.878257 4.41142 0
M  V30 1100 C 110.21 -2.73129 3.45092 0
M  V30 1101 H 107.329 -0.336742 0.655571 0
M  V30 1102 H 109.971 -0.198222 1.88963 0
M  V30 1103 H 108.121 -2.38048 3.07027 0
M  V30 1104 H 109.793 -0.269787 4.6051 0
M  V30 1105 H 108.036 -0.184385 4.33408 0
M  V30 1106 H 108.707 -1.49106 5.3148 0
M  V30 1107 H 111.183 -2.20856 3.52649 0
M  V30 1108 H 110.059 -3.28028 4.40101 0
M  V30 1109 H 110.32 -3.51606 2.68003 0
M  V30 1110 N 109.379 -1.50304 -0.473955 0
M  V30 1111 C 110.79 -1.54042 -1.0549 0
M  V30 1112 C 111.141 -0.342248 -1.93192 0
M  V30 1113 O 110.266 0.545157 -2.09421 0
M  V30 1114 C 110.861 -2.79152 -1.91989 0
M  V30 1115 C 109.42 -2.8558 -2.45196 0
M  V30 1116 C 108.567 -2.48295 -1.2347 0
M  V30 1117 H 111.518 -1.5661 -0.256693 0
M  V30 1118 H 111.539 -2.60845 -2.7702 0
M  V30 1119 H 111.051 -3.66339 -1.28131 0
M  V30 1120 H 109.152 -2.02738 -3.12615 0
M  V30 1121 H 109.265 -3.88403 -2.80499 0
M  V30 1122 H 107.629 -2.00669 -1.56856 0
M  V30 1123 H 108.412 -3.37787 -0.612789 0
M  V30 1124 N 110.857 0.726932 -1.39834 0
M  V30 1125 C 111.787 1.85405 -1.41941 0
M  V30 1126 C 112.768 1.67751 -0.281728 0
M  V30 1127 O 113.953 1.8795 -0.488717 0
M  V30 1128 C 111.083 3.23243 -1.2701 0
M  V30 1129 C 110.037 3.55549 -2.38262 0
M  V30 1130 C 109.363 4.9241 -2.08415 0
M  V30 1131 C 110.663 3.577 -3.80589 0
M  V30 1132 H 112.357 1.83899 -2.36266 0
M  V30 1133 H 109.903 0.883349 -1.13723 0
M  V30 1134 H 111.856 4.01775 -1.27103 0
M  V30 1135 H 110.58 3.25296 -0.291564 0
M  V30 1136 H 109.239 2.79351 -2.37399 0
M  V30 1137 H 108.887 4.91052 -1.0898 0
M  V30 1138 H 108.587 5.14992 -2.82943 0
M  V30 1139 H 110.111 5.73289 -2.10171 0
M  V30 1140 H 111.525 4.26293 -3.83337 0
M  V30 1141 H 109.922 3.91804 -4.54543 0
M  V30 1142 H 110.992 2.57328 -4.10987 0
M  V30 1143 N 112.336 1.25143 0.95797 0
M  V30 1144 C 113.561 1.12521 1.74223 0
M  V30 1145 C 113.986 -0.317402 1.85403 0
M  V30 1146 O 113.344 -1.2299 1.33204 0
M  V30 1147 C 113.392 1.78062 3.1357 0
M  V30 1148 O 112.496 1.058 3.98598 0
M  V30 1149 H 111.837 0.39304 0.535178 0
M  V30 1150 H 114.367 1.65641 1.201 0
M  V30 1151 H 114.377 1.84213 3.64046 0
M  V30 1152 H 113.052 2.83021 3.04749 0
M  V30 1153 H 111.629 1.07506 3.57067 0
M  V30 1154 N 113.814 -1.1601 1.06675 0
M  V30 1155 C 115.039 -1.91068 0.806706 0
M  V30 1156 C 115.464 -1.77112 -0.633485 0
M  V30 1157 O 114.822 -1.09908 -1.44187 0
M  V30 1158 C 114.87 -3.39655 1.21106 0
M  V30 1159 O 113.974 -4.10893 0.352189 0
M  V30 1160 H 113.315 -0.595125 0.294486 0
M  V30 1161 H 115.845 -1.46955 1.42356 0
M  V30 1162 H 115.855 -3.90434 1.18428 0
M  V30 1163 H 114.53 -3.49132 2.26008 0
M  V30 1164 H 113.107 -3.70285 0.440868 0
M  V30 1165 N 115.292 -0.849877 -1.32721 0
M  V30 1166 C 116.703 -0.506188 -1.79707 0
M  V30 1167 C 117.054 0.975627 -1.70223 0
M  V30 1168 O 116.179 1.76078 -1.25799 0
M  V30 1169 C 116.774 -0.912044 -3.26293 0
M  V30 1170 C 115.333 -0.620326 -3.71253 0
M  V30 1171 C 114.48 -1.11439 -2.53922 0
M  V30 1172 H 117.431 -1.03754 -1.20087 0
M  V30 1173 H 117.452 -0.226493 -3.79825 0
M  V30 1174 H 116.964 -1.99057 -3.33164 0
M  V30 1175 H 115.065 0.447674 -3.69901 0
M  V30 1176 H 115.178 -1.18327 -4.64258 0
M  V30 1177 H 113.542 -0.534834 -2.49021 0
M  V30 1178 H 114.325 -2.19992 -2.6355 0
M  V30 1179 N 116.77 1.45427 -0.607355 0
M  V30 1180 C 117.7 2.3329 0.0989352 0
M  V30 1181 C 118.681 1.46816 0.859007 0
M  V30 1182 O 119.866 1.75588 0.829604 0
M  V30 1183 C 116.996 3.29518 1.09705 0
M  V30 1184 C 115.95 4.25626 0.450206 0
M  V30 1185 C 115.276 5.11542 1.55655 0
M  V30 1186 C 116.576 5.18505 -0.628455 0
M  V30 1187 H 118.27 2.92595 -0.634716 0
M  V30 1188 H 115.816 1.40696 -0.306681 0
M  V30 1189 H 117.769 3.89855 1.59971 0
M  V30 1190 H 116.493 2.68372 1.86129 0
M  V30 1191 H 115.152 3.66586 -0.0315886 0
M  V30 1192 H 114.8 4.46765 2.31107 0
M  V30 1193 H 114.5 5.76647 1.12925 0
M  V30 1194 H 116.024 5.74748 2.06148 0
M  V30 1195 H 117.438 5.72916 -0.209877 0
M  V30 1196 H 115.835 5.92085 -0.977489 0
M  V30 1197 H 116.905 4.60948 -1.50514 0
M  V30 1198 N 118.248 0.346503 1.53744 0
M  V30 1199 C 119.195 -0.508914 2.25119 0
M  V30 1200 C 120.165 -1.09315 1.25058 0
M  V30 1201 O 121.35 -1.12921 1.53797 0
M  V30 1202 C 118.49 -1.65246 3.02965 0
M  V30 1203 C 117.603 -1.09525 4.17886 0
M  V30 1204 C 116.738 -2.20634 4.83212 0
M  V30 1205 C 115.777 -1.62279 5.90196 0
M  V30 1206 N 114.914 -2.67143 6.49291 0
M  V30 1207 H 119.754 0.106283 2.9781 0
M  V30 1208 H 117.291 0.0642227 1.4696 0
M  V30 1209 H 119.249 -2.32574 3.4636 0
M  V30 1210 H 117.879 -2.2386 2.32565 0
M  V30 1211 H 116.931 -0.312818 3.79112 0
M  V30 1212 H 118.243 -0.628444 4.94825 0
M  V30 1213 H 117.397 -2.95821 5.29693 0
M  V30 1214 H 116.136 -2.70659 4.05703 0
M  V30 1215 H 115.141 -0.855989 5.43096 0
M  V30 1216 H 116.366 -1.13102 6.69615 0
M  V30 1217 H 114.312 -3.16417 5.74645 0
M  V30 1218 H 114.229 -2.25093 7.21713 0
M  V30 1219 H 115.497 -3.4209 7.00425 0
M  V30 1220 N 119.726 -1.57421 0.075193 0
M  V30 1221 C 120.972 -1.93905 -0.594025 0
M  V30 1222 C 121.305 -0.955701 -1.69056 0
M  V30 1223 O 120.58 0.0145373 -1.94495 0
M  V30 1224 C 120.863 -3.40638 -1.1678 0
M  V30 1225 C 120.716 -4.49733 -0.0776792 0
M  V30 1226 C 122.035 -3.88259 -2.07228 0
M  V30 1227 H 119.154 -0.705105 -0.214466 0
M  V30 1228 H 121.796 -1.8947 0.141854 0
M  V30 1229 H 119.946 -3.44549 -1.79494 0
M  V30 1230 H 121.618 -4.57942 0.555573 0
M  V30 1231 H 119.861 -4.29751 0.591286 0
M  V30 1232 H 120.532 -5.49549 -0.519603 0
M  V30 1233 H 123.008 -3.86376 -1.54445 0
M  V30 1234 H 121.884 -4.91533 -2.44308 0
M  V30 1235 H 122.145 -3.26396 -2.98191 0
M  V30 1236 N 121.204 0.198386 -1.56346 0
M  V30 1237 C 122.481 0.944982 -1.71258 0
M  V30 1238 C 122.861 2.0151 -0.629048 0
M  V30 1239 O 122.209 2.25639 0.360473 0
M  V30 1240 C 122.419 1.5344 -3.1346 0
M  V30 1241 C 123.767 2.01778 -3.73591 0
M  V30 1242 O 124.791 1.63288 -3.16568 0
M  V30 1243 O 123.65 2.72594 -4.73661 0
M  V30 1244 H 120.744 0.442939 -0.69838 0
M  V30 1245 H 123.29 0.188342 -1.68652 0
M  V30 1246 H 122.062 0.762869 -3.83792 0
M  V30 1247 H 121.685 2.35596 -3.20282 0
M  V30 1248 N 122.682 1.50554 0.465978 0
M  V30 1249 C 123.612 1.72722 1.57128 0
M  V30 1250 C 124.593 0.576294 1.6004 0
M  V30 1251 O 125.778 0.81598 1.76225 0
M  V30 1252 C 122.908 1.82605 2.95419 0
M  V30 1253 C 121.862 2.97835 3.07373 0
M  V30 1254 C 121.188 2.92867 4.47363 0
M  V30 1255 C 122.488 4.38265 2.84114 0
M  V30 1256 H 124.182 2.65267 1.38829 0
M  V30 1257 H 121.728 1.2765 0.666441 0
M  V30 1258 H 123.681 1.96698 3.72677 0
M  V30 1259 H 122.405 0.866858 3.14886 0
M  V30 1260 H 121.064 2.83401 2.3255 0
M  V30 1261 H 120.712 1.94783 4.63755 0
M  V30 1262 H 120.412 3.70227 4.56296 0
M  V30 1263 H 121.936 3.09015 5.26633 0
M  V30 1264 H 123.35 4.53198 3.51118 0
M  V30 1265 H 121.747 5.17115 3.04487 0
M  V30 1266 H 122.817 4.50281 1.7993 0
M  V30 1267 N 124.16 -0.719506 1.40217 0
M  V30 1268 C 125.406 -1.48152 1.38488 0
M  V30 1269 C 125.739 -1.94195 -0.0141867 0
M  V30 1270 O 125.014 -1.67884 -0.982096 0
M  V30 1271 C 125.297 -2.71035 2.37091 0
M  V30 1272 C 125.15 -2.30912 3.86005 0
M  V30 1273 C 126.469 -3.73182 2.33288 0
M  V30 1274 H 123.588 -0.537395 0.504357 0
M  V30 1275 H 126.23 -0.821472 1.71324 0
M  V30 1276 H 124.38 -3.27352 2.0922 0
M  V30 1277 H 126.052 -1.80107 4.24687 0
M  V30 1278 H 124.295 -1.62958 4.02029 0
M  V30 1279 H 124.966 -3.18978 4.50508 0
M  V30 1280 H 127.442 -3.26485 2.57966 0
M  V30 1281 H 126.318 -4.56806 3.04334 0
M  V30 1282 H 126.579 -4.21202 1.34317 0
M  V30 1283 N 125.638 -1.25649 -0.95132 0
M  V30 1284 C 126.568 -1.08808 -2.06599 0
M  V30 1285 C 127.549 0.00382547 -1.701 0
M  V30 1286 O 128.734 -0.166325 -1.93486 0
M  V30 1287 C 125.864 -0.709542 -3.39975 0
M  V30 1288 C 124.818 -1.75206 -3.90496 0
M  V30 1289 C 124.144 -1.22811 -5.20405 0
M  V30 1290 C 125.444 -3.15153 -4.16504 0
M  V30 1291 H 127.138 -2.02048 -2.20946 0
M  V30 1292 H 124.684 -0.972835 -1.06169 0
M  V30 1293 H 126.637 -0.578649 -4.17408 0
M  V30 1294 H 125.361 0.258556 -3.25575 0
M  V30 1295 H 124.02 -1.87145 -3.15234 0
M  V30 1296 H 123.668 -0.250145 -5.02378 0
M  V30 1297 H 123.368 -1.92492 -5.55176 0
M  V30 1298 H 124.892 -1.10968 -6.00432 0
M  V30 1299 H 126.306 -3.06349 -4.84586 0
M  V30 1300 H 124.703 -3.82333 -4.62538 0
M  V30 1301 H 125.773 -3.61966 -3.22658 0
M  V30 1302 N 127.117 1.15442 -1.07289 0
M  V30 1303 C 128.027 2.23786 -0.704057 0
M  V30 1304 C 129.043 1.7166 0.284413 0
M  V30 1305 O 130.219 2.00972 0.131205 0
M  V30 1306 C 127.284 3.46535 -0.106792 0
M  V30 1307 C 126.345 4.13654 -1.14842 0
M  V30 1308 C 125.578 5.30544 -0.57956 0
M  V30 1309 O 125.801 5.67187 0.604585 0
M  V30 1310 O 124.735 5.87154 -1.32414 0
M  V30 1311 H 128.561 2.57664 -1.60757 0
M  V30 1312 H 126.146 1.23152 -0.845803 0
M  V30 1313 H 128.028 4.20804 0.224048 0
M  V30 1314 H 126.703 3.14407 0.770049 0
M  V30 1315 H 125.61 3.4131 -1.5316 0
M  V30 1316 H 126.943 4.49861 -1.99714 0
M  V30 1317 N 128.595 0.856903 1.32268 0
M  V30 1318 C 129.542 0.301172 2.28827 0
M  V30 1319 C 130.512 -0.593104 1.5515 0
M  V30 1320 O 131.697 -0.527537 1.83362 0
M  V30 1321 C 128.837 -0.502523 3.41422 0
M  V30 1322 C 127.95 0.417797 4.29975 0
M  V30 1323 C 127.085 -0.398749 5.29701 0
M  V30 1324 C 126.124 0.518827 6.09897 0
M  V30 1325 N 125.261 -0.260674 7.01616 0
M  V30 1326 H 130.101 1.12983 2.75751 0
M  V30 1327 H 127.638 0.568582 1.35667 0
M  V30 1328 H 129.596 -0.984141 4.05426 0
M  V30 1329 H 128.226 -1.29599 2.95642 0
M  V30 1330 H 127.278 1.01781 3.66531 0
M  V30 1331 H 128.59 1.12191 4.86019 0
M  V30 1332 H 127.744 -0.943435 5.9932 0
M  V30 1333 H 126.483 -1.13622 4.7428 0
M  V30 1334 H 125.488 1.07538 5.39181 0
M  V30 1335 H 126.713 1.25495 6.67404 0
M  V30 1336 H 124.659 -0.981198 6.4862 0
M  V30 1337 H 124.576 0.384364 7.55022 0
M  V30 1338 H 125.844 -0.787014 7.75517 0
M  V30 1339 N 130.073 -1.45103 0.615059 0
M  V30 1340 C 130.983 -2.34382 -0.101034 0
M  V30 1341 C 131.999 -1.51681 -0.852585 0
M  V30 1342 O 133.175 -1.8446 -0.808484 0
M  V30 1343 C 130.24 -3.29417 -1.08099 0
M  V30 1344 C 129.301 -4.28025 -0.330577 0
M  V30 1345 C 128.534 -5.1852 -1.26385 0
M  V30 1346 O 128.757 -5.12598 -2.50198 0
M  V30 1347 O 127.691 -5.97122 -0.756866 0
M  V30 1348 H 131.517 -2.97033 0.632855 0
M  V30 1349 H 129.102 -1.4461 0.375293 0
M  V30 1350 H 130.984 -3.87958 -1.6452 0
M  V30 1351 H 129.659 -2.69321 -1.79577 0
M  V30 1352 H 128.566 -3.73078 0.276283 0
M  V30 1353 H 129.899 -4.90997 0.343866 0
M  V30 1354 N 131.551 -0.354651 -1.53558 0
M  V30 1355 C 132.797 0.238797 -2.01389 0
M  V30 1356 C 133.13 1.49309 -1.2418 0
M  V30 1357 O 132.405 1.91638 -0.332457 0
M  V30 1358 C 132.688 0.541771 -3.56001 0
M  V30 1359 C 132.541 -0.725388 -4.43912 0
M  V30 1360 C 133.86 1.34685 -4.18984 0
M  V30 1361 H 130.979 0.0853177 -0.732045 0
M  V30 1362 H 133.621 -0.477384 -1.83905 0
M  V30 1363 H 131.771 1.15189 -3.71031 0
M  V30 1364 H 133.443 -1.36313 -4.407 0
M  V30 1365 H 131.686 -1.34801 -4.12324 0
M  V30 1366 H 132.357 -0.468505 -5.50008 0
M  V30 1367 H 134.833 0.830837 -4.07721 0
M  V30 1368 H 133.709 1.52759 -5.27215 0
M  V30 1369 H 133.97 2.35221 -3.74331 0
M  V30 1370 N 133.029 1.57378 -0.0835403 0
M  V30 1371 C 133.992 2.12252 0.864959 0
M  V30 1372 C 134.992 1.04916 1.21858 0
M  V30 1373 O 136.182 1.30853 1.14991 0
M  V30 1374 C 133.314 2.63358 2.16461 0
M  V30 1375 H 134.507 2.97371 0.388676 0
M  V30 1376 H 132.06 1.55423 0.165317 0
M  V30 1377 H 132.795 1.81727 2.686 0
M  V30 1378 H 132.58 3.41826 1.92087 0
M  V30 1379 H 134.07 3.05847 2.84337 0
M  V30 1380 N 134.507 -0.190092 1.56449 0
M  V30 1381 C 135.755 -0.907908 1.80559 0
M  V30 1382 C 136.076 -1.83583 0.657438 0
M  V30 1383 O 135.346 -1.93203 -0.323924 0
M  V30 1384 H 133.926 -0.338247 0.666032 0
M  V30 1385 H 136.588 -0.194403 1.93928 0
M  V30 1386 H 135.684 -1.49604 2.73907 0
M  V30 1387 N 135.985 -1.50799 -0.457987 0
M  V30 1388 C 136.915 -1.73553 -1.5621 0
M  V30 1389 C 137.896 -0.584774 -1.59732 0
M  V30 1390 O 139.081 -0.825314 -1.7579 0
M  V30 1391 C 136.211 -1.84169 -2.94447 0
M  V30 1392 C 135.165 -2.99461 -3.0579 0
M  V30 1393 C 134.491 -2.95235 -4.45803 0
M  V30 1394 C 135.791 -4.39766 -2.81786 0
M  V30 1395 H 137.485 -2.66 -1.37421 0
M  V30 1396 H 135.031 -1.28002 -0.659662 0
M  V30 1397 H 136.984 -1.98672 -3.71628 0
M  V30 1398 H 135.708 -0.883545 -3.14422 0
M  V30 1399 H 134.367 -2.8463 -2.31044 0
M  V30 1400 H 134.015 -1.97239 -4.62715 0
M  V30 1401 H 133.715 -3.72642 -4.54326 0
M  V30 1402 H 135.239 -3.11803 -5.24987 0
M  V30 1403 H 136.653 -4.55054 -3.4871 0
M  V30 1404 H 135.05 -5.18722 -3.0174 0
M  V30 1405 H 136.12 -4.51229 -1.7754 0
M  V30 1406 N 137.463 0.71206 -1.40597 0
M  V30 1407 C 138.709 1.47292 -1.40274 0
M  V30 1408 C 139.064 1.92399 -0.00576812 0
M  V30 1409 O 138.357 1.65507 0.965297 0
M  V30 1410 C 138.551 2.71039 -2.32965 0
M  V30 1411 C 138.38 2.38035 -3.81536 0
M  V30 1412 C 137.15 2.29203 -4.50327 0
M  V30 1413 C 139.348 2.02076 -4.72938 0
M  V30 1414 N 137.33 1.88911 -5.84111 0
M  V30 1415 C 138.701 1.72412 -5.95545 0
M  V30 1416 C 140.756 1.88742 -4.60739 0
M  V30 1417 C 139.459 1.30756 -7.07316 0
M  V30 1418 C 141.485 1.4849 -5.72455 0
M  V30 1419 C 140.847 1.19726 -6.94151 0
M  V30 1420 H 136.946 0.536919 -0.568544 0
M  V30 1421 H 139.53 0.825424 -1.76337 0
M  V30 1422 H 137.701 3.33533 -1.99023 0
M  V30 1423 H 139.433 3.37404 -2.23474 0
M  V30 1424 H 136.188 2.47059 -4.04053 0
M  V30 1425 H 136.612 1.71293 -6.54972 0
M  V30 1426 H 141.254 2.0964 -3.67166 0
M  V30 1427 H 138.972 1.08601 -8.00769 0
M  V30 1428 H 142.558 1.38747 -5.65014 0
M  V30 1429 H 141.438 0.890482 -7.79128 0
M  V30 1430 N 138.941 1.26152 0.944643 0
M  V30 1431 C 140.19 1.10883 1.68487 0
M  V30 1432 C 140.503 -0.348153 1.92477 0
M  V30 1433 O 141.709 -0.621459 2.64292 0
M  V30 1434 C 140.165 1.93624 3.03377 0
M  V30 1435 C 139.773 3.43875 2.87148 0
M  V30 1436 C 141.517 1.86954 3.81115 0
M  V30 1437 C 139.424 4.18875 4.1749 0
M  V30 1438 H 138.354 0.41135 0.631907 0
M  V30 1439 H 141.005 1.50433 1.05082 0
M  V30 1440 H 139.387 1.46904 3.67743 0
M  V30 1441 H 140.561 3.98338 2.31653 0
M  V30 1442 H 138.876 3.51744 2.22856 0
M  V30 1443 H 141.473 2.40275 4.77673 0
M  V30 1444 H 141.816 0.839518 4.07747 0
M  V30 1445 H 142.349 2.31477 3.23517 0
M  V30 1446 H 139.088 5.22332 3.96043 0
M  V30 1447 H 138.608 3.69193 4.72712 0
M  V30 1448 H 140.287 4.27134 4.85968 0
M  V30 1449 N 140.419 -1.14872 1.07899 0
M  V30 1450 C 141.366 -2.19791 0.704319 0
M  V30 1451 C 142.336 -1.63238 -0.306987 0
M  V30 1452 O 143.521 -1.8983 -0.192171 0
M  V30 1453 C 140.661 -3.44911 0.114244 0
M  V30 1454 C 139.774 -4.15637 1.1777 0
M  V30 1455 C 138.909 -5.28324 0.552037 0
M  V30 1456 C 137.948 -5.90875 1.59789 0
M  V30 1457 N 137.085 -6.95022 0.994404 0
M  V30 1458 H 141.925 -2.5119 1.60336 0
M  V30 1459 H 139.462 -1.23356 0.801352 0
M  V30 1460 H 141.42 -4.16477 -0.245544 0
M  V30 1461 H 140.05 -3.14011 -0.74813 0
M  V30 1462 H 139.102 -3.42512 1.65499 0
M  V30 1463 H 140.414 -4.5823 1.97046 0
M  V30 1464 H 139.568 -6.06538 0.1402 0
M  V30 1465 H 138.307 -4.86939 -0.272431 0
M  V30 1466 H 137.312 -5.11369 2.01945 0
M  V30 1467 H 138.537 -6.34337 2.42474 0
M  V30 1468 H 136.483 -6.55722 0.190939 0
M  V30 1469 H 136.4 -7.36073 1.72432 0
M  V30 1470 H 137.668 -7.77123 0.608253 0
M  V30 1471 N 141.898 -0.863906 -1.31812 0
M  V30 1472 C 143.147 -0.46801 -1.96195 0
M  V30 1473 C 143.46 0.983474 -1.69077 0
M  V30 1474 O 144.666 1.48523 -2.27273 0
M  V30 1475 C 143.122 -0.785995 -3.51212 0
M  V30 1476 C 142.73 -2.25383 -3.87178 0
M  V30 1477 C 144.474 -0.458274 -4.22019 0
M  V30 1478 C 142.381 -2.51455 -5.3528 0
M  V30 1479 H 141.311 -0.171283 -0.734287 0
M  V30 1480 H 143.962 -1.05597 -1.50072 0
M  V30 1481 H 142.344 -0.127359 -3.95795 0
M  V30 1482 H 143.518 -2.95502 -3.53575 0
M  V30 1483 H 141.833 -2.54698 -3.2942 0
M  V30 1484 H 144.43 -0.630369 -5.30971 0
M  V30 1485 H 144.773 0.600834 -4.11941 0
M  V30 1486 H 145.306 -1.07319 -3.8305 0
M  V30 1487 H 142.045 -3.56025 -5.50387 0
M  V30 1488 H 141.565 -1.85923 -5.70257 0
M  V30 1489 H 143.244 -2.35874 -6.02472 0
M  V30 1490 N 143.376 1.44774 -0.622745 0
M  V30 1491 C 144.787 1.85546 -0.207226 0
M  V30 1492 C 145.138 1.52093 1.23944 0
M  V30 1493 O 144.263 0.95492 1.94191 0
M  V30 1494 C 144.858 3.36781 -0.369313 0
M  V30 1495 C 143.417 3.76399 -0.00836847 0
M  V30 1496 C 142.564 2.68664 -0.686651 0
M  V30 1497 H 145.515 1.3536 -0.828454 0
M  V30 1498 H 145.536 3.78453 0.394162 0
M  V30 1499 H 145.048 3.61098 -1.42231 0
M  V30 1500 H 143.149 3.57698 1.04322 0
M  V30 1501 H 143.262 4.7732 -0.412584 0
M  V30 1502 H 141.626 2.54404 -0.122777 0
M  V30 1503 H 142.409 2.95815 -1.74208 0
M  V30 1504 N 144.854 0.36279 1.53368 0
M  V30 1505 C 146.094 -0.227882 2.03126 0
M  V30 1506 C 146.458 -1.4622 1.24434 0
M  V30 1507 O 147.659 -2.12831 1.64184 0
M  V30 1508 C 145.93 -0.515427 3.53664 0
M  V30 1509 S 147.489 -1.08017 4.25297 0
M  V30 1510 H 144.307 -0.0665377 0.70788 0
M  V30 1511 H 146.909 0.50501 1.88865 0
M  V30 1512 H 145.613 0.390436 4.08539 0
M  V30 1513 H 145.144 -1.27747 3.72081 0
M  V30 1514 H 147.159 -2.36462 4.36234 0
M  V30 1515 N 146.332 -1.57332 0.0918853 0
M  V30 1516 C 147.56 -1.98574 -0.581048 0
M  V30 1517 C 147.975 -0.970903 -1.61923 0
M  V30 1518 O 147.332 0.0399054 -1.82456 0
M  V30 1519 C 147.383 -3.39872 -1.23164 0
M  V30 1520 O 147.104 -4.37469 -0.234989 0
M  V30 1521 C 148.605 -3.96099 -1.99049 0
M  V30 1522 H 145.825 -0.65261 -0.156018 0
M  V30 1523 H 148.369 -2.0379 0.170225 0
M  V30 1524 H 146.524 -3.35679 -1.93386 0
M  V30 1525 H 146.938 -5.19751 -0.70418 0
M  V30 1526 H 148.412 -4.97127 -2.39934 0
M  V30 1527 H 148.889 -3.3374 -2.85507 0
M  V30 1528 H 149.495 -4.03755 -1.3365 0
M  V30 1529 N 147.81 0.181792 -1.56548 0
M  V30 1530 C 149.087 0.926765 -1.72251 0
M  V30 1531 C 149.467 2.00831 -0.650386 0
M  V30 1532 O 148.815 2.26008 0.336521 0
M  V30 1533 C 149.025 1.50106 -3.1507 0
M  V30 1534 C 150.373 1.97805 -3.75711 0
M  V30 1535 O 151.397 1.59922 -3.18282 0
M  V30 1536 O 150.256 2.67555 -4.76525 0
M  V30 1537 H 147.35 0.435506 -0.703039 0
M  V30 1538 H 149.896 0.170443 -1.68842 0
M  V30 1539 H 148.668 0.72212 -3.84579 0
M  V30 1540 H 148.291 2.32186 -3.22763 0
M  V30 1541 N 149.288 1.51039 0.449983 0
M  V30 1542 C 150.518 1.66627 1.22143 0
M  V30 1543 C 150.926 0.357776 1.85786 0
M  V30 1544 O 150.269 -0.672424 1.70951 0
M  V30 1545 C 150.331 2.71562 2.35573 0
M  V30 1546 C 149.995 4.14526 1.92399 0
M  V30 1547 C 150.992 4.99717 1.43453 0
M  V30 1548 C 148.677 4.60559 2.00475 0
M  V30 1549 C 150.671 6.28998 1.03155 0
M  V30 1550 C 148.358 5.8984 1.59788 0
M  V30 1551 C 149.356 6.73886 1.11208 0
M  V30 1552 O 149.044 8.0075 0.710935 0
M  V30 1553 H 148.776 0.562635 0.374724 0
M  V30 1554 H 151.33 1.98146 0.541036 0
M  V30 1555 H 149.56 2.3533 3.06849 0
M  V30 1556 H 151.249 2.76156 2.97478 0
M  V30 1557 H 152.015 4.65361 1.36618 0
M  V30 1558 H 147.894 3.95273 2.37235 0
M  V30 1559 H 151.438 6.9455 0.651663 0
M  V30 1560 H 147.335 6.23713 1.66289 0
M  V30 1561 H 148.103 8.142 0.837913 0
M  V30 1562 N 150.766 -0.704594 1.40972 0
M  V30 1563 C 152.015 -1.46018 1.39146 0
M  V30 1564 C 152.328 -1.956 0.000589254 0
M  V30 1565 O 153.534 -2.71137 -0.1403 0
M  V30 1566 C 151.99 -2.63996 2.4461 0
M  V30 1567 C 151.598 -2.21238 3.89561 0
M  V30 1568 C 153.342 -3.41677 2.51907 0
M  V30 1569 C 151.249 -3.3612 4.86598 0
M  V30 1570 H 150.179 -0.548444 0.517422 0
M  V30 1571 H 152.83 -0.765784 1.66757 0
M  V30 1572 H 151.212 -3.3566 2.10115 0
M  V30 1573 H 152.386 -1.56923 4.33257 0
M  V30 1574 H 150.701 -1.56574 3.85841 0
M  V30 1575 H 153.298 -4.27182 3.2159 0
M  V30 1576 H 153.641 -3.86247 1.55303 0
M  V30 1577 H 154.174 -2.77064 2.85448 0
M  V30 1578 H 150.913 -2.96572 5.84573 0
M  V30 1579 H 150.433 -3.99315 4.47557 0
M  V30 1580 H 152.112 -4.02029 5.06934 0
M  V30 1581 N 152.244 -1.26651 -0.937939 0
M  V30 1582 C 153.492 -1.12165 -1.68118 0
M  V30 1583 C 153.813 0.334983 -1.92101 0
M  V30 1584 O 153.083 1.23583 -1.52 0
M  V30 1585 H 151.663 -0.412093 -0.623048 0
M  V30 1586 H 154.325 -1.59027 -1.12678 0
M  V30 1587 H 153.421 -1.64289 -2.6536 0
M  V30 1588 N 153.722 1.14298 -1.08507 0
M  V30 1589 C 154.947 1.8976 -0.837001 0
M  V30 1590 C 155.372 1.78097 0.605228 0
M  V30 1591 O 154.73 1.12188 1.4242 0
M  V30 1592 C 154.778 3.37685 -1.26495 0
M  V30 1593 O 153.882 4.10281 -0.417514 0
M  V30 1594 H 153.223 0.590365 -0.303917 0
M  V30 1595 H 155.753 1.44672 -1.44676 0
M  V30 1596 H 155.763 3.88501 -1.24625 0
M  V30 1597 H 154.438 3.45492 -2.31534 0
M  V30 1598 H 153.015 3.69536 -0.499722 0
M  V30 1599 N 155.201 0.870884 1.31352 0
M  V30 1600 C 156.441 0.488783 1.9847 0
M  V30 1601 C 156.805 -0.941536 1.67329 0
M  V30 1602 O 158.006 -1.42903 2.27667 0
M  V30 1603 C 156.277 0.739688 3.49662 0
M  V30 1604 S 157.836 0.457582 4.36408 0
M  V30 1605 H 154.654 0.18242 0.6872 0
M  V30 1606 H 157.256 1.12711 1.59739 0
M  V30 1607 H 155.96 1.77944 3.69816 0
M  V30 1608 H 155.491 0.0883905 3.93301 0
M  V30 1609 H 157.506 -0.709752 4.91098 0
M  V30 1610 N 156.679 -1.44442 0.630414 0
M  V30 1611 C 157.907 -2.06414 0.141671 0
M  V30 1612 C 158.322 -1.47105 -1.18345 0
M  V30 1613 O 157.679 -0.593662 -1.72574 0
M  V30 1614 C 157.73 -3.61494 0.0199784 0
M  V30 1615 O 157.451 -4.18594 1.29269 0
M  V30 1616 C 158.952 -4.40499 -0.497544 0
M  V30 1617 H 156.172 -0.666292 0.0793452 0
M  V30 1618 H 158.716 -1.85323 0.864614 0
M  V30 1619 H 156.871 -3.8185 -0.653402 0
M  V30 1620 H 157.285 -5.12026 1.13707 0
M  V30 1621 H 158.759 -5.49433 -0.531708 0
M  V30 1622 H 159.236 -4.11895 -1.52445 0
M  V30 1623 H 159.842 -4.25061 0.142562 0
M  V30 1624 N 158.157 -0.370918 -1.53173 0
M  V30 1625 C 159.404 0.217102 -2.01333 0
M  V30 1626 C 159.732 1.48338 -1.25802 0
M  V30 1627 O 158.987 1.92698 -0.34146 0
M  V30 1628 C 159.286 0.549696 -3.53147 0
M  V30 1629 C 158.952 -0.622872 -4.46577 0
M  V30 1630 C 157.614 -0.944595 -4.71838 0
M  V30 1631 C 159.966 -1.40819 -5.01816 0
M  V30 1632 C 157.294 -2.05351 -5.49589 0
M  V30 1633 C 159.646 -2.50757 -5.80778 0
M  V30 1634 C 158.31 -2.83458 -6.04324 0
M  V30 1635 H 157.58 0.0794431 -0.736729 0
M  V30 1636 H 160.227 -0.504481 -1.84736 0
M  V30 1637 H 158.532 1.35237 -3.6772 0
M  V30 1638 H 160.229 1.017 -3.87889 0
M  V30 1639 H 156.819 -0.36209 -4.27068 0
M  V30 1640 H 161.003 -1.17289 -4.82242 0
M  V30 1641 H 156.259 -2.3108 -5.6605 0
M  V30 1642 H 160.433 -3.12022 -6.22588 0
M  V30 1643 H 158.06 -3.69508 -6.64355 0
M  V30 1644 N 159.635 1.57281 -0.100228 0
M  V30 1645 C 160.545 2.17833 0.870965 0
M  V30 1646 C 161.561 1.14921 1.30649 0
M  V30 1647 O 162.737 1.47313 1.37335 0
M  V30 1648 C 159.802 2.75085 2.1102 0
M  V30 1649 C 158.863 3.9297 1.72838 0
M  V30 1650 C 158.096 4.47482 2.90854 0
M  V30 1651 O 158.319 4.00922 4.05731 0
M  V30 1652 O 157.253 5.38433 2.69023 0
M  V30 1653 H 161.079 3.0124 0.38575 0
M  V30 1654 H 158.664 1.48881 0.124397 0
M  V30 1655 H 160.546 3.11656 2.83634 0
M  V30 1656 H 159.221 1.94721 2.58584 0
M  V30 1657 H 158.128 3.61201 0.973883 0
M  V30 1658 H 159.461 4.74713 1.30033 0
M  V30 1659 N 161.113 -0.173488 1.56642 0
M  V30 1660 C 162.063 -1.21941 1.92651 0
M  V30 1661 C 163.047 -1.39912 0.794577 0
M  V30 1662 O 164.239 -1.41919 1.05773 0
M  V30 1663 C 161.368 -2.55935 2.28806 0
M  V30 1664 C 160.454 -2.41667 3.48508 0
M  V30 1665 N 160.845 -1.9711 4.65813 0
M  V30 1666 C 159.143 -2.72499 3.53072 0
M  V30 1667 C 159.844 -1.95253 5.47952 0
M  V30 1668 N 158.82 -2.37575 4.88937 0
M  V30 1669 H 162.622 -0.866581 2.80834 0
M  V30 1670 H 160.136 -0.381776 1.57849 0
M  V30 1671 H 162.133 -3.31511 2.52797 0
M  V30 1672 H 160.793 -2.92022 1.41961 0
M  V30 1673 H 161.804 -1.67481 4.90072 0
M  V30 1674 H 158.481 -3.12639 2.767 0
M  V30 1675 H 159.871 -1.6252 6.51948 0
M  V30 1676 N 162.591 -1.51276 -0.441967 0
M  V30 1677 C 163.838 -1.63715 -1.19179 0
M  V30 1678 C 164.166 -0.351175 -1.91303 0
M  V30 1679 O 163.421 0.664524 -1.84072 0
M  V30 1680 C 163.72 -2.78746 -2.23686 0
M  V30 1681 C 163.386 -4.18189 -1.68607 0
M  V30 1682 C 162.048 -4.56125 -1.53308 0
M  V30 1683 C 164.4 -5.05222 -1.28062 0
M  V30 1684 C 161.728 -5.78804 -0.959317 0
M  V30 1685 C 164.08 -6.28476 -0.721162 0
M  V30 1686 C 162.744 -6.65188 -0.55504 0
M  V30 1687 H 162.014 -0.599076 -0.436106 0
M  V30 1688 H 164.661 -1.85296 -0.48351 0
M  V30 1689 H 162.966 -2.51369 -3.00535 0
M  V30 1690 H 164.663 -2.8557 -2.81515 0
M  V30 1691 H 161.253 -3.88277 -1.8149 0
M  V30 1692 H 165.437 -4.76524 -1.38704 0
M  V30 1693 H 160.693 -6.05899 -0.81833 0
M  V30 1694 H 164.867 -6.95259 -0.398458 0
M  V30 1695 H 162.494 -7.60123 -0.108311 0
M  V30 1696 N 164.069 0.697108 -1.41344 0
M  V30 1697 C 165.309 1.46939 -1.42085 0
M  V30 1698 C 165.673 1.9198 -0.0280397 0
M  V30 1699 O 166.874 2.6865 0.0897504 0
M  V30 1700 C 165.145 2.64985 -2.39828 0
M  V30 1701 S 166.704 3.54147 -2.59085 0
M  V30 1702 H 163.522 0.502146 -0.503359 0
M  V30 1703 H 166.124 0.813546 -1.77769 0
M  V30 1704 H 164.828 2.30098 -3.39828 0
M  V30 1705 H 164.359 3.35464 -2.05493 0
M  V30 1706 H 166.374 4.60137 -1.85711 0
M  V30 1707 N 165.547 1.27147 0.931209 0
M  V30 1708 C 166.824 1.0401 1.65654 0
M  V30 1709 C 167.204 -0.426297 2.06751 0
M  V30 1710 O 166.552 -1.40879 1.79904 0
M  V30 1711 C 166.762 1.99834 2.86125 0
M  V30 1712 C 168.11 2.29007 3.57549 0
M  V30 1713 O 169.134 1.97779 2.96246 0
M  V30 1714 O 167.993 2.82222 4.67989 0
M  V30 1715 H 165.087 0.396239 0.725895 0
M  V30 1716 H 167.633 1.38397 0.982056 0
M  V30 1717 H 166.405 2.98744 2.52721 0
M  V30 1718 H 166.028 1.65987 3.61295 0
M  V30 1719 N 167.025 -1.13721 1.09112 0
M  V30 1720 C 168.271 -1.85198 0.826414 0
M  V30 1721 C 168.604 -1.83129 -0.646319 0
M  V30 1722 O 167.879 -1.2671 -1.47563 0
M  V30 1723 C 168.162 -3.33507 1.35812 0
M  V30 1724 C 168.015 -3.44108 2.89672 0
M  V30 1725 C 169.334 -4.28838 0.989256 0
M  V30 1726 H 166.453 -0.67243 0.301675 0
M  V30 1727 H 169.095 -1.33499 1.35197 0
M  V30 1728 H 167.245 -3.77666 0.911082 0
M  V30 1729 H 168.917 -3.08684 3.428 0
M  V30 1730 H 167.16 -2.85087 3.26967 0
M  V30 1731 H 167.831 -4.48388 3.21951 0
M  V30 1732 H 170.307 -3.92734 1.37475 0
M  V30 1733 H 169.183 -5.31051 1.38838 0
M  V30 1734 H 169.444 -4.4198 -0.102924 0
M  V30 1735 N 168.503 -0.877838 -1.30888 0
M  V30 1736 C 169.433 -0.35534 -2.3078 0
M  V30 1737 C 170.414 0.557994 -1.60687 0
M  V30 1738 O 171.599 0.473355 -1.88343 0
M  V30 1739 C 168.729 0.437221 -3.44537 0
M  V30 1740 C 167.683 -0.383715 -4.26276 0
M  V30 1741 C 167.009 0.535014 -5.32017 0
M  V30 1742 C 168.309 -1.62201 -4.96476 0
M  V30 1743 H 170.003 -1.19007 -2.74732 0
M  V30 1744 H 167.549 -0.573698 -1.32078 0
M  V30 1745 H 169.502 0.813334 -4.13477 0
M  V30 1746 H 168.226 1.30553 -2.99372 0
M  V30 1747 H 166.885 -0.741874 -3.59015 0
M  V30 1748 H 166.533 1.40083 -4.831 0
M  V30 1749 H 166.233 -0.0104211 -5.87599 0
M  V30 1750 H 167.757 0.907799 -6.03814 0
M  V30 1751 H 169.171 -1.31689 -5.5797 0
M  V30 1752 H 167.568 -2.10711 -5.61891 0
M  V30 1753 H 168.638 -2.37044 -4.23011 0
M  V30 1754 N 169.982 1.44106 -0.638065 0
M  V30 1755 C 171.259 1.95453 -0.0759321 0
M  V30 1756 C 171.639 1.57984 1.40015 0
M  V30 1757 O 170.987 0.857361 2.11806 0
M  V30 1758 C 171.197 3.47655 -0.306132 0
M  V30 1759 C 172.545 4.24114 -0.203008 0
M  V30 1760 O 173.569 3.55405 -0.237871 0
M  V30 1761 O 172.428 5.46381 -0.113827 0
M  V30 1762 H 169.522 0.826797 0.0183332 0
M  V30 1763 H 172.068 1.54122 -0.710251 0
M  V30 1764 H 170.84 3.68 -1.3301 0
M  V30 1765 H 170.463 3.95949 0.361991 0
M  V30 1766 N 171.46 0.379036 1.52974 0
M  V30 1767 C 172.393 -0.504932 2.22544 0
M  V30 1768 C 173.371 -1.0723 1.22231 0
M  V30 1769 O 174.555 -1.12589 1.51182 0
M  V30 1770 C 171.682 -1.69794 2.93066 0
M  V30 1771 C 170.728 -1.25678 4.07563 0
M  V30 1772 S 171.561 -0.246852 5.34931 0
M  V30 1773 C 172.717 -1.44588 6.08971 0
M  V30 1774 H 172.95 0.0858666 2.97176 0
M  V30 1775 H 170.483 0.163183 1.53535 0
M  V30 1776 H 172.441 -2.38219 3.34308 0
M  V30 1777 H 171.102 -2.26002 2.18133 0
M  V30 1778 H 170.295 -2.14725 4.5597 0
M  V30 1779 H 169.897 -0.651584 3.6828 0
M  V30 1780 H 172.189 -2.37469 6.34519 0
M  V30 1781 H 173.132 -1.00292 7.00962 0
M  V30 1782 H 173.54 -1.65804 5.39601 0
M  V30 1783 N 172.938 -1.57226 0.108567 0
M  V30 1784 C 173.868 -2.17778 -0.84232 0
M  V30 1785 C 174.849 -1.11487 -1.2847 0
M  V30 1786 O 176.034 -1.39681 -1.34918 0
M  V30 1787 C 173.164 -2.76888 -2.09644 0
M  V30 1788 C 172.118 -3.88669 -1.79221 0
M  V30 1789 C 171.444 -4.34541 -3.11574 0
M  V30 1790 C 172.744 -5.11251 -1.06864 0
M  V30 1791 H 174.438 -2.97489 -0.337774 0
M  V30 1792 H 171.984 -1.43097 -0.161025 0
M  V30 1793 H 173.937 -3.17904 -2.76614 0
M  V30 1794 H 172.661 -1.94451 -2.62405 0
M  V30 1795 H 171.32 -3.48213 -1.14644 0
M  V30 1796 H 170.968 -3.48977 -3.62249 0
M  V30 1797 H 170.668 -5.09914 -2.91996 0
M  V30 1798 H 172.192 -4.782 -3.7968 0
M  V30 1799 H 173.606 -5.49352 -1.63968 0
M  V30 1800 H 172.003 -5.9214 -0.974178 0
M  V30 1801 H 173.073 -4.8487 -0.0536168 0
M  V30 1802 N 174.416 0.165178 -1.56732 0
M  V30 1803 C 175.665 0.879143 -1.81532 0
M  V30 1804 C 175.978 1.83144 -0.686842 0
M  V30 1805 O 177.184 2.58823 -0.819944 0
M  V30 1806 C 175.64 1.61388 -3.21686 0
M  V30 1807 C 175.248 0.704904 -4.4242 0
M  V30 1808 C 176.992 2.3157 -3.55774 0
M  V30 1809 C 174.899 1.44022 -5.73595 0
M  V30 1810 H 173.829 0.332033 -0.676957 0
M  V30 1811 H 176.48 0.132008 -1.83025 0
M  V30 1812 H 174.862 2.40599 -3.14529 0
M  V30 1813 H 176.036 -0.0506815 -4.60772 0
M  V30 1814 H 174.351 0.112419 -4.16248 0
M  V30 1815 H 176.948 2.8719 -4.51028 0
M  V30 1816 H 177.291 3.07201 -2.8095 0
M  V30 1817 H 177.824 1.59297 -3.64513 0
M  V30 1818 H 174.563 0.72612 -6.51466 0
M  V30 1819 H 174.083 2.16898 -5.5921 0
M  V30 1820 H 175.762 1.98606 -6.15764 0
M  V30 1821 N 175.894 1.51508 0.433938 0
M  V30 1822 C 177.305 1.56784 1.01369 0
M  V30 1823 C 177.656 0.393349 1.92217 0
M  V30 1824 O 176.781 -0.489441 2.10792 0
M  V30 1825 C 177.376 2.84144 1.8452 0
M  V30 1826 C 175.935 2.9198 2.37539 0
M  V30 1827 C 175.082 2.51482 1.16843 0
M  V30 1828 H 178.033 1.57236 0.215081 0
M  V30 1829 H 178.054 2.68098 2.70007 0
M  V30 1830 H 177.566 3.69607 1.18373 0
M  V30 1831 H 175.667 2.10955 3.0713 0
M  V30 1832 H 175.78 3.95704 2.70103 0
M  V30 1833 H 174.144 2.04758 1.51481 0
M  V30 1834 H 174.927 3.39293 0.523015 0
M  V30 1835 N 177.372 -0.689602 1.41712 0
M  V30 1836 C 178.6 -1.47827 1.44758 0
M  V30 1837 C 179.015 -1.88721 0.0545703 0
M  V30 1838 O 178.372 -1.57176 -0.927463 0
M  V30 1839 C 178.423 -2.73698 2.3616 0
M  V30 1840 O 178.144 -2.34524 3.7004 0
M  V30 1841 C 179.645 -3.67389 2.48072 0
M  V30 1842 H 176.865 -0.455357 0.49284 0
M  V30 1843 H 179.409 -0.848574 1.86063 0
M  V30 1844 H 177.564 -3.32891 1.98148 0
M  V30 1845 H 177.978 -3.15701 4.18847 0
M  V30 1846 H 179.452 -4.52475 3.16181 0
M  V30 1847 H 179.929 -4.12284 1.51388 0
M  V30 1848 H 180.535 -3.14097 2.86746 0
M  V30 1849 N 178.85 -1.27639 -0.924453 0
M  V30 1850 C 180.098 -1.13941 -1.66918 0
M  V30 1851 C 180.419 0.314589 -1.92446 0
M  V30 1852 O 179.689 1.21964 -1.53303 0
M  V30 1853 H 178.269 -0.418678 -0.618642 0
M  V30 1854 H 180.931 -1.60213 -1.10985 0
M  V30 1855 H 180.027 -1.67094 -2.63602 0
M  V30 1856 N 180.328 1.1314 -1.09713 0
M  V30 1857 C 181.238 2.22242 -0.751367 0
M  V30 1858 C 182.254 1.72224 0.247938 0
M  V30 1859 O 183.43 2.01205 0.0885463 0
M  V30 1860 C 180.495 3.46231 -0.180274 0
M  V30 1861 C 179.556 4.11125 -1.2359 0
M  V30 1862 C 178.789 5.29195 -0.691966 0
M  V30 1863 O 179.012 5.68342 0.48414 0
M  V30 1864 O 177.946 5.84214 -1.44838 0
M  V30 1865 H 181.772 2.54197 -1.66186 0
M  V30 1866 H 179.357 1.21331 -0.871735 0
M  V30 1867 H 181.239 4.21185 0.134739 0
M  V30 1868 H 179.914 3.1597 0.703185 0
M  V30 1869 H 178.821 3.37985 -1.60366 0
M  V30 1870 H 180.154 4.45524 -2.09211 0
M  V30 1871 N 181.806 0.884767 1.30421 0
M  V30 1872 C 183.217 0.553656 1.78302 0
M  V30 1873 C 183.568 -0.930153 1.7275 0
M  V30 1874 O 182.693 -1.72681 1.30423 0
M  V30 1875 C 183.288 0.998234 3.2376 0
M  V30 1876 C 181.847 0.71854 3.69478 0
M  V30 1877 C 180.994 1.18132 2.50879 0
M  V30 1878 H 183.945 1.06901 1.17294 0
M  V30 1879 H 183.966 0.327118 3.79091 0
M  V30 1880 H 183.478 2.0782 3.27769 0
M  V30 1881 H 181.579 -0.349444 3.70958 0
M  V30 1882 H 181.692 1.30595 4.60958 0
M  V30 1883 H 180.056 0.600669 2.47516 0
M  V30 1884 H 180.839 2.26902 2.57624 0
M  V30 1885 N 183.284 -1.43765 0.645699 0
M  V30 1886 C 184.524 -2.03776 0.159542 0
M  V30 1887 C 184.888 -1.49792 -1.2011 0
M  V30 1888 O 186.089 -2.01398 -1.78023 0
M  V30 1889 C 184.36 -3.57036 0.161251 0
M  V30 1890 S 185.919 -4.3804 -0.258159 0
M  V30 1891 H 182.737 -0.707717 0.0682454 0
M  V30 1892 H 185.339 -1.75941 0.852352 0
M  V30 1893 H 184.043 -3.9383 1.15439 0
M  V30 1894 H 183.574 -3.89503 -0.552339 0
M  V30 1895 H 185.589 -4.7302 -1.49889 0
M  V30 1896 N 184.763 -0.387143 -1.52771 0
M  V30 1897 C 186.174 0.0873634 -1.86495 0
M  V30 1898 C 186.525 1.46336 -1.30691 0
M  V30 1899 O 185.65 2.068 -0.637409 0
M  V30 1900 C 186.245 0.165305 -3.38396 0
M  V30 1901 C 184.804 0.584101 -3.7184 0
M  V30 1902 C 183.951 -0.255279 -2.76122 0
M  V30 1903 H 186.902 -0.605104 -1.46711 0
M  V30 1904 H 186.923 0.984848 -3.67534 0
M  V30 1905 H 186.435 -0.836301 -3.78982 0
M  V30 1906 H 184.536 1.59315 -3.36823 0
M  V30 1907 H 184.649 0.343749 -4.77865 0
M  V30 1908 H 183.013 0.279126 -2.53166 0
M  V30 1909 H 183.796 -1.25482 -3.19545 0
M  V30 1910 N 186.241 1.57166 -0.116904 0
M  V30 1911 C 187.151 2.18745 0.847812 0
M  V30 1912 C 188.167 1.163 1.29423 0
M  V30 1913 O 189.343 1.48761 1.35765 0
M  V30 1914 C 186.408 2.77307 2.0809 0
M  V30 1915 C 185.469 3.94781 1.68661 0
M  V30 1916 C 184.702 4.50541 2.86091 0
M  V30 1917 O 184.925 4.05202 4.01456 0
M  V30 1918 O 183.859 5.41256 2.63298 0
M  V30 1919 H 187.685 3.01632 0.353778 0
M  V30 1920 H 185.27 1.49005 0.108599 0
M  V30 1921 H 187.152 3.14647 2.80313 0
M  V30 1922 H 185.827 1.97452 2.56504 0
M  V30 1923 H 184.734 3.62214 0.935518 0
M  V30 1924 H 186.067 4.76065 1.24991 0
M  V30 1925 N 187.719 -0.156864 1.56817 0
M  V30 1926 C 189.13 -0.717916 1.72345 0
M  V30 1927 C 189.481 -1.82124 0.729747 0
M  V30 1928 O 188.606 -2.16141 -0.105781 0
M  V30 1929 C 189.201 -1.30904 3.12489 0
M  V30 1930 C 187.76 -1.81676 3.29653 0
M  V30 1931 C 186.907 -0.701349 2.68284 0
M  V30 1932 H 189.858 0.0686989 1.58551 0
M  V30 1933 H 189.879 -2.17882 3.11942 0
M  V30 1934 H 189.391 -0.505796 3.8479 0
M  V30 1935 H 187.492 -2.64598 2.62333 0
M  V30 1936 H 187.605 -1.95226 4.3752 0
M  V30 1937 H 185.969 -1.12548 2.28484 0
M  V30 1938 H 186.752 0.0902846 3.43181 0
M  V30 1939 N 189.197 -1.51736 -0.425897 0
M  V30 1940 C 190.127 -1.76827 -1.52494 0
M  V30 1941 C 191.108 -0.618524 -1.58456 0
M  V30 1942 O 192.293 -0.862416 -1.74 0
M  V30 1943 C 189.423 -1.90374 -2.90474 0
M  V30 1944 C 188.377 -3.0588 -2.99369 0
M  V30 1945 C 187.703 -3.04625 -4.3944 0
M  V30 1946 C 189.003 -4.45644 -2.72394 0
M  V30 1947 H 190.697 -2.68855 -1.31748 0
M  V30 1948 H 188.243 -1.29372 -0.632362 0
M  V30 1949 H 190.196 -2.0651 -3.6733 0
M  V30 1950 H 188.92 -0.95004 -3.12477 0
M  V30 1951 H 187.579 -2.89467 -2.24954 0
M  V30 1952 H 187.227 -2.0701 -4.58428 0
M  V30 1953 H 186.927 -3.82195 -4.46319 0
M  V30 1954 H 188.451 -3.22869 -5.18255 0
M  V30 1955 H 189.865 -4.62348 -3.38979 0
M  V30 1956 H 188.262 -5.25006 -2.9067 0
M  V30 1957 H 189.332 -4.54893 -1.67929 0
M  V30 1958 N 190.675 0.682077 -1.42076 0
M  V30 1959 C 192.091 0.994324 -1.24841 0
M  V30 1960 C 192.291 2.0096 -0.147389 0
M  V30 1961 O 191.347 2.47822 0.483782 0
M  V30 1962 C 192.66 1.50607 -2.60265 0
M  V30 1963 C 194.208 1.62421 -2.6756 0
M  V30 1964 C 194.683 2.16994 -4.03333 0
M  V30 1965 N 196.174 2.24337 -4.0525 0
M  V30 1966 C 196.909 2.67621 -5.07116 0
M  V30 1967 N 196.405 3.1041 -6.19368 0
M  V30 1968 N 198.198 2.67305 -4.94474 0
M  V30 1969 H 190.349 0.00973908 -2.12398 0
M  V30 1970 H 192.612 0.0668593 -0.945639 0
M  V30 1971 H 192.318 0.834583 -3.41654 0
M  V30 1972 H 192.192 2.48602 -2.83684 0
M  V30 1973 H 194.579 2.28678 -1.86521 0
M  V30 1974 H 194.66 0.629352 -2.47937 0
M  V30 1975 H 194.304 1.51349 -4.84826 0
M  V30 1976 H 194.234 3.17258 -4.20304 0
M  V30 1977 H 196.725 1.94158 -3.24209 0
M  V30 1978 H 197.038 3.42103 -6.92954 0
M  V30 1979 H 195.383 3.08286 -6.22884 0
M  V30 1980 H 198.574 2.33233 -4.05857 0
M  V30 1981 H 198.747 3.00718 -5.73997 0
M  V30 1982 N 192.153 1.28127 0.917671 0
M  V30 1983 C 193.381 1.17892 1.70026 0
M  V30 1984 C 193.796 -0.262958 1.8696 0
M  V30 1985 O 193.153 -1.17811 1.3938 0
M  V30 1986 C 193.204 1.86872 3.09453 0
M  V30 1987 O 192.925 3.25428 2.93306 0
M  V30 1988 C 194.426 1.8289 4.03815 0
M  V30 1989 H 191.646 0.40942 0.531617 0
M  V30 1990 H 194.19 1.69181 1.14883 0
M  V30 1991 H 192.345 1.39464 3.61426 0
M  V30 1992 H 192.759 3.59918 3.81523 0
M  V30 1993 H 194.233 2.35751 4.99125 0
M  V30 1994 H 194.71 0.800412 4.31845 0
M  V30 1995 H 195.316 2.29959 3.57769 0
M  V30 1996 N 193.631 -1.12557 1.10312 0
M  V30 1997 C 194.861 -1.87592 0.865617 0
M  V30 1998 C 195.269 -1.79851 -0.587389 0
M  V30 1999 O 194.612 -1.16949 -1.41664 0
M  V30 2000 C 194.674 -3.37665 1.23381 0
M  V30 2001 C 194.338 -3.69181 2.69359 0
M  V30 2002 C 195.335 -3.67652 3.67597 0
M  V30 2003 C 193.02 -3.98555 3.05711 0
M  V30 2004 C 195.014 -3.95053 5.00212 0
M  V30 2005 C 192.701 -4.25616 4.38514 0
M  V30 2006 C 193.699 -4.23851 5.35574 0
M  V30 2007 O 193.387 -4.50242 6.65986 0
M  V30 2008 H 193.119 -0.600442 0.310557 0
M  V30 2009 H 195.673 -1.4335 1.47105 0
M  V30 2010 H 193.903 -3.82454 0.571467 0
M  V30 2011 H 195.592 -3.94041 0.973994 0
M  V30 2012 H 196.358 -3.45024 3.40857 0
M  V30 2013 H 192.237 -3.99071 2.30789 0
M  V30 2014 H 195.781 -3.93591 5.75962 0
M  V30 2015 H 191.678 -4.47718 4.64994 0
M  V30 2016 H 192.446 -4.67867 6.71597 0
M  V30 2017 N 195.109 -0.891671 -1.2995 0
M  V30 2018 C 196.357 -0.512486 -1.95494 0
M  V30 2019 C 196.678 0.942776 -1.70695 0
M  V30 2020 O 195.948 1.66374 -1.03424 0
M  V30 2021 H 194.528 -0.186533 -0.723336 0
M  V30 2022 H 197.19 -1.13621 -1.58355 0
M  V30 2023 H 196.286 -0.688342 -3.04415 0
M  V30 2024 N 196.587 1.43421 -0.653314 0
M  V30 2025 C 197.517 2.33487 0.0246656 0
M  V30 2026 C 198.498 1.49475 0.811863 0
M  V30 2027 O 199.683 1.78139 0.773322 0
M  V30 2028 C 196.813 3.32841 0.99166 0
M  V30 2029 C 195.767 4.26842 0.314568 0
M  V30 2030 C 195.093 5.16236 1.39302 0
M  V30 2031 C 196.393 5.16243 -0.793095 0
M  V30 2032 H 198.087 2.90427 -0.727481 0
M  V30 2033 H 195.633 1.39649 -0.351287 0
M  V30 2034 H 197.586 3.94747 1.47487 0
M  V30 2035 H 196.31 2.74158 1.77497 0
M  V30 2036 H 194.969 3.663 -0.148199 0
M  V30 2037 H 194.617 4.53891 2.16776 0
M  V30 2038 H 194.317 5.79948 0.945223 0
M  V30 2039 H 195.841 5.81015 1.87759 0
M  V30 2040 H 197.255 5.71958 -0.392039 0
M  V30 2041 H 195.652 5.88676 -1.16536 0
M  V30 2042 H 196.722 4.55927 -1.65103 0
M  V30 2043 N 198.065 0.39524 1.52563 0
M  V30 2044 C 199.476 -0.0774719 1.86539 0
M  V30 2045 C 199.827 -1.45641 1.31466 0
M  V30 2046 O 198.952 -2.06459 0.648367 0
M  V30 2047 C 199.547 -0.147356 3.38479 0
M  V30 2048 C 198.106 -0.564373 3.72145 0
M  V30 2049 C 197.253 0.269919 2.75983 0
M  V30 2050 H 200.204 0.612876 1.46388 0
M  V30 2051 H 200.225 -0.965343 3.68051 0
M  V30 2052 H 199.737 0.856387 3.78534 0
M  V30 2053 H 197.838 -1.57527 3.37663 0
M  V30 2054 H 197.951 -0.318402 4.78041 0
M  V30 2055 H 196.315 -0.265696 2.5331 0
M  V30 2056 H 197.098 1.27175 3.18875 0
M  V30 2057 N 199.544 -1.57102 0.125237 0
M  V30 2058 C 200.784 -1.97294 -0.534259 0
M  V30 2059 C 201.148 -1.0074 -1.63449 0
M  V30 2060 O 202.349 -1.29893 -2.35332 0
M  V30 2061 C 200.62 -3.41705 -1.04748 0
M  V30 2062 S 202.179 -4.03913 -1.71463 0
M  V30 2063 H 198.997 -0.689517 -0.173458 0
M  V30 2064 H 201.599 -1.94349 0.211797 0
M  V30 2065 H 200.303 -4.09723 -0.235649 0
M  V30 2066 H 199.834 -3.48315 -1.82867 0
M  V30 2067 H 201.849 -3.95182 -3.00077 0
M  V30 2068 N 201.022 0.148545 -1.56898 0
M  V30 2069 C 201.972 1.1886 -1.94567 0
M  V30 2070 C 202.956 1.3863 -0.816735 0
M  V30 2071 O 204.148 1.40218 -1.08018 0
M  V30 2072 C 201.277 2.52262 -2.32849 0
M  V30 2073 C 200.363 2.36092 -3.52309 0
M  V30 2074 N 200.754 1.89674 -4.6889 0
M  V30 2075 C 199.052 2.66848 -3.57363 0
M  V30 2076 C 199.753 1.86511 -5.50989 0
M  V30 2077 N 198.729 2.29766 -4.92655 0
M  V30 2078 H 202.531 0.821793 -2.82177 0
M  V30 2079 H 200.045 0.356615 -1.58436 0
M  V30 2080 H 202.042 3.27447 -2.58039 0
M  V30 2081 H 200.702 2.89727 -1.46589 0
M  V30 2082 H 201.713 1.59663 -4.92674 0
M  V30 2083 H 198.39 3.08198 -2.81639 0
M  V30 2084 H 199.78 1.52128 -6.54452 0
M  V30 2085 N 202.5 1.5196 0.417844 0
M  V30 2086 C 203.74 1.67262 1.17486 0
M  V30 2087 C 204.104 0.38983 1.88001 0
M  V30 2088 O 205.305 0.418845 2.65517 0
M  V30 2089 C 203.576 2.85526 2.14965 0
M  V30 2090 S 205.135 3.21263 2.98891 0
M  V30 2091 H 201.953 0.589077 0.398132 0
M  V30 2092 H 204.555 1.89927 0.463452 0
M  V30 2093 H 203.259 3.77145 1.61833 0
M  V30 2094 H 202.79 2.65107 2.90657 0
M  V30 2095 H 204.805 2.69208 4.16823 0
M  V30 2096 N 203.978 -0.674533 1.42435 0
M  V30 2097 C 205.389 -1.25514 1.38214 0
M  V30 2098 C 205.74 -1.96055 0.0755464 0
M  V30 2099 O 204.865 -2.00028 -0.8257 0
M  V30 2100 C 205.46 -2.28269 2.50357 0
M  V30 2101 C 204.019 -2.81856 2.49467 0
M  V30 2102 C 203.166 -1.56182 2.29134 0
M  V30 2103 H 206.117 -0.467902 1.51646 0
M  V30 2104 H 206.138 -3.10009 2.20624 0
M  V30 2105 H 205.65 -1.769 3.45439 0
M  V30 2106 H 203.751 -3.37346 1.58204 0
M  V30 2107 H 203.864 -3.30854 3.46515 0
M  V30 2108 H 202.228 -1.82761 1.774 0
M  V30 2109 H 203.011 -1.06778 3.26272 0
M  V30 2110 N 205.456 -1.28612 -0.910864 0
M  V30 2111 C 206.703 -1.15934 -1.66029 0
M  V30 2112 C 207.031 0.291483 -1.92303 0
M  V30 2113 O 206.286 1.22816 -1.52364 0
M  V30 2114 C 206.585 -1.90624 -3.0232 0
M  V30 2115 C 206.251 -3.40405 -2.95695 0
M  V30 2116 C 204.913 -3.81255 -2.93595 0
M  V30 2117 C 207.265 -4.359 -2.85728 0
M  V30 2118 C 204.593 -5.15936 -2.79334 0
M  V30 2119 C 206.945 -5.70657 -2.73007 0
M  V30 2120 C 205.609 -6.10779 -2.69267 0
M  V30 2121 H 204.879 -0.424234 -0.607541 0
M  V30 2122 H 207.526 -1.5942 -1.06101 0
M  V30 2123 H 205.831 -1.39696 -3.6605 0
M  V30 2124 H 207.528 -1.78228 -3.59215 0
M  V30 2125 H 204.118 -3.07927 -2.98125 0
M  V30 2126 H 208.302 -4.053 -2.86436 0
M  V30 2127 H 203.558 -5.46146 -2.74835 0
M  V30 2128 H 207.732 -6.44311 -2.64264 0
M  V30 2129 H 205.359 -7.1509 -2.57974 0
M  V30 2130 N 206.934 1.1197 -1.10907 0
M  V30 2131 C 207.881 2.17846 -0.762345 0
M  V30 2132 C 208.851 1.63995 0.263599 0
M  V30 2133 O 210.036 1.90273 0.141773 0
M  V30 2134 C 207.176 3.44487 -0.205651 0
M  V30 2135 C 206.289 4.12369 -1.28748 0
M  V30 2136 C 205.424 5.26674 -0.691919 0
M  V30 2137 C 204.463 5.86431 -1.75399 0
M  V30 2138 N 203.6 6.92142 -1.17833 0
M  V30 2139 H 208.44 2.46851 -1.6694 0
M  V30 2140 H 205.977 1.21188 -0.833776 0
M  V30 2141 H 207.935 4.16981 0.135037 0
M  V30 2142 H 206.565 3.15884 0.664613 0
M  V30 2143 H 205.617 3.38003 -1.74522 0
M  V30 2144 H 206.929 4.52844 -2.09125 0
M  V30 2145 H 206.083 6.05953 -0.300963 0
M  V30 2146 H 204.822 4.8749 0.143232 0
M  V30 2147 H 203.827 5.05835 -2.15432 0
M  V30 2148 H 205.052 6.27685 -2.59208 0
M  V30 2149 H 202.998 6.54985 -0.364725 0
M  V30 2150 H 202.915 7.31242 -1.91887 0
M  V30 2151 H 204.183 7.75237 -0.81408 0
M  V30 2152 N 208.412 0.89855 1.29475 0
M  V30 2153 C 209.322 0.379974 2.31502 0
M  V30 2154 C 210.338 -0.524695 1.659 0
M  V30 2155 O 211.514 -0.414551 1.97087 0
M  V30 2156 C 208.579 -0.385138 3.44554 0
M  V30 2157 C 207.64 0.550914 4.2575 0
M  V30 2158 C 206.873 -0.177778 5.33404 0
M  V30 2159 O 207.096 -1.40189 5.52904 0
M  V30 2160 O 206.03 0.479106 5.9999 0
M  V30 2161 H 209.856 1.22639 2.77837 0
M  V30 2162 H 207.441 0.662834 1.33891 0
M  V30 2163 H 209.323 -0.817841 4.13388 0
M  V30 2164 H 207.998 -1.20763 3.0033 0
M  V30 2165 H 206.905 1.03271 3.59564 0
M  V30 2166 H 208.238 1.33979 4.73614 0
M  V30 2167 N 209.89 -1.43072 0.660911 0
M  V30 2168 C 211.138 -2.01323 0.177094 0
M  V30 2169 C 211.459 -1.5245 -1.2159 0
M  V30 2170 O 210.729 -0.740322 -1.81373 0
M  V30 2171 H 209.309 -0.744382 0.0624804 0
M  V30 2172 H 211.971 -1.75179 0.854305 0
M  V30 2173 H 211.067 -3.11649 0.167641 0
M  V30 2174 N 211.368 -0.403325 -1.52352 0
M  V30 2175 C 212.596 0.174012 -2.06167 0
M  V30 2176 C 213.011 1.39347 -1.27388 0
M  V30 2177 O 212.368 1.79597 -0.324201 0
M  V30 2178 C 212.419 0.530223 -3.5759 0
M  V30 2179 O 212.14 -0.640806 -4.33388 0
M  V30 2180 C 213.641 1.16192 -4.27802 0
M  V30 2181 H 210.861 0.0229464 -0.670608 0
M  V30 2182 H 213.405 -0.572604 -1.9632 0
M  V30 2183 H 211.56 1.22673 -3.67464 0
M  V30 2184 H 211.974 -0.344851 -5.23365 0
M  V30 2185 H 213.448 1.36141 -5.34948 0
M  V30 2186 H 213.925 2.13335 -3.83907 0
M  V30 2187 H 214.531 0.505775 -4.22282 0
M  V30 2188 N 212.846 1.57033 -0.133567 0
M  V30 2189 C 214.076 1.99754 0.527429 0
M  V30 2190 C 214.484 1.01245 1.59832 0
M  V30 2191 O 213.827 -0.000645496 1.837 0
M  V30 2192 C 213.889 3.38903 1.19939 0
M  V30 2193 C 213.553 4.56174 0.274709 0
M  V30 2194 C 214.55 5.17563 -0.492398 0
M  V30 2195 C 212.235 5.01972 0.18153 0
M  V30 2196 C 214.229 6.2315 -1.34027 0
M  V30 2197 C 211.916 6.07416 -0.669958 0
M  V30 2198 C 212.914 6.67874 -1.42947 0
M  V30 2199 O 212.602 7.71279 -2.2668 0
M  V30 2200 H 212.334 0.660702 0.142999 0
M  V30 2201 H 214.888 2.04207 -0.221099 0
M  V30 2202 H 213.118 3.31248 1.99528 0
M  V30 2203 H 214.807 3.65818 1.75875 0
M  V30 2204 H 215.573 4.83087 -0.430367 0
M  V30 2205 H 211.452 4.54652 0.762422 0
M  V30 2206 H 214.996 6.70268 -1.93357 0
M  V30 2207 H 210.893 6.41321 -0.73333 0
M  V30 2208 H 211.661 7.88441 -2.1978 0
M  V30 2209 N 214.325 -0.140222 1.56975 0
M  V30 2210 C 215.55 -0.870414 1.88251 0
M  V30 2211 C 215.975 -1.73637 0.723312 0
M  V30 2212 O 215.333 -1.78329 -0.32689 0
M  V30 2213 C 215.381 -1.69737 3.18154 0
M  V30 2214 O 214.485 -2.80229 3.02565 0
M  V30 2215 H 213.826 -0.242025 0.61832 0
M  V30 2216 H 216.356 -0.128999 2.04193 0
M  V30 2217 H 216.366 -2.09099 3.50345 0
M  V30 2218 H 215.041 -1.06152 4.02125 0
M  V30 2219 H 213.618 -2.44224 2.81796 0
M  V30 2220 N 215.803 -1.52179 -0.40978 0
M  V30 2221 C 216.733 -1.78435 -1.5061 0
M  V30 2222 C 217.714 -0.635295 -1.57791 0
M  V30 2223 O 218.899 -0.880823 -1.73076 0
M  V30 2224 C 216.029 -1.93444 -2.88439 0
M  V30 2225 C 214.983 -3.09038 -2.96108 0
M  V30 2226 C 214.309 -3.09268 -4.36185 0
M  V30 2227 C 215.609 -4.48508 -2.67652 0
M  V30 2228 H 217.303 -2.70237 -1.28889 0
M  V30 2229 H 214.849 -1.30036 -0.618605 0
M  V30 2230 H 216.802 -2.10394 -3.65119 0
M  V30 2231 H 215.526 -0.983129 -3.11452 0
M  V30 2232 H 214.185 -2.91837 -2.21872 0
M  V30 2233 H 213.833 -2.11861 -4.56206 0
M  V30 2234 H 213.533 -3.86907 -4.42241 0
M  V30 2235 H 215.057 -3.28348 -5.14801 0
M  V30 2236 H 216.471 -4.65918 -3.34056 0
M  V30 2237 H 214.868 -5.28059 -2.85085 0
M  V30 2238 H 215.938 -4.56649 -1.63095 0
M  V30 2239 N 217.281 0.66697 -1.42791 0
M  V30 2240 C 218.692 1.2478 -1.38877 0
M  V30 2241 C 219.043 1.96012 -0.0859426 0
M  V30 2242 O 218.168 2.00463 0.815081 0
M  V30 2243 C 218.763 2.26938 -2.51564 0
M  V30 2244 C 217.322 2.80529 -2.50959 0
M  V30 2245 C 216.469 1.54965 -2.29959 0
M  V30 2246 H 219.42 0.459853 -1.51892 0
M  V30 2247 H 219.441 3.08834 -2.22265 0
M  V30 2248 H 218.953 1.75065 -3.46372 0
M  V30 2249 H 217.054 3.36502 -1.59991 0
M  V30 2250 H 217.167 3.29012 -3.48265 0
M  V30 2251 H 215.531 1.81817 -1.78366 0
M  V30 2252 H 216.314 1.05047 -3.26833 0
M  V30 2253 N 218.759 1.29093 0.90403 0
M  V30 2254 C 219.706 1.13853 2.00764 0
M  V30 2255 C 220.676 0.0330084 1.66067 0
M  V30 2256 O 221.861 0.199733 1.89752 0
M  V30 2257 C 219.001 0.816537 3.35301 0
M  V30 2258 C 218.114 2.00206 3.82807 0
M  V30 2259 C 217.249 1.61983 5.059 0
M  V30 2260 C 216.288 2.77143 5.45764 0
M  V30 2261 N 215.425 2.39346 6.60044 0
M  V30 2262 H 220.265 2.08276 2.13132 0
M  V30 2263 H 217.802 1.03648 1.04381 0
M  V30 2264 H 219.76 0.610557 4.12708 0
M  V30 2265 H 218.39 -0.090779 3.22672 0
M  V30 2266 H 217.442 2.31988 3.01473 0
M  V30 2267 H 218.754 2.86512 4.08304 0
M  V30 2268 H 217.908 1.37649 5.90879 0
M  V30 2269 H 216.647 0.728202 4.82233 0
M  V30 2270 H 215.652 3.02165 4.59322 0
M  V30 2271 H 216.877 3.66964 5.71414 0
M  V30 2272 H 214.823 1.52665 6.37989 0
M  V30 2273 H 214.74 3.19185 6.85315 0
M  V30 2274 H 216.008 2.1832 7.48303 0
M  V30 2275 N 220.237 -1.11381 1.11499 0
M  V30 2276 C 221.462 -1.87475 0.887019 0
M  V30 2277 C 221.887 -1.79639 -0.557796 0
M  V30 2278 O 221.245 -1.15924 -1.39396 0
M  V30 2279 C 221.293 -3.34213 1.35403 0
M  V30 2280 O 220.397 -4.0903 0.526146 0
M  V30 2281 H 219.738 -0.582099 0.319463 0
M  V30 2282 H 222.268 -1.40785 1.48461 0
M  V30 2283 H 222.278 -3.8506 1.34881 0
M  V30 2284 H 220.953 -3.39232 2.40612 0
M  V30 2285 H 219.53 -3.68082 0.597522 0
M  V30 2286 N 221.715 -0.905404 -1.28997 0
M  V30 2287 C 222.625 -0.392246 -2.31298 0
M  V30 2288 C 223.641 0.515889 -1.66176 0
M  V30 2289 O 224.817 0.404093 -1.97304 0
M  V30 2290 C 221.882 0.36686 -3.44754 0
M  V30 2291 C 220.943 -0.573485 -4.25452 0
M  V30 2292 C 220.176 0.149488 -5.33491 0
M  V30 2293 O 220.399 1.37255 -5.5364 0
M  V30 2294 O 219.333 -0.510919 -5.99728 0
M  V30 2295 H 223.159 -1.2411 -2.77183 0
M  V30 2296 H 220.744 -0.669926 -1.33538 0
M  V30 2297 H 222.626 0.795907 -4.13816 0
M  V30 2298 H 221.301 1.19169 -3.00966 0
M  V30 2299 H 220.208 -1.05176 -3.59011 0
M  V30 2300 H 221.541 -1.36489 -4.72897 0
M  V30 2301 N 223.193 1.4272 -0.668489 0
M  V30 2302 C 224.44 2.01624 -0.18814 0
M  V30 2303 C 224.768 1.5282 1.20317 0
M  V30 2304 O 224.023 0.718323 1.8204 0
M  V30 2305 C 224.322 3.57021 -0.164499 0
M  V30 2306 C 223.988 4.25232 -1.49962 0
M  V30 2307 C 222.65 4.4358 -1.8652 0
M  V30 2308 C 225.002 4.63727 -2.37921 0
M  V30 2309 C 222.33 4.97694 -3.10674 0
M  V30 2310 C 224.682 5.19218 -3.6138 0
M  V30 2311 C 223.346 5.3578 -3.98115 0
M  V30 2312 H 222.616 0.737795 -0.0688454 0
M  V30 2313 H 225.263 1.70991 -0.862225 0
M  V30 2314 H 223.568 3.87285 0.593079 0
M  V30 2315 H 225.265 4.00372 0.224271 0
M  V30 2316 H 221.855 4.11306 -1.20522 0
M  V30 2317 H 226.039 4.4923 -2.10964 0
M  V30 2318 H 221.295 5.08702 -3.39164 0
M  V30 2319 H 225.469 5.4799 -4.29743 0
M  V30 2320 H 223.096 5.77475 -4.94395 0
M  V30 2321 N 224.671 0.411399 1.52136 0
M  V30 2322 C 225.917 -0.163888 2.02137 0
M  V30 2323 C 226.25 -1.44597 1.29636 0
M  V30 2324 O 225.525 -1.90272 0.403353 0
M  V30 2325 C 225.808 -0.40927 3.57767 0
M  V30 2326 C 225.661 0.889643 4.40914 0
M  V30 2327 C 226.98 -1.19042 4.23694 0
M  V30 2328 H 224.099 -0.0580896 0.734707 0
M  V30 2329 H 226.741 0.54531 1.82007 0
M  V30 2330 H 224.891 -1.0134 3.7505 0
M  V30 2331 H 226.563 1.52575 4.35337 0
M  V30 2332 H 224.806 1.50011 4.07037 0
M  V30 2333 H 225.477 0.672314 5.4789 0
M  V30 2334 H 227.953 -0.678942 4.10524 0
M  V30 2335 H 226.829 -1.33086 5.32522 0
M  V30 2336 H 227.09 -2.21166 3.82803 0
M  V30 2337 N 226.149 -1.5696 0.141893 0
M  V30 2338 C 227.395 -1.9625 -0.511248 0
M  V30 2339 C 227.728 -1.02654 -1.64851 0
M  V30 2340 O 227.003 -0.0679676 -1.94381 0
M  V30 2341 C 227.286 -3.45285 -1.02227 0
M  V30 2342 C 227.139 -4.49658 0.113138 0
M  V30 2343 C 228.458 -3.96698 -1.90574 0
M  V30 2344 H 225.577 -0.713567 -0.184367 0
M  V30 2345 H 228.219 -1.88698 0.222087 0
M  V30 2346 H 226.369 -3.51852 -1.64719 0
M  V30 2347 H 228.041 -4.55174 0.749302 0
M  V30 2348 H 226.284 -4.26857 0.773026 0
M  V30 2349 H 226.955 -5.51258 -0.286053 0
M  V30 2350 H 229.431 -3.92578 -1.37918 0
M  V30 2351 H 228.307 -5.01453 -2.2324 0
M  V30 2352 H 228.568 -3.3875 -2.84079 0
M  V30 2353 N 227.627 0.131896 -1.57047 0
M  V30 2354 C 229.038 0.690407 -1.73465 0
M  V30 2355 C 229.389 1.8094 -0.758629 0
M  V30 2356 O 228.514 2.16282 0.0713813 0
M  V30 2357 C 229.109 1.25916 -3.14532 0
M  V30 2358 C 227.668 1.76409 -3.32501 0
M  V30 2359 C 226.815 0.658579 -2.69366 0
M  V30 2360 H 229.766 -0.0939144 -1.58422 0
M  V30 2361 H 229.787 2.12892 -3.15369 0
M  V30 2362 H 229.299 0.444515 -3.85546 0
M  V30 2363 H 227.4 2.60391 -2.66509 0
M  V30 2364 H 227.513 1.88241 -4.4057 0
M  V30 2365 H 225.877 1.08899 -2.30246 0
M  V30 2366 H 226.66 -0.14487 -3.42994 0
M  V30 2367 N 229.106 1.52395 0.401703 0
M  V30 2368 C 230.383 1.57387 1.16141 0
M  V30 2369 C 230.763 0.359359 2.08019 0
M  V30 2370 O 230.111 -0.65326 2.18963 0
M  V30 2371 C 230.321 2.90631 1.93221 0
M  V30 2372 C 231.669 3.43904 2.49028 0
M  V30 2373 O 232.693 2.92421 2.03393 0
M  V30 2374 O 231.552 4.33823 3.32356 0
M  V30 2375 H 228.646 0.634262 0.530698 0
M  V30 2376 H 231.192 1.64725 0.407883 0
M  V30 2377 H 229.964 3.70473 1.25958 0
M  V30 2378 H 229.587 2.8662 2.75563 0
M  V30 2379 N 230.584 -0.659388 1.43143 0
M  V30 2380 C 231.514 -1.78422 1.50625 0
M  V30 2381 C 232.495 -1.66216 0.361443 0
M  V30 2382 O 233.68 -1.85404 0.577834 0
M  V30 2383 C 230.81 -3.16815 1.42287 0
M  V30 2384 C 229.764 -3.43777 2.54954 0
M  V30 2385 C 229.09 -4.81905 2.31671 0
M  V30 2386 C 230.39 -3.39134 3.97222 0
M  V30 2387 H 232.084 -1.72417 2.44771 0
M  V30 2388 H 229.63 -0.828084 1.17808 0
M  V30 2389 H 231.583 -3.95253 1.46127 0
M  V30 2390 H 230.307 -3.23534 0.446435 0
M  V30 2391 H 228.966 -2.67707 2.50457 0
M  V30 2392 H 228.614 -4.85294 1.32284 0
M  V30 2393 H 228.314 -5.00906 3.07192 0
M  V30 2394 H 229.838 -5.62609 2.37284 0
M  V30 2395 H 231.252 -4.07518 4.03239 0
M  V30 2396 H 229.649 -3.69671 4.72719 0
M  V30 2397 H 230.719 -2.37426 4.22797 0
M  V30 2398 N 232.062 -1.29571 -0.897171 0
M  V30 2399 C 232.972 -1.16808 -2.03453 0
M  V30 2400 C 233.988 -0.0907471 -1.73763 0
M  V30 2401 O 235.164 -0.303312 -1.99103 0
M  V30 2402 C 232.229 -0.848264 -3.36163 0
M  V30 2403 C 231.29 -2.0097 -3.79354 0
M  V30 2404 C 230.523 -1.70505 -5.05731 0
M  V30 2405 O 230.746 -0.62718 -5.66941 0
M  V30 2406 O 229.68 -2.5538 -5.45036 0
M  V30 2407 H 233.506 -2.12325 -2.17144 0
M  V30 2408 H 231.091 -1.09047 -1.02123 0
M  V30 2409 H 232.973 -0.684581 -4.15802 0
M  V30 2410 H 231.648 0.0771071 -3.23608 0
M  V30 2411 H 230.555 -2.22863 -3.00471 0
M  V30 2412 H 231.888 -2.91636 -3.96496 0
M  V30 2413 N 233.54 1.10788 -1.12088 0
M  V30 2414 C 234.47 2.19083 -0.807755 0
M  V30 2415 C 235.451 1.6858 0.226859 0
M  V30 2416 O 236.636 1.93997 0.0888475 0
M  V30 2417 C 233.766 3.46344 -0.257576 0
M  V30 2418 C 232.72 4.101 -1.22483 0
M  V30 2419 C 232.046 5.32016 -0.535052 0
M  V30 2420 C 233.346 4.54236 -2.57811 0
M  V30 2421 H 235.04 2.45534 -1.71328 0
M  V30 2422 H 232.586 1.1801 -0.825205 0
M  V30 2423 H 234.539 4.21392 -0.0262679 0
M  V30 2424 H 233.263 3.19373 0.683278 0
M  V30 2425 H 231.922 3.37054 -1.44189 0
M  V30 2426 H 231.57 5.01319 0.410827 0
M  V30 2427 H 231.27 5.75625 -1.18024 0
M  V30 2428 H 232.794 6.09799 -0.312695 0
M  V30 2429 H 234.208 5.20575 -2.40155 0
M  V30 2430 H 232.605 5.08682 -3.18375 0
M  V30 2431 H 233.675 3.6734 -3.16528 0
M  V30 2432 N 235.018 0.912232 1.28515 0
M  V30 2433 C 236.429 0.591352 1.77087 0
M  V30 2434 C 236.78 -0.8933 1.74684 0
M  V30 2435 O 235.905 -1.69876 1.34056 0
M  V30 2436 C 236.5 1.06668 3.2157 0
M  V30 2437 C 235.059 0.79675 3.67871 0
M  V30 2438 C 234.206 1.23427 2.48316 0
M  V30 2439 H 237.157 1.09365 1.15 0
M  V30 2440 H 237.178 0.407455 3.78312 0
M  V30 2441 H 236.69 2.14726 3.23287 0
M  V30 2442 H 234.791 -0.270679 3.71616 0
M  V30 2443 H 234.904 1.40343 4.58084 0
M  V30 2444 H 233.268 0.653036 2.46186 0
M  V30 2445 H 234.051 2.32316 2.52753 0
M  V30 2446 N 236.496 -1.42363 0.676048 0
M  V30 2447 C 237.721 -2.06377 0.205705 0
M  V30 2448 C 238.146 -1.50463 -1.12883 0
M  V30 2449 O 237.504 -0.623619 -1.70237 0
M  V30 2450 C 237.552 -3.60277 0.152655 0
M  V30 2451 O 236.656 -4.02935 -0.87845 0
M  V30 2452 H 235.997 -0.655588 0.105359 0
M  V30 2453 H 238.527 -1.82475 0.925412 0
M  V30 2454 H 238.537 -4.07993 -0.0230675 0
M  V30 2455 H 237.212 -4.00346 1.12675 0
M  V30 2456 H 235.789 -3.66764 -0.673668 0
M  V30 2457 N 237.974 -0.419461 -1.51915 0
M  V30 2458 C 239.22 0.145505 -2.02879 0
M  V30 2459 C 239.575 1.41926 -1.29903 0
M  V30 2460 O 238.868 1.87383 -0.399782 0
M  V30 2461 C 239.062 0.437067 -3.54717 0
M  V30 2462 C 238.891 -0.806877 -4.42402 0
M  V30 2463 C 237.661 -1.33514 -4.87342 0
M  V30 2464 C 239.859 -1.68796 -4.85811 0
M  V30 2465 N 237.841 -2.53349 -5.59185 0
M  V30 2466 C 239.212 -2.73247 -5.56539 0
M  V30 2467 C 241.267 -1.70449 -4.67816 0
M  V30 2468 C 239.97 -3.79276 -6.11181 0
M  V30 2469 C 241.996 -2.75403 -5.23361 0
M  V30 2470 C 241.358 -3.78575 -5.9402 0
M  V30 2471 H 237.457 0.0145424 -0.781865 0
M  V30 2472 H 240.041 -0.576126 -1.85981 0
M  V30 2473 H 238.212 1.12774 -3.71667 0
M  V30 2474 H 239.944 0.99182 -3.92358 0
M  V30 2475 H 236.699 -0.891657 -4.65131 0
M  V30 2476 H 237.123 -3.14066 -5.99743 0
M  V30 2477 H 241.765 -0.920209 -4.12664 0
M  V30 2478 H 239.483 -4.58554 -6.65397 0
M  V30 2479 H 243.069 -2.77603 -5.113 0
M  V30 2480 H 241.949 -4.58453 -6.36231 0
M  V30 2481 N 239.452 1.56882 -0.150215 0
M  V30 2482 C 240.382 2.19935 0.784284 0
M  V30 2483 C 241.363 1.14854 1.25469 0
M  V30 2484 O 242.548 1.43209 1.31168 0
M  V30 2485 C 239.678 2.82349 2.02229 0
M  V30 2486 C 238.632 3.93285 1.68853 0
M  V30 2487 C 237.958 4.42649 2.99944 0
M  V30 2488 C 239.258 5.13904 0.932714 0
M  V30 2489 H 240.952 2.9828 0.258781 0
M  V30 2490 H 238.498 1.43473 0.123029 0
M  V30 2491 H 240.451 3.25126 2.68088 0
M  V30 2492 H 239.175 2.0134 2.57157 0
M  V30 2493 H 237.834 3.5113 1.05371 0
M  V30 2494 H 237.482 3.58458 3.52869 0
M  V30 2495 H 237.182 5.17476 2.78374 0
M  V30 2496 H 238.706 4.88099 3.66868 0
M  V30 2497 H 240.12 5.53506 1.49345 0
M  V30 2498 H 238.517 5.94515 0.81684 0
M  V30 2499 H 239.587 4.84842 -0.0749568 0
M  V30 2500 N 240.93 -0.123565 1.57115 0
M  V30 2501 C 242.158 -0.846461 1.88793 0
M  V30 2502 C 242.573 -1.73652 0.740976 0
M  V30 2503 O 241.93 -1.80207 -0.288393 0
M  V30 2504 C 241.981 -1.6837 3.19897 0
M  V30 2505 O 241.702 -0.829477 4.30176 0
M  V30 2506 C 243.203 -2.51214 3.65248 0
M  V30 2507 H 240.423 -0.243573 0.625231 0
M  V30 2508 H 242.967 -0.109324 2.04208 0
M  V30 2509 H 241.122 -2.37364 3.06165 0
M  V30 2510 H 241.536 -1.40651 5.0529 0
M  V30 2511 H 243.01 -3.05497 4.59756 0
M  V30 2512 H 243.487 -3.28359 2.9168 0
M  V30 2513 H 244.093 -1.8747 3.81752 0
M  V30 2514 N 242.408 -1.52605 -0.393616 0
M  V30 2515 C 243.636 -1.71294 -1.16043 0
M  V30 2516 C 244.051 -0.429259 -1.83855 0
M  V30 2517 O 243.408 0.595921 -1.72496 0
M  V30 2518 C 243.459 -2.8593 -2.21193 0
M  V30 2519 O 243.18 -4.09329 -1.56146 0
M  V30 2520 C 244.681 -3.16259 -3.10636 0
M  V30 2521 H 241.901 -0.573641 -0.348104 0
M  V30 2522 H 244.445 -1.99234 -0.461092 0
M  V30 2523 H 242.6 -2.60465 -2.86769 0
M  V30 2524 H 243.014 -4.73323 -2.25978 0
M  V30 2525 H 244.488 -3.99946 -3.80456 0
M  V30 2526 H 244.965 -2.3045 -3.73884 0
M  V30 2527 H 245.571 -3.43547 -2.50711 0
M  V30 2528 N 243.887 0.651787 -1.4349 0
M  V30 2529 C 245.135 1.40888 -1.44897 0
M  V30 2530 C 245.456 1.94856 -0.0749086 0
M  V30 2531 O 244.726 1.74518 0.889956 0
M  V30 2532 H 243.306 0.522887 -0.533478 0
M  V30 2533 H 245.968 0.768609 -1.79104 0
M  V30 2534 H 245.064 2.25052 -2.16236 0
M  V30 2535 N 245.365 1.30045 0.890287 0
M  V30 2536 C 246.313 1.15873 2.01683 0
M  V30 2537 C 247.307 0.0719403 1.69247 0
M  V30 2538 O 248.513 0.232414 1.78493 0
M  V30 2539 H 244.888 0.358203 0.661207 0
M  V30 2540 H 246.859 2.11229 2.10772 0
M  V30 2541 C 245.608 0.861842 3.36849 0
M  V30 2542 H 244.931 1.69016 3.62317 0
M  V30 2543 H 246.371 0.802762 4.16331 0
M  V30 2544 C 244.83 -0.435132 3.34078 0
M  V30 2545 O 245.36 -1.4583 3.74295 0
M  V30 2546 N 243.566 -0.444377 2.87182 0
M  V30 2547 H 243.113 0.388723 2.5465 0
M  V30 2548 H 243.071 -1.31213 2.85711 0
M  V30 2549 N 246.843 -1.10192 1.12674 0
M  V30 2550 C 248.073 -1.85713 0.905213 0
M  V30 2551 C 248.481 -1.81056 -0.549108 0
M  V30 2552 O 247.824 -1.19927 -1.39151 0
M  V30 2553 C 247.886 -3.34972 1.30516 0
M  V30 2554 C 247.55 -3.63385 2.77129 0
M  V30 2555 C 248.547 -3.59772 3.75313 0
M  V30 2556 C 246.232 -3.91981 3.14096 0
M  V30 2557 C 248.226 -3.84354 5.08479 0
M  V30 2558 C 245.913 -4.16218 4.47443 0
M  V30 2559 C 246.911 -4.12395 5.44444 0
M  V30 2560 O 246.599 -4.36014 6.75387 0
M  V30 2561 H 246.331 -0.593719 0.323223 0
M  V30 2562 H 248.885 -1.40198 1.50112 0
M  V30 2563 H 247.115 -3.81156 0.652463 0
M  V30 2564 H 248.804 -3.91886 1.05736 0
M  V30 2565 H 249.57 -3.37716 3.48099 0
M  V30 2566 H 245.449 -3.94085 2.39202 0
M  V30 2567 H 248.993 -3.81285 5.84181 0
M  V30 2568 H 244.89 -4.37754 4.74386 0
M  V30 2569 H 245.658 -4.53516 6.8137 0
M  V30 2570 N 248.321 -0.919034 -1.28029 0
M  V30 2571 C 249.737 -0.617972 -1.4715 0
M  V30 2572 C 249.937 0.835242 -1.83374 0
M  V30 2573 O 248.993 1.61388 -1.94191 0
M  V30 2574 C 250.306 -1.56041 -2.57044 0
M  V30 2575 C 251.854 -1.56769 -2.7091 0
M  V30 2576 C 252.329 -2.49688 -3.83953 0
M  V30 2577 N 253.82 -2.47845 -3.91314 0
M  V30 2578 C 254.555 -3.16437 -4.78179 0
M  V30 2579 N 254.051 -3.94376 -5.69596 0
M  V30 2580 N 255.844 -3.05498 -4.71834 0
M  V30 2581 H 247.995 -1.85866 -1.02798 0
M  V30 2582 H 250.258 -0.797506 -0.512531 0
M  V30 2583 H 249.964 -2.59671 -2.372 0
M  V30 2584 H 249.838 -1.29551 -3.54255 0
M  V30 2585 H 252.225 -0.538745 -2.90141 0
M  V30 2586 H 252.306 -1.87305 -1.74214 0
M  V30 2587 H 251.95 -3.52688 -3.65477 0
M  V30 2588 H 251.88 -2.16453 -4.80058 0
M  V30 2589 H 254.371 -1.91234 -3.25941 0
M  V30 2590 H 254.684 -4.43721 -6.32718 0
M  V30 2591 H 253.029 -3.98481 -5.69419 0
M  V30 2592 H 256.22 -2.44108 -3.99411 0
M  V30 2593 H 256.393 -3.59225 -5.39316 0
M  V30 2594 N 249.799 1.42003 -0.683588 0
M  V30 2595 C 251.048 2.00638 -0.206681 0
M  V30 2596 C 251.361 1.5472 1.19671 0
M  V30 2597 O 252.567 2.05833 1.77045 0
M  V30 2598 C 251.023 3.58487 -0.318632 0
M  V30 2599 C 250.631 4.1339 -1.72663 0
M  V30 2600 C 252.375 4.24384 0.0991141 0
M  V30 2601 C 250.282 5.63633 -1.79087 0
M  V30 2602 H 249.212 0.750408 -0.0735107 0
M  V30 2603 H 251.863 1.62624 -0.850048 0
M  V30 2604 H 250.245 3.94047 0.392781 0
M  V30 2605 H 251.419 3.89273 -2.46583 0
M  V30 2606 H 249.734 3.59976 -2.09299 0
M  V30 2607 H 252.331 5.34652 0.0713833 0
M  V30 2608 H 252.674 4.00505 1.13586 0
M  V30 2609 H 253.207 3.93816 -0.561599 0
M  V30 2610 H 249.946 5.92323 -2.80774 0
M  V30 2611 H 249.466 5.89714 -1.09535 0
M  V30 2612 H 251.145 6.28201 -1.5483 0
M  V30 2613 N 251.277 0.427512 1.51691 0
M  V30 2614 C 252.187 -0.39527 2.31246 0
M  V30 2615 C 253.203 -1.03674 1.39742 0
M  V30 2616 O 254.379 -1.03425 1.72816 0
M  V30 2617 C 251.444 -1.48706 3.13189 0
M  V30 2618 C 250.505 -0.866743 4.20459 0
M  V30 2619 C 249.738 -1.90651 4.98486 0
M  V30 2620 O 249.961 -3.12733 4.77026 0
M  V30 2621 O 248.895 -1.5025 5.82845 0
M  V30 2622 H 252.721 0.253918 3.02637 0
M  V30 2623 H 250.306 0.190274 1.48183 0
M  V30 2624 H 252.188 -2.12047 3.64162 0
M  V30 2625 H 250.863 -2.12051 2.44573 0
M  V30 2626 H 249.77 -0.195544 3.73589 0
M  V30 2627 H 251.103 -0.276934 4.9142 0
M  V30 2628 N 252.755 -1.56801 0.158532 0
M  V30 2629 C 253.98 -2.01295 -0.499516 0
M  V30 2630 C 254.405 -1.03799 -1.56867 0
M  V30 2631 O 253.763 -0.0155162 -1.81293 0
M  V30 2632 C 253.811 -3.44469 -1.06647 0
M  V30 2633 O 252.915 -3.50012 -2.18095 0
M  V30 2634 H 252.256 -0.652884 -0.12099 0
M  V30 2635 H 254.786 -2.02958 0.258661 0
M  V30 2636 H 254.796 -3.8351 -1.39227 0
M  V30 2637 H 253.471 -4.14932 -0.283581 0
M  V30 2638 H 252.048 -3.22822 -1.86656 0
M  V30 2639 N 254.233 0.115231 -1.57178 0
M  V30 2640 C 255.479 0.82357 -1.85325 0
M  V30 2641 C 255.812 1.79349 -0.744814 0
M  V30 2642 O 255.087 1.92899 0.249024 0
M  V30 2643 C 255.37 1.57014 -3.24066 0
M  V30 2644 C 255.223 0.619565 -4.45513 0
M  V30 2645 C 256.542 2.52545 -3.60429 0
M  V30 2646 H 253.661 0.297948 -0.674089 0
M  V30 2647 H 256.303 0.0877138 -1.89797 0
M  V30 2648 H 254.453 2.19742 -3.20383 0
M  V30 2649 H 256.125 0.000837639 -4.613 0
M  V30 2650 H 254.368 -0.0686174 -4.33746 0
M  V30 2651 H 255.039 1.17866 -5.3927 0
M  V30 2652 H 257.515 1.9992 -3.64926 0
M  V30 2653 H 256.391 3.01811 -4.58477 0
M  V30 2654 H 256.652 3.35383 -2.88047 0
M  V30 2655 N 255.711 1.52812 0.385517 0
M  V30 2656 C 256.641 1.80808 1.47752 0
M  V30 2657 C 257.622 0.660318 1.5676 0
M  V30 2658 O 258.807 0.908246 1.71652 0
M  V30 2659 C 255.937 1.98008 2.85324 0
M  V30 2660 C 254.891 3.13709 2.91154 0
M  V30 2661 C 254.217 3.16169 4.31209 0
M  V30 2662 C 255.517 4.52709 2.60483 0
M  V30 2663 H 257.211 2.72253 1.24573 0
M  V30 2664 H 254.757 1.31003 0.597839 0
M  V30 2665 H 256.71 2.16176 3.61726 0
M  V30 2666 H 255.434 1.03255 3.09848 0
M  V30 2667 H 254.093 2.95329 2.17201 0
M  V30 2668 H 253.741 2.19092 4.52778 0
M  V30 2669 H 253.441 3.93894 4.36029 0
M  V30 2670 H 254.965 3.36496 5.09512 0
M  V30 2671 H 256.379 4.71173 3.26602 0
M  V30 2672 H 254.776 5.32528 2.76648 0
M  V30 2673 H 255.846 4.59186 1.55809 0
M  V30 2674 N 257.189 -0.644168 1.43834 0
M  V30 2675 C 258.414 -1.43642 1.49605 0
M  V30 2676 C 258.839 -1.8773 0.117913 0
M  V30 2677 O 258.197 -1.57938 -0.890239 0
M  V30 2678 C 258.245 -2.6416 2.45463 0
M  V30 2679 O 257.349 -3.63538 1.94714 0
M  V30 2680 H 256.69 -0.430329 0.50568 0
M  V30 2681 H 259.22 -0.787448 1.8884 0
M  V30 2682 H 259.23 -3.11864 2.63068 0
M  V30 2683 H 257.905 -2.31414 3.45572 0
M  V30 2684 H 256.482 -3.2273 1.86814 0
M  V30 2685 N 258.668 -1.30515 -0.883378 0
M  V30 2686 C 259.893 -1.22487 -1.67367 0
M  V30 2687 C 260.318 0.208767 -1.86938 0
M  V30 2688 O 259.676 1.15015 -1.40148 0
M  V30 2689 C 259.724 -1.96041 -3.02655 0
M  V30 2690 O 258.828 -1.28859 -3.91751 0
M  V30 2691 H 258.169 -0.423573 -0.511353 0
M  V30 2692 H 260.699 -1.72362 -1.10239 0
M  V30 2693 H 260.709 -2.05124 -3.52687 0
M  V30 2694 H 259.384 -3.00307 -2.8773 0
M  V30 2695 H 257.961 -1.28141 -3.50192 0
M  V30 2696 N 260.146 1.09593 -1.13257 0
M  V30 2697 C 261.371 1.8604 -0.916732 0
M  V30 2698 C 261.796 1.80504 0.529146 0
M  V30 2699 O 261.154 1.18127 1.37534 0
M  V30 2700 C 261.202 3.32017 -1.40703 0
M  V30 2701 O 260.306 4.08141 -0.591153 0
M  V30 2702 H 259.647 0.576943 -0.328683 0
M  V30 2703 H 262.177 1.38405 -1.50682 0
M  V30 2704 H 262.187 3.82865 -1.4099 0
M  V30 2705 H 260.862 3.35361 -2.45979 0
M  V30 2706 H 259.439 3.67084 -0.656005 0
M  V30 2707 N 261.624 0.925811 1.2754 0
M  V30 2708 C 262.872 0.564138 1.94067 0
M  V30 2709 C 263.193 -0.897188 1.73134 0
M  V30 2710 O 262.463 -1.63573 1.07799 0
M  V30 2711 H 261.043 0.205645 0.718136 0
M  V30 2712 H 263.705 1.1778 1.55287 0
M  V30 2713 H 262.801 0.76881 3.02483 0
M  V30 2714 N 263.102 -1.41638 0.69111 0
M  V30 2715 C 264.049 -2.30789 0.0229705 0
M  V30 2716 C 265.019 -1.46863 -0.775911 0
M  V30 2717 O 266.204 -1.75661 -0.74485 0
M  V30 2718 C 263.344 -3.32868 -0.910666 0
M  V30 2719 C 262.457 -4.31875 -0.103874 0
M  V30 2720 C 261.592 -5.21024 -1.03475 0
M  V30 2721 C 260.631 -6.11702 -0.220598 0
M  V30 2722 N 259.768 -6.93349 -1.10504 0
M  V30 2723 H 264.608 -2.87366 0.788978 0
M  V30 2724 H 262.145 -1.41535 0.400794 0
M  V30 2725 H 264.103 -3.90596 -1.46597 0
M  V30 2726 H 262.733 -2.77851 -1.64312 0
M  V30 2727 H 261.785 -3.76131 0.568285 0
M  V30 2728 H 263.097 -4.96003 0.527504 0
M  V30 2729 H 262.251 -5.83565 -1.65943 0
M  V30 2730 H 260.99 -4.57112 -1.69999 0
M  V30 2731 H 259.995 -5.48215 0.417187 0
M  V30 2732 H 261.22 -6.77668 0.440784 0
M  V30 2733 H 259.166 -6.3205 -1.75638 0
M  V30 2734 H 259.083 -7.54146 -0.529125 0
M  V30 2735 H 260.351 -7.60362 -1.71667 0
M  V30 2736 N 264.58 -0.43555 -1.51462 0
M  V30 2737 C 265.996 -0.0877501 -1.59359 0
M  V30 2738 C 266.196 1.4027 -1.4466 0
M  V30 2739 O 265.252 2.17243 -1.28693 0
M  V30 2740 C 266.565 -0.606264 -2.94525 0
M  V30 2741 C 268.113 -0.566548 -3.0783 0
M  V30 2742 C 268.588 -1.06201 -4.45517 0
M  V30 2743 N 270.079 -1.01992 -4.51832 0
M  V30 2744 C 270.814 -1.37417 -5.5669 0
M  V30 2745 N 270.31 -1.80119 -6.68976 0
M  V30 2746 N 272.103 -1.29245 -5.47039 0
M  V30 2747 H 264.254 -1.40533 -1.59261 0
M  V30 2748 H 266.517 -0.578992 -0.750648 0
M  V30 2749 H 266.223 -1.64901 -3.10645 0
M  V30 2750 H 266.097 -0.0302097 -3.77188 0
M  V30 2751 H 268.484 0.467208 -2.91378 0
M  V30 2752 H 268.565 -1.17898 -2.2701 0
M  V30 2753 H 268.209 -2.09422 -4.62715 0
M  V30 2754 H 268.139 -0.426127 -5.24873 0
M  V30 2755 H 270.63 -0.706308 -3.71241 0
M  V30 2756 H 270.943 -2.05392 -7.45006 0
M  V30 2757 H 269.288 -1.84044 -6.70189 0
M  V30 2758 H 272.479 -0.957522 -4.58202 0
M  V30 2759 H 272.652 -1.57182 -6.28648 0
M  V30 2760 N 266.058 1.56714 -0.166846 0
M  V30 2761 C 266.988 2.20754 0.760913 0
M  V30 2762 C 267.969 1.16178 1.24244 0
M  V30 2763 O 269.154 1.44592 1.29641 0
M  V30 2764 C 266.284 2.84478 1.99223 0
M  V30 2765 C 265.238 3.95053 1.64672 0
M  V30 2766 C 264.564 4.45805 2.95232 0
M  V30 2767 C 265.864 5.14865 0.878155 0
M  V30 2768 H 267.558 2.98537 0.22713 0
M  V30 2769 H 265.104 1.43596 0.107805 0
M  V30 2770 H 267.057 3.27951 2.64624 0
M  V30 2771 H 265.781 2.04056 2.55007 0
M  V30 2772 H 264.44 3.52228 1.01641 0
M  V30 2773 H 264.088 3.62181 3.49047 0
M  V30 2774 H 263.788 5.204 2.7287 0
M  V30 2775 H 265.312 4.91962 3.6167 0
M  V30 2776 H 266.726 5.55059 1.43466 0
M  V30 2777 H 265.123 5.95348 0.753738 0
M  V30 2778 H 266.193 4.84735 -0.126377 0
M  V30 2779 N 267.536 -0.106894 1.57237 0
M  V30 2780 C 268.784 -0.810921 1.85117 0
M  V30 2781 C 269.105 -1.7984 0.753827 0
M  V30 2782 O 268.375 -1.94649 -0.221056 0
M  V30 2783 H 266.955 -0.302466 0.683025 0
M  V30 2784 H 269.617 -0.0913324 1.94686 0
M  V30 2785 H 268.713 -1.34875 2.81452 0
M  V30 2786 N 269.014 -1.53014 -0.377408 0
M  V30 2787 C 270.254 -1.70318 -1.1301 0
M  V30 2788 C 270.618 -0.439538 -1.86901 0
M  V30 2789 O 271.819 -0.489095 -2.64313 0
M  V30 2790 C 270.09 -2.91125 -2.07319 0
M  V30 2791 S 271.649 -3.29075 -2.90268 0
M  V30 2792 H 268.467 -0.599426 -0.382374 0
M  V30 2793 H 271.069 -1.91089 -0.412933 0
M  V30 2794 H 269.773 -3.81303 -1.51777 0
M  V30 2795 H 269.304 -2.7272 -2.83526 0
M  V30 2796 H 271.319 -2.80165 -4.09539 0
M  V30 2797 N 270.492 0.636531 -1.44174 0
M  V30 2798 C 271.741 1.39213 -1.45954 0
M  V30 2799 C 272.054 1.95374 -0.0939119 0
M  V30 2800 O 273.26 2.71498 0.0107767 0
M  V30 2801 C 271.716 2.52025 -2.56927 0
M  V30 2802 C 271.324 2.024 -3.99673 0
M  V30 2803 C 273.068 3.29269 -2.67922 0
M  V30 2804 C 270.975 3.12521 -5.0208 0
M  V30 2805 H 269.905 0.523132 -0.542999 0
M  V30 2806 H 272.556 0.685349 -1.70221 0
M  V30 2807 H 270.938 3.25253 -2.25891 0
M  V30 2808 H 272.112 1.36073 -4.40251 0
M  V30 2809 H 270.427 1.37987 -3.92872 0
M  V30 2810 H 273.024 4.11352 -3.41605 0
M  V30 2811 H 273.367 3.78397 -1.73555 0
M  V30 2812 H 273.9 2.63129 -2.98342 0
M  V30 2813 H 270.639 2.68343 -5.98057 0
M  V30 2814 H 270.159 3.77507 -4.66099 0
M  V30 2815 H 271.838 3.77385 -5.25538 0
M  V30 2816 N 271.97 1.30982 0.876444 0
M  V30 2817 C 272.917 1.18085 1.98304 0
M  V30 2818 C 273.887 0.0682263 1.6596 0
M  V30 2819 O 275.072 0.239937 1.89285 0
M  V30 2820 C 272.212 0.887475 3.33493 0
M  V30 2821 C 271.325 2.08281 3.78475 0
M  V30 2822 C 270.46 1.72678 5.0235 0
M  V30 2823 C 269.499 2.88657 5.39762 0
M  V30 2824 N 268.636 2.53292 6.54819 0
M  V30 2825 H 273.476 2.1275 2.08666 0
M  V30 2826 H 271.013 1.05839 1.02159 0
M  V30 2827 H 272.971 0.697961 4.1132 0
M  V30 2828 H 271.601 -0.022315 3.22792 0
M  V30 2829 H 270.653 2.3833 2.96484 0
M  V30 2830 H 271.965 2.95108 4.02135 0
M  V30 2831 H 271.119 1.50151 5.87826 0
M  V30 2832 H 269.858 0.830327 4.8058 0
M  V30 2833 H 268.863 3.1184 4.52809 0
M  V30 2834 H 270.088 3.79002 5.63502 0
M  V30 2835 H 268.034 1.66163 6.34607 0
M  V30 2836 H 267.951 3.3365 6.7839 0
M  V30 2837 H 269.219 2.34143 7.43503 0
M  V30 2838 N 273.449 -1.08991 1.13837 0
M  V30 2839 C 274.698 -1.80631 0.897509 0
M  V30 2840 C 275.011 -1.86872 -0.57777 0
M  V30 2841 O 276.217 -2.54866 -0.935701 0
M  V30 2842 C 274.673 -3.24517 1.55618 0
M  V30 2843 C 274.281 -3.26529 3.0673 0
M  V30 2844 C 276.025 -4.00882 1.3962 0
M  V30 2845 C 273.932 -4.64965 3.65461 0
M  V30 2846 H 272.862 -0.67691 0.332129 0
M  V30 2847 H 275.513 -1.2246 1.3666 0
M  V30 2848 H 273.895 -3.82778 1.01476 0
M  V30 2849 H 275.069 -2.78008 3.67489 0
M  V30 2850 H 273.384 -2.63656 3.22296 0
M  V30 2851 H 275.981 -5.03167 1.80906 0
M  V30 2852 H 276.324 -4.14896 0.341578 0
M  V30 2853 H 276.857 -3.49075 1.90766 0
M  V30 2854 H 273.596 -4.56153 4.70749 0
M  V30 2855 H 273.116 -5.13792 3.09481 0
M  V30 2856 H 274.795 -5.3394 3.654 0
M  V30 2857 N 274.927 -0.932562 -1.27047 0
M  V30 2858 C 275.89 -0.440064 -2.24936 0
M  V30 2859 C 276.89 0.444071 -1.54547 0
M  V30 2860 O 278.08 0.244465 -1.72476 0
M  V30 2861 C 275.212 0.36678 -3.38921 0
M  V30 2862 H 276.405 -1.305 -2.70018 0
M  V30 2863 H 273.958 -0.713707 -1.39054 0
M  V30 2864 H 274.693 1.25033 -2.99228 0
M  V30 2865 H 274.478 -0.267204 -3.91188 0
M  V30 2866 H 275.968 0.701567 -4.11665 0
M  V30 2867 N 276.405 1.4127 -0.698611 0
M  V30 2868 C 277.368 2.29158 -0.044132 0
M  V30 2869 C 278.368 1.44529 0.704841 0
M  V30 2870 O 279.558 1.65643 0.539276 0
M  V30 2871 C 276.69 3.27459 0.947809 0
M  V30 2872 H 277.883 2.88529 -0.817994 0
M  V30 2873 H 275.436 1.49307 -0.46228 0
M  V30 2874 H 276.171 2.73073 1.74933 0
M  V30 2875 H 275.956 3.8991 0.41385 0
M  V30 2876 H 277.446 3.93311 1.40344 0
M  V30 2877 N 277.883 0.443576 1.51229 0
M  V30 2878 C 279.108 -0.121648 2.07043 0
M  V30 2879 C 279.533 -1.35156 1.30823 0
M  V30 2880 O 278.891 -1.7793 0.347934 0
M  V30 2881 C 278.939 -0.41624 3.5819 0
M  V30 2882 O 278.043 -1.50163 3.8409 0
M  V30 2883 H 277.384 0.000871367 0.663999 0
M  V30 2884 H 279.914 0.626706 1.94765 0
M  V30 2885 H 279.924 -0.664867 4.02546 0
M  V30 2886 H 278.599 0.482653 4.1309 0
M  V30 2887 H 277.176 -1.24248 3.51592 0
M  V30 2888 N 279.361 -1.56624 0.175154 0
M  V30 2889 C 280.291 -2.21155 -0.749195 0
M  V30 2890 C 281.272 -1.16836 -1.23626 0
M  V30 2891 O 282.457 -1.45277 -1.28873 0
M  V30 2892 C 279.587 -2.8553 -1.97711 0
M  V30 2893 C 278.541 -3.95921 -1.62575 0
M  V30 2894 C 277.867 -4.47365 -2.92864 0
M  V30 2895 C 279.167 -5.15323 -0.850838 0
M  V30 2896 H 280.861 -2.98653 -0.211295 0
M  V30 2897 H 278.407 -1.43651 -0.100188 0
M  V30 2898 H 280.36 -3.2935 -2.62881 0
M  V30 2899 H 279.084 -2.05406 -2.53921 0
M  V30 2900 H 277.743 -3.52762 -0.997719 0
M  V30 2901 H 277.391 -3.64027 -3.47122 0
M  V30 2902 H 277.091 -5.21839 -2.70106 0
M  V30 2903 H 278.615 -4.93873 -3.59056 0
M  V30 2904 H 280.029 -5.55812 -1.40521 0
M  V30 2905 H 278.426 -5.95739 -0.722154 0
M  V30 2906 H 279.496 -4.84661 0.152082 0
M  V30 2907 N 280.839 0.0985539 -1.57292 0
M  V30 2908 C 281.786 1.11981 -2.01814 0
M  V30 2909 C 282.756 1.39999 -0.89384 0
M  V30 2910 O 283.941 1.5152 -1.15958 0
M  V30 2911 C 281.081 2.43577 -2.44467 0
M  V30 2912 C 280.194 2.2232 -3.70402 0
M  V30 2913 C 279.329 3.4729 -4.01949 0
M  V30 2914 C 278.368 3.2128 -5.21005 0
M  V30 2915 N 277.505 4.38507 -5.48321 0
M  V30 2916 H 282.345 0.733149 -2.88841 0
M  V30 2917 H 279.882 0.350482 -1.42864 0
M  V30 2918 H 281.84 3.20373 -2.6724 0
M  V30 2919 H 280.47 2.80097 -1.60455 0
M  V30 2920 H 279.522 1.36343 -3.55126 0
M  V30 2921 H 280.834 1.99089 -4.57345 0
M  V30 2922 H 279.988 4.32495 -4.25479 0
M  V30 2923 H 278.727 3.73572 -3.13521 0
M  V30 2924 H 277.732 2.34468 -4.97298 0
M  V30 2925 H 278.957 2.96348 -6.11028 0
M  V30 2926 H 276.903 4.64871 -4.62851 0
M  V30 2927 H 276.82 4.18455 -6.29628 0
M  V30 2928 H 278.088 5.24787 -5.76385 0
M  V30 2929 N 282.317 1.53212 0.369288 0
M  V30 2930 C 283.565 1.68881 1.11012 0
M  V30 2931 C 283.886 0.441285 1.89941 0
M  V30 2932 O 283.156 -0.544623 1.88177 0
M  V30 2933 H 281.736 0.622569 0.412816 0
M  V30 2934 H 284.398 1.90391 0.416802 0
M  V30 2935 H 283.494 2.54822 1.80201 0
M  V30 2936 N 283.795 -0.628877 1.44509 0
M  V30 2937 C 285.044 -1.38437 1.4669 0
M  V30 2938 C 285.357 -1.95322 0.104272 0
M  V30 2939 O 286.563 -2.715 0.00362163 0
M  V30 2940 C 285.019 -2.50659 2.5826 0
M  V30 2941 C 284.627 -2.00277 4.0074 0
M  V30 2942 C 286.371 -3.27844 2.69664 0
M  V30 2943 C 284.278 -3.09854 5.0373 0
M  V30 2944 H 283.208 -0.520245 0.545766 0
M  V30 2945 H 285.859 -0.676313 1.70582 0
M  V30 2946 H 284.241 -3.2405 2.27612 0
M  V30 2947 H 285.415 -1.33736 4.40966 0
M  V30 2948 H 283.73 -1.35901 3.93599 0
M  V30 2949 H 286.327 -4.09534 3.43781 0
M  V30 2950 H 286.67 -3.77471 1.75559 0
M  V30 2951 H 287.203 -2.61543 2.99733 0
M  V30 2952 H 283.942 -2.65168 5.99472 0
M  V30 2953 H 283.462 -3.7503 4.68095 0
M  V30 2954 H 285.141 -3.74592 5.27532 0
M  V30 2955 O 285.312 -1.41833 -0.772381 0
M  V30 2956 H 286.003 -1.31768 -1.41975 0
M  V30 END ATOM
M  V30 BEGIN BOND
M  V30 END BOND
M  V30 END CTAB
M  END
$$$$
