drugbank_target|P07864 L-lactate dehydrogenase C chain (DB00157)
 OpenBabel12092119253D

  0  0  0     0  0            999 V3000
M  V30 BEGIN CTAB
M  V30 COUNTS 5196 5237 0 0 0
M  V30 BEGIN ATOM
M  V30 1 H -0.908 1.98254 -0.117106 0
M  V30 2 N 0 1.576 0 0
M  V30 3 C 0.933 2.03868 1.02534 0
M  V30 4 C 1.911 0.928543 1.3348 0
M  V30 5 O 3.095 1.19667 1.45644 0
M  V30 6 C 0.222 2.43627 2.35294 0
M  V30 7 C -0.732 3.65373 2.2001 0
M  V30 8 S 0.101 5.13292 1.52614 0
M  V30 9 C 1.257 5.56322 2.86805 0
M  V30 10 H 1.49 2.90518 0.631377 0
M  V30 11 H -0.977 1.52953 0.210867 0
M  V30 12 H 0.981 2.67203 3.11629 0
M  V30 13 H -0.358 1.57376 2.7183 0
M  V30 14 H -1.165 3.90944 3.18086 0
M  V30 15 H -1.563 3.418 1.51819 0
M  V30 16 H 0.729 5.58782 3.83104 0
M  V30 17 H 1.672 6.56266 2.65933 0
M  V30 18 H 2.08 4.83886 2.90714 0
M  V30 19 N 1.4781 -0.272755 1.55222 0
M  V30 20 C 2.7031 -1.02683 1.80197 0
M  V30 21 C 3.1281 -1.79142 0.573551 0
M  V30 22 O 2.4861 -1.74917 -0.476849 0
M  V30 23 C 2.5341 -1.9609 3.02624 0
M  V30 24 O 1.6381 -3.04863 2.77727 0
M  V30 25 H 0.9791 -0.293557 0.595584 0
M  V30 26 H 3.5091 -0.30159 2.02365 0
M  V30 27 H 3.5191 -2.38039 3.31363 0
M  V30 28 H 2.1941 -1.39851 3.91682 0
M  V30 29 H 0.7711 -2.67228 2.60084 0
M  V30 30 N 2.9562 -1.48159 -0.537278 0
M  V30 31 C 4.1842 -1.59454 -1.31841 0
M  V30 32 C 4.5992 -0.252065 -1.8711 0
M  V30 33 O 3.9562 0.757621 -1.66031 0
M  V30 34 C 4.0072 -2.63546 -2.47439 0
M  V30 35 O 3.7282 -3.92583 -1.94449 0
M  V30 36 C 5.2292 -2.85212 -3.39366 0
M  V30 37 H 2.4492 -0.53785 -0.401196 0
M  V30 38 H 4.9932 -1.93932 -0.648891 0
M  V30 39 H 3.1482 -2.31946 -3.1029 0
M  V30 40 H 3.5622 -4.49629 -2.70063 0
M  V30 41 H 5.0362 -3.61863 -4.16844 0
M  V30 42 H 5.5132 -1.93765 -3.94147 0
M  V30 43 H 6.1192 -3.18086 -2.82314 0
M  V30 44 N 4.4343 0.785586 -1.36625 0
M  V30 45 C 5.6803 1.54591 -1.31261 0
M  V30 46 C 6.0133 1.93906 0.106823 0
M  V30 47 O 5.2883 1.63007 1.06108 0
M  V30 48 C 5.5713 2.82038 -2.23889 0
M  V30 49 C 5.4243 2.49066 -3.74548 0
M  V30 50 C 6.7433 3.83887 -2.15217 0
M  V30 51 H 3.8623 0.560846 -0.478143 0
M  V30 52 H 6.5043 0.902278 -1.67209 0
M  V30 53 H 4.6543 3.36961 -1.93363 0
M  V30 54 H 6.3263 2.00164 -4.15611 0
M  V30 55 H 4.5693 1.81954 -3.93796 0
M  V30 56 H 5.2403 3.40109 -4.34776 0
M  V30 57 H 7.7163 3.38421 -2.42096 0
M  V30 58 H 6.5923 4.70806 -2.82193 0
M  V30 59 H 6.8533 4.27131 -1.14068 0
M  V30 60 N 5.9124 1.20967 1.01018 0
M  V30 61 C 6.8594 0.964281 2.09691 0
M  V30 62 C 7.8294 -0.107853 1.65749 0
M  V30 63 O 9.0144 0.0381987 1.90762 0
M  V30 64 C 6.1544 0.52943 3.41015 0
M  V30 65 C 5.2674 1.67043 3.98398 0
M  V30 66 C 4.4024 1.18525 5.17808 0
M  V30 67 C 3.4414 2.29892 5.67288 0
M  V30 68 N 2.5784 1.82546 6.77954 0
M  V30 69 H 7.4184 1.89463 2.30017 0
M  V30 70 H 4.9554 0.944289 1.1279 0
M  V30 71 H 6.9134 0.258588 4.16398 0
M  V30 72 H 5.5434 -0.363919 3.20742 0
M  V30 73 H 4.5954 2.05603 3.20049 0
M  V30 74 H 5.9074 2.50877 4.31117 0
M  V30 75 H 5.0614 0.870762 6.00419 0
M  V30 76 H 3.8004 0.316887 4.86669 0
M  V30 77 H 2.8054 2.6215 4.83278 0
M  V30 78 H 4.0304 3.17216 6.00459 0
M  V30 79 H 1.9764 0.980454 6.48632 0
M  V30 80 H 1.8934 2.59956 7.09901 0
M  V30 81 H 3.1614 1.54115 7.64113 0
M  V30 82 N 7.3905 -1.2043 1.01659 0
M  V30 83 C 8.3005 -2.2689 0.596484 0
M  V30 84 C 9.3165 -1.70107 -0.36599 0
M  V30 85 O 10.4925 -2.00117 -0.226942 0
M  V30 86 C 7.5575 -3.4665 -0.0586659 0
M  V30 87 C 6.6185 -4.18662 0.949751 0
M  V30 88 C 5.8515 -5.32705 0.32577 0
M  V30 89 O 6.0745 -5.63656 -0.874509 0
M  V30 90 O 5.0085 -5.92803 1.04249 0
M  V30 91 H 8.8345 -2.65041 1.4828 0
M  V30 92 H 6.4195 -1.27048 0.786082 0
M  V30 93 H 8.3015 -4.19256 -0.424564 0
M  V30 94 H 6.9765 -3.10375 -0.91918 0
M  V30 95 H 5.8835 -3.48229 1.36702 0
M  V30 96 H 7.2165 -4.58878 1.78023 0
M  V30 97 N 8.8686 -0.792821 -1.36206 0
M  V30 98 C 9.8006 -0.151469 -2.28699 0
M  V30 99 C 10.8136 0.641262 -1.49638 0
M  V30 100 O 12.0026 0.475885 -1.72039 0
M  V30 101 C 9.1026 0.808424 -3.29117 0
M  V30 102 C 8.2756 0.0650202 -4.37352 0
M  V30 103 C 7.3346 0.941358 -5.17711 0
M  V30 104 O 6.3606 0.397352 -5.67811 0
M  V30 105 N 7.5626 2.2652 -5.3448 0
M  V30 106 H 10.3276 -0.945982 -2.84379 0
M  V30 107 H 7.8886 -0.647032 -1.48409 0
M  V30 108 H 9.8806 1.3986 -3.79765 0
M  V30 109 H 8.4506 1.5038 -2.74052 0
M  V30 110 H 7.6706 -0.706255 -3.87822 0
M  V30 111 H 8.9586 -0.447847 -5.06825 0
M  V30 112 H 8.3566 2.73128 -4.95396 0
M  V30 113 H 6.9136 2.80493 -5.88359 0
M  V30 114 N 10.3467 1.47872 -0.545128 0
M  V30 115 C 11.2767 2.32661 0.197793 0
M  V30 116 C 12.2577 1.43041 0.920504 0
M  V30 117 O 13.4427 1.71912 0.90333 0
M  V30 118 C 10.5727 3.24569 1.23582 0
M  V30 119 C 9.5267 4.23333 0.630323 0
M  V30 120 C 8.8527 5.0448 1.77211 0
M  V30 121 C 10.1527 5.20704 -0.407974 0
M  V30 122 H 11.8467 2.95024 -0.510045 0
M  V30 123 H 9.3927 1.4187 -0.246731 0
M  V30 124 H 11.3457 3.8272 1.76362 0
M  V30 125 H 10.0697 2.60236 1.97344 0
M  V30 126 H 8.7287 3.6639 0.123922 0
M  V30 127 H 8.3767 4.36561 2.49847 0
M  V30 128 H 8.0767 5.71339 1.37281 0
M  V30 129 H 9.6007 5.65487 2.3034 0
M  V30 130 H 11.0147 5.7329 0.033305 0
M  V30 131 H 9.4117 5.95699 -0.725486 0
M  V30 132 H 10.4817 4.66917 -1.30828 0
M  V30 133 N 11.8248 0.280983 1.55075 0
M  V30 134 C 13.0738 -0.334784 1.98902 0
M  V30 135 C 13.3868 -1.56534 1.17288 0
M  V30 136 O 14.5928 -2.25443 1.51287 0
M  V30 137 C 13.0488 -0.646994 3.54037 0
M  V30 138 C 12.6568 0.564085 4.44435 0
M  V30 139 C 14.4008 -1.22506 4.06439 0
M  V30 140 C 12.3078 0.226137 5.90967 0
M  V30 141 H 11.2378 -0.128866 0.742906 0
M  V30 142 H 13.8888 0.386556 1.79382 0
M  V30 143 H 12.2708 -1.42739 3.6938 0
M  V30 144 H 13.4448 1.34082 4.40861 0
M  V30 145 H 11.7598 1.0594 4.02698 0
M  V30 146 H 14.3568 -1.49182 5.13468 0
M  V30 147 H 14.6998 -2.16085 3.55827 0
M  V30 148 H 15.2328 -0.50682 3.94558 0
M  V30 149 H 11.9718 1.12996 6.45687 0
M  V30 150 H 11.4918 -0.513717 5.97596 0
M  V30 151 H 13.1708 -0.179539 6.46751 0
M  V30 152 N 13.3029 -1.57598 0.00835791 0
M  V30 153 C 14.2129 -2.12385 -0.996487 0
M  V30 154 C 15.2289 -1.07108 -1.37127 0
M  V30 155 O 16.4049 -1.39055 -1.4569 0
M  V30 156 C 13.4699 -2.62314 -2.26699 0
M  V30 157 C 12.5309 -3.82225 -1.95456 0
M  V30 158 C 11.7639 -4.29763 -3.16449 0
M  V30 159 O 11.9869 -3.76584 -4.28416 0
M  V30 160 O 10.9209 -5.21832 -2.99958 0
M  V30 161 H 14.7469 -2.98479 -0.560725 0
M  V30 162 H 12.3319 -1.47903 -0.210987 0
M  V30 163 H 14.2139 -2.94589 -3.01322 0
M  V30 164 H 12.8889 -1.79313 -2.69497 0
M  V30 165 H 11.7959 -3.54909 -1.18282 0
M  V30 166 H 13.1289 -4.66324 -1.57489 0
M  V30 167 N 14.781 0.264519 -1.55364 0
M  V30 168 C 15.728 1.32717 -1.88825 0
M  V30 169 C 16.698 1.48675 -0.740605 0
M  V30 170 O 17.883 1.62945 -0.992657 0
M  V30 171 C 15.023 2.68089 -2.17307 0
M  V30 172 C 14.136 2.60284 -3.44785 0
M  V30 173 C 13.271 3.87892 -3.62924 0
M  V30 174 C 12.31 3.74631 -4.84064 0
M  V30 175 N 11.447 4.94092 -4.98816 0
M  V30 176 H 16.287 1.03481 -2.79456 0
M  V30 177 H 13.824 0.499757 -1.3835 0
M  V30 178 H 15.782 3.46864 -2.31821 0
M  V30 179 H 14.412 2.95509 -1.299 0
M  V30 180 H 13.464 1.73173 -3.38697 0
M  V30 181 H 14.776 2.46388 -4.33698 0
M  V30 182 H 13.93 4.75109 -3.77302 0
M  V30 183 H 12.669 4.04664 -2.7221 0
M  V30 184 H 11.674 2.85797 -4.69681 0
M  V30 185 H 12.899 3.5937 -5.76221 0
M  V30 186 H 10.845 5.11259 -4.11036 0
M  V30 187 H 10.762 4.8276 -5.81789 0
M  V30 188 H 12.03 5.82857 -5.17588 0
M  V30 189 N 16.2591 1.48442 0.529413 0
M  V30 190 C 17.1891 1.65902 1.64313 0
M  V30 191 C 18.1701 0.507897 1.6234 0
M  V30 192 O 19.3551 0.740503 1.79528 0
M  V30 193 C 16.4851 1.69911 3.02898 0
M  V30 194 C 15.4391 2.8453 3.19729 0
M  V30 195 C 14.7651 2.73629 4.59381 0
M  V30 196 C 16.0651 4.25821 3.02447 0
M  V30 197 H 17.7591 2.5914 1.49955 0
M  V30 198 H 15.3051 1.24709 0.719982 0
M  V30 199 H 17.2581 1.80715 3.80684 0
M  V30 200 H 15.9821 0.732524 3.18279 0
M  V30 201 H 14.6411 2.73283 2.44361 0
M  V30 202 H 14.2891 1.74938 4.71599 0
M  V30 203 H 13.9891 3.50541 4.71588 0
M  V30 204 H 15.5131 2.86401 5.39265 0
M  V30 205 H 16.9271 4.37898 3.70024 0
M  V30 206 H 15.3241 5.03735 3.26146 0
M  V30 207 H 16.3941 4.42244 1.98867 0
M  V30 208 N 17.7372 -0.778329 1.37039 0
M  V30 209 C 18.9862 -1.53189 1.3121 0
M  V30 210 C 19.2992 -1.95328 -0.103095 0
M  V30 211 O 20.5052 -2.70012 -0.283826 0
M  V30 212 C 18.9612 -2.76591 2.30272 0
M  V30 213 C 18.5692 -2.41577 3.77286 0
M  V30 214 C 20.3132 -3.5455 2.33441 0
M  V30 215 C 18.2202 -3.61441 4.68096 0
M  V30 216 H 17.1502 -0.5751 0.487622 0
M  V30 217 H 19.8012 -0.853101 1.62464 0
M  V30 218 H 18.1832 -3.46326 1.92027 0
M  V30 219 H 19.3572 -1.79668 4.2433 0
M  V30 220 H 17.6722 -1.76806 3.76999 0
M  V30 221 H 20.2692 -4.43628 2.98493 0
M  V30 222 H 20.6122 -3.93936 1.34611 0
M  V30 223 H 21.1452 -2.91805 2.7036 0
M  V30 224 H 17.8842 -3.27142 5.6803 0
M  V30 225 H 17.4042 -4.22478 4.25761 0
M  V30 226 H 19.0832 -4.28335 4.8491 0
M  V30 227 N 19.2153 -1.21501 -1.00376 0
M  V30 228 C 20.1253 -0.991447 -2.12621 0
M  V30 229 C 21.1413 0.0568446 -1.73907 0
M  V30 230 O 22.3173 -0.13348 -2.00957 0
M  V30 231 C 19.3823 -0.560312 -3.42142 0
M  V30 232 C 18.4433 -1.68096 -3.95022 0
M  V30 233 C 17.6763 -1.2703 -5.18362 0
M  V30 234 O 17.8993 -0.144438 -5.70217 0
M  V30 235 O 16.8333 -2.08269 -5.64719 0
M  V30 236 H 20.6593 -1.93158 -2.34358 0
M  V30 237 H 18.2443 -0.999999 -1.10997 0
M  V30 238 H 20.1263 -0.329724 -4.20108 0
M  V30 239 H 18.8013 0.351089 -3.2179 0
M  V30 240 H 17.7083 -1.96597 -3.18278 0
M  V30 241 H 19.0413 -2.56983 -4.19786 0
M  V30 242 N 20.6934 1.19889 -1.02296 0
M  V30 243 C 21.9704 1.85148 -0.630832 0
M  V30 244 C 22.3504 1.91385 0.890782 0
M  V30 245 O 21.6984 1.42642 1.78509 0
M  V30 246 C 21.9084 3.24442 -1.28602 0
M  V30 247 C 23.2564 4.00663 -1.4055 0
M  V30 248 O 24.2804 3.33818 -1.24273 0
M  V30 249 O 23.1394 5.20387 -1.66913 0
M  V30 250 H 20.2334 0.797613 -0.218499 0
M  V30 251 H 22.7794 1.27427 -1.12074 0
M  V30 252 H 21.5514 3.14704 -2.32545 0
M  V30 253 H 21.1744 3.89802 -0.7836 0
M  V30 254 N 22.1715 0.800033 1.35784 0
M  V30 255 C 23.4485 0.30088 1.93272 0
M  V30 256 C 23.8285 -1.20857 1.73081 0
M  V30 257 O 23.1765 -2.00502 1.09596 0
M  V30 258 C 23.3865 0.70511 3.41803 0
M  V30 259 C 24.7345 0.690871 4.18942 0
M  V30 260 O 25.7585 0.646244 3.50289 0
M  V30 261 O 24.6175 0.74332 5.41421 0
M  V30 262 H 21.7115 0.0771605 0.823393 0
M  V30 263 H 24.2575 0.88329 1.449 0
M  V30 264 H 23.0295 1.74571 3.50201 0
M  V30 265 H 22.6525 0.0971541 3.97481 0
M  V30 266 N 23.6496 -1.47581 0.552962 0
M  V30 267 C 24.5596 -2.33743 -0.200353 0
M  V30 268 C 25.5756 -1.47928 -0.916151 0
M  V30 269 O 26.7516 -1.80865 -0.885993 0
M  V30 270 C 23.8166 -3.24536 -1.21973 0
M  V30 271 C 22.8776 -4.26238 -0.511819 0
M  V30 272 C 22.1106 -5.12693 -1.48263 0
M  V30 273 O 22.3336 -5.01525 -2.71714 0
M  V30 274 O 21.2676 -5.93375 -1.00945 0
M  V30 275 H 25.0936 -2.9945 0.506304 0
M  V30 276 H 22.6786 -1.46071 0.313622 0
M  V30 277 H 24.5606 -3.80631 -1.80827 0
M  V30 278 H 23.2356 -2.61462 -1.90839 0
M  V30 279 H 22.1426 -3.73914 0.117799 0
M  V30 280 H 23.4756 -4.92014 0.135308 0
M  V30 281 N 25.1277 -0.289203 -1.54924 0
M  V30 282 C 26.0757 0.607966 -2.24514 0
M  V30 283 C 27.0697 1.14655 -1.24702 0
M  V30 284 O 28.2757 1.09856 -1.4259 0
M  V30 285 H 24.6507 0.21464 -0.720718 0
M  V30 286 H 26.6217 -0.00164182 -2.984 0
M  V30 287 C 25.3707 1.77406 -2.99036 0
M  V30 288 H 24.6937 1.36884 -3.75637 0
M  V30 289 H 26.1337 2.37814 -3.51028 0
M  V30 290 C 24.5927 2.67107 -2.05318 0
M  V30 291 O 25.1227 3.6787 -1.61353 0
M  V30 292 N 23.3287 2.34582 -1.71521 0
M  V30 293 H 22.8757 1.52688 -2.07471 0
M  V30 294 H 22.8337 2.94867 -1.0909 0
M  V30 295 N 26.6058 1.57591 -0.0167156 0
M  V30 296 C 27.8308 1.9598 0.67872 0
M  V30 297 C 28.2558 0.892546 1.65575 0
M  V30 298 O 27.6138 -0.147772 1.80697 0
M  V30 299 C 27.6618 3.33468 1.37227 0
M  V30 300 O 26.7658 3.28954 2.48722 0
M  V30 301 H 26.1068 0.639339 0.17928 0
M  V30 302 H 28.6368 2.04463 -0.0748802 0
M  V30 303 H 28.6468 3.69417 1.7319 0
M  V30 304 H 27.3218 4.10694 0.656007 0
M  V30 305 H 25.8988 3.04705 2.14963 0
M  V30 306 N 28.0839 -0.256276 1.55502 0
M  V30 307 C 29.0159 -1.33981 1.85962 0
M  V30 308 C 30.0289 -1.44743 0.745212 0
M  V30 309 O 31.2179 -1.4626 1.02324 0
M  V30 310 C 28.3179 -2.7194 2.02242 0
M  V30 311 C 27.4909 -2.83562 3.33033 0
M  V30 312 C 26.5499 -4.02304 3.39172 0
M  V30 313 O 25.5759 -3.92273 4.12444 0
M  V30 314 N 26.7779 -5.15045 2.67784 0
M  V30 315 H 29.5429 -1.08191 2.7949 0
M  V30 316 H 27.1039 -0.446388 1.55624 0
M  V30 317 H 29.0959 -3.49697 2.03701 0
M  V30 318 H 27.6659 -2.90479 1.15502 0
M  V30 319 H 26.8859 -1.92555 3.43971 0
M  V30 320 H 28.1739 -2.88271 4.19258 0
M  V30 321 H 27.5719 -5.26085 2.07968 0
M  V30 322 H 26.1289 -5.90972 2.74947 0
M  V30 323 N 29.562 -1.4872 -0.521534 0
M  V30 324 C 30.802 -1.58771 -1.28729 0
M  V30 325 C 31.166 -0.259394 -1.9024 0
M  V30 326 O 32.367 -0.234942 -2.67771 0
M  V30 327 C 30.638 -2.70039 -2.34124 0
M  V30 328 S 32.197 -2.9991 -3.20312 0
M  V30 329 H 29.015 -0.560251 -0.437767 0
M  V30 330 H 31.617 -1.86283 -0.593188 0
M  V30 331 H 30.321 -3.65101 -1.87429 0
M  V30 332 H 29.852 -2.44455 -3.08229 0
M  V30 333 H 31.867 -2.39855 -4.34378 0
M  V30 334 N 31.0401 0.771051 -1.3745 0
M  V30 335 C 31.9871 1.88435 -1.3327 0
M  V30 336 C 32.9571 1.64914 -0.198136 0
M  V30 337 O 34.1421 1.86821 -0.387606 0
M  V30 338 C 31.2821 3.25509 -1.14622 0
M  V30 339 C 30.3951 3.60979 -2.37314 0
M  V30 340 C 29.5301 4.87265 -2.11533 0
M  V30 341 C 28.5691 5.15469 -3.30088 0
M  V30 342 N 27.7061 6.32944 -3.03853 0
M  V30 343 H 32.5461 1.91344 -2.28455 0
M  V30 344 H 30.0831 0.935466 -1.13523 0
M  V30 345 H 32.0411 4.04582 -1.01831 0
M  V30 346 H 30.6711 3.21974 -0.230837 0
M  V30 347 H 29.7231 2.76885 -2.60842 0
M  V30 348 H 31.0351 3.77759 -3.25729 0
M  V30 349 H 30.1891 5.74244 -1.95777 0
M  V30 350 H 28.9281 4.7259 -1.20457 0
M  V30 351 H 27.9331 4.26966 -3.46382 0
M  V30 352 H 29.1581 5.32052 -4.22016 0
M  V30 353 H 27.1041 6.19625 -2.15407 0
M  V30 354 H 27.0211 6.50143 -3.85812 0
M  V30 355 H 28.2891 7.22857 -2.91716 0
M  V30 356 N 32.5182 1.22032 0.997298 0
M  V30 357 C 33.7672 1.03637 1.73038 0
M  V30 358 C 34.0802 -0.429475 1.90827 0
M  V30 359 O 35.2862 -0.732995 2.61418 0
M  V30 360 C 33.7422 1.80582 3.11317 0
M  V30 361 C 33.3502 3.31387 3.01474 0
M  V30 362 C 35.0942 1.70621 3.88701 0
M  V30 363 C 33.0012 4.00791 4.3488 0
M  V30 364 H 31.9312 0.384179 0.648785 0
M  V30 365 H 34.5822 1.4584 1.11368 0
M  V30 366 H 32.9642 1.31175 3.73643 0
M  V30 367 H 34.1382 3.88155 2.4834 0
M  V30 368 H 32.4532 3.41976 2.37575 0
M  V30 369 H 35.0502 2.19799 4.87434 0
M  V30 370 H 35.3932 0.665823 4.10941 0
M  V30 371 H 35.9262 2.17547 3.33044 0
M  V30 372 H 32.6652 5.05064 4.1784 0
M  V30 373 H 32.1852 3.48811 4.87945 0
M  V30 374 H 33.8642 4.06139 5.03647 0
M  V30 375 N 33.9963 -1.19345 1.0293 0
M  V30 376 C 35.2243 -1.92997 0.745644 0
M  V30 377 C 35.6393 -1.75519 -0.695589 0
M  V30 378 O 34.9963 -1.07737 -1.47306 0
M  V30 379 C 35.0473 -3.44741 1.08792 0
M  V30 380 O 34.7683 -3.61658 2.47256 0
M  V30 381 C 36.2693 -4.35515 0.827129 0
M  V30 382 H 33.4893 -0.613042 0.272801 0
M  V30 383 H 36.0333 -1.51473 1.3739 0
M  V30 384 H 34.1883 -3.84097 0.504832 0
M  V30 385 H 34.6023 -4.55514 2.60015 0
M  V30 386 H 36.0763 -5.40589 1.11658 0
M  V30 387 H 36.5533 -4.38552 -0.238436 0
M  V30 388 H 37.1593 -4.01841 1.39297 0
M  V30 389 N 35.4744 -0.807222 -1.35358 0
M  V30 390 C 36.7234 -0.384376 -1.98004 0
M  V30 391 C 37.0364 1.0543 -1.64754 0
M  V30 392 O 38.2424 1.58029 -2.20769 0
M  V30 393 C 36.6984 -0.636326 -3.5423 0
M  V30 394 C 36.3064 -2.08759 -3.96388 0
M  V30 395 C 38.0504 -0.278869 -4.23583 0
M  V30 396 C 35.9574 -2.28525 -5.45463 0
M  V30 397 H 34.8874 -0.139986 -0.740891 0
M  V30 398 H 37.5384 -0.991369 -1.54415 0
M  V30 399 H 35.9204 0.0406256 -3.95979 0
M  V30 400 H 37.0944 -2.8024 -3.6579 0
M  V30 401 H 35.4094 -2.40497 -3.39926 0
M  V30 402 H 38.0064 -0.404599 -5.33167 0
M  V30 403 H 38.3494 0.775012 -4.09022 0
M  V30 404 H 38.8824 -0.909764 -3.87257 0
M  V30 405 H 35.6214 -3.32361 -5.64992 0
M  V30 406 H 35.1414 -1.61569 -5.77629 0
M  V30 407 H 36.8204 -2.10109 -6.11934 0
M  V30 408 N 36.9525 1.47285 -0.560781 0
M  V30 409 C 38.1985 2.02764 -0.0381184 0
M  V30 410 C 38.5315 1.43384 1.30976 0
M  V30 411 O 37.8065 0.590733 1.85312 0
M  V30 412 C 38.0895 3.60064 0.0511427 0
M  V30 413 C 37.9425 4.2987 -1.32408 0
M  V30 414 C 39.2615 4.33439 0.762795 0
M  V30 415 H 36.3805 0.736841 -0.0153264 0
M  V30 416 H 39.0225 1.75675 -0.723759 0
M  V30 417 H 37.1725 3.83274 0.635065 0
M  V30 418 H 38.8445 4.17989 -1.95148 0
M  V30 419 H 37.0875 3.90085 -1.8978 0
M  V30 420 H 37.7585 5.38478 -1.21431 0
M  V30 421 H 40.2345 4.15243 0.266965 0
M  V30 422 H 39.1105 5.43124 0.794221 0
M  V30 423 H 39.3715 4.02915 1.81966 0
M  V30 424 N 38.4306 0.297415 1.54768 0
M  V30 425 C 39.6786 -0.312295 1.99673 0
M  V30 426 C 39.9996 -1.54686 1.18732 0
M  V30 427 O 39.2696 -1.93854 0.282382 0
M  V30 428 H 37.8496 -0.118381 0.73756 0
M  V30 429 H 40.5116 0.407915 1.90583 0
M  V30 430 H 39.6076 -0.586813 3.06534 0
M  V30 431 N 39.9087 -1.5758 0.0250728 0
M  V30 432 C 41.1367 -1.9593 -0.664747 0
M  V30 433 C 41.5517 -0.901352 -1.65895 0
M  V30 434 O 40.9087 0.117255 -1.82123 0
M  V30 435 C 40.9597 -3.34342 -1.37468 0
M  V30 436 O 40.6807 -4.36079 -0.420324 0
M  V30 437 C 42.1817 -3.873 -2.1567 0
M  V30 438 H 39.4017 -0.645405 -0.183557 0
M  V30 439 H 41.9457 -2.04329 0.0836372 0
M  V30 440 H 40.1007 -3.27175 -2.0745 0
M  V30 441 H 40.5147 -5.16297 -0.923991 0
M  V30 442 H 41.9887 -4.86504 -2.60803 0
M  V30 443 H 42.4657 -3.21331 -2.99405 0
M  V30 444 H 43.0717 -3.97723 -1.50654 0
M  V30 445 N 41.3868 0.248026 -1.55636 0
M  V30 446 C 42.6348 0.974295 -1.77065 0
M  V30 447 C 42.9558 1.85897 -0.588849 0
M  V30 448 O 42.2258 1.91868 0.395407 0
M  V30 449 H 40.8058 0.362733 -0.653019 0
M  V30 450 H 43.4678 0.266244 -1.93073 0
M  V30 451 H 42.5638 1.59667 -2.68166 0
M  V30 452 N 42.8649 1.48995 0.513639 0
M  V30 453 C 43.8279 1.64229 1.59879 0
M  V30 454 C 44.8279 0.514696 1.5234 0
M  V30 455 O 46.0179 0.78087 1.55718 0
M  V30 456 C 43.1499 1.62783 2.99524 0
M  V30 457 H 44.3429 2.61004 1.47705 0
M  V30 458 H 41.8959 1.37837 0.736936 0
M  V30 459 H 42.6309 0.675461 3.17188 0
M  V30 460 H 42.4159 2.4466 3.06404 0
M  V30 461 H 43.9059 1.76669 3.78388 0
M  V30 462 N 44.343 -0.763751 1.37857 0
M  V30 463 C 45.589 -1.52483 1.33704 0
M  V30 464 C 45.922 -1.94051 -0.0759612 0
M  V30 465 O 45.197 -1.64675 -1.03501 0
M  V30 466 C 45.48 -2.78441 2.28348 0
M  V30 467 C 45.333 -2.43075 3.78463 0
M  V30 468 C 46.652 -3.80415 2.21298 0
M  V30 469 H 43.771 -0.553169 0.487005 0
M  V30 470 H 46.413 -0.875562 1.68624 0
M  V30 471 H 44.563 -3.33842 1.987 0
M  V30 472 H 46.235 -1.93527 4.18742 0
M  V30 473 H 44.478 -1.75666 3.96641 0
M  V30 474 H 45.149 -3.33149 4.40132 0
M  V30 475 H 47.625 -3.34527 2.47449 0
M  V30 476 H 46.501 -4.66257 2.89647 0
M  V30 477 H 46.762 -4.25262 1.20849 0
M  V30 478 N 45.8211 -1.22559 -0.990812 0
M  V30 479 C 47.0691 -1.04933 -1.72724 0
M  V30 480 C 47.3901 0.416158 -1.90508 0
M  V30 481 O 46.6601 1.29918 -1.46622 0
M  V30 482 H 45.2401 -0.385296 -0.639965 0
M  V30 483 H 47.9021 -1.54105 -1.19322 0
M  V30 484 H 46.9981 -1.52886 -2.72089 0
M  V30 485 N 47.2992 1.18797 -1.03562 0
M  V30 486 C 48.2322 2.2105 -0.56676 0
M  V30 487 C 49.2102 1.57704 0.395993 0
M  V30 488 O 50.3942 1.85908 0.311498 0
M  V30 489 C 47.5212 3.38259 0.172704 0
M  V30 490 C 46.5672 4.19987 -0.74252 0
M  V30 491 S 47.4002 4.87199 -2.22254 0
M  V30 492 C 48.5562 6.07813 -1.49379 0
M  V30 493 H 48.7892 2.60478 -1.43312 0
M  V30 494 H 46.3222 1.29151 -0.846133 0
M  V30 495 H 48.2802 4.06191 0.593191 0
M  V30 496 H 46.9412 2.97252 1.01488 0
M  V30 497 H 46.1342 5.03709 -0.171265 0
M  V30 498 H 45.7362 3.57408 -1.10163 0
M  V30 499 H 48.0282 6.72948 -0.784056 0
M  V30 500 H 48.9712 6.69435 -2.30786 0
M  V30 501 H 49.3792 5.55781 -0.988331 0
M  V30 502 N 48.7773 0.814389 1.34928 0
M  V30 503 C 49.7403 0.235759 2.27984 0
M  V30 504 C 50.7403 -0.581412 1.49921 0
M  V30 505 O 51.9303 -0.398758 1.69575 0
M  V30 506 C 49.0623 -0.670433 3.34242 0
M  V30 507 H 50.2553 1.05659 2.80671 0
M  V30 508 H 47.8083 0.585614 1.44915 0
M  V30 509 H 48.5433 -1.51466 2.86755 0
M  V30 510 H 48.3283 -0.0860822 3.92005 0
M  V30 511 H 49.8183 -1.06935 4.03676 0
M  V30 512 N 50.2554 -1.46986 0.568584 0
M  V30 513 C 51.4954 -2.04336 0.0512999 0
M  V30 514 C 51.8594 -1.43214 -1.27881 0
M  V30 515 O 53.0604 -1.91679 -1.88448 0
M  V30 516 C 51.3314 -3.57389 -0.0282328 0
M  V30 517 S 52.8904 -4.36056 -0.489991 0
M  V30 518 H 49.7084 -0.71034 0.0306349 0
M  V30 519 H 52.3104 -1.80212 0.757891 0
M  V30 520 H 51.0144 -3.99395 0.944011 0
M  V30 521 H 50.5454 -3.86028 -0.75803 0
M  V30 522 H 52.5604 -4.6441 -1.74752 0
M  V30 523 N 51.7335 -0.305618 -1.54608 0
M  V30 524 C 52.6965 0.555591 -2.22364 0
M  V30 525 C 53.6965 1.05768 -1.21119 0
M  V30 526 O 54.8865 0.952972 -1.45822 0
M  V30 527 C 52.0185 1.76974 -2.91364 0
M  V30 528 H 53.2115 -0.0364572 -2.99878 0
M  V30 529 H 50.7645 -0.0565007 -1.56198 0
M  V30 530 H 51.4995 2.40151 -2.17941 0
M  V30 531 H 51.2845 1.41732 -3.65588 0
M  V30 532 H 52.7745 2.38148 -3.43038 0
M  V30 533 N 53.2116 1.57565 -0.0334293 0
M  V30 534 C 54.4606 1.91155 0.643639 0
M  V30 535 C 54.7736 0.91192 1.73042 0
M  V30 536 O 55.9796 1.13923 2.46442 0
M  V30 537 C 54.4356 3.39443 1.1961 0
M  V30 538 C 54.0436 4.47774 0.142381 0
M  V30 539 C 55.7876 3.82094 1.84944 0
M  V30 540 C 53.6946 5.87162 0.706727 0
M  V30 541 H 52.6246 0.713368 0.244176 0
M  V30 542 H 55.2756 1.8323 -0.0994323 0
M  V30 543 H 53.6576 3.42313 1.99092 0
M  V30 544 H 54.8316 4.56469 -0.630296 0
M  V30 545 H 53.1466 4.14352 -0.412446 0
M  V30 546 H 55.7436 4.83591 2.2813 0
M  V30 547 H 56.0866 3.17386 2.69392 0
M  V30 548 H 56.6196 3.81665 1.12145 0
M  V30 549 H 53.3586 6.55424 -0.0997178 0
M  V30 550 H 52.8786 5.82064 1.44779 0
M  V30 551 H 54.5576 6.35866 1.19514 0
M  V30 552 N 54.6897 -0.239769 1.55765 0
M  V30 553 C 55.9147 -0.988373 1.82335 0
M  V30 554 C 56.3397 -1.77886 0.611421 0
M  V30 555 O 55.6977 -1.75889 -0.439639 0
M  V30 556 C 55.7457 -1.89627 3.06715 0
M  V30 557 O 54.8497 -2.98904 2.84131 0
M  V30 558 H 54.1907 -0.280858 0.601677 0
M  V30 559 H 56.7207 -0.258597 2.02959 0
M  V30 560 H 56.7307 -2.30957 3.36338 0
M  V30 561 H 55.4057 -1.31511 3.9456 0
M  V30 562 H 53.9827 -2.61651 2.65694 0
M  V30 563 N 56.1678 -1.49265 -0.50573 0
M  V30 564 C 57.4168 -1.57761 -1.25675 0
M  V30 565 C 57.7298 -0.267371 -1.93764 0
M  V30 566 O 58.9358 -0.230827 -2.70517 0
M  V30 567 C 57.3918 -2.78332 -2.28165 0
M  V30 568 C 56.9998 -4.16096 -1.66037 0
M  V30 569 C 58.7438 -2.96155 -3.04125 0
M  V30 570 C 56.6508 -5.27895 -2.6661 0
M  V30 571 H 55.5808 -0.587391 -0.472745 0
M  V30 572 H 58.2318 -1.75644 -0.53118 0
M  V30 573 H 56.6138 -2.53934 -3.03865 0
M  V30 574 H 57.7878 -4.50612 -0.963622 0
M  V30 575 H 56.1028 -4.03591 -1.02484 0
M  V30 576 H 58.6998 -3.76849 -3.79327 0
M  V30 577 H 59.0428 -2.06534 -3.61455 0
M  V30 578 H 59.5758 -3.2057 -2.35541 0
M  V30 579 H 56.3148 -6.1956 -2.14068 0
M  V30 580 H 55.8348 -4.97839 -3.34539 0
M  V30 581 H 57.5138 -5.57031 -3.29129 0
M  V30 582 N 57.6459 0.756429 -1.3826 0
M  V30 583 C 58.5759 1.88374 -1.37976 0
M  V30 584 C 59.5569 1.68311 -0.246082 0
M  V30 585 O 60.7419 1.88944 -0.44874 0
M  V30 586 C 57.8719 3.25864 -1.20125 0
M  V30 587 C 56.8259 3.60523 -2.30666 0
M  V30 588 C 56.1519 4.9672 -1.97923 0
M  V30 589 C 57.4519 3.65692 -3.72916 0
M  V30 590 H 59.1459 1.88869 -2.32312 0
M  V30 591 H 56.6919 0.907272 -1.11824 0
M  V30 592 H 58.6449 4.0438 -1.18552 0
M  V30 593 H 57.3689 3.25841 -0.222498 0
M  V30 594 H 56.0279 2.84324 -2.3142 0
M  V30 595 H 55.6759 4.93253 -0.985393 0
M  V30 596 H 55.3759 5.20878 -2.71955 0
M  V30 597 H 56.8999 5.77618 -1.97964 0
M  V30 598 H 58.3139 4.34328 -3.74208 0
M  V30 599 H 56.7109 4.01358 -4.4613 0
M  V30 600 H 57.7809 2.65987 -4.05436 0
M  V30 601 N 59.124 1.23083 0.984299 0
M  V30 602 C 60.054 1.03292 2.09411 0
M  V30 603 C 61.035 -0.048923 1.7003 0
M  V30 604 O 62.22 0.114967 1.93859 0
M  V30 605 C 59.35 0.619155 3.41736 0
M  V30 606 C 58.304 1.64791 3.95004 0
M  V30 607 C 57.63 1.0897 5.23478 0
M  V30 608 C 58.93 3.03999 4.24714 0
M  V30 609 H 60.624 1.96119 2.26225 0
M  V30 610 H 58.17 0.944344 1.08711 0
M  V30 611 H 60.123 0.467777 4.18796 0
M  V30 612 H 58.847 -0.344786 3.24775 0
M  V30 613 H 57.506 1.78721 3.20085 0
M  V30 614 H 57.154 0.11686 5.02864 0
M  V30 615 H 56.854 1.77704 5.60085 0
M  V30 616 H 58.378 0.950093 6.03163 0
M  V30 617 H 59.792 2.93393 4.92538 0
M  V30 618 H 58.189 3.69936 4.72512 0
M  V30 619 H 59.259 3.53285 3.32142 0
M  V30 620 N 60.6021 -1.18246 1.0419 0
M  V30 621 C 61.5491 -2.2192 0.634037 0
M  V30 622 C 62.5191 -1.62179 -0.358765 0
M  V30 623 O 63.7041 -1.89122 -0.252466 0
M  V30 624 C 60.8441 -3.451 0.00445535 0
M  V30 625 C 59.9571 -4.19174 1.04487 0
M  V30 626 C 59.0921 -5.29813 0.383676 0
M  V30 627 C 58.1311 -5.9566 1.4091 0
M  V30 628 N 57.2681 -6.97834 0.772784 0
M  V30 629 H 62.1081 -2.56164 1.52263 0
M  V30 630 H 59.6451 -1.25843 0.761701 0
M  V30 631 H 61.6031 -4.15485 -0.377919 0
M  V30 632 H 60.2331 -3.11472 -0.847652 0
M  V30 633 H 59.2851 -3.47604 1.54518 0
M  V30 634 H 60.5971 -4.64267 1.82368 0
M  V30 635 H 59.7511 -6.06677 -0.0528366 0
M  V30 636 H 58.4901 -4.85825 -0.427208 0
M  V30 637 H 57.4951 -5.17535 1.85574 0
M  V30 638 H 58.7201 -6.4173 2.22171 0
M  V30 639 H 56.6661 -6.55998 -0.0177708 0
M  V30 640 H 56.5831 -7.41186 1.48928 0
M  V30 641 H 57.8511 -7.78665 0.36071 0
M  V30 642 N 62.0802 -0.821533 -1.34494 0
M  V30 643 C 63.3572 -0.33159 -1.92769 0
M  V30 644 C 63.7372 1.18088 -1.74981 0
M  V30 645 O 63.0852 1.98733 -1.12772 0
M  V30 646 C 63.2952 -0.759398 -3.40638 0
M  V30 647 C 64.6432 -0.757433 -4.1779 0
M  V30 648 O 65.6672 -0.70189 -3.49216 0
M  V30 649 O 64.5262 -0.829361 -5.4017 0
M  V30 650 H 61.6202 -0.0902502 -0.822061 0
M  V30 651 H 64.1662 -0.906231 -1.43477 0
M  V30 652 H 62.9382 -1.8012 -3.47379 0
M  V30 653 H 62.5612 -0.160378 -3.97276 0
M  V30 654 N 63.5583 1.46682 -0.576371 0
M  V30 655 C 64.4883 2.33028 0.148397 0
M  V30 656 C 65.4693 1.44961 0.889956 0
M  V30 657 O 66.6543 1.73789 0.866662 0
M  V30 658 C 63.7843 3.27117 1.1667 0
M  V30 659 C 62.7383 4.24575 0.540386 0
M  V30 660 C 62.0643 5.08126 1.6647 0
M  V30 661 C 63.3643 5.19722 -0.518331 0
M  V30 662 H 65.0583 2.93875 -0.572509 0
M  V30 663 H 62.6043 1.41315 -0.276768 0
M  V30 664 H 64.5573 3.86374 1.68204 0
M  V30 665 H 63.2813 2.64364 1.9178 0
M  V30 666 H 61.9403 3.66571 0.0461769 0
M  V30 667 H 61.5883 4.41762 2.40531 0
M  V30 668 H 61.2883 5.74122 1.25131 0
M  V30 669 H 62.8123 5.70246 2.18293 0
M  V30 670 H 64.2263 5.73232 -0.0883058 0
M  V30 671 H 62.6233 5.94026 -0.851679 0
M  V30 672 H 63.6933 4.64037 -1.40703 0
M  V30 673 N 65.0364 0.313813 1.54444 0
M  V30 674 C 65.9994 -0.54379 2.22656 0
M  V30 675 C 66.9994 -1.05124 1.21678 0
M  V30 676 O 68.1894 -0.945225 1.46325 0
M  V30 677 C 65.3214 -1.75427 2.92298 0
M  V30 678 H 66.5144 0.0523599 2.99854 0
M  V30 679 H 64.0674 0.0647834 1.56166 0
M  V30 680 H 64.8024 -2.38991 2.19211 0
M  V30 681 H 64.5874 -1.39791 3.66334 0
M  V30 682 H 66.0774 -2.36325 3.44297 0
M  V30 683 N 66.5145 -1.57545 0.0417849 0
M  V30 684 C 67.7915 -1.83642 -0.673433 0
M  V30 685 C 68.1715 -0.928298 -1.89594 0
M  V30 686 O 67.5195 0.0129955 -2.28496 0
M  V30 687 C 67.7295 -3.33155 -1.03964 0
M  V30 688 C 69.0775 -3.99941 -1.42592 0
M  V30 689 O 70.1015 -3.37725 -1.13226 0
M  V30 690 O 68.9605 -5.09619 -1.9736 0
M  V30 691 H 66.0545 -0.757638 -0.331533 0
M  V30 692 H 68.6005 -1.69554 0.070433 0
M  V30 693 H 67.3725 -3.9093 -0.170098 0
M  V30 694 H 66.9955 -3.52396 -1.84126 0
M  V30 695 N 67.9926 0.231505 -1.5589 0
M  V30 696 C 68.9026 1.308 -1.94752 0
M  V30 697 C 69.9186 1.51826 -0.849989 0
M  V30 698 O 71.0946 1.6515 -1.15271 0
M  V30 699 C 68.1596 2.63968 -2.24771 0
M  V30 700 C 67.2206 2.51331 -3.48039 0
M  V30 701 C 66.4536 3.78148 -3.76616 0
M  V30 702 O 66.6766 4.80722 -3.07022 0
M  V30 703 O 65.6106 3.75857 -4.70123 0
M  V30 704 H 69.4366 1.0083 -2.86474 0
M  V30 705 H 67.0216 0.433547 -1.42971 0
M  V30 706 H 68.9036 3.42633 -2.45318 0
M  V30 707 H 67.5786 2.9364 -1.36225 0
M  V30 708 H 66.4856 1.709 -3.32782 0
M  V30 709 H 67.8186 2.26601 -4.36936 0
M  V30 710 N 69.4707 1.49531 0.497807 0
M  V30 711 C 70.4007 1.6935 1.60757 0
M  V30 712 C 71.3817 0.542218 1.61227 0
M  V30 713 O 72.5667 0.778417 1.77917 0
M  V30 714 C 69.6967 1.76298 2.99226 0
M  V30 715 C 68.6507 2.91248 3.13622 0
M  V30 716 C 67.9767 2.83312 4.53474 0
M  V30 717 C 69.2767 4.3214 2.93346 0
M  V30 718 H 70.9707 2.62263 1.44425 0
M  V30 719 H 68.5167 1.26208 0.693367 0
M  V30 720 H 70.4697 1.88749 3.76765 0
M  V30 721 H 69.1937 0.799871 3.16654 0
M  V30 722 H 67.8527 2.78404 2.38509 0
M  V30 723 H 67.5007 1.84902 4.67782 0
M  V30 724 H 67.2007 3.60465 4.64046 0
M  V30 725 H 68.7247 2.97775 5.33069 0
M  V30 726 H 70.1387 4.45649 3.60652 0
M  V30 727 H 68.5357 5.1054 3.15387 0
M  V30 728 H 69.6057 4.46363 1.89441 0
M  V30 729 N 70.9488 -0.749086 1.3866 0
M  V30 730 C 71.9118 -1.84457 1.36045 0
M  V30 731 C 72.9118 -1.58682 0.260122 0
M  V30 732 O 74.1018 -1.66343 0.517261 0
M  V30 733 C 71.2338 -3.22008 1.11911 0
M  V30 734 H 72.4268 -1.88182 2.33512 0
M  V30 735 H 69.9798 -0.951266 1.24019 0
M  V30 736 H 70.7148 -3.2395 0.150686 0
M  V30 737 H 70.4998 -3.42111 1.91579 0
M  V30 738 H 71.9898 -4.0208 1.12788 0
M  V30 739 N 72.4269 -1.23603 -0.977757 0
M  V30 740 C 73.3569 -1.04401 -2.0886 0
M  V30 741 C 74.3379 0.0399052 -1.70053 0
M  V30 742 O 75.5229 -0.125246 -1.93796 0
M  V30 743 C 72.6529 -0.637269 -3.41403 0
M  V30 744 C 71.6069 -1.66883 -3.94124 0
M  V30 745 C 70.9329 -1.11745 -5.22893 0
M  V30 746 C 72.2329 -3.06247 -4.23096 0
M  V30 747 H 73.9269 -1.97316 -2.25182 0
M  V30 748 H 71.4729 -0.950096 -1.08209 0
M  V30 749 H 73.4259 -0.48998 -4.18542 0
M  V30 750 H 72.1499 0.327557 -3.24953 0
M  V30 751 H 70.8089 -1.80416 -3.19133 0
M  V30 752 H 70.4569 -0.143527 -5.02795 0
M  V30 753 H 70.1569 -1.80672 -5.59134 0
M  V30 754 H 71.6809 -0.982067 -6.02651 0
M  V30 755 H 73.0949 -2.96001 -4.90975 0
M  V30 756 H 71.4919 -3.72436 -4.70544 0
M  V30 757 H 72.5619 -3.55041 -3.30263 0
M  V30 758 N 73.905 1.17692 -1.04816 0
M  V30 759 C 75.151 1.88137 -0.75711 0
M  V30 760 C 75.484 1.80604 0.713841 0
M  V30 761 O 74.759 1.21146 1.52164 0
M  V30 762 C 75.042 3.38318 -1.2334 0
M  V30 763 C 74.895 3.54622 -2.76701 0
M  V30 764 C 76.214 4.32214 -0.829415 0
M  V30 765 H 73.333 0.683163 -0.27651 0
M  V30 766 H 75.975 1.38424 -1.30149 0
M  V30 767 H 74.125 3.80787 -0.770286 0
M  V30 768 H 75.797 3.21194 -3.31107 0
M  V30 769 H 74.04 2.97026 -3.16161 0
M  V30 770 H 74.711 4.60028 -3.05088 0
M  V30 771 H 77.187 3.97565 -1.22805 0
M  V30 772 H 76.063 5.35838 -1.19033 0
M  V30 773 H 76.324 4.41294 0.266891 0
M  V30 774 N 75.3831 0.828654 1.34056 0
M  V30 775 C 76.6601 0.341809 1.9259 0
M  V30 776 C 77.0401 -1.17158 1.75605 0
M  V30 777 O 76.3881 -1.98132 1.13824 0
M  V30 778 C 76.5981 0.777453 3.4023 0
M  V30 779 C 77.9461 0.779579 4.17382 0
M  V30 780 O 78.9701 0.7204 3.48839 0
M  V30 781 O 77.8291 0.857996 5.39723 0
M  V30 782 H 74.9231 0.0946085 0.821571 0
M  V30 783 H 77.4691 0.913827 1.42994 0
M  V30 784 H 76.2411 1.8196 3.46419 0
M  V30 785 H 75.8641 0.181444 3.97186 0
M  V30 786 N 76.8612 -1.46375 0.584142 0
M  V30 787 C 78.1072 -2.02678 0.0703716 0
M  V30 788 C 78.4402 -1.4545 -1.28678 0
M  V30 789 O 77.7152 -0.62014 -1.84349 0
M  V30 790 C 77.9982 -3.60099 0.00614674 0
M  V30 791 C 77.8512 -4.27709 1.3923 0
M  V30 792 C 79.1702 -4.34598 -0.693742 0
M  V30 793 H 76.2892 -0.736504 0.027047 0
M  V30 794 H 78.9312 -1.74501 0.751615 0
M  V30 795 H 77.0812 -3.84236 -0.574009 0
M  V30 796 H 78.7532 -4.14832 2.01773 0
M  V30 797 H 76.9962 -3.87016 1.95962 0
M  V30 798 H 77.6672 -5.36478 1.29982 0
M  V30 799 H 80.1432 -4.15615 -0.200869 0
M  V30 800 H 79.0192 -5.44318 -0.707714 0
M  V30 801 H 79.2802 -4.05759 -1.75533 0
M  V30 802 N 78.3393 -0.321999 -1.54275 0
M  V30 803 C 79.3023 0.531975 -2.22941 0
M  V30 804 C 80.3023 1.04478 -1.22234 0
M  V30 805 O 81.4923 0.937452 -1.46825 0
M  V30 806 C 78.6243 1.73874 -2.93224 0
M  V30 807 H 79.8173 -0.0682612 -2.99822 0
M  V30 808 H 77.3703 -0.0730644 -1.56129 0
M  V30 809 H 78.1053 2.37825 -2.20476 0
M  V30 810 H 77.8903 1.37847 -3.6707 0
M  V30 811 H 79.3803 2.34496 -3.45545 0
M  V30 812 N 79.8174 1.5752 -0.0501392 0
M  V30 813 C 80.7474 2.14502 0.922566 0
M  V30 814 C 81.7284 1.06642 1.3252 0
M  V30 815 O 82.9134 1.34577 1.4001 0
M  V30 816 C 80.0434 2.68916 2.19776 0
M  V30 817 C 78.9974 3.8175 1.93523 0
M  V30 818 C 78.3234 4.22677 3.27487 0
M  V30 819 C 79.6234 5.06932 1.25765 0
M  V30 820 H 81.3174 2.9603 0.447952 0
M  V30 821 H 78.8634 1.42401 0.214024 0
M  V30 822 H 80.8164 3.07419 2.88222 0
M  V30 823 H 79.5404 1.84578 2.69441 0
M  V30 824 H 78.1994 3.43718 1.27489 0
M  V30 825 H 77.8474 3.35291 3.74952 0
M  V30 826 H 77.5474 4.98725 3.1072 0
M  V30 827 H 79.0714 4.63779 3.97166 0
M  V30 828 H 80.4854 5.42888 1.84244 0
M  V30 829 H 78.8824 5.88116 1.19328 0
M  V30 830 H 79.9524 4.84337 0.233536 0
M  V30 831 N 81.2955 -0.223234 1.56011 0
M  V30 832 C 82.5725 -0.972108 1.69733 0
M  V30 833 C 82.9525 -2.02485 0.59691 0
M  V30 834 O 82.3005 -2.25037 -0.396324 0
M  V30 835 C 82.5105 -1.58407 3.10979 0
M  V30 836 C 83.8585 -2.07696 3.70334 0
M  V30 837 O 84.8825 -1.68304 3.1393 0
M  V30 838 O 83.7415 -2.80096 4.69264 0
M  V30 839 H 80.8355 -0.453993 0.691245 0
M  V30 840 H 83.3815 -0.215149 1.68331 0
M  V30 841 H 82.1535 -0.823831 3.82529 0
M  V30 842 H 81.7765 -2.40661 3.16493 0
M  V30 843 N 82.7736 -1.49793 -0.48987 0
M  V30 844 C 83.7206 -1.67281 -1.59014 0
M  V30 845 C 84.6906 -0.514177 -1.57941 0
M  V30 846 O 85.8756 -0.742533 -1.75759 0
M  V30 847 C 83.0156 -1.75569 -2.97102 0
M  V30 848 C 82.1286 -3.0281 -3.08107 0
M  V30 849 C 81.2636 -3.02008 -4.36995 0
M  V30 850 C 80.3026 -4.23782 -4.41673 0
M  V30 851 N 79.4396 -4.20826 -5.62005 0
M  V30 852 H 84.2796 -2.61224 -1.43409 0
M  V30 853 H 81.8166 -1.29508 -0.697565 0
M  V30 854 H 83.7746 -1.78354 -3.77155 0
M  V30 855 H 82.4046 -0.850827 -3.11385 0
M  V30 856 H 81.4566 -3.09584 -2.21047 0
M  V30 857 H 82.7686 -3.92801 -3.07423 0
M  V30 858 H 81.9226 -3.03418 -5.25378 0
M  V30 859 H 80.6616 -2.09815 -4.4026 0
M  V30 860 H 79.6666 -4.22604 -3.5169 0
M  V30 861 H 80.8916 -5.17181 -4.40115 0
M  V30 862 H 78.8376 -3.31476 -5.66091 0
M  V30 863 H 78.7546 -5.04564 -5.62984 0
M  V30 864 H 80.0226 -4.26355 -6.52565 0
M  V30 865 N 84.2517 0.741722 -1.39055 0
M  V30 866 C 85.1817 1.869 -1.39966 0
M  V30 867 C 86.1627 1.6804 -0.26392 0
M  V30 868 O 87.3477 1.88458 -0.468755 0
M  V30 869 C 84.4777 3.24572 -1.23574 0
M  V30 870 C 83.4317 3.58056 -2.34477 0
M  V30 871 C 82.7577 4.94593 -2.0318 0
M  V30 872 C 84.0577 3.61716 -3.76774 0
M  V30 873 H 85.7517 1.86395 -2.34302 0
M  V30 874 H 83.2977 0.895361 -1.1278 0
M  V30 875 H 85.2507 4.031 -1.22834 0
M  V30 876 H 83.9747 3.25587 -0.257045 0
M  V30 877 H 82.6337 2.81854 -2.34423 0
M  V30 878 H 82.2817 4.92181 -1.03765 0
M  V30 879 H 81.9817 5.17964 -2.77465 0
M  V30 880 H 83.5057 5.75486 -2.04079 0
M  V30 881 H 84.9197 4.30335 -3.78794 0
M  V30 882 H 83.3167 3.96603 -4.50362 0
M  V30 883 H 84.3867 2.61672 -4.08235 0
M  V30 884 N 85.7298 1.2412 0.971189 0
M  V30 885 C 86.6768 1.0305 2.06517 0
M  V30 886 C 87.6468 -0.0550666 1.66009 0
M  V30 887 O 88.8318 0.0988688 1.90544 0
M  V30 888 C 85.9718 0.637653 3.39158 0
M  V30 889 C 85.0848 1.79633 3.92882 0
M  V30 890 C 84.2198 1.34939 5.13775 0
M  V30 891 C 83.2588 2.47823 5.59687 0
M  V30 892 N 82.3958 2.04022 6.71803 0
M  V30 893 H 87.2358 1.96685 2.23873 0
M  V30 894 H 84.7728 0.979694 1.09729 0
M  V30 895 H 86.7308 0.390931 4.15364 0
M  V30 896 H 85.3608 -0.261693 3.21737 0
M  V30 897 H 84.4128 2.15681 3.13346 0
M  V30 898 H 85.7248 2.64466 4.22918 0
M  V30 899 H 84.8788 1.06134 5.97345 0
M  V30 900 H 83.6178 0.471557 4.85415 0
M  V30 901 H 82.6228 2.77392 4.74693 0
M  V30 902 H 83.8478 3.36158 5.90063 0
M  V30 903 H 81.7938 1.18632 6.45184 0
M  V30 904 H 81.7108 2.82409 7.01271 0
M  V30 905 H 82.9788 1.78347 7.58823 0
M  V30 906 N 87.2079 -1.17134 1.05439 0
M  V30 907 C 88.4559 -1.87085 0.764429 0
M  V30 908 C 88.7769 -1.81584 -0.710787 0
M  V30 909 O 88.0469 -1.24349 -1.51374 0
M  V30 910 H 86.6269 -0.692627 0.279779 0
M  V30 911 H 89.2889 -1.42087 1.33406 0
M  V30 912 H 88.3849 -2.92759 1.0816 0
M  V30 913 N 88.686 -0.835752 -1.33615 0
M  V30 914 C 89.596 -0.269088 -2.33052 0
M  V30 915 C 90.612 0.603251 -1.63208 0
M  V30 916 O 91.788 0.508112 -1.94885 0
M  V30 917 C 88.853 0.549091 -3.42324 0
M  V30 918 C 87.914 -0.347156 -4.27894 0
M  V30 919 C 87.147 0.43207 -5.31948 0
M  V30 920 O 87.37 1.66409 -5.45586 0
M  V30 921 O 86.304 -0.192298 -6.01593 0
M  V30 922 H 90.13 -1.09243 -2.83372 0
M  V30 923 H 87.715 -0.598198 -1.36901 0
M  V30 924 H 89.597 1.01414 -4.09015 0
M  V30 925 H 88.272 1.34955 -2.94226 0
M  V30 926 H 87.179 -0.859979 -3.64081 0
M  V30 927 H 88.512 -1.1123 -4.79467 0
M  V30 928 N 90.1641 1.46063 -0.591896 0
M  V30 929 C 91.0971 2.27452 0.184617 0
M  V30 930 C 92.0751 1.36188 0.888351 0
M  V30 931 O 93.2591 1.65606 0.90039 0
M  V30 932 C 90.3861 3.14162 1.26571 0
M  V30 933 C 89.4321 4.21255 0.666814 0
M  V30 934 S 90.2651 5.33034 -0.513345 0
M  V30 935 C 91.4211 6.23311 0.56872 0
M  V30 936 H 91.6541 2.92963 -0.505939 0
M  V30 937 H 89.1871 1.49676 -0.379014 0
M  V30 938 H 91.1451 3.6468 1.88463 0
M  V30 939 H 89.8061 2.47946 1.92826 0
M  V30 940 H 88.9991 4.81788 1.47974 0
M  V30 941 H 88.6011 3.73797 0.123359 0
M  V30 942 H 90.8931 6.61758 1.45198 0
M  V30 943 H 91.8361 7.081 -7.23824e-05 0
M  V30 944 H 92.2441 5.57646 0.876996 0
M  V30 945 N 91.6422 0.330177 1.54103 0
M  V30 946 C 92.5752 -0.575477 2.20825 0
M  V30 947 C 93.5532 -1.11064 1.18758 0
M  V30 948 O 94.7372 -1.17341 1.47524 0
M  V30 949 C 91.8642 -1.79032 2.87516 0
M  V30 950 C 90.9102 -1.38581 4.03358 0
M  V30 951 S 91.7432 -0.416911 5.33875 0
M  V30 952 C 92.8992 -1.63889 6.04062 0
M  V30 953 H 93.1322 -0.00872114 2.97299 0
M  V30 954 H 90.6652 0.114254 1.53977 0
M  V30 955 H 92.6232 -2.48734 3.2656 0
M  V30 956 H 91.2842 -2.32827 2.10832 0
M  V30 957 H 90.4772 -2.29123 4.48908 0
M  V30 958 H 90.0792 -0.768419 3.66021 0
M  V30 959 H 92.3712 -2.57536 6.26643 0
M  V30 960 H 93.3142 -1.22542 6.97416 0
M  V30 961 H 93.7222 -1.82887 5.34053 0
M  V30 962 N 93.1203 -1.57491 0.0584922 0
M  V30 963 C 94.3973 -1.84346 -0.653918 0
M  V30 964 C 94.7773 -0.948355 -1.88599 0
M  V30 965 O 94.1253 -0.0112403 -2.28497 0
M  V30 966 C 94.3353 -3.34239 -1.00425 0
M  V30 967 C 95.6833 -4.01431 -1.38342 0
M  V30 968 O 96.7073 -3.38907 -1.09637 0
M  V30 969 O 95.5663 -5.11683 -1.91943 0
M  V30 970 H 92.6603 -0.761112 -0.323478 0
M  V30 971 H 95.2063 -1.6947 0.0884125 0
M  V30 972 H 93.9783 -3.91089 -0.128625 0
M  V30 973 H 93.6013 -3.54329 -1.80378 0
M  V30 974 N 94.5984 0.214957 -1.56127 0
M  V30 975 C 95.5284 1.2695 -1.95974 0
M  V30 976 C 96.5094 1.48539 -0.828868 0
M  V30 977 O 97.6944 1.60611 -1.09168 0
M  V30 978 C 94.8244 2.61794 -2.28214 0
M  V30 979 C 93.7784 2.54851 -3.43853 0
M  V30 980 C 93.1044 3.93785 -3.61715 0
M  V30 981 C 94.4044 2.09065 -4.78632 0
M  V30 982 H 96.0984 0.93846 -2.84312 0
M  V30 983 H 93.6444 0.449996 -1.36788 0
M  V30 984 H 95.5974 3.35731 -2.54682 0
M  V30 985 H 94.3214 2.96599 -1.36736 0
M  V30 986 H 92.9804 1.8337 -3.17444 0
M  V30 987 H 92.6284 4.25908 -2.67602 0
M  V30 988 H 92.3284 3.90019 -4.39498 0
M  V30 989 H 93.8524 4.69374 -3.90539 0
M  V30 990 H 95.2664 2.7275 -5.04262 0
M  V30 991 H 93.6634 2.16346 -5.59745 0
M  V30 992 H 94.7334 1.04315 -4.73547 0
M  V30 993 N 96.0765 1.50051 0.48192 0
M  V30 994 C 97.0085 1.64263 1.59844 0
M  V30 995 C 98.0215 0.52451 1.54119 0
M  V30 996 O 99.2105 0.797293 1.59704 0
M  V30 997 C 96.3105 1.60102 2.98698 0
M  V30 998 C 95.4835 2.87767 3.29407 0
M  V30 999 C 94.5425 2.76397 4.47762 0
M  V30 1000 O 93.5685 3.50348 4.48603 0
M  V30 1001 N 94.7705 1.89222 5.48794 0
M  V30 1002 H 97.5355 2.60566 1.48073 0
M  V30 1003 H 95.0965 1.47379 0.670149 0
M  V30 1004 H 97.0885 1.50123 3.75826 0
M  V30 1005 H 95.6585 0.715798 3.04294 0
M  V30 1006 H 94.8785 3.11954 2.40994 0
M  V30 1007 H 96.1665 3.72365 3.4673 0
M  V30 1008 H 95.5645 1.28434 5.50928 0
M  V30 1009 H 94.1215 1.85154 6.24949 0
M  V30 1010 N 97.5546 -0.734337 1.39446 0
M  V30 1011 C 98.5046 -1.83949 1.34709 0
M  V30 1012 C 99.4886 -1.59279 0.227851 0
M  V30 1013 O 100.681 -1.70771 0.465438 0
M  V30 1014 C 97.8096 -3.21884 1.19356 0
M  V30 1015 C 96.8956 -3.52381 2.35984 0
M  V30 1016 N 97.2866 -3.53811 3.61457 0
M  V30 1017 C 95.5846 -3.82747 2.28956 0
M  V30 1018 C 96.2856 -3.82122 4.38586 0
M  V30 1019 N 95.2616 -3.9993 3.68181 0
M  V30 1020 H 99.0636 -1.83361 2.29687 0
M  V30 1021 H 96.5776 -0.932609 1.32952 0
M  V30 1022 H 98.5746 -4.00998 1.14046 0
M  V30 1023 H 97.2346 -3.23711 0.253295 0
M  V30 1024 H 98.2456 -3.35107 3.94872 0
M  V30 1025 H 94.9226 -3.92175 1.43194 0
M  V30 1026 H 96.3126 -3.89691 5.47349 0
M  V30 1027 N 99.0327 -1.24633 -0.964593 0
M  V30 1028 C 100.281 -1.08573 -1.70459 0
M  V30 1029 C 100.602 0.375655 -1.91347 0
M  V30 1030 O 99.8717 1.26779 -1.49345 0
M  V30 1031 H 98.4517 -0.398784 -0.631649 0
M  V30 1032 H 101.114 -1.56601 -1.16026 0
M  V30 1033 H 100.21 -1.58623 -2.68785 0
M  V30 1034 N 100.511 1.16574 -1.06058 0
M  V30 1035 C 101.736 1.91493 -0.796562 0
M  V30 1036 C 102.161 1.76773 0.642868 0
M  V30 1037 O 101.519 1.09142 1.44768 0
M  V30 1038 C 101.567 3.40293 -1.19303 0
M  V30 1039 O 100.671 4.11074 -0.330394 0
M  V30 1040 H 100.012 0.596678 -0.291326 0
M  V30 1041 H 102.542 1.47708 -1.41575 0
M  V30 1042 H 102.552 3.91057 -1.16356 0
M  V30 1043 H 101.227 3.50326 -2.24153 0
M  V30 1044 H 99.8038 3.70513 -0.421225 0
M  V30 1045 N 101.989 0.842826 1.3317 0
M  V30 1046 C 102.919 0.294028 2.31641 0
M  V30 1047 C 103.9 -0.600401 1.59151 0
M  V30 1048 O 105.085 -0.523124 1.87022 0
M  V30 1049 C 102.215 -0.528416 3.43257 0
M  V30 1050 C 101.169 0.27056 4.27144 0
M  V30 1051 C 100.495 -0.675881 5.30411 0
M  V30 1052 C 101.795 1.48981 5.00602 0
M  V30 1053 H 103.489 1.11681 2.77791 0
M  V30 1054 H 101.035 0.538478 1.33553 0
M  V30 1055 H 102.988 -0.922674 4.11175 0
M  V30 1056 H 101.712 -1.38445 2.95805 0
M  V30 1057 H 100.371 0.646427 3.60856 0
M  V30 1058 H 100.019 -1.52842 4.79216 0
M  V30 1059 H 99.7189 -0.145374 5.8742 0
M  V30 1060 H 101.243 -1.06757 6.01195 0
M  V30 1061 H 102.657 1.16849 5.61266 0
M  V30 1062 H 101.054 1.95739 5.6728 0
M  V30 1063 H 102.124 2.25746 4.29147 0
M  V30 1064 N 103.467 -1.45747 0.599634 0
M  V30 1065 C 104.714 -2.02292 0.0917284 0
M  V30 1066 C 105.042 -1.46906 -1.27472 0
M  V30 1067 O 104.297 -0.630652 -1.8526 0
M  V30 1068 C 104.596 -3.57399 -0.00602758 0
M  V30 1069 C 104.262 -4.31902 1.29503 0
M  V30 1070 C 102.924 -4.51974 1.65144 0
M  V30 1071 C 105.276 -4.74551 2.15525 0
M  V30 1072 C 102.604 -5.11949 2.86574 0
M  V30 1073 C 104.956 -5.35868 3.36196 0
M  V30 1074 C 103.62 -5.54165 3.72099 0
M  V30 1075 H 102.89 -0.740239 0.0335658 0
M  V30 1076 H 105.537 -1.7491 0.779661 0
M  V30 1077 H 103.842 -3.84014 -0.777183 0
M  V30 1078 H 105.539 -3.98846 -0.415038 0
M  V30 1079 H 102.129 -4.16588 1.00761 0
M  V30 1080 H 106.313 -4.58784 1.8929 0
M  V30 1081 H 101.569 -5.24305 3.14507 0
M  V30 1082 H 105.743 -5.6787 4.03109 0
M  V30 1083 H 103.37 -6.00406 4.6628 0
M  V30 1084 N 104.945 -0.338344 -1.53925 0
M  V30 1085 C 106.192 0.259758 -2.00827 0
M  V30 1086 C 106.52 1.50973 -1.22628 0
M  V30 1087 O 105.775 1.93379 -0.300509 0
M  V30 1088 C 106.074 0.62448 -3.51902 0
M  V30 1089 C 105.74 -0.528006 -4.47798 0
M  V30 1090 C 104.402 -0.844298 -4.73735 0
M  V30 1091 C 106.754 -1.30143 -5.0469 0
M  V30 1092 C 104.082 -1.93648 -5.53821 0
M  V30 1093 C 106.434 -2.38382 -5.85967 0
M  V30 1094 C 105.098 -2.70576 -6.10201 0
M  V30 1095 H 104.368 0.0950523 -0.734878 0
M  V30 1096 H 107.015 -0.465182 -1.85764 0
M  V30 1097 H 105.32 1.43006 -3.64769 0
M  V30 1098 H 107.017 1.09905 -3.85645 0
M  V30 1099 H 103.607 -0.271421 -4.2774 0
M  V30 1100 H 107.791 -1.07033 -4.84621 0
M  V30 1101 H 103.047 -2.19021 -5.70824 0
M  V30 1102 H 107.221 -2.98746 -6.29066 0
M  V30 1103 H 104.848 -3.55333 -6.72044 0
M  V30 1104 N 106.423 1.57458 -0.0668435 0
M  V30 1105 C 107.648 1.9804 0.616027 0
M  V30 1106 C 108.073 0.944771 1.62652 0
M  V30 1107 O 107.431 -0.0902094 1.81075 0
M  V30 1108 C 107.479 3.37665 1.26549 0
M  V30 1109 O 106.583 3.36701 2.38131 0
M  V30 1110 H 105.924 0.644719 0.158849 0
M  V30 1111 H 108.454 2.04121 -0.139891 0
M  V30 1112 H 108.464 3.7474 1.6135 0
M  V30 1113 H 107.139 4.12573 0.525016 0
M  V30 1114 H 105.716 3.1139 2.0516 0
M  V30 1115 N 107.901 -0.206675 1.56239 0
M  V30 1116 C 109.129 -0.945345 1.8404 0
M  V30 1117 C 109.544 -1.77336 0.647885 0
M  V30 1118 O 108.901 -1.78425 -0.383511 0
M  V30 1119 C 108.952 -1.8509 3.10522 0
M  V30 1120 O 108.673 -1.05634 4.25174 0
M  V30 1121 C 110.174 -2.70222 3.51418 0
M  V30 1122 H 107.394 -0.276372 0.61144 0
M  V30 1123 H 109.938 -0.217417 2.03341 0
M  V30 1124 H 108.093 -2.53259 2.93153 0
M  V30 1125 H 108.507 -1.67238 4.97124 0
M  V30 1126 H 109.981 -3.29438 4.42916 0
M  V30 1127 H 110.458 -3.43358 2.73864 0
M  V30 1128 H 111.064 -2.07443 3.71278 0
M  V30 1129 N 109.379 -1.50304 -0.473955 0
M  V30 1130 C 110.604 -1.65175 -1.25427 0
M  V30 1131 C 111.029 -0.333673 -1.85117 0
M  V30 1132 O 110.387 0.702114 -1.67153 0
M  V30 1133 C 110.435 -2.74295 -2.34082 0
M  V30 1134 O 109.539 -2.35349 -3.38651 0
M  V30 1135 H 108.88 -0.551944 -0.369126 0
M  V30 1136 H 111.41 -1.96662 -0.564364 0
M  V30 1137 H 111.42 -2.97285 -2.79438 0
M  V30 1138 H 110.095 -3.69959 -1.90008 0
M  V30 1139 H 108.672 -2.22794 -2.99027 0
M  V30 1140 N 110.857 0.726932 -1.39834 0
M  V30 1141 C 111.804 1.841 -1.39197 0
M  V30 1142 C 112.774 1.642 -0.250502 0
M  V30 1143 O 113.959 1.85494 -0.446846 0
M  V30 1144 C 111.099 3.21697 -1.24919 0
M  V30 1145 C 110.212 3.53247 -2.48678 0
M  V30 1146 C 109.347 4.80289 -2.26928 0
M  V30 1147 C 108.386 5.04707 -3.4632 0
M  V30 1148 N 107.523 6.22956 -3.23836 0
M  V30 1149 H 112.363 1.83979 -2.34427 0
M  V30 1150 H 109.9 0.898876 -1.16442 0
M  V30 1151 H 111.858 4.01137 -1.1465 0
M  V30 1152 H 110.488 3.21076 -0.333153 0
M  V30 1153 H 109.54 2.68447 -2.69519 0
M  V30 1154 H 110.852 3.67205 -3.37582 0
M  V30 1155 H 110.006 5.67725 -2.13947 0
M  V30 1156 H 108.745 4.68519 -1.35431 0
M  V30 1157 H 107.75 4.1573 -3.5979 0
M  V30 1158 H 108.975 5.18357 -4.38729 0
M  V30 1159 H 106.921 6.12459 -2.35011 0
M  V30 1160 H 106.838 6.37539 -4.063 0
M  V30 1161 H 108.106 7.1321 -3.14566 0
M  V30 1162 N 112.336 1.25143 0.95797 0
M  V30 1163 C 113.585 1.0909 1.69654 0
M  V30 1164 C 113.898 -0.368548 1.92097 0
M  V30 1165 O 115.104 -0.649455 2.63618 0
M  V30 1166 C 113.56 1.90395 3.05414 0
M  V30 1167 C 113.168 3.4081 2.90779 0
M  V30 1168 C 114.912 1.82901 3.83076 0
M  V30 1169 C 112.819 4.14423 4.21909 0
M  V30 1170 H 111.749 0.404625 0.636235 0
M  V30 1171 H 114.4 1.4931 1.06672 0
M  V30 1172 H 112.782 1.42996 3.69281 0
M  V30 1173 H 113.956 3.95859 2.35865 0
M  V30 1174 H 112.271 3.49361 2.26575 0
M  V30 1175 H 114.868 2.35196 4.80195 0
M  V30 1176 H 115.211 0.796224 4.08615 0
M  V30 1177 H 115.744 2.28033 3.25954 0
M  V30 1178 H 112.483 5.18102 4.01561 0
M  V30 1179 H 112.003 3.64159 4.76601 0
M  V30 1180 H 113.682 4.21956 4.90471 0
M  V30 1181 N 113.814 -1.1601 1.06675 0
M  V30 1182 C 115.042 -1.90527 0.806667 0
M  V30 1183 C 115.457 -1.77643 -0.639396 0
M  V30 1184 O 114.814 -1.12369 -1.43803 0
M  V30 1185 C 114.865 -3.41106 1.19705 0
M  V30 1186 O 114.586 -3.53608 2.58636 0
M  V30 1187 C 116.087 -4.32663 0.965266 0
M  V30 1188 H 113.307 -0.604053 0.292166 0
M  V30 1189 H 115.851 -1.47026 1.4214 0
M  V30 1190 H 114.006 -3.82296 0.626774 0
M  V30 1191 H 114.42 -4.47011 2.74375 0
M  V30 1192 H 115.894 -5.36763 1.288 0
M  V30 1193 H 116.371 -4.39089 -0.0987936 0
M  V30 1194 H 116.977 -3.97206 1.52011 0
M  V30 1195 N 115.292 -0.849877 -1.32721 0
M  V30 1196 C 116.517 -0.463856 -2.02146 0
M  V30 1197 C 116.942 0.930449 -1.63476 0
M  V30 1198 O 116.3 1.61033 -0.832952 0
M  V30 1199 C 116.348 -0.604955 -3.55489 0
M  V30 1200 O 115.452 0.36425 -4.10788 0
M  V30 1201 H 114.793 -0.187046 -0.637111 0
M  V30 1202 H 117.323 -1.14775 -1.69375 0
M  V30 1203 H 117.333 -0.490696 -4.05038 0
M  V30 1204 H 116.008 -1.62174 -3.82978 0
M  V30 1205 H 114.585 0.206628 -3.72327 0
M  V30 1206 N 116.77 1.45427 -0.607355 0
M  V30 1207 C 118.018 2.01841 -0.102253 0
M  V30 1208 C 118.339 1.47832 1.27164 0
M  V30 1209 O 117.609 0.672497 1.83995 0
M  V30 1210 H 116.189 0.746188 -0.0348101 0
M  V30 1211 H 118.851 1.78229 -0.7887 0
M  V30 1212 H 117.947 3.12057 -0.0518585 0
M  V30 1213 N 118.248 0.346503 1.53744 0
M  V30 1214 C 119.195 -0.508914 2.25119 0
M  V30 1215 C 120.165 -1.09315 1.25058 0
M  V30 1216 O 121.35 -1.12921 1.53797 0
M  V30 1217 C 118.49 -1.65246 3.02965 0
M  V30 1218 C 117.603 -1.09525 4.17886 0
M  V30 1219 C 116.738 -2.20634 4.83212 0
M  V30 1220 C 115.777 -1.62279 5.90196 0
M  V30 1221 N 114.914 -2.67143 6.49291 0
M  V30 1222 H 119.754 0.106283 2.9781 0
M  V30 1223 H 117.291 0.0642227 1.4696 0
M  V30 1224 H 119.249 -2.32574 3.4636 0
M  V30 1225 H 117.879 -2.2386 2.32565 0
M  V30 1226 H 116.931 -0.312818 3.79112 0
M  V30 1227 H 118.243 -0.628444 4.94825 0
M  V30 1228 H 117.397 -2.95821 5.29693 0
M  V30 1229 H 116.136 -2.70659 4.05703 0
M  V30 1230 H 115.141 -0.855989 5.43096 0
M  V30 1231 H 116.366 -1.13102 6.69615 0
M  V30 1232 H 114.312 -3.16417 5.74645 0
M  V30 1233 H 114.229 -2.25093 7.21713 0
M  V30 1234 H 115.497 -3.4209 7.00425 0
M  V30 1235 N 119.726 -1.57421 0.075193 0
M  V30 1236 C 121.003 -1.85029 -0.634329 0
M  V30 1237 C 121.383 -0.968305 -1.87582 0
M  V30 1238 O 120.731 -0.0354749 -2.28472 0
M  V30 1239 C 120.941 -3.35286 -0.968742 0
M  V30 1240 C 122.289 -4.02875 -1.34077 0
M  V30 1241 O 123.313 -3.40051 -1.06037 0
M  V30 1242 O 122.172 -5.13691 -1.86506 0
M  V30 1243 H 119.266 -0.7645 -0.315387 0
M  V30 1244 H 121.812 -1.69366 0.106382 0
M  V30 1245 H 120.584 -3.91203 -0.0871376 0
M  V30 1246 H 120.207 -3.56223 -1.7661 0
M  V30 1247 N 121.204 0.198386 -1.56346 0
M  V30 1248 C 122.434 0.934215 -1.84271 0
M  V30 1249 C 122.842 1.77496 -0.655125 0
M  V30 1250 O 122.185 1.7961 0.385488 0
M  V30 1251 C 122.247 1.88278 -3.06254 0
M  V30 1252 C 121.911 1.22431 -4.40295 0
M  V30 1253 C 122.908 0.602839 -5.16393 0
M  V30 1254 C 120.593 1.22915 -4.87029 0
M  V30 1255 C 122.587 -0.0050083 -6.374 0
M  V30 1256 C 120.274 0.617465 -6.07973 0
M  V30 1257 C 121.272 0.00146341 -6.83 0
M  V30 1258 O 120.96 -0.600642 -8.01653 0
M  V30 1259 H 120.692 0.278245 -0.616081 0
M  V30 1260 H 123.246 0.211626 -2.04307 0
M  V30 1261 H 121.476 2.64498 -2.82095 0
M  V30 1262 H 123.165 2.48612 -3.20853 0
M  V30 1263 H 123.931 0.591265 -4.81382 0
M  V30 1264 H 119.81 1.69801 -4.28589 0
M  V30 1265 H 123.354 -0.48643 -6.95902 0
M  V30 1266 H 119.251 0.62653 -6.42452 0
M  V30 1267 H 120.019 -0.497225 -8.16988 0
M  V30 1268 N 122.682 1.50554 0.465978 0
M  V30 1269 C 123.907 1.65838 1.24549 0
M  V30 1270 C 124.332 0.343486 1.84937 0
M  V30 1271 O 123.69 -0.69324 1.67523 0
M  V30 1272 C 123.738 2.75533 2.32624 0
M  V30 1273 O 122.842 2.37142 3.37398 0
M  V30 1274 H 122.183 0.553893 0.366194 0
M  V30 1275 H 124.713 1.96959 0.553927 0
M  V30 1276 H 124.723 2.98763 2.77857 0
M  V30 1277 H 123.398 3.70962 1.88043 0
M  V30 1278 H 121.975 2.24377 2.97841 0
M  V30 1279 N 124.16 -0.719506 1.40217 0
M  V30 1280 C 125.406 -1.48152 1.38488 0
M  V30 1281 C 125.739 -1.94195 -0.0141867 0
M  V30 1282 O 125.014 -1.67884 -0.982096 0
M  V30 1283 C 125.297 -2.71035 2.37091 0
M  V30 1284 C 125.15 -2.30912 3.86005 0
M  V30 1285 C 126.469 -3.73182 2.33288 0
M  V30 1286 H 123.588 -0.537395 0.504357 0
M  V30 1287 H 126.23 -0.821472 1.71324 0
M  V30 1288 H 124.38 -3.27352 2.0922 0
M  V30 1289 H 126.052 -1.80107 4.24687 0
M  V30 1290 H 124.295 -1.62958 4.02029 0
M  V30 1291 H 124.966 -3.18978 4.50508 0
M  V30 1292 H 127.442 -3.26485 2.57966 0
M  V30 1293 H 126.318 -4.56806 3.04334 0
M  V30 1294 H 126.579 -4.21202 1.34317 0
M  V30 1295 N 125.638 -1.25649 -0.95132 0
M  V30 1296 C 126.863 -1.13443 -1.73624 0
M  V30 1297 C 127.288 0.307565 -1.85568 0
M  V30 1298 O 126.646 1.22282 -1.33854 0
M  V30 1299 C 126.694 -1.79723 -3.12621 0
M  V30 1300 O 125.798 -1.07912 -3.98031 0
M  V30 1301 H 125.139 -0.395872 -0.533086 0
M  V30 1302 H 127.669 -1.66276 -1.1922 0
M  V30 1303 H 127.679 -1.86141 -3.63064 0
M  V30 1304 H 126.354 -2.84633 -3.03244 0
M  V30 1305 H 124.931 -1.09398 -3.56492 0
M  V30 1306 N 127.117 1.15442 -1.07289 0
M  V30 1307 C 128.08 2.18358 -0.696591 0
M  V30 1308 C 129.08 1.58637 0.262837 0
M  V30 1309 O 130.27 1.74145 0.0438809 0
M  V30 1310 C 127.402 3.4089 -0.0266151 0
M  V30 1311 H 128.595 2.53162 -1.60776 0
M  V30 1312 H 126.148 1.29893 -0.869342 0
M  V30 1313 H 126.883 3.11653 0.896822 0
M  V30 1314 H 126.668 3.85495 -0.716657 0
M  V30 1315 H 128.158 4.17009 0.222028 0
M  V30 1316 N 128.595 0.856903 1.32268 0
M  V30 1317 C 129.543 0.291987 2.3076 0
M  V30 1318 C 130.537 -0.585857 1.58947 0
M  V30 1319 O 131.743 -0.47341 1.73663 0
M  V30 1320 H 128.118 0.075721 0.748178 0
M  V30 1321 H 130.089 1.13687 2.75895 0
M  V30 1322 C 128.838 -0.502869 3.44044 0
M  V30 1323 H 128.161 0.163328 3.99466 0
M  V30 1324 H 129.601 -0.863691 4.1511 0
M  V30 1325 C 128.06 -1.68898 2.91505 0
M  V30 1326 O 128.59 -2.78811 2.89184 0
M  V30 1327 N 126.796 -1.51679 2.47875 0
M  V30 1328 H 126.343 -0.622666 2.49961 0
M  V30 1329 H 126.301 -2.31184 2.13076 0
M  V30 1330 N 130.073 -1.45103 0.615059 0
M  V30 1331 C 131.298 -2.07064 0.117988 0
M  V30 1332 C 131.723 -1.4554 -1.19163 0
M  V30 1333 O 131.081 -0.550855 -1.72729 0
M  V30 1334 C 131.129 -3.606 -0.000288387 0
M  V30 1335 O 130.233 -3.98847 -1.04856 0
M  V30 1336 H 129.574 -0.659467 0.0774581 0
M  V30 1337 H 132.104 -1.86236 0.847186 0
M  V30 1338 H 132.114 -4.07529 -0.196091 0
M  V30 1339 H 130.789 -4.04765 0.955932 0
M  V30 1340 H 129.366 -3.63577 -0.828619 0
M  V30 1341 N 131.551 -0.354651 -1.53558 0
M  V30 1342 C 132.967 -0.00315426 -1.596 0
M  V30 1343 C 133.167 1.47741 -1.37021 0
M  V30 1344 O 132.223 2.23759 -1.16996 0
M  V30 1345 C 133.536 -0.44929 -2.97325 0
M  V30 1346 C 135.084 -0.402578 -3.104 0
M  V30 1347 C 135.559 -0.824355 -4.5052 0
M  V30 1348 N 137.05 -0.778979 -4.56603 0
M  V30 1349 C 137.785 -1.07715 -5.63192 0
M  V30 1350 N 137.281 -1.44405 -6.77583 0
M  V30 1351 N 139.074 -1.00066 -5.53121 0
M  V30 1352 H 131.225 -1.31893 -1.66487 0
M  V30 1353 H 133.488 -0.538388 -0.780284 0
M  V30 1354 H 133.194 -1.48202 -3.1895 0
M  V30 1355 H 133.068 0.169772 -3.76818 0
M  V30 1356 H 135.455 0.621004 -2.88492 0
M  V30 1357 H 135.536 -1.05699 -2.32941 0
M  V30 1358 H 135.18 -1.846 -4.73165 0
M  V30 1359 H 135.11 -0.147304 -5.26394 0
M  V30 1360 H 137.601 -0.508528 -3.74463 0
M  V30 1361 H 137.914 -1.65612 -7.54846 0
M  V30 1362 H 136.259 -1.4826 -6.79002 0
M  V30 1363 H 139.45 -0.713293 -4.62633 0
M  V30 1364 H 139.623 -1.23638 -6.36096 0
M  V30 1365 N 133.029 1.57378 -0.0835403 0
M  V30 1366 C 134.278 1.93106 0.582498 0
M  V30 1367 C 134.591 0.96651 1.70053 0
M  V30 1368 O 135.797 1.21705 2.42693 0
M  V30 1369 C 134.253 3.43076 1.08751 0
M  V30 1370 C 133.861 4.48 -0.000146404 0
M  V30 1371 C 135.605 3.87785 1.72694 0
M  V30 1372 C 133.512 5.89113 0.519568 0
M  V30 1373 H 132.442 0.720775 0.221358 0
M  V30 1374 H 135.093 1.82821 -0.157675 0
M  V30 1375 H 133.475 3.48474 1.88101 0
M  V30 1376 H 134.649 4.54233 -0.775199 0
M  V30 1377 H 132.964 4.1283 -0.54406 0
M  V30 1378 H 135.561 4.90604 2.1263 0
M  V30 1379 H 135.904 3.25796 2.59158 0
M  V30 1380 H 136.437 3.8504 0.999457 0
M  V30 1381 H 133.176 6.54775 -0.308186 0
M  V30 1382 H 132.696 5.86376 1.26188 0
M  V30 1383 H 134.375 6.39346 0.992237 0
M  V30 1384 N 134.507 -0.190092 1.56449 0
M  V30 1385 C 135.753 -0.911052 1.81184 0
M  V30 1386 C 136.086 -1.82699 0.658396 0
M  V30 1387 O 135.361 -1.91491 -0.340775 0
M  V30 1388 C 135.644 -1.72297 3.16205 0
M  V30 1389 C 135.497 -0.831419 4.42049 0
M  V30 1390 C 136.816 -2.69454 3.47969 0
M  V30 1391 H 133.935 -0.32977 0.659106 0
M  V30 1392 H 136.577 -0.178169 1.89163 0
M  V30 1393 H 134.727 -2.34778 3.09534 0
M  V30 1394 H 136.399 -0.220929 4.60771 0
M  V30 1395 H 134.642 -0.138406 4.33579 0
M  V30 1396 H 135.313 -1.43461 5.33032 0
M  V30 1397 H 137.789 -2.17104 3.54972 0
M  V30 1398 H 136.665 -3.23342 4.43555 0
M  V30 1399 H 136.926 -3.48744 2.71717 0
M  V30 1400 N 135.985 -1.50799 -0.457987 0
M  V30 1401 C 137.234 -1.6168 -1.20593 0
M  V30 1402 C 137.547 -0.32888 -1.92815 0
M  V30 1403 O 138.753 -0.316773 -2.69646 0
M  V30 1404 C 137.209 -2.8545 -2.19195 0
M  V30 1405 C 136.817 -4.21168 -1.52715 0
M  V30 1406 C 138.561 -3.05681 -2.94549 0
M  V30 1407 C 136.468 -5.3611 -2.4968 0
M  V30 1408 H 135.398 -0.602134 -0.453818 0
M  V30 1409 H 138.049 -1.77245 -0.475031 0
M  V30 1410 H 136.431 -2.63472 -2.95632 0
M  V30 1411 H 137.605 -4.53449 -0.819775 0
M  V30 1412 H 135.92 -4.06648 -0.895922 0
M  V30 1413 H 138.517 -3.88727 -3.67145 0
M  V30 1414 H 138.86 -2.17929 -3.54701 0
M  V30 1415 H 139.393 -3.27901 -2.25223 0
M  V30 1416 H 136.132 -6.26057 -1.94249 0
M  V30 1417 H 135.652 -5.0823 -3.18532 0
M  V30 1418 H 137.331 -5.6722 -3.11241 0
M  V30 1419 N 137.463 0.71206 -1.40597 0
M  V30 1420 C 138.709 1.47416 -1.39271 0
M  V30 1421 C 139.042 1.942 0.00388791 0
M  V30 1422 O 138.317 1.68403 0.973179 0
M  V30 1423 C 138.6 2.69774 -2.38525 0
M  V30 1424 C 138.453 2.28861 -3.87224 0
M  V30 1425 C 139.772 3.71939 -2.35264 0
M  V30 1426 H 136.891 0.534713 -0.5072 0
M  V30 1427 H 139.533 0.812375 -1.71757 0
M  V30 1428 H 137.683 3.26238 -2.10953 0
M  V30 1429 H 139.355 1.77852 -4.25636 0
M  V30 1430 H 137.598 1.60824 -4.02887 0
M  V30 1431 H 138.269 3.16584 -4.52193 0
M  V30 1432 H 140.745 3.25113 -2.59694 0
M  V30 1433 H 139.621 4.55186 -3.06753 0
M  V30 1434 H 139.882 4.20484 -1.36549 0
M  V30 1435 N 138.941 1.26152 0.944643 0
M  V30 1436 C 140.169 1.14259 1.72489 0
M  V30 1437 C 140.584 -0.302555 1.8636 0
M  V30 1438 O 139.941 -1.20741 1.36849 0
M  V30 1439 C 139.992 1.80266 3.13347 0
M  V30 1440 O 139.713 3.19133 3.00143 0
M  V30 1441 C 141.214 1.74283 4.07603 0
M  V30 1442 H 138.434 0.398051 0.540181 0
M  V30 1443 H 140.978 1.66706 1.18446 0
M  V30 1444 H 139.133 1.31766 3.64303 0
M  V30 1445 H 139.547 3.51744 3.89071 0
M  V30 1446 H 141.021 2.25111 5.04013 0
M  V30 1447 H 141.498 0.708631 4.33446 0
M  V30 1448 H 142.104 2.22319 3.62567 0
M  V30 1449 N 140.419 -1.14872 1.07899 0
M  V30 1450 C 141.382 -2.17986 0.708161 0
M  V30 1451 C 142.382 -1.58775 -0.25442 0
M  V30 1452 O 143.572 -1.74166 -0.034645 0
M  V30 1453 C 140.704 -3.40871 0.0446929 0
M  V30 1454 H 141.897 -2.52306 1.62116 0
M  V30 1455 H 139.45 -1.2943 0.876218 0
M  V30 1456 H 140.185 -3.12124 -0.880281 0
M  V30 1457 H 139.97 -3.8511 0.737091 0
M  V30 1458 H 141.46 -4.17121 -0.19991 0
M  V30 1459 N 141.898 -0.863906 -1.31812 0
M  V30 1460 C 143.146 -0.470904 -1.96537 0
M  V30 1461 C 143.467 0.978771 -1.68657 0
M  V30 1462 O 142.737 1.6853 -0.998717 0
M  V30 1463 H 141.317 -0.171148 -0.72713 0
M  V30 1464 H 143.979 -1.10236 -1.60729 0
M  V30 1465 H 143.075 -0.623616 -3.05806 0
M  V30 1466 N 143.376 1.44774 -0.622745 0
M  V30 1467 C 144.339 2.29069 0.0774015 0
M  V30 1468 C 145.339 1.4059 0.780461 0
M  V30 1469 O 146.529 1.62551 0.626322 0
M  V30 1470 C 143.661 3.21974 1.12006 0
M  V30 1471 H 144.854 2.92459 -0.663901 0
M  V30 1472 H 142.407 1.51548 -0.382486 0
M  V30 1473 H 143.142 2.63417 1.89162 0
M  V30 1474 H 142.927 3.87168 0.619951 0
M  V30 1475 H 144.417 3.85318 1.60995 0
M  V30 1476 N 144.854 0.36279 1.53368 0
M  V30 1477 C 146.27 0.0116182 1.59596 0
M  V30 1478 C 146.47 -1.47012 1.37803 0
M  V30 1479 O 145.526 -2.23136 1.18181 0
M  V30 1480 C 146.839 0.465052 2.97082 0
M  V30 1481 C 148.387 0.419033 3.10182 0
M  V30 1482 C 148.862 0.848235 4.50077 0
M  V30 1483 N 150.353 0.803183 4.56183 0
M  V30 1484 C 151.088 1.107 5.62613 0
M  V30 1485 N 150.584 1.47996 6.76808 0
M  V30 1486 N 152.377 1.02998 5.52583 0
M  V30 1487 H 144.528 1.32775 1.65785 0
M  V30 1488 H 146.791 0.542518 0.777417 0
M  V30 1489 H 146.497 1.49892 3.18159 0
M  V30 1490 H 146.371 -0.149786 3.76902 0
M  V30 1491 H 148.758 -0.605696 2.88817 0
M  V30 1492 H 148.839 1.06933 2.32377 0
M  V30 1493 H 148.483 1.87107 4.7218 0
M  V30 1494 H 148.413 0.175218 5.26308 0
M  V30 1495 H 150.904 0.52838 3.74188 0
M  V30 1496 H 151.217 1.69613 7.53957 0
M  V30 1497 H 149.562 1.51859 6.78206 0
M  V30 1498 H 152.753 0.737817 4.62249 0
M  V30 1499 H 152.926 1.2701 6.35431 0
M  V30 1500 N 146.332 -1.57332 0.0918853 0
M  V30 1501 C 147.264 -2.10869 -0.898168 0
M  V30 1502 C 148.277 -1.04521 -1.24817 0
M  V30 1503 O 149.466 -1.31977 -1.20184 0
M  V30 1504 C 146.566 -2.57083 -2.2082 0
M  V30 1505 C 145.739 -3.87229 -2.03402 0
M  V30 1506 C 144.798 -4.19324 -3.17889 0
M  V30 1507 O 143.824 -4.88598 -2.91994 0
M  V30 1508 N 145.026 -3.74471 -4.43567 0
M  V30 1509 H 147.791 -2.96439 -0.440943 0
M  V30 1510 H 145.352 -1.61631 -0.0933064 0
M  V30 1511 H 147.344 -2.75602 -2.96354 0
M  V30 1512 H 145.914 -1.76541 -2.57977 0
M  V30 1513 H 145.134 -3.7789 -1.12218 0
M  V30 1514 H 146.422 -4.72379 -1.89038 0
M  V30 1515 H 145.82 -3.18546 -4.67488 0
M  V30 1516 H 144.377 -3.98151 -5.16061 0
M  V30 1517 N 147.81 0.181792 -1.56548 0
M  V30 1518 C 148.742 1.24956 -1.92142 0
M  V30 1519 C 149.755 1.41022 -0.813422 0
M  V30 1520 O 150.944 1.41212 -1.09186 0
M  V30 1521 C 148.044 2.61981 -2.14987 0
M  V30 1522 C 147.217 2.6735 -3.46183 0
M  V30 1523 C 146.276 3.85664 -3.5798 0
M  V30 1524 O 145.302 3.72148 -4.30691 0
M  V30 1525 N 146.504 5.01683 -2.92053 0
M  V30 1526 H 149.269 0.947329 -2.84334 0
M  V30 1527 H 146.83 0.371629 -1.57577 0
M  V30 1528 H 148.822 3.3958 -2.20154 0
M  V30 1529 H 147.392 2.84637 -1.2923 0
M  V30 1530 H 146.612 1.75925 -3.52766 0
M  V30 1531 H 147.9 2.67939 -4.32534 0
M  V30 1532 H 147.298 5.15564 -2.32832 0
M  V30 1533 H 145.855 5.77181 -3.0283 0
M  V30 1534 N 149.288 1.51039 0.449983 0
M  V30 1535 C 150.198 1.74261 1.57067 0
M  V30 1536 C 151.214 0.626363 1.62335 0
M  V30 1537 O 152.39 0.907162 1.79812 0
M  V30 1538 C 149.455 1.85114 2.93144 0
M  V30 1539 C 148.516 3.0893 2.98095 0
M  V30 1540 C 147.749 3.19256 4.27681 0
M  V30 1541 O 147.972 2.35835 5.19363 0
M  V30 1542 O 146.906 4.12144 4.38658 0
M  V30 1543 H 150.732 2.69303 1.40391 0
M  V30 1544 H 148.317 1.35389 0.631688 0
M  V30 1545 H 150.199 1.94311 3.73926 0
M  V30 1546 H 148.874 0.932588 3.09975 0
M  V30 1547 H 147.781 3.0522 2.16314 0
M  V30 1548 H 149.114 4.00433 2.86206 0
M  V30 1549 N 150.766 -0.704594 1.40972 0
M  V30 1550 C 152.014 -1.46169 1.39568 0
M  V30 1551 C 152.335 -1.95 0.00253745 0
M  V30 1552 O 151.605 -1.71095 -0.954114 0
M  V30 1553 H 150.185 -0.542326 0.513704 0
M  V30 1554 H 152.847 -0.834553 1.76128 0
M  V30 1555 H 151.943 -2.32922 2.07735 0
M  V30 1556 N 152.244 -1.26651 -0.937939 0
M  V30 1557 C 153.154 -1.10276 -2.07066 0
M  V30 1558 C 154.17 -0.0354197 -1.73964 0
M  V30 1559 O 155.346 -0.239816 -1.99967 0
M  V30 1560 C 152.411 -0.740887 -3.38691 0
M  V30 1561 C 151.472 -1.88799 -3.85556 0
M  V30 1562 C 150.705 -1.54329 -5.10899 0
M  V30 1563 O 150.928 -0.446494 -5.6865 0
M  V30 1564 O 149.862 -2.37911 -5.52885 0
M  V30 1565 H 153.688 -2.05309 -2.23789 0
M  V30 1566 H 151.273 -1.05743 -1.0554 0
M  V30 1567 H 153.155 -0.55195 -4.1777 0
M  V30 1568 H 151.83 0.180022 -3.23199 0
M  V30 1569 H 150.737 -2.13191 -3.07409 0
M  V30 1570 H 152.07 -2.78874 -4.05574 0
M  V30 1571 N 153.722 1.14298 -1.08507 0
M  V30 1572 C 154.95 1.89219 -0.836876 0
M  V30 1573 C 155.365 1.78638 0.611054 0
M  V30 1574 O 154.722 1.14643 1.41998 0
M  V30 1575 C 154.773 3.39158 -1.25116 0
M  V30 1576 O 154.494 3.49449 -2.64229 0
M  V30 1577 C 155.995 4.31073 -1.03398 0
M  V30 1578 H 153.215 0.599328 -0.301739 0
M  V30 1579 H 155.759 1.44746 -1.44461 0
M  V30 1580 H 153.914 3.81251 -0.687514 0
M  V30 1581 H 154.328 4.42589 -2.81452 0
M  V30 1582 H 155.802 5.34646 -1.37323 0
M  V30 1583 H 156.279 4.3919 0.0289259 0
M  V30 1584 H 156.885 3.94738 -1.58311 0
M  V30 1585 N 155.201 0.870884 1.31352 0
M  V30 1586 C 156.617 0.562932 1.49343 0
M  V30 1587 C 156.817 -0.902725 1.80148 0
M  V30 1588 O 155.873 -1.68484 1.88067 0
M  V30 1589 C 157.186 1.46393 2.62659 0
M  V30 1590 C 158.734 1.46607 2.76542 0
M  V30 1591 C 159.209 2.35266 3.92955 0
M  V30 1592 N 160.7 2.33151 4.00243 0
M  V30 1593 C 161.435 2.98471 4.89594 0
M  V30 1594 N 160.931 3.72964 5.8384 0
M  V30 1595 N 162.724 2.87775 4.82848 0
M  V30 1596 H 154.875 1.81923 1.09626 0
M  V30 1597 H 157.138 0.777934 0.541777 0
M  V30 1598 H 156.844 2.50689 2.46674 0
M  V30 1599 H 156.718 1.16314 3.58819 0
M  V30 1600 H 159.105 0.43069 2.9194 0
M  V30 1601 H 159.186 1.8071 1.81046 0
M  V30 1602 H 158.83 3.38881 3.78315 0
M  V30 1603 H 158.76 1.98487 4.87761 0
M  V30 1604 H 161.251 1.79006 3.32814 0
M  V30 1605 H 161.564 4.19932 6.4875 0
M  V30 1606 H 159.909 3.77073 5.83816 0
M  V30 1607 H 163.1 2.29116 4.08195 0
M  V30 1608 H 163.273 3.38961 5.52277 0
M  V30 1609 N 156.679 -1.44442 0.630414 0
M  V30 1610 C 157.609 -2.33418 -0.0618083 0
M  V30 1611 C 158.59 -1.48165 -0.835541 0
M  V30 1612 O 159.775 -1.76886 -0.801564 0
M  V30 1613 C 156.905 -3.31222 -1.04449 0
M  V30 1614 C 155.859 -4.26288 -0.382436 0
M  V30 1615 C 155.185 -5.13954 -1.47497 0
M  V30 1616 C 156.485 -5.1744 0.710865 0
M  V30 1617 H 158.179 -2.91548 0.681184 0
M  V30 1618 H 155.725 -1.40191 0.329026 0
M  V30 1619 H 157.678 -3.92351 -1.53748 0
M  V30 1620 H 156.402 -2.71299 -1.81836 0
M  V30 1621 H 155.061 -3.6649 0.0899054 0
M  V30 1622 H 154.709 -4.50385 -2.2397 0
M  V30 1623 H 154.409 -5.7837 -1.03737 0
M  V30 1624 H 155.933 -5.77955 -1.96979 0
M  V30 1625 H 157.347 -5.72509 0.300996 0
M  V30 1626 H 155.744 -5.90455 1.07156 0
M  V30 1627 H 156.814 -4.58496 1.57829 0
M  V30 1628 N 158.157 -0.370918 -1.53173 0
M  V30 1629 C 159.12 0.460778 -2.24521 0
M  V30 1630 C 160.12 1.00536 -1.25496 0
M  V30 1631 O 161.31 0.890266 -1.49733 0
M  V30 1632 C 158.442 1.64457 -2.98608 0
M  V30 1633 H 159.635 -0.163613 -2.99453 0
M  V30 1634 H 157.188 -0.122699 -1.55818 0
M  V30 1635 H 157.923 2.30691 -2.2793 0
M  V30 1636 H 157.708 1.26099 -3.7127 0
M  V30 1637 H 159.198 2.23384 -3.5283 0
M  V30 1638 N 159.635 1.57281 -0.100228 0
M  V30 1639 C 160.565 2.17328 0.853857 0
M  V30 1640 C 161.546 1.10804 1.2906 0
M  V30 1641 O 162.731 1.38963 1.35657 0
M  V30 1642 C 159.861 2.75772 2.11109 0
M  V30 1643 C 158.815 3.87713 1.81279 0
M  V30 1644 C 158.141 4.32882 3.13874 0
M  V30 1645 C 159.441 5.10677 1.09574 0
M  V30 1646 H 161.135 2.97305 0.353545 0
M  V30 1647 H 158.681 1.43009 0.168612 0
M  V30 1648 H 160.634 3.16433 2.78296 0
M  V30 1649 H 159.358 1.93057 2.63432 0
M  V30 1650 H 158.017 3.476 1.16489 0
M  V30 1651 H 157.665 3.47051 3.64095 0
M  V30 1652 H 157.365 5.08358 2.94696 0
M  V30 1653 H 158.889 4.7618 3.82211 0
M  V30 1654 H 160.303 5.48474 1.66879 0
M  V30 1655 H 158.7 5.91615 1.00557 0
M  V30 1656 H 159.77 4.84835 0.0793299 0
M  V30 1657 N 161.113 -0.173488 1.56642 0
M  V30 1658 C 162.359 -0.891784 1.8214 0
M  V30 1659 C 162.692 -1.8199 0.677736 0
M  V30 1660 O 161.967 -1.91842 -0.320446 0
M  V30 1661 C 162.25 -1.68933 3.18015 0
M  V30 1662 C 162.103 -0.784487 4.42906 0
M  V30 1663 C 163.422 -2.65748 3.50808 0
M  V30 1664 H 160.541 -0.322761 0.662567 0
M  V30 1665 H 163.183 -0.158095 1.89341 0
M  V30 1666 H 161.333 -2.31482 3.12007 0
M  V30 1667 H 163.005 -0.172046 4.60979 0
M  V30 1668 H 161.248 -0.0924117 4.33702 0
M  V30 1669 H 161.919 -1.37799 5.34524 0
M  V30 1670 H 164.395 -2.13327 3.57255 0
M  V30 1671 H 163.271 -3.18619 4.4696 0
M  V30 1672 H 163.532 -3.45842 2.75401 0
M  V30 1673 N 162.591 -1.51276 -0.441967 0
M  V30 1674 C 163.523 -1.68444 -1.55433 0
M  V30 1675 C 164.536 -0.565187 -1.52674 0
M  V30 1676 O 165.725 -0.839356 -1.57534 0
M  V30 1677 C 162.825 -1.67966 -2.94348 0
M  V30 1678 C 161.998 -2.964 -3.21661 0
M  V30 1679 C 161.057 -2.88171 -4.40277 0
M  V30 1680 O 160.083 -3.62119 -4.39157 0
M  V30 1681 N 161.285 -2.03706 -5.43584 0
M  V30 1682 H 164.05 -2.644 -1.41112 0
M  V30 1683 H 161.611 -1.49104 -0.630838 0
M  V30 1684 H 163.603 -1.60035 -3.71713 0
M  V30 1685 H 162.173 -0.796225 -3.0229 0
M  V30 1686 H 161.393 -3.18234 -2.32638 0
M  V30 1687 H 162.681 -3.81427 -3.36736 0
M  V30 1688 H 162.079 -1.42995 -5.47329 0
M  V30 1689 H 160.636 -2.01658 -6.1982 0
M  V30 1690 N 164.069 0.697108 -1.41344 0
M  V30 1691 C 165.485 1.00751 -1.2378 0
M  V30 1692 C 165.685 2.01105 -0.126066 0
M  V30 1693 O 164.741 2.47295 0.51004 0
M  V30 1694 C 166.054 1.53359 -2.58653 0
M  V30 1695 C 167.602 1.6525 -2.65822 0
M  V30 1696 C 168.077 2.2126 -4.01009 0
M  V30 1697 N 169.568 2.28622 -4.02847 0
M  V30 1698 C 170.303 2.72984 -5.04249 0
M  V30 1699 N 169.799 3.16962 -6.16041 0
M  V30 1700 N 171.592 2.72534 -4.91611 0
M  V30 1701 H 163.743 0.0322662 -2.12375 0
M  V30 1702 H 166.006 0.0768853 -0.944877 0
M  V30 1703 H 165.712 0.870773 -3.4075 0
M  V30 1704 H 165.586 2.51597 -2.81032 0
M  V30 1705 H 167.973 2.30644 -1.84086 0
M  V30 1706 H 168.054 0.655614 -2.47256 0
M  V30 1707 H 167.698 1.56482 -4.83193 0
M  V30 1708 H 167.628 3.21698 -4.16915 0
M  V30 1709 H 170.119 1.97585 -3.22131 0
M  V30 1710 H 170.432 3.49434 -6.89287 0
M  V30 1711 H 168.777 3.14875 -6.1958 0
M  V30 1712 H 171.968 2.37525 -4.0336 0
M  V30 1713 H 172.141 3.06789 -5.70775 0
M  V30 1714 N 165.547 1.27147 0.931209 0
M  V30 1715 C 166.495 1.09398 2.05268 0
M  V30 1716 C 167.489 0.0180591 1.6939 0
M  V30 1717 O 168.695 0.17551 1.79142 0
M  V30 1718 H 165.07 0.336986 0.672268 0
M  V30 1719 H 167.041 2.04416 2.17386 0
M  V30 1720 C 165.79 0.75424 3.39421 0
M  V30 1721 H 165.113 1.57404 3.67511 0
M  V30 1722 H 166.553 0.669903 4.18674 0
M  V30 1723 C 165.012 -0.541197 3.32525 0
M  V30 1724 O 165.542 -1.57664 3.69466 0
M  V30 1725 N 163.748 -0.535517 2.85623 0
M  V30 1726 H 163.295 0.307511 2.55758 0
M  V30 1727 H 163.253 -1.40236 2.81392 0
M  V30 1728 N 167.025 -1.13721 1.09112 0
M  V30 1729 C 168.271 -1.85198 0.826414 0
M  V30 1730 C 168.604 -1.83129 -0.646319 0
M  V30 1731 O 167.879 -1.2671 -1.47563 0
M  V30 1732 C 168.162 -3.33507 1.35812 0
M  V30 1733 C 168.015 -3.44108 2.89672 0
M  V30 1734 C 169.334 -4.28838 0.989256 0
M  V30 1735 H 166.453 -0.67243 0.301675 0
M  V30 1736 H 169.095 -1.33499 1.35197 0
M  V30 1737 H 167.245 -3.77666 0.911082 0
M  V30 1738 H 168.917 -3.08684 3.428 0
M  V30 1739 H 167.16 -2.85087 3.26967 0
M  V30 1740 H 167.831 -4.48388 3.21951 0
M  V30 1741 H 170.307 -3.92734 1.37475 0
M  V30 1742 H 169.183 -5.31051 1.38838 0
M  V30 1743 H 169.444 -4.4198 -0.102924 0
M  V30 1744 N 168.503 -0.877838 -1.30888 0
M  V30 1745 C 169.466 -0.344265 -2.266 0
M  V30 1746 C 170.466 0.50922 -1.52524 0
M  V30 1747 O 171.656 0.317398 -1.71284 0
M  V30 1748 C 168.788 0.510198 -3.37061 0
M  V30 1749 H 169.981 -1.1893 -2.7531 0
M  V30 1750 H 167.534 -0.654088 -1.41956 0
M  V30 1751 H 168.269 1.37612 -2.93655 0
M  V30 1752 H 168.054 -0.101047 -3.9197 0
M  V30 1753 H 169.544 0.875537 -4.08319 0
M  V30 1754 N 169.982 1.44106 -0.638065 0
M  V30 1755 C 171.231 2.01194 -0.142744 0
M  V30 1756 C 171.544 1.50835 1.24532 0
M  V30 1757 O 172.75 2.00096 1.83504 0
M  V30 1758 C 171.206 3.59319 -0.20442 0
M  V30 1759 C 170.814 4.18674 -1.59423 0
M  V30 1760 C 172.558 4.23854 0.234079 0
M  V30 1761 C 170.465 5.69045 -1.61065 0
M  V30 1762 H 169.395 0.752367 -0.0495998 0
M  V30 1763 H 172.046 1.65246 -0.797881 0
M  V30 1764 H 170.428 3.92598 0.517946 0
M  V30 1765 H 171.602 3.96921 -2.34074 0
M  V30 1766 H 169.917 3.66453 -1.97741 0
M  V30 1767 H 172.514 5.34155 0.241443 0
M  V30 1768 H 172.857 3.96688 1.2627 0
M  V30 1769 H 173.39 3.95403 -0.436025 0
M  V30 1770 H 170.129 6.00956 -2.61787 0
M  V30 1771 H 169.649 5.929 -0.90718 0
M  V30 1772 H 171.328 6.32809 -1.34766 0
M  V30 1773 N 171.46 0.379036 1.52974 0
M  V30 1774 C 172.393 -0.504932 2.22544 0
M  V30 1775 C 173.371 -1.0723 1.22231 0
M  V30 1776 O 174.555 -1.12589 1.51182 0
M  V30 1777 C 171.682 -1.69794 2.93066 0
M  V30 1778 C 170.728 -1.25678 4.07563 0
M  V30 1779 S 171.561 -0.246852 5.34931 0
M  V30 1780 C 172.717 -1.44588 6.08971 0
M  V30 1781 H 172.95 0.0858666 2.97176 0
M  V30 1782 H 170.483 0.163183 1.53535 0
M  V30 1783 H 172.441 -2.38219 3.34308 0
M  V30 1784 H 171.102 -2.26002 2.18133 0
M  V30 1785 H 170.295 -2.14725 4.5597 0
M  V30 1786 H 169.897 -0.651584 3.6828 0
M  V30 1787 H 172.189 -2.37469 6.34519 0
M  V30 1788 H 173.132 -1.00292 7.00962 0
M  V30 1789 H 173.54 -1.65804 5.39601 0
M  V30 1790 N 172.938 -1.57226 0.108567 0
M  V30 1791 C 173.885 -2.14756 -0.845481 0
M  V30 1792 C 174.855 -1.06971 -1.27068 0
M  V30 1793 O 176.04 -1.34827 -1.35005 0
M  V30 1794 C 173.18 -2.74298 -2.09415 0
M  V30 1795 C 172.293 -3.96358 -1.71826 0
M  V30 1796 C 171.428 -4.44021 -2.9158 0
M  V30 1797 C 170.467 -5.58637 -2.50181 0
M  V30 1798 N 169.604 -6.01091 -3.62814 0
M  V30 1799 H 174.444 -2.95961 -0.348035 0
M  V30 1800 H 171.981 -1.46226 -0.160106 0
M  V30 1801 H 173.939 -3.06945 -2.82561 0
M  V30 1802 H 172.569 -1.95801 -2.56636 0
M  V30 1803 H 171.621 -3.69939 -0.885947 0
M  V30 1804 H 172.933 -4.79504 -1.37394 0
M  V30 1805 H 172.087 -4.78522 -3.72963 0
M  V30 1806 H 170.826 -3.59803 -3.29231 0
M  V30 1807 H 169.831 -5.23751 -1.67228 0
M  V30 1808 H 171.056 -6.44613 -2.13659 0
M  V30 1809 H 169.002 -5.19817 -4.00158 0
M  V30 1810 H 168.919 -6.79066 -3.32273 0
M  V30 1811 H 170.187 -6.40227 -4.44668 0
M  V30 1812 N 174.416 0.165178 -1.56732 0
M  V30 1813 C 175.641 0.900253 -1.86843 0
M  V30 1814 C 176.066 1.74766 -0.695596 0
M  V30 1815 O 175.424 1.77786 0.35522 0
M  V30 1816 C 175.472 1.74777 -3.15413 0
M  V30 1817 O 174.576 2.85007 -2.98068 0
M  V30 1818 H 173.917 0.251832 -0.614391 0
M  V30 1819 H 176.447 0.161468 -2.03962 0
M  V30 1820 H 176.457 2.14646 -3.46974 0
M  V30 1821 H 175.132 1.12537 -4.00385 0
M  V30 1822 H 173.709 2.48676 -2.77875 0
M  V30 1823 N 175.894 1.51508 0.433938 0
M  V30 1824 C 177.143 1.63578 1.18005 0
M  V30 1825 C 177.456 0.359514 1.92268 0
M  V30 1826 O 178.662 0.359632 2.69108 0
M  V30 1827 C 177.118 2.88901 2.14626 0
M  V30 1828 C 176.726 4.23544 1.45995 0
M  V30 1829 C 178.47 3.10328 2.89649 0
M  V30 1830 C 176.377 5.40014 2.4112 0
M  V30 1831 H 175.307 0.609277 0.444182 0
M  V30 1832 H 177.958 1.77978 0.446773 0
M  V30 1833 H 176.34 2.68142 2.91403 0
M  V30 1834 H 177.514 4.54696 0.747532 0
M  V30 1835 H 175.829 4.08021 0.831115 0
M  V30 1836 H 178.426 3.94518 3.60915 0
M  V30 1837 H 178.769 2.23544 3.51189 0
M  V30 1838 H 179.302 3.31443 2.19978 0
M  V30 1839 H 176.041 6.29068 1.84264 0
M  V30 1840 H 175.561 5.13233 3.10406 0
M  V30 1841 H 177.24 5.72099 3.02177 0
M  V30 1842 N 177.372 -0.689602 1.41712 0
M  V30 1843 C 178.621 -1.44534 1.40686 0
M  V30 1844 C 178.934 -1.95588 0.0213352 0
M  V30 1845 O 180.14 -2.71271 -0.111534 0
M  V30 1846 C 178.596 -2.61387 2.47396 0
M  V30 1847 C 178.204 -2.17094 3.91885 0
M  V30 1848 C 179.948 -3.38986 2.55517 0
M  V30 1849 C 177.855 -3.3094 4.90135 0
M  V30 1850 H 176.785 -0.542925 0.52321 0
M  V30 1851 H 179.436 -0.748054 1.6756 0
M  V30 1852 H 177.818 -3.33412 2.13664 0
M  V30 1853 H 178.992 -1.52318 4.34897 0
M  V30 1854 H 177.307 -1.52473 3.8748 0
M  V30 1855 H 179.904 -4.23747 3.26102 0
M  V30 1856 H 180.247 -3.84578 1.59391 0
M  V30 1857 H 180.78 -2.74021 2.8837 0
M  V30 1858 H 177.519 -2.90355 5.87685 0
M  V30 1859 H 177.039 -3.94546 4.51767 0
M  V30 1860 H 178.718 -3.9663 5.11169 0
M  V30 1861 N 178.85 -1.27639 -0.924453 0
M  V30 1862 C 180.261 -1.12834 -1.48746 0
M  V30 1863 C 180.612 0.285505 -1.94112 0
M  V30 1864 O 179.737 1.17874 -1.81479 0
M  V30 1865 C 180.332 -2.04217 -2.70334 0
M  V30 1866 C 178.891 -1.93509 -3.22848 0
M  V30 1867 C 178.038 -1.96583 -1.95577 0
M  V30 1868 H 180.989 -1.40484 -0.738233 0
M  V30 1869 H 181.01 -1.59989 -3.4523 0
M  V30 1870 H 180.522 -3.07111 -2.37285 0
M  V30 1871 H 178.623 -0.936131 -3.60649 0
M  V30 1872 H 178.736 -2.79917 -3.88823 0
M  V30 1873 H 177.1 -1.4085 -2.12211 0
M  V30 1874 H 177.883 -3.01137 -1.64837 0
M  V30 1875 N 180.328 1.1314 -1.09713 0
M  V30 1876 C 181.291 2.16831 -0.742751 0
M  V30 1877 C 182.291 1.59159 0.229129 0
M  V30 1878 O 183.481 1.74199 0.00693237 0
M  V30 1879 C 180.613 3.40756 -0.0989168 0
M  V30 1880 H 181.806 2.49695 -1.66109 0
M  V30 1881 H 179.359 1.2802 -0.896699 0
M  V30 1882 H 180.094 3.13485 0.830514 0
M  V30 1883 H 179.879 3.83888 -0.798265 0
M  V30 1884 H 181.369 4.17386 0.133524 0
M  V30 1885 N 181.806 0.884767 1.30421 0
M  V30 1886 C 183.055 0.499164 1.95426 0
M  V30 1887 C 183.368 -0.95645 1.70621 0
M  V30 1888 O 184.574 -1.44889 2.29607 0
M  V30 1889 C 183.03 0.84177 3.49917 0
M  V30 1890 C 182.638 2.31514 3.83543 0
M  V30 1891 C 184.382 0.525355 4.21237 0
M  V30 1892 C 182.289 2.59939 5.31212 0
M  V30 1893 H 181.219 0.182944 0.73147 0
M  V30 1894 H 183.87 1.07971 1.48373 0
M  V30 1895 H 182.252 0.190311 3.95542 0
M  V30 1896 H 183.426 3.0109 3.48829 0
M  V30 1897 H 181.741 2.59907 3.25326 0
M  V30 1898 H 184.338 0.714762 5.29901 0
M  V30 1899 H 184.681 -0.535222 4.12845 0
M  V30 1900 H 185.214 1.134 3.81294 0
M  V30 1901 H 181.953 3.64736 5.44654 0
M  V30 1902 H 181.473 1.94972 5.67227 0
M  V30 1903 H 183.152 2.45429 5.98643 0
M  V30 1904 N 183.284 -1.43765 0.645699 0
M  V30 1905 C 184.53 -2.02197 0.156271 0
M  V30 1906 C 184.863 -1.50776 -1.22393 0
M  V30 1907 O 184.138 -0.697771 -1.81553 0
M  V30 1908 C 184.421 -3.59749 0.158872 0
M  V30 1909 C 184.274 -4.21419 1.57245 0
M  V30 1910 C 185.593 -4.37149 -0.50879 0
M  V30 1911 H 182.712 -0.734694 0.0582602 0
M  V30 1912 H 185.354 -1.71157 0.824951 0
M  V30 1913 H 183.504 -3.86325 -0.410525 0
M  V30 1914 H 185.176 -4.059 2.19186 0
M  V30 1915 H 183.419 -3.78356 2.122 0
M  V30 1916 H 184.09 -5.30482 1.52619 0
M  V30 1917 H 186.566 -4.16093 -0.024412 0
M  V30 1918 H 185.442 -5.4683 -0.476213 0
M  V30 1919 H 185.703 -4.12839 -1.58165 0
M  V30 1920 N 184.763 -0.387143 -1.52771 0
M  V30 1921 C 185.713 0.465942 -2.23188 0
M  V30 1922 C 186.697 1.03138 -1.23496 0
M  V30 1923 O 187.889 0.957845 -1.48843 0
M  V30 1924 C 185.018 1.59384 -3.04059 0
M  V30 1925 C 184.104 1.04024 -4.11144 0
M  V30 1926 N 184.495 0.211416 -5.05358 0
M  V30 1927 C 182.793 1.31295 -4.26237 0
M  V30 1928 C 183.494 -0.0941698 -5.81624 0
M  V30 1929 N 182.47 0.509207 -5.4121 0
M  V30 1930 H 186.272 -0.173856 -2.93385 0
M  V30 1931 H 183.786 -0.19633 -1.61209 0
M  V30 1932 H 185.783 2.21738 -3.53041 0
M  V30 1933 H 184.443 2.23648 -2.35397 0
M  V30 1934 H 185.454 -0.151151 -5.17679 0
M  V30 1935 H 182.131 1.95679 -3.68803 0
M  V30 1936 H 183.521 -0.765572 -6.67524 0
M  V30 1937 N 186.241 1.57166 -0.116904 0
M  V30 1938 C 187.471 1.99184 0.548586 0
M  V30 1939 C 187.879 0.995436 1.60897 0
M  V30 1940 O 187.222 -0.0201293 1.83689 0
M  V30 1941 C 187.284 3.37611 1.23526 0
M  V30 1942 C 186.948 4.55857 0.323077 0
M  V30 1943 C 187.945 5.18056 -0.437476 0
M  V30 1944 C 185.63 5.01751 0.234761 0
M  V30 1945 C 187.624 6.24536 -1.2741 0
M  V30 1946 C 185.311 6.08093 -0.605496 0
M  V30 1947 C 186.309 6.69352 -1.35856 0
M  V30 1948 O 185.997 7.7364 -2.18487 0
M  V30 1949 H 185.729 0.659148 0.149999 0
M  V30 1950 H 188.283 2.0443 -0.199428 0
M  V30 1951 H 186.513 3.29113 2.0303 0
M  V30 1952 H 188.202 3.63932 1.79745 0
M  V30 1953 H 188.968 4.83516 -0.379105 0
M  V30 1954 H 184.847 4.53817 0.810601 0
M  V30 1955 H 188.391 6.72281 -1.86237 0
M  V30 1956 H 184.288 6.42063 -0.665268 0
M  V30 1957 H 185.056 7.90727 -2.11406 0
M  V30 1958 N 187.719 -0.156864 1.56817 0
M  V30 1959 C 188.944 -0.890331 1.87318 0
M  V30 1960 C 189.369 -1.74394 0.704855 0
M  V30 1961 O 188.727 -1.77972 -0.345786 0
M  V30 1962 C 188.775 -1.73102 3.16336 0
M  V30 1963 O 187.879 -2.83422 2.99576 0
M  V30 1964 H 187.22 -0.24857 0.615718 0
M  V30 1965 H 189.75 -0.150649 2.04045 0
M  V30 1966 H 189.76 -2.12803 3.48107 0
M  V30 1967 H 188.435 -1.10412 4.00976 0
M  V30 1968 H 187.012 -2.47199 2.7919 0
M  V30 1969 N 189.197 -1.51736 -0.425897 0
M  V30 1970 C 190.608 -1.5732 -1.00536 0
M  V30 1971 C 190.959 -0.403537 -1.92005 0
M  V30 1972 O 190.084 0.478256 -2.11049 0
M  V30 1973 C 190.679 -2.85119 -1.8301 0
M  V30 1974 C 189.238 -2.93236 -2.35987 0
M  V30 1975 C 188.385 -2.52098 -1.15508 0
M  V30 1976 H 191.336 -1.57348 -0.206739 0
M  V30 1977 H 191.357 -2.69526 -2.68581 0
M  V30 1978 H 190.869 -3.7023 -1.16411 0
M  V30 1979 H 188.97 -2.12581 -3.06007 0
M  V30 1980 H 189.083 -3.9713 -2.68001 0
M  V30 1981 H 187.447 -2.05558 -1.50393 0
M  V30 1982 H 188.23 -3.39565 -0.505014 0
M  V30 1983 N 190.675 0.682077 -1.42076 0
M  V30 1984 C 191.952 1.43755 -1.32642 0
M  V30 1985 C 192.332 2.11063 0.0396611 0
M  V30 1986 O 191.68 2.02701 1.05474 0
M  V30 1987 C 191.89 2.44596 -2.48946 0
M  V30 1988 C 193.238 3.09454 -2.9073 0
M  V30 1989 O 194.262 2.54922 -2.48783 0
M  V30 1990 O 193.121 4.08253 -3.63307 0
M  V30 1991 H 190.215 0.640857 -0.522715 0
M  V30 1992 H 192.761 0.711415 -1.54068 0
M  V30 1993 H 191.533 1.93609 -3.40046 0
M  V30 1994 H 191.156 3.24701 -2.29467 0
M  V30 1995 N 192.153 1.28127 0.917671 0
M  V30 1996 C 193.393 1.163 1.68088 0
M  V30 1997 C 193.757 -0.284515 1.8988 0
M  V30 1998 O 194.958 -0.525413 2.63615 0
M  V30 1999 C 193.229 1.93546 3.00457 0
M  V30 2000 S 194.788 1.98048 3.91564 0
M  V30 2001 H 191.606 0.415005 0.577315 0
M  V30 2002 H 194.208 1.62173 1.09179 0
M  V30 2003 H 192.912 2.97888 2.82295 0
M  V30 2004 H 192.443 1.48207 3.64415 0
M  V30 2005 H 194.458 1.08415 4.84211 0
M  V30 2006 N 193.631 -1.12557 1.10312 0
M  V30 2007 C 194.578 -2.18247 0.750781 0
M  V30 2008 C 195.548 -1.63853 -0.272293 0
M  V30 2009 O 196.733 -1.90195 -0.151862 0
M  V30 2010 C 193.873 -3.44591 0.187379 0
M  V30 2011 C 192.986 -4.13046 1.2656 0
M  V30 2012 C 192.121 -5.27034 0.663978 0
M  V30 2013 C 191.16 -5.87353 1.72287 0
M  V30 2014 N 190.297 -6.92757 1.1416 0
M  V30 2015 H 195.137 -2.47732 1.65628 0
M  V30 2016 H 192.674 -1.21629 0.827337 0
M  V30 2017 H 194.632 -4.16904 -0.157148 0
M  V30 2018 H 193.262 -3.15527 -0.681355 0
M  V30 2019 H 192.314 -3.38924 1.72727 0
M  V30 2020 H 193.626 -4.53947 2.06721 0
M  V30 2021 H 192.78 -6.06104 0.268824 0
M  V30 2022 H 191.519 -4.87407 -0.169082 0
M  V30 2023 H 190.524 -5.06971 2.12746 0
M  V30 2024 H 191.749 -6.29051 2.55875 0
M  V30 2025 H 189.695 -6.5517 0.329984 0
M  V30 2026 H 189.612 -7.3225 1.88007 0
M  V30 2027 H 190.88 -7.75658 0.772956 0
M  V30 2028 N 195.109 -0.891671 -1.2995 0
M  V30 2029 C 196.358 -0.509521 -1.95158 0
M  V30 2030 C 196.671 0.947388 -1.71125 0
M  V30 2031 O 197.877 1.43669 -2.30372 0
M  V30 2032 C 196.333 -0.860315 -3.49466 0
M  V30 2033 C 195.941 -2.33545 -3.8231 0
M  V30 2034 C 197.685 -0.547687 -4.20952 0
M  V30 2035 C 195.592 -2.62752 -5.29826 0
M  V30 2036 H 194.522 -0.18682 -0.730489 0
M  V30 2037 H 197.173 -1.08756 -1.47798 0
M  V30 2038 H 195.555 -0.211285 -3.95436 0
M  V30 2039 H 196.729 -3.02936 -3.47227 0
M  V30 2040 H 195.044 -2.61629 -3.23944 0
M  V30 2041 H 197.641 -0.742854 -5.29515 0
M  V30 2042 H 197.984 0.51332 -4.13123 0
M  V30 2043 H 198.517 -1.1542 -3.80688 0
M  V30 2044 H 195.256 -3.6762 -5.42712 0
M  V30 2045 H 194.776 -1.97977 -5.66185 0
M  V30 2046 H 196.455 -2.48601 -5.97333 0
M  V30 2047 N 196.587 1.43421 -0.653314 0
M  V30 2048 C 197.517 2.33487 0.0246656 0
M  V30 2049 C 198.498 1.49475 0.811863 0
M  V30 2050 O 199.683 1.78139 0.773322 0
M  V30 2051 C 196.813 3.32841 0.99166 0
M  V30 2052 C 195.767 4.26842 0.314568 0
M  V30 2053 C 195.093 5.16236 1.39302 0
M  V30 2054 C 196.393 5.16243 -0.793095 0
M  V30 2055 H 198.087 2.90427 -0.727481 0
M  V30 2056 H 195.633 1.39649 -0.351287 0
M  V30 2057 H 197.586 3.94747 1.47487 0
M  V30 2058 H 196.31 2.74158 1.77497 0
M  V30 2059 H 194.969 3.663 -0.148199 0
M  V30 2060 H 194.617 4.53891 2.16776 0
M  V30 2061 H 194.317 5.79948 0.945223 0
M  V30 2062 H 195.841 5.81015 1.87759 0
M  V30 2063 H 197.255 5.71958 -0.392039 0
M  V30 2064 H 195.652 5.88676 -1.16536 0
M  V30 2065 H 196.722 4.55927 -1.65103 0
M  V30 2066 N 198.065 0.39524 1.52563 0
M  V30 2067 C 199.311 -0.185318 2.01952 0
M  V30 2068 C 199.644 -1.45964 1.28095 0
M  V30 2069 O 198.919 -1.90689 0.38315 0
M  V30 2070 C 199.202 -0.447193 3.57312 0
M  V30 2071 C 199.055 0.842828 4.41833 0
M  V30 2072 C 200.374 -1.23529 4.22408 0
M  V30 2073 H 197.493 -0.0658788 0.73405 0
M  V30 2074 H 200.135 0.525975 1.82575 0
M  V30 2075 H 198.285 -1.05312 3.73954 0
M  V30 2076 H 199.957 1.4795 4.36931 0
M  V30 2077 H 198.2 1.45686 4.08605 0
M  V30 2078 H 198.871 0.614165 5.48573 0
M  V30 2079 H 201.347 -0.722445 4.0978 0
M  V30 2080 H 200.223 -1.38727 5.3108 0
M  V30 2081 H 200.484 -2.25213 3.80436 0
M  V30 2082 N 199.544 -1.57102 0.125237 0
M  V30 2083 C 200.79 -1.95697 -0.532035 0
M  V30 2084 C 201.123 -1.009 -1.6593 0
M  V30 2085 O 200.398 -0.047347 -1.94442 0
M  V30 2086 C 200.681 -3.44181 -1.05884 0
M  V30 2087 C 200.534 -4.49752 0.0654392 0
M  V30 2088 C 201.853 -3.94655 -1.9477 0
M  V30 2089 H 198.972 -0.711571 -0.191925 0
M  V30 2090 H 201.614 -1.88923 0.20206 0
M  V30 2091 H 199.764 -3.50085 -1.68442 0
M  V30 2092 H 201.436 -4.55943 0.700982 0
M  V30 2093 H 199.679 -4.27653 0.727709 0
M  V30 2094 H 200.35 -5.50924 -0.344505 0
M  V30 2095 H 202.826 -3.91094 -1.42074 0
M  V30 2096 H 201.702 -4.99057 -2.28546 0
M  V30 2097 H 201.963 -3.35718 -2.87656 0
M  V30 2098 N 201.022 0.148545 -1.56898 0
M  V30 2099 C 202.247 0.880385 -1.87787 0
M  V30 2100 C 202.672 1.74018 -0.714093 0
M  V30 2101 O 202.03 1.78153 0.336343 0
M  V30 2102 C 202.078 1.71422 -3.17249 0
M  V30 2103 O 201.182 2.8183 -3.01074 0
M  V30 2104 H 200.523 0.245301 -0.617028 0
M  V30 2105 H 203.053 0.139826 -2.04122 0
M  V30 2106 H 203.063 2.10954 -3.49231 0
M  V30 2107 H 201.738 1.08284 -4.01556 0
M  V30 2108 H 200.315 2.45715 -2.80497 0
M  V30 2109 N 202.5 1.5196 0.417844 0
M  V30 2110 C 203.448 1.75278 1.52907 0
M  V30 2111 C 204.442 0.619611 1.57662 0
M  V30 2112 O 205.648 0.801457 1.61173 0
M  V30 2113 H 202.023 0.554141 0.508362 0
M  V30 2114 H 203.994 2.68389 1.30422 0
M  V30 2115 C 202.743 1.91262 2.90369 0
M  V30 2116 H 202.066 2.77872 2.8745 0
M  V30 2117 H 203.506 2.11581 3.67436 0
M  V30 2118 C 201.965 0.677431 3.30019 0
M  V30 2119 O 202.495 -0.158799 4.01386 0
M  V30 2120 N 200.701 0.515851 2.85985 0
M  V30 2121 H 200.248 1.19744 2.28077 0
M  V30 2122 H 200.206 -0.309315 3.12875 0
M  V30 2123 N 203.978 -0.674533 1.42435 0
M  V30 2124 C 205.389 -1.25514 1.38214 0
M  V30 2125 C 205.74 -1.96055 0.0755464 0
M  V30 2126 O 204.865 -2.00028 -0.8257 0
M  V30 2127 C 205.46 -2.28269 2.50357 0
M  V30 2128 C 204.019 -2.81856 2.49467 0
M  V30 2129 C 203.166 -1.56182 2.29134 0
M  V30 2130 H 206.117 -0.467902 1.51646 0
M  V30 2131 H 206.138 -3.10009 2.20624 0
M  V30 2132 H 205.65 -1.769 3.45439 0
M  V30 2133 H 203.751 -3.37346 1.58204 0
M  V30 2134 H 203.864 -3.30854 3.46515 0
M  V30 2135 H 202.228 -1.82761 1.774 0
M  V30 2136 H 203.011 -1.06778 3.26272 0
M  V30 2137 N 205.456 -1.28612 -0.910864 0
M  V30 2138 C 206.702 -1.16106 -1.66274 0
M  V30 2139 C 207.035 0.289113 -1.92036 0
M  V30 2140 O 206.31 1.21 -1.52281 0
M  V30 2141 C 206.593 -1.96309 -3.01885 0
M  V30 2142 C 206.446 -3.49405 -2.8326 0
M  V30 2143 C 207.765 -1.78076 -4.02463 0
M  V30 2144 H 204.884 -0.423152 -0.603417 0
M  V30 2145 H 207.526 -1.57961 -1.05586 0
M  V30 2146 H 205.676 -1.60742 -3.53687 0
M  V30 2147 H 207.348 -3.94894 -2.38446 0
M  V30 2148 H 205.591 -3.74893 -2.18261 0
M  V30 2149 H 206.262 -4.00784 -3.79574 0
M  V30 2150 H 208.738 -2.0912 -3.59733 0
M  V30 2151 H 207.614 -2.36561 -4.95308 0
M  V30 2152 H 207.875 -0.733008 -4.35981 0
M  V30 2153 N 206.934 1.1197 -1.10907 0
M  V30 2154 C 208.211 1.79959 -0.766432 0
M  V30 2155 C 208.591 1.97466 0.746363 0
M  V30 2156 O 207.939 1.55491 1.67436 0
M  V30 2157 C 208.149 3.14009 -1.52314 0
M  V30 2158 C 209.497 3.89134 -1.69883 0
M  V30 2159 O 210.521 3.2368 -1.48692 0
M  V30 2160 O 209.38 5.06572 -2.05054 0
M  V30 2161 H 206.474 0.779208 -0.277062 0
M  V30 2162 H 209.02 1.18762 -1.21217 0
M  V30 2163 H 207.792 2.96587 -2.55249 0
M  V30 2164 H 207.415 3.82915 -1.07059 0
M  V30 2165 N 208.412 0.89855 1.29475 0
M  V30 2166 C 209.661 0.519863 1.94885 0
M  V30 2167 C 209.974 -0.9383 1.71625 0
M  V30 2168 O 211.18 -1.42445 2.31131 0
M  V30 2169 C 209.636 0.878836 3.49005 0
M  V30 2170 C 209.244 2.35569 3.81066 0
M  V30 2171 C 210.988 0.570004 4.20656 0
M  V30 2172 C 208.895 2.65558 5.28425 0
M  V30 2173 H 207.825 0.190692 0.729488 0
M  V30 2174 H 210.476 1.09539 1.47219 0
M  V30 2175 H 208.858 0.232253 3.95318 0
M  V30 2176 H 210.032 3.04773 3.45616 0
M  V30 2177 H 208.347 2.63343 3.22552 0
M  V30 2178 H 210.944 0.770925 5.29113 0
M  V30 2179 H 211.287 -0.491404 4.1339 0
M  V30 2180 H 211.82 1.17438 3.8007 0
M  V30 2181 H 208.559 3.70493 5.40754 0
M  V30 2182 H 208.079 2.00977 5.65127 0
M  V30 2183 H 209.758 2.51765 5.96006 0
M  V30 2184 N 209.89 -1.43072 0.660911 0
M  V30 2185 C 210.82 -2.33497 -0.0122829 0
M  V30 2186 C 211.801 -1.49903 -0.803925 0
M  V30 2187 O 212.986 -1.78546 -0.763864 0
M  V30 2188 C 210.116 -3.33363 -0.973994 0
M  V30 2189 C 209.07 -4.27003 -0.291928 0
M  V30 2190 C 208.396 -5.16967 -1.36562 0
M  V30 2191 C 209.696 -5.15816 0.820462 0
M  V30 2192 H 211.39 -2.90038 0.742873 0
M  V30 2193 H 208.936 -1.39461 0.358688 0
M  V30 2194 H 210.889 -3.95524 -1.45392 0
M  V30 2195 H 209.613 -2.75095 -1.7604 0
M  V30 2196 H 208.272 -3.66217 0.167623 0
M  V30 2197 H 207.92 -4.55034 -2.14366 0
M  V30 2198 H 207.62 -5.80441 -0.914454 0
M  V30 2199 H 209.144 -5.82003 -1.84675 0
M  V30 2200 H 210.558 -5.71742 0.422366 0
M  V30 2201 H 208.955 -5.8805 1.19656 0
M  V30 2202 H 210.025 -4.55045 1.67518 0
M  V30 2203 N 211.368 -0.403325 -1.52352 0
M  V30 2204 C 212.596 0.174012 -2.06167 0
M  V30 2205 C 213.011 1.39347 -1.27388 0
M  V30 2206 O 212.368 1.79597 -0.324201 0
M  V30 2207 C 212.419 0.530223 -3.5759 0
M  V30 2208 O 212.14 -0.640806 -4.33388 0
M  V30 2209 C 213.641 1.16192 -4.27802 0
M  V30 2210 H 210.861 0.0229464 -0.670608 0
M  V30 2211 H 213.405 -0.572604 -1.9632 0
M  V30 2212 H 211.56 1.22673 -3.67464 0
M  V30 2213 H 211.974 -0.344851 -5.23365 0
M  V30 2214 H 213.448 1.36141 -5.34948 0
M  V30 2215 H 213.925 2.13335 -3.83907 0
M  V30 2216 H 214.531 0.505775 -4.22282 0
M  V30 2217 N 212.846 1.57033 -0.133567 0
M  V30 2218 C 214.076 1.99754 0.527429 0
M  V30 2219 C 214.484 1.01245 1.59832 0
M  V30 2220 O 213.827 -0.000645496 1.837 0
M  V30 2221 C 213.889 3.38903 1.19939 0
M  V30 2222 C 213.553 4.56174 0.274709 0
M  V30 2223 C 214.55 5.17563 -0.492398 0
M  V30 2224 C 212.235 5.01972 0.18153 0
M  V30 2225 C 214.229 6.2315 -1.34027 0
M  V30 2226 C 211.916 6.07416 -0.669958 0
M  V30 2227 C 212.914 6.67874 -1.42947 0
M  V30 2228 O 212.602 7.71279 -2.2668 0
M  V30 2229 H 212.334 0.660702 0.142999 0
M  V30 2230 H 214.888 2.04207 -0.221099 0
M  V30 2231 H 213.118 3.31248 1.99528 0
M  V30 2232 H 214.807 3.65818 1.75875 0
M  V30 2233 H 215.573 4.83087 -0.430367 0
M  V30 2234 H 211.452 4.54652 0.762422 0
M  V30 2235 H 214.996 6.70268 -1.93357 0
M  V30 2236 H 210.893 6.41321 -0.73333 0
M  V30 2237 H 211.661 7.88441 -2.1978 0
M  V30 2238 N 214.325 -0.140222 1.56975 0
M  V30 2239 C 215.574 -0.850152 1.82908 0
M  V30 2240 C 215.887 -1.82028 0.715892 0
M  V30 2241 O 217.093 -2.57485 0.861016 0
M  V30 2242 C 215.549 -1.5625 3.24213 0
M  V30 2243 C 215.157 -0.63443 4.43485 0
M  V30 2244 C 216.901 -2.25881 3.59413 0
M  V30 2245 C 214.808 -1.34879 5.75814 0
M  V30 2246 H 213.738 -0.321221 0.682153 0
M  V30 2247 H 216.389 -0.102874 1.83211 0
M  V30 2248 H 214.771 -2.35565 3.18316 0
M  V30 2249 H 215.945 0.12398 4.60633 0
M  V30 2250 H 214.26 -0.0461836 4.16374 0
M  V30 2251 H 216.857 -2.79978 4.5554 0
M  V30 2252 H 217.2 -3.02693 2.85802 0
M  V30 2253 H 217.733 -1.53477 3.67001 0
M  V30 2254 H 214.472 -0.622385 6.52539 0
M  V30 2255 H 213.992 -2.07974 5.6259 0
M  V30 2256 H 215.671 -1.88784 6.18845 0
M  V30 2257 N 215.803 -1.52179 -0.40978 0
M  V30 2258 C 217.049 -1.66453 -1.15851 0
M  V30 2259 C 217.382 -0.392972 -1.90182 0
M  V30 2260 O 216.657 0.608579 -1.84734 0
M  V30 2261 C 216.94 -2.88612 -2.15349 0
M  V30 2262 C 216.793 -4.25815 -1.44918 0
M  V30 2263 C 218.112 -3.06294 -3.16026 0
M  V30 2264 H 215.231 -0.60575 -0.419805 0
M  V30 2265 H 217.873 -1.84732 -0.444314 0
M  V30 2266 H 216.023 -2.73158 -2.76255 0
M  V30 2267 H 217.695 -4.52995 -0.871365 0
M  V30 2268 H 215.938 -4.27247 -0.751159 0
M  V30 2269 H 216.609 -5.07337 -2.17516 0
M  V30 2270 H 219.085 -3.20641 -2.65195 0
M  V30 2271 H 217.961 -3.93283 -3.8291 0
M  V30 2272 H 218.222 -2.19579 -3.83715 0
M  V30 2273 N 217.281 0.66697 -1.42791 0
M  V30 2274 C 218.527 1.42754 -1.44889 0
M  V30 2275 C 218.882 1.92283 -0.0669755 0
M  V30 2276 O 218.175 1.68494 0.912154 0
M  V30 2277 C 218.369 2.6349 -2.4147 0
M  V30 2278 C 218.198 2.25776 -3.88915 0
M  V30 2279 C 216.968 2.1476 -4.57391 0
M  V30 2280 C 219.166 1.86927 -4.79127 0
M  V30 2281 N 217.148 1.70232 -5.89826 0
M  V30 2282 C 218.519 1.53378 -6.00729 0
M  V30 2283 C 220.574 1.73989 -4.66511 0
M  V30 2284 C 219.277 1.08187 -7.11117 0
M  V30 2285 C 221.303 1.30203 -5.76889 0
M  V30 2286 C 220.665 0.975818 -6.97608 0
M  V30 2287 H 216.764 0.518559 -0.585338 0
M  V30 2288 H 219.348 0.768906 -1.78874 0
M  V30 2289 H 217.519 3.27033 -2.09533 0
M  V30 2290 H 219.251 3.30123 -2.34096 0
M  V30 2291 H 216.006 2.3408 -4.11708 0
M  V30 2292 H 216.43 1.50369 -6.6009 0
M  V30 2293 H 221.072 1.97853 -3.7365 0
M  V30 2294 H 218.79 0.830701 -8.03819 0
M  V30 2295 H 222.376 1.20701 -5.69142 0
M  V30 2296 H 221.256 0.642157 -7.81566 0
M  V30 2297 N 218.759 1.29093 0.90403 0
M  V30 2298 C 219.706 1.13853 2.00764 0
M  V30 2299 C 220.676 0.0330084 1.66067 0
M  V30 2300 O 221.861 0.199733 1.89752 0
M  V30 2301 C 219.001 0.816537 3.35301 0
M  V30 2302 C 218.114 2.00206 3.82807 0
M  V30 2303 C 217.249 1.61983 5.059 0
M  V30 2304 C 216.288 2.77143 5.45764 0
M  V30 2305 N 215.425 2.39346 6.60044 0
M  V30 2306 H 220.265 2.08276 2.13132 0
M  V30 2307 H 217.802 1.03648 1.04381 0
M  V30 2308 H 219.76 0.610557 4.12708 0
M  V30 2309 H 218.39 -0.090779 3.22672 0
M  V30 2310 H 217.442 2.31988 3.01473 0
M  V30 2311 H 218.754 2.86512 4.08304 0
M  V30 2312 H 217.908 1.37649 5.90879 0
M  V30 2313 H 216.647 0.728202 4.82233 0
M  V30 2314 H 215.652 3.02165 4.59322 0
M  V30 2315 H 216.877 3.66964 5.71414 0
M  V30 2316 H 214.823 1.52665 6.37989 0
M  V30 2317 H 214.74 3.19185 6.85315 0
M  V30 2318 H 216.008 2.1832 7.48303 0
M  V30 2319 N 220.237 -1.11381 1.11499 0
M  V30 2320 C 221.486 -1.82494 0.858993 0
M  V30 2321 C 221.799 -1.85605 -0.617278 0
M  V30 2322 O 223.005 -2.52824 -0.989552 0
M  V30 2323 C 221.461 -3.27745 1.48699 0
M  V30 2324 C 221.069 -3.32961 2.99735 0
M  V30 2325 C 222.813 -4.03754 1.31085 0
M  V30 2326 C 220.72 -4.72612 3.55516 0
M  V30 2327 H 219.65 -0.683802 0.317696 0
M  V30 2328 H 222.301 -1.25331 1.34031 0
M  V30 2329 H 220.683 -3.84844 0.933339 0
M  V30 2330 H 221.857 -2.85741 3.61509 0
M  V30 2331 H 220.172 -2.70433 3.16631 0
M  V30 2332 H 222.769 -5.06891 1.70192 0
M  V30 2333 H 223.112 -4.15527 0.253496 0
M  V30 2334 H 223.645 -3.53043 1.83318 0
M  V30 2335 H 220.384 -4.66036 4.60967 0
M  V30 2336 H 219.904 -5.2024 2.98513 0
M  V30 2337 H 221.583 -5.4157 3.53992 0
M  V30 2338 N 221.715 -0.905404 -1.28997 0
M  V30 2339 C 222.94 -0.549175 -1.99997 0
M  V30 2340 C 223.365 0.860276 -1.67275 0
M  V30 2341 O 222.723 1.57355 -0.900502 0
M  V30 2342 C 222.771 -0.755185 -3.52604 0
M  V30 2343 O 221.875 0.189692 -4.11964 0
M  V30 2344 H 221.216 -0.213899 -0.628604 0
M  V30 2345 H 223.746 -1.21856 -1.64354 0
M  V30 2346 H 223.756 -0.662045 -4.02593 0
M  V30 2347 H 222.431 -1.78271 -3.75755 0
M  V30 2348 H 221.008 0.0485257 -3.72868 0
M  V30 2349 N 223.193 1.4272 -0.668489 0
M  V30 2350 C 224.441 2.01226 -0.187769 0
M  V30 2351 C 224.762 1.53092 1.2078 0
M  V30 2352 O 224.032 0.74993 1.80977 0
M  V30 2353 H 222.612 0.744041 -0.0664272 0
M  V30 2354 H 225.274 1.74723 -0.863583 0
M  V30 2355 H 224.37 3.11556 -0.184166 0
M  V30 2356 N 224.671 0.411399 1.52136 0
M  V30 2357 C 225.601 -0.404015 2.29978 0
M  V30 2358 C 226.582 -1.04412 1.34284 0
M  V30 2359 O 227.767 -1.0527 1.63192 0
M  V30 2360 C 224.897 -1.5197 3.12286 0
M  V30 2361 C 223.851 -1.00448 4.16046 0
M  V30 2362 C 223.177 -2.21393 4.86712 0
M  V30 2363 C 224.477 -0.0569336 5.22269 0
M  V30 2364 H 226.171 0.245529 2.98392 0
M  V30 2365 H 223.717 0.119525 1.43503 0
M  V30 2366 H 225.67 -2.09715 3.6551 0
M  V30 2367 H 224.394 -2.19716 2.41646 0
M  V30 2368 H 223.053 -0.449421 3.63835 0
M  V30 2369 H 222.701 -2.87699 4.12599 0
M  V30 2370 H 222.401 -1.87571 5.56858 0
M  V30 2371 H 223.925 -2.7974 5.4275 0
M  V30 2372 H 225.339 -0.54325 5.7072 0
M  V30 2373 H 223.736 0.192594 5.99791 0
M  V30 2374 H 224.806 0.887663 4.76706 0
M  V30 2375 N 226.149 -1.5696 0.141893 0
M  V30 2376 C 227.56 -1.82797 -0.379776 0
M  V30 2377 C 227.911 -1.06033 -1.6508 0
M  V30 2378 O 227.036 -0.304011 -2.14254 0
M  V30 2379 C 227.631 -3.31578 -0.695802 0
M  V30 2380 C 226.19 -3.58014 -1.16201 0
M  V30 2381 C 225.337 -2.76699 -0.182455 0
M  V30 2382 H 228.288 -1.54406 0.366675 0
M  V30 2383 H 228.309 -3.47454 -1.55099 0
M  V30 2384 H 227.821 -3.87421 0.229449 0
M  V30 2385 H 225.922 -3.07553 -2.10338 0
M  V30 2386 H 226.035 -4.66501 -1.09151 0
M  V30 2387 H 224.399 -2.45618 -0.674072 0
M  V30 2388 H 225.182 -3.35311 0.736297 0
M  V30 2389 N 227.627 0.131896 -1.57047 0
M  V30 2390 C 228.873 0.843179 -1.84441 0
M  V30 2391 C 229.206 1.80129 -0.725749 0
M  V30 2392 O 228.481 1.92624 0.269469 0
M  V30 2393 C 228.764 1.60442 -3.22382 0
M  V30 2394 C 228.617 0.666782 -4.4483 0
M  V30 2395 C 229.936 2.56354 -3.5773 0
M  V30 2396 H 227.055 0.305081 -0.670891 0
M  V30 2397 H 229.697 0.107839 -1.89694 0
M  V30 2398 H 227.847 2.23128 -3.18035 0
M  V30 2399 H 229.519 0.0497646 -4.61273 0
M  V30 2400 H 227.762 -0.022609 -4.33794 0
M  V30 2401 H 228.433 1.23579 -5.37989 0
M  V30 2402 H 230.909 2.0378 -3.62785 0
M  V30 2403 H 229.785 3.06657 -4.5525 0
M  V30 2404 H 230.046 3.38419 -2.84473 0
M  V30 2405 N 229.106 1.52395 0.401703 0
M  V30 2406 C 230.334 1.70676 1.16949 0
M  V30 2407 C 230.749 0.419503 1.8408 0
M  V30 2408 O 230.106 -0.605061 1.72178 0
M  V30 2409 C 230.157 2.84753 2.22706 0
M  V30 2410 O 229.878 4.08495 1.58314 0
M  V30 2411 C 231.379 3.14608 3.12309 0
M  V30 2412 H 228.599 0.571787 0.351142 0
M  V30 2413 H 231.143 1.98987 0.471652 0
M  V30 2414 H 229.298 2.58941 2.88147 0
M  V30 2415 H 229.712 4.72117 2.28485 0
M  V30 2416 H 231.186 3.97923 3.82572 0
M  V30 2417 H 231.663 2.28464 3.75101 0
M  V30 2418 H 232.269 3.42212 2.52529 0
M  V30 2419 N 230.584 -0.659388 1.43143 0
M  V30 2420 C 232 -0.974337 1.26407 0
M  V30 2421 C 232.2 -2.007 0.179341 0
M  V30 2422 O 231.256 -2.4856 -0.444295 0
M  V30 2423 C 232.569 -1.46447 2.62628 0
M  V30 2424 C 234.117 -1.58144 2.7011 0
M  V30 2425 C 234.592 -2.1055 4.06734 0
M  V30 2426 N 236.083 -2.17861 4.08767 0
M  V30 2427 C 236.818 -2.59519 5.1131 0
M  V30 2428 N 236.314 -3.00518 6.24228 0
M  V30 2429 N 238.107 -2.59404 4.98664 0
M  V30 2430 H 230.258 0.0240528 2.12386 0
M  V30 2431 H 232.521 -0.0518065 0.946583 0
M  V30 2432 H 232.227 -0.780123 3.42939 0
M  V30 2433 H 232.101 -2.44058 2.87603 0
M  V30 2434 H 234.488 -2.25682 1.90136 0
M  V30 2435 H 234.569 -0.589828 2.48907 0
M  V30 2436 H 234.213 -1.43616 4.87172 0
M  V30 2437 H 234.143 -3.10531 4.25298 0
M  V30 2438 H 236.634 -1.88975 3.27257 0
M  V30 2439 H 236.947 -3.31036 6.98309 0
M  V30 2440 H 235.292 -2.98337 6.2771 0
M  V30 2441 H 238.483 -2.26747 4.09516 0
M  V30 2442 H 238.656 -2.91548 5.78709 0
M  V30 2443 N 232.062 -1.29571 -0.897171 0
M  V30 2444 C 233.308 -1.17863 -1.65034 0
M  V30 2445 C 233.641 0.268729 -1.92332 0
M  V30 2446 O 232.916 1.19378 -1.53555 0
M  V30 2447 C 233.199 -1.995 -2.99786 0
M  V30 2448 C 233.052 -3.5239 -2.79538 0
M  V30 2449 C 234.371 -1.82335 -4.00552 0
M  V30 2450 H 231.49 -0.429528 -0.598895 0
M  V30 2451 H 234.132 -1.59072 -1.03905 0
M  V30 2452 H 232.282 -1.64485 -3.51962 0
M  V30 2453 H 233.954 -3.97401 -2.34244 0
M  V30 2454 H 232.197 -3.77187 -2.14273 0
M  V30 2455 H 232.868 -4.04787 -3.75302 0
M  V30 2456 H 235.344 -2.12924 -3.57495 0
M  V30 2457 H 234.22 -2.41801 -4.92771 0
M  V30 2458 H 234.481 -0.779209 -4.35179 0
M  V30 2459 N 233.54 1.10788 -1.12088 0
M  V30 2460 C 234.789 1.82036 -0.868659 0
M  V30 2461 C 235.102 1.85929 0.607426 0
M  V30 2462 O 236.308 2.53346 0.97613 0
M  V30 2463 C 234.764 3.26951 -1.50435 0
M  V30 2464 C 234.372 3.31367 -3.01496 0
M  V30 2465 C 236.116 4.03053 -1.33225 0
M  V30 2466 C 234.023 4.7072 -3.58017 0
M  V30 2467 H 232.953 0.682108 -0.321318 0
M  V30 2468 H 235.604 1.24618 -1.34694 0
M  V30 2469 H 233.986 3.84343 -0.953735 0
M  V30 2470 H 235.16 2.83819 -3.6302 0
M  V30 2471 H 233.475 2.6875 -3.18061 0
M  V30 2472 H 236.072 5.05981 -1.72878 0
M  V30 2473 H 236.415 4.15387 -0.275529 0
M  V30 2474 H 236.948 3.52066 -1.85188 0
M  V30 2475 H 233.687 4.63585 -4.63432 0
M  V30 2476 H 233.207 5.1865 -3.01268 0
M  V30 2477 H 234.886 5.39685 -3.56859 0
M  V30 2478 N 235.018 0.912232 1.28515 0
M  V30 2479 C 236.266 0.543523 1.94654 0
M  V30 2480 C 236.587 -0.9155 1.72173 0
M  V30 2481 O 235.857 -1.64708 1.06058 0
M  V30 2482 H 234.437 0.198017 0.720277 0
M  V30 2483 H 237.099 1.16126 1.56527 0
M  V30 2484 H 236.195 0.736684 3.03281 0
M  V30 2485 N 236.496 -1.42363 0.676048 0
M  V30 2486 C 237.721 -2.06377 0.205705 0
M  V30 2487 C 238.146 -1.50463 -1.12883 0
M  V30 2488 O 237.504 -0.623619 -1.70237 0
M  V30 2489 C 237.552 -3.60277 0.152655 0
M  V30 2490 O 236.656 -4.02935 -0.87845 0
M  V30 2491 H 235.997 -0.655588 0.105359 0
M  V30 2492 H 238.527 -1.82475 0.925412 0
M  V30 2493 H 238.537 -4.07993 -0.0230675 0
M  V30 2494 H 237.212 -4.00346 1.12675 0
M  V30 2495 H 235.789 -3.66764 -0.673668 0
M  V30 2496 N 237.974 -0.419461 -1.51915 0
M  V30 2497 C 239.222 0.152637 -2.01523 0
M  V30 2498 C 239.543 1.44762 -1.30649 0
M  V30 2499 O 238.813 1.90997 -0.435535 0
M  V30 2500 H 237.393 0.0593966 -0.744635 0
M  V30 2501 H 240.055 -0.558073 -1.86739 0
M  V30 2502 H 239.151 0.341369 -3.10227 0
M  V30 2503 N 239.452 1.56882 -0.150215 0
M  V30 2504 C 240.692 1.98119 0.502804 0
M  V30 2505 C 241.056 1.03327 1.61826 0
M  V30 2506 O 242.257 1.33621 2.33236 0
M  V30 2507 C 240.528 3.43329 0.992988 0
M  V30 2508 S 242.087 4.0659 1.65015 0
M  V30 2509 H 238.905 0.692189 0.162467 0
M  V30 2510 H 241.507 1.93988 -0.242689 0
M  V30 2511 H 240.211 4.10046 0.170436 0
M  V30 2512 H 239.742 3.5118 1.77303 0
M  V30 2513 H 241.757 3.99906 2.93752 0
M  V30 2514 N 240.93 -0.123565 1.57115 0
M  V30 2515 C 241.878 -1.17082 2.00984 0
M  V30 2516 C 242.872 -1.43136 0.906009 0
M  V30 2517 O 244.078 -1.43152 1.09121 0
M  V30 2518 H 240.453 -0.394653 0.64012 0
M  V30 2519 H 242.424 -0.774292 2.88179 0
M  V30 2520 C 241.173 -2.49057 2.42623 0
M  V30 2521 H 240.496 -2.29846 3.27125 0
M  V30 2522 H 241.936 -3.20906 2.7712 0
M  V30 2523 C 240.395 -3.11305 1.28805 0
M  V30 2524 O 240.925 -3.97171 0.60153 0
M  V30 2525 N 239.131 -2.71111 1.04628 0
M  V30 2526 H 238.678 -2.01382 1.60634 0
M  V30 2527 H 238.636 -3.1309 0.286685 0
M  V30 2528 N 242.408 -1.52605 -0.393616 0
M  V30 2529 C 243.338 -1.80022 -1.48709 0
M  V30 2530 C 244.319 -0.651995 -1.57108 0
M  V30 2531 O 245.504 -0.89913 -1.72132 0
M  V30 2532 C 242.634 -1.96492 -2.86371 0
M  V30 2533 C 241.588 -3.12161 -2.92813 0
M  V30 2534 C 240.914 -3.13877 -4.3288 0
M  V30 2535 C 242.214 -4.51322 -2.6288 0
M  V30 2536 H 243.908 -2.71589 -1.26015 0
M  V30 2537 H 241.454 -1.30684 -0.604778 0
M  V30 2538 H 243.407 -2.14255 -3.62867 0
M  V30 2539 H 242.131 -1.01611 -3.10391 0
M  V30 2540 H 240.79 -2.94173 -2.18764 0
M  V30 2541 H 240.438 -2.16687 -4.53933 0
M  V30 2542 H 240.138 -3.91576 -4.38112 0
M  V30 2543 H 241.662 -3.33789 -5.1129 0
M  V30 2544 H 243.076 -4.69435 -3.29096 0
M  V30 2545 H 241.473 -5.31053 -2.79468 0
M  V30 2546 H 242.543 -4.58353 -1.58242 0
M  V30 2547 N 243.887 0.651787 -1.4349 0
M  V30 2548 C 245.164 1.40909 -1.35661 0
M  V30 2549 C 245.544 2.11099 -0.00511733 0
M  V30 2550 O 244.892 2.04892 1.0115 0
M  V30 2551 C 245.102 2.3926 -2.54078 0
M  V30 2552 C 246.45 3.03217 -2.97228 0
M  V30 2553 O 247.474 2.49588 -2.54135 0
M  V30 2554 O 246.333 4.00455 -3.71885 0
M  V30 2555 H 243.427 0.629625 -0.536191 0
M  V30 2556 H 245.973 0.678575 -1.55542 0
M  V30 2557 H 244.745 1.86352 -3.44076 0
M  V30 2558 H 244.368 3.1976 -2.36303 0
M  V30 2559 N 245.365 1.30045 0.890287 0
M  V30 2560 C 246.59 1.21598 1.68014 0
M  V30 2561 C 247.015 -0.218678 1.86825 0
M  V30 2562 O 246.373 -1.15756 1.39536 0
M  V30 2563 C 246.421 1.94434 3.03691 0
M  V30 2564 O 245.525 1.2678 3.92429 0
M  V30 2565 H 244.866 0.420856 0.513592 0
M  V30 2566 H 247.396 1.71775 1.11151 0
M  V30 2567 H 247.406 2.03251 3.5377 0
M  V30 2568 H 246.081 2.98777 2.89318 0
M  V30 2569 H 244.658 1.26282 3.50866 0
M  V30 2570 N 246.843 -1.10192 1.12674 0
M  V30 2571 C 247.806 -2.14786 0.799979 0
M  V30 2572 C 248.806 -1.59711 -0.18685 0
M  V30 2573 O 249.996 -1.74156 0.0392558 0
M  V30 2574 C 247.128 -3.40374 0.189228 0
M  V30 2575 H 248.321 -2.45203 1.72671 0
M  V30 2576 H 245.874 -1.25597 0.930326 0
M  V30 2577 H 246.609 -3.15577 -0.747107 0
M  V30 2578 H 246.394 -3.81637 0.899766 0
M  V30 2579 H 247.884 -4.17594 -0.0228143 0
M  V30 2580 N 248.321 -0.919034 -1.28029 0
M  V30 2581 C 249.737 -0.617972 -1.4715 0
M  V30 2582 C 249.937 0.835242 -1.83374 0
M  V30 2583 O 248.993 1.61388 -1.94191 0
M  V30 2584 C 250.306 -1.56041 -2.57044 0
M  V30 2585 C 251.854 -1.56769 -2.7091 0
M  V30 2586 C 252.329 -2.49688 -3.83953 0
M  V30 2587 N 253.82 -2.47845 -3.91314 0
M  V30 2588 C 254.555 -3.16437 -4.78179 0
M  V30 2589 N 254.051 -3.94376 -5.69596 0
M  V30 2590 N 255.844 -3.05498 -4.71834 0
M  V30 2591 H 247.995 -1.85866 -1.02798 0
M  V30 2592 H 250.258 -0.797506 -0.512531 0
M  V30 2593 H 249.964 -2.59671 -2.372 0
M  V30 2594 H 249.838 -1.29551 -3.54255 0
M  V30 2595 H 252.225 -0.538745 -2.90141 0
M  V30 2596 H 252.306 -1.87305 -1.74214 0
M  V30 2597 H 251.95 -3.52688 -3.65477 0
M  V30 2598 H 251.88 -2.16453 -4.80058 0
M  V30 2599 H 254.371 -1.91234 -3.25941 0
M  V30 2600 H 254.684 -4.43721 -6.32718 0
M  V30 2601 H 253.029 -3.98481 -5.69419 0
M  V30 2602 H 256.22 -2.44108 -3.99411 0
M  V30 2603 H 256.393 -3.59225 -5.39316 0
M  V30 2604 N 249.799 1.42003 -0.683588 0
M  V30 2605 C 251.046 2.01413 -0.209514 0
M  V30 2606 C 251.374 1.54088 1.1869 0
M  V30 2607 O 250.629 0.737591 1.81268 0
M  V30 2608 C 250.928 3.56827 -0.202357 0
M  V30 2609 C 250.594 4.23617 -1.54464 0
M  V30 2610 C 249.256 4.41577 -1.91215 0
M  V30 2611 C 251.608 4.61178 -2.42826 0
M  V30 2612 C 248.936 4.9437 -3.15935 0
M  V30 2613 C 251.288 5.15355 -3.66867 0
M  V30 2614 C 249.952 5.31528 -4.03776 0
M  V30 2615 H 249.222 0.737023 -0.0766668 0
M  V30 2616 H 251.869 1.70067 -0.880312 0
M  V30 2617 H 250.174 3.87892 0.551969 0
M  V30 2618 H 251.871 4.00588 0.181793 0
M  V30 2619 H 248.461 4.10004 -1.24877 0
M  V30 2620 H 252.645 4.46968 -2.15717 0
M  V30 2621 H 247.901 5.05076 -3.44541 0
M  V30 2622 H 252.075 5.43402 -4.35531 0
M  V30 2623 H 249.702 5.72199 -5.00492 0
M  V30 2624 N 251.277 0.427512 1.51691 0
M  V30 2625 C 252.693 0.0792977 1.59403 0
M  V30 2626 C 252.893 -1.41035 1.43914 0
M  V30 2627 O 251.949 -2.17922 1.27539 0
M  V30 2628 C 253.262 0.590636 2.94842 0
M  V30 2629 C 254.81 0.550215 3.08126 0
M  V30 2630 C 255.285 1.03836 4.46074 0
M  V30 2631 N 256.776 0.995943 4.52366 0
M  V30 2632 C 257.511 1.34463 5.57411 0
M  V30 2633 N 257.007 1.76569 6.69922 0
M  V30 2634 N 258.8 1.26343 5.47717 0
M  V30 2635 H 250.951 1.39687 1.60004 0
M  V30 2636 H 253.214 0.575003 0.753708 0
M  V30 2637 H 252.92 1.63251 3.11516 0
M  V30 2638 H 252.794 0.0102061 3.77199 0
M  V30 2639 H 255.181 -0.482654 2.91126 0
M  V30 2640 H 255.262 1.16693 2.27632 0
M  V30 2641 H 254.906 2.06965 4.63819 0
M  V30 2642 H 254.836 0.398286 5.25092 0
M  V30 2643 H 257.327 0.68661 3.7161 0
M  V30 2644 H 257.64 2.01438 7.46085 0
M  V30 2645 H 255.985 1.80488 6.71155 0
M  V30 2646 H 259.176 0.933209 4.58703 0
M  V30 2647 H 259.349 1.53846 6.29472 0
M  V30 2648 N 252.755 -1.56801 0.158532 0
M  V30 2649 C 253.985 -2.00568 -0.495583 0
M  V30 2650 C 254.393 -1.03774 -1.58201 0
M  V30 2651 O 253.736 -0.0285797 -1.83678 0
M  V30 2652 C 253.798 -3.40768 -1.14532 0
M  V30 2653 C 253.462 -4.56553 -0.202101 0
M  V30 2654 C 254.459 -5.16714 0.574675 0
M  V30 2655 C 252.144 -5.02197 -0.101648 0
M  V30 2656 C 254.138 -6.20939 1.43924 0
M  V30 2657 C 251.825 -6.06274 0.766508 0
M  V30 2658 C 252.823 -6.65515 1.53555 0
M  V30 2659 O 252.511 -7.67575 2.38922 0
M  V30 2660 H 252.243 -0.662893 -0.13247 0
M  V30 2661 H 254.797 -2.03829 0.253559 0
M  V30 2662 H 253.027 -3.34381 -1.94233 0
M  V30 2663 H 254.716 -3.6857 -1.70033 0
M  V30 2664 H 255.482 -4.82341 0.507167 0
M  V30 2665 H 251.361 -4.55807 -0.689994 0
M  V30 2666 H 254.905 -6.67107 2.03996 0
M  V30 2667 H 250.802 -6.40073 0.835266 0
M  V30 2668 H 251.57 -7.84844 2.32296 0
M  V30 2669 N 254.233 0.115231 -1.57178 0
M  V30 2670 C 255.163 1.1423 -2.03651 0
M  V30 2671 C 256.144 1.42967 -0.921655 0
M  V30 2672 O 257.329 1.53343 -1.19162 0
M  V30 2673 C 254.459 2.4675 -2.44401 0
M  V30 2674 C 253.413 2.32467 -3.59365 0
M  V30 2675 C 252.739 3.69984 -3.86026 0
M  V30 2676 C 254.039 1.78203 -4.90959 0
M  V30 2677 H 255.733 0.755749 -2.89705 0
M  V30 2678 H 253.279 0.362093 -1.39373 0
M  V30 2679 H 255.232 3.18854 -2.75517 0
M  V30 2680 H 253.956 2.87302 -1.55322 0
M  V30 2681 H 252.615 1.62811 -3.28463 0
M  V30 2682 H 252.263 4.08028 -2.94147 0
M  V30 2683 H 251.963 3.61279 -4.63412 0
M  V30 2684 H 253.487 4.43587 -4.19599 0
M  V30 2685 H 254.901 2.40128 -5.20587 0
M  V30 2686 H 253.298 1.8031 -5.72371 0
M  V30 2687 H 254.368 0.739876 -4.79222 0
M  V30 2688 N 255.711 1.52812 0.385517 0
M  V30 2689 C 256.96 1.67249 1.12741 0
M  V30 2690 C 257.273 0.4205 1.91027 0
M  V30 2691 O 258.479 0.445064 2.67827 0
M  V30 2692 C 256.935 2.95583 2.05326 0
M  V30 2693 C 256.543 4.27974 1.32447 0
M  V30 2694 C 258.287 3.19386 2.7963 0
M  V30 2695 C 256.194 5.47412 2.23818 0
M  V30 2696 H 255.124 0.6231 0.424573 0
M  V30 2697 H 257.775 1.79309 0.389924 0
M  V30 2698 H 256.157 2.77277 2.82725 0
M  V30 2699 H 257.331 4.56844 0.602495 0
M  V30 2700 H 255.646 4.10459 0.700885 0
M  V30 2701 H 258.243 4.05801 3.48181 0
M  V30 2702 H 258.586 2.34604 3.43899 0
M  V30 2703 H 259.119 3.38274 2.09322 0
M  V30 2704 H 255.858 6.34612 1.64157 0
M  V30 2705 H 255.378 5.22849 2.93921 0
M  V30 2706 H 257.057 5.81423 2.83824 0
M  V30 2707 N 257.189 -0.644168 1.43834 0
M  V30 2708 C 258.437 -1.40117 1.45642 0
M  V30 2709 C 258.758 -1.94814 0.0852413 0
M  V30 2710 O 258.028 -1.74988 -0.880688 0
M  V30 2711 H 256.608 -0.52005 0.536243 0
M  V30 2712 H 259.27 -0.7591 1.7951 0
M  V30 2713 H 258.366 -2.23902 2.17427 0
M  V30 2714 N 258.668 -1.30515 -0.883378 0
M  V30 2715 C 259.578 -1.18959 -2.02203 0
M  V30 2716 C 260.594 -0.109172 -1.73657 0
M  V30 2717 O 261.77 -0.324413 -1.9877 0
M  V30 2718 C 258.835 -0.883871 -3.35244 0
M  V30 2719 C 257.896 -2.04982 -3.77201 0
M  V30 2720 C 257.129 -1.75859 -5.03894 0
M  V30 2721 O 257.352 -0.687276 -5.66244 0
M  V30 2722 O 256.286 -2.61146 -5.42297 0
M  V30 2723 H 260.112 -2.14616 -2.1488 0
M  V30 2724 H 257.697 -1.10124 -1.0096 0
M  V30 2725 H 259.579 -0.728644 -4.15053 0
M  V30 2726 H 258.254 0.0427798 -3.23672 0
M  V30 2727 H 257.161 -2.26038 -2.9809 0
M  V30 2728 H 258.494 -2.95825 -3.93381 0
M  V30 2729 N 260.146 1.09593 -1.13257 0
M  V30 2730 C 261.093 2.1618 -0.808381 0
M  V30 2731 C 262.063 1.64517 0.228754 0
M  V30 2732 O 263.248 1.9053 0.101381 0
M  V30 2733 C 260.388 3.43973 -0.278675 0
M  V30 2734 C 259.501 4.09545 -1.37466 0
M  V30 2735 C 258.636 5.25088 -0.803479 0
M  V30 2736 C 257.675 5.82579 -1.87799 0
M  V30 2737 N 256.812 6.89486 -1.32488 0
M  V30 2738 H 261.652 2.43254 -1.72138 0
M  V30 2739 H 259.189 1.19392 -0.859294 0
M  V30 2740 H 261.147 4.17174 0.0465583 0
M  V30 2741 H 259.777 3.17223 0.597459 0
M  V30 2742 H 258.829 3.34226 -1.81652 0
M  V30 2743 H 260.141 4.48307 -2.18684 0
M  V30 2744 H 259.295 6.05178 -0.429427 0
M  V30 2745 H 258.034 4.87684 0.0397956 0
M  V30 2746 H 257.039 5.01152 -2.26113 0
M  V30 2747 H 258.264 6.22045 -2.72463 0
M  V30 2748 H 256.21 6.54064 -0.503575 0
M  V30 2749 H 256.127 7.27007 -2.07355 0
M  V30 2750 H 257.395 7.73336 -0.978336 0
M  V30 2751 N 261.624 0.925811 1.2754 0
M  V30 2752 C 262.554 0.440748 2.29303 0
M  V30 2753 C 263.535 -0.497971 1.62648 0
M  V30 2754 O 264.72 -0.403126 1.8997 0
M  V30 2755 C 261.85 -0.309048 3.45922 0
M  V30 2756 C 260.804 0.54166 4.24559 0
M  V30 2757 C 260.13 -0.337191 5.33636 0
M  V30 2758 C 261.43 1.80516 4.90114 0
M  V30 2759 H 263.124 1.29121 2.70126 0
M  V30 2760 H 260.67 0.622323 1.29858 0
M  V30 2761 H 262.623 -0.659315 4.1621 0
M  V30 2762 H 261.347 -1.19352 3.04011 0
M  V30 2763 H 260.006 0.874609 3.56014 0
M  V30 2764 H 259.654 -1.22056 4.87966 0
M  V30 2765 H 259.354 0.228497 5.87156 0
M  V30 2766 H 260.878 -0.683072 6.06767 0
M  V30 2767 H 262.292 1.52307 5.52698 0
M  V30 2768 H 260.689 2.3142 5.53683 0
M  V30 2769 H 261.759 2.52581 4.13921 0
M  V30 2770 N 263.102 -1.41638 0.69111 0
M  V30 2771 C 264.35 -2.00902 0.219758 0
M  V30 2772 C 264.671 -1.54994 -1.18329 0
M  V30 2773 O 263.941 -0.778628 -1.79762 0
M  V30 2774 H 262.521 -0.74289 0.0782558 0
M  V30 2775 H 265.183 -1.73327 0.891271 0
M  V30 2776 H 264.279 -3.11224 0.233708 0
M  V30 2777 N 264.58 -0.43555 -1.51462 0
M  V30 2778 C 265.826 0.131709 -2.02372 0
M  V30 2779 C 266.159 1.42516 -1.3192 0
M  V30 2780 O 265.434 1.89606 -0.433573 0
M  V30 2781 C 265.717 0.352301 -3.58373 0
M  V30 2782 C 265.57 -0.959676 -4.39443 0
M  V30 2783 C 266.889 1.12286 -4.25535 0
M  V30 2784 H 264.008 0.0463936 -0.735538 0
M  V30 2785 H 266.65 -0.574197 -1.81116 0
M  V30 2786 H 264.8 0.9536 -3.76615 0
M  V30 2787 H 266.472 -1.59482 -4.32855 0
M  V30 2788 H 264.715 -1.56468 -4.04599 0
M  V30 2789 H 265.386 -0.759394 -5.46752 0
M  V30 2790 H 267.862 0.613545 -4.11552 0
M  V30 2791 H 266.738 1.24598 -5.34571 0
M  V30 2792 H 266.999 2.15048 -3.86273 0
M  V30 2793 N 266.058 1.56714 -0.166846 0
M  V30 2794 C 267.008 2.14338 0.777382 0
M  V30 2795 C 267.992 1.07642 1.19591 0
M  V30 2796 O 269.184 1.33775 1.15902 0
M  V30 2797 C 266.313 2.78417 2.00846 0
M  V30 2798 C 265.399 3.92264 1.61212 0
M  V30 2799 N 265.79 4.97268 0.925104 0
M  V30 2800 C 264.088 4.03342 1.90346 0
M  V30 2801 C 264.789 5.77093 0.730627 0
M  V30 2802 N 263.765 5.2854 1.27067 0
M  V30 2803 H 267.567 2.9289 0.243466 0
M  V30 2804 H 265.081 1.62364 0.0339954 0
M  V30 2805 H 267.078 3.18073 2.69509 0
M  V30 2806 H 265.738 2.01344 2.54736 0
M  V30 2807 H 266.749 5.14601 0.583646 0
M  V30 2808 H 263.426 3.37368 2.45946 0
M  V30 2809 H 264.816 6.71638 0.187668 0
M  V30 2810 N 267.536 -0.106894 1.57237 0
M  V30 2811 C 268.947 -0.662723 1.74542 0
M  V30 2812 C 269.298 -1.7971 0.787319 0
M  V30 2813 O 268.423 -2.16368 -0.0369636 0
M  V30 2814 C 269.018 -1.20896 3.16496 0
M  V30 2815 C 267.577 -1.71096 3.35266 0
M  V30 2816 C 266.724 -0.615642 2.7038 0
M  V30 2817 H 269.675 0.119106 1.58252 0
M  V30 2818 H 269.696 -2.07847 3.18716 0
M  V30 2819 H 269.208 -0.383122 3.86204 0
M  V30 2820 H 267.309 -2.56119 2.70618 0
M  V30 2821 H 267.422 -1.81208 4.43509 0
M  V30 2822 H 265.786 -1.05222 2.31949 0
M  V30 2823 H 266.569 0.199419 3.4272 0
M  V30 2824 N 269.014 -1.53014 -0.377408 0
M  V30 2825 C 270.242 -1.72515 -1.14219 0
M  V30 2826 C 270.657 -0.448735 -1.8339 0
M  V30 2827 O 270.014 0.577592 -1.73119 0
M  V30 2828 C 270.065 -2.8826 -2.18148 0
M  V30 2829 O 269.786 -4.10962 -1.51795 0
M  V30 2830 C 271.287 -3.19536 -3.07264 0
M  V30 2831 H 268.507 -0.577301 -0.342001 0
M  V30 2832 H 271.051 -1.99712 -0.439935 0
M  V30 2833 H 269.206 -2.63492 -2.83991 0
M  V30 2834 H 269.62 -4.75693 -2.20945 0
M  V30 2835 H 271.094 -4.03959 -3.76193 0
M  V30 2836 H 271.571 -2.34403 -3.71419 0
M  V30 2837 H 272.177 -3.46186 -2.47053 0
M  V30 2838 N 270.492 0.636531 -1.44174 0
M  V30 2839 C 271.717 1.42847 -1.50364 0
M  V30 2840 C 272.142 1.87665 -0.127867 0
M  V30 2841 O 271.5 1.58408 0.88185 0
M  V30 2842 C 271.548 2.62854 -2.4686 0
M  V30 2843 O 270.652 3.62501 -1.9664 0
M  V30 2844 H 269.993 0.427642 -0.507955 0
M  V30 2845 H 272.523 0.777422 -1.89255 0
M  V30 2846 H 272.533 3.10465 -2.64718 0
M  V30 2847 H 271.208 2.29578 -3.46795 0
M  V30 2848 H 269.785 3.21735 -1.88523 0
M  V30 2849 N 271.97 1.30982 0.876444 0
M  V30 2850 C 273.21 1.21589 1.64303 0
M  V30 2851 C 273.574 -0.223962 1.90689 0
M  V30 2852 O 274.775 -0.44128 2.65153 0
M  V30 2853 C 273.046 2.03007 2.94148 0
M  V30 2854 S 274.605 2.10405 3.85065 0
M  V30 2855 H 271.423 0.433161 0.563819 0
M  V30 2856 H 274.025 1.65565 1.03964 0
M  V30 2857 H 272.729 3.06719 2.72675 0
M  V30 2858 H 272.26 1.59725 3.59515 0
M  V30 2859 H 274.275 1.23765 4.80517 0
M  V30 2860 N 273.449 -1.08991 1.13837 0
M  V30 2861 C 274.399 -2.1393 0.788535 0
M  V30 2862 C 275.383 -1.59396 -0.219516 0
M  V30 2863 O 276.575 -1.76985 -0.0227557 0
M  V30 2864 C 273.704 -3.42305 0.261147 0
M  V30 2865 C 272.79 -4.03736 1.29837 0
M  V30 2866 N 273.181 -4.39659 2.50067 0
M  V30 2867 C 271.479 -4.30993 1.1472 0
M  V30 2868 C 272.18 -4.88113 3.16419 0
M  V30 2869 N 271.156 -4.85846 2.43832 0
M  V30 2870 H 274.958 -2.39516 1.70322 0
M  V30 2871 H 272.472 -1.26263 1.02134 0
M  V30 2872 H 274.469 -4.16899 -0.0077405 0
M  V30 2873 H 273.129 -3.18172 -0.647805 0
M  V30 2874 H 274.14 -4.30878 2.8734 0
M  V30 2875 H 270.817 -4.16444 0.296773 0
M  V30 2876 H 272.207 -5.25336 4.18894 0
M  V30 2877 N 274.927 -0.932562 -1.27047 0
M  V30 2878 C 276.175 -0.574422 -1.93765 0
M  V30 2879 C 276.496 0.887993 -1.73608 0
M  V30 2880 O 275.766 1.62999 -1.08665 0
M  V30 2881 H 274.346 -0.209451 -0.717035 0
M  V30 2882 H 277.008 -1.18601 -1.5466 0
M  V30 2883 H 276.104 -0.784841 -3.02071 0
M  V30 2884 N 276.405 1.4127 -0.698611 0
M  V30 2885 C 277.651 2.01979 -0.239972 0
M  V30 2886 C 278.006 1.54353 1.14861 0
M  V30 2887 O 277.299 0.746218 1.76471 0
M  V30 2888 C 277.493 3.56592 -0.240192 0
M  V30 2889 C 277.322 4.19226 -1.62726 0
M  V30 2890 C 276.092 4.53389 -2.23084 0
M  V30 2891 C 278.29 4.45228 -2.57443 0
M  V30 2892 N 276.272 5.01327 -3.54323 0
M  V30 2893 C 277.643 4.94973 -3.73365 0
M  V30 2894 C 279.698 4.27243 -2.55671 0
M  V30 2895 C 278.401 5.28624 -4.878 0
M  V30 2896 C 280.427 4.61985 -3.69221 0
M  V30 2897 C 279.789 5.11904 -4.83873 0
M  V30 2898 H 275.888 0.770561 -0.133269 0
M  V30 2899 H 278.472 1.71767 -0.916748 0
M  V30 2900 H 276.643 3.86271 0.406082 0
M  V30 2901 H 278.375 4.04025 0.23356 0
M  V30 2902 H 275.13 4.39946 -1.75341 0
M  V30 2903 H 275.554 5.29697 -4.21604 0
M  V30 2904 H 280.196 3.87884 -1.68243 0
M  V30 2905 H 277.914 5.66905 -5.75885 0
M  V30 2906 H 281.5 4.49725 -3.69105 0
M  V30 2907 H 280.38 5.38282 -5.70282 0
M  V30 2908 N 277.883 0.443576 1.51229 0
M  V30 2909 C 279.132 -0.122332 2.01329 0
M  V30 2910 C 279.445 -1.43237 1.33201 0
M  V30 2911 O 280.651 -2.0816 1.74304 0
M  V30 2912 C 279.107 -0.268551 3.58897 0
M  V30 2913 C 278.715 1.03142 4.35965 0
M  V30 2914 C 280.459 -0.787894 4.17124 0
M  V30 2915 C 278.366 0.850504 5.85252 0
M  V30 2916 H 277.296 -0.0494929 0.752374 0
M  V30 2917 H 279.947 0.574289 1.74282 0
M  V30 2918 H 278.329 -1.02832 3.82415 0
M  V30 2919 H 279.503 1.80001 4.24189 0
M  V30 2920 H 277.818 1.47977 3.89219 0
M  V30 2921 H 280.415 -0.939841 5.26375 0
M  V30 2922 H 280.758 -1.77201 3.76703 0
M  V30 2923 H 281.291 -0.0862669 3.97706 0
M  V30 2924 H 278.03 1.80718 6.30096 0
M  V30 2925 H 277.55 0.121825 5.99676 0
M  V30 2926 H 279.229 0.506163 6.45017 0
M  V30 2927 N 279.361 -1.56624 0.175154 0
M  V30 2928 C 280.61 -1.96173 -0.468921 0
M  V30 2929 C 280.923 -1.06401 -1.64128 0
M  V30 2930 O 282.129 -1.35648 -2.35185 0
M  V30 2931 C 280.585 -3.48833 -0.885633 0
M  V30 2932 C 280.193 -4.47237 0.261343 0
M  V30 2933 C 281.937 -3.97194 -1.49791 0
M  V30 2934 C 279.844 -5.9114 -0.175214 0
M  V30 2935 H 278.774 -0.732455 -0.178958 0
M  V30 2936 H 281.425 -1.81591 0.263997 0
M  V30 2937 H 279.807 -3.58848 -1.67464 0
M  V30 2938 H 280.981 -4.4894 1.03871 0
M  V30 2939 H 279.296 -4.08956 0.783827 0
M  V30 2940 H 281.893 -5.02167 -1.83665 0
M  V30 2941 H 282.236 -3.40351 -2.39722 0
M  V30 2942 H 282.769 -3.90212 -0.773267 0
M  V30 2943 H 279.508 -6.51865 0.689414 0
M  V30 2944 H 279.028 -5.92735 -0.91786 0
M  V30 2945 H 280.707 -6.44044 -0.617792 0
M  V30 2946 N 280.839 0.0985539 -1.57292 0
M  V30 2947 C 282.087 0.801092 -1.85545 0
M  V30 2948 C 282.408 1.79438 -0.763353 0
M  V30 2949 O 281.678 1.94763 0.21073 0
M  V30 2950 H 280.258 0.29884 -0.684619 0
M  V30 2951 H 282.92 0.0810064 -1.94732 0
M  V30 2952 H 282.016 1.3338 -2.82163 0
M  V30 2953 N 282.317 1.53212 0.369288 0
M  V30 2954 C 283.227 1.82342 1.47609 0
M  V30 2955 C 284.243 0.711532 1.58787 0
M  V30 2956 O 285.419 1.0012 1.74751 0
M  V30 2957 C 282.484 2.00393 2.8292 0
M  V30 2958 C 281.545 3.24297 2.81301 0
M  V30 2959 C 280.778 3.41478 4.10157 0
M  V30 2960 O 281.001 2.63033 5.06132 0
M  V30 2961 O 279.935 4.34817 4.16194 0
M  V30 2962 H 283.761 2.76366 1.25918 0
M  V30 2963 H 281.346 1.38547 0.559034 0
M  V30 2964 H 283.228 2.13859 3.63101 0
M  V30 2965 H 281.903 1.09559 3.04596 0
M  V30 2966 H 280.81 3.16257 1.99831 0
M  V30 2967 H 282.143 4.15041 2.64578 0
M  V30 2968 N 283.795 -0.628877 1.44509 0
M  V30 2969 C 284.745 -1.7345 1.47983 0
M  V30 2970 C 285.729 -1.5715 0.345373 0
M  V30 2971 O 286.921 -1.66848 0.590829 0
M  V30 2972 C 284.05 -3.12143 1.42904 0
M  V30 2973 C 283.136 -3.33906 2.61472 0
M  V30 2974 N 283.527 -3.26024 3.86706 0
M  V30 2975 C 281.825 -3.64709 2.56716 0
M  V30 2976 C 282.526 -3.48536 4.65722 0
M  V30 2977 N 281.502 -3.71517 3.96832 0
M  V30 2978 H 285.304 -1.65818 2.42655 0
M  V30 2979 H 282.818 -0.831419 1.39503 0
M  V30 2980 H 284.815 -3.91433 1.43476 0
M  V30 2981 H 283.475 -3.2094 0.492717 0
M  V30 2982 H 284.486 -3.04893 4.18641 0
M  V30 2983 H 281.163 -3.80473 1.71891 0
M  V30 2984 H 282.553 -3.48016 5.74747 0
M  V30 2985 N 285.273 -1.31445 -0.869486 0
M  V30 2986 C 286.521 -1.20918 -1.61936 0
M  V30 2987 C 286.842 0.232683 -1.93607 0
M  V30 2988 O 286.112 1.15352 -1.58338 0
M  V30 2989 H 284.692 -0.44454 -0.600328 0
M  V30 2990 H 287.354 -1.64776 -1.0409 0
M  V30 2991 H 286.45 -1.78124 -2.56278 0
M  V30 2992 N 286.751 1.08385 -1.14413 0
M  V30 2993 C 288.028 1.77429 -0.823297 0
M  V30 2994 C 288.408 1.9974 0.683163 0
M  V30 2995 O 287.756 1.60739 1.62405 0
M  V30 2996 C 287.966 3.09004 -1.62227 0
M  V30 2997 C 289.314 3.83532 -1.82177 0
M  V30 2998 O 290.338 3.18786 -1.58915 0
M  V30 2999 O 289.197 4.99792 -2.21067 0
M  V30 3000 H 286.291 0.769999 -0.301712 0
M  V30 3001 H 288.837 1.14846 -1.24934 0
M  V30 3002 H 287.609 2.88316 -2.64555 0
M  V30 3003 H 287.232 3.79316 -1.19187 0
M  V30 3004 N 288.23 0.939286 1.26551 0
M  V30 3005 C 289.455 0.602008 1.98471 0
M  V30 3006 C 289.88 -0.815624 1.69497 0
M  V30 3007 O 289.238 -1.54912 0.941905 0
M  V30 3008 C 289.286 0.848407 3.50477 0
M  V30 3009 O 288.39 -0.0804009 4.12322 0
M  V30 3010 H 287.731 0.23049 0.622712 0
M  V30 3011 H 290.261 1.2617 1.61066 0
M  V30 3012 H 290.271 0.768553 4.00696 0
M  V30 3013 H 288.946 1.88171 3.70897 0
M  V30 3014 H 287.523 0.0503508 3.72866 0
M  V30 3015 N 289.708 -1.40897 0.706093 0
M  V30 3016 C 290.933 -2.05895 0.249435 0
M  V30 3017 C 291.358 -1.52823 -1.09666 0
M  V30 3018 O 290.716 -0.659589 -1.68876 0
M  V30 3019 C 290.764 -3.59872 0.22904 0
M  V30 3020 O 289.868 -4.04708 -0.792784 0
M  V30 3021 H 289.209 -0.653206 0.119241 0
M  V30 3022 H 291.739 -1.80471 0.96391 0
M  V30 3023 H 291.749 -4.07951 0.0634791 0
M  V30 3024 H 290.424 -3.97866 1.21141 0
M  V30 3025 H 289.001 -3.68111 -0.59572 0
M  V30 3026 N 291.186 -0.45159 -1.50991 0
M  V30 3027 C 292.432 0.110237 -2.025 0
M  V30 3028 C 292.765 1.41109 -1.33424 0
M  V30 3029 O 292.04 1.89135 -0.453659 0
M  V30 3030 C 292.323 0.314271 -3.58726 0
M  V30 3031 C 292.176 -1.00623 -4.38401 0
M  V30 3032 C 293.495 1.07767 -4.26702 0
M  V30 3033 H 290.614 0.0385897 -0.735989 0
M  V30 3034 H 293.256 -0.593374 -1.80497 0
M  V30 3035 H 291.406 0.913601 -3.77605 0
M  V30 3036 H 293.078 -1.64064 -4.31139 0
M  V30 3037 H 291.321 -1.6075 -4.02917 0
M  V30 3038 H 291.992 -0.817341 -5.45915 0
M  V30 3039 H 294.468 0.56986 -4.12179 0
M  V30 3040 H 293.344 1.18921 -5.35863 0
M  V30 3041 H 293.605 2.10939 -3.88532 0
M  V30 3042 N 292.664 1.56529 -0.183458 0
M  V30 3043 C 294.075 1.83739 0.331177 0
M  V30 3044 C 294.426 1.10373 1.62211 0
M  V30 3045 O 293.551 0.36071 2.13373 0
M  V30 3046 C 294.146 3.33306 0.607646 0
M  V30 3047 C 292.705 3.60969 1.06668 0
M  V30 3048 C 291.852 2.77086 0.109029 0
M  V30 3049 H 294.803 1.53379 -0.407484 0
M  V30 3050 H 294.824 3.51444 1.45832 0
M  V30 3051 H 294.336 3.86677 -0.332086 0
M  V30 3052 H 292.437 3.13021 2.0211 0
M  V30 3053 H 292.55 4.69231 0.967447 0
M  V30 3054 H 290.914 2.47319 0.608714 0
M  V30 3055 H 291.697 3.33241 -0.82494 0
M  V30 3056 N 294.142 -0.090211 1.57342 0
M  V30 3057 C 295.072 -1.10976 2.05443 0
M  V30 3058 C 296.053 -1.41482 0.944284 0
M  V30 3059 O 297.238 -1.51428 1.21586 0
M  V30 3060 C 294.368 -2.42831 2.48295 0
M  V30 3061 C 293.322 -2.26721 3.63018 0
M  V30 3062 C 292.648 -3.63796 3.91863 0
M  V30 3063 C 293.948 -1.7037 4.93732 0
M  V30 3064 H 295.642 -0.709564 2.9087 0
M  V30 3065 H 293.188 -0.339874 1.39932 0
M  V30 3066 H 295.141 -3.14431 2.80555 0
M  V30 3067 H 293.865 -2.84795 1.59873 0
M  V30 3068 H 292.524 -1.57565 3.31012 0
M  V30 3069 H 292.172 -4.03297 3.00601 0
M  V30 3070 H 291.872 -3.53861 4.69101 0
M  V30 3071 H 293.396 -4.36855 4.26603 0
M  V30 3072 H 294.81 -2.31816 5.24342 0
M  V30 3073 H 293.207 -1.71181 5.75167 0
M  V30 3074 H 294.277 -0.663542 4.80339 0
M  V30 3075 N 295.62 -1.53406 -0.361157 0
M  V30 3076 C 296.866 -1.70999 -1.1014 0
M  V30 3077 C 297.221 -0.458425 -1.86859 0
M  V30 3078 O 296.514 0.548654 -1.83577 0
M  V30 3079 C 296.708 -2.90211 -2.08596 0
M  V30 3080 C 296.537 -4.26841 -1.41553 0
M  V30 3081 C 295.307 -4.91621 -1.16778 0
M  V30 3082 C 297.505 -5.07212 -0.850915 0
M  V30 3083 N 295.487 -6.12164 -0.461312 0
M  V30 3084 C 296.858 -6.19394 -0.274046 0
M  V30 3085 C 298.913 -4.92218 -0.750036 0
M  V30 3086 C 297.616 -7.18221 0.393868 0
M  V30 3087 C 299.642 -5.91322 -0.095894 0
M  V30 3088 C 299.004 -7.0283 0.470081 0
M  V30 3089 H 295.103 -0.678939 -0.388028 0
M  V30 3090 H 297.687 -1.90811 -0.38722 0
M  V30 3091 H 295.858 -2.71931 -2.77323 0
M  V30 3092 H 297.59 -2.96606 -2.7533 0
M  V30 3093 H 294.345 -4.50849 -1.45024 0
M  V30 3094 H 294.769 -6.76888 -0.123312 0
M  V30 3095 H 299.411 -4.06192 -1.17337 0
M  V30 3096 H 297.129 -8.03835 0.82914 0
M  V30 3097 H 300.715 -5.81797 -0.0187075 0
M  V30 3098 H 299.595 -7.782 0.968241 0
M  V30 3099 N 297.098 0.621204 -1.44841 0
M  V30 3100 C 298.323 1.41244 -1.51871 0
M  V30 3101 C 298.748 1.87519 -0.147764 0
M  V30 3102 O 298.106 1.59334 0.865 0
M  V30 3103 C 298.154 2.60221 -2.49634 0
M  V30 3104 O 297.258 3.60395 -2.00473 0
M  V30 3105 H 296.599 0.42223 -0.512463 0
M  V30 3106 H 299.129 0.757305 -1.90069 0
M  V30 3107 H 299.139 3.0764 -2.67996 0
M  V30 3108 H 297.814 2.25887 -3.4921 0
M  V30 3109 H 296.391 3.19717 -1.91925 0
M  V30 3110 N 298.576 1.31904 0.862503 0
M  V30 3111 C 299.824 1.21776 1.61292 0
M  V30 3112 C 300.145 -0.222413 1.93727 0
M  V30 3113 O 299.415 -1.1451 1.58947 0
M  V30 3114 H 297.995 0.447717 0.597962 0
M  V30 3115 H 300.657 1.65326 1.03215 0
M  V30 3116 H 299.753 1.7948 2.5533 0
M  V30 3117 N 300.054 -1.07777 1.14986 0
M  V30 3118 C 301.3 -1.80557 0.923422 0
M  V30 3119 C 301.633 -1.86298 -0.548337 0
M  V30 3120 O 300.908 -1.34354 -1.40639 0
M  V30 3121 C 301.191 -3.25839 1.53299 0
M  V30 3122 C 301.044 -3.28269 3.07505 0
M  V30 3123 C 302.363 -4.22991 1.21518 0
M  V30 3124 H 299.482 -0.655493 0.336894 0
M  V30 3125 H 302.124 -1.26144 1.42083 0
M  V30 3126 H 300.274 -3.72306 1.10999 0
M  V30 3127 H 301.946 -2.90079 3.58681 0
M  V30 3128 H 300.189 -2.67355 3.4162 0
M  V30 3129 H 300.86 -4.30691 3.45266 0
M  V30 3130 H 303.336 -3.84894 1.581 0
M  V30 3131 H 302.212 -5.22945 1.66793 0
M  V30 3132 H 302.473 -4.41904 0.131505 0
M  V30 3133 N 301.532 -0.945985 -1.26051 0
M  V30 3134 C 302.48 -0.450259 -2.282 0
M  V30 3135 C 303.474 0.47497 -1.62605 0
M  V30 3136 O 304.68 0.352653 -1.76512 0
M  V30 3137 H 301.055 -0.127081 -0.741184 0
M  V30 3138 H 303.026 -1.32422 -2.67408 0
M  V30 3139 C 301.775 0.26467 -3.46691 0
M  V30 3140 H 301.098 -0.438123 -3.97392 0
M  V30 3141 H 302.538 0.575678 -4.20074 0
M  V30 3142 C 300.997 1.48416 -3.02447 0
M  V30 3143 O 301.527 2.58227 -3.07704 0
M  V30 3144 N 299.733 1.34243 -2.57735 0
M  V30 3145 H 299.28 0.448994 -2.53657 0
M  V30 3146 H 299.238 2.15957 -2.28495 0
M  V30 3147 N 303.011 1.40521 -0.713556 0
M  V30 3148 C 304.257 2.01221 -0.252564 0
M  V30 3149 C 304.59 1.56444 1.1506 0
M  V30 3150 O 303.865 0.783597 1.78017 0
M  V30 3151 C 304.148 3.58582 -0.330332 0
M  V30 3152 C 304.001 4.13437 -1.77173 0
M  V30 3153 C 305.32 4.39079 0.299641 0
M  V30 3154 H 302.439 0.731077 -0.0932471 0
M  V30 3155 H 305.081 1.67026 -0.905673 0
M  V30 3156 H 303.231 3.87844 0.225737 0
M  V30 3157 H 304.903 3.9498 -2.38303 0
M  V30 3158 H 303.146 3.67801 -2.3001 0
M  V30 3159 H 303.817 5.22597 -1.77755 0
M  V30 3160 H 306.293 4.15735 -0.174139 0
M  V30 3161 H 305.169 5.4848 0.214771 0
M  V30 3162 H 305.43 4.19915 1.38288 0
M  V30 3163 N 304.489 0.459591 1.5075 0
M  V30 3164 C 305.452 -0.329093 2.26825 0
M  V30 3165 C 306.452 -0.930481 1.31144 0
M  V30 3166 O 307.642 -0.801453 1.54669 0
M  V30 3167 C 304.774 -1.46768 3.07688 0
M  V30 3168 H 305.967 0.337924 2.9799 0
M  V30 3169 H 303.52 0.213336 1.54837 0
M  V30 3170 H 304.255 -2.17009 2.40993 0
M  V30 3171 H 304.04 -1.04238 3.77991 0
M  V30 3172 H 305.53 -2.02433 3.65254 0
M  V30 3173 N 305.967 -1.56429 0.191757 0
M  V30 3174 C 307.215 -1.97095 -0.447006 0
M  V30 3175 C 307.536 -1.07967 -1.62383 0
M  V30 3176 O 306.806 -0.150248 -1.95323 0
M  V30 3177 H 305.386 -0.727832 -0.168135 0
M  V30 3178 H 308.048 -1.92911 0.27771 0
M  V30 3179 H 307.144 -3.01848 -0.793371 0
M  V30 3180 N 307.445 0.0818655 -1.57387 0
M  V30 3181 C 308.691 0.784074 -1.8703 0
M  V30 3182 C 309.024 1.77729 -0.782689 0
M  V30 3183 O 308.299 1.93384 0.208051 0
M  V30 3184 C 308.582 1.50105 -3.27323 0
M  V30 3185 C 308.435 0.524925 -4.46727 0
M  V30 3186 C 309.754 2.44843 -3.65705 0
M  V30 3187 H 306.873 0.283582 -0.680257 0
M  V30 3188 H 309.515 0.0474352 -1.89941 0
M  V30 3189 H 307.665 2.12897 -3.24972 0
M  V30 3190 H 309.337 -0.0970111 -4.61198 0
M  V30 3191 H 307.58 -0.160606 -4.33503 0
M  V30 3192 H 308.251 1.064 -5.41648 0
M  V30 3193 H 310.727 1.92135 -3.69085 0
M  V30 3194 H 309.603 2.92018 -4.64776 0
M  V30 3195 H 309.864 3.29197 -2.95096 0
M  V30 3196 N 308.923 1.53595 0.353017 0
M  V30 3197 C 309.886 1.80232 1.41594 0
M  V30 3198 C 310.886 0.673081 1.46035 0
M  V30 3199 O 312.076 0.941335 1.46576 0
M  V30 3200 C 309.208 1.93578 2.80607 0
M  V30 3201 H 310.401 2.75174 1.19244 0
M  V30 3202 H 307.954 1.44864 0.586872 0
M  V30 3203 H 308.689 1.00746 3.08254 0
M  V30 3204 H 308.474 2.75724 2.78781 0
M  V30 3205 H 309.964 2.15735 3.57558 0
M  V30 3206 N 310.401 -0.613514 1.45168 0
M  V30 3207 C 311.331 -1.7354 1.56225 0
M  V30 3208 C 312.312 -1.64981 0.41414 0
M  V30 3209 O 313.497 -1.83472 0.636526 0
M  V30 3210 C 310.627 -3.12128 1.52295 0
M  V30 3211 C 309.581 -3.35491 2.65762 0
M  V30 3212 C 308.907 -4.74291 2.46885 0
M  V30 3213 C 310.207 -3.26325 4.0781 0
M  V30 3214 H 311.901 -1.64543 2.50132 0
M  V30 3215 H 309.447 -0.790185 1.20383 0
M  V30 3216 H 311.4 -3.90404 1.58628 0
M  V30 3217 H 310.124 -3.2195 0.549139 0
M  V30 3218 H 308.783 -2.59603 2.58847 0
M  V30 3219 H 308.431 -4.80839 1.47657 0
M  V30 3220 H 308.131 -4.9088 3.22972 0
M  V30 3221 H 309.655 -5.54775 2.55063 0
M  V30 3222 H 311.069 -3.94483 4.16 0
M  V30 3223 H 309.466 -3.54445 4.8424 0
M  V30 3224 H 310.536 -2.23855 4.30136 0
M  V30 3225 N 311.879 -1.3236 -0.855495 0
M  V30 3226 C 312.826 -1.21225 -1.964 0
M  V30 3227 C 313.796 -0.0946204 -1.6583 0
M  V30 3228 O 314.981 -0.27002 -1.8888 0
M  V30 3229 C 312.121 -0.940419 -3.32039 0
M  V30 3230 C 311.234 -2.14276 -3.75113 0
M  V30 3231 C 310.369 -1.80648 -4.9954 0
M  V30 3232 C 309.408 -2.97208 -5.35102 0
M  V30 3233 N 308.545 -2.63678 -6.50706 0
M  V30 3234 H 313.385 -2.16042 -2.05255 0
M  V30 3235 H 310.922 -1.07451 -1.00463 0
M  V30 3236 H 312.88 -0.763311 -4.10158 0
M  V30 3237 H 311.51 -0.0290413 -3.22787 0
M  V30 3238 H 310.562 -2.43017 -2.92655 0
M  V30 3239 H 311.874 -3.01468 -3.97389 0
M  V30 3240 H 311.028 -1.59484 -5.85363 0
M  V30 3241 H 309.767 -0.906678 -4.79198 0
M  V30 3242 H 308.772 -3.19004 -4.47791 0
M  V30 3243 H 309.997 -3.87918 -5.57401 0
M  V30 3244 H 307.943 -1.76238 -6.31883 0
M  V30 3245 H 307.86 -3.444 -6.72997 0
M  V30 3246 H 309.128 -2.45942 -7.39684 0
M  V30 3247 N 313.357 1.07166 -1.15556 0
M  V30 3248 C 314.585 1.83514 -0.955519 0
M  V30 3249 C 315 1.82163 0.49621 0
M  V30 3250 O 314.357 1.23441 1.34419 0
M  V30 3251 C 314.408 3.30515 -1.46432 0
M  V30 3252 O 314.129 3.31937 -2.85918 0
M  V30 3253 C 315.63 4.23625 -1.30603 0
M  V30 3254 H 312.85 0.578926 -0.339244 0
M  V30 3255 H 315.394 1.35265 -1.53374 0
M  V30 3256 H 313.549 3.76106 -0.928584 0
M  V30 3257 H 313.963 4.23794 -3.09029 0
M  V30 3258 H 315.437 5.24831 -1.71047 0
M  V30 3259 H 315.914 4.38485 -0.250441 0
M  V30 3260 H 316.52 3.83871 -1.83094 0
M  V30 3261 N 314.835 0.952656 1.25548 0
M  V30 3262 C 315.765 0.489287 2.28316 0
M  V30 3263 C 316.746 -0.463359 1.63667 0
M  V30 3264 O 317.931 -0.36274 1.90782 0
M  V30 3265 C 315.061 -0.235603 3.465 0
M  V30 3266 C 314.015 0.631593 4.23314 0
M  V30 3267 C 313.341 -0.223923 5.34231 0
M  V30 3268 C 314.641 1.90871 4.86174 0
M  V30 3269 H 316.335 1.34822 2.67326 0
M  V30 3270 H 313.881 0.649728 1.28509 0
M  V30 3271 H 315.834 -0.570882 4.17515 0
M  V30 3272 H 314.558 -1.12877 3.06474 0
M  V30 3273 H 313.217 0.949929 3.54079 0
M  V30 3274 H 312.865 -1.11678 4.90446 0
M  V30 3275 H 312.565 0.35299 5.86539 0
M  V30 3276 H 314.089 -0.554214 6.0808 0
M  V30 3277 H 315.503 1.63997 5.49343 0
M  V30 3278 H 313.9 2.43112 5.4865 0
M  V30 3279 H 314.97 2.61304 4.08471 0
M  V30 3280 N 316.313 -1.40141 0.720998 0
M  V30 3281 C 317.59 -1.94677 0.189757 0
M  V30 3282 C 317.97 -1.65879 -1.30566 0
M  V30 3283 O 317.318 -0.979391 -2.06447 0
M  V30 3284 C 317.528 -3.45279 0.508304 0
M  V30 3285 C 318.876 -4.22209 0.449934 0
M  V30 3286 O 319.9 -3.53413 0.444677 0
M  V30 3287 O 318.759 -5.44788 0.432189 0
M  V30 3288 H 315.853 -0.826459 0.0299026 0
M  V30 3289 H 318.399 -1.49719 0.7989 0
M  V30 3290 H 317.171 -3.59619 1.54239 0
M  V30 3291 H 316.794 -3.97386 -0.130525 0
M  V30 3292 N 317.792 -0.46758 -1.50504 0
M  V30 3293 C 319.203 -0.0116166 -1.86696 0
M  V30 3294 C 319.554 1.39202 -1.38265 0
M  V30 3295 O 318.679 2.0313 -0.746132 0
M  V30 3296 C 319.274 -0.0143044 -3.38797 0
M  V30 3297 C 317.833 0.386175 -3.74414 0
M  V30 3298 C 316.98 -0.401287 -2.74381 0
M  V30 3299 H 319.931 -0.682022 -1.43297 0
M  V30 3300 H 319.952 0.788641 -3.72237 0
M  V30 3301 H 319.464 -1.03602 -3.74016 0
M  V30 3302 H 317.565 1.41237 -3.44794 0
M  V30 3303 H 317.678 0.0899596 -4.79016 0
M  V30 3304 H 316.042 0.144536 -2.5429 0
M  V30 3305 H 316.825 -1.42244 -3.12444 0
M  V30 3306 N 319.27 1.56325 -0.20005 0
M  V30 3307 C 320.217 2.1932 0.718833 0
M  V30 3308 C 321.187 1.14198 1.20615 0
M  V30 3309 O 322.372 1.42469 1.26914 0
M  V30 3310 C 319.512 2.86041 1.93066 0
M  V30 3311 C 318.625 4.05702 1.48425 0
M  V30 3312 C 317.76 4.60266 2.65196 0
M  V30 3313 C 316.799 5.72273 2.17185 0
M  V30 3314 N 315.936 6.21221 3.27152 0
M  V30 3315 H 320.776 2.97486 0.17489 0
M  V30 3316 H 318.313 1.46911 0.0745794 0
M  V30 3317 H 320.271 3.22897 2.64184 0
M  V30 3318 H 318.901 2.1043 2.44783 0
M  V30 3319 H 317.953 3.74475 0.668755 0
M  V30 3320 H 319.265 4.86699 1.09204 0
M  V30 3321 H 318.419 4.99453 3.4443 0
M  V30 3322 H 317.158 3.78386 3.07693 0
M  V30 3323 H 316.163 5.3261 1.36407 0
M  V30 3324 H 317.388 6.55974 1.75713 0
M  V30 3325 H 315.334 5.42263 3.69171 0
M  V30 3326 H 315.251 6.97284 2.92116 0
M  V30 3327 H 316.519 6.65063 4.06585 0
M  V30 3328 N 320.748 -0.0735177 1.57428 0
M  V30 3329 C 321.678 -1.0879 2.06608 0
M  V30 3330 C 322.659 -1.40473 0.959237 0
M  V30 3331 O 323.844 -1.5013 1.23185 0
M  V30 3332 C 320.974 -2.40183 2.50857 0
M  V30 3333 C 319.928 -2.22858 3.65402 0
M  V30 3334 C 319.254 -3.59619 3.957 0
M  V30 3335 C 320.554 -1.65123 4.95511 0
M  V30 3336 H 322.248 -0.678673 2.91607 0
M  V30 3337 H 319.794 -0.325013 1.40284 0
M  V30 3338 H 321.747 -3.11437 2.83874 0
M  V30 3339 H 320.471 -2.83083 1.62885 0
M  V30 3340 H 319.13 -1.54045 3.32664 0
M  V30 3341 H 318.778 -4.00086 3.04861 0
M  V30 3342 H 318.478 -3.48866 4.72828 0
M  V30 3343 H 320.002 -4.32306 4.31212 0
M  V30 3344 H 321.416 -2.26241 5.26771 0
M  V30 3345 H 319.813 -1.65071 5.7695 0
M  V30 3346 H 320.883 -0.612559 4.81015 0
M  V30 3347 N 322.226 -1.5378 -0.344866 0
M  V30 3348 C 323.474 -1.70625 -1.08311 0
M  V30 3349 C 323.795 -0.471447 -1.89215 0
M  V30 3350 O 323.065 0.514616 -1.8902 0
M  V30 3351 H 321.645 -0.629058 -0.402859 0
M  V30 3352 H 324.307 -1.9103 -0.386459 0
M  V30 3353 H 323.403 -2.57656 -1.76124 0
M  V30 3354 N 323.704 0.605807 -1.45491 0
M  V30 3355 C 324.932 1.39136 -1.5313 0
M  V30 3356 C 325.347 1.88082 -0.164507 0
M  V30 3357 O 324.704 1.62316 0.834247 0
M  V30 3358 C 324.755 2.59463 -2.51716 0
M  V30 3359 O 324.476 2.12551 -3.83084 0
M  V30 3360 C 325.977 3.52301 -2.6907 0
M  V30 3361 H 323.197 0.425849 -0.51855 0
M  V30 3362 H 325.741 0.73865 -1.90694 0
M  V30 3363 H 323.896 3.20772 -2.17219 0
M  V30 3364 H 324.31 2.90744 -4.36541 0
M  V30 3365 H 325.784 4.33271 -3.42024 0
M  V30 3366 H 326.261 4.02757 -1.75167 0
M  V30 3367 H 326.867 2.96845 -3.04571 0
M  V30 3368 N 325.182 1.32811 0.848464 0
M  V30 3369 C 326.459 1.14334 1.58704 0
M  V30 3370 C 326.839 -0.293948 2.09043 0
M  V30 3371 O 326.187 -1.29153 1.88499 0
M  V30 3372 C 326.397 2.17626 2.72837 0
M  V30 3373 C 327.745 2.51282 3.42261 0
M  V30 3374 O 328.769 2.16219 2.83068 0
M  V30 3375 O 327.628 3.11413 4.49093 0
M  V30 3376 H 324.722 0.441601 0.699226 0
M  V30 3377 H 327.268 1.44362 0.892053 0
M  V30 3378 H 326.04 3.14211 2.3321 0
M  V30 3379 H 325.663 1.88628 3.50008 0
M  V30 3380 N 326.66 -1.06551 1.16123 0
M  V30 3381 C 327.885 -1.83544 0.965735 0
M  V30 3382 C 328.31 -1.81843 -0.481102 0
M  V30 3383 O 327.668 -1.21732 -1.34354 0
M  V30 3384 C 327.716 -3.28169 1.49457 0
M  V30 3385 O 326.82 -4.0643 0.699157 0
M  V30 3386 H 326.161 -0.568026 0.343864 0
M  V30 3387 H 328.691 -1.34362 1.54299 0
M  V30 3388 H 328.701 -3.78992 1.51092 0
M  V30 3389 H 327.376 -3.28722 2.54784 0
M  V30 3390 H 325.953 -3.65216 0.7531 0
M  V30 3391 N 328.138 -0.959301 -1.25041 0
M  V30 3392 C 329.415 -0.533805 -1.88175 0
M  V30 3393 C 329.795 0.988994 -1.865 0
M  V30 3394 O 329.143 1.85677 -1.33177 0
M  V30 3395 C 329.353 -1.11575 -3.30684 0
M  V30 3396 C 330.701 -1.19548 -4.07423 0
M  V30 3397 O 331.725 -1.06765 -3.39823 0
M  V30 3398 O 330.584 -1.39656 -5.28354 0
M  V30 3399 H 327.678 -0.176772 -0.807887 0
M  V30 3400 H 330.224 -1.05303 -1.33076 0
M  V30 3401 H 328.996 -2.15884 -3.26358 0
M  V30 3402 H 328.619 -0.580059 -3.93346 0
M  V30 3403 N 329.616 1.39756 -0.72842 0
M  V30 3404 C 330.563 2.30647 -0.0841519 0
M  V30 3405 C 331.533 1.48869 0.7367 0
M  V30 3406 O 332.718 1.77574 0.698015 0
M  V30 3407 C 329.858 3.35165 0.822091 0
M  V30 3408 C 328.971 4.31999 -0.0106663 0
M  V30 3409 C 328.106 5.23585 0.896241 0
M  V30 3410 C 327.145 6.12072 0.0583381 0
M  V30 3411 N 326.282 6.96035 0.920818 0
M  V30 3412 H 331.122 2.85173 -0.864891 0
M  V30 3413 H 328.659 1.40422 -0.438179 0
M  V30 3414 H 330.617 3.94345 1.36189 0
M  V30 3415 H 329.247 2.8211 1.56888 0
M  V30 3416 H 328.299 3.74492 -0.66781 0
M  V30 3417 H 329.611 4.9443 -0.658825 0
M  V30 3418 H 328.765 5.87759 1.50412 0
M  V30 3419 H 327.504 4.61459 1.57819 0
M  V30 3420 H 326.509 5.46916 -0.562389 0
M  V30 3421 H 327.734 6.76261 -0.6203 0
M  V30 3422 H 325.68 6.36485 1.58818 0
M  V30 3423 H 325.597 7.55284 0.32899 0
M  V30 3424 H 326.865 7.64646 1.51447 0
M  V30 3425 N 331.094 0.475555 1.50254 0
M  V30 3426 C 332.004 -0.321501 2.32387 0
M  V30 3427 C 333.02 -0.991755 1.42969 0
M  V30 3428 O 334.196 -0.978747 1.76018 0
M  V30 3429 C 331.261 -1.38667 3.17762 0
M  V30 3430 C 330.322 -0.732538 4.23004 0
M  V30 3431 C 329.555 -1.74695 5.04299 0
M  V30 3432 O 329.778 -2.97399 4.86734 0
M  V30 3433 O 328.712 -1.31631 5.8733 0
M  V30 3434 H 332.538 0.350071 3.01676 0
M  V30 3435 H 330.123 0.237321 1.47503 0
M  V30 3436 H 332.005 -2.00354 3.70724 0
M  V30 3437 H 330.68 -2.04163 2.51196 0
M  V30 3438 H 329.587 -0.0765902 3.74022 0
M  V30 3439 H 330.92 -0.120452 4.92053 0
M  V30 3440 N 332.573 -1.56217 0.208337 0
M  V30 3441 C 333.523 -2.16324 -0.720281 0
M  V30 3442 C 334.507 -1.10775 -1.16695 0
M  V30 3443 O 335.699 -1.36801 -1.12314 0
M  V30 3444 C 332.828 -2.83644 -1.93393 0
M  V30 3445 C 331.914 -3.96401 -1.50755 0
M  V30 3446 N 332.305 -4.99546 -0.792937 0
M  V30 3447 C 330.603 -4.08246 -1.79585 0
M  V30 3448 C 331.304 -5.78828 -0.577364 0
M  V30 3449 N 330.28 -5.31723 -1.1301 0
M  V30 3450 H 334.082 -2.93432 -0.165725 0
M  V30 3451 H 331.596 -1.62397 0.00906463 0
M  V30 3452 H 333.593 -3.25107 -2.60981 0
M  V30 3453 H 332.253 -2.08027 -2.49308 0
M  V30 3454 H 333.264 -5.15967 -0.447004 0
M  V30 3455 H 329.941 -3.4377 -2.36915 0
M  V30 3456 H 331.331 -6.71899 -0.00952956 0
M  V30 3457 N 334.051 0.0651679 -1.57465 0
M  V30 3458 C 335.297 0.758912 -1.88712 0
M  V30 3459 C 335.652 1.7485 -0.802819 0
M  V30 3460 O 334.945 1.90632 0.192359 0
M  V30 3461 C 335.139 1.50081 -3.24362 0
M  V30 3462 C 334.968 0.584579 -4.45884 0
M  V30 3463 C 333.738 0.219039 -5.04825 0
M  V30 3464 C 335.936 -0.121559 -5.14156 0
M  V30 3465 N 333.918 -0.702222 -6.09871 0
M  V30 3466 C 335.289 -0.899767 -6.13436 0
M  V30 3467 C 337.344 -0.192331 -4.97528 0
M  V30 3468 C 336.047 -1.74218 -6.97883 0
M  V30 3469 C 338.073 -1.02174 -5.82507 0
M  V30 3470 C 337.435 -1.78798 -6.8133 0
M  V30 3471 H 333.534 0.25293 -0.739967 0
M  V30 3472 H 336.118 0.0201744 -1.9469 0
M  V30 3473 H 334.289 2.21023 -3.1938 0
M  V30 3474 H 336.021 2.14409 -3.43236 0
M  V30 3475 H 332.776 0.57336 -4.70117 0
M  V30 3476 H 333.2 -1.15629 -6.67052 0
M  V30 3477 H 337.842 0.385741 -4.21037 0
M  V30 3478 H 335.56 -2.3312 -7.73745 0
M  V30 3479 H 339.146 -1.07957 -5.71696 0
M  V30 3480 H 338.026 -2.41942 -7.45945 0
M  V30 3481 N 335.529 1.53961 0.336706 0
M  V30 3482 C 336.476 1.82428 1.41381 0
M  V30 3483 C 337.446 0.670444 1.51968 0
M  V30 3484 O 338.631 0.915565 1.67398 0
M  V30 3485 C 335.771 2.04564 2.77934 0
M  V30 3486 C 334.884 3.32267 2.76084 0
M  V30 3487 C 334.019 3.44434 4.04399 0
M  V30 3488 C 333.058 4.66061 3.96804 0
M  V30 3489 N 332.195 4.75224 5.16823 0
M  V30 3490 H 337.035 2.74324 1.16405 0
M  V30 3491 H 334.572 1.35869 0.563752 0
M  V30 3492 H 336.53 2.15388 3.57301 0
M  V30 3493 H 335.16 1.15974 3.01247 0
M  V30 3494 H 334.212 3.3025 1.88784 0
M  V30 3495 H 335.524 4.21733 2.66351 0
M  V30 3496 H 334.678 3.54728 4.92192 0
M  V30 3497 H 333.417 2.53037 4.16921 0
M  V30 3498 H 332.422 4.55838 3.07396 0
M  V30 3499 H 333.647 5.58829 3.85858 0
M  V30 3500 H 331.593 3.86739 5.29876 0
M  V30 3501 H 331.51 5.58636 5.09374 0
M  V30 3502 H 332.778 4.89835 6.06367 0
M  V30 3503 N 337.007 -0.598083 1.45811 0
M  V30 3504 C 337.955 -1.72932 1.55555 0
M  V30 3505 C 338.949 -1.63984 0.424921 0
M  V30 3506 O 340.155 -1.69663 0.601205 0
M  V30 3507 H 336.53 -0.571489 0.488779 0
M  V30 3508 H 338.501 -1.61842 2.50699 0
M  V30 3509 C 337.25 -3.11318 1.54843 0
M  V30 3510 H 336.573 -3.18867 2.41172 0
M  V30 3511 H 338.013 -3.90274 1.65717 0
M  V30 3512 C 336.472 -3.3578 0.274427 0
M  V30 3513 O 337.002 -3.9654 -0.641778 0
M  V30 3514 N 335.208 -2.90119 0.167139 0
M  V30 3515 H 334.755 -2.40855 0.913596 0
M  V30 3516 H 334.713 -3.0686 -0.684435 0
M  V30 3517 N 338.485 -1.33259 -0.841409 0
M  V30 3518 C 339.734 -1.23921 -1.59143 0
M  V30 3519 C 340.047 0.1941 -1.94635 0
M  V30 3520 O 341.253 0.409474 -2.68394 0
M  V30 3521 C 339.709 -2.17119 -2.87032 0
M  V30 3522 C 339.317 -3.65606 -2.58914 0
M  V30 3523 C 341.061 -2.16648 -3.65053 0
M  V30 3524 C 338.968 -4.50726 -3.82884 0
M  V30 3525 H 337.898 -0.460264 -0.597221 0
M  V30 3526 H 340.549 -1.58307 -0.927959 0
M  V30 3527 H 338.931 -1.75663 -3.54906 0
M  V30 3528 H 340.105 -4.15487 -1.99267 0
M  V30 3529 H 338.42 -3.68341 -1.942 0
M  V30 3530 H 341.017 -2.77474 -4.57069 0
M  V30 3531 H 341.36 -1.16088 -3.99787 0
M  V30 3532 H 341.893 -2.56453 -3.041 0
M  V30 3533 H 338.632 -5.52151 -3.53283 0
M  V30 3534 H 338.152 -4.0559 -4.41879 0
M  V30 3535 H 339.831 -4.64401 -4.50489 0
M  V30 3536 N 339.963 1.05934 -1.16686 0
M  V30 3537 C 340.913 2.11764 -0.844978 0
M  V30 3538 C 341.897 1.59922 0.177178 0
M  V30 3539 O 343.089 1.76983 -0.0241768 0
M  V30 3540 C 340.218 3.41493 -0.351812 0
M  V30 3541 C 339.304 4.00152 -1.40496 0
M  V30 3542 N 339.695 4.32874 -2.61636 0
M  V30 3543 C 337.993 4.278 -1.26106 0
M  V30 3544 C 338.694 4.79552 -3.29249 0
M  V30 3545 N 337.67 4.79211 -2.56628 0
M  V30 3546 H 341.472 2.34916 -1.76612 0
M  V30 3547 H 338.986 1.23511 -1.05446 0
M  V30 3548 H 340.983 4.16773 -0.102796 0
M  V30 3549 H 339.643 3.19778 0.56322 0
M  V30 3550 H 340.654 4.23109 -2.98663 0
M  V30 3551 H 337.331 4.15511 -0.407081 0
M  V30 3552 H 338.721 5.14045 -4.32675 0
M  V30 3553 N 341.441 0.965919 1.2453 0
M  V30 3554 C 342.388 0.49402 2.25451 0
M  V30 3555 C 343.358 -0.45948 1.59618 0
M  V30 3556 O 344.543 -0.370238 1.87173 0
M  V30 3557 C 341.683 -0.211359 3.44452 0
M  V30 3558 C 340.796 0.7807 4.24887 0
M  V30 3559 C 339.931 0.0516105 5.31175 0
M  V30 3560 C 338.97 1.03385 6.03306 0
M  V30 3561 N 338.107 0.334887 7.01301 0
M  V30 3562 H 342.947 1.35946 2.65184 0
M  V30 3563 H 340.484 0.681515 1.3036 0
M  V30 3564 H 342.442 -0.637 4.12308 0
M  V30 3565 H 341.072 -1.04077 3.05562 0
M  V30 3566 H 340.124 1.32479 3.56586 0
M  V30 3567 H 341.436 1.52978 4.74762 0
M  V30 3568 H 340.59 -0.432114 6.05159 0
M  V30 3569 H 339.329 -0.730179 4.82203 0
M  V30 3570 H 338.334 1.52847 5.28127 0
M  V30 3571 H 339.559 1.81606 6.54367 0
M  V30 3572 H 337.505 -0.427959 6.54603 0
M  V30 3573 H 337.422 1.02287 7.49048 0
M  V30 3574 H 338.69 -0.126928 7.79397 0
M  V30 3575 N 342.919 -1.39368 0.735821 0
M  V30 3576 C 343.851 -2.2913 0.0567723 0
M  V30 3577 C 344.864 -1.46859 -0.702589 0
M  V30 3578 O 346.053 -1.69925 -0.546616 0
M  V30 3579 C 343.153 -3.25492 -0.943823 0
M  V30 3580 C 342.326 -4.36709 -0.24581 0
M  V30 3581 C 341.385 -5.13376 -1.15463 0
M  V30 3582 O 340.411 -5.65683 -0.631803 0
M  V30 3583 N 341.613 -5.24656 -2.48427 0
M  V30 3584 H 344.378 -2.88047 0.827582 0
M  V30 3585 H 341.939 -1.50957 0.585112 0
M  V30 3586 H 343.931 -3.73657 -1.55443 0
M  V30 3587 H 342.501 -2.676 -1.61583 0
M  V30 3588 H 341.721 -3.9041 0.545286 0
M  V30 3589 H 343.009 -5.08244 0.237891 0
M  V30 3590 H 342.407 -4.83679 -2.93379 0
M  V30 3591 H 340.964 -5.76258 -3.04582 0
M  V30 3592 N 344.397 -0.483516 -1.5 0
M  V30 3593 C 345.643 0.0672592 -2.02688 0
M  V30 3594 C 345.976 1.38247 -1.36387 0
M  V30 3595 O 345.251 1.88131 -0.493675 0
M  V30 3596 C 345.534 0.238109 -3.59312 0
M  V30 3597 C 345.387 -1.099 -4.36168 0
M  V30 3598 C 346.706 0.986916 -4.28892 0
M  V30 3599 H 343.825 0.0229696 -0.736642 0
M  V30 3600 H 346.467 -0.631527 -1.79197 0
M  V30 3601 H 344.617 0.8333 -3.79458 0
M  V30 3602 H 346.289 -1.73172 -4.27562 0
M  V30 3603 H 344.532 -1.69261 -3.99416 0
M  V30 3604 H 345.203 -0.932954 -5.44059 0
M  V30 3605 H 347.679 0.482302 -4.13295 0
M  V30 3606 H 346.555 1.07527 -5.38265 0
M  V30 3607 H 346.816 2.0265 -3.92919 0
M  V30 3608 N 345.875 1.56104 -0.216619 0
M  V30 3609 C 347.124 1.97348 0.416744 0
M  V30 3610 C 347.437 1.10715 1.6125 0
M  V30 3611 O 348.643 1.41836 2.31506 0
M  V30 3612 C 347.099 3.51059 0.792835 0
M  V30 3613 C 346.707 4.46387 -0.379828 0
M  V30 3614 C 348.451 4.01026 1.39208 0
M  V30 3615 C 346.358 5.91397 0.0184223 0
M  V30 3616 H 345.288 0.736942 0.159475 0
M  V30 3617 H 347.939 1.80827 -0.31205 0
M  V30 3618 H 346.321 3.63162 1.57891 0
M  V30 3619 H 347.495 4.46029 -1.15737 0
M  V30 3620 H 345.81 4.06734 -0.891979 0
M  V30 3621 H 348.407 5.0686 1.70286 0
M  V30 3622 H 348.75 3.46587 2.30614 0
M  V30 3623 H 349.283 3.92125 0.669537 0
M  V30 3624 H 346.022 6.49807 -0.862002 0
M  V30 3625 H 345.542 5.94961 0.760384 0
M  V30 3626 H 347.221 6.45455 0.446818 0
M  V30 3627 N 347.353 -0.0568162 1.57498 0
M  V30 3628 C 348.285 -1.09292 2.01464 0
M  V30 3629 C 349.298 -1.34112 0.922913 0
M  V30 3630 O 350.487 -1.32089 1.20062 0
M  V30 3631 C 347.587 -2.44068 2.35125 0
M  V30 3632 C 346.76 -2.38995 3.66333 0
M  V30 3633 C 345.819 -3.55997 3.87495 0
M  V30 3634 O 344.845 -3.36746 4.58901 0
M  V30 3635 N 346.047 -4.76888 3.30996 0
M  V30 3636 H 348.812 -0.718386 2.90963 0
M  V30 3637 H 346.373 -0.245235 1.60032 0
M  V30 3638 H 348.365 -3.21011 2.46443 0
M  V30 3639 H 346.935 -2.73468 1.5144 0
M  V30 3640 H 346.155 -1.47336 3.65631 0
M  V30 3641 H 347.443 -2.3272 4.52458 0
M  V30 3642 H 346.841 -4.95431 2.73065 0
M  V30 3643 H 345.398 -5.51291 3.47738 0
M  V30 3644 N 348.832 -1.54138 -0.328536 0
M  V30 3645 C 350.057 -1.76378 -1.09112 0
M  V30 3646 C 350.482 -0.508596 -1.81094 0
M  V30 3647 O 349.84 0.539598 -1.73084 0
M  V30 3648 C 349.888 -2.95358 -2.06872 0
M  V30 3649 O 348.992 -2.66556 -3.14677 0
M  V30 3650 H 348.333 -0.584614 -0.314838 0
M  V30 3651 H 350.863 -2.01146 -0.374348 0
M  V30 3652 H 350.873 -3.22566 -2.4983 0
M  V30 3653 H 349.548 -3.86385 -1.5388 0
M  V30 3654 H 348.125 -2.50282 -2.7643 0
M  V30 3655 N 350.31 0.590341 -1.46126 0
M  V30 3656 C 351.273 1.68194 -1.55703 0
M  V30 3657 C 352.273 1.54808 -0.434868 0
M  V30 3658 O 353.463 1.59564 -0.698928 0
M  V30 3659 C 350.595 3.07575 -1.47005 0
M  V30 3660 H 351.788 1.61064 -2.52979 0
M  V30 3661 H 349.341 0.807541 -1.33823 0
M  V30 3662 H 350.076 3.20268 -0.509785 0
M  V30 3663 H 349.861 3.187 -2.28414 0
M  V30 3664 H 351.351 3.87055 -1.56776 0
M  V30 3665 N 351.788 1.33704 0.83433 0
M  V30 3666 C 353.018 1.28281 1.6195 0
M  V30 3667 C 353.426 -0.147603 1.88623 0
M  V30 3668 O 352.769 -1.1016 1.47005 0
M  V30 3669 C 352.831 1.99386 2.99141 0
M  V30 3670 C 352.495 3.48681 2.95416 0
M  V30 3671 C 353.492 4.438 2.70809 0
M  V30 3672 C 351.177 3.90925 3.15409 0
M  V30 3673 C 353.171 5.79138 2.66229 0
M  V30 3674 C 350.858 5.26366 3.10454 0
M  V30 3675 C 351.856 6.20284 2.85895 0
M  V30 3676 O 351.544 7.53245 2.80852 0
M  V30 3677 H 351.276 0.44315 0.510484 0
M  V30 3678 H 353.83 1.76711 1.04702 0
M  V30 3679 H 352.06 1.45554 3.58261 0
M  V30 3680 H 353.749 1.87403 3.60049 0
M  V30 3681 H 354.515 4.12485 2.5511 0
M  V30 3682 H 350.394 3.18229 3.33543 0
M  V30 3683 H 353.938 6.52416 2.4698 0
M  V30 3684 H 349.835 5.57304 3.25703 0
M  V30 3685 H 350.603 7.62846 2.96661 0
M  V30 3686 N 353.266 -1.05314 1.17247 0
M  V30 3687 C 354.176 -2.16538 0.90268 0
M  V30 3688 C 355.192 -1.73523 -0.128707 0
M  V30 3689 O 356.368 -2.01337 0.0502701 0
M  V30 3690 C 353.433 -3.44167 0.418356 0
M  V30 3691 C 352.494 -4.01635 1.51618 0
M  V30 3692 C 351.727 -5.23171 1.05487 0
M  V30 3693 O 351.95 -5.70327 -0.0914715 0
M  V30 3694 O 350.884 -5.72848 1.8474 0
M  V30 3695 H 354.71 -2.42145 1.83302 0
M  V30 3696 H 352.295 -1.15037 0.953246 0
M  V30 3697 H 354.177 -4.21112 0.155726 0
M  V30 3698 H 352.852 -3.20063 -0.48385 0
M  V30 3699 H 351.759 -3.26135 1.83268 0
M  V30 3700 H 353.092 -4.30053 2.39405 0
M  V30 3701 N 354.744 -0.972509 -1.24016 0
M  V30 3702 C 355.993 -0.632603 -1.91523 0
M  V30 3703 C 356.306 0.836641 -1.76804 0
M  V30 3704 O 357.512 1.28728 -2.39043 0
M  V30 3705 C 355.968 -1.08082 -3.43287 0
M  V30 3706 C 355.576 -2.57386 -3.66683 0
M  V30 3707 C 357.32 -0.814288 -4.16617 0
M  V30 3708 C 355.227 -2.95915 -5.12043 0
M  V30 3709 H 354.157 -0.232898 -0.717129 0
M  V30 3710 H 356.808 -1.17936 -1.40582 0
M  V30 3711 H 355.19 -0.462339 -3.93292 0
M  V30 3712 H 356.364 -3.24405 -3.27258 0
M  V30 3713 H 354.679 -2.81701 -3.06649 0
M  V30 3714 H 357.276 -1.0781 -5.23718 0
M  V30 3715 H 357.619 0.24955 -4.15551 0
M  V30 3716 H 358.152 -1.39397 -3.72577 0
M  V30 3717 H 354.891 -4.0139 -5.18234 0
M  V30 3718 H 354.411 -2.33584 -5.52448 0
M  V30 3719 H 356.09 -2.86086 -5.80314 0
M  V30 3720 N 356.222 1.38976 -0.743202 0
M  V30 3721 C 357.471 1.99581 -0.291592 0
M  V30 3722 C 357.784 1.59656 1.13001 0
M  V30 3723 O 358.99 2.13157 1.68156 0
M  V30 3724 C 357.446 3.56813 -0.470391 0
M  V30 3725 C 357.054 4.05695 -1.90041 0
M  V30 3726 C 358.798 4.24423 -0.0809709 0
M  V30 3727 C 356.705 5.5553 -2.02832 0
M  V30 3728 H 355.635 0.746615 -0.105272 0
M  V30 3729 H 358.286 1.58872 -0.918258 0
M  V30 3730 H 356.668 3.95359 0.225299 0
M  V30 3731 H 357.842 3.78464 -2.62872 0
M  V30 3732 H 356.157 3.50775 -2.24379 0
M  V30 3733 H 358.754 5.34474 -0.155445 0
M  V30 3734 H 359.097 4.04962 0.96497 0
M  V30 3735 H 359.63 3.9108 -0.728124 0
M  V30 3736 H 356.369 5.79881 -3.05643 0
M  V30 3737 H 355.889 5.84537 -1.34448 0
M  V30 3738 H 357.568 6.21069 -1.81335 0
M  V30 3739 N 357.7 0.491464 1.49741 0
M  V30 3740 C 358.647 -0.292027 2.28945 0
M  V30 3741 C 359.617 -0.968973 1.34908 0
M  V30 3742 O 360.802 -0.97748 1.6386 0
M  V30 3743 C 357.942 -1.35617 3.17336 0
M  V30 3744 C 357.055 -0.691957 4.26422 0
M  V30 3745 C 356.19 -1.73572 5.02042 0
M  V30 3746 C 355.229 -1.05286 6.02977 0
M  V30 3747 N 354.366 -2.0404 6.71798 0
M  V30 3748 H 359.206 0.389654 2.95442 0
M  V30 3749 H 356.743 0.204003 1.45679 0
M  V30 3750 H 358.701 -1.98502 3.66951 0
M  V30 3751 H 357.331 -2.00674 2.52844 0
M  V30 3752 H 356.383 0.0499523 3.80367 0
M  V30 3753 H 357.695 -0.153946 4.98562 0
M  V30 3754 H 356.849 -2.43987 5.55478 0
M  V30 3755 H 355.588 -2.30757 4.29654 0
M  V30 3756 H 354.593 -0.334446 5.48782 0
M  V30 3757 H 355.818 -0.487636 6.77347 0
M  V30 3758 H 353.764 -2.60205 6.02187 0
M  V30 3759 H 353.681 -1.55279 7.39881 0
M  V30 3760 H 354.949 -2.73772 7.29842 0
M  V30 3761 N 359.178 -1.55987 0.224894 0
M  V30 3762 C 360.108 -2.23426 -0.678457 0
M  V30 3763 C 361.089 -1.20709 -1.19847 0
M  V30 3764 O 362.274 -1.49304 -1.24186 0
M  V30 3765 C 359.404 -2.91676 -1.88527 0
M  V30 3766 C 358.358 -4.00893 -1.49896 0
M  V30 3767 C 357.684 -4.56455 -2.78483 0
M  V30 3768 C 358.984 -5.17769 -0.686461 0
M  V30 3769 H 360.678 -2.99175 -0.116173 0
M  V30 3770 H 358.224 -1.43897 -0.054436 0
M  V30 3771 H 360.177 -3.37547 -2.5227 0
M  V30 3772 H 358.901 -2.1338 -2.47258 0
M  V30 3773 H 357.56 -3.55758 -0.884985 0
M  V30 3774 H 357.208 -3.74886 -3.35365 0
M  V30 3775 H 356.908 -5.30169 -2.53368 0
M  V30 3776 H 358.432 -5.05047 -3.43162 0
M  V30 3777 H 359.846 -5.60001 -1.22767 0
M  V30 3778 H 358.243 -5.97735 -0.532259 0
M  V30 3779 H 359.313 -4.83932 0.306196 0
M  V30 3780 N 360.656 0.0484629 -1.57525 0
M  V30 3781 C 361.603 1.05504 -2.05275 0
M  V30 3782 C 362.573 1.37084 -0.937927 0
M  V30 3783 O 363.758 1.47754 -1.2072 0
M  V30 3784 C 360.898 2.35676 -2.52093 0
M  V30 3785 C 360.011 2.10423 -3.77288 0
M  V30 3786 C 359.146 3.34327 -4.12794 0
M  V30 3787 C 358.185 3.04542 -5.30962 0
M  V30 3788 N 357.322 4.20841 -5.61994 0
M  V30 3789 H 362.162 0.640885 -2.91027 0
M  V30 3790 H 359.699 0.304854 -1.43906 0
M  V30 3791 H 361.657 3.11709 -2.77297 0
M  V30 3792 H 360.287 2.7485 -1.69285 0
M  V30 3793 H 359.339 1.24976 -3.59284 0
M  V30 3794 H 360.651 1.84438 -4.63448 0
M  V30 3795 H 359.805 4.1874 -4.39024 0
M  V30 3796 H 358.544 3.63408 -3.25247 0
M  V30 3797 H 357.549 2.18528 -5.04505 0
M  V30 3798 H 358.774 2.76758 -6.20146 0
M  V30 3799 H 356.72 4.4991 -4.77406 0
M  V30 3800 H 356.637 3.98212 -6.42622 0
M  V30 3801 H 357.905 5.06184 -5.92789 0
M  V30 3802 N 362.134 1.5431 0.320358 0
M  V30 3803 C 363.382 1.72327 1.05583 0
M  V30 3804 C 363.703 0.50149 1.88441 0
M  V30 3805 O 362.973 -0.48448 1.89815 0
M  V30 3806 H 361.553 0.635387 0.3928 0
M  V30 3807 H 364.215 1.91621 0.356019 0
M  V30 3808 H 363.311 2.60426 1.72003 0
M  V30 3809 N 363.613 -0.582584 1.46437 0
M  V30 3810 C 364.843 -1.36484 1.55099 0
M  V30 3811 C 365.251 -1.88233 0.191056 0
M  V30 3812 O 364.594 -1.6429 -0.821858 0
M  V30 3813 C 364.656 -2.588 2.49525 0
M  V30 3814 C 364.32 -2.28517 3.95764 0
M  V30 3815 C 365.317 -1.87346 4.84972 0
M  V30 3816 C 363.002 -2.40658 4.40896 0
M  V30 3817 C 364.996 -1.5871 6.17325 0
M  V30 3818 C 362.683 -2.11635 5.73284 0
M  V30 3819 C 363.681 -1.70725 6.61318 0
M  V30 3820 O 363.369 -1.42057 7.91249 0
M  V30 3821 H 363.101 -0.423297 0.527063 0
M  V30 3822 H 365.655 -0.715188 1.92547 0
M  V30 3823 H 363.885 -3.26571 2.07095 0
M  V30 3824 H 365.574 -3.20868 2.48593 0
M  V30 3825 H 366.34 -1.77481 4.5136 0
M  V30 3826 H 362.219 -2.71463 3.72598 0
M  V30 3827 H 365.763 -1.26704 6.85997 0
M  V30 3828 H 361.66 -2.21124 6.06444 0
M  V30 3829 H 362.428 -1.55901 8.03515 0
M  V30 3830 N 365.091 -1.34144 -0.827227 0
M  V30 3831 C 366.319 -1.29325 -1.61501 0
M  V30 3832 C 366.734 0.13354 -1.88327 0
M  V30 3833 O 366.091 1.0793 -1.47164 0
M  V30 3834 C 366.142 -2.07746 -2.95844 0
M  V30 3835 O 365.863 -3.4486 -2.70191 0
M  V30 3836 C 367.364 -2.10273 -3.90256 0
M  V30 3837 H 364.584 -0.445069 -0.50215 0
M  V30 3838 H 367.128 -1.76693 -1.02955 0
M  V30 3839 H 365.283 -1.6403 -3.5096 0
M  V30 3840 H 365.697 -3.85345 -3.55822 0
M  V30 3841 H 367.171 -2.69575 -4.81698 0
M  V30 3842 H 367.648 -1.096 -4.25305 0
M  V30 3843 H 368.254 -2.54059 -3.41078 0
M  V30 3844 N 366.569 1.04691 -1.17803 0
M  V30 3845 C 367.794 1.81984 -0.994813 0
M  V30 3846 C 368.219 1.82586 0.452112 0
M  V30 3847 O 367.577 1.23854 1.324 0
M  V30 3848 C 367.625 3.2575 -1.54659 0
M  V30 3849 O 366.729 4.05267 -0.763728 0
M  V30 3850 H 366.07 0.562483 -0.352857 0
M  V30 3851 H 368.6 1.3189 -1.56417 0
M  V30 3852 H 368.61 3.76541 -1.57102 0
M  V30 3853 H 367.285 3.24627 -2.59981 0
M  V30 3854 H 365.862 3.63972 -0.811108 0
M  V30 3855 N 368.047 0.979072 1.23499 0
M  V30 3856 C 369.293 0.6578 1.9247 0
M  V30 3857 C 369.648 -0.799746 1.74991 0
M  V30 3858 O 368.941 -1.56922 1.09937 0
M  V30 3859 C 369.135 0.981932 3.43646 0
M  V30 3860 C 368.964 2.46944 3.75831 0
M  V30 3861 C 367.734 3.13119 3.96591 0
M  V30 3862 C 369.932 3.45006 3.81412 0
M  V30 3863 N 367.914 4.51489 4.15969 0
M  V30 3864 C 369.285 4.68778 4.05768 0
M  V30 3865 C 371.34 3.39505 3.64198 0
M  V30 3866 C 370.043 5.87723 4.14697 0
M  V30 3867 C 372.069 4.57814 3.7438 0
M  V30 3868 C 371.431 5.80381 3.99171 0
M  V30 3869 H 367.53 0.291746 0.72554 0
M  V30 3870 H 370.114 1.25626 1.48749 0
M  V30 3871 H 368.285 0.412179 3.86207 0
M  V30 3872 H 370.017 0.618068 3.99953 0
M  V30 3873 H 366.772 2.63619 3.93449 0
M  V30 3874 H 367.196 5.23221 4.29615 0
M  V30 3875 H 371.838 2.45773 3.44029 0
M  V30 3876 H 369.556 6.81874 4.33675 0
M  V30 3877 H 373.142 4.55132 3.62417 0
M  V30 3878 H 372.022 6.70398 4.06861 0
M  V30 3879 N 369.525 -1.3858 0.750561 0
M  V30 3880 C 370.488 -2.28836 0.129152 0
M  V30 3881 C 371.488 -1.47045 -0.650714 0
M  V30 3882 O 372.678 -1.6753 -0.477428 0
M  V30 3883 C 369.81 -3.30751 -0.825622 0
M  V30 3884 H 371.003 -2.85294 0.924516 0
M  V30 3885 H 368.556 -1.47489 0.517376 0
M  V30 3886 H 369.291 -2.79378 -1.64677 0
M  V30 3887 H 369.076 -3.91177 -0.268852 0
M  V30 3888 H 370.566 -3.98249 -1.2565 0
M  V30 3889 N 371.003 -0.499398 -1.49478 0
M  V30 3890 C 372.252 0.0475259 -2.01644 0
M  V30 3891 C 372.565 1.38195 -1.38425 0
M  V30 3892 O 373.771 2.01547 -1.8191 0
M  V30 3893 C 372.227 0.135164 -3.59646 0
M  V30 3894 C 371.835 -1.19252 -4.31837 0
M  V30 3895 C 373.579 0.632538 -4.19761 0
M  V30 3896 C 371.486 -1.06713 -5.81693 0
M  V30 3897 H 370.416 0.0215349 -0.753692 0
M  V30 3898 H 373.067 -0.638577 -1.7203 0
M  V30 3899 H 371.449 0.885681 -3.85969 0
M  V30 3900 H 372.623 -1.9562 -4.17216 0
M  V30 3901 H 370.938 -1.62321 -3.83459 0
M  V30 3902 H 373.535 0.743833 -5.29501 0
M  V30 3903 H 373.878 1.63098 -3.83021 0
M  V30 3904 H 374.411 -0.0613987 -3.97753 0
M  V30 3905 H 371.15 -2.03979 -6.22955 0
M  V30 3906 H 370.67 -0.344307 -5.98811 0
M  V30 3907 H 372.349 -0.745208 -6.42694 0
M  V30 3908 N 372.481 1.55866 -0.233164 0
M  V30 3909 C 373.729 1.9821 0.394593 0
M  V30 3910 C 374.05 1.12234 1.59463 0
M  V30 3911 O 373.32 0.201981 1.94856 0
M  V30 3912 H 371.9 0.732034 0.148778 0
M  V30 3913 H 374.562 1.92107 -0.32876 0
M  V30 3914 H 373.658 3.03845 0.713063 0
M  V30 3915 N 373.959 -0.0401083 1.57549 0
M  V30 3916 C 374.889 -1.04384 2.08869 0
M  V30 3917 C 375.87 -1.38407 0.988817 0
M  V30 3918 O 377.055 -1.47483 1.26342 0
M  V30 3919 C 374.185 -2.34808 2.55895 0
M  V30 3920 C 373.139 -2.15057 3.70047 0
M  V30 3921 C 372.465 -3.51145 4.03239 0
M  V30 3922 C 373.765 -1.54576 4.98902 0
M  V30 3923 H 375.459 -0.616666 2.92981 0
M  V30 3924 H 373.005 -0.295184 1.40942 0
M  V30 3925 H 374.958 -3.05346 2.90417 0
M  V30 3926 H 373.682 -2.79565 1.68853 0
M  V30 3927 H 372.341 -1.46954 3.35857 0
M  V30 3928 H 371.989 -3.93529 3.13279 0
M  V30 3929 H 371.689 -3.38758 4.80122 0
M  V30 3930 H 373.213 -4.23062 4.40285 0
M  V30 3931 H 374.627 -2.15017 5.31451 0
M  V30 3932 H 373.024 -1.52796 5.80322 0
M  V30 3933 H 374.094 -0.51039 4.82206 0
M  V30 3934 N 375.437 -1.54477 -0.31217 0
M  V30 3935 C 376.662 -1.77526 -1.07235 0
M  V30 3936 C 377.087 -0.527775 -1.80544 0
M  V30 3937 O 376.445 0.52121 -1.73646 0
M  V30 3938 C 376.493 -2.97535 -2.03728 0
M  V30 3939 O 375.597 -2.69878 -3.11833 0
M  V30 3940 H 374.938 -0.58792 -0.30862 0
M  V30 3941 H 377.468 -2.01532 -0.352993 0
M  V30 3942 H 377.478 -3.25198 -2.46395 0
M  V30 3943 H 376.153 -3.87996 -1.49774 0
M  V30 3944 H 374.73 -2.53199 -2.7376 0
M  V30 3945 N 376.915 0.57481 -1.46744 0
M  V30 3946 C 378.161 1.3347 -1.52688 0
M  V30 3947 C 378.494 1.93353 -0.181229 0
M  V30 3948 O 377.769 1.76912 0.808237 0
M  V30 3949 C 378.052 2.45811 -2.63152 0
M  V30 3950 C 377.905 1.90912 -4.07275 0
M  V30 3951 C 379.224 3.47822 -2.69644 0
M  V30 3952 H 376.343 0.483935 -0.555856 0
M  V30 3953 H 378.985 0.644968 -1.78718 0
M  V30 3954 H 377.135 3.04646 -2.41088 0
M  V30 3955 H 378.807 1.36473 -4.4065 0
M  V30 3956 H 377.05 1.21691 -4.16382 0
M  V30 3957 H 377.721 2.72042 -4.80309 0
M  V30 3958 H 380.197 2.9888 -2.895 0
M  V30 3959 H 379.073 4.23876 -3.48742 0
M  V30 3960 H 379.334 4.05555 -1.76005 0
M  V30 3961 N 378.394 1.34581 0.820102 0
M  V30 3962 C 379.327 1.20735 1.93644 0
M  V30 3963 C 380.305 0.0983343 1.62302 0
M  V30 3964 O 381.489 0.263997 1.86642 0
M  V30 3965 C 378.616 0.856037 3.27704 0
M  V30 3966 C 377.662 1.97521 3.78005 0
M  V30 3967 S 378.495 3.58906 3.97425 0
M  V30 3968 C 379.651 3.25822 5.34407 0
M  V30 3969 H 379.884 2.15231 2.05093 0
M  V30 3970 H 377.417 1.1964 0.97599 0
M  V30 3971 H 379.375 0.660133 4.05157 0
M  V30 3972 H 378.036 -0.0706253 3.14021 0
M  V30 3973 H 377.229 1.68321 4.75062 0
M  V30 3974 H 376.831 2.12875 3.07507 0
M  V30 3975 H 379.123 2.77812 6.17922 0
M  V30 3976 H 380.066 4.22029 5.68592 0
M  V30 3977 H 380.474 2.61932 5.00052 0
M  V30 3978 N 379.872 -1.04064 1.18357 0
M  V30 3979 C 381.149 -1.74252 0.888581 0
M  V30 3980 C 381.529 -2.02138 -0.60856 0
M  V30 3981 O 380.877 -1.66656 -1.56327 0
M  V30 3982 C 381.087 -3.0277 1.73584 0
M  V30 3983 C 382.435 -3.76506 1.96286 0
M  V30 3984 O 383.459 -3.12668 1.70637 0
M  V30 3985 O 382.318 -4.91243 2.39464 0
M  V30 3986 H 379.412 -0.758271 0.330082 0
M  V30 3987 H 381.958 -1.1013 1.2911 0
M  V30 3988 H 380.73 -2.78299 2.75073 0
M  V30 3989 H 380.353 -3.74631 1.33183 0
M  V30 3990 N 381.35 -0.985608 -1.22978 0
M  V30 3991 C 382.28 -0.549649 -2.26939 0
M  V30 3992 C 383.261 0.419803 -1.64838 0
M  V30 3993 O 384.446 0.31203 -1.91677 0
M  V30 3994 C 381.576 0.143652 -3.47003 0
M  V30 3995 C 380.53 -0.743606 -4.21491 0
M  V30 3996 C 379.856 0.0822027 -5.34637 0
M  V30 3997 C 381.156 -2.03694 -4.80943 0
M  V30 3998 H 382.85 -1.41862 -2.63658 0
M  V30 3999 H 380.396 -0.683571 -1.26741 0
M  V30 4000 H 382.349 0.459985 -4.18882 0
M  V30 4001 H 381.073 1.04711 -3.09359 0
M  V30 4002 H 379.732 -1.04347 -3.51436 0
M  V30 4003 H 379.38 0.986359 -4.93234 0
M  V30 4004 H 379.08 -0.508377 -5.85397 0
M  V30 4005 H 380.604 0.392797 -6.09335 0
M  V30 4006 H 382.018 -1.78504 -5.44802 0
M  V30 4007 H 380.415 -2.57573 -5.42011 0
M  V30 4008 H 381.485 -2.72042 -4.01399 0
M  V30 4009 N 382.828 1.3818 -0.7579 0
M  V30 4010 C 384.074 2.00316 -0.316453 0
M  V30 4011 C 384.407 1.60026 1.10025 0
M  V30 4012 O 383.682 0.839835 1.75434 0
M  V30 4013 C 383.965 3.57349 -0.444245 0
M  V30 4014 C 383.818 4.07591 -1.90236 0
M  V30 4015 C 385.137 4.3981 0.1598 0
M  V30 4016 H 382.256 0.727741 -0.116459 0
M  V30 4017 H 384.898 1.6406 -0.958352 0
M  V30 4018 H 383.048 3.88365 0.102233 0
M  V30 4019 H 384.72 3.87199 -2.50748 0
M  V30 4020 H 382.963 3.60297 -2.41595 0
M  V30 4021 H 383.634 5.16677 -1.94291 0
M  V30 4022 H 386.11 4.14971 -0.306314 0
M  V30 4023 H 384.986 5.48885 0.0401675 0
M  V30 4024 H 385.247 4.24102 1.24859 0
M  V30 4025 N 384.306 0.507319 1.49211 0
M  V30 4026 C 385.554 -0.0348839 2.0207 0
M  V30 4027 C 385.875 -1.36898 1.38866 0
M  V30 4028 O 385.145 -1.88133 0.546151 0
M  V30 4029 H 383.725 -0.0158812 0.746831 0
M  V30 4030 H 386.387 0.665998 1.83168 0
M  V30 4031 H 385.483 -0.159917 3.1169 0
M  V30 4032 N 385.784 -1.5574 0.241426 0
M  V30 4033 C 387.009 -2.0366 -0.392111 0
M  V30 4034 C 387.434 -1.11969 -1.51144 0
M  V30 4035 O 386.792 -0.111594 -1.80956 0
M  V30 4036 C 386.84 -3.49638 -0.882371 0
M  V30 4037 O 385.944 -3.6108 -1.99235 0
M  V30 4038 H 385.285 -0.658379 -0.0862122 0
M  V30 4039 H 387.815 -2.01302 0.365881 0
M  V30 4040 H 387.825 -3.90351 -1.18702 0
M  V30 4041 H 386.5 -4.15852 -0.0632361 0
M  V30 4042 H 385.077 -3.32262 -1.69282 0
M  V30 4043 N 387.262 0.0317525 -1.57568 0
M  V30 4044 C 388.511 0.722131 -1.8833 0
M  V30 4045 C 388.824 1.76664 -0.839587 0
M  V30 4046 O 390.03 2.50942 -1.03635 0
M  V30 4047 C 388.486 1.33544 -3.34207 0
M  V30 4048 C 388.094 0.327415 -4.46802 0
M  V30 4049 C 389.838 2.00585 -3.7412 0
M  V30 4050 C 387.745 0.948915 -5.83738 0
M  V30 4051 H 386.675 0.273466 -0.702661 0
M  V30 4052 H 389.326 -0.0235811 -1.83485 0
M  V30 4053 H 387.708 2.13077 -3.33788 0
M  V30 4054 H 388.882 -0.441006 -4.58685 0
M  V30 4055 H 387.197 -0.240758 -4.15703 0
M  V30 4056 H 389.794 2.47932 -4.73744 0
M  V30 4057 H 390.137 2.82285 -3.05975 0
M  V30 4058 H 390.67 1.27831 -3.76702 0
M  V30 4059 H 387.409 0.171387 -6.55276 0
M  V30 4060 H 386.929 1.68724 -5.7558 0
M  V30 4061 H 388.608 1.45705 -6.3038 0
M  V30 4062 N 388.74 1.54641 0.303973 0
M  V30 4063 C 389.67 1.88386 1.3796 0
M  V30 4064 C 390.651 0.742485 1.5304 0
M  V30 4065 O 391.836 0.997959 1.66597 0
M  V30 4066 C 388.966 2.12854 2.74427 0
M  V30 4067 C 387.92 3.28702 2.74115 0
M  V30 4068 C 387.246 3.38582 4.13844 0
M  V30 4069 C 388.546 4.65881 2.3612 0
M  V30 4070 H 390.24 2.78474 1.09966 0
M  V30 4071 H 387.786 1.33988 0.527556 0
M  V30 4072 H 389.739 2.35047 3.49758 0
M  V30 4073 H 388.463 1.19535 3.03939 0
M  V30 4074 H 387.122 3.06428 2.0124 0
M  V30 4075 H 386.77 2.42784 4.40528 0
M  V30 4076 H 386.47 4.16453 4.14537 0
M  V30 4077 H 387.994 3.63031 4.90959 0
M  V30 4078 H 389.408 4.87823 3.01167 0
M  V30 4079 H 387.805 5.46444 2.48031 0
M  V30 4080 H 388.875 4.66799 1.3125 0
M  V30 4081 N 390.218 -0.567019 1.47046 0
M  V30 4082 C 391.165 -1.67489 1.58796 0
M  V30 4083 C 392.135 -1.60399 0.43144 0
M  V30 4084 O 393.32 -1.79378 0.650233 0
M  V30 4085 C 390.46 -3.05821 1.59899 0
M  V30 4086 C 389.573 -3.2342 2.86397 0
M  V30 4087 C 388.708 -4.52093 2.789 0
M  V30 4088 C 387.747 -4.6309 4.00267 0
M  V30 4089 N 386.884 -5.83106 3.91064 0
M  V30 4090 H 391.724 -1.56785 2.53422 0
M  V30 4091 H 389.261 -0.763896 1.2571 0
M  V30 4092 H 391.219 -3.8591 1.58522 0
M  V30 4093 H 389.849 -3.15384 0.687929 0
M  V30 4094 H 388.901 -2.3683 2.97684 0
M  V30 4095 H 390.213 -3.27412 3.76301 0
M  V30 4096 H 389.367 -5.4043 2.75718 0
M  V30 4097 H 388.106 -4.50565 1.86662 0
M  V30 4098 H 387.111 -3.73168 4.03765 0
M  V30 4099 H 388.336 -4.66386 4.93621 0
M  V30 4100 H 386.282 -5.82546 3.01623 0
M  V30 4101 H 386.199 -5.88434 4.74638 0
M  V30 4102 H 387.467 -6.73831 3.91882 0
M  V30 4103 N 391.696 -1.35014 -0.812953 0
M  V30 4104 C 392.644 -1.27435 -1.94585 0
M  V30 4105 C 393.638 -0.170494 -1.6854 0
M  V30 4106 O 394.844 -0.336085 -1.76835 0
M  V30 4107 H 391.219 -0.396144 -0.639198 0
M  V30 4108 H 393.19 -2.23158 -1.98098 0
M  V30 4109 C 391.939 -1.05677 -3.31252 0
M  V30 4110 H 391.262 -1.89853 -3.51846 0
M  V30 4111 H 392.702 -1.04413 -4.10943 0
M  V30 4112 C 391.161 0.239615 -3.36047 0
M  V30 4113 O 391.691 1.23759 -3.8216 0
M  V30 4114 N 389.897 0.276186 -2.89285 0
M  V30 4115 H 389.444 -0.53653 -2.51951 0
M  V30 4116 H 389.402 1.14332 -2.92875 0
M  V30 4117 N 393.175 1.03435 -1.18907 0
M  V30 4118 C 394.105 2.13503 -0.945448 0
M  V30 4119 C 395.086 1.69682 0.119189 0
M  V30 4120 O 396.271 1.94169 -0.034707 0
M  V30 4121 C 393.401 3.44004 -0.477316 0
M  V30 4122 C 392.355 4.0148 -1.48316 0
M  V30 4123 C 391.681 5.27537 -0.872311 0
M  V30 4124 C 392.981 4.36921 -2.86177 0
M  V30 4125 H 394.675 2.34141 -1.86597 0
M  V30 4126 H 392.221 1.12523 -0.898584 0
M  V30 4127 H 394.174 4.20372 -0.294204 0
M  V30 4128 H 392.898 3.23072 0.478786 0
M  V30 4129 H 391.557 3.27201 -1.65332 0
M  V30 4130 H 391.205 5.02917 0.0911752 0
M  V30 4131 H 390.905 5.66954 -1.54393 0
M  V30 4132 H 392.429 6.06576 -0.699871 0
M  V30 4133 H 393.843 5.04248 -2.72776 0
M  V30 4134 H 392.24 4.87405 -3.50081 0
M  V30 4135 H 393.31 3.46466 -3.39248 0
M  V30 4136 N 394.653 0.992116 1.22453 0
M  V30 4137 C 396.069 0.702713 1.43297 0
M  V30 4138 C 396.269 -0.726909 1.87932 0
M  V30 4139 O 395.325 -1.49792 2.0327 0
M  V30 4140 C 396.638 1.70762 2.47509 0
M  V30 4141 C 398.186 1.72298 2.61309 0
M  V30 4142 C 398.661 2.71649 3.68742 0
M  V30 4143 N 400.152 2.70239 3.76199 0
M  V30 4144 C 400.887 3.43778 4.58917 0
M  V30 4145 N 400.383 4.26914 5.45633 0
M  V30 4146 N 402.176 3.32487 4.5322 0
M  V30 4147 H 394.327 1.91543 0.917871 0
M  V30 4148 H 396.59 0.826031 0.465162 0
M  V30 4149 H 396.296 2.73059 2.21657 0
M  V30 4150 H 396.17 1.49985 3.46099 0
M  V30 4151 H 398.557 0.706989 2.86506 0
M  V30 4152 H 398.638 1.97143 1.62997 0
M  V30 4153 H 398.282 3.73397 3.44292 0
M  V30 4154 H 398.212 2.44074 4.66622 0
M  V30 4155 H 400.703 2.09912 3.14237 0
M  V30 4156 H 401.016 4.79855 6.05771 0
M  V30 4157 H 399.361 4.31002 5.45218 0
M  V30 4158 H 402.552 2.6698 3.84499 0
M  V30 4159 H 402.725 3.90058 5.17454 0
M  V30 4160 N 396.131 -1.37776 0.765217 0
M  V30 4161 C 397.547 -1.53297 0.444108 0
M  V30 4162 C 397.747 -1.72515 -1.04119 0
M  V30 4163 O 396.803 -1.74278 -1.82711 0
M  V30 4164 C 398.116 -2.73328 1.25349 0
M  V30 4165 C 399.664 -2.87185 1.24473 0
M  V30 4166 C 400.139 -4.10191 2.03733 0
M  V30 4167 N 401.63 -4.17291 2.01053 0
M  V30 4168 C 402.365 -5.11488 2.59166 0
M  V30 4169 N 401.861 -6.11285 3.26041 0
M  V30 4170 N 403.654 -5.03924 2.49032 0
M  V30 4171 H 395.805 -1.23552 1.72768 0
M  V30 4172 H 398.068 -0.601103 0.733062 0
M  V30 4173 H 397.774 -2.6557 2.30577 0
M  V30 4174 H 397.648 -3.66834 0.87823 0
M  V30 4175 H 400.035 -2.94418 0.20047 0
M  V30 4176 H 400.116 -1.94657 1.65959 0
M  V30 4177 H 399.76 -4.0372 3.08176 0
M  V30 4178 H 399.69 -5.01821 1.59633 0
M  V30 4179 H 402.181 -3.45825 1.5236 0
M  V30 4180 H 402.494 -6.79678 3.67774 0
M  V30 4181 H 400.839 -6.11583 3.30138 0
M  V30 4182 H 404.03 -4.24902 1.96407 0
M  V30 4183 H 404.203 -5.77152 2.94617 0
M  V30 4184 N 397.609 -0.515225 -1.4894 0
M  V30 4185 C 398.855 0.0242508 -2.02785 0
M  V30 4186 C 399.188 1.35323 -1.39289 0
M  V30 4187 O 398.463 1.87041 -0.533469 0
M  V30 4188 C 398.746 0.16184 -3.59736 0
M  V30 4189 C 398.599 -1.19127 -4.33738 0
M  V30 4190 C 399.918 0.895719 -4.30888 0
M  V30 4191 H 397.037 0.00733914 -0.736963 0
M  V30 4192 H 399.679 -0.669395 -1.77818 0
M  V30 4193 H 397.829 0.752624 -3.8114 0
M  V30 4194 H 399.501 -1.82202 -4.23792 0
M  V30 4195 H 397.744 -1.77695 -3.95736 0
M  V30 4196 H 398.415 -1.04815 -5.41957 0
M  V30 4197 H 400.891 0.394528 -4.14225 0
M  V30 4198 H 399.767 0.960859 -5.40425 0
M  V30 4199 H 400.028 1.9427 -3.97129 0
M  V30 4200 N 399.087 1.5561 -0.249682 0
M  V30 4201 C 400.037 2.18157 0.662673 0
M  V30 4202 C 401.021 1.1383 1.13717 0
M  V30 4203 O 402.213 1.39731 1.08648 0
M  V30 4204 C 399.342 2.88672 1.85805 0
M  V30 4205 C 398.428 4.00258 1.40193 0
M  V30 4206 N 398.819 5.01473 0.660213 0
M  V30 4207 C 397.117 4.12864 1.68698 0
M  V30 4208 C 397.818 5.80155 0.423695 0
M  V30 4209 N 396.794 5.34533 0.988721 0
M  V30 4210 H 400.596 2.93769 0.0878688 0
M  V30 4211 H 398.11 1.62316 -0.0521183 0
M  V30 4212 H 400.107 3.31912 2.5227 0
M  V30 4213 H 398.767 2.14564 2.43705 0
M  V30 4214 H 399.778 5.16971 0.310047 0
M  V30 4215 H 396.455 3.4993 2.27717 0
M  V30 4216 H 397.845 6.71688 -0.168616 0
M  V30 4217 N 400.565 -0.0233959 1.57583 0
M  V30 4218 C 401.976 -0.56927 1.77809 0
M  V30 4219 C 402.327 -1.75284 0.881472 0
M  V30 4220 O 401.452 -2.1626 0.0777805 0
M  V30 4221 C 402.047 -1.03949 3.22459 0
M  V30 4222 C 400.606 -1.53084 3.43864 0
M  V30 4223 C 399.753 -0.471454 2.73263 0
M  V30 4224 H 402.704 0.202825 1.57399 0
M  V30 4225 H 402.725 -1.90661 3.29285 0
M  V30 4226 H 402.237 -0.177865 3.87692 0
M  V30 4227 H 400.338 -2.41414 2.83814 0
M  V30 4228 H 400.451 -1.57443 4.52491 0
M  V30 4229 H 398.815 -0.927788 2.37201 0
M  V30 4230 H 399.598 0.380808 3.41181 0
M  V30 4231 N 402.043 -1.548 -0.295768 0
M  V30 4232 C 403.289 -1.74588 -1.03184 0
M  V30 4233 C 403.622 -0.532962 -1.86744 0
M  V30 4234 O 402.897 0.469872 -1.88739 0
M  V30 4235 C 403.18 -3.03791 -1.93347 0
M  V30 4236 C 403.033 -4.35392 -1.12933 0
M  V30 4237 C 404.352 -3.28892 -2.92435 0
M  V30 4238 H 401.471 -0.635221 -0.373715 0
M  V30 4239 H 404.113 -1.87519 -0.30606 0
M  V30 4240 H 402.263 -2.92898 -2.55232 0
M  V30 4241 H 403.935 -4.58211 -0.532943 0
M  V30 4242 H 402.178 -4.31642 -0.432168 0
M  V30 4243 H 402.849 -5.22074 -1.79284 0
M  V30 4244 H 405.325 -3.39429 -2.4068 0
M  V30 4245 H 404.201 -4.20603 -3.52682 0
M  V30 4246 H 404.462 -2.47437 -3.6637 0
M  V30 4247 N 403.521 0.559213 -1.47345 0
M  V30 4248 C 404.746 1.34676 -1.57725 0
M  V30 4249 C 405.171 1.86723 -0.227164 0
M  V30 4250 O 404.529 1.6286 0.796642 0
M  V30 4251 C 404.577 2.49399 -2.60447 0
M  V30 4252 O 403.681 3.51567 -2.15578 0
M  V30 4253 H 403.022 0.400115 -0.52991 0
M  V30 4254 H 405.552 0.676009 -1.93109 0
M  V30 4255 H 405.562 2.95996 -2.80803 0
M  V30 4256 H 404.237 2.10873 -3.58477 0
M  V30 4257 H 402.814 3.11289 -2.05313 0
M  V30 4258 N 404.999 1.35443 0.805782 0
M  V30 4259 C 406.227 1.31878 1.59423 0
M  V30 4260 C 406.642 -0.103562 1.88516 0
M  V30 4261 O 405.999 -1.05575 1.48863 0
M  V30 4262 C 406.05 2.12426 2.92502 0
M  V30 4263 O 405.771 3.49115 2.6467 0
M  V30 4264 C 407.272 2.16455 3.86862 0
M  V30 4265 H 404.492 0.453002 0.495005 0
M  V30 4266 H 407.036 1.78309 1.00131 0
M  V30 4267 H 405.191 1.69593 3.48306 0
M  V30 4268 H 405.605 3.90957 3.49647 0
M  V30 4269 H 407.079 2.77204 4.77349 0
M  V30 4270 H 407.556 1.16352 4.23508 0
M  V30 4271 H 408.162 2.59453 3.36993 0
M  V30 4272 N 406.477 -1.02803 1.19454 0
M  V30 4273 C 407.41 -2.107 0.876396 0
M  V30 4274 C 408.388 -1.61741 -0.166897 0
M  V30 4275 O 409.572 -1.88451 -0.0430195 0
M  V30 4276 C 406.699 -3.37262 0.311758 0
M  V30 4277 C 405.745 -4.05093 1.33424 0
M  V30 4278 S 406.578 -4.50498 2.89503 0
M  V30 4279 C 407.734 -5.80277 2.34584 0
M  V30 4280 H 407.967 -2.37362 1.79016 0
M  V30 4281 H 405.5 -1.15755 1.02177 0
M  V30 4282 H 407.458 -4.10499 -0.00748752 0
M  V30 4283 H 406.119 -3.08693 -0.58032 0
M  V30 4284 H 405.312 -4.9611 0.888302 0
M  V30 4285 H 404.914 -3.3803 1.60037 0
M  V30 4286 H 407.206 -6.54873 1.73633 0
M  V30 4287 H 408.149 -6.29651 3.23952 0
M  V30 4288 H 408.557 -5.3599 1.77131 0
M  V30 4289 N 407.956 -0.998596 -1.21925 0
M  V30 4290 C 409.202 -0.678667 -1.91107 0
M  V30 4291 C 409.535 0.78791 -1.77498 0
M  V30 4292 O 408.81 1.57043 -1.1475 0
M  V30 4293 C 409.093 -1.09245 -3.43129 0
M  V30 4294 C 408.946 -2.61801 -3.6576 0
M  V30 4295 C 410.265 -0.649984 -4.35274 0
M  V30 4296 H 407.384 -0.248025 -0.694012 0
M  V30 4297 H 410.026 -1.24314 -1.43688 0
M  V30 4298 H 408.176 -0.612171 -3.83647 0
M  V30 4299 H 409.848 -3.17543 -3.34611 0
M  V30 4300 H 408.091 -3.03609 -3.09845 0
M  V30 4301 H 408.762 -2.85804 -4.7225 0
M  V30 4302 H 411.238 -1.0626 -4.02303 0
M  V30 4303 H 410.114 -0.967743 -5.40302 0
M  V30 4304 H 410.375 0.449139 -4.39813 0
M  V30 4305 N 409.434 1.37368 -0.772513 0
M  V30 4306 C 410.381 2.30262 -0.157488 0
M  V30 4307 C 411.351 1.51137 0.688965 0
M  V30 4308 O 412.536 1.79704 0.641168 0
M  V30 4309 C 409.676 3.37611 0.715045 0
M  V30 4310 C 408.789 4.31746 -0.148098 0
M  V30 4311 C 407.924 5.26171 0.729213 0
M  V30 4312 C 406.963 6.11948 -0.136418 0
M  V30 4313 N 406.1 6.98613 0.698914 0
M  V30 4314 H 410.94 2.82277 -0.955179 0
M  V30 4315 H 408.477 1.38957 -0.482631 0
M  V30 4316 H 410.435 3.98479 1.23575 0
M  V30 4317 H 409.065 2.86959 1.47833 0
M  V30 4318 H 408.117 3.72178 -0.786613 0
M  V30 4319 H 409.429 4.92084 -0.81579 0
M  V30 4320 H 408.583 5.92247 1.31637 0
M  V30 4321 H 407.322 4.66246 1.43059 0
M  V30 4322 H 406.327 5.4485 -0.736102 0
M  V30 4323 H 407.552 6.73945 -0.835134 0
M  V30 4324 H 405.498 6.41215 1.38489 0
M  V30 4325 H 405.415 7.55948 0.0885358 0
M  V30 4326 H 406.683 7.69077 1.27044 0
M  V30 4327 N 410.912 0.523116 1.48665 0
M  V30 4328 C 412.16 -0.0134497 2.02096 0
M  V30 4329 C 412.481 -1.35418 1.40311 0
M  V30 4330 O 411.751 -1.87543 0.566074 0
M  V30 4331 H 410.331 -0.00795915 0.746958 0
M  V30 4332 H 412.993 0.685388 1.82451 0
M  V30 4333 H 412.089 -0.126849 3.11842 0
M  V30 4334 N 412.39 -1.55475 0.257931 0
M  V30 4335 C 413.32 -2.24815 -0.630912 0
M  V30 4336 C 414.301 -1.23224 -1.17259 0
M  V30 4337 O 415.486 -1.51904 -1.20991 0
M  V30 4338 C 412.616 -2.95609 -1.82298 0
M  V30 4339 C 411.57 -4.03982 -1.41359 0
M  V30 4340 C 410.896 -4.6226 -2.68738 0
M  V30 4341 C 412.196 -5.19109 -0.57648 0
M  V30 4342 H 413.89 -2.99354 -0.0526878 0
M  V30 4343 H 411.436 -1.4398 -0.023901 0
M  V30 4344 H 413.389 -3.42822 -2.45054 0
M  V30 4345 H 412.113 -2.18577 -2.42676 0
M  V30 4346 H 410.772 -3.57555 -0.809324 0
M  V30 4347 H 410.42 -3.81915 -3.27338 0
M  V30 4348 H 410.12 -5.35424 -2.42065 0
M  V30 4349 H 411.644 -5.12212 -3.32372 0
M  V30 4350 H 413.058 -5.62479 -1.10861 0
M  V30 4351 H 411.455 -5.98729 -0.405351 0
M  V30 4352 H 412.525 -4.83174 0.408776 0
M  V30 4353 N 413.868 0.0150385 -1.57593 0
M  V30 4354 C 415.098 0.713359 -1.93894 0
M  V30 4355 C 415.506 1.68663 -0.857289 0
M  V30 4356 O 414.849 1.82876 0.173788 0
M  V30 4357 C 414.911 1.51348 -3.26089 0
M  V30 4358 C 414.575 0.703451 -4.51554 0
M  V30 4359 C 415.572 -0.00237924 -5.199 0
M  V30 4360 C 413.257 0.653854 -4.98026 0
M  V30 4361 C 415.251 -0.746955 -6.33008 0
M  V30 4362 C 412.938 -0.0944578 -6.11027 0
M  V30 4363 C 413.936 -0.793609 -6.78374 0
M  V30 4364 O 413.624 -1.52974 -7.89211 0
M  V30 4365 H 413.356 0.204637 -0.644282 0
M  V30 4366 H 415.91 -0.0276411 -2.05381 0
M  V30 4367 H 414.14 2.29862 -3.10967 0
M  V30 4368 H 415.829 2.09572 -3.47612 0
M  V30 4369 H 416.595 0.0268803 -4.84993 0
M  V30 4370 H 412.474 1.18756 -4.45441 0
M  V30 4371 H 416.018 -1.2932 -6.85509 0
M  V30 4372 H 411.915 -0.125591 -6.45378 0
M  V30 4373 H 412.683 -1.44488 -8.05646 0
M  V30 4374 N 415.346 1.54954 0.287554 0
M  V30 4375 C 416.594 1.74528 1.01904 0
M  V30 4376 C 416.915 0.541349 1.87335 0
M  V30 4377 O 416.185 -0.444108 1.908 0
M  V30 4378 H 414.765 0.643576 0.379235 0
M  V30 4379 H 417.427 1.92333 0.315294 0
M  V30 4380 H 416.523 2.64015 1.6644 0
M  V30 4381 N 416.824 -0.551391 1.4764 0
M  V30 4382 C 418.073 -1.30467 1.53822 0
M  V30 4383 C 418.386 -1.94495 0.207661 0
M  V30 4384 O 419.592 -2.71099 0.147533 0
M  V30 4385 C 418.048 -2.36616 2.71184 0
M  V30 4386 C 417.656 -1.78754 4.10793 0
M  V30 4387 C 419.4 -3.13088 2.86663 0
M  V30 4388 C 417.307 -2.82717 5.19447 0
M  V30 4389 H 416.237 -0.490584 0.572576 0
M  V30 4390 H 418.888 -0.58494 1.73927 0
M  V30 4391 H 417.27 -3.11529 2.4447 0
M  V30 4392 H 418.444 -1.10173 4.47435 0
M  V30 4393 H 416.759 -1.14846 4.00249 0
M  V30 4394 H 419.356 -3.90736 3.65007 0
M  V30 4395 H 419.699 -3.67635 1.95321 0
M  V30 4396 H 420.232 -2.45288 3.13175 0
M  V30 4397 H 416.971 -2.33018 6.12685 0
M  V30 4398 H 416.491 -3.4969 4.87316 0
M  V30 4399 H 418.17 -3.46102 5.46646 0
M  V30 4400 N 418.302 -1.35869 -0.798587 0
M  V30 4401 C 419.249 -1.29446 -1.91082 0
M  V30 4402 C 420.219 -0.16487 -1.6528 0
M  V30 4403 O 421.404 -0.349888 -1.87564 0
M  V30 4404 C 418.544 -1.0804 -3.27752 0
M  V30 4405 C 417.657 -2.29993 -3.65687 0
M  V30 4406 C 416.792 -2.01673 -4.91428 0
M  V30 4407 C 415.831 -3.19636 -5.22015 0
M  V30 4408 N 414.968 -2.91039 -6.38937 0
M  V30 4409 H 419.808 -2.24553 -1.95907 0
M  V30 4410 H 417.345 -1.11615 -0.958148 0
M  V30 4411 H 419.303 -0.936586 -4.06551 0
M  V30 4412 H 417.933 -0.16592 -3.22373 0
M  V30 4413 H 416.985 -2.55211 -2.82085 0
M  V30 4414 H 418.297 -3.18052 -3.84245 0
M  V30 4415 H 417.451 -1.84168 -5.78072 0
M  V30 4416 H 416.19 -1.10911 -4.74921 0
M  V30 4417 H 415.195 -3.37709 -4.33858 0
M  V30 4418 H 416.42 -4.11211 -5.40447 0
M  V30 4419 H 414.366 -2.0288 -6.2384 0
M  V30 4420 H 414.283 -3.72635 -6.57784 0
M  V30 4421 H 415.551 -2.77093 -7.28587 0
M  V30 4422 N 419.78 1.02168 -1.19998 0
M  V30 4423 C 420.69 2.14069 -0.959774 0
M  V30 4424 C 421.706 1.73804 0.082655 0
M  V30 4425 O 422.882 2.01133 -0.103633 0
M  V30 4426 C 419.947 3.42936 -0.509459 0
M  V30 4427 C 419.008 3.97474 -1.62213 0
M  V30 4428 C 418.241 5.2019 -1.19321 0
M  V30 4429 O 418.464 5.70369 -0.0597726 0
M  V30 4430 O 417.398 5.67749 -1.99863 0
M  V30 4431 H 421.224 2.37199 -1.89658 0
M  V30 4432 H 418.809 1.12469 -0.983411 0
M  V30 4433 H 420.691 4.20551 -0.267322 0
M  V30 4434 H 419.366 3.21234 0.398821 0
M  V30 4435 H 418.273 3.21161 -1.9185 0
M  V30 4436 H 419.606 4.23555 -2.50723 0
M  V30 4437 N 421.258 1.00505 1.21394 0
M  V30 4438 C 422.168 0.574806 2.27449 0
M  V30 4439 C 423.184 -0.382206 1.6975 0
M  V30 4440 O 424.36 -0.246027 1.99892 0
M  V30 4441 C 421.425 -0.0917414 3.46579 0
M  V30 4442 C 420.486 0.909758 4.1955 0
M  V30 4443 C 419.719 0.274924 5.32991 0
M  V30 4444 O 419.942 -0.928254 5.62796 0
M  V30 4445 O 418.876 0.985877 5.93771 0
M  V30 4446 H 422.702 1.45744 2.66444 0
M  V30 4447 H 420.287 0.773923 1.27792 0
M  V30 4448 H 422.169 -0.464551 4.18832 0
M  V30 4449 H 420.844 -0.948755 3.09484 0
M  V30 4450 H 419.751 1.33372 3.49518 0
M  V30 4451 H 421.084 1.73636 4.60555 0
M  V30 4452 N 422.737 -1.36956 0.779787 0
M  V30 4453 C 423.667 -2.32761 0.185651 0
M  V30 4454 C 424.648 -1.56177 -0.673989 0
M  V30 4455 O 425.833 -1.84378 -0.609797 0
M  V30 4456 C 422.963 -3.40418 -0.687964 0
M  V30 4457 C 421.917 -4.27941 0.0710102 0
M  V30 4458 C 421.243 -5.26681 -0.922573 0
M  V30 4459 C 422.543 -5.07006 1.25467 0
M  V30 4460 H 424.237 -2.82698 0.986008 0
M  V30 4461 H 421.783 -1.3592 0.475592 0
M  V30 4462 H 423.736 -4.06423 -1.11348 0
M  V30 4463 H 422.46 -2.89025 -1.52093 0
M  V30 4464 H 421.119 -3.63478 0.47739 0
M  V30 4465 H 420.767 -4.71565 -1.7503 0
M  V30 4466 H 420.467 -5.86103 -0.419237 0
M  V30 4467 H 421.991 -5.9556 -1.34686 0
M  V30 4468 H 423.405 -5.66105 0.905401 0
M  V30 4469 H 421.802 -5.75793 1.69063 0
M  V30 4470 H 422.872 -4.3921 2.05481 0
M  V30 4471 N 424.215 -0.530993 -1.48385 0
M  V30 4472 C 425.462 0.0027373 -2.025 0
M  V30 4473 C 425.79 1.34186 -1.40799 0
M  V30 4474 O 425.045 1.88 -0.543544 0
M  V30 4475 C 425.344 0.172742 -3.56982 0
M  V30 4476 C 425.01 -1.09215 -4.37473 0
M  V30 4477 C 423.672 -1.43881 -4.59186 0
M  V30 4478 C 426.024 -1.93153 -4.84088 0
M  V30 4479 C 423.352 -2.62381 -5.2476 0
M  V30 4480 C 425.704 -3.10833 -5.50968 0
M  V30 4481 C 424.368 -3.45843 -5.70919 0
M  V30 4482 H 423.638 0.00100165 -0.740999 0
M  V30 4483 H 426.285 -0.697219 -1.78357 0
M  V30 4484 H 424.59 0.955473 -3.79971 0
M  V30 4485 H 426.287 0.600642 -3.96476 0
M  V30 4486 H 422.877 -0.812177 -4.20834 0
M  V30 4487 H 427.061 -1.67683 -4.67115 0
M  V30 4488 H 422.317 -2.89707 -5.38405 0
M  V30 4489 H 426.491 -3.7618 -5.86056 0
M  V30 4490 H 424.118 -4.37764 -6.21503 0
M  V30 4491 N 425.693 1.55336 -0.266172 0
M  V30 4492 C 426.623 2.25146 0.618981 0
M  V30 4493 C 427.604 1.23845 1.16604 0
M  V30 4494 O 428.789 1.52544 1.20183 0
M  V30 4495 C 425.919 2.96572 1.80728 0
M  V30 4496 C 424.873 4.04726 1.39215 0
M  V30 4497 C 424.199 4.63678 2.66283 0
M  V30 4498 C 425.499 5.19407 0.548942 0
M  V30 4499 H 427.193 2.99377 0.0368116 0
M  V30 4500 H 424.739 1.43991 0.0162651 0
M  V30 4501 H 426.692 3.44116 2.43232 0
M  V30 4502 H 425.416 2.19861 2.41514 0
M  V30 4503 H 424.075 3.57979 0.790351 0
M  V30 4504 H 423.723 3.83646 3.25308 0
M  V30 4505 H 423.423 5.367 2.39222 0
M  V30 4506 H 424.947 5.13967 3.29651 0
M  V30 4507 H 426.361 5.63059 1.07876 0
M  V30 4508 H 424.758 5.98936 0.373593 0
M  V30 4509 H 425.828 4.8295 -0.434394 0
M  V30 4510 N 427.171 -0.0066808 1.57599 0
M  V30 4511 C 428.396 -0.707738 1.94951 0
M  V30 4512 C 428.821 -1.66882 0.867868 0
M  V30 4513 O 428.179 -1.80457 -0.17458 0
M  V30 4514 C 428.227 -1.42162 3.31394 0
M  V30 4515 O 427.331 -2.53578 3.25226 0
M  V30 4516 H 426.672 -0.188752 0.636607 0
M  V30 4517 H 429.202 0.0445193 2.04552 0
M  V30 4518 H 429.212 -1.78655 3.66806 0
M  V30 4519 H 427.887 -0.716903 4.09675 0
M  V30 4520 H 426.464 -2.19463 3.01481 0
M  V30 4521 N 428.649 -1.55105 -0.279332 0
M  V30 4522 C 429.898 -1.74618 -1.00952 0
M  V30 4523 C 430.211 -0.551096 -1.87676 0
M  V30 4524 O 431.417 -0.628507 -2.64125 0
M  V30 4525 C 429.873 -3.09025 -1.84476 0
M  V30 4526 C 429.481 -4.36081 -1.0265 0
M  V30 4527 C 431.225 -3.37891 -2.56963 0
M  V30 4528 C 429.132 -5.6153 -1.85576 0
M  V30 4529 H 428.062 -0.650868 -0.38064 0
M  V30 4530 H 430.713 -1.81569 -0.265475 0
M  V30 4531 H 429.095 -2.96095 -2.62952 0
M  V30 4532 H 430.269 -4.59909 -0.286354 0
M  V30 4533 H 428.584 -4.14312 -0.416464 0
M  V30 4534 H 431.181 -4.28822 -3.19399 0
M  V30 4535 H 431.524 -2.57737 -3.26921 0
M  V30 4536 H 432.057 -3.5189 -1.85522 0
M  V30 4537 H 428.796 -6.44413 -1.2005 0
M  V30 4538 H 428.316 -5.41854 -2.57204 0
M  V30 4539 H 429.995 -5.99594 -2.43096 0
M  V30 4540 N 430.127 0.543554 -1.4793 0
M  V30 4541 C 431.538 1.12561 -1.48953 0
M  V30 4542 C 431.889 1.94578 -0.251754 0
M  V30 4543 O 431.014 2.0665 0.642255 0
M  V30 4544 C 431.609 2.04801 -2.69892 0
M  V30 4545 C 430.168 2.58251 -2.73831 0
M  V30 4546 C 429.315 1.34918 -2.42265 0
M  V30 4547 H 432.266 0.32947 -1.55242 0
M  V30 4548 H 432.287 2.88886 -2.47639 0
M  V30 4549 H 431.799 1.4508 -3.59963 0
M  V30 4550 H 429.9 3.21732 -1.87934 0
M  V30 4551 H 430.013 2.98312 -3.74895 0
M  V30 4552 H 428.377 1.66046 -1.93134 0
M  V30 4553 H 429.16 0.769693 -3.3456 0
M  V30 4554 N 431.605 1.3629 0.791371 0
M  V30 4555 C 432.845 1.31792 1.56238 0
M  V30 4556 C 433.209 -0.102237 1.91728 0
M  V30 4557 O 434.41 -0.271759 2.67423 0
M  V30 4558 C 432.681 2.21303 2.80642 0
M  V30 4559 S 434.24 2.34468 3.70904 0
M  V30 4560 H 431.058 0.468141 0.535131 0
M  V30 4561 H 433.66 1.71841 0.932246 0
M  V30 4562 H 432.364 3.23439 2.52617 0
M  V30 4563 H 431.895 1.82266 3.4863 0
M  V30 4564 H 433.91 1.54074 4.71673 0
M  V30 4565 N 433.083 -1.0153 1.20538 0
M  V30 4566 C 434.329 -1.75408 1.01783 0
M  V30 4567 C 434.662 -1.88943 -0.448814 0
M  V30 4568 O 433.937 -1.4162 -1.33319 0
M  V30 4569 C 434.22 -3.17255 1.70356 0
M  V30 4570 C 434.073 -3.11508 3.24473 0
M  V30 4571 C 435.392 -4.15955 1.43769 0
M  V30 4572 H 432.511 -0.636713 0.371167 0
M  V30 4573 H 435.153 -1.18436 1.4857 0
M  V30 4574 H 433.303 -3.65898 1.30578 0
M  V30 4575 H 434.975 -2.70658 3.73553 0
M  V30 4576 H 433.218 -2.4887 3.55311 0
M  V30 4577 H 433.889 -4.11784 3.67611 0
M  V30 4578 H 436.365 -3.75973 1.7828 0
M  V30 4579 H 435.241 -5.13368 1.94279 0
M  V30 4580 H 435.502 -4.40586 0.365564 0
M  V30 4581 N 434.561 -1.01147 -1.20859 0
M  V30 4582 C 435.491 -0.597663 -2.25722 0
M  V30 4583 C 436.472 0.384744 -1.65692 0
M  V30 4584 O 437.657 0.271303 -1.92296 0
M  V30 4585 C 434.787 0.0700149 -3.47229 0
M  V30 4586 C 433.741 -0.832843 -4.19819 0
M  V30 4587 C 433.067 -0.0312202 -5.34691 0
M  V30 4588 C 434.367 -2.1385 -4.76514 0
M  V30 4589 H 436.061 -1.47423 -2.60589 0
M  V30 4590 H 433.607 -0.710301 -1.25263 0
M  V30 4591 H 435.56 0.37103 -4.19763 0
M  V30 4592 H 434.284 0.981259 -3.11511 0
M  V30 4593 H 432.943 -1.11778 -3.49144 0
M  V30 4594 H 432.591 0.881515 -4.95215 0
M  V30 4595 H 432.291 -0.632434 -5.84187 0
M  V30 4596 H 433.815 0.26346 -6.10031 0
M  V30 4597 H 435.229 -1.9002 -5.40893 0
M  V30 4598 H 433.626 -2.69012 -5.36426 0
M  V30 4599 H 434.696 -2.80495 -3.95538 0
M  V30 4600 N 436.039 1.36541 -0.78704 0
M  V30 4601 C 437.287 1.98911 -0.357633 0
M  V30 4602 C 437.608 1.62778 1.07371 0
M  V30 4603 O 436.878 0.900612 1.73971 0
M  V30 4604 H 435.458 0.735734 -0.129246 0
M  V30 4605 H 438.12 1.66776 -1.00855 0
M  V30 4606 H 437.216 3.08874 -0.447549 0
M  V30 4607 N 437.518 0.538854 1.48102 0
M  V30 4608 C 438.934 0.19732 1.58376 0
M  V30 4609 C 439.134 -1.29971 1.5398 0
M  V30 4610 O 438.19 -2.07861 1.43352 0
M  V30 4611 C 439.503 0.807716 2.89649 0
M  V30 4612 C 441.051 0.77726 3.03196 0
M  V30 4613 C 441.526 1.36639 4.37143 0
M  V30 4614 N 443.017 1.32875 4.43732 0
M  V30 4615 C 443.752 1.7544 5.45901 0
M  V30 4616 N 443.248 2.25776 6.54979 0
M  V30 4617 N 445.041 1.66623 5.36836 0
M  V30 4618 H 437.192 1.5117 1.49202 0
M  V30 4619 H 439.455 0.629327 0.708979 0
M  V30 4620 H 439.161 1.85909 2.98548 0
M  V30 4621 H 439.035 0.289975 3.76084 0
M  V30 4622 H 441.422 -0.265374 2.93904 0
M  V30 4623 H 441.503 1.33256 2.18349 0
M  V30 4624 H 441.147 2.408 4.47189 0
M  V30 4625 H 441.077 0.786689 5.20691 0
M  V30 4626 H 443.568 0.96037 3.65493 0
M  V30 4627 H 443.881 2.56226 7.29087 0
M  V30 4628 H 442.226 2.29775 6.55918 0
M  V30 4629 H 445.417 1.27089 4.50517 0
M  V30 4630 H 445.59 2.00115 6.16326 0
M  V30 4631 N 438.996 -1.55193 0.274407 0
M  V30 4632 C 439.944 -2.23924 -0.629362 0
M  V30 4633 C 440.938 -1.23602 -1.1584 0
M  V30 4634 O 442.144 -1.41535 -1.11211 0
M  V30 4635 H 438.519 -0.718637 -0.221507 0
M  V30 4636 H 440.49 -2.98388 -0.0268322 0
M  V30 4637 C 439.239 -2.97329 -1.80252 0
M  V30 4638 H 438.562 -3.74313 -1.40462 0
M  V30 4639 H 440.002 -3.48743 -2.41152 0
M  V30 4640 C 438.461 -2.0276 -2.69054 0
M  V30 4641 O 438.991 -1.57836 -3.69392 0
M  V30 4642 N 437.197 -1.69275 -2.36208 0
M  V30 4643 H 436.744 -2.06004 -1.54661 0
M  V30 4644 H 436.702 -1.06271 -2.95895 0
M  V30 4645 N 440.474 -0.00167713 -1.576 0
M  V30 4646 C 441.722 0.681471 -1.90264 0
M  V30 4647 C 442.043 1.7422 -0.875924 0
M  V30 4648 O 441.313 1.95709 0.0864412 0
M  V30 4649 H 439.893 0.254696 -0.702239 0
M  V30 4650 H 442.555 -0.0429996 -1.94853 0
M  V30 4651 H 441.651 1.15166 -2.90075 0
M  V30 4652 N 441.952 1.55251 0.271103 0
M  V30 4653 C 443.198 1.76207 1.00394 0
M  V30 4654 C 443.531 0.562604 1.85872 0
M  V30 4655 O 442.806 -0.439785 1.89463 0
M  V30 4656 C 443.089 3.06828 1.8849 0
M  V30 4657 C 442.942 4.37134 1.05992 0
M  V30 4658 C 444.261 3.33503 2.87165 0
M  V30 4659 H 441.38 0.641086 0.363562 0
M  V30 4660 H 444.022 1.87982 0.276189 0
M  V30 4661 H 442.172 2.96921 2.5054 0
M  V30 4662 H 443.844 4.59001 0.459978 0
M  V30 4663 H 442.087 4.32275 0.363443 0
M  V30 4664 H 442.758 5.2486 1.70955 0
M  V30 4665 H 445.234 3.43215 2.3525 0
M  V30 4666 H 444.11 4.2616 3.45946 0
M  V30 4667 H 444.371 2.53235 3.62387 0
M  V30 4668 N 443.43 -0.535701 1.48216 0
M  V30 4669 C 444.655 -1.32149 1.59848 0
M  V30 4670 C 445.08 -1.86338 0.256842 0
M  V30 4671 O 444.438 -1.64107 -0.770632 0
M  V30 4672 C 444.486 -2.45224 2.64381 0
M  V30 4673 O 443.59 -3.48093 2.21144 0
M  V30 4674 H 442.931 -0.391634 0.536208 0
M  V30 4675 H 445.461 -0.645202 1.94161 0
M  V30 4676 H 445.471 -2.91491 2.85476 0
M  V30 4677 H 444.146 -2.05143 3.61786 0
M  V30 4678 H 442.723 -3.07984 2.10239 0
M  V30 4679 N 444.908 -1.36708 -0.784132 0
M  V30 4680 C 446.185 -1.21776 -1.53069 0
M  V30 4681 C 446.565 0.193876 -2.10208 0
M  V30 4682 O 445.913 1.20012 -1.94446 0
M  V30 4683 C 446.123 -2.30395 -2.62143 0
M  V30 4684 C 447.471 -2.67325 -3.29882 0
M  V30 4685 O 448.495 -2.29478 -2.7243 0
M  V30 4686 O 447.354 -3.32485 -4.33724 0
M  V30 4687 H 444.448 -0.474459 -0.677361 0
M  V30 4688 H 446.994 -1.48454 -0.82216 0
M  V30 4689 H 445.766 -3.2498 -2.17953 0
M  V30 4690 H 445.389 -2.05112 -3.40609 0
M  V30 4691 N 446.386 1.0089 -1.21074 0
M  V30 4692 C 447.632 1.74866 -1.02712 0
M  V30 4693 C 447.965 1.89178 0.438787 0
M  V30 4694 O 447.24 1.42325 1.32567 0
M  V30 4695 C 447.523 3.16347 -1.72036 0
M  V30 4696 C 447.376 3.09782 -3.26121 0
M  V30 4697 C 448.695 4.15187 -1.45973 0
M  V30 4698 H 445.814 0.634736 -0.374539 0
M  V30 4699 H 448.456 1.17646 -1.49196 0
M  V30 4700 H 446.606 3.65201 -1.32517 0
M  V30 4701 H 448.278 2.68673 -3.74983 0
M  V30 4702 H 446.521 2.46982 -3.56626 0
M  V30 4703 H 447.192 4.09829 -3.6979 0
M  V30 4704 H 449.668 3.75022 -1.80272 0
M  V30 4705 H 448.544 5.12331 -1.96999 0
M  V30 4706 H 448.805 4.40386 -0.388924 0
M  V30 4707 N 447.864 1.01787 1.20321 0
M  V30 4708 C 449.11 0.708985 1.90003 0
M  V30 4709 C 449.443 -0.759572 1.78729 0
M  V30 4710 O 448.718 -1.55198 1.17234 0
M  V30 4711 C 449.001 1.1469 3.41348 0
M  V30 4712 C 448.854 2.67586 3.61549 0
M  V30 4713 C 450.173 0.71915 4.34185 0
M  V30 4714 H 447.292 0.259034 0.689978 0
M  V30 4715 H 449.934 1.26584 1.41692 0
M  V30 4716 H 448.084 0.673128 3.82624 0
M  V30 4717 H 449.756 3.22826 3.29517 0
M  V30 4718 H 447.999 3.085 3.04976 0
M  V30 4719 H 448.67 2.93281 4.67643 0
M  V30 4720 H 451.146 1.12647 4.00562 0
M  V30 4721 H 450.022 1.05358 5.38694 0
M  V30 4722 H 450.283 -0.379111 4.40472 0
M  V30 4723 N 449.342 -1.36122 0.79427 0
M  V30 4724 C 450.289 -2.29982 0.194101 0
M  V30 4725 C 451.259 -1.52214 -0.664833 0
M  V30 4726 O 452.444 -1.80702 -0.612498 0
M  V30 4727 C 449.584 -3.38706 -0.661244 0
M  V30 4728 C 448.697 -4.31456 0.216766 0
M  V30 4729 C 447.832 -5.27265 -0.645411 0
M  V30 4730 C 446.871 -6.11653 0.233756 0
M  V30 4731 N 446.008 -6.99636 -0.587682 0
M  V30 4732 H 450.848 -2.80722 0.999965 0
M  V30 4733 H 448.385 -1.38172 0.504677 0
M  V30 4734 H 450.343 -4.00394 -1.17219 0
M  V30 4735 H 448.973 -2.89274 -1.43249 0
M  V30 4736 H 448.025 -3.7088 0.845724 0
M  V30 4737 H 449.337 -4.90724 0.893973 0
M  V30 4738 H 448.491 -5.94266 -1.22198 0
M  V30 4739 H 447.23 -4.68463 -1.35623 0
M  V30 4740 H 446.235 -5.4361 0.82269 0
M  V30 4741 H 447.46 -6.72531 0.942247 0
M  V30 4742 H 445.406 -6.43337 -1.2827 0
M  V30 4743 H 445.323 -7.55993 0.0317402 0
M  V30 4744 H 446.591 -7.71001 -1.14792 0
M  V30 4745 N 450.82 -0.546701 -1.47814 0
M  V30 4746 C 452.069 -0.0166497 -2.01693 0
M  V30 4747 C 452.382 1.33721 -1.42752 0
M  V30 4748 O 453.588 1.95658 -1.8823 0
M  V30 4749 C 452.044 0.0206769 -3.59894 0
M  V30 4750 C 451.652 -1.3293 -4.27824 0
M  V30 4751 C 453.396 0.498674 -4.21561 0
M  V30 4752 C 451.303 -1.25165 -5.78003 0
M  V30 4753 H 450.233 -0.0024541 -0.753996 0
M  V30 4754 H 452.884 -0.692984 -1.69912 0
M  V30 4755 H 451.266 0.76244 -3.88591 0
M  V30 4756 H 452.44 -2.08795 -4.10781 0
M  V30 4757 H 450.755 -1.74438 -3.78101 0
M  V30 4758 H 453.352 0.575 -5.31599 0
M  V30 4759 H 453.695 1.5083 -3.88016 0
M  V30 4760 H 454.228 -0.18791 -3.97356 0
M  V30 4761 H 450.967 -2.23695 -6.1615 0
M  V30 4762 H 450.487 -0.53464 -5.97412 0
M  V30 4763 H 452.166 -0.949299 -6.39998 0
M  V30 4764 N 452.299 1.55045 -0.282633 0
M  V30 4765 C 453.247 2.24254 0.617478 0
M  V30 4766 C 454.241 1.24215 1.15183 0
M  V30 4767 O 455.447 1.42123 1.10459 0
M  V30 4768 H 451.822 0.719801 0.217693 0
M  V30 4769 H 453.793 2.98398 0.0110076 0
M  V30 4770 C 452.542 2.98281 1.78672 0
M  V30 4771 H 451.865 3.75053 1.38475 0
M  V30 4772 H 453.305 3.50017 2.393 0
M  V30 4773 C 451.764 2.04184 2.67975 0
M  V30 4774 O 452.294 1.59792 3.6855 0
M  V30 4775 N 450.5 1.70526 2.35307 0
M  V30 4776 H 450.047 2.06821 1.53567 0
M  V30 4777 H 450.005 1.07839 2.95327 0
M  V30 4778 N 453.777 0.010035 1.57597 0
M  V30 4779 C 454.707 -0.976857 2.12084 0
M  V30 4780 C 455.688 -1.35191 1.03235 0
M  V30 4781 O 456.873 -1.43389 1.3097 0
M  V30 4782 C 454.003 -2.26548 2.63236 0
M  V30 4783 C 452.957 -2.03175 3.76701 0
M  V30 4784 C 452.283 -3.38138 4.14206 0
M  V30 4785 C 453.583 -1.38625 5.03568 0
M  V30 4786 H 455.277 -0.523145 2.94794 0
M  V30 4787 H 452.823 -0.250195 1.4181 0
M  V30 4788 H 454.776 -2.95952 2.99984 0
M  V30 4789 H 453.5 -2.74051 1.77661 0
M  V30 4790 H 452.159 -1.36195 3.40362 0
M  V30 4791 H 451.807 -3.83363 3.25641 0
M  V30 4792 H 451.507 -3.23312 4.90656 0
M  V30 4793 H 453.031 -4.08841 4.53521 0
M  V30 4794 H 454.445 -1.98 5.38023 0
M  V30 4795 H 452.842 -1.34256 5.84889 0
M  V30 4796 H 453.912 -0.356722 4.83586 0
M  V30 4797 N 455.255 -1.55392 -0.262866 0
M  V30 4798 C 456.203 -1.8977 -1.345 0
M  V30 4799 C 457.197 -0.775063 -1.50629 0
M  V30 4800 O 458.403 -0.959519 -1.52293 0
M  V30 4801 H 454.778 -0.602467 -0.450041 0
M  V30 4802 H 456.749 -2.80147 -1.02762 0
M  V30 4803 C 455.498 -2.19501 -2.69657 0
M  V30 4804 H 454.821 -3.05378 -2.5804 0
M  V30 4805 H 456.261 -2.47469 -3.44289 0
M  V30 4806 C 454.72 -1.00597 -3.21531 0
M  V30 4807 O 455.25 -0.245768 -4.00947 0
M  V30 4808 N 453.456 -0.800911 -2.79345 0
M  V30 4809 H 453.003 -1.42079 -2.14875 0
M  V30 4810 H 452.961 -0.00697996 -3.14399 0
M  V30 4811 N 456.733 0.527833 -1.48498 0
M  V30 4812 C 457.958 1.313 -1.60546 0
M  V30 4813 C 458.383 1.86199 -0.26672 0
M  V30 4814 O 457.741 1.64513 0.761918 0
M  V30 4815 C 457.789 2.43818 -2.65678 0
M  V30 4816 O 456.893 3.46916 -2.22987 0
M  V30 4817 H 456.234 0.388784 -0.538277 0
M  V30 4818 H 458.764 0.634896 -1.945 0
M  V30 4819 H 458.774 2.89973 -2.87018 0
M  V30 4820 H 457.449 2.03222 -3.62869 0
M  V30 4821 H 456.026 3.06864 -2.11869 0
M  V30 4822 N 458.211 1.37122 0.776871 0
M  V30 4823 C 459.121 1.34651 1.9211 0
M  V30 4824 C 460.137 0.246824 1.7224 0
M  V30 4825 O 461.313 0.48134 1.95563 0
M  V30 4826 C 458.378 1.14748 3.2716 0
M  V30 4827 C 457.439 2.34308 3.5972 0
M  V30 4828 C 456.672 2.15345 4.88326 0
M  V30 4829 O 456.895 1.13507 5.58992 0
M  V30 4830 O 455.829 3.03414 5.1983 0
M  V30 4831 H 459.655 2.31013 1.97146 0
M  V30 4832 H 457.24 1.17799 0.918901 0
M  V30 4833 H 459.122 1.05616 4.0795 0
M  V30 4834 H 457.797 0.214562 3.22988 0
M  V30 4835 H 456.704 2.49011 2.79185 0
M  V30 4836 H 458.037 3.26149 3.68629 0
M  V30 4837 N 459.689 -1.00246 1.21608 0
M  V30 4838 C 460.599 -2.12515 0.993709 0
M  V30 4839 C 461.615 -1.73913 -0.0549939 0
M  V30 4840 O 462.791 -2.00943 0.135619 0
M  V30 4841 C 459.856 -3.42083 0.563953 0
M  V30 4842 C 458.917 -3.94843 1.68516 0
M  V30 4843 C 458.15 -5.18226 1.27582 0
M  V30 4844 O 458.373 -5.70201 0.150506 0
M  V30 4845 O 457.307 -5.64497 2.0887 0
M  V30 4846 H 461.133 -2.34152 1.93407 0
M  V30 4847 H 458.718 -1.10891 1.00118 0
M  V30 4848 H 460.6 -4.20073 0.334194 0
M  V30 4849 H 459.275 -3.21828 -0.347665 0
M  V30 4850 H 458.182 -3.18068 1.96935 0
M  V30 4851 H 459.515 -4.19512 2.5743 0
M  V30 4852 N 461.167 -1.02423 -1.1978 0
M  V30 4853 C 462.077 -0.610919 -2.26506 0
M  V30 4854 C 463.093 0.355152 -1.70337 0
M  V30 4855 O 464.269 0.214195 -2.00258 0
M  V30 4856 C 461.334 0.0365921 -3.46681 0
M  V30 4857 C 460.395 -0.976389 -4.18049 0
M  V30 4858 C 459.628 -0.359683 -5.32487 0
M  V30 4859 O 459.851 0.838601 -5.64202 0
M  V30 4860 O 458.785 -1.08022 -5.92127 0
M  V30 4861 H 462.611 -1.49965 -2.64091 0
M  V30 4862 H 460.196 -0.794156 -1.26545 0
M  V30 4863 H 462.078 0.39786 -4.19518 0
M  V30 4864 H 460.753 0.899398 -3.10954 0
M  V30 4865 H 459.66 -1.38916 -3.47352 0
M  V30 4866 H 460.993 -1.80941 -4.57735 0
M  V30 4867 N 462.645 1.35699 -0.801477 0
M  V30 4868 C 463.608 2.28199 -0.213994 0
M  V30 4869 C 464.608 1.49359 0.595691 0
M  V30 4870 O 465.798 1.69186 0.414921 0
M  V30 4871 C 462.93 3.33587 0.702297 0
M  V30 4872 H 464.123 2.81666 -1.02976 0
M  V30 4873 H 461.676 1.45467 -0.571759 0
M  V30 4874 H 462.411 2.85297 1.54195 0
M  V30 4875 H 462.196 3.91906 0.123484 0
M  V30 4876 H 463.686 4.02638 1.10783 0
M  V30 4877 N 464.123 0.554532 1.47522 0
M  V30 4878 C 465.053 -0.182974 2.32782 0
M  V30 4879 C 466.034 -0.911377 1.43624 0
M  V30 4880 O 467.219 -0.892366 1.72483 0
M  V30 4881 C 464.349 -1.21513 3.25349 0
M  V30 4882 C 463.303 -0.603355 4.23726 0
M  V30 4883 C 462.629 -1.73995 5.05598 0
M  V30 4884 C 463.929 0.441121 5.20434 0
M  V30 4885 H 465.623 0.52882 2.94693 0
M  V30 4886 H 463.169 0.255759 1.41711 0
M  V30 4887 H 465.122 -1.73922 3.83835 0
M  V30 4888 H 463.846 -1.95683 2.61487 0
M  V30 4889 H 462.505 -0.10059 3.66462 0
M  V30 4890 H 462.153 -2.47063 4.38143 0
M  V30 4891 H 461.853 -1.3364 5.72201 0
M  V30 4892 H 463.377 -2.26735 5.66942 0
M  V30 4893 H 464.791 0.00319931 5.733 0
M  V30 4894 H 463.188 0.763402 5.95224 0
M  V30 4895 H 464.258 1.33799 4.66075 0
M  V30 4896 N 465.601 -1.54893 0.290851 0
M  V30 4897 C 466.848 -1.99933 -0.321391 0
M  V30 4898 C 467.176 -1.17927 -1.54672 0
M  V30 4899 O 466.431 -0.240902 -1.94212 0
M  V30 4900 C 466.73 -3.49815 -0.732397 0
M  V30 4901 C 466.396 -4.4921 0.390056 0
M  V30 4902 C 465.058 -4.76107 0.698223 0
M  V30 4903 C 467.41 -5.08453 1.14562 0
M  V30 4904 C 464.738 -5.59514 1.76526 0
M  V30 4905 C 467.09 -5.9302 2.2025 0
M  V30 4906 C 465.754 -6.18232 2.51684 0
M  V30 4907 H 465.024 -0.731608 -0.117605 0
M  V30 4908 H 467.671 -1.87107 0.407839 0
M  V30 4909 H 465.976 -3.60199 -1.54155 0
M  V30 4910 H 467.673 -3.82083 -1.21712 0
M  V30 4911 H 464.263 -4.28372 0.13976 0
M  V30 4912 H 468.447 -4.87683 0.920801 0
M  V30 4913 H 463.703 -5.77289 2.01364 0
M  V30 4914 H 467.877 -6.37955 2.7926 0
M  V30 4915 H 465.504 -6.82653 3.34499 0
M  V30 4916 N 467.08 -0.0183926 -1.57589 0
M  V30 4917 C 468.027 0.967022 -2.09565 0
M  V30 4918 C 468.997 1.32983 -0.995225 0
M  V30 4919 O 470.182 1.42501 -1.26878 0
M  V30 4920 C 467.322 2.24772 -2.61861 0
M  V30 4921 C 466.435 1.94232 -3.85873 0
M  V30 4922 C 465.57 3.16518 -4.26603 0
M  V30 4923 C 464.609 2.81748 -5.43401 0
M  V30 4924 N 463.746 3.96626 -5.79338 0
M  V30 4925 H 468.586 0.516874 -2.93483 0
M  V30 4926 H 466.123 0.243544 -1.4507 0
M  V30 4927 H 468.081 2.99667 -2.90268 0
M  V30 4928 H 466.711 2.67423 -1.8079 0
M  V30 4929 H 465.763 1.09625 -3.64262 0
M  V30 4930 H 467.075 1.64616 -4.70853 0
M  V30 4931 H 466.229 3.99743 -4.56389 0
M  V30 4932 H 464.968 3.49286 -3.40368 0
M  V30 4933 H 463.973 1.96933 -5.1332 0
M  V30 4934 H 465.198 2.50207 -6.31327 0
M  V30 4935 H 463.144 4.29257 -4.96059 0
M  V30 4936 H 463.061 3.70598 -6.58933 0
M  V30 4937 H 464.329 4.80586 -6.13724 0
M  V30 4938 N 468.558 1.5553 0.254621 0
M  V30 4939 C 469.505 1.89666 1.31512 0
M  V30 4940 C 470.475 0.750057 1.482 0
M  V30 4941 O 471.66 1.00301 1.62309 0
M  V30 4942 C 468.8 2.19009 2.667 0
M  V30 4943 C 467.913 3.46435 2.58083 0
M  V30 4944 C 467.048 3.65386 3.85573 0
M  V30 4945 C 466.087 4.8644 3.71541 0
M  V30 4946 N 465.224 5.01952 4.90906 0
M  V30 4947 H 470.064 2.80109 1.017 0
M  V30 4948 H 467.601 1.38666 0.490938 0
M  V30 4949 H 469.559 2.34025 3.45381 0
M  V30 4950 H 468.189 1.31779 2.94676 0
M  V30 4951 H 467.241 3.39792 1.71013 0
M  V30 4952 H 468.553 4.35258 2.43622 0
M  V30 4953 H 467.707 3.80319 4.72697 0
M  V30 4954 H 466.446 2.74781 4.02922 0
M  V30 4955 H 465.451 4.71491 2.82801 0
M  V30 4956 H 466.676 5.78497 3.55694 0
M  V30 4957 H 464.622 4.14283 5.08631 0
M  V30 4958 H 464.539 5.84851 4.79046 0
M  V30 4959 H 465.807 5.21289 5.7955 0
M  V30 4960 N 470.036 -0.519951 1.48776 0
M  V30 4961 C 471.261 -1.30447 1.6124 0
M  V30 4962 C 471.686 -1.86055 0.276591 0
M  V30 4963 O 471.044 -1.64915 -0.753183 0
M  V30 4964 C 471.092 -2.42406 2.66967 0
M  V30 4965 O 470.196 -3.45728 2.24824 0
M  V30 4966 H 469.537 -0.385924 0.540332 0
M  V30 4967 H 472.067 -0.624572 1.94834 0
M  V30 4968 H 472.077 -2.88447 2.88552 0
M  V30 4969 H 470.752 -2.01294 3.63941 0
M  V30 4970 H 469.329 -3.05737 2.13494 0
M  V30 4971 N 471.514 -1.37532 -0.769588 0
M  V30 4972 C 472.477 -1.33292 -1.86456 0
M  V30 4973 C 473.477 -0.236537 -1.59051 0
M  V30 4974 O 474.667 -0.492511 -1.67093 0
M  V30 4975 C 471.799 -1.07118 -3.23633 0
M  V30 4976 H 472.992 -2.30692 -1.91628 0
M  V30 4977 H 470.545 -1.22593 -0.969572 0
M  V30 4978 H 471.28 -0.102578 -3.24138 0
M  V30 4979 H 471.065 -1.86479 -3.44917 0
M  V30 4980 H 472.555 -1.06806 -4.03711 0
M  V30 4981 N 472.992 0.995999 -1.22138 0
M  V30 4982 C 473.902 2.11985 -1.00496 0
M  V30 4983 C 474.918 1.7394 0.0457701 0
M  V30 4984 O 476.094 2.00868 -0.146273 0
M  V30 4985 C 473.159 3.41779 -0.582086 0
M  V30 4986 C 472.22 3.93943 -1.70608 0
M  V30 4987 C 471.453 5.17542 -1.30328 0
M  V30 4988 O 471.676 5.70114 -0.180743 0
M  V30 4989 O 470.61 5.63382 -2.11861 0
M  V30 4990 H 474.436 2.33123 -1.94647 0
M  V30 4991 H 472.021 1.10358 -1.00705 0
M  V30 4992 H 473.903 4.1989 -0.356467 0
M  V30 4993 H 472.578 3.22007 0.330592 0
M  V30 4994 H 471.485 3.17019 -1.98619 0
M  V30 4995 H 472.818 4.18141 -2.59651 0
M  V30 4996 N 474.47 1.03057 1.19235 0
M  V30 4997 C 475.698 0.747697 1.92917 0
M  V30 4998 C 476.113 -0.69372 1.75593 0
M  V30 4999 O 475.47 -1.47191 1.07894 0
M  V30 5000 C 475.521 1.09159 3.44625 0
M  V30 5001 O 475.242 2.47641 3.61394 0
M  V30 5002 C 476.743 0.831763 4.35427 0
M  V30 5003 H 473.963 0.273453 0.612751 0
M  V30 5004 H 476.507 1.37552 1.51327 0
M  V30 5005 H 474.662 0.508919 3.84043 0
M  V30 5006 H 475.076 2.60499 4.55237 0
M  V30 5007 H 476.55 1.12233 5.4047 0
M  V30 5008 H 477.027 -0.233769 4.38577 0
M  V30 5009 H 477.633 1.39725 4.01693 0
M  V30 5010 N 475.948 -1.35272 0.808662 0
M  V30 5011 C 476.878 -2.32315 0.234981 0
M  V30 5012 C 477.859 -1.57572 -0.64071 0
M  V30 5013 O 479.044 -1.8563 -0.570551 0
M  V30 5014 C 476.174 -3.41801 -0.615601 0
M  V30 5015 C 475.128 -4.27694 0.161767 0
M  V30 5016 C 474.454 -5.28519 -0.810649 0
M  V30 5017 C 475.754 -5.04231 1.36193 0
M  V30 5018 H 477.448 -2.80543 1.04575 0
M  V30 5019 H 474.994 -1.3488 0.504315 0
M  V30 5020 H 476.947 -4.08693 -1.02702 0
M  V30 5021 H 475.671 -2.92186 -1.45928 0
M  V30 5022 H 474.33 -3.62384 0.554382 0
M  V30 5023 H 473.978 -4.75171 -1.64988 0
M  V30 5024 H 473.678 -5.8686 -0.294822 0
M  V30 5025 H 475.202 -5.98283 -1.22023 0
M  V30 5026 H 476.616 -5.64058 1.02528 0
M  V30 5027 H 475.013 -5.72077 1.81239 0
M  V30 5028 H 476.083 -4.34753 2.14751 0
M  V30 5029 N 477.426 -0.562348 -1.47226 0
M  V30 5030 C 478.672 -0.0485293 -2.03342 0
M  V30 5031 C 479.027 1.28898 -1.42839 0
M  V30 5032 O 478.32 1.82719 -0.576563 0
M  V30 5033 C 478.514 0.0969817 -3.57268 0
M  V30 5034 C 478.343 -1.22487 -4.32697 0
M  V30 5035 C 477.113 -1.79357 -4.72397 0
M  V30 5036 C 479.311 -2.14332 -4.67511 0
M  V30 5037 N 477.293 -3.05493 -5.32491 0
M  V30 5038 C 478.664 -3.25049 -5.27961 0
M  V30 5039 C 480.719 -2.14263 -4.4944 0
M  V30 5040 C 479.422 -4.35804 -5.72248 0
M  V30 5041 C 481.448 -3.24033 -4.94729 0
M  V30 5042 C 480.81 -4.3347 -5.55233 0
M  V30 5043 H 476.909 -0.0600464 -0.779691 0
M  V30 5044 H 479.493 -0.750769 -1.79643 0
M  V30 5045 H 477.664 0.768353 -3.80724 0
M  V30 5046 H 479.396 0.613333 -4.00025 0
M  V30 5047 H 476.151 -1.33093 -4.54514 0
M  V30 5048 H 476.575 -3.698 -5.67077 0
M  V30 5049 H 481.217 -1.30935 -4.02015 0
M  V30 5050 H 478.935 -5.19888 -6.18661 0
M  V30 5051 H 482.521 -3.25073 -4.82513 0
M  V30 5052 H 481.401 -5.17008 -5.89638 0
M  V30 5053 N 478.904 1.54736 -0.299062 0
M  V30 5054 C 479.852 2.24897 0.593658 0
M  V30 5055 C 480.846 1.25429 1.13859 0
M  V30 5056 O 482.052 1.43286 1.08945 0
M  V30 5057 H 478.427 0.72207 0.210046 0
M  V30 5058 H 480.398 2.98393 -0.0206421 0
M  V30 5059 C 479.147 3.00159 1.75499 0
M  V30 5060 H 478.47 3.76501 1.34489 0
M  V30 5061 H 479.91 3.52535 2.35574 0
M  V30 5062 C 478.369 2.07015 2.65794 0
M  V30 5063 O 478.899 1.63692 3.66835 0
M  V30 5064 N 477.105 1.73012 2.33485 0
M  V30 5065 H 476.652 2.08439 1.51364 0
M  V30 5066 H 476.61 1.10965 2.94167 0
M  V30 5067 N 480.382 0.0267497 1.57577 0
M  V30 5068 C 481.631 -0.651736 1.9088 0
M  V30 5069 C 481.944 -1.73427 0.904576 0
M  V30 5070 O 483.15 -2.46923 1.12877 0
M  V30 5071 C 481.606 -1.21048 3.38933 0
M  V30 5072 C 481.214 -0.161362 4.47709 0
M  V30 5073 C 482.958 -1.86562 3.81307 0
M  V30 5074 C 480.865 -0.731611 5.86857 0
M  V30 5075 H 479.795 -0.247198 0.712326 0
M  V30 5076 H 482.446 0.0916641 1.83271 0
M  V30 5077 H 480.828 -2.00542 3.41466 0
M  V30 5078 H 482.002 0.61094 4.56732 0
M  V30 5079 H 480.317 0.394877 4.14523 0
M  V30 5080 H 482.914 -2.30178 4.8262 0
M  V30 5081 H 483.257 -2.70735 3.16241 0
M  V30 5082 H 483.79 -1.13762 3.81186 0
M  V30 5083 H 480.529 0.0719329 6.55461 0
M  V30 5084 H 480.049 -1.47245 5.81445 0
M  V30 5085 H 481.728 -1.22208 6.35354 0
M  V30 5086 N 481.861 -1.55662 -0.24637 0
M  V30 5087 C 482.793 -1.86811 -1.32794 0
M  V30 5088 C 483.806 -0.754413 -1.44265 0
M  V30 5089 O 484.995 -1.03253 -1.45606 0
M  V30 5090 C 482.095 -2.0397 -2.70646 0
M  V30 5091 C 481.268 -3.34832 -2.81436 0
M  V30 5092 C 480.327 -3.41727 -4.00136 0
M  V30 5093 O 479.353 -4.14934 -3.89639 0
M  V30 5094 N 480.555 -2.71058 -5.1333 0
M  V30 5095 H 483.32 -2.80174 -1.06409 0
M  V30 5096 H 480.881 -1.55906 -0.43647 0
M  V30 5097 H 482.873 -2.05924 -3.48393 0
M  V30 5098 H 481.443 -1.1735 -2.89738 0
M  V30 5099 H 480.663 -3.4519 -1.90361 0
M  V30 5100 H 481.951 -4.21085 -2.85595 0
M  V30 5101 H 481.349 -2.11314 -5.2475 0
M  V30 5102 H 479.906 -2.78704 -5.89209 0
M  V30 5103 N 483.339 0.512053 -1.4905 0
M  V30 5104 C 484.286 1.6148 -1.64902 0
M  V30 5105 C 485.256 1.58687 -0.490673 0
M  V30 5106 O 486.441 1.76842 -0.71636 0
M  V30 5107 C 483.581 2.99676 -1.71139 0
M  V30 5108 C 482.694 3.12568 -2.98203 0
M  V30 5109 C 481.829 4.4143 -2.95487 0
M  V30 5110 C 480.868 4.47916 -4.17179 0
M  V30 5111 N 480.005 5.68191 -4.12437 0
M  V30 5112 H 484.845 1.47271 -2.59066 0
M  V30 5113 H 482.382 0.716713 -1.28459 0
M  V30 5114 H 484.34 3.79761 -1.72736 0
M  V30 5115 H 482.97 3.12614 -0.804508 0
M  V30 5116 H 482.022 2.25618 -3.06269 0
M  V30 5117 H 483.334 3.1322 -3.88194 0
M  V30 5118 H 482.488 5.29825 -2.95585 0
M  V30 5119 H 481.227 4.43326 -2.03256 0
M  V30 5120 H 480.232 3.57925 -4.17337 0
M  V30 5121 H 481.457 4.47744 -5.1059 0
M  V30 5122 H 479.403 5.7095 -3.23036 0
M  V30 5123 H 479.32 5.70413 -4.96151 0
M  V30 5124 H 480.588 6.58823 -4.16621 0
M  V30 5125 N 484.817 1.37938 0.762283 0
M  V30 5126 C 486.094 1.24196 1.51112 0
M  V30 5127 C 486.474 -0.160409 2.1049 0
M  V30 5128 O 485.822 -1.16904 1.96331 0
M  V30 5129 C 486.032 2.34537 2.58445 0
M  V30 5130 C 487.38 2.7254 3.25588 0
M  V30 5131 O 488.404 2.33783 2.68745 0
M  V30 5132 O 487.263 3.39343 4.28379 0
M  V30 5133 H 484.357 0.485175 0.669727 0
M  V30 5134 H 486.903 1.49743 0.798438 0
M  V30 5135 H 485.675 3.28406 2.12756 0
M  V30 5136 H 485.298 2.10505 3.37303 0
M  V30 5137 N 486.295 -0.989507 1.22664 0
M  V30 5138 C 487.225 -2.09847 1.02404 0
M  V30 5139 C 488.206 -1.70007 -0.0561303 0
M  V30 5140 O 489.391 -1.93906 0.106748 0
M  V30 5141 C 486.521 -3.41996 0.604663 0
M  V30 5142 C 485.475 -3.95699 1.63115 0
M  V30 5143 C 484.801 -5.23936 1.0675 0
M  V30 5144 C 486.101 -4.25999 3.02196 0
M  V30 5145 H 487.795 -2.27054 1.95158 0
M  V30 5146 H 485.341 -1.09111 0.939727 0
M  V30 5147 H 487.294 -4.1899 0.45002 0
M  V30 5148 H 486.018 -3.24626 -0.35855 0
M  V30 5149 H 484.677 -3.2084 1.77362 0
M  V30 5150 H 484.325 -5.02909 0.0955422 0
M  V30 5151 H 484.025 -5.60833 1.75328 0
M  V30 5152 H 485.549 -6.0356 0.924516 0
M  V30 5153 H 486.963 -4.93777 2.91303 0
M  V30 5154 H 485.36 -4.74076 3.67929 0
M  V30 5155 H 486.43 -3.33636 3.51873 0
M  V30 5156 N 487.773 -1.03688 -1.18687 0
M  V30 5157 C 489.022 -0.733235 -1.879 0
M  V30 5158 C 489.335 0.741745 -1.8099 0
M  V30 5159 O 490.541 1.15875 -2.4553 0
M  V30 5160 C 488.997 -1.26127 -3.37076 0
M  V30 5161 C 488.605 -2.76461 -3.52524 0
M  V30 5162 C 490.349 -1.03398 -4.11715 0
M  V30 5163 C 488.256 -3.22642 -4.95637 0
M  V30 5164 H 487.186 -0.270584 -0.703776 0
M  V30 5165 H 489.837 -1.25222 -1.34133 0
M  V30 5166 H 488.219 -0.670165 -3.90288 0
M  V30 5167 H 489.393 -3.41296 -3.09602 0
M  V30 5168 H 487.708 -2.97559 -2.91286 0
M  V30 5169 H 490.305 -1.3542 -5.17267 0
M  V30 5170 H 490.648 0.0289246 -4.1629 0
M  V30 5171 H 491.181 -1.5895 -3.64664 0
M  V30 5172 H 487.92 -4.28296 -4.96228 0
M  V30 5173 H 487.44 -2.62539 -5.39289 0
M  V30 5174 H 489.119 -3.16444 -5.64333 0
M  V30 5175 N 489.251 1.34841 -0.815825 0
M  V30 5176 C 490.498 1.98499 -0.400535 0
M  V30 5177 C 490.826 1.64699 1.03463 0
M  V30 5178 O 490.081 0.907006 1.73412 0
M  V30 5179 C 490.38 3.53273 -0.541541 0
M  V30 5180 C 490.046 4.06966 -1.94138 0
M  V30 5181 C 488.708 4.21341 -2.32433 0
M  V30 5182 C 491.06 4.35933 -2.85677 0
M  V30 5183 C 488.388 4.62007 -3.61617 0
M  V30 5184 C 490.74 4.78042 -4.14317 0
M  V30 5185 C 489.404 4.90622 -4.52599 0
M  V30 5186 H 488.674 0.72636 -0.146566 0
M  V30 5187 H 491.321 1.60902 -1.0384 0
M  V30 5188 H 489.626 3.91387 0.179741 0
M  V30 5189 H 491.323 4.00497 -0.20085 0
M  V30 5190 H 487.913 3.96235 -1.63388 0
M  V30 5191 H 492.097 4.24372 -2.57337 0
M  V30 5192 H 487.353 4.69937 -3.91113 0
M  V30 5193 H 491.527 4.99415 -4.85342 0
M  V30 5194 H 489.154 5.2189 -5.52752 0
M  V30 5195 O 490.768 0.711044 1.45005 0
M  V30 5196 H 491.459 0.254759 1.92017 0
M  V30 END ATOM
M  V30 BEGIN BOND
M  V30 END BOND
M  V30 END CTAB
M  END
$$$$
