drugbank_target|Q15120 [Pyruvate dehydrogenase (acetyl-transferring)] kinase isozyme 3, mitochondrial (DB03758; DB03760)
 OpenBabel12092120513D

  0  0  0     0  0            999 V3000
M  V30 BEGIN CTAB
M  V30 COUNTS 6616 6704 0 0 0
M  V30 BEGIN ATOM
M  V30 1 H -0.908 1.98254 -0.117106 0
M  V30 2 N 0 1.576 0 0
M  V30 3 C 0.933 2.03868 1.02534 0
M  V30 4 C 1.911 0.928543 1.3348 0
M  V30 5 O 3.095 1.19667 1.45644 0
M  V30 6 C 0.222 2.43627 2.35294 0
M  V30 7 C -0.732 3.65373 2.2001 0
M  V30 8 S 0.101 5.13292 1.52614 0
M  V30 9 C 1.257 5.56322 2.86805 0
M  V30 10 H 1.49 2.90518 0.631377 0
M  V30 11 H -0.977 1.52953 0.210867 0
M  V30 12 H 0.981 2.67203 3.11629 0
M  V30 13 H -0.358 1.57376 2.7183 0
M  V30 14 H -1.165 3.90944 3.18086 0
M  V30 15 H -1.563 3.418 1.51819 0
M  V30 16 H 0.729 5.58782 3.83104 0
M  V30 17 H 1.672 6.56266 2.65933 0
M  V30 18 H 2.08 4.83886 2.90714 0
M  V30 19 N 1.4781 -0.272755 1.55222 0
M  V30 20 C 2.8941 -0.619959 1.47067 0
M  V30 21 C 3.0941 -1.895 0.684978 0
M  V30 22 O 2.1501 -2.51675 0.203931 0
M  V30 23 C 3.4631 -0.746693 2.91282 0
M  V30 24 C 5.0111 -0.840731 3.01497 0
M  V30 25 C 5.4861 -0.99924 4.46967 0
M  V30 26 N 6.9771 -1.06476 4.50796 0
M  V30 27 C 7.7121 -1.20621 5.6057 0
M  V30 28 N 7.2081 -1.31483 6.80209 0
M  V30 29 N 9.0011 -1.23733 5.48312 0
M  V30 30 H 1.1521 0.564606 2.04758 0
M  V30 31 H 3.4151 0.191177 0.928523 0
M  V30 32 H 3.1211 0.119753 3.51496 0
M  V30 33 H 2.9951 -1.6269 3.40311 0
M  V30 34 H 5.3821 -1.69764 2.41379 0
M  V30 35 H 5.4631 0.0640874 2.5572 0
M  V30 36 H 5.1071 -0.146984 5.07687 0
M  V30 37 H 5.0371 -1.91871 4.90401 0
M  V30 38 H 7.5281 -0.993196 3.64615 0
M  V30 39 H 7.8411 -1.42111 7.59621 0
M  V30 40 H 6.1861 -1.28487 6.8302 0
M  V30 41 H 9.3771 -1.14877 4.53785 0
M  V30 42 H 9.5501 -1.34412 6.33906 0
M  V30 43 N 2.9562 -1.48159 -0.537278 0
M  V30 44 C 3.8862 -1.65029 -1.6519 0
M  V30 45 C 4.8672 -0.499281 -1.62607 0
M  V30 46 O 6.0522 -0.730972 -1.79918 0
M  V30 47 C 3.1822 -1.68303 -3.03795 0
M  V30 48 C 2.1362 -2.8283 -3.21234 0
M  V30 49 C 1.4622 -2.71189 -4.60826 0
M  V30 50 C 2.7622 -4.24211 -3.04701 0
M  V30 51 H 4.4562 -2.58341 -1.51328 0
M  V30 52 H 2.0022 -1.24325 -0.726585 0
M  V30 53 H 3.9552 -1.78693 -3.81637 0
M  V30 54 H 2.6792 -0.715635 -3.18663 0
M  V30 55 H 1.3382 -2.71983 -2.45807 0
M  V30 56 H 0.9862 -1.72435 -4.7252 0
M  V30 57 H 0.6862 -3.48035 -4.7344 0
M  V30 58 H 2.2102 -2.83537 -5.40777 0
M  V30 59 H 3.6242 -4.3593 -3.72341 0
M  V30 60 H 2.0212 -5.01998 -3.28813 0
M  V30 61 H 3.0912 -4.41184 -2.01209 0
M  V30 62 N 4.4343 0.785586 -1.36625 0
M  V30 63 C 5.6813 1.54362 -1.31067 0
M  V30 64 C 6.0093 1.94195 0.10893 0
M  V30 65 O 5.2643 1.63262 1.07908 0
M  V30 66 C 5.5633 2.83007 -2.1827 0
M  V30 67 C 5.2293 2.62294 -3.6676 0
M  V30 68 C 3.8913 2.56353 -4.0723 0
M  V30 69 C 6.2433 2.43371 -4.6089 0
M  V30 70 C 3.5713 2.29461 -5.39967 0
M  V30 71 C 5.9233 2.18005 -5.93849 0
M  V30 72 C 4.5873 2.105 -6.3344 0
M  V30 73 H 3.8573 0.564851 -0.479609 0
M  V30 74 H 6.5043 0.906028 -1.68711 0
M  V30 75 H 4.8093 3.51253 -1.73576 0
M  V30 76 H 6.5063 3.40817 -2.11292 0
M  V30 77 H 3.0963 2.67774 -3.34656 0
M  V30 78 H 7.2803 2.46959 -4.30494 0
M  V30 79 H 2.5363 2.22135 -5.69619 0
M  V30 80 H 6.7103 2.02359 -6.66351 0
M  V30 81 H 4.3373 1.89425 -7.36222 0
M  V30 82 N 5.9124 1.20967 1.01018 0
M  V30 83 C 7.3284 0.965905 1.27053 0
M  V30 84 C 7.5284 -0.350785 1.98423 0
M  V30 85 O 6.5844 -1.07773 2.28344 0
M  V30 86 C 7.8974 2.15294 2.09926 0
M  V30 87 C 9.4454 2.19463 2.23171 0
M  V30 88 C 9.9204 3.3767 3.09424 0
M  V30 89 N 11.4114 3.37724 3.17012 0
M  V30 90 C 12.1464 4.25837 3.83993 0
M  V30 91 N 11.6424 5.24138 4.53047 0
M  V30 92 N 13.4354 4.1366 3.80581 0
M  V30 93 H 5.5864 2.0565 0.531194 0
M  V30 94 H 7.8494 0.90024 0.297106 0
M  V30 95 H 7.5554 3.10684 1.64828 0
M  V30 96 H 7.4294 2.13923 3.10672 0
M  V30 97 H 9.8164 1.24632 2.6749 0
M  V30 98 H 9.8974 2.2488 1.21912 0
M  V30 99 H 9.5414 4.32791 2.65808 0
M  V30 100 H 9.4714 3.29491 4.10784 0
M  V30 101 H 11.9624 2.6658 2.6785 0
M  V30 102 H 12.2754 5.87684 5.01844 0
M  V30 103 H 10.6204 5.28068 4.5185 0
M  V30 104 H 13.8114 3.36127 3.25785 0
M  V30 105 H 13.9844 4.82538 4.32505 0
M  V30 106 N 7.3905 -1.2043 1.01659 0
M  V30 107 C 8.6365 -1.90356 0.716674 0
M  V30 108 C 8.9915 -1.77367 -0.745557 0
M  V30 109 O 8.2845 -1.1471 -1.53467 0
M  V30 110 C 8.4785 -3.40464 1.08714 0
M  V30 111 C 8.3075 -3.6806 2.58384 0
M  V30 112 C 7.0775 -3.86775 3.25167 0
M  V30 113 C 9.2755 -3.70623 3.56572 0
M  V30 114 N 7.2575 -4.01889 4.64067 0
M  V30 115 C 8.6285 -3.91161 4.81034 0
M  V30 116 C 10.6835 -3.53586 3.50544 0
M  V30 117 C 9.3865 -3.96428 6.00198 0
M  V30 118 C 11.4125 -3.60125 4.6911 0
M  V30 119 C 10.7745 -3.81135 5.92381 0
M  V30 120 H 6.8735 -0.716226 0.313918 0
M  V30 121 H 9.4575 -1.44815 1.30141 0
M  V30 122 H 7.6285 -3.84757 0.530745 0
M  V30 123 H 9.3605 -3.97863 0.740763 0
M  V30 124 H 6.1155 -3.85156 2.75594 0
M  V30 125 H 6.5395 -4.13323 5.36184 0
M  V30 126 H 11.1815 -3.36308 2.56235 0
M  V30 127 H 8.8995 -4.12502 6.94887 0
M  V30 128 H 12.4855 -3.4825 4.66062 0
M  V30 129 H 11.3655 -3.86054 6.82592 0
M  V30 130 N 8.8686 -0.792821 -1.36206 0
M  V30 131 C 9.7986 -0.207853 -2.32573 0
M  V30 132 C 10.7796 0.659055 -1.56813 0
M  V30 133 O 11.9646 0.592176 -1.84951 0
M  V30 134 C 9.0946 0.655449 -3.41059 0
M  V30 135 C 8.0486 -0.111842 -4.27854 0
M  V30 136 C 7.3746 0.872274 -5.27537 0
M  V30 137 C 8.6746 -1.30299 -5.05786 0
M  V30 138 H 10.3686 -1.01294 -2.81744 0
M  V30 139 H 7.9146 -0.48854 -1.3546 0
M  V30 140 H 9.8676 1.07464 -4.07467 0
M  V30 141 H 8.5916 1.49328 -2.90463 0
M  V30 142 H 7.2506 -0.512053 -3.63006 0
M  V30 143 H 6.8986 1.70523 -4.73214 0
M  V30 144 H 6.5986 0.363291 -5.86476 0
M  V30 145 H 8.1226 1.28996 -5.96818 0
M  V30 146 H 9.5366 -0.959379 -5.65216 0
M  V30 147 H 7.9336 -1.7455 -5.74154 0
M  V30 148 H 9.0036 -2.09663 -4.37229 0
M  V30 149 N 10.3467 1.47872 -0.545128 0
M  V30 150 C 11.2767 2.32661 0.197793 0
M  V30 151 C 12.2577 1.43041 0.920504 0
M  V30 152 O 13.4427 1.71912 0.90333 0
M  V30 153 C 10.5727 3.24569 1.23582 0
M  V30 154 C 9.5267 4.23333 0.630323 0
M  V30 155 C 8.8527 5.0448 1.77211 0
M  V30 156 C 10.1527 5.20704 -0.407974 0
M  V30 157 H 11.8467 2.95024 -0.510045 0
M  V30 158 H 9.3927 1.4187 -0.246731 0
M  V30 159 H 11.3457 3.8272 1.76362 0
M  V30 160 H 10.0697 2.60236 1.97344 0
M  V30 161 H 8.7287 3.6639 0.123922 0
M  V30 162 H 8.3767 4.36561 2.49847 0
M  V30 163 H 8.0767 5.71339 1.37281 0
M  V30 164 H 9.6007 5.65487 2.3034 0
M  V30 165 H 11.0147 5.7329 0.033305 0
M  V30 166 H 9.4117 5.95699 -0.725486 0
M  V30 167 H 10.4817 4.66917 -1.30828 0
M  V30 168 N 11.8248 0.280983 1.55075 0
M  V30 169 C 12.7718 -0.603937 2.22758 0
M  V30 170 C 13.7418 -1.1452 1.20309 0
M  V30 171 O 14.9268 -1.19343 1.48869 0
M  V30 172 C 12.0668 -1.77947 2.95684 0
M  V30 173 C 11.1798 -1.2715 4.12864 0
M  V30 174 C 10.3148 -2.4093 4.7342 0
M  V30 175 C 9.3538 -1.87165 5.82783 0
M  V30 176 N 8.4908 -2.94441 6.37377 0
M  V30 177 H 13.3308 -0.020124 2.97993 0
M  V30 178 H 10.8678 0.00183425 1.471 0
M  V30 179 H 12.8258 -2.47055 3.36184 0
M  V30 180 H 11.4558 -2.33522 2.22861 0
M  V30 181 H 10.5078 -0.473331 3.77444 0
M  V30 182 H 11.8198 -0.837751 4.91715 0
M  V30 183 H 10.9738 -3.18021 5.1667 0
M  V30 184 H 9.7128 -2.87623 3.93859 0
M  V30 185 H 8.7178 -1.08556 5.38976 0
M  V30 186 H 9.9428 -1.41401 6.64216 0
M  V30 187 H 7.8888 -3.40505 5.60707 0
M  V30 188 H 7.8058 -2.55501 7.11516 0
M  V30 189 H 9.0738 -3.71489 6.85285 0
M  V30 190 N 13.3029 -1.57598 0.00835791 0
M  V30 191 C 14.2349 -2.05811 -1.00868 0
M  V30 192 C 15.2479 -0.977579 -1.30182 0
M  V30 193 O 16.4369 -1.25421 -1.27011 0
M  V30 194 C 13.5369 -2.45016 -2.34137 0
M  V30 195 C 12.7099 -3.75903 -2.23643 0
M  V30 196 C 11.7689 -4.01884 -3.3967 0
M  V30 197 O 10.7949 -4.72433 -3.17483 0
M  V30 198 N 11.9969 -3.50432 -4.62793 0
M  V30 199 H 14.7619 -2.93684 -0.597458 0
M  V30 200 H 12.3229 -1.60909 -0.178852 0
M  V30 201 H 14.3149 -2.59506 -3.10546 0
M  V30 202 H 12.8849 -1.62618 -2.66972 0
M  V30 203 H 12.1049 -3.7141 -1.32091 0
M  V30 204 H 13.3929 -4.61695 -2.13812 0
M  V30 205 H 12.7909 -2.93317 -4.83716 0
M  V30 206 H 11.3479 -3.70236 -5.3644 0
M  V30 207 N 14.781 0.264519 -1.55364 0
M  V30 208 C 16.192 0.834936 -1.6699 0
M  V30 209 C 16.543 1.86718 -0.602552 0
M  V30 210 O 15.668 2.14899 0.254425 0
M  V30 211 C 16.263 1.5212 -3.02729 0
M  V30 212 C 14.822 2.03954 -3.16354 0
M  V30 213 C 13.969 0.884498 -2.62815 0
M  V30 214 H 16.92 0.0406869 -1.58648 0
M  V30 215 H 16.941 2.38853 -2.96191 0
M  V30 216 H 16.453 0.769668 -3.80392 0
M  V30 217 H 14.554 2.82041 -2.43482 0
M  V30 218 H 14.667 2.24902 -4.23032 0
M  V30 219 H 13.031 1.2802 -2.20188 0
M  V30 220 H 13.814 0.14634 -3.42988 0
M  V30 221 N 16.2591 1.48442 0.529413 0
M  V30 222 C 17.5051 1.5672 1.28711 0
M  V30 223 C 17.8381 0.2406 1.92704 0
M  V30 224 O 17.1131 -0.753454 1.79313 0
M  V30 225 C 17.3961 2.70587 2.37603 0
M  V30 226 C 17.2491 4.12953 1.78297 0
M  V30 227 C 18.5681 2.80212 3.39366 0
M  V30 228 H 15.6871 0.570474 0.466613 0
M  V30 229 H 18.3291 1.80617 0.589706 0
M  V30 230 H 16.4791 2.50342 2.97088 0
M  V30 231 H 18.1511 4.44639 1.22858 0
M  V30 232 H 16.3941 4.19927 1.0883 0
M  V30 233 H 17.0651 4.88448 2.57144 0
M  V30 234 H 19.5411 2.98553 2.89836 0
M  V30 235 H 18.4171 3.61611 4.12951 0
M  V30 236 H 18.6781 1.88393 3.99951 0
M  V30 237 N 17.7372 -0.778329 1.37039 0
M  V30 238 C 19.1482 -1.35421 1.28523 0
M  V30 239 C 19.4992 -1.96075 -0.0700901 0
M  V30 240 O 18.6242 -1.93352 -0.971801 0
M  V30 241 C 19.2192 -2.46211 2.32735 0
M  V30 242 C 17.7782 -2.99585 2.27873 0
M  V30 243 C 16.9252 -1.72748 2.16918 0
M  V30 244 H 19.8762 -0.5791 1.47757 0
M  V30 245 H 19.8972 -3.2552 1.9702 0
M  V30 246 H 19.4092 -2.02036 3.31365 0
M  V30 247 H 17.5102 -3.48152 1.32745 0
M  V30 248 H 17.6232 -3.55646 3.21018 0
M  V30 249 H 15.9872 -1.95416 1.63354 0
M  V30 250 H 16.7702 -1.30686 3.17452 0
M  V30 251 N 19.2153 -1.21501 -1.00376 0
M  V30 252 C 20.1623 -0.975387 -2.09177 0
M  V30 253 C 21.1323 0.0990615 -1.65804 0
M  V30 254 O 22.3173 -0.0483147 -1.90739 0
M  V30 255 C 19.4573 -0.547507 -3.40729 0
M  V30 256 C 18.5703 -1.69153 -3.97506 0
M  V30 257 C 17.7053 -1.2127 -5.17172 0
M  V30 258 C 16.7443 -2.32897 -5.66061 0
M  V30 259 N 15.8813 -1.86138 -6.76976 0
M  V30 260 H 20.7213 -1.9068 -2.29009 0
M  V30 261 H 18.2583 -0.950257 -1.12288 0
M  V30 262 H 20.2163 -0.280667 -4.16255 0
M  V30 263 H 18.8463 0.346904 -3.20931 0
M  V30 264 H 17.8983 -2.07298 -3.18954 0
M  V30 265 H 19.2103 -2.5316 -4.29781 0
M  V30 266 H 18.3643 -0.902591 -5.99948 0
M  V30 267 H 17.1033 -0.342692 -4.86495 0
M  V30 268 H 16.1083 -2.64709 -4.81881 0
M  V30 269 H 17.3333 -3.20396 -5.98768 0
M  V30 270 H 15.2793 -1.01484 -6.48103 0
M  V30 271 H 15.1963 -2.63717 -7.08512 0
M  V30 272 H 16.4643 -1.58165 -7.63285 0
M  V30 273 N 20.6934 1.19889 -1.02296 0
M  V30 274 C 21.6254 2.22334 -0.556787 0
M  V30 275 C 22.6384 1.58674 0.364199 0
M  V30 276 O 23.8274 1.77768 0.161533 0
M  V30 277 C 20.9274 3.38257 0.208694 0
M  V30 278 C 20.1004 4.31504 -0.71577 0
M  V30 279 C 19.1594 5.262 0.00325597 0
M  V30 280 O 18.1854 5.65798 -0.621357 0
M  V30 281 N 19.3874 5.66303 1.27599 0
M  V30 282 H 22.1524 2.62957 -1.43784 0
M  V30 283 H 19.7134 1.34495 -0.901261 0
M  V30 284 H 21.7054 3.98616 0.699111 0
M  V30 285 H 20.2754 2.96472 0.991102 0
M  V30 286 H 19.4954 3.69016 -1.38638 0
M  V30 287 H 20.7834 4.9072 -1.34428 0
M  V30 288 H 20.1814 5.36155 1.80429 0
M  V30 289 H 18.7384 6.28942 1.71102 0
M  V30 290 N 22.1715 0.800033 1.35784 0
M  V30 291 C 23.4205 0.37387 1.98205 0
M  V30 292 C 23.7335 -1.06302 1.64193 0
M  V30 293 O 24.9395 -1.59198 2.19928 0
M  V30 294 C 23.3955 0.617532 3.54562 0
M  V30 295 C 23.0035 2.06654 3.9749 0
M  V30 296 C 24.7475 0.256401 4.23725 0
M  V30 297 C 22.6545 2.2563 5.46667 0
M  V30 298 H 21.5845 0.136055 0.741623 0
M  V30 299 H 24.2355 0.983166 1.54939 0
M  V30 300 H 22.6175 -0.0616248 3.95952 0
M  V30 301 H 23.7915 2.78296 3.67271 0
M  V30 302 H 22.1065 2.38691 3.41197 0
M  V30 303 H 24.7035 0.376318 5.33374 0
M  V30 304 H 25.0465 -0.796692 4.08606 0
M  V30 305 H 25.5795 0.889214 3.87734 0
M  V30 306 H 22.3185 3.2936 5.66747 0
M  V30 307 H 21.8385 1.58504 5.78478 0
M  V30 308 H 23.5175 2.06861 6.1304 0
M  V30 309 N 23.6496 -1.47581 0.552962 0
M  V30 310 C 24.5596 -2.33743 -0.200353 0
M  V30 311 C 25.5756 -1.47928 -0.916151 0
M  V30 312 O 26.7516 -1.80865 -0.885993 0
M  V30 313 C 23.8166 -3.24536 -1.21973 0
M  V30 314 C 22.8776 -4.26238 -0.511819 0
M  V30 315 C 22.1106 -5.12693 -1.48263 0
M  V30 316 O 22.3336 -5.01525 -2.71714 0
M  V30 317 O 21.2676 -5.93375 -1.00945 0
M  V30 318 H 25.0936 -2.9945 0.506304 0
M  V30 319 H 22.6786 -1.46071 0.313622 0
M  V30 320 H 24.5606 -3.80631 -1.80827 0
M  V30 321 H 23.2356 -2.61462 -1.90839 0
M  V30 322 H 22.1426 -3.73914 0.117799 0
M  V30 323 H 23.4756 -4.92014 0.135308 0
M  V30 324 N 25.1277 -0.289203 -1.54924 0
M  V30 325 C 26.5437 0.0645403 -1.59469 0
M  V30 326 C 26.7437 1.53419 -1.30632 0
M  V30 327 O 25.7997 2.2852 -1.074 0
M  V30 328 C 27.1127 -0.32278 -2.98963 0
M  V30 329 C 28.6607 -0.270564 -3.11828 0
M  V30 330 C 29.1357 -0.632532 -4.53611 0
M  V30 331 N 30.6267 -0.584617 -4.59496 0
M  V30 332 C 31.3617 -0.837314 -5.67254 0
M  V30 333 N 30.8577 -1.15536 -6.83098 0
M  V30 334 N 32.6507 -0.765166 -5.56868 0
M  V30 335 H 24.8017 -1.24714 -1.71931 0
M  V30 336 H 27.0647 -0.504809 -0.802416 0
M  V30 337 H 26.7707 -1.34541 -3.24948 0
M  V30 338 H 26.6447 0.32944 -3.75759 0
M  V30 339 H 29.0317 0.742805 -2.85598 0
M  V30 340 H 29.1127 -0.957242 -2.37214 0
M  V30 341 H 28.7567 -1.64365 -4.80569 0
M  V30 342 H 28.6867 0.07609 -5.26545 0
M  V30 343 H 31.1777 -0.349248 -3.76283 0
M  V30 344 H 31.4907 -1.33447 -7.61191 0
M  V30 345 H 29.8357 -1.19328 -6.84679 0
M  V30 346 H 33.0267 -0.516432 -4.65243 0
M  V30 347 H 33.1997 -0.965477 -6.40767 0
M  V30 348 N 26.6058 1.57591 -0.0167156 0
M  V30 349 C 27.8358 1.95292 0.674149 0
M  V30 350 C 28.2438 0.891097 1.66901 0
M  V30 351 O 27.5868 -0.136908 1.83189 0
M  V30 352 C 27.6488 3.29072 1.44747 0
M  V30 353 C 27.3128 4.52879 0.612331 0
M  V30 354 C 28.3098 5.1979 -0.107126 0
M  V30 355 C 25.9948 4.99242 0.553381 0
M  V30 356 C 27.9888 6.31375 -0.874339 0
M  V30 357 C 25.6758 6.10713 -0.217546 0
M  V30 358 C 26.6738 6.76637 -0.930123 0
M  V30 359 O 26.3618 7.85969 -1.68844 0
M  V30 360 H 26.0938 0.648275 0.191615 0
M  V30 361 H 28.6478 2.05284 -0.0690148 0
M  V30 362 H 26.8778 3.15535 2.2355 0
M  V30 363 H 28.5668 3.51764 2.02526 0
M  V30 364 H 29.3328 4.84948 -0.0708392 0
M  V30 365 H 25.2118 4.47744 1.09757 0
M  V30 366 H 28.7558 6.82764 -1.43106 0
M  V30 367 H 24.6528 6.44994 -0.255593 0
M  V30 368 H 25.4208 8.02571 -1.6069 0
M  V30 369 N 28.0839 -0.256276 1.55502 0
M  V30 370 C 29.3089 -1.00766 1.81276 0
M  V30 371 C 29.7339 -1.78524 0.59252 0
M  V30 372 O 29.0919 -1.75413 -0.45827 0
M  V30 373 C 29.1399 -1.92869 3.04687 0
M  V30 374 O 28.2439 -3.019 2.80945 0
M  V30 375 H 27.5849 -0.287224 0.598664 0
M  V30 376 H 30.1149 -0.280109 2.02674 0
M  V30 377 H 30.1249 -2.34511 3.33869 0
M  V30 378 H 28.7999 -1.35689 3.93143 0
M  V30 379 H 27.3769 -2.64454 2.62904 0
M  V30 380 N 29.562 -1.4872 -0.521534 0
M  V30 381 C 30.978 -1.35028 -0.850855 0
M  V30 382 C 31.178 -0.367712 -1.98116 0
M  V30 383 O 30.234 0.208037 -2.51642 0
M  V30 384 C 31.547 -2.75263 -1.21041 0
M  V30 385 C 33.095 -2.83813 -1.31981 0
M  V30 386 C 33.57 -4.24769 -1.71276 0
M  V30 387 N 35.061 -4.27482 -1.78363 0
M  V30 388 C 35.796 -5.33494 -2.1017 0
M  V30 389 N 35.292 -6.49775 -2.40343 0
M  V30 390 N 37.085 -5.20894 -2.11248 0
M  V30 391 H 29.236 -2.11214 0.22413 0
M  V30 392 H 31.499 -0.947252 0.0376439 0
M  V30 393 H 31.205 -3.48765 -0.453415 0
M  V30 394 H 31.079 -3.09327 -2.15863 0
M  V30 395 H 33.466 -2.10561 -2.06756 0
M  V30 396 H 33.547 -2.53358 -0.352596 0
M  V30 397 H 33.191 -4.9854 -0.970588 0
M  V30 398 H 33.121 -4.52673 -2.69062 0
M  V30 399 H 35.612 -3.43611 -1.57288 0
M  V30 400 H 35.925 -7.26402 -2.63743 0
M  V30 401 H 34.27 -6.53035 -2.37844 0
M  V30 402 H 37.461 -4.29065 -1.87139 0
M  V30 403 H 37.634 -6.03612 -2.35704 0
M  V30 404 N 31.0401 0.771051 -1.3745 0
M  V30 405 C 32.2871 1.52963 -1.32697 0
M  V30 406 C 32.6151 1.94299 0.0883274 0
M  V30 407 O 31.8701 1.64397 1.0617 0
M  V30 408 C 32.1691 2.80676 -2.2126 0
M  V30 409 C 31.8351 2.58389 -3.69521 0
M  V30 410 C 30.4971 2.52019 -4.09927 0
M  V30 411 C 32.8491 2.38469 -4.63446 0
M  V30 412 C 30.1771 2.23721 -5.42371 0
M  V30 413 C 32.5291 2.11694 -5.96128 0
M  V30 414 C 31.1931 2.03769 -6.35637 0
M  V30 415 H 30.4631 0.559732 -0.485573 0
M  V30 416 H 33.1101 0.888083 -1.69662 0
M  V30 417 H 31.4151 3.49392 -1.77291 0
M  V30 418 H 33.1121 3.38557 -2.14895 0
M  V30 419 H 29.7021 2.6421 -3.37478 0
M  V30 420 H 33.8861 2.4238 -4.33089 0
M  V30 421 H 29.1421 2.16081 -5.71943 0
M  V30 422 H 33.3161 1.9528 -6.6846 0
M  V30 423 H 30.9431 1.81606 -7.38189 0
M  V30 424 N 32.5182 1.22032 0.997298 0
M  V30 425 C 33.7432 1.06921 1.77715 0
M  V30 426 C 34.1682 -0.376226 1.84299 0
M  V30 427 O 33.5262 -1.27165 1.29223 0
M  V30 428 C 33.5742 1.67996 3.19076 0
M  V30 429 O 32.6782 0.930653 4.01762 0
M  V30 430 H 32.0192 0.375814 0.547412 0
M  V30 431 H 34.5492 1.61737 1.25309 0
M  V30 432 H 34.5592 1.72538 3.69723 0
M  V30 433 H 33.2342 2.73182 3.13599 0
M  V30 434 H 31.8112 0.960917 3.60307 0
M  V30 435 N 33.9963 -1.19345 1.0293 0
M  V30 436 C 35.4073 -1.70725 0.755633 0
M  V30 437 C 35.7583 -1.82326 -0.724676 0
M  V30 438 O 34.8833 -1.49471 -1.56484 0
M  V30 439 C 35.4783 -3.10084 1.36503 0
M  V30 440 C 34.0373 -3.58723 1.13994 0
M  V30 441 C 33.1843 -2.35577 1.46283 0
M  V30 442 H 36.1353 -1.0418 1.19718 0
M  V30 443 H 36.1563 -3.72787 0.762217 0
M  V30 444 H 35.6683 -3.01609 2.44241 0
M  V30 445 H 33.7693 -3.72512 0.0807901 0
M  V30 446 H 33.8823 -4.42816 1.82894 0
M  V30 447 H 32.2463 -2.38935 0.88217 0
M  V30 448 H 33.0293 -2.29731 2.55105 0
M  V30 449 N 35.4744 -0.807222 -1.35358 0
M  V30 450 C 36.6994 -0.399309 -2.0352 0
M  V30 451 C 37.1244 0.981986 -1.60433 0
M  V30 452 O 36.4824 1.63601 -0.781299 0
M  V30 453 C 36.5304 -0.491552 -3.57234 0
M  V30 454 O 35.6344 0.494754 -4.09421 0
M  V30 455 H 34.9754 -0.166682 -0.642739 0
M  V30 456 H 37.5054 -1.09328 -1.72941 0
M  V30 457 H 37.5154 -0.361588 -4.06395 0
M  V30 458 H 36.1904 -1.49907 -3.87944 0
M  V30 459 H 34.7674 0.324977 -3.71481 0
M  V30 460 N 36.9525 1.47285 -0.560781 0
M  V30 461 C 38.3635 1.86258 -0.128343 0
M  V30 462 C 38.7145 1.46699 1.30284 0
M  V30 463 O 37.8395 0.871698 1.98067 0
M  V30 464 C 38.4345 3.38044 -0.22614 0
M  V30 465 C 36.9935 3.76096 0.151283 0
M  V30 466 C 36.1405 2.71335 -0.572084 0
M  V30 467 H 39.0915 1.38752 -0.770297 0
M  V30 468 H 39.1125 3.76441 0.554322 0
M  V30 469 H 38.6245 3.66806 -1.26788 0
M  V30 470 H 36.7255 3.52951 1.19399 0
M  V30 471 H 36.8385 4.78641 -0.209765 0
M  V30 472 H 35.2025 2.54696 -0.0147653 0
M  V30 473 H 35.9855 3.02938 -1.61504 0
M  V30 474 N 38.4306 0.297415 1.54768 0
M  V30 475 C 39.3606 -0.573494 2.26348 0
M  V30 476 C 40.3416 -1.14085 1.26169 0
M  V30 477 O 41.5266 -1.17086 1.54934 0
M  V30 478 C 38.6566 -1.74716 3.00153 0
M  V30 479 C 37.6106 -1.31032 4.07449 0
M  V30 480 C 36.9366 -2.56887 4.68949 0
M  V30 481 C 38.2366 -0.444183 5.20408 0
M  V30 482 H 39.9306 0.0235131 2.99391 0
M  V30 483 H 37.4766 0.0127488 1.43994 0
M  V30 484 H 39.4296 -2.3625 3.48947 0
M  V30 485 H 38.1536 -2.37035 2.24682 0
M  V30 486 H 36.8126 -0.718066 3.59499 0
M  V30 487 H 36.4606 -3.17512 3.90122 0
M  V30 488 H 36.1606 -2.2836 5.41411 0
M  V30 489 H 37.6846 -3.19229 5.20505 0
M  V30 490 H 39.0986 -0.9651 5.65118 0
M  V30 491 H 37.4956 -0.252846 5.99567 0
M  V30 492 H 38.5656 0.531609 4.81977 0
M  V30 493 N 39.9087 -1.5758 0.0250728 0
M  V30 494 C 41.1337 -1.96337 -0.668317 0
M  V30 495 C 41.5587 -0.901314 -1.651 0
M  V30 496 O 40.9167 0.138187 -1.80773 0
M  V30 497 C 40.9647 -3.34191 -1.35457 0
M  V30 498 O 40.0687 -3.30269 -2.46974 0
M  V30 499 H 39.4097 -0.640281 -0.175887 0
M  V30 500 H 41.9397 -2.0442 0.0857224 0
M  V30 501 H 41.9497 -3.70331 -1.71228 0
M  V30 502 H 40.6247 -4.11036 -0.634218 0
M  V30 503 H 39.2017 -3.05841 -2.13344 0
M  V30 504 N 41.3868 0.248026 -1.55636 0
M  V30 505 C 42.6358 0.974134 -1.76617 0
M  V30 506 C 42.9488 1.86528 -0.588796 0
M  V30 507 O 44.1548 2.62805 -0.681594 0
M  V30 508 C 42.6108 1.78213 -3.12679 0
M  V30 509 C 42.2188 0.93843 -4.38061 0
M  V30 510 C 43.9628 2.50104 -3.42999 0
M  V30 511 C 41.8698 1.74225 -5.65155 0
M  V30 512 H 40.7998 0.36745 -0.658405 0
M  V30 513 H 43.4508 0.22884 -1.82067 0
M  V30 514 H 41.8328 2.56933 -3.01333 0
M  V30 515 H 43.0068 0.193635 -4.60393 0
M  V30 516 H 41.3218 0.332905 -4.15067 0
M  V30 517 H 43.9188 3.10694 -4.3517 0
M  V30 518 H 44.2618 3.21662 -2.64271 0
M  V30 519 H 44.7948 1.78395 -3.55556 0
M  V30 520 H 41.5338 1.07043 -6.46701 0
M  V30 521 H 41.0538 2.46235 -5.46926 0
M  V30 522 H 42.7328 2.30967 -6.0437 0
M  V30 523 N 42.8649 1.48995 0.513639 0
M  V30 524 C 43.8119 1.6473 1.61656 0
M  V30 525 C 44.7819 0.488984 1.58739 0
M  V30 526 O 45.9669 0.714478 1.76918 0
M  V30 527 C 43.1069 1.7082 2.99858 0
M  V30 528 C 42.2199 2.9787 3.12885 0
M  V30 529 C 41.3549 2.95017 4.41744 0
M  V30 530 C 40.3939 4.16702 4.48359 0
M  V30 531 N 39.5309 4.11832 5.68629 0
M  V30 532 H 44.3709 2.58909 1.47547 0
M  V30 533 H 41.9079 1.28382 0.71808 0
M  V30 534 H 43.8659 1.72331 3.79944 0
M  V30 535 H 42.4959 0.801181 3.12699 0
M  V30 536 H 41.5479 3.06029 2.25944 0
M  V30 537 H 42.8599 3.8786 3.13633 0
M  V30 538 H 42.0139 2.95021 5.30139 0
M  V30 539 H 40.7529 2.02784 4.43542 0
M  V30 540 H 39.7579 4.16955 3.58369 0
M  V30 541 H 40.9829 5.10113 4.48287 0
M  V30 542 H 38.9289 3.22428 5.71293 0
M  V30 543 H 38.8459 4.95543 5.7094 0
M  V30 544 H 40.1139 4.1592 6.59266 0
M  V30 545 N 44.343 -0.763751 1.37857 0
M  V30 546 C 45.275 -1.88664 1.30148 0
M  V30 547 C 46.288 -1.61365 0.215685 0
M  V30 548 O 47.477 -1.72134 0.472459 0
M  V30 549 C 44.577 -3.24075 0.991396 0
M  V30 550 C 43.75 -3.78958 2.18426 0
M  V30 551 C 42.809 -4.92862 1.8432 0
M  V30 552 O 41.835 -5.08027 2.56704 0
M  V30 553 N 43.037 -5.75071 0.792081 0
M  V30 554 H 45.802 -1.95791 2.26905 0
M  V30 555 H 43.363 -0.943226 1.31586 0
M  V30 556 H 45.355 -3.97804 0.743935 0
M  V30 557 H 43.925 -3.12399 0.112122 0
M  V30 558 H 43.145 -2.96913 2.59299 0
M  V30 559 H 44.433 -4.12357 2.98058 0
M  V30 560 H 43.831 -5.65375 0.191595 0
M  V30 561 H 42.388 -6.48991 0.60449 0
M  V30 562 N 45.8211 -1.22559 -0.990812 0
M  V30 563 C 47.0681 -1.05141 -1.73065 0
M  V30 564 C 47.3961 0.413191 -1.9006 0
M  V30 565 O 46.6511 1.32257 -1.44245 0
M  V30 566 C 46.9501 -1.71011 -3.13831 0
M  V30 567 C 46.6161 -3.20911 -3.16745 0
M  V30 568 C 45.2781 -3.61812 -3.17247 0
M  V30 569 C 47.6301 -4.16846 -3.12872 0
M  V30 570 C 44.9581 -4.97127 -3.1158 0
M  V30 571 C 47.3101 -5.5214 -3.08746 0
M  V30 572 C 45.9741 -5.92419 -3.07565 0
M  V30 573 H 45.2441 -0.384738 -0.633291 0
M  V30 574 H 47.8911 -1.5235 -1.16025 0
M  V30 575 H 46.1961 -1.16133 -3.74193 0
M  V30 576 H 47.8931 -1.55023 -3.69823 0
M  V30 577 H 44.4831 -2.88344 -3.17105 0
M  V30 578 H 48.6671 -3.86263 -3.11632 0
M  V30 579 H 43.9231 -5.27562 -3.09012 0
M  V30 580 H 48.0971 -6.26201 -3.04705 0
M  V30 581 H 45.7241 -6.97236 -3.02929 0
M  V30 582 N 47.2992 1.18797 -1.03562 0
M  V30 583 C 48.2292 2.24472 -0.643019 0
M  V30 584 C 49.2102 1.66433 0.351283 0
M  V30 585 O 50.3952 1.92803 0.232505 0
M  V30 586 C 47.5252 3.473 4.24935e-05 0
M  V30 587 C 46.4792 4.18055 -0.917257 0
M  V30 588 C 45.8052 5.34519 -0.138941 0
M  V30 589 C 47.1052 4.72109 -2.23407 0
M  V30 590 H 48.7992 2.57566 -1.52643 0
M  V30 591 H 46.3452 1.23806 -0.735394 0
M  V30 592 H 48.2982 4.20426 0.286383 0
M  V30 593 H 47.0222 3.13424 0.918299 0
M  V30 594 H 45.6812 3.46821 -1.1879 0
M  V30 595 H 45.3292 4.96891 0.781562 0
M  V30 596 H 45.0292 5.82794 -0.750005 0
M  V30 597 H 46.5532 6.10438 0.1405 0
M  V30 598 H 47.9672 5.36955 -2.00879 0
M  V30 599 H 46.3642 5.30897 -2.79765 0
M  V30 600 H 47.4342 3.89807 -2.88407 0
M  V30 601 N 48.7773 0.814389 1.34928 0
M  V30 602 C 50.0543 0.321363 1.92942 0
M  V30 603 C 50.4343 -1.19014 1.74353 0
M  V30 604 O 49.7823 -1.99328 1.11716 0
M  V30 605 C 49.9923 0.741323 3.41036 0
M  V30 606 C 51.3403 0.735266 4.18185 0
M  V30 607 O 52.3643 0.68336 3.49584 0
M  V30 608 O 51.2233 0.800703 5.40602 0
M  V30 609 H 48.3173 0.0858893 0.822528 0
M  V30 610 H 50.8633 0.898609 1.43955 0
M  V30 611 H 49.6353 1.78276 3.4833 0
M  V30 612 H 49.2583 0.139307 3.97356 0
M  V30 613 N 50.2554 -1.46986 0.568584 0
M  V30 614 C 51.5024 -2.02441 0.0487986 0
M  V30 615 C 51.8304 -1.44169 -1.30559 0
M  V30 616 O 51.0854 -0.591213 -1.86556 0
M  V30 617 C 51.3844 -3.57306 -0.081836 0
M  V30 618 C 51.0504 -4.34552 1.20313 0
M  V30 619 C 49.7124 -4.55376 1.5552 0
M  V30 620 C 52.0644 -4.79016 2.05411 0
M  V30 621 C 49.3924 -5.17913 2.7565 0
M  V30 622 C 51.7444 -5.42879 3.24754 0
M  V30 623 C 50.4084 -5.61933 3.60261 0
M  V30 624 H 49.6784 -0.740785 0.0178567 0
M  V30 625 H 52.3254 -1.76525 0.742384 0
M  V30 626 H 50.6304 -3.8228 -0.858463 0
M  V30 627 H 52.3274 -3.97876 -0.499546 0
M  V30 628 H 48.9174 -4.18631 0.919014 0
M  V30 629 H 53.1014 -4.62696 1.79516 0
M  V30 630 H 48.3574 -5.30858 3.03315 0
M  V30 631 H 52.5314 -5.76293 3.90973 0
M  V30 632 H 50.1584 -6.10161 4.53439 0
M  V30 633 N 51.7335 -0.305618 -1.54608 0
M  V30 634 C 52.9815 0.301701 -1.99835 0
M  V30 635 C 53.3025 1.54054 -1.19551 0
M  V30 636 O 52.5725 1.93702 -0.292658 0
M  V30 637 H 51.1525 0.114468 -0.738178 0
M  V30 638 H 53.8145 -0.418016 -1.90364 0
M  V30 639 H 52.9105 0.570548 -3.06841 0
M  V30 640 N 53.2116 1.57565 -0.0334293 0
M  V30 641 C 54.6276 1.56297 0.322997 0
M  V30 642 C 54.8276 1.03945 1.7262 0
M  V30 643 O 53.8836 0.688109 2.42943 0
M  V30 644 C 55.1966 3.00232 0.167664 0
M  V30 645 C 56.7446 3.12078 0.240107 0
M  V30 646 C 57.2196 4.57859 0.113513 0
M  V30 647 N 58.7106 4.62887 0.170359 0
M  V30 648 C 59.4456 5.73319 0.0962517 0
M  V30 649 N 58.9416 6.92794 -0.0291881 0
M  V30 650 N 60.7346 5.61898 0.150551 0
M  V30 651 H 52.8856 1.89923 -0.950956 0
M  V30 652 H 55.1486 0.873824 -0.367608 0
M  V30 653 H 54.8546 3.42501 -0.799102 0
M  V30 654 H 54.7286 3.654 0.936083 0
M  V30 655 H 57.1156 2.69718 1.19733 0
M  V30 656 H 57.1966 2.49623 -0.558763 0
M  V30 657 H 56.8406 5.009 -0.840314 0
M  V30 658 H 56.7706 5.18299 0.931302 0
M  V30 659 H 59.2616 3.76954 0.26728 0
M  V30 660 H 59.5746 7.7276 -0.0789252 0
M  V30 661 H 57.9196 6.94971 -0.0640299 0
M  V30 662 H 61.1106 4.67448 0.246981 0
M  V30 663 H 61.2836 6.47938 0.0893365 0
M  V30 664 N 54.6897 -0.239769 1.55765 0
M  V30 665 C 55.9667 -0.990056 1.68693 0
M  V30 666 C 56.3467 -2.03107 0.5754 0
M  V30 667 O 55.6947 -2.24604 -0.42017 0
M  V30 668 C 55.9047 -1.61696 3.09282 0
M  V30 669 C 57.2527 -2.11613 3.6811 0
M  V30 670 O 58.2767 -1.71624 3.12127 0
M  V30 671 O 57.1357 -2.85057 4.66267 0
M  V30 672 H 54.2297 -0.461299 0.686391 0
M  V30 673 H 56.7757 -0.232991 1.68093 0
M  V30 674 H 55.5477 -0.864357 3.81634 0
M  V30 675 H 55.1707 -2.44005 3.13923 0
M  V30 676 N 56.1678 -1.49265 -0.50573 0
M  V30 677 C 57.1158 -1.66065 -1.62866 0
M  V30 678 C 58.1098 -0.526636 -1.61006 0
M  V30 679 O 59.3158 -0.706126 -1.65571 0
M  V30 680 H 55.6908 -0.52356 -0.539805 0
M  V30 681 H 57.6618 -2.60329 -1.45848 0
M  V30 682 C 56.4108 -1.74008 -3.01026 0
M  V30 683 H 55.7338 -2.6064 -3.03161 0
M  V30 684 H 57.1738 -1.89798 -3.79147 0
M  V30 685 C 55.6328 -0.483868 -3.33407 0
M  V30 686 O 56.1628 0.392548 -3.99777 0
M  V30 687 N 54.3688 -0.348236 -2.88506 0
M  V30 688 H 53.9158 -1.06242 -2.34671 0
M  V30 689 H 53.8738 0.491204 -3.10539 0
M  V30 690 N 57.6459 0.756429 -1.3826 0
M  V30 691 C 58.6089 1.85176 -1.35065 0
M  V30 692 C 59.6089 1.58818 -0.251703 0
M  V30 693 O 60.7989 1.66615 -0.508433 0
M  V30 694 C 57.9309 3.22596 -1.10201 0
M  V30 695 H 59.1239 1.89417 -2.3251 0
M  V30 696 H 56.6769 0.95783 -1.23512 0
M  V30 697 H 57.4119 3.24025 -0.133504 0
M  V30 698 H 57.1969 3.43122 -1.89762 0
M  V30 699 H 58.6869 4.02673 -1.10654 0
M  V30 700 N 59.124 1.23083 0.984299 0
M  V30 701 C 60.364 1.07226 1.74017 0
M  V30 702 C 60.728 -0.384766 1.88105 0
M  V30 703 O 61.929 -0.664411 2.60459 0
M  V30 704 C 60.2 1.77348 3.10294 0
M  V30 705 S 61.759 1.77014 4.01512 0
M  V30 706 H 58.577 0.383819 0.598502 0
M  V30 707 H 61.179 1.56158 1.17622 0
M  V30 708 H 59.883 2.82506 2.97689 0
M  V30 709 H 59.414 1.28682 3.71759 0
M  V30 710 H 61.429 0.825956 4.89277 0
M  V30 711 N 60.6021 -1.18246 1.0419 0
M  V30 712 C 61.5121 -2.25574 0.644476 0
M  V30 713 C 62.5281 -1.70845 -0.329826 0
M  V30 714 O 63.7041 -2.00554 -0.184443 0
M  V30 715 C 60.7691 -3.46697 0.014877 0
M  V30 716 C 59.8301 -4.16554 1.03834 0
M  V30 717 C 59.0631 -5.31894 0.438692 0
M  V30 718 O 59.2861 -5.65385 -0.754752 0
M  V30 719 O 58.2201 -5.90459 1.168 0
M  V30 720 H 62.0461 -2.61836 1.53869 0
M  V30 721 H 59.6311 -1.25352 0.812854 0
M  V30 722 H 61.5131 -4.20062 -0.335538 0
M  V30 723 H 60.1881 -3.12255 -0.853138 0
M  V30 724 H 59.0951 -3.45251 1.44057 0
M  V30 725 H 60.4281 -4.54998 1.87716 0
M  V30 726 N 62.0802 -0.821533 -1.34494 0
M  V30 727 C 63.0272 -0.240397 -2.29545 0
M  V30 728 C 63.9972 0.634031 -1.53523 0
M  V30 729 O 65.1822 0.575966 -1.81899 0
M  V30 730 C 62.3222 0.592869 -3.39969 0
M  V30 731 C 61.4352 -0.30365 -4.30932 0
M  V30 732 C 60.5702 0.539049 -5.28458 0
M  V30 733 C 59.6092 -0.356942 -6.11058 0
M  V30 734 N 58.7462 0.446603 -7.00678 0
M  V30 735 H 63.5862 -1.05632 -2.7865 0
M  V30 736 H 61.1232 -0.532413 -1.37127 0
M  V30 737 H 63.0812 1.09129 -4.02675 0
M  V30 738 H 61.7112 1.37392 -2.92102 0
M  V30 739 H 60.7632 -0.920276 -3.691 0
M  V30 740 H 62.0752 -0.992661 -4.88823 0
M  V30 741 H 61.2292 1.102 -5.96608 0
M  V30 742 H 59.9682 1.26157 -4.71101 0
M  V30 743 H 58.9732 -0.932047 -5.41842 0
M  V30 744 H 60.1982 -1.07755 -6.70497 0
M  V30 745 H 58.1442 1.15282 -6.45791 0
M  V30 746 H 58.0612 -0.184048 -7.55776 0
M  V30 747 H 59.3292 0.992352 -7.73158 0
M  V30 748 N 63.5583 1.46682 -0.576371 0
M  V30 749 C 64.7863 2.06798 -0.0649635 0
M  V30 750 C 65.2013 1.42612 1.23723 0
M  V30 751 O 64.5583 0.529203 1.74659 0
M  V30 752 C 64.6093 3.6132 0.114202 0
M  V30 753 O 64.3303 4.23104 -1.13644 0
M  V30 754 C 65.8313 4.38349 0.66069 0
M  V30 755 H 63.0513 0.668778 -0.0545616 0
M  V30 756 H 65.5953 1.88404 -0.795237 0
M  V30 757 H 63.7503 3.79162 0.794673 0
M  V30 758 H 64.1643 5.15894 -0.946253 0
M  V30 759 H 65.6383 5.47081 0.73526 0
M  V30 760 H 66.1153 4.05953 1.67627 0
M  V30 761 H 66.7213 4.25297 0.0152951 0
M  V30 762 N 65.0364 0.313813 1.54444 0
M  V30 763 C 66.2614 -0.296681 2.05267 0
M  V30 764 C 66.6864 -1.45757 1.18897 0
M  V30 765 O 66.0444 -1.80239 0.195886 0
M  V30 766 C 66.0924 -0.71831 3.53373 0
M  V30 767 O 65.1964 -1.82175 3.69981 0
M  V30 768 H 64.5374 -0.0554061 0.661684 0
M  V30 769 H 67.0674 0.459387 1.99376 0
M  V30 770 H 67.0774 -1.00364 3.95463 0
M  V30 771 H 65.7524 0.130821 4.15694 0
M  V30 772 H 64.3294 -1.53598 3.39797 0
M  V30 773 N 66.5145 -1.57545 0.0417849 0
M  V30 774 C 67.7445 -1.96339 -0.642995 0
M  V30 775 C 68.1525 -0.917536 -1.65463 0
M  V30 776 O 67.4955 0.107747 -1.83384 0
M  V30 777 C 67.5575 -3.31333 -1.39494 0
M  V30 778 C 67.2215 -4.53796 -0.540204 0
M  V30 779 C 68.2185 -5.19553 0.189806 0
M  V30 780 C 65.9035 -5.0006 -0.473886 0
M  V30 781 C 67.8975 -6.29904 0.974674 0
M  V30 782 C 65.5845 -6.10289 0.314677 0
M  V30 783 C 66.5825 -6.75072 1.03765 0
M  V30 784 O 66.2705 -7.83183 1.81327 0
M  V30 785 H 66.0025 -0.651241 -0.181277 0
M  V30 786 H 68.5565 -2.05148 0.101665 0
M  V30 787 H 66.7865 -3.19052 -2.18502 0
M  V30 788 H 68.4755 -3.54942 -1.96904 0
M  V30 789 H 69.2415 -4.84774 0.147981 0
M  V30 790 H 65.1205 -4.49433 -1.0262 0
M  V30 791 H 68.6645 -6.80401 1.5395 0
M  V30 792 H 64.5615 -6.44506 0.358174 0
M  V30 793 H 65.3295 -7.99913 1.73438 0
M  V30 794 N 67.9926 0.231505 -1.5589 0
M  V30 795 C 68.9256 1.31369 -1.86595 0
M  V30 796 C 69.9036 1.45671 -0.722397 0
M  V30 797 O 71.0876 1.61642 -0.969743 0
M  V30 798 C 68.2146 2.68529 -2.06421 0
M  V30 799 C 67.2606 2.71295 -3.29092 0
M  V30 800 S 68.0936 2.26358 -4.85306 0
M  V30 801 C 69.2496 3.65414 -5.08157 0
M  V30 802 H 69.4826 1.05128 -2.78092 0
M  V30 803 H 67.0156 0.433259 -1.48197 0
M  V30 804 H 68.9736 3.47499 -2.18528 0
M  V30 805 H 67.6346 2.91999 -1.15738 0
M  V30 806 H 66.8276 3.72063 -3.39978 0
M  V30 807 H 66.4296 2.0038 -3.15791 0
M  V30 808 H 68.7216 4.6103 -4.96445 0
M  V30 809 H 69.6646 3.5945 -6.10083 0
M  V30 810 H 70.0726 3.5864 -4.35933 0
M  V30 811 N 69.4707 1.49531 0.497807 0
M  V30 812 C 70.7177 1.59179 1.25173 0
M  V30 813 C 71.0457 0.279932 1.92475 0
M  V30 814 O 70.3007 -0.732383 1.81479 0
M  V30 815 C 70.5997 2.70252 2.33878 0
M  V30 816 C 70.2657 4.11644 1.84012 0
M  V30 817 C 68.9277 4.50121 1.70132 0
M  V30 818 C 71.2797 5.00121 1.46725 0
M  V30 819 C 68.6077 5.74845 1.17348 0
M  V30 820 C 70.9597 6.25366 0.95392 0
M  V30 821 C 69.6237 6.6267 0.801538 0
M  V30 822 H 68.8937 0.582478 0.45804 0
M  V30 823 H 71.5407 1.83373 0.551948 0
M  V30 824 H 69.8457 2.40041 3.09657 0
M  V30 825 H 71.5427 2.74925 2.9192 0
M  V30 826 H 68.1327 3.81274 1.95775 0
M  V30 827 H 72.3167 4.71048 1.56294 0
M  V30 828 H 67.5727 6.02444 1.04264 0
M  V30 829 H 71.7467 6.93301 0.656225 0
M  V30 830 H 69.3737 7.59197 0.390351 0
M  V30 831 N 70.9488 -0.749086 1.3866 0
M  V30 832 C 71.8788 -1.8764 1.38973 0
M  V30 833 C 72.8598 -1.68178 0.255004 0
M  V30 834 O 74.0448 -1.88704 0.458754 0
M  V30 835 C 71.1748 -3.25222 1.21851 0
M  V30 836 C 70.1288 -3.59295 2.32575 0
M  V30 837 C 69.4548 -4.95663 2.00555 0
M  V30 838 C 70.7548 -3.63709 3.7485 0
M  V30 839 H 72.4488 -1.87635 2.3331 0
M  V30 840 H 69.9948 -0.901329 1.12303 0
M  V30 841 H 71.9478 -4.03746 1.20695 0
M  V30 842 H 70.6718 -3.25719 0.239775 0
M  V30 843 H 69.3308 -2.83093 2.32925 0
M  V30 844 H 68.9788 -4.92724 1.01154 0
M  V30 845 H 68.6788 -5.19429 2.74714 0
M  V30 846 H 70.2028 -5.7656 2.01024 0
M  V30 847 H 71.6168 -4.32338 3.76506 0
M  V30 848 H 70.0138 -3.98986 4.48252 0
M  V30 849 H 71.0838 -2.63834 4.06841 0
M  V30 850 N 72.4269 -1.23603 -0.977757 0
M  V30 851 C 73.8429 -0.999251 -1.24447 0
M  V30 852 C 74.0429 0.298053 -1.99283 0
M  V30 853 O 73.0989 1.01681 -2.31122 0
M  V30 854 C 74.4119 -2.20784 -2.04144 0
M  V30 855 C 75.9599 -2.25303 -2.17273 0
M  V30 856 C 76.4349 -3.45755 -3.00362 0
M  V30 857 N 77.9259 -3.4601 -3.07947 0
M  V30 858 C 78.6609 -4.35868 -3.72568 0
M  V30 859 N 78.1569 -5.35966 -4.38991 0
M  V30 860 N 79.9499 -4.23605 -3.6948 0
M  V30 861 H 72.1009 -2.06986 -0.476483 0
M  V30 862 H 74.3639 -0.907801 -0.273134 0
M  V30 863 H 74.0699 -3.14945 -1.56533 0
M  V30 864 H 73.9439 -2.22085 -3.04891 0
M  V30 865 H 76.3309 -1.3168 -2.64092 0
M  V30 866 H 76.4119 -2.28033 -1.15907 0
M  V30 867 H 76.0559 -4.39687 -2.5424 0
M  V30 868 H 75.9859 -3.40266 -4.01904 0
M  V30 869 H 78.4769 -2.73588 -2.60688 0
M  V30 870 H 78.7899 -6.00783 -4.86086 0
M  V30 871 H 77.1349 -5.39863 -4.37691 0
M  V30 872 H 80.3259 -3.44647 -3.16759 0
M  V30 873 H 80.4989 -4.93836 -4.1956 0
M  V30 874 N 73.905 1.17692 -1.04816 0
M  V30 875 C 74.852 2.21581 -0.645797 0
M  V30 876 C 75.822 1.62367 0.350159 0
M  V30 877 O 77.007 1.89254 0.242433 0
M  V30 878 C 74.147 3.45092 -0.0227568 0
M  V30 879 C 73.26 4.18613 -1.06709 0
M  V30 880 C 72.395 5.29602 -0.411767 0
M  V30 881 C 71.434 5.94904 -1.44067 0
M  V30 882 N 70.571 6.97414 -0.809781 0
M  V30 883 H 75.411 2.55353 -1.5362 0
M  V30 884 H 72.948 1.25438 -0.768364 0
M  V30 885 H 74.906 4.15679 0.35588 0
M  V30 886 H 73.536 3.11917 0.831122 0
M  V30 887 H 72.588 3.46779 -1.5636 0
M  V30 888 H 73.9 4.63293 -1.84827 0
M  V30 889 H 73.054 6.06696 0.0206623 0
M  V30 890 H 71.793 4.86045 0.401438 0
M  V30 891 H 70.798 5.16544 -1.88316 0
M  V30 892 H 72.023 6.40542 -2.25571 0
M  V30 893 H 69.969 6.55998 -0.0170186 0
M  V30 894 H 69.886 7.40386 -1.52856 0
M  V30 895 H 71.154 7.78463 -0.401999 0
M  V30 896 N 75.3831 0.828654 1.34056 0
M  V30 897 C 76.2931 0.256725 2.33191 0
M  V30 898 C 77.3091 -0.611898 1.62886 0
M  V30 899 O 78.4851 -0.51844 1.94613 0
M  V30 900 C 75.5501 -0.567238 3.42028 0
M  V30 901 C 74.6111 0.324458 4.28072 0
M  V30 902 C 73.8441 -0.460274 5.31712 0
M  V30 903 O 74.0671 -1.693 5.44696 0
M  V30 904 O 73.0011 0.160391 6.01686 0
M  V30 905 H 76.8271 1.07739 2.83947 0
M  V30 906 H 74.4121 0.59093 1.37217 0
M  V30 907 H 76.2941 -1.03582 4.08471 0
M  V30 908 H 74.9691 -1.36513 2.93506 0
M  V30 909 H 73.8761 0.840659 3.64532 0
M  V30 910 H 75.2091 1.08685 4.8005 0
M  V30 911 N 76.8612 -1.46375 0.584142 0
M  V30 912 C 77.7912 -2.33103 -0.136037 0
M  V30 913 C 78.7722 -1.45431 -0.882255 0
M  V30 914 O 79.9572 -1.74246 -0.857434 0
M  V30 915 C 77.0872 -3.27731 -1.14933 0
M  V30 916 C 76.0412 -4.24855 -0.517862 0
M  V30 917 C 75.3672 -5.09001 -1.63773 0
M  V30 918 C 76.6672 -5.19439 0.545886 0
M  V30 919 H 78.3612 -2.93568 0.588086 0
M  V30 920 H 75.9072 -1.41166 0.284259 0
M  V30 921 H 77.8602 -3.87261 -1.66153 0
M  V30 922 H 76.5842 -2.65377 -1.90375 0
M  V30 923 H 75.2432 -3.6659 -0.0267361 0
M  V30 924 H 74.8912 -4.43031 -2.38185 0
M  V30 925 H 74.5912 -5.74777 -1.22085 0
M  V30 926 H 76.1152 -5.71396 -2.15266 0
M  V30 927 H 77.5292 -5.73177 0.118704 0
M  V30 928 H 75.9262 -5.93566 0.88317 0
M  V30 929 H 76.9962 -4.63285 1.43162 0
M  V30 930 N 78.3393 -0.321999 -1.54275 0
M  V30 931 C 79.7503 0.166384 -1.85957 0
M  V30 932 C 80.1013 1.51747 -1.24367 0
M  V30 933 O 79.2263 2.09317 -0.549124 0
M  V30 934 C 79.8213 0.308681 -3.37391 0
M  V30 935 C 78.3803 0.741286 -3.69028 0
M  V30 936 C 77.5273 -0.137937 -2.76957 0
M  V30 937 H 80.4783 -0.542335 -1.49146 0
M  V30 938 H 80.4993 1.13984 -3.63026 0
M  V30 939 H 80.0113 -0.674809 -3.82188 0
M  V30 940 H 78.1123 1.73458 -3.29762 0
M  V30 941 H 78.2253 0.546118 -4.75977 0
M  V30 942 H 76.5893 0.386251 -2.51754 0
M  V30 943 H 77.3723 -1.11816 -3.2458 0
M  V30 944 N 79.8174 1.5752 -0.0501392 0
M  V30 945 C 81.0634 1.92936 0.624798 0
M  V30 946 C 81.3964 0.928685 1.70555 0
M  V30 947 O 80.6714 -0.0454779 1.94447 0
M  V30 948 C 80.9544 3.38737 1.22185 0
M  V30 949 C 80.8074 4.49552 0.149218 0
M  V30 950 C 82.1264 3.84913 2.13378 0
M  V30 951 H 79.2454 0.701604 0.225657 0
M  V30 952 H 81.8874 1.89671 -0.111693 0
M  V30 953 H 80.0374 3.4165 1.84953 0
M  V30 954 H 81.7094 4.58768 -0.482648 0
M  V30 955 H 79.9524 4.30638 -0.522841 0
M  V30 956 H 80.6234 5.48653 0.606966 0
M  V30 957 H 83.0994 3.8387 1.60572 0
M  V30 958 H 81.9754 4.87584 2.52097 0
M  V30 959 H 82.2364 3.21611 3.03346 0
M  V30 960 N 81.2955 -0.223234 1.56011 0
M  V30 961 C 82.7115 -0.572856 1.48965 0
M  V30 962 C 82.9115 -1.87225 0.74492 0
M  V30 963 O 81.9675 -2.50899 0.283896 0
M  V30 964 C 83.2805 -0.653646 2.9351 0
M  V30 965 C 84.8285 -0.744386 3.0402 0
M  V30 966 C 85.3035 -0.856535 4.49919 0
M  V30 967 N 86.7945 -0.9208 4.53955 0
M  V30 968 C 87.5295 -1.02726 5.64123 0
M  V30 969 N 87.0255 -1.09777 6.84047 0
M  V30 970 N 88.8185 -1.06226 5.51971 0
M  V30 971 H 80.9695 0.629462 2.02858 0
M  V30 972 H 83.2325 0.220621 0.921971 0
M  V30 973 H 82.9385 0.231518 3.50937 0
M  V30 974 H 82.8125 -1.51781 3.45315 0
M  V30 975 H 85.1995 -1.61999 2.46658 0
M  V30 976 H 85.2805 0.14541 2.55386 0
M  V30 977 H 84.9245 0.0146069 5.07898 0
M  V30 978 H 84.8545 -1.76172 4.96257 0
M  V30 979 H 87.3455 -0.876694 3.6759 0
M  V30 980 H 87.6585 -1.17872 7.63758 0
M  V30 981 H 86.0035 -1.06693 6.86762 0
M  V30 982 H 89.1945 -1.00382 4.5721 0
M  V30 983 H 89.3675 -1.14177 6.37862 0
M  V30 984 N 82.7736 -1.49793 -0.48987 0
M  V30 985 C 83.7036 -1.70201 -1.59856 0
M  V30 986 C 84.6846 -0.55076 -1.60937 0
M  V30 987 O 85.8696 -0.787841 -1.77501 0
M  V30 988 C 82.9996 -1.77882 -2.98287 0
M  V30 989 C 81.9536 -2.92907 -3.12073 0
M  V30 990 C 81.2796 -2.85712 -4.51965 0
M  V30 991 C 82.5796 -4.3369 -2.91051 0
M  V30 992 H 84.2736 -2.63025 -1.43032 0
M  V30 993 H 81.8196 -1.26574 -0.686664 0
M  V30 994 H 83.7726 -1.90744 -3.75759 0
M  V30 995 H 82.4966 -0.816653 -3.16225 0
M  V30 996 H 81.1556 -2.79665 -2.37029 0
M  V30 997 H 80.8036 -1.8738 -4.66795 0
M  V30 998 H 80.5036 -3.62921 -4.62128 0
M  V30 999 H 82.0276 -3.00598 -5.31482 0
M  V30 1000 H 83.4416 -4.47555 -3.58284 0
M  V30 1001 H 81.8386 -5.12205 -3.12675 0
M  V30 1002 H 82.9086 -4.47362 -1.87071 0
M  V30 1003 N 84.2517 0.741722 -1.39055 0
M  V30 1004 C 85.2147 1.83733 -1.37021 0
M  V30 1005 C 86.2147 1.58542 -0.268534 0
M  V30 1006 O 87.4047 1.66067 -0.526076 0
M  V30 1007 C 84.5367 3.2141 -1.13617 0
M  V30 1008 H 85.7297 1.86941 -2.34506 0
M  V30 1009 H 83.2827 0.944676 -1.24521 0
M  V30 1010 H 84.0177 3.23865 -0.167863 0
M  V30 1011 H 83.8027 3.4109 -1.93391 0
M  V30 1012 H 85.2927 4.01477 -1.14918 0
M  V30 1013 N 85.7298 1.2412 0.971189 0
M  V30 1014 C 86.6778 1.02812 2.08644 0
M  V30 1015 C 87.6718 -0.0358403 1.69362 0
M  V30 1016 O 88.8778 0.118429 1.7961 0
M  V30 1017 H 85.2528 0.315428 0.682649 0
M  V30 1018 H 87.2238 1.97397 2.23779 0
M  V30 1019 C 85.9728 0.645874 3.41649 0
M  V30 1020 H 85.2958 1.45632 3.72332 0
M  V30 1021 H 86.7358 0.536366 4.20594 0
M  V30 1022 C 85.1948 -0.646713 3.30635 0
M  V30 1023 O 85.7248 -1.69338 3.64263 0
M  V30 1024 N 83.9308 -0.626115 2.83775 0
M  V30 1025 H 83.4778 0.225988 2.56607 0
M  V30 1026 H 83.4358 -1.49117 2.76788 0
M  V30 1027 N 87.2079 -1.17134 1.05439 0
M  V30 1028 C 88.4359 -1.91372 0.786414 0
M  V30 1029 C 88.8509 -1.76955 -0.658202 0
M  V30 1030 O 88.2079 -1.10838 -1.44987 0
M  V30 1031 C 88.2589 -3.42356 1.1608 0
M  V30 1032 O 87.9799 -3.56332 2.54871 0
M  V30 1033 C 89.4809 -4.33663 0.919322 0
M  V30 1034 H 86.7009 -0.607118 0.285743 0
M  V30 1035 H 89.2449 -1.48525 1.40572 0
M  V30 1036 H 87.3999 -3.82939 0.586191 0
M  V30 1037 H 87.8139 -4.49896 2.69618 0
M  V30 1038 H 89.2879 -5.38099 1.231 0
M  V30 1039 H 89.7649 -4.38959 -0.145359 0
M  V30 1040 H 90.3709 -3.98796 1.47789 0
M  V30 1041 N 88.686 -0.835752 -1.33615 0
M  V30 1042 C 89.619 -0.211815 -2.27215 0
M  V30 1043 C 90.597 0.639249 -1.49507 0
M  V30 1044 O 91.781 0.600193 -1.78689 0
M  V30 1045 C 88.908 0.702893 -3.31326 0
M  V30 1046 C 87.954 -0.0723049 -4.26439 0
M  V30 1047 S 88.787 -1.42811 -5.16106 0
M  V30 1048 C 89.943 -0.518613 -6.23748 0
M  V30 1049 H 90.176 -1.00533 -2.79786 0
M  V30 1050 H 87.709 -0.632336 -1.40858 0
M  V30 1051 H 89.667 1.22505 -3.91794 0
M  V30 1052 H 88.328 1.47004 -2.77576 0
M  V30 1053 H 87.521 0.62359 -5.00127 0
M  V30 1054 H 87.123 -0.525424 -3.70291 0
M  V30 1055 H 89.415 0.284778 -6.76901 0
M  V30 1056 H 90.358 -1.22556 -6.97413 0
M  V30 1057 H 90.766 -0.101344 -5.64409 0
M  V30 1058 N 90.1641 1.46063 -0.591896 0
M  V30 1059 C 91.5801 1.57561 -0.254288 0
M  V30 1060 C 91.7801 1.58565 1.24336 0
M  V30 1061 O 90.8361 1.50753 2.02558 0
M  V30 1062 C 92.1491 2.86549 -0.911611 0
M  V30 1063 C 93.6971 3.00197 -0.886059 0
M  V30 1064 C 94.1721 4.31933 -1.5231 0
M  V30 1065 N 95.6631 4.38654 -1.48786 0
M  V30 1066 C 96.3981 5.39222 -1.95006 0
M  V30 1067 N 95.8941 6.46414 -2.49241 0
M  V30 1068 N 97.6871 5.3048 -1.85868 0
M  V30 1069 H 89.8381 1.43655 -1.56451 0
M  V30 1070 H 92.1011 0.68583 -0.654478 0
M  V30 1071 H 91.8071 2.91651 -1.96551 0
M  V30 1072 H 91.6811 3.74794 -0.425368 0
M  V30 1073 H 94.0681 2.9467 0.159246 0
M  V30 1074 H 94.1491 2.13403 -1.41041 0
M  V30 1075 H 93.7931 4.38217 -2.56765 0
M  V30 1076 H 93.7231 5.17516 -0.973891 0
M  V30 1077 H 96.2141 3.61793 -1.09151 0
M  V30 1078 H 96.5271 7.19376 -2.82344 0
M  V30 1079 H 94.8721 6.47208 -2.53272 0
M  V30 1080 H 98.0631 4.45643 -1.43248 0
M  V30 1081 H 98.2361 6.08711 -2.22204 0
M  V30 1082 N 91.6422 0.330177 1.54103 0
M  V30 1083 C 92.5522 -0.541534 2.28264 0
M  V30 1084 C 93.5682 -1.12351 1.32866 0
M  V30 1085 O 94.7442 -1.14206 1.65888 0
M  V30 1086 C 91.8092 -1.68322 3.03098 0
M  V30 1087 C 90.8702 -1.13238 4.14096 0
M  V30 1088 C 90.1032 -2.21966 4.85352 0
M  V30 1089 O 90.3262 -3.42437 4.56172 0
M  V30 1090 O 89.2602 -1.87013 5.7211 0
M  V30 1091 H 93.0862 0.060938 3.03639 0
M  V30 1092 H 90.6712 0.09565 1.49093 0
M  V30 1093 H 92.5532 -2.34777 3.49939 0
M  V30 1094 H 91.2282 -2.27176 2.30593 0
M  V30 1095 H 90.1352 -0.432736 3.71589 0
M  V30 1096 H 91.4682 -0.588898 4.88664 0
M  V30 1097 N 93.1203 -1.57491 0.0584922 0
M  V30 1098 C 94.3663 -1.93264 -0.614558 0
M  V30 1099 C 94.6993 -0.937717 -1.7006 0
M  V30 1100 O 93.9743 0.0351652 -1.94468 0
M  V30 1101 C 94.2573 -3.3938 -1.20386 0
M  V30 1102 C 94.1103 -4.49625 -0.125375 0
M  V30 1103 C 95.4293 -3.86039 -2.11334 0
M  V30 1104 H 92.5483 -0.702791 -0.221933 0
M  V30 1105 H 95.1903 -1.8961 0.12175 0
M  V30 1106 H 93.3403 -3.42626 -1.83139 0
M  V30 1107 H 95.0123 -4.58506 0.506971 0
M  V30 1108 H 93.2553 -4.30354 0.545672 0
M  V30 1109 H 93.9263 -5.48967 -0.577861 0
M  V30 1110 H 96.4023 -3.84716 -1.58534 0
M  V30 1111 H 95.2783 -4.88914 -2.49507 0
M  V30 1112 H 95.5393 -3.23215 -3.01636 0
M  V30 1113 N 94.5984 0.214957 -1.56127 0
M  V30 1114 C 95.5464 1.28601 -1.93816 0
M  V30 1115 C 96.5404 1.48175 -0.821016 0
M  V30 1116 O 97.7464 1.49271 -1.0059 0
M  V30 1117 H 94.1214 0.431302 -0.616022 0
M  V30 1118 H 96.0924 0.940991 -2.83175 0
M  V30 1119 C 94.8414 2.62779 -2.27689 0
M  V30 1120 H 94.1644 2.48527 -3.13168 0
M  V30 1121 H 95.6044 3.36517 -2.57939 0
M  V30 1122 C 94.0634 3.18285 -1.10436 0
M  V30 1123 O 94.5934 4.00002 -0.368945 0
M  V30 1124 N 92.7994 2.7675 -0.886433 0
M  V30 1125 H 92.3464 2.10404 -1.48619 0
M  V30 1126 H 92.3044 3.14229 -0.103656 0
M  V30 1127 N 96.0765 1.50051 0.48192 0
M  V30 1128 C 97.0065 1.71046 1.58951 0
M  V30 1129 C 97.9875 0.559288 1.60642 0
M  V30 1130 O 99.1725 0.797243 1.77081 0
M  V30 1131 C 96.3025 1.79462 2.97339 0
M  V30 1132 C 95.2565 2.94558 3.10515 0
M  V30 1133 C 94.5825 2.88105 4.50444 0
M  V30 1134 C 95.8825 4.35227 2.88747 0
M  V30 1135 H 97.5765 2.6378 1.41635 0
M  V30 1136 H 95.1225 1.26936 0.679942 0
M  V30 1137 H 97.0755 1.92734 3.74742 0
M  V30 1138 H 95.7995 0.833412 3.15788 0
M  V30 1139 H 94.4585 2.80918 2.35543 0
M  V30 1140 H 94.1065 1.89853 4.65795 0
M  V30 1141 H 93.8065 3.65366 4.60197 0
M  V30 1142 H 95.3305 3.03412 5.29881 0
M  V30 1143 H 96.7445 4.49449 3.55905 0
M  V30 1144 H 95.1415 5.13856 3.09955 0
M  V30 1145 H 96.2115 4.48347 1.84696 0
M  V30 1146 N 97.5546 -0.734337 1.39446 0
M  V30 1147 C 98.4846 -1.86155 1.40955 0
M  V30 1148 C 99.4656 -1.67898 0.272827 0
M  V30 1149 O 100.651 -1.88207 0.478743 0
M  V30 1150 C 97.7806 -3.23912 1.25294 0
M  V30 1151 C 96.7346 -3.56808 2.36373 0
M  V30 1152 C 96.0606 -4.93508 2.058 0
M  V30 1153 C 97.3606 -3.59713 3.78687 0
M  V30 1154 H 99.0546 -1.8515 2.35287 0
M  V30 1155 H 96.6006 -0.889367 1.13253 0
M  V30 1156 H 98.5536 -4.02443 1.2497 0
M  V30 1157 H 97.2776 -3.25446 0.274308 0
M  V30 1158 H 95.9366 -2.80606 2.35914 0
M  V30 1159 H 95.5846 -4.91623 1.06374 0
M  V30 1160 H 95.2846 -5.16486 2.80208 0
M  V30 1161 H 96.8086 -5.74396 2.07128 0
M  V30 1162 H 98.2226 -4.2832 3.81071 0
M  V30 1163 H 96.6196 -3.94209 4.52459 0
M  V30 1164 H 97.6896 -2.59504 4.09617 0
M  V30 1165 N 99.0327 -1.24633 -0.964593 0
M  V30 1166 C 100.444 -1.08045 -1.5226 0
M  V30 1167 C 100.795 0.347116 -1.93105 0
M  V30 1168 O 99.9197 1.23588 -1.77637 0
M  V30 1169 C 100.515 -1.95514 -2.76695 0
M  V30 1170 C 99.0737 -1.8314 -3.28841 0
M  V30 1171 C 98.2207 -1.90262 -2.01732 0
M  V30 1172 H 101.172 -1.38064 -0.782553 0
M  V30 1173 H 101.193 -1.48925 -3.50145 0
M  V30 1174 H 100.705 -2.99407 -2.46936 0
M  V30 1175 H 98.8057 -0.82092 -3.63444 0
M  V30 1176 H 98.9187 -2.67406 -3.97531 0
M  V30 1177 H 97.2827 -1.34027 -2.16584 0
M  V30 1178 H 98.0657 -2.9574 -1.74334 0
M  V30 1179 N 100.511 1.16574 -1.06058 0
M  V30 1180 C 101.788 1.83048 -0.689416 0
M  V30 1181 C 102.168 1.94122 0.829443 0
M  V30 1182 O 101.516 1.48249 1.7388 0
M  V30 1183 C 101.726 3.20186 -1.38859 0
M  V30 1184 C 103.074 3.95989 -1.53226 0
M  V30 1185 O 104.098 3.29696 -1.3483 0
M  V30 1186 O 102.957 5.14813 -1.83384 0
M  V30 1187 H 100.051 0.790258 -0.243764 0
M  V30 1188 H 102.597 1.23797 -1.16071 0
M  V30 1189 H 101.369 3.07146 -2.4244 0
M  V30 1190 H 100.992 3.87112 -0.907216 0
M  V30 1191 N 101.989 0.842826 1.3317 0
M  V30 1192 C 102.937 0.267495 2.31057 0
M  V30 1193 C 103.931 -0.602682 1.58316 0
M  V30 1194 O 105.137 -0.491803 1.73151 0
M  V30 1195 H 101.512 0.0677813 0.748939 0
M  V30 1196 H 103.483 1.10754 2.77085 0
M  V30 1197 C 102.232 -0.539331 3.43492 0
M  V30 1198 H 101.555 0.12095 3.99617 0
M  V30 1199 H 102.995 -0.90767 4.14171 0
M  V30 1200 C 101.454 -1.71981 2.89697 0
M  V30 1201 O 101.984 -2.81862 2.86211 0
M  V30 1202 N 100.19 -1.54299 2.46252 0
M  V30 1203 H 99.7369 -0.649143 2.49287 0
M  V30 1204 H 99.6949 -2.33431 2.10612 0
M  V30 1205 N 103.467 -1.45747 0.599634 0
M  V30 1206 C 104.397 -2.33235 -0.111306 0
M  V30 1207 C 105.378 -1.46359 -0.866781 0
M  V30 1208 O 106.563 -1.75146 -0.838904 0
M  V30 1209 C 103.693 -3.28932 -1.11451 0
M  V30 1210 C 102.647 -4.25381 -0.472772 0
M  V30 1211 C 101.973 -5.1071 -1.58365 0
M  V30 1212 C 103.273 -5.18831 0.600948 0
M  V30 1213 H 104.967 -2.92927 0.61919 0
M  V30 1214 H 102.513 -1.40857 0.299215 0
M  V30 1215 H 104.466 -3.89002 -1.62036 0
M  V30 1216 H 103.19 -2.67381 -1.8755 0
M  V30 1217 H 101.849 -3.66598 0.0121472 0
M  V30 1218 H 101.497 -4.45533 -2.33473 0
M  V30 1219 H 101.197 -5.7604 -1.15982 0
M  V30 1220 H 102.721 -5.73647 -2.09194 0
M  V30 1221 H 104.135 -5.73019 0.179491 0
M  V30 1222 H 102.532 -5.92595 0.946076 0
M  V30 1223 H 103.602 -4.6174 1.48068 0
M  V30 1224 N 104.945 -0.338344 -1.53925 0
M  V30 1225 C 105.875 0.51328 -2.27789 0
M  V30 1226 C 106.856 1.107 -1.29149 0
M  V30 1227 O 108.041 1.12937 -1.57984 0
M  V30 1228 C 105.171 1.66697 -3.04679 0
M  V30 1229 C 104.125 1.20183 -4.1078 0
M  V30 1230 C 103.451 2.44363 -4.75595 0
M  V30 1231 C 104.751 0.30605 -5.21403 0
M  V30 1232 H 106.445 -0.102883 -2.99223 0
M  V30 1233 H 103.991 -0.0509219 -1.4391 0
M  V30 1234 H 105.944 2.26915 -3.55088 0
M  V30 1235 H 104.668 2.30995 -2.30887 0
M  V30 1236 H 103.327 0.622499 -3.61276 0
M  V30 1237 H 102.975 3.07057 -3.98403 0
M  V30 1238 H 102.675 2.13925 -5.47275 0
M  V30 1239 H 104.199 3.05317 -5.28786 0
M  V30 1240 H 105.613 0.814929 -5.67478 0
M  V30 1241 H 104.01 0.0937929 -6.00027 0
M  V30 1242 H 105.08 -0.65921 -4.80398 0
M  V30 1243 N 106.423 1.57458 -0.0668435 0
M  V30 1244 C 107.371 2.13639 0.919851 0
M  V30 1245 C 108.365 1.07204 1.31163 0
M  V30 1246 O 109.571 1.25591 1.28945 0
M  V30 1247 H 105.946 0.683048 0.314562 0
M  V30 1248 H 107.917 2.95415 0.421047 0
M  V30 1249 C 106.666 2.70892 2.17975 0
M  V30 1250 H 105.989 3.5246 1.88711 0
M  V30 1251 H 107.429 3.13803 2.85138 0
M  V30 1252 C 105.888 1.65414 2.93496 0
M  V30 1253 O 106.418 1.07619 3.87015 0
M  V30 1254 N 104.624 1.36564 2.56512 0
M  V30 1255 H 104.171 1.83751 1.80536 0
M  V30 1256 H 104.129 0.66223 3.07347 0
M  V30 1257 N 107.901 -0.206675 1.56239 0
M  V30 1258 C 109.317 -0.557025 1.49564 0
M  V30 1259 C 109.517 -1.86424 0.764735 0
M  V30 1260 O 108.573 -2.50584 0.310491 0
M  V30 1261 C 109.886 -0.622478 2.94186 0
M  V30 1262 C 111.434 -0.712099 3.04792 0
M  V30 1263 C 111.909 -0.808767 4.50803 0
M  V30 1264 N 113.4 -0.8726 4.54907 0
M  V30 1265 C 114.135 -0.967365 5.65181 0
M  V30 1266 N 113.631 -1.02515 6.85173 0
M  V30 1267 N 115.424 -1.00366 5.53067 0
M  V30 1268 H 107.575 0.650943 2.02179 0
M  V30 1269 H 109.838 0.230387 0.919579 0
M  V30 1270 H 109.544 0.268727 3.50672 0
M  V30 1271 H 109.418 -1.4811 3.46905 0
M  V30 1272 H 111.805 -1.59374 2.48363 0
M  V30 1273 H 111.886 0.172489 2.55218 0
M  V30 1274 H 111.53 0.0684754 5.07854 0
M  V30 1275 H 111.46 -1.70899 4.98098 0
M  V30 1276 H 113.951 -0.837657 3.68499 0
M  V30 1277 H 114.264 -1.09765 7.64965 0
M  V30 1278 H 112.609 -0.994026 6.87855 0
M  V30 1279 H 115.8 -0.95527 4.58249 0
M  V30 1280 H 115.973 -1.07405 6.39037 0
M  V30 1281 N 109.379 -1.50304 -0.473955 0
M  V30 1282 C 110.79 -1.54042 -1.0549 0
M  V30 1283 C 111.141 -0.342248 -1.93192 0
M  V30 1284 O 110.266 0.545157 -2.09421 0
M  V30 1285 C 110.861 -2.79152 -1.91989 0
M  V30 1286 C 109.42 -2.8558 -2.45196 0
M  V30 1287 C 108.567 -2.48295 -1.2347 0
M  V30 1288 H 111.518 -1.5661 -0.256693 0
M  V30 1289 H 111.539 -2.60845 -2.7702 0
M  V30 1290 H 111.051 -3.66339 -1.28131 0
M  V30 1291 H 109.152 -2.02738 -3.12615 0
M  V30 1292 H 109.265 -3.88403 -2.80499 0
M  V30 1293 H 107.629 -2.00669 -1.56856 0
M  V30 1294 H 108.412 -3.37787 -0.612789 0
M  V30 1295 N 110.857 0.726932 -1.39834 0
M  V30 1296 C 112.082 1.52121 -1.40976 0
M  V30 1297 C 112.507 1.88098 -0.00826029 0
M  V30 1298 O 111.865 1.52479 0.980807 0
M  V30 1299 C 111.913 2.78021 -2.29644 0
M  V30 1300 O 111.017 3.74272 -1.73188 0
M  V30 1301 H 110.358 0.45908 -0.479731 0
M  V30 1302 H 112.888 0.896207 -1.83927 0
M  V30 1303 H 112.898 3.26671 -2.44438 0
M  V30 1304 H 111.573 2.51169 -3.31492 0
M  V30 1305 H 110.15 3.33073 -1.6768 0
M  V30 1306 N 112.336 1.25143 0.95797 0
M  V30 1307 C 113.582 1.09855 1.70469 0
M  V30 1308 C 113.915 -0.360187 1.90831 0
M  V30 1309 O 113.19 -1.26568 1.47685 0
M  V30 1310 C 113.473 1.8497 3.08963 0
M  V30 1311 C 113.326 3.38652 2.96032 0
M  V30 1312 C 114.645 1.63016 4.08795 0
M  V30 1313 H 111.764 0.400465 0.618706 0
M  V30 1314 H 114.406 1.53933 1.11376 0
M  V30 1315 H 112.556 1.47505 3.59409 0
M  V30 1316 H 114.228 3.85772 2.52938 0
M  V30 1317 H 112.471 3.66534 2.32025 0
M  V30 1318 H 113.142 3.8642 3.94187 0
M  V30 1319 H 115.618 1.95625 3.67247 0
M  V30 1320 H 114.494 2.18015 5.03747 0
M  V30 1321 H 114.755 0.570692 4.38401 0
M  V30 1322 N 113.814 -1.1601 1.06675 0
M  V30 1323 C 115.062 -1.86264 0.784229 0
M  V30 1324 C 115.383 -1.82328 -0.691488 0
M  V30 1325 O 114.653 -1.25947 -1.50047 0
M  V30 1326 H 113.233 -0.689621 0.28711 0
M  V30 1327 H 115.895 -1.40664 1.34906 0
M  V30 1328 H 114.991 -2.91595 1.11259 0
M  V30 1329 N 115.292 -0.849877 -1.32721 0
M  V30 1330 C 116.222 -0.306308 -2.31482 0
M  V30 1331 C 117.203 0.591952 -1.59468 0
M  V30 1332 O 118.388 0.513199 -1.87296 0
M  V30 1333 C 115.518 0.510204 -3.43532 0
M  V30 1334 C 114.472 -0.293209 -4.26994 0
M  V30 1335 C 113.798 0.647743 -5.30762 0
M  V30 1336 C 115.098 -1.51634 -4.99804 0
M  V30 1337 H 116.792 -1.13153 -2.77195 0
M  V30 1338 H 114.338 -0.545553 -1.33266 0
M  V30 1339 H 116.291 0.900856 -4.11658 0
M  V30 1340 H 115.015 1.36874 -2.96535 0
M  V30 1341 H 113.674 -0.665555 -3.60508 0
M  V30 1342 H 113.322 1.50299 -4.8002 0
M  V30 1343 H 113.022 0.11422 -5.87489 0
M  V30 1344 H 114.546 1.03567 -6.01753 0
M  V30 1345 H 115.96 -1.19824 -5.60638 0
M  V30 1346 H 114.357 -1.98745 -5.66234 0
M  V30 1347 H 115.427 -2.28018 -4.27943 0
M  V30 1348 N 116.77 1.45427 -0.607355 0
M  V30 1349 C 118.016 2.0254 -0.102607 0
M  V30 1350 C 118.349 1.47478 1.26348 0
M  V30 1351 O 117.624 0.64939 1.83339 0
M  V30 1352 C 117.907 3.60044 -0.0634347 0
M  V30 1353 C 117.76 4.2544 -1.46017 0
M  V30 1354 C 119.079 4.35646 0.624514 0
M  V30 1355 H 116.198 0.73598 -0.0387607 0
M  V30 1356 H 118.84 1.73284 -0.779282 0
M  V30 1357 H 116.99 3.85101 0.512808 0
M  V30 1358 H 118.662 4.11569 -2.08347 0
M  V30 1359 H 116.905 3.83849 -2.02094 0
M  V30 1360 H 117.576 5.34342 -1.385 0
M  V30 1361 H 120.052 4.15882 0.134723 0
M  V30 1362 H 118.928 5.45376 0.621028 0
M  V30 1363 H 119.189 4.08501 1.69055 0
M  V30 1364 N 118.248 0.346503 1.53744 0
M  V30 1365 C 119.18 -0.543316 2.22667 0
M  V30 1366 C 120.193 -1.06159 1.23427 0
M  V30 1367 O 121.382 -0.971235 1.49764 0
M  V30 1368 C 118.482 -1.76076 2.89569 0
M  V30 1369 C 117.655 -1.37727 4.15151 0
M  V30 1370 C 116.714 -2.45471 4.65436 0
M  V30 1371 O 115.74 -2.08655 5.29577 0
M  V30 1372 N 116.942 -3.7677 4.41616 0
M  V30 1373 H 119.707 0.0469703 2.99663 0
M  V30 1374 H 117.268 0.170766 1.60997 0
M  V30 1375 H 119.26 -2.47593 3.20125 0
M  V30 1376 H 117.83 -2.25835 2.16142 0
M  V30 1377 H 117.05 -0.492746 3.91108 0
M  V30 1378 H 118.338 -1.09708 4.96832 0
M  V30 1379 H 117.736 -4.09467 3.90325 0
M  V30 1380 H 116.293 -4.44448 4.7677 0
M  V30 1381 N 119.726 -1.57421 0.075193 0
M  V30 1382 C 120.951 -1.98364 -0.605515 0
M  V30 1383 C 121.376 -0.953383 -1.62149 0
M  V30 1384 O 120.734 0.0806053 -1.81121 0
M  V30 1385 C 120.782 -3.38332 -1.24756 0
M  V30 1386 O 119.886 -3.37959 -2.36342 0
M  V30 1387 H 119.227 -0.645553 -0.155428 0
M  V30 1388 H 121.757 -2.04044 0.150714 0
M  V30 1389 H 121.767 -3.75591 -1.5936 0
M  V30 1390 H 120.442 -4.12846 -0.503129 0
M  V30 1391 H 119.019 -3.12474 -2.03506 0
M  V30 1392 N 121.204 0.198386 -1.56346 0
M  V30 1393 C 122.45 0.916115 -1.81601 0
M  V30 1394 C 122.805 1.81025 -0.651744 0
M  V30 1395 O 122.098 1.88316 0.353229 0
M  V30 1396 C 122.292 1.77031 -3.10475 0
M  V30 1397 C 122.121 0.960365 -4.39326 0
M  V30 1398 C 120.891 0.646093 -5.01152 0
M  V30 1399 C 123.089 0.314628 -5.13337 0
M  V30 1400 N 121.071 -0.182828 -6.13628 0
M  V30 1401 C 122.442 -0.37664 -6.18855 0
M  V30 1402 C 124.497 0.230019 -4.97368 0
M  V30 1403 C 123.2 -1.14445 -7.10137 0
M  V30 1404 C 125.226 -0.524389 -5.89071 0
M  V30 1405 C 124.588 -1.20412 -6.94032 0
M  V30 1406 H 120.687 0.314732 -0.715868 0
M  V30 1407 H 123.271 0.185102 -1.93818 0
M  V30 1408 H 121.442 2.47295 -2.99499 0
M  V30 1409 H 123.174 2.42727 -3.2383 0
M  V30 1410 H 119.929 0.969724 -4.63566 0
M  V30 1411 H 120.353 -0.586802 -6.74452 0
M  V30 1412 H 124.995 0.741184 -4.16253 0
M  V30 1413 H 122.713 -1.66706 -7.90718 0
M  V30 1414 H 126.299 -0.591167 -5.78789 0
M  V30 1415 H 125.179 -1.77853 -7.63766 0
M  V30 1416 N 122.682 1.50554 0.465978 0
M  V30 1417 C 123.912 1.65323 1.23903 0
M  V30 1418 C 124.32 0.338051 1.86155 0
M  V30 1419 O 123.663 -0.690518 1.70228 0
M  V30 1420 C 123.725 2.69048 2.3844 0
M  V30 1421 C 123.389 4.12462 1.96784 0
M  V30 1422 C 124.386 4.98168 1.48745 0
M  V30 1423 C 122.071 4.58407 2.05349 0
M  V30 1424 C 124.065 6.27868 1.0982 0
M  V30 1425 C 121.752 5.88112 1.66035 0
M  V30 1426 C 122.75 6.72668 1.18349 0
M  V30 1427 O 122.438 7.99951 0.795825 0
M  V30 1428 H 122.17 0.558629 0.38067 0
M  V30 1429 H 124.724 1.97561 0.562022 0
M  V30 1430 H 122.954 2.32062 3.09328 0
M  V30 1431 H 124.643 2.72985 3.0039 0
M  V30 1432 H 125.409 4.63885 1.41546 0
M  V30 1433 H 121.288 3.92735 2.41414 0
M  V30 1434 H 124.832 6.93819 0.725293 0
M  V30 1435 H 120.729 6.21914 1.72895 0
M  V30 1436 H 121.497 8.13265 0.924222 0
M  V30 1437 N 124.16 -0.719506 1.40217 0
M  V30 1438 C 125.093 -1.84298 1.34571 0
M  V30 1439 C 126.071 -1.61149 0.216741 0
M  V30 1440 O 127.255 -1.84212 0.399756 0
M  V30 1441 C 124.382 -3.20568 1.09335 0
M  V30 1442 C 123.428 -3.62551 2.24631 0
M  V30 1443 S 124.261 -3.7012 3.87004 0
M  V30 1444 C 125.417 -5.09154 3.64024 0
M  V30 1445 H 125.65 -1.88807 2.2965 0
M  V30 1446 H 123.183 -0.885901 1.26456 0
M  V30 1447 H 125.141 -3.99246 0.954602 0
M  V30 1448 H 123.802 -3.13696 0.159164 0
M  V30 1449 H 122.995 -4.61483 2.02606 0
M  V30 1450 H 122.597 -2.91119 2.34789 0
M  V30 1451 H 124.889 -5.95955 3.22248 0
M  V30 1452 H 125.832 -5.36213 4.62473 0
M  V30 1453 H 126.24 -4.79562 2.97793 0
M  V30 1454 N 125.638 -1.25649 -0.95132 0
M  V30 1455 C 126.57 -1.02112 -2.05197 0
M  V30 1456 C 127.583 0.0150571 -1.62793 0
M  V30 1457 O 128.772 -0.223874 -1.77091 0
M  V30 1458 C 125.872 -0.522361 -3.3485 0
M  V30 1459 C 125.045 -1.62546 -4.06076 0
M  V30 1460 C 124.104 -1.12649 -5.14001 0
M  V30 1461 O 123.13 -1.82156 -5.39266 0
M  V30 1462 N 124.332 0.03047 -5.80492 0
M  V30 1463 H 127.097 -1.96885 -2.25957 0
M  V30 1464 H 124.658 -1.16899 -1.1201 0
M  V30 1465 H 126.65 -0.172961 -4.0433 0
M  V30 1466 H 125.22 0.33151 -3.10837 0
M  V30 1467 H 124.44 -2.14628 -3.30649 0
M  V30 1468 H 125.728 -2.36644 -4.50419 0
M  V30 1469 H 125.126 0.611169 -5.62389 0
M  V30 1470 H 123.683 0.320875 -6.5101 0
M  V30 1471 N 127.117 1.15442 -1.07289 0
M  V30 1472 C 128.342 1.90638 -0.816828 0
M  V30 1473 C 128.767 1.77445 0.624083 0
M  V30 1474 O 128.125 1.10671 1.43602 0
M  V30 1475 C 128.173 3.39008 -1.22906 0
M  V30 1476 O 127.277 4.10701 -0.373975 0
M  V30 1477 H 126.618 0.593555 -0.297638 0
M  V30 1478 H 129.148 1.46198 -1.43134 0
M  V30 1479 H 129.158 3.89801 -1.20497 0
M  V30 1480 H 127.833 3.47929 -2.27856 0
M  V30 1481 H 126.41 3.70046 -0.460499 0
M  V30 1482 N 128.595 0.856903 1.32268 0
M  V30 1483 C 129.842 0.461386 1.97174 0
M  V30 1484 C 130.17 -0.983491 1.67803 0
M  V30 1485 O 129.425 -1.70541 0.959903 0
M  V30 1486 C 129.724 0.649919 3.51441 0
M  V30 1487 C 129.39 2.0656 4.00804 0
M  V30 1488 C 128.052 2.45279 4.13995 0
M  V30 1489 C 130.404 2.98947 4.26943 0
M  V30 1490 C 127.732 3.75653 4.50668 0
M  V30 1491 C 130.084 4.28822 4.65075 0
M  V30 1492 C 128.748 4.67472 4.76472 0
M  V30 1493 H 128.018 0.168833 0.72151 0
M  V30 1494 H 130.665 1.08739 1.57633 0
M  V30 1495 H 128.97 -0.0593018 3.91755 0
M  V30 1496 H 130.667 0.32391 3.9969 0
M  V30 1497 H 127.257 1.75495 3.91024 0
M  V30 1498 H 131.441 2.70265 4.16258 0
M  V30 1499 H 126.697 4.05379 4.57688 0
M  V30 1500 H 130.871 5.0047 4.84255 0
M  V30 1501 H 128.498 5.68539 5.04646 0
M  V30 1502 N 130.073 -1.45103 0.615059 0
M  V30 1503 C 131.003 -2.33339 -0.0865619 0
M  V30 1504 C 131.984 -1.4727 -0.851209 0
M  V30 1505 O 133.169 -1.76026 -0.820281 0
M  V30 1506 C 130.299 -3.30095 -1.07956 0
M  V30 1507 C 129.253 -4.25858 -0.427628 0
M  V30 1508 C 128.579 -5.12361 -1.5294 0
M  V30 1509 C 129.879 -5.18165 0.655944 0
M  V30 1510 H 131.573 -2.92254 0.650224 0
M  V30 1511 H 129.119 -1.40532 0.314138 0
M  V30 1512 H 131.072 -3.90698 -1.57901 0
M  V30 1513 H 129.796 -2.69355 -1.84703 0
M  V30 1514 H 128.455 -3.66564 0.0510292 0
M  V30 1515 H 128.103 -4.47984 -2.28734 0
M  V30 1516 H 127.803 -5.77238 -1.09865 0
M  V30 1517 H 129.327 -5.75833 -2.03098 0
M  V30 1518 H 130.741 -5.72796 0.240257 0
M  V30 1519 H 129.138 -5.91559 1.00888 0
M  V30 1520 H 130.208 -4.60144 1.52957 0
M  V30 1521 N 131.551 -0.354651 -1.53558 0
M  V30 1522 C 132.461 0.50515 -2.29097 0
M  V30 1523 C 133.477 1.10223 -1.34636 0
M  V30 1524 O 134.653 1.11553 -1.67684 0
M  V30 1525 C 131.718 1.63479 -3.05738 0
M  V30 1526 C 130.779 1.06636 -4.15845 0
M  V30 1527 C 130.012 2.14217 -4.88822 0
M  V30 1528 O 130.235 3.35137 -4.61562 0
M  V30 1529 O 129.169 1.77887 -5.75013 0
M  V30 1530 H 132.995 -0.109237 -3.03503 0
M  V30 1531 H 130.58 -0.119357 -1.48922 0
M  V30 1532 H 132.462 2.2918 -3.5363 0
M  V30 1533 H 131.137 2.23478 -2.34178 0
M  V30 1534 H 130.044 0.373565 -3.7223 0
M  V30 1535 H 131.377 0.511081 -4.89539 0
M  V30 1536 N 133.029 1.57378 -0.0835403 0
M  V30 1537 C 133.959 2.1641 0.87686 0
M  V30 1538 C 134.94 1.09429 1.30228 0
M  V30 1539 O 136.125 1.37516 1.37124 0
M  V30 1540 C 133.255 2.73517 2.14022 0
M  V30 1541 C 132.209 3.85769 1.85381 0
M  V30 1542 C 131.535 4.29529 3.18448 0
M  V30 1543 C 132.835 5.09486 1.14984 0
M  V30 1544 H 134.529 2.96914 0.385059 0
M  V30 1545 H 132.075 1.42823 0.18377 0
M  V30 1546 H 134.028 3.13463 2.81636 0
M  V30 1547 H 132.752 1.90252 2.65465 0
M  V30 1548 H 131.411 3.46345 1.20169 0
M  V30 1549 H 131.059 3.43169 3.67755 0
M  V30 1550 H 130.759 5.05204 3.00071 0
M  V30 1551 H 132.283 4.72099 3.8724 0
M  V30 1552 H 133.697 5.46674 1.72687 0
M  V30 1553 H 132.094 5.90515 1.06826 0
M  V30 1554 H 133.164 4.84724 0.130749 0
M  V30 1555 N 134.507 -0.190092 1.56449 0
M  V30 1556 C 135.437 -1.23816 1.97969 0
M  V30 1557 C 136.418 -1.47201 0.852395 0
M  V30 1558 O 137.603 -1.58854 1.1171 0
M  V30 1559 C 134.733 -2.5813 2.3235 0
M  V30 1560 C 133.687 -2.49348 3.47864 0
M  V30 1561 C 133.013 -3.8798 3.67934 0
M  V30 1562 C 134.313 -2.01424 4.81898 0
M  V30 1563 H 136.007 -0.89311 2.85769 0
M  V30 1564 H 133.553 -0.428177 1.37487 0
M  V30 1565 H 135.506 -3.31637 2.59991 0
M  V30 1566 H 134.23 -2.94386 1.41438 0
M  V30 1567 H 132.889 -1.78297 3.20321 0
M  V30 1568 H 132.537 -4.21597 2.74344 0
M  V30 1569 H 132.237 -3.82978 4.45648 0
M  V30 1570 H 133.761 -4.63101 3.97957 0
M  V30 1571 H 135.175 -2.64693 5.08538 0
M  V30 1572 H 133.572 -2.07413 5.63116 0
M  V30 1573 H 134.642 -0.967677 4.75146 0
M  V30 1574 N 135.985 -1.50799 -0.457987 0
M  V30 1575 C 136.895 -1.73426 -1.57989 0
M  V30 1576 C 137.911 -0.617745 -1.62665 0
M  V30 1577 O 139.087 -0.897614 -1.80291 0
M  V30 1578 C 136.152 -1.83557 -2.94122 0
M  V30 1579 C 135.213 -3.07345 -2.99729 0
M  V30 1580 C 134.446 -3.16983 -4.29368 0
M  V30 1581 O 134.669 -2.33077 -5.20607 0
M  V30 1582 O 133.603 -4.09812 -4.40837 0
M  V30 1583 H 137.429 -2.68555 -1.41817 0
M  V30 1584 H 135.014 -1.35052 -0.638859 0
M  V30 1585 H 136.896 -1.92326 -3.74952 0
M  V30 1586 H 135.571 -0.916137 -3.10465 0
M  V30 1587 H 134.478 -3.04068 -2.1793 0
M  V30 1588 H 135.811 -3.9891 -2.88326 0
M  V30 1589 N 137.463 0.71206 -1.40597 0
M  V30 1590 C 138.693 1.49894 -1.42181 0
M  V30 1591 C 139.101 1.89189 -0.0208078 0
M  V30 1592 O 138.444 1.56223 0.966436 0
M  V30 1593 C 138.506 2.80215 -2.25211 0
M  V30 1594 C 138.17 2.63221 -3.73582 0
M  V30 1595 C 139.167 2.30249 -4.66135 0
M  V30 1596 C 136.852 2.79376 -4.17438 0
M  V30 1597 C 138.846 2.13645 -6.00529 0
M  V30 1598 C 136.533 2.6239 -5.51901 0
M  V30 1599 C 137.531 2.29573 -6.43262 0
M  V30 1600 O 137.219 2.12719 -7.75246 0
M  V30 1601 H 136.951 0.469031 -0.486812 0
M  V30 1602 H 139.505 0.88564 -1.85326 0
M  V30 1603 H 137.735 3.4389 -1.76852 0
M  V30 1604 H 139.424 3.41947 -2.18694 0
M  V30 1605 H 140.19 2.17398 -4.33547 0
M  V30 1606 H 136.069 3.03906 -3.46644 0
M  V30 1607 H 139.613 1.87953 -6.71803 0
M  V30 1608 H 135.51 2.74826 -5.84073 0
M  V30 1609 H 136.278 2.27611 -7.86216 0
M  V30 1610 N 138.941 1.26152 0.944643 0
M  V30 1611 C 139.851 1.09176 2.07648 0
M  V30 1612 C 140.867 0.0261935 1.7398 0
M  V30 1613 O 142.043 0.229208 2.00091 0
M  V30 1614 C 139.108 0.722915 3.39079 0
M  V30 1615 C 138.169 1.86752 3.86552 0
M  V30 1616 C 137.402 1.51617 5.11711 0
M  V30 1617 O 137.625 0.416331 5.68879 0
M  V30 1618 O 136.559 2.34975 5.54139 0
M  V30 1619 H 140.385 2.0412 2.24875 0
M  V30 1620 H 137.97 1.05182 1.061 0
M  V30 1621 H 139.852 0.529787 4.18056 0
M  V30 1622 H 138.527 -0.197159 3.23099 0
M  V30 1623 H 137.434 2.11558 3.08535 0
M  V30 1624 H 138.767 2.76719 4.07047 0
M  V30 1625 N 140.419 -1.14872 1.07899 0
M  V30 1626 C 141.367 -2.21857 0.698727 0
M  V30 1627 C 142.361 -1.66845 -0.293086 0
M  V30 1628 O 143.567 -1.79321 -0.156204 0
M  V30 1629 H 139.942 -0.722691 0.207899 0
M  V30 1630 H 141.913 -2.51205 1.61054 0
M  V30 1631 C 140.662 -3.47498 0.11858 0
M  V30 1632 H 139.985 -3.90154 0.872914 0
M  V30 1633 H 141.425 -4.23858 -0.109759 0
M  V30 1634 C 139.884 -3.16947 -1.1422 0
M  V30 1635 O 140.414 -3.3426 -2.22785 0
M  V30 1636 N 138.62 -2.70946 -1.05055 0
M  V30 1637 H 138.167 -2.57058 -0.167038 0
M  V30 1638 H 138.125 -2.50879 -1.89491 0
M  V30 1639 N 141.898 -0.863906 -1.31812 0
M  V30 1640 C 142.845 -0.313303 -2.28664 0
M  V30 1641 C 143.815 0.584868 -1.55462 0
M  V30 1642 O 145 0.517805 -1.83639 0
M  V30 1643 C 142.14 0.48441 -3.41683 0
M  V30 1644 C 141.253 -0.440594 -4.29747 0
M  V30 1645 C 140.388 0.370652 -5.29905 0
M  V30 1646 C 139.427 -0.551164 -6.09613 0
M  V30 1647 N 138.564 0.223462 -7.01744 0
M  V30 1648 H 143.404 -1.14444 -2.75148 0
M  V30 1649 H 140.941 -0.575769 -1.35364 0
M  V30 1650 H 142.899 0.962627 -4.05943 0
M  V30 1651 H 141.529 1.28029 -2.96325 0
M  V30 1652 H 140.581 -1.03724 -3.65986 0
M  V30 1653 H 141.893 -1.14767 -4.85417 0
M  V30 1654 H 141.047 0.911638 -5.99812 0
M  V30 1655 H 139.786 1.11105 -4.74876 0
M  V30 1656 H 138.791 -1.10396 -5.38603 0
M  V30 1657 H 140.016 -1.29032 -6.66729 0
M  V30 1658 H 137.962 0.946787 -6.49132 0
M  V30 1659 H 137.879 -0.424399 -7.54808 0
M  V30 1660 H 139.147 0.745876 -7.75923 0
M  V30 1661 N 143.376 1.44774 -0.622745 0
M  V30 1662 C 144.601 2.06999 -0.128968 0
M  V30 1663 C 145.026 1.4617 1.1839 0
M  V30 1664 O 144.384 0.560007 1.72434 0
M  V30 1665 C 144.432 3.60595 -0.0188351 0
M  V30 1666 O 143.536 3.99398 1.02739 0
M  V30 1667 H 142.877 0.659047 -0.0809544 0
M  V30 1668 H 145.407 1.85784 -0.85705 0
M  V30 1669 H 145.417 4.07627 0.174476 0
M  V30 1670 H 144.092 4.04252 -0.977384 0
M  V30 1671 H 142.669 3.64011 0.809326 0
M  V30 1672 N 144.854 0.36279 1.53368 0
M  V30 1673 C 146.265 -0.117022 1.86333 0
M  V30 1674 C 146.616 -1.48397 1.28347 0
M  V30 1675 O 145.741 -2.07787 0.604428 0
M  V30 1676 C 146.336 -0.21912 3.38091 0
M  V30 1677 C 144.895 -0.643184 3.70864 0
M  V30 1678 C 144.042 0.211318 2.76494 0
M  V30 1679 H 146.993 0.581687 1.47655 0
M  V30 1680 H 147.014 -1.04319 3.6592 0
M  V30 1681 H 146.526 0.775902 3.80265 0
M  V30 1682 H 144.627 -1.64654 3.34245 0
M  V30 1683 H 144.74 -0.41973 4.77258 0
M  V30 1684 H 143.104 -0.319367 2.5269 0
M  V30 1685 H 143.887 1.20383 3.21501 0
M  V30 1686 N 146.332 -1.57332 0.0918853 0
M  V30 1687 C 147.242 -2.17368 -0.882505 0
M  V30 1688 C 148.258 -1.14226 -1.31257 0
M  V30 1689 O 149.434 -1.46582 -1.38115 0
M  V30 1690 C 146.499 -2.73962 -2.12476 0
M  V30 1691 C 145.56 -3.92048 -1.7492 0
M  V30 1692 C 144.793 -4.45933 -2.93223 0
M  V30 1693 O 145.016 -3.98764 -4.07852 0
M  V30 1694 O 143.95 -5.36999 -2.71875 0
M  V30 1695 H 147.776 -3.01031 -0.40172 0
M  V30 1696 H 145.361 -1.48813 -0.132291 0
M  V30 1697 H 147.243 -3.10147 -2.85283 0
M  V30 1698 H 145.918 -1.93347 -2.59613 0
M  V30 1699 H 144.825 -3.6068 -0.993025 0
M  V30 1700 H 146.158 -4.74017 -1.32548 0
M  V30 1701 N 147.81 0.181792 -1.56548 0
M  V30 1702 C 149.087 0.926765 -1.72251 0
M  V30 1703 C 149.467 2.00831 -0.650386 0
M  V30 1704 O 148.815 2.26008 0.336521 0
M  V30 1705 C 149.025 1.50106 -3.1507 0
M  V30 1706 C 150.373 1.97805 -3.75711 0
M  V30 1707 O 151.397 1.59922 -3.18282 0
M  V30 1708 O 150.256 2.67555 -4.76525 0
M  V30 1709 H 147.35 0.435506 -0.703039 0
M  V30 1710 H 149.896 0.170443 -1.68842 0
M  V30 1711 H 148.668 0.72212 -3.84579 0
M  V30 1712 H 148.291 2.32186 -3.22763 0
M  V30 1713 N 149.288 1.51039 0.449983 0
M  V30 1714 C 150.699 1.557 1.03026 0
M  V30 1715 C 151.05 0.372939 1.92623 0
M  V30 1716 O 150.175 -0.511771 2.10261 0
M  V30 1717 C 150.77 2.82171 1.87523 0
M  V30 1718 C 149.329 2.89444 2.40622 0
M  V30 1719 C 148.476 2.50228 1.19504 0
M  V30 1720 H 151.427 1.56999 0.231745 0
M  V30 1721 H 151.448 2.65219 2.72835 0
M  V30 1722 H 150.96 3.68331 1.22286 0
M  V30 1723 H 149.061 2.07685 3.0935 0
M  V30 1724 H 149.174 3.92816 2.74285 0
M  V30 1725 H 147.538 2.03139 1.53644 0
M  V30 1726 H 148.321 3.38719 0.558972 0
M  V30 1727 N 150.766 -0.704594 1.40972 0
M  V30 1728 C 151.698 -1.82974 1.38033 0
M  V30 1729 C 152.711 -1.60305 0.283931 0
M  V30 1730 O 153.9 -1.69975 0.545042 0
M  V30 1731 C 151 -3.19578 1.12795 0
M  V30 1732 C 150.173 -3.69352 2.34302 0
M  V30 1733 C 149.232 -4.84601 2.05058 0
M  V30 1734 O 148.258 -4.96682 2.7802 0
M  V30 1735 N 149.46 -5.71194 1.03528 0
M  V30 1736 H 152.225 -1.85991 2.35005 0
M  V30 1737 H 149.786 -0.886567 1.35468 0
M  V30 1738 H 151.778 -3.9429 0.911987 0
M  V30 1739 H 150.348 -3.11642 0.24452 0
M  V30 1740 H 149.568 -2.85649 2.71659 0
M  V30 1741 H 150.856 -3.99345 3.1528 0
M  V30 1742 H 150.254 -5.64054 0.431217 0
M  V30 1743 H 148.811 -6.45843 0.879205 0
M  V30 1744 N 152.244 -1.26651 -0.937939 0
M  V30 1745 C 153.49 -1.12553 -1.687 0
M  V30 1746 C 153.823 0.329782 -1.91379 0
M  V30 1747 O 153.098 1.24202 -1.4968 0
M  V30 1748 C 153.381 -1.89862 -3.05981 0
M  V30 1749 C 153.234 -3.43318 -2.90607 0
M  V30 1750 C 154.553 -1.69499 -4.0615 0
M  V30 1751 H 151.672 -0.410257 -0.612257 0
M  V30 1752 H 154.314 -1.55685 -1.08913 0
M  V30 1753 H 152.464 -1.53204 -3.57017 0
M  V30 1754 H 154.136 -3.89747 -2.46769 0
M  V30 1755 H 152.379 -3.70179 -2.26164 0
M  V30 1756 H 153.05 -3.92642 -3.8799 0
M  V30 1757 H 155.526 -2.01442 -3.64088 0
M  V30 1758 H 154.402 -2.26002 -5.00214 0
M  V30 1759 H 154.663 -0.640365 -4.37438 0
M  V30 1760 N 153.722 1.14298 -1.08507 0
M  V30 1761 C 154.652 2.21542 -0.737646 0
M  V30 1762 C 155.633 1.67773 0.280377 0
M  V30 1763 O 156.818 1.93616 0.150521 0
M  V30 1764 C 153.948 3.46988 -0.147259 0
M  V30 1765 C 152.902 4.13789 -1.09374 0
M  V30 1766 C 152.228 5.33449 -0.365524 0
M  V30 1767 C 153.528 4.62208 -2.4323 0
M  V30 1768 H 155.222 2.5086 -1.6343 0
M  V30 1769 H 152.768 1.20576 -0.787243 0
M  V30 1770 H 154.721 4.21262 0.107808 0
M  V30 1771 H 153.445 3.17037 0.784538 0
M  V30 1772 H 152.104 3.4147 -1.33393 0
M  V30 1773 H 151.752 4.99759 0.57011 0
M  V30 1774 H 151.452 5.79088 -0.996512 0
M  V30 1775 H 152.976 6.10485 -0.118534 0
M  V30 1776 H 154.39 5.27952 -2.23472 0
M  V30 1777 H 152.787 5.18553 -3.02031 0
M  V30 1778 H 153.857 3.77224 -3.04681 0
M  V30 1779 N 155.201 0.870884 1.31352 0
M  V30 1780 C 156.478 0.402907 1.91405 0
M  V30 1781 C 156.858 -1.11512 1.79244 0
M  V30 1782 O 156.206 -1.94411 1.2007 0
M  V30 1783 C 156.416 0.885301 3.37585 0
M  V30 1784 C 157.764 0.911971 4.14691 0
M  V30 1785 O 158.788 0.831016 3.46371 0
M  V30 1786 O 157.647 1.02927 5.3672 0
M  V30 1787 H 154.741 0.120698 0.818145 0
M  V30 1788 H 157.287 0.958857 1.40014 0
M  V30 1789 H 156.059 1.92889 3.40455 0
M  V30 1790 H 155.682 0.307714 3.96407 0
M  V30 1791 N 156.679 -1.44442 0.630414 0
M  V30 1792 C 157.627 -2.32437 -0.0871428 0
M  V30 1793 C 158.621 -1.47304 -0.836525 0
M  V30 1794 O 159.827 -1.63653 -0.749506 0
M  V30 1795 H 156.202 -0.750533 -0.0469495 0
M  V30 1796 H 158.173 -2.90709 0.673096 0
M  V30 1797 C 156.922 -3.31288 -1.05563 0
M  V30 1798 H 156.245 -3.96805 -0.488426 0
M  V30 1799 H 157.685 -3.9554 -1.52721 0
M  V30 1800 C 156.144 -2.6016 -2.14052 0
M  V30 1801 O 156.674 -2.39997 -3.22124 0
M  V30 1802 N 154.88 -2.19911 -1.89967 0
M  V30 1803 H 154.427 -2.36509 -1.02085 0
M  V30 1804 H 154.385 -1.72646 -2.62756 0
M  V30 1805 N 158.157 -0.370918 -1.53173 0
M  V30 1806 C 159.404 0.217102 -2.01333 0
M  V30 1807 C 159.732 1.48338 -1.25802 0
M  V30 1808 O 158.987 1.92698 -0.34146 0
M  V30 1809 C 159.286 0.549696 -3.53147 0
M  V30 1810 C 158.952 -0.622872 -4.46577 0
M  V30 1811 C 157.614 -0.944595 -4.71838 0
M  V30 1812 C 159.966 -1.40819 -5.01816 0
M  V30 1813 C 157.294 -2.05351 -5.49589 0
M  V30 1814 C 159.646 -2.50757 -5.80778 0
M  V30 1815 C 158.31 -2.83458 -6.04324 0
M  V30 1816 H 157.58 0.0794431 -0.736729 0
M  V30 1817 H 160.227 -0.504481 -1.84736 0
M  V30 1818 H 158.532 1.35237 -3.6772 0
M  V30 1819 H 160.229 1.017 -3.87889 0
M  V30 1820 H 156.819 -0.36209 -4.27068 0
M  V30 1821 H 161.003 -1.17289 -4.82242 0
M  V30 1822 H 156.259 -2.3108 -5.6605 0
M  V30 1823 H 160.433 -3.12022 -6.22588 0
M  V30 1824 H 158.06 -3.69508 -6.64355 0
M  V30 1825 N 159.635 1.57281 -0.100228 0
M  V30 1826 C 160.565 2.17328 0.853857 0
M  V30 1827 C 161.546 1.10804 1.2906 0
M  V30 1828 O 162.731 1.38963 1.35657 0
M  V30 1829 C 159.861 2.75772 2.11109 0
M  V30 1830 C 158.815 3.87713 1.81279 0
M  V30 1831 C 158.141 4.32882 3.13874 0
M  V30 1832 C 159.441 5.10677 1.09574 0
M  V30 1833 H 161.135 2.97305 0.353545 0
M  V30 1834 H 158.681 1.43009 0.168612 0
M  V30 1835 H 160.634 3.16433 2.78296 0
M  V30 1836 H 159.358 1.93057 2.63432 0
M  V30 1837 H 158.017 3.476 1.16489 0
M  V30 1838 H 157.665 3.47051 3.64095 0
M  V30 1839 H 157.365 5.08358 2.94696 0
M  V30 1840 H 158.889 4.7618 3.82211 0
M  V30 1841 H 160.303 5.48474 1.66879 0
M  V30 1842 H 158.7 5.91615 1.00557 0
M  V30 1843 H 159.77 4.84835 0.0793299 0
M  V30 1844 N 161.113 -0.173488 1.56642 0
M  V30 1845 C 162.045 -1.23935 1.92802 0
M  V30 1846 C 163.058 -1.40589 0.820889 0
M  V30 1847 O 164.247 -1.40631 1.09933 0
M  V30 1848 C 161.347 -2.60837 2.16373 0
M  V30 1849 C 160.52 -2.6551 3.47596 0
M  V30 1850 C 159.579 -3.8376 3.60021 0
M  V30 1851 O 158.605 -3.69859 4.32658 0
M  V30 1852 N 159.807 -5.00127 2.94709 0
M  V30 1853 H 162.572 -0.932236 2.84832 0
M  V30 1854 H 160.133 -0.363268 1.57772 0
M  V30 1855 H 162.125 -3.38407 2.21952 0
M  V30 1856 H 160.695 -2.83948 1.30738 0
M  V30 1857 H 159.915 -1.74052 3.53694 0
M  V30 1858 H 161.203 -2.65641 4.33949 0
M  V30 1859 H 160.601 -5.14322 2.35563 0
M  V30 1860 H 159.158 -5.75567 3.05886 0
M  V30 1861 N 162.591 -1.51276 -0.441967 0
M  V30 1862 C 163.837 -1.63958 -1.19355 0
M  V30 1863 C 164.17 -0.352543 -1.90973 0
M  V30 1864 O 163.445 0.647627 -1.83401 0
M  V30 1865 C 163.728 -2.83979 -2.21422 0
M  V30 1866 C 163.581 -4.22646 -1.53918 0
M  V30 1867 C 164.9 -2.99521 -3.22451 0
M  V30 1868 H 162.019 -0.596709 -0.432559 0
M  V30 1869 H 164.661 -1.83748 -0.483398 0
M  V30 1870 H 162.811 -2.67237 -2.81987 0
M  V30 1871 H 164.483 -4.51045 -0.967256 0
M  V30 1872 H 162.726 -4.25558 -0.841615 0
M  V30 1873 H 163.397 -5.02609 -2.28229 0
M  V30 1874 H 165.873 -3.14944 -2.71937 0
M  V30 1875 H 164.749 -3.85072 -3.91166 0
M  V30 1876 H 165.01 -2.11391 -3.88287 0
M  V30 1877 N 164.069 0.697108 -1.41344 0
M  V30 1878 C 164.999 1.82353 -1.45841 0
M  V30 1879 C 165.98 1.67115 -0.317247 0
M  V30 1880 O 167.165 1.86871 -0.528474 0
M  V30 1881 C 164.295 3.20476 -1.33838 0
M  V30 1882 C 163.249 3.50415 -2.4575 0
M  V30 1883 C 162.575 4.87878 -2.18813 0
M  V30 1884 C 163.875 3.49546 -3.88091 0
M  V30 1885 H 165.569 1.78846 -2.40113 0
M  V30 1886 H 163.115 0.859028 -1.15571 0
M  V30 1887 H 165.068 3.98988 -1.35596 0
M  V30 1888 H 163.792 3.24604 -0.360498 0
M  V30 1889 H 162.451 2.74253 -2.43271 0
M  V30 1890 H 162.099 4.8863 -1.19371 0
M  V30 1891 H 161.799 5.08875 -2.93803 0
M  V30 1892 H 163.323 5.68702 -2.22284 0
M  V30 1893 H 164.737 4.18066 -3.92293 0
M  V30 1894 H 163.134 3.82075 -4.62751 0
M  V30 1895 H 164.204 2.48552 -4.16353 0
M  V30 1896 N 165.547 1.27147 0.931209 0
M  V30 1897 C 166.796 1.12664 1.67302 0
M  V30 1898 C 167.109 -0.327718 1.92835 0
M  V30 1899 O 168.315 -0.593392 2.64936 0
M  V30 1900 C 166.771 1.9683 3.01307 0
M  V30 1901 C 166.379 3.46901 2.83485 0
M  V30 1902 C 168.123 1.90985 3.79111 0
M  V30 1903 C 166.03 4.23279 4.13024 0
M  V30 1904 H 164.96 0.41803 0.627509 0
M  V30 1905 H 167.611 1.51539 1.03481 0
M  V30 1906 H 165.993 1.50797 3.66164 0
M  V30 1907 H 167.167 4.00773 2.27415 0
M  V30 1908 H 165.482 3.54088 2.19113 0
M  V30 1909 H 168.079 2.45328 4.75098 0
M  V30 1910 H 168.422 0.882718 4.06834 0
M  V30 1911 H 168.955 2.34895 3.21044 0
M  V30 1912 H 165.694 5.26503 3.90481 0
M  V30 1913 H 165.214 3.74186 4.6877 0
M  V30 1914 H 166.893 4.32265 4.81411 0
M  V30 1915 N 167.025 -1.13721 1.09112 0
M  V30 1916 C 167.972 -2.19031 0.727591 0
M  V30 1917 C 168.942 -1.63555 -0.289656 0
M  V30 1918 O 170.127 -1.90023 -0.172026 0
M  V30 1919 C 167.267 -3.4477 0.15082 0
M  V30 1920 C 166.38 -4.14365 1.22172 0
M  V30 1921 C 165.515 -5.27709 0.608042 0
M  V30 1922 C 164.554 -5.89147 1.66047 0
M  V30 1923 N 163.691 -6.93929 1.06806 0
M  V30 1924 H 168.531 -2.49475 1.62991 0
M  V30 1925 H 166.068 -1.22499 0.81439 0
M  V30 1926 H 168.026 -4.16714 -0.201358 0
M  V30 1927 H 166.656 -3.14787 -0.714783 0
M  V30 1928 H 165.708 -3.40737 1.69122 0
M  V30 1929 H 167.02 -4.56114 2.01895 0
M  V30 1930 H 166.174 -6.06355 0.204523 0
M  V30 1931 H 164.913 -4.872 -0.220769 0
M  V30 1932 H 163.918 -5.09198 2.07357 0
M  V30 1933 H 165.143 -6.31729 2.49189 0
M  V30 1934 H 163.089 -6.55483 0.260476 0
M  V30 1935 H 163.006 -7.34202 1.8023 0
M  V30 1936 H 164.274 -7.76434 0.690644 0
M  V30 1937 N 168.503 -0.877838 -1.30888 0
M  V30 1938 C 169.749 -0.493426 -1.96706 0
M  V30 1939 C 170.082 0.953504 -1.6918 0
M  V30 1940 O 169.357 1.67266 -0.992594 0
M  V30 1941 C 169.64 -0.760429 -3.51979 0
M  V30 1942 C 169.493 -2.25747 -3.89048 0
M  V30 1943 C 170.812 -0.232148 -4.39487 0
M  V30 1944 H 167.931 -0.180746 -0.714493 0
M  V30 1945 H 170.573 -1.10052 -1.54882 0
M  V30 1946 H 168.723 -0.243715 -3.87735 0
M  V30 1947 H 170.395 -2.84204 -3.63354 0
M  V30 1948 H 168.638 -2.72694 -3.37373 0
M  V30 1949 H 169.309 -2.39491 -4.97341 0
M  V30 1950 H 171.785 -0.674314 -4.106 0
M  V30 1951 H 170.661 -0.448355 -5.47066 0
M  V30 1952 H 170.922 0.866297 -4.33529 0
M  V30 1953 N 169.982 1.44106 -0.638065 0
M  V30 1954 C 171.398 1.56672 -0.304286 0
M  V30 1955 C 171.598 1.6244 1.19228 0
M  V30 1956 O 170.654 1.57121 1.9766 0
M  V30 1957 C 171.967 2.83503 -1.00231 0
M  V30 1958 C 173.515 2.97226 -0.981116 0
M  V30 1959 C 173.99 4.26868 -1.65974 0
M  V30 1960 N 175.481 4.33698 -1.62666 0
M  V30 1961 C 176.216 5.32745 -2.12063 0
M  V30 1962 N 175.712 6.38157 -2.6968 0
M  V30 1963 N 177.505 5.24299 -2.02651 0
M  V30 1964 H 169.656 1.38605 -1.60942 0
M  V30 1965 H 171.919 0.664661 -0.675965 0
M  V30 1966 H 171.625 2.85251 -2.0573 0
M  V30 1967 H 171.499 3.73251 -0.54439 0
M  V30 1968 H 173.886 2.95027 0.0654188 0
M  V30 1969 H 173.967 2.08808 -1.47759 0
M  V30 1970 H 173.611 4.29826 -2.70576 0
M  V30 1971 H 173.541 5.14156 -1.13804 0
M  V30 1972 H 176.032 3.58138 -1.20606 0
M  V30 1973 H 176.345 7.10029 -3.05087 0
M  V30 1974 H 174.69 6.38823 -2.73734 0
M  V30 1975 H 177.881 4.4086 -1.57353 0
M  V30 1976 H 178.054 6.01334 -2.41457 0
M  V30 1977 N 171.46 0.379036 1.52974 0
M  V30 1978 C 172.408 -0.476033 2.27677 0
M  V30 1979 C 173.402 -1.0719 1.31174 0
M  V30 1980 O 174.608 -1.01355 1.48752 0
M  V30 1981 H 170.983 -0.172255 0.732006 0
M  V30 1982 H 172.954 0.175615 2.97883 0
M  V30 1983 C 171.703 -1.5967 3.0887 0
M  V30 1984 H 171.026 -1.1475 3.82978 0
M  V30 1985 H 172.466 -2.16943 3.64296 0
M  V30 1986 C 170.925 -2.54682 2.20542 0
M  V30 1987 O 171.455 -3.57836 1.82527 0
M  V30 1988 N 169.661 -2.24183 1.84907 0
M  V30 1989 H 169.208 -1.40333 2.1602 0
M  V30 1990 H 169.166 -2.88006 1.26096 0
M  V30 1991 N 172.938 -1.57226 0.108567 0
M  V30 1992 C 174.354 -1.5766 -0.248058 0
M  V30 1993 C 174.554 -1.12063 -1.67464 0
M  V30 1994 O 173.61 -0.803236 -2.39383 0
M  V30 1995 C 174.923 -3.0069 -0.0242287 0
M  V30 1996 C 176.471 -3.12868 -0.0909372 0
M  V30 1997 C 176.946 -4.57879 0.105067 0
M  V30 1998 N 178.437 -4.63172 0.0506846 0
M  V30 1999 C 179.172 -5.73126 0.177396 0
M  V30 2000 N 178.668 -6.91866 0.359696 0
M  V30 2001 N 180.461 -5.61977 0.117709 0
M  V30 2002 H 172.612 -1.85169 1.04049 0
M  V30 2003 H 174.875 -0.85529 0.40888 0
M  V30 2004 H 174.581 -3.38299 0.961604 0
M  V30 2005 H 174.455 -3.6945 -0.76068 0
M  V30 2006 H 176.842 -2.75124 -1.06729 0
M  V30 2007 H 176.923 -2.46672 0.677225 0
M  V30 2008 H 176.567 -4.96321 1.07834 0
M  V30 2009 H 176.497 -5.22153 -0.682954 0
M  V30 2010 H 178.988 -3.778 -0.0871266 0
M  V30 2011 H 179.301 -7.71503 0.447529 0
M  V30 2012 H 177.646 -6.93874 0.395536 0
M  V30 2013 H 180.837 -4.68094 -0.0236741 0
M  V30 2014 H 181.01 -6.47627 0.219905 0
M  V30 2015 N 174.416 0.165178 -1.56732 0
M  V30 2016 C 175.366 1.20917 -1.93295 0
M  V30 2017 C 176.35 1.39488 -0.801985 0
M  V30 2018 O 177.542 1.41356 -1.06525 0
M  V30 2019 C 174.671 2.54718 -2.3016 0
M  V30 2020 C 173.757 2.39815 -3.49785 0
M  V30 2021 N 174.148 1.94637 -4.66851 0
M  V30 2022 C 172.446 2.70623 -3.54513 0
M  V30 2023 C 173.147 1.92344 -5.4898 0
M  V30 2024 N 172.123 2.34978 -4.9019 0
M  V30 2025 H 175.925 0.851675 -2.81289 0
M  V30 2026 H 173.439 0.373399 -1.58049 0
M  V30 2027 H 175.436 3.30165 -2.54552 0
M  V30 2028 H 174.096 2.91265 -1.43508 0
M  V30 2029 H 175.107 1.6488 -4.90953 0
M  V30 2030 H 171.784 3.11167 -2.78354 0
M  V30 2031 H 173.174 1.5906 -6.52801 0
M  V30 2032 N 175.894 1.51508 0.433938 0
M  V30 2033 C 176.842 1.73646 1.54757 0
M  V30 2034 C 177.836 0.602854 1.5831 0
M  V30 2035 O 179.042 0.784318 1.62014 0
M  V30 2036 H 175.417 0.548718 0.51421 0
M  V30 2037 H 177.388 2.66991 1.33261 0
M  V30 2038 C 176.137 1.88172 2.92381 0
M  V30 2039 H 175.46 2.74808 2.90381 0
M  V30 2040 H 176.9 2.07672 3.6966 0
M  V30 2041 C 175.359 0.64239 3.30719 0
M  V30 2042 O 175.889 -0.201362 4.01195 0
M  V30 2043 N 174.095 0.485489 2.86516 0
M  V30 2044 H 173.642 1.17318 2.29334 0
M  V30 2045 H 173.6 -0.342482 3.12529 0
M  V30 2046 N 177.372 -0.689602 1.41712 0
M  V30 2047 C 178.649 -1.44457 1.31877 0
M  V30 2048 C 179.029 -2.11039 -0.0508537 0
M  V30 2049 O 178.377 -2.02138 -1.06547 0
M  V30 2050 C 178.587 -2.45913 2.47645 0
M  V30 2051 C 179.935 -3.10991 2.89084 0
M  V30 2052 O 180.959 -2.56238 2.47428 0
M  V30 2053 O 179.818 -4.10174 3.61137 0
M  V30 2054 H 176.912 -0.64362 0.519309 0
M  V30 2055 H 179.458 -0.719576 1.53689 0
M  V30 2056 H 178.23 -1.95409 3.39015 0
M  V30 2057 H 177.853 -3.25913 2.27742 0
M  V30 2058 N 178.85 -1.27639 -0.924453 0
M  V30 2059 C 180.096 -1.14336 -1.67497 0
M  V30 2060 C 180.429 0.309465 -1.91718 0
M  V30 2061 O 179.704 1.22608 -1.50989 0
M  V30 2062 C 179.987 -1.93096 -3.0395 0
M  V30 2063 C 179.84 -3.46381 -2.8695 0
M  V30 2064 C 181.159 -1.73798 -4.0433 0
M  V30 2065 H 178.278 -0.416728 -0.607871 0
M  V30 2066 H 180.92 -1.56832 -1.07256 0
M  V30 2067 H 179.07 -1.56982 -3.55372 0
M  V30 2068 H 180.742 -3.92343 -2.42621 0
M  V30 2069 H 178.985 -3.72557 -2.22225 0
M  V30 2070 H 179.656 -3.96735 -3.83804 0
M  V30 2071 H 182.132 -2.05293 -3.61931 0
M  V30 2072 H 181.008 -2.31294 -4.97789 0
M  V30 2073 H 181.269 -0.686725 -4.36734 0
M  V30 2074 N 180.328 1.1314 -1.09713 0
M  V30 2075 C 181.574 1.84757 -0.836224 0
M  V30 2076 C 181.907 1.8347 0.636598 0
M  V30 2077 O 181.182 1.27491 1.46889 0
M  V30 2078 C 181.465 3.32782 -1.37578 0
M  V30 2079 C 181.318 3.42567 -2.91493 0
M  V30 2080 C 182.637 4.28307 -1.01198 0
M  V30 2081 H 179.756 0.67082 -0.305236 0
M  V30 2082 H 182.398 1.3278 -1.35903 0
M  V30 2083 H 180.548 3.77177 -0.931097 0
M  V30 2084 H 182.22 3.06862 -3.44432 0
M  V30 2085 H 180.463 2.83349 -3.28475 0
M  V30 2086 H 181.134 4.46674 -3.24324 0
M  V30 2087 H 183.61 3.91999 -1.39556 0
M  V30 2088 H 182.486 5.30307 -1.41653 0
M  V30 2089 H 182.747 4.42029 0.0794833 0
M  V30 2090 N 181.806 0.884767 1.30421 0
M  V30 2091 C 183.217 0.553656 1.78302 0
M  V30 2092 C 183.568 -0.930153 1.7275 0
M  V30 2093 O 182.693 -1.72681 1.30423 0
M  V30 2094 C 183.288 0.998234 3.2376 0
M  V30 2095 C 181.847 0.71854 3.69478 0
M  V30 2096 C 180.994 1.18132 2.50879 0
M  V30 2097 H 183.945 1.06901 1.17294 0
M  V30 2098 H 183.966 0.327118 3.79091 0
M  V30 2099 H 183.478 2.0782 3.27769 0
M  V30 2100 H 181.579 -0.349444 3.70958 0
M  V30 2101 H 181.692 1.30595 4.60958 0
M  V30 2102 H 180.056 0.600669 2.47516 0
M  V30 2103 H 180.839 2.26902 2.57624 0
M  V30 2104 N 183.284 -1.43765 0.645699 0
M  V30 2105 C 184.512 -2.06253 0.163556 0
M  V30 2106 C 184.927 -1.48352 -1.16778 0
M  V30 2107 O 184.284 -0.611932 -1.71935 0
M  V30 2108 C 184.335 -3.61453 0.0583186 0
M  V30 2109 O 184.056 -4.172 1.33702 0
M  V30 2110 C 185.557 -4.41002 -0.450795 0
M  V30 2111 H 182.777 -0.665413 0.0864077 0
M  V30 2112 H 185.321 -1.84396 0.884222 0
M  V30 2113 H 183.476 -3.82522 -0.612865 0
M  V30 2114 H 183.89 -5.10791 1.19131 0
M  V30 2115 H 185.364 -5.49966 -0.473403 0
M  V30 2116 H 185.841 -4.13488 -1.48068 0
M  V30 2117 H 186.447 -4.24886 0.187637 0
M  V30 2118 N 184.763 -0.387143 -1.52771 0
M  V30 2119 C 185.696 0.493123 -2.22808 0
M  V30 2120 C 186.674 1.0658 -1.22798 0
M  V30 2121 O 187.858 1.11785 -1.51777 0
M  V30 2122 C 184.985 1.68238 -2.93962 0
M  V30 2123 C 184.031 1.23515 -4.08223 0
M  V30 2124 S 184.864 0.21848 -5.35054 0
M  V30 2125 C 186.02 1.41357 -6.09729 0
M  V30 2126 H 186.253 -0.101625 -2.97126 0
M  V30 2127 H 183.786 -0.171323 -1.53447 0
M  V30 2128 H 185.744 2.36443 -3.35567 0
M  V30 2129 H 184.405 2.24842 -2.19328 0
M  V30 2130 H 183.598 2.12304 -4.57103 0
M  V30 2131 H 183.2 0.632044 -3.68621 0
M  V30 2132 H 185.492 2.34101 -6.3577 0
M  V30 2133 H 186.435 0.965736 -7.01484 0
M  V30 2134 H 186.843 1.6294 -5.40473 0
M  V30 2135 N 186.241 1.57166 -0.116904 0
M  V30 2136 C 187.204 2.14039 0.819742 0
M  V30 2137 C 188.204 1.07477 1.19605 0
M  V30 2138 O 189.394 1.33263 1.1219 0
M  V30 2139 C 186.526 2.67891 2.10826 0
M  V30 2140 H 187.719 2.98128 0.325511 0
M  V30 2141 H 185.272 1.55739 0.132312 0
M  V30 2142 H 186.007 1.87384 2.64685 0
M  V30 2143 H 185.792 3.45823 1.84793 0
M  V30 2144 H 187.282 3.11809 2.77785 0
M  V30 2145 N 187.719 -0.156864 1.56817 0
M  V30 2146 C 188.651 -1.21883 1.94106 0
M  V30 2147 C 189.664 -1.3971 0.835754 0
M  V30 2148 O 190.853 -1.39457 1.11418 0
M  V30 2149 C 187.953 -2.58527 2.19127 0
M  V30 2150 C 187.126 -2.61809 3.50393 0
M  V30 2151 C 186.185 -3.7992 3.64071 0
M  V30 2152 O 185.211 -3.65249 4.36557 0
M  V30 2153 N 186.413 -4.96973 2.99997 0
M  V30 2154 H 189.178 -0.901974 2.85805 0
M  V30 2155 H 186.739 -0.346513 1.58148 0
M  V30 2156 H 188.731 -3.36034 2.25529 0
M  V30 2157 H 187.301 -2.82545 1.33742 0
M  V30 2158 H 186.521 -1.7029 3.5552 0
M  V30 2159 H 187.809 -2.61024 4.36742 0
M  V30 2160 H 187.207 -5.11794 2.41004 0
M  V30 2161 H 185.764 -5.7229 3.11974 0
M  V30 2162 N 189.197 -1.51736 -0.425897 0
M  V30 2163 C 190.445 -1.64644 -1.17204 0
M  V30 2164 C 190.766 -0.370486 -1.91448 0
M  V30 2165 O 190.036 0.614088 -1.86026 0
M  V30 2166 H 188.616 -0.606819 -0.435638 0
M  V30 2167 H 191.278 -1.88713 -0.487177 0
M  V30 2168 H 190.374 -2.47958 -1.89534 0
M  V30 2169 N 190.675 0.682077 -1.42076 0
M  V30 2170 C 191.921 1.44428 -1.42367 0
M  V30 2171 C 192.254 1.94164 -0.0373056 0
M  V30 2172 O 191.529 1.70429 0.937239 0
M  V30 2173 C 191.812 2.64654 -2.44194 0
M  V30 2174 C 191.665 2.20596 -3.91991 0
M  V30 2175 C 192.984 3.66865 -2.431 0
M  V30 2176 H 190.103 0.523834 -0.518428 0
M  V30 2177 H 192.745 0.77576 -1.73442 0
M  V30 2178 H 190.895 3.2169 -2.17826 0
M  V30 2179 H 192.567 1.68783 -4.29313 0
M  V30 2180 H 190.81 1.52242 -4.06208 0
M  V30 2181 H 191.481 3.06921 -4.58807 0
M  V30 2182 H 193.957 3.19531 -2.66532 0
M  V30 2183 H 192.833 4.48577 -3.16339 0
M  V30 2184 H 193.094 4.17493 -1.45437 0
M  V30 2185 N 192.153 1.28127 0.917671 0
M  V30 2186 C 193.402 1.14432 1.66097 0
M  V30 2187 C 193.715 -0.307247 1.93172 0
M  V30 2188 O 194.921 -0.565259 2.65551 0
M  V30 2189 C 193.377 2.00015 2.99202 0
M  V30 2190 C 192.985 3.49889 2.79789 0
M  V30 2191 C 194.729 1.94996 3.77064 0
M  V30 2192 C 192.636 4.27636 4.08511 0
M  V30 2193 H 191.566 0.424662 0.62304 0
M  V30 2194 H 194.217 1.52628 1.01868 0
M  V30 2195 H 192.599 1.54672 3.64544 0
M  V30 2196 H 193.773 4.03162 2.23152 0
M  V30 2197 H 192.088 3.56392 2.15345 0
M  V30 2198 H 194.685 2.50354 4.72469 0
M  V30 2199 H 195.028 0.925819 4.05875 0
M  V30 2200 H 195.561 2.38287 3.18534 0
M  V30 2201 H 192.3 5.30615 3.84874 0
M  V30 2202 H 191.82 3.79137 4.64774 0
M  V30 2203 H 193.499 4.37346 4.76799 0
M  V30 2204 N 193.631 -1.12557 1.10312 0
M  V30 2205 C 194.541 -2.21841 0.763142 0
M  V30 2206 C 195.557 -1.72354 -0.238801 0
M  V30 2207 O 196.733 -2.01249 -0.0778746 0
M  V30 2208 C 193.798 -3.46131 0.198632 0
M  V30 2209 C 192.859 -4.10464 1.25769 0
M  V30 2210 C 192.092 -5.28821 0.72002 0
M  V30 2211 O 192.315 -5.6859 -0.453993 0
M  V30 2212 O 191.249 -5.83437 1.47935 0
M  V30 2213 H 195.075 -2.53312 1.67532 0
M  V30 2214 H 192.66 -1.20867 0.878157 0
M  V30 2215 H 194.542 -4.2125 -0.112401 0
M  V30 2216 H 193.217 -3.16338 -0.686419 0
M  V30 2217 H 192.124 -3.3713 1.62156 0
M  V30 2218 H 193.457 -4.44408 2.11571 0
M  V30 2219 N 195.109 -0.891671 -1.2995 0
M  V30 2220 C 196.339 -0.527893 -1.99742 0
M  V30 2221 C 196.747 0.88979 -1.66971 0
M  V30 2222 O 196.09 1.59766 -0.906667 0
M  V30 2223 C 196.152 -0.630804 -3.53922 0
M  V30 2224 C 195.816 -2.01401 -4.10228 0
M  V30 2225 C 196.813 -2.98422 -4.25724 0
M  V30 2226 C 194.498 -2.32121 -4.45449 0
M  V30 2227 C 196.492 -4.24293 -4.75662 0
M  V30 2228 C 194.179 -3.58237 -4.95086 0
M  V30 2229 C 195.177 -4.54137 -5.10146 0
M  V30 2230 O 194.865 -5.78014 -5.58708 0
M  V30 2231 H 194.597 -0.201953 -0.645129 0
M  V30 2232 H 197.151 -1.20076 -1.66646 0
M  V30 2233 H 195.381 0.0990616 -3.86573 0
M  V30 2234 H 197.07 -0.277338 -4.04951 0
M  V30 2235 H 197.836 -2.76001 -3.98809 0
M  V30 2236 H 193.715 -1.5824 -4.32991 0
M  V30 2237 H 197.259 -4.99153 -4.87332 0
M  V30 2238 H 193.156 -3.80491 -5.21437 0
M  V30 2239 H 193.924 -5.8049 -5.77039 0
M  V30 2240 N 196.587 1.43421 -0.653314 0
M  V30 2241 C 197.534 2.30768 0.0382271 0
M  V30 2242 C 198.504 1.44755 0.814576 0
M  V30 2243 O 199.689 1.73624 0.791162 0
M  V30 2244 C 196.829 3.30336 0.998599 0
M  V30 2245 C 195.942 4.31448 0.218342 0
M  V30 2246 C 195.077 5.18098 1.17252 0
M  V30 2247 C 194.116 6.10902 0.382702 0
M  V30 2248 N 193.253 6.90176 1.28848 0
M  V30 2249 H 198.093 2.89357 -0.712511 0
M  V30 2250 H 195.63 1.42548 -0.363128 0
M  V30 2251 H 197.588 3.86572 1.56901 0
M  V30 2252 H 196.218 2.73397 1.71621 0
M  V30 2253 H 195.27 3.77506 -0.46836 0
M  V30 2254 H 196.582 4.97227 -0.395812 0
M  V30 2255 H 195.736 5.7896 1.81356 0
M  V30 2256 H 194.475 4.52444 1.82058 0
M  V30 2257 H 193.48 5.49128 -0.27169 0
M  V30 2258 H 194.705 6.78598 -0.260957 0
M  V30 2259 H 192.651 6.27171 1.92334 0
M  V30 2260 H 192.568 7.52478 0.728887 0
M  V30 2261 H 193.836 7.55543 1.91766 0
M  V30 2262 N 198.065 0.39524 1.52563 0
M  V30 2263 C 198.975 -0.444232 2.30356 0
M  V30 2264 C 199.991 -1.06615 1.37511 0
M  V30 2265 O 201.167 -1.07067 1.70583 0
M  V30 2266 C 198.232 -1.55315 3.09964 0
M  V30 2267 C 197.293 -0.955734 4.18526 0
M  V30 2268 C 196.526 -2.01181 4.9433 0
M  V30 2269 O 196.749 -3.22781 4.70285 0
M  V30 2270 O 195.683 -1.62579 5.79527 0
M  V30 2271 H 199.509 0.189667 3.03107 0
M  V30 2272 H 197.094 0.1588 1.48554 0
M  V30 2273 H 198.976 -2.19724 3.59582 0
M  V30 2274 H 197.651 -2.17191 2.4002 0
M  V30 2275 H 196.558 -0.274743 3.7309 0
M  V30 2276 H 197.891 -0.381109 4.90722 0
M  V30 2277 N 199.544 -1.57102 0.125237 0
M  V30 2278 C 200.491 -2.15641 -0.822655 0
M  V30 2279 C 201.461 -1.08313 -1.25927 0
M  V30 2280 O 202.646 -1.36251 -1.33567 0
M  V30 2281 C 199.786 -2.76504 -2.06494 0
M  V30 2282 C 198.899 -3.98158 -1.67612 0
M  V30 2283 C 198.034 -4.47088 -2.86854 0
M  V30 2284 C 197.073 -5.6126 -2.44242 0
M  V30 2285 N 196.21 -6.04905 -3.56419 0
M  V30 2286 H 201.05 -2.96313 -0.316625 0
M  V30 2287 H 198.587 -1.46388 -0.144588 0
M  V30 2288 H 200.545 -3.09925 -2.79289 0
M  V30 2289 H 199.175 -1.98512 -2.54545 0
M  V30 2290 H 198.227 -3.70858 -0.846661 0
M  V30 2291 H 199.539 -4.80934 -1.32301 0
M  V30 2292 H 198.693 -4.82451 -3.67867 0
M  V30 2293 H 197.432 -3.63275 -3.25396 0
M  V30 2294 H 196.437 -5.25495 -1.61663 0
M  V30 2295 H 197.662 -6.46843 -2.0681 0
M  V30 2296 H 195.608 -5.24032 -3.94623 0
M  V30 2297 H 195.525 -6.82552 -3.25051 0
M  V30 2298 H 196.793 -6.44907 -4.37853 0
M  V30 2299 N 201.022 0.148545 -1.56898 0
M  V30 2300 C 202.269 0.861418 -1.83264 0
M  V30 2301 C 202.597 1.81239 -0.705883 0
M  V30 2302 O 201.852 1.93305 0.305212 0
M  V30 2303 C 202.151 1.67064 -3.1595 0
M  V30 2304 C 201.817 0.866591 -4.42494 0
M  V30 2305 C 200.479 0.644762 -4.76861 0
M  V30 2306 C 202.831 0.30418 -5.20312 0
M  V30 2307 C 200.159 -0.15021 -5.86508 0
M  V30 2308 C 202.511 -0.477824 -6.30793 0
M  V30 2309 C 201.175 -0.710244 -6.63711 0
M  V30 2310 H 200.445 0.315215 -0.670612 0
M  V30 2311 H 203.092 0.125142 -1.91091 0
M  V30 2312 H 201.397 2.47698 -3.03567 0
M  V30 2313 H 203.094 2.22566 -3.33565 0
M  V30 2314 H 199.684 1.04955 -4.15551 0
M  V30 2315 H 203.868 0.462844 -4.94137 0
M  V30 2316 H 199.124 -0.339796 -6.10455 0
M  V30 2317 H 203.298 -0.92076 -6.90286 0
M  V30 2318 H 200.925 -1.3281 -7.48509 0
M  V30 2319 N 202.5 1.5196 0.417844 0
M  V30 2320 C 203.748 1.65263 1.16329 0
M  V30 2321 C 204.069 0.380634 1.91249 0
M  V30 2322 O 203.339 -0.604214 1.86349 0
M  V30 2323 H 201.919 0.60912 0.432414 0
M  V30 2324 H 204.581 1.88969 0.477162 0
M  V30 2325 H 203.677 2.4896 1.88217 0
M  V30 2326 N 203.978 -0.674533 1.42435 0
M  V30 2327 C 205.225 -1.43459 1.42919 0
M  V30 2328 C 205.553 -1.94446 0.0457312 0
M  V30 2329 O 204.808 -1.7132 -0.94593 0
M  V30 2330 C 205.107 -2.64767 2.40069 0
M  V30 2331 C 204.773 -2.3232 3.86443 0
M  V30 2332 C 203.435 -2.23182 4.26314 0
M  V30 2333 C 205.787 -2.05977 4.78773 0
M  V30 2334 C 203.115 -1.85827 5.56494 0
M  V30 2335 C 205.467 -1.70125 6.09295 0
M  V30 2336 C 204.131 -1.59498 6.48164 0
M  V30 2337 H 203.401 -0.524952 0.522978 0
M  V30 2338 H 206.048 -0.769097 1.75377 0
M  V30 2339 H 204.353 -3.36349 2.00939 0
M  V30 2340 H 206.05 -3.22949 2.37707 0
M  V30 2341 H 202.64 -2.40334 3.54877 0
M  V30 2342 H 206.824 -2.11969 4.48757 0
M  V30 2343 H 202.08 -1.76168 5.8547 0
M  V30 2344 H 206.254 -1.48767 6.80324 0
M  V30 2345 H 203.881 -1.30322 7.48946 0
M  V30 2346 N 205.456 -1.28612 -0.910864 0
M  V30 2347 C 206.733 -1.06632 -1.63979 0
M  V30 2348 C 207.113 0.393351 -2.07403 0
M  V30 2349 O 206.461 1.37999 -1.82122 0
M  V30 2350 C 206.671 -2.0436 -2.8291 0
M  V30 2351 C 208.019 -2.34666 -3.5386 0
M  V30 2352 O 209.043 -2.02467 -2.93062 0
M  V30 2353 O 207.902 -2.89631 -4.63439 0
M  V30 2354 H 204.996 -0.407737 -0.7195 0
M  V30 2355 H 207.542 -1.39942 -0.959914 0
M  V30 2356 H 206.314 -3.02727 -2.47936 0
M  V30 2357 H 205.937 -1.71714 -3.58609 0
M  V30 2358 N 206.934 1.1197 -1.10907 0
M  V30 2359 C 208.345 1.65114 -0.871446 0
M  V30 2360 C 208.696 1.86885 0.597353 0
M  V30 2361 O 207.821 1.59896 1.45816 0
M  V30 2362 C 208.416 2.99944 -1.5754 0
M  V30 2363 C 206.975 3.50018 -1.38435 0
M  V30 2364 C 206.122 2.24941 -1.62164 0
M  V30 2365 H 209.073 0.956851 -1.2661 0
M  V30 2366 H 209.094 3.66651 -1.01721 0
M  V30 2367 H 208.606 2.84067 -2.64438 0
M  V30 2368 H 206.707 3.71071 -0.337214 0
M  V30 2369 H 206.82 4.29165 -2.12965 0
M  V30 2370 H 205.184 2.3229 -1.04467 0
M  V30 2371 H 205.967 2.11612 -2.70324 0
M  V30 2372 N 208.412 0.89855 1.29475 0
M  V30 2373 C 209.659 0.523882 1.95606 0
M  V30 2374 C 209.987 -0.929608 1.70847 0
M  V30 2375 O 209.242 -1.67401 1.01367 0
M  V30 2376 C 209.541 0.761398 3.49195 0
M  V30 2377 C 209.207 2.19207 3.94029 0
M  V30 2378 C 207.869 2.58326 4.05982 0
M  V30 2379 C 210.221 3.12379 4.17216 0
M  V30 2380 C 207.549 3.898 4.38489 0
M  V30 2381 C 209.901 4.43401 4.51197 0
M  V30 2382 C 208.565 4.82394 4.61359 0
M  V30 2383 H 207.835 0.191702 0.715773 0
M  V30 2384 H 210.482 1.13699 1.54094 0
M  V30 2385 H 208.787 0.0653622 3.91745 0
M  V30 2386 H 210.484 0.450904 3.98457 0
M  V30 2387 H 207.074 1.87846 3.85242 0
M  V30 2388 H 211.258 2.83371 4.07449 0
M  V30 2389 H 206.514 4.19734 4.44559 0
M  V30 2390 H 210.688 5.15623 4.68087 0
M  V30 2391 H 208.315 5.84306 4.86303 0
M  V30 2392 N 209.89 -1.43072 0.660911 0
M  V30 2393 C 211.139 -2.00942 0.174735 0
M  V30 2394 C 211.452 -1.52797 -1.22117 0
M  V30 2395 O 212.658 -2.02991 -1.80297 0
M  V30 2396 C 211.114 -3.58948 0.261559 0
M  V30 2397 C 210.722 -4.16085 1.66064 0
M  V30 2398 C 212.466 -4.24173 -0.166617 0
M  V30 2399 C 210.373 -5.6641 1.70098 0
M  V30 2400 H 209.303 -0.751483 0.0615631 0
M  V30 2401 H 211.954 -1.63955 0.824069 0
M  V30 2402 H 210.336 -3.93372 -0.455421 0
M  V30 2403 H 211.51 -3.93147 2.40359 0
M  V30 2404 H 209.825 -3.6326 2.03546 0
M  V30 2405 H 212.422 -5.34471 -0.156433 0
M  V30 2406 H 212.765 -3.98647 -1.19943 0
M  V30 2407 H 213.298 -3.94659 0.498875 0
M  V30 2408 H 210.037 -5.96715 2.71315 0
M  V30 2409 H 209.557 -5.91382 1.00139 0
M  V30 2410 H 211.236 -6.30585 1.44816 0
M  V30 2411 N 211.368 -0.403325 -1.52352 0
M  V30 2412 C 212.593 0.176499 -2.06648 0
M  V30 2413 C 213.018 1.38577 -1.27193 0
M  V30 2414 O 212.376 1.7879 -0.300637 0
M  V30 2415 C 212.424 0.511061 -3.5696 0
M  V30 2416 O 211.528 1.60294 -3.79973 0
M  V30 2417 H 210.869 0.0167337 -0.663789 0
M  V30 2418 H 213.399 -0.574848 -1.96359 0
M  V30 2419 H 213.409 0.771362 -4.00642 0
M  V30 2420 H 212.084 -0.37296 -4.14224 0
M  V30 2421 H 210.661 1.33526 -3.48174 0
M  V30 2422 N 212.846 1.57033 -0.133567 0
M  V30 2423 C 214.074 2.00044 0.528195 0
M  V30 2424 C 214.489 1.01349 1.59291 0
M  V30 2425 O 213.846 0.00848369 1.82498 0
M  V30 2426 C 213.897 3.43018 1.1411 0
M  V30 2427 O 213.618 4.37939 0.11892 0
M  V30 2428 C 215.119 4.01237 1.88477 0
M  V30 2429 H 212.339 0.656517 0.138661 0
M  V30 2430 H 214.883 2.03267 -0.224196 0
M  V30 2431 H 213.038 3.40688 1.84418 0
M  V30 2432 H 213.452 5.21436 0.56613 0
M  V30 2433 H 214.926 5.03314 2.26669 0
M  V30 2434 H 215.403 3.41193 2.76558 0
M  V30 2435 H 216.009 4.07156 1.22898 0
M  V30 2436 N 214.325 -0.140222 1.56975 0
M  V30 2437 C 215.273 -1.19207 1.99731 0
M  V30 2438 C 216.267 -1.44089 0.890777 0
M  V30 2439 O 217.473 -1.44301 1.07597 0
M  V30 2440 H 213.848 -0.40142 0.635898 0
M  V30 2441 H 215.819 -0.804813 2.87342 0
M  V30 2442 C 214.568 -2.51617 2.39967 0
M  V30 2443 H 213.891 -2.33303 3.24669 0
M  V30 2444 H 215.331 -3.23827 2.73701 0
M  V30 2445 C 213.79 -3.12654 1.25496 0
M  V30 2446 O 214.32 -3.97786 0.559371 0
M  V30 2447 N 212.526 -2.72206 1.01746 0
M  V30 2448 H 212.073 -2.03074 1.58489 0
M  V30 2449 H 212.031 -3.13377 0.253461 0
M  V30 2450 N 215.803 -1.52179 -0.40978 0
M  V30 2451 C 217.052 -1.65434 -1.15388 0
M  V30 2452 C 217.365 -0.390056 -1.91671 0
M  V30 2453 O 218.571 -0.402399 -2.68501 0
M  V30 2454 C 217.027 -2.92279 -2.10003 0
M  V30 2455 C 216.635 -4.25813 -1.39239 0
M  V30 2456 C 218.379 -3.14897 -2.84675 0
M  V30 2457 C 216.286 -5.43782 -2.32498 0
M  V30 2458 H 215.216 -0.616267 -0.434432 0
M  V30 2459 H 217.867 -1.78666 -0.418401 0
M  V30 2460 H 216.249 -2.72744 -2.871 0
M  V30 2461 H 217.423 -4.55828 -0.675099 0
M  V30 2462 H 215.738 -4.09292 -0.766097 0
M  V30 2463 H 218.335 -4.0021 -3.54593 0
M  V30 2464 H 218.678 -2.29103 -3.47588 0
M  V30 2465 H 219.211 -3.34901 -2.14677 0
M  V30 2466 H 215.95 -6.3192 -1.74233 0
M  V30 2467 H 215.47 -5.18106 -3.02201 0
M  V30 2468 H 217.149 -5.76834 -2.93038 0
M  V30 2469 N 217.281 0.66697 -1.42791 0
M  V30 2470 C 218.213 1.7925 -1.42836 0
M  V30 2471 C 219.226 1.59496 -0.326333 0
M  V30 2472 O 220.415 1.6847 -0.589916 0
M  V30 2473 C 217.515 3.16476 -1.21229 0
M  V30 2474 C 216.688 3.63011 -2.44013 0
M  V30 2475 C 215.747 4.78993 -2.17834 0
M  V30 2476 O 214.773 4.89137 -2.91091 0
M  V30 2477 N 215.975 5.68248 -1.18635 0
M  V30 2478 H 218.74 1.79695 -2.39854 0
M  V30 2479 H 216.301 0.850338 -1.37771 0
M  V30 2480 H 218.293 3.91734 -1.01621 0
M  V30 2481 H 216.863 3.10884 -0.32706 0
M  V30 2482 H 216.083 2.78346 -2.79137 0
M  V30 2483 H 217.371 3.90845 -3.25757 0
M  V30 2484 H 216.769 5.62712 -0.580615 0
M  V30 2485 H 215.326 6.43285 -1.05013 0
M  V30 2486 N 218.759 1.29093 0.90403 0
M  V30 2487 C 219.989 1.19516 1.68522 0
M  V30 2488 C 220.397 -0.24738 1.87576 0
M  V30 2489 O 219.74 -1.17798 1.40959 0
M  V30 2490 C 219.802 1.83249 3.0929 0
M  V30 2491 C 219.466 3.32531 3.13484 0
M  V30 2492 C 220.463 4.28821 2.93953 0
M  V30 2493 C 218.148 3.73656 3.35688 0
M  V30 2494 C 220.142 5.64212 2.96553 0
M  V30 2495 C 217.829 5.0917 3.37919 0
M  V30 2496 C 218.827 6.04258 3.18373 0
M  V30 2497 O 218.515 7.37298 3.20385 0
M  V30 2498 H 218.247 0.415467 0.533257 0
M  V30 2499 H 220.801 1.70912 1.13922 0
M  V30 2500 H 219.031 1.26358 3.65473 0
M  V30 2501 H 220.72 1.68054 3.69476 0
M  V30 2502 H 221.486 3.98382 2.76616 0
M  V30 2503 H 217.365 3.00101 3.49943 0
M  V30 2504 H 220.909 6.38407 2.81216 0
M  V30 2505 H 216.806 5.39256 3.54787 0
M  V30 2506 H 217.574 7.46048 3.36681 0
M  V30 2507 N 220.237 -1.11381 1.11499 0
M  V30 2508 C 221.484 -1.83132 0.864231 0
M  V30 2509 C 221.812 -1.84683 -0.610114 0
M  V30 2510 O 221.067 -1.29589 -1.46646 0
M  V30 2511 C 221.366 -3.30026 1.37177 0
M  V30 2512 C 221.032 -3.48634 2.85946 0
M  V30 2513 C 219.694 -3.53421 3.26569 0
M  V30 2514 C 222.046 -3.54837 3.81759 0
M  V30 2515 C 219.374 -3.61967 4.61733 0
M  V30 2516 C 221.726 -3.64915 5.1674 0
M  V30 2517 C 220.39 -3.67962 5.5692 0
M  V30 2518 H 219.66 -0.670127 0.316245 0
M  V30 2519 H 222.307 -1.31354 1.3935 0
M  V30 2520 H 220.612 -3.84304 0.762753 0
M  V30 2521 H 222.309 -3.84034 1.15408 0
M  V30 2522 H 218.899 -3.45579 2.53521 0
M  V30 2523 H 223.083 -3.50399 3.51474 0
M  V30 2524 H 218.339 -3.62603 4.92269 0
M  V30 2525 H 222.513 -3.68658 5.90816 0
M  V30 2526 H 220.14 -3.74336 6.61647 0
M  V30 2527 N 221.715 -0.905404 -1.28997 0
M  V30 2528 C 222.645 -0.404212 -2.29975 0
M  V30 2529 C 223.626 0.523784 -1.61835 0
M  V30 2530 O 224.811 0.433298 -1.89304 0
M  V30 2531 C 221.941 0.364042 -3.45387 0
M  V30 2532 C 220.895 -0.474048 -4.25367 0
M  V30 2533 C 220.221 0.422045 -5.33032 0
M  V30 2534 C 221.521 -1.72696 -4.92923 0
M  V30 2535 H 223.215 -1.24807 -2.72146 0
M  V30 2536 H 220.761 -0.601585 -1.30832 0
M  V30 2537 H 222.714 0.725447 -4.15109 0
M  V30 2538 H 221.438 1.24174 -3.02074 0
M  V30 2539 H 220.097 -0.81786 -3.57361 0
M  V30 2540 H 219.745 1.29804 -4.85963 0
M  V30 2541 H 219.445 -0.135057 -5.87445 0
M  V30 2542 H 220.969 0.779517 -6.05604 0
M  V30 2543 H 222.383 -1.43495 -5.55051 0
M  V30 2544 H 220.78 -2.22582 -5.57295 0
M  V30 2545 H 221.85 -2.45964 -4.17887 0
M  V30 2546 N 223.193 1.4272 -0.668489 0
M  V30 2547 C 224.47 1.95248 -0.117373 0
M  V30 2548 C 224.85 1.60919 1.36632 0
M  V30 2549 O 224.198 0.902095 2.09939 0
M  V30 2550 C 224.408 3.46927 -0.379806 0
M  V30 2551 C 225.756 4.23588 -0.292923 0
M  V30 2552 O 226.78 3.5482 -0.313204 0
M  V30 2553 O 225.639 5.46017 -0.229697 0
M  V30 2554 H 222.733 0.827 0.00079152 0
M  V30 2555 H 225.279 1.52581 -0.742783 0
M  V30 2556 H 224.051 3.65096 -1.40786 0
M  V30 2557 H 223.674 3.96627 0.277923 0
M  V30 2558 N 224.671 0.411399 1.52136 0
M  V30 2559 C 226.087 0.0623865 1.59478 0
M  V30 2560 C 226.287 -1.42554 1.4241 0
M  V30 2561 O 225.343 -2.19263 1.2522 0
M  V30 2562 C 226.656 0.559331 2.95452 0
M  V30 2563 C 228.204 0.517503 3.08692 0
M  V30 2564 C 228.679 0.990994 4.4715 0
M  V30 2565 N 230.17 0.947908 4.53397 0
M  V30 2566 C 230.905 1.28544 5.58806 0
M  V30 2567 N 230.401 1.69454 6.71757 0
M  V30 2568 N 232.194 1.20526 5.49026 0
M  V30 2569 H 224.345 1.37982 1.61477 0
M  V30 2570 H 226.608 0.566977 0.759764 0
M  V30 2571 H 226.314 1.59938 3.1323 0
M  V30 2572 H 226.188 -0.0298014 3.77188 0
M  V30 2573 H 228.575 -0.513505 2.90598 0
M  V30 2574 H 228.656 1.14272 2.28857 0
M  V30 2575 H 228.3 2.02034 4.65988 0
M  V30 2576 H 228.23 0.34257 5.25485 0
M  V30 2577 H 230.721 0.647157 3.72317 0
M  V30 2578 H 231.034 1.93513 7.48179 0
M  V30 2579 H 229.379 1.73359 6.73032 0
M  V30 2580 H 232.57 0.884505 4.59667 0
M  V30 2581 H 232.743 1.47161 6.31069 0
M  V30 2582 N 226.149 -1.5696 0.141893 0
M  V30 2583 C 227.396 -1.9596 -0.510492 0
M  V30 2584 C 227.724 -1.02648 -1.65208 0
M  V30 2585 O 226.979 -0.0546947 -1.95624 0
M  V30 2586 C 227.278 -3.41242 -1.06249 0
M  V30 2587 C 226.944 -4.50882 -0.0398791 0
M  V30 2588 C 225.606 -4.80595 0.241247 0
M  V30 2589 C 227.958 -5.17058 0.65578 0
M  V30 2590 C 225.286 -5.73792 1.22393 0
M  V30 2591 C 227.638 -6.11313 1.62724 0
M  V30 2592 C 226.302 -6.39407 1.91612 0
M  V30 2593 H 225.572 -0.717068 -0.186802 0
M  V30 2594 H 228.219 -1.90142 0.227643 0
M  V30 2595 H 226.524 -3.43866 -1.87785 0
M  V30 2596 H 228.221 -3.68742 -1.57576 0
M  V30 2597 H 224.811 -4.27754 -0.269174 0
M  V30 2598 H 228.995 -4.94239 0.451779 0
M  V30 2599 H 224.251 -5.93853 1.45424 0
M  V30 2600 H 228.425 -6.61668 2.17183 0
M  V30 2601 H 226.052 -7.11427 2.6791 0
M  V30 2602 N 227.627 0.131896 -1.57047 0
M  V30 2603 C 228.857 0.855219 -1.88068 0
M  V30 2604 C 229.265 1.74557 -0.729817 0
M  V30 2605 O 228.608 1.81083 0.308962 0
M  V30 2606 C 228.67 1.75119 -3.13964 0
M  V30 2607 C 228.334 1.03646 -4.45091 0
M  V30 2608 C 229.331 0.383276 -5.18485 0
M  V30 2609 C 227.016 1.02148 -4.91804 0
M  V30 2610 C 229.01 -0.275347 -6.36805 0
M  V30 2611 C 226.697 0.359047 -6.10044 0
M  V30 2612 C 227.695 -0.288222 -6.82392 0
M  V30 2613 O 227.383 -0.94011 -7.98384 0
M  V30 2614 H 227.115 0.251864 -0.627328 0
M  V30 2615 H 229.669 0.124782 -2.05021 0
M  V30 2616 H 227.899 2.52295 -2.9306 0
M  V30 2617 H 229.588 2.3478 -3.31109 0
M  V30 2618 H 230.354 0.386562 -4.83457 0
M  V30 2619 H 226.233 1.5147 -4.35405 0
M  V30 2620 H 229.777 -0.781148 -6.93213 0
M  V30 2621 H 225.674 0.35348 -6.44531 0
M  V30 2622 H 226.442 -0.84329 -8.14144 0
M  V30 2623 N 229.106 1.52395 0.401703 0
M  V30 2624 C 230.334 1.70676 1.16949 0
M  V30 2625 C 230.749 0.419503 1.8408 0
M  V30 2626 O 230.106 -0.605061 1.72178 0
M  V30 2627 C 230.157 2.84753 2.22706 0
M  V30 2628 O 229.878 4.08495 1.58314 0
M  V30 2629 C 231.379 3.14608 3.12309 0
M  V30 2630 H 228.599 0.571787 0.351142 0
M  V30 2631 H 231.143 1.98987 0.471652 0
M  V30 2632 H 229.298 2.58941 2.88147 0
M  V30 2633 H 229.712 4.72117 2.28485 0
M  V30 2634 H 231.186 3.97923 3.82572 0
M  V30 2635 H 231.663 2.28464 3.75101 0
M  V30 2636 H 232.269 3.42212 2.52529 0
M  V30 2637 N 230.584 -0.659388 1.43143 0
M  V30 2638 C 231.532 -1.79374 1.4808 0
M  V30 2639 C 232.526 -1.65639 0.354988 0
M  V30 2640 O 233.732 -1.7206 0.528704 0
M  V30 2641 H 230.107 -0.591705 0.4641 0
M  V30 2642 H 232.078 -1.72329 2.43609 0
M  V30 2643 C 230.827 -3.17606 1.41499 0
M  V30 2644 H 230.15 -3.28809 2.27431 0
M  V30 2645 H 231.59 -3.96951 1.49015 0
M  V30 2646 C 230.049 -3.36642 0.131765 0
M  V30 2647 O 230.579 -3.93461 -0.809386 0
M  V30 2648 N 228.785 -2.90567 0.0439396 0
M  V30 2649 H 228.332 -2.44513 0.810619 0
M  V30 2650 H 228.29 -3.03681 -0.813969 0
M  V30 2651 N 232.062 -1.29571 -0.897171 0
M  V30 2652 C 233.478 -1.07637 -1.17841 0
M  V30 2653 C 233.678 0.170713 -2.00776 0
M  V30 2654 O 232.734 0.867768 -2.3712 0
M  V30 2655 C 234.047 -2.3332 -1.8969 0
M  V30 2656 C 235.595 -2.38664 -2.02505 0
M  V30 2657 C 236.07 -3.64157 -2.77765 0
M  V30 2658 N 237.561 -3.64894 -2.85318 0
M  V30 2659 C 238.296 -4.58679 -3.44094 0
M  V30 2660 N 237.792 -5.62799 -4.04017 0
M  V30 2661 N 239.585 -4.46245 -3.41793 0
M  V30 2662 H 231.736 -2.09598 -0.343883 0
M  V30 2663 H 233.999 -0.923333 -0.214848 0
M  V30 2664 H 233.705 -3.24262 -1.36187 0
M  V30 2665 H 233.579 -2.41025 -2.9015 0
M  V30 2666 H 235.966 -1.48208 -2.55183 0
M  V30 2667 H 236.047 -2.34943 -1.01171 0
M  V30 2668 H 235.691 -4.54965 -2.25763 0
M  V30 2669 H 235.621 -3.65137 -3.7945 0
M  V30 2670 H 238.112 -2.89613 -2.42761 0
M  V30 2671 H 238.425 -6.3048 -4.46895 0
M  V30 2672 H 236.77 -5.66605 -4.02472 0
M  V30 2673 H 239.961 -3.64094 -2.94199 0
M  V30 2674 H 240.134 -5.19518 -3.87304 0
M  V30 2675 N 233.54 1.10788 -1.12088 0
M  V30 2676 C 234.789 1.82036 -0.868659 0
M  V30 2677 C 235.102 1.85929 0.607426 0
M  V30 2678 O 236.308 2.53346 0.97613 0
M  V30 2679 C 234.764 3.26951 -1.50435 0
M  V30 2680 C 234.372 3.31367 -3.01496 0
M  V30 2681 C 236.116 4.03053 -1.33225 0
M  V30 2682 C 234.023 4.7072 -3.58017 0
M  V30 2683 H 232.953 0.682108 -0.321318 0
M  V30 2684 H 235.604 1.24618 -1.34694 0
M  V30 2685 H 233.986 3.84343 -0.953735 0
M  V30 2686 H 235.16 2.83819 -3.6302 0
M  V30 2687 H 233.475 2.6875 -3.18061 0
M  V30 2688 H 236.072 5.05981 -1.72878 0
M  V30 2689 H 236.415 4.15387 -0.275529 0
M  V30 2690 H 236.948 3.52066 -1.85188 0
M  V30 2691 H 233.687 4.63585 -4.63432 0
M  V30 2692 H 233.207 5.1865 -3.01268 0
M  V30 2693 H 234.886 5.39685 -3.56859 0
M  V30 2694 N 235.018 0.912232 1.28515 0
M  V30 2695 C 236.243 0.559774 1.99703 0
M  V30 2696 C 236.668 -0.851393 1.67729 0
M  V30 2697 O 236.026 -1.56875 0.908834 0
M  V30 2698 C 236.074 0.773874 3.52198 0
M  V30 2699 O 235.178 -0.167842 4.12058 0
M  V30 2700 H 234.519 0.21723 0.627461 0
M  V30 2701 H 237.049 1.22725 1.63706 0
M  V30 2702 H 237.059 0.683386 4.02236 0
M  V30 2703 H 235.734 1.80261 3.74805 0
M  V30 2704 H 234.311 -0.0287509 3.72889 0
M  V30 2705 N 236.496 -1.42363 0.676048 0
M  V30 2706 C 237.743 -2.01522 0.19883 0
M  V30 2707 C 238.071 -1.53456 -1.19505 0
M  V30 2708 O 237.326 -0.727967 -1.81657 0
M  V30 2709 C 237.625 -3.56929 0.183431 0
M  V30 2710 C 237.291 -4.24431 1.52215 0
M  V30 2711 C 235.953 -4.42585 1.8887 0
M  V30 2712 C 238.305 -4.62459 2.40377 0
M  V30 2713 C 235.633 -4.96039 3.13309 0
M  V30 2714 C 237.985 -5.17294 3.64129 0
M  V30 2715 C 236.649 -5.33661 4.00951 0
M  V30 2716 H 235.919 -0.737419 0.0727571 0
M  V30 2717 H 238.566 -1.70531 0.871281 0
M  V30 2718 H 236.871 -3.87594 -0.572532 0
M  V30 2719 H 238.568 -4.00486 -0.203035 0
M  V30 2720 H 235.158 -4.10661 1.22701 0
M  V30 2721 H 239.342 -4.48105 2.13343 0
M  V30 2722 H 234.598 -5.06896 3.41857 0
M  V30 2723 H 238.772 -5.45704 4.32644 0
M  V30 2724 H 236.399 -5.74845 4.9745 0
M  V30 2725 N 237.974 -0.419461 -1.51915 0
M  V30 2726 C 239.39 -0.0708431 -1.59443 0
M  V30 2727 C 239.59 1.41796 -1.43164 0
M  V30 2728 O 238.646 2.18596 -1.26381 0
M  V30 2729 C 239.959 -0.574991 -2.95151 0
M  V30 2730 C 241.507 -0.533867 -3.08413 0
M  V30 2731 C 241.982 -1.01469 -4.46618 0
M  V30 2732 N 243.473 -0.971939 -4.52888 0
M  V30 2733 C 244.208 -1.31505 -5.58116 0
M  V30 2734 N 243.704 -1.73014 -6.70849 0
M  V30 2735 N 245.497 -1.23436 -5.48379 0
M  V30 2736 H 237.648 -1.38836 -1.60743 0
M  V30 2737 H 239.911 -0.570998 -0.756747 0
M  V30 2738 H 239.617 -1.61597 -3.12377 0
M  V30 2739 H 239.491 0.00979777 -3.77199 0
M  V30 2740 H 241.878 0.498086 -2.90866 0
M  V30 2741 H 241.959 -1.15484 -2.28248 0
M  V30 2742 H 241.603 -2.04502 -4.6491 0
M  V30 2743 H 241.533 -0.370433 -5.25295 0
M  V30 2744 H 244.024 -0.666893 -3.71969 0
M  V30 2745 H 244.337 -1.97479 -7.47143 0
M  V30 2746 H 242.682 -1.76926 -6.72103 0
M  V30 2747 H 245.873 -0.908869 -4.59192 0
M  V30 2748 H 246.046 -1.50506 -6.30279 0
M  V30 2749 N 239.452 1.56882 -0.150215 0
M  V30 2750 C 240.385 2.12712 0.826358 0
M  V30 2751 C 241.363 1.05154 1.24022 0
M  V30 2752 O 242.547 1.33004 1.33575 0
M  V30 2753 C 239.674 2.64945 2.11002 0
M  V30 2754 C 238.72 3.8468 1.84183 0
M  V30 2755 S 239.553 5.25502 1.02995 0
M  V30 2756 C 240.709 5.81125 2.32474 0
M  V30 2757 H 240.942 2.95214 0.351598 0
M  V30 2758 H 238.475 1.54267 0.0641211 0
M  V30 2759 H 240.433 2.95689 2.84742 0
M  V30 2760 H 239.094 1.82568 2.55593 0
M  V30 2761 H 238.287 4.19482 2.79375 0
M  V30 2762 H 237.889 3.54714 1.1855 0
M  V30 2763 H 240.181 5.92753 3.281 0
M  V30 2764 H 241.124 6.78625 2.02171 0
M  V30 2765 H 241.532 5.09392 2.43269 0
M  V30 2766 N 240.93 -0.123565 1.57115 0
M  V30 2767 C 241.86 -1.15309 2.03042 0
M  V30 2768 C 242.841 -1.43454 0.914061 0
M  V30 2769 O 244.026 -1.53973 1.18347 0
M  V30 2770 C 241.156 -2.48043 2.43089 0
M  V30 2771 C 240.11 -2.3437 3.58127 0
M  V30 2772 C 239.436 -3.72026 3.84059 0
M  V30 2773 C 240.736 -1.80804 4.90007 0
M  V30 2774 H 242.43 -0.771102 2.893 0
M  V30 2775 H 239.976 -0.369479 1.39179 0
M  V30 2776 H 241.929 -3.20311 2.73823 0
M  V30 2777 H 240.653 -2.88122 1.53796 0
M  V30 2778 H 239.312 -1.64551 3.27595 0
M  V30 2779 H 238.96 -4.09582 2.91979 0
M  V30 2780 H 238.66 -3.63732 4.6149 0
M  V30 2781 H 240.184 -4.45806 4.1724 0
M  V30 2782 H 241.598 -2.42886 5.19307 0
M  V30 2783 H 239.995 -1.83343 5.71407 0
M  V30 2784 H 241.065 -0.76528 4.78823 0
M  V30 2785 N 242.408 -1.52605 -0.393616 0
M  V30 2786 C 243.657 -1.66649 -1.13627 0
M  V30 2787 C 243.97 -0.410364 -1.91247 0
M  V30 2788 O 245.176 -0.430854 -2.68059 0
M  V30 2789 C 243.632 -2.9449 -2.06891 0
M  V30 2790 C 243.24 -4.27266 -1.34714 0
M  V30 2791 C 244.984 -3.17899 -2.81319 0
M  V30 2792 C 242.891 -5.46217 -2.26717 0
M  V30 2793 H 241.821 -0.62084 -0.427871 0
M  V30 2794 H 244.472 -1.791 -0.399428 0
M  V30 2795 H 242.854 -2.75774 -2.84191 0
M  V30 2796 H 244.028 -4.56518 -0.626714 0
M  V30 2797 H 242.343 -4.10081 -0.722643 0
M  V30 2798 H 244.94 -4.03949 -3.50328 0
M  V30 2799 H 245.283 -2.32777 -3.45139 0
M  V30 2800 H 245.816 -3.37159 -2.11113 0
M  V30 2801 H 242.555 -6.33733 -1.67521 0
M  V30 2802 H 242.075 -5.21283 -2.96689 0
M  V30 2803 H 243.754 -5.7991 -2.86903 0
M  V30 2804 N 243.887 0.651787 -1.4349 0
M  V30 2805 C 244.835 1.78586 -1.49029 0
M  V30 2806 C 245.829 1.65448 -0.363767 0
M  V30 2807 O 247.035 1.71777 -0.537821 0
M  V30 2808 H 243.41 0.589236 -0.467231 0
M  V30 2809 H 245.381 1.71035 -2.44519 0
M  V30 2810 C 244.13 3.16851 -1.43181 0
M  V30 2811 H 243.453 3.27598 -2.29171 0
M  V30 2812 H 244.893 3.96156 -1.51118 0
M  V30 2813 C 243.352 3.36568 -0.149616 0
M  V30 2814 O 243.882 3.93885 0.788509 0
M  V30 2815 N 242.088 2.90539 -0.0593484 0
M  V30 2816 H 241.635 2.4408 -0.823575 0
M  V30 2817 H 241.593 3.04108 0.797853 0
M  V30 2818 N 245.365 1.30045 0.890287 0
M  V30 2819 C 246.297 1.11786 2.00091 0
M  V30 2820 C 247.31 0.0626307 1.62679 0
M  V30 2821 O 248.499 0.308112 1.75821 0
M  V30 2822 C 245.599 0.681527 3.31977 0
M  V30 2823 C 244.772 1.81735 3.97858 0
M  V30 2824 C 243.831 1.37045 5.08041 0
M  V30 2825 O 242.857 2.07677 5.29961 0
M  V30 2826 N 244.059 0.246525 5.79976 0
M  V30 2827 H 246.824 2.07441 2.16306 0
M  V30 2828 H 244.385 1.2211 1.06305 0
M  V30 2829 H 246.377 0.365675 4.03045 0
M  V30 2830 H 244.947 -0.182828 3.12065 0
M  V30 2831 H 244.167 2.30159 3.20032 0
M  V30 2832 H 245.455 2.57865 4.38615 0
M  V30 2833 H 244.853 -0.34215 5.64664 0
M  V30 2834 H 243.41 -0.00990438 6.51799 0
M  V30 2835 N 246.843 -1.10192 1.12674 0
M  V30 2836 C 247.793 -2.14754 0.765801 0
M  V30 2837 C 248.777 -1.59154 -0.236409 0
M  V30 2838 O 249.969 -1.76951 -0.0415261 0
M  V30 2839 C 247.098 -3.42563 0.224827 0
M  V30 2840 C 246.184 -4.05091 1.25548 0
M  V30 2841 N 246.575 -4.42287 2.4539 0
M  V30 2842 C 244.873 -4.32186 1.10142 0
M  V30 2843 C 245.574 -4.91441 3.11224 0
M  V30 2844 N 244.55 -4.88405 2.38666 0
M  V30 2845 H 248.352 -2.41309 1.67772 0
M  V30 2846 H 245.866 -1.27339 1.00789 0
M  V30 2847 H 247.863 -4.16868 -0.0519578 0
M  V30 2848 H 246.523 -3.17467 -0.681515 0
M  V30 2849 H 247.534 -4.33902 2.82754 0
M  V30 2850 H 244.211 -4.16735 0.252587 0
M  V30 2851 H 245.601 -5.29749 4.13298 0
M  V30 2852 N 248.321 -0.919034 -1.28029 0
M  V30 2853 C 249.549 -0.570971 -1.98866 0
M  V30 2854 C 249.964 0.848996 -1.68634 0
M  V30 2855 O 249.321 1.56307 -0.942036 0
M  V30 2856 C 249.372 -0.776876 -3.53054 0
M  V30 2857 O 249.093 -2.14097 -3.82222 0
M  V30 2858 C 250.594 -0.436356 -4.41147 0
M  V30 2859 H 247.814 -0.217175 -0.634883 0
M  V30 2860 H 250.358 -1.23368 -1.63097 0
M  V30 2861 H 248.513 -0.161085 -3.87065 0
M  V30 2862 H 248.927 -2.18455 -4.76841 0
M  V30 2863 H 250.401 -0.63117 -5.4838 0
M  V30 2864 H 250.878 0.627686 -4.34692 0
M  V30 2865 H 251.484 -1.02991 -4.12641 0
M  V30 2866 N 249.799 1.42003 -0.683588 0
M  V30 2867 C 250.729 2.33487 -0.024866 0
M  V30 2868 C 251.71 1.51163 0.779975 0
M  V30 2869 O 252.895 1.79739 0.735362 0
M  V30 2870 C 250.025 3.3487 0.920836 0
M  V30 2871 C 248.979 4.27414 0.223958 0
M  V30 2872 C 248.305 5.19074 1.2832 0
M  V30 2873 C 249.605 5.14445 -0.90242 0
M  V30 2874 H 251.299 2.88819 -0.788921 0
M  V30 2875 H 248.845 1.38873 -0.38083 0
M  V30 2876 H 250.798 3.97787 1.39081 0
M  V30 2877 H 249.522 2.77861 1.71642 0
M  V30 2878 H 248.181 3.65904 -0.225864 0
M  V30 2879 H 247.829 4.58387 2.071 0
M  V30 2880 H 247.529 5.81822 0.821995 0
M  V30 2881 H 249.053 5.84867 1.75392 0
M  V30 2882 H 250.467 5.70998 -0.513272 0
M  V30 2883 H 248.864 5.86072 -1.28997 0
M  V30 2884 H 249.934 4.52322 -1.74737 0
M  V30 2885 N 251.277 0.427512 1.51691 0
M  V30 2886 C 252.207 -0.3796 2.30394 0
M  V30 2887 C 253.188 -1.02982 1.35384 0
M  V30 2888 O 254.373 -1.03534 1.643 0
M  V30 2889 C 251.503 -1.48649 3.1388 0
M  V30 2890 C 250.457 -0.960294 4.17088 0
M  V30 2891 C 249.783 -2.16219 4.89033 0
M  V30 2892 C 251.083 -0.00153679 5.223 0
M  V30 2893 H 252.777 0.277164 2.98114 0
M  V30 2894 H 250.323 0.134739 1.43368 0
M  V30 2895 H 252.276 -2.05826 3.67714 0
M  V30 2896 H 251 -2.1714 2.43962 0
M  V30 2897 H 249.659 -0.410806 3.64291 0
M  V30 2898 H 249.307 -2.83307 4.15628 0
M  V30 2899 H 249.007 -1.81654 5.58816 0
M  V30 2900 H 250.531 -2.73968 5.45687 0
M  V30 2901 H 251.945 -0.482687 5.71264 0
M  V30 2902 H 250.342 0.256199 5.99553 0
M  V30 2903 H 251.412 0.938174 4.75738 0
M  V30 2904 N 252.755 -1.56801 0.158532 0
M  V30 2905 C 254.002 -1.9649 -0.489679 0
M  V30 2906 C 254.33 -1.04394 -1.6411 0
M  V30 2907 O 253.585 -0.0754401 -1.95555 0
M  V30 2908 C 253.884 -3.4235 -1.02623 0
M  V30 2909 C 253.55 -4.50899 0.00794526 0
M  V30 2910 C 252.212 -4.80312 0.292207 0
M  V30 2911 C 254.564 -5.16333 0.710584 0
M  V30 2912 C 251.892 -5.72461 1.28472 0
M  V30 2913 C 254.244 -6.09553 1.69199 0
M  V30 2914 C 252.908 -6.37339 1.98383 0
M  V30 2915 H 252.178 -0.719009 -0.179186 0
M  V30 2916 H 254.825 -1.8989 0.247798 0
M  V30 2917 H 253.13 -3.45838 -1.84128 0
M  V30 2918 H 254.827 -3.70393 -1.53656 0
M  V30 2919 H 251.417 -4.28015 -0.22379 0
M  V30 2920 H 255.601 -4.93732 0.504174 0
M  V30 2921 H 250.857 -5.92278 1.51714 0
M  V30 2922 H 255.031 -6.59327 2.24189 0
M  V30 2923 H 252.658 -7.08546 2.7544 0
M  V30 2924 N 254.233 0.115231 -1.57178 0
M  V30 2925 C 255.481 0.820727 -1.84685 0
M  V30 2926 C 255.802 1.80237 -0.744279 0
M  V30 2927 O 255.072 1.94529 0.231375 0
M  V30 2928 H 253.652 0.306084 -0.681411 0
M  V30 2929 H 256.314 0.101656 -1.94635 0
M  V30 2930 H 255.41 1.36366 -2.80733 0
M  V30 2931 N 255.711 1.52812 0.385517 0
M  V30 2932 C 256.959 1.67694 1.12797 0
M  V30 2933 C 257.28 0.421115 1.90399 0
M  V30 2934 O 256.55 -0.564551 1.87589 0
M  V30 2935 H 255.13 0.618155 0.419396 0
M  V30 2936 H 257.792 1.89938 0.436972 0
M  V30 2937 H 256.888 2.52896 1.82894 0
M  V30 2938 N 257.189 -0.644168 1.43834 0
M  V30 2939 C 258.466 -1.40188 1.36406 0
M  V30 2940 C 258.846 -2.11094 0.0163124 0
M  V30 2941 O 258.194 -2.05426 -1.00062 0
M  V30 2942 C 258.404 -2.3791 2.55343 0
M  V30 2943 C 259.752 -3.01637 2.98832 0
M  V30 2944 O 260.776 -2.48237 2.55455 0
M  V30 2945 O 259.635 -3.98477 3.74003 0
M  V30 2946 H 256.729 -0.626773 0.539523 0
M  V30 2947 H 259.275 -0.670317 1.559 0
M  V30 2948 H 258.047 -1.84525 3.4506 0
M  V30 2949 H 257.67 -3.18503 2.37995 0
M  V30 2950 N 258.668 -1.30515 -0.883378 0
M  V30 2951 C 259.896 -1.22359 -1.66841 0
M  V30 2952 C 260.311 0.213296 -1.87591 0
M  V30 2953 O 259.668 1.14075 -1.42454 0
M  V30 2954 C 259.719 -1.95011 -3.04389 0
M  V30 2955 O 259.44 -3.3309 -2.84575 0
M  V30 2956 C 260.941 -1.93532 -3.98824 0
M  V30 2957 H 258.161 -0.423371 -0.520575 0
M  V30 2958 H 260.705 -1.72167 -1.10357 0
M  V30 2959 H 258.86 -1.48997 -3.57601 0
M  V30 2960 H 259.274 -3.69907 -3.71846 0
M  V30 2961 H 260.748 -2.48902 -4.92699 0
M  V30 2962 H 261.225 -0.914627 -4.29571 0
M  V30 2963 H 261.831 -2.39364 -3.51547 0
M  V30 2964 N 260.146 1.09593 -1.13257 0
M  V30 2965 C 261.094 2.18271 -0.803783 0
M  V30 2966 C 262.088 1.68054 0.213148 0
M  V30 2967 O 263.294 1.79862 0.0704699 0
M  V30 2968 H 259.669 0.711949 -0.242143 0
M  V30 2969 H 261.64 2.43235 -1.72856 0
M  V30 2970 C 260.389 3.46536 -0.28424 0
M  V30 2971 H 259.712 3.85545 -1.05807 0
M  V30 2972 H 261.152 4.23899 -0.0925945 0
M  V30 2973 C 259.611 3.22036 0.989684 0
M  V30 2974 O 260.141 3.44509 2.06584 0
M  V30 2975 N 258.347 2.7565 0.920086 0
M  V30 2976 H 257.894 2.57562 0.0442019 0
M  V30 2977 H 257.852 2.59635 1.77306 0
M  V30 2978 N 261.624 0.925811 1.2754 0
M  V30 2979 C 263.035 0.610102 1.7645 0
M  V30 2980 C 263.386 -0.874723 1.75622 0
M  V30 2981 O 262.511 -1.68444 1.35851 0
M  V30 2982 C 263.106 1.10073 3.20421 0
M  V30 2983 C 261.665 0.835723 3.67005 0
M  V30 2984 C 260.812 1.26054 2.46993 0
M  V30 2985 H 263.763 1.10579 1.13833 0
M  V30 2986 H 263.784 0.447557 3.77859 0
M  V30 2987 H 263.296 2.18143 3.20991 0
M  V30 2988 H 261.397 -0.231249 3.71882 0
M  V30 2989 H 261.51 1.45193 4.56569 0
M  V30 2990 H 259.874 0.679111 2.45479 0
M  V30 2991 H 260.657 2.34984 2.50275 0
M  V30 2992 N 263.102 -1.41638 0.69111 0
M  V30 2993 C 264.348 -2.01598 0.220519 0
M  V30 2994 C 264.681 -1.54594 -1.17535 0
M  V30 2995 O 263.956 -0.755177 -1.79241 0
M  V30 2996 C 264.239 -3.59062 0.273243 0
M  V30 2997 C 264.092 -4.16203 1.70573 0
M  V30 2998 C 265.411 -4.38546 -0.369457 0
M  V30 2999 H 262.53 -0.732468 0.0816045 0
M  V30 3000 H 265.172 -1.68445 0.878986 0
M  V30 3001 H 263.322 -3.87435 -0.287411 0
M  V30 3002 H 264.994 -3.98722 2.31989 0
M  V30 3003 H 263.237 -3.71414 2.2413 0
M  V30 3004 H 263.908 -5.25358 1.69419 0
M  V30 3005 H 266.384 -4.1596 0.107977 0
M  V30 3006 H 265.26 -5.48069 -0.302002 0
M  V30 3007 H 265.521 -4.17662 -1.44951 0
M  V30 3008 N 264.58 -0.43555 -1.51462 0
M  V30 3009 C 265.53 0.394701 -2.24558 0
M  V30 3010 C 266.514 0.99157 -1.26715 0
M  V30 3011 O 267.706 0.910007 -1.51815 0
M  V30 3012 C 264.835 1.4963 -3.08975 0
M  V30 3013 C 263.921 0.908912 -4.14246 0
M  V30 3014 N 264.312 0.0505335 -5.05775 0
M  V30 3015 C 262.61 1.17668 -4.30198 0
M  V30 3016 C 263.311 -0.279161 -5.8103 0
M  V30 3017 N 262.287 0.336767 -5.42556 0
M  V30 3018 H 266.089 -0.267106 -2.92684 0
M  V30 3019 H 263.603 -0.247518 -1.60503 0
M  V30 3020 H 265.6 2.10394 -3.59917 0
M  V30 3021 H 264.26 2.16046 -2.42393 0
M  V30 3022 H 265.271 -0.31577 -5.16936 0
M  V30 3023 H 261.948 1.83847 -3.74842 0
M  V30 3024 H 263.338 -0.977553 -6.64751 0
M  V30 3025 N 266.058 1.56714 -0.166846 0
M  V30 3026 C 267.469 1.83378 0.350646 0
M  V30 3027 C 267.82 1.08646 1.63372 0
M  V30 3028 O 266.945 0.338058 2.13743 0
M  V30 3029 C 267.54 3.32643 0.642963 0
M  V30 3030 C 266.099 3.59818 1.10491 0
M  V30 3031 C 265.246 2.76954 0.138411 0
M  V30 3032 H 268.197 1.53803 -0.391193 0
M  V30 3033 H 268.218 3.49878 1.49551 0
M  V30 3034 H 267.73 3.87007 -0.291055 0
M  V30 3035 H 265.831 3.1086 2.05418 0
M  V30 3036 H 265.944 4.68178 1.01716 0
M  V30 3037 H 264.308 2.4666 0.634911 0
M  V30 3038 H 265.091 3.34097 -0.789549 0
M  V30 3039 N 267.536 -0.106894 1.57237 0
M  V30 3040 C 268.483 -1.13049 2.01217 0
M  V30 3041 C 269.453 -1.40471 0.886403 0
M  V30 3042 O 270.638 -1.52133 1.15153 0
M  V30 3043 C 267.778 -2.4487 2.43172 0
M  V30 3044 C 266.891 -2.24281 3.69218 0
M  V30 3045 C 266.026 -3.49417 4.00101 0
M  V30 3046 C 265.065 -3.24038 5.19294 0
M  V30 3047 N 264.202 -4.41409 5.45988 0
M  V30 3048 H 269.042 -0.748456 2.88448 0
M  V30 3049 H 266.579 -0.358054 1.42676 0
M  V30 3050 H 268.537 -3.21786 2.65537 0
M  V30 3051 H 267.167 -2.80944 1.58967 0
M  V30 3052 H 266.219 -1.38224 3.54398 0
M  V30 3053 H 267.531 -2.01512 4.56283 0
M  V30 3054 H 266.685 -4.34746 4.2318 0
M  V30 3055 H 265.424 -3.75229 3.11535 0
M  V30 3056 H 264.429 -2.37102 4.96047 0
M  V30 3057 H 265.654 -2.99584 6.09447 0
M  V30 3058 H 263.6 -4.67319 4.60379 0
M  V30 3059 H 263.517 -4.21788 6.274 0
M  V30 3060 H 264.785 -5.27836 5.73593 0
M  V30 3061 N 269.014 -1.53014 -0.377408 0
M  V30 3062 C 269.964 -1.74996 -1.46152 0
M  V30 3063 C 270.948 -0.604236 -1.49123 0
M  V30 3064 O 272.14 -0.862489 -1.54564 0
M  V30 3065 C 269.269 -1.93267 -2.8373 0
M  V30 3066 C 268.355 -3.13807 -2.85283 0
M  V30 3067 N 268.746 -4.35941 -2.56493 0
M  V30 3068 C 267.044 -3.14288 -3.16448 0
M  V30 3069 C 267.745 -5.17615 -2.65424 0
M  V30 3070 N 266.721 -4.53559 -2.99641 0
M  V30 3071 H 270.523 -2.67044 -1.22738 0
M  V30 3072 H 268.037 -1.51479 -0.585479 0
M  V30 3073 H 270.034 -2.0714 -3.61799 0
M  V30 3074 H 268.694 -1.0244 -3.08117 0
M  V30 3075 H 269.705 -4.63876 -2.30302 0
M  V30 3076 H 266.382 -2.33312 -3.46225 0
M  V30 3077 H 267.772 -6.25006 -2.46612 0
M  V30 3078 N 270.492 0.636531 -1.44174 0
M  V30 3079 C 271.741 1.39213 -1.45954 0
M  V30 3080 C 272.054 1.95374 -0.0939119 0
M  V30 3081 O 273.26 2.71498 0.0107767 0
M  V30 3082 C 271.716 2.52025 -2.56927 0
M  V30 3083 C 271.324 2.024 -3.99673 0
M  V30 3084 C 273.068 3.29269 -2.67922 0
M  V30 3085 C 270.975 3.12521 -5.0208 0
M  V30 3086 H 269.905 0.523132 -0.542999 0
M  V30 3087 H 272.556 0.685349 -1.70221 0
M  V30 3088 H 270.938 3.25253 -2.25891 0
M  V30 3089 H 272.112 1.36073 -4.40251 0
M  V30 3090 H 270.427 1.37987 -3.92872 0
M  V30 3091 H 273.024 4.11352 -3.41605 0
M  V30 3092 H 273.367 3.78397 -1.73555 0
M  V30 3093 H 273.9 2.63129 -2.98342 0
M  V30 3094 H 270.639 2.68343 -5.98057 0
M  V30 3095 H 270.159 3.77507 -4.66099 0
M  V30 3096 H 271.838 3.77385 -5.25538 0
M  V30 3097 N 271.97 1.30982 0.876444 0
M  V30 3098 C 273.218 1.20058 1.62575 0
M  V30 3099 C 273.539 -0.242947 1.93481 0
M  V30 3100 O 272.809 -1.1619 1.57724 0
M  V30 3101 H 271.389 0.44135 0.602677 0
M  V30 3102 H 274.051 1.64222 1.04962 0
M  V30 3103 H 273.147 1.76762 2.57219 0
M  V30 3104 N 273.449 -1.08991 1.13837 0
M  V30 3105 C 274.674 -1.85551 0.926585 0
M  V30 3106 C 275.099 -1.80782 -0.519566 0
M  V30 3107 O 274.457 -1.18855 -1.36906 0
M  V30 3108 C 274.505 -3.31266 1.42462 0
M  V30 3109 O 273.609 -4.07822 0.612789 0
M  V30 3110 H 272.95 -0.575192 0.331738 0
M  V30 3111 H 275.48 -1.37604 1.51414 0
M  V30 3112 H 275.49 -3.82112 1.43019 0
M  V30 3113 H 274.165 -3.34052 2.47754 0
M  V30 3114 H 272.742 -3.66731 0.675463 0
M  V30 3115 N 274.927 -0.932562 -1.27047 0
M  V30 3116 C 276.176 -0.571351 -1.93439 0
M  V30 3117 C 276.489 0.892467 -1.74053 0
M  V30 3118 O 277.695 1.36267 -2.34826 0
M  V30 3119 C 276.151 -0.97106 -3.46552 0
M  V30 3120 C 275.759 -2.4559 -3.74686 0
M  V30 3121 C 277.503 -0.681333 -4.18997 0
M  V30 3122 C 275.41 -2.79475 -5.21198 0
M  V30 3123 H 274.34 -0.209966 -0.724176 0
M  V30 3124 H 276.991 -1.13403 -1.44263 0
M  V30 3125 H 275.373 -0.336983 -3.94564 0
M  V30 3126 H 276.547 -3.13829 -3.37414 0
M  V30 3127 H 274.862 -2.71802 -3.15456 0
M  V30 3128 H 277.459 -0.910939 -5.26883 0
M  V30 3129 H 277.802 0.381628 -4.14547 0
M  V30 3130 H 278.335 -1.27473 -3.76823 0
M  V30 3131 H 275.074 -3.847 -5.30741 0
M  V30 3132 H 274.594 -2.1589 -5.596 0
M  V30 3133 H 276.273 -2.67478 -5.89122 0
M  V30 3134 N 276.405 1.4127 -0.698611 0
M  V30 3135 C 277.682 1.94955 -0.158762 0
M  V30 3136 C 278.062 1.63781 1.33188 0
M  V30 3137 O 277.41 0.946423 2.07979 0
M  V30 3138 C 277.62 3.46044 -0.453309 0
M  V30 3139 C 278.968 4.22872 -0.382707 0
M  V30 3140 O 279.992 3.54076 -0.388396 0
M  V30 3141 O 278.851 5.45407 -0.345463 0
M  V30 3142 H 275.945 0.82683 -0.0167505 0
M  V30 3143 H 278.491 1.50971 -0.77498 0
M  V30 3144 H 277.263 3.62028 -1.48498 0
M  V30 3145 H 276.886 3.97128 0.19373 0
M  V30 3146 N 277.883 0.443576 1.51229 0
M  V30 3147 C 279.294 -0.0180867 1.86691 0
M  V30 3148 C 279.645 -1.41384 1.36033 0
M  V30 3149 O 278.77 -2.04291 0.713722 0
M  V30 3150 C 279.365 -0.039597 3.38777 0
M  V30 3151 C 277.924 -0.445692 3.73752 0
M  V30 3152 C 277.071 0.357584 2.74985 0
M  V30 3153 H 280.022 0.659138 1.44364 0
M  V30 3154 H 280.043 -0.847761 3.70936 0
M  V30 3155 H 279.555 0.976382 3.75617 0
M  V30 3156 H 277.656 -1.46704 3.42503 0
M  V30 3157 H 277.769 -0.166155 4.78812 0
M  V30 3158 H 276.133 -0.184973 2.54027 0
M  V30 3159 H 276.916 1.37256 3.14668 0
M  V30 3160 N 279.361 -1.56624 0.175154 0
M  V30 3161 C 280.589 -2.01374 -0.474971 0
M  V30 3162 C 281.004 -1.05537 -1.56548 0
M  V30 3163 O 280.361 -0.0568668 -1.82411 0
M  V30 3164 C 280.412 -3.45923 -1.04975 0
M  V30 3165 O 280.133 -4.381 -0.00276605 0
M  V30 3166 C 281.634 -4.06093 -1.77773 0
M  V30 3167 H 278.854 -0.659962 -0.121206 0
M  V30 3168 H 281.398 -2.02601 0.27801 0
M  V30 3169 H 279.553 -3.45458 -1.75321 0
M  V30 3170 H 279.967 -5.22753 -0.427681 0
M  V30 3171 H 281.441 -5.09147 -2.13245 0
M  V30 3172 H 281.918 -3.48405 -2.67414 0
M  V30 3173 H 282.524 -4.10272 -1.12059 0
M  V30 3174 N 280.839 0.0985539 -1.57292 0
M  V30 3175 C 282.079 0.808332 -1.87737 0
M  V30 3176 C 282.443 1.7607 -0.76572 0
M  V30 3177 O 283.644 2.51358 -0.952499 0
M  V30 3178 C 281.915 1.52093 -3.23423 0
M  V30 3179 S 283.474 2.26947 -3.75554 0
M  V30 3180 H 280.292 0.269377 -0.657995 0
M  V30 3181 H 282.894 0.0656269 -1.9539 0
M  V30 3182 H 281.598 0.81363 -4.02254 0
M  V30 3183 H 281.129 2.30361 -3.189 0
M  V30 3184 H 283.144 3.53027 -3.48692 0
M  V30 3185 N 282.317 1.53212 0.369288 0
M  V30 3186 C 283.265 1.80054 1.47253 0
M  V30 3187 C 284.259 0.669456 1.55611 0
M  V30 3188 O 285.465 0.852328 1.58541 0
M  V30 3189 H 281.84 0.570034 0.490475 0
M  V30 3190 H 283.811 2.72403 1.21817 0
M  V30 3191 C 282.56 2.00403 2.84137 0
M  V30 3192 H 281.883 2.86876 2.78464 0
M  V30 3193 H 283.323 2.23164 3.60519 0
M  V30 3194 C 281.782 0.782081 3.27697 0
M  V30 3195 O 282.312 -0.0310205 4.01688 0
M  V30 3196 N 280.518 0.606573 2.84199 0
M  V30 3197 H 280.065 1.26939 2.24152 0
M  V30 3198 H 280.023 -0.20962 3.137 0
M  V30 3199 N 283.795 -0.628877 1.44509 0
M  V30 3200 C 285.041 -1.39045 1.47629 0
M  V30 3201 C 285.374 -1.93892 0.109343 0
M  V30 3202 O 284.649 -1.7379 -0.87334 0
M  V30 3203 C 284.932 -2.55408 2.53848 0
M  V30 3204 C 284.785 -2.05896 3.99909 0
M  V30 3205 C 286.104 -3.5759 2.56549 0
M  V30 3206 H 283.223 -0.504232 0.537512 0
M  V30 3207 H 285.865 -0.710854 1.76201 0
M  V30 3208 H 284.015 -3.13384 2.29615 0
M  V30 3209 H 285.687 -1.52734 4.35282 0
M  V30 3210 H 283.93 -1.37061 4.11578 0
M  V30 3211 H 284.601 -2.89681 4.69882 0
M  V30 3212 H 287.077 -3.09419 2.78207 0
M  V30 3213 H 285.953 -4.36527 3.32769 0
M  V30 3214 H 286.214 -4.11808 1.60832 0
M  V30 3215 N 285.273 -1.31445 -0.869486 0
M  V30 3216 C 286.236 -1.19094 -1.9583 0
M  V30 3217 C 287.236 -0.117906 -1.60367 0
M  V30 3218 O 288.426 -0.367208 -1.70286 0
M  V30 3219 C 285.558 -0.828165 -3.30688 0
M  V30 3220 H 286.751 -2.15842 -2.08212 0
M  V30 3221 H 284.304 -1.15063 -1.05784 0
M  V30 3222 H 285.039 0.138142 -3.24006 0
M  V30 3223 H 284.824 -1.6038 -3.578 0
M  V30 3224 H 286.314 -0.765658 -4.10521 0
M  V30 3225 N 286.751 1.08385 -1.14413 0
M  V30 3226 C 288.028 1.77429 -0.823297 0
M  V30 3227 C 288.408 1.9974 0.683163 0
M  V30 3228 O 287.756 1.60739 1.62405 0
M  V30 3229 C 287.966 3.09004 -1.62227 0
M  V30 3230 C 289.314 3.83532 -1.82177 0
M  V30 3231 O 290.338 3.18786 -1.58915 0
M  V30 3232 O 289.197 4.99792 -2.21067 0
M  V30 3233 H 286.291 0.769999 -0.301712 0
M  V30 3234 H 288.837 1.14846 -1.24934 0
M  V30 3235 H 287.609 2.88316 -2.64555 0
M  V30 3236 H 287.232 3.79316 -1.19187 0
M  V30 3237 N 288.23 0.939286 1.26551 0
M  V30 3238 C 289.476 0.586715 1.94128 0
M  V30 3239 C 289.809 -0.8717 1.73537 0
M  V30 3240 O 289.084 -1.62339 1.07127 0
M  V30 3241 C 289.367 0.927497 3.4795 0
M  V30 3242 C 289.22 2.44052 3.77834 0
M  V30 3243 C 290.539 0.441569 4.37879 0
M  V30 3244 H 287.658 0.21463 0.705055 0
M  V30 3245 H 290.3 1.17316 1.49455 0
M  V30 3246 H 288.45 0.428431 3.8613 0
M  V30 3247 H 290.122 3.01216 3.4938 0
M  V30 3248 H 288.365 2.8848 3.23978 0
M  V30 3249 H 289.036 2.62947 4.85348 0
M  V30 3250 H 291.512 0.869448 4.06915 0
M  V30 3251 H 290.388 0.708856 5.44304 0
M  V30 3252 H 290.649 -0.658467 4.37169 0
M  V30 3253 N 289.708 -1.40897 0.706093 0
M  V30 3254 C 290.954 -2.01352 0.241889 0
M  V30 3255 C 291.287 -1.55832 -1.15888 0
M  V30 3256 O 290.562 -0.774145 -1.7843 0
M  V30 3257 C 290.845 -3.58752 0.311311 0
M  V30 3258 C 290.698 -4.1437 1.74978 0
M  V30 3259 C 292.017 -4.38914 -0.322922 0
M  V30 3260 H 289.136 -0.731562 0.0893687 0
M  V30 3261 H 291.778 -1.67504 0.896802 0
M  V30 3262 H 289.928 -3.87718 -0.246302 0
M  V30 3263 H 291.6 -3.96239 2.36205 0
M  V30 3264 H 289.843 -3.69016 2.28057 0
M  V30 3265 H 290.514 -5.23532 1.74981 0
M  V30 3266 H 292.99 -4.15822 0.152089 0
M  V30 3267 H 291.866 -5.48358 -0.243855 0
M  V30 3268 H 292.127 -4.19176 -1.40513 0
M  V30 3269 N 291.186 -0.45159 -1.50991 0
M  V30 3270 C 292.133 0.352625 -2.2809 0
M  V30 3271 C 293.103 1.0044 -1.32291 0
M  V30 3272 O 294.288 1.02058 -1.6121 0
M  V30 3273 C 291.428 1.43983 -3.13629 0
M  V30 3274 C 290.541 0.804772 -4.24438 0
M  V30 3275 C 289.676 1.86822 -4.97263 0
M  V30 3276 C 288.715 1.21236 -5.99973 0
M  V30 3277 N 287.852 2.2178 -6.66152 0
M  V30 3278 H 292.692 -0.311186 -2.96371 0
M  V30 3279 H 290.229 -0.165308 -1.46168 0
M  V30 3280 H 292.187 2.08161 -3.61559 0
M  V30 3281 H 290.817 2.07307 -2.47434 0
M  V30 3282 H 289.869 0.0509129 -3.80366 0
M  V30 3283 H 291.181 0.286076 -4.97979 0
M  V30 3284 H 290.335 2.58628 -5.48813 0
M  V30 3285 H 289.074 2.42068 -4.23385 0
M  V30 3286 H 288.079 0.479828 -5.47702 0
M  V30 3287 H 289.304 0.667051 -6.75816 0
M  V30 3288 H 287.25 2.76079 -5.95077 0
M  V30 3289 H 287.167 1.74841 -7.35504 0
M  V30 3290 H 288.435 2.93026 -7.22327 0
M  V30 3291 N 292.664 1.56529 -0.183458 0
M  V30 3292 C 293.941 1.88959 0.50536 0
M  V30 3293 C 294.321 1.09523 1.80466 0
M  V30 3294 O 293.669 0.19278 2.27685 0
M  V30 3295 C 293.879 3.41162 0.73547 0
M  V30 3296 C 295.227 4.11155 1.06005 0
M  V30 3297 O 296.251 3.46548 0.823594 0
M  V30 3298 O 295.11 5.25318 1.50675 0
M  V30 3299 H 292.204 0.78441 0.261973 0
M  V30 3300 H 294.75 1.68231 -0.222802 0
M  V30 3301 H 293.522 3.90874 -0.182561 0
M  V30 3302 H 293.145 3.67543 1.51651 0
M  V30 3303 N 294.142 -0.090211 1.57342 0
M  V30 3304 C 295.105 -1.09335 2.01441 0
M  V30 3305 C 296.105 -1.32666 0.908641 0
M  V30 3306 O 297.295 -1.28697 1.174 0
M  V30 3307 C 294.427 -2.44136 2.3793 0
M  V30 3308 H 295.62 -0.713662 2.91285 0
M  V30 3309 H 293.173 -0.335404 1.52659 0
M  V30 3310 H 293.908 -2.86972 1.51055 0
M  V30 3311 H 293.693 -2.28548 3.18603 0
M  V30 3312 H 295.183 -3.16277 2.72688 0
M  V30 3313 N 295.62 -1.53406 -0.361157 0
M  V30 3314 C 296.85 -1.73465 -1.1222 0
M  V30 3315 C 297.258 -0.465486 -1.83384 0
M  V30 3316 O 296.601 0.571611 -1.7458 0
M  V30 3317 C 296.663 -2.84834 -2.19339 0
M  V30 3318 C 296.327 -4.25038 -1.67903 0
M  V30 3319 C 297.324 -5.07231 -1.14074 0
M  V30 3320 C 295.009 -4.71464 -1.73282 0
M  V30 3321 C 297.003 -6.33942 -0.663068 0
M  V30 3322 C 294.69 -5.98153 -1.25127 0
M  V30 3323 C 295.688 -6.79223 -0.717296 0
M  V30 3324 O 295.376 -8.03533 -0.242865 0
M  V30 3325 H 295.108 -0.583526 -0.341283 0
M  V30 3326 H 297.662 -2.00964 -0.424591 0
M  V30 3327 H 295.892 -2.5282 -2.92607 0
M  V30 3328 H 297.581 -2.9303 -2.80871 0
M  V30 3329 H 298.347 -4.72534 -1.09254 0
M  V30 3330 H 294.226 -4.08432 -2.13786 0
M  V30 3331 H 297.77 -6.97167 -0.245612 0
M  V30 3332 H 293.667 -6.32347 -1.29642 0
M  V30 3333 H 294.435 -8.177 -0.361786 0
M  V30 3334 N 297.098 0.621204 -1.44841 0
M  V30 3335 C 298.008 1.7612 -1.5498 0
M  V30 3336 C 299.024 1.68477 -0.434927 0
M  V30 3337 O 300.2 1.89076 -0.693693 0
M  V30 3338 C 297.265 3.1254 -1.50065 0
M  V30 3339 C 296.326 3.31741 -2.72482 0
M  V30 3340 C 295.559 4.61653 -2.67792 0
M  V30 3341 O 295.782 5.431 -1.74352 0
M  V30 3342 O 294.716 4.83271 -3.58794 0
M  V30 3343 H 298.542 1.70518 -2.51311 0
M  V30 3344 H 296.127 0.783643 -1.27198 0
M  V30 3345 H 298.009 3.93844 -1.49882 0
M  V30 3346 H 296.684 3.18663 -0.568806 0
M  V30 3347 H 295.591 2.50077 -2.7823 0
M  V30 3348 H 296.924 3.30486 -3.64746 0
M  V30 3349 N 298.576 1.31904 0.862503 0
M  V30 3350 C 299.804 1.24998 1.64873 0
M  V30 3351 C 300.219 -0.183425 1.87907 0
M  V30 3352 O 299.576 -1.11794 1.44251 0
M  V30 3353 C 299.627 1.99829 3.01248 0
M  V30 3354 O 299.348 3.37575 2.79239 0
M  V30 3355 C 300.849 1.99852 3.95694 0
M  V30 3356 H 298.069 0.431599 0.513773 0
M  V30 3357 H 300.613 1.73901 1.07604 0
M  V30 3358 H 298.768 1.54668 3.55185 0
M  V30 3359 H 299.182 3.75776 3.65914 0
M  V30 3360 H 300.656 2.56709 4.88676 0
M  V30 3361 H 301.133 0.982852 4.28062 0
M  V30 3362 H 301.739 2.44926 3.47694 0
M  V30 3363 N 300.054 -1.07777 1.14986 0
M  V30 3364 C 301.017 -2.13041 0.845358 0
M  V30 3365 C 302.017 -1.60071 -0.152931 0
M  V30 3366 O 303.207 -1.74033 0.0761879 0
M  V30 3367 C 300.339 -3.39896 0.261383 0
M  V30 3368 H 301.532 -2.41485 1.77834 0
M  V30 3369 H 299.085 -1.23595 0.956757 0
M  V30 3370 H 299.82 -3.17091 -0.68 0
M  V30 3371 H 299.605 -3.79642 0.980514 0
M  V30 3372 H 301.095 -4.17548 0.0657687 0
M  V30 3373 N 301.532 -0.945985 -1.26051 0
M  V30 3374 C 302.479 -0.45809 -2.26208 0
M  V30 3375 C 303.449 0.484816 -1.58867 0
M  V30 3376 O 304.634 0.399969 -1.86561 0
M  V30 3377 C 301.774 0.266131 -3.44072 0
M  V30 3378 C 300.887 -0.713005 -4.26075 0
M  V30 3379 C 300.022 0.0329013 -5.3119 0
M  V30 3380 C 299.061 -0.93774 -6.04874 0
M  V30 3381 N 298.198 -0.223274 -7.01745 0
M  V30 3382 H 303.038 -1.3171 -2.67313 0
M  V30 3383 H 300.575 -0.66069 -1.31428 0
M  V30 3384 H 302.533 0.702514 -4.11243 0
M  V30 3385 H 301.163 1.08925 -3.03867 0
M  V30 3386 H 300.215 -1.26789 -3.58648 0
M  V30 3387 H 301.527 -1.45406 -4.77136 0
M  V30 3388 H 300.681 0.528335 -6.04395 0
M  V30 3389 H 299.42 0.806801 -4.8098 0
M  V30 3390 H 298.425 -1.44425 -5.30492 0
M  V30 3391 H 299.65 -1.71172 -6.57173 0
M  V30 3392 H 297.596 0.532046 -6.53839 0
M  V30 3393 H 297.513 -0.90357 -7.50581 0
M  V30 3394 H 298.781 0.250907 -7.79096 0
M  V30 3395 N 303.011 1.40521 -0.713556 0
M  V30 3396 C 303.944 2.28198 -0.00881422 0
M  V30 3397 C 304.922 1.43227 0.769735 0
M  V30 3398 O 306.106 1.72641 0.756799 0
M  V30 3399 C 303.233 3.23758 0.994899 0
M  V30 3400 C 302.279 4.25391 0.3074 0
M  V30 3401 S 303.112 5.26765 -0.963247 0
M  V30 3402 C 304.268 6.25888 0.0384143 0
M  V30 3403 H 304.501 2.87622 -0.752407 0
M  V30 3404 H 302.034 1.45925 -0.504502 0
M  V30 3405 H 303.992 3.79341 1.56879 0
M  V30 3406 H 302.653 2.63396 1.71118 0
M  V30 3407 H 301.846 4.92596 1.0661 0
M  V30 3408 H 301.448 3.73497 -0.193879 0
M  V30 3409 H 303.74 6.71683 0.885912 0
M  V30 3410 H 304.683 7.05552 -0.60019 0
M  V30 3411 H 305.091 5.63072 0.401233 0
M  V30 3412 N 304.489 0.459591 1.5075 0
M  V30 3413 C 305.419 -0.330644 2.31147 0
M  V30 3414 C 306.4 -1.00087 1.37538 0
M  V30 3415 O 307.585 -1.00025 1.66459 0
M  V30 3416 C 304.715 -1.41958 3.16962 0
M  V30 3417 C 303.669 -0.871608 4.19031 0
M  V30 3418 C 302.995 -2.05797 4.9351 0
M  V30 3419 C 304.295 0.109251 5.22186 0
M  V30 3420 H 305.989 0.340336 2.97459 0
M  V30 3421 H 303.535 0.165119 1.4305 0
M  V30 3422 H 305.488 -1.9798 3.71997 0
M  V30 3423 H 304.212 -2.11917 2.48513 0
M  V30 3424 H 302.871 -0.333442 3.6508 0
M  V30 3425 H 302.519 -2.74427 4.21544 0
M  V30 3426 H 302.219 -1.6976 5.62544 0
M  V30 3427 H 303.743 -2.62331 5.51375 0
M  V30 3428 H 305.157 -0.361405 5.7216 0
M  V30 3429 H 303.554 0.383316 5.98875 0
M  V30 3430 H 304.624 1.03887 4.73641 0
M  V30 3431 N 305.967 -1.56429 0.191757 0
M  V30 3432 C 307.207 -1.99383 -0.450099 0
M  V30 3433 C 307.571 -1.07581 -1.59029 0
M  V30 3434 O 308.772 -1.39758 -2.29611 0
M  V30 3435 C 307.043 -3.45841 -0.901611 0
M  V30 3436 S 308.602 -4.10822 -1.54177 0
M  V30 3437 H 305.42 -0.696253 -0.144057 0
M  V30 3438 H 308.022 -1.93276 0.294036 0
M  V30 3439 H 306.726 -4.10354 -0.0616596 0
M  V30 3440 H 306.257 -3.55757 -1.67929 0
M  V30 3441 H 308.272 -4.07553 -2.83046 0
M  V30 3442 N 307.445 0.0818655 -1.57387 0
M  V30 3443 C 308.355 1.11642 -2.06333 0
M  V30 3444 C 309.371 1.43033 -0.99083 0
M  V30 3445 O 310.547 1.53411 -1.30488 0
M  V30 3446 C 307.612 2.41342 -2.48907 0
M  V30 3447 C 306.673 2.17014 -3.7041 0
M  V30 3448 C 305.906 3.4053 -4.10944 0
M  V30 3449 O 306.129 4.4927 -3.51444 0
M  V30 3450 O 305.063 3.29336 -5.03807 0
M  V30 3451 H 308.889 0.730657 -2.9478 0
M  V30 3452 H 306.474 0.295301 -1.46452 0
M  V30 3453 H 308.356 3.17691 -2.76858 0
M  V30 3454 H 307.031 2.79319 -1.63593 0
M  V30 3455 H 305.938 1.38403 -3.47556 0
M  V30 3456 H 307.271 1.83923 -4.56545 0
M  V30 3457 N 308.923 1.53595 0.353017 0
M  V30 3458 C 309.855 1.77219 1.45348 0
M  V30 3459 C 310.868 0.65324 1.49119 0
M  V30 3460 O 312.057 0.929775 1.52373 0
M  V30 3461 C 309.157 1.84841 2.84055 0
M  V30 3462 C 308.33 3.14649 3.03833 0
M  V30 3463 C 307.389 3.13351 4.22727 0
M  V30 3464 O 306.415 3.87107 4.17297 0
M  V30 3465 N 307.617 2.35052 5.30783 0
M  V30 3466 H 310.382 2.72178 1.25457 0
M  V30 3467 H 307.943 1.52528 0.542833 0
M  V30 3468 H 309.935 1.81435 3.61751 0
M  V30 3469 H 308.505 0.971114 2.97133 0
M  V30 3470 H 307.725 3.31256 2.13689 0
M  V30 3471 H 309.013 4.00411 3.13925 0
M  V30 3472 H 308.411 1.74663 5.38061 0
M  V30 3473 H 306.968 2.37453 6.07009 0
M  V30 3474 N 310.401 -0.613514 1.45168 0
M  V30 3475 C 311.631 -1.39743 1.52169 0
M  V30 3476 C 312.039 -1.88596 0.151086 0
M  V30 3477 O 311.382 -1.6251 -0.856521 0
M  V30 3478 C 311.444 -2.64035 2.43979 0
M  V30 3479 C 311.108 -2.36861 3.90827 0
M  V30 3480 C 312.105 -1.97591 4.80889 0
M  V30 3481 C 309.79 -2.49956 4.35692 0
M  V30 3482 C 311.784 -1.71768 6.1382 0
M  V30 3483 C 309.471 -2.23747 5.68665 0
M  V30 3484 C 310.469 -1.84714 6.57548 0
M  V30 3485 O 310.157 -1.58809 7.88058 0
M  V30 3486 H 309.889 -0.434382 0.517966 0
M  V30 3487 H 312.443 -0.75587 1.90986 0
M  V30 3488 H 310.673 -3.3089 2.00122 0
M  V30 3489 H 312.362 -3.26069 2.41731 0
M  V30 3490 H 313.128 -1.87015 4.47493 0
M  V30 3491 H 309.007 -2.79305 3.66756 0
M  V30 3492 H 312.551 -1.41227 6.83155 0
M  V30 3493 H 308.448 -2.33938 6.01617 0
M  V30 3494 H 309.216 -1.7291 8.00028 0
M  V30 3495 N 311.879 -1.3236 -0.855495 0
M  V30 3496 C 313.109 -1.25688 -1.6397 0
M  V30 3497 C 313.517 0.177592 -1.88365 0
M  V30 3498 O 312.86 1.12485 -1.45234 0
M  V30 3499 C 312.922 -1.94602 -3.02275 0
M  V30 3500 C 312.586 -3.43937 -3.00926 0
M  V30 3501 C 313.583 -4.39435 -2.77835 0
M  V30 3502 C 311.268 -3.85858 -3.21588 0
M  V30 3503 C 313.262 -5.74829 -2.75409 0
M  V30 3504 C 310.949 -5.21361 -3.18789 0
M  V30 3505 C 311.947 -6.15658 -2.95727 0
M  V30 3506 O 311.635 -7.48681 -2.928 0
M  V30 3507 H 311.367 -0.434972 -0.51747 0
M  V30 3508 H 313.921 -1.75023 -1.075 0
M  V30 3509 H 312.151 -1.39836 -3.60531 0
M  V30 3510 H 313.84 -1.81651 -3.62985 0
M  V30 3511 H 314.606 -4.08374 -2.6164 0
M  V30 3512 H 310.485 -3.12883 -3.38564 0
M  V30 3513 H 314.029 -6.48404 -2.57328 0
M  V30 3514 H 309.926 -5.52052 -3.34528 0
M  V30 3515 H 310.694 -7.5803 -3.0876 0
M  V30 3516 N 313.357 1.07166 -1.15556 0
M  V30 3517 C 314.287 2.16403 -0.877046 0
M  V30 3518 C 315.268 1.69217 0.173111 0
M  V30 3519 O 316.453 1.94181 0.027084 0
M  V30 3520 C 313.583 3.45349 -0.367632 0
M  V30 3521 C 312.537 4.05995 -1.35468 0
M  V30 3522 C 311.863 5.30045 -0.704038 0
M  V30 3523 C 313.163 4.45804 -2.72132 0
M  V30 3524 H 314.857 2.39959 -1.79053 0
M  V30 3525 H 312.403 1.15325 -0.862331 0
M  V30 3526 H 314.356 4.21095 -0.160317 0
M  V30 3527 H 313.08 3.21385 0.581326 0
M  V30 3528 H 311.739 3.32296 -1.54839 0
M  V30 3529 H 311.387 5.02373 0.251128 0
M  V30 3530 H 311.087 5.71579 -1.36277 0
M  V30 3531 H 312.611 6.08495 -0.50654 0
M  V30 3532 H 314.025 5.12671 -2.56595 0
M  V30 3533 H 312.422 4.98296 -3.34397 0
M  V30 3534 H 313.492 3.57083 -3.28054 0
M  V30 3535 N 314.835 0.952656 1.25548 0
M  V30 3536 C 316.081 0.607272 1.93494 0
M  V30 3537 C 316.414 -0.853245 1.74452 0
M  V30 3538 O 315.689 -1.61194 1.08843 0
M  V30 3539 C 315.972 0.96435 3.46947 0
M  V30 3540 C 315.825 2.48045 3.75225 0
M  V30 3541 C 317.144 0.487987 4.37386 0
M  V30 3542 H 314.263 0.222096 0.702739 0
M  V30 3543 H 316.905 1.18895 1.48203 0
M  V30 3544 H 315.055 0.469361 3.85654 0
M  V30 3545 H 316.727 3.04905 3.46166 0
M  V30 3546 H 314.97 2.919 3.209 0
M  V30 3547 H 315.641 2.6808 4.82532 0
M  V30 3548 H 318.117 0.912558 4.0597 0
M  V30 3549 H 316.993 0.766547 5.43521 0
M  V30 3550 H 317.254 -0.612063 4.37843 0
M  V30 3551 N 316.313 -1.40141 0.720998 0
M  V30 3552 C 317.276 -2.29058 0.0805834 0
M  V30 3553 C 318.276 -1.45632 -0.681758 0
M  V30 3554 O 319.466 -1.6648 -0.512856 0
M  V30 3555 C 316.598 -3.28925 -0.895593 0
M  V30 3556 H 317.791 -2.87191 0.863793 0
M  V30 3557 H 315.344 -1.48553 0.485975 0
M  V30 3558 H 316.079 -2.75822 -1.70566 0
M  V30 3559 H 315.864 -3.90519 -0.351766 0
M  V30 3560 H 317.354 -3.95494 -1.34069 0
M  V30 3561 N 317.792 -0.46758 -1.50504 0
M  V30 3562 C 319.203 -0.0116166 -1.86696 0
M  V30 3563 C 319.554 1.39202 -1.38265 0
M  V30 3564 O 318.679 2.0313 -0.746132 0
M  V30 3565 C 319.274 -0.0143044 -3.38797 0
M  V30 3566 C 317.833 0.386175 -3.74414 0
M  V30 3567 C 316.98 -0.401287 -2.74381 0
M  V30 3568 H 319.931 -0.682022 -1.43297 0
M  V30 3569 H 319.952 0.788641 -3.72237 0
M  V30 3570 H 319.464 -1.03602 -3.74016 0
M  V30 3571 H 317.565 1.41237 -3.44794 0
M  V30 3572 H 317.678 0.0899596 -4.79016 0
M  V30 3573 H 316.042 0.144536 -2.5429 0
M  V30 3574 H 316.825 -1.42244 -3.12444 0
M  V30 3575 N 319.27 1.56325 -0.20005 0
M  V30 3576 C 320.18 2.22931 0.730668 0
M  V30 3577 C 321.196 1.22997 1.23076 0
M  V30 3578 O 322.372 1.55748 1.27689 0
M  V30 3579 C 319.437 2.87948 1.93098 0
M  V30 3580 C 318.498 4.03166 1.47497 0
M  V30 3581 C 317.731 4.65073 2.61807 0
M  V30 3582 O 317.954 4.25913 3.79413 0
M  V30 3583 O 316.888 5.54452 2.34237 0
M  V30 3584 H 320.714 3.03084 0.193391 0
M  V30 3585 H 318.299 1.49371 0.0294621 0
M  V30 3586 H 320.181 3.29063 2.6324 0
M  V30 3587 H 318.856 2.10771 2.45677 0
M  V30 3588 H 317.763 3.66664 0.742201 0
M  V30 3589 H 319.096 4.82022 0.995796 0
M  V30 3590 N 320.748 -0.0735177 1.57428 0
M  V30 3591 C 321.678 -1.0879 2.06608 0
M  V30 3592 C 322.659 -1.40473 0.959237 0
M  V30 3593 O 323.844 -1.5013 1.23185 0
M  V30 3594 C 320.974 -2.40183 2.50857 0
M  V30 3595 C 319.928 -2.22858 3.65402 0
M  V30 3596 C 319.254 -3.59619 3.957 0
M  V30 3597 C 320.554 -1.65123 4.95511 0
M  V30 3598 H 322.248 -0.678673 2.91607 0
M  V30 3599 H 319.794 -0.325013 1.40284 0
M  V30 3600 H 321.747 -3.11437 2.83874 0
M  V30 3601 H 320.471 -2.83083 1.62885 0
M  V30 3602 H 319.13 -1.54045 3.32664 0
M  V30 3603 H 318.778 -4.00086 3.04861 0
M  V30 3604 H 318.478 -3.48866 4.72828 0
M  V30 3605 H 320.002 -4.32306 4.31212 0
M  V30 3606 H 321.416 -2.26241 5.26771 0
M  V30 3607 H 319.813 -1.65071 5.7695 0
M  V30 3608 H 320.883 -0.612559 4.81015 0
M  V30 3609 N 322.226 -1.5378 -0.344866 0
M  V30 3610 C 323.136 -1.84667 -1.4469 0
M  V30 3611 C 324.152 -0.736704 -1.57635 0
M  V30 3612 O 325.328 -1.02888 -1.73136 0
M  V30 3613 C 322.393 -2.04869 -2.79696 0
M  V30 3614 C 321.454 -3.28731 -2.76106 0
M  V30 3615 C 320.687 -3.4796 -4.04673 0
M  V30 3616 O 320.91 -2.71052 -5.01883 0
M  V30 3617 O 319.844 -4.41383 -4.09224 0
M  V30 3618 H 323.67 -2.78334 -1.21506 0
M  V30 3619 H 321.255 -1.39418 -0.536921 0
M  V30 3620 H 323.137 -2.19609 -3.59652 0
M  V30 3621 H 321.812 -1.14391 -3.02814 0
M  V30 3622 H 320.719 -3.19396 -1.94774 0
M  V30 3623 H 322.052 -4.19198 -2.57941 0
M  V30 3624 N 323.704 0.605807 -1.45491 0
M  V30 3625 C 324.95 1.36679 -1.49823 0
M  V30 3626 C 325.283 1.93693 -0.140175 0
M  V30 3627 O 324.558 1.75158 0.845581 0
M  V30 3628 C 324.841 2.51337 -2.57879 0
M  V30 3629 C 324.694 1.99508 -4.03134 0
M  V30 3630 C 326.013 3.53463 -2.62205 0
M  V30 3631 H 323.132 0.495617 -0.545466 0
M  V30 3632 H 325.774 0.682732 -1.7731 0
M  V30 3633 H 323.924 3.09691 -2.34571 0
M  V30 3634 H 325.596 1.45789 -4.37656 0
M  V30 3635 H 323.839 1.30496 -4.13707 0
M  V30 3636 H 324.51 2.82169 -4.74431 0
M  V30 3637 H 326.986 3.04953 -2.83095 0
M  V30 3638 H 325.862 4.31178 -3.39672 0
M  V30 3639 H 326.123 4.09197 -1.67363 0
M  V30 3640 N 325.182 1.32811 0.848464 0
M  V30 3641 C 326.092 1.24278 1.98978 0
M  V30 3642 C 327.108 0.155176 1.73307 0
M  V30 3643 O 328.284 0.376999 1.9784 0
M  V30 3644 C 325.349 0.972444 3.32783 0
M  V30 3645 C 324.41 2.14911 3.71634 0
M  V30 3646 C 323.643 1.89157 4.99054 0
M  V30 3647 O 323.866 0.837165 5.64223 0
M  V30 3648 O 322.8 2.75433 5.35183 0
M  V30 3649 H 326.626 2.20238 2.09115 0
M  V30 3650 H 324.211 1.12762 0.980052 0
M  V30 3651 H 326.093 0.838432 4.12975 0
M  V30 3652 H 324.768 0.043051 3.23671 0
M  V30 3653 H 323.675 2.33862 2.91992 0
M  V30 3654 H 325.008 3.06151 3.85399 0
M  V30 3655 N 326.66 -1.06551 1.16123 0
M  V30 3656 C 327.57 -2.17484 0.879662 0
M  V30 3657 C 328.586 -1.73377 -0.147104 0
M  V30 3658 O 329.762 -2.01379 0.0289128 0
M  V30 3659 C 326.827 -3.44591 0.381829 0
M  V30 3660 C 325.888 -4.0322 1.4735 0
M  V30 3661 C 325.121 -5.24261 0.999324 0
M  V30 3662 O 325.344 -5.70198 -0.151957 0
M  V30 3663 O 324.278 -5.74775 1.78653 0
M  V30 3664 H 328.104 -2.44075 1.80724 0
M  V30 3665 H 325.689 -1.16042 0.940992 0
M  V30 3666 H 327.571 -4.21254 0.111053 0
M  V30 3667 H 326.246 -3.19532 -0.51777 0
M  V30 3668 H 325.153 -3.2806 1.79798 0
M  V30 3669 H 326.486 -4.32568 2.34831 0
M  V30 3670 N 328.138 -0.959301 -1.25041 0
M  V30 3671 C 329.385 -0.616611 -1.92884 0
M  V30 3672 C 329.713 0.847036 -1.75087 0
M  V30 3673 O 328.968 1.62374 -1.09239 0
M  V30 3674 C 329.267 -0.927136 -3.45165 0
M  V30 3675 C 328.933 -2.37757 -3.83122 0
M  V30 3676 C 327.595 -2.77402 -3.93194 0
M  V30 3677 C 329.947 -3.31929 -4.01836 0
M  V30 3678 C 327.275 -4.10277 -4.19392 0
M  V30 3679 C 329.627 -4.64423 -4.29528 0
M  V30 3680 C 328.291 -5.03857 -4.37818 0
M  V30 3681 H 327.561 -0.225634 -0.705812 0
M  V30 3682 H 330.208 -1.20921 -1.48493 0
M  V30 3683 H 328.513 -0.252195 -3.90987 0
M  V30 3684 H 330.21 -0.6405 -3.95852 0
M  V30 3685 H 326.8 -2.06013 -3.75841 0
M  V30 3686 H 330.984 -3.02488 -3.93465 0
M  V30 3687 H 326.24 -4.40467 -4.24027 0
M  V30 3688 H 330.414 -5.37369 -4.42953 0
M  V30 3689 H 328.041 -6.06843 -4.57871 0
M  V30 3690 N 329.616 1.39756 -0.72842 0
M  V30 3691 C 330.564 2.32485 -0.0731849 0
M  V30 3692 C 331.558 1.52717 0.733063 0
M  V30 3693 O 332.764 1.68428 0.634988 0
M  V30 3694 H 329.139 0.751984 -0.00486469 0
M  V30 3695 H 331.11 2.85382 -0.871761 0
M  V30 3696 C 329.859 3.37773 0.824908 0
M  V30 3697 H 329.182 3.99227 0.213915 0
M  V30 3698 H 330.622 4.05121 1.25111 0
M  V30 3699 C 329.081 2.74287 1.95622 0
M  V30 3700 O 329.611 2.61618 3.04826 0
M  V30 3701 N 327.817 2.32475 1.74367 0
M  V30 3702 H 327.364 2.4298 0.855494 0
M  V30 3703 H 327.322 1.90337 2.50238 0
M  V30 3704 N 331.094 0.475555 1.50254 0
M  V30 3705 C 332.057 -0.305016 2.27161 0
M  V30 3706 C 333.057 -0.916519 1.32123 0
M  V30 3707 O 334.247 -0.785003 1.5551 0
M  V30 3708 C 331.379 -1.43496 3.09227 0
M  V30 3709 H 332.572 0.369511 2.97615 0
M  V30 3710 H 330.125 0.229747 1.54602 0
M  V30 3711 H 330.86 -2.14441 2.43281 0
M  V30 3712 H 330.645 -1.00223 3.79075 0
M  V30 3713 H 332.135 -1.98548 3.67381 0
M  V30 3714 N 332.573 -1.56217 0.208337 0
M  V30 3715 C 333.52 -2.19699 -0.707192 0
M  V30 3716 C 334.49 -1.14836 -1.20008 0
M  V30 3717 O 335.675 -1.4314 -1.26157 0
M  V30 3718 C 332.815 -2.87061 -1.91546 0
M  V30 3719 C 331.928 -4.06483 -1.46271 0
M  V30 3720 C 331.063 -4.61665 -2.62752 0
M  V30 3721 C 330.102 -5.73417 -2.14147 0
M  V30 3722 N 329.239 -6.22948 -3.23853 0
M  V30 3723 H 334.079 -2.97575 -0.159111 0
M  V30 3724 H 331.616 -1.46948 -0.0667874 0
M  V30 3725 H 333.574 -3.24294 -2.62468 0
M  V30 3726 H 332.204 -2.11725 -2.43664 0
M  V30 3727 H 331.256 -3.74825 -0.648886 0
M  V30 3728 H 332.568 -4.87271 -1.06622 0
M  V30 3729 H 331.722 -5.01272 -3.41776 0
M  V30 3730 H 330.461 -3.80013 -3.05682 0
M  V30 3731 H 329.466 -5.33326 -1.33581 0
M  V30 3732 H 330.691 -6.56897 -1.72232 0
M  V30 3733 H 328.637 -5.44213 -3.6629 0
M  V30 3734 H 328.554 -6.98823 -2.88414 0
M  V30 3735 H 329.822 -6.6721 -4.03052 0
M  V30 3736 N 334.051 0.0651679 -1.57465 0
M  V30 3737 C 335.014 1.06117 -2.03155 0
M  V30 3738 C 336.014 1.31204 -0.929632 0
M  V30 3739 O 337.204 1.26813 -1.19432 0
M  V30 3740 C 334.336 2.4032 -2.41783 0
M  V30 3741 H 335.529 0.667231 -2.92383 0
M  V30 3742 H 333.082 0.311075 -1.53173 0
M  V30 3743 H 333.817 2.84532 -1.55601 0
M  V30 3744 H 333.602 2.23451 -3.22199 0
M  V30 3745 H 335.092 3.11898 -2.77685 0
M  V30 3746 N 335.529 1.53961 0.336706 0
M  V30 3747 C 336.94 1.62914 0.911925 0
M  V30 3748 C 337.291 0.514795 1.89326 0
M  V30 3749 O 336.416 -0.354395 2.13478 0
M  V30 3750 C 337.011 2.95304 1.66076 0
M  V30 3751 C 335.57 3.06496 2.18489 0
M  V30 3752 C 334.717 2.58403 1.00613 0
M  V30 3753 H 337.668 1.58285 0.114649 0
M  V30 3754 H 337.689 2.84727 2.5241 0
M  V30 3755 H 337.201 3.76387 0.946276 0
M  V30 3756 H 335.302 2.3006 2.93092 0
M  V30 3757 H 335.415 4.1208 2.44391 0
M  V30 3758 H 333.779 2.13977 1.38152 0
M  V30 3759 H 334.562 3.41932 0.306179 0
M  V30 3760 N 337.007 -0.598083 1.45811 0
M  V30 3761 C 338.284 -1.35777 1.40797 0
M  V30 3762 C 338.664 -2.10935 0.083462 0
M  V30 3763 O 338.012 -2.08505 -0.934763 0
M  V30 3764 C 338.222 -2.29666 2.62783 0
M  V30 3765 C 339.57 -2.91977 3.08277 0
M  V30 3766 O 340.594 -2.39984 2.63223 0
M  V30 3767 O 339.453 -3.86376 3.86491 0
M  V30 3768 H 336.547 -0.609291 0.55919 0
M  V30 3769 H 339.093 -0.620379 1.57954 0
M  V30 3770 H 337.865 -1.73454 3.50756 0
M  V30 3771 H 337.488 -3.1077 2.48008 0
M  V30 3772 N 338.485 -1.33259 -0.841409 0
M  V30 3773 C 339.432 -1.23302 -1.95103 0
M  V30 3774 C 340.402 -0.112204 -1.65721 0
M  V30 3775 O 341.587 -0.290038 -1.88583 0
M  V30 3776 C 338.727 -0.975583 -3.31023 0
M  V30 3777 C 337.84 -2.18243 -3.72819 0
M  V30 3778 C 336.975 -1.85936 -4.97595 0
M  V30 3779 C 336.014 -3.02866 -5.3192 0
M  V30 3780 N 335.151 -2.70565 -6.47873 0
M  V30 3781 H 339.991 -2.18207 -2.02952 0
M  V30 3782 H 337.528 -1.0851 -0.993173 0
M  V30 3783 H 339.486 -0.80677 -4.09325 0
M  V30 3784 H 338.116 -0.0632755 -3.22738 0
M  V30 3785 H 337.168 -2.46107 -2.90061 0
M  V30 3786 H 338.48 -3.05666 -3.94169 0
M  V30 3787 H 337.634 -1.65684 -5.83638 0
M  V30 3788 H 336.373 -0.957452 -4.78209 0
M  V30 3789 H 335.378 -3.23736 -4.44382 0
M  V30 3790 H 336.603 -3.93809 -5.53255 0
M  V30 3791 H 334.549 -1.8293 -6.29978 0
M  V30 3792 H 334.466 -3.51519 -6.69306 0
M  V30 3793 H 335.734 -2.53774 -7.37034 0
M  V30 3794 N 339.963 1.05934 -1.16686 0
M  V30 3795 C 341.374 1.60263 -0.957745 0
M  V30 3796 C 341.725 1.89789 0.49745 0
M  V30 3797 O 340.85 1.67401 1.37135 0
M  V30 3798 C 341.445 2.91172 -1.73218 0
M  V30 3799 C 340.004 3.42188 -1.56794 0
M  V30 3800 C 339.151 2.16028 -1.73859 0
M  V30 3801 H 342.102 0.888392 -1.31504 0
M  V30 3802 H 342.123 3.60744 -1.21014 0
M  V30 3803 H 341.635 2.6965 -2.79124 0
M  V30 3804 H 339.736 3.68762 -0.533437 0
M  V30 3805 H 339.849 4.17273 -2.35414 0
M  V30 3806 H 338.213 2.26426 -1.16633 0
M  V30 3807 H 338.996 1.96985 -2.81161 0
M  V30 3808 N 341.441 0.965919 1.2453 0
M  V30 3809 C 342.69 0.622437 1.91856 0
M  V30 3810 C 343.003 -0.846006 1.76358 0
M  V30 3811 O 344.209 -1.29993 2.38357 0
M  V30 3812 C 342.665 1.0626 3.43856 0
M  V30 3813 C 342.273 2.55437 3.68043 0
M  V30 3814 C 344.017 0.792183 4.17043 0
M  V30 3815 C 341.924 2.93196 5.13605 0
M  V30 3816 H 340.854 0.229092 0.718354 0
M  V30 3817 H 343.505 1.17189 1.41206 0
M  V30 3818 H 341.887 0.441476 3.93531 0
M  V30 3819 H 343.061 3.22665 3.28974 0
M  V30 3820 H 341.376 2.8007 3.08139 0
M  V30 3821 H 343.973 1.05031 5.24283 0
M  V30 3822 H 344.316 -0.271584 4.15413 0
M  V30 3823 H 344.849 1.37419 3.73311 0
M  V30 3824 H 341.588 3.98636 5.20355 0
M  V30 3825 H 341.108 2.30651 5.53679 0
M  V30 3826 H 342.787 2.83004 5.81823 0
M  V30 3827 N 342.919 -1.39368 0.735821 0
M  V30 3828 C 343.851 -2.2913 0.0567723 0
M  V30 3829 C 344.864 -1.46859 -0.702589 0
M  V30 3830 O 346.053 -1.69925 -0.546616 0
M  V30 3831 C 343.153 -3.25492 -0.943823 0
M  V30 3832 C 342.326 -4.36709 -0.24581 0
M  V30 3833 C 341.385 -5.13376 -1.15463 0
M  V30 3834 O 340.411 -5.65683 -0.631803 0
M  V30 3835 N 341.613 -5.24656 -2.48427 0
M  V30 3836 H 344.378 -2.88047 0.827582 0
M  V30 3837 H 341.939 -1.50957 0.585112 0
M  V30 3838 H 343.931 -3.73657 -1.55443 0
M  V30 3839 H 342.501 -2.676 -1.61583 0
M  V30 3840 H 341.721 -3.9041 0.545286 0
M  V30 3841 H 343.009 -5.08244 0.237891 0
M  V30 3842 H 342.407 -4.83679 -2.93379 0
M  V30 3843 H 340.964 -5.76258 -3.04582 0
M  V30 3844 N 344.397 -0.483516 -1.5 0
M  V30 3845 C 345.643 0.0672592 -2.02688 0
M  V30 3846 C 345.976 1.38247 -1.36387 0
M  V30 3847 O 345.251 1.88131 -0.493675 0
M  V30 3848 C 345.534 0.238109 -3.59312 0
M  V30 3849 C 345.387 -1.099 -4.36168 0
M  V30 3850 C 346.706 0.986916 -4.28892 0
M  V30 3851 H 343.825 0.0229696 -0.736642 0
M  V30 3852 H 346.467 -0.631527 -1.79197 0
M  V30 3853 H 344.617 0.8333 -3.79458 0
M  V30 3854 H 346.289 -1.73172 -4.27562 0
M  V30 3855 H 344.532 -1.69261 -3.99416 0
M  V30 3856 H 345.203 -0.932954 -5.44059 0
M  V30 3857 H 347.679 0.482302 -4.13295 0
M  V30 3858 H 346.555 1.07527 -5.38265 0
M  V30 3859 H 346.816 2.0265 -3.92919 0
M  V30 3860 N 345.875 1.56104 -0.216619 0
M  V30 3861 C 347.121 1.98466 0.417033 0
M  V30 3862 C 347.454 1.10403 1.59765 0
M  V30 3863 O 346.729 0.160632 1.93836 0
M  V30 3864 C 347.012 3.49769 0.85637 0
M  V30 3865 C 346.865 4.48606 -0.327546 0
M  V30 3866 C 348.184 4.05339 1.7143 0
M  V30 3867 H 345.303 0.721551 0.150112 0
M  V30 3868 H 347.945 1.87423 -0.311864 0
M  V30 3869 H 346.095 3.5931 1.47745 0
M  V30 3870 H 347.767 4.5108 -0.965618 0
M  V30 3871 H 346.01 4.22682 -0.975805 0
M  V30 3872 H 346.681 5.51995 0.0227149 0
M  V30 3873 H 349.157 3.98712 1.19031 0
M  V30 3874 H 348.033 5.11533 1.99061 0
M  V30 3875 H 348.294 3.51918 2.67593 0
M  V30 3876 N 347.353 -0.0568162 1.57498 0
M  V30 3877 C 348.583 -0.764515 1.91934 0
M  V30 3878 C 348.991 -1.70877 0.81227 0
M  V30 3879 O 348.334 -1.82351 -0.222213 0
M  V30 3880 C 348.396 -1.5994 3.21962 0
M  V30 3881 C 348.06 -0.822925 4.4953 0
M  V30 3882 C 349.057 -0.135464 5.19723 0
M  V30 3883 C 346.742 -0.785666 4.96117 0
M  V30 3884 C 348.736 0.578861 6.34766 0
M  V30 3885 C 346.423 -0.0675784 6.11063 0
M  V30 3886 C 347.421 0.613471 6.80239 0
M  V30 3887 O 347.109 1.31996 7.92989 0
M  V30 3888 H 346.841 -0.221647 0.63863 0
M  V30 3889 H 349.395 -0.0268218 2.05382 0
M  V30 3890 H 347.625 -2.38026 3.04763 0
M  V30 3891 H 349.314 -2.18715 3.41934 0
M  V30 3892 H 350.08 -0.155458 4.84751 0
M  V30 3893 H 345.959 -1.30524 4.42136 0
M  V30 3894 H 349.503 1.111 6.88696 0
M  V30 3895 H 345.4 -0.0455636 6.45484 0
M  V30 3896 H 346.168 1.23077 8.09194 0
M  V30 3897 N 348.832 -1.54138 -0.328536 0
M  V30 3898 C 350.078 -1.7236 -1.06865 0
M  V30 3899 C 350.411 -0.493231 -1.87832 0
M  V30 3900 O 349.686 0.5098 -1.877 0
M  V30 3901 C 349.969 -2.99621 -1.99747 0
M  V30 3902 C 349.822 -4.32899 -1.22143 0
M  V30 3903 C 351.141 -3.22615 -2.99345 0
M  V30 3904 H 348.26 -0.627151 -0.387105 0
M  V30 3905 H 350.902 -1.86827 -0.345767 0
M  V30 3906 H 349.052 -2.87418 -2.61387 0
M  V30 3907 H 350.724 -4.56978 -0.630017 0
M  V30 3908 H 348.967 -4.30628 -0.523628 0
M  V30 3909 H 349.638 -5.18154 -1.90318 0
M  V30 3910 H 352.114 -3.34248 -2.47826 0
M  V30 3911 H 350.99 -4.13027 -3.61524 0
M  V30 3912 H 351.251 -2.3961 -3.71536 0
M  V30 3913 N 350.31 0.590341 -1.46126 0
M  V30 3914 C 351.721 1.17243 -1.45296 0
M  V30 3915 C 352.072 1.95281 -0.189723 0
M  V30 3916 O 351.197 2.04502 0.707674 0
M  V30 3917 C 351.792 2.13284 -2.6324 0
M  V30 3918 C 350.351 2.66832 -2.65476 0
M  V30 3919 C 349.498 1.42557 -2.3785 0
M  V30 3920 H 352.449 0.378692 -1.54116 0
M  V30 3921 H 352.47 2.96619 -2.38323 0
M  V30 3922 H 351.982 1.56459 -3.55165 0
M  V30 3923 H 350.083 3.27548 -1.77603 0
M  V30 3924 H 350.196 3.10088 -3.65215 0
M  V30 3925 H 348.56 1.72107 -1.87753 0
M  V30 3926 H 349.343 0.875741 -3.31942 0
M  V30 3927 N 351.788 1.33704 0.83433 0
M  V30 3928 C 353.013 1.28615 1.62705 0
M  V30 3929 C 353.438 -0.139242 1.87584 0
M  V30 3930 O 352.796 -1.09734 1.4432 0
M  V30 3931 C 352.844 2.07139 2.95171 0
M  V30 3932 O 351.948 1.4331 3.86699 0
M  V30 3933 H 351.289 0.44226 0.49528 0
M  V30 3934 H 353.819 1.76335 1.03766 0
M  V30 3935 H 353.829 2.18073 3.44831 0
M  V30 3936 H 352.504 3.10779 2.76386 0
M  V30 3937 H 351.081 1.4105 3.45195 0
M  V30 3938 N 353.266 -1.05314 1.17247 0
M  V30 3939 C 354.216 -2.11313 0.856196 0
M  V30 3940 C 355.2 -1.60013 -0.168694 0
M  V30 3941 O 356.392 -1.76968 0.0335624 0
M  V30 3942 C 353.521 -3.41301 0.369917 0
M  V30 3943 C 352.607 -3.99401 1.42616 0
M  V30 3944 N 352.998 -4.31481 2.63928 0
M  V30 3945 C 351.296 -4.27126 1.28373 0
M  V30 3946 C 351.997 -4.77799 3.31787 0
M  V30 3947 N 350.973 -4.77843 2.59166 0
M  V30 3948 H 354.775 -2.33976 1.77856 0
M  V30 3949 H 352.289 -1.2295 1.06099 0
M  V30 3950 H 354.286 -4.16713 0.124897 0
M  V30 3951 H 352.946 -3.20072 -0.546253 0
M  V30 3952 H 353.957 -4.21519 3.00902 0
M  V30 3953 H 350.634 -4.15289 0.429111 0
M  V30 3954 H 352.024 -5.11743 4.35395 0
M  V30 3955 N 354.744 -0.972509 -1.24016 0
M  V30 3956 C 355.674 -0.525548 -2.27509 0
M  V30 3957 C 356.655 0.437262 -1.64384 0
M  V30 3958 O 357.84 0.332343 -1.91335 0
M  V30 3959 C 354.97 0.180448 -3.46831 0
M  V30 3960 C 353.924 -0.698859 -4.22256 0
M  V30 3961 C 353.25 0.138903 -5.3452 0
M  V30 3962 C 354.55 -1.98582 -4.83076 0
M  V30 3963 H 356.244 -1.39058 -2.65148 0
M  V30 3964 H 353.79 -0.67009 -1.27459 0
M  V30 3965 H 355.743 0.504387 -4.18371 0
M  V30 3966 H 354.467 1.07987 -3.08231 0
M  V30 3967 H 353.126 -1.00614 -3.52523 0
M  V30 3968 H 352.774 1.03862 -4.9216 0
M  V30 3969 H 352.474 -0.446259 -5.85903 0
M  V30 3970 H 353.998 0.457404 -6.08884 0
M  V30 3971 H 355.412 -1.72715 -5.46665 0
M  V30 3972 H 353.809 -2.5181 -5.44713 0
M  V30 3973 H 354.879 -2.67769 -4.04262 0
M  V30 3974 N 356.222 1.38976 -0.743202 0
M  V30 3975 C 357.469 2.00343 -0.294752 0
M  V30 3976 C 357.797 1.58983 1.12047 0
M  V30 3977 O 357.052 0.813809 1.77977 0
M  V30 3978 C 357.351 3.55647 -0.353517 0
M  V30 3979 C 357.017 4.16685 -1.72292 0
M  V30 3980 C 355.679 4.3307 -2.09771 0
M  V30 3981 C 358.031 4.50464 -2.62168 0
M  V30 3982 C 355.359 4.80526 -3.36618 0
M  V30 3983 C 357.711 4.99332 -3.88395 0
M  V30 3984 C 356.375 5.13924 -4.25956 0
M  V30 3985 H 355.645 0.733108 -0.107857 0
M  V30 3986 H 358.292 1.6618 -0.951651 0
M  V30 3987 H 356.597 3.89884 0.386954 0
M  V30 3988 H 358.294 4.00998 0.0117269 0
M  V30 3989 H 354.884 4.04339 -1.42155 0
M  V30 3990 H 359.068 4.37416 -2.3448 0
M  V30 3991 H 354.324 4.90008 -3.65653 0
M  V30 3992 H 358.498 5.2444 -4.58187 0
M  V30 3993 H 356.125 5.50457 -5.2431 0
M  V30 3994 N 357.7 0.491464 1.49741 0
M  V30 3995 C 358.65 -0.311086 2.25868 0
M  V30 3996 C 359.634 -0.943857 1.30308 0
M  V30 3997 O 360.826 -0.853035 1.55088 0
M  V30 3998 C 357.955 -1.38059 3.14316 0
M  V30 3999 C 357.041 -0.754541 4.17334 0
M  V30 4000 N 357.432 0.137216 5.05614 0
M  V30 4001 C 355.73 -1.01621 4.34269 0
M  V30 4002 C 356.431 0.494614 5.79593 0
M  V30 4003 N 355.407 -0.135169 5.43432 0
M  V30 4004 H 359.209 0.37555 2.91491 0
M  V30 4005 H 356.723 0.306917 1.59473 0
M  V30 4006 H 358.72 -1.96891 3.67477 0
M  V30 4007 H 357.38 -2.06901 2.50244 0
M  V30 4008 H 358.391 0.50741 5.15408 0
M  V30 4009 H 355.068 -1.69808 3.81407 0
M  V30 4010 H 356.458 1.2236 6.60665 0
M  V30 4011 N 359.178 -1.55987 0.224894 0
M  V30 4012 C 360.111 -2.16413 -0.723929 0
M  V30 4013 C 361.089 -1.10952 -1.18863 0
M  V30 4014 O 362.273 -1.39225 -1.27077 0
M  V30 4015 C 359.4 -2.74711 -1.98121 0
M  V30 4016 C 358.446 -3.9303 -1.6562 0
M  V30 4017 S 359.279 -5.29817 -0.778058 0
M  V30 4018 C 360.435 -5.91555 -2.04483 0
M  V30 4019 H 360.668 -2.96555 -0.210347 0
M  V30 4020 H 358.201 -1.54397 0.00955457 0
M  V30 4021 H 360.159 -3.08938 -2.70311 0
M  V30 4022 H 358.82 -1.94555 -2.46591 0
M  V30 4023 H 358.013 -4.32334 -2.59043 0
M  V30 4024 H 357.615 -3.59966 -1.01491 0
M  V30 4025 H 359.907 -6.07732 -2.99446 0
M  V30 4026 H 360.85 -6.87498 -1.69563 0
M  V30 4027 H 361.258 -5.20419 -2.18688 0
M  V30 4028 N 360.656 0.0484629 -1.57525 0
M  V30 4029 C 361.586 1.0549 -2.08313 0
M  V30 4030 C 362.567 1.38929 -0.981463 0
M  V30 4031 O 363.752 1.48151 -1.25558 0
M  V30 4032 C 360.882 2.36162 -2.54646 0
M  V30 4033 C 359.836 2.17016 -3.68901 0
M  V30 4034 C 359.162 3.53278 -4.01371 0
M  V30 4035 C 360.462 1.57219 -4.98076 0
M  V30 4036 H 362.156 0.632195 -2.92649 0
M  V30 4037 H 359.702 0.302654 -1.40784 0
M  V30 4038 H 361.655 3.06882 -2.88793 0
M  V30 4039 H 360.379 2.80456 -1.67368 0
M  V30 4040 H 359.038 1.48733 -3.35073 0
M  V30 4041 H 358.686 3.95185 -3.11188 0
M  V30 4042 H 358.386 3.41299 -4.78318 0
M  V30 4043 H 359.91 4.25391 -4.38035 0
M  V30 4044 H 361.324 2.17832 -5.30304 0
M  V30 4045 H 359.721 1.55871 -5.79503 0
M  V30 4046 H 360.791 0.535956 -4.81929 0
M  V30 4047 N 362.134 1.5431 0.320358 0
M  V30 4048 C 363.381 1.72668 1.05792 0
M  V30 4049 C 363.709 0.502084 1.87908 0
M  V30 4050 O 362.964 -0.516149 1.88771 0
M  V30 4051 C 363.263 2.95639 2.00828 0
M  V30 4052 C 362.929 4.30265 1.34843 0
M  V30 4053 C 361.591 4.66865 1.16578 0
M  V30 4054 C 363.943 5.13801 0.875095 0
M  V30 4055 C 361.271 5.84597 0.496336 0
M  V30 4056 C 363.623 6.32219 0.219463 0
M  V30 4057 C 362.287 6.67495 0.0246915 0
M  V30 4058 H 361.557 0.631837 0.387121 0
M  V30 4059 H 364.204 1.88552 0.334735 0
M  V30 4060 H 362.509 2.74456 2.79609 0
M  V30 4061 H 364.206 3.07038 2.57932 0
M  V30 4062 H 360.796 4.01472 1.50061 0
M  V30 4063 H 364.98 4.86039 1.00398 0
M  V30 4064 H 360.236 6.10486 0.334264 0
M  V30 4065 H 364.41 6.96227 -0.155291 0
M  V30 4066 H 362.037 7.5858 -0.496065 0
M  V30 4067 N 363.613 -0.582584 1.46437 0
M  V30 4068 C 364.523 -1.71949 1.59595 0
M  V30 4069 C 365.539 -1.67264 0.479443 0
M  V30 4070 O 366.715 -1.87171 0.743579 0
M  V30 4071 C 363.78 -3.08452 1.58298 0
M  V30 4072 C 362.841 -3.244 2.81182 0
M  V30 4073 C 362.074 -4.54391 2.79937 0
M  V30 4074 O 362.297 -5.38287 1.8869 0
M  V30 4075 O 361.231 -4.73588 3.71481 0
M  V30 4076 H 365.057 -1.63795 2.55744 0
M  V30 4077 H 362.642 -0.749643 1.29231 0
M  V30 4078 H 364.524 -3.89732 1.60271 0
M  V30 4079 H 363.199 -3.17043 0.653094 0
M  V30 4080 H 362.106 -2.42613 2.84763 0
M  V30 4081 H 363.439 -3.20699 3.7338 0
M  V30 4082 N 365.091 -1.34144 -0.827227 0
M  V30 4083 C 366.021 -1.28005 -1.95287 0
M  V30 4084 C 367.002 -0.158321 -1.69362 0
M  V30 4085 O 368.187 -0.349987 -1.9102 0
M  V30 4086 C 365.317 -1.03036 -3.31664 0
M  V30 4087 C 364.271 -2.11628 -3.72019 0
M  V30 4088 C 363.597 -1.71854 -5.0633 0
M  V30 4089 C 364.897 -3.53417 -3.8457 0
M  V30 4090 H 366.591 -2.22187 -2.00682 0
M  V30 4091 H 364.137 -1.0696 -0.964135 0
M  V30 4092 H 366.09 -0.973863 -4.09993 0
M  V30 4093 H 364.814 -0.0529391 -3.26557 0
M  V30 4094 H 363.473 -2.16339 -2.95961 0
M  V30 4095 H 363.121 -0.727841 -4.97706 0
M  V30 4096 H 362.821 -2.44531 -5.34302 0
M  V30 4097 H 364.345 -1.67692 -5.87122 0
M  V30 4098 H 365.759 -3.51142 -4.5318 0
M  V30 4099 H 364.156 -4.24679 -4.2399 0
M  V30 4100 H 365.226 -3.91072 -2.86689 0
M  V30 4101 N 366.569 1.04691 -1.17803 0
M  V30 4102 C 367.816 1.77782 -0.969532 0
M  V30 4103 C 368.144 1.87926 0.501401 0
M  V30 4104 O 367.399 1.37918 1.38842 0
M  V30 4105 C 367.698 3.21467 -1.56186 0
M  V30 4106 C 367.364 3.3137 -3.05786 0
M  V30 4107 C 366.026 3.3378 -3.46619 0
M  V30 4108 C 368.378 3.31976 -4.01797 0
M  V30 4109 C 365.706 3.34431 -4.82051 0
M  V30 4110 C 368.058 3.34167 -5.37136 0
M  V30 4111 C 366.722 3.34866 -5.77426 0
M  V30 4112 H 365.992 0.650549 -0.354777 0
M  V30 4113 H 368.639 1.23006 -1.46772 0
M  V30 4114 H 366.944 3.79203 -0.985515 0
M  V30 4115 H 368.641 3.76652 -1.37602 0
M  V30 4116 H 365.231 3.3021 -2.73238 0
M  V30 4117 H 369.415 3.29311 -3.71306 0
M  V30 4118 H 364.671 3.33285 -5.12573 0
M  V30 4119 H 368.845 3.33585 -6.11305 0
M  V30 4120 H 366.472 3.35124 -6.82346 0
M  V30 4121 N 368.047 0.979072 1.23499 0
M  V30 4122 C 368.994 0.517904 2.24914 0
M  V30 4123 C 369.964 -0.442525 1.60097 0
M  V30 4124 O 371.149 -0.350365 1.87556 0
M  V30 4125 C 368.289 -0.174813 3.44657 0
M  V30 4126 C 367.402 0.825721 4.24035 0
M  V30 4127 C 366.537 0.107946 5.3109 0
M  V30 4128 C 365.576 1.09778 6.02175 0
M  V30 4129 N 364.713 0.40925 7.00906 0
M  V30 4130 H 369.553 1.38751 2.63727 0
M  V30 4131 H 367.09 0.695303 1.2963 0
M  V30 4132 H 369.048 -0.593233 4.12961 0
M  V30 4133 H 367.678 -1.0083 3.06648 0
M  V30 4134 H 366.73 1.36253 3.55161 0
M  V30 4135 H 368.042 1.58005 4.73113 0
M  V30 4136 H 367.196 -0.367904 6.05583 0
M  V30 4137 H 365.935 -0.678994 4.8295 0
M  V30 4138 H 364.94 1.5844 5.26476 0
M  V30 4139 H 366.165 1.88536 6.52404 0
M  V30 4140 H 364.111 -0.358506 6.5502 0
M  V30 4141 H 364.028 1.10226 7.47921 0
M  V30 4142 H 365.296 -0.0442557 7.79487 0
M  V30 4143 N 369.525 -1.3858 0.750561 0
M  V30 4144 C 370.473 -2.32339 0.110162 0
M  V30 4145 C 371.467 -1.53864 -0.708674 0
M  V30 4146 O 372.673 -1.69417 -0.608112 0
M  V30 4147 H 369.048 -0.751812 0.0168275 0
M  V30 4148 H 371.019 -2.83959 0.917053 0
M  V30 4149 C 369.768 -3.39043 -0.771067 0
M  V30 4150 H 369.091 -3.99517 -0.150374 0
M  V30 4151 H 370.531 -4.07061 -1.1865 0
M  V30 4152 C 368.99 -2.77365 -1.91234 0
M  V30 4153 O 369.52 -2.66434 -3.00626 0
M  V30 4154 N 367.726 -2.35219 -1.70646 0
M  V30 4155 H 367.273 -2.4431 -0.81673 0
M  V30 4156 H 367.231 -1.94294 -2.47178 0
M  V30 4157 N 371.003 -0.499398 -1.49478 0
M  V30 4158 C 372.228 0.044722 -2.07352 0
M  V30 4159 C 372.653 1.30207 -1.35749 0
M  V30 4160 O 372.011 1.76516 -0.413732 0
M  V30 4161 C 372.059 0.283013 -3.59488 0
M  V30 4162 O 371.163 1.35804 -3.89398 0
M  V30 4163 H 370.504 -0.0255147 -0.66351 0
M  V30 4164 H 373.034 -0.698561 -1.92305 0
M  V30 4165 H 373.044 0.515007 -4.04737 0
M  V30 4166 H 371.719 -0.635636 -4.11014 0
M  V30 4167 H 370.296 1.11113 -3.55961 0
M  V30 4168 N 372.481 1.55866 -0.233164 0
M  V30 4169 C 373.414 2.16794 0.712442 0
M  V30 4170 C 374.392 1.1158 1.18273 0
M  V30 4171 O 375.576 1.39897 1.26337 0
M  V30 4172 C 372.703 2.75757 1.96661 0
M  V30 4173 C 371.749 3.93902 1.63533 0
M  V30 4174 S 372.582 5.30223 0.74995 0
M  V30 4175 C 373.738 5.92631 2.01343 0
M  V30 4176 H 373.971 2.96662 0.194617 0
M  V30 4177 H 371.504 1.5439 -0.0177425 0
M  V30 4178 H 373.462 3.10367 2.68668 0
M  V30 4179 H 372.123 1.9586 2.45556 0
M  V30 4180 H 371.316 4.33702 2.56747 0
M  V30 4181 H 370.918 3.60499 0.995804 0
M  V30 4182 H 373.21 6.09312 2.96219 0
M  V30 4183 H 374.153 6.88388 1.65915 0
M  V30 4184 H 374.561 5.21571 2.15925 0
M  V30 4185 N 373.959 -0.0401083 1.57549 0
M  V30 4186 C 375.375 -0.395556 1.54621 0
M  V30 4187 C 375.575 -1.77281 0.957799 0
M  V30 4188 O 374.631 -2.45888 0.574031 0
M  V30 4189 C 375.944 -0.307535 2.99123 0
M  V30 4190 C 377.492 -0.385425 3.10618 0
M  V30 4191 C 377.967 -0.326973 4.56831 0
M  V30 4192 N 379.458 -0.386102 4.61588 0
M  V30 4193 C 380.193 -0.363591 5.72246 0
M  V30 4194 N 379.689 -0.29402 6.92176 0
M  V30 4195 N 381.482 -0.412503 5.60584 0
M  V30 4196 H 373.633 0.861325 1.94152 0
M  V30 4197 H 375.896 0.326445 0.890021 0
M  V30 4198 H 375.602 0.638461 3.45856 0
M  V30 4199 H 375.476 -1.10552 3.60636 0
M  V30 4200 H 377.863 -1.32185 2.63839 0
M  V30 4201 H 377.944 0.44171 2.51957 0
M  V30 4202 H 377.588 0.605738 5.04275 0
M  V30 4203 H 377.518 -1.17207 5.13391 0
M  V30 4204 H 380.009 -0.442832 3.75296 0
M  V30 4205 H 380.322 -0.28164 7.72287 0
M  V30 4206 H 378.667 -0.260232 6.94513 0
M  V30 4207 H 381.858 -0.464769 4.65787 0
M  V30 4208 H 382.031 -0.391492 6.46816 0
M  V30 4209 N 375.437 -1.54477 -0.31217 0
M  V30 4210 C 376.4 -1.83923 -1.36766 0
M  V30 4211 C 377.4 -0.711563 -1.44199 0
M  V30 4212 O 378.59 -0.979866 -1.44029 0
M  V30 4213 C 375.722 -2.0095 -2.75376 0
M  V30 4214 H 376.915 -2.78239 -1.11906 0
M  V30 4215 H 374.468 -1.46369 -0.548257 0
M  V30 4216 H 375.203 -1.08883 -3.05475 0
M  V30 4217 H 374.988 -2.83018 -2.71373 0
M  V30 4218 H 376.478 -2.2514 -3.51713 0
M  V30 4219 N 376.915 0.57481 -1.46744 0
M  V30 4220 C 378.143 1.35856 -1.56047 0
M  V30 4221 C 378.558 1.87691 -0.204365 0
M  V30 4222 O 377.915 1.64049 0.79963 0
M  V30 4223 C 377.966 2.54066 -2.57163 0
M  V30 4224 O 377.687 2.04377 -3.87507 0
M  V30 4225 C 379.188 3.46514 -2.76483 0
M  V30 4226 H 376.408 0.414754 -0.527466 0
M  V30 4227 H 378.952 0.698035 -1.92218 0
M  V30 4228 H 377.107 3.16092 -2.23974 0
M  V30 4229 H 377.521 2.81419 -4.4261 0
M  V30 4230 H 378.995 4.25919 -3.51137 0
M  V30 4231 H 379.472 3.98951 -1.83671 0
M  V30 4232 H 380.078 2.90318 -3.10799 0
M  V30 4233 N 378.394 1.34581 0.820102 0
M  V30 4234 C 379.64 1.27285 1.57881 0
M  V30 4235 C 379.973 -0.156137 1.93571 0
M  V30 4236 O 379.248 -1.10222 1.60254 0
M  V30 4237 C 379.531 2.16639 2.87645 0
M  V30 4238 C 379.384 3.68088 2.58517 0
M  V30 4239 C 380.703 2.05378 3.8924 0
M  V30 4240 H 377.822 0.463714 0.572833 0
M  V30 4241 H 380.464 1.64859 0.944539 0
M  V30 4242 H 378.614 1.84725 3.41773 0
M  V30 4243 H 380.286 4.10382 2.10676 0
M  V30 4244 H 378.529 3.89038 1.91917 0
M  V30 4245 H 379.2 4.2598 3.51063 0
M  V30 4246 H 381.676 2.33404 3.44473 0
M  V30 4247 H 380.552 2.7012 4.77835 0
M  V30 4248 H 380.813 1.0316 4.29896 0
M  V30 4249 N 379.872 -1.04064 1.18357 0
M  V30 4250 C 380.782 -2.15569 0.925596 0
M  V30 4251 C 381.798 -1.7365 -0.110295 0
M  V30 4252 O 382.974 -2.01273 0.0716218 0
M  V30 4253 C 380.039 -3.43704 0.454836 0
M  V30 4254 C 379.1 -4.00004 1.55869 0
M  V30 4255 C 378.333 -5.22023 1.1103 0
M  V30 4256 O 378.556 -5.70392 -0.0309756 0
M  V30 4257 O 377.49 -5.70856 1.90805 0
M  V30 4258 H 381.316 -2.40187 1.8586 0
M  V30 4259 H 378.901 -1.1402 0.965394 0
M  V30 4260 H 380.783 -4.20923 0.200382 0
M  V30 4261 H 379.458 -3.20559 -0.449876 0
M  V30 4262 H 378.365 -3.24172 1.86716 0
M  V30 4263 H 379.698 -4.2749 2.43953 0
M  V30 4264 N 381.35 -0.985608 -1.22978 0
M  V30 4265 C 382.28 -0.549649 -2.26939 0
M  V30 4266 C 383.261 0.419803 -1.64838 0
M  V30 4267 O 384.446 0.31203 -1.91677 0
M  V30 4268 C 381.576 0.143652 -3.47003 0
M  V30 4269 C 380.53 -0.743606 -4.21491 0
M  V30 4270 C 379.856 0.0822027 -5.34637 0
M  V30 4271 C 381.156 -2.03694 -4.80943 0
M  V30 4272 H 382.85 -1.41862 -2.63658 0
M  V30 4273 H 380.396 -0.683571 -1.26741 0
M  V30 4274 H 382.349 0.459985 -4.18882 0
M  V30 4275 H 381.073 1.04711 -3.09359 0
M  V30 4276 H 379.732 -1.04347 -3.51436 0
M  V30 4277 H 379.38 0.986359 -4.93234 0
M  V30 4278 H 379.08 -0.508377 -5.85397 0
M  V30 4279 H 380.604 0.392797 -6.09335 0
M  V30 4280 H 382.018 -1.78504 -5.44802 0
M  V30 4281 H 380.415 -2.57573 -5.42011 0
M  V30 4282 H 381.485 -2.72042 -4.01399 0
M  V30 4283 N 382.828 1.3818 -0.7579 0
M  V30 4284 C 384.058 2.04004 -0.326463 0
M  V30 4285 C 384.466 1.57286 1.05156 0
M  V30 4286 O 383.809 0.743144 1.67997 0
M  V30 4287 C 383.871 3.58444 -0.275402 0
M  V30 4288 C 383.535 4.28237 -1.59569 0
M  V30 4289 C 384.532 4.53312 -2.54566 0
M  V30 4290 C 382.217 4.66341 -1.86631 0
M  V30 4291 C 384.211 5.15531 -3.74842 0
M  V30 4292 C 381.898 5.28283 -3.0718 0
M  V30 4293 C 382.896 5.52814 -4.01106 0
M  V30 4294 O 382.584 6.13465 -5.19534 0
M  V30 4295 H 382.316 0.662026 -0.136739 0
M  V30 4296 H 384.87 1.7777 -1.02893 0
M  V30 4297 H 383.1 3.83667 0.483337 0
M  V30 4298 H 384.789 4.05701 0.127099 0
M  V30 4299 H 385.555 4.24299 -2.34936 0
M  V30 4300 H 381.434 4.46591 -1.14358 0
M  V30 4301 H 384.978 5.34594 -4.48168 0
M  V30 4302 H 380.875 5.56719 -3.26702 0
M  V30 4303 H 381.643 6.31951 -5.20173 0
M  V30 4304 N 384.306 0.507319 1.49211 0
M  V30 4305 C 385.216 -0.272136 2.33016 0
M  V30 4306 C 386.232 -0.961206 1.45041 0
M  V30 4307 O 387.408 -0.941191 1.78055 0
M  V30 4308 C 384.473 -1.31895 3.20631 0
M  V30 4309 C 383.534 -0.642648 4.24463 0
M  V30 4310 C 382.767 -1.63959 5.07891 0
M  V30 4311 O 382.99 -2.87007 4.92933 0
M  V30 4312 O 381.924 -1.19143 5.8999 0
M  V30 4313 H 385.75 0.413982 3.00865 0
M  V30 4314 H 383.335 0.268556 1.46966 0
M  V30 4315 H 385.217 -1.92446 3.7489 0
M  V30 4316 H 383.892 -1.98788 2.5547 0
M  V30 4317 H 382.799 0.00276252 3.741 0
M  V30 4318 H 384.132 -0.0160534 4.92197 0
M  V30 4319 N 385.784 -1.5574 0.241426 0
M  V30 4320 C 387.061 -1.90704 -0.434881 0
M  V30 4321 C 387.441 -1.16145 -1.76277 0
M  V30 4322 O 386.789 -0.277152 -2.26813 0
M  V30 4323 C 386.999 -3.43657 -0.608343 0
M  V30 4324 C 388.347 -4.14806 -0.906725 0
M  V30 4325 O 389.371 -3.49366 -0.694408 0
M  V30 4326 O 388.23 -5.30548 -1.31075 0
M  V30 4327 H 385.324 -0.793592 -0.23268 0
M  V30 4328 H 387.87 -1.67288 0.285086 0
M  V30 4329 H 386.642 -3.89927 0.327505 0
M  V30 4330 H 386.265 -3.72918 -1.37906 0
M  V30 4331 N 387.262 0.0317525 -1.57568 0
M  V30 4332 C 388.678 0.38735 -1.54828 0
M  V30 4333 C 388.878 1.7677 -0.967187 0
M  V30 4334 O 387.934 2.45581 -0.587063 0
M  V30 4335 C 389.247 0.291667 -2.99282 0
M  V30 4336 C 390.795 0.368946 -3.10818 0
M  V30 4337 C 391.27 0.302741 -4.56998 0
M  V30 4338 N 392.761 0.361617 -4.61786 0
M  V30 4339 C 393.496 0.333238 -5.72431 0
M  V30 4340 N 392.992 0.257308 -6.92322 0
M  V30 4341 N 394.785 0.382769 -5.60795 0
M  V30 4342 H 386.936 -0.871609 -1.93692 0
M  V30 4343 H 389.199 -0.331161 -0.888277 0
M  V30 4344 H 388.905 -0.656794 -3.45513 0
M  V30 4345 H 388.779 1.08638 -3.61217 0
M  V30 4346 H 391.166 1.30784 -2.64536 0
M  V30 4347 H 391.247 -0.455066 -2.5172 0
M  V30 4348 H 390.891 -0.632473 -5.03947 0
M  V30 4349 H 390.821 1.14482 -5.14005 0
M  V30 4350 H 393.312 0.422923 -3.75526 0
M  V30 4351 H 393.625 0.24068 -7.72425 0
M  V30 4352 H 391.97 0.223396 -6.94641 0
M  V30 4353 H 395.161 0.44006 -4.66027 0
M  V30 4354 H 395.334 0.357184 -6.47015 0
M  V30 4355 N 388.74 1.54641 0.303973 0
M  V30 4356 C 389.687 1.85386 1.37479 0
M  V30 4357 C 390.657 0.702528 1.50512 0
M  V30 4358 O 391.842 0.950867 1.65418 0
M  V30 4359 C 388.982 2.10413 2.73533 0
M  V30 4360 C 388.095 3.38049 2.68974 0
M  V30 4361 C 387.23 3.52934 3.97002 0
M  V30 4362 C 386.269 4.74373 3.86829 0
M  V30 4363 N 385.406 4.8608 5.06627 0
M  V30 4364 H 390.246 2.76732 1.1056 0
M  V30 4365 H 387.783 1.37034 0.534805 0
M  V30 4366 H 389.741 2.22919 3.52652 0
M  V30 4367 H 388.371 1.22338 2.98719 0
M  V30 4368 H 387.423 3.3418 1.81736 0
M  V30 4369 H 388.735 4.27288 2.57346 0
M  V30 4370 H 387.889 3.65088 4.84557 0
M  V30 4371 H 386.628 2.61824 4.1146 0
M  V30 4372 H 385.633 4.62255 2.97658 0
M  V30 4373 H 386.858 5.66888 3.73918 0
M  V30 4374 H 384.804 3.97891 5.21554 0
M  V30 4375 H 384.721 5.69315 4.9741 0
M  V30 4376 H 385.989 5.02587 5.95841 0
M  V30 4377 N 390.218 -0.567019 1.47046 0
M  V30 4378 C 391.128 -1.70247 1.6141 0
M  V30 4379 C 392.144 -1.66746 0.497157 0
M  V30 4380 O 393.32 -1.86371 0.763389 0
M  V30 4381 C 390.385 -3.06756 1.61561 0
M  V30 4382 C 389.446 -3.21399 2.84607 0
M  V30 4383 C 388.679 -4.51396 2.84741 0
M  V30 4384 O 388.902 -5.36255 1.94388 0
M  V30 4385 O 387.836 -4.69621 3.76483 0
M  V30 4386 H 391.662 -1.61073 2.57467 0
M  V30 4387 H 389.247 -0.735894 1.30019 0
M  V30 4388 H 391.129 -3.8801 1.64396 0
M  V30 4389 H 389.804 -3.16333 0.686684 0
M  V30 4390 H 388.711 -2.39579 2.8732 0
M  V30 4391 H 390.044 -3.16721 3.76761 0
M  V30 4392 N 391.696 -1.35014 -0.812953 0
M  V30 4393 C 392.944 -1.27678 -1.56661 0
M  V30 4394 C 393.265 0.150359 -1.94419 0
M  V30 4395 O 392.535 1.08532 -1.63088 0
M  V30 4396 H 391.115 -0.469602 -0.580933 0
M  V30 4397 H 393.777 -1.69043 -0.970076 0
M  V30 4398 H 392.873 -1.88833 -2.48492 0
M  V30 4399 N 393.175 1.03435 -1.18907 0
M  V30 4400 C 394.405 1.8012 -1.01195 0
M  V30 4401 C 394.813 1.8395 0.442613 0
M  V30 4402 O 394.156 1.27836 1.31923 0
M  V30 4403 C 394.218 3.26792 -1.49823 0
M  V30 4404 C 393.882 3.46609 -2.97844 0
M  V30 4405 C 394.879 3.37278 -3.95651 0
M  V30 4406 C 392.564 3.73001 -3.36416 0
M  V30 4407 C 394.558 3.54054 -5.30023 0
M  V30 4408 C 392.245 3.89423 -4.70949 0
M  V30 4409 C 393.243 3.79951 -5.67562 0
M  V30 4410 O 392.931 3.95895 -6.99659 0
M  V30 4411 H 392.663 0.573865 -0.357289 0
M  V30 4412 H 395.217 1.31207 -1.58031 0
M  V30 4413 H 393.447 3.76703 -0.873578 0
M  V30 4414 H 395.136 3.85055 -1.28404 0
M  V30 4415 H 395.902 3.16846 -3.67197 0
M  V30 4416 H 391.781 3.79469 -2.61772 0
M  V30 4417 H 395.325 3.46577 -6.05417 0
M  V30 4418 H 391.222 4.09351 -4.99101 0
M  V30 4419 H 391.99 4.13019 -7.06653 0
M  V30 4420 N 394.653 0.992116 1.22453 0
M  V30 4421 C 396.064 0.702776 1.72968 0
M  V30 4422 C 396.415 -0.780399 1.80012 0
M  V30 4423 O 395.54 -1.61007 1.44589 0
M  V30 4424 C 396.135 1.26903 3.14135 0
M  V30 4425 C 394.694 1.02909 3.62059 0
M  V30 4426 C 393.841 1.38969 2.39964 0
M  V30 4427 H 396.792 1.16457 1.07812 0
M  V30 4428 H 396.813 0.647223 3.74955 0
M  V30 4429 H 396.325 2.34851 3.08977 0
M  V30 4430 H 394.426 -0.0337979 3.72585 0
M  V30 4431 H 394.539 1.69191 4.48231 0
M  V30 4432 H 392.903 0.808279 2.41535 0
M  V30 4433 H 393.686 2.4792 2.37467 0
M  V30 4434 N 396.131 -1.37776 0.765217 0
M  V30 4435 C 397.094 -2.28686 0.153416 0
M  V30 4436 C 398.094 -1.47727 -0.635081 0
M  V30 4437 O 399.284 -1.68027 -0.459632 0
M  V30 4438 C 396.416 -3.31608 -0.790495 0
M  V30 4439 H 397.609 -2.84297 0.954723 0
M  V30 4440 H 395.162 -1.46932 0.53299 0
M  V30 4441 H 395.897 -2.81109 -1.61705 0
M  V30 4442 H 395.682 -3.9144 -0.227348 0
M  V30 4443 H 397.172 -3.99559 -1.21419 0
M  V30 4444 N 397.609 -0.515225 -1.4894 0
M  V30 4445 C 398.855 0.0242508 -2.02785 0
M  V30 4446 C 399.188 1.35323 -1.39289 0
M  V30 4447 O 398.463 1.87041 -0.533469 0
M  V30 4448 C 398.746 0.16184 -3.59736 0
M  V30 4449 C 398.599 -1.19127 -4.33738 0
M  V30 4450 C 399.918 0.895719 -4.30888 0
M  V30 4451 H 397.037 0.00733914 -0.736963 0
M  V30 4452 H 399.679 -0.669395 -1.77818 0
M  V30 4453 H 397.829 0.752624 -3.8114 0
M  V30 4454 H 399.501 -1.82202 -4.23792 0
M  V30 4455 H 397.744 -1.77695 -3.95736 0
M  V30 4456 H 398.415 -1.04815 -5.41957 0
M  V30 4457 H 400.891 0.394528 -4.14225 0
M  V30 4458 H 399.767 0.960859 -5.40425 0
M  V30 4459 H 400.028 1.9427 -3.97129 0
M  V30 4460 N 399.087 1.5561 -0.249682 0
M  V30 4461 C 400.034 2.21496 0.648694 0
M  V30 4462 C 401.004 1.17977 1.16921 0
M  V30 4463 O 402.189 1.46434 1.22318 0
M  V30 4464 C 399.329 2.92039 1.83868 0
M  V30 4465 C 398.442 4.10219 1.35442 0
M  V30 4466 C 397.577 4.6847 2.50419 0
M  V30 4467 C 396.616 5.78893 1.98869 0
M  V30 4468 N 395.753 6.31315 3.07223 0
M  V30 4469 H 400.593 2.97892 0.0801582 0
M  V30 4470 H 398.13 1.47074 0.0278031 0
M  V30 4471 H 400.088 3.31138 2.53778 0
M  V30 4472 H 398.718 2.18111 2.37965 0
M  V30 4473 H 397.77 3.76413 0.54928 0
M  V30 4474 H 399.082 4.89927 0.936649 0
M  V30 4475 H 398.236 5.10158 3.28366 0
M  V30 4476 H 396.975 3.87984 2.95499 0
M  V30 4477 H 395.98 5.3668 1.19393 0
M  V30 4478 H 397.205 6.61232 1.54755 0
M  V30 4479 H 395.151 5.53733 3.51732 0
M  V30 4480 H 395.068 7.06224 2.69784 0
M  V30 4481 H 396.336 6.77662 3.8522 0
M  V30 4482 N 400.565 -0.0233959 1.57583 0
M  V30 4483 C 401.793 -0.724682 1.93794 0
M  V30 4484 C 402.208 -1.68588 0.849912 0
M  V30 4485 O 401.565 -1.81676 -0.173204 0
M  V30 4486 C 401.616 -1.47684 3.29957 0
M  V30 4487 O 401.337 -0.554222 4.3458 0
M  V30 4488 C 402.838 -2.27477 3.80485 0
M  V30 4489 H 400.058 -0.203317 0.639455 0
M  V30 4490 H 402.602 0.0207653 2.04489 0
M  V30 4491 H 400.757 -2.17412 3.20641 0
M  V30 4492 H 401.171 -1.08232 5.13212 0
M  V30 4493 H 402.645 -2.7564 4.78254 0
M  V30 4494 H 403.122 -3.09144 3.11972 0
M  V30 4495 H 403.728 -1.62813 3.92902 0
M  V30 4496 N 402.043 -1.548 -0.295768 0
M  V30 4497 C 402.973 -1.89115 -1.36959 0
M  V30 4498 C 403.954 -0.75059 -1.52644 0
M  V30 4499 O 405.139 -1.00678 -1.66065 0
M  V30 4500 C 402.269 -2.14307 -2.73295 0
M  V30 4501 C 401.223 -3.30151 -2.72368 0
M  V30 4502 C 400.549 -3.40772 -4.12042 0
M  V30 4503 C 401.849 -4.67126 -2.33646 0
M  V30 4504 H 403.543 -2.79053 -1.08488 0
M  V30 4505 H 401.089 -1.34266 -0.520443 0
M  V30 4506 H 403.042 -2.36898 -3.48507 0
M  V30 4507 H 401.766 -1.21145 -3.03301 0
M  V30 4508 H 400.425 -3.0749 -1.99613 0
M  V30 4509 H 400.073 -2.45117 -4.39234 0
M  V30 4510 H 399.773 -4.18645 -4.12322 0
M  V30 4511 H 401.297 -3.6563 -4.89027 0
M  V30 4512 H 402.711 -4.89414 -2.98575 0
M  V30 4513 H 401.108 -5.47751 -2.45129 0
M  V30 4514 H 402.178 -4.67489 -1.28772 0
M  V30 4515 N 403.521 0.559213 -1.47345 0
M  V30 4516 C 404.767 1.31843 -1.54095 0
M  V30 4517 C 405.1 1.93149 -0.201726 0
M  V30 4518 O 404.375 1.77759 0.789428 0
M  V30 4519 C 404.658 2.43006 -2.65744 0
M  V30 4520 C 404.511 1.86581 -4.09277 0
M  V30 4521 C 405.83 3.44943 -2.73318 0
M  V30 4522 H 402.949 0.478012 -0.560957 0
M  V30 4523 H 405.591 0.625977 -1.79392 0
M  V30 4524 H 403.741 3.02072 -2.44305 0
M  V30 4525 H 405.413 1.31792 -4.42073 0
M  V30 4526 H 403.656 1.17268 -4.17649 0
M  V30 4527 H 404.327 2.66933 -4.83168 0
M  V30 4528 H 406.803 2.95793 -2.92653 0
M  V30 4529 H 405.679 4.20153 -3.53218 0
M  V30 4530 H 405.94 4.03665 -1.80296 0
M  V30 4531 N 404.999 1.35443 0.805782 0
M  V30 4532 C 406.227 1.31878 1.59423 0
M  V30 4533 C 406.642 -0.103562 1.88516 0
M  V30 4534 O 405.999 -1.05575 1.48863 0
M  V30 4535 C 406.05 2.12426 2.92502 0
M  V30 4536 O 405.771 3.49115 2.6467 0
M  V30 4537 C 407.272 2.16455 3.86862 0
M  V30 4538 H 404.492 0.453002 0.495005 0
M  V30 4539 H 407.036 1.78309 1.00131 0
M  V30 4540 H 405.191 1.69593 3.48306 0
M  V30 4541 H 405.605 3.90957 3.49647 0
M  V30 4542 H 407.079 2.77204 4.77349 0
M  V30 4543 H 407.556 1.16352 4.23508 0
M  V30 4544 H 408.162 2.59453 3.36993 0
M  V30 4545 N 406.477 -1.02803 1.19454 0
M  V30 4546 C 407.407 -2.12999 0.956758 0
M  V30 4547 C 408.388 -1.69743 -0.110188 0
M  V30 4548 O 409.573 -1.94148 0.0450038 0
M  V30 4549 C 406.703 -3.43746 0.495553 0
M  V30 4550 C 405.657 -4.00688 1.50443 0
M  V30 4551 C 404.983 -5.27067 0.900275 0
M  V30 4552 C 406.283 -4.35397 2.8849 0
M  V30 4553 H 407.977 -2.33148 1.87836 0
M  V30 4554 H 405.523 -1.12045 0.904539 0
M  V30 4555 H 407.476 -4.2021 0.316493 0
M  V30 4556 H 406.2 -3.23321 -0.461646 0
M  V30 4557 H 404.859 -3.2632 1.67065 0
M  V30 4558 H 404.507 -5.02959 -0.064503 0
M  V30 4559 H 404.207 -5.66127 1.57397 0
M  V30 4560 H 405.731 -6.06196 0.73203 0
M  V30 4561 H 407.145 -5.02795 2.75446 0
M  V30 4562 H 405.542 -4.85541 3.52661 0
M  V30 4563 H 406.612 -3.44662 3.41081 0
M  V30 4564 N 407.956 -0.998596 -1.21925 0
M  V30 4565 C 409.204 -0.676325 -1.90448 0
M  V30 4566 C 409.525 0.794719 -1.78071 0
M  V30 4567 O 408.795 1.5701 -1.17152 0
M  V30 4568 H 407.375 -0.247165 -0.704925 0
M  V30 4569 H 410.037 -1.26633 -1.48156 0
M  V30 4570 H 409.133 -0.943858 -2.97486 0
M  V30 4571 N 409.434 1.37368 -0.772513 0
M  V30 4572 C 410.381 2.30262 -0.157488 0
M  V30 4573 C 411.351 1.51137 0.688965 0
M  V30 4574 O 412.536 1.79704 0.641168 0
M  V30 4575 C 409.676 3.37611 0.715045 0
M  V30 4576 C 408.789 4.31746 -0.148098 0
M  V30 4577 C 407.924 5.26171 0.729213 0
M  V30 4578 C 406.963 6.11948 -0.136418 0
M  V30 4579 N 406.1 6.98613 0.698914 0
M  V30 4580 H 410.94 2.82277 -0.955179 0
M  V30 4581 H 408.477 1.38957 -0.482631 0
M  V30 4582 H 410.435 3.98479 1.23575 0
M  V30 4583 H 409.065 2.86959 1.47833 0
M  V30 4584 H 408.117 3.72178 -0.786613 0
M  V30 4585 H 409.429 4.92084 -0.81579 0
M  V30 4586 H 408.583 5.92247 1.31637 0
M  V30 4587 H 407.322 4.66246 1.43059 0
M  V30 4588 H 406.327 5.4485 -0.736102 0
M  V30 4589 H 407.552 6.73945 -0.835134 0
M  V30 4590 H 405.498 6.41215 1.38489 0
M  V30 4591 H 405.415 7.55948 0.0885358 0
M  V30 4592 H 406.683 7.69077 1.27044 0
M  V30 4593 N 410.912 0.523116 1.48665 0
M  V30 4594 C 411.822 -0.247406 2.33292 0
M  V30 4595 C 412.838 -0.945769 1.46052 0
M  V30 4596 O 414.014 -0.922253 1.79043 0
M  V30 4597 C 411.079 -1.28487 3.22012 0
M  V30 4598 C 410.14 -0.597592 4.2512 0
M  V30 4599 C 409.373 -1.58563 5.09601 0
M  V30 4600 O 409.596 -2.81763 4.95949 0
M  V30 4601 O 408.53 -1.12879 5.91221 0
M  V30 4602 H 412.356 0.445869 3.00409 0
M  V30 4603 H 409.941 0.284128 1.46673 0
M  V30 4604 H 411.823 -1.88459 3.7691 0
M  V30 4605 H 410.498 -1.96068 2.57564 0
M  V30 4606 H 409.405 0.0424407 3.74076 0
M  V30 4607 H 410.738 0.0361517 4.92187 0
M  V30 4608 N 412.39 -1.55475 0.257931 0
M  V30 4609 C 413.667 -1.91155 -0.414629 0
M  V30 4610 C 414.047 -1.18008 -1.75035 0
M  V30 4611 O 413.395 -0.301193 -2.26506 0
M  V30 4612 C 413.605 -3.44283 -0.571859 0
M  V30 4613 C 414.953 -4.15744 -0.862678 0
M  V30 4614 O 415.977 -3.50083 -0.657314 0
M  V30 4615 O 414.836 -5.31909 -1.2544 0
M  V30 4616 H 411.93 -0.796016 -0.22425 0
M  V30 4617 H 414.476 -1.66976 0.302814 0
M  V30 4618 H 413.248 -3.89558 0.368844 0
M  V30 4619 H 412.871 -3.7436 -1.33943 0
M  V30 4620 N 413.868 0.0150385 -1.57593 0
M  V30 4621 C 414.798 1.01047 -2.10503 0
M  V30 4622 C 415.779 1.36816 -1.01071 0
M  V30 4623 O 416.964 1.45455 -1.28672 0
M  V30 4624 C 414.094 2.30708 -2.59598 0
M  V30 4625 C 413.048 2.09142 -3.73421 0
M  V30 4626 C 412.374 3.44685 -4.08774 0
M  V30 4627 C 413.674 1.46619 -5.01298 0
M  V30 4628 H 415.368 0.569978 -2.93925 0
M  V30 4629 H 412.914 0.272724 -1.41394 0
M  V30 4630 H 414.867 3.00687 -2.95238 0
M  V30 4631 H 413.591 2.76843 -1.73279 0
M  V30 4632 H 412.25 1.41592 -3.38153 0
M  V30 4633 H 411.898 3.88495 -3.195 0
M  V30 4634 H 411.598 3.31077 -4.8545 0
M  V30 4635 H 413.122 4.16004 -4.4696 0
M  V30 4636 H 414.536 2.06535 -5.34805 0
M  V30 4637 H 412.933 1.43544 -5.82679 0
M  V30 4638 H 414.003 0.433611 -4.82957 0
M  V30 4639 N 415.346 1.54954 0.287554 0
M  V30 4640 C 416.571 1.79209 1.04397 0
M  V30 4641 C 416.996 0.556431 1.79682 0
M  V30 4642 O 416.354 -0.493518 1.74454 0
M  V30 4643 C 416.402 3.00739 1.98969 0
M  V30 4644 O 415.506 2.74805 3.075 0
M  V30 4645 H 414.847 0.592755 0.299227 0
M  V30 4646 H 417.377 2.02068 0.320886 0
M  V30 4647 H 417.387 3.29077 2.4119 0
M  V30 4648 H 416.062 3.90329 1.43582 0
M  V30 4649 H 414.639 2.57523 2.69697 0
M  V30 4650 N 416.824 -0.551391 1.4764 0
M  V30 4651 C 418.073 -1.30467 1.53822 0
M  V30 4652 C 418.386 -1.94495 0.207661 0
M  V30 4653 O 419.592 -2.71099 0.147533 0
M  V30 4654 C 418.048 -2.36616 2.71184 0
M  V30 4655 C 417.656 -1.78754 4.10793 0
M  V30 4656 C 419.4 -3.13088 2.86663 0
M  V30 4657 C 417.307 -2.82717 5.19447 0
M  V30 4658 H 416.237 -0.490584 0.572576 0
M  V30 4659 H 418.888 -0.58494 1.73927 0
M  V30 4660 H 417.27 -3.11529 2.4447 0
M  V30 4661 H 418.444 -1.10173 4.47435 0
M  V30 4662 H 416.759 -1.14846 4.00249 0
M  V30 4663 H 419.356 -3.90736 3.65007 0
M  V30 4664 H 419.699 -3.67635 1.95321 0
M  V30 4665 H 420.232 -2.45288 3.13175 0
M  V30 4666 H 416.971 -2.33018 6.12685 0
M  V30 4667 H 416.491 -3.4969 4.87316 0
M  V30 4668 H 418.17 -3.46102 5.46646 0
M  V30 4669 N 418.302 -1.35869 -0.798587 0
M  V30 4670 C 419.249 -1.29446 -1.91082 0
M  V30 4671 C 420.219 -0.16487 -1.6528 0
M  V30 4672 O 421.404 -0.349888 -1.87564 0
M  V30 4673 C 418.544 -1.0804 -3.27752 0
M  V30 4674 C 417.657 -2.29993 -3.65687 0
M  V30 4675 C 416.792 -2.01673 -4.91428 0
M  V30 4676 C 415.831 -3.19636 -5.22015 0
M  V30 4677 N 414.968 -2.91039 -6.38937 0
M  V30 4678 H 419.808 -2.24553 -1.95907 0
M  V30 4679 H 417.345 -1.11615 -0.958148 0
M  V30 4680 H 419.303 -0.936586 -4.06551 0
M  V30 4681 H 417.933 -0.16592 -3.22373 0
M  V30 4682 H 416.985 -2.55211 -2.82085 0
M  V30 4683 H 418.297 -3.18052 -3.84245 0
M  V30 4684 H 417.451 -1.84168 -5.78072 0
M  V30 4685 H 416.19 -1.10911 -4.74921 0
M  V30 4686 H 415.195 -3.37709 -4.33858 0
M  V30 4687 H 416.42 -4.11211 -5.40447 0
M  V30 4688 H 414.366 -2.0288 -6.2384 0
M  V30 4689 H 414.283 -3.72635 -6.57784 0
M  V30 4690 H 415.551 -2.77093 -7.28587 0
M  V30 4691 N 419.78 1.02168 -1.19998 0
M  V30 4692 C 421.029 1.75091 -1.0013 0
M  V30 4693 C 421.342 1.89923 0.467835 0
M  V30 4694 O 422.548 2.59888 0.785515 0
M  V30 4695 C 421.004 3.14892 -1.74273 0
M  V30 4696 C 420.612 3.0809 -3.25245 0
M  V30 4697 C 422.356 3.9206 -1.62755 0
M  V30 4698 C 420.263 4.42867 -3.91948 0
M  V30 4699 H 419.193 0.656394 -0.37103 0
M  V30 4700 H 421.844 1.14284 -1.43567 0
M  V30 4701 H 420.226 3.7621 -1.2362 0
M  V30 4702 H 421.4 2.5611 -3.83072 0
M  V30 4703 H 419.715 2.44416 -3.3712 0
M  V30 4704 H 422.312 4.91764 -2.09934 0
M  V30 4705 H 422.655 4.12199 -0.582894 0
M  V30 4706 H 423.188 3.37359 -2.10793 0
M  V30 4707 H 419.927 4.27931 -4.96543 0
M  V30 4708 H 419.447 4.94874 -3.3891 0
M  V30 4709 H 421.126 5.11728 -3.95909 0
M  V30 4710 N 421.258 1.00505 1.21394 0
M  V30 4711 C 422.483 0.706367 1.95001 0
M  V30 4712 C 422.908 -0.72463 1.73582 0
M  V30 4713 O 422.266 -1.49702 1.0227 0
M  V30 4714 C 422.314 1.03299 3.45487 0
M  V30 4715 O 421.418 0.138275 4.12168 0
M  V30 4716 H 420.759 0.263175 0.609619 0
M  V30 4717 H 423.289 1.34531 1.54151 0
M  V30 4718 H 423.299 0.979872 3.96059 0
M  V30 4719 H 421.974 2.07567 3.60401 0
M  V30 4720 H 420.551 0.247928 3.72075 0
M  V30 4721 N 422.737 -1.36956 0.779787 0
M  V30 4722 C 424.014 -1.93697 0.272156 0
M  V30 4723 C 424.394 -1.71267 -1.23413 0
M  V30 4724 O 423.742 -1.06607 -2.02107 0
M  V30 4725 C 423.952 -3.42812 0.654291 0
M  V30 4726 C 425.3 -4.19921 0.628602 0
M  V30 4727 O 426.324 -3.51209 0.594172 0
M  V30 4728 O 425.183 -5.42465 0.662864 0
M  V30 4729 H 422.277 -0.824447 0.0649286 0
M  V30 4730 H 424.823 -1.46196 0.861682 0
M  V30 4731 H 423.595 -3.52754 1.69353 0
M  V30 4732 H 423.218 -3.97582 0.0381369 0
M  V30 4733 N 424.215 -0.530993 -1.48385 0
M  V30 4734 C 425.145 0.219985 -2.32461 0
M  V30 4735 C 426.126 0.934111 -1.42156 0
M  V30 4736 O 427.311 0.919694 -1.71042 0
M  V30 4737 C 424.441 1.26674 -3.23375 0
M  V30 4738 C 423.395 0.67069 -4.22712 0
M  V30 4739 C 422.721 1.82017 -5.02766 0
M  V30 4740 C 424.021 -0.358268 -5.2107 0
M  V30 4741 H 425.715 -0.48187 -2.95497 0
M  V30 4742 H 423.261 -0.233182 -1.42099 0
M  V30 4743 H 425.214 1.80006 -3.81019 0
M  V30 4744 H 423.938 1.99818 -2.58341 0
M  V30 4745 H 422.597 0.158878 -3.66256 0
M  V30 4746 H 422.245 2.54002 -4.34157 0
M  V30 4747 H 421.945 1.42727 -5.70003 0
M  V30 4748 H 423.469 2.35725 -5.63264 0
M  V30 4749 H 424.883 0.0880081 -5.73232 0
M  V30 4750 H 423.28 -0.66861 -5.96364 0
M  V30 4751 H 424.35 -1.26367 -4.68145 0
M  V30 4752 N 425.693 1.55336 -0.266172 0
M  V30 4753 C 426.941 1.99003 0.35246 0
M  V30 4754 C 427.262 1.15591 1.57047 0
M  V30 4755 O 426.532 0.243268 1.94384 0
M  V30 4756 H 425.112 0.735025 0.133217 0
M  V30 4757 H 427.774 1.91367 -0.369434 0
M  V30 4758 H 426.87 3.05289 0.648453 0
M  V30 4759 N 427.171 -0.0066808 1.57599 0
M  V30 4760 C 428.419 -0.691552 1.899 0
M  V30 4761 C 428.74 -1.74682 0.866672 0
M  V30 4762 O 428.01 -1.95661 -0.0968189 0
M  V30 4763 H 426.59 -0.258416 0.700878 0
M  V30 4764 H 429.252 0.0326655 1.94873 0
M  V30 4765 H 428.348 -1.16702 2.8946 0
M  V30 4766 N 428.649 -1.55105 -0.279332 0
M  V30 4767 C 429.897 -1.75066 -1.00977 0
M  V30 4768 C 430.218 -0.551276 -1.87045 0
M  V30 4769 O 429.488 0.433984 -1.91032 0
M  V30 4770 H 428.068 -0.645578 -0.375816 0
M  V30 4771 H 430.73 -1.92497 -0.305089 0
M  V30 4772 H 429.826 -2.64894 -1.65038 0
M  V30 4773 N 430.127 0.543554 -1.4793 0
M  V30 4774 C 431.373 1.30201 -1.55485 0
M  V30 4775 C 431.706 1.92925 -0.222201 0
M  V30 4776 O 430.981 1.78586 0.77053 0
M  V30 4777 C 431.264 2.40174 -2.68307 0
M  V30 4778 C 431.117 1.8223 -4.11233 0
M  V30 4779 C 432.436 3.42024 -2.76961 0
M  V30 4780 H 429.555 0.472036 -0.565996 0
M  V30 4781 H 432.197 0.606914 -1.80046 0
M  V30 4782 H 430.347 2.99463 -2.47495 0
M  V30 4783 H 432.019 1.27096 -4.43446 0
M  V30 4784 H 430.262 1.12832 -4.18869 0
M  V30 4785 H 430.933 2.61793 -4.85972 0
M  V30 4786 H 433.409 2.92672 -2.95774 0
M  V30 4787 H 432.285 4.16383 -3.57654 0
M  V30 4788 H 432.546 4.0173 -1.84568 0
M  V30 4789 N 431.605 1.3629 0.791371 0
M  V30 4790 C 433.016 1.27225 1.36641 0
M  V30 4791 C 433.367 -0.0887968 1.95999 0
M  V30 4792 O 432.492 -0.990207 1.92416 0
M  V30 4793 C 433.087 2.30375 2.48421 0
M  V30 4794 C 431.646 2.25004 3.01746 0
M  V30 4795 C 430.793 2.15259 1.7481 0
M  V30 4796 H 433.744 1.47198 0.593173 0
M  V30 4797 H 433.765 1.93905 3.27385 0
M  V30 4798 H 433.277 3.29422 2.05189 0
M  V30 4799 H 431.378 1.29417 3.49403 0
M  V30 4800 H 431.491 3.1761 3.58693 0
M  V30 4801 H 429.855 1.61482 1.96966 0
M  V30 4802 H 430.638 3.16191 1.33709 0
M  V30 4803 N 433.083 -1.0153 1.20538 0
M  V30 4804 C 434.013 -2.11972 0.979295 0
M  V30 4805 C 434.994 -1.6985 -0.0921787 0
M  V30 4806 O 436.179 -1.94089 0.0655932 0
M  V30 4807 C 433.309 -3.43201 0.531984 0
M  V30 4808 C 432.263 -3.9907 1.54685 0
M  V30 4809 C 431.589 -5.26082 0.956127 0
M  V30 4810 C 432.889 -4.32313 2.93092 0
M  V30 4811 H 434.583 -2.31143 1.90298 0
M  V30 4812 H 432.129 -1.11079 0.916372 0
M  V30 4813 H 434.082 -4.1985 0.361044 0
M  V30 4814 H 432.806 -3.23792 -0.427327 0
M  V30 4815 H 431.465 -3.2453 1.70517 0
M  V30 4816 H 431.113 -5.02999 -0.0111538 0
M  V30 4817 H 430.813 -5.64426 1.63393 0
M  V30 4818 H 432.337 -6.05386 0.796284 0
M  V30 4819 H 433.751 -4.99845 2.80763 0
M  V30 4820 H 432.148 -4.81774 3.57791 0
M  V30 4821 H 433.218 -3.41025 3.44717 0
M  V30 4822 N 434.561 -1.01147 -1.20859 0
M  V30 4823 C 435.977 -0.725422 -1.42161 0
M  V30 4824 C 436.177 0.696919 -1.89064 0
M  V30 4825 O 435.233 1.46539 -2.05627 0
M  V30 4826 C 436.546 -1.74678 -2.44761 0
M  V30 4827 C 438.094 -1.76433 -2.58535 0
M  V30 4828 C 438.569 -2.77481 -3.64374 0
M  V30 4829 N 440.06 -2.76189 -3.71852 0
M  V30 4830 C 440.795 -3.51035 -4.53389 0
M  V30 4831 N 440.291 -4.35541 -5.38773 0
M  V30 4832 N 442.084 -3.39655 -4.47873 0
M  V30 4833 H 434.235 -1.92979 -0.887282 0
M  V30 4834 H 436.498 -0.833327 -0.451962 0
M  V30 4835 H 436.204 -2.76551 -2.17285 0
M  V30 4836 H 436.078 -1.55472 -3.43669 0
M  V30 4837 H 438.465 -0.75248 -2.85345 0
M  V30 4838 H 438.546 -1.99712 -1.5984 0
M  V30 4839 H 438.19 -3.78827 -3.38308 0
M  V30 4840 H 438.12 -2.51466 -4.6268 0
M  V30 4841 H 440.611 -2.14885 -3.10858 0
M  V30 4842 H 440.924 -4.89432 -5.98061 0
M  V30 4843 H 439.269 -4.39621 -5.38292 0
M  V30 4844 H 442.46 -2.73063 -3.80203 0
M  V30 4845 H 442.633 -3.9824 -5.11184 0
M  V30 4846 N 436.039 1.36541 -0.78704 0
M  V30 4847 C 436.986 2.30082 -0.181901 0
M  V30 4848 C 437.956 1.5186 0.672896 0
M  V30 4849 O 439.141 1.80374 0.622072 0
M  V30 4850 C 436.281 3.3835 0.679197 0
M  V30 4851 C 435.394 4.31565 -0.193882 0
M  V30 4852 C 434.529 5.26915 0.673364 0
M  V30 4853 C 433.568 6.11769 -0.201315 0
M  V30 4854 N 432.705 6.99315 0.624777 0
M  V30 4855 H 437.545 2.81248 -0.985064 0
M  V30 4856 H 435.082 1.38437 -0.497342 0
M  V30 4857 H 437.04 3.99767 1.19341 0
M  V30 4858 H 435.67 2.8851 1.44781 0
M  V30 4859 H 434.722 3.71323 -0.826044 0
M  V30 4860 H 436.034 4.91191 -0.867937 0
M  V30 4861 H 435.188 5.9361 1.25348 0
M  V30 4862 H 433.927 4.67737 1.38105 0
M  V30 4863 H 432.932 5.44039 -0.793849 0
M  V30 4864 H 434.157 6.73022 -0.906568 0
M  V30 4865 H 432.103 6.42648 1.3168 0
M  V30 4866 H 432.02 7.56 0.00835237 0
M  V30 4867 H 433.288 7.70382 1.18879 0
M  V30 4868 N 437.518 0.538854 1.48102 0
M  V30 4869 C 438.767 0.0059532 2.01699 0
M  V30 4870 C 439.08 -1.34476 1.42041 0
M  V30 4871 O 440.286 -1.96653 1.87189 0
M  V30 4872 C 438.742 -0.0397627 3.59878 0
M  V30 4873 C 438.35 1.30659 4.28523 0
M  V30 4874 C 440.094 -0.521024 4.2129 0
M  V30 4875 C 438.001 1.22098 5.78659 0
M  V30 4876 H 436.931 -0.00154456 0.753998 0
M  V30 4877 H 439.582 0.683963 1.70277 0
M  V30 4878 H 437.964 -0.783037 3.88181 0
M  V30 4879 H 439.138 2.06613 4.11883 0
M  V30 4880 H 437.453 1.7243 3.79021 0
M  V30 4881 H 440.05 -0.603184 5.31287 0
M  V30 4882 H 440.393 -1.52885 3.8721 0
M  V30 4883 H 440.926 0.166834 3.9745 0
M  V30 4884 H 437.665 2.20424 6.17328 0
M  V30 4885 H 437.185 0.50295 5.97688 0
M  V30 4886 H 438.864 0.915345 6.40492 0
M  V30 4887 N 438.996 -1.55193 0.274407 0
M  V30 4888 C 440.273 -1.91584 -0.394331 0
M  V30 4889 C 440.653 -1.19858 -1.73774 0
M  V30 4890 O 440.001 -0.3252 -2.26174 0
M  V30 4891 C 440.211 -3.4487 -0.535311 0
M  V30 4892 C 441.559 -4.16636 -0.818534 0
M  V30 4893 O 442.583 -3.5076 -0.620146 0
M  V30 4894 O 441.442 -5.33209 -1.19792 0
M  V30 4895 H 438.536 -0.798349 -0.215794 0
M  V30 4896 H 441.082 -1.66646 0.320507 0
M  V30 4897 H 439.854 -3.89145 0.410141 0
M  V30 4898 H 439.477 -3.75759 -1.29964 0
M  V30 4899 N 440.474 -0.00167713 -1.576 0
M  V30 4900 C 441.89 0.354422 -1.55615 0
M  V30 4901 C 442.09 1.74679 -1.00447 0
M  V30 4902 O 441.146 2.4428 -0.639022 0
M  V30 4903 C 442.459 0.22812 -2.99833 0
M  V30 4904 C 444.007 0.302934 -3.11531 0
M  V30 4905 C 444.482 0.205737 -4.57538 0
M  V30 4906 N 445.973 0.263584 -4.62449 0
M  V30 4907 C 446.708 0.211742 -5.73009 0
M  V30 4908 N 446.204 0.110399 -6.92712 0
M  V30 4909 N 447.997 0.263729 -5.61481 0
M  V30 4910 H 440.148 -0.912498 -1.918 0
M  V30 4911 H 442.411 -0.349928 -0.881053 0
M  V30 4912 H 442.117 -0.729934 -3.44042 0
M  V30 4913 H 441.991 1.00951 -3.6344 0
M  V30 4914 H 444.378 1.25143 -2.67251 0
M  V30 4915 H 444.459 -0.508357 -2.50698 0
M  V30 4916 H 444.103 -0.739225 -5.02492 0
M  V30 4917 H 444.033 1.03554 -5.16318 0
M  V30 4918 H 446.524 0.343173 -3.76339 0
M  V30 4919 H 446.837 0.0767828 -7.72762 0
M  V30 4920 H 445.182 0.0760025 -6.94958 0
M  V30 4921 H 448.373 0.34111 -4.66855 0
M  V30 4922 H 448.546 0.219862 -6.47627 0
M  V30 4923 N 441.952 1.55251 0.271103 0
M  V30 4924 C 442.882 1.9127 1.33933 0
M  V30 4925 C 443.863 0.77478 1.5143 0
M  V30 4926 O 445.048 1.03307 1.64442 0
M  V30 4927 C 442.178 2.18627 2.69851 0
M  V30 4928 C 441.132 3.34442 2.67081 0
M  V30 4929 C 440.458 3.47284 4.06569 0
M  V30 4930 C 441.758 4.70784 2.26185 0
M  V30 4931 H 443.452 2.80744 1.04035 0
M  V30 4932 H 440.998 1.35077 0.499017 0
M  V30 4933 H 442.951 2.42413 3.44694 0
M  V30 4934 H 441.675 1.25955 3.01335 0
M  V30 4935 H 440.334 3.10627 1.94695 0
M  V30 4936 H 439.982 2.52074 4.35279 0
M  V30 4937 H 439.682 4.25152 4.0561 0
M  V30 4938 H 441.206 3.73363 4.83148 0
M  V30 4939 H 442.62 4.94102 2.90751 0
M  V30 4940 H 441.017 5.51582 2.36384 0
M  V30 4941 H 442.087 4.69478 1.21319 0
M  V30 4942 N 443.43 -0.535701 1.48216 0
M  V30 4943 C 444.677 -1.29183 1.55942 0
M  V30 4944 C 445.005 -1.93125 0.230857 0
M  V30 4945 O 444.26 -1.79556 -0.778331 0
M  V30 4946 C 444.559 -2.4068 2.64212 0
M  V30 4947 C 444.225 -1.94428 4.06827 0
M  V30 4948 C 442.887 -1.81532 4.45645 0
M  V30 4949 C 445.239 -1.59405 4.96225 0
M  V30 4950 C 442.567 -1.31939 5.71672 0
M  V30 4951 C 444.919 -1.11276 6.22736 0
M  V30 4952 C 443.583 -0.969924 6.60416 0
M  V30 4953 H 442.853 -0.472715 0.570632 0
M  V30 4954 H 445.5 -0.598437 1.81909 0
M  V30 4955 H 443.805 -3.15666 2.32083 0
M  V30 4956 H 445.502 -2.98822 2.67407 0
M  V30 4957 H 442.092 -2.05415 3.76168 0
M  V30 4958 H 446.276 -1.68231 4.66917 0
M  V30 4959 H 441.532 -1.19562 5.99596 0
M  V30 4960 H 445.706 -0.832453 6.91407 0
M  V30 4961 H 443.333 -0.583436 7.57958 0
M  V30 4962 N 444.908 -1.36708 -0.784132 0
M  V30 4963 C 445.856 -1.31533 -1.91838 0
M  V30 4964 C 446.85 -0.206205 -1.6814 0
M  V30 4965 O 448.056 -0.373519 -1.76082 0
M  V30 4966 H 444.431 -0.409613 -0.630651 0
M  V30 4967 H 446.402 -2.2731 -1.9332 0
M  V30 4968 C 445.151 -1.12679 -3.28936 0
M  V30 4969 H 444.474 -1.97274 -3.4774 0
M  V30 4970 H 445.914 -1.13106 -4.08636 0
M  V30 4971 C 444.373 0.168281 -3.36479 0
M  V30 4972 O 444.903 1.15625 -3.84699 0
M  V30 4973 N 443.109 0.214762 -2.89805 0
M  V30 4974 H 442.656 -0.589852 -2.50756 0
M  V30 4975 H 442.614 1.08094 -2.95234 0
M  V30 4976 N 446.386 1.0089 -1.21074 0
M  V30 4977 C 447.616 1.77933 -1.04993 0
M  V30 4978 C 448.024 1.84847 0.403495 0
M  V30 4979 O 447.367 1.30606 1.29181 0
M  V30 4980 C 447.429 3.23541 -1.56722 0
M  V30 4981 C 447.093 3.40214 -3.05129 0
M  V30 4982 C 448.09 3.2881 -4.02716 0
M  V30 4983 C 445.775 3.65781 -3.44252 0
M  V30 4984 C 447.769 3.42732 -5.37414 0
M  V30 4985 C 445.456 3.79346 -4.79103 0
M  V30 4986 C 446.454 3.67827 -5.75493 0
M  V30 4987 O 446.142 3.80965 -7.07899 0
M  V30 4988 H 445.874 0.566157 -0.369381 0
M  V30 4989 H 448.428 1.27826 -1.60779 0
M  V30 4990 H 446.658 3.74766 -0.953285 0
M  V30 4991 H 448.347 3.82245 -1.36543 0
M  V30 4992 H 449.113 3.08986 -3.73835 0
M  V30 4993 H 444.992 3.73831 -2.69762 0
M  V30 4994 H 448.536 3.33658 -6.12632 0
M  V30 4995 H 444.433 3.98672 -5.07672 0
M  V30 4996 H 445.201 3.97937 -7.15254 0
M  V30 4997 N 447.864 1.01787 1.20321 0
M  V30 4998 C 448.797 0.533882 2.21867 0
M  V30 4999 C 449.775 -0.419361 1.57099 0
M  V30 5000 O 450.959 -0.339062 1.85426 0
M  V30 5001 C 448.086 -0.222899 3.37966 0
M  V30 5002 C 447.132 0.680091 4.21043 0
M  V30 5003 S 447.965 2.14997 4.90445 0
M  V30 5004 C 449.121 1.40339 6.09964 0
M  V30 5005 H 449.354 1.39429 2.62577 0
M  V30 5006 H 446.887 0.826867 1.30393 0
M  V30 5007 H 448.845 -0.653425 4.05266 0
M  V30 5008 H 447.506 -1.0589 2.95713 0
M  V30 5009 H 446.699 0.0964704 5.03908 0
M  V30 5010 H 446.301 1.04845 3.59004 0
M  V30 5011 H 448.593 0.68407 6.74038 0
M  V30 5012 H 449.536 2.20823 6.72787 0
M  V30 5013 H 449.944 0.905716 5.57187 0
M  V30 5014 N 449.342 -1.36122 0.79427 0
M  V30 5015 C 450.572 -2.03067 0.380437 0
M  V30 5016 C 450.98 -1.60018 -1.00949 0
M  V30 5017 O 450.323 -0.787425 -1.65968 0
M  V30 5018 C 450.385 -3.57587 0.37034 0
M  V30 5019 C 450.049 -4.23855 1.70867 0
M  V30 5020 C 451.046 -4.46404 2.66496 0
M  V30 5021 C 448.731 -4.61229 1.9893 0
M  V30 5022 C 450.725 -5.05412 3.88378 0
M  V30 5023 C 448.412 -5.19953 3.21079 0
M  V30 5024 C 449.41 -5.41985 4.15621 0
M  V30 5025 O 449.098 -5.99475 5.35616 0
M  V30 5026 H 448.83 -0.658168 0.154243 0
M  V30 5027 H 451.384 -1.7498 1.0757 0
M  V30 5028 H 449.614 -3.84814 -0.381444 0
M  V30 5029 H 451.303 -4.05895 -0.0194894 0
M  V30 5030 H 452.069 -4.17921 2.46103 0
M  V30 5031 H 447.948 -4.43402 1.26158 0
M  V30 5032 H 451.492 -5.22524 4.62185 0
M  V30 5033 H 447.389 -5.47862 3.41347 0
M  V30 5034 H 448.157 -6.17937 5.36745 0
M  V30 5035 N 450.82 -0.546701 -1.47814 0
M  V30 5036 C 452.045 -0.021268 -2.07389 0
M  V30 5037 C 452.47 1.25822 -1.39822 0
M  V30 5038 O 451.828 1.75111 -0.46968 0
M  V30 5039 C 451.876 0.168502 -3.60206 0
M  V30 5040 O 450.98 1.23347 -3.93522 0
M  V30 5041 H 450.321 -0.0466108 -0.662362 0
M  V30 5042 H 452.851 -0.759387 -1.89985 0
M  V30 5043 H 452.861 0.385982 -4.0617 0
M  V30 5044 H 451.536 -0.766075 -4.08784 0
M  V30 5045 H 450.113 0.997319 -3.59316 0
M  V30 5046 N 452.299 1.55045 -0.282633 0
M  V30 5047 C 453.527 2.04168 0.33512 0
M  V30 5048 C 453.942 1.16071 1.48906 0
M  V30 5049 O 453.299 0.182391 1.81586 0
M  V30 5050 C 453.35 3.52332 0.808957 0
M  V30 5051 O 453.071 4.37078 -0.299038 0
M  V30 5052 C 454.572 4.17375 1.49375 0
M  V30 5053 H 451.792 0.666744 0.0754543 0
M  V30 5054 H 454.336 2.00205 -0.416918 0
M  V30 5055 H 452.491 3.56715 1.51106 0
M  V30 5056 H 452.905 5.24458 0.0665514 0
M  V30 5057 H 454.379 5.22627 1.77664 0
M  V30 5058 H 454.856 3.65999 2.42778 0
M  V30 5059 H 455.462 4.17016 0.835305 0
M  V30 5060 N 453.777 0.010035 1.57597 0
M  V30 5061 C 454.74 -0.963029 2.07986 0
M  V30 5062 C 455.74 -1.26619 0.991173 0
M  V30 5063 O 456.93 -1.2097 1.25347 0
M  V30 5064 C 454.062 -2.2851 2.52974 0
M  V30 5065 H 455.255 -0.526971 2.95234 0
M  V30 5066 H 452.808 -0.237639 1.54483 0
M  V30 5067 H 453.543 -2.76784 1.69 0
M  V30 5068 H 453.328 -2.07824 3.32493 0
M  V30 5069 H 454.818 -2.98294 2.9225 0
M  V30 5070 N 455.255 -1.55392 -0.262866 0
M  V30 5071 C 456.666 -1.67079 -0.833158 0
M  V30 5072 C 457.017 -0.604539 -1.86654 0
M  V30 5073 O 456.142 0.252138 -2.14926 0
M  V30 5074 C 456.737 -3.02891 -1.51797 0
M  V30 5075 C 455.296 -3.16571 -2.03617 0
M  V30 5076 C 454.443 -2.62909 -0.881701 0
M  V30 5077 H 457.394 -1.58652 -0.0389986 0
M  V30 5078 H 457.415 -2.96445 -2.38538 0
M  V30 5079 H 456.927 -3.80473 -0.765619 0
M  V30 5080 H 455.028 -2.43782 -2.81782 0
M  V30 5081 H 455.141 -4.23271 -2.24452 0
M  V30 5082 H 453.505 -2.20324 -1.27786 0
M  V30 5083 H 454.288 -3.43003 -0.14269 0
M  V30 5084 N 456.733 0.527833 -1.48498 0
M  V30 5085 C 458.149 0.856571 -1.34666 0
M  V30 5086 C 458.349 1.98271 -0.35931 0
M  V30 5087 O 457.405 2.51551 0.218703 0
M  V30 5088 C 458.718 1.22207 -2.74747 0
M  V30 5089 C 460.266 1.33183 -2.83251 0
M  V30 5090 C 460.741 1.73075 -4.24039 0
M  V30 5091 N 462.232 1.80174 -4.26722 0
M  V30 5092 C 462.967 2.1243 -5.32598 0
M  V30 5093 N 462.463 2.43096 -6.4875 0
M  V30 5094 N 464.256 2.13454 -5.19994 0
M  V30 5095 H 456.407 -0.215174 -2.11307 0
M  V30 5096 H 458.67 -0.0336281 -0.947403 0
M  V30 5097 H 458.376 0.468195 -3.4857 0
M  V30 5098 H 458.25 2.17173 -3.08409 0
M  V30 5099 H 460.637 2.07647 -2.09683 0
M  V30 5100 H 460.718 0.363333 -2.53206 0
M  V30 5101 H 460.362 0.991712 -4.98124 0
M  V30 5102 H 460.292 2.70979 -4.51529 0
M  V30 5103 H 462.783 1.58744 -3.42942 0
M  V30 5104 H 463.096 2.6682 -7.25277 0
M  V30 5105 H 461.441 2.40611 -6.52021 0
M  V30 5106 H 464.632 1.88956 -4.28268 0
M  V30 5107 H 464.805 2.38261 -6.02608 0
M  V30 5108 N 458.211 1.37122 0.776871 0
M  V30 5109 C 459.622 1.28667 1.35284 0
M  V30 5110 C 459.973 -0.0680035 1.96082 0
M  V30 5111 O 459.098 -0.969743 1.93455 0
M  V30 5112 C 459.693 2.32997 2.45963 0
M  V30 5113 C 458.252 2.28191 2.99342 0
M  V30 5114 C 457.399 2.17101 1.72517 0
M  V30 5115 H 460.35 1.47819 0.577527 0
M  V30 5116 H 460.371 1.97366 3.2531 0
M  V30 5117 H 459.883 3.3158 2.01684 0
M  V30 5118 H 457.984 1.33115 3.4801 0
M  V30 5119 H 458.097 3.21397 3.55304 0
M  V30 5120 H 456.461 1.63562 1.95242 0
M  V30 5121 H 457.244 3.17591 1.30348 0
M  V30 5122 N 459.689 -1.00246 1.21608 0
M  V30 5123 C 460.914 -1.78167 1.06167 0
M  V30 5124 C 461.339 -1.84138 -0.384035 0
M  V30 5125 O 460.697 -1.28683 -1.27712 0
M  V30 5126 C 460.745 -3.19786 1.66642 0
M  V30 5127 O 459.849 -4.02153 0.913613 0
M  V30 5128 H 459.19 -0.549 0.37349 0
M  V30 5129 H 461.72 -1.25994 1.61204 0
M  V30 5130 H 461.73 -3.70451 1.70969 0
M  V30 5131 H 460.405 -3.14754 2.7185 0
M  V30 5132 H 458.982 -3.60711 0.945635 0
M  V30 5133 N 461.167 -1.02423 -1.1978 0
M  V30 5134 C 462.097 -0.62157 -2.25075 0
M  V30 5135 C 463.078 0.367148 -1.6609 0
M  V30 5136 O 464.263 0.250892 -1.92573 0
M  V30 5137 C 461.393 0.0331826 -3.47284 0
M  V30 5138 C 460.347 -0.877323 -4.18912 0
M  V30 5139 C 459.673 -0.0879296 -5.34628 0
M  V30 5140 C 460.973 -2.18892 -4.74219 0
M  V30 5141 H 462.667 -1.50179 -2.59011 0
M  V30 5142 H 460.213 -0.723547 -1.24502 0
M  V30 5143 H 462.166 0.326488 -4.20133 0
M  V30 5144 H 460.89 0.948164 -3.12534 0
M  V30 5145 H 459.549 -1.15475 -3.47938 0
M  V30 5146 H 459.197 0.828941 -4.96123 0
M  V30 5147 H 458.897 -0.694359 -5.83483 0
M  V30 5148 H 460.421 0.198743 -6.10276 0
M  V30 5149 H 461.835 -1.95746 -5.38847 0
M  V30 5150 H 460.232 -2.74686 -5.33542 0
M  V30 5151 H 461.302 -2.84674 -3.92541 0
M  V30 5152 N 462.645 1.35699 -0.801477 0
M  V30 5153 C 463.555 2.33661 -0.209691 0
M  V30 5154 C 464.571 1.6162 0.644591 0
M  V30 5155 O 465.747 1.93529 0.557545 0
M  V30 5156 C 462.812 3.40816 0.636033 0
M  V30 5157 C 461.873 4.28639 -0.238147 0
M  V30 5158 C 461.106 5.30676 0.567307 0
M  V30 5159 O 461.329 5.41174 1.8024 0
M  V30 5160 O 460.263 6.01887 -0.0391336 0
M  V30 5161 H 464.089 2.8606 -1.01996 0
M  V30 5162 H 461.674 1.38379 -0.563164 0
M  V30 5163 H 463.556 4.06301 1.11791 0
M  V30 5164 H 462.231 2.90696 1.42399 0
M  V30 5165 H 461.138 3.66152 -0.767044 0
M  V30 5166 H 462.471 4.82143 -0.989915 0
M  V30 5167 N 464.123 0.554532 1.47522 0
M  V30 5168 C 465.534 0.120446 1.86311 0
M  V30 5169 C 465.885 -1.30904 1.46145 0
M  V30 5170 O 465.01 -1.98434 0.863294 0
M  V30 5171 C 465.605 0.211808 3.38137 0
M  V30 5172 C 464.164 -0.167224 3.76028 0
M  V30 5173 C 463.311 0.560576 2.71575 0
M  V30 5174 H 466.262 0.764408 1.39077 0
M  V30 5175 H 466.283 -0.570275 3.76202 0
M  V30 5176 H 465.795 1.25232 3.6734 0
M  V30 5177 H 463.896 -1.20894 3.52442 0
M  V30 5178 H 464.009 0.189473 4.78725 0
M  V30 5179 H 462.373 0.00396836 2.547 0
M  V30 5180 H 463.156 1.60219 3.0362 0
M  V30 5181 N 465.601 -1.54893 0.290851 0
M  V30 5182 C 466.829 -2.04343 -0.324288 0
M  V30 5183 C 467.244 -1.16859 -1.48289 0
M  V30 5184 O 466.601 -0.192018 -1.81487 0
M  V30 5185 C 466.652 -3.52756 -0.79026 0
M  V30 5186 O 466.373 -4.36913 0.322213 0
M  V30 5187 C 467.874 -4.18161 -1.4716 0
M  V30 5188 H 465.094 -0.667135 -0.0719173 0
M  V30 5189 H 467.638 -1.99981 0.427529 0
M  V30 5190 H 465.793 -3.57511 -1.49213 0
M  V30 5191 H 466.207 -5.24486 -0.0387372 0
M  V30 5192 H 467.681 -5.23562 -1.7489 0
M  V30 5193 H 468.158 -3.67282 -2.40834 0
M  V30 5194 H 468.764 -4.17454 -0.813178 0
M  V30 5195 N 467.08 -0.0183926 -1.57589 0
M  V30 5196 C 468.496 0.337897 -1.55982 0
M  V30 5197 C 468.696 1.73604 -1.02294 0
M  V30 5198 O 467.752 2.43589 -0.664895 0
M  V30 5199 C 469.065 0.196305 -3.00059 0
M  V30 5200 C 470.613 0.269875 -3.11834 0
M  V30 5201 C 471.088 0.157197 -4.5773 0
M  V30 5202 N 472.579 0.214521 -4.62703 0
M  V30 5203 C 473.314 0.150955 -5.73201 0
M  V30 5204 N 472.81 0.0369212 -6.9279 0
M  V30 5205 N 474.603 0.204162 -5.61729 0
M  V30 5206 H 466.754 -0.93279 -1.90821 0
M  V30 5207 H 469.017 -0.359253 -0.877292 0
M  V30 5208 H 468.723 -0.766383 -3.43248 0
M  V30 5209 H 468.597 0.970908 -3.6449 0
M  V30 5210 H 470.984 1.22302 -2.68563 0
M  V30 5211 H 471.065 -0.534918 -2.50144 0
M  V30 5212 H 470.709 -0.792479 -5.01679 0
M  V30 5213 H 470.639 0.980717 -5.17387 0
M  V30 5214 H 473.13 0.303238 -3.76681 0
M  V30 5215 H 473.443 -0.00518321 -7.728 0
M  V30 5216 H 471.788 0.0022886 -6.95 0
M  V30 5217 H 474.979 0.291575 -4.67191 0
M  V30 5218 H 475.152 0.15116 -6.47824 0
M  V30 5219 N 468.558 1.5553 0.254621 0
M  V30 5220 C 469.521 1.88872 1.29846 0
M  V30 5221 C 470.521 0.764591 1.41459 0
M  V30 5222 O 471.711 1.03265 1.40293 0
M  V30 5223 C 468.843 2.11032 2.67728 0
M  V30 5224 H 470.036 2.82201 1.01502 0
M  V30 5225 H 467.589 1.48303 0.493556 0
M  V30 5226 H 468.324 1.20146 3.01223 0
M  V30 5227 H 468.109 2.92895 2.60682 0
M  V30 5228 H 469.599 2.38038 3.43115 0
M  V30 5229 N 470.036 -0.519951 1.48776 0
M  V30 5230 C 470.999 -1.60574 1.6355 0
M  V30 5231 C 471.999 -1.52557 0.508234 0
M  V30 5232 O 473.189 -1.56047 0.774262 0
M  V30 5233 C 470.321 -3.00211 1.61512 0
M  V30 5234 H 471.514 -1.4881 2.60376 0
M  V30 5235 H 469.067 -0.742772 1.37523 0
M  V30 5236 H 469.802 -3.17471 0.662009 0
M  V30 5237 H 469.587 -3.07439 2.43359 0
M  V30 5238 H 471.077 -3.79134 1.75064 0
M  V30 5239 N 471.514 -1.37532 -0.769588 0
M  V30 5240 C 472.925 -1.29382 -1.346 0
M  V30 5241 C 473.276 0.0576039 -1.96115 0
M  V30 5242 O 472.401 0.95947 -1.93967 0
M  V30 5243 C 472.996 -2.34298 -2.44724 0
M  V30 5244 C 471.555 -2.29776 -2.98128 0
M  V30 5245 C 470.702 -2.18013 -1.71364 0
M  V30 5246 H 473.653 -1.48123 -0.56968 0
M  V30 5247 H 473.674 -1.99089 -3.24259 0
M  V30 5248 H 473.186 -3.32645 -1.99922 0
M  V30 5249 H 471.287 -1.34959 -3.47299 0
M  V30 5250 H 471.4 -3.23276 -3.53595 0
M  V30 5251 H 469.764 -1.64595 -1.94372 0
M  V30 5252 H 470.547 -3.18278 -1.28662 0
M  V30 5253 N 472.992 0.995999 -1.22138 0
M  V30 5254 C 473.922 2.10387 -1.01289 0
M  V30 5255 C 474.903 1.69975 0.0651454 0
M  V30 5256 O 476.088 1.9396 -0.0964628 0
M  V30 5257 C 473.218 3.42312 -0.586517 0
M  V30 5258 C 472.172 3.96558 -1.61014 0
M  V30 5259 C 471.498 5.24494 -1.0397 0
M  V30 5260 C 472.798 4.27595 -2.99933 0
M  V30 5261 H 474.492 2.28086 -1.93951 0
M  V30 5262 H 472.038 1.09607 -0.933928 0
M  V30 5263 H 473.991 4.19223 -0.427793 0
M  V30 5264 H 472.715 3.24431 0.375761 0
M  V30 5265 H 471.374 3.21776 -1.75658 0
M  V30 5266 H 471.022 5.02953 -0.0688703 0
M  V30 5267 H 470.722 5.61755 -1.72352 0
M  V30 5268 H 472.246 6.04042 -0.892494 0
M  V30 5269 H 473.66 4.95315 -2.8868 0
M  V30 5270 H 472.057 4.76021 -3.6541 0
M  V30 5271 H 473.127 3.35498 -3.50099 0
M  V30 5272 N 474.47 1.03057 1.19235 0
M  V30 5273 C 475.433 0.617418 2.20727 0
M  V30 5274 C 476.433 -0.319856 1.57587 0
M  V30 5275 O 477.623 -0.106633 1.73873 0
M  V30 5276 C 474.755 -0.096296 3.40764 0
M  V30 5277 H 475.948 1.51544 2.58794 0
M  V30 5278 H 473.501 0.821949 1.32942 0
M  V30 5279 H 474.236 -1.00859 3.08217 0
M  V30 5280 H 474.021 0.577217 3.87828 0
M  V30 5281 H 475.511 -0.372219 4.15938 0
M  V30 5282 N 475.948 -1.35272 0.808662 0
M  V30 5283 C 477.196 -1.98316 0.389233 0
M  V30 5284 C 477.517 -1.64465 -1.04767 0
M  V30 5285 O 476.787 -0.928175 -1.72516 0
M  V30 5286 H 475.367 -0.733585 0.140935 0
M  V30 5287 H 478.029 -1.6515 1.03496 0
M  V30 5288 H 477.125 -3.08123 0.496631 0
M  V30 5289 N 477.426 -0.562348 -1.47226 0
M  V30 5290 C 478.673 -0.0402165 -2.0246 0
M  V30 5291 C 479.001 1.31169 -1.43614 0
M  V30 5292 O 478.256 1.86805 -0.5833 0
M  V30 5293 C 478.555 0.0969817 -3.57268 0
M  V30 5294 C 478.221 -1.1847 -4.35058 0
M  V30 5295 C 476.883 -1.53588 -4.56031 0
M  V30 5296 C 479.235 -2.03378 -4.79882 0
M  V30 5297 C 476.563 -2.73452 -5.19077 0
M  V30 5298 C 478.915 -3.2245 -5.44251 0
M  V30 5299 C 477.579 -3.57876 -5.63455 0
M  V30 5300 H 476.849 -0.0147163 -0.740854 0
M  V30 5301 H 479.496 -0.734895 -1.76838 0
M  V30 5302 H 477.801 0.87466 -3.81912 0
M  V30 5303 H 479.498 0.516408 -3.97661 0
M  V30 5304 H 476.088 -0.90126 -4.19017 0
M  V30 5305 H 480.272 -1.77553 -4.63453 0
M  V30 5306 H 475.528 -3.01062 -5.32139 0
M  V30 5307 H 479.702 -3.88526 -5.77945 0
M  V30 5308 H 477.329 -4.50849 -6.12078 0
M  V30 5309 N 478.904 1.54736 -0.299062 0
M  V30 5310 C 480.152 1.99706 0.31017 0
M  V30 5311 C 480.473 1.18896 1.54559 0
M  V30 5312 O 479.743 0.284445 1.93824 0
M  V30 5313 H 478.323 0.737686 0.117596 0
M  V30 5314 H 480.985 1.9054 -0.409943 0
M  V30 5315 H 480.081 3.06596 0.58355 0
M  V30 5316 N 480.382 0.0267497 1.57577 0
M  V30 5317 C 481.612 -0.6617 1.95717 0
M  V30 5318 C 482.02 -1.66331 0.901706 0
M  V30 5319 O 481.363 -1.83273 -0.125241 0
M  V30 5320 C 481.425 -1.42649 3.29987 0
M  V30 5321 C 481.089 -0.583482 4.5326 0
M  V30 5322 C 482.086 0.140221 5.19711 0
M  V30 5323 C 479.771 -0.521581 4.99585 0
M  V30 5324 C 481.765 0.914523 6.30805 0
M  V30 5325 C 479.452 0.256428 6.10562 0
M  V30 5326 C 480.45 0.973189 6.76031 0
M  V30 5327 O 480.138 1.73845 7.84878 0
M  V30 5328 H 479.87 -0.187483 0.649481 0
M  V30 5329 H 482.424 0.0820847 2.05236 0
M  V30 5330 H 480.654 -2.21536 3.16952 0
M  V30 5331 H 482.343 -2.00282 3.53047 0
M  V30 5332 H 483.109 0.101716 4.84893 0
M  V30 5333 H 478.988 -1.06904 4.48433 0
M  V30 5334 H 482.532 1.4745 6.81839 0
M  V30 5335 H 478.429 0.296657 6.44818 0
M  V30 5336 H 479.197 1.65797 8.01532 0
M  V30 5337 N 481.861 -1.55662 -0.24637 0
M  V30 5338 C 483.109 -1.77168 -0.972411 0
M  V30 5339 C 483.43 -0.590827 -1.85834 0
M  V30 5340 O 482.7 0.393365 -1.9191 0
M  V30 5341 H 481.28 -0.653405 -0.362038 0
M  V30 5342 H 483.942 -1.93101 -0.264189 0
M  V30 5343 H 483.038 -2.68335 -1.59382 0
M  V30 5344 N 483.339 0.512053 -1.4905 0
M  V30 5345 C 484.269 1.62365 -1.67809 0
M  V30 5346 C 485.25 1.61737 -0.526809 0
M  V30 5347 O 486.435 1.78651 -0.761404 0
M  V30 5348 C 483.565 3.00895 -1.73435 0
M  V30 5349 C 482.519 3.16387 -2.88242 0
M  V30 5350 C 481.845 4.56157 -2.78971 0
M  V30 5351 C 483.145 2.97457 -4.29321 0
M  V30 5352 H 484.839 1.46921 -2.60873 0
M  V30 5353 H 482.385 0.705379 -1.2554 0
M  V30 5354 H 484.338 3.78549 -1.85145 0
M  V30 5355 H 483.062 3.17403 -0.769619 0
M  V30 5356 H 481.721 2.41155 -2.76116 0
M  V30 5357 H 481.369 4.69525 -1.8043 0
M  V30 5358 H 481.069 4.67465 -3.5602 0
M  V30 5359 H 482.593 5.35886 -2.92675 0
M  V30 5360 H 484.007 3.64888 -4.42187 0
M  V30 5361 H 482.404 3.20245 -5.07507 0
M  V30 5362 H 483.474 1.93692 -4.44535 0
M  V30 5363 N 484.817 1.37938 0.762283 0
M  V30 5364 C 486.228 1.30094 1.33912 0
M  V30 5365 C 486.579 -0.0472026 1.96143 0
M  V30 5366 O 485.704 -0.94917 1.94473 0
M  V30 5367 C 486.299 2.35592 2.43478 0
M  V30 5368 C 484.858 2.31353 2.96905 0
M  V30 5369 C 484.005 2.18919 1.70205 0
M  V30 5370 H 486.956 1.48423 0.561816 0
M  V30 5371 H 486.977 2.00806 3.23199 0
M  V30 5372 H 486.489 3.33701 1.98155 0
M  V30 5373 H 484.59 1.36799 3.46579 0
M  V30 5374 H 484.703 3.25147 3.51875 0
M  V30 5375 H 483.067 1.65624 1.93496 0
M  V30 5376 H 483.85 3.18956 1.26973 0
M  V30 5377 N 486.295 -0.989507 1.22664 0
M  V30 5378 C 487.544 -1.72375 1.04737 0
M  V30 5379 C 487.857 -1.91096 -0.417316 0
M  V30 5380 O 489.063 -2.6188 -0.716334 0
M  V30 5381 C 487.519 -3.10161 1.82561 0
M  V30 5382 C 487.127 -2.99358 3.333 0
M  V30 5383 C 488.871 -3.87607 1.73093 0
M  V30 5384 C 486.778 -4.32319 4.03552 0
M  V30 5385 H 485.708 -0.646326 0.388302 0
M  V30 5386 H 488.359 -1.10437 1.46546 0
M  V30 5387 H 486.741 -3.728 1.33552 0
M  V30 5388 H 487.915 -2.45863 3.89728 0
M  V30 5389 H 486.23 -2.35392 3.43481 0
M  V30 5390 H 488.827 -4.86025 2.22899 0
M  V30 5391 H 489.17 -4.10509 0.691976 0
M  V30 5392 H 489.703 -3.31652 2.19663 0
M  V30 5393 H 486.442 -4.14616 5.07714 0
M  V30 5394 H 485.962 -4.85714 3.51911 0
M  V30 5395 H 487.641 -5.01051 4.09337 0
M  V30 5396 N 487.773 -1.03688 -1.18687 0
M  V30 5397 C 488.998 -0.757819 -1.93059 0
M  V30 5398 C 489.423 0.678353 -1.75442 0
M  V30 5399 O 488.781 1.46938 -1.06203 0
M  V30 5400 C 488.829 -1.12423 -3.42627 0
M  V30 5401 O 487.933 -0.247505 -4.11657 0
M  V30 5402 H 487.274 -0.279245 -0.602427 0
M  V30 5403 H 489.804 -1.3857 -1.5053 0
M  V30 5404 H 489.814 -1.08454 -3.93322 0
M  V30 5405 H 488.489 -2.17049 -3.54771 0
M  V30 5406 H 487.066 -0.34649 -3.71287 0
M  V30 5407 N 489.251 1.34841 -0.815825 0
M  V30 5408 C 490.667 1.51543 -0.500697 0
M  V30 5409 C 490.867 1.76261 0.976444 0
M  V30 5410 O 489.923 1.8094 1.76117 0
M  V30 5411 C 491.236 2.68487 -1.35407 0
M  V30 5412 C 492.784 2.82368 -1.35046 0
M  V30 5413 C 493.259 4.02347 -2.18816 0
M  V30 5414 N 494.75 4.09542 -2.16402 0
M  V30 5415 C 495.485 5.01517 -2.77971 0
M  V30 5416 N 494.981 5.98763 -3.48503 0
M  V30 5417 N 496.774 4.94334 -2.67563 0
M  V30 5418 H 488.925 1.17055 -1.77234 0
M  V30 5419 H 491.188 0.573481 -0.754866 0
M  V30 5420 H 490.894 2.56829 -2.40274 0
M  V30 5421 H 490.768 3.63321 -1.01377 0
M  V30 5422 H 493.155 2.93471 -0.309604 0
M  V30 5423 H 493.236 1.88363 -1.73069 0
M  V30 5424 H 492.88 3.92004 -3.22948 0
M  V30 5425 H 492.81 4.95551 -1.78148 0
M  V30 5426 H 495.301 3.39932 -1.65091 0
M  V30 5427 H 495.614 6.6556 -3.92747 0
M  V30 5428 H 493.959 5.98909 -3.52609 0
M  V30 5429 H 497.15 4.1732 -2.12041 0
M  V30 5430 H 497.323 5.6582 -3.15834 0
M  V30 5431 N 490.729 0.570148 1.46925 0
M  V30 5432 C 491.659 -0.158274 2.32963 0
M  V30 5433 C 492.64 -0.896093 1.44583 0
M  V30 5434 O 493.825 -0.874022 1.7342 0
M  V30 5435 C 490.955 -1.18055 3.26619 0
M  V30 5436 C 489.909 -0.558379 4.24342 0
M  V30 5437 C 489.235 -1.68623 5.07415 0
M  V30 5438 C 490.535 0.496295 5.19937 0
M  V30 5439 H 492.229 0.560046 2.94115 0
M  V30 5440 H 489.775 0.270775 1.41431 0
M  V30 5441 H 491.728 -1.69841 3.85658 0
M  V30 5442 H 490.452 -1.92899 2.63548 0
M  V30 5443 H 489.111 -0.0617157 3.66548 0
M  V30 5444 H 488.759 -2.42402 4.40738 0
M  V30 5445 H 488.459 -1.27564 5.73586 0
M  V30 5446 H 489.983 -2.20709 5.69315 0
M  V30 5447 H 491.397 0.0640052 5.73264 0
M  V30 5448 H 489.794 0.82649 5.94381 0
M  V30 5449 H 490.864 1.38735 4.6463 0
M  V30 5450 N 492.207 -1.54576 0.307264 0
M  V30 5451 C 493.437 -2.04378 -0.302158 0
M  V30 5452 C 493.845 -1.18381 -1.47589 0
M  V30 5453 O 493.188 -0.20352 -1.82569 0
M  V30 5454 C 493.25 -3.50133 -0.815305 0
M  V30 5455 C 492.914 -4.56401 0.233977 0
M  V30 5456 C 493.911 -5.08884 1.06456 0
M  V30 5457 C 491.596 -5.0088 0.377478 0
M  V30 5458 C 493.59 -6.04394 2.02452 0
M  V30 5459 C 491.277 -5.96208 1.34088 0
M  V30 5460 C 492.275 -6.47849 2.16288 0
M  V30 5461 O 491.963 -7.41308 3.10994 0
M  V30 5462 H 491.695 -0.672502 -0.0686839 0
M  V30 5463 H 494.249 -2.00484 0.446682 0
M  V30 5464 H 492.479 -3.51371 -1.61478 0
M  V30 5465 H 494.168 -3.83098 -1.34129 0
M  V30 5466 H 494.934 -4.75311 0.964596 0
M  V30 5467 H 490.813 -4.60309 -0.252405 0
M  V30 5468 H 494.357 -6.44626 2.66652 0
M  V30 5469 H 490.254 -6.29198 1.44154 0
M  V30 5470 H 491.022 -7.5913 3.06045 0
M  V30 5471 N 493.685 -0.035106 -1.57561 0
M  V30 5472 C 494.648 0.929819 -2.09492 0
M  V30 5473 C 495.648 1.25026 -1.01119 0
M  V30 5474 O 496.838 1.18961 -1.27255 0
M  V30 5475 C 493.97 2.24457 -2.56577 0
M  V30 5476 H 495.163 0.479935 -2.96035 0
M  V30 5477 H 492.716 0.213033 -1.54841 0
M  V30 5478 H 493.451 2.74061 -1.73382 0
M  V30 5479 H 493.236 2.02508 -3.35757 0
M  V30 5480 H 494.726 2.93607 -2.96959 0
M  V30 5481 N 495.163 1.55791 0.238111 0
M  V30 5482 C 496.579 1.48411 0.587045 0
M  V30 5483 C 496.779 0.72702 1.87927 0
M  V30 5484 O 495.835 0.259942 2.51158 0
M  V30 5485 C 497.148 2.92873 0.681623 0
M  V30 5486 C 498.696 3.03295 0.773363 0
M  V30 5487 C 499.171 4.49082 0.899428 0
M  V30 5488 N 500.662 4.53056 0.964075 0
M  V30 5489 C 501.397 5.63117 1.08104 0
M  V30 5490 N 500.893 6.82969 1.16299 0
M  V30 5491 N 502.686 5.50933 1.11488 0
M  V30 5492 H 494.837 2.0345 -0.610076 0
M  V30 5493 H 497.1 0.924034 -0.211813 0
M  V30 5494 H 496.806 3.51142 -0.19802 0
M  V30 5495 H 496.68 3.43851 1.55069 0
M  V30 5496 H 499.067 2.45101 1.64346 0
M  V30 5497 H 499.148 2.55513 -0.121034 0
M  V30 5498 H 498.792 5.07889 0.0338586 0
M  V30 5499 H 498.722 4.94553 1.809 0
M  V30 5500 H 501.213 3.66737 0.91173 0
M  V30 5501 H 501.526 7.62598 1.25155 0
M  V30 5502 H 499.871 6.85712 1.13241 0
M  V30 5503 H 503.062 4.56231 1.0474 0
M  V30 5504 H 503.235 6.36743 1.20259 0
M  V30 5505 N 496.642 -0.504142 1.49319 0
M  V30 5506 C 497.872 -1.28071 1.62116 0
M  V30 5507 C 498.28 -1.86955 0.290566 0
M  V30 5508 O 497.623 -1.68415 -0.733616 0
M  V30 5509 C 497.685 -2.4521 2.62893 0
M  V30 5510 C 497.349 -2.07218 4.0732 0
M  V30 5511 C 498.346 -1.61375 4.94221 0
M  V30 5512 C 496.031 -2.16949 4.53033 0
M  V30 5513 C 498.025 -1.25763 6.2487 0
M  V30 5514 C 495.712 -1.80949 5.83696 0
M  V30 5515 C 496.71 -1.3543 6.69438 0
M  V30 5516 O 496.398 -0.99915 7.97667 0
M  V30 5517 H 496.13 -0.394763 0.54876 0
M  V30 5518 H 498.684 -0.612118 1.96067 0
M  V30 5519 H 496.914 -3.15134 2.24115 0
M  V30 5520 H 498.603 -3.0724 2.65252 0
M  V30 5521 H 499.369 -1.53306 4.60133 0
M  V30 5522 H 495.248 -2.5133 3.86463 0
M  V30 5523 H 498.792 -0.901631 6.91749 0
M  V30 5524 H 494.689 -1.88667 6.17313 0
M  V30 5525 H 495.457 -1.13089 8.1065 0
M  V30 5526 N 498.12 -1.38341 -0.754957 0
M  V30 5527 C 499.367 -1.34473 -1.51404 0
M  V30 5528 C 499.695 0.0656458 -1.94389 0
M  V30 5529 O 498.95 1.04244 -1.65625 0
M  V30 5530 C 499.249 -2.2452 -2.78075 0
M  V30 5531 C 498.915 -3.72512 -2.54059 0
M  V30 5532 C 497.577 -4.1284 -2.47218 0
M  V30 5533 C 499.929 -4.66197 -2.33044 0
M  V30 5534 C 497.257 -5.44945 -2.17376 0
M  V30 5535 C 499.609 -5.98558 -2.04723 0
M  V30 5536 C 498.273 -6.37972 -1.96337 0
M  V30 5537 H 497.543 -0.492072 -0.554027 0
M  V30 5538 H 500.19 -1.70687 -0.868223 0
M  V30 5539 H 498.495 -1.81357 -3.473 0
M  V30 5540 H 500.192 -2.18832 -3.36026 0
M  V30 5541 H 496.782 -3.40538 -2.60253 0
M  V30 5542 H 500.966 -4.35888 -2.37309 0
M  V30 5543 H 496.222 -5.74426 -2.09391 0
M  V30 5544 H 500.396 -6.70693 -1.87465 0
M  V30 5545 H 498.023 -7.40258 -1.72978 0
M  V30 5546 N 499.598 0.982988 -1.23187 0
M  V30 5547 C 500.53 2.07729 -0.968572 0
M  V30 5548 C 501.543 1.62702 0.0564821 0
M  V30 5549 O 502.732 1.77603 -0.178733 0
M  V30 5550 C 499.832 3.36071 -0.436974 0
M  V30 5551 C 499.005 4.10081 -1.52159 0
M  V30 5552 C 498.064 5.16701 -0.99532 0
M  V30 5553 O 497.09 5.43727 -1.68373 0
M  V30 5554 N 498.292 5.80226 0.178192 0
M  V30 5555 H 501.057 2.30894 -1.9107 0
M  V30 5556 H 498.618 1.14949 -1.1401 0
M  V30 5557 H 500.61 4.04639 -0.0700051 0
M  V30 5558 H 499.18 3.09893 0.410509 0
M  V30 5559 H 498.4 3.36004 -2.06144 0
M  V30 5560 H 499.688 4.56295 -2.25105 0
M  V30 5561 H 499.086 5.60651 0.754096 0
M  V30 5562 H 497.643 6.49982 0.486449 0
M  V30 5563 N 501.076 1.04316 1.18135 0
M  V30 5564 C 502.324 0.746542 1.87806 0
M  V30 5565 C 502.645 -0.728082 1.80898 0
M  V30 5566 O 501.915 -1.52554 1.22899 0
M  V30 5567 H 500.495 0.273157 0.695265 0
M  V30 5568 H 503.157 1.32044 1.43354 0
M  V30 5569 H 502.253 1.05362 2.93778 0
M  V30 5570 N 502.554 -1.34406 0.822964 0
M  V30 5571 C 503.831 -1.92733 0.333641 0
M  V30 5572 C 504.211 -1.75107 -1.17901 0
M  V30 5573 O 503.559 -1.12983 -1.98613 0
M  V30 5574 C 503.769 -3.40557 0.763023 0
M  V30 5575 C 505.117 -4.17709 0.761879 0
M  V30 5576 O 506.141 -3.49141 0.705606 0
M  V30 5577 O 505 -5.40082 0.835109 0
M  V30 5578 H 502.094 -0.821964 0.0911249 0
M  V30 5579 H 504.64 -1.4338 0.907757 0
M  V30 5580 H 503.412 -3.47187 1.8049 0
M  V30 5581 H 503.035 -3.97259 0.164605 0
M  V30 5582 N 504.032 -0.577932 -1.46621 0
M  V30 5583 C 504.962 0.145917 -2.33044 0
M  V30 5584 C 505.943 0.888412 -1.45056 0
M  V30 5585 O 507.128 0.864812 -1.73881 0
M  V30 5586 C 504.258 1.16322 -3.27241 0
M  V30 5587 C 503.212 0.535868 -4.24632 0
M  V30 5588 C 502.538 1.65929 -5.08303 0
M  V30 5589 C 503.838 -0.523861 -5.19666 0
M  V30 5590 H 505.532 -0.575636 -2.93814 0
M  V30 5591 H 503.078 -0.278272 -1.41286 0
M  V30 5592 H 505.031 1.67793 -3.86553 0
M  V30 5593 H 503.755 1.91498 -2.64567 0
M  V30 5594 H 502.414 0.0422759 -3.66576 0
M  V30 5595 H 502.062 2.40061 -4.42018 0
M  V30 5596 H 501.762 1.2452 -5.74255 0
M  V30 5597 H 503.286 2.17686 -5.70478 0
M  V30 5598 H 504.7 -0.0944059 -5.73222 0
M  V30 5599 H 503.097 -0.858 -5.93935 0
M  V30 5600 H 504.167 -1.41197 -4.63887 0
M  V30 5601 N 505.51 1.54411 -0.315457 0
M  V30 5602 C 506.457 2.24048 0.554166 0
M  V30 5603 C 507.427 1.2283 1.11812 0
M  V30 5604 O 508.612 1.51491 1.15997 0
M  V30 5605 C 505.752 2.99574 1.71316 0
M  V30 5606 C 504.865 4.15594 1.17922 0
M  V30 5607 C 504 4.78669 2.30324 0
M  V30 5608 C 503.039 5.86807 1.74137 0
M  V30 5609 N 502.176 6.43777 2.8017 0
M  V30 5610 H 507.016 2.97964 -0.0462602 0
M  V30 5611 H 504.553 1.47059 -0.0346009 0
M  V30 5612 H 506.511 3.41604 2.39505 0
M  V30 5613 H 505.141 2.28008 2.285 0
M  V30 5614 H 504.193 3.78404 0.389136 0
M  V30 5615 H 505.505 4.93459 0.728012 0
M  V30 5616 H 504.659 5.23626 3.06433 0
M  V30 5617 H 503.398 4.00168 2.78778 0
M  V30 5618 H 502.403 5.41261 0.965236 0
M  V30 5619 H 503.628 6.67201 1.2657 0
M  V30 5620 H 501.574 5.68153 3.2793 0
M  V30 5621 H 501.491 7.17031 2.39588 0
M  V30 5622 H 502.759 6.9339 3.56132 0
M  V30 5623 N 506.988 0.0434614 1.5754 0
M  V30 5624 C 507.918 -0.931651 2.14109 0
M  V30 5625 C 508.899 -1.32971 1.06079 0
M  V30 5626 O 510.084 -1.40579 1.33982 0
M  V30 5627 C 507.214 -2.20914 2.67982 0
M  V30 5628 C 506.168 -1.95139 3.80926 0
M  V30 5629 C 505.494 -3.29276 4.21285 0
M  V30 5630 C 506.794 -1.27913 5.06395 0
M  V30 5631 H 508.488 -0.460497 2.95837 0
M  V30 5632 H 506.034 -0.220058 1.42309 0
M  V30 5633 H 507.987 -2.89522 3.06194 0
M  V30 5634 H 506.711 -2.70221 1.83434 0
M  V30 5635 H 505.37 -1.28945 3.43175 0
M  V30 5636 H 505.018 -3.76369 3.33699 0
M  V30 5637 H 504.718 -3.12831 4.97404 0
M  V30 5638 H 506.242 -3.99129 4.62091 0
M  V30 5639 H 507.656 -1.86544 5.42102 0
M  V30 5640 H 506.053 -1.2182 5.87605 0
M  V30 5641 H 507.123 -0.254066 4.84234 0
M  V30 5642 N 508.466 -1.55915 -0.229846 0
M  V30 5643 C 509.696 -1.82352 -0.971152 0
M  V30 5644 C 510.104 -0.619231 -1.7878 0
M  V30 5645 O 509.447 0.421597 -1.78797 0
M  V30 5646 C 509.509 -3.02399 -1.9441 0
M  V30 5647 C 509.173 -4.37739 -1.31277 0
M  V30 5648 C 510.17 -5.15074 -0.706757 0
M  V30 5649 C 507.855 -4.84454 -1.32702 0
M  V30 5650 C 509.849 -6.37281 -0.123413 0
M  V30 5651 C 507.536 -6.06605 -0.739831 0
M  V30 5652 C 508.534 -6.82858 -0.139071 0
M  V30 5653 O 508.222 -8.027 0.439007 0
M  V30 5654 H 507.954 -0.61035 -0.290601 0
M  V30 5655 H 510.508 -2.03839 -0.252746 0
M  V30 5656 H 508.738 -2.76709 -2.70128 0
M  V30 5657 H 510.427 -3.15779 -2.55026 0
M  V30 5658 H 511.193 -4.80093 -0.688131 0
M  V30 5659 H 507.072 -4.25081 -1.78402 0
M  V30 5660 H 510.616 -6.96741 0.346124 0
M  V30 5661 H 506.513 -6.4106 -0.755841 0
M  V30 5662 H 507.281 -8.17824 0.332521 0
M  V30 5663 N 509.944 0.496216 -1.49584 0
M  V30 5664 C 511.169 1.27865 -1.63295 0
M  V30 5665 C 511.594 1.85592 -0.306156 0
M  V30 5666 O 510.952 1.66092 0.726851 0
M  V30 5667 C 511 2.38128 -2.7079 0
M  V30 5668 O 510.104 3.42108 -2.30296 0
M  V30 5669 H 509.445 0.377279 -0.546403 0
M  V30 5670 H 511.975 0.593497 -1.95803 0
M  V30 5671 H 511.985 2.8382 -2.93104 0
M  V30 5672 H 510.66 1.95479 -3.67098 0
M  V30 5673 H 509.237 3.02301 -2.18331 0
M  V30 5674 N 511.423 1.38739 0.74761 0
M  V30 5675 C 512.356 1.3083 1.86972 0
M  V30 5676 C 513.334 0.184229 1.61553 0
M  V30 5677 O 514.518 0.36256 1.8498 0
M  V30 5678 C 511.645 1.02854 3.22705 0
M  V30 5679 C 510.691 2.17281 3.67003 0
M  V30 5680 S 511.524 3.79468 3.77842 0
M  V30 5681 C 512.68 3.53692 5.16385 0
M  V30 5682 H 512.913 2.258 1.93395 0
M  V30 5683 H 510.446 1.24646 0.911199 0
M  V30 5684 H 512.404 0.87397 4.01089 0
M  V30 5685 H 511.065 0.0959295 3.13953 0
M  V30 5686 H 510.258 1.93267 4.65472 0
M  V30 5687 H 509.86 2.28876 2.9579 0
M  V30 5688 H 512.152 3.10176 6.02327 0
M  V30 5689 H 513.095 4.51576 5.45422 0
M  V30 5690 H 513.503 2.8807 4.85464 0
M  V30 5691 N 512.901 -0.976442 1.23707 0
M  V30 5692 C 513.811 -2.10359 1.03856 0
M  V30 5693 C 514.827 -1.73991 -0.0180919 0
M  V30 5694 O 516.003 -2.0061 0.178211 0
M  V30 5695 C 513.068 -3.40809 0.636387 0
M  V30 5696 C 512.129 -3.91179 1.76854 0
M  V30 5697 C 511.362 -5.15404 1.38546 0
M  V30 5698 O 511.585 -5.69754 0.27142 0
M  V30 5699 O 510.519 -5.5994 2.20797 0
M  V30 5700 H 514.345 -2.29997 1.98331 0
M  V30 5701 H 511.93 -1.08742 1.02448 0
M  V30 5702 H 513.812 -4.19269 0.423223 0
M  V30 5703 H 512.487 -3.22493 -0.279322 0
M  V30 5704 H 511.394 -3.13819 2.03638 0
M  V30 5705 H 512.727 -4.13958 2.6627 0
M  V30 5706 N 514.379 -1.04941 -1.1758 0
M  V30 5707 C 515.627 -0.756492 -1.87408 0
M  V30 5708 C 515.948 0.718478 -1.81281 0
M  V30 5709 O 515.218 1.519 -1.23706 0
M  V30 5710 H 513.798 -0.276841 -0.693807 0
M  V30 5711 H 516.46 -1.32803 -1.42652 0
M  V30 5712 H 515.556 -1.06918 -2.93215 0
M  V30 5713 N 515.857 1.33968 -0.830081 0
M  V30 5714 C 517.103 1.98357 -0.422191 0
M  V30 5715 C 517.436 1.65633 1.01387 0
M  V30 5716 O 516.711 0.931648 1.70735 0
M  V30 5717 C 516.994 3.54492 -0.633043 0
M  V30 5718 C 516.847 3.96934 -2.11574 0
M  V30 5719 C 518.166 4.40039 -0.0735584 0
M  V30 5720 H 515.285 0.720544 -0.154871 0
M  V30 5721 H 517.927 1.58749 -1.04397 0
M  V30 5722 H 516.077 3.88361 -0.103775 0
M  V30 5723 H 517.749 3.73363 -2.7092 0
M  V30 5724 H 515.992 3.46984 -2.60354 0
M  V30 5725 H 516.663 5.05651 -2.21406 0
M  V30 5726 H 519.139 4.12764 -0.52585 0
M  V30 5727 H 518.015 5.48327 -0.250841 0
M  V30 5728 H 518.276 4.30124 1.02202 0
M  V30 5729 N 517.335 0.585699 1.46312 0
M  V30 5730 C 518.583 0.072278 2.01971 0
M  V30 5731 C 518.904 -1.29345 1.45928 0
M  V30 5732 O 518.174 -1.84973 0.645109 0
M  V30 5733 H 516.754 0.023729 0.746623 0
M  V30 5734 H 519.416 0.762155 1.7938 0
M  V30 5735 H 518.512 0.00552767 3.121 0
M  V30 5736 N 518.813 -1.54241 0.323641 0
M  V30 5737 C 520.041 -2.04985 -0.280871 0
M  V30 5738 C 520.456 -1.19978 -1.45777 0
M  V30 5739 O 519.813 -0.230471 -1.81039 0
M  V30 5740 C 519.864 -3.54353 -0.715258 0
M  V30 5741 O 519.585 -4.36132 0.414817 0
M  V30 5742 C 521.086 -4.21189 -1.38257 0
M  V30 5743 H 518.306 -0.66851 -0.0577502 0
M  V30 5744 H 520.85 -1.99029 0.469852 0
M  V30 5745 H 519.005 -3.60596 -1.41596 0
M  V30 5746 H 519.419 -5.2445 0.0725227 0
M  V30 5747 H 520.893 -5.27154 -1.63745 0
M  V30 5748 H 521.37 -3.72307 -2.32989 0
M  V30 5749 H 521.976 -4.19085 -0.724447 0
M  V30 5750 N 520.291 -0.0518155 -1.57515 0
M  V30 5751 C 521.568 0.661727 -1.84067 0
M  V30 5752 C 521.948 1.88999 -0.940351 0
M  V30 5753 O 521.296 2.285 -0.00155404 0
M  V30 5754 C 521.506 1.01841 -3.3381 0
M  V30 5755 C 522.854 1.40043 -4.00841 0
M  V30 5756 O 523.878 1.11073 -3.38439 0
M  V30 5757 O 522.737 1.94111 -5.10865 0
M  V30 5758 H 519.831 0.326702 -0.759733 0
M  V30 5759 H 522.377 -0.0812277 -1.69505 0
M  V30 5760 H 521.149 0.145202 -3.91031 0
M  V30 5761 H 520.772 1.81879 -3.53562 0
M  V30 5762 N 521.769 1.56035 0.221574 0
M  V30 5763 C 522.732 1.91584 1.2581 0
M  V30 5764 C 523.732 0.794425 1.39805 0
M  V30 5765 O 524.922 1.06217 1.38071 0
M  V30 5766 C 522.054 2.16663 2.63192 0
M  V30 5767 H 523.247 2.8429 0.954935 0
M  V30 5768 H 520.8 1.49316 0.461988 0
M  V30 5769 H 521.535 1.26508 2.98607 0
M  V30 5770 H 521.32 2.98358 2.5441 0
M  V30 5771 H 522.81 2.45262 3.37988 0
M  V30 5772 N 523.247 -0.488276 1.49845 0
M  V30 5773 C 524.493 -1.24341 1.6021 0
M  V30 5774 C 524.826 -1.91967 0.293651 0
M  V30 5775 O 524.101 -1.81323 -0.703718 0
M  V30 5776 C 524.384 -2.3005 2.77036 0
M  V30 5777 C 524.237 -1.66842 4.17713 0
M  V30 5778 C 525.556 -3.31509 2.89464 0
M  V30 5779 H 522.675 -0.450704 0.583125 0
M  V30 5780 H 525.317 -0.539673 1.82174 0
M  V30 5781 H 523.467 -2.90071 2.58439 0
M  V30 5782 H 525.139 -1.1055 4.47858 0
M  V30 5783 H 523.382 -0.972079 4.22768 0
M  V30 5784 H 524.053 -2.43576 4.95353 0
M  V30 5785 H 526.529 -2.81493 3.06433 0
M  V30 5786 H 525.405 -4.02822 3.72861 0
M  V30 5787 H 525.666 -3.94603 1.99351 0
M  V30 5788 N 524.725 -1.39134 -0.740242 0
M  V30 5789 C 525.974 -1.35384 -1.49512 0
M  V30 5790 C 526.287 0.04919 -1.95538 0
M  V30 5791 O 527.493 0.209257 -2.70692 0
M  V30 5792 C 525.949 -2.37812 -2.70136 0
M  V30 5793 C 525.557 -3.83804 -2.31081 0
M  V30 5794 C 527.301 -2.4313 -3.47977 0
M  V30 5795 C 525.208 -4.77886 -3.48395 0
M  V30 5796 H 524.138 -0.503297 -0.561434 0
M  V30 5797 H 526.789 -1.64754 -0.807974 0
M  V30 5798 H 525.171 -2.01505 -3.40899 0
M  V30 5799 H 526.345 -4.29123 -1.67898 0
M  V30 5800 H 524.66 -3.81732 -1.66343 0
M  V30 5801 H 527.257 -3.10614 -4.35228 0
M  V30 5802 H 527.6 -1.45423 -3.90074 0
M  V30 5803 H 528.133 -2.78304 -2.84239 0
M  V30 5804 H 524.872 -5.76836 -3.11353 0
M  V30 5805 H 524.392 -4.3725 -4.10576 0
M  V30 5806 H 526.071 -4.96538 -4.148 0
M  V30 5807 N 526.204 0.969867 -1.24223 0
M  V30 5808 C 527.434 1.74502 -1.106 0
M  V30 5809 C 527.842 1.86038 0.344483 0
M  V30 5810 O 527.185 1.3465 1.24961 0
M  V30 5811 C 527.247 3.18391 -1.66935 0
M  V30 5812 C 526.911 3.30334 -3.15798 0
M  V30 5813 C 527.908 3.15832 -4.12973 0
M  V30 5814 C 525.593 3.54644 -3.55715 0
M  V30 5815 C 527.587 3.25461 -5.48045 0
M  V30 5816 C 525.274 3.63912 -4.90929 0
M  V30 5817 C 526.272 3.49332 -5.86904 0
M  V30 5818 O 525.96 3.58251 -7.1966 0
M  V30 5819 H 525.692 0.554119 -0.387206 0
M  V30 5820 H 528.246 1.22646 -1.64764 0
M  V30 5821 H 526.476 3.71543 -1.07203 0
M  V30 5822 H 528.165 3.77707 -1.48634 0
M  V30 5823 H 528.931 2.96937 -3.83476 0
M  V30 5824 H 524.81 3.65059 -2.81519 0
M  V30 5825 H 528.354 3.13998 -6.22937 0
M  V30 5826 H 524.251 3.82319 -5.20098 0
M  V30 5827 H 525.019 3.7498 -7.27552 0
M  V30 5828 N 527.682 1.05563 1.17022 0
M  V30 5829 C 528.612 0.681026 2.23348 0
M  V30 5830 C 529.593 -0.322983 1.67005 0
M  V30 5831 O 530.778 -0.199746 1.9317 0
M  V30 5832 C 527.908 0.0589053 3.4725 0
M  V30 5833 C 526.862 0.988082 4.16438 0
M  V30 5834 C 526.188 0.229646 5.34207 0
M  V30 5835 C 527.488 2.31388 4.68249 0
M  V30 5836 H 529.182 1.56993 2.54938 0
M  V30 5837 H 526.728 0.756302 1.2254 0
M  V30 5838 H 528.681 -0.214982 4.20851 0
M  V30 5839 H 527.405 -0.864968 3.14938 0
M  V30 5840 H 526.064 1.24659 3.44754 0
M  V30 5841 H 525.712 -0.697111 4.98146 0
M  V30 5842 H 525.412 0.848815 5.81437 0
M  V30 5843 H 526.936 -0.0368694 6.10589 0
M  V30 5844 H 528.35 2.09964 5.33468 0
M  V30 5845 H 526.747 2.88736 5.26072 0
M  V30 5846 H 527.817 2.94982 3.84855 0
M  V30 5847 N 529.16 -1.33526 0.837174 0
M  V30 5848 C 530.107 -2.29248 0.267169 0
M  V30 5849 C 531.077 -1.54252 -0.616071 0
M  V30 5850 O 532.262 -1.82559 -0.554699 0
M  V30 5851 C 529.402 -3.40638 -0.553152 0
M  V30 5852 C 528.515 -4.30548 0.353921 0
M  V30 5853 C 527.65 -5.29051 -0.477339 0
M  V30 5854 C 526.689 -6.106 0.42823 0
M  V30 5855 N 525.826 -7.01152 -0.364801 0
M  V30 5856 H 530.666 -2.77398 1.08877 0
M  V30 5857 H 528.203 -1.36496 0.54838 0
M  V30 5858 H 530.161 -4.03921 -1.04422 0
M  V30 5859 H 528.791 -2.93685 -1.33973 0
M  V30 5860 H 527.843 -3.68001 0.963289 0
M  V30 5861 H 529.155 -4.87631 1.04964 0
M  V30 5862 H 528.309 -5.97853 -1.0323 0
M  V30 5863 H 527.048 -4.72541 -1.2065 0
M  V30 5864 H 526.053 -5.40718 0.995219 0
M  V30 5865 H 527.278 -6.69193 1.15573 0
M  V30 5866 H 525.224 -6.47092 -1.07738 0
M  V30 5867 H 525.141 -7.5551 0.272238 0
M  V30 5868 H 526.409 -7.74263 -0.902054 0
M  V30 5869 N 530.638 -0.59345 -1.46 0
M  V30 5870 C 531.601 0.123538 -2.28867 0
M  V30 5871 C 532.601 0.808628 -1.38989 0
M  V30 5872 O 533.791 0.658945 -1.61256 0
M  V30 5873 C 530.923 1.1847 -3.19653 0
M  V30 5874 H 532.116 -0.604843 -2.93737 0
M  V30 5875 H 529.669 -0.351875 -1.52288 0
M  V30 5876 H 530.404 1.94431 -2.59552 0
M  V30 5877 H 530.189 0.69783 -3.8584 0
M  V30 5878 H 531.679 1.68726 -3.81997 0
M  V30 5879 N 532.116 1.54067 -0.331816 0
M  V30 5880 C 533.046 2.27569 0.522932 0
M  V30 5881 C 534.027 1.28679 1.11247 0
M  V30 5882 O 535.212 1.57504 1.13605 0
M  V30 5883 C 532.342 3.0397 1.67987 0
M  V30 5884 C 531.296 4.10267 1.21924 0
M  V30 5885 C 530.622 4.74555 2.46377 0
M  V30 5886 C 531.922 5.21268 0.32815 0
M  V30 5887 H 533.616 2.99264 -0.0901977 0
M  V30 5888 H 531.162 1.4393 -0.044821 0
M  V30 5889 H 533.115 3.54123 2.28418 0
M  V30 5890 H 531.839 2.29906 2.31971 0
M  V30 5891 H 530.498 3.61009 0.637809 0
M  V30 5892 H 530.146 3.97098 3.08743 0
M  V30 5893 H 529.846 5.46363 2.16243 0
M  V30 5894 H 531.37 5.27487 3.07555 0
M  V30 5895 H 532.784 5.67128 0.838978 0
M  V30 5896 H 531.181 5.99982 0.119228 0
M  V30 5897 H 532.251 4.80673 -0.638839 0
M  V30 5898 N 533.594 0.0601682 1.57485 0
M  V30 5899 C 534.819 -0.624416 1.97777 0
M  V30 5900 C 535.244 -1.63051 0.937867 0
M  V30 5901 O 534.602 -1.81036 -0.0978845 0
M  V30 5902 C 534.65 -1.27979 3.37126 0
M  V30 5903 O 533.754 -2.39556 3.35688 0
M  V30 5904 H 533.095 -0.161581 0.64404 0
M  V30 5905 H 535.625 0.131237 2.04179 0
M  V30 5906 H 535.635 -1.62937 3.74053 0
M  V30 5907 H 534.31 -0.542501 4.12347 0
M  V30 5908 H 532.887 -2.06478 3.10517 0
M  V30 5909 N 535.072 -1.5615 -0.213296 0
M  V30 5910 C 536.297 -1.83986 -0.957282 0
M  V30 5911 C 536.722 -0.641526 -1.76822 0
M  V30 5912 O 536.08 0.409722 -1.7661 0
M  V30 5913 C 536.128 -3.09889 -1.84393 0
M  V30 5914 O 535.232 -2.89163 -2.94038 0
M  V30 5915 H 534.573 -0.606357 -0.270605 0
M  V30 5916 H 537.103 -2.03369 -0.224111 0
M  V30 5917 H 537.113 -3.40209 -2.25215 0
M  V30 5918 H 535.788 -3.96735 -1.24795 0
M  V30 5919 H 534.365 -2.70097 -2.57103 0
M  V30 5920 N 536.55 0.480323 -1.50102 0
M  V30 5921 C 537.46 1.60547 -1.71061 0
M  V30 5922 C 538.476 1.63564 -0.593529 0
M  V30 5923 O 539.652 1.81604 -0.870751 0
M  V30 5924 C 536.717 2.96814 -1.79171 0
M  V30 5925 C 535.778 3.04259 -3.02861 0
M  V30 5926 C 535.011 4.34027 -3.10574 0
M  V30 5927 O 535.234 5.24009 -2.25323 0
M  V30 5928 O 534.168 4.46873 -4.03223 0
M  V30 5929 H 537.994 1.45788 -2.6642 0
M  V30 5930 H 535.579 0.658838 -1.34088 0
M  V30 5931 H 537.461 3.77765 -1.86738 0
M  V30 5932 H 536.136 3.11791 -0.869947 0
M  V30 5933 H 535.043 2.22419 -3.008 0
M  V30 5934 H 536.376 2.94216 -3.94586 0
M  V30 5935 N 538.028 1.39524 0.732853 0
M  V30 5936 C 539.253 1.40329 1.52717 0
M  V30 5937 C 539.678 0.000286574 1.881 0
M  V30 5938 O 539.036 -0.987262 1.52062 0
M  V30 5939 C 539.084 2.28464 2.78992 0
M  V30 5940 O 538.188 1.716 3.75003 0
M  V30 5941 H 537.529 0.47778 0.461109 0
M  V30 5942 H 540.059 1.83546 0.903996 0
M  V30 5943 H 540.069 2.43051 3.27705 0
M  V30 5944 H 538.744 3.30425 2.52572 0
M  V30 5945 H 537.321 1.66267 3.33781 0
M  V30 5946 N 539.506 -0.963266 1.24736 0
M  V30 5947 C 540.753 -1.7068 1.0897 0
M  V30 5948 C 541.081 -1.90934 -0.370751 0
M  V30 5949 O 540.336 -1.47155 -1.29011 0
M  V30 5950 C 540.635 -3.09944 1.7796 0
M  V30 5951 C 540.301 -3.09518 3.27887 0
M  V30 5952 C 538.963 -3.09109 3.68789 0
M  V30 5953 C 541.315 -3.03509 4.23712 0
M  V30 5954 C 538.643 -3.00429 5.03944 0
M  V30 5955 C 540.995 -2.96371 5.5888 0
M  V30 5956 C 539.659 -2.94293 5.99123 0
M  V30 5957 H 538.929 -0.624564 0.398749 0
M  V30 5958 H 541.576 -1.12603 1.54896 0
M  V30 5959 H 539.881 -3.71513 1.2444 0
M  V30 5960 H 541.578 -3.66278 1.63222 0
M  V30 5961 H 538.168 -3.10603 2.95337 0
M  V30 5962 H 542.352 -3.0295 3.93109 0
M  V30 5963 H 537.608 -2.97183 5.34314 0
M  V30 5964 H 541.782 -2.90681 6.32833 0
M  V30 5965 H 539.409 -2.87322 7.03811 0
M  V30 5966 N 540.985 -1.06182 -1.16461 0
M  V30 5967 C 541.895 -0.682671 -2.24448 0
M  V30 5968 C 542.911 0.30078 -1.71381 0
M  V30 5969 O 544.087 0.150376 -2.00838 0
M  V30 5970 C 541.152 -0.0737202 -3.46622 0
M  V30 5971 C 540.213 -1.10889 -4.14731 0
M  V30 5972 C 539.446 -0.528908 -5.31073 0
M  V30 5973 O 539.669 0.65868 -5.66584 0
M  V30 5974 O 538.603 -1.26805 -5.88391 0
M  V30 5975 H 542.429 -1.58291 -2.59187 0
M  V30 5976 H 540.014 -0.834013 -1.23954 0
M  V30 5977 H 541.896 0.264192 -4.20571 0
M  V30 5978 H 540.571 0.800015 -3.13658 0
M  V30 5979 H 539.478 -1.49896 -3.42756 0
M  V30 5980 H 540.811 -1.95412 -4.51747 0
M  V30 5981 N 542.463 1.3308 -0.844243 0
M  V30 5982 C 543.879 1.50447 -0.532729 0
M  V30 5983 C 544.079 1.78292 0.938837 0
M  V30 5984 O 543.135 1.84635 1.72239 0
M  V30 5985 C 544.448 2.65555 -1.41072 0
M  V30 5986 C 545.996 2.7944 -1.41005 0
M  V30 5987 C 546.471 3.97616 -2.27301 0
M  V30 5988 N 547.962 4.0486 -2.2504 0
M  V30 5989 C 548.697 4.95508 -2.88547 0
M  V30 5990 N 548.193 5.91236 -3.61126 0
M  V30 5991 N 549.986 4.88548 -2.77989 0
M  V30 5992 H 542.137 1.13269 -1.79677 0
M  V30 5993 H 544.4 0.55734 -0.766861 0
M  V30 5994 H 544.106 2.51675 -2.45668 0
M  V30 5995 H 543.98 3.61089 -1.09061 0
M  V30 5996 H 546.367 2.92749 -0.371784 0
M  V30 5997 H 546.448 1.8465 -1.77026 0
M  V30 5998 H 546.092 3.85066 -3.3119 0
M  V30 5999 H 546.022 4.91661 -1.88619 0
M  V30 6000 H 548.513 3.36353 -1.72264 0
M  V30 6001 H 548.826 6.57079 -4.06776 0
M  V30 6002 H 547.171 5.91295 -3.65234 0
M  V30 6003 H 550.362 4.12729 -2.20846 0
M  V30 6004 H 550.535 5.58994 -3.27765 0
M  V30 6005 N 543.941 0.601185 1.45683 0
M  V30 6006 C 544.871 -0.108824 2.33246 0
M  V30 6007 C 545.852 -0.865223 1.46451 0
M  V30 6008 O 547.037 -0.83704 1.75235 0
M  V30 6009 C 544.167 -1.11101 3.2905 0
M  V30 6010 C 543.121 -0.468244 4.25431 0
M  V30 6011 C 542.447 -1.57822 5.10878 0
M  V30 6012 C 543.747 0.606469 5.18767 0
M  V30 6013 H 545.441 0.622306 2.92861 0
M  V30 6014 H 542.987 0.300714 1.40825 0
M  V30 6015 H 544.94 -1.61622 3.89174 0
M  V30 6016 H 543.664 -1.87265 2.67581 0
M  V30 6017 H 542.323 0.0160484 3.66596 0
M  V30 6018 H 541.971 -2.32998 4.45781 0
M  V30 6019 H 541.671 -1.15369 5.76163 0
M  V30 6020 H 543.195 -2.08583 5.73869 0
M  V30 6021 H 544.609 0.185589 5.73 0
M  V30 6022 H 543.006 0.952381 5.92494 0
M  V30 6023 H 544.076 1.48559 4.61582 0
M  V30 6024 N 545.419 -1.53889 0.339982 0
M  V30 6025 C 546.83 -1.86139 -0.144671 0
M  V30 6026 C 547.181 -1.2613 -1.50285 0
M  V30 6027 O 546.306 -0.573515 -2.08662 0
M  V30 6028 C 546.901 -3.37728 -0.269285 0
M  V30 6029 C 545.46 -3.69868 -0.698168 0
M  V30 6030 C 544.607 -2.76777 0.170249 0
M  V30 6031 H 547.558 -1.48503 0.559704 0
M  V30 6032 H 547.579 -3.64331 -1.0974 0
M  V30 6033 H 547.091 -3.81375 0.719366 0
M  V30 6034 H 545.192 -3.31764 -1.69597 0
M  V30 6035 H 545.305 -4.76582 -0.490533 0
M  V30 6036 H 543.669 -2.52188 -0.356844 0
M  V30 6037 H 544.452 -3.23253 1.15597 0
M  V30 6038 N 546.897 -0.0685191 -1.57451 0
M  V30 6039 C 548.143 0.602239 -1.93652 0
M  V30 6040 C 548.476 1.6946 -0.948526 0
M  V30 6041 O 547.751 1.94487 0.022782 0
M  V30 6042 C 548.034 1.18223 -3.4014 0
M  V30 6043 C 547.887 0.0967431 -4.49696 0
M  V30 6044 C 549.206 2.08872 -3.87377 0
M  V30 6045 H 546.325 0.217453 -0.70419 0
M  V30 6046 H 548.967 -0.133821 -1.89528 0
M  V30 6047 H 547.117 1.80953 -3.43785 0
M  V30 6048 H 548.789 -0.536155 -4.58174 0
M  V30 6049 H 547.032 -0.573063 -4.29998 0
M  V30 6050 H 547.703 0.542894 -5.49324 0
M  V30 6051 H 550.179 1.56081 -3.85717 0
M  V30 6052 H 549.055 2.46389 -4.90493 0
M  V30 6053 H 549.316 2.99572 -3.25129 0
M  V30 6054 N 548.375 1.56261 0.205012 0
M  V30 6055 C 549.622 1.8004 0.926927 0
M  V30 6056 C 549.95 0.640086 1.83666 0
M  V30 6057 O 549.205 -0.374702 1.92079 0
M  V30 6058 C 549.504 3.09722 1.78345 0
M  V30 6059 C 549.17 4.39082 1.02555 0
M  V30 6060 C 547.832 4.74226 0.816256 0
M  V30 6061 C 550.184 5.18877 0.491559 0
M  V30 6062 C 547.512 5.86668 0.0613287 0
M  V30 6063 C 549.864 6.32105 -0.250107 0
M  V30 6064 C 548.528 6.6584 -0.470508 0
M  V30 6065 H 547.798 0.658812 0.339187 0
M  V30 6066 H 550.445 1.90515 0.19395 0
M  V30 6067 H 548.75 2.9444 2.5848 0
M  V30 6068 H 550.447 3.25324 2.34446 0
M  V30 6069 H 547.037 4.11497 1.19868 0
M  V30 6070 H 551.221 4.92147 0.640684 0
M  V30 6071 H 546.477 6.11283 -0.119501 0
M  V30 6072 H 550.651 6.93157 -0.671307 0
M  V30 6073 H 548.278 7.5281 -1.05739 0
M  V30 6074 N 549.853 -0.472356 1.50355 0
M  V30 6075 C 550.801 -1.59126 1.69651 0
M  V30 6076 C 551.795 -1.59793 0.56237 0
M  V30 6077 O 553.001 -1.63957 0.742832 0
M  V30 6078 H 549.376 -0.528008 0.535454 0
M  V30 6079 H 551.347 -1.40013 2.63513 0
M  V30 6080 C 550.096 -2.97075 1.8067 0
M  V30 6081 H 549.419 -2.9728 2.67329 0
M  V30 6082 H 550.859 -3.74825 1.98197 0
M  V30 6083 C 549.318 -3.32247 0.558016 0
M  V30 6084 O 549.848 -4.00553 -0.303399 0
M  V30 6085 N 548.054 -2.87659 0.412415 0
M  V30 6086 H 547.601 -2.32246 1.11443 0
M  V30 6087 H 547.559 -3.11556 -0.421908 0
M  V30 6088 N 551.331 -1.39911 -0.725443 0
M  V30 6089 C 552.278 -1.39393 -1.83952 0
M  V30 6090 C 553.248 -0.252249 -1.64173 0
M  V30 6091 O 554.433 -0.44882 -1.85446 0
M  V30 6092 C 551.573 -1.25262 -3.21564 0
M  V30 6093 C 550.686 -2.49054 -3.52982 0
M  V30 6094 C 549.821 -2.27439 -4.80047 0
M  V30 6095 C 548.86 -3.46857 -5.04338 0
M  V30 6096 N 547.997 -3.24499 -6.22611 0
M  V30 6097 H 552.837 -2.34622 -1.83729 0
M  V30 6098 H 550.374 -1.16537 -0.897636 0
M  V30 6099 H 552.332 -1.15077 -4.01015 0
M  V30 6100 H 550.962 -0.33657 -3.21041 0
M  V30 6101 H 550.014 -2.69805 -2.6816 0
M  V30 6102 H 551.326 -3.37973 -3.66846 0
M  V30 6103 H 550.48 -2.14551 -5.67497 0
M  V30 6104 H 549.219 -1.35929 -4.68374 0
M  V30 6105 H 548.224 -3.60232 -4.15346 0
M  V30 6106 H 549.449 -4.3928 -5.17889 0
M  V30 6107 H 547.395 -2.35663 -6.12208 0
M  V30 6108 H 547.312 -4.06978 -6.37106 0
M  V30 6109 H 548.58 -3.15325 -7.12875 0
M  V30 6110 N 552.809 0.956637 -1.25245 0
M  V30 6111 C 554.034 1.74104 -1.12706 0
M  V30 6112 C 554.459 1.85436 0.315429 0
M  V30 6113 O 553.817 1.33334 1.22848 0
M  V30 6114 C 553.865 3.1338 -1.78396 0
M  V30 6115 O 552.969 3.98485 -1.06224 0
M  V30 6116 H 552.31 0.53476 -0.393609 0
M  V30 6117 H 554.84 1.19924 -1.65769 0
M  V30 6118 H 554.85 3.6385 -1.846 0
M  V30 6119 H 553.525 3.04448 -2.83345 0
M  V30 6120 H 552.102 3.56952 -1.07886 0
M  V30 6121 N 554.287 1.06798 1.15896 0
M  V30 6122 C 555.25 0.687328 2.18651 0
M  V30 6123 C 556.25 -0.269559 1.58524 0
M  V30 6124 O 557.44 -0.0512627 1.74125 0
M  V30 6125 C 554.572 0.0121642 3.40898 0
M  V30 6126 H 555.765 1.59701 2.53842 0
M  V30 6127 H 553.318 0.863828 1.3026 0
M  V30 6128 H 554.053 -0.910025 3.1127 0
M  V30 6129 H 553.838 0.700309 3.85795 0
M  V30 6130 H 555.328 -0.239703 4.16911 0
M  V30 6131 N 555.766 -1.3263 0.851289 0
M  V30 6132 C 557.012 -1.98061 0.462963 0
M  V30 6133 C 557.367 -1.66162 -0.969948 0
M  V30 6134 O 556.66 -0.937723 -1.67085 0
M  V30 6135 C 556.854 -3.51713 0.635015 0
M  V30 6136 C 556.683 -3.98544 2.0831 0
M  V30 6137 C 555.453 -4.25787 2.72091 0
M  V30 6138 C 557.651 -4.13858 3.0533 0
M  V30 6139 N 555.633 -4.58842 4.07845 0
M  V30 6140 C 557.004 -4.50412 4.26063 0
M  V30 6141 C 559.059 -3.96182 3.0157 0
M  V30 6142 C 557.762 -4.71136 5.43529 0
M  V30 6143 C 559.788 -4.18088 4.18278 0
M  V30 6144 C 559.15 -4.54956 5.37768 0
M  V30 6145 H 555.249 -0.750976 0.218082 0
M  V30 6146 H 557.833 -1.60514 1.10197 0
M  V30 6147 H 556.004 -3.88391 0.0257298 0
M  V30 6148 H 557.736 -4.04118 0.216915 0
M  V30 6149 H 554.491 -4.17734 2.23149 0
M  V30 6150 H 554.915 -4.7956 4.77862 0
M  V30 6151 H 559.557 -3.66783 2.1031 0
M  V30 6152 H 557.275 -4.9939 6.35323 0
M  V30 6153 H 560.861 -4.05918 4.168 0
M  V30 6154 H 559.741 -4.71567 6.26573 0
M  V30 6155 N 557.244 -0.608902 -1.45362 0
M  V30 6156 C 558.66 -0.272659 -1.57254 0
M  V30 6157 C 558.86 1.22477 -1.60005 0
M  V30 6158 O 557.916 2.00785 -1.53106 0
M  V30 6159 C 559.229 -0.944991 -2.85465 0
M  V30 6160 C 560.777 -0.921033 -2.99142 0
M  V30 6161 C 561.252 -1.5734 -4.30126 0
M  V30 6162 N 562.743 -1.53895 -4.36887 0
M  V30 6163 C 563.478 -2.01286 -5.36909 0
M  V30 6164 N 562.974 -2.56768 -6.43461 0
M  V30 6165 N 564.767 -1.92046 -5.28275 0
M  V30 6166 H 556.918 -1.58117 -1.4182 0
M  V30 6167 H 559.181 -0.662437 -0.678146 0
M  V30 6168 H 558.887 -1.99941 -2.89338 0
M  V30 6169 H 558.761 -0.469079 -3.74272 0
M  V30 6170 H 561.148 0.124846 -2.94836 0
M  V30 6171 H 561.229 -1.43522 -2.11743 0
M  V30 6172 H 560.873 -2.61862 -4.35191 0
M  V30 6173 H 560.803 -1.03422 -5.16344 0
M  V30 6174 H 563.294 -1.13366 -3.60495 0
M  V30 6175 H 563.607 -2.9072 -7.16032 0
M  V30 6176 H 561.952 -2.60808 -6.44208 0
M  V30 6177 H 565.143 -1.48439 -4.43941 0
M  V30 6178 H 565.316 -2.29293 -6.06077 0
M  V30 6179 N 558.722 1.53707 -0.348139 0
M  V30 6180 C 559.672 2.2193 0.522592 0
M  V30 6181 C 560.656 1.20831 1.06248 0
M  V30 6182 O 561.848 1.46357 0.995415 0
M  V30 6183 C 558.977 2.99904 1.6707 0
M  V30 6184 C 558.063 4.08364 1.14454 0
M  V30 6185 N 558.454 5.04656 0.339958 0
M  V30 6186 C 556.752 4.22757 1.421 0
M  V30 6187 C 557.453 5.81675 0.0538806 0
M  V30 6188 N 556.429 5.39739 0.646776 0
M  V30 6189 H 560.231 2.93733 -0.099135 0
M  V30 6190 H 557.745 1.61656 -0.15524 0
M  V30 6191 H 559.742 3.47284 2.30651 0
M  V30 6192 H 558.402 2.29629 2.29566 0
M  V30 6193 H 559.413 5.17896 -0.0193552 0
M  V30 6194 H 556.09 3.63704 2.05002 0
M  V30 6195 H 557.48 6.69256 -0.595443 0
M  V30 6196 N 560.2 0.0768682 1.57412 0
M  V30 6197 C 561.43 -0.5991 1.97723 0
M  V30 6198 C 561.838 -1.63378 0.954166 0
M  V30 6199 O 561.181 -1.83578 -0.0668706 0
M  V30 6200 C 561.243 -1.32078 3.34358 0
M  V30 6201 C 560.907 -0.438985 4.54887 0
M  V30 6202 C 561.904 0.305492 5.19002 0
M  V30 6203 C 559.589 -0.362378 5.00991 0
M  V30 6204 C 561.583 1.11475 6.27576 0
M  V30 6205 C 559.27 0.450543 6.09437 0
M  V30 6206 C 560.268 1.18777 6.72593 0
M  V30 6207 O 559.956 1.98727 7.7895 0
M  V30 6208 H 559.688 -0.166725 0.655117 0
M  V30 6209 H 562.242 0.147337 2.04871 0
M  V30 6210 H 560.472 -2.1134 3.2384 0
M  V30 6211 H 562.161 -1.88949 3.5924 0
M  V30 6212 H 562.927 0.25593 4.84324 0
M  V30 6213 H 558.806 -0.925832 4.51608 0
M  V30 6214 H 562.35 1.69068 6.76803 0
M  V30 6215 H 558.247 0.501651 6.43548 0
M  V30 6216 H 559.015 1.91214 7.95851 0
M  V30 6217 N 561.678 -1.56367 -0.196722 0
M  V30 6218 C 562.625 -1.94417 -1.24382 0
M  V30 6219 C 563.595 -0.804543 -1.45315 0
M  V30 6220 O 564.78 -1.06256 -1.58475 0
M  V30 6221 C 561.92 -2.28757 -2.58388 0
M  V30 6222 C 561.033 -3.55775 -2.45047 0
M  V30 6223 C 560.168 -3.79445 -3.71746 0
M  V30 6224 C 559.207 -4.99894 -3.53231 0
M  V30 6225 N 558.344 -5.19826 -4.71938 0
M  V30 6226 H 563.184 -2.83691 -0.912338 0
M  V30 6227 H 560.721 -1.40392 -0.439135 0
M  V30 6228 H 562.679 -2.46682 -3.36457 0
M  V30 6229 H 561.309 -1.42625 -2.89582 0
M  V30 6230 H 560.361 -3.45905 -1.58284 0
M  V30 6231 H 561.673 -4.44 -2.27299 0
M  V30 6232 H 560.827 -3.97601 -4.58256 0
M  V30 6233 H 559.566 -2.89546 -3.92446 0
M  V30 6234 H 558.571 -4.81662 -2.65107 0
M  V30 6235 H 559.796 -5.913 -3.33978 0
M  V30 6236 H 557.742 -4.32875 -4.92905 0
M  V30 6237 H 557.659 -6.02228 -4.57009 0
M  V30 6238 H 558.927 -5.42439 -5.59803 0
M  V30 6239 N 563.156 0.464375 -1.50603 0
M  V30 6240 C 564.384 1.23907 -1.65695 0
M  V30 6241 C 564.799 1.85658 -0.343027 0
M  V30 6242 O 564.156 1.69529 0.675739 0
M  V30 6243 C 564.207 2.3429 -2.75301 0
M  V30 6244 O 563.928 1.7507 -4.01599 0
M  V30 6245 C 565.429 3.25051 -3.01424 0
M  V30 6246 H 562.649 0.374485 -0.556778 0
M  V30 6247 H 565.193 0.55353 -1.96866 0
M  V30 6248 H 563.348 2.98607 -2.46804 0
M  V30 6249 H 563.762 2.47812 -4.62266 0
M  V30 6250 H 565.236 3.98699 -3.81763 0
M  V30 6251 H 565.713 3.84227 -2.12758 0
M  V30 6252 H 566.319 2.66463 -3.31477 0
M  V30 6253 N 564.634 1.40294 0.718013 0
M  V30 6254 C 565.862 1.4175 1.50714 0
M  V30 6255 C 566.277 0.0165366 1.88793 0
M  V30 6256 O 565.634 -0.958942 1.55276 0
M  V30 6257 C 565.685 2.30598 2.784 0
M  V30 6258 O 565.406 3.6524 2.41932 0
M  V30 6259 C 566.907 2.4062 3.72313 0
M  V30 6260 H 564.127 0.483565 0.465194 0
M  V30 6261 H 566.671 1.84316 0.885889 0
M  V30 6262 H 564.826 1.91401 3.36815 0
M  V30 6263 H 565.24 4.12402 3.24076 0
M  V30 6264 H 566.714 3.07001 4.58753 0
M  V30 6265 H 567.191 1.4305 4.15251 0
M  V30 6266 H 567.797 2.80359 3.19811 0
M  V30 6267 N 566.112 -0.949982 1.2575 0
M  V30 6268 C 567.523 -1.50989 1.09815 0
M  V30 6269 C 567.874 -1.93497 -0.324556 0
M  V30 6270 O 566.999 -1.79068 -1.21506 0
M  V30 6271 C 567.594 -2.74394 1.98729 0
M  V30 6272 C 566.153 -3.26682 1.86965 0
M  V30 6273 C 565.3 -1.99498 1.92603 0
M  V30 6274 H 568.251 -0.766387 1.38968 0
M  V30 6275 H 568.272 -3.48383 1.53001 0
M  V30 6276 H 567.784 -2.43425 3.02268 0
M  V30 6277 H 565.885 -3.62461 0.863279 0
M  V30 6278 H 565.998 -3.94383 2.72027 0
M  V30 6279 H 564.362 -2.15005 1.36546 0
M  V30 6280 H 565.145 -1.70871 2.97755 0
M  V30 6281 N 567.59 -1.07411 -1.15328 0
M  V30 6282 C 568.5 -0.706438 -2.23711 0
M  V30 6283 C 569.516 0.282586 -1.7169 0
M  V30 6284 O 570.692 0.129066 -2.00986 0
M  V30 6285 C 567.757 -0.11048 -3.46524 0
M  V30 6286 C 566.818 -1.15282 -4.13532 0
M  V30 6287 C 566.051 -0.585205 -5.30482 0
M  V30 6288 O 566.274 0.598549 -5.67251 0
M  V30 6289 O 565.208 -1.33039 -5.87013 0
M  V30 6290 H 569.034 -1.61031 -2.57493 0
M  V30 6291 H 566.619 -0.847113 -1.23062 0
M  V30 6292 H 568.501 0.21957 -4.20828 0
M  V30 6293 H 567.176 0.766703 -3.14489 0
M  V30 6294 H 566.083 -1.53523 -3.41147 0
M  V30 6295 H 567.416 -2.00192 -4.49649 0
M  V30 6296 N 569.068 1.32177 -0.85831 0
M  V30 6297 C 570.031 2.27086 -0.310588 0
M  V30 6298 C 571.031 1.51751 0.531806 0
M  V30 6299 O 572.221 1.70794 0.34279 0
M  V30 6300 C 569.353 3.36266 0.560179 0
M  V30 6301 H 570.546 2.77045 -1.1483 0
M  V30 6302 H 568.099 1.42911 -0.632942 0
M  V30 6303 H 568.834 2.9158 1.41956 0
M  V30 6304 H 568.619 3.92077 -0.0428473 0
M  V30 6305 H 570.109 4.06974 0.936056 0
M  V30 6306 N 570.547 0.616602 1.45037 0
M  V30 6307 C 571.824 0.0469086 1.95544 0
M  V30 6308 C 572.204 -1.42345 1.55888 0
M  V30 6309 O 571.552 -2.13055 0.825824 0
M  V30 6310 C 571.762 0.254489 3.48071 0
M  V30 6311 C 573.11 0.140025 4.24369 0
M  V30 6312 O 574.134 0.185084 3.55719 0
M  V30 6313 O 572.993 0.0327034 5.4649 0
M  V30 6314 H 570.087 -0.0306051 0.826433 0
M  V30 6315 H 572.633 0.687293 1.55159 0
M  V30 6316 H 571.405 1.27532 3.69934 0
M  V30 6317 H 571.028 -0.42073 3.95368 0
M  V30 6318 N 572.025 -1.5352 0.356285 0
M  V30 6319 C 573.302 -1.93405 -0.292223 0
M  V30 6320 C 573.682 -1.28901 -1.67176 0
M  V30 6321 O 573.03 -0.444632 -2.24132 0
M  V30 6322 C 573.24 -3.47223 -0.35175 0
M  V30 6323 C 574.588 -4.20389 -0.596534 0
M  V30 6324 O 575.612 -3.53554 -0.433344 0
M  V30 6325 O 574.471 -5.3881 -0.913589 0
M  V30 6326 H 571.565 -0.808666 -0.173172 0
M  V30 6327 H 574.111 -1.64713 0.408391 0
M  V30 6328 H 572.883 -3.86423 0.615841 0
M  V30 6329 H 572.506 -3.8212 -1.09864 0
M  V30 6330 N 573.503 -0.0852151 -1.57369 0
M  V30 6331 C 574.749 0.575588 -1.95086 0
M  V30 6332 C 575.104 1.66402 -0.96582 0
M  V30 6333 O 574.397 1.91598 0.00978463 0
M  V30 6334 C 574.591 1.18482 -3.3719 0
M  V30 6335 C 574.42 0.156928 -4.49426 0
M  V30 6336 C 573.19 -0.263126 -5.04614 0
M  V30 6337 C 575.388 -0.611068 -5.10657 0
M  V30 6338 N 573.37 -1.28032 -6.00401 0
M  V30 6339 C 574.741 -1.48036 -6.02068 0
M  V30 6340 C 576.796 -0.665669 -4.9343 0
M  V30 6341 C 575.499 -2.39943 -6.781 0
M  V30 6342 C 577.525 -1.5723 -5.70116 0
M  V30 6343 C 576.887 -2.42924 -6.61186 0
M  V30 6344 H 572.986 0.181249 -0.760705 0
M  V30 6345 H 575.57 -0.165484 -1.93995 0
M  V30 6346 H 573.741 1.89575 -3.38992 0
M  V30 6347 H 575.473 1.80718 -3.62109 0
M  V30 6348 H 572.228 0.122664 -4.73441 0
M  V30 6349 H 572.652 -1.78682 -6.52994 0
M  V30 6350 H 577.294 -0.0173214 -4.22796 0
M  V30 6351 H 575.012 -3.05807 -7.48002 0
M  V30 6352 H 578.598 -1.61956 -5.58804 0
M  V30 6353 H 577.478 -3.1194 -7.19488 0
M  V30 6354 N 574.981 1.5647 0.188427 0
M  V30 6355 C 576.206 1.85486 0.927891 0
M  V30 6356 C 576.631 0.669575 1.75779 0
M  V30 6357 O 575.989 -0.381573 1.77239 0
M  V30 6358 C 576.037 3.12784 1.7944 0
M  V30 6359 O 575.141 2.93805 2.894 0
M  V30 6360 H 574.482 0.610585 0.260925 0
M  V30 6361 H 577.012 2.037 0.191729 0
M  V30 6362 H 577.022 3.43749 2.19774 0
M  V30 6363 H 575.697 3.98671 1.18468 0
M  V30 6364 H 574.274 2.74153 2.52774 0
M  V30 6365 N 576.459 -0.456382 1.50847 0
M  V30 6366 C 577.407 -1.57318 1.71329 0
M  V30 6367 C 578.401 -1.59187 0.579287 0
M  V30 6368 O 579.607 -1.6316 0.76018 0
M  V30 6369 H 575.982 -0.5223 0.541024 0
M  V30 6370 H 577.953 -1.3721 2.64983 0
M  V30 6371 C 576.702 -2.95142 1.83811 0
M  V30 6372 H 576.025 -2.94428 2.70467 0
M  V30 6373 H 577.465 -3.72702 2.02161 0
M  V30 6374 C 575.924 -3.31636 0.593224 0
M  V30 6375 O 576.454 -4.00852 -0.260898 0
M  V30 6376 N 574.66 -2.87205 0.442902 0
M  V30 6377 H 574.207 -2.31051 1.13901 0
M  V30 6378 H 574.165 -3.11986 -0.38884 0
M  V30 6379 N 577.937 -1.40673 -0.710563 0
M  V30 6380 C 579.348 -1.34975 -1.28991 0
M  V30 6381 C 579.699 -0.0256272 -1.96183 0
M  V30 6382 O 578.824 0.876339 -1.97862 0
M  V30 6383 C 579.419 -2.44467 -2.34567 0
M  V30 6384 C 577.978 -2.42213 -2.88114 0
M  V30 6385 C 577.125 -2.25085 -1.61963 0
M  V30 6386 H 580.076 -1.50406 -0.506343 0
M  V30 6387 H 580.097 -2.12663 -3.15523 0
M  V30 6388 H 579.609 -3.40825 -1.85634 0
M  V30 6389 H 577.71 -1.49568 -3.41263 0
M  V30 6390 H 577.823 -3.37983 -3.39565 0
M  V30 6391 H 576.187 -1.72691 -1.87216 0
M  V30 6392 H 576.97 -3.23449 -1.15047 0
M  V30 6393 N 579.415 0.9433 -1.26252 0
M  V30 6394 C 580.64 1.72898 -1.14547 0
M  V30 6395 C 581.065 1.85761 0.295743 0
M  V30 6396 O 580.423 1.3463 1.21427 0
M  V30 6397 C 580.471 3.11471 -1.8171 0
M  V30 6398 O 579.575 3.97336 -1.10445 0
M  V30 6399 H 578.916 0.530555 -0.399259 0
M  V30 6400 H 581.446 1.18159 -1.67032 0
M  V30 6401 H 581.456 3.61872 -1.88449 0
M  V30 6402 H 580.131 3.01425 -2.86558 0
M  V30 6403 H 578.708 3.55788 -1.11666 0
M  V30 6404 N 580.893 1.08022 1.14757 0
M  V30 6405 C 582.118 0.82895 1.90114 0
M  V30 6406 C 582.543 -0.612772 1.77839 0
M  V30 6407 O 581.901 -1.42895 1.11583 0
M  V30 6408 C 581.949 1.25062 3.38219 0
M  V30 6409 O 581.053 0.400119 4.10454 0
M  V30 6410 H 580.394 0.301412 0.591648 0
M  V30 6411 H 582.924 1.44062 1.45284 0
M  V30 6412 H 582.934 1.22977 3.89025 0
M  V30 6413 H 581.609 2.30067 3.46471 0
M  V30 6414 H 580.186 0.484052 3.69745 0
M  V30 6415 N 582.371 -1.3172 0.865308 0
M  V30 6416 C 583.281 -2.32394 0.320935 0
M  V30 6417 C 584.297 -1.64511 -0.566746 0
M  V30 6418 O 585.473 -1.95969 -0.464575 0
M  V30 6419 C 582.538 -3.43462 -0.472701 0
M  V30 6420 C 581.599 -4.27015 0.442385 0
M  V30 6421 C 580.832 -5.32779 -0.313469 0
M  V30 6422 O 581.055 -5.49158 -1.54214 0
M  V30 6423 O 579.989 -6.01015 0.326257 0
M  V30 6424 H 583.815 -2.80868 1.15528 0
M  V30 6425 H 581.4 -1.35535 0.628545 0
M  V30 6426 H 583.282 -4.11172 -0.922781 0
M  V30 6427 H 581.957 -2.97159 -1.28367 0
M  V30 6428 H 580.864 -3.62075 0.940866 0
M  V30 6429 H 582.197 -4.76871 1.21882 0
M  V30 6430 N 583.85 -0.624285 -1.44708 0
M  V30 6431 C 585.26 -0.2092 -1.85524 0
M  V30 6432 C 585.611 1.23783 -1.52225 0
M  V30 6433 O 584.736 1.94089 -0.956986 0
M  V30 6434 C 585.332 -0.372897 -3.36742 0
M  V30 6435 C 583.891 -0.012374 -3.76398 0
M  V30 6436 C 583.038 -0.68951 -2.68591 0
M  V30 6437 H 585.989 -0.829894 -1.35272 0
M  V30 6438 H 586.01 0.390134 -3.78495 0
M  V30 6439 H 585.522 -1.42615 -3.60947 0
M  V30 6440 H 583.623 1.03941 -3.57809 0
M  V30 6441 H 583.736 -0.417663 -4.77276 0
M  V30 6442 H 582.1 -0.125484 -2.54391 0
M  V30 6443 H 582.883 -1.74522 -2.9563 0
M  V30 6444 N 585.328 1.53329 -0.364422 0
M  V30 6445 C 586.744 1.59594 -0.0133165 0
M  V30 6446 C 586.944 1.37959 1.46865 0
M  V30 6447 O 586 1.18418 2.2301 0
M  V30 6448 C 587.313 2.97032 -0.468213 0
M  V30 6449 C 588.861 3.10138 -0.422334 0
M  V30 6450 C 589.336 4.49986 -0.853024 0
M  V30 6451 N 590.827 4.56098 -0.808037 0
M  V30 6452 C 591.562 5.62495 -1.11299 0
M  V30 6453 N 591.058 6.7665 -1.48717 0
M  V30 6454 N 592.851 5.52473 -1.03586 0
M  V30 6455 H 585.002 1.65644 -1.32951 0
M  V30 6456 H 587.265 0.77684 -0.543345 0
M  V30 6457 H 586.971 3.18 -1.5023 0
M  V30 6458 H 586.845 3.76918 0.145775 0
M  V30 6459 H 589.232 2.88881 0.602622 0
M  V30 6460 H 589.313 2.32263 -1.0718 0
M  V30 6461 H 588.957 4.7198 -1.87609 0
M  V30 6462 H 588.887 5.26289 -0.180819 0
M  V30 6463 H 591.378 3.74131 -0.532361 0
M  V30 6464 H 591.691 7.53776 -1.70415 0
M  V30 6465 H 590.036 6.78044 -1.52581 0
M  V30 6466 H 593.227 4.6217 -0.742736 0
M  V30 6467 H 593.4 6.35295 -1.27686 0
M  V30 6468 N 586.806 0.0935595 1.57322 0
M  V30 6469 C 588.083 -0.612692 1.85756 0
M  V30 6470 C 588.463 -1.86439 0.99013 0
M  V30 6471 O 587.811 -2.28416 0.0621362 0
M  V30 6472 C 588.021 -0.929547 3.36393 0
M  V30 6473 C 589.369 -1.29366 4.04413 0
M  V30 6474 O 590.393 -1.02061 3.41265 0
M  V30 6475 O 589.252 -1.80498 5.15832 0
M  V30 6476 H 586.346 -0.306444 0.768128 0
M  V30 6477 H 588.892 0.126141 1.69231 0
M  V30 6478 H 587.664 -0.0414766 3.91278 0
M  V30 6479 H 587.287 -1.72441 3.5826 0
M  V30 6480 N 588.284 -1.56567 -0.180126 0
M  V30 6481 C 589.247 -1.94852 -1.20686 0
M  V30 6482 C 590.247 -0.831212 -1.3765 0
M  V30 6483 O 591.437 -1.09841 -1.35206 0
M  V30 6484 C 588.569 -2.23565 -2.57355 0
M  V30 6485 H 589.762 -2.86722 -0.879225 0
M  V30 6486 H 587.315 -1.50489 -0.422237 0
M  V30 6487 H 588.05 -1.34381 -2.95148 0
M  V30 6488 H 587.835 -3.04999 -2.46411 0
M  V30 6489 H 589.325 -2.54137 -3.31367 0
M  V30 6490 N 589.762 0.448376 -1.51087 0
M  V30 6491 C 590.987 1.22605 -1.6728 0
M  V30 6492 C 591.412 1.84524 -0.365045 0
M  V30 6493 O 590.77 1.6832 0.673642 0
M  V30 6494 C 590.818 2.29393 -2.78229 0
M  V30 6495 O 589.922 3.34608 -2.41063 0
M  V30 6496 H 589.263 0.359705 -0.558129 0
M  V30 6497 H 591.793 0.530903 -1.97592 0
M  V30 6498 H 591.803 2.74352 -3.01986 0
M  V30 6499 H 590.478 1.83701 -3.73131 0
M  V30 6500 H 589.055 2.95202 -2.27838 0
M  V30 6501 N 591.24 1.41047 0.703093 0
M  V30 6502 C 592.187 1.42302 1.81711 0
M  V30 6503 C 593.157 0.278336 1.63751 0
M  V30 6504 O 594.342 0.478266 1.84709 0
M  V30 6505 C 591.482 1.30362 3.19531 0
M  V30 6506 C 590.595 2.54638 3.48975 0
M  V30 6507 C 589.73 2.35047 4.76368 0
M  V30 6508 C 588.769 3.54837 4.98756 0
M  V30 6509 N 587.906 3.34363 6.1737 0
M  V30 6510 H 592.746 2.37516 1.79973 0
M  V30 6511 H 590.283 1.1795 0.878983 0
M  V30 6512 H 592.241 1.21443 3.99134 0
M  V30 6513 H 590.871 0.387602 3.20464 0
M  V30 6514 H 589.923 2.74037 2.63833 0
M  V30 6515 H 591.235 3.43766 3.61423 0
M  V30 6516 H 590.389 2.23552 5.64012 0
M  V30 6517 H 589.128 1.43363 4.66153 0
M  V30 6518 H 588.133 3.66795 4.09563 0
M  V30 6519 H 589.358 4.47464 5.10835 0
M  V30 6520 H 587.304 2.45373 6.08382 0
M  V30 6521 H 587.221 4.17063 6.30551 0
M  V30 6522 H 588.489 3.26626 7.07768 0
M  V30 6523 N 592.718 -0.936591 1.26751 0
M  V30 6524 C 593.948 -1.71509 1.15188 0
M  V30 6525 C 594.356 -1.86885 -0.295037 0
M  V30 6526 O 593.699 -1.37915 -1.21347 0
M  V30 6527 C 593.761 -3.13853 1.75318 0
M  V30 6528 C 593.425 -3.21845 3.24445 0
M  V30 6529 C 594.422 -3.04771 4.21201 0
M  V30 6530 C 592.107 -3.45088 3.64992 0
M  V30 6531 C 594.101 -3.10816 5.56482 0
M  V30 6532 C 591.788 -3.50767 5.00405 0
M  V30 6533 C 592.786 -3.33648 5.9596 0
M  V30 6534 O 592.474 -3.39045 7.28906 0
M  V30 6535 H 592.206 -0.543658 0.401761 0
M  V30 6536 H 594.76 -1.18234 1.67958 0
M  V30 6537 H 592.99 -3.6857 1.17016 0
M  V30 6538 H 594.679 -3.73634 1.58596 0
M  V30 6539 H 595.445 -2.86665 3.91214 0
M  V30 6540 H 591.324 -3.57467 2.91098 0
M  V30 6541 H 594.868 -2.97372 6.31043 0
M  V30 6542 H 590.765 -3.68396 5.30052 0
M  V30 6543 H 591.533 -3.55558 7.37238 0
M  V30 6544 N 594.196 -1.08629 -1.14182 0
M  V30 6545 C 595.143 -0.718299 -2.19338 0
M  V30 6546 C 596.113 0.296587 -1.63431 0
M  V30 6547 O 597.298 0.180079 -1.89948 0
M  V30 6548 C 594.438 -0.136203 -3.44831 0
M  V30 6549 C 593.551 -1.20414 -4.14879 0
M  V30 6550 C 592.686 -0.585666 -5.27962 0
M  V30 6551 C 591.725 -1.63548 -5.89846 0
M  V30 6552 N 590.862 -1.03864 -6.94375 0
M  V30 6553 H 595.702 -1.61932 -2.50164 0
M  V30 6554 H 593.239 -0.80919 -1.22844 0
M  V30 6555 H 595.197 0.219021 -4.16625 0
M  V30 6556 H 593.827 0.728121 -3.14481 0
M  V30 6557 H 592.879 -1.67676 -3.41451 0
M  V30 6558 H 594.191 -1.99959 -4.56966 0
M  V30 6559 H 593.345 -0.178818 -6.06436 0
M  V30 6560 H 592.084 0.24142 -4.87102 0
M  V30 6561 H 591.089 -2.05197 -5.10073 0
M  V30 6562 H 592.314 -2.46509 -6.3278 0
M  V30 6563 H 590.26 -0.232687 -6.55587 0
M  V30 6564 H 590.177 -1.77116 -7.3496 0
M  V30 6565 H 591.445 -0.657724 -7.7672 0
M  V30 6566 N 595.674 1.31259 -0.872281 0
M  V30 6567 C 596.637 2.26744 -0.334656 0
M  V30 6568 C 597.637 1.52307 0.515681 0
M  V30 6569 O 598.827 1.71148 0.324656 0
M  V30 6570 C 595.959 3.36841 0.524482 0
M  V30 6571 H 597.152 2.75812 -1.17762 0
M  V30 6572 H 594.705 1.42232 -0.648064 0
M  V30 6573 H 595.44 2.93069 1.38855 0
M  V30 6574 H 595.225 3.92009 -0.0844299 0
M  V30 6575 H 596.715 4.07944 0.892838 0
M  V30 6576 N 597.152 0.631951 1.44375 0
M  V30 6577 C 598.099 -0.0724807 2.30686 0
M  V30 6578 C 599.069 -0.835975 1.43529 0
M  V30 6579 O 600.254 -0.816849 1.7243 0
M  V30 6580 C 597.394 -1.04753 3.28817 0
M  V30 6581 C 596.507 -0.282367 4.31076 0
M  V30 6582 C 595.642 -1.2493 5.163 0
M  V30 6583 C 594.681 -0.473349 6.10267 0
M  V30 6584 N 593.818 -1.39079 6.88187 0
M  V30 6585 H 598.658 0.669477 2.90383 0
M  V30 6586 H 596.195 0.341927 1.43071 0
M  V30 6587 H 598.153 -1.62623 3.842 0
M  V30 6588 H 596.783 -1.75661 2.70819 0
M  V30 6589 H 595.835 0.412268 3.78159 0
M  V30 6590 H 597.147 0.321955 4.9776 0
M  V30 6591 H 596.301 -1.89931 5.76204 0
M  V30 6592 H 595.04 -1.88755 4.49692 0
M  V30 6593 H 594.045 0.190142 5.49471 0
M  V30 6594 H 595.27 0.16019 6.78911 0
M  V30 6595 H 593.216 -2.01623 6.24247 0
M  V30 6596 H 593.133 -0.840513 7.51313 0
M  V30 6597 H 594.401 -2.02961 7.52613 0
M  V30 6598 N 598.631 -1.53133 0.372548 0
M  V30 6599 C 599.563 -2.23557 -0.505444 0
M  V30 6600 C 600.576 -1.25211 -1.04049 0
M  V30 6601 O 601.765 -1.51391 -0.945675 0
M  V30 6602 C 598.865 -2.92516 -1.71136 0
M  V30 6603 C 598.038 -4.17428 -1.30661 0
M  V30 6604 C 597.097 -4.69535 -2.37536 0
M  V30 6605 O 596.123 -5.33042 -1.99637 0
M  V30 6606 N 597.325 -4.47947 -3.6922 0
M  V30 6607 H 600.09 -2.9954 0.0978259 0
M  V30 6608 H 597.651 -1.60684 0.198068 0
M  V30 6609 H 599.643 -3.24281 -2.42124 0
M  V30 6610 H 598.213 -2.19944 -2.22134 0
M  V30 6611 H 597.433 -3.91888 -0.426292 0
M  V30 6612 H 598.721 -4.98622 -1.01259 0
M  V30 6613 H 598.119 -3.97219 -4.02783 0
M  V30 6614 H 596.676 -4.84245 -4.36292 0
M  V30 6615 O 600.148 -0.242051 -1.59676 0
M  V30 6616 H 600.839 0.334494 -1.9079 0
M  V30 END ATOM
M  V30 BEGIN BOND
M  V30 END BOND
M  V30 END CTAB
M  END
$$$$
