drugbank_target|P80188 Neutrophil gelatinase-associated lipocalin (DB01631; DB01672; DB01926; DB02710; DB04043; DB04476)
 OpenBabel12092119473D

  0  0  0     0  0            999 V3000
M  V30 BEGIN CTAB
M  V30 COUNTS 3203 3244 0 0 0
M  V30 BEGIN ATOM
M  V30 1 H -0.908 1.98254 -0.117106 0
M  V30 2 N 0 1.576 0 0
M  V30 3 C 0.933 2.03868 1.02534 0
M  V30 4 C 1.911 0.928543 1.3348 0
M  V30 5 O 3.095 1.19667 1.45644 0
M  V30 6 C 0.222 2.43627 2.35294 0
M  V30 7 C -0.732 3.65373 2.2001 0
M  V30 8 S 0.101 5.13292 1.52614 0
M  V30 9 C 1.257 5.56322 2.86805 0
M  V30 10 H 1.49 2.90518 0.631377 0
M  V30 11 H -0.977 1.52953 0.210867 0
M  V30 12 H 0.981 2.67203 3.11629 0
M  V30 13 H -0.358 1.57376 2.7183 0
M  V30 14 H -1.165 3.90944 3.18086 0
M  V30 15 H -1.563 3.418 1.51819 0
M  V30 16 H 0.729 5.58782 3.83104 0
M  V30 17 H 1.672 6.56266 2.65933 0
M  V30 18 H 2.08 4.83886 2.90714 0
M  V30 19 N 1.4781 -0.272755 1.55222 0
M  V30 20 C 2.8891 -0.84378 1.66545 0
M  V30 21 C 3.2401 -1.87035 0.592641 0
M  V30 22 O 2.3651 -2.14761 -0.265818 0
M  V30 23 C 2.9601 -1.53723 3.01918 0
M  V30 24 C 1.5191 -2.05628 3.15268 0
M  V30 25 C 0.6661 -0.898424 2.62343 0
M  V30 26 H 3.6171 -0.0490998 1.58624 0
M  V30 27 H 3.6381 -2.40421 2.94921 0
M  V30 28 H 3.1501 -0.78983 3.79978 0
M  V30 29 H 1.2511 -2.83329 2.41983 0
M  V30 30 H 1.3641 -2.27142 4.21833 0
M  V30 31 H -0.2719 -1.29186 2.19506 0
M  V30 32 H 0.5111 -0.164528 3.42906 0
M  V30 33 N 2.9562 -1.48159 -0.537278 0
M  V30 34 C 3.8862 -1.65029 -1.6519 0
M  V30 35 C 4.8672 -0.499281 -1.62607 0
M  V30 36 O 6.0522 -0.730972 -1.79918 0
M  V30 37 C 3.1822 -1.68303 -3.03795 0
M  V30 38 C 2.1362 -2.8283 -3.21234 0
M  V30 39 C 1.4622 -2.71189 -4.60826 0
M  V30 40 C 2.7622 -4.24211 -3.04701 0
M  V30 41 H 4.4562 -2.58341 -1.51328 0
M  V30 42 H 2.0022 -1.24325 -0.726585 0
M  V30 43 H 3.9552 -1.78693 -3.81637 0
M  V30 44 H 2.6792 -0.715635 -3.18663 0
M  V30 45 H 1.3382 -2.71983 -2.45807 0
M  V30 46 H 0.9862 -1.72435 -4.7252 0
M  V30 47 H 0.6862 -3.48035 -4.7344 0
M  V30 48 H 2.2102 -2.83537 -5.40777 0
M  V30 49 H 3.6242 -4.3593 -3.72341 0
M  V30 50 H 2.0212 -5.01998 -3.28813 0
M  V30 51 H 3.0912 -4.41184 -2.01209 0
M  V30 52 N 4.4343 0.785586 -1.36625 0
M  V30 53 C 5.6823 1.54057 -1.30808 0
M  V30 54 C 6.0033 1.94683 0.111157 0
M  V30 55 O 5.2733 1.65241 1.05224 0
M  V30 56 H 3.8533 0.571354 -0.481211 0
M  V30 57 H 6.5153 0.935821 -1.70963 0
M  V30 58 H 5.6113 2.44637 -1.93801 0
M  V30 59 N 5.9124 1.20967 1.01018 0
M  V30 60 C 6.8424 0.988272 2.11555 0
M  V30 61 C 7.8234 -0.0849778 1.69888 0
M  V30 62 O 9.0084 0.0738202 1.9406 0
M  V30 63 C 6.1384 0.546528 3.42973 0
M  V30 64 C 5.0924 1.56375 3.9841 0
M  V30 65 C 4.4184 0.97842 5.25672 0
M  V30 66 C 5.7184 2.94922 4.31066 0
M  V30 67 H 7.4124 1.91276 2.30334 0
M  V30 68 H 4.9584 0.921073 1.1069 0
M  V30 69 H 6.9114 0.378839 4.19694 0
M  V30 70 H 5.6354 -0.413598 3.23971 0
M  V30 71 H 4.2944 1.71891 3.23804 0
M  V30 72 H 3.9424 0.0101688 5.02999 0
M  V30 73 H 3.6424 1.65784 5.63728 0
M  V30 74 H 5.1664 0.821939 6.05043 0
M  V30 75 H 6.5804 2.8288 4.9865 0
M  V30 76 H 4.9774 3.5983 4.80253 0
M  V30 77 H 6.0474 3.4616 3.39561 0
M  V30 78 N 7.3905 -1.2043 1.01659 0
M  V30 79 C 8.3205 -2.25466 0.607226 0
M  V30 80 C 9.3015 -1.65853 -0.377716 0
M  V30 81 O 10.4865 -1.92409 -0.263149 0
M  V30 82 C 7.6165 -3.47256 -0.0552949 0
M  V30 83 C 6.5705 -4.19462 0.850632 0
M  V30 84 C 5.8965 -5.34673 0.0538859 0
M  V30 85 C 7.1965 -4.75603 2.15868 0
M  V30 86 H 8.8905 -2.59962 1.48526 0
M  V30 87 H 6.4365 -1.2496 0.715605 0
M  V30 88 H 8.3895 -4.19917 -0.353233 0
M  V30 89 H 7.1135 -3.11924 -0.968045 0
M  V30 90 H 5.7725 -3.48667 1.13257 0
M  V30 91 H 5.4205 -4.95585 -0.860514 0
M  V30 92 H 5.1205 -5.83913 0.657192 0
M  V30 93 H 6.6445 -6.10138 -0.237598 0
M  V30 94 H 8.0585 -5.40083 1.92311 0
M  V30 95 H 6.4555 -5.3528 2.71284 0
M  V30 96 H 7.5255 -3.94346 2.82169 0
M  V30 97 N 8.8686 -0.792821 -1.36206 0
M  V30 98 C 10.1146 -0.376415 -1.99887 0
M  V30 99 C 10.4696 1.04127 -1.61788 0
M  V30 100 O 9.7626 1.71004 -0.864193 0
M  V30 101 C 9.9566 -0.481501 -3.54142 0
M  V30 102 C 9.7856 -1.90786 -4.07223 0
M  V30 103 C 8.5556 -2.53322 -4.37214 0
M  V30 104 C 10.7536 -2.87048 -4.26741 0
M  V30 105 N 8.7356 -3.8751 -4.7614 0
M  V30 106 C 10.1066 -4.06077 -4.6851 0
M  V30 107 C 12.1616 -2.8406 -4.08918 0
M  V30 108 C 10.8646 -5.22532 -4.94321 0
M  V30 109 C 12.8906 -3.99705 -4.35878 0
M  V30 110 C 12.2526 -5.1748 -4.77906 0
M  V30 111 H 8.3516 -0.185226 -0.759747 0
M  V30 112 H 10.9356 -1.03114 -1.65153 0
M  V30 113 H 9.1066 0.143154 -3.88136 0
M  V30 114 H 10.8386 -0.0410128 -4.04679 0
M  V30 115 H 7.5936 -2.04777 -4.2704 0
M  V30 116 H 8.0176 -4.5656 -4.99882 0
M  V30 117 H 12.6596 -1.94165 -3.75579 0
M  V30 118 H 10.3776 -6.1301 -5.2654 0
M  V30 119 H 13.9636 -3.98758 -4.23655 0
M  V30 120 H 12.8436 -6.05478 -4.98363 0
M  V30 121 N 10.3467 1.47872 -0.545128 0
M  V30 122 C 11.2767 2.32661 0.197793 0
M  V30 123 C 12.2577 1.43041 0.920504 0
M  V30 124 O 13.4427 1.71912 0.90333 0
M  V30 125 C 10.5727 3.24569 1.23582 0
M  V30 126 C 9.5267 4.23333 0.630323 0
M  V30 127 C 8.8527 5.0448 1.77211 0
M  V30 128 C 10.1527 5.20704 -0.407974 0
M  V30 129 H 11.8467 2.95024 -0.510045 0
M  V30 130 H 9.3927 1.4187 -0.246731 0
M  V30 131 H 11.3457 3.8272 1.76362 0
M  V30 132 H 10.0697 2.60236 1.97344 0
M  V30 133 H 8.7287 3.6639 0.123922 0
M  V30 134 H 8.3767 4.36561 2.49847 0
M  V30 135 H 8.0767 5.71339 1.37281 0
M  V30 136 H 9.6007 5.65487 2.3034 0
M  V30 137 H 11.0147 5.7329 0.033305 0
M  V30 138 H 9.4117 5.95699 -0.725486 0
M  V30 139 H 10.4817 4.66917 -1.30828 0
M  V30 140 N 11.8248 0.280983 1.55075 0
M  V30 141 C 13.0728 -0.333455 1.9933 0
M  V30 142 C 13.3938 -1.55937 1.17085 0
M  V30 143 O 12.6638 -1.94143 0.261805 0
M  V30 144 H 11.2438 -0.126197 0.736263 0
M  V30 145 H 13.9058 0.387678 1.91005 0
M  V30 146 H 13.0018 -0.619292 3.05894 0
M  V30 147 N 13.3029 -1.57598 0.00835791 0
M  V30 148 C 14.2329 -2.1198 -0.979113 0
M  V30 149 C 15.2139 -1.03091 -1.35301 0
M  V30 150 O 16.3989 -1.30818 -1.43528 0
M  V30 151 C 13.5289 -2.62995 -2.26828 0
M  V30 152 C 12.4829 -3.76485 -2.03576 0
M  V30 153 C 11.8089 -4.13846 -3.38579 0
M  V30 154 C 13.1089 -5.0342 -1.39161 0
M  V30 155 H 14.8029 -2.94738 -0.526281 0
M  V30 156 H 12.3489 -1.41783 -0.251704 0
M  V30 157 H 14.3019 -2.99669 -2.96271 0
M  V30 158 H 13.0259 -1.7737 -2.7424 0
M  V30 159 H 11.6849 -3.40217 -1.36557 0
M  V30 160 H 11.3329 -3.25232 -3.83709 0
M  V30 161 H 11.0329 -4.90312 -3.23834 0
M  V30 162 H 12.5569 -4.53086 -4.09323 0
M  V30 163 H 13.9709 -5.37812 -1.98573 0
M  V30 164 H 12.3679 -5.84746 -1.34878 0
M  V30 165 H 13.4379 -4.83548 -0.361868 0
M  V30 166 N 14.781 0.264519 -1.55364 0
M  V30 167 C 15.744 1.31046 -1.88042 0
M  V30 168 C 16.744 1.41943 -0.755569 0
M  V30 169 O 17.934 1.40947 -1.02369 0
M  V30 170 C 15.066 2.69067 -2.09323 0
M  V30 171 H 16.259 1.03297 -2.81549 0
M  V30 172 H 13.812 0.502989 -1.47986 0
M  V30 173 H 14.547 3.01982 -1.18226 0
M  V30 174 H 14.332 2.62542 -2.91229 0
M  V30 175 H 15.822 3.44623 -2.35848 0
M  V30 176 N 16.2591 1.48442 0.529413 0
M  V30 177 C 17.1891 1.65902 1.64313 0
M  V30 178 C 18.1701 0.507897 1.6234 0
M  V30 179 O 19.3551 0.740503 1.79528 0
M  V30 180 C 16.4851 1.69911 3.02898 0
M  V30 181 C 15.4391 2.8453 3.19729 0
M  V30 182 C 14.7651 2.73629 4.59381 0
M  V30 183 C 16.0651 4.25821 3.02447 0
M  V30 184 H 17.7591 2.5914 1.49955 0
M  V30 185 H 15.3051 1.24709 0.719982 0
M  V30 186 H 17.2581 1.80715 3.80684 0
M  V30 187 H 15.9821 0.732524 3.18279 0
M  V30 188 H 14.6411 2.73283 2.44361 0
M  V30 189 H 14.2891 1.74938 4.71599 0
M  V30 190 H 13.9891 3.50541 4.71588 0
M  V30 191 H 15.5131 2.86401 5.39265 0
M  V30 192 H 16.9271 4.37898 3.70024 0
M  V30 193 H 15.3241 5.03735 3.26146 0
M  V30 194 H 16.3941 4.42244 1.98867 0
M  V30 195 N 17.7372 -0.778329 1.37039 0
M  V30 196 C 18.6672 -1.90546 1.34962 0
M  V30 197 C 19.6482 -1.68681 0.219274 0
M  V30 198 O 20.8332 -1.89634 0.418624 0
M  V30 199 C 17.9632 -3.27734 1.14925 0
M  V30 200 C 16.9172 -3.64147 2.24902 0
M  V30 201 C 16.2432 -4.99806 1.89996 0
M  V30 202 C 17.5432 -3.71579 3.67051 0
M  V30 203 H 19.2372 -1.92541 2.29277 0
M  V30 204 H 16.7832 -0.924948 1.10366 0
M  V30 205 H 18.7362 -4.06215 1.12104 0
M  V30 206 H 17.4602 -3.26154 0.170631 0
M  V30 207 H 16.1192 -2.8797 2.26868 0
M  V30 208 H 15.7672 -4.94759 0.906796 0
M  V30 209 H 15.4672 -5.25139 2.63634 0
M  V30 210 H 16.9912 -5.80694 1.88749 0
M  V30 211 H 18.4052 -4.40227 3.67251 0
M  V30 212 H 16.8022 -4.08405 4.39688 0
M  V30 213 H 17.8722 -2.72404 4.01154 0
M  V30 214 N 19.2153 -1.21501 -1.00376 0
M  V30 215 C 20.4633 -1.03095 -1.73827 0
M  V30 216 C 20.7843 0.436341 -1.90055 0
M  V30 217 O 20.0543 1.31466 -1.45236 0
M  V30 218 H 18.6343 -0.378487 -0.644016 0
M  V30 219 H 21.2963 -1.52831 -1.20949 0
M  V30 220 H 20.3923 -1.49991 -2.73695 0
M  V30 221 N 20.6934 1.19889 -1.02296 0
M  V30 222 C 21.6564 2.21116 -0.603351 0
M  V30 223 C 22.6564 1.5738 0.329884 0
M  V30 224 O 23.8464 1.73802 0.117702 0
M  V30 225 C 20.9784 3.40696 0.117992 0
M  V30 226 H 22.1714 2.59754 -1.49893 0
M  V30 227 H 19.7244 1.33463 -0.813468 0
M  V30 228 H 20.4594 3.07569 1.0282 0
M  V30 229 H 20.2444 3.88188 -0.552511 0
M  V30 230 H 21.7344 4.15692 0.398696 0
M  V30 231 N 22.1715 0.800033 1.35784 0
M  V30 232 C 23.1015 0.220184 2.3246 0
M  V30 233 C 24.0825 -0.65073 1.57161 0
M  V30 234 O 25.2675 -0.582359 1.85263 0
M  V30 235 C 22.3975 -0.637353 3.41402 0
M  V30 236 C 21.3515 0.134531 4.27789 0
M  V30 237 C 20.6775 -0.844285 5.27992 0
M  V30 238 C 21.9775 1.32979 5.05088 0
M  V30 239 H 23.6715 1.02787 2.81203 0
M  V30 240 H 21.2175 0.495717 1.35199 0
M  V30 241 H 23.1705 -1.05302 4.08031 0
M  V30 242 H 21.8945 -1.47785 2.91251 0
M  V30 243 H 20.5535 0.531296 3.6273 0
M  V30 244 H 20.2015 -1.68011 4.74111 0
M  V30 245 H 19.9015 -0.332184 5.8666 0
M  V30 246 H 21.4255 -1.2583 5.97494 0
M  V30 247 H 22.8395 0.98934 5.64699 0
M  V30 248 H 21.2365 1.77593 5.7322 0
M  V30 249 H 22.3065 2.11978 4.36111 0
M  V30 250 N 23.6496 -1.47581 0.552962 0
M  V30 251 C 24.5996 -2.26961 -0.217423 0
M  V30 252 C 25.5836 -1.34099 -0.889168 0
M  V30 253 O 26.7756 -1.58483 -0.788176 0
M  V30 254 C 23.9046 -3.19756 -1.24944 0
M  V30 255 C 22.9906 -4.20097 -0.581327 0
M  V30 256 N 23.3816 -5.04614 0.346171 0
M  V30 257 C 21.6796 -4.38099 -0.835767 0
M  V30 258 C 22.3806 -5.77052 0.733854 0
M  V30 259 N 21.3566 -5.43526 0.0896567 0
M  V30 260 H 25.1586 -2.89688 0.495761 0
M  V30 261 H 22.6726 -1.58068 0.372597 0
M  V30 262 H 24.6696 -3.75305 -1.81527 0
M  V30 263 H 23.3296 -2.58585 -1.96376 0
M  V30 264 H 24.3406 -5.12869 0.720098 0
M  V30 265 H 21.0176 -3.88102 -1.53892 0
M  V30 266 H 22.4076 -6.5504 1.49574 0
M  V30 267 N 25.1277 -0.289203 -1.54924 0
M  V30 268 C 26.0907 0.579144 -2.21762 0
M  V30 269 C 27.0907 1.07047 -1.1999 0
M  V30 270 O 28.2807 0.968384 -1.44803 0
M  V30 271 C 25.4127 1.80055 -2.8947 0
M  V30 272 H 26.6057 -0.00464908 -2.999 0
M  V30 273 H 24.1587 -0.0399306 -1.56249 0
M  V30 274 H 24.8937 2.42449 -2.15381 0
M  V30 275 H 24.6787 1.45602 -3.64064 0
M  V30 276 H 26.1687 2.41773 -3.40493 0
M  V30 277 N 26.6058 1.57591 -0.0167156 0
M  V30 278 C 27.5378 2.06343 0.997753 0
M  V30 279 C 28.5508 0.984469 1.29661 0
M  V30 280 O 29.7398 1.26093 1.26344 0
M  V30 281 C 26.8398 2.46255 2.32834 0
M  V30 282 C 26.0128 3.77083 2.21646 0
M  V30 283 C 25.0718 4.0368 3.37534 0
M  V30 284 O 24.0978 4.7411 3.14973 0
M  V30 285 N 25.2998 3.52881 4.60929 0
M  V30 286 H 28.0648 2.93997 0.581875 0
M  V30 287 H 25.6258 1.61002 0.170316 0
M  V30 288 H 27.6178 2.61149 3.09166 0
M  V30 289 H 26.1878 1.64032 2.66106 0
M  V30 290 H 25.4078 3.72106 1.30119 0
M  V30 291 H 26.6958 4.62822 2.11361 0
M  V30 292 H 26.0938 2.95878 4.82154 0
M  V30 293 H 24.6508 3.73076 5.34469 0
M  V30 294 N 28.0839 -0.256276 1.55502 0
M  V30 295 C 29.0469 -1.30047 1.88734 0
M  V30 296 C 30.0469 -1.4154 0.763086 0
M  V30 297 O 31.2369 -1.40403 1.03115 0
M  V30 298 C 28.3689 -2.67953 2.10747 0
M  V30 299 H 29.5619 -1.01802 2.82093 0
M  V30 300 H 27.1149 -0.495134 1.4825 0
M  V30 301 H 27.8499 -3.01351 1.19825 0
M  V30 302 H 27.6349 -2.60993 2.92617 0
M  V30 303 H 29.1249 -3.43368 2.37673 0
M  V30 304 N 29.562 -1.4872 -0.521534 0
M  V30 305 C 30.494 -1.59968 -1.64143 0
M  V30 306 C 31.507 -0.483463 -1.55456 0
M  V30 307 O 32.696 -0.75467 -1.61762 0
M  V30 308 C 29.796 -1.52127 -3.02838 0
M  V30 309 C 28.969 -2.78932 -3.36921 0
M  V30 310 C 28.028 -2.64428 -4.54933 0
M  V30 311 O 27.054 -3.38331 -4.57735 0
M  V30 312 N 28.256 -1.74606 -5.53618 0
M  V30 313 H 31.021 -2.56548 -1.54929 0
M  V30 314 H 28.582 -1.45551 -0.708988 0
M  V30 315 H 30.574 -1.40106 -3.79674 0
M  V30 316 H 29.144 -0.634868 -3.06085 0
M  V30 317 H 28.364 -3.05455 -2.4918 0
M  V30 318 H 29.652 -3.63041 -3.56481 0
M  V30 319 H 29.05 -1.13782 -5.54139 0
M  V30 320 H 27.607 -1.6852 -6.29638 0
M  V30 321 N 31.0401 0.771051 -1.3745 0
M  V30 322 C 32.3171 1.519 -1.23231 0
M  V30 323 C 32.6971 2.10383 0.173809 0
M  V30 324 O 32.0451 1.95583 1.18151 0
M  V30 325 C 32.2551 2.59933 -2.32886 0
M  V30 326 C 33.6031 3.27316 -2.70461 0
M  V30 327 O 34.6271 2.70228 -2.32068 0
M  V30 328 O 33.4861 4.30531 -3.36608 0
M  V30 329 H 30.5801 0.672803 -0.480901 0
M  V30 330 H 33.1261 0.807957 -1.49232 0
M  V30 331 H 31.8981 2.14842 -3.27045 0
M  V30 332 H 31.5211 3.38637 -2.08353 0
M  V30 333 N 32.5182 1.22032 0.997298 0
M  V30 334 C 33.7432 1.06921 1.77715 0
M  V30 335 C 34.1682 -0.376226 1.84299 0
M  V30 336 O 33.5262 -1.27165 1.29223 0
M  V30 337 C 33.5742 1.67996 3.19076 0
M  V30 338 O 32.6782 0.930653 4.01762 0
M  V30 339 H 32.0192 0.375814 0.547412 0
M  V30 340 H 34.5492 1.61737 1.25309 0
M  V30 341 H 34.5592 1.72538 3.69723 0
M  V30 342 H 33.2342 2.73182 3.13599 0
M  V30 343 H 31.8112 0.960917 3.60307 0
M  V30 344 N 33.9963 -1.19345 1.0293 0
M  V30 345 C 35.2243 -1.92997 0.745644 0
M  V30 346 C 35.6393 -1.75519 -0.695589 0
M  V30 347 O 34.9963 -1.07737 -1.47306 0
M  V30 348 C 35.0473 -3.44741 1.08792 0
M  V30 349 O 34.7683 -3.61658 2.47256 0
M  V30 350 C 36.2693 -4.35515 0.827129 0
M  V30 351 H 33.4893 -0.613042 0.272801 0
M  V30 352 H 36.0333 -1.51473 1.3739 0
M  V30 353 H 34.1883 -3.84097 0.504832 0
M  V30 354 H 34.6023 -4.55514 2.60015 0
M  V30 355 H 36.0763 -5.40589 1.11658 0
M  V30 356 H 36.5533 -4.38552 -0.238436 0
M  V30 357 H 37.1593 -4.01841 1.39297 0
M  V30 358 N 35.4744 -0.807222 -1.35358 0
M  V30 359 C 36.6994 -0.399309 -2.0352 0
M  V30 360 C 37.1244 0.981986 -1.60433 0
M  V30 361 O 36.4824 1.63601 -0.781299 0
M  V30 362 C 36.5304 -0.491552 -3.57234 0
M  V30 363 O 35.6344 0.494754 -4.09421 0
M  V30 364 H 34.9754 -0.166682 -0.642739 0
M  V30 365 H 37.5054 -1.09328 -1.72941 0
M  V30 366 H 37.5154 -0.361588 -4.06395 0
M  V30 367 H 36.1904 -1.49907 -3.87944 0
M  V30 368 H 34.7674 0.324977 -3.71481 0
M  V30 369 N 36.9525 1.47285 -0.560781 0
M  V30 370 C 38.2295 1.9558 0.0277798 0
M  V30 371 C 38.6095 1.5034 1.48192 0
M  V30 372 O 37.9575 0.743882 2.16052 0
M  V30 373 C 38.1675 3.48789 -0.121418 0
M  V30 374 C 39.5155 4.24594 0.0220912 0
M  V30 375 O 40.5395 3.56166 -0.0491439 0
M  V30 376 O 39.3985 5.46217 0.175958 0
M  V30 377 H 36.4925 0.824663 0.0621342 0
M  V30 378 H 39.0385 1.5767 -0.627556 0
M  V30 379 H 37.8105 3.74533 -1.13316 0
M  V30 380 H 37.4335 3.93473 0.571366 0
M  V30 381 N 38.4306 0.297415 1.54768 0
M  V30 382 C 39.3606 -0.573494 2.26348 0
M  V30 383 C 40.3416 -1.14085 1.26169 0
M  V30 384 O 41.5266 -1.17086 1.54934 0
M  V30 385 C 38.6566 -1.74716 3.00153 0
M  V30 386 C 37.6106 -1.31032 4.07449 0
M  V30 387 C 36.9366 -2.56887 4.68949 0
M  V30 388 C 38.2366 -0.444183 5.20408 0
M  V30 389 H 39.9306 0.0235131 2.99391 0
M  V30 390 H 37.4766 0.0127488 1.43994 0
M  V30 391 H 39.4296 -2.3625 3.48947 0
M  V30 392 H 38.1536 -2.37035 2.24682 0
M  V30 393 H 36.8126 -0.718066 3.59499 0
M  V30 394 H 36.4606 -3.17512 3.90122 0
M  V30 395 H 36.1606 -2.2836 5.41411 0
M  V30 396 H 37.6846 -3.19229 5.20505 0
M  V30 397 H 39.0986 -0.9651 5.65118 0
M  V30 398 H 37.4956 -0.252846 5.99567 0
M  V30 399 H 38.5656 0.531609 4.81977 0
M  V30 400 N 39.9087 -1.5758 0.0250728 0
M  V30 401 C 41.1577 -1.90811 -0.653767 0
M  V30 402 C 41.4707 -0.90273 -1.73523 0
M  V30 403 O 42.6767 -1.12614 -2.47043 0
M  V30 404 C 41.1327 -3.38804 -1.21409 0
M  V30 405 C 40.7407 -4.47692 -0.166126 0
M  V30 406 C 42.4847 -3.81108 -1.86967 0
M  V30 407 C 40.3917 -5.86779 -0.737856 0
M  V30 408 H 39.3217 -0.712063 -0.247956 0
M  V30 409 H 41.9727 -1.83281 0.0897137 0
M  V30 410 H 40.3547 -3.41252 -2.00905 0
M  V30 411 H 41.5287 -4.56797 0.606079 0
M  V30 412 H 39.8437 -4.14565 0.390466 0
M  V30 413 H 42.4407 -4.82375 -2.30692 0
M  V30 414 H 42.7837 -3.15953 -2.71071 0
M  V30 415 H 43.3167 -3.81065 -1.14167 0
M  V30 416 H 40.0557 -6.55468 0.0649577 0
M  V30 417 H 39.5757 -5.81288 -1.47864 0
M  V30 418 H 41.2547 -6.35223 -1.22884 0
M  V30 419 N 41.3868 0.248026 -1.55636 0
M  V30 420 C 42.7978 0.817177 -1.67866 0
M  V30 421 C 43.1488 1.86069 -0.622322 0
M  V30 422 O 42.2738 2.15157 0.231618 0
M  V30 423 C 42.8688 1.489 -3.04326 0
M  V30 424 C 41.4278 2.00587 -3.185 0
M  V30 425 C 40.5748 0.856573 -2.63739 0
M  V30 426 H 43.5258 0.0238579 -1.58682 0
M  V30 427 H 43.5468 2.35698 -2.98708 0
M  V30 428 H 43.0588 0.729279 -3.81186 0
M  V30 429 H 41.1598 2.79443 -2.4646 0
M  V30 430 H 41.2728 2.20402 -4.25393 0
M  V30 431 H 39.6368 1.25678 -2.21534 0
M  V30 432 H 40.4198 0.109953 -3.43124 0
M  V30 433 N 42.8649 1.48995 0.513639 0
M  V30 434 C 43.8279 1.64229 1.59879 0
M  V30 435 C 44.8279 0.514696 1.5234 0
M  V30 436 O 46.0179 0.78087 1.55718 0
M  V30 437 C 43.1499 1.62783 2.99524 0
M  V30 438 H 44.3429 2.61004 1.47705 0
M  V30 439 H 41.8959 1.37837 0.736936 0
M  V30 440 H 42.6309 0.675461 3.17188 0
M  V30 441 H 42.4159 2.4466 3.06404 0
M  V30 442 H 43.9059 1.76669 3.78388 0
M  V30 443 N 44.343 -0.763751 1.37857 0
M  V30 444 C 45.754 -1.3405 1.29952 0
M  V30 445 C 46.105 -1.96138 -0.0492898 0
M  V30 446 O 45.23 -1.94372 -0.951239 0
M  V30 447 C 45.825 -2.43729 2.35333 0
M  V30 448 C 44.384 -2.97151 2.31037 0
M  V30 449 C 43.531 -1.70438 2.18738 0
M  V30 450 H 46.482 -0.563396 1.48363 0
M  V30 451 H 46.503 -3.23412 2.00462 0
M  V30 452 H 46.015 -1.9851 3.33489 0
M  V30 453 H 44.116 -3.46724 1.3643 0
M  V30 454 H 44.229 -3.52221 3.24772 0
M  V30 455 H 42.593 -1.93673 1.65418 0
M  V30 456 H 43.376 -1.27312 3.18821 0
M  V30 457 N 45.8211 -1.22559 -0.990812 0
M  V30 458 C 47.2321 -1.04791 -1.54518 0
M  V30 459 C 47.5831 0.387998 -1.92325 0
M  V30 460 O 46.7081 1.27328 -1.74976 0
M  V30 461 C 47.3031 -1.896 -2.80779 0
M  V30 462 C 45.8621 -1.76124 -3.32652 0
M  V30 463 C 45.0091 -1.8594 -2.05722 0
M  V30 464 H 47.9601 -1.36374 -0.811662 0
M  V30 465 H 47.9811 -1.41464 -3.53225 0
M  V30 466 H 47.4931 -2.94101 -2.53231 0
M  V30 467 H 45.5941 -0.743643 -3.65104 0
M  V30 468 H 45.7071 -2.58913 -4.03114 0
M  V30 469 H 44.0711 -1.29403 -2.19379 0
M  V30 470 H 44.8541 -2.91976 -1.80568 0
M  V30 471 N 47.2992 1.18797 -1.03562 0
M  V30 472 C 48.2292 2.24472 -0.643019 0
M  V30 473 C 49.2102 1.66433 0.351283 0
M  V30 474 O 50.3952 1.92803 0.232505 0
M  V30 475 C 47.5252 3.473 4.24935e-05 0
M  V30 476 C 46.4792 4.18055 -0.917257 0
M  V30 477 C 45.8052 5.34519 -0.138941 0
M  V30 478 C 47.1052 4.72109 -2.23407 0
M  V30 479 H 48.7992 2.57566 -1.52643 0
M  V30 480 H 46.3452 1.23806 -0.735394 0
M  V30 481 H 48.2982 4.20426 0.286383 0
M  V30 482 H 47.0222 3.13424 0.918299 0
M  V30 483 H 45.6812 3.46821 -1.1879 0
M  V30 484 H 45.3292 4.96891 0.781562 0
M  V30 485 H 45.0292 5.82794 -0.750005 0
M  V30 486 H 46.5532 6.10438 0.1405 0
M  V30 487 H 47.9672 5.36955 -2.00879 0
M  V30 488 H 46.3642 5.30897 -2.79765 0
M  V30 489 H 47.4342 3.89807 -2.88407 0
M  V30 490 N 48.7773 0.814389 1.34928 0
M  V30 491 C 50.0023 0.410097 2.03305 0
M  V30 492 C 50.4273 -0.973464 1.60951 0
M  V30 493 O 49.7853 -1.63185 0.789964 0
M  V30 494 C 49.8333 0.51049 3.56968 0
M  V30 495 O 48.9373 -0.473035 4.09678 0
M  V30 496 H 48.2783 0.170088 0.641846 0
M  V30 497 H 50.8083 1.10244 1.72358 0
M  V30 498 H 50.8183 0.383135 4.06197 0
M  V30 499 H 49.4933 1.51963 3.87144 0
M  V30 500 H 48.0703 -0.305272 3.71648 0
M  V30 501 N 50.2554 -1.46986 0.568584 0
M  V30 502 C 51.2024 -2.30153 -0.172707 0
M  V30 503 C 52.1724 -1.39759 -0.897586 0
M  V30 504 O 53.3574 -1.68716 -0.891044 0
M  V30 505 C 50.4974 -3.23952 -1.1895 0
M  V30 506 C 49.6104 -4.29441 -0.469517 0
M  V30 507 C 48.7454 -5.1038 -1.47259 0
M  V30 508 C 47.7844 -6.07632 -0.738225 0
M  V30 509 N 46.9214 -6.8149 -1.68868 0
M  V30 510 H 51.7614 -2.93019 0.542596 0
M  V30 511 H 49.2984 -1.44422 0.279401 0
M  V30 512 H 51.2564 -3.76767 -1.79173 0
M  V30 513 H 49.8864 -2.62926 -1.87269 0
M  V30 514 H 48.9384 -3.79594 0.247467 0
M  V30 515 H 50.2504 -4.98689 0.105241 0
M  V30 516 H 49.4044 -5.67402 -2.14803 0
M  V30 517 H 48.1434 -4.4106 -2.08128 0
M  V30 518 H 47.1484 -5.49778 -0.0489293 0
M  V30 519 H 48.3734 -6.78966 -0.135129 0
M  V30 520 H 46.3194 -6.14891 -2.28573 0
M  V30 521 H 46.2364 -7.46948 -1.16636 0
M  V30 522 H 47.5044 -7.43078 -2.3549 0
M  V30 523 N 51.7335 -0.305618 -1.54608 0
M  V30 524 C 52.9795 0.302746 -2.00528 0
M  V30 525 C 53.3125 1.53184 -1.19367 0
M  V30 526 O 52.5875 1.92598 -0.271321 0
M  V30 527 C 52.8705 0.654756 -3.54097 0
M  V30 528 C 52.7235 -0.583793 -4.45995 0
M  V30 529 C 54.0425 1.47947 -4.14487 0
M  V30 530 H 51.1615 0.108564 -0.72896 0
M  V30 531 H 53.8035 -0.418634 -1.85331 0
M  V30 532 H 51.9535 1.26935 -3.67178 0
M  V30 533 H 53.6255 -1.22224 -4.44814 0
M  V30 534 H 51.8685 -1.21615 -4.16404 0
M  V30 535 H 52.5395 -0.293287 -5.5122 0
M  V30 536 H 55.0155 0.96013 -4.04871 0
M  V30 537 H 53.8915 1.69454 -5.22088 0
M  V30 538 H 54.1525 2.47011 -3.66658 0
M  V30 539 N 53.2116 1.57565 -0.0334293 0
M  V30 540 C 54.6226 1.79746 0.504798 0
M  V30 541 C 54.9736 0.944091 1.71992 0
M  V30 542 O 54.0986 0.155694 2.15839 0
M  V30 543 C 54.6936 3.25997 0.922567 0
M  V30 544 C 53.2526 3.49159 1.40588 0
M  V30 545 C 52.3996 2.74785 0.372633 0
M  V30 546 H 55.3506 1.56565 -0.259436 0
M  V30 547 H 55.3716 3.35945 1.78666 0
M  V30 548 H 54.8836 3.88081 0.0379825 0
M  V30 549 H 52.9846 2.92332 2.31025 0
M  V30 550 H 53.0976 4.57873 1.41028 0
M  V30 551 H 51.4616 2.40391 0.841672 0
M  V30 552 H 52.2446 3.39587 -0.503559 0
M  V30 553 N 54.6897 -0.239769 1.55765 0
M  V30 554 C 55.6197 -1.30052 1.9393 0
M  V30 555 C 56.6007 -1.49839 0.805132 0
M  V30 556 O 57.7857 -1.62328 1.06599 0
M  V30 557 C 54.9157 -2.65391 2.2402 0
M  V30 558 C 53.8697 -2.60289 3.39755 0
M  V30 559 C 53.1957 -3.99489 3.55405 0
M  V30 560 C 54.4957 -2.16654 4.75246 0
M  V30 561 H 56.1897 -0.983573 2.82783 0
M  V30 562 H 53.7357 -0.471701 1.36055 0
M  V30 563 H 55.6887 -3.3974 2.49308 0
M  V30 564 H 54.4127 -2.98736 1.32 0
M  V30 565 H 53.0717 -1.88398 3.14487 0
M  V30 566 H 52.7197 -4.30112 2.60793 0
M  V30 567 H 52.4197 -3.96962 4.33238 0
M  V30 568 H 53.9437 -4.75528 3.83022 0
M  V30 569 H 55.3577 -2.80737 4.99859 0
M  V30 570 H 53.7547 -2.25223 5.56232 0
M  V30 571 H 54.8247 -1.11835 4.71827 0
M  V30 572 N 56.1678 -1.49265 -0.50573 0
M  V30 573 C 57.0998 -1.617 -1.62437 0
M  V30 574 C 58.1128 -0.499924 -1.54934 0
M  V30 575 O 59.3018 -0.771785 -1.60953 0
M  V30 576 C 56.4018 -1.5533 -3.01207 0
M  V30 577 C 55.5748 -2.8249 -3.33943 0
M  V30 578 C 54.6338 -2.69238 -4.52103 0
M  V30 579 O 53.6598 -3.43167 -4.5412 0
M  V30 580 N 54.8618 -1.80468 -5.51735 0
M  V30 581 H 57.6268 -2.58177 -1.52199 0
M  V30 582 H 55.1878 -1.46294 -0.693511 0
M  V30 583 H 57.1798 -1.44125 -3.78167 0
M  V30 584 H 55.7498 -0.667297 -3.05395 0
M  V30 585 H 54.9698 -3.08081 -2.45926 0
M  V30 586 H 56.2578 -3.66802 -3.5261 0
M  V30 587 H 55.6558 -1.19653 -5.52901 0
M  V30 588 H 54.2128 -1.75188 -6.27816 0
M  V30 589 N 57.6459 0.756429 -1.3826 0
M  V30 590 C 58.5779 1.87971 -1.31147 0
M  V30 591 C 59.5909 1.61248 -0.224239 0
M  V30 592 O 60.7799 1.71881 -0.481581 0
M  V30 593 C 57.8799 3.23545 -1.00857 0
M  V30 594 C 57.0529 3.77794 -2.20432 0
M  V30 595 C 56.1119 4.91877 -1.86931 0
M  V30 596 O 55.1379 5.06659 -2.59395 0
M  V30 597 N 56.3399 5.74643 -0.822568 0
M  V30 598 H 59.1049 1.94585 -2.2794 0
M  V30 599 H 56.6659 0.936234 -1.32084 0
M  V30 600 H 58.6579 3.97403 -0.765021 0
M  V30 601 H 57.2279 3.12335 -0.128687 0
M  V30 602 H 56.4479 2.95534 -2.6087 0
M  V30 603 H 57.7359 4.10771 -3.00241 0
M  V30 604 H 57.1339 5.65266 -0.221575 0
M  V30 605 H 55.6909 6.48661 -0.638899 0
M  V30 606 N 59.124 1.23083 0.984299 0
M  V30 607 C 60.072 1.00593 2.09723 0
M  V30 608 C 61.066 -0.0538014 1.69315 0
M  V30 609 O 62.272 0.0993719 1.79725 0
M  V30 610 H 58.647 0.30817 0.685956 0
M  V30 611 H 60.618 1.95012 2.2586 0
M  V30 612 C 59.367 0.609601 3.42314 0
M  V30 613 H 58.69 1.41675 3.73856 0
M  V30 614 H 60.13 0.491726 4.21139 0
M  V30 615 C 58.589 -0.681745 3.2993 0
M  V30 616 O 59.119 -1.73192 3.62446 0
M  V30 617 N 57.325 -0.656178 2.83095 0
M  V30 618 H 56.872 0.198759 2.56832 0
M  V30 619 H 56.83 -1.52044 2.75191 0
M  V30 620 N 60.6021 -1.18246 1.0419 0
M  V30 621 C 61.8491 -1.88257 0.746017 0
M  V30 622 C 62.1771 -1.80429 -0.726331 0
M  V30 623 O 61.4321 -1.2 -1.54591 0
M  V30 624 C 61.7311 -3.38082 1.15911 0
M  V30 625 C 61.3971 -3.66114 2.63195 0
M  V30 626 C 60.0591 -3.73474 3.03432 0
M  V30 627 C 62.4111 -3.78398 3.5842 0
M  V30 628 C 59.7391 -3.90599 4.37778 0
M  V30 629 C 62.0911 -3.97039 4.92487 0
M  V30 630 C 60.7551 -4.02635 5.32392 0
M  V30 631 H 60.0251 -0.688883 0.272987 0
M  V30 632 H 62.6721 -1.3995 1.30715 0
M  V30 633 H 60.9771 -3.88377 0.516806 0
M  V30 634 H 62.6741 -3.90596 0.907516 0
M  V30 635 H 59.2641 -3.61003 2.3103 0
M  V30 636 H 63.4481 -3.72042 3.28479 0
M  V30 637 H 58.7041 -3.93175 4.68213 0
M  V30 638 H 62.8781 -4.05486 5.66175 0
M  V30 639 H 60.5051 -4.15657 6.36501 0
M  V30 640 N 62.0802 -0.821533 -1.34494 0
M  V30 641 C 63.0122 -0.199946 -2.28326 0
M  V30 642 C 64.0252 0.609377 -1.50965 0
M  V30 643 O 65.2142 0.439285 -1.7301 0
M  V30 644 C 62.3142 0.738431 -3.30757 0
M  V30 645 C 61.4872 -0.0277632 -4.37391 0
M  V30 646 C 60.5462 0.831332 -5.19591 0
M  V30 647 O 59.5722 0.276822 -5.68526 0
M  V30 648 N 60.7742 2.15132 -5.39165 0
M  V30 649 H 63.5392 -1.00609 -2.82308 0
M  V30 650 H 61.1002 -0.678366 -1.47003 0
M  V30 651 H 63.0922 1.31773 -3.82646 0
M  V30 652 H 61.6622 1.44533 -2.7718 0
M  V30 653 H 60.8822 -0.788359 -3.86236 0
M  V30 654 H 62.1702 -0.555251 -5.05761 0
M  V30 655 H 61.5682 2.62559 -5.01078 0
M  V30 656 H 60.1252 2.6795 -5.94177 0
M  V30 657 N 63.5583 1.46682 -0.576371 0
M  V30 658 C 64.8353 1.95599 0.00703437 0
M  V30 659 C 65.2153 1.51904 1.46589 0
M  V30 660 O 64.5633 0.766755 2.15251 0
M  V30 661 C 64.7733 3.4864 -0.158404 0
M  V30 662 C 66.1213 4.24594 -0.0229439 0
M  V30 663 O 67.1453 3.56094 -0.0869173 0
M  V30 664 O 66.0043 5.46373 0.118015 0
M  V30 665 H 63.0983 0.825275 0.053384 0
M  V30 666 H 65.6443 1.56996 -0.644244 0
M  V30 667 H 64.4163 3.7331 -1.17282 0
M  V30 668 H 64.0393 3.94057 0.5296 0
M  V30 669 N 65.0364 0.313813 1.54444 0
M  V30 670 C 65.9844 -0.572171 2.25453 0
M  V30 671 C 66.9784 -1.12657 1.2651 0
M  V30 672 O 68.1844 -1.07573 1.44319 0
M  V30 673 H 64.5594 -0.203146 0.724041 0
M  V30 674 H 66.5304 0.0491145 2.9836 0
M  V30 675 C 65.2794 -1.72626 3.0182 0
M  V30 676 H 64.6024 -1.30891 3.77767 0
M  V30 677 H 66.0424 -2.32199 3.54767 0
M  V30 678 C 64.5014 -2.63806 2.09542 0
M  V30 679 O 65.0314 -3.65256 1.67185 0
M  V30 680 N 63.2374 -2.31824 1.75232 0
M  V30 681 H 62.7844 -1.49368 2.09873 0
M  V30 682 H 62.7424 -2.93095 1.13767 0
M  V30 683 N 66.5145 -1.57545 0.0417849 0
M  V30 684 C 67.4465 -2.07904 -0.964799 0
M  V30 685 C 68.4595 -1.00497 -1.28079 0
M  V30 686 O 69.6485 -1.28087 -1.24322 0
M  V30 687 C 66.7485 -2.49928 -2.28887 0
M  V30 688 C 65.9215 -3.80562 -2.15619 0
M  V30 689 C 64.9805 -4.08999 -3.31069 0
M  V30 690 O 64.0065 -4.79061 -3.0739 0
M  V30 691 N 65.2085 -3.6017 -4.55256 0
M  V30 692 H 67.9735 -2.94886 -0.535029 0
M  V30 693 H 65.5345 -1.61252 -0.144681 0
M  V30 694 H 67.5265 -2.66034 -3.04972 0
M  V30 695 H 66.0965 -1.68245 -2.63463 0
M  V30 696 H 65.3165 -3.74129 -1.24183 0
M  V30 697 H 66.6045 -4.66126 -2.03971 0
M  V30 698 H 66.0025 -3.03512 -4.77386 0
M  V30 699 H 64.5595 -3.81532 -5.28466 0
M  V30 700 N 67.9926 0.231505 -1.5589 0
M  V30 701 C 69.2396 0.957352 -1.78441 0
M  V30 702 C 69.5676 1.84726 -0.60882 0
M  V30 703 O 68.8226 1.91416 0.40725 0
M  V30 704 C 69.1216 1.83577 -3.0665 0
M  V30 705 C 68.7876 1.09993 -4.37278 0
M  V30 706 C 67.4496 0.896629 -4.72773 0
M  V30 707 C 69.8016 0.579558 -5.17968 0
M  V30 708 C 67.1296 0.160896 -5.86479 0
M  V30 709 C 69.4816 -0.142783 -6.32439 0
M  V30 710 C 68.1456 -0.357427 -6.66542 0
M  V30 711 H 67.4156 0.35032 -0.65296 0
M  V30 712 H 70.0626 0.226259 -1.90159 0
M  V30 713 H 68.3676 2.63441 -2.90011 0
M  V30 714 H 70.0646 2.39934 -3.21298 0
M  V30 715 H 66.6546 1.26835 -4.09403 0
M  V30 716 H 70.8386 0.724125 -4.90989 0
M  V30 717 H 66.0946 -0.0157293 -6.11398 0
M  V30 718 H 70.2686 -0.553559 -6.94196 0
M  V30 719 H 67.8956 -0.929466 -7.54497 0
M  V30 720 N 69.4707 1.49531 0.497807 0
M  V30 721 C 70.4027 1.62559 1.61578 0
M  V30 722 C 71.4157 0.508134 1.54667 0
M  V30 723 O 72.6047 0.780309 1.60541 0
M  V30 724 C 69.7047 1.56925 3.00379 0
M  V30 725 C 68.8777 2.84257 3.3244 0
M  V30 726 C 67.9367 2.71632 4.50669 0
M  V30 727 O 66.9627 3.4557 4.52294 0
M  V30 728 N 68.1647 1.83391 5.5077 0
M  V30 729 H 70.9297 2.58981 1.50828 0
M  V30 730 H 68.4907 1.4666 0.685743 0
M  V30 731 H 70.4827 1.46129 3.77397 0
M  V30 732 H 69.0527 0.683483 3.05037 0
M  V30 733 H 68.2727 3.09381 2.44289 0
M  V30 734 H 69.5607 3.68666 3.5066 0
M  V30 735 H 68.9587 1.22583 5.52259 0
M  V30 736 H 67.5157 1.78515 6.26878 0
M  V30 737 N 70.9488 -0.749086 1.3866 0
M  V30 738 C 72.1968 -1.50535 1.34847 0
M  V30 739 C 72.5178 -1.94909 -0.0595016 0
M  V30 740 O 71.7878 -1.67973 -1.00806 0
M  V30 741 H 70.3678 -0.558395 0.49619 0
M  V30 742 H 73.0298 -0.890165 1.73384 0
M  V30 743 H 72.1258 -2.39413 2.00219 0
M  V30 744 N 72.4269 -1.23603 -0.977757 0
M  V30 745 C 73.3739 -1.01954 -2.07061 0
M  V30 746 C 74.3439 0.0638697 -1.65977 0
M  V30 747 O 75.5289 -0.0887624 -1.90593 0
M  V30 748 C 72.6689 -0.619658 -3.39491 0
M  V30 749 C 71.7819 -1.77547 -3.93829 0
M  V30 750 C 70.9169 -1.32212 -5.14484 0
M  V30 751 C 69.9559 -2.44852 -5.60994 0
M  V30 752 N 69.0929 -2.00456 -6.72876 0
M  V30 753 H 73.9329 -1.95495 -2.24913 0
M  V30 754 H 71.4699 -0.973861 -1.10247 0
M  V30 755 H 73.4279 -0.368898 -4.15566 0
M  V30 756 H 72.0579 0.278752 -3.21594 0
M  V30 757 H 71.1099 -2.14016 -3.14486 0
M  V30 758 H 72.4219 -2.62219 -4.24314 0
M  V30 759 H 71.5759 -1.02965 -5.97899 0
M  V30 760 H 70.3149 -0.445808 -4.85658 0
M  V30 761 H 69.3199 -2.74871 -4.76157 0
M  V30 762 H 70.5449 -3.33024 -5.91837 0
M  V30 763 H 68.4909 -1.15208 -6.45804 0
M  V30 764 H 68.4079 -2.78687 -7.02759 0
M  V30 765 H 69.6759 -1.7432 -7.59758 0
M  V30 766 N 73.905 1.17692 -1.04816 0
M  V30 767 C 75.151 1.88389 -0.766892 0
M  V30 768 C 75.506 1.79282 0.698269 0
M  V30 769 O 74.799 1.18739 1.50372 0
M  V30 770 C 74.993 3.37462 -1.17703 0
M  V30 771 C 74.822 3.6108 -2.68051 0
M  V30 772 C 73.592 3.78018 -3.35307 0
M  V30 773 C 75.79 3.61039 -3.66273 0
M  V30 774 N 73.772 3.89444 -4.74559 0
M  V30 775 C 75.143 3.78269 -4.91235 0
M  V30 776 C 77.198 3.44168 -3.59796 0
M  V30 777 C 75.901 3.80376 -6.10497 0
M  V30 778 C 77.927 3.4756 -4.78493 0
M  V30 779 C 77.289 3.65295 -6.02278 0
M  V30 780 H 73.388 0.707651 -0.332798 0
M  V30 781 H 75.972 1.41314 -1.33934 0
M  V30 782 H 74.143 3.83214 -0.63257 0
M  V30 783 H 75.875 3.95759 -0.845989 0
M  V30 784 H 72.63 3.77714 -2.85708 0
M  V30 785 H 73.054 3.98962 -5.46954 0
M  V30 786 H 77.696 3.29396 -2.65062 0
M  V30 787 H 75.414 3.93933 -7.05579 0
M  V30 788 H 79 3.3577 -4.75131 0
M  V30 789 H 77.88 3.6782 -6.92588 0
M  V30 790 N 75.3831 0.828654 1.34056 0
M  V30 791 C 76.6131 0.431993 2.02033 0
M  V30 792 C 77.0211 -0.96844 1.62536 0
M  V30 793 O 76.3641 -1.6391 0.829408 0
M  V30 794 C 76.4261 0.461224 3.56529 0
M  V30 795 C 76.0901 1.81599 4.1937 0
M  V30 796 C 77.0871 2.7777 4.39477 0
M  V30 797 C 74.7721 2.10604 4.56017 0
M  V30 798 C 76.7661 4.01115 4.95364 0
M  V30 799 C 74.4531 3.34207 5.11614 0
M  V30 800 C 75.4511 4.2928 5.31232 0
M  V30 801 O 75.1391 5.50699 5.8565 0
M  V30 802 H 74.8711 0.170943 0.654029 0
M  V30 803 H 77.4251 1.11988 1.72185 0
M  V30 804 H 75.6551 -0.283388 3.8566 0
M  V30 805 H 77.3441 0.0838149 4.05813 0
M  V30 806 H 78.1101 2.56659 4.11523 0
M  V30 807 H 73.9891 1.37402 4.40047 0
M  V30 808 H 77.5331 4.75333 5.10592 0
M  V30 809 H 73.4301 3.55179 5.38997 0
M  V30 810 H 74.1981 5.52298 6.04077 0
M  V30 811 N 76.8612 -1.46375 0.584142 0
M  V30 812 C 78.1072 -2.02678 0.0703716 0
M  V30 813 C 78.4402 -1.4545 -1.28678 0
M  V30 814 O 77.7152 -0.62014 -1.84349 0
M  V30 815 C 77.9982 -3.60099 0.00614674 0
M  V30 816 C 77.8512 -4.27709 1.3923 0
M  V30 817 C 79.1702 -4.34598 -0.693742 0
M  V30 818 H 76.2892 -0.736504 0.027047 0
M  V30 819 H 78.9312 -1.74501 0.751615 0
M  V30 820 H 77.0812 -3.84236 -0.574009 0
M  V30 821 H 78.7532 -4.14832 2.01773 0
M  V30 822 H 76.9962 -3.87016 1.95962 0
M  V30 823 H 77.6672 -5.36478 1.29982 0
M  V30 824 H 80.1432 -4.15615 -0.200869 0
M  V30 825 H 79.0192 -5.44318 -0.707714 0
M  V30 826 H 79.2802 -4.05759 -1.75533 0
M  V30 827 N 78.3393 -0.321999 -1.54275 0
M  V30 828 C 79.5853 0.281461 -2.00837 0
M  V30 829 C 79.9183 1.51909 -1.20985 0
M  V30 830 O 79.1933 1.923 -0.291733 0
M  V30 831 C 79.4763 0.617162 -3.54772 0
M  V30 832 C 79.3293 -0.631064 -4.45351 0
M  V30 833 C 80.6483 1.43542 -4.16033 0
M  V30 834 H 77.7673 0.100826 -0.730071 0
M  V30 835 H 80.4093 -0.438268 -1.84876 0
M  V30 836 H 78.5593 1.23034 -3.68504 0
M  V30 837 H 80.2313 -1.26934 -4.43492 0
M  V30 838 H 78.4743 -1.26025 -4.15091 0
M  V30 839 H 79.1453 -0.351735 -5.50878 0
M  V30 840 H 81.6213 0.917134 -4.05867 0
M  V30 841 H 80.4973 1.63907 -5.23856 0
M  V30 842 H 80.7583 2.43108 -3.69257 0
M  V30 843 N 79.8174 1.5752 -0.0501392 0
M  V30 844 C 81.0654 1.9227 0.622642 0
M  V30 845 C 81.3864 0.929083 1.71444 0
M  V30 846 O 80.6564 -0.0262186 1.95882 0
M  V30 847 H 79.2364 0.709739 0.232981 0
M  V30 848 H 81.8984 1.94628 -0.102898 0
M  V30 849 H 80.9944 2.93479 1.06191 0
M  V30 850 N 81.2955 -0.223234 1.56011 0
M  V30 851 C 82.2255 -1.27988 1.95298 0
M  V30 852 C 83.2065 -1.48976 0.820979 0
M  V30 853 O 84.3915 -1.61188 1.08315 0
M  V30 854 C 81.5215 -2.63 2.26822 0
M  V30 855 C 80.4755 -2.56671 3.42497 0
M  V30 856 C 79.8015 -3.95697 3.59622 0
M  V30 857 C 81.1015 -2.11601 4.77517 0
M  V30 858 H 82.7955 -0.953525 2.8381 0
M  V30 859 H 80.3415 -0.457244 1.36548 0
M  V30 860 H 82.2945 -3.37077 2.52898 0
M  V30 861 H 81.0185 -2.9732 1.35161 0
M  V30 862 H 79.6775 -1.85051 3.16467 0
M  V30 863 H 79.3255 -4.27322 2.6534 0
M  V30 864 H 79.0255 -3.92345 4.37424 0
M  V30 865 H 80.5495 -4.71438 3.88044 0
M  V30 866 H 81.9635 -2.7542 5.02809 0
M  V30 867 H 80.3605 -2.19311 5.5859 0
M  V30 868 H 81.4305 -1.06824 4.72987 0
M  V30 869 N 82.7736 -1.49793 -0.48987 0
M  V30 870 C 83.7366 -1.66752 -1.57246 0
M  V30 871 C 84.7366 -0.538867 -1.51502 0
M  V30 872 O 85.9266 -0.805545 -1.54456 0
M  V30 873 C 83.0586 -1.67528 -2.96896 0
M  V30 874 H 84.2516 -2.63321 -1.43534 0
M  V30 875 H 81.8046 -1.38992 -0.714914 0
M  V30 876 H 82.5396 -0.725837 -3.16073 0
M  V30 877 H 82.3246 -2.49504 -3.02473 0
M  V30 878 H 83.8146 -1.82667 -3.7553 0
M  V30 879 N 84.2517 0.741722 -1.39055 0
M  V30 880 C 85.4997 1.49818 -1.35643 0
M  V30 881 C 85.8207 1.94938 0.0491642 0
M  V30 882 O 85.0907 1.68505 0.999141 0
M  V30 883 H 83.6707 0.555755 -0.499144 0
M  V30 884 H 86.3327 0.880957 -1.73854 0
M  V30 885 H 85.4287 2.38348 -2.01486 0
M  V30 886 N 85.7298 1.2412 0.971189 0
M  V30 887 C 86.6778 1.02812 2.08644 0
M  V30 888 C 87.6718 -0.0358403 1.69362 0
M  V30 889 O 88.8778 0.118429 1.7961 0
M  V30 890 H 85.2528 0.315428 0.682649 0
M  V30 891 H 87.2238 1.97397 2.23779 0
M  V30 892 C 85.9728 0.645874 3.41649 0
M  V30 893 H 85.2958 1.45632 3.72332 0
M  V30 894 H 86.7358 0.536366 4.20594 0
M  V30 895 C 85.1948 -0.646713 3.30635 0
M  V30 896 O 85.7248 -1.69338 3.64263 0
M  V30 897 N 83.9308 -0.626115 2.83775 0
M  V30 898 H 83.4778 0.225988 2.56607 0
M  V30 899 H 83.4358 -1.49117 2.76788 0
M  V30 900 N 87.2079 -1.17134 1.05439 0
M  V30 901 C 88.1709 -2.19439 0.661764 0
M  V30 902 C 89.1709 -1.58199 -0.288042 0
M  V30 903 O 90.3609 -1.74053 -0.0715803 0
M  V30 904 C 87.4929 -3.40889 -0.0276209 0
M  V30 905 H 88.6859 -2.55688 1.56728 0
M  V30 906 H 86.2389 -1.31259 0.848567 0
M  V30 907 H 86.9739 -3.10187 -0.94629 0
M  V30 908 H 86.7589 -3.86586 0.655238 0
M  V30 909 H 88.2489 -4.16603 -0.288342 0
M  V30 910 N 88.686 -0.835752 -1.33615 0
M  V30 911 C 89.935 -0.426289 -1.97144 0
M  V30 912 C 90.248 1.01912 -1.66953 0
M  V30 913 O 91.454 1.53311 -2.24072 0
M  V30 914 C 89.91 -0.711321 -3.52801 0
M  V30 915 C 89.518 -2.1712 -3.91871 0
M  V30 916 C 91.262 -0.368654 -4.22896 0
M  V30 917 C 89.169 -2.40044 -5.40493 0
M  V30 918 H 88.099 -0.15567 -0.737755 0
M  V30 919 H 90.75 -1.0239 -1.52278 0
M  V30 920 H 89.132 -0.0433766 -3.95976 0
M  V30 921 H 90.306 -2.87936 -3.59763 0
M  V30 922 H 88.621 -2.47654 -3.34749 0
M  V30 923 H 91.218 -0.517601 -5.32189 0
M  V30 924 H 91.561 0.688078 -4.10574 0
M  V30 925 H 92.094 -0.991702 -3.8524 0
M  V30 926 H 88.833 -3.44271 -5.57815 0
M  V30 927 H 88.353 -1.73785 -5.74072 0
M  V30 928 H 90.032 -2.23042 -6.0734 0
M  V30 929 N 90.1641 1.46063 -0.591896 0
M  V30 930 C 91.0941 2.33172 0.123673 0
M  V30 931 C 92.0751 1.45897 0.87453 0
M  V30 932 O 93.2601 1.74698 0.848181 0
M  V30 933 C 90.3901 3.28336 1.13194 0
M  V30 934 C 89.3441 4.25124 0.495324 0
M  V30 935 C 88.6701 5.09863 1.61071 0
M  V30 936 C 89.9701 5.19143 -0.573425 0
M  V30 937 H 91.6641 2.93252 -0.603646 0
M  V30 938 H 89.2101 1.41014 -0.291741 0
M  V30 939 H 91.1631 3.88137 1.64097 0
M  V30 940 H 89.8871 2.66383 1.88965 0
M  V30 941 H 88.5461 3.66599 0.00729452 0
M  V30 942 H 88.1941 4.44288 2.35832 0
M  V30 943 H 87.8941 5.75417 1.19035 0
M  V30 944 H 89.4181 5.72529 2.12233 0
M  V30 945 H 90.8321 5.73106 -0.1491 0
M  V30 946 H 89.2291 5.93089 -0.914636 0
M  V30 947 H 90.2991 4.62519 -1.45617 0
M  V30 948 N 91.6422 0.330177 1.54103 0
M  V30 949 C 93.0582 -0.0222371 1.59585 0
M  V30 950 C 93.2582 -1.49902 1.34654 0
M  V30 951 O 92.3142 -2.25592 1.13421 0
M  V30 952 C 93.6272 0.401932 2.98002 0
M  V30 953 C 95.1752 0.353145 3.11001 0
M  V30 954 C 95.6502 0.752576 4.51775 0
M  V30 955 N 97.1412 0.706239 4.57784 0
M  V30 956 C 97.8762 0.987417 5.64834 0
M  V30 957 N 97.3722 1.33607 6.79795 0
M  V30 958 N 99.1652 0.91254 5.54643 0
M  V30 959 H 91.3162 1.29228 1.68564 0
M  V30 960 H 93.5792 0.525906 0.78875 0
M  V30 961 H 93.2852 1.4311 3.21267 0
M  V30 962 H 93.1592 -0.229699 3.765 0
M  V30 963 H 95.5462 -0.666822 2.87467 0
M  V30 964 H 95.6272 1.0198 2.34593 0
M  V30 965 H 95.2712 1.77049 4.76042 0
M  V30 966 H 95.2012 0.0635409 5.26562 0
M  V30 967 H 97.6922 0.44889 3.75224 0
M  V30 968 H 98.0052 1.53582 7.57385 0
M  V30 969 H 96.3502 1.37439 6.81275 0
M  V30 970 H 99.5412 0.639601 4.6371 0
M  V30 971 H 99.7142 1.13503 6.37982 0
M  V30 972 N 93.1203 -1.57491 0.0584922 0
M  V30 973 C 94.0303 -2.15448 -0.928414 0
M  V30 974 C 95.0463 -1.11416 -1.3365 0
M  V30 975 O 96.2223 -1.4362 -1.41193 0
M  V30 976 C 93.2873 -2.69393 -2.18239 0
M  V30 977 C 92.3483 -3.88249 -1.83196 0
M  V30 978 C 91.5813 -4.39613 -3.02616 0
M  V30 979 O 91.8043 -3.90023 -4.16219 0
M  V30 980 O 90.7383 -5.31111 -2.83204 0
M  V30 981 H 94.5643 -3.00112 -0.465483 0
M  V30 982 H 92.1493 -1.48499 -0.163826 0
M  V30 983 H 94.0313 -3.04026 -2.91798 0
M  V30 984 H 92.7063 -1.87796 -2.63656 0
M  V30 985 H 91.6133 -3.58492 -1.06931 0
M  V30 986 H 92.9463 -4.71098 -1.42573 0
M  V30 987 N 94.5984 0.214957 -1.56127 0
M  V30 988 C 95.8754 0.963093 -1.70247 0
M  V30 989 C 96.2554 2.02166 -0.60764 0
M  V30 990 O 95.6034 2.25244 0.384385 0
M  V30 991 C 95.8134 1.56756 -3.11815 0
M  V30 992 C 97.1614 2.0573 -3.7143 0
M  V30 993 O 98.1854 1.66637 -3.14818 0
M  V30 994 O 97.0444 2.77603 -4.70743 0
M  V30 995 H 94.1384 0.450321 -0.693643 0
M  V30 996 H 96.6844 0.206219 -1.68442 0
M  V30 997 H 95.4564 0.803533 -3.82961 0
M  V30 998 H 95.0794 2.3898 -3.17765 0
M  V30 999 N 96.0765 1.50051 0.48192 0
M  V30 1000 C 97.0235 1.68122 1.58125 0
M  V30 1001 C 97.9935 0.522545 1.57666 0
M  V30 1002 O 99.1785 0.751844 1.75362 0
M  V30 1003 C 96.3185 1.77142 2.96167 0
M  V30 1004 C 95.4315 3.0444 3.06497 0
M  V30 1005 C 94.5665 3.04321 4.35387 0
M  V30 1006 C 93.6055 4.26118 4.3942 0
M  V30 1007 N 92.7425 4.238 5.59766 0
M  V30 1008 H 97.5825 2.6198 1.42022 0
M  V30 1009 H 95.1195 1.29877 0.690687 0
M  V30 1010 H 97.0775 1.80352 3.76203 0
M  V30 1011 H 95.7075 0.867329 3.1093 0
M  V30 1012 H 94.7595 3.10752 2.19402 0
M  V30 1013 H 96.0715 3.94426 3.05336 0
M  V30 1014 H 95.2255 3.062 5.23762 0
M  V30 1015 H 93.9645 2.12147 4.39141 0
M  V30 1016 H 92.9695 4.24463 3.49444 0
M  V30 1017 H 94.1945 5.19507 4.37366 0
M  V30 1018 H 92.1405 3.34474 5.64326 0
M  V30 1019 H 92.0575 5.07542 5.60301 0
M  V30 1020 H 93.3255 4.2981 6.50295 0
M  V30 1021 N 97.5546 -0.734337 1.39446 0
M  V30 1022 C 98.8316 -1.48579 1.27215 0
M  V30 1023 C 99.2116 -2.1077 -0.117968 0
M  V30 1024 O 98.5596 -1.98646 -1.12924 0
M  V30 1025 C 98.7696 -2.53667 2.39696 0
M  V30 1026 C 100.118 -3.20031 2.79044 0
M  V30 1027 O 101.142 -2.6398 2.39151 0
M  V30 1028 O 100.001 -4.21455 3.47905 0
M  V30 1029 H 97.0946 -0.659816 0.49857 0
M  V30 1030 H 99.6406 -0.768106 1.51322 0
M  V30 1031 H 98.4126 -2.06096 3.32626 0
M  V30 1032 H 98.0356 -3.32994 2.17258 0
M  V30 1033 N 99.0327 -1.24633 -0.964593 0
M  V30 1034 C 100.444 -1.08045 -1.5226 0
M  V30 1035 C 100.795 0.347116 -1.93105 0
M  V30 1036 O 99.9197 1.23588 -1.77637 0
M  V30 1037 C 100.515 -1.95514 -2.76695 0
M  V30 1038 C 99.0737 -1.8314 -3.28841 0
M  V30 1039 C 98.2207 -1.90262 -2.01732 0
M  V30 1040 H 101.172 -1.38064 -0.782553 0
M  V30 1041 H 101.193 -1.48925 -3.50145 0
M  V30 1042 H 100.705 -2.99407 -2.46936 0
M  V30 1043 H 98.8057 -0.82092 -3.63444 0
M  V30 1044 H 98.9187 -2.67406 -3.97531 0
M  V30 1045 H 97.2827 -1.34027 -2.16584 0
M  V30 1046 H 98.0657 -2.9574 -1.74334 0
M  V30 1047 N 100.511 1.16574 -1.06058 0
M  V30 1048 C 101.443 2.2045 -0.627239 0
M  V30 1049 C 102.456 1.59752 0.313534 0
M  V30 1050 O 103.645 1.78192 0.104896 0
M  V30 1051 C 100.745 3.3875 0.100974 0
M  V30 1052 C 99.9178 4.29008 -0.852687 0
M  V30 1053 C 98.9768 5.25944 -0.164152 0
M  V30 1054 O 98.0028 5.63535 -0.801047 0
M  V30 1055 N 99.2048 5.70075 1.09518 0
M  V30 1056 H 101.97 2.58249 -1.52077 0
M  V30 1057 H 99.5308 1.3156 -0.943594 0
M  V30 1058 H 101.523 4.00638 0.57194 0
M  V30 1059 H 100.093 2.99476 0.89628 0
M  V30 1060 H 99.3128 3.64419 -1.50308 0
M  V30 1061 H 100.601 4.86195 -1.49972 0
M  V30 1062 H 99.9988 5.41624 1.6328 0
M  V30 1063 H 98.5558 6.34067 1.51006 0
M  V30 1064 N 101.989 0.842826 1.3317 0
M  V30 1065 C 102.936 0.276885 2.29133 0
M  V30 1066 C 103.906 -0.609527 1.54512 0
M  V30 1067 O 105.091 -0.546955 1.82792 0
M  V30 1068 C 102.231 -0.538707 3.40869 0
M  V30 1069 C 101.344 0.372169 4.30394 0
M  V30 1070 C 100.479 -0.454908 5.29249 0
M  V30 1071 C 99.5179 0.45411 6.10413 0
M  V30 1072 N 98.6549 -0.335075 7.013 0
M  V30 1073 H 103.495 1.10052 2.76934 0
M  V30 1074 H 101.032 0.554161 1.36262 0
M  V30 1075 H 102.99 -1.02709 4.0436 0
M  V30 1076 H 101.62 -1.32727 2.9425 0
M  V30 1077 H 100.672 0.97888 3.6759 0
M  V30 1078 H 101.984 1.0703 4.87182 0
M  V30 1079 H 101.138 -1.00695 5.98285 0
M  V30 1080 H 99.8769 -1.18646 4.73048 0
M  V30 1081 H 98.8819 1.01813 5.40291 0
M  V30 1082 H 100.107 1.18409 6.68697 0
M  V30 1083 H 98.0529 -1.04994 6.47543 0
M  V30 1084 H 97.9699 0.304262 7.55387 0
M  V30 1085 H 99.2379 -0.869224 7.74638 0
M  V30 1086 N 103.467 -1.45747 0.599634 0
M  V30 1087 C 104.4 -2.27547 -0.172552 0
M  V30 1088 C 105.378 -1.36657 -0.881116 0
M  V30 1089 O 106.562 -1.66081 -0.891595 0
M  V30 1090 C 103.689 -3.14829 -1.24903 0
M  V30 1091 C 102.735 -4.21603 -0.644465 0
M  V30 1092 S 103.568 -5.32754 0.541606 0
M  V30 1093 C 104.724 -6.23604 -0.535656 0
M  V30 1094 H 104.957 -2.92691 0.521468 0
M  V30 1095 H 102.49 -1.49473 0.386947 0
M  V30 1096 H 104.448 -3.65675 -1.86527 0
M  V30 1097 H 103.109 -2.48965 -1.91508 0
M  V30 1098 H 102.302 -4.82566 -1.45417 0
M  V30 1099 H 101.904 -3.73857 -0.103534 0
M  V30 1100 H 104.196 -6.62519 -1.41686 0
M  V30 1101 H 105.139 -7.0809 0.0376246 0
M  V30 1102 H 105.547 -5.58103 -0.84741 0
M  V30 1103 N 104.945 -0.338344 -1.53925 0
M  V30 1104 C 106.175 0.260919 -2.04946 0
M  V30 1105 C 106.583 1.45174 -1.2133 0
M  V30 1106 O 105.926 1.82122 -0.240262 0
M  V30 1107 C 105.988 0.744596 -3.51704 0
M  V30 1108 C 105.652 -0.325883 -4.55837 0
M  V30 1109 C 106.649 -1.16687 -5.06636 0
M  V30 1110 C 104.334 -0.478317 -5.00017 0
M  V30 1111 C 106.328 -2.14588 -6.00192 0
M  V30 1112 C 104.015 -1.46073 -5.93385 0
M  V30 1113 C 105.013 -2.29297 -6.4336 0
M  V30 1114 O 104.701 -3.25867 -7.34892 0
M  V30 1115 H 104.433 0.0551207 -0.673749 0
M  V30 1116 H 106.987 -0.486984 -1.99544 0
M  V30 1117 H 105.217 1.54366 -3.54553 0
M  V30 1118 H 106.906 1.26383 -3.85723 0
M  V30 1119 H 107.672 -1.06016 -4.73271 0
M  V30 1120 H 103.551 0.159613 -4.60724 0
M  V30 1121 H 107.095 -2.79585 -6.39123 0
M  V30 1122 H 102.992 -1.56802 -6.26166 0
M  V30 1123 H 103.76 -3.21278 -7.5281 0
M  V30 1124 N 106.423 1.57458 -0.0668435 0
M  V30 1125 C 107.386 2.11323 0.887422 0
M  V30 1126 C 108.386 1.03618 1.22964 0
M  V30 1127 O 109.576 1.29626 1.16373 0
M  V30 1128 C 106.708 2.61048 2.19242 0
M  V30 1129 H 107.901 2.96942 0.420194 0
M  V30 1130 H 105.454 1.55239 0.181793 0
M  V30 1131 H 106.189 1.78868 2.70512 0
M  V30 1132 H 105.974 3.39769 1.95702 0
M  V30 1133 H 107.464 3.02814 2.87565 0
M  V30 1134 N 107.901 -0.206675 1.56239 0
M  V30 1135 C 109.129 -0.945345 1.8404 0
M  V30 1136 C 109.544 -1.77336 0.647885 0
M  V30 1137 O 108.901 -1.78425 -0.383511 0
M  V30 1138 C 108.952 -1.8509 3.10522 0
M  V30 1139 O 108.673 -1.05634 4.25174 0
M  V30 1140 C 110.174 -2.70222 3.51418 0
M  V30 1141 H 107.394 -0.276372 0.61144 0
M  V30 1142 H 109.938 -0.217417 2.03341 0
M  V30 1143 H 108.093 -2.53259 2.93153 0
M  V30 1144 H 108.507 -1.67238 4.97124 0
M  V30 1145 H 109.981 -3.29438 4.42916 0
M  V30 1146 H 110.458 -3.43358 2.73864 0
M  V30 1147 H 111.064 -2.07443 3.71278 0
M  V30 1148 N 109.379 -1.50304 -0.473955 0
M  V30 1149 C 110.628 -1.60392 -1.22301 0
M  V30 1150 C 110.941 -0.308411 -1.93153 0
M  V30 1151 O 112.147 -0.288156 -2.69966 0
M  V30 1152 C 110.603 -2.83109 -2.2221 0
M  V30 1153 C 110.211 -4.19524 -1.57173 0
M  V30 1154 C 111.955 -3.0254 -2.97775 0
M  V30 1155 C 109.862 -5.33431 -2.55353 0
M  V30 1156 H 108.792 -0.597286 -0.460179 0
M  V30 1157 H 111.443 -1.76731 -0.493803 0
M  V30 1158 H 109.825 -2.60322 -2.9841 0
M  V30 1159 H 110.999 -4.52554 -0.867824 0
M  V30 1160 H 109.314 -4.05674 -0.939002 0
M  V30 1161 H 111.911 -3.84811 -3.71248 0
M  V30 1162 H 112.254 -2.14154 -3.56992 0
M  V30 1163 H 112.787 -3.25494 -2.28688 0
M  V30 1164 H 109.526 -6.23962 -2.00878 0
M  V30 1165 H 109.046 -5.04823 -3.23904 0
M  V30 1166 H 110.725 -5.63887 -3.17239 0
M  V30 1167 N 110.857 0.726932 -1.39834 0
M  V30 1168 C 112.087 1.51393 -1.40583 0
M  V30 1169 C 112.495 1.892 -0.000740625 0
M  V30 1170 O 111.838 1.55189 0.982951 0
M  V30 1171 C 111.9 2.82588 -2.22226 0
M  V30 1172 C 111.564 2.67169 -3.70769 0
M  V30 1173 C 112.561 2.3518 -4.63666 0
M  V30 1174 C 110.246 2.83788 -4.14451 0
M  V30 1175 C 112.24 2.20002 -5.98229 0
M  V30 1176 C 109.927 2.68229 -5.49087 0
M  V30 1177 C 110.925 2.36382 -6.4079 0
M  V30 1178 O 110.613 2.2093 -7.72946 0
M  V30 1179 H 110.345 0.474168 -0.48181 0
M  V30 1180 H 112.899 0.905247 -1.84376 0
M  V30 1181 H 111.129 3.45746 -1.73195 0
M  V30 1182 H 112.818 3.44247 -2.15055 0
M  V30 1183 H 113.584 2.21984 -4.31217 0
M  V30 1184 H 109.463 3.07566 -3.43401 0
M  V30 1185 H 113.007 1.95067 -6.69772 0
M  V30 1186 H 108.904 2.81006 -5.81125 0
M  V30 1187 H 109.672 2.35937 -7.83757 0
M  V30 1188 N 112.336 1.25143 0.95797 0
M  V30 1189 C 113.246 1.06968 2.08794 0
M  V30 1190 C 114.262 0.00773911 1.73998 0
M  V30 1191 O 115.438 0.207972 2.00323 0
M  V30 1192 C 112.503 0.68691 3.39827 0
M  V30 1193 C 111.564 1.82641 3.88511 0
M  V30 1194 C 110.797 1.46181 5.1329 0
M  V30 1195 O 111.02 0.355971 5.69288 0
M  V30 1196 O 109.954 2.29085 5.566 0
M  V30 1197 H 113.78 2.01723 2.27027 0
M  V30 1198 H 111.365 1.04051 1.07209 0
M  V30 1199 H 113.247 0.485417 4.18595 0
M  V30 1200 H 111.922 -0.231417 3.22872 0
M  V30 1201 H 110.829 2.08274 3.10762 0
M  V30 1202 H 112.162 2.72386 4.09959 0
M  V30 1203 N 113.814 -1.1601 1.06675 0
M  V30 1204 C 114.744 -2.22688 0.702307 0
M  V30 1205 C 115.725 -1.67306 -0.307032 0
M  V30 1206 O 116.91 -1.93352 -0.181305 0
M  V30 1207 C 114.04 -3.47178 0.092038 0
M  V30 1208 C 112.994 -4.15477 1.02777 0
M  V30 1209 C 112.32 -5.33963 0.28061 0
M  V30 1210 C 113.62 -4.66019 2.35846 0
M  V30 1211 H 115.314 -2.53429 1.59419 0
M  V30 1212 H 112.86 -1.21813 0.767961 0
M  V30 1213 H 114.813 -4.21037 -0.174814 0
M  V30 1214 H 113.537 -3.15749 -0.834877 0
M  V30 1215 H 112.196 -3.43549 1.27944 0
M  V30 1216 H 111.844 -4.98788 -0.649545 0
M  V30 1217 H 111.544 -5.806 0.904258 0
M  V30 1218 H 113.068 -6.10596 0.021396 0
M  V30 1219 H 114.482 -5.3144 2.15045 0
M  V30 1220 H 112.879 -5.23293 2.93743 0
M  V30 1221 H 113.949 -3.82023 2.98641 0
M  V30 1222 N 115.292 -0.849877 -1.32721 0
M  V30 1223 C 116.239 -0.289033 -2.28983 0
M  V30 1224 C 117.209 0.601324 -1.54833 0
M  V30 1225 O 118.394 0.537253 -1.8308 0
M  V30 1226 C 115.534 0.520623 -3.4115 0
M  V30 1227 C 114.647 -0.394989 -4.3019 0
M  V30 1228 C 113.782 0.426834 -5.29482 0
M  V30 1229 C 112.821 -0.486476 -6.10164 0
M  V30 1230 N 111.958 0.297879 -7.01468 0
M  V30 1231 H 116.798 -1.11519 -2.76347 0
M  V30 1232 H 114.335 -0.56138 -1.35967 0
M  V30 1233 H 116.293 1.00563 -4.04899 0
M  V30 1234 H 114.923 1.31165 -2.9495 0
M  V30 1235 H 113.975 -0.99836 -3.67065 0
M  V30 1236 H 115.287 -1.09612 -4.86607 0
M  V30 1237 H 114.441 0.975205 -5.98811 0
M  V30 1238 H 113.18 1.16136 -4.73671 0
M  V30 1239 H 112.185 -1.04677 -5.39743 0
M  V30 1240 H 113.41 -1.21953 -6.6806 0
M  V30 1241 H 111.356 1.01558 -6.48091 0
M  V30 1242 H 111.273 -0.344318 -7.55216 0
M  V30 1243 H 112.541 0.828131 -7.75089 0
M  V30 1244 N 116.77 1.45427 -0.607355 0
M  V30 1245 C 117.68 2.34325 0.113463 0
M  V30 1246 C 118.696 1.51226 0.860617 0
M  V30 1247 O 119.872 1.84029 0.818255 0
M  V30 1248 C 116.937 3.28839 1.09844 0
M  V30 1249 C 115.998 4.27844 0.353271 0
M  V30 1250 C 115.231 5.17842 1.29133 0
M  V30 1251 O 115.454 5.11264 2.52913 0
M  V30 1252 O 114.388 5.96713 0.788523 0
M  V30 1253 H 118.214 2.97364 -0.617094 0
M  V30 1254 H 115.799 1.44807 -0.367619 0
M  V30 1255 H 117.681 3.8708 1.66575 0
M  V30 1256 H 116.356 2.68365 1.81003 0
M  V30 1257 H 115.263 3.7322 -0.256494 0
M  V30 1258 H 116.596 4.91173 -0.317822 0
M  V30 1259 N 118.248 0.346503 1.53744 0
M  V30 1260 C 119.525 -0.304532 1.93215 0
M  V30 1261 C 119.905 -1.67993 1.27834 0
M  V30 1262 O 119.253 -2.24411 0.430352 0
M  V30 1263 C 119.463 -0.373852 3.46992 0
M  V30 1264 C 120.811 -0.62329 4.2 0
M  V30 1265 O 121.835 -0.455847 3.53271 0
M  V30 1266 O 120.694 -0.947879 5.38217 0
M  V30 1267 H 117.788 -0.178318 0.807547 0
M  V30 1268 H 120.334 0.397895 1.64969 0
M  V30 1269 H 119.106 0.591224 3.86808 0
M  V30 1270 H 118.729 -1.12294 3.81413 0
M  V30 1271 N 119.726 -1.57421 0.075193 0
M  V30 1272 C 120.673 -2.12915 -0.890843 0
M  V30 1273 C 121.643 -1.04252 -1.29309 0
M  V30 1274 O 122.828 -1.31933 -1.37834 0
M  V30 1275 C 119.968 -2.69795 -2.15186 0
M  V30 1276 C 119.081 -3.92624 -1.80194 0
M  V30 1277 C 118.216 -4.37736 -3.00933 0
M  V30 1278 C 117.255 -5.53205 -2.61974 0
M  V30 1279 N 116.392 -5.9326 -3.75483 0
M  V30 1280 H 121.232 -2.95156 -0.410735 0
M  V30 1281 H 118.769 -1.45854 -0.191086 0
M  V30 1282 H 120.727 -3.00883 -2.89008 0
M  V30 1283 H 119.357 -1.90313 -2.60731 0
M  V30 1284 H 118.409 -3.67977 -0.964218 0
M  V30 1285 H 119.721 -4.76482 -1.47534 0
M  V30 1286 H 118.875 -4.70503 -3.8303 0
M  V30 1287 H 117.614 -3.52739 -3.36789 0
M  V30 1288 H 116.619 -5.20086 -1.783 0
M  V30 1289 H 117.844 -6.39936 -2.27284 0
M  V30 1290 H 115.79 -5.11212 -4.11094 0
M  V30 1291 H 115.707 -6.71865 -3.46602 0
M  V30 1292 H 116.975 -6.30651 -4.58148 0
M  V30 1293 N 121.204 0.198386 -1.56346 0
M  V30 1294 C 122.429 0.939682 -1.84891 0
M  V30 1295 C 122.854 1.76202 -0.658369 0
M  V30 1296 O 122.212 1.76993 0.392851 0
M  V30 1297 C 122.26 1.81428 -3.11635 0
M  V30 1298 O 121.364 2.91265 -2.91956 0
M  V30 1299 H 120.705 0.264807 -0.608912 0
M  V30 1300 H 123.235 0.204695 -2.03573 0
M  V30 1301 H 123.245 2.21958 -3.42343 0
M  V30 1302 H 121.92 1.21004 -3.97908 0
M  V30 1303 H 120.497 2.54514 -2.72538 0
M  V30 1304 N 122.682 1.50554 0.465978 0
M  V30 1305 C 123.912 1.65323 1.23903 0
M  V30 1306 C 124.32 0.338051 1.86155 0
M  V30 1307 O 123.663 -0.690518 1.70228 0
M  V30 1308 C 123.725 2.69048 2.3844 0
M  V30 1309 C 123.389 4.12462 1.96784 0
M  V30 1310 C 124.386 4.98168 1.48745 0
M  V30 1311 C 122.071 4.58407 2.05349 0
M  V30 1312 C 124.065 6.27868 1.0982 0
M  V30 1313 C 121.752 5.88112 1.66035 0
M  V30 1314 C 122.75 6.72668 1.18349 0
M  V30 1315 O 122.438 7.99951 0.795825 0
M  V30 1316 H 122.17 0.558629 0.38067 0
M  V30 1317 H 124.724 1.97561 0.562022 0
M  V30 1318 H 122.954 2.32062 3.09328 0
M  V30 1319 H 124.643 2.72985 3.0039 0
M  V30 1320 H 125.409 4.63885 1.41546 0
M  V30 1321 H 121.288 3.92735 2.41414 0
M  V30 1322 H 124.832 6.93819 0.725293 0
M  V30 1323 H 120.729 6.21914 1.72895 0
M  V30 1324 H 121.497 8.13265 0.924222 0
M  V30 1325 N 124.16 -0.719506 1.40217 0
M  V30 1326 C 125.108 -1.85493 1.40339 0
M  V30 1327 C 126.102 -1.66995 0.284415 0
M  V30 1328 O 127.308 -1.74148 0.455252 0
M  V30 1329 H 123.683 -0.610857 0.438586 0
M  V30 1330 H 125.654 -1.82506 2.36081 0
M  V30 1331 C 124.403 -3.23321 1.27901 0
M  V30 1332 H 123.726 -3.38159 2.1328 0
M  V30 1333 H 125.166 -4.02914 1.32045 0
M  V30 1334 C 123.625 -3.36898 -0.0111355 0
M  V30 1335 O 124.155 -3.89674 -0.975538 0
M  V30 1336 N 122.361 -2.90492 -0.0793393 0
M  V30 1337 H 121.908 -2.47731 0.706183 0
M  V30 1338 H 121.866 -2.99955 -0.942038 0
M  V30 1339 N 125.638 -1.25649 -0.95132 0
M  V30 1340 C 126.884 -1.10757 -1.69884 0
M  V30 1341 C 127.217 0.350061 -1.91019 0
M  V30 1342 O 126.492 1.25783 -1.48354 0
M  V30 1343 C 126.775 -1.86606 -3.07978 0
M  V30 1344 C 126.628 -3.40217 -2.94232 0
M  V30 1345 C 127.947 -1.65182 -4.07925 0
M  V30 1346 H 125.066 -0.40374 -0.616574 0
M  V30 1347 H 127.708 -1.54521 -1.10558 0
M  V30 1348 H 125.858 -1.49409 -3.58621 0
M  V30 1349 H 127.53 -3.87108 -2.50889 0
M  V30 1350 H 125.773 -3.67759 -2.30078 0
M  V30 1351 H 126.444 -3.88505 -3.92133 0
M  V30 1352 H 128.92 -1.9757 -3.66204 0
M  V30 1353 H 127.796 -2.20683 -5.02583 0
M  V30 1354 H 128.057 -0.593933 -4.38092 0
M  V30 1355 N 127.117 1.15442 -1.07289 0
M  V30 1356 C 128.345 1.90096 -0.81676 0
M  V30 1357 C 128.76 1.7798 0.629966 0
M  V30 1358 O 128.117 1.1313 1.43206 0
M  V30 1359 C 128.168 3.40466 -1.21512 0
M  V30 1360 O 127.889 3.52232 -2.60508 0
M  V30 1361 C 129.39 4.32145 -0.988198 0
M  V30 1362 H 126.61 0.602495 -0.295366 0
M  V30 1363 H 129.154 1.4627 -1.42918 0
M  V30 1364 H 127.309 3.81958 -0.647039 0
M  V30 1365 H 127.723 4.45549 -2.76742 0
M  V30 1366 H 129.197 5.36072 -1.31645 0
M  V30 1367 H 129.674 4.39135 0.0755063 0
M  V30 1368 H 130.28 3.96395 -1.54115 0
M  V30 1369 N 128.595 0.856903 1.32268 0
M  V30 1370 C 129.82 0.474569 2.01897 0
M  V30 1371 C 130.245 -0.921766 1.63967 0
M  V30 1372 O 129.603 -1.60589 0.84148 0
M  V30 1373 C 129.651 0.623799 3.55164 0
M  V30 1374 O 128.755 -0.342459 4.10976 0
M  V30 1375 H 128.096 0.190422 0.63611 0
M  V30 1376 H 130.626 1.15672 1.68764 0
M  V30 1377 H 130.636 0.512169 4.04773 0
M  V30 1378 H 129.311 1.64202 3.82113 0
M  V30 1379 H 127.888 -0.18688 3.72431 0
M  V30 1380 N 130.073 -1.45103 0.615059 0
M  V30 1381 C 131.319 -2.02483 0.113347 0
M  V30 1382 C 131.652 -1.48146 -1.25564 0
M  V30 1383 O 130.927 -0.659104 -1.82992 0
M  V30 1384 C 131.21 -3.60005 0.0825278 0
M  V30 1385 C 131.063 -4.2466 1.48271 0
M  V30 1386 C 132.382 -4.35972 -0.601401 0
M  V30 1387 H 129.501 -0.735764 0.0426632 0
M  V30 1388 H 132.143 -1.72868 0.788461 0
M  V30 1389 H 130.293 -3.85367 -0.492378 0
M  V30 1390 H 131.965 -4.10458 2.10527 0
M  V30 1391 H 130.208 -3.82772 2.04127 0
M  V30 1392 H 130.879 -5.336 1.41332 0
M  V30 1393 H 133.355 -4.15947 -0.112666 0
M  V30 1394 H 132.231 -5.45697 -0.592097 0
M  V30 1395 H 132.492 -4.09391 -1.66887 0
M  V30 1396 N 131.551 -0.354651 -1.53558 0
M  V30 1397 C 132.481 0.489091 -2.2832 0
M  V30 1398 C 133.462 1.09324 -1.30316 0
M  V30 1399 O 134.647 1.11255 -1.59173 0
M  V30 1400 C 131.777 1.63456 -3.0643 0
M  V30 1401 C 130.731 1.1582 -4.12031 0
M  V30 1402 C 130.057 2.39305 -4.7816 0
M  V30 1403 C 131.357 0.250731 -5.21698 0
M  V30 1404 H 133.051 -0.134614 -2.99097 0
M  V30 1405 H 130.597 -0.0661826 -1.43848 0
M  V30 1406 H 132.55 2.23136 -3.57475 0
M  V30 1407 H 131.274 2.28533 -2.33325 0
M  V30 1408 H 129.933 0.584146 -3.61916 0
M  V30 1409 H 129.581 3.02814 -4.01637 0
M  V30 1410 H 129.281 2.08109 -5.49513 0
M  V30 1411 H 130.805 2.99691 -5.31994 0
M  V30 1412 H 132.219 0.754695 -5.68311 0
M  V30 1413 H 130.616 0.0301468 -6.00092 0
M  V30 1414 H 131.686 -0.710125 -4.79672 0
M  V30 1415 N 133.029 1.57378 -0.0835403 0
M  V30 1416 C 134.276 1.9393 0.58287 0
M  V30 1417 C 134.604 0.964455 1.68904 0
M  V30 1418 O 133.859 -0.0179474 1.95692 0
M  V30 1419 C 134.158 3.37063 1.1884 0
M  V30 1420 C 133.824 4.50424 0.207194 0
M  V30 1421 C 132.486 4.81159 -0.0627115 0
M  V30 1422 C 134.838 5.19136 -0.463426 0
M  V30 1423 C 132.166 5.77939 -1.01012 0
M  V30 1424 C 134.518 6.16931 -1.39924 0
M  V30 1425 C 133.182 6.46078 -1.67749 0
M  V30 1426 H 132.452 0.70964 0.213287 0
M  V30 1427 H 135.099 1.90856 -0.156916 0
M  V30 1428 H 133.404 3.3666 2.00418 0
M  V30 1429 H 135.101 3.6264 1.71153 0
M  V30 1430 H 131.691 4.2646 0.427747 0
M  V30 1431 H 135.875 4.95576 -0.268034 0
M  V30 1432 H 131.131 5.98842 -1.23283 0
M  V30 1433 H 135.305 6.69273 -1.92476 0
M  V30 1434 H 132.932 7.2088 -2.41321 0
M  V30 1435 N 134.507 -0.190092 1.56449 0
M  V30 1436 C 135.923 -0.54113 1.50146 0
M  V30 1437 C 136.123 -1.85603 0.784465 0
M  V30 1438 O 135.179 -2.5024 0.337051 0
M  V30 1439 C 136.492 -0.591241 2.9483 0
M  V30 1440 C 138.04 -0.679732 3.0553 0
M  V30 1441 C 138.515 -0.760908 4.51635 0
M  V30 1442 N 140.006 -0.824302 4.55806 0
M  V30 1443 C 140.741 -0.907365 5.66175 0
M  V30 1444 N 140.237 -0.952422 6.86222 0
M  V30 1445 N 142.03 -0.94494 5.541 0
M  V30 1446 H 134.181 0.67235 2.01478 0
M  V30 1447 H 136.444 0.240127 0.917084 0
M  V30 1448 H 136.15 0.305905 3.50367 0
M  V30 1449 H 136.024 -1.44422 3.48457 0
M  V30 1450 H 138.411 -1.56731 2.50039 0
M  V30 1451 H 138.492 0.199549 2.5502 0
M  V30 1452 H 138.136 0.122336 5.07753 0
M  V30 1453 H 138.066 -1.65606 4.99882 0
M  V30 1454 H 140.557 -0.798526 3.69367 0
M  V30 1455 H 140.87 -1.01645 7.66086 0
M  V30 1456 H 139.215 -0.921014 6.8887 0
M  V30 1457 H 142.406 -0.906612 4.59236 0
M  V30 1458 H 142.579 -1.00622 6.4014 0
M  V30 1459 N 135.985 -1.50799 -0.457987 0
M  V30 1460 C 136.932 -1.70617 -1.5543 0
M  V30 1461 C 137.902 -0.547562 -1.56815 0
M  V30 1462 O 139.087 -0.779647 -1.74144 0
M  V30 1463 C 136.227 -1.81831 -2.93311 0
M  V30 1464 C 135.34 -3.09278 -3.01615 0
M  V30 1465 C 134.475 -3.11209 -4.30491 0
M  V30 1466 C 133.514 -4.33055 -4.32585 0
M  V30 1467 N 132.651 -4.32652 -5.52952 0
M  V30 1468 H 137.491 -2.64207 -1.37836 0
M  V30 1469 H 135.028 -1.30959 -0.669937 0
M  V30 1470 H 136.986 -1.86314 -3.73287 0
M  V30 1471 H 135.616 -0.916685 -3.0951 0
M  V30 1472 H 134.668 -3.14203 -2.1443 0
M  V30 1473 H 135.98 -3.99233 -2.99022 0
M  V30 1474 H 135.134 -3.14494 -5.18824 0
M  V30 1475 H 133.873 -2.19106 -4.35711 0
M  V30 1476 H 132.878 -4.29969 -3.42647 0
M  V30 1477 H 134.103 -5.264 -4.29046 0
M  V30 1478 H 132.049 -3.43409 -5.58933 0
M  V30 1479 H 131.966 -5.16392 -5.52155 0
M  V30 1480 H 133.234 -4.40101 -6.43375 0
M  V30 1481 N 137.463 0.71206 -1.40597 0
M  V30 1482 C 138.41 1.82613 -1.41142 0
M  V30 1483 C 139.38 1.63925 -0.267903 0
M  V30 1484 O 140.565 1.85009 -0.466495 0
M  V30 1485 C 137.705 3.20354 -1.28324 0
M  V30 1486 C 136.818 3.50589 -2.52411 0
M  V30 1487 C 135.953 4.77855 -2.32009 0
M  V30 1488 C 134.992 5.01005 -3.51654 0
M  V30 1489 N 134.129 6.19487 -3.30425 0
M  V30 1490 H 138.969 1.81482 -2.36365 0
M  V30 1491 H 136.506 0.886475 -1.17388 0
M  V30 1492 H 138.464 3.99899 -1.18899 0
M  V30 1493 H 137.094 3.20705 -0.367189 0
M  V30 1494 H 136.146 2.65573 -2.72351 0
M  V30 1495 H 137.458 3.63604 -3.41458 0
M  V30 1496 H 136.612 5.65424 -2.19956 0
M  V30 1497 H 135.351 4.67056 -1.40392 0
M  V30 1498 H 134.356 4.1189 -3.64179 0
M  V30 1499 H 135.581 5.13674 -4.44202 0
M  V30 1500 H 133.527 6.09932 -2.41494 0
M  V30 1501 H 133.444 6.33194 -4.13039 0
M  V30 1502 H 134.712 7.09834 -3.22113 0
M  V30 1503 N 138.941 1.26152 0.944643 0
M  V30 1504 C 139.888 1.07408 2.04285 0
M  V30 1505 C 140.858 -0.0198413 1.66088 0
M  V30 1506 O 142.043 0.139264 1.90291 0
M  V30 1507 C 139.183 0.70945 3.37729 0
M  V30 1508 C 138.296 1.87926 3.88983 0
M  V30 1509 C 137.431 1.45807 5.10797 0
M  V30 1510 C 136.47 2.5964 5.54305 0
M  V30 1511 N 135.607 2.18226 6.67324 0
M  V30 1512 H 140.447 2.01389 2.1965 0
M  V30 1513 H 137.984 1.00275 1.07626 0
M  V30 1514 H 139.942 0.478948 4.14442 0
M  V30 1515 H 138.572 -0.193389 3.2222 0
M  V30 1516 H 137.624 2.22279 3.08701 0
M  V30 1517 H 138.936 2.73377 4.17213 0
M  V30 1518 H 138.09 1.18781 5.94959 0
M  V30 1519 H 136.829 0.574414 4.84305 0
M  V30 1520 H 135.834 2.87399 4.68702 0
M  V30 1521 H 137.059 3.48599 5.828 0
M  V30 1522 H 135.005 1.3229 6.42523 0
M  V30 1523 H 134.922 2.97221 6.95123 0
M  V30 1524 H 136.19 1.94403 7.54869 0
M  V30 1525 N 140.419 -1.14872 1.07899 0
M  V30 1526 C 141.659 -1.8745 0.814965 0
M  V30 1527 C 142.023 -1.80758 -0.64733 0
M  V30 1528 O 143.224 -2.48422 -1.02664 0
M  V30 1529 C 141.495 -3.32286 1.31607 0
M  V30 1530 S 143.054 -4.22537 1.18357 0
M  V30 1531 H 139.872 -0.646833 0.295174 0
M  V30 1532 H 142.474 -1.38555 1.37923 0
M  V30 1533 H 141.178 -3.34703 2.37491 0
M  V30 1534 H 140.709 -3.86238 0.747261 0
M  V30 1535 H 142.724 -4.96044 0.124586 0
M  V30 1536 N 141.898 -0.863906 -1.31812 0
M  V30 1537 C 143.175 -0.39275 -1.91616 0
M  V30 1538 C 143.555 1.12461 -1.7865 0
M  V30 1539 O 142.903 1.95045 -1.19037 0
M  V30 1540 C 143.113 -0.867385 -3.38049 0
M  V30 1541 C 144.461 -0.889966 -4.15168 0
M  V30 1542 O 145.485 -0.812635 -3.46806 0
M  V30 1543 O 144.344 -1.00079 -5.37258 0
M  V30 1544 H 141.438 -0.116358 -0.818773 0
M  V30 1545 H 143.984 -0.951418 -1.40521 0
M  V30 1546 H 142.756 -1.91081 -3.41473 0
M  V30 1547 H 142.379 -0.286687 -3.96565 0
M  V30 1548 N 143.376 1.44774 -0.622745 0
M  V30 1549 C 144.606 2.06187 -0.130532 0
M  V30 1550 C 145.014 1.46547 1.19669 0
M  V30 1551 O 144.357 0.579636 1.74316 0
M  V30 1552 C 144.419 3.59437 0.0674983 0
M  V30 1553 C 144.083 4.41496 -1.18026 0
M  V30 1554 C 145.08 4.75512 -2.102 0
M  V30 1555 C 142.765 4.82007 -1.41333 0
M  V30 1556 C 144.759 5.48912 -3.23998 0
M  V30 1557 C 142.446 5.55157 -2.55429 0
M  V30 1558 C 143.444 5.88528 -3.46589 0
M  V30 1559 O 143.132 6.60191 -4.58697 0
M  V30 1560 H 142.864 0.672045 -0.0730162 0
M  V30 1561 H 145.418 1.86768 -0.854802 0
M  V30 1562 H 143.648 3.77314 0.846825 0
M  V30 1563 H 145.337 4.02642 0.513209 0
M  V30 1564 H 146.103 4.4476 -1.93425 0
M  V30 1565 H 141.982 4.55457 -0.712709 0
M  V30 1566 H 145.526 5.74877 -3.95174 0
M  V30 1567 H 141.423 5.85324 -2.72151 0
M  V30 1568 H 142.191 6.78654 -4.57571 0
M  V30 1569 N 144.854 0.36279 1.53368 0
M  V30 1570 C 146.1 -0.220702 2.02199 0
M  V30 1571 C 146.455 -1.46649 1.24546 0
M  V30 1572 O 145.748 -1.88737 0.32996 0
M  V30 1573 C 145.942 -0.568417 3.52851 0
M  V30 1574 C 145.771 0.642126 4.45092 0
M  V30 1575 C 144.541 1.15335 4.91961 0
M  V30 1576 C 146.739 1.50649 4.91741 0
M  V30 1577 N 144.721 2.3242 5.68202 0
M  V30 1578 C 146.092 2.52404 5.66297 0
M  V30 1579 C 148.147 1.52969 4.73819 0
M  V30 1580 C 146.85 3.56331 6.24836 0
M  V30 1581 C 148.876 2.55789 5.33222 0
M  V30 1582 C 148.238 3.56268 6.07662 0
M  V30 1583 H 144.337 -0.0435508 0.780786 0
M  V30 1584 H 146.921 0.506704 1.87991 0
M  V30 1585 H 145.092 -1.2649 3.67226 0
M  V30 1586 H 146.824 -1.13676 3.88407 0
M  V30 1587 H 143.579 0.718412 4.68119 0
M  V30 1588 H 144.003 2.91591 6.10986 0
M  V30 1589 H 148.645 0.766418 4.15795 0
M  V30 1590 H 146.363 4.33543 6.81958 0
M  V30 1591 H 149.949 2.58435 5.21251 0
M  V30 1592 H 148.829 4.34524 6.52808 0
M  V30 1593 N 146.332 -1.57332 0.0918853 0
M  V30 1594 C 147.581 -1.93412 -0.572249 0
M  V30 1595 C 147.894 -0.975515 -1.69538 0
M  V30 1596 O 149.1 -1.22991 -2.42045 0
M  V30 1597 C 147.556 -3.43648 -1.0693 0
M  V30 1598 C 147.164 -4.47994 0.0239049 0
M  V30 1599 C 148.908 -3.88695 -1.70635 0
M  V30 1600 C 146.815 -5.89381 -0.488319 0
M  V30 1601 H 145.745 -0.721939 -0.217532 0
M  V30 1602 H 148.396 -1.82735 0.167369 0
M  V30 1603 H 146.778 -3.49466 -1.8625 0
M  V30 1604 H 147.952 -4.53815 0.799277 0
M  V30 1605 H 146.267 -4.12536 0.565946 0
M  V30 1606 H 148.864 -4.91725 -2.10025 0
M  V30 1607 H 149.207 -3.27166 -2.57426 0
M  V30 1608 H 149.74 -3.85564 -0.979023 0
M  V30 1609 H 146.479 -6.54602 0.342906 0
M  V30 1610 H 145.999 -5.87037 -1.23077 0
M  V30 1611 H 147.678 -6.39863 -0.958317 0
M  V30 1612 N 147.81 0.181792 -1.56548 0
M  V30 1613 C 149.226 0.53316 -1.50431 0
M  V30 1614 C 149.426 1.85184 -0.794297 0
M  V30 1615 O 148.482 2.50058 -0.350318 0
M  V30 1616 C 149.795 0.575597 -2.9514 0
M  V30 1617 C 151.343 0.663519 -3.05886 0
M  V30 1618 C 151.818 0.736946 -4.52032 0
M  V30 1619 N 153.309 0.800118 -4.56237 0
M  V30 1620 C 154.044 0.877327 -5.66649 0
M  V30 1621 N 153.54 0.916016 -6.86718 0
M  V30 1622 N 155.333 0.915542 -5.54594 0
M  V30 1623 H 147.484 -0.683025 -2.01118 0
M  V30 1624 H 149.747 -0.244988 -0.915797 0
M  V30 1625 H 149.453 -0.324482 -3.502 0
M  V30 1626 H 149.327 1.42572 -3.49218 0
M  V30 1627 H 151.714 1.55403 -2.50867 0
M  V30 1628 H 151.795 -0.21307 -2.54911 0
M  V30 1629 H 151.439 -0.149262 -5.07681 0
M  V30 1630 H 151.369 1.62953 -5.00753 0
M  V30 1631 H 153.86 0.778926 -3.69785 0
M  V30 1632 H 154.173 0.975813 -7.66614 0
M  V30 1633 H 152.518 0.884469 -6.89349 0
M  V30 1634 H 155.709 0.882245 -4.59711 0
M  V30 1635 H 155.882 0.972253 -6.40665 0
M  V30 1636 N 149.288 1.51039 0.449983 0
M  V30 1637 C 150.516 1.66869 1.2232 0
M  V30 1638 C 150.931 0.360727 1.85322 0
M  V30 1639 O 150.288 -0.659531 1.70166 0
M  V30 1640 C 150.339 2.77524 2.31652 0
M  V30 1641 O 150.06 4.03252 1.7123 0
M  V30 1642 C 151.561 3.04512 3.2216 0
M  V30 1643 H 148.781 0.560326 0.369155 0
M  V30 1644 H 151.325 1.97385 0.534719 0
M  V30 1645 H 149.48 2.49642 2.96239 0
M  V30 1646 H 149.894 4.64609 2.43389 0
M  V30 1647 H 151.368 3.85551 3.95038 0
M  V30 1648 H 151.845 2.16415 3.8218 0
M  V30 1649 H 152.451 3.34005 2.63288 0
M  V30 1650 N 150.766 -0.704594 1.40972 0
M  V30 1651 C 152.013 -1.46458 1.39844 0
M  V30 1652 C 152.341 -1.94499 0.00447594 0
M  V30 1653 O 151.596 -1.69275 -0.982057 0
M  V30 1654 C 151.895 -2.698 2.34399 0
M  V30 1655 C 151.561 -2.40464 3.81429 0
M  V30 1656 C 150.223 -2.32174 4.21484 0
M  V30 1657 C 152.575 -2.16086 4.74296 0
M  V30 1658 C 149.903 -1.97589 5.52427 0
M  V30 1659 C 152.255 -1.83011 6.05549 0
M  V30 1660 C 150.919 -1.7321 6.44635 0
M  V30 1661 H 150.189 -0.535927 0.511725 0
M  V30 1662 H 152.836 -0.806124 1.73706 0
M  V30 1663 H 151.141 -3.40536 1.93759 0
M  V30 1664 H 152.838 -3.27919 2.30804 0
M  V30 1665 H 149.428 -2.47808 3.49699 0
M  V30 1666 H 153.612 -2.2144 4.4416 0
M  V30 1667 H 148.868 -1.88547 5.81601 0
M  V30 1668 H 153.042 -1.63164 6.77016 0
M  V30 1669 H 150.669 -1.46179 7.46013 0
M  V30 1670 N 152.244 -1.26651 -0.937939 0
M  V30 1671 C 153.49 -1.12553 -1.687 0
M  V30 1672 C 153.823 0.329782 -1.91379 0
M  V30 1673 O 153.098 1.24202 -1.4968 0
M  V30 1674 C 153.381 -1.89862 -3.05981 0
M  V30 1675 C 153.234 -3.43318 -2.90607 0
M  V30 1676 C 154.553 -1.69499 -4.0615 0
M  V30 1677 H 151.672 -0.410257 -0.612257 0
M  V30 1678 H 154.314 -1.55685 -1.08913 0
M  V30 1679 H 152.464 -1.53204 -3.57017 0
M  V30 1680 H 154.136 -3.89747 -2.46769 0
M  V30 1681 H 152.379 -3.70179 -2.26164 0
M  V30 1682 H 153.05 -3.92642 -3.8799 0
M  V30 1683 H 155.526 -2.01442 -3.64088 0
M  V30 1684 H 154.402 -2.26002 -5.00214 0
M  V30 1685 H 154.663 -0.640365 -4.37438 0
M  V30 1686 N 153.722 1.14298 -1.08507 0
M  V30 1687 C 155.133 1.66926 -0.836227 0
M  V30 1688 C 155.484 1.85576 0.63686 0
M  V30 1689 O 154.609 1.56767 1.49175 0
M  V30 1690 C 155.204 3.03219 -1.51142 0
M  V30 1691 C 153.763 3.52876 -1.30979 0
M  V30 1692 C 152.91 2.2833 -1.57356 0
M  V30 1693 H 155.861 0.983491 -1.24552 0
M  V30 1694 H 155.882 3.68726 -0.939211 0
M  V30 1695 H 155.394 2.89612 -2.58353 0
M  V30 1696 H 153.495 3.71703 -0.258429 0
M  V30 1697 H 153.608 4.33586 -2.03814 0
M  V30 1698 H 151.972 2.34454 -0.995164 0
M  V30 1699 H 152.755 2.17298 -2.65775 0
M  V30 1700 N 155.201 0.870884 1.31352 0
M  V30 1701 C 156.449 0.48132 1.96285 0
M  V30 1702 C 156.77 -0.969813 1.69173 0
M  V30 1703 O 156.04 -1.67998 1.00764 0
M  V30 1704 H 154.62 0.175002 0.726212 0
M  V30 1705 H 157.282 1.11087 1.60143 0
M  V30 1706 H 156.378 0.639825 3.05471 0
M  V30 1707 N 156.679 -1.44442 0.630414 0
M  V30 1708 C 157.919 -2.03934 0.137919 0
M  V30 1709 C 158.283 -1.48509 -1.21692 0
M  V30 1710 O 159.484 -1.99499 -1.80149 0
M  V30 1711 C 157.755 -3.57187 0.123373 0
M  V30 1712 S 159.314 -4.37741 -0.304604 0
M  V30 1713 H 156.132 -0.708401 0.0607353 0
M  V30 1714 H 158.734 -1.76835 0.833643 0
M  V30 1715 H 157.438 -3.95032 1.11256 0
M  V30 1716 H 156.969 -3.88895 -0.59362 0
M  V30 1717 H 158.984 -4.71403 -1.54897 0
M  V30 1718 N 158.157 -0.370918 -1.53173 0
M  V30 1719 C 159.089 0.507823 -2.23503 0
M  V30 1720 C 160.102 1.04182 -1.251 0
M  V30 1721 O 161.291 0.947286 -1.5129 0
M  V30 1722 C 158.391 1.71447 -2.92334 0
M  V30 1723 C 157.564 1.31105 -4.17289 0
M  V30 1724 C 156.623 2.38035 -4.69282 0
M  V30 1725 O 155.649 2.00204 -5.32829 0
M  V30 1726 N 156.851 3.69697 -4.47554 0
M  V30 1727 H 159.616 -0.0946382 -2.99551 0
M  V30 1728 H 157.177 -0.196358 -1.60705 0
M  V30 1729 H 159.169 2.42469 -3.24023 0
M  V30 1730 H 157.739 2.22368 -2.19707 0
M  V30 1731 H 156.959 0.430462 -3.91843 0
M  V30 1732 H 158.247 1.0179 -4.98514 0
M  V30 1733 H 157.645 4.03205 -3.9679 0
M  V30 1734 H 156.202 4.36807 -4.8378 0
M  V30 1735 N 159.635 1.57281 -0.100228 0
M  V30 1736 C 161.046 1.81725 0.428107 0
M  V30 1737 C 161.397 1.01619 1.67833 0
M  V30 1738 O 160.522 0.247098 2.14985 0
M  V30 1739 C 161.117 3.29617 0.78347 0
M  V30 1740 C 159.676 3.54808 1.25653 0
M  V30 1741 C 158.823 2.76118 0.255752 0
M  V30 1742 H 161.774 1.55324 -0.325608 0
M  V30 1743 H 161.795 3.4322 1.64256 0
M  V30 1744 H 161.307 3.87893 -0.12665 0
M  V30 1745 H 159.408 3.01868 2.18418 0
M  V30 1746 H 159.521 4.63443 1.21482 0
M  V30 1747 H 157.885 2.43745 0.738956 0
M  V30 1748 H 158.668 3.37145 -0.647136 0
M  V30 1749 N 161.113 -0.173488 1.56642 0
M  V30 1750 C 162.361 -0.888706 1.81512 0
M  V30 1751 C 162.682 -1.82875 0.676872 0
M  V30 1752 O 161.952 -1.93536 -0.303414 0
M  V30 1753 H 160.532 -0.331164 0.669582 0
M  V30 1754 H 163.194 -0.173823 1.94123 0
M  V30 1755 H 162.29 -1.46691 2.75478 0
M  V30 1756 N 162.591 -1.51276 -0.441967 0
M  V30 1757 C 163.501 -1.75092 -1.56141 0
M  V30 1758 C 164.517 -0.634963 -1.62001 0
M  V30 1759 O 165.693 -0.916686 -1.79329 0
M  V30 1760 C 162.758 -1.86666 -2.92158 0
M  V30 1761 C 161.819 -3.10506 -2.96453 0
M  V30 1762 C 161.052 -3.21519 -4.25982 0
M  V30 1763 O 161.275 -2.38586 -5.18105 0
M  V30 1764 O 160.209 -4.14465 -4.36466 0
M  V30 1765 H 164.035 -2.70044 -1.38961 0
M  V30 1766 H 161.62 -1.35722 -0.624499 0
M  V30 1767 H 163.502 -1.96292 -3.72891 0
M  V30 1768 H 162.177 -0.949014 -3.09476 0
M  V30 1769 H 161.084 -3.06363 -2.14692 0
M  V30 1770 H 162.417 -4.01945 -2.84079 0
M  V30 1771 N 164.069 0.697108 -1.41344 0
M  V30 1772 C 165.316 1.45714 -1.40619 0
M  V30 1773 C 165.644 1.94494 -0.0147907 0
M  V30 1774 O 164.899 1.69794 0.973066 0
M  V30 1775 C 165.198 2.68553 -2.35826 0
M  V30 1776 C 164.864 2.38438 -3.82698 0
M  V30 1777 C 163.526 2.29936 -4.22709 0
M  V30 1778 C 165.878 2.13567 -4.75435 0
M  V30 1779 C 163.206 1.94656 -5.53467 0
M  V30 1780 C 165.558 1.79797 -6.06511 0
M  V30 1781 C 164.222 1.69789 -6.45545 0
M  V30 1782 H 163.492 0.533206 -0.51456 0
M  V30 1783 H 166.139 0.796901 -1.74131 0
M  V30 1784 H 164.444 3.39503 -1.95563 0
M  V30 1785 H 166.141 3.2669 -2.32539 0
M  V30 1786 H 162.731 2.4595 -3.51008 0
M  V30 1787 H 166.915 2.19082 -4.45328 0
M  V30 1788 H 162.171 1.8546 -5.82593 0
M  V30 1789 H 166.345 1.59572 -6.77872 0
M  V30 1790 H 163.972 1.4222 -7.46778 0
M  V30 1791 N 165.547 1.27147 0.931209 0
M  V30 1792 C 166.775 1.16082 1.71267 0
M  V30 1793 C 167.19 -0.282772 1.8667 0
M  V30 1794 O 166.547 -1.19283 1.38122 0
M  V30 1795 C 166.598 1.8358 3.11417 0
M  V30 1796 O 166.319 3.22299 2.96741 0
M  V30 1797 C 167.82 1.78597 4.05732 0
M  V30 1798 H 165.04 0.403758 0.535929 0
M  V30 1799 H 167.584 1.67953 1.16671 0
M  V30 1800 H 165.739 1.35623 3.62885 0
M  V30 1801 H 166.153 3.55851 3.85319 0
M  V30 1802 H 167.627 2.30444 5.01597 0
M  V30 1803 H 168.104 0.754564 4.3267 0
M  V30 1804 H 168.71 2.26152 3.60188 0
M  V30 1805 N 167.025 -1.13721 1.09112 0
M  V30 1806 C 167.955 -2.21148 0.749385 0
M  V30 1807 C 168.936 -1.6792 -0.271475 0
M  V30 1808 O 170.121 -1.93693 -0.140251 0
M  V30 1809 C 167.251 -3.46905 0.165659 0
M  V30 1810 C 166.205 -4.13203 1.11567 0
M  V30 1811 C 165.531 -5.33248 0.393809 0
M  V30 1812 C 166.831 -4.60912 2.45678 0
M  V30 1813 H 168.525 -2.4999 1.64758 0
M  V30 1814 H 166.071 -1.20156 0.793626 0
M  V30 1815 H 168.024 -4.21313 -0.085466 0
M  V30 1816 H 166.748 -3.17449 -0.767714 0
M  V30 1817 H 165.407 -3.40758 1.35202 0
M  V30 1818 H 165.055 -5.00054 -0.543599 0
M  V30 1819 H 164.755 -5.78552 1.02721 0
M  V30 1820 H 166.279 -6.10413 0.150908 0
M  V30 1821 H 167.693 -5.26759 2.26269 0
M  V30 1822 H 166.09 -5.16944 3.04776 0
M  V30 1823 H 167.16 -3.75603 3.06677 0
M  V30 1824 N 168.503 -0.877838 -1.30888 0
M  V30 1825 C 169.751 -0.491723 -1.96027 0
M  V30 1826 C 170.072 0.960827 -1.69685 0
M  V30 1827 O 169.342 1.67462 -1.01654 0
M  V30 1828 H 167.922 -0.17885 -0.725273 0
M  V30 1829 H 170.584 -1.11935 -1.59551 0
M  V30 1830 H 169.68 -0.656016 -3.05128 0
M  V30 1831 N 169.982 1.44106 -0.638065 0
M  V30 1832 C 170.93 2.3248 0.0748149 0
M  V30 1833 C 171.924 1.47746 0.828702 0
M  V30 1834 O 173.13 1.64049 0.740816 0
M  V30 1835 H 169.505 0.750771 0.0429686 0
M  V30 1836 H 171.476 2.90348 -0.688504 0
M  V30 1837 C 170.225 3.31843 1.03805 0
M  V30 1838 H 169.548 3.97059 0.467375 0
M  V30 1839 H 170.988 3.96345 1.50622 0
M  V30 1840 C 169.447 2.61291 2.1267 0
M  V30 1841 O 169.977 2.41702 3.20847 0
M  V30 1842 N 168.183 2.20915 1.88798 0
M  V30 1843 H 167.73 2.37047 1.00829 0
M  V30 1844 H 167.688 1.74038 2.61836 0
M  V30 1845 N 171.46 0.379036 1.52974 0
M  V30 1846 C 172.709 -0.207612 2.00629 0
M  V30 1847 C 173.022 -1.48758 1.27006 0
M  V30 1848 O 174.228 -2.15365 1.65318 0
M  V30 1849 C 172.684 -0.42053 3.57435 0
M  V30 1850 C 172.292 0.845587 4.39948 0
M  V30 1851 C 174.036 -0.964102 4.13407 0
M  V30 1852 C 171.943 0.601513 5.88333 0
M  V30 1853 H 170.873 -0.0813591 0.749598 0
M  V30 1854 H 173.524 0.499853 1.76561 0
M  V30 1855 H 171.906 -1.18959 3.7771 0
M  V30 1856 H 173.08 1.61848 4.31442 0
M  V30 1857 H 171.395 1.31336 3.95145 0
M  V30 1858 H 173.992 -1.16225 5.21916 0
M  V30 1859 H 174.335 -1.93019 3.68849 0
M  V30 1860 H 174.868 -0.25487 3.96983 0
M  V30 1861 H 171.607 1.53831 6.37194 0
M  V30 1862 H 171.127 -0.132628 5.99653 0
M  V30 1863 H 172.806 0.232134 6.46583 0
M  V30 1864 N 172.938 -1.57226 0.108567 0
M  V30 1865 C 173.885 -2.14756 -0.845481 0
M  V30 1866 C 174.855 -1.06971 -1.27068 0
M  V30 1867 O 176.04 -1.34827 -1.35005 0
M  V30 1868 C 173.18 -2.74298 -2.09415 0
M  V30 1869 C 172.293 -3.96358 -1.71826 0
M  V30 1870 C 171.428 -4.44021 -2.9158 0
M  V30 1871 C 170.467 -5.58637 -2.50181 0
M  V30 1872 N 169.604 -6.01091 -3.62814 0
M  V30 1873 H 174.444 -2.95961 -0.348035 0
M  V30 1874 H 171.981 -1.46226 -0.160106 0
M  V30 1875 H 173.939 -3.06945 -2.82561 0
M  V30 1876 H 172.569 -1.95801 -2.56636 0
M  V30 1877 H 171.621 -3.69939 -0.885947 0
M  V30 1878 H 172.933 -4.79504 -1.37394 0
M  V30 1879 H 172.087 -4.78522 -3.72963 0
M  V30 1880 H 170.826 -3.59803 -3.29231 0
M  V30 1881 H 169.831 -5.23751 -1.67228 0
M  V30 1882 H 171.056 -6.44613 -2.13659 0
M  V30 1883 H 169.002 -5.19817 -4.00158 0
M  V30 1884 H 168.919 -6.79066 -3.32273 0
M  V30 1885 H 170.187 -6.40227 -4.44668 0
M  V30 1886 N 174.416 0.165178 -1.56732 0
M  V30 1887 C 175.641 0.900253 -1.86843 0
M  V30 1888 C 176.066 1.74766 -0.695596 0
M  V30 1889 O 175.424 1.77786 0.35522 0
M  V30 1890 C 175.472 1.74777 -3.15413 0
M  V30 1891 O 174.576 2.85007 -2.98068 0
M  V30 1892 H 173.917 0.251832 -0.614391 0
M  V30 1893 H 176.447 0.161468 -2.03962 0
M  V30 1894 H 176.457 2.14646 -3.46974 0
M  V30 1895 H 175.132 1.12537 -4.00385 0
M  V30 1896 H 173.709 2.48676 -2.77875 0
M  V30 1897 N 175.894 1.51508 0.433938 0
M  V30 1898 C 177.124 1.67914 1.20369 0
M  V30 1899 C 177.532 0.377461 1.85397 0
M  V30 1900 O 176.875 -0.654255 1.71654 0
M  V30 1901 C 176.937 2.74045 2.32679 0
M  V30 1902 C 176.601 4.16543 1.87991 0
M  V30 1903 C 177.598 5.01211 1.38145 0
M  V30 1904 C 175.283 4.6266 1.95579 0
M  V30 1905 C 177.277 6.30056 0.964774 0
M  V30 1906 C 174.964 5.91501 1.53523 0
M  V30 1907 C 175.962 6.75027 1.04055 0
M  V30 1908 O 175.65 8.01459 0.625964 0
M  V30 1909 H 175.382 0.566578 0.368735 0
M  V30 1910 H 177.936 1.98709 0.51999 0
M  V30 1911 H 176.166 2.38572 3.04336 0
M  V30 1912 H 177.855 2.79295 2.94532 0
M  V30 1913 H 178.621 4.66783 1.31675 0
M  V30 1914 H 174.5 3.97767 2.33029 0
M  V30 1915 H 178.044 6.95202 0.57796 0
M  V30 1916 H 173.941 6.25442 1.59665 0
M  V30 1917 H 174.709 8.15043 0.751509 0
M  V30 1918 N 177.372 -0.689602 1.41712 0
M  V30 1919 C 178.783 -1.26973 1.36875 0
M  V30 1920 C 179.134 -1.96124 0.054748 0
M  V30 1921 O 178.259 -1.99141 -0.84687 0
M  V30 1922 C 178.854 -2.30912 2.47922 0
M  V30 1923 C 177.413 -2.84486 2.46464 0
M  V30 1924 C 176.56 -1.58603 2.27465 0
M  V30 1925 H 179.511 -0.48396 1.51141 0
M  V30 1926 H 179.532 -3.12331 2.17323 0
M  V30 1927 H 179.044 -1.80554 3.43543 0
M  V30 1928 H 177.145 -3.39005 1.54617 0
M  V30 1929 H 177.258 -3.34511 3.42986 0
M  V30 1930 H 175.622 -1.84632 1.75451 0
M  V30 1931 H 176.405 -1.10233 3.25121 0
M  V30 1932 N 178.85 -1.27639 -0.924453 0
M  V30 1933 C 180.098 -1.13941 -1.66918 0
M  V30 1934 C 180.419 0.314589 -1.92446 0
M  V30 1935 O 179.689 1.21964 -1.53303 0
M  V30 1936 H 178.269 -0.418678 -0.618642 0
M  V30 1937 H 180.931 -1.60213 -1.10985 0
M  V30 1938 H 180.027 -1.67094 -2.63602 0
M  V30 1939 N 180.328 1.1314 -1.09713 0
M  V30 1940 C 181.258 2.20748 -0.761102 0
M  V30 1941 C 182.239 1.68061 0.262566 0
M  V30 1942 O 183.424 1.93765 0.129977 0
M  V30 1943 C 180.554 3.46812 -0.184054 0
M  V30 1944 C 179.508 4.12606 -1.13757 0
M  V30 1945 C 178.834 5.33031 -0.422083 0
M  V30 1946 C 180.134 4.59603 -2.48118 0
M  V30 1947 H 181.828 2.49113 -1.66082 0
M  V30 1948 H 179.374 1.19734 -0.799987 0
M  V30 1949 H 181.327 4.21353 0.0631215 0
M  V30 1950 H 180.051 3.17851 0.750868 0
M  V30 1951 H 178.71 3.40036 -1.37007 0
M  V30 1952 H 178.358 5.00335 0.517072 0
M  V30 1953 H 178.058 5.77999 -1.05788 0
M  V30 1954 H 179.582 6.10325 -0.183277 0
M  V30 1955 H 180.996 5.25552 -2.29059 0
M  V30 1956 H 179.393 5.15321 -3.07514 0
M  V30 1957 H 180.463 3.73971 -3.08665 0
M  V30 1958 N 181.806 0.884767 1.30421 0
M  V30 1959 C 183.034 0.518044 2.0031 0
M  V30 1960 C 183.449 -0.893408 1.66324 0
M  V30 1961 O 182.806 -1.5875 0.900262 0
M  V30 1962 C 182.857 0.682997 3.54989 0
M  V30 1963 O 182.578 2.03888 3.87764 0
M  V30 1964 C 184.079 0.31924 4.42149 0
M  V30 1965 H 181.299 0.200265 0.640418 0
M  V30 1966 H 183.843 1.19001 1.6631 0
M  V30 1967 H 181.998 0.0584052 3.87356 0
M  V30 1968 H 182.412 2.05735 4.82466 0
M  V30 1969 H 183.886 0.485555 5.4986 0
M  V30 1970 H 184.363 -0.742717 4.32875 0
M  V30 1971 H 184.969 0.920147 4.15227 0
M  V30 1972 N 183.284 -1.43765 0.645699 0
M  V30 1973 C 184.509 -2.06767 0.161883 0
M  V30 1974 C 184.934 -1.48034 -1.16049 0
M  V30 1975 O 184.292 -0.587369 -1.71522 0
M  V30 1976 C 184.34 -3.60519 0.0762003 0
M  V30 1977 O 183.444 -4.00982 -0.963721 0
M  V30 1978 H 182.785 -0.657675 0.091429 0
M  V30 1979 H 185.315 -1.84397 0.886499 0
M  V30 1980 H 185.325 -4.07853 -0.109604 0
M  V30 1981 H 184 -4.02646 1.04157 0
M  V30 1982 H 182.577 -3.65253 -0.751312 0
M  V30 1983 N 184.763 -0.387143 -1.52771 0
M  V30 1984 C 185.993 0.195585 -2.05672 0
M  V30 1985 C 186.401 1.41241 -1.25887 0
M  V30 1986 O 185.744 1.81265 -0.298081 0
M  V30 1987 C 185.806 0.632327 -3.53895 0
M  V30 1988 C 185.47 -0.470739 -4.54569 0
M  V30 1989 C 186.467 -1.32746 -5.02667 0
M  V30 1990 C 184.152 -0.637151 -4.98243 0
M  V30 1991 C 186.146 -2.33574 -5.93061 0
M  V30 1992 C 183.833 -1.64877 -5.88438 0
M  V30 1993 C 184.831 -2.49649 -6.35739 0
M  V30 1994 O 184.519 -3.49082 -7.24153 0
M  V30 1995 H 184.251 0.033658 -0.675162 0
M  V30 1996 H 186.805 -0.550221 -1.97893 0
M  V30 1997 H 185.035 1.43008 -3.59285 0
M  V30 1998 H 186.724 1.14048 -3.89548 0
M  V30 1999 H 187.49 -1.21019 -4.69659 0
M  V30 2000 H 183.369 0.0129567 -4.60998 0
M  V30 2001 H 186.913 -2.99777 -6.29904 0
M  V30 2002 H 182.81 -1.76643 -6.2086 0
M  V30 2003 H 183.578 -3.45065 -7.42208 0
M  V30 2004 N 186.241 1.57166 -0.116904 0
M  V30 2005 C 187.171 2.18222 0.830759 0
M  V30 2006 C 188.152 1.12167 1.27877 0
M  V30 2007 O 189.337 1.40394 1.34176 0
M  V30 2008 C 186.467 2.77996 2.08172 0
M  V30 2009 C 185.421 3.89614 1.77157 0
M  V30 2010 C 184.747 4.36187 3.09265 0
M  V30 2011 C 186.047 5.1181 1.04151 0
M  V30 2012 H 187.741 2.97664 0.321992 0
M  V30 2013 H 185.287 1.4318 0.153434 0
M  V30 2014 H 187.24 3.19366 2.74924 0
M  V30 2015 H 185.964 1.9584 2.6137 0
M  V30 2016 H 184.623 3.48816 1.12796 0
M  V30 2017 H 184.271 3.50893 3.60393 0
M  V30 2018 H 183.971 5.11455 2.89288 0
M  V30 2019 H 185.495 4.80207 3.77139 0
M  V30 2020 H 186.909 5.50214 1.61052 0
M  V30 2021 H 185.306 5.92648 0.942762 0
M  V30 2022 H 186.376 4.84892 0.0279022 0
M  V30 2023 N 187.719 -0.156864 1.56817 0
M  V30 2024 C 188.965 -0.872416 1.83076 0
M  V30 2025 C 189.298 -1.81261 0.697001 0
M  V30 2026 O 188.573 -1.92171 -0.30008 0
M  V30 2027 C 188.856 -1.65551 3.19789 0
M  V30 2028 C 188.709 -0.737467 4.43713 0
M  V30 2029 C 190.028 -2.62012 3.53606 0
M  V30 2030 H 187.147 -0.315715 0.665953 0
M  V30 2031 H 189.789 -0.138004 1.89498 0
M  V30 2032 H 187.939 -2.28159 3.14445 0
M  V30 2033 H 189.611 -0.123143 4.61136 0
M  V30 2034 H 187.854 -0.0464067 4.33775 0
M  V30 2035 H 188.525 -1.32122 5.35955 0
M  V30 2036 H 191.001 -2.09525 3.59497 0
M  V30 2037 H 189.877 -3.13861 4.50314 0
M  V30 2038 H 190.138 -3.42902 2.79053 0
M  V30 2039 N 189.197 -1.51736 -0.425897 0
M  V30 2040 C 190.613 -1.40166 -0.76326 0
M  V30 2041 C 190.813 -0.492962 -1.95377 0
M  V30 2042 O 189.869 0.0475815 -2.52455 0
M  V30 2043 C 191.182 -2.82403 -1.03291 0
M  V30 2044 C 192.73 -2.91632 -1.13665 0
M  V30 2045 C 193.205 -4.34801 -1.43916 0
M  V30 2046 N 194.696 -4.3796 -1.50816 0
M  V30 2047 C 195.431 -5.4578 -1.75817 0
M  V30 2048 N 194.927 -6.63744 -1.98534 0
M  V30 2049 N 196.72 -5.33274 -1.77694 0
M  V30 2050 H 188.871 -2.09361 0.358 0
M  V30 2051 H 191.134 -0.942941 0.0978094 0
M  V30 2052 H 190.84 -3.50943 -0.230696 0
M  V30 2053 H 190.714 -3.22428 -1.95754 0
M  V30 2054 H 193.101 -2.23284 -1.92947 0
M  V30 2055 H 193.182 -2.55088 -0.190756 0
M  V30 2056 H 192.826 -5.03703 -0.65157 0
M  V30 2057 H 192.756 -4.68868 -2.39729 0
M  V30 2058 H 195.247 -3.52919 -1.35118 0
M  V30 2059 H 195.56 -7.41704 -2.17013 0
M  V30 2060 H 193.905 -6.66839 -1.95832 0
M  V30 2061 H 197.096 -4.40098 -1.59473 0
M  V30 2062 H 197.269 -6.1738 -1.9684 0
M  V30 2063 N 190.675 0.682077 -1.42076 0
M  V30 2064 C 191.921 1.44428 -1.42367 0
M  V30 2065 C 192.254 1.94164 -0.0373056 0
M  V30 2066 O 191.529 1.70429 0.937239 0
M  V30 2067 C 191.812 2.64654 -2.44194 0
M  V30 2068 C 191.665 2.20596 -3.91991 0
M  V30 2069 C 192.984 3.66865 -2.431 0
M  V30 2070 H 190.103 0.523834 -0.518428 0
M  V30 2071 H 192.745 0.77576 -1.73442 0
M  V30 2072 H 190.895 3.2169 -2.17826 0
M  V30 2073 H 192.567 1.68783 -4.29313 0
M  V30 2074 H 190.81 1.52242 -4.06208 0
M  V30 2075 H 191.481 3.06921 -4.58807 0
M  V30 2076 H 193.957 3.19531 -2.66532 0
M  V30 2077 H 192.833 4.48577 -3.16339 0
M  V30 2078 H 193.094 4.17493 -1.45437 0
M  V30 2079 N 192.153 1.28127 0.917671 0
M  V30 2080 C 193.399 1.15223 1.66888 0
M  V30 2081 C 193.732 -0.299293 1.9188 0
M  V30 2082 O 193.007 -1.21805 1.51637 0
M  V30 2083 C 193.29 1.94706 3.02922 0
M  V30 2084 C 193.143 3.47898 2.85109 0
M  V30 2085 C 194.462 1.75939 4.03402 0
M  V30 2086 H 191.581 0.419946 0.605652 0
M  V30 2087 H 194.223 1.57398 1.06423 0
M  V30 2088 H 192.373 1.58864 3.54534 0
M  V30 2089 H 194.045 3.93624 2.40537 0
M  V30 2090 H 192.288 3.7373 2.20246 0
M  V30 2091 H 192.959 3.98765 3.81694 0
M  V30 2092 H 195.435 2.07209 3.60837 0
M  V30 2093 H 194.311 2.33931 4.96556 0
M  V30 2094 H 194.572 0.709877 4.36364 0
M  V30 2095 N 193.631 -1.12557 1.10312 0
M  V30 2096 C 194.856 -1.88405 0.867085 0
M  V30 2097 C 195.281 -1.79038 -0.576817 0
M  V30 2098 O 194.639 -1.14439 -1.40618 0
M  V30 2099 C 194.687 -3.3563 1.31851 0
M  V30 2100 O 193.791 -4.09565 0.482734 0
M  V30 2101 H 193.132 -0.585455 0.313271 0
M  V30 2102 H 195.662 -1.42352 1.4696 0
M  V30 2103 H 195.672 -3.86469 1.3079 0
M  V30 2104 H 194.347 -3.41765 2.37001 0
M  V30 2105 H 192.924 -3.68695 0.558448 0
M  V30 2106 N 195.109 -0.891671 -1.2995 0
M  V30 2107 C 196.337 -0.52866 -2.00032 0
M  V30 2108 C 196.752 0.884574 -1.66795 0
M  V30 2109 O 196.109 1.5827 -0.908669 0
M  V30 2110 C 196.16 -0.701814 -3.54622 0
M  V30 2111 O 195.881 -2.05942 -3.86678 0
M  V30 2112 C 197.382 -0.342683 -4.41973 0
M  V30 2113 H 194.602 -0.203659 -0.639347 0
M  V30 2114 H 197.146 -1.19881 -1.65677 0
M  V30 2115 H 195.301 -0.0789468 -3.8732 0
M  V30 2116 H 195.715 -2.08291 -4.81368 0
M  V30 2117 H 197.189 -0.514709 -5.49595 0
M  V30 2118 H 197.666 0.71975 -4.33262 0
M  V30 2119 H 198.272 -0.942154 -4.14733 0
M  V30 2120 N 196.587 1.43421 -0.653314 0
M  V30 2121 C 197.535 2.32546 0.0501531 0
M  V30 2122 C 198.529 1.48617 0.812985 0
M  V30 2123 O 199.735 1.64825 0.723375 0
M  V30 2124 H 196.11 0.751185 0.0350032 0
M  V30 2125 H 198.081 2.89602 -0.719261 0
M  V30 2126 C 196.83 3.32925 1.00279 0
M  V30 2127 H 196.153 3.97532 0.425236 0
M  V30 2128 H 197.593 3.9792 1.46409 0
M  V30 2129 C 196.052 2.63532 2.09886 0
M  V30 2130 O 196.582 2.45092 3.18265 0
M  V30 2131 N 194.788 2.22905 1.86445 0
M  V30 2132 H 194.335 2.38103 0.98309 0
M  V30 2133 H 194.293 1.76805 2.59976 0
M  V30 2134 N 198.065 0.39524 1.52563 0
M  V30 2135 C 199.295 -0.184675 2.05773 0
M  V30 2136 C 199.703 -1.40571 1.26635 0
M  V30 2137 O 199.046 -1.81105 0.30769 0
M  V30 2138 C 199.108 -0.613551 3.54226 0
M  V30 2139 C 198.772 0.49484 4.54313 0
M  V30 2140 C 199.769 1.3541 5.01956 0
M  V30 2141 C 197.454 0.663565 4.97898 0
M  V30 2142 C 199.448 2.36716 5.91814 0
M  V30 2143 C 197.135 1.67996 5.87555 0
M  V30 2144 C 198.133 2.53017 6.34406 0
M  V30 2145 O 197.821 3.52917 7.22291 0
M  V30 2146 H 197.553 -0.030077 0.675331 0
M  V30 2147 H 200.107 0.560708 1.97599 0
M  V30 2148 H 198.337 -1.411 3.60038 0
M  V30 2149 H 200.026 -1.11981 3.90148 0
M  V30 2150 H 200.792 1.23509 4.6901 0
M  V30 2151 H 196.671 0.0114913 4.60999 0
M  V30 2152 H 200.215 3.03113 6.28306 0
M  V30 2153 H 196.112 1.79933 6.19915 0
M  V30 2154 H 196.88 3.48996 7.40367 0
M  V30 2155 N 199.544 -1.57102 0.125237 0
M  V30 2156 C 200.492 -2.16905 -0.839927 0
M  V30 2157 C 201.486 -1.11998 -1.27094 0
M  V30 2158 O 202.692 -1.3029 -1.24195 0
M  V30 2159 H 199.067 -0.694252 -0.288995 0
M  V30 2160 H 201.038 -2.96774 -0.311115 0
M  V30 2161 C 199.787 -2.78795 -2.07771 0
M  V30 2162 H 199.11 -3.59221 -1.755 0
M  V30 2163 H 200.55 -3.2417 -2.73295 0
M  V30 2164 C 199.009 -1.76193 -2.87155 0
M  V30 2165 O 199.539 -1.21909 -3.82755 0
M  V30 2166 N 197.745 -1.45991 -2.51267 0
M  V30 2167 H 197.292 -1.90325 -1.73592 0
M  V30 2168 H 197.25 -0.775844 -3.04677 0
M  V30 2169 N 201.022 0.148545 -1.56898 0
M  V30 2170 C 201.954 1.20852 -1.9475 0
M  V30 2171 C 202.967 1.39265 -0.843152 0
M  V30 2172 O 204.156 1.38864 -1.12156 0
M  V30 2173 C 201.256 2.57362 -2.20495 0
M  V30 2174 C 200.429 2.59947 -3.51776 0
M  V30 2175 C 199.488 3.77984 -3.6608 0
M  V30 2176 O 198.514 3.62929 -4.38487 0
M  V30 2177 N 199.716 4.95375 -3.02629 0
M  V30 2178 H 202.481 0.886804 -2.86279 0
M  V30 2179 H 200.042 0.338121 -1.5833 0
M  V30 2180 H 202.034 3.34833 -2.27307 0
M  V30 2181 H 200.604 2.81832 -1.35238 0
M  V30 2182 H 199.824 1.68403 -3.56419 0
M  V30 2183 H 201.112 2.58704 -4.38121 0
M  V30 2184 H 200.51 5.10509 -2.43715 0
M  V30 2185 H 199.067 5.70627 -3.15004 0
M  V30 2186 N 202.5 1.5196 0.417844 0
M  V30 2187 C 203.45 1.7106 1.5074 0
M  V30 2188 C 204.434 0.564487 1.50673 0
M  V30 2189 O 205.626 0.821206 1.56797 0
M  V30 2190 C 202.755 1.85677 2.88754 0
M  V30 2191 C 201.841 3.06133 2.93502 0
M  V30 2192 N 202.232 4.28987 2.67962 0
M  V30 2193 C 200.53 3.05787 3.24669 0
M  V30 2194 C 201.231 5.10395 2.79055 0
M  V30 2195 N 200.207 4.45455 3.11561 0
M  V30 2196 H 204.009 2.63696 1.29775 0
M  V30 2197 H 201.523 1.49873 0.625436 0
M  V30 2198 H 203.52 1.97475 3.67164 0
M  V30 2199 H 202.18 0.942348 3.10725 0
M  V30 2200 H 203.191 4.57607 2.4252 0
M  V30 2201 H 199.868 2.2405 3.52289 0
M  V30 2202 H 201.258 6.18247 2.63097 0
M  V30 2203 N 203.978 -0.674533 1.42435 0
M  V30 2204 C 204.941 -1.76986 1.45632 0
M  V30 2205 C 205.941 -1.5708 0.343871 0
M  V30 2206 O 207.131 -1.63367 0.604709 0
M  V30 2207 C 204.263 -3.15623 1.28822 0
M  V30 2208 H 205.456 -1.75539 2.43158 0
M  V30 2209 H 203.009 -0.884189 1.28887 0
M  V30 2210 H 203.744 -3.22696 0.322193 0
M  V30 2211 H 203.529 -3.31475 2.09444 0
M  V30 2212 H 205.019 -3.95537 1.33942 0
M  V30 2213 N 205.456 -1.28612 -0.910864 0
M  V30 2214 C 206.389 -1.07109 -2.01502 0
M  V30 2215 C 207.367 0.013706 -1.62594 0
M  V30 2216 O 208.551 -0.134796 -1.88017 0
M  V30 2217 C 205.678 -0.628255 -3.32822 0
M  V30 2218 C 204.724 -1.71012 -3.90714 0
M  V30 2219 S 205.557 -3.30676 -4.21205 0
M  V30 2220 C 206.713 -2.88234 -5.55583 0
M  V30 2221 H 206.946 -2.00591 -2.19432 0
M  V30 2222 H 204.479 -1.12633 -1.05609 0
M  V30 2223 H 206.437 -0.37946 -4.08742 0
M  V30 2224 H 205.098 0.28678 -3.12788 0
M  V30 2225 H 204.291 -1.35195 -4.85529 0
M  V30 2226 H 203.893 -1.91186 -3.21441 0
M  V30 2227 H 206.185 -2.34584 -6.35591 0
M  V30 2228 H 207.128 -3.81857 -5.96314 0
M  V30 2229 H 207.536 -2.26862 -5.16908 0
M  V30 2230 N 206.934 1.1197 -1.10907 0
M  V30 2231 C 208.18 1.8386 -0.855773 0
M  V30 2232 C 208.513 1.84134 0.617103 0
M  V30 2233 O 207.788 1.29041 1.45529 0
M  V30 2234 C 208.071 3.31305 -1.411 0
M  V30 2235 C 207.924 3.39456 -2.9511 0
M  V30 2236 C 209.243 4.2721 -1.05736 0
M  V30 2237 H 206.362 0.667545 -0.312334 0
M  V30 2238 H 209.004 1.31331 -1.37303 0
M  V30 2239 H 207.154 3.76169 -0.97105 0
M  V30 2240 H 208.826 3.03191 -3.47668 0
M  V30 2241 H 207.069 2.79849 -3.31462 0
M  V30 2242 H 207.74 4.43209 -3.29044 0
M  V30 2243 H 210.216 3.90497 -1.43706 0
M  V30 2244 H 209.092 5.28775 -1.47269 0
M  V30 2245 H 209.353 4.42088 0.0325958 0
M  V30 2246 N 208.412 0.89855 1.29475 0
M  V30 2247 C 209.659 0.523882 1.95606 0
M  V30 2248 C 209.987 -0.929608 1.70847 0
M  V30 2249 O 209.242 -1.67401 1.01367 0
M  V30 2250 C 209.541 0.761398 3.49195 0
M  V30 2251 C 209.207 2.19207 3.94029 0
M  V30 2252 C 207.869 2.58326 4.05982 0
M  V30 2253 C 210.221 3.12379 4.17216 0
M  V30 2254 C 207.549 3.898 4.38489 0
M  V30 2255 C 209.901 4.43401 4.51197 0
M  V30 2256 C 208.565 4.82394 4.61359 0
M  V30 2257 H 207.835 0.191702 0.715773 0
M  V30 2258 H 210.482 1.13699 1.54094 0
M  V30 2259 H 208.787 0.0653622 3.91745 0
M  V30 2260 H 210.484 0.450904 3.98457 0
M  V30 2261 H 207.074 1.87846 3.85242 0
M  V30 2262 H 211.258 2.83371 4.07449 0
M  V30 2263 H 206.514 4.19734 4.44559 0
M  V30 2264 H 210.688 5.15623 4.68087 0
M  V30 2265 H 208.315 5.84306 4.86303 0
M  V30 2266 N 209.89 -1.43072 0.660911 0
M  V30 2267 C 211.137 -2.01721 0.177445 0
M  V30 2268 C 211.465 -1.5218 -1.21126 0
M  V30 2269 O 210.72 -0.708659 -1.82419 0
M  V30 2270 C 211.019 -3.57103 0.145563 0
M  V30 2271 C 210.685 -4.26021 1.47705 0
M  V30 2272 C 209.347 -4.44563 1.84165 0
M  V30 2273 C 211.699 -4.64983 2.35458 0
M  V30 2274 C 209.027 -4.99334 3.0803 0
M  V30 2275 C 211.379 -5.21127 3.58622 0
M  V30 2276 C 210.043 -5.37884 3.95268 0
M  V30 2277 H 209.313 -0.73815 0.0649317 0
M  V30 2278 H 211.96 -1.71446 0.853144 0
M  V30 2279 H 210.265 -3.86965 -0.61361 0
M  V30 2280 H 211.962 -4.00248 -0.2455 0
M  V30 2281 H 208.552 -4.11939 1.18339 0
M  V30 2282 H 212.736 -4.50343 2.08579 0
M  V30 2283 H 207.992 -5.10493 3.36462 0
M  V30 2284 H 212.166 -5.50262 4.26831 0
M  V30 2285 H 209.793 -5.80089 4.91325 0
M  V30 2286 N 211.368 -0.403325 -1.52352 0
M  V30 2287 C 212.315 0.425011 -2.26853 0
M  V30 2288 C 213.285 1.04598 -1.29029 0
M  V30 2289 O 214.47 1.07135 -1.57882 0
M  V30 2290 C 211.61 1.53888 -3.08889 0
M  V30 2291 C 210.723 0.939396 -4.21663 0
M  V30 2292 C 209.858 2.02547 -4.91068 0
M  V30 2293 C 208.897 1.40263 -5.95813 0
M  V30 2294 N 208.034 2.4286 -6.58759 0
M  V30 2295 H 212.874 -0.21674 -2.97211 0
M  V30 2296 H 210.411 -0.118722 -1.4662 0
M  V30 2297 H 212.369 2.19558 -3.54753 0
M  V30 2298 H 210.999 2.15074 -2.40714 0
M  V30 2299 H 210.051 0.171898 -3.80011 0
M  V30 2300 H 211.363 0.44436 -4.96817 0
M  V30 2301 H 210.517 2.75958 -5.40308 0
M  V30 2302 H 209.256 2.55415 -4.15469 0
M  V30 2303 H 208.261 0.653833 -5.45898 0
M  V30 2304 H 209.486 0.881719 -6.73352 0
M  V30 2305 H 207.432 2.94871 -5.85992 0
M  V30 2306 H 207.349 1.98152 -7.2957 0
M  V30 2307 H 208.617 3.15858 -7.12639 0
M  V30 2308 N 212.846 1.57033 -0.133567 0
M  V30 2309 C 213.793 2.16074 0.811208 0
M  V30 2310 C 214.763 1.08979 1.2535 0
M  V30 2311 O 215.948 1.36958 1.32843 0
M  V30 2312 C 213.088 2.77595 2.05024 0
M  V30 2313 C 212.201 3.99042 1.65498 0
M  V30 2314 C 211.336 4.48603 2.84479 0
M  V30 2315 C 210.375 5.62547 2.41262 0
M  V30 2316 N 209.512 6.06787 3.53206 0
M  V30 2317 H 214.352 2.96477 0.300906 0
M  V30 2318 H 211.889 1.46462 0.136822 0
M  V30 2319 H 213.847 3.11402 2.77642 0
M  V30 2320 H 212.477 1.99859 2.53488 0
M  V30 2321 H 211.529 3.71302 0.826981 0
M  V30 2322 H 212.841 4.81629 1.29748 0
M  V30 2323 H 211.995 4.84395 3.65303 0
M  V30 2324 H 210.734 3.64995 3.23465 0
M  V30 2325 H 209.739 5.26345 1.58874 0
M  V30 2326 H 210.964 6.47931 2.03377 0
M  V30 2327 H 208.91 5.26117 3.91838 0
M  V30 2328 H 208.827 6.84266 3.21427 0
M  V30 2329 H 210.095 6.4722 4.34427 0
M  V30 2330 N 214.325 -0.140222 1.56975 0
M  V30 2331 C 215.571 -0.852949 1.83991 0
M  V30 2332 C 215.904 -1.80512 0.716187 0
M  V30 2333 O 215.179 -1.92479 -0.279681 0
M  V30 2334 C 215.462 -1.6215 3.21527 0
M  V30 2335 C 215.315 -0.690363 4.4447 0
M  V30 2336 C 216.634 -2.58247 3.56366 0
M  V30 2337 H 213.753 -0.308634 0.669264 0
M  V30 2338 H 216.395 -0.117898 1.89634 0
M  V30 2339 H 214.545 -2.24812 3.16847 0
M  V30 2340 H 216.217 -0.0742264 4.6124 0
M  V30 2341 H 214.46 -0.000396433 4.338 0
M  V30 2342 H 215.131 -1.2643 5.37326 0
M  V30 2343 H 217.607 -2.05701 3.61699 0
M  V30 2344 H 216.483 -3.09067 4.53617 0
M  V30 2345 H 216.744 -3.39923 2.82674 0
M  V30 2346 N 215.803 -1.52179 -0.40978 0
M  V30 2347 C 217.028 -1.70347 -1.18308 0
M  V30 2348 C 217.453 -0.411887 -1.83535 0
M  V30 2349 O 216.811 0.630587 -1.6998 0
M  V30 2350 C 216.859 -2.83977 -2.22238 0
M  V30 2351 O 215.963 -2.495 -3.28365 0
M  V30 2352 H 215.304 -0.567103 -0.345384 0
M  V30 2353 H 217.834 -1.98879 -0.480445 0
M  V30 2354 H 217.844 -3.0887 -2.66577 0
M  V30 2355 H 216.519 -3.77685 -1.74146 0
M  V30 2356 H 215.096 -2.35277 -2.89308 0
M  V30 2357 N 217.281 0.66697 -1.42791 0
M  V30 2358 C 218.213 1.7925 -1.42836 0
M  V30 2359 C 219.226 1.59496 -0.326333 0
M  V30 2360 O 220.415 1.6847 -0.589916 0
M  V30 2361 C 217.515 3.16476 -1.21229 0
M  V30 2362 C 216.688 3.63011 -2.44013 0
M  V30 2363 C 215.747 4.78993 -2.17834 0
M  V30 2364 O 214.773 4.89137 -2.91091 0
M  V30 2365 N 215.975 5.68248 -1.18635 0
M  V30 2366 H 218.74 1.79695 -2.39854 0
M  V30 2367 H 216.301 0.850338 -1.37771 0
M  V30 2368 H 218.293 3.91734 -1.01621 0
M  V30 2369 H 216.863 3.10884 -0.32706 0
M  V30 2370 H 216.083 2.78346 -2.79137 0
M  V30 2371 H 217.371 3.90845 -3.25757 0
M  V30 2372 H 216.769 5.62712 -0.580615 0
M  V30 2373 H 215.326 6.43285 -1.05013 0
M  V30 2374 N 218.759 1.29093 0.90403 0
M  V30 2375 C 219.707 1.13727 2.02901 0
M  V30 2376 C 220.701 0.0539853 1.69314 0
M  V30 2377 O 221.907 0.213469 1.7873 0
M  V30 2378 H 218.282 0.35117 0.664969 0
M  V30 2379 H 220.253 2.08982 2.13001 0
M  V30 2380 C 219.002 0.826066 3.37745 0
M  V30 2381 H 218.325 1.65164 3.64089 0
M  V30 2382 H 219.765 0.758559 4.17159 0
M  V30 2383 C 218.224 -0.470541 3.33598 0
M  V30 2384 O 218.754 -1.49792 3.72727 0
M  V30 2385 N 216.96 -0.474812 2.86695 0
M  V30 2386 H 216.507 0.361692 2.55048 0
M  V30 2387 H 216.465 -1.34236 2.84303 0
M  V30 2388 N 220.237 -1.11381 1.11499 0
M  V30 2389 C 221.653 -1.35143 0.849031 0
M  V30 2390 C 221.853 -1.94515 -0.525938 0
M  V30 2391 O 220.909 -2.1785 -1.27662 0
M  V30 2392 C 222.222 -2.28249 1.95762 0
M  V30 2393 C 223.77 -2.41812 1.98736 0
M  V30 2394 C 224.245 -3.3824 3.088 0
M  V30 2395 N 225.736 -3.45803 3.08179 0
M  V30 2396 C 226.471 -4.20358 3.89982 0
M  V30 2397 N 225.967 -4.97884 4.8175 0
M  V30 2398 N 227.76 -4.15877 3.78157 0
M  V30 2399 H 219.911 -0.712062 2.00109 0
M  V30 2400 H 222.174 -0.376025 0.870235 0
M  V30 2401 H 221.88 -1.91817 2.94787 0
M  V30 2402 H 221.754 -3.28473 1.85433 0
M  V30 2403 H 224.141 -2.77518 1.00338 0
M  V30 2404 H 224.222 -1.41437 2.13141 0
M  V30 2405 H 223.866 -3.03261 4.07425 0
M  V30 2406 H 223.796 -4.38471 2.91635 0
M  V30 2407 H 226.287 -2.90506 2.41691 0
M  V30 2408 H 226.6 -5.52142 5.40702 0
M  V30 2409 H 224.945 -4.97043 4.85771 0
M  V30 2410 H 228.136 -3.544 3.05808 0
M  V30 2411 H 228.309 -4.73723 4.42143 0
M  V30 2412 N 221.715 -0.905404 -1.28997 0
M  V30 2413 C 222.625 -0.392246 -2.31298 0
M  V30 2414 C 223.641 0.515889 -1.66176 0
M  V30 2415 O 224.817 0.404093 -1.97304 0
M  V30 2416 C 221.882 0.36686 -3.44754 0
M  V30 2417 C 220.943 -0.573485 -4.25452 0
M  V30 2418 C 220.176 0.149488 -5.33491 0
M  V30 2419 O 220.399 1.37255 -5.5364 0
M  V30 2420 O 219.333 -0.510919 -5.99728 0
M  V30 2421 H 223.159 -1.2411 -2.77183 0
M  V30 2422 H 220.744 -0.669926 -1.33538 0
M  V30 2423 H 222.626 0.795907 -4.13816 0
M  V30 2424 H 221.301 1.19169 -3.00966 0
M  V30 2425 H 220.208 -1.05176 -3.59011 0
M  V30 2426 H 221.541 -1.36489 -4.72897 0
M  V30 2427 N 223.193 1.4272 -0.668489 0
M  V30 2428 C 224.423 2.05668 -0.196063 0
M  V30 2429 C 224.831 1.5028 1.14946 0
M  V30 2430 O 224.174 0.6348 1.72383 0
M  V30 2431 C 224.236 3.59469 -0.0468879 0
M  V30 2432 C 223.9 4.37518 -1.32012 0
M  V30 2433 C 224.897 4.68584 -2.25222 0
M  V30 2434 C 222.582 4.77266 -1.56596 0
M  V30 2435 C 224.576 5.38326 -3.41297 0
M  V30 2436 C 222.263 5.4675 -2.72962 0
M  V30 2437 C 223.261 5.77204 -3.65137 0
M  V30 2438 O 222.949 6.45264 -4.79468 0
M  V30 2439 H 222.681 0.669382 -0.0943599 0
M  V30 2440 H 225.235 1.83954 -0.913788 0
M  V30 2441 H 223.465 3.79817 0.726357 0
M  V30 2442 H 225.154 4.04071 0.384852 0
M  V30 2443 H 225.92 4.38382 -2.07477 0
M  V30 2444 H 221.799 4.52959 -0.857249 0
M  V30 2445 H 225.343 5.62014 -4.13263 0
M  V30 2446 H 221.24 5.76369 -2.90635 0
M  V30 2447 H 222.008 6.63753 -4.78931 0
M  V30 2448 N 224.671 0.411399 1.52136 0
M  V30 2449 C 225.918 -0.163645 2.01838 0
M  V30 2450 C 226.246 -1.4495 1.29691 0
M  V30 2451 O 225.501 -1.91725 0.392431 0
M  V30 2452 C 225.8 -0.455872 3.54481 0
M  V30 2453 C 225.466 0.741055 4.44769 0
M  V30 2454 C 224.128 1.06936 4.69167 0
M  V30 2455 C 226.48 1.54075 4.97906 0
M  V30 2456 C 223.808 2.19851 5.43951 0
M  V30 2457 C 226.16 2.66067 5.73926 0
M  V30 2458 C 224.824 2.99381 5.96596 0
M  V30 2459 H 224.094 -0.0598821 0.738576 0
M  V30 2460 H 226.741 0.553283 1.83333 0
M  V30 2461 H 225.046 -1.2544 3.71177 0
M  V30 2462 H 226.743 -0.913802 3.90449 0
M  V30 2463 H 223.333 0.475192 4.25958 0
M  V30 2464 H 227.517 1.30033 4.78963 0
M  V30 2465 H 222.773 2.46006 5.59724 0
M  V30 2466 H 226.947 3.28419 6.14096 0
M  V30 2467 H 224.574 3.86992 6.54325 0
M  V30 2468 N 226.149 -1.5696 0.141893 0
M  V30 2469 C 227.096 -2.16501 -0.799737 0
M  V30 2470 C 228.066 -1.09643 -1.24771 0
M  V30 2471 O 229.251 -1.3766 -1.32115 0
M  V30 2472 C 226.391 -2.78679 -2.03549 0
M  V30 2473 C 225.504 -3.99914 -1.6338 0
M  V30 2474 C 224.639 -4.50106 -2.82096 0
M  V30 2475 C 223.678 -5.63819 -2.38275 0
M  V30 2476 N 222.815 -6.08651 -3.49983 0
M  V30 2477 H 227.655 -2.96632 -0.285179 0
M  V30 2478 H 225.192 -1.46533 -0.129053 0
M  V30 2479 H 227.15 -3.1287 -2.75986 0
M  V30 2480 H 225.78 -2.012 -2.52425 0
M  V30 2481 H 224.832 -3.71735 -0.807279 0
M  V30 2482 H 226.144 -4.82311 -1.27192 0
M  V30 2483 H 225.298 -4.86325 -3.62729 0
M  V30 2484 H 224.037 -3.66706 -3.21525 0
M  V30 2485 H 223.042 -5.2718 -1.56081 0
M  V30 2486 H 224.267 -6.49 -1.99938 0
M  V30 2487 H 222.213 -5.28188 -3.89042 0
M  V30 2488 H 222.13 -6.85961 -3.17794 0
M  V30 2489 H 223.398 -6.49515 -4.30988 0
M  V30 2490 N 227.627 0.131896 -1.57047 0
M  V30 2491 C 228.876 0.84044 -1.83356 0
M  V30 2492 C 229.189 1.81646 -0.725535 0
M  V30 2493 O 230.395 2.57025 -0.874659 0
M  V30 2494 C 228.851 1.54528 -3.25037 0
M  V30 2495 C 228.459 0.610902 -4.43815 0
M  V30 2496 C 230.203 2.23972 -3.60606 0
M  V30 2497 C 228.11 1.31823 -5.76521 0
M  V30 2498 H 227.04 0.317599 -0.683847 0
M  V30 2499 H 229.691 0.0931561 -1.83263 0
M  V30 2500 H 228.073 2.33873 -3.19561 0
M  V30 2501 H 229.247 -0.148407 -4.60561 0
M  V30 2502 H 227.562 0.0241016 -4.16393 0
M  V30 2503 H 230.159 2.77558 -4.57018 0
M  V30 2504 H 230.502 3.01173 -2.87403 0
M  V30 2505 H 231.035 1.51529 -3.6781 0
M  V30 2506 H 227.774 0.587771 -6.52859 0
M  V30 2507 H 227.294 2.04987 -5.63685 0
M  V30 2508 H 228.973 1.855 -6.19838 0
M  V30 2509 N 229.106 1.52395 0.401703 0
M  V30 2510 C 230.334 1.70676 1.16949 0
M  V30 2511 C 230.749 0.419503 1.8408 0
M  V30 2512 O 230.106 -0.605061 1.72178 0
M  V30 2513 C 230.157 2.84753 2.22706 0
M  V30 2514 O 229.878 4.08495 1.58314 0
M  V30 2515 C 231.379 3.14608 3.12309 0
M  V30 2516 H 228.599 0.571787 0.351142 0
M  V30 2517 H 231.143 1.98987 0.471652 0
M  V30 2518 H 229.298 2.58941 2.88147 0
M  V30 2519 H 229.712 4.72117 2.28485 0
M  V30 2520 H 231.186 3.97923 3.82572 0
M  V30 2521 H 231.663 2.28464 3.75101 0
M  V30 2522 H 232.269 3.42212 2.52529 0
M  V30 2523 N 230.584 -0.659388 1.43143 0
M  V30 2524 C 231.514 -1.78422 1.50625 0
M  V30 2525 C 232.495 -1.66216 0.361443 0
M  V30 2526 O 233.68 -1.85404 0.577834 0
M  V30 2527 C 230.81 -3.16815 1.42287 0
M  V30 2528 C 229.764 -3.43777 2.54954 0
M  V30 2529 C 229.09 -4.81905 2.31671 0
M  V30 2530 C 230.39 -3.39134 3.97222 0
M  V30 2531 H 232.084 -1.72417 2.44771 0
M  V30 2532 H 229.63 -0.828084 1.17808 0
M  V30 2533 H 231.583 -3.95253 1.46127 0
M  V30 2534 H 230.307 -3.23534 0.446435 0
M  V30 2535 H 228.966 -2.67707 2.50457 0
M  V30 2536 H 228.614 -4.85294 1.32284 0
M  V30 2537 H 228.314 -5.00906 3.07192 0
M  V30 2538 H 229.838 -5.62609 2.37284 0
M  V30 2539 H 231.252 -4.07518 4.03239 0
M  V30 2540 H 229.649 -3.69671 4.72719 0
M  V30 2541 H 230.719 -2.37426 4.22797 0
M  V30 2542 N 232.062 -1.29571 -0.897171 0
M  V30 2543 C 233.292 -1.20408 -1.67886 0
M  V30 2544 C 233.7 0.237429 -1.87704 0
M  V30 2545 O 233.043 1.17048 -1.41582 0
M  V30 2546 C 233.105 -1.84887 -3.08314 0
M  V30 2547 C 232.769 -3.34189 -3.11716 0
M  V30 2548 C 233.766 -4.30374 -2.91675 0
M  V30 2549 C 231.451 -3.75431 -3.33701 0
M  V30 2550 C 233.445 -5.65776 -2.93557 0
M  V30 2551 C 231.132 -5.10955 -3.35214 0
M  V30 2552 C 232.13 -6.05938 -3.15164 0
M  V30 2553 O 231.818 -7.38987 -3.1647 0
M  V30 2554 H 231.55 -0.418289 -0.531046 0
M  V30 2555 H 234.104 -1.71514 -1.13014 0
M  V30 2556 H 232.334 -1.28295 -3.64798 0
M  V30 2557 H 234.023 -1.70011 -3.6858 0
M  V30 2558 H 234.789 -3.99844 -2.74499 0
M  V30 2559 H 230.668 -3.01953 -3.48347 0
M  V30 2560 H 234.212 -6.39889 -2.77826 0
M  V30 2561 H 230.109 -5.4113 -3.51922 0
M  V30 2562 H 230.877 -7.47823 -3.3272 0
M  V30 2563 N 233.54 1.10788 -1.12088 0
M  V30 2564 C 234.788 1.8231 -0.872205 0
M  V30 2565 C 235.109 1.85419 0.603709 0
M  V30 2566 O 234.379 1.32963 1.43867 0
M  V30 2567 H 232.959 0.675137 -0.319686 0
M  V30 2568 H 235.621 1.34068 -1.41463 0
M  V30 2569 H 234.717 2.85955 -1.25045 0
M  V30 2570 N 235.018 0.912232 1.28515 0
M  V30 2571 C 236.434 0.610159 1.47476 0
M  V30 2572 C 236.634 -0.844955 1.82928 0
M  V30 2573 O 235.69 -1.62416 1.93332 0
M  V30 2574 C 237.003 1.54675 2.57868 0
M  V30 2575 C 238.551 1.55331 2.71738 0
M  V30 2576 C 239.026 2.47649 3.85272 0
M  V30 2577 N 240.517 2.45767 3.92623 0
M  V30 2578 C 241.252 3.13896 4.79851 0
M  V30 2579 N 240.748 3.9135 5.71679 0
M  V30 2580 N 242.541 3.02991 4.73448 0
M  V30 2581 H 234.692 1.85318 1.03783 0
M  V30 2582 H 236.955 0.794777 0.516753 0
M  V30 2583 H 236.661 2.5841 2.38574 0
M  V30 2584 H 236.535 1.27671 3.54937 0
M  V30 2585 H 238.922 0.52335 2.90422 0
M  V30 2586 H 239.003 1.86378 1.75205 0
M  V30 2587 H 238.647 3.50745 3.67342 0
M  V30 2588 H 238.577 2.13904 4.81199 0
M  V30 2589 H 241.068 1.89503 3.26951 0
M  V30 2590 H 241.381 4.40359 6.35062 0
M  V30 2591 H 239.726 3.95455 5.71524 0
M  V30 2592 H 242.917 2.41987 4.007 0
M  V30 2593 H 243.09 3.5636 5.41213 0
M  V30 2594 N 236.496 -1.42363 0.676048 0
M  V30 2595 C 237.724 -2.05859 0.207268 0
M  V30 2596 C 238.139 -1.50796 -1.13605 0
M  V30 2597 O 237.496 -0.648265 -1.70598 0
M  V30 2598 C 237.547 -3.61248 0.134975 0
M  V30 2599 O 237.268 -4.1427 1.42521 0
M  V30 2600 C 238.769 -4.41859 -0.357151 0
M  V30 2601 H 235.989 -0.663431 0.100503 0
M  V30 2602 H 238.533 -1.82479 0.923136 0
M  V30 2603 H 236.688 -3.83735 -0.531588 0
M  V30 2604 H 237.102 -5.0815 1.29939 0
M  V30 2605 H 238.576 -5.50847 -0.356641 0
M  V30 2606 H 239.053 -4.16536 -1.39264 0
M  V30 2607 H 239.659 -4.24392 0.27772 0
M  V30 2608 N 237.974 -0.419461 -1.51915 0
M  V30 2609 C 238.921 0.400927 -2.27291 0
M  V30 2610 C 239.891 1.03224 -1.30131 0
M  V30 2611 O 241.076 1.05455 -1.59009 0
M  V30 2612 C 238.216 1.50603 -3.10504 0
M  V30 2613 C 237.329 0.89462 -4.22635 0
M  V30 2614 C 236.464 1.97328 -4.93189 0
M  V30 2615 C 235.503 1.33935 -5.97267 0
M  V30 2616 N 234.64 2.3586 -6.61298 0
M  V30 2617 H 239.48 -0.248251 -2.96964 0
M  V30 2618 H 237.017 -0.134266 -1.46486 0
M  V30 2619 H 238.975 2.15783 -3.57062 0
M  V30 2620 H 237.605 2.12509 -2.42981 0
M  V30 2621 H 236.657 0.131583 -3.80172 0
M  V30 2622 H 237.969 0.391641 -4.9726 0
M  V30 2623 H 237.123 2.70211 -5.43204 0
M  V30 2624 H 235.862 2.50994 -4.18155 0
M  V30 2625 H 234.867 0.595896 -5.46561 0
M  V30 2626 H 236.092 0.810252 -6.74249 0
M  V30 2627 H 234.038 2.88639 -5.89087 0
M  V30 2628 H 233.955 1.90403 -7.3163 0
M  V30 2629 H 235.223 3.08282 -7.15949 0
M  V30 2630 N 239.452 1.56882 -0.150215 0
M  V30 2631 C 240.362 2.20494 0.801222 0
M  V30 2632 C 241.378 1.19019 1.26927 0
M  V30 2633 O 242.554 1.51607 1.32579 0
M  V30 2634 C 239.619 2.81659 2.02161 0
M  V30 2635 C 238.68 3.9827 1.60249 0
M  V30 2636 C 237.913 4.56508 2.7647 0
M  V30 2637 O 238.136 4.13627 3.92771 0
M  V30 2638 O 237.07 5.46719 2.51757 0
M  V30 2639 H 240.896 3.02315 0.289717 0
M  V30 2640 H 238.481 1.49202 0.0769684 0
M  V30 2641 H 240.363 3.20522 2.73576 0
M  V30 2642 H 239.038 2.02849 2.52258 0
M  V30 2643 H 237.945 3.64117 0.858477 0
M  V30 2644 H 239.278 4.78609 1.14864 0
M  V30 2645 N 240.93 -0.123565 1.57115 0
M  V30 2646 C 241.86 -1.15309 2.03042 0
M  V30 2647 C 242.841 -1.43454 0.914061 0
M  V30 2648 O 244.026 -1.53973 1.18347 0
M  V30 2649 C 241.156 -2.48043 2.43089 0
M  V30 2650 C 240.11 -2.3437 3.58127 0
M  V30 2651 C 239.436 -3.72026 3.84059 0
M  V30 2652 C 240.736 -1.80804 4.90007 0
M  V30 2653 H 242.43 -0.771102 2.893 0
M  V30 2654 H 239.976 -0.369479 1.39179 0
M  V30 2655 H 241.929 -3.20311 2.73823 0
M  V30 2656 H 240.653 -2.88122 1.53796 0
M  V30 2657 H 239.312 -1.64551 3.27595 0
M  V30 2658 H 238.96 -4.09582 2.91979 0
M  V30 2659 H 238.66 -3.63732 4.6149 0
M  V30 2660 H 240.184 -4.45806 4.1724 0
M  V30 2661 H 241.598 -2.42886 5.19307 0
M  V30 2662 H 239.995 -1.83343 5.71407 0
M  V30 2663 H 241.065 -0.76528 4.78823 0
M  V30 2664 N 242.408 -1.52605 -0.393616 0
M  V30 2665 C 243.636 -1.71294 -1.16043 0
M  V30 2666 C 244.051 -0.429259 -1.83855 0
M  V30 2667 O 243.408 0.595921 -1.72496 0
M  V30 2668 C 243.459 -2.8593 -2.21193 0
M  V30 2669 O 243.18 -4.09329 -1.56146 0
M  V30 2670 C 244.681 -3.16259 -3.10636 0
M  V30 2671 H 241.901 -0.573641 -0.348104 0
M  V30 2672 H 244.445 -1.99234 -0.461092 0
M  V30 2673 H 242.6 -2.60465 -2.86769 0
M  V30 2674 H 243.014 -4.73323 -2.25978 0
M  V30 2675 H 244.488 -3.99946 -3.80456 0
M  V30 2676 H 244.965 -2.3045 -3.73884 0
M  V30 2677 H 245.571 -3.43547 -2.50711 0
M  V30 2678 N 243.887 0.651787 -1.4349 0
M  V30 2679 C 245.112 1.44434 -1.48841 0
M  V30 2680 C 245.537 1.8779 -0.107955 0
M  V30 2681 O 244.895 1.57464 0.898602 0
M  V30 2682 C 244.943 2.65458 -2.44059 0
M  V30 2683 O 244.047 3.64566 -1.92784 0
M  V30 2684 H 243.388 0.433005 -0.503391 0
M  V30 2685 H 245.918 0.797451 -1.88419 0
M  V30 2686 H 245.928 3.13255 -2.6141 0
M  V30 2687 H 244.603 2.33244 -3.4434 0
M  V30 2688 H 243.18 3.23716 -1.851 0
M  V30 2689 N 245.365 1.30045 0.890287 0
M  V30 2690 C 246.275 1.17885 2.02831 0
M  V30 2691 C 247.291 0.0999609 1.73713 0
M  V30 2692 O 248.467 0.313867 1.98939 0
M  V30 2693 C 245.532 0.866079 3.35708 0
M  V30 2694 C 244.593 2.02979 3.78283 0
M  V30 2695 C 243.826 1.73184 5.0482 0
M  V30 2696 O 244.049 0.657237 5.66601 0
M  V30 2697 O 242.983 2.58267 5.43674 0
M  V30 2698 H 246.809 2.13474 2.16015 0
M  V30 2699 H 244.394 1.09587 1.01543 0
M  V30 2700 H 246.276 0.706623 4.15433 0
M  V30 2701 H 244.951 -0.0599443 3.23644 0
M  V30 2702 H 243.858 2.24454 2.99285 0
M  V30 2703 H 245.191 2.93734 3.94944 0
M  V30 2704 N 246.843 -1.10192 1.12674 0
M  V30 2705 C 247.773 -2.18652 0.819362 0
M  V30 2706 C 248.754 -1.68698 -0.217915 0
M  V30 2707 O 249.939 -1.94041 -0.0785581 0
M  V30 2708 C 247.069 -3.46202 0.27594 0
M  V30 2709 C 246.023 -4.09444 1.24656 0
M  V30 2710 C 245.349 -5.31725 0.563258 0
M  V30 2711 C 246.649 -4.52863 2.60217 0
M  V30 2712 H 248.343 -2.44622 1.72628 0
M  V30 2713 H 245.889 -1.17571 0.831451 0
M  V30 2714 H 247.842 -4.21372 0.0486149 0
M  V30 2715 H 246.566 -3.1973 -0.666331 0
M  V30 2716 H 245.225 -3.36284 1.45974 0
M  V30 2717 H 244.873 -5.0153 -0.384235 0
M  V30 2718 H 244.573 -5.74991 1.21075 0
M  V30 2719 H 246.097 -6.09624 0.34503 0
M  V30 2720 H 247.511 -5.19294 2.42913 0
M  V30 2721 H 245.908 -5.06986 3.21068 0
M  V30 2722 H 246.978 -3.65656 3.18471 0
M  V30 2723 N 248.321 -0.919034 -1.28029 0
M  V30 2724 C 249.268 -0.410005 -2.27129 0
M  V30 2725 C 250.238 0.518405 -1.57803 0
M  V30 2726 O 251.423 0.439451 -1.8567 0
M  V30 2727 C 248.563 0.339054 -3.4343 0
M  V30 2728 C 247.676 -0.622468 -4.27492 0
M  V30 2729 C 246.811 0.145567 -5.31001 0
M  V30 2730 C 245.85 -0.809226 -6.06727 0
M  V30 2731 N 244.987 -0.0743728 -7.02061 0
M  V30 2732 H 249.827 -1.26011 -2.70047 0
M  V30 2733 H 247.364 -0.632663 -1.328 0
M  V30 2734 H 249.322 0.789586 -4.0966 0
M  V30 2735 H 247.952 1.15346 -3.01488 0
M  V30 2736 H 247.004 -1.19153 -3.61257 0
M  V30 2737 H 248.316 -1.35252 -4.80113 0
M  V30 2738 H 247.47 0.656417 -6.03139 0
M  V30 2739 H 246.209 0.908643 -4.79161 0
M  V30 2740 H 245.214 -1.3314 -5.33436 0
M  V30 2741 H 246.439 -1.57194 -6.60656 0
M  V30 2742 H 244.385 0.670616 -6.52563 0
M  V30 2743 H 244.302 -0.744157 -7.52329 0
M  V30 2744 H 245.57 0.416109 -7.78389 0
M  V30 2745 N 249.799 1.42003 -0.683588 0
M  V30 2746 C 250.709 2.34597 -0.0109075 0
M  V30 2747 C 251.725 1.55576 0.779245 0
M  V30 2748 O 252.901 1.88107 0.719555 0
M  V30 2749 C 249.966 3.34199 0.922588 0
M  V30 2750 C 249.027 4.29115 0.125984 0
M  V30 2751 C 248.26 5.23959 1.01502 0
M  V30 2752 O 248.483 5.23952 2.25456 0
M  V30 2753 O 247.417 6.00053 0.47111 0
M  V30 2754 H 251.243 2.93675 -0.773853 0
M  V30 2755 H 248.828 1.42654 -0.443861 0
M  V30 2756 H 250.71 3.95365 1.45823 0
M  V30 2757 H 249.385 2.77582 1.66523 0
M  V30 2758 H 248.292 3.71335 -0.453969 0
M  V30 2759 H 249.625 4.88798 -0.577736 0
M  V30 2760 N 251.277 0.427512 1.51691 0
M  V30 2761 C 252.225 -0.403359 2.29076 0
M  V30 2762 C 253.219 -1.02962 1.34518 0
M  V30 2763 O 254.425 -0.965715 1.51901 0
M  V30 2764 H 250.8 -0.148879 0.737115 0
M  V30 2765 H 252.771 0.270295 2.97173 0
M  V30 2766 C 251.52 -1.49763 3.13794 0
M  V30 2767 H 250.843 -1.02508 3.86435 0
M  V30 2768 H 252.283 -2.05244 3.71014 0
M  V30 2769 C 250.742 -2.47536 2.28533 0
M  V30 2770 O 251.272 -3.51848 1.93819 0
M  V30 2771 N 249.478 -2.18187 1.91945 0
M  V30 2772 H 249.025 -1.33389 2.20375 0
M  V30 2773 H 248.983 -2.83848 1.35195 0
M  V30 2774 N 252.755 -1.56801 0.158532 0
M  V30 2775 C 254.002 -1.9649 -0.489679 0
M  V30 2776 C 254.33 -1.04394 -1.6411 0
M  V30 2777 O 253.585 -0.0754401 -1.95555 0
M  V30 2778 C 253.884 -3.4235 -1.02623 0
M  V30 2779 C 253.55 -4.50899 0.00794526 0
M  V30 2780 C 252.212 -4.80312 0.292207 0
M  V30 2781 C 254.564 -5.16333 0.710584 0
M  V30 2782 C 251.892 -5.72461 1.28472 0
M  V30 2783 C 254.244 -6.09553 1.69199 0
M  V30 2784 C 252.908 -6.37339 1.98383 0
M  V30 2785 H 252.178 -0.719009 -0.179186 0
M  V30 2786 H 254.825 -1.8989 0.247798 0
M  V30 2787 H 253.13 -3.45838 -1.84128 0
M  V30 2788 H 254.827 -3.70393 -1.53656 0
M  V30 2789 H 251.417 -4.28015 -0.22379 0
M  V30 2790 H 255.601 -4.93732 0.504174 0
M  V30 2791 H 250.857 -5.92278 1.51714 0
M  V30 2792 H 255.031 -6.59327 2.24189 0
M  V30 2793 H 252.658 -7.08546 2.7544 0
M  V30 2794 N 254.233 0.115231 -1.57178 0
M  V30 2795 C 255.482 0.820945 -1.84237 0
M  V30 2796 C 255.795 1.80866 -0.744761 0
M  V30 2797 O 257.001 2.56083 -0.901871 0
M  V30 2798 C 255.457 1.51072 -3.26658 0
M  V30 2799 C 255.065 0.563795 -4.44438 0
M  V30 2800 C 256.809 2.20134 -3.62962 0
M  V30 2801 C 254.716 1.25701 -5.77887 0
M  V30 2802 H 253.646 0.310328 -0.687177 0
M  V30 2803 H 256.297 0.0737134 -1.83352 0
M  V30 2804 H 254.679 2.30471 -3.22024 0
M  V30 2805 H 255.853 -0.197247 -4.60378 0
M  V30 2806 H 254.168 -0.0200638 -4.16395 0
M  V30 2807 H 256.765 2.72696 -4.59936 0
M  V30 2808 H 257.108 2.98107 -2.90582 0
M  V30 2809 H 257.641 1.47619 -3.69396 0
M  V30 2810 H 254.38 0.518493 -6.53446 0
M  V30 2811 H 253.9 1.98997 -5.65827 0
M  V30 2812 H 255.579 1.78915 -6.2177 0
M  V30 2813 N 255.711 1.52812 0.385517 0
M  V30 2814 C 257.127 1.4214 0.725829 0
M  V30 2815 C 257.327 0.544589 1.94001 0
M  V30 2816 O 256.383 0.0193693 2.52493 0
M  V30 2817 C 257.696 2.85042 0.957668 0
M  V30 2818 C 259.244 2.94543 1.05892 0
M  V30 2819 C 259.719 4.38464 1.32337 0
M  V30 2820 N 261.21 4.41804 1.39151 0
M  V30 2821 C 261.945 5.5025 1.61285 0
M  V30 2822 N 261.441 6.68775 1.80866 0
M  V30 2823 N 263.234 5.37798 1.63492 0
M  V30 2824 H 255.385 2.08338 -0.413383 0
M  V30 2825 H 257.648 0.940016 -0.122775 0
M  V30 2826 H 257.354 3.51431 0.137568 0
M  V30 2827 H 257.228 3.27505 1.87137 0
M  V30 2828 H 259.615 2.28321 1.86959 0
M  V30 2829 H 259.696 2.55504 0.123057 0
M  V30 2830 H 259.34 5.05254 0.517793 0
M  V30 2831 H 259.27 4.75059 2.27214 0
M  V30 2832 H 261.761 3.56377 1.25713 0
M  V30 2833 H 262.074 7.47197 1.97271 0
M  V30 2834 H 260.419 6.71797 1.78083 0
M  V30 2835 H 263.61 4.44171 1.47749 0
M  V30 2836 H 263.783 6.22382 1.80402 0
M  V30 2837 N 257.189 -0.644168 1.43834 0
M  V30 2838 C 258.436 -1.40395 1.4593 0
M  V30 2839 C 258.764 -1.94305 0.0869658 0
M  V30 2840 O 258.019 -1.73288 -0.909378 0
M  V30 2841 C 258.318 -2.59615 2.45631 0
M  V30 2842 C 257.984 -2.2407 3.91284 0
M  V30 2843 C 256.646 -2.14089 4.30952 0
M  V30 2844 C 258.998 -1.95775 4.83034 0
M  V30 2845 C 256.326 -1.73981 5.6031 0
M  V30 2846 C 258.678 -1.57163 6.12766 0
M  V30 2847 C 257.342 -1.45713 6.51402 0
M  V30 2848 H 256.612 -0.513741 0.533995 0
M  V30 2849 H 259.259 -0.731724 1.76969 0
M  V30 2850 H 257.564 -3.32011 2.08028 0
M  V30 2851 H 259.261 -3.17834 2.44504 0
M  V30 2852 H 255.851 -2.32753 3.59895 0
M  V30 2853 H 260.035 -2.02403 4.53152 0
M  V30 2854 H 255.291 -1.63709 5.89075 0
M  V30 2855 H 259.465 -1.34303 6.83327 0
M  V30 2856 H 257.092 -1.14406 7.51542 0
M  V30 2857 N 258.668 -1.30515 -0.883378 0
M  V30 2858 C 259.893 -1.22487 -1.67367 0
M  V30 2859 C 260.318 0.208767 -1.86938 0
M  V30 2860 O 259.676 1.15015 -1.40148 0
M  V30 2861 C 259.724 -1.96041 -3.02655 0
M  V30 2862 O 258.828 -1.28859 -3.91751 0
M  V30 2863 H 258.169 -0.423573 -0.511353 0
M  V30 2864 H 260.699 -1.72362 -1.10239 0
M  V30 2865 H 260.709 -2.05124 -3.52687 0
M  V30 2866 H 259.384 -3.00307 -2.8773 0
M  V30 2867 H 257.961 -1.28141 -3.50192 0
M  V30 2868 N 260.146 1.09593 -1.13257 0
M  V30 2869 C 261.093 2.1618 -0.808381 0
M  V30 2870 C 262.063 1.64517 0.228754 0
M  V30 2871 O 263.248 1.9053 0.101381 0
M  V30 2872 C 260.388 3.43973 -0.278675 0
M  V30 2873 C 259.501 4.09545 -1.37466 0
M  V30 2874 C 258.636 5.25088 -0.803479 0
M  V30 2875 C 257.675 5.82579 -1.87799 0
M  V30 2876 N 256.812 6.89486 -1.32488 0
M  V30 2877 H 261.652 2.43254 -1.72138 0
M  V30 2878 H 259.189 1.19392 -0.859294 0
M  V30 2879 H 261.147 4.17174 0.0465583 0
M  V30 2880 H 259.777 3.17223 0.597459 0
M  V30 2881 H 258.829 3.34226 -1.81652 0
M  V30 2882 H 260.141 4.48307 -2.18684 0
M  V30 2883 H 259.295 6.05178 -0.429427 0
M  V30 2884 H 258.034 4.87684 0.0397956 0
M  V30 2885 H 257.039 5.01152 -2.26113 0
M  V30 2886 H 258.264 6.22045 -2.72463 0
M  V30 2887 H 256.21 6.54064 -0.503575 0
M  V30 2888 H 256.127 7.27007 -2.07355 0
M  V30 2889 H 257.395 7.73336 -0.978336 0
M  V30 2890 N 261.624 0.925811 1.2754 0
M  V30 2891 C 262.849 0.580924 1.99098 0
M  V30 2892 C 263.274 -0.833555 1.68622 0
M  V30 2893 O 262.632 -1.55903 0.925422 0
M  V30 2894 C 262.68 0.811186 3.51358 0
M  V30 2895 O 261.784 -0.124129 4.12213 0
M  V30 2896 H 261.125 0.223873 0.625122 0
M  V30 2897 H 263.655 1.24455 1.62395 0
M  V30 2898 H 263.665 0.72601 4.01489 0
M  V30 2899 H 262.34 1.84227 3.72872 0
M  V30 2900 H 260.917 0.0108006 3.72898 0
M  V30 2901 N 263.102 -1.41638 0.69111 0
M  V30 2902 C 264.032 -2.3347 0.037248 0
M  V30 2903 C 265.013 -1.51575 -0.771947 0
M  V30 2904 O 266.198 -1.80126 -0.72582 0
M  V30 2905 C 263.328 -3.35354 -0.903064 0
M  V30 2906 C 262.282 -4.27526 -0.201288 0
M  V30 2907 C 261.608 -5.19747 -1.25565 0
M  V30 2908 C 262.908 -5.13959 0.929689 0
M  V30 2909 H 264.602 -2.88397 0.804227 0
M  V30 2910 H 262.148 -1.38669 0.388189 0
M  V30 2911 H 264.101 -3.98519 -1.36969 0
M  V30 2912 H 262.825 -2.78767 -1.70166 0
M  V30 2913 H 261.484 -3.65779 0.245265 0
M  V30 2914 H 261.132 -4.59479 -2.04666 0
M  V30 2915 H 260.832 -5.8225 -0.791128 0
M  V30 2916 H 262.356 -5.85789 -1.72288 0
M  V30 2917 H 263.77 -5.70718 0.543546 0
M  V30 2918 H 262.167 -5.85379 1.32103 0
M  V30 2919 H 263.237 -4.51389 1.77133 0
M  V30 2920 N 264.58 -0.43555 -1.51462 0
M  V30 2921 C 265.828 0.131254 -2.01673 0
M  V30 2922 C 266.149 1.43368 -1.32177 0
M  V30 2923 O 265.419 1.90524 -0.455769 0
M  V30 2924 H 263.999 0.0514954 -0.745223 0
M  V30 2925 H 266.661 -0.577847 -1.86137 0
M  V30 2926 H 265.757 0.308446 -3.10572 0
M  V30 2927 N 266.058 1.56714 -0.166846 0
M  V30 2928 C 266.988 2.20754 0.760913 0
M  V30 2929 C 267.969 1.16178 1.24244 0
M  V30 2930 O 269.154 1.44592 1.29641 0
M  V30 2931 C 266.284 2.84478 1.99223 0
M  V30 2932 C 265.238 3.95053 1.64672 0
M  V30 2933 C 264.564 4.45805 2.95232 0
M  V30 2934 C 265.864 5.14865 0.878155 0
M  V30 2935 H 267.558 2.98537 0.22713 0
M  V30 2936 H 265.104 1.43596 0.107805 0
M  V30 2937 H 267.057 3.27951 2.64624 0
M  V30 2938 H 265.781 2.04056 2.55007 0
M  V30 2939 H 264.44 3.52228 1.01641 0
M  V30 2940 H 264.088 3.62181 3.49047 0
M  V30 2941 H 263.788 5.204 2.7287 0
M  V30 2942 H 265.312 4.91962 3.6167 0
M  V30 2943 H 266.726 5.55059 1.43466 0
M  V30 2944 H 265.123 5.95348 0.753738 0
M  V30 2945 H 266.193 4.84735 -0.126377 0
M  V30 2946 N 267.536 -0.106894 1.57237 0
M  V30 2947 C 268.947 -0.662723 1.74542 0
M  V30 2948 C 269.298 -1.7971 0.787319 0
M  V30 2949 O 268.423 -2.16368 -0.0369636 0
M  V30 2950 C 269.018 -1.20896 3.16496 0
M  V30 2951 C 267.577 -1.71096 3.35266 0
M  V30 2952 C 266.724 -0.615642 2.7038 0
M  V30 2953 H 269.675 0.119106 1.58252 0
M  V30 2954 H 269.696 -2.07847 3.18716 0
M  V30 2955 H 269.208 -0.383122 3.86204 0
M  V30 2956 H 267.309 -2.56119 2.70618 0
M  V30 2957 H 267.422 -1.81208 4.43509 0
M  V30 2958 H 265.786 -1.05222 2.31949 0
M  V30 2959 H 266.569 0.199419 3.4272 0
M  V30 2960 N 269.014 -1.53014 -0.377408 0
M  V30 2961 C 269.924 -1.81557 -1.48574 0
M  V30 2962 C 270.94 -0.703102 -1.59162 0
M  V30 2963 O 272.116 -0.99192 -1.75279 0
M  V30 2964 C 269.181 -1.9889 -2.83978 0
M  V30 2965 C 268.242 -3.22801 -2.83016 0
M  V30 2966 C 267.475 -3.39298 -4.11962 0
M  V30 2967 O 267.698 -2.60345 -5.0752 0
M  V30 2968 O 266.632 -4.32604 -4.18494 0
M  V30 2969 H 270.458 -2.75695 -1.27382 0
M  V30 2970 H 268.043 -1.38248 -0.566373 0
M  V30 2971 H 269.925 -2.11931 -3.6423 0
M  V30 2972 H 268.6 -1.07942 -3.05172 0
M  V30 2973 H 267.507 -3.15193 -2.01505 0
M  V30 2974 H 268.84 -4.13632 -2.66775 0
M  V30 2975 N 270.492 0.636531 -1.44174 0
M  V30 2976 C 271.44 1.76995 -1.50915 0
M  V30 2977 C 272.434 1.65053 -0.381295 0
M  V30 2978 O 273.64 1.71197 -0.55601 0
M  V30 2979 H 270.015 0.584247 -0.473455 0
M  V30 2980 H 271.986 1.68432 -2.4632 0
M  V30 2981 C 270.735 3.15314 -1.46534 0
M  V30 2982 H 270.058 3.25149 -2.32633 0
M  V30 2983 H 271.498 3.9453 -1.55312 0
M  V30 2984 C 269.957 3.3639 -0.185305 0
M  V30 2985 O 270.487 3.94699 0.746688 0
M  V30 2986 N 268.693 2.9046 -0.0901606 0
M  V30 2987 H 268.24 2.43193 -0.849416 0
M  V30 2988 H 268.198 3.04937 0.765553 0
M  V30 2989 N 271.97 1.30982 0.876444 0
M  V30 2990 C 272.92 1.14688 1.97055 0
M  V30 2991 C 273.904 0.0596593 1.60789 0
M  V30 2992 O 275.096 0.283892 1.74708 0
M  V30 2993 C 272.225 0.849627 3.3262 0
M  V30 2994 C 271.311 1.97752 3.75173 0
M  V30 2995 N 271.702 3.22384 3.89746 0
M  V30 2996 C 270 1.8758 4.04635 0
M  V30 2997 C 270.701 3.96121 4.25985 0
M  V30 2998 N 269.677 3.24237 4.36315 0
M  V30 2999 H 273.479 2.09204 2.06424 0
M  V30 3000 H 270.993 1.22445 1.06682 0
M  V30 3001 H 272.99 0.713895 4.10742 0
M  V30 3002 H 271.65 -0.087376 3.24582 0
M  V30 3003 H 272.661 3.57575 3.74647 0
M  V30 3004 H 269.338 1.01303 4.05024 0
M  V30 3005 H 270.728 5.03491 4.44911 0
M  V30 3006 N 273.449 -1.08991 1.13837 0
M  V30 3007 C 274.698 -1.80631 0.897509 0
M  V30 3008 C 275.011 -1.86872 -0.57777 0
M  V30 3009 O 276.217 -2.54866 -0.935701 0
M  V30 3010 C 274.673 -3.24517 1.55618 0
M  V30 3011 C 274.281 -3.26529 3.0673 0
M  V30 3012 C 276.025 -4.00882 1.3962 0
M  V30 3013 C 273.932 -4.64965 3.65461 0
M  V30 3014 H 272.862 -0.67691 0.332129 0
M  V30 3015 H 275.513 -1.2246 1.3666 0
M  V30 3016 H 273.895 -3.82778 1.01476 0
M  V30 3017 H 275.069 -2.78008 3.67489 0
M  V30 3018 H 273.384 -2.63656 3.22296 0
M  V30 3019 H 275.981 -5.03167 1.80906 0
M  V30 3020 H 276.324 -4.14896 0.341578 0
M  V30 3021 H 276.857 -3.49075 1.90766 0
M  V30 3022 H 273.596 -4.56153 4.70749 0
M  V30 3023 H 273.116 -5.13792 3.09481 0
M  V30 3024 H 274.795 -5.3394 3.654 0
M  V30 3025 N 274.927 -0.932562 -1.27047 0
M  V30 3026 C 276.173 -0.576412 -1.94436 0
M  V30 3027 C 276.506 0.880891 -1.73072 0
M  V30 3028 O 275.781 1.62905 -1.06264 0
M  V30 3029 C 276.064 -0.909031 -3.48437 0
M  V30 3030 C 275.917 -2.42044 -3.79123 0
M  V30 3031 C 277.236 -0.418341 -4.38107 0
M  V30 3032 H 274.355 -0.210888 -0.706184 0
M  V30 3033 H 276.997 -1.16522 -1.50075 0
M  V30 3034 H 275.147 -0.407947 -3.86352 0
M  V30 3035 H 276.819 -2.99359 -3.50973 0
M  V30 3036 H 275.062 -2.86758 -3.25503 0
M  V30 3037 H 275.733 -2.6037 -4.86736 0
M  V30 3038 H 278.209 -0.847856 -4.0737 0
M  V30 3039 H 277.085 -0.679981 -5.44672 0
M  V30 3040 H 277.346 0.681642 -4.36814 0
M  V30 3041 N 276.405 1.4127 -0.698611 0
M  V30 3042 C 277.652 2.0118 -0.230865 0
M  V30 3043 C 277.98 1.55338 1.17049 0
M  V30 3044 O 277.235 0.756775 1.80475 0
M  V30 3045 C 277.534 3.56592 -0.240192 0
M  V30 3046 C 277.2 4.21955 -1.58948 0
M  V30 3047 C 275.862 4.39524 -1.95887 0
M  V30 3048 C 278.214 4.58576 -2.47704 0
M  V30 3049 C 275.542 4.90992 -3.2116 0
M  V30 3050 C 277.894 5.11435 -3.72313 0
M  V30 3051 C 276.558 5.27215 -4.0939 0
M  V30 3052 H 275.828 0.736169 -0.0844796 0
M  V30 3053 H 278.475 1.69124 -0.8983 0
M  V30 3054 H 276.78 3.88456 0.510797 0
M  V30 3055 H 278.477 4.00758 0.139296 0
M  V30 3056 H 275.067 4.08657 -1.29219 0
M  V30 3057 H 279.251 4.44654 -2.20445 0
M  V30 3058 H 274.507 5.01393 -3.49878 0
M  V30 3059 H 278.681 5.38752 -4.4127 0
M  V30 3060 H 276.308 5.66859 -5.06533 0
M  V30 3061 N 277.883 0.443576 1.51229 0
M  V30 3062 C 279.294 -0.0180867 1.86691 0
M  V30 3063 C 279.645 -1.41384 1.36033 0
M  V30 3064 O 278.77 -2.04291 0.713722 0
M  V30 3065 C 279.365 -0.039597 3.38777 0
M  V30 3066 C 277.924 -0.445692 3.73752 0
M  V30 3067 C 277.071 0.357584 2.74985 0
M  V30 3068 H 280.022 0.659138 1.44364 0
M  V30 3069 H 280.043 -0.847761 3.70936 0
M  V30 3070 H 279.555 0.976382 3.75617 0
M  V30 3071 H 277.656 -1.46704 3.42503 0
M  V30 3072 H 277.769 -0.166155 4.78812 0
M  V30 3073 H 276.133 -0.184973 2.54027 0
M  V30 3074 H 276.916 1.37256 3.14668 0
M  V30 3075 N 279.361 -1.56624 0.175154 0
M  V30 3076 C 280.607 -1.9729 -0.469506 0
M  V30 3077 C 280.94 -1.06128 -1.62636 0
M  V30 3078 O 280.215 -0.109183 -1.94193 0
M  V30 3079 C 280.498 -3.47375 -0.948804 0
M  V30 3080 C 280.351 -4.49317 0.208491 0
M  V30 3081 C 281.67 -4.00652 -1.82116 0
M  V30 3082 H 278.789 -0.717317 -0.16919 0
M  V30 3083 H 281.431 -1.88184 0.262062 0
M  V30 3084 H 279.581 -3.55267 -1.57219 0
M  V30 3085 H 281.253 -4.53482 0.845682 0
M  V30 3086 H 279.496 -4.25121 0.863395 0
M  V30 3087 H 280.167 -5.51741 -0.169059 0
M  V30 3088 H 282.643 -3.95416 -1.2956 0
M  V30 3089 H 281.519 -5.06075 -2.12554 0
M  V30 3090 H 281.78 -3.44699 -2.7683 0
M  V30 3091 N 280.839 0.0985539 -1.57292 0
M  V30 3092 C 282.25 0.653457 -1.74891 0
M  V30 3093 C 282.601 1.7929 -0.796838 0
M  V30 3094 O 281.726 2.16385 0.0254886 0
M  V30 3095 C 282.321 1.19216 -3.17133 0
M  V30 3096 C 280.88 1.69316 -3.36168 0
M  V30 3097 C 280.027 0.601294 -2.70702 0
M  V30 3098 H 282.978 -0.127497 -1.58187 0
M  V30 3099 H 282.999 2.06154 -3.19814 0
M  V30 3100 H 282.511 0.362635 -3.86402 0
M  V30 3101 H 280.612 2.5468 -2.71972 0
M  V30 3102 H 280.725 1.78853 -4.44464 0
M  V30 3103 H 279.089 1.0399 -2.32504 0
M  V30 3104 H 279.872 -0.217592 -3.4261 0
M  V30 3105 N 282.317 1.53212 0.369288 0
M  V30 3106 C 283.566 1.68436 1.10961 0
M  V30 3107 C 283.879 0.440738 1.9057 0
M  V30 3108 O 285.085 0.473446 2.6734 0
M  V30 3109 C 283.541 2.97744 2.0218 0
M  V30 3110 C 283.149 4.29355 1.279 0
M  V30 3111 C 284.893 3.22334 2.76226 0
M  V30 3112 C 282.8 5.49755 2.17999 0
M  V30 3113 H 281.73 0.627568 0.41794 0
M  V30 3114 H 284.381 1.79713 0.370884 0
M  V30 3115 H 282.763 2.8026 2.79768 0
M  V30 3116 H 283.937 4.57458 0.554007 0
M  V30 3117 H 282.252 4.11179 0.657311 0
M  V30 3118 H 284.849 4.09471 3.43857 0
M  V30 3119 H 285.192 2.38238 3.41392 0
M  V30 3120 H 285.725 3.40475 2.05723 0
M  V30 3121 H 282.464 6.36318 1.57417 0
M  V30 3122 H 281.984 5.25937 2.88359 0
M  V30 3123 H 283.663 5.84401 2.77641 0
M  V30 3124 N 283.795 -0.628877 1.44509 0
M  V30 3125 C 285.072 -1.38733 1.37886 0
M  V30 3126 C 285.452 -2.11065 0.0387008 0
M  V30 3127 O 284.8 -2.06476 -0.97878 0
M  V30 3128 C 285.01 -2.35188 2.57852 0
M  V30 3129 C 286.358 -2.9845 3.02014 0
M  V30 3130 O 287.382 -2.45513 2.58073 0
M  V30 3131 O 286.241 -3.94487 3.78209 0
M  V30 3132 H 283.335 -0.621015 0.54614 0
M  V30 3133 H 285.881 -0.653744 1.56602 0
M  V30 3134 H 284.653 -1.80855 3.46998 0
M  V30 3135 H 284.276 -3.1596 2.4136 0
M  V30 3136 N 285.273 -1.31445 -0.869486 0
M  V30 3137 C 286.205 -1.14955 -1.98287 0
M  V30 3138 C 287.218 -0.0885037 -1.62559 0
M  V30 3139 O 288.407 -0.336044 -1.75308 0
M  V30 3140 C 285.507 -0.734255 -3.3085 0
M  V30 3141 C 284.68 -1.88042 -3.94917 0
M  V30 3142 C 283.739 -1.4511 -5.05796 0
M  V30 3143 O 282.765 -2.16082 -5.2659 0
M  V30 3144 N 283.967 -0.338763 -5.79511 0
M  V30 3145 H 286.732 -2.10856 -2.12979 0
M  V30 3146 H 284.293 -1.23786 -1.04349 0
M  V30 3147 H 286.285 -0.42975 -4.02412 0
M  V30 3148 H 284.855 0.133158 -3.12316 0
M  V30 3149 H 284.075 -2.35222 -3.1633 0
M  V30 3150 H 285.363 -2.6481 -4.34457 0
M  V30 3151 H 284.761 0.252274 -5.65137 0
M  V30 3152 H 283.318 -0.0937925 -6.51733 0
M  V30 3153 N 286.751 1.08385 -1.14413 0
M  V30 3154 C 287.991 1.8238 -0.922868 0
M  V30 3155 C 288.355 1.84225 0.540842 0
M  V30 3156 O 289.556 2.53985 0.880058 0
M  V30 3157 C 287.827 3.24048 -1.50757 0
M  V30 3158 S 289.386 4.14917 -1.4279 0
M  V30 3159 H 286.204 0.628524 -0.332384 0
M  V30 3160 H 288.806 1.30278 -1.45766 0
M  V30 3161 H 287.51 3.20288 -2.56601 0
M  V30 3162 H 287.041 3.81224 -0.971178 0
M  V30 3163 H 289.056 4.94473 -0.413582 0
M  V30 3164 N 288.23 0.939286 1.26551 0
M  V30 3165 C 289.479 0.581601 1.93133 0
M  V30 3166 C 289.792 -0.883224 1.74524 0
M  V30 3167 O 290.998 -1.3502 2.35546 0
M  V30 3168 C 289.454 0.989425 3.46032 0
M  V30 3169 C 289.062 2.47573 3.73379 0
M  V30 3170 C 290.806 0.703544 4.18629 0
M  V30 3171 C 288.713 2.82235 5.19709 0
M  V30 3172 H 287.643 0.213803 0.723052 0
M  V30 3173 H 290.294 1.14167 1.4366 0
M  V30 3174 H 288.676 0.357902 3.94379 0
M  V30 3175 H 289.85 3.15614 3.35744 0
M  V30 3176 H 288.165 2.73471 3.1401 0
M  V30 3177 H 290.762 0.938869 5.26393 0
M  V30 3178 H 291.105 -0.359639 4.14744 0
M  V30 3179 H 291.638 1.2947 3.76141 0
M  V30 3180 H 288.377 3.87509 5.28694 0
M  V30 3181 H 287.897 2.18854 5.58447 0
M  V30 3182 H 289.576 2.70599 5.87695 0
M  V30 3183 N 289.708 -1.40897 0.706093 0
M  V30 3184 C 290.985 -1.94868 0.169099 0
M  V30 3185 C 291.365 -1.64485 -1.32318 0
M  V30 3186 O 290.713 -0.95744 -2.07474 0
M  V30 3187 C 290.923 -3.45798 0.471654 0
M  V30 3188 C 292.271 -4.22663 0.405127 0
M  V30 3189 O 293.295 -3.53865 0.407168 0
M  V30 3190 O 292.154 -5.45216 0.374383 0
M  V30 3191 H 289.248 -0.82673 0.0211352 0
M  V30 3192 H 291.794 -1.50558 0.782976 0
M  V30 3193 H 290.566 -3.61235 1.50416 0
M  V30 3194 H 290.189 -3.97225 -0.172666 0
M  V30 3195 N 291.186 -0.45159 -1.50991 0
M  V30 3196 C 292.434 0.109857 -2.01801 0
M  V30 3197 C 292.755 1.41958 -1.3369 0
M  V30 3198 O 292.025 1.9003 -0.475951 0
M  V30 3199 H 290.605 0.0435884 -0.745727 0
M  V30 3200 H 293.267 -0.597557 -1.85514 0
M  V30 3201 H 292.363 0.275489 -3.10882 0
M  V30 3202 O 292.703 1.58203 -0.324668 0
M  V30 3203 H 293.394 1.9227 0.234936 0
M  V30 END ATOM
M  V30 BEGIN BOND
M  V30 END BOND
M  V30 END CTAB
M  END
$$$$
