drugbank_target|P05093 Steroid 17-alpha-hydroxylase/17,20 lyase (DB00157; DB00396; DB00421; DB01026; DB05812; DB09061; DB14009; DB14011)
 OpenBabel12092119293D

  0  0  0     0  0            999 V3000
M  V30 BEGIN CTAB
M  V30 COUNTS 8165 8257 0 0 0
M  V30 BEGIN ATOM
M  V30 1 H -0.908 1.98254 -0.117106 0
M  V30 2 N 0 1.576 0 0
M  V30 3 C 0.933 2.03868 1.02534 0
M  V30 4 C 1.911 0.928543 1.3348 0
M  V30 5 O 3.095 1.19667 1.45644 0
M  V30 6 C 0.222 2.43627 2.35294 0
M  V30 7 C -0.732 3.65373 2.2001 0
M  V30 8 S 0.101 5.13292 1.52614 0
M  V30 9 C 1.257 5.56322 2.86805 0
M  V30 10 H 1.49 2.90518 0.631377 0
M  V30 11 H -0.977 1.52953 0.210867 0
M  V30 12 H 0.981 2.67203 3.11629 0
M  V30 13 H -0.358 1.57376 2.7183 0
M  V30 14 H -1.165 3.90944 3.18086 0
M  V30 15 H -1.563 3.418 1.51819 0
M  V30 16 H 0.729 5.58782 3.83104 0
M  V30 17 H 1.672 6.56266 2.65933 0
M  V30 18 H 2.08 4.83886 2.90714 0
M  V30 19 N 1.4781 -0.272755 1.55222 0
M  V30 20 C 2.7241 -1.00172 1.77023 0
M  V30 21 C 3.0791 -1.83928 0.564633 0
M  V30 22 O 2.3721 -1.86416 -0.442674 0
M  V30 23 C 2.5661 -1.91642 3.01675 0
M  V30 24 C 2.3951 -1.16888 4.34243 0
M  V30 25 C 1.1651 -0.884464 4.97499 0
M  V30 26 C 3.3631 -0.55919 5.11251 0
M  V30 27 N 1.3451 -0.11015 6.13801 0
M  V30 28 C 2.7161 0.0809469 6.19947 0
M  V30 29 C 4.7711 -0.467058 4.95705 0
M  V30 30 C 3.4741 0.804335 7.14789 0
M  V30 31 C 5.5001 0.242739 5.90902 0
M  V30 32 C 4.8621 0.871613 6.98987 0
M  V30 33 H 0.9611 -0.348529 0.700037 0
M  V30 34 H 3.5451 -0.277365 1.92714 0
M  V30 35 H 1.7161 -2.61303 2.87359 0
M  V30 36 H 3.4481 -2.57901 3.1188 0
M  V30 37 H 0.2031 -1.18979 4.58411 0
M  V30 38 H 0.6271 0.264344 6.76484 0
M  V30 39 H 5.2691 -0.93894 4.12242 0
M  V30 40 H 2.9871 1.2879 7.97771 0
M  V30 41 H 6.5731 0.314347 5.8095 0
M  V30 42 H 5.4531 1.4121 7.71381 0
M  V30 43 N 2.9562 -1.48159 -0.537278 0
M  V30 44 C 3.8662 -1.64807 -1.6696 0
M  V30 45 C 4.8822 -0.530651 -1.65711 0
M  V30 46 O 6.0582 -0.800784 -1.84796 0
M  V30 47 C 3.1232 -1.67708 -3.03438 0
M  V30 48 C 2.1842 -2.91025 -3.156 0
M  V30 49 C 1.4172 -2.93778 -4.45567 0
M  V30 50 O 1.6402 -2.05153 -5.3223 0
M  V30 51 O 0.5742 -3.85868 -4.61941 0
M  V30 52 H 4.4002 -2.6066 -1.55853 0
M  V30 53 H 1.9852 -1.31475 -0.709549 0
M  V30 54 H 3.8672 -1.7218 -3.84619 0
M  V30 55 H 2.5422 -0.750278 -3.14885 0
M  V30 56 H 1.4492 -2.92089 -2.33741 0
M  V30 57 H 2.7822 -3.83065 -3.09066 0
M  V30 58 N 4.4343 0.785586 -1.36625 0
M  V30 59 C 5.3643 1.91259 -1.33949 0
M  V30 60 C 6.3453 1.68795 -0.210325 0
M  V30 61 O 7.5303 1.89854 -0.408561 0
M  V30 62 C 4.6603 3.28339 -1.13186 0
M  V30 63 C 3.6143 3.65335 -2.22967 0
M  V30 64 C 2.9403 5.00806 -1.87342 0
M  V30 65 C 4.2403 3.7352 -3.65075 0
M  V30 66 H 5.9343 1.93755 -2.28253 0
M  V30 67 H 3.4803 0.930788 -1.09874 0
M  V30 68 H 5.4333 4.06804 -1.09948 0
M  V30 69 H 4.1573 3.2624 -0.153332 0
M  V30 70 H 2.8163 2.89169 -2.25337 0
M  V30 71 H 2.4643 4.95233 -0.880545 0
M  V30 72 H 2.1643 5.26529 -2.60846 0
M  V30 73 H 3.6883 5.81687 -1.85667 0
M  V30 74 H 5.1023 4.42168 -3.64911 0
M  V30 75 H 3.4993 4.10731 -4.37516 0
M  V30 76 H 4.5693 2.74527 -3.99703 0
M  V30 77 N 5.9124 1.20967 1.01018 0
M  V30 78 C 7.1584 1.02526 1.74975 0
M  V30 79 C 7.4914 -0.4408 1.89131 0
M  V30 80 O 6.7664 -1.32718 1.42184 0
M  V30 81 C 7.0494 1.71699 3.1653 0
M  V30 82 C 6.9024 3.25791 3.10129 0
M  V30 83 C 8.2214 1.45531 4.15342 0
M  V30 84 H 5.3404 0.373863 0.635134 0
M  V30 85 H 7.9824 1.49071 1.17805 0
M  V30 86 H 6.1324 1.32128 3.65341 0
M  V30 87 H 7.8044 3.74697 2.69072 0
M  V30 88 H 6.0474 3.56363 2.47362 0
M  V30 89 H 6.7184 3.69353 4.10222 0
M  V30 90 H 9.1944 1.79872 3.75213 0
M  V30 91 H 8.0704 1.96453 5.1254 0
M  V30 92 H 8.3314 0.384237 4.40427 0
M  V30 93 N 7.3905 -1.2043 1.01659 0
M  V30 94 C 8.3535 -2.21433 0.591616 0
M  V30 95 C 9.3535 -1.57203 -0.338226 0
M  V30 96 O 10.5435 -1.73737 -0.126918 0
M  V30 97 C 7.6755 -3.40628 -0.136058 0
M  V30 98 H 8.8685 -2.60545 1.48514 0
M  V30 99 H 6.4215 -1.33893 0.806379 0
M  V30 100 H 7.1565 -3.07019 -1.04449 0
M  V30 101 H 6.9415 -3.88475 0.531917 0
M  V30 102 H 8.4315 -4.15475 -0.420735 0
M  V30 103 N 8.8686 -0.792821 -1.36206 0
M  V30 104 C 9.7986 -0.207853 -2.32573 0
M  V30 105 C 10.7796 0.659055 -1.56813 0
M  V30 106 O 11.9646 0.592176 -1.84951 0
M  V30 107 C 9.0946 0.655449 -3.41059 0
M  V30 108 C 8.0486 -0.111842 -4.27854 0
M  V30 109 C 7.3746 0.872274 -5.27537 0
M  V30 110 C 8.6746 -1.30299 -5.05786 0
M  V30 111 H 10.3686 -1.01294 -2.81744 0
M  V30 112 H 7.9146 -0.48854 -1.3546 0
M  V30 113 H 9.8676 1.07464 -4.07467 0
M  V30 114 H 8.5916 1.49328 -2.90463 0
M  V30 115 H 7.2506 -0.512053 -3.63006 0
M  V30 116 H 6.8986 1.70523 -4.73214 0
M  V30 117 H 6.5986 0.363291 -5.86476 0
M  V30 118 H 8.1226 1.28996 -5.96818 0
M  V30 119 H 9.5366 -0.959379 -5.65216 0
M  V30 120 H 7.9336 -1.7455 -5.74154 0
M  V30 121 H 9.0036 -2.09663 -4.37229 0
M  V30 122 N 10.3467 1.47872 -0.545128 0
M  V30 123 C 11.2767 2.32661 0.197793 0
M  V30 124 C 12.2577 1.43041 0.920504 0
M  V30 125 O 13.4427 1.71912 0.90333 0
M  V30 126 C 10.5727 3.24569 1.23582 0
M  V30 127 C 9.5267 4.23333 0.630323 0
M  V30 128 C 8.8527 5.0448 1.77211 0
M  V30 129 C 10.1527 5.20704 -0.407974 0
M  V30 130 H 11.8467 2.95024 -0.510045 0
M  V30 131 H 9.3927 1.4187 -0.246731 0
M  V30 132 H 11.3457 3.8272 1.76362 0
M  V30 133 H 10.0697 2.60236 1.97344 0
M  V30 134 H 8.7287 3.6639 0.123922 0
M  V30 135 H 8.3767 4.36561 2.49847 0
M  V30 136 H 8.0767 5.71339 1.37281 0
M  V30 137 H 9.6007 5.65487 2.3034 0
M  V30 138 H 11.0147 5.7329 0.033305 0
M  V30 139 H 9.4117 5.95699 -0.725486 0
M  V30 140 H 10.4817 4.66917 -1.30828 0
M  V30 141 N 11.8248 0.280983 1.55075 0
M  V30 142 C 12.7548 -0.597469 2.25727 0
M  V30 143 C 13.7358 -1.15417 1.24952 0
M  V30 144 O 14.9208 -1.18722 1.53684 0
M  V30 145 C 12.0508 -1.7789 2.98283 0
M  V30 146 C 11.0048 -1.35347 4.06036 0
M  V30 147 C 10.3308 -2.61846 4.66198 0
M  V30 148 C 11.6308 -0.499354 5.19907 0
M  V30 149 H 13.3248 -0.00824265 2.99399 0
M  V30 150 H 10.8708 -0.0025244 1.44 0
M  V30 151 H 12.8238 -2.39937 3.46422 0
M  V30 152 H 11.5478 -2.39405 2.22155 0
M  V30 153 H 10.2068 -0.756156 3.58717 0
M  V30 154 H 9.8548 -3.21632 3.86732 0
M  V30 155 H 9.5548 -2.3409 5.38958 0
M  V30 156 H 11.0788 -3.24732 5.1709 0
M  V30 157 H 12.4928 -1.02498 5.64063 0
M  V30 158 H 10.8898 -0.316424 5.99265 0
M  V30 159 H 11.9598 0.480459 4.82514 0
M  V30 160 N 13.3029 -1.57598 0.00835791 0
M  V30 161 C 14.2329 -2.1198 -0.979113 0
M  V30 162 C 15.2139 -1.03091 -1.35301 0
M  V30 163 O 16.3989 -1.30818 -1.43528 0
M  V30 164 C 13.5289 -2.62995 -2.26828 0
M  V30 165 C 12.4829 -3.76485 -2.03576 0
M  V30 166 C 11.8089 -4.13846 -3.38579 0
M  V30 167 C 13.1089 -5.0342 -1.39161 0
M  V30 168 H 14.8029 -2.94738 -0.526281 0
M  V30 169 H 12.3489 -1.41783 -0.251704 0
M  V30 170 H 14.3019 -2.99669 -2.96271 0
M  V30 171 H 13.0259 -1.7737 -2.7424 0
M  V30 172 H 11.6849 -3.40217 -1.36557 0
M  V30 173 H 11.3329 -3.25232 -3.83709 0
M  V30 174 H 11.0329 -4.90312 -3.23834 0
M  V30 175 H 12.5569 -4.53086 -4.09323 0
M  V30 176 H 13.9709 -5.37812 -1.98573 0
M  V30 177 H 12.3679 -5.84746 -1.34878 0
M  V30 178 H 13.4379 -4.83548 -0.361868 0
M  V30 179 N 14.781 0.264519 -1.55364 0
M  V30 180 C 16.009 1.013 -1.80405 0
M  V30 181 C 16.424 1.79618 -0.581622 0
M  V30 182 O 15.781 1.76879 0.449468 0
M  V30 183 C 15.832 1.96487 -3.03439 0
M  V30 184 O 15.553 1.21341 -4.20961 0
M  V30 185 C 17.054 2.83079 -3.41147 0
M  V30 186 H 14.274 0.298875 -0.600762 0
M  V30 187 H 16.818 0.292736 -2.02394 0
M  V30 188 H 14.973 2.63965 -2.83551 0
M  V30 189 H 15.387 1.85573 -4.90574 0
M  V30 190 H 16.861 3.4565 -4.30384 0
M  V30 191 H 17.338 3.53286 -2.60932 0
M  V30 192 H 17.944 2.2108 -3.63323 0
M  V30 193 N 16.2591 1.48442 0.529413 0
M  V30 194 C 17.1891 1.65902 1.64313 0
M  V30 195 C 18.1701 0.507897 1.6234 0
M  V30 196 O 19.3551 0.740503 1.79528 0
M  V30 197 C 16.4851 1.69911 3.02898 0
M  V30 198 C 15.4391 2.8453 3.19729 0
M  V30 199 C 14.7651 2.73629 4.59381 0
M  V30 200 C 16.0651 4.25821 3.02447 0
M  V30 201 H 17.7591 2.5914 1.49955 0
M  V30 202 H 15.3051 1.24709 0.719982 0
M  V30 203 H 17.2581 1.80715 3.80684 0
M  V30 204 H 15.9821 0.732524 3.18279 0
M  V30 205 H 14.6411 2.73283 2.44361 0
M  V30 206 H 14.2891 1.74938 4.71599 0
M  V30 207 H 13.9891 3.50541 4.71588 0
M  V30 208 H 15.5131 2.86401 5.39265 0
M  V30 209 H 16.9271 4.37898 3.70024 0
M  V30 210 H 15.3241 5.03735 3.26146 0
M  V30 211 H 16.3941 4.42244 1.98867 0
M  V30 212 N 17.7372 -0.778329 1.37039 0
M  V30 213 C 18.7002 -1.87301 1.32102 0
M  V30 214 C 19.7002 -1.59198 0.226405 0
M  V30 215 O 20.8902 -1.67403 0.481861 0
M  V30 216 C 18.0222 -3.24309 1.05055 0
M  V30 217 H 19.2152 -1.93093 2.29467 0
M  V30 218 H 16.7682 -0.977358 1.21973 0
M  V30 219 H 17.5032 -3.24196 0.0819373 0
M  V30 220 H 17.2882 -3.46098 1.84279 0
M  V30 221 H 18.7782 -4.04382 1.04234 0
M  V30 222 N 19.2153 -1.21501 -1.00376 0
M  V30 223 C 20.4453 -1.05746 -1.77486 0
M  V30 224 C 20.8533 0.395655 -1.85017 0
M  V30 225 O 20.1963 1.28626 -1.31152 0
M  V30 226 C 20.2583 -1.58092 -3.22873 0
M  V30 227 C 19.9223 -3.06568 -3.38917 0
M  V30 228 C 20.9193 -4.04106 -3.271 0
M  V30 229 C 18.6043 -3.45799 -3.64319 0
M  V30 230 C 20.5983 -5.38862 -3.40451 0
M  V30 231 C 18.2853 -4.80707 -3.77311 0
M  V30 232 C 19.2833 -5.77047 -3.65384 0
M  V30 233 O 18.9713 -7.09507 -3.77961 0
M  V30 234 H 18.7033 -0.371778 -0.564586 0
M  V30 235 H 21.2573 -1.61319 -1.27143 0
M  V30 236 H 19.4873 -0.969163 -3.74358 0
M  V30 237 H 21.1763 -1.38162 -3.81662 0
M  V30 238 H 21.9423 -3.75141 -3.07399 0
M  V30 239 H 17.8213 -2.71344 -3.72684 0
M  V30 240 H 21.3653 -6.14041 -3.31058 0
M  V30 241 H 17.2623 -5.09357 -3.96517 0
M  V30 242 H 18.0303 -7.16935 -3.94901 0
M  V30 243 N 20.6934 1.19889 -1.02296 0
M  V30 244 C 21.6234 2.25141 -0.619174 0
M  V30 245 C 22.6044 1.66051 0.368915 0
M  V30 246 O 23.7894 1.92546 0.252941 0
M  V30 247 C 20.9194 3.4728 0.0368783 0
M  V30 248 C 19.8734 4.19005 -0.872865 0
M  V30 249 C 19.1994 5.34637 -0.0822402 0
M  V30 250 C 20.4994 4.74452 -2.18387 0
M  V30 251 H 22.1934 2.59171 -1.49903 0
M  V30 252 H 19.7394 1.24579 -0.722222 0
M  V30 253 H 21.6924 4.20098 0.330958 0
M  V30 254 H 20.4164 3.12433 0.95149 0
M  V30 255 H 19.0754 3.48061 -1.15105 0
M  V30 256 H 18.7234 4.96034 0.83422 0
M  V30 257 H 18.4234 5.83557 -0.688149 0
M  V30 258 H 19.9474 6.10255 0.205238 0
M  V30 259 H 21.3614 5.39055 -1.95172 0
M  V30 260 H 19.7584 5.33834 -2.74119 0
M  V30 261 H 20.8284 3.92844 -2.84257 0
M  V30 262 N 22.1715 0.800033 1.35784 0
M  V30 263 C 23.4185 0.377342 1.98953 0
M  V30 264 C 23.7465 -1.05378 1.6348 0
M  V30 265 O 23.0015 -1.74459 0.886707 0
M  V30 266 C 23.3005 0.500276 3.53881 0
M  V30 267 C 22.9665 1.89375 4.09204 0
M  V30 268 C 21.6285 2.27499 4.24025 0
M  V30 269 C 23.9805 2.8057 4.39238 0
M  V30 270 C 21.3085 3.562 4.66195 0
M  V30 271 C 23.6605 4.0871 4.82844 0
M  V30 272 C 22.3245 4.46843 4.95871 0
M  V30 273 H 21.5945 0.138079 0.728021 0
M  V30 274 H 24.2415 1.01955 1.62103 0
M  V30 275 H 22.5465 -0.225405 3.91151 0
M  V30 276 H 24.2435 0.154097 4.00704 0
M  V30 277 H 20.8335 1.58753 3.98115 0
M  V30 278 H 25.0175 2.52367 4.27346 0
M  V30 279 H 20.2735 3.85602 4.74469 0
M  V30 280 H 24.4475 4.79481 5.05046 0
M  V30 281 H 22.0745 5.46623 5.28306 0
M  V30 282 N 23.6496 -1.47581 0.552962 0
M  V30 283 C 24.8956 -2.03369 0.0355807 0
M  V30 284 C 25.2506 -1.42016 -1.29805 0
M  V30 285 O 24.5436 -0.564917 -1.83083 0
M  V30 286 C 24.7376 -3.57199 -0.119728 0
M  V30 287 C 24.5666 -4.33468 1.1973 0
M  V30 288 C 23.3366 -4.7353 1.76345 0
M  V30 289 C 25.5346 -4.68866 2.11351 0
M  V30 290 N 23.5166 -5.34426 3.02097 0
M  V30 291 C 24.8876 -5.3002 3.21681 0
M  V30 292 C 26.9426 -4.50795 2.11397 0
M  V30 293 C 25.6456 -5.75011 4.32151 0
M  V30 294 C 27.6716 -4.96782 3.20876 0
M  V30 295 C 27.0336 -5.57981 4.29926 0
M  V30 296 H 23.1326 -0.780058 0.0550806 0
M  V30 297 H 25.7166 -1.80117 0.739315 0
M  V30 298 H 23.8876 -3.80227 -0.792579 0
M  V30 299 H 25.6196 -3.99627 -0.638792 0
M  V30 300 H 22.3746 -4.55352 1.30196 0
M  V30 301 H 22.7986 -5.69421 3.66182 0
M  V30 302 H 27.4406 -4.0284 1.28372 0
M  V30 303 H 25.1586 -6.21959 5.15938 0
M  V30 304 H 28.7446 -4.84573 3.21994 0
M  V30 305 H 27.6246 -5.92918 5.13243 0
M  V30 306 N 25.1277 -0.289203 -1.54924 0
M  V30 307 C 26.5387 0.205791 -1.85562 0
M  V30 308 C 26.8897 1.54351 -1.2112 0
M  V30 309 O 26.0147 2.10435 -0.504601 0
M  V30 310 C 26.6097 0.380177 -3.3666 0
M  V30 311 C 25.1687 0.819395 -3.67373 0
M  V30 312 C 24.3157 -0.079159 -2.77187 0
M  V30 313 H 27.2667 -0.510577 -1.50262 0
M  V30 314 H 27.2877 1.21659 -3.60526 0
M  V30 315 H 26.7997 -0.593589 -3.83534 0
M  V30 316 H 24.9007 1.80413 -3.26009 0
M  V30 317 H 25.0137 0.646957 -4.74712 0
M  V30 318 H 23.3777 0.439565 -2.50878 0
M  V30 319 H 24.1607 -1.04906 -3.26878 0
M  V30 320 N 26.6058 1.57591 -0.0167156 0
M  V30 321 C 27.5528 2.09462 0.969251 0
M  V30 322 C 28.5228 0.99381 1.33089 0
M  V30 323 O 29.7078 1.26726 1.42636 0
M  V30 324 C 26.8478 2.61622 2.25051 0
M  V30 325 C 25.9608 3.85666 1.94642 0
M  V30 326 C 25.0958 4.26266 3.16972 0
M  V30 327 C 24.1348 5.43101 2.82326 0
M  V30 328 N 23.2718 5.78915 3.97243 0
M  V30 329 H 28.1118 2.93428 0.519997 0
M  V30 330 H 25.6488 1.45044 0.245087 0
M  V30 331 H 27.6068 2.89949 2.99976 0
M  V30 332 H 26.2368 1.80505 2.67615 0
M  V30 333 H 25.2888 3.64145 1.10013 0
M  V30 334 H 26.6008 4.70678 1.65117 0
M  V30 335 H 25.7548 4.55963 4.00228 0
M  V30 336 H 24.4938 3.39996 3.49648 0
M  V30 337 H 23.4988 5.1311 1.97479 0
M  V30 338 H 24.7238 6.3106 2.50879 0
M  V30 339 H 22.6698 4.95602 4.29785 0
M  V30 340 H 22.5868 6.58539 3.71299 0
M  V30 341 H 23.8548 6.13212 4.81239 0
M  V30 342 N 28.0839 -0.256276 1.55502 0
M  V30 343 C 29.4999 -0.604325 1.47716 0
M  V30 344 C 29.6999 -1.88763 0.705039 0
M  V30 345 O 28.7559 -2.51445 0.230613 0
M  V30 346 C 30.0689 -0.715756 2.92057 0
M  V30 347 C 31.6169 -0.808706 3.02372 0
M  V30 348 C 32.0919 -0.951777 4.48001 0
M  V30 349 N 33.5829 -1.01688 4.519 0
M  V30 350 C 34.3179 -1.14668 5.61817 0
M  V30 351 N 33.8139 -1.24261 6.81565 0
M  V30 352 N 35.6069 -1.1791 5.49594 0
M  V30 353 H 27.7579 0.586291 2.04148 0
M  V30 354 H 30.0209 0.201015 0.926443 0
M  V30 355 H 29.7269 0.157027 3.51349 0
M  V30 356 H 29.6009 -1.59071 3.42018 0
M  V30 357 H 31.9879 -1.67195 2.43166 0
M  V30 358 H 32.0689 0.0912063 2.55637 0
M  V30 359 H 31.7129 -0.0931291 5.07815 0
M  V30 360 H 31.6429 -1.86659 4.92408 0
M  V30 361 H 34.1339 -0.954468 3.65648 0
M  V30 362 H 34.4469 -1.34046 7.61086 0
M  V30 363 H 32.7919 -1.21236 6.84344 0
M  V30 364 H 35.9829 -1.10057 4.54978 0
M  V30 365 H 36.1559 -1.27681 6.35296 0
M  V30 366 N 29.562 -1.4872 -0.521534 0
M  V30 367 C 30.978 -1.35028 -0.850855 0
M  V30 368 C 31.178 -0.367712 -1.98116 0
M  V30 369 O 30.234 0.208037 -2.51642 0
M  V30 370 C 31.547 -2.75263 -1.21041 0
M  V30 371 C 33.095 -2.83813 -1.31981 0
M  V30 372 C 33.57 -4.24769 -1.71276 0
M  V30 373 N 35.061 -4.27482 -1.78363 0
M  V30 374 C 35.796 -5.33494 -2.1017 0
M  V30 375 N 35.292 -6.49775 -2.40343 0
M  V30 376 N 37.085 -5.20894 -2.11248 0
M  V30 377 H 29.236 -2.11214 0.22413 0
M  V30 378 H 31.499 -0.947252 0.0376439 0
M  V30 379 H 31.205 -3.48765 -0.453415 0
M  V30 380 H 31.079 -3.09327 -2.15863 0
M  V30 381 H 33.466 -2.10561 -2.06756 0
M  V30 382 H 33.547 -2.53358 -0.352596 0
M  V30 383 H 33.191 -4.9854 -0.970588 0
M  V30 384 H 33.121 -4.52673 -2.69062 0
M  V30 385 H 35.612 -3.43611 -1.57288 0
M  V30 386 H 35.925 -7.26402 -2.63743 0
M  V30 387 H 34.27 -6.53035 -2.37844 0
M  V30 388 H 37.461 -4.29065 -1.87139 0
M  V30 389 H 37.634 -6.03612 -2.35704 0
M  V30 390 N 31.0401 0.771051 -1.3745 0
M  V30 391 C 32.2801 1.54264 -1.34096 0
M  V30 392 C 32.6441 1.91858 0.0737639 0
M  V30 393 O 33.8451 2.67797 0.23203 0
M  V30 394 C 32.1161 2.77326 -2.25445 0
M  V30 395 S 33.6751 3.67383 -2.39948 0
M  V30 396 H 30.4931 0.528122 -0.476034 0
M  V30 397 H 33.0951 0.906633 -1.73206 0
M  V30 398 H 31.7991 2.47788 -3.27153 0
M  V30 399 H 31.3301 3.45886 -1.87421 0
M  V30 400 H 33.3451 4.69334 -1.61059 0
M  V30 401 N 32.5182 1.22032 0.997298 0
M  V30 402 C 33.9292 1.0397 1.55071 0
M  V30 403 C 34.2802 -0.398192 1.92117 0
M  V30 404 O 33.4052 -1.28254 1.74298 0
M  V30 405 C 34.0002 1.88109 2.81781 0
M  V30 406 C 32.5592 1.74357 3.33581 0
M  V30 407 C 31.7062 1.84846 2.06706 0
M  V30 408 H 34.6572 1.35941 0.818883 0
M  V30 409 H 34.6782 1.39589 3.53971 0
M  V30 410 H 34.1902 2.92754 2.54787 0
M  V30 411 H 32.2912 0.72427 3.65493 0
M  V30 412 H 32.4042 2.56772 4.04481 0
M  V30 413 H 30.7682 1.28238 2.20062 0
M  V30 414 H 31.5512 2.91014 1.82114 0
M  V30 415 N 33.9963 -1.19345 1.0293 0
M  V30 416 C 35.2443 -1.88665 0.724574 0
M  V30 417 C 35.5653 -1.80036 -0.749144 0
M  V30 418 O 34.8353 -1.2111 -1.53978 0
M  V30 419 H 33.4153 -0.698406 0.265025 0
M  V30 420 H 36.0773 -1.44885 1.30362 0
M  V30 421 H 35.1733 -2.94987 1.01926 0
M  V30 422 N 35.4744 -0.807222 -1.35358 0
M  V30 423 C 36.4374 -0.223665 -2.28106 0
M  V30 424 C 37.4374 0.589354 -1.4961 0
M  V30 425 O 38.6274 0.407745 -1.69361 0
M  V30 426 C 35.7594 0.688149 -3.33882 0
M  V30 427 H 36.9524 -1.04169 -2.81227 0
M  V30 428 H 34.5054 -0.577921 -1.45223 0
M  V30 429 H 35.2404 1.52984 -2.85948 0
M  V30 430 H 35.0254 0.10687 -3.91954 0
M  V30 431 H 36.5154 1.09075 -4.03104 0
M  V30 432 N 36.9525 1.47285 -0.560781 0
M  V30 433 C 37.8995 2.30058 0.18491 0
M  V30 434 C 38.8695 1.39281 0.904986 0
M  V30 435 O 40.0545 1.68241 0.899979 0
M  V30 436 C 37.1945 3.23317 1.20666 0
M  V30 437 C 36.3075 4.29186 0.492285 0
M  V30 438 C 35.4425 5.09592 1.49964 0
M  V30 439 C 34.4815 6.07232 0.770439 0
M  V30 440 N 33.6185 6.80584 1.72479 0
M  V30 441 H 38.4585 2.93302 -0.527048 0
M  V30 442 H 35.9955 1.44568 -0.271738 0
M  V30 443 H 37.9535 3.75811 1.81168 0
M  V30 444 H 36.5835 2.61929 1.88661 0
M  V30 445 H 35.6355 3.7972 -0.227333 0
M  V30 446 H 36.9475 4.98738 -0.0787929 0
M  V30 447 H 36.1015 5.66254 2.17809 0
M  V30 448 H 34.8405 4.3995 2.10464 0
M  V30 449 H 33.8455 5.49745 0.0780846 0
M  V30 450 H 35.0705 6.78884 0.171134 0
M  V30 451 H 33.0165 6.1367 2.3183 0
M  V30 452 H 32.9335 7.46319 1.20596 0
M  V30 453 H 34.2015 7.41818 2.39428 0
M  V30 454 N 38.4306 0.297415 1.54768 0
M  V30 455 C 39.6606 -0.315165 2.04182 0
M  V30 456 C 40.0686 -1.4834 1.17439 0
M  V30 457 O 39.4116 -1.82695 0.191891 0
M  V30 458 C 39.4736 -0.837583 3.49607 0
M  V30 459 C 39.1376 0.204912 4.5654 0
M  V30 460 C 40.1346 1.03214 5.09552 0
M  V30 461 C 37.8196 0.345578 5.0111 0
M  V30 462 C 39.8136 1.986 6.05671 0
M  V30 463 C 37.5006 1.30289 5.97049 0
M  V30 464 C 38.4986 2.12159 6.49213 0
M  V30 465 O 38.1866 3.06268 7.43273 0
M  V30 466 H 37.9186 -0.0729646 0.672051 0
M  V30 467 H 40.4726 0.433907 2.00765 0
M  V30 468 H 38.7026 -1.63712 3.50336 0
M  V30 469 H 40.3916 -1.36566 3.82236 0
M  V30 470 H 41.1576 0.934312 4.75916 0
M  V30 471 H 37.0366 -0.28171 4.60138 0
M  V30 472 H 40.5806 2.62542 6.46311 0
M  V30 473 H 36.4776 1.40145 6.30103 0
M  V30 474 H 37.2456 3.01205 7.61064 0
M  V30 475 N 39.9087 -1.5758 0.0250728 0
M  V30 476 C 41.3197 -1.79476 -0.514323 0
M  V30 477 C 41.6707 -0.934956 -1.72491 0
M  V30 478 O 40.7957 -0.144245 -2.15919 0
M  V30 479 C 41.3907 -3.25503 -0.939842 0
M  V30 480 C 39.9497 -3.48408 -1.42438 0
M  V30 481 C 39.0967 -2.74583 -0.387201 0
M  V30 482 H 42.0477 -1.567 0.25113 0
M  V30 483 H 42.0687 -3.34992 -1.80445 0
M  V30 484 H 41.5807 -3.88056 -0.0585628 0
M  V30 485 H 39.6817 -2.91103 -2.32572 0
M  V30 486 H 39.7947 -4.57119 -1.43455 0
M  V30 487 H 38.1587 -2.39942 -0.854409 0
M  V30 488 H 38.9417 -3.39849 0.485543 0
M  V30 489 N 41.3868 0.248026 -1.55636 0
M  V30 490 C 42.3338 1.30707 -1.90222 0
M  V30 491 C 43.3038 1.47881 -0.756332 0
M  V30 492 O 44.4888 1.61883 -1.00988 0
M  V30 493 C 41.6288 2.65769 -2.20138 0
M  V30 494 C 40.7418 2.56612 -3.47526 0
M  V30 495 C 39.8768 3.8402 -3.67017 0
M  V30 496 C 38.9158 3.69476 -4.8801 0
M  V30 497 N 38.0528 4.88774 -5.04029 0
M  V30 498 H 42.8928 1.00512 -2.80538 0
M  V30 499 H 40.4298 0.485055 -1.38873 0
M  V30 500 H 42.3878 3.44386 -2.35487 0
M  V30 501 H 41.0178 2.94115 -1.33027 0
M  V30 502 H 40.0698 1.69571 -3.40514 0
M  V30 503 H 41.3818 2.41774 -4.36287 0
M  V30 504 H 40.5358 4.7108 -3.8232 0
M  V30 505 H 39.2748 4.01754 -2.76487 0
M  V30 506 H 38.2798 2.80799 -4.72686 0
M  V30 507 H 39.5048 3.53238 -5.8 0
M  V30 508 H 37.4508 5.0687 -4.16435 0
M  V30 509 H 37.3678 4.76562 -5.86877 0
M  V30 510 H 38.6358 5.77335 -5.23741 0
M  V30 511 N 42.8649 1.48995 0.513639 0
M  V30 512 C 44.0899 1.61792 1.29762 0
M  V30 513 C 44.5149 0.284475 1.85936 0
M  V30 514 O 43.8729 -0.746185 1.65232 0
M  V30 515 C 43.9209 2.67993 2.41272 0
M  V30 516 O 43.0249 2.26287 3.44772 0
M  V30 517 H 42.3659 0.541963 0.38363 0
M  V30 518 H 44.8959 1.95097 0.616307 0
M  V30 519 H 44.9059 2.89772 2.87221 0
M  V30 520 H 43.5809 3.64791 1.9975 0
M  V30 521 H 42.1579 2.14788 3.04829 0
M  V30 522 N 44.343 -0.763751 1.37857 0
M  V30 523 C 45.273 -1.89103 1.36975 0
M  V30 524 C 46.254 -1.68439 0.237152 0
M  V30 525 O 47.439 -1.8918 0.438713 0
M  V30 526 C 44.569 -3.26496 1.18395 0
M  V30 527 C 43.523 -3.61741 2.28751 0
M  V30 528 C 42.849 -4.97762 1.95286 0
M  V30 529 C 44.149 -3.67665 3.70972 0
M  V30 530 H 45.843 -1.90099 2.31307 0
M  V30 531 H 43.389 -0.91319 1.11341 0
M  V30 532 H 45.342 -4.05003 1.16406 0
M  V30 533 H 44.066 -3.25955 0.205215 0
M  V30 534 H 42.725 -2.85547 2.29909 0
M  V30 535 H 42.373 -4.93769 0.959221 0
M  V30 536 H 42.073 -5.22313 2.69189 0
M  V30 537 H 43.597 -5.7866 1.94898 0
M  V30 538 H 45.011 -4.36307 3.719 0
M  V30 539 H 43.408 -4.03718 4.43995 0
M  V30 540 H 44.478 -2.68134 4.0402 0
M  V30 541 N 45.8211 -1.22559 -0.990812 0
M  V30 542 C 46.7511 -1.0218 -2.09956 0
M  V30 543 C 47.7321 0.0579394 -1.70001 0
M  V30 544 O 48.9171 -0.104684 -1.93918 0
M  V30 545 C 46.0471 -0.601023 -3.4206 0
M  V30 546 C 45.0011 -1.62694 -3.95872 0
M  V30 547 C 44.3271 -1.06193 -5.24049 0
M  V30 548 C 45.6271 -3.01743 -4.2632 0
M  V30 549 H 47.3211 -1.94916 -2.27262 0
M  V30 550 H 44.8671 -0.938566 -1.09211 0
M  V30 551 H 46.8201 -0.445561 -4.19038 0
M  V30 552 H 45.5441 0.362005 -3.24588 0
M  V30 553 H 44.2031 -1.77021 -3.21028 0
M  V30 554 H 43.8511 -0.0901903 -5.02919 0
M  V30 555 H 43.5511 -1.74732 -5.61019 0
M  V30 556 H 45.0751 -0.918092 -6.03658 0
M  V30 557 H 46.4891 -2.90777 -4.94087 0
M  V30 558 H 44.8861 -3.67425 -4.74467 0
M  V30 559 H 45.9561 -3.51518 -3.34011 0
M  V30 560 N 47.2992 1.18797 -1.03562 0
M  V30 561 C 48.5242 1.9314 -0.755764 0
M  V30 562 C 48.9492 1.7537 0.68022 0
M  V30 563 O 48.3072 1.06046 1.47051 0
M  V30 564 C 48.3552 3.42747 -1.12058 0
M  V30 565 O 47.4592 4.11683 -0.243124 0
M  V30 566 H 46.8002 0.602724 -0.278604 0
M  V30 567 H 49.3302 1.50678 -1.3841 0
M  V30 568 H 49.3402 3.93437 -1.08035 0
M  V30 569 H 48.0152 3.55002 -2.16672 0
M  V30 570 H 46.5922 3.71323 -0.342539 0
M  V30 571 N 48.7773 0.814389 1.34928 0
M  V30 572 C 49.7073 0.244827 2.32213 0
M  V30 573 C 50.6883 -0.634024 1.57842 0
M  V30 574 O 51.8733 -0.562676 1.8587 0
M  V30 575 C 49.0033 -0.601106 3.42058 0
M  V30 576 C 47.9573 0.179896 4.27622 0
M  V30 577 C 47.2833 -0.788237 5.28858 0
M  V30 578 C 48.5833 1.38329 5.03649 0
M  V30 579 H 50.2773 1.05763 2.80097 0
M  V30 580 H 47.8233 0.510029 1.34665 0
M  V30 581 H 49.7763 -1.00968 4.09125 0
M  V30 582 H 48.5003 -1.44688 2.92802 0
M  V30 583 H 47.1593 0.569739 3.62146 0
M  V30 584 H 46.8073 -1.62973 4.75866 0
M  V30 585 H 46.5073 -0.269942 5.8698 0
M  V30 586 H 48.0313 -1.19485 5.98795 0
M  V30 587 H 49.4453 1.04918 5.63618 0
M  V30 588 H 47.8423 1.83662 5.71304 0
M  V30 589 H 48.9123 2.16592 4.33839 0
M  V30 590 N 50.2554 -1.46986 0.568584 0
M  V30 591 C 51.6664 -1.86188 0.138219 0
M  V30 592 C 52.0174 -1.47388 -1.29504 0
M  V30 593 O 51.1424 -0.88219 -1.97602 0
M  V30 594 C 51.7374 -3.3792 0.244065 0
M  V30 595 C 50.2964 -3.76171 -0.131335 0
M  V30 596 C 49.4434 -2.71027 0.586465 0
M  V30 597 H 52.3944 -1.38342 0.777645 0
M  V30 598 H 52.4154 -3.76729 -0.534351 0
M  V30 599 H 51.9274 -3.66128 1.28731 0
M  V30 600 H 50.0284 -3.5358 -1.17526 0
M  V30 601 H 50.1414 -4.78523 0.235146 0
M  V30 602 H 48.5054 -2.54684 0.0282722 0
M  V30 603 H 49.2884 -3.02077 1.63109 0
M  V30 604 N 51.7335 -0.305618 -1.54608 0
M  V30 605 C 52.6635 0.561482 -2.26649 0
M  V30 606 C 53.6445 1.13415 -1.26772 0
M  V30 607 O 54.8295 1.16262 -1.55553 0
M  V30 608 C 51.9595 1.73122 -3.01075 0
M  V30 609 C 50.9135 1.2887 -4.08138 0
M  V30 610 C 50.2395 2.54396 -4.70305 0
M  V30 611 C 51.5395 0.416578 -5.20636 0
M  V30 612 H 53.2335 -0.0393902 -2.99374 0
M  V30 613 H 50.7795 -0.020385 -1.43986 0
M  V30 614 H 52.7325 2.34396 -3.50195 0
M  V30 615 H 51.4565 2.3584 -2.25936 0
M  V30 616 H 50.1155 0.698991 -3.59875 0
M  V30 617 H 49.7635 3.15439 -3.918 0
M  V30 618 H 49.4635 2.25486 -5.42614 0
M  V30 619 H 50.9875 3.16464 -5.2219 0
M  V30 620 H 52.4015 0.935116 -5.65622 0
M  V30 621 H 50.7985 0.221046 -5.99693 0
M  V30 622 H 51.8685 -0.557162 -4.81688 0
M  V30 623 N 53.2116 1.57565 -0.0334293 0
M  V30 624 C 54.4576 1.92262 0.645226 0
M  V30 625 C 54.7906 0.910543 1.71531 0
M  V30 626 O 54.0656 -0.066099 1.94388 0
M  V30 627 C 54.3486 3.37422 1.2577 0
M  V30 628 C 54.2016 4.49369 0.196891 0
M  V30 629 C 55.5206 3.82628 2.17449 0
M  V30 630 H 52.6396 0.699171 0.233085 0
M  V30 631 H 55.2816 1.89779 -0.0915694 0
M  V30 632 H 53.4316 3.39669 1.88566 0
M  V30 633 H 55.1036 4.59254 -0.433962 0
M  V30 634 H 53.3466 4.31168 -0.477137 0
M  V30 635 H 54.0176 5.47978 0.665124 0
M  V30 636 H 56.4936 3.82145 1.64634 0
M  V30 637 H 55.3696 4.84883 2.57254 0
M  V30 638 H 55.6306 3.18376 3.0674 0
M  V30 639 N 54.6897 -0.239769 1.55765 0
M  V30 640 C 55.9377 -0.964892 1.77579 0
M  V30 641 C 56.2587 -1.85582 0.598699 0
M  V30 642 O 55.5287 -1.92075 -0.385226 0
M  V30 643 H 54.1087 -0.359265 0.654933 0
M  V30 644 H 56.7707 -0.256001 1.93211 0
M  V30 645 H 55.8667 -1.58243 2.69009 0
M  V30 646 N 56.1678 -1.49265 -0.50573 0
M  V30 647 C 57.3928 -1.62478 -1.28902 0
M  V30 648 C 57.8178 -0.294332 -1.85783 0
M  V30 649 O 57.1758 0.737412 -1.65626 0
M  V30 650 C 57.2238 -2.69268 -2.39848 0
M  V30 651 O 56.3278 -2.28113 -3.43567 0
M  V30 652 H 55.6688 -0.54399 -0.380751 0
M  V30 653 H 58.1988 -1.95421 -0.605952 0
M  V30 654 H 58.2088 -2.91291 -2.85681 0
M  V30 655 H 56.8838 -3.65846 -1.97812 0
M  V30 656 H 55.4608 -2.16401 -3.03685 0
M  V30 657 N 57.6459 0.756429 -1.3826 0
M  V30 658 C 58.5759 1.88374 -1.37976 0
M  V30 659 C 59.5569 1.68311 -0.246082 0
M  V30 660 O 60.7419 1.88944 -0.44874 0
M  V30 661 C 57.8719 3.25864 -1.20125 0
M  V30 662 C 56.8259 3.60523 -2.30666 0
M  V30 663 C 56.1519 4.9672 -1.97923 0
M  V30 664 C 57.4519 3.65692 -3.72916 0
M  V30 665 H 59.1459 1.88869 -2.32312 0
M  V30 666 H 56.6919 0.907272 -1.11824 0
M  V30 667 H 58.6449 4.0438 -1.18552 0
M  V30 668 H 57.3689 3.25841 -0.222498 0
M  V30 669 H 56.0279 2.84324 -2.3142 0
M  V30 670 H 55.6759 4.93253 -0.985393 0
M  V30 671 H 55.3759 5.20878 -2.71955 0
M  V30 672 H 56.8999 5.77618 -1.97964 0
M  V30 673 H 58.3139 4.34328 -3.74208 0
M  V30 674 H 56.7109 4.01358 -4.4613 0
M  V30 675 H 57.7809 2.65987 -4.05436 0
M  V30 676 N 59.124 1.23083 0.984299 0
M  V30 677 C 60.535 1.05609 1.5396 0
M  V30 678 C 60.886 -0.377793 1.92528 0
M  V30 679 O 60.011 -1.26398 1.75649 0
M  V30 680 C 60.606 1.91087 2.7977 0
M  V30 681 C 59.165 1.77885 3.31713 0
M  V30 682 C 58.312 1.87028 2.04733 0
M  V30 683 H 61.263 1.36802 0.804419 0
M  V30 684 H 61.284 1.43336 3.5247 0
M  V30 685 H 60.796 2.9544 2.51668 0
M  V30 686 H 58.897 0.762995 3.64704 0
M  V30 687 H 59.01 2.61047 4.01735 0
M  V30 688 H 57.374 1.30565 2.18689 0
M  V30 689 H 58.157 2.92929 1.79017 0
M  V30 690 N 60.6021 -1.18246 1.0419 0
M  V30 691 C 61.8491 -1.88257 0.746017 0
M  V30 692 C 62.1771 -1.80429 -0.726331 0
M  V30 693 O 61.4321 -1.2 -1.54591 0
M  V30 694 C 61.7311 -3.38082 1.15911 0
M  V30 695 C 61.3971 -3.66114 2.63195 0
M  V30 696 C 60.0591 -3.73474 3.03432 0
M  V30 697 C 62.4111 -3.78398 3.5842 0
M  V30 698 C 59.7391 -3.90599 4.37778 0
M  V30 699 C 62.0911 -3.97039 4.92487 0
M  V30 700 C 60.7551 -4.02635 5.32392 0
M  V30 701 H 60.0251 -0.688883 0.272987 0
M  V30 702 H 62.6721 -1.3995 1.30715 0
M  V30 703 H 60.9771 -3.88377 0.516806 0
M  V30 704 H 62.6741 -3.90596 0.907516 0
M  V30 705 H 59.2641 -3.61003 2.3103 0
M  V30 706 H 63.4481 -3.72042 3.28479 0
M  V30 707 H 58.7041 -3.93175 4.68213 0
M  V30 708 H 62.8781 -4.05486 5.66175 0
M  V30 709 H 60.5051 -4.15657 6.36501 0
M  V30 710 N 62.0802 -0.821533 -1.34494 0
M  V30 711 C 63.0102 -0.257138 -2.3208 0
M  V30 712 C 63.9912 0.625645 -1.58176 0
M  V30 713 O 65.1762 0.552811 -1.86166 0
M  V30 714 C 62.3062 0.582958 -3.42372 0
M  V30 715 C 61.2602 -0.202571 -4.2752 0
M  V30 716 C 60.5862 0.760179 -5.29269 0
M  V30 717 C 61.8862 -1.40998 -5.02908 0
M  V30 718 H 63.5802 -1.07247 -2.79532 0
M  V30 719 H 61.1262 -0.517163 -1.34393 0
M  V30 720 H 63.0792 0.987972 -4.09655 0
M  V30 721 H 61.8032 1.43133 -2.93565 0
M  V30 722 H 60.4622 -0.588936 -3.61838 0
M  V30 723 H 60.1102 1.60447 -4.76724 0
M  V30 724 H 59.8102 0.238809 -5.87115 0
M  V30 725 H 61.3342 1.16308 -5.9942 0
M  V30 726 H 62.7482 -1.07905 -5.63054 0
M  V30 727 H 61.1452 -1.86689 -5.70322 0
M  V30 728 H 62.2152 -2.1889 -4.32684 0
M  V30 729 N 63.5583 1.46682 -0.576371 0
M  V30 730 C 64.9693 1.86112 -0.148091 0
M  V30 731 C 65.3203 1.48073 1.2872 0
M  V30 732 O 64.4453 0.892656 1.97131 0
M  V30 733 C 65.0403 3.37786 -0.261982 0
M  V30 734 C 63.5993 3.76235 0.111384 0
M  V30 735 C 62.7463 2.70713 -0.60083 0
M  V30 736 H 65.6973 1.37927 -0.78497 0
M  V30 737 H 65.7183 3.77007 0.514364 0
M  V30 738 H 65.2303 3.6544 -1.30671 0
M  V30 739 H 63.3313 3.54198 1.15649 0
M  V30 740 H 63.4443 4.78391 -0.26052 0
M  V30 741 H 61.8083 2.54666 -0.0417783 0
M  V30 742 H 62.5913 3.01208 -1.64708 0
M  V30 743 N 65.0364 0.313813 1.54444 0
M  V30 744 C 66.4524 -0.0391619 1.59552 0
M  V30 745 C 66.6524 -1.51322 1.33056 0
M  V30 746 O 65.7084 -2.26782 1.11022 0
M  V30 747 C 67.0214 0.370302 2.98411 0
M  V30 748 C 68.5694 0.320139 3.11358 0
M  V30 749 C 69.0444 0.704617 4.52547 0
M  V30 750 N 70.5354 0.657645 4.58508 0
M  V30 751 C 71.2704 0.927453 5.6585 0
M  V30 752 N 70.7664 1.26389 6.81174 0
M  V30 753 N 72.5594 0.853662 5.5558 0
M  V30 754 H 64.7104 1.27433 1.69925 0
M  V30 755 H 66.9734 0.517511 0.794284 0
M  V30 756 H 66.6794 1.39694 3.22767 0
M  V30 757 H 66.5534 -0.269619 3.76235 0
M  V30 758 H 68.9404 -0.697275 2.86744 0
M  V30 759 H 69.0214 0.99486 2.35661 0
M  V30 760 H 68.6654 1.7199 4.77893 0
M  V30 761 H 68.5954 0.00768843 5.26599 0
M  V30 762 H 71.0864 0.409067 3.75679 0
M  V30 763 H 71.3994 1.4554 7.58972 0
M  V30 764 H 69.7444 1.30206 6.82694 0
M  V30 765 H 72.9354 0.590383 4.64362 0
M  V30 766 H 73.1084 1.0673 6.3915 0
M  V30 767 N 66.5145 -1.57545 0.0417849 0
M  V30 768 C 67.4645 -2.07483 -0.945247 0
M  V30 769 C 68.4485 -0.977983 -1.27767 0
M  V30 770 O 69.6405 -1.24142 -1.26166 0
M  V30 771 C 66.7695 -2.61576 -2.22335 0
M  V30 772 C 65.8555 -3.78213 -1.91874 0
M  V30 773 N 66.2465 -4.88344 -1.31733 0
M  V30 774 C 64.5445 -3.8694 -2.21796 0
M  V30 775 C 65.2455 -5.69462 -1.1869 0
M  V30 776 N 64.2215 -5.16771 -1.68666 0
M  V30 777 H 68.0235 -2.90029 -0.475441 0
M  V30 778 H 65.5375 -1.61581 -0.162911 0
M  V30 779 H 67.5345 -2.95651 -2.93932 0
M  V30 780 H 66.1945 -1.80465 -2.69931 0
M  V30 781 H 67.2055 -5.08335 -0.990729 0
M  V30 782 H 63.8825 -3.16757 -2.71977 0
M  V30 783 H 65.2725 -6.68023 -0.720793 0
M  V30 784 N 67.9926 0.231505 -1.5589 0
M  V30 785 C 69.2406 0.955461 -1.78088 0
M  V30 786 C 69.5616 1.85262 -0.608533 0
M  V30 787 O 68.8316 1.92277 0.375035 0
M  V30 788 H 67.4116 0.355787 -0.656829 0
M  V30 789 H 70.0736 0.245751 -1.93344 0
M  V30 790 H 69.1696 1.56814 -2.69844 0
M  V30 791 N 69.4707 1.49531 0.497807 0
M  V30 792 C 70.4207 1.62829 1.59596 0
M  V30 793 C 71.4047 0.483824 1.53453 0
M  V30 794 O 72.5967 0.736937 1.60929 0
M  V30 795 C 69.7257 1.7011 2.98191 0
M  V30 796 C 68.8117 2.90144 3.09317 0
M  V30 797 N 69.2027 4.1418 2.90324 0
M  V30 798 C 67.5007 2.88148 3.40422 0
M  V30 799 C 68.2017 4.94886 3.05717 0
M  V30 800 N 67.1777 4.28314 3.34736 0
M  V30 801 H 70.9797 2.56446 1.4357 0
M  V30 802 H 68.4937 1.46347 0.704001 0
M  V30 803 H 70.4907 1.77735 3.77115 0
M  V30 804 H 69.1507 0.776315 3.15283 0
M  V30 805 H 70.1617 4.44109 2.66436 0
M  V30 806 H 66.8387 2.05061 3.63671 0
M  V30 807 H 68.2287 6.03432 2.95499 0
M  V30 808 N 70.9488 -0.749086 1.3866 0
M  V30 809 C 71.8818 -1.87111 1.30631 0
M  V30 810 C 72.8598 -1.61572 0.18251 0
M  V30 811 O 74.0438 -1.85019 0.360592 0
M  V30 812 C 71.1708 -3.22815 1.02511 0
M  V30 813 C 70.2168 -3.67234 2.1689 0
M  V30 814 S 71.0498 -3.78245 3.79066 0
M  V30 815 C 72.2058 -5.16761 3.53142 0
M  V30 816 H 72.4388 -1.93636 2.25594 0
M  V30 817 H 69.9718 -0.912525 1.24549 0
M  V30 818 H 71.9298 -4.01181 0.869701 0
M  V30 819 H 70.5908 -3.13964 0.0925884 0
M  V30 820 H 69.7838 -4.65677 1.92771 0
M  V30 821 H 69.3858 -2.96034 2.28561 0
M  V30 822 H 71.6778 -6.02656 3.09534 0
M  V30 823 H 72.6208 -5.45902 4.50995 0
M  V30 824 H 73.0288 -4.85771 2.87554 0
M  V30 825 N 72.4269 -1.23603 -0.977757 0
M  V30 826 C 73.3769 -0.986664 -2.05545 0
M  V30 827 C 74.3609 0.0683009 -1.60755 0
M  V30 828 O 75.5529 -0.144162 -1.76412 0
M  V30 829 C 72.6819 -0.582623 -3.3832 0
M  V30 830 C 71.7679 -1.67313 -3.89701 0
M  V30 831 N 72.1589 -2.90394 -4.14132 0
M  V30 832 C 70.4569 -1.54832 -4.18262 0
M  V30 833 C 71.1579 -3.61017 -4.56116 0
M  V30 834 N 70.1339 -2.8854 -4.60701 0
M  V30 835 H 73.9359 -1.92139 -2.22396 0
M  V30 836 H 71.4499 -1.1358 -1.16074 0
M  V30 837 H 73.4469 -0.38524 -4.15116 0
M  V30 838 H 72.1069 0.34503 -3.22862 0
M  V30 839 H 73.1179 -3.26673 -4.01877 0
M  V30 840 H 69.7949 -0.687969 -4.11793 0
M  V30 841 H 71.1849 -4.66544 -4.83514 0
M  V30 842 N 73.905 1.17692 -1.04816 0
M  V30 843 C 74.853 2.23632 -0.63966 0
M  V30 844 C 75.847 1.6601 0.337219 0
M  V30 845 O 77.053 1.78844 0.203693 0
M  V30 846 H 73.428 0.727949 -0.188665 0
M  V30 847 H 75.399 2.55387 -1.54337 0
M  V30 848 C 74.148 3.4769 -0.0264051 0
M  V30 849 H 73.471 3.92331 -0.769164 0
M  V30 850 H 74.911 4.23418 0.222098 0
M  V30 851 C 73.37 3.13807 1.22584 0
M  V30 852 O 73.9 3.28236 2.31569 0
M  V30 853 N 72.106 2.68065 1.12202 0
M  V30 854 H 71.653 2.56525 0.235133 0
M  V30 855 H 71.611 2.45767 1.96076 0
M  V30 856 N 75.3831 0.828654 1.34056 0
M  V30 857 C 76.3311 0.242973 2.31327 0
M  V30 858 C 77.3251 -0.61944 1.57668 0
M  V30 859 O 78.5311 -0.51014 1.7262 0
M  V30 860 H 74.9061 0.059834 0.749616 0
M  V30 861 H 76.8771 1.07809 2.78244 0
M  V30 862 C 75.6261 -0.575733 3.429 0
M  V30 863 H 74.9491 0.0785582 3.99723 0
M  V30 864 H 76.3891 -0.951547 4.13185 0
M  V30 865 C 74.8481 -1.75044 2.87856 0
M  V30 866 O 75.3781 -2.84882 2.83205 0
M  V30 867 N 73.5841 -1.56903 2.44602 0
M  V30 868 H 73.1311 -0.675547 2.48584 0
M  V30 869 H 73.0891 -2.35652 2.08124 0
M  V30 870 N 76.8612 -1.46375 0.584142 0
M  V30 871 C 78.1082 -2.02378 0.0702675 0
M  V30 872 C 78.4362 -1.45545 -1.29023 0
M  V30 873 O 77.6912 -0.610967 -1.85918 0
M  V30 874 C 77.9902 -3.57373 -0.0439342 0
M  V30 875 C 77.6562 -4.33252 1.24915 0
M  V30 876 C 76.3182 -4.53701 1.60341 0
M  V30 877 C 78.6702 -4.7681 2.1048 0
M  V30 878 C 75.9982 -5.1496 2.81128 0
M  V30 879 C 78.3502 -5.39404 3.30494 0
M  V30 880 C 77.0142 -5.5808 3.66201 0
M  V30 881 H 76.2842 -0.740554 0.0257127 0
M  V30 882 H 78.9312 -1.75727 0.761065 0
M  V30 883 H 77.2362 -3.83169 -0.817869 0
M  V30 884 H 78.9332 -3.98384 -0.457318 0
M  V30 885 H 75.5232 -4.17633 0.963364 0
M  V30 886 H 79.7072 -4.60766 1.84414 0
M  V30 887 H 74.9632 -5.27611 3.08928 0
M  V30 888 H 79.1372 -5.72114 3.97063 0
M  V30 889 H 76.7642 -6.05318 4.59885 0
M  V30 890 N 78.3393 -0.321999 -1.54275 0
M  V30 891 C 79.5863 0.281044 -2.0054 0
M  V30 892 C 79.9143 1.52265 -1.21019 0
M  V30 893 O 79.1693 1.93687 -0.279982 0
M  V30 894 C 79.4683 0.661769 -3.5122 0
M  V30 895 C 79.1343 -0.480482 -4.48333 0
M  V30 896 C 77.7963 -0.794005 -4.74604 0
M  V30 897 C 80.1483 -1.24783 -5.06042 0
M  V30 898 C 77.4763 -1.87763 -5.55844 0
M  V30 899 C 79.8283 -2.32153 -5.88462 0
M  V30 900 C 78.4923 -2.64089 -6.13036 0
M  V30 901 H 77.7623 0.102841 -0.733829 0
M  V30 902 H 80.4093 -0.445453 -1.86247 0
M  V30 903 H 78.7143 1.46867 -3.63232 0
M  V30 904 H 80.4113 1.13989 -3.84457 0
M  V30 905 H 77.0013 -0.226039 -4.28004 0
M  V30 906 H 81.1853 -1.01887 -4.85729 0
M  V30 907 H 76.4413 -2.12954 -5.73115 0
M  V30 908 H 80.6153 -2.92057 -6.32199 0
M  V30 909 H 78.2423 -3.48185 -6.75775 0
M  V30 910 N 79.8174 1.5752 -0.0501392 0
M  V30 911 C 80.7644 2.1147 0.924603 0
M  V30 912 C 81.7344 1.02182 1.30951 0
M  V30 913 O 82.9194 1.29723 1.39916 0
M  V30 914 C 80.0594 2.66337 2.19451 0
M  V30 915 C 79.1724 3.89708 1.86418 0
M  V30 916 C 78.3074 4.32893 3.07859 0
M  V30 917 C 77.3464 5.48967 2.70742 0
M  V30 918 N 76.4834 5.87211 3.84874 0
M  V30 919 H 81.3234 2.94465 0.457639 0
M  V30 920 H 78.8604 1.45531 0.214266 0
M  V30 921 H 80.8184 2.96247 2.93758 0
M  V30 922 H 79.4484 1.86141 2.63726 0
M  V30 923 H 78.5004 3.66396 1.02264 0
M  V30 924 H 79.8124 4.74074 1.55096 0
M  V30 925 H 78.9664 4.6435 3.90466 0
M  V30 926 H 77.7054 3.47336 3.42358 0
M  V30 927 H 76.7104 5.17183 1.86551 0
M  V30 928 H 77.9354 6.3624 2.37436 0
M  V30 929 H 75.8814 5.04607 4.19175 0
M  V30 930 H 75.7984 6.66266 3.57247 0
M  V30 931 H 77.0664 6.23282 4.68123 0
M  V30 932 N 81.2955 -0.223234 1.56011 0
M  V30 933 C 82.2255 -1.27988 1.95298 0
M  V30 934 C 83.2065 -1.48976 0.820979 0
M  V30 935 O 84.3915 -1.61188 1.08315 0
M  V30 936 C 81.5215 -2.63 2.26822 0
M  V30 937 C 80.4755 -2.56671 3.42497 0
M  V30 938 C 79.8015 -3.95697 3.59622 0
M  V30 939 C 81.1015 -2.11601 4.77517 0
M  V30 940 H 82.7955 -0.953525 2.8381 0
M  V30 941 H 80.3415 -0.457244 1.36548 0
M  V30 942 H 82.2945 -3.37077 2.52898 0
M  V30 943 H 81.0185 -2.9732 1.35161 0
M  V30 944 H 79.6775 -1.85051 3.16467 0
M  V30 945 H 79.3255 -4.27322 2.6534 0
M  V30 946 H 79.0255 -3.92345 4.37424 0
M  V30 947 H 80.5495 -4.71438 3.88044 0
M  V30 948 H 81.9635 -2.7542 5.02809 0
M  V30 949 H 80.3605 -2.19311 5.5859 0
M  V30 950 H 81.4305 -1.06824 4.72987 0
M  V30 951 N 82.7736 -1.49793 -0.48987 0
M  V30 952 C 83.7056 -1.63413 -1.60713 0
M  V30 953 C 84.7186 -0.516329 -1.54395 0
M  V30 954 O 85.9076 -0.788812 -1.60125 0
M  V30 955 C 83.0076 -1.58516 -2.99543 0
M  V30 956 C 82.1806 -2.86016 -3.30928 0
M  V30 957 C 81.2396 -2.74018 -4.49222 0
M  V30 958 O 80.2656 -3.47964 -4.50455 0
M  V30 959 N 81.4676 -1.86309 -5.4979 0
M  V30 960 H 84.2326 -2.59777 -1.49452 0
M  V30 961 H 81.7936 -1.47022 -0.677955 0
M  V30 962 H 83.7856 -1.48128 -3.76617 0
M  V30 963 H 82.3556 -0.69965 -3.0467 0
M  V30 964 H 81.5756 -3.10672 -2.42645 0
M  V30 965 H 82.8636 -3.70521 -3.487 0
M  V30 966 H 82.2616 -1.2551 -5.51601 0
M  V30 967 H 80.8186 -1.81837 -6.25922 0
M  V30 968 N 84.2517 0.741722 -1.39055 0
M  V30 969 C 85.1987 1.85566 -1.37237 0
M  V30 970 C 86.1687 1.64457 -0.233072 0
M  V30 971 O 87.3537 1.85957 -0.427147 0
M  V30 972 C 84.4937 3.23004 -1.215 0
M  V30 973 C 83.6067 3.55864 -2.44918 0
M  V30 974 C 82.7417 4.82669 -2.21821 0
M  V30 975 C 81.7807 5.08351 -3.40948 0
M  V30 976 N 80.9177 6.26356 -3.17211 0
M  V30 977 H 85.7577 1.86455 -2.32462 0
M  V30 978 H 83.2947 0.911176 -1.15482 0
M  V30 979 H 85.2527 4.02331 -1.10389 0
M  V30 980 H 83.8827 3.21411 -0.29908 0
M  V30 981 H 82.9347 2.7129 -2.66657 0
M  V30 982 H 84.2467 3.70765 -3.33668 0
M  V30 983 H 83.4007 5.69962 -2.07914 0
M  V30 984 H 82.1397 4.69929 -1.30454 0
M  V30 985 H 81.1447 4.19522 -3.55361 0
M  V30 986 H 82.3697 5.22981 -4.33207 0
M  V30 987 H 80.3157 6.14917 -2.28502 0
M  V30 988 H 80.2327 6.41813 -3.99515 0
M  V30 989 H 81.5007 7.16506 -3.06984 0
M  V30 990 N 85.7298 1.2412 0.971189 0
M  V30 991 C 86.6768 1.0305 2.06517 0
M  V30 992 C 87.6468 -0.0550666 1.66009 0
M  V30 993 O 88.8318 0.0988688 1.90544 0
M  V30 994 C 85.9718 0.637653 3.39158 0
M  V30 995 C 85.0848 1.79633 3.92882 0
M  V30 996 C 84.2198 1.34939 5.13775 0
M  V30 997 C 83.2588 2.47823 5.59687 0
M  V30 998 N 82.3958 2.04022 6.71803 0
M  V30 999 H 87.2358 1.96685 2.23873 0
M  V30 1000 H 84.7728 0.979694 1.09729 0
M  V30 1001 H 86.7308 0.390931 4.15364 0
M  V30 1002 H 85.3608 -0.261693 3.21737 0
M  V30 1003 H 84.4128 2.15681 3.13346 0
M  V30 1004 H 85.7248 2.64466 4.22918 0
M  V30 1005 H 84.8788 1.06134 5.97345 0
M  V30 1006 H 83.6178 0.471557 4.85415 0
M  V30 1007 H 82.6228 2.77392 4.74693 0
M  V30 1008 H 83.8478 3.36158 5.90063 0
M  V30 1009 H 81.7938 1.18632 6.45184 0
M  V30 1010 H 81.7108 2.82409 7.01271 0
M  V30 1011 H 82.9788 1.78347 7.58823 0
M  V30 1012 N 87.2079 -1.17134 1.05439 0
M  V30 1013 C 88.4379 -1.91094 0.785274 0
M  V30 1014 C 88.8459 -1.77198 -0.663142 0
M  V30 1015 O 88.1889 -1.10835 -1.46497 0
M  V30 1016 C 88.2509 -3.42594 1.08949 0
M  V30 1017 C 87.9149 -3.80274 2.53458 0
M  V30 1018 C 88.9119 -3.82912 3.51673 0
M  V30 1019 C 86.5969 -4.11162 2.88532 0
M  V30 1020 C 88.5909 -4.15913 4.83006 0
M  V30 1021 C 86.2779 -4.43831 4.20068 0
M  V30 1022 C 87.2759 -4.46185 5.17115 0
M  V30 1023 O 86.9639 -4.78083 6.46291 0
M  V30 1024 H 86.6959 -0.613073 0.284811 0
M  V30 1025 H 89.2499 -1.49461 1.40893 0
M  V30 1026 H 87.4799 -3.84534 0.408741 0
M  V30 1027 H 89.1689 -3.97817 0.805991 0
M  V30 1028 H 89.9349 -3.5917 3.25917 0
M  V30 1029 H 85.8139 -4.085 2.13656 0
M  V30 1030 H 89.3579 -4.17665 5.5875 0
M  V30 1031 H 85.2549 -4.67037 4.45586 0
M  V30 1032 H 86.0229 -4.9593 6.51149 0
M  V30 1033 N 88.686 -0.835752 -1.33615 0
M  V30 1034 C 89.934 -0.429109 -1.97492 0
M  V30 1035 C 90.255 1.01433 -1.66543 0
M  V30 1036 O 89.525 1.70611 -0.962744 0
M  V30 1037 H 88.105 -0.155686 -0.730596 0
M  V30 1038 H 90.767 -1.06802 -1.63031 0
M  V30 1039 H 89.863 -0.55861 -3.0706 0
M  V30 1040 N 90.1641 1.46063 -0.591896 0
M  V30 1041 C 91.5751 1.85944 -0.167822 0
M  V30 1042 C 91.9261 1.49429 1.27143 0
M  V30 1043 O 91.0511 0.913515 1.96173 0
M  V30 1044 C 91.6461 3.37489 -0.297794 0
M  V30 1045 C 90.2051 3.76332 0.0714732 0
M  V30 1046 C 89.3521 2.7006 -0.629509 0
M  V30 1047 H 92.3031 1.37087 -0.799555 0
M  V30 1048 H 92.3241 3.77532 0.474349 0
M  V30 1049 H 91.8361 3.64034 -1.3454 0
M  V30 1050 H 89.9371 3.55405 1.11886 0
M  V30 1051 H 90.0501 4.78088 -0.311245 0
M  V30 1052 H 88.4141 2.54607 -0.0687867 0
M  V30 1053 H 89.1971 2.99444 -1.67894 0
M  V30 1054 N 91.6422 0.330177 1.54103 0
M  V30 1055 C 92.8912 -0.271336 1.99867 0
M  V30 1056 C 93.2042 -1.52723 1.22209 0
M  V30 1057 O 94.4102 -2.20515 1.58383 0
M  V30 1058 C 92.8662 -0.534032 3.55916 0
M  V30 1059 C 92.4742 0.705193 4.42415 0
M  V30 1060 C 94.2182 -1.09514 4.1013 0
M  V30 1061 C 92.1252 0.414035 5.89949 0
M  V30 1062 H 91.0552 -0.105166 0.74663 0
M  V30 1063 H 93.7062 0.443429 1.78062 0
M  V30 1064 H 92.0882 -1.30915 3.73734 0
M  V30 1065 H 93.2622 1.4804 4.36372 0
M  V30 1066 H 91.5772 1.18698 3.99124 0
M  V30 1067 H 94.1742 -1.3277 5.17954 0
M  V30 1068 H 94.5172 -2.04656 3.62521 0
M  V30 1069 H 95.0502 -0.381038 3.95971 0
M  V30 1070 H 91.7892 1.33481 6.41766 0
M  V30 1071 H 91.3092 -0.323336 5.98928 0
M  V30 1072 H 92.9882 0.0263105 6.46995 0
M  V30 1073 N 93.1203 -1.57491 0.0584922 0
M  V30 1074 C 94.3503 -1.9701 -0.622134 0
M  V30 1075 C 94.7583 -0.935034 -1.6448 0
M  V30 1076 O 94.1013 0.0882904 -1.83488 0
M  V30 1077 C 94.1633 -3.32794 -1.35972 0
M  V30 1078 C 93.8273 -4.54343 -0.492043 0
M  V30 1079 C 94.8243 -5.19323 0.244901 0
M  V30 1080 C 92.5093 -5.00534 -0.420821 0
M  V30 1081 C 94.5033 -6.28835 1.04143 0
M  V30 1082 C 92.1903 -6.09921 0.379389 0
M  V30 1083 C 93.1883 -6.73933 1.10919 0
M  V30 1084 O 92.8763 -7.81216 1.89623 0
M  V30 1085 H 92.6083 -0.653127 -0.174359 0
M  V30 1086 H 95.1623 -2.05029 0.123418 0
M  V30 1087 H 93.3923 -3.21351 -2.15105 0
M  V30 1088 H 95.0813 -3.5701 -1.93129 0
M  V30 1089 H 95.8473 -4.8459 0.19939 0
M  V30 1090 H 91.7263 -4.50496 -0.978474 0
M  V30 1091 H 95.2703 -6.7873 1.61157 0
M  V30 1092 H 91.1673 -6.44089 0.426512 0
M  V30 1093 H 91.9353 -7.98029 1.81913 0
M  V30 1094 N 94.5984 0.214957 -1.56127 0
M  V30 1095 C 95.8234 0.95924 -1.83884 0
M  V30 1096 C 96.2484 1.7689 -0.639644 0
M  V30 1097 O 95.6064 1.76566 0.411601 0
M  V30 1098 C 95.6544 1.84723 -3.09693 0
M  V30 1099 O 94.7584 2.94346 -2.8885 0
M  V30 1100 H 94.0994 0.27125 -0.606069 0
M  V30 1101 H 96.6294 0.226276 -2.03345 0
M  V30 1102 H 96.6394 2.25576 -3.39969 0
M  V30 1103 H 95.3144 1.25218 -3.96602 0
M  V30 1104 H 93.8914 2.57391 -2.69823 0
M  V30 1105 N 96.0765 1.50051 0.48192 0
M  V30 1106 C 97.3225 1.60736 1.2366 0
M  V30 1107 C 97.6555 0.301786 1.91841 0
M  V30 1108 O 96.9305 -0.696025 1.8162 0
M  V30 1109 C 97.2135 2.78009 2.28874 0
M  V30 1110 C 97.0665 4.18416 1.65069 0
M  V30 1111 C 98.3855 2.90867 3.30279 0
M  V30 1112 H 95.5045 0.585031 0.448228 0
M  V30 1113 H 98.1465 1.82402 0.531946 0
M  V30 1114 H 96.2965 2.59667 2.88973 0
M  V30 1115 H 97.9685 4.48322 1.0865 0
M  V30 1116 H 96.2115 4.23177 0.954148 0
M  V30 1117 H 96.8825 4.96381 2.41474 0
M  V30 1118 H 99.3585 3.07623 2.80191 0
M  V30 1119 H 98.2345 3.74566 4.01238 0
M  V30 1120 H 98.4955 2.01021 3.93755 0
M  V30 1121 N 97.5546 -0.734337 1.39446 0
M  V30 1122 C 98.9706 -1.03997 1.21065 0
M  V30 1123 C 99.1706 -2.01369 0.0727019 0
M  V30 1124 O 98.2266 -2.45856 -0.575426 0
M  V30 1125 C 99.5396 -1.60163 2.54496 0
M  V30 1126 C 101.088 -1.7224 2.61347 0
M  V30 1127 C 101.563 -2.31814 3.95002 0
M  V30 1128 N 103.054 -2.39223 3.96644 0
M  V30 1129 C 103.789 -2.86258 4.96834 0
M  V30 1130 N 103.285 -3.33184 6.07421 0
M  V30 1131 N 105.078 -2.85473 4.84213 0
M  V30 1132 H 97.2286 -0.0885624 2.12215 0
M  V30 1133 H 99.4916 -0.10191 0.942506 0
M  V30 1134 H 99.1976 -0.960811 3.38321 0
M  V30 1135 H 99.0716 -2.5896 2.74262 0
M  V30 1136 H 101.459 -2.35443 1.77906 0
M  V30 1137 H 101.54 -0.720939 2.4543 0
M  V30 1138 H 101.184 -1.69238 4.78875 0
M  V30 1139 H 101.114 -3.32638 4.08239 0
M  V30 1140 H 103.605 -2.06057 3.16779 0
M  V30 1141 H 103.918 -3.67586 6.7978 0
M  V30 1142 H 102.263 -3.31191 6.11013 0
M  V30 1143 H 105.454 -2.48136 3.96921 0
M  V30 1144 H 105.627 -3.21814 5.62441 0
M  V30 1145 N 99.0327 -1.24633 -0.964593 0
M  V30 1146 C 99.9657 -0.984662 -2.05863 0
M  V30 1147 C 100.944 0.0826554 -1.6239 0
M  V30 1148 O 102.128 -0.0549296 -1.8842 0
M  V30 1149 C 99.2547 -0.486529 -3.35187 0
M  V30 1150 C 98.3007 -1.54286 -3.97615 0
M  V30 1151 S 99.1337 -3.12513 -4.34851 0
M  V30 1152 C 100.29 -2.6441 -5.67308 0
M  V30 1153 H 100.523 -1.91104 -2.27743 0
M  V30 1154 H 98.0557 -1.08052 -1.10291 0
M  V30 1155 H 100.014 -0.205757 -4.09984 0
M  V30 1156 H 98.6747 0.419186 -3.1129 0
M  V30 1157 H 97.8677 -1.14481 -4.90826 0
M  V30 1158 H 97.4697 -1.7738 -3.2926 0
M  V30 1159 H 99.7617 -2.07416 -6.44969 0
M  V30 1160 H 100.705 -3.56222 -6.11973 0
M  V30 1161 H 101.113 -2.04734 -5.26065 0
M  V30 1162 N 100.511 1.16574 -1.06058 0
M  V30 1163 C 101.759 1.86677 -0.77434 0
M  V30 1164 C 102.08 1.81959 0.701147 0
M  V30 1165 O 101.35 1.2515 1.50713 0
M  V30 1166 H 99.9298 0.691134 -0.283449 0
M  V30 1167 H 102.592 1.41378 -1.34158 0
M  V30 1168 H 101.688 2.92181 -1.09711 0
M  V30 1169 N 101.989 0.842826 1.3317 0
M  V30 1170 C 103.217 0.454055 2.01856 0
M  V30 1171 C 103.632 -0.94587 1.63397 0
M  V30 1172 O 102.989 -1.61534 0.849302 0
M  V30 1173 C 103.04 0.569715 3.56982 0
M  V30 1174 O 102.761 1.91448 3.94055 0
M  V30 1175 C 104.262 0.178412 4.42941 0
M  V30 1176 H 101.482 0.17979 0.646465 0
M  V30 1177 H 104.026 1.1365 1.70012 0
M  V30 1178 H 102.181 -0.0648587 3.87346 0
M  V30 1179 H 102.595 1.90282 4.88767 0
M  V30 1180 H 104.069 0.310376 5.51127 0
M  V30 1181 H 104.546 -0.880056 4.30293 0
M  V30 1182 H 105.152 0.787579 4.17944 0
M  V30 1183 N 103.467 -1.45747 0.599634 0
M  V30 1184 C 104.414 -2.30467 -0.123849 0
M  V30 1185 C 105.384 -1.41632 -0.86774 0
M  V30 1186 O 106.569 -1.70568 -0.855056 0
M  V30 1187 C 103.709 -3.26402 -1.12051 0
M  V30 1188 C 102.822 -4.3034 -0.37832 0
M  V30 1189 C 101.957 -5.13389 -1.364 0
M  V30 1190 C 100.996 -6.09061 -0.609171 0
M  V30 1191 N 100.133 -6.84918 -1.54374 0
M  V30 1192 H 104.973 -2.91802 0.604627 0
M  V30 1193 H 102.51 -1.43797 0.309972 0
M  V30 1194 H 104.468 -3.80482 -1.7114 0
M  V30 1195 H 103.098 -2.66839 -1.8165 0
M  V30 1196 H 102.15 -3.78984 0.327929 0
M  V30 1197 H 103.462 -4.98354 0.210997 0
M  V30 1198 H 102.616 -5.7183 -2.02719 0
M  V30 1199 H 101.355 -4.45376 -1.98725 0
M  V30 1200 H 100.36 -5.49758 0.0676979 0
M  V30 1201 H 101.585 -6.79099 0.00891991 0
M  V30 1202 H 99.531 -6.19601 -2.15478 0
M  V30 1203 H 99.448 -7.49254 -1.00766 0
M  V30 1204 H 100.716 -7.47906 -2.19676 0
M  V30 1205 N 104.945 -0.338344 -1.53925 0
M  V30 1206 C 106.173 0.261298 -2.05243 0
M  V30 1207 C 106.588 1.44625 -1.21363 0
M  V30 1208 O 105.945 1.80811 -0.247736 0
M  V30 1209 C 105.996 0.681412 -3.5502 0
M  V30 1210 O 105.717 -0.456414 -4.35716 0
M  V30 1211 C 107.218 1.34232 -4.22489 0
M  V30 1212 H 104.438 0.0513685 -0.669031 0
M  V30 1213 H 106.982 -0.488822 -1.98572 0
M  V30 1214 H 105.137 1.38148 -3.61931 0
M  V30 1215 H 105.551 -0.122564 -5.24357 0
M  V30 1216 H 107.025 1.58708 -5.28693 0
M  V30 1217 H 107.502 2.29426 -3.74514 0
M  V30 1218 H 108.108 0.684424 -4.19757 0
M  V30 1219 N 106.423 1.57458 -0.0668435 0
M  V30 1220 C 107.651 1.97624 0.612565 0
M  V30 1221 C 108.066 0.94502 1.63447 0
M  V30 1222 O 107.423 -0.0689276 1.8237 0
M  V30 1223 C 107.474 3.37869 1.28555 0
M  V30 1224 O 107.195 4.3704 0.304557 0
M  V30 1225 C 108.696 3.92882 2.05325 0
M  V30 1226 H 105.916 0.650045 0.166381 0
M  V30 1227 H 108.46 2.04035 -0.137782 0
M  V30 1228 H 106.615 3.3256 1.98702 0
M  V30 1229 H 107.029 5.18565 0.786779 0
M  V30 1230 H 108.503 4.93247 2.47812 0
M  V30 1231 H 108.98 3.29156 2.9078 0
M  V30 1232 H 109.586 4.01577 1.40056 0
M  V30 1233 N 107.901 -0.206675 1.56239 0
M  V30 1234 C 109.147 -0.930218 1.80208 0
M  V30 1235 C 109.48 -1.83387 0.638981 0
M  V30 1236 O 108.755 -1.91119 -0.361066 0
M  V30 1237 C 109.038 -1.75641 3.1436 0
M  V30 1238 C 108.891 -0.878257 4.41142 0
M  V30 1239 C 110.21 -2.73129 3.45092 0
M  V30 1240 H 107.329 -0.336742 0.655571 0
M  V30 1241 H 109.971 -0.198222 1.88963 0
M  V30 1242 H 108.121 -2.38048 3.07027 0
M  V30 1243 H 109.793 -0.269787 4.6051 0
M  V30 1244 H 108.036 -0.184385 4.33408 0
M  V30 1245 H 108.707 -1.49106 5.3148 0
M  V30 1246 H 111.183 -2.20856 3.52649 0
M  V30 1247 H 110.059 -3.28028 4.40101 0
M  V30 1248 H 110.32 -3.51606 2.68003 0
M  V30 1249 N 109.379 -1.50304 -0.473955 0
M  V30 1250 C 110.628 -1.60392 -1.22301 0
M  V30 1251 C 110.941 -0.308411 -1.93153 0
M  V30 1252 O 112.147 -0.288156 -2.69966 0
M  V30 1253 C 110.603 -2.83109 -2.2221 0
M  V30 1254 C 110.211 -4.19524 -1.57173 0
M  V30 1255 C 111.955 -3.0254 -2.97775 0
M  V30 1256 C 109.862 -5.33431 -2.55353 0
M  V30 1257 H 108.792 -0.597286 -0.460179 0
M  V30 1258 H 111.443 -1.76731 -0.493803 0
M  V30 1259 H 109.825 -2.60322 -2.9841 0
M  V30 1260 H 110.999 -4.52554 -0.867824 0
M  V30 1261 H 109.314 -4.05674 -0.939002 0
M  V30 1262 H 111.911 -3.84811 -3.71248 0
M  V30 1263 H 112.254 -2.14154 -3.56992 0
M  V30 1264 H 112.787 -3.25494 -2.28688 0
M  V30 1265 H 109.526 -6.23962 -2.00878 0
M  V30 1266 H 109.046 -5.04823 -3.23904 0
M  V30 1267 H 110.725 -5.63887 -3.17239 0
M  V30 1268 N 110.857 0.726932 -1.39834 0
M  V30 1269 C 112.103 1.48884 -1.377 0
M  V30 1270 C 112.436 1.94185 0.0244852 0
M  V30 1271 O 111.711 1.67361 0.990986 0
M  V30 1272 C 111.994 2.72288 -2.3565 0
M  V30 1273 C 111.847 2.32956 -3.84775 0
M  V30 1274 C 113.166 3.74414 -2.31306 0
M  V30 1275 H 110.285 0.540062 -0.5015 0
M  V30 1276 H 112.927 0.830547 -1.70886 0
M  V30 1277 H 111.077 3.28457 -2.07481 0
M  V30 1278 H 112.749 1.82356 -4.23726 0
M  V30 1279 H 110.992 1.65088 -4.01159 0
M  V30 1280 H 111.663 3.21362 -4.4881 0
M  V30 1281 H 114.139 3.27849 -2.56231 0
M  V30 1282 H 113.015 4.58414 -3.01907 0
M  V30 1283 H 113.276 4.21909 -1.32081 0
M  V30 1284 N 112.336 1.25143 0.95797 0
M  V30 1285 C 113.584 1.09476 1.69881 0
M  V30 1286 C 113.905 -0.365502 1.91544 0
M  V30 1287 O 113.175 -1.25985 1.50015 0
M  V30 1288 H 111.755 0.402128 0.629525 0
M  V30 1289 H 114.417 1.57214 1.15194 0
M  V30 1290 H 113.513 1.60046 2.6794 0
M  V30 1291 N 113.814 -1.1601 1.06675 0
M  V30 1292 C 114.764 -2.18512 0.650888 0
M  V30 1293 C 115.748 -1.57677 -0.320441 0
M  V30 1294 O 116.94 -1.76482 -0.135266 0
M  V30 1295 C 114.069 -3.43273 0.0429255 0
M  V30 1296 C 113.155 -4.11176 1.03898 0
M  V30 1297 N 113.546 -4.54672 2.216 0
M  V30 1298 C 111.844 -4.37417 0.870779 0
M  V30 1299 C 112.545 -5.07248 2.84736 0
M  V30 1300 N 111.521 -5.0037 2.12441 0
M  V30 1301 H 115.323 -2.49863 1.54745 0
M  V30 1302 H 112.837 -1.32503 0.938975 0
M  V30 1303 H 114.834 -4.16006 -0.272857 0
M  V30 1304 H 113.494 -3.13408 -0.84884 0
M  V30 1305 H 114.505 -4.4828 2.59356 0
M  V30 1306 H 111.182 -4.17488 0.0313293 0
M  V30 1307 H 112.572 -5.50912 3.84636 0
M  V30 1308 N 115.292 -0.849877 -1.32721 0
M  V30 1309 C 116.242 -0.262892 -2.26479 0
M  V30 1310 C 117.226 0.588493 -1.49752 0
M  V30 1311 O 118.418 0.438659 -1.71478 0
M  V30 1312 C 115.547 0.551818 -3.38836 0
M  V30 1313 C 114.633 -0.311689 -4.22953 0
M  V30 1314 N 115.024 -1.39567 -4.86163 0
M  V30 1315 C 113.322 -0.100611 -4.45887 0
M  V30 1316 C 114.023 -1.92651 -5.48872 0
M  V30 1317 N 112.999 -1.22637 -5.29586 0
M  V30 1318 H 116.801 -1.09166 -2.72873 0
M  V30 1319 H 114.315 -0.695486 -1.46754 0
M  V30 1320 H 116.312 0.988713 -4.05006 0
M  V30 1321 H 114.972 1.37844 -2.93988 0
M  V30 1322 H 115.983 -1.77859 -4.86402 0
M  V30 1323 H 112.66 0.691681 -4.11731 0
M  V30 1324 H 114.05 -2.83487 -6.09167 0
M  V30 1325 N 116.77 1.45427 -0.607355 0
M  V30 1326 C 117.702 2.2871 0.149752 0
M  V30 1327 C 118.715 1.39937 0.831958 0
M  V30 1328 O 119.904 1.64313 0.697385 0
M  V30 1329 C 117.004 3.15673 1.23304 0
M  V30 1330 C 116.177 4.32722 0.637996 0
M  V30 1331 C 115.236 5.00895 1.61215 0
M  V30 1332 O 114.262 5.57697 1.13854 0
M  V30 1333 N 115.464 5.00159 2.94655 0
M  V30 1334 H 118.229 2.94328 -0.564882 0
M  V30 1335 H 115.79 1.55612 -0.446823 0
M  V30 1336 H 117.782 3.58144 1.88454 0
M  V30 1337 H 116.352 2.51965 1.8502 0
M  V30 1338 H 115.572 3.93734 -0.191572 0
M  V30 1339 H 116.86 5.08321 0.220665 0
M  V30 1340 H 116.258 4.553 3.35735 0
M  V30 1341 H 114.815 5.46495 3.55228 0
M  V30 1342 N 118.248 0.346503 1.53744 0
M  V30 1343 C 119.178 -0.501193 2.28058 0
M  V30 1344 C 120.159 -1.10014 1.29734 0
M  V30 1345 O 121.344 -1.12097 1.58581 0
M  V30 1346 C 118.474 -1.65078 3.05559 0
M  V30 1347 C 117.428 -1.18003 4.11411 0
M  V30 1348 C 116.754 -2.41837 4.76884 0
M  V30 1349 C 118.054 -0.278394 5.21558 0
M  V30 1350 H 119.748 0.11875 2.99164 0
M  V30 1351 H 117.294 0.0585531 1.43881 0
M  V30 1352 H 119.247 -2.25028 3.56287 0
M  V30 1353 H 117.971 -2.29767 2.32109 0
M  V30 1354 H 116.63 -0.603331 3.61601 0
M  V30 1355 H 116.278 -3.0494 4.00026 0
M  V30 1356 H 115.978 -2.1102 5.48402 0
M  V30 1357 H 117.502 -3.02508 5.30397 0
M  V30 1358 H 118.916 -0.784823 5.67903 0
M  V30 1359 H 117.313 -0.0619707 6.00068 0
M  V30 1360 H 118.383 0.684677 4.80042 0
M  V30 1361 N 119.726 -1.57421 0.075193 0
M  V30 1362 C 120.689 -2.11791 -0.876203 0
M  V30 1363 C 121.689 -1.04268 -1.22412 0
M  V30 1364 O 122.879 -1.30242 -1.15684 0
M  V30 1365 C 120.011 -2.62207 -2.17854 0
M  V30 1366 H 121.204 -2.9716 -0.40444 0
M  V30 1367 H 118.757 -1.55333 -0.173557 0
M  V30 1368 H 119.492 -1.803 -2.6956 0
M  V30 1369 H 119.277 -3.40802 -1.93897 0
M  V30 1370 H 120.767 -3.04335 -2.85955 0
M  V30 1371 N 121.204 0.198386 -1.56346 0
M  V30 1372 C 122.151 1.24589 -1.94284 0
M  V30 1373 C 123.121 1.454 -0.802997 0
M  V30 1374 O 124.306 1.58588 -1.06087 0
M  V30 1375 C 121.446 2.58631 -2.28482 0
M  V30 1376 C 120.559 2.45426 -3.55514 0
M  V30 1377 C 119.694 3.7215 -3.79049 0
M  V30 1378 C 118.733 3.53763 -4.99518 0
M  V30 1379 N 117.87 4.72491 -5.19323 0
M  V30 1380 H 122.71 0.915356 -2.83593 0
M  V30 1381 H 120.247 0.440629 -1.40346 0
M  V30 1382 H 122.205 3.3672 -2.46324 0
M  V30 1383 H 120.835 2.89734 -1.42317 0
M  V30 1384 H 119.887 1.58652 -3.45737 0
M  V30 1385 H 121.199 2.27772 -4.43758 0
M  V30 1386 H 120.353 4.58679 -3.97113 0
M  V30 1387 H 119.092 3.92754 -2.89129 0
M  V30 1388 H 118.097 2.65619 -4.8138 0
M  V30 1389 H 119.322 3.34607 -5.90944 0
M  V30 1390 H 117.268 4.93365 -4.3235 0
M  V30 1391 H 117.185 4.5765 -6.01741 0
M  V30 1392 H 118.453 5.6038 -5.41843 0
M  V30 1393 N 122.682 1.50554 0.465978 0
M  V30 1394 C 123.592 1.72585 1.58907 0
M  V30 1395 C 124.608 0.60911 1.6299 0
M  V30 1396 O 125.784 0.88804 1.80765 0
M  V30 1397 C 122.849 1.81995 2.95091 0
M  V30 1398 C 121.91 3.05751 3.01355 0
M  V30 1399 C 121.143 3.14702 4.31043 0
M  V30 1400 O 121.366 2.30313 5.21835 0
M  V30 1401 O 120.3 4.07468 4.43005 0
M  V30 1402 H 124.126 2.67799 1.43239 0
M  V30 1403 H 121.711 1.34711 0.646013 0
M  V30 1404 H 123.593 1.90335 3.75966 0
M  V30 1405 H 122.268 0.899659 3.10947 0
M  V30 1406 H 121.175 3.02908 2.19539 0
M  V30 1407 H 122.508 3.97375 2.90437 0
M  V30 1408 N 124.16 -0.719506 1.40217 0
M  V30 1409 C 125.406 -1.48152 1.38488 0
M  V30 1410 C 125.739 -1.94195 -0.0141867 0
M  V30 1411 O 125.014 -1.67884 -0.982096 0
M  V30 1412 C 125.297 -2.71035 2.37091 0
M  V30 1413 C 125.15 -2.30912 3.86005 0
M  V30 1414 C 126.469 -3.73182 2.33288 0
M  V30 1415 H 123.588 -0.537395 0.504357 0
M  V30 1416 H 126.23 -0.821472 1.71324 0
M  V30 1417 H 124.38 -3.27352 2.0922 0
M  V30 1418 H 126.052 -1.80107 4.24687 0
M  V30 1419 H 124.295 -1.62958 4.02029 0
M  V30 1420 H 124.966 -3.18978 4.50508 0
M  V30 1421 H 127.442 -3.26485 2.57966 0
M  V30 1422 H 126.318 -4.56806 3.04334 0
M  V30 1423 H 126.579 -4.21202 1.34317 0
M  V30 1424 N 125.638 -1.25649 -0.95132 0
M  V30 1425 C 126.568 -1.08808 -2.06599 0
M  V30 1426 C 127.549 0.00382547 -1.701 0
M  V30 1427 O 128.734 -0.166325 -1.93486 0
M  V30 1428 C 125.864 -0.709542 -3.39975 0
M  V30 1429 C 124.818 -1.75206 -3.90496 0
M  V30 1430 C 124.144 -1.22811 -5.20405 0
M  V30 1431 C 125.444 -3.15153 -4.16504 0
M  V30 1432 H 127.138 -2.02048 -2.20946 0
M  V30 1433 H 124.684 -0.972835 -1.06169 0
M  V30 1434 H 126.637 -0.578649 -4.17408 0
M  V30 1435 H 125.361 0.258556 -3.25575 0
M  V30 1436 H 124.02 -1.87145 -3.15234 0
M  V30 1437 H 123.668 -0.250145 -5.02378 0
M  V30 1438 H 123.368 -1.92492 -5.55176 0
M  V30 1439 H 124.892 -1.10968 -6.00432 0
M  V30 1440 H 126.306 -3.06349 -4.84586 0
M  V30 1441 H 124.703 -3.82333 -4.62538 0
M  V30 1442 H 125.773 -3.61966 -3.22658 0
M  V30 1443 N 127.117 1.15442 -1.07289 0
M  V30 1444 C 128.366 1.85557 -0.790669 0
M  V30 1445 C 128.679 1.83186 0.685739 0
M  V30 1446 O 129.885 2.48977 1.0827 0
M  V30 1447 C 128.341 3.33038 -1.36433 0
M  V30 1448 C 127.949 3.43856 -2.8717 0
M  V30 1449 C 129.693 4.0834 -1.1601 0
M  V30 1450 C 127.6 4.85482 -3.3773 0
M  V30 1451 H 126.53 0.695122 -0.292098 0
M  V30 1452 H 129.181 1.30219 -1.29287 0
M  V30 1453 H 127.563 3.88043 -0.789864 0
M  V30 1454 H 128.737 2.98961 -3.50655 0
M  V30 1455 H 127.052 2.81998 -3.06376 0
M  V30 1456 H 129.649 5.12859 -1.51262 0
M  V30 1457 H 129.992 4.16182 -0.0991007 0
M  V30 1458 H 130.525 3.59603 -1.70089 0
M  V30 1459 H 127.264 4.82823 -4.43353 0
M  V30 1460 H 126.784 5.30961 -2.78999 0
M  V30 1461 H 128.463 5.54335 -3.33648 0
M  V30 1462 N 128.595 0.856903 1.32268 0
M  V30 1463 C 129.542 0.301172 2.28827 0
M  V30 1464 C 130.512 -0.593104 1.5515 0
M  V30 1465 O 131.697 -0.527537 1.83362 0
M  V30 1466 C 128.837 -0.502523 3.41422 0
M  V30 1467 C 127.95 0.417797 4.29975 0
M  V30 1468 C 127.085 -0.398749 5.29701 0
M  V30 1469 C 126.124 0.518827 6.09897 0
M  V30 1470 N 125.261 -0.260674 7.01616 0
M  V30 1471 H 130.101 1.12983 2.75751 0
M  V30 1472 H 127.638 0.568582 1.35667 0
M  V30 1473 H 129.596 -0.984141 4.05426 0
M  V30 1474 H 128.226 -1.29599 2.95642 0
M  V30 1475 H 127.278 1.01781 3.66531 0
M  V30 1476 H 128.59 1.12191 4.86019 0
M  V30 1477 H 127.744 -0.943435 5.9932 0
M  V30 1478 H 126.483 -1.13622 4.7428 0
M  V30 1479 H 125.488 1.07538 5.39181 0
M  V30 1480 H 126.713 1.25495 6.67404 0
M  V30 1481 H 124.659 -0.981198 6.4862 0
M  V30 1482 H 124.576 0.384364 7.55022 0
M  V30 1483 H 125.844 -0.787014 7.75517 0
M  V30 1484 N 130.073 -1.45103 0.615059 0
M  V30 1485 C 131.02 -2.30586 -0.0993978 0
M  V30 1486 C 131.99 -1.42544 -0.852669 0
M  V30 1487 O 133.175 -1.71465 -0.836917 0
M  V30 1488 C 130.315 -3.27572 -1.08583 0
M  V30 1489 C 129.428 -4.30717 -0.332656 0
M  V30 1490 C 128.563 -5.14807 -1.30947 0
M  V30 1491 C 127.602 -6.09673 -0.544538 0
M  V30 1492 N 126.739 -6.86517 -1.47101 0
M  V30 1493 H 131.579 -2.91144 0.635542 0
M  V30 1494 H 129.116 -1.4346 0.325206 0
M  V30 1495 H 131.074 -3.82276 -1.67095 0
M  V30 1496 H 129.704 -2.68751 -1.78809 0
M  V30 1497 H 128.756 -3.78615 0.368107 0
M  V30 1498 H 130.068 -4.98102 0.263842 0
M  V30 1499 H 129.222 -5.73948 -1.96643 0
M  V30 1500 H 127.961 -4.47458 -1.9399 0
M  V30 1501 H 126.966 -5.49656 0.126003 0
M  V30 1502 H 128.191 -6.79052 0.080947 0
M  V30 1503 H 126.137 -6.21851 -2.08895 0
M  V30 1504 H 126.054 -7.50281 -0.928137 0
M  V30 1505 H 127.322 -7.50194 -2.11731 0
M  V30 1506 N 131.551 -0.354651 -1.53558 0
M  V30 1507 C 132.799 0.237972 -2.00694 0
M  V30 1508 C 133.12 1.50173 -1.24391 0
M  V30 1509 O 132.39 1.92673 -0.354135 0
M  V30 1510 H 130.97 0.0909256 -0.741446 0
M  V30 1511 H 133.632 -0.478368 -1.88938 0
M  V30 1512 H 132.728 0.47264 -3.085 0
M  V30 1513 N 133.029 1.57378 -0.0835403 0
M  V30 1514 C 133.976 2.13384 0.879539 0
M  V30 1515 C 134.946 1.04936 1.28754 0
M  V30 1516 O 136.131 1.32662 1.37133 0
M  V30 1517 C 133.271 2.70932 2.13752 0
M  V30 1518 C 132.384 3.93575 1.7811 0
M  V30 1519 C 131.519 4.39326 2.98607 0
M  V30 1520 C 130.558 5.54587 2.59037 0
M  V30 1521 N 129.695 5.95243 3.72331 0
M  V30 1522 H 134.535 2.9537 0.395076 0
M  V30 1523 H 132.072 1.45953 0.183349 0
M  V30 1524 H 134.03 3.02411 2.87408 0
M  V30 1525 H 132.66 1.91693 2.59718 0
M  V30 1526 H 131.712 3.68483 0.94469 0
M  V30 1527 H 133.024 4.77258 1.45005 0
M  V30 1528 H 132.178 4.72528 3.80529 0
M  V30 1529 H 130.917 3.5452 3.34913 0
M  V30 1530 H 129.922 5.21024 1.75539 0
M  V30 1531 H 131.147 6.41133 2.23887 0
M  V30 1532 H 129.093 5.13385 4.08378 0
M  V30 1533 H 129.01 6.73694 3.43034 0
M  V30 1534 H 130.278 6.33072 4.54797 0
M  V30 1535 N 134.507 -0.190092 1.56449 0
M  V30 1536 C 135.784 -0.935886 1.71757 0
M  V30 1537 C 136.164 -2.01173 0.639726 0
M  V30 1538 O 135.512 -2.25827 -0.348502 0
M  V30 1539 C 135.722 -1.51775 3.1427 0
M  V30 1540 C 137.07 -1.99794 3.74656 0
M  V30 1541 O 138.094 -1.61607 3.1743 0
M  V30 1542 O 136.953 -2.70079 4.751 0
M  V30 1543 H 134.047 -0.439229 0.700719 0
M  V30 1544 H 136.593 -0.179395 1.68749 0
M  V30 1545 H 135.365 -0.742505 3.84191 0
M  V30 1546 H 134.988 -2.33894 3.21527 0
M  V30 1547 N 135.985 -1.50799 -0.457987 0
M  V30 1548 C 137.232 -1.62442 -1.20908 0
M  V30 1549 C 137.56 -0.330865 -1.91665 0
M  V30 1550 O 136.815 0.68401 -1.83357 0
M  V30 1551 C 137.114 -2.76358 -2.2663 0
M  V30 1552 C 136.78 -4.16378 -1.73033 0
M  V30 1553 C 135.442 -4.54473 -1.58138 0
M  V30 1554 C 137.794 -5.03836 -1.33413 0
M  V30 1555 C 135.122 -5.77754 -1.02065 0
M  V30 1556 C 137.474 -6.27676 -0.78778 0
M  V30 1557 C 136.138 -6.64562 -0.625561 0
M  V30 1558 H 135.408 -0.594417 -0.442435 0
M  V30 1559 H 138.055 -1.84772 -0.503136 0
M  V30 1560 H 136.36 -2.48167 -3.03184 0
M  V30 1561 H 138.057 -2.82568 -2.84528 0
M  V30 1562 H 134.647 -3.86331 -1.85598 0
M  V30 1563 H 138.831 -4.75026 -1.4375 0
M  V30 1564 H 134.087 -6.04997 -0.882547 0
M  V30 1565 H 138.261 -6.94797 -0.472177 0
M  V30 1566 H 135.888 -7.59965 -0.188926 0
M  V30 1567 N 137.463 0.71206 -1.40597 0
M  V30 1568 C 138.688 1.50617 -1.42581 0
M  V30 1569 C 139.113 1.88079 -0.0282102 0
M  V30 1570 O 138.471 1.53511 0.964579 0
M  V30 1571 C 138.519 2.7557 -2.3258 0
M  V30 1572 O 137.623 3.72414 -1.77148 0
M  V30 1573 H 136.964 0.453966 -0.484573 0
M  V30 1574 H 139.494 0.876649 -1.84868 0
M  V30 1575 H 139.504 3.2406 -2.47889 0
M  V30 1576 H 138.179 2.47639 -3.34138 0
M  V30 1577 H 136.756 3.31276 -1.71204 0
M  V30 1578 N 138.941 1.26152 0.944643 0
M  V30 1579 C 140.189 1.11271 1.6871 0
M  V30 1580 C 140.51 -0.345166 1.91921 0
M  V30 1581 O 139.78 -1.24387 1.51343 0
M  V30 1582 H 138.36 0.408783 0.625224 0
M  V30 1583 H 141.022 1.58427 1.1352 0
M  V30 1584 H 140.118 1.62879 2.66227 0
M  V30 1585 N 140.419 -1.14872 1.07899 0
M  V30 1586 C 141.835 -1.37776 0.805606 0
M  V30 1587 C 142.035 -1.92743 -0.587555 0
M  V30 1588 O 141.091 -2.13678 -1.34528 0
M  V30 1589 C 142.404 -2.34361 1.88402 0
M  V30 1590 C 143.952 -2.48012 1.90942 0
M  V30 1591 C 144.427 -3.47893 2.97883 0
M  V30 1592 N 145.918 -3.55433 2.97021 0
M  V30 1593 C 146.653 -4.32553 3.76412 0
M  V30 1594 N 146.149 -5.12959 4.65666 0
M  V30 1595 N 147.942 -4.27697 3.64735 0
M  V30 1596 H 140.093 -0.775365 1.97742 0
M  V30 1597 H 142.356 -0.403521 0.857831 0
M  V30 1598 H 142.062 -2.01098 2.88535 0
M  V30 1599 H 141.936 -3.34206 1.74889 0
M  V30 1600 H 144.323 -2.8057 0.914579 0
M  V30 1601 H 144.404 -1.48147 2.08534 0
M  V30 1602 H 144.048 -3.16069 3.97571 0
M  V30 1603 H 143.978 -4.47527 2.77538 0
M  V30 1604 H 146.469 -2.98048 2.32326 0
M  V30 1605 H 146.782 -5.69065 5.22862 0
M  V30 1606 H 145.127 -5.12245 4.69712 0
M  V30 1607 H 148.318 -3.63949 2.94378 0
M  V30 1608 H 148.491 -4.8755 4.26848 0
M  V30 1609 N 141.898 -0.863906 -1.31812 0
M  V30 1610 C 143.309 -0.52522 -1.7916 0
M  V30 1611 C 143.66 0.957518 -1.71248 0
M  V30 1612 O 142.785 1.74734 -1.27659 0
M  V30 1613 C 143.38 -0.9466 -3.25307 0
M  V30 1614 C 141.939 -0.659668 -3.70574 0
M  V30 1615 C 141.086 -1.14126 -2.52726 0
M  V30 1616 H 144.037 -1.05022 -1.1898 0
M  V30 1617 H 144.058 -0.266766 -3.79564 0
M  V30 1618 H 143.57 -2.02579 -3.31034 0
M  V30 1619 H 141.671 0.408416 -3.70355 0
M  V30 1620 H 141.784 -1.23245 -4.62977 0
M  V30 1621 H 140.148 -0.561216 -2.4844 0
M  V30 1622 H 140.931 -2.22775 -2.61201 0
M  V30 1623 N 143.376 1.44774 -0.622745 0
M  V30 1624 C 144.308 2.28856 0.125485 0
M  V30 1625 C 145.321 1.40811 0.817069 0
M  V30 1626 O 146.51 1.65044 0.679918 0
M  V30 1627 C 143.61 3.16963 1.19949 0
M  V30 1628 C 142.783 4.33374 0.592064 0
M  V30 1629 C 141.842 5.02577 1.55893 0
M  V30 1630 O 140.868 5.58873 1.07933 0
M  V30 1631 N 142.07 5.03256 2.89334 0
M  V30 1632 H 144.835 2.93713 -0.596068 0
M  V30 1633 H 142.396 1.55129 -0.463303 0
M  V30 1634 H 144.388 3.60123 1.84644 0
M  V30 1635 H 142.958 2.53913 1.82337 0
M  V30 1636 H 142.178 3.93509 -0.233322 0
M  V30 1637 H 143.466 5.08527 0.166738 0
M  V30 1638 H 142.864 4.58836 3.30887 0
M  V30 1639 H 141.421 5.50232 3.49412 0
M  V30 1640 N 144.854 0.36279 1.53368 0
M  V30 1641 C 145.787 -0.528507 2.21996 0
M  V30 1642 C 146.765 -1.0852 1.21087 0
M  V30 1643 O 147.949 -1.14186 1.4998 0
M  V30 1644 C 145.076 -1.72893 2.91249 0
M  V30 1645 C 144.122 -1.29994 4.06207 0
M  V30 1646 S 144.955 -0.303575 5.34639 0
M  V30 1647 C 146.111 -1.51039 6.07403 0
M  V30 1648 H 146.344 0.0543423 2.9725 0
M  V30 1649 H 143.877 0.146889 1.537 0
M  V30 1650 H 145.835 -2.41751 3.31763 0
M  V30 1651 H 144.496 -2.28303 2.15724 0
M  V30 1652 H 143.689 -2.19549 4.53667 0
M  V30 1653 H 143.291 -0.690608 3.67569 0
M  V30 1654 H 145.583 -2.44186 6.31965 0
M  V30 1655 H 146.526 -1.07721 6.99858 0
M  V30 1656 H 146.934 -1.71518 5.37812 0
M  V30 1657 N 146.332 -1.57332 0.0918853 0
M  V30 1658 C 147.295 -2.12708 -0.85369 0
M  V30 1659 C 148.295 -1.05561 -1.213 0
M  V30 1660 O 149.485 -1.31461 -1.14296 0
M  V30 1661 C 146.617 -2.64503 -2.15061 0
M  V30 1662 H 147.81 -2.97573 -0.3729 0
M  V30 1663 H 145.363 -1.55509 -0.157072 0
M  V30 1664 H 146.098 -1.83149 -2.67632 0
M  V30 1665 H 145.883 -3.4284 -1.90272 0
M  V30 1666 H 147.373 -3.07351 -2.82711 0
M  V30 1667 N 147.81 0.181792 -1.56548 0
M  V30 1668 C 149.038 0.915947 -1.85521 0
M  V30 1669 C 149.453 1.76282 -0.676016 0
M  V30 1670 O 148.81 1.79012 0.355077 0
M  V30 1671 C 148.861 1.80126 -3.13427 0
M  V30 1672 O 148.582 0.988562 -4.26801 0
M  V30 1673 C 150.083 2.64597 -3.55673 0
M  V30 1674 H 147.303 0.26661 -0.61576 0
M  V30 1675 H 149.847 0.185039 -2.03661 0
M  V30 1676 H 148.002 2.48563 -2.97145 0
M  V30 1677 H 148.416 1.59308 -4.99721 0
M  V30 1678 H 149.89 3.2235 -4.48101 0
M  V30 1679 H 150.367 3.38958 -2.79292 0
M  V30 1680 H 150.973 2.0151 -3.74532 0
M  V30 1681 N 149.288 1.51039 0.449983 0
M  V30 1682 C 150.218 1.74379 1.55288 0
M  V30 1683 C 151.199 0.593236 1.5942 0
M  V30 1684 O 152.384 0.834625 1.7535 0
M  V30 1685 C 149.514 1.85728 2.93466 0
M  V30 1686 C 148.468 3.01078 3.04197 0
M  V30 1687 C 147.794 2.97595 4.44231 0
M  V30 1688 C 149.094 4.41254 2.7945 0
M  V30 1689 H 150.788 2.66725 1.36008 0
M  V30 1690 H 148.334 1.2835 0.652864 0
M  V30 1691 H 150.287 2.0064 3.70569 0
M  V30 1692 H 149.011 0.900207 3.13949 0
M  V30 1693 H 147.67 2.85851 2.29531 0
M  V30 1694 H 147.318 1.99691 4.61663 0
M  V30 1695 H 147.018 3.75046 4.52343 0
M  V30 1696 H 148.542 3.14583 5.23326 0
M  V30 1697 H 149.956 4.56897 3.46292 0
M  V30 1698 H 148.353 5.20315 2.98985 0
M  V30 1699 H 149.423 4.52164 1.75144 0
M  V30 1700 N 150.766 -0.704594 1.40972 0
M  V30 1701 C 152.043 -1.45847 1.30338 0
M  V30 1702 C 152.423 -2.10973 -0.0732344 0
M  V30 1703 O 151.771 -2.00997 -1.08685 0
M  V30 1704 C 151.981 -2.48525 2.45023 0
M  V30 1705 C 153.329 -3.1404 2.8577 0
M  V30 1706 O 154.353 -2.58848 2.44696 0
M  V30 1707 O 153.212 -4.13981 3.56766 0
M  V30 1708 H 150.306 -0.649092 0.512454 0
M  V30 1709 H 152.852 -0.735836 1.52917 0
M  V30 1710 H 151.624 -1.98994 3.36923 0
M  V30 1711 H 151.247 -3.2831 2.24272 0
M  V30 1712 N 152.244 -1.26651 -0.937939 0
M  V30 1713 C 153.493 -1.11775 -1.67897 0
M  V30 1714 C 153.806 0.33794 -1.92659 0
M  V30 1715 O 155.012 0.607434 -2.64618 0
M  V30 1716 C 153.468 -1.9523 -3.02346 0
M  V30 1717 C 153.076 -3.45393 -2.8532 0
M  V30 1718 C 154.82 -1.88972 -3.80118 0
M  V30 1719 C 152.727 -4.21083 -4.15263 0
M  V30 1720 H 151.657 -0.414696 -0.629717 0
M  V30 1721 H 154.308 -1.50988 -1.04283 0
M  V30 1722 H 152.69 -1.48853 -3.66959 0
M  V30 1723 H 153.864 -3.99561 -2.29537 0
M  V30 1724 H 152.179 -3.52921 -2.20988 0
M  V30 1725 H 154.776 -2.42805 -4.76392 0
M  V30 1726 H 155.119 -0.86113 -4.07296 0
M  V30 1727 H 155.652 -2.33189 -3.22285 0
M  V30 1728 H 152.391 -5.24425 -3.93267 0
M  V30 1729 H 151.911 -3.71695 -4.70747 0
M  V30 1730 H 153.59 -4.29706 -4.83696 0
M  V30 1731 N 153.722 1.14298 -1.08507 0
M  V30 1732 C 154.685 2.17607 -0.719711 0
M  V30 1733 C 155.685 1.58907 0.245997 0
M  V30 1734 O 156.875 1.74181 0.0254081 0
M  V30 1735 C 154.007 3.40842 -0.0627695 0
M  V30 1736 H 155.2 2.51443 -1.63452 0
M  V30 1737 H 152.753 1.28963 -0.88307 0
M  V30 1738 H 153.488 3.12587 0.863716 0
M  V30 1739 H 153.273 3.84713 -0.757504 0
M  V30 1740 H 154.763 4.17221 0.177786 0
M  V30 1741 N 155.201 0.870884 1.31352 0
M  V30 1742 C 156.426 0.495957 2.01383 0
M  V30 1743 C 156.851 -0.904324 1.64935 0
M  V30 1744 O 156.209 -1.59687 0.858466 0
M  V30 1745 C 156.257 0.661433 3.54482 0
M  V30 1746 O 155.361 -0.298851 4.11316 0
M  V30 1747 H 154.702 0.197158 0.634054 0
M  V30 1748 H 157.232 1.17455 1.67527 0
M  V30 1749 H 157.242 0.555072 4.04207 0
M  V30 1750 H 155.917 1.68246 3.8035 0
M  V30 1751 H 154.494 -0.147368 3.72609 0
M  V30 1752 N 156.679 -1.44442 0.630414 0
M  V30 1753 C 157.627 -2.32437 -0.0871428 0
M  V30 1754 C 158.621 -1.47304 -0.836525 0
M  V30 1755 O 159.827 -1.63653 -0.749506 0
M  V30 1756 H 156.202 -0.750533 -0.0469495 0
M  V30 1757 H 158.173 -2.90709 0.673096 0
M  V30 1758 C 156.922 -3.31288 -1.05563 0
M  V30 1759 H 156.245 -3.96805 -0.488426 0
M  V30 1760 H 157.685 -3.9554 -1.52721 0
M  V30 1761 C 156.144 -2.6016 -2.14052 0
M  V30 1762 O 156.674 -2.39997 -3.22124 0
M  V30 1763 N 154.88 -2.19911 -1.89967 0
M  V30 1764 H 154.427 -2.36509 -1.02085 0
M  V30 1765 H 154.385 -1.72646 -2.62756 0
M  V30 1766 N 158.157 -0.370918 -1.53173 0
M  V30 1767 C 159.105 0.488101 -2.27421 0
M  V30 1768 C 160.099 1.07884 -1.30604 0
M  V30 1769 O 161.305 1.02143 -1.48212 0
M  V30 1770 H 157.68 0.176134 -0.731082 0
M  V30 1771 H 159.651 -0.159815 -2.97972 0
M  V30 1772 C 158.4 1.61306 -3.08019 0
M  V30 1773 H 157.723 1.1678 -3.82364 0
M  V30 1774 H 159.163 2.18872 -3.63141 0
M  V30 1775 C 157.622 2.55848 -2.19188 0
M  V30 1776 O 158.152 3.58799 -1.80626 0
M  V30 1777 N 156.358 2.2516 -1.83715 0
M  V30 1778 H 155.905 1.41476 -2.15273 0
M  V30 1779 H 155.863 2.8867 -1.24567 0
M  V30 1780 N 159.635 1.57281 -0.100228 0
M  V30 1781 C 161.051 1.57527 0.256416 0
M  V30 1782 C 161.251 1.11173 1.68056 0
M  V30 1783 O 160.307 0.79053 2.39806 0
M  V30 1784 C 161.62 3.00673 0.0401747 0
M  V30 1785 C 163.168 3.12815 0.107528 0
M  V30 1786 C 163.643 4.57929 -0.0807834 0
M  V30 1787 N 165.134 4.63193 -0.0261207 0
M  V30 1788 C 165.869 5.73212 -0.146999 0
M  V30 1789 N 165.365 6.92047 -0.322999 0
M  V30 1790 N 167.158 5.62031 -0.0879044 0
M  V30 1791 H 159.309 1.85718 -1.03065 0
M  V30 1792 H 161.572 0.857446 -0.404339 0
M  V30 1793 H 161.278 3.38804 -0.943649 0
M  V30 1794 H 161.152 3.69042 0.780262 0
M  V30 1795 H 163.539 2.74554 1.08186 0
M  V30 1796 H 163.62 2.47028 -0.664134 0
M  V30 1797 H 163.264 4.96886 -1.05201 0
M  V30 1798 H 163.194 5.21783 0.710635 0
M  V30 1799 H 165.685 3.77748 0.107161 0
M  V30 1800 H 165.998 7.7173 -0.406608 0
M  V30 1801 H 164.343 6.94074 -0.358733 0
M  V30 1802 H 167.534 4.68075 0.048498 0
M  V30 1803 H 167.707 6.47734 -0.185557 0
M  V30 1804 N 161.113 -0.173488 1.56642 0
M  V30 1805 C 162.06 -1.21482 1.96242 0
M  V30 1806 C 163.03 -1.44104 0.826027 0
M  V30 1807 O 164.215 -1.5688 1.08597 0
M  V30 1808 C 161.355 -2.54964 2.32567 0
M  V30 1809 C 160.468 -2.39739 3.59373 0
M  V30 1810 C 159.603 -3.66072 3.84921 0
M  V30 1811 C 158.642 -3.45771 5.05083 0
M  V30 1812 N 157.779 -4.64169 5.26775 0
M  V30 1813 H 162.619 -0.870123 2.85014 0
M  V30 1814 H 160.156 -0.418245 1.41029 0
M  V30 1815 H 162.114 -3.32758 2.5165 0
M  V30 1816 H 160.744 -2.87433 1.46908 0
M  V30 1817 H 159.796 -1.53131 3.48217 0
M  V30 1818 H 161.108 -2.20683 4.47326 0
M  V30 1819 H 160.262 -4.52303 4.0436 0
M  V30 1820 H 159.001 -3.88105 2.9534 0
M  V30 1821 H 158.006 -2.57927 4.85545 0
M  V30 1822 H 159.231 -3.25163 5.96193 0
M  V30 1823 H 157.177 -4.86425 4.40144 0
M  V30 1824 H 157.094 -4.48019 6.08946 0
M  V30 1825 H 158.362 -5.51689 5.5069 0
M  V30 1826 N 162.591 -1.51276 -0.441967 0
M  V30 1827 C 163.839 -1.63392 -1.18943 0
M  V30 1828 C 164.16 -0.350159 -1.9183 0
M  V30 1829 O 163.43 0.633784 -1.85364 0
M  V30 1830 H 162.01 -0.602164 -0.442049 0
M  V30 1831 H 164.672 -1.88186 -0.507165 0
M  V30 1832 H 163.768 -2.45934 -1.92154 0
M  V30 1833 N 164.069 0.697108 -1.41344 0
M  V30 1834 C 165.318 1.45279 -1.39918 0
M  V30 1835 C 165.631 1.95597 -0.0109624 0
M  V30 1836 O 166.837 2.71208 0.125919 0
M  V30 1837 C 165.293 2.62695 -2.46007 0
M  V30 1838 C 164.901 2.19169 -3.90729 0
M  V30 1839 C 166.645 3.40336 -2.53715 0
M  V30 1840 C 164.552 3.33535 -4.88373 0
M  V30 1841 H 163.482 0.545692 -0.520323 0
M  V30 1842 H 166.133 0.756929 -1.67161 0
M  V30 1843 H 164.515 3.34541 -2.11892 0
M  V30 1844 H 165.689 1.54623 -4.34083 0
M  V30 1845 H 164.004 1.54525 -3.86666 0
M  V30 1846 H 166.601 4.2547 -3.2385 0
M  V30 1847 H 166.944 3.85418 -1.5735 0
M  V30 1848 H 167.477 2.75546 -2.86913 0
M  V30 1849 H 164.216 2.93468 -5.86137 0
M  V30 1850 H 163.736 3.96936 -4.49668 0
M  V30 1851 H 165.415 3.99335 -5.09059 0
M  V30 1852 N 165.547 1.27147 0.931209 0
M  V30 1853 C 166.51 1.09615 2.01289 0
M  V30 1854 C 167.51 0.0412581 1.60747 0
M  V30 1855 O 168.7 0.285545 1.71844 0
M  V30 1856 C 165.832 0.669447 3.34262 0
M  V30 1857 H 167.025 2.05662 2.18273 0
M  V30 1858 H 164.578 1.09885 1.11153 0
M  V30 1859 H 165.313 -0.292572 3.22978 0
M  V30 1860 H 165.098 1.43127 3.65044 0
M  V30 1861 H 166.588 0.568921 4.13706 0
M  V30 1862 N 167.025 -1.13721 1.09112 0
M  V30 1863 C 168.272 -1.84924 0.825192 0
M  V30 1864 C 168.6 -1.83347 -0.649151 0
M  V30 1865 O 167.855 -1.26449 -1.49362 0
M  V30 1866 C 168.154 -3.32861 1.30146 0
M  V30 1867 C 167.82 -3.54621 2.78486 0
M  V30 1868 C 166.482 -3.60268 3.18999 0
M  V30 1869 C 168.834 -3.62855 3.74146 0
M  V30 1870 C 166.162 -3.71679 4.53951 0
M  V30 1871 C 168.514 -3.75793 5.08883 0
M  V30 1872 C 167.178 -3.79692 5.4899 0
M  V30 1873 H 166.448 -0.676684 0.301959 0
M  V30 1874 H 169.095 -1.3428 1.36533 0
M  V30 1875 H 167.4 -3.85835 0.681064 0
M  V30 1876 H 169.097 -3.86395 1.07236 0
M  V30 1877 H 165.687 -3.50879 2.46134 0
M  V30 1878 H 169.871 -3.57775 3.43963 0
M  V30 1879 H 165.127 -3.72963 4.84467 0
M  V30 1880 H 169.301 -3.81107 5.82864 0
M  V30 1881 H 166.928 -3.88287 6.53558 0
M  V30 1882 N 168.503 -0.877838 -1.30888 0
M  V30 1883 C 169.466 -0.344265 -2.266 0
M  V30 1884 C 170.466 0.50922 -1.52524 0
M  V30 1885 O 171.656 0.317398 -1.71284 0
M  V30 1886 C 168.788 0.510198 -3.37061 0
M  V30 1887 H 169.981 -1.1893 -2.7531 0
M  V30 1888 H 167.534 -0.654088 -1.41956 0
M  V30 1889 H 168.269 1.37612 -2.93655 0
M  V30 1890 H 168.054 -0.101047 -3.9197 0
M  V30 1891 H 169.544 0.875537 -4.08319 0
M  V30 1892 N 169.982 1.44106 -0.638065 0
M  V30 1893 C 171.259 1.95453 -0.0759321 0
M  V30 1894 C 171.639 1.57984 1.40015 0
M  V30 1895 O 170.987 0.857361 2.11806 0
M  V30 1896 C 171.197 3.47655 -0.306132 0
M  V30 1897 C 172.545 4.24114 -0.203008 0
M  V30 1898 O 173.569 3.55405 -0.237871 0
M  V30 1899 O 172.428 5.46381 -0.113827 0
M  V30 1900 H 169.522 0.826797 0.0183332 0
M  V30 1901 H 172.068 1.54122 -0.710251 0
M  V30 1902 H 170.84 3.68 -1.3301 0
M  V30 1903 H 170.463 3.95949 0.361991 0
M  V30 1904 N 171.46 0.379036 1.52974 0
M  V30 1905 C 172.685 -0.209353 2.06341 0
M  V30 1906 C 173.11 -1.40583 1.24972 0
M  V30 1907 O 172.468 -1.79246 0.272155 0
M  V30 1908 C 172.516 -0.567786 3.56102 0
M  V30 1909 O 171.62 -1.66318 3.77375 0
M  V30 1910 H 170.961 -0.0272919 0.663439 0
M  V30 1911 H 173.491 0.543536 1.97248 0
M  V30 1912 H 173.501 -0.835003 3.99364 0
M  V30 1913 H 172.176 0.307013 4.14765 0
M  V30 1914 H 170.753 -1.39048 3.46006 0
M  V30 1915 N 172.938 -1.57226 0.108567 0
M  V30 1916 C 174.186 -1.94448 -0.550853 0
M  V30 1917 C 174.507 -0.992074 -1.67878 0
M  V30 1918 O 173.777 -0.0465 -1.95845 0
M  V30 1919 H 172.357 -0.717897 -0.206479 0
M  V30 1920 H 175.019 -1.94112 0.175062 0
M  V30 1921 H 174.115 -2.97218 -0.952259 0
M  V30 1922 N 174.416 0.165178 -1.56732 0
M  V30 1923 C 175.379 1.18822 -1.95995 0
M  V30 1924 C 176.379 1.3685 -0.84431 0
M  V30 1925 O 177.569 1.34152 -1.11126 0
M  V30 1926 C 174.701 2.5521 -2.26011 0
M  V30 1927 H 175.894 0.851825 -2.87548 0
M  V30 1928 H 173.447 0.407857 -1.50885 0
M  V30 1929 H 174.182 2.93852 -1.37191 0
M  V30 1930 H 173.967 2.43489 -3.07336 0
M  V30 1931 H 175.457 3.28927 -2.57288 0
M  V30 1932 N 175.894 1.51508 0.433938 0
M  V30 1933 C 176.844 1.69451 1.52546 0
M  V30 1934 C 177.828 0.548474 1.51263 0
M  V30 1935 O 179.02 0.804529 1.57659 0
M  V30 1936 C 176.149 1.82604 2.90707 0
M  V30 1937 C 175.235 3.03002 2.96733 0
M  V30 1938 N 175.626 4.26121 2.72496 0
M  V30 1939 C 173.924 3.02327 3.27894 0
M  V30 1940 C 174.625 5.07407 2.84452 0
M  V30 1941 N 173.601 4.42126 3.16269 0
M  V30 1942 H 177.403 2.62305 1.32564 0
M  V30 1943 H 174.917 1.49202 0.641297 0
M  V30 1944 H 176.914 1.93569 3.69238 0
M  V30 1945 H 175.574 0.909339 3.11707 0
M  V30 1946 H 176.585 4.55009 2.4736 0
M  V30 1947 H 173.262 2.20301 3.54646 0
M  V30 1948 H 174.652 6.15422 2.69639 0
M  V30 1949 N 177.372 -0.689602 1.41712 0
M  V30 1950 C 178.618 -1.45041 1.42599 0
M  V30 1951 C 178.973 -1.92366 0.0363764 0
M  V30 1952 O 178.266 -1.67022 -0.938844 0
M  V30 1953 C 178.46 -2.67298 2.37247 0
M  V30 1954 C 178.289 -2.31935 3.85274 0
M  V30 1955 C 177.059 -2.2201 4.53916 0
M  V30 1956 C 179.257 -1.94526 4.76093 0
M  V30 1957 N 177.239 -1.79594 5.87043 0
M  V30 1958 C 178.61 -1.62915 5.98213 0
M  V30 1959 C 180.665 -1.81388 4.63684 0
M  V30 1960 C 179.368 -1.19486 7.09306 0
M  V30 1961 C 181.394 -1.39364 5.74745 0
M  V30 1962 C 180.756 -1.08668 6.95967 0
M  V30 1963 H 176.855 -0.527806 0.577014 0
M  V30 1964 H 179.439 -0.797266 1.77628 0
M  V30 1965 H 177.61 -3.30325 2.04304 0
M  V30 1966 H 179.342 -3.33806 2.28814 0
M  V30 1967 H 176.097 -2.406 4.07932 0
M  V30 1968 H 176.521 -1.60851 6.57614 0
M  V30 1969 H 181.163 -2.03772 3.70455 0
M  V30 1970 H 178.881 -0.958477 8.02396 0
M  V30 1971 H 182.467 -1.2974 5.6715 0
M  V30 1972 H 181.347 -0.766417 7.80446 0
M  V30 1973 N 178.85 -1.27639 -0.924453 0
M  V30 1974 C 179.782 -1.06442 -2.02985 0
M  V30 1975 C 180.795 -0.0194771 -1.62788 0
M  V30 1976 O 181.984 -0.261388 -1.76576 0
M  V30 1977 C 179.084 -0.59327 -3.33667 0
M  V30 1978 C 178.257 -1.71123 -4.02537 0
M  V30 1979 C 177.316 -1.23527 -5.11495 0
M  V30 1980 O 176.342 -1.93553 -5.35281 0
M  V30 1981 N 177.544 -0.0926678 -5.80426 0
M  V30 1982 H 180.309 -2.01633 -2.2173 0
M  V30 1983 H 177.87 -1.19248 -1.09505 0
M  V30 1984 H 179.862 -0.258686 -4.03872 0
M  V30 1985 H 178.432 0.265502 -3.1147 0
M  V30 1986 H 177.652 -2.21593 -3.26022 0
M  V30 1987 H 178.94 -2.46145 -4.45298 0
M  V30 1988 H 178.338 0.491741 -5.63559 0
M  V30 1989 H 176.895 0.182714 -6.51544 0
M  V30 1990 N 180.328 1.1314 -1.09713 0
M  V30 1991 C 181.258 2.20748 -0.761102 0
M  V30 1992 C 182.239 1.68061 0.262566 0
M  V30 1993 O 183.424 1.93765 0.129977 0
M  V30 1994 C 180.554 3.46812 -0.184054 0
M  V30 1995 C 179.508 4.12606 -1.13757 0
M  V30 1996 C 178.834 5.33031 -0.422083 0
M  V30 1997 C 180.134 4.59603 -2.48118 0
M  V30 1998 H 181.828 2.49113 -1.66082 0
M  V30 1999 H 179.374 1.19734 -0.799987 0
M  V30 2000 H 181.327 4.21353 0.0631215 0
M  V30 2001 H 180.051 3.17851 0.750868 0
M  V30 2002 H 178.71 3.40036 -1.37007 0
M  V30 2003 H 178.358 5.00335 0.517072 0
M  V30 2004 H 178.058 5.77999 -1.05788 0
M  V30 2005 H 179.582 6.10325 -0.183277 0
M  V30 2006 H 180.996 5.25552 -2.29059 0
M  V30 2007 H 179.393 5.15321 -3.07514 0
M  V30 2008 H 180.463 3.73971 -3.08665 0
M  V30 2009 N 181.806 0.884767 1.30421 0
M  V30 2010 C 182.756 0.322846 2.25703 0
M  V30 2011 C 183.74 -0.548582 1.51259 0
M  V30 2012 O 184.932 -0.39304 1.72581 0
M  V30 2013 C 182.061 -0.461787 3.4018 0
M  V30 2014 C 181.147 0.423717 4.21978 0
M  V30 2015 N 181.538 1.52408 4.82292 0
M  V30 2016 C 179.836 0.218795 4.45463 0
M  V30 2017 C 180.537 2.07136 5.43571 0
M  V30 2018 N 179.513 1.36635 5.26148 0
M  V30 2019 H 183.315 1.16363 2.69883 0
M  V30 2020 H 180.829 0.73415 1.44859 0
M  V30 2021 H 182.826 -0.880985 4.07485 0
M  V30 2022 H 181.486 -1.30001 2.9754 0
M  V30 2023 H 182.497 1.90693 4.81515 0
M  V30 2024 H 179.174 -0.582275 4.1342 0
M  V30 2025 H 180.564 2.99538 6.01437 0
M  V30 2026 N 183.284 -1.43765 0.645699 0
M  V30 2027 C 184.7 -1.56509 0.312591 0
M  V30 2028 C 184.9 -1.6307 -1.18365 0
M  V30 2029 O 183.956 -1.58167 -1.96824 0
M  V30 2030 C 185.269 -2.82968 1.01733 0
M  V30 2031 C 186.817 -2.96701 0.996865 0
M  V30 2032 C 187.292 -4.25982 1.68236 0
M  V30 2033 N 188.783 -4.32829 1.64964 0
M  V30 2034 C 189.518 -5.31613 2.14885 0
M  V30 2035 N 189.014 -6.36718 2.73061 0
M  V30 2036 N 190.807 -5.23217 2.05428 0
M  V30 2037 H 182.958 -1.3775 1.61675 0
M  V30 2038 H 185.221 -0.661067 0.679481 0
M  V30 2039 H 184.927 -2.84156 2.0724 0
M  V30 2040 H 184.801 -3.72957 0.564177 0
M  V30 2041 H 187.188 -2.95058 -0.0497719 0
M  V30 2042 H 187.269 -2.08022 1.48865 0
M  V30 2043 H 186.913 -4.28386 2.72852 0
M  V30 2044 H 186.843 -5.13545 1.16529 0
M  V30 2045 H 189.334 -3.57493 1.22503 0
M  V30 2046 H 189.647 -7.08401 3.08848 0
M  V30 2047 H 187.992 -6.37362 2.77118 0
M  V30 2048 H 191.183 -4.40019 1.59689 0
M  V30 2049 H 191.356 -6.00045 2.44643 0
M  V30 2050 N 184.763 -0.387143 -1.52771 0
M  V30 2051 C 186.179 -0.037007 -1.59557 0
M  V30 2052 C 186.379 1.44801 -1.40124 0
M  V30 2053 O 185.435 2.21227 -1.21716 0
M  V30 2054 C 186.748 -0.512256 -2.96305 0
M  V30 2055 C 188.296 -0.468328 -3.09476 0
M  V30 2056 C 188.771 -0.919731 -4.4867 0
M  V30 2057 N 190.262 -0.875656 -4.54848 0
M  V30 2058 C 190.997 -1.19637 -5.6078 0
M  V30 2059 N 190.493 -1.58745 -6.74368 0
M  V30 2060 N 192.286 -1.11776 -5.50874 0
M  V30 2061 H 184.437 -1.35395 -1.63652 0
M  V30 2062 H 186.7 -0.554818 -0.768688 0
M  V30 2063 H 186.406 -1.54935 -3.15734 0
M  V30 2064 H 186.28 0.089805 -3.77093 0
M  V30 2065 H 188.667 0.559671 -2.89744 0
M  V30 2066 H 188.748 -1.10616 -2.30646 0
M  V30 2067 H 188.392 -1.94595 -4.69143 0
M  V30 2068 H 188.322 -0.258927 -5.25963 0
M  V30 2069 H 190.813 -0.587843 -3.733 0
M  V30 2070 H 191.126 -1.81586 -7.51163 0
M  V30 2071 H 189.471 -1.6263 -6.75705 0
M  V30 2072 H 192.662 -0.811264 -4.61016 0
M  V30 2073 H 192.835 -1.37103 -6.3333 0
M  V30 2074 N 186.241 1.57166 -0.116904 0
M  V30 2075 C 187.171 2.18222 0.830759 0
M  V30 2076 C 188.152 1.12167 1.27877 0
M  V30 2077 O 189.337 1.40394 1.34176 0
M  V30 2078 C 186.467 2.77996 2.08172 0
M  V30 2079 C 185.421 3.89614 1.77157 0
M  V30 2080 C 184.747 4.36187 3.09265 0
M  V30 2081 C 186.047 5.1181 1.04151 0
M  V30 2082 H 187.741 2.97664 0.321992 0
M  V30 2083 H 185.287 1.4318 0.153434 0
M  V30 2084 H 187.24 3.19366 2.74924 0
M  V30 2085 H 185.964 1.9584 2.6137 0
M  V30 2086 H 184.623 3.48816 1.12796 0
M  V30 2087 H 184.271 3.50893 3.60393 0
M  V30 2088 H 183.971 5.11455 2.89288 0
M  V30 2089 H 185.495 4.80207 3.77139 0
M  V30 2090 H 186.909 5.50214 1.61052 0
M  V30 2091 H 185.306 5.92648 0.942762 0
M  V30 2092 H 186.376 4.84892 0.0279022 0
M  V30 2093 N 187.719 -0.156864 1.56817 0
M  V30 2094 C 188.682 -1.17781 1.96622 0
M  V30 2095 C 189.682 -1.36401 0.851555 0
M  V30 2096 O 190.872 -1.33561 1.11836 0
M  V30 2097 C 188.004 -2.54008 2.27361 0
M  V30 2098 H 189.197 -0.836564 2.87996 0
M  V30 2099 H 186.75 -0.39985 1.51099 0
M  V30 2100 H 187.485 -2.9312 1.38748 0
M  V30 2101 H 187.27 -2.41856 3.08623 0
M  V30 2102 H 188.76 -3.27558 2.59029 0
M  V30 2103 N 189.197 -1.51736 -0.425897 0
M  V30 2104 C 190.13 -1.68574 -1.53812 0
M  V30 2105 C 191.108 -0.53328 -1.53606 0
M  V30 2106 O 192.292 -0.758555 -1.72564 0
M  V30 2107 C 189.419 -1.70977 -2.92377 0
M  V30 2108 C 188.465 -2.92324 -3.10563 0
M  V30 2109 S 189.298 -4.52952 -2.85648 0
M  V30 2110 C 190.454 -4.58117 -4.26474 0
M  V30 2111 H 190.687 -2.62647 -1.39298 0
M  V30 2112 H 188.22 -1.41564 -0.616361 0
M  V30 2113 H 190.178 -1.73047 -3.72243 0
M  V30 2114 H 188.839 -0.78061 -3.04245 0
M  V30 2115 H 188.032 -2.90439 -4.11899 0
M  V30 2116 H 187.634 -2.88055 -2.38538 0
M  V30 2117 H 189.926 -4.34462 -5.19855 0
M  V30 2118 H 190.869 -5.59983 -4.33388 0
M  V30 2119 H 191.277 -3.8732 -4.10662 0
M  V30 2120 N 190.675 0.682077 -1.42076 0
M  V30 2121 C 191.638 1.77756 -1.44691 0
M  V30 2122 C 192.638 1.5726 -0.335535 0
M  V30 2123 O 193.828 1.63686 -0.596037 0
M  V30 2124 C 190.96 3.16301 -1.27146 0
M  V30 2125 H 192.153 1.76826 -2.42224 0
M  V30 2126 H 189.706 0.891012 -1.28416 0
M  V30 2127 H 190.441 3.22862 -0.305075 0
M  V30 2128 H 190.226 3.32581 -2.07683 0
M  V30 2129 H 191.716 3.96241 -1.31843 0
M  V30 2130 N 192.153 1.28127 0.917671 0
M  V30 2131 C 193.381 1.17892 1.70026 0
M  V30 2132 C 193.796 -0.262958 1.8696 0
M  V30 2133 O 193.153 -1.17811 1.3938 0
M  V30 2134 C 193.204 1.86872 3.09453 0
M  V30 2135 O 192.925 3.25428 2.93306 0
M  V30 2136 C 194.426 1.8289 4.03815 0
M  V30 2137 H 191.646 0.40942 0.531617 0
M  V30 2138 H 194.19 1.69181 1.14883 0
M  V30 2139 H 192.345 1.39464 3.61426 0
M  V30 2140 H 192.759 3.59918 3.81523 0
M  V30 2141 H 194.233 2.35751 4.99125 0
M  V30 2142 H 194.71 0.800412 4.31845 0
M  V30 2143 H 195.316 2.29959 3.57769 0
M  V30 2144 N 193.631 -1.12557 1.10312 0
M  V30 2145 C 194.878 -1.84038 0.844759 0
M  V30 2146 C 195.206 -1.84026 -0.629668 0
M  V30 2147 O 194.461 -1.28026 -1.48013 0
M  V30 2148 C 194.76 -3.31462 1.33669 0
M  V30 2149 C 194.426 -3.51647 2.82232 0
M  V30 2150 C 193.088 -3.56864 3.22802 0
M  V30 2151 C 195.44 -3.58867 3.77974 0
M  V30 2152 C 192.768 -3.66844 4.57867 0
M  V30 2153 C 195.12 -3.70375 5.1284 0
M  V30 2154 C 193.784 -3.73848 5.52986 0
M  V30 2155 H 193.054 -0.673444 0.309119 0
M  V30 2156 H 195.701 -1.32824 1.37949 0
M  V30 2157 H 194.006 -3.85091 0.721949 0
M  V30 2158 H 195.703 -3.85236 1.11329 0
M  V30 2159 H 192.293 -3.48249 2.49842 0
M  V30 2160 H 196.477 -3.54107 3.47738 0
M  V30 2161 H 191.733 -3.67804 4.88396 0
M  V30 2162 H 195.907 -3.74904 5.86873 0
M  V30 2163 H 193.534 -3.81333 6.57639 0
M  V30 2164 N 195.109 -0.891671 -1.2995 0
M  V30 2165 C 196.072 -0.36828 -2.26222 0
M  V30 2166 C 197.072 0.493014 -1.53056 0
M  V30 2167 O 198.262 0.299213 -1.71611 0
M  V30 2168 C 195.394 0.47442 -3.37583 0
M  V30 2169 H 196.587 -1.21844 -2.74033 0
M  V30 2170 H 194.14 -0.669107 -1.41254 0
M  V30 2171 H 194.875 1.34489 -2.95099 0
M  V30 2172 H 194.66 -0.142615 -3.91841 0
M  V30 2173 H 196.15 0.83218 -4.09224 0
M  V30 2174 N 196.587 1.43421 -0.653314 0
M  V30 2175 C 197.517 2.33487 0.0246656 0
M  V30 2176 C 198.498 1.49475 0.811863 0
M  V30 2177 O 199.683 1.78139 0.773322 0
M  V30 2178 C 196.813 3.32841 0.99166 0
M  V30 2179 C 195.767 4.26842 0.314568 0
M  V30 2180 C 195.093 5.16236 1.39302 0
M  V30 2181 C 196.393 5.16243 -0.793095 0
M  V30 2182 H 198.087 2.90427 -0.727481 0
M  V30 2183 H 195.633 1.39649 -0.351287 0
M  V30 2184 H 197.586 3.94747 1.47487 0
M  V30 2185 H 196.31 2.74158 1.77497 0
M  V30 2186 H 194.969 3.663 -0.148199 0
M  V30 2187 H 194.617 4.53891 2.16776 0
M  V30 2188 H 194.317 5.79948 0.945223 0
M  V30 2189 H 195.841 5.81015 1.87759 0
M  V30 2190 H 197.255 5.71958 -0.392039 0
M  V30 2191 H 195.652 5.88676 -1.16536 0
M  V30 2192 H 196.722 4.55927 -1.65103 0
M  V30 2193 N 198.065 0.39524 1.52563 0
M  V30 2194 C 199.312 -0.185044 2.01653 0
M  V30 2195 C 199.64 -1.46317 1.28146 0
M  V30 2196 O 198.895 -1.9213 0.372074 0
M  V30 2197 C 199.194 -0.493444 3.53977 0
M  V30 2198 C 198.86 0.69384 4.4553 0
M  V30 2199 C 197.522 1.01954 4.70275 0
M  V30 2200 C 199.874 1.48785 4.99512 0
M  V30 2201 C 197.202 2.14069 5.46252 0
M  V30 2202 C 199.554 2.59965 5.76716 0
M  V30 2203 C 198.218 2.93037 5.99738 0
M  V30 2204 H 197.488 -0.0677123 0.7379 0
M  V30 2205 H 200.135 0.533807 1.8391 0
M  V30 2206 H 198.44 -1.29369 3.69825 0
M  V30 2207 H 200.137 -0.955163 3.89458 0
M  V30 2208 H 196.727 0.429987 4.26438 0
M  V30 2209 H 200.911 1.24946 4.80315 0
M  V30 2210 H 196.167 2.40056 5.62302 0
M  V30 2211 H 200.341 3.21887 6.17545 0
M  V30 2212 H 197.968 3.8003 6.58393 0
M  V30 2213 N 199.544 -1.57102 0.125237 0
M  V30 2214 C 200.491 -2.15641 -0.822655 0
M  V30 2215 C 201.461 -1.08313 -1.25927 0
M  V30 2216 O 202.646 -1.36251 -1.33567 0
M  V30 2217 C 199.786 -2.76504 -2.06494 0
M  V30 2218 C 198.899 -3.98158 -1.67612 0
M  V30 2219 C 198.034 -4.47088 -2.86854 0
M  V30 2220 C 197.073 -5.6126 -2.44242 0
M  V30 2221 N 196.21 -6.04905 -3.56419 0
M  V30 2222 H 201.05 -2.96313 -0.316625 0
M  V30 2223 H 198.587 -1.46388 -0.144588 0
M  V30 2224 H 200.545 -3.09925 -2.79289 0
M  V30 2225 H 199.175 -1.98512 -2.54545 0
M  V30 2226 H 198.227 -3.70858 -0.846661 0
M  V30 2227 H 199.539 -4.80934 -1.32301 0
M  V30 2228 H 198.693 -4.82451 -3.67867 0
M  V30 2229 H 197.432 -3.63275 -3.25396 0
M  V30 2230 H 196.437 -5.25495 -1.61663 0
M  V30 2231 H 197.662 -6.46843 -2.0681 0
M  V30 2232 H 195.608 -5.24032 -3.94623 0
M  V30 2233 H 195.525 -6.82552 -3.25051 0
M  V30 2234 H 196.793 -6.44907 -4.37853 0
M  V30 2235 N 201.022 0.148545 -1.56898 0
M  V30 2236 C 202.299 0.890019 -1.74178 0
M  V30 2237 C 202.679 1.99407 -0.692839 0
M  V30 2238 O 202.027 2.26671 0.288505 0
M  V30 2239 C 202.237 1.43389 -3.18183 0
M  V30 2240 C 203.585 1.89791 -3.79822 0
M  V30 2241 O 204.609 1.53134 -3.21603 0
M  V30 2242 O 203.468 2.57387 -4.82093 0
M  V30 2243 H 200.562 0.420496 -0.712118 0
M  V30 2244 H 203.108 0.134591 -1.69165 0
M  V30 2245 H 201.88 0.640383 -3.86024 0
M  V30 2246 H 201.503 2.25287 -3.27615 0
M  V30 2247 N 202.5 1.5196 0.417844 0
M  V30 2248 C 203.748 1.65263 1.16329 0
M  V30 2249 C 204.069 0.380634 1.91249 0
M  V30 2250 O 203.339 -0.604214 1.86349 0
M  V30 2251 H 201.919 0.60912 0.432414 0
M  V30 2252 H 204.581 1.88969 0.477162 0
M  V30 2253 H 203.677 2.4896 1.88217 0
M  V30 2254 N 203.978 -0.674533 1.42435 0
M  V30 2255 C 205.255 -1.4305 1.33402 0
M  V30 2256 C 205.635 -2.11081 -0.0284674 0
M  V30 2257 O 204.983 -2.03257 -1.04397 0
M  V30 2258 C 205.193 -2.43272 2.50239 0
M  V30 2259 C 206.541 -3.07907 2.92367 0
M  V30 2260 O 207.565 -2.53599 2.50132 0
M  V30 2261 O 206.424 -4.0632 3.65467 0
M  V30 2262 H 203.518 -0.638076 0.526106 0
M  V30 2263 H 206.064 -0.703235 1.54443 0
M  V30 2264 H 204.836 -1.91803 3.41068 0
M  V30 2265 H 204.459 -3.23479 2.31186 0
M  V30 2266 N 205.456 -1.28612 -0.910864 0
M  V30 2267 C 206.388 -1.08589 -2.01844 0
M  V30 2268 C 207.401 -0.0367419 -1.62759 0
M  V30 2269 O 208.59 -0.280101 -1.76289 0
M  V30 2270 C 205.69 -0.628626 -3.33019 0
M  V30 2271 C 204.863 -1.75382 -4.00699 0
M  V30 2272 C 203.922 -1.28945 -5.10156 0
M  V30 2273 O 202.948 -1.9922 -5.33198 0
M  V30 2274 N 204.15 -0.154224 -5.80295 0
M  V30 2275 H 206.915 -2.03973 -2.19579 0
M  V30 2276 H 204.476 -1.20403 -1.08234 0
M  V30 2277 H 206.468 -0.301508 -4.03575 0
M  V30 2278 H 205.038 0.232451 -3.11735 0
M  V30 2279 H 204.258 -2.25039 -3.23653 0
M  V30 2280 H 205.546 -2.50854 -4.42662 0
M  V30 2281 H 204.944 0.43194 -5.64049 0
M  V30 2282 H 203.501 0.113599 -6.51701 0
M  V30 2283 N 206.934 1.1197 -1.10907 0
M  V30 2284 C 207.881 2.17846 -0.762345 0
M  V30 2285 C 208.851 1.63995 0.263599 0
M  V30 2286 O 210.036 1.90273 0.141773 0
M  V30 2287 C 207.176 3.44487 -0.205651 0
M  V30 2288 C 206.289 4.12369 -1.28748 0
M  V30 2289 C 205.424 5.26674 -0.691919 0
M  V30 2290 C 204.463 5.86431 -1.75399 0
M  V30 2291 N 203.6 6.92142 -1.17833 0
M  V30 2292 H 208.44 2.46851 -1.6694 0
M  V30 2293 H 205.977 1.21188 -0.833776 0
M  V30 2294 H 207.935 4.16981 0.135037 0
M  V30 2295 H 206.565 3.15884 0.664613 0
M  V30 2296 H 205.617 3.38003 -1.74522 0
M  V30 2297 H 206.929 4.52844 -2.09125 0
M  V30 2298 H 206.083 6.05953 -0.300963 0
M  V30 2299 H 204.822 4.8749 0.143232 0
M  V30 2300 H 203.827 5.05835 -2.15432 0
M  V30 2301 H 205.052 6.27685 -2.59208 0
M  V30 2302 H 202.998 6.54985 -0.364725 0
M  V30 2303 H 202.915 7.31242 -1.91887 0
M  V30 2304 H 204.183 7.75237 -0.81408 0
M  V30 2305 N 208.412 0.89855 1.29475 0
M  V30 2306 C 209.342 0.39201 2.30186 0
M  V30 2307 C 210.323 -0.532359 1.61555 0
M  V30 2308 O 211.508 -0.443331 1.89072 0
M  V30 2309 C 208.638 -0.382353 3.45189 0
M  V30 2310 C 207.592 0.451483 4.25612 0
M  V30 2311 C 206.918 -0.450307 5.328 0
M  V30 2312 C 208.218 1.70079 4.93832 0
M  V30 2313 H 209.912 1.23362 2.72804 0
M  V30 2314 H 207.458 0.594638 1.31149 0
M  V30 2315 H 209.411 -0.747451 4.14718 0
M  V30 2316 H 208.135 -1.25774 3.01411 0
M  V30 2317 H 206.794 0.798897 3.57789 0
M  V30 2318 H 206.442 -1.32379 4.85268 0
M  V30 2319 H 206.142 0.103902 5.87508 0
M  V30 2320 H 207.666 -0.811623 6.05182 0
M  V30 2321 H 209.08 1.40549 5.55805 0
M  V30 2322 H 207.477 2.19623 5.58467 0
M  V30 2323 H 208.547 2.43744 4.19186 0
M  V30 2324 N 209.89 -1.43072 0.660911 0
M  V30 2325 C 210.8 -2.34585 -0.0264163 0
M  V30 2326 C 211.816 -1.54316 -0.803898 0
M  V30 2327 O 212.992 -1.86939 -0.749391 0
M  V30 2328 C 210.057 -3.32689 -0.975639 0
M  V30 2329 C 209.118 -4.2886 -0.194236 0
M  V30 2330 C 208.351 -5.22278 -1.09825 0
M  V30 2331 O 208.574 -5.20299 -2.33763 0
M  V30 2332 O 207.508 -5.99228 -0.566513 0
M  V30 2333 H 211.334 -2.94869 0.727034 0
M  V30 2334 H 208.919 -1.43342 0.42111 0
M  V30 2335 H 210.801 -3.92995 -1.52094 0
M  V30 2336 H 209.476 -2.74898 -1.70918 0
M  V30 2337 H 208.383 -3.72011 0.394835 0
M  V30 2338 H 209.716 -4.89655 0.499899 0
M  V30 2339 N 211.368 -0.403325 -1.52352 0
M  V30 2340 C 212.315 0.425011 -2.26853 0
M  V30 2341 C 213.285 1.04598 -1.29029 0
M  V30 2342 O 214.47 1.07135 -1.57882 0
M  V30 2343 C 211.61 1.53888 -3.08889 0
M  V30 2344 C 210.723 0.939396 -4.21663 0
M  V30 2345 C 209.858 2.02547 -4.91068 0
M  V30 2346 C 208.897 1.40263 -5.95813 0
M  V30 2347 N 208.034 2.4286 -6.58759 0
M  V30 2348 H 212.874 -0.21674 -2.97211 0
M  V30 2349 H 210.411 -0.118722 -1.4662 0
M  V30 2350 H 212.369 2.19558 -3.54753 0
M  V30 2351 H 210.999 2.15074 -2.40714 0
M  V30 2352 H 210.051 0.171898 -3.80011 0
M  V30 2353 H 211.363 0.44436 -4.96817 0
M  V30 2354 H 210.517 2.75958 -5.40308 0
M  V30 2355 H 209.256 2.55415 -4.15469 0
M  V30 2356 H 208.261 0.653833 -5.45898 0
M  V30 2357 H 209.486 0.881719 -6.73352 0
M  V30 2358 H 207.432 2.94871 -5.85992 0
M  V30 2359 H 207.349 1.98152 -7.2957 0
M  V30 2360 H 208.617 3.15858 -7.12639 0
M  V30 2361 N 212.846 1.57033 -0.133567 0
M  V30 2362 C 214.095 1.94861 0.520768 0
M  V30 2363 C 214.408 1.02012 1.66892 0
M  V30 2364 O 215.614 1.29365 2.38699 0
M  V30 2365 C 214.07 3.46362 0.977809 0
M  V30 2366 C 213.678 4.47773 -0.142674 0
M  V30 2367 C 215.422 3.93083 1.60269 0
M  V30 2368 C 213.329 5.90468 0.331883 0
M  V30 2369 H 212.259 0.727453 0.198315 0
M  V30 2370 H 214.91 1.82227 -0.215759 0
M  V30 2371 H 213.292 3.54282 1.7692 0
M  V30 2372 H 214.466 4.51536 -0.919317 0
M  V30 2373 H 212.781 4.10891 -0.675124 0
M  V30 2374 H 215.378 4.97121 1.96914 0
M  V30 2375 H 215.721 3.33876 2.48662 0
M  V30 2376 H 216.254 3.88025 0.876453 0
M  V30 2377 H 212.993 6.53463 -0.516341 0
M  V30 2378 H 212.513 5.90094 1.07469 0
M  V30 2379 H 214.192 6.42179 0.788332 0
M  V30 2380 N 214.325 -0.140222 1.56975 0
M  V30 2381 C 215.574 -0.850152 1.82908 0
M  V30 2382 C 215.887 -1.82028 0.715892 0
M  V30 2383 O 217.093 -2.57485 0.861016 0
M  V30 2384 C 215.549 -1.5625 3.24213 0
M  V30 2385 C 215.157 -0.63443 4.43485 0
M  V30 2386 C 216.901 -2.25881 3.59413 0
M  V30 2387 C 214.808 -1.34879 5.75814 0
M  V30 2388 H 213.738 -0.321221 0.682153 0
M  V30 2389 H 216.389 -0.102874 1.83211 0
M  V30 2390 H 214.771 -2.35565 3.18316 0
M  V30 2391 H 215.945 0.12398 4.60633 0
M  V30 2392 H 214.26 -0.0461836 4.16374 0
M  V30 2393 H 216.857 -2.79978 4.5554 0
M  V30 2394 H 217.2 -3.02693 2.85802 0
M  V30 2395 H 217.733 -1.53477 3.67001 0
M  V30 2396 H 214.472 -0.622385 6.52539 0
M  V30 2397 H 213.992 -2.07974 5.6259 0
M  V30 2398 H 215.671 -1.88784 6.18845 0
M  V30 2399 N 215.803 -1.52179 -0.40978 0
M  V30 2400 C 217.043 -1.67882 -1.16597 0
M  V30 2401 C 217.407 -0.399795 -1.87791 0
M  V30 2402 O 218.608 -0.43292 -2.65291 0
M  V30 2403 C 216.879 -2.86662 -2.13448 0
M  V30 2404 S 218.438 -3.22843 -2.97183 0
M  V30 2405 H 215.256 -0.59118 -0.395002 0
M  V30 2406 H 217.858 -1.9017 -0.453373 0
M  V30 2407 H 216.562 -3.77998 -1.59831 0
M  V30 2408 H 216.093 -2.66645 -2.89247 0
M  V30 2409 H 218.108 -2.71415 -4.15389 0
M  V30 2410 N 217.281 0.66697 -1.42791 0
M  V30 2411 C 218.213 1.7925 -1.42836 0
M  V30 2412 C 219.226 1.59496 -0.326333 0
M  V30 2413 O 220.415 1.6847 -0.589916 0
M  V30 2414 C 217.515 3.16476 -1.21229 0
M  V30 2415 C 216.688 3.63011 -2.44013 0
M  V30 2416 C 215.747 4.78993 -2.17834 0
M  V30 2417 O 214.773 4.89137 -2.91091 0
M  V30 2418 N 215.975 5.68248 -1.18635 0
M  V30 2419 H 218.74 1.79695 -2.39854 0
M  V30 2420 H 216.301 0.850338 -1.37771 0
M  V30 2421 H 218.293 3.91734 -1.01621 0
M  V30 2422 H 216.863 3.10884 -0.32706 0
M  V30 2423 H 216.083 2.78346 -2.79137 0
M  V30 2424 H 217.371 3.90845 -3.25757 0
M  V30 2425 H 216.769 5.62712 -0.580615 0
M  V30 2426 H 215.326 6.43285 -1.05013 0
M  V30 2427 N 218.759 1.29093 0.90403 0
M  V30 2428 C 219.669 1.15727 2.0407 0
M  V30 2429 C 220.685 0.0815308 1.73809 0
M  V30 2430 O 221.861 0.292749 1.99261 0
M  V30 2431 C 218.926 0.830424 3.36608 0
M  V30 2432 C 217.987 1.98955 3.80415 0
M  V30 2433 C 217.22 1.6782 5.06628 0
M  V30 2434 O 217.443 0.597105 5.67266 0
M  V30 2435 O 216.377 2.52486 5.46383 0
M  V30 2436 H 220.203 2.11171 2.18267 0
M  V30 2437 H 217.788 1.08504 1.027 0
M  V30 2438 H 219.67 0.662521 4.16159 0
M  V30 2439 H 218.345 -0.0942678 3.23563 0
M  V30 2440 H 217.252 2.21267 3.01648 0
M  V30 2441 H 218.585 2.89529 3.98037 0
M  V30 2442 N 220.237 -1.11381 1.11499 0
M  V30 2443 C 221.486 -1.82494 0.858993 0
M  V30 2444 C 221.799 -1.85605 -0.617278 0
M  V30 2445 O 223.005 -2.52824 -0.989552 0
M  V30 2446 C 221.461 -3.27745 1.48699 0
M  V30 2447 C 221.069 -3.32961 2.99735 0
M  V30 2448 C 222.813 -4.03754 1.31085 0
M  V30 2449 C 220.72 -4.72612 3.55516 0
M  V30 2450 H 219.65 -0.683802 0.317696 0
M  V30 2451 H 222.301 -1.25331 1.34031 0
M  V30 2452 H 220.683 -3.84844 0.933339 0
M  V30 2453 H 221.857 -2.85741 3.61509 0
M  V30 2454 H 220.172 -2.70433 3.16631 0
M  V30 2455 H 222.769 -5.06891 1.70192 0
M  V30 2456 H 223.112 -4.15527 0.253496 0
M  V30 2457 H 223.645 -3.53043 1.83318 0
M  V30 2458 H 220.384 -4.66036 4.60967 0
M  V30 2459 H 219.904 -5.2024 2.98513 0
M  V30 2460 H 221.583 -5.4157 3.53992 0
M  V30 2461 N 221.715 -0.905404 -1.28997 0
M  V30 2462 C 222.94 -0.549175 -1.99997 0
M  V30 2463 C 223.365 0.860276 -1.67275 0
M  V30 2464 O 222.723 1.57355 -0.900502 0
M  V30 2465 C 222.771 -0.755185 -3.52604 0
M  V30 2466 O 221.875 0.189692 -4.11964 0
M  V30 2467 H 221.216 -0.213899 -0.628604 0
M  V30 2468 H 223.746 -1.21856 -1.64354 0
M  V30 2469 H 223.756 -0.662045 -4.02593 0
M  V30 2470 H 222.431 -1.78271 -3.75755 0
M  V30 2471 H 221.008 0.0485257 -3.72868 0
M  V30 2472 N 223.193 1.4272 -0.668489 0
M  V30 2473 C 224.421 2.05966 -0.196348 0
M  V30 2474 C 224.836 1.50191 1.14403 0
M  V30 2475 O 224.193 0.639208 1.7094 0
M  V30 2476 C 224.244 3.61314 -0.115815 0
M  V30 2477 O 223.965 4.1502 -1.40322 0
M  V30 2478 C 225.466 4.41663 0.380579 0
M  V30 2479 H 222.686 0.663954 -0.0969829 0
M  V30 2480 H 225.23 1.82966 -0.913446 0
M  V30 2481 H 223.385 3.83448 0.551931 0
M  V30 2482 H 223.799 5.08832 -1.27243 0
M  V30 2483 H 225.273 5.5065 0.385848 0
M  V30 2484 H 225.75 4.15792 1.41471 0
M  V30 2485 H 226.356 4.24534 -0.255209 0
M  V30 2486 N 224.671 0.411399 1.52136 0
M  V30 2487 C 225.601 -0.404015 2.29978 0
M  V30 2488 C 226.582 -1.04412 1.34284 0
M  V30 2489 O 227.767 -1.0527 1.63192 0
M  V30 2490 C 224.897 -1.5197 3.12286 0
M  V30 2491 C 223.851 -1.00448 4.16046 0
M  V30 2492 C 223.177 -2.21393 4.86712 0
M  V30 2493 C 224.477 -0.0569336 5.22269 0
M  V30 2494 H 226.171 0.245529 2.98392 0
M  V30 2495 H 223.717 0.119525 1.43503 0
M  V30 2496 H 225.67 -2.09715 3.6551 0
M  V30 2497 H 224.394 -2.19716 2.41646 0
M  V30 2498 H 223.053 -0.449421 3.63835 0
M  V30 2499 H 222.701 -2.87699 4.12599 0
M  V30 2500 H 222.401 -1.87571 5.56858 0
M  V30 2501 H 223.925 -2.7974 5.4275 0
M  V30 2502 H 225.339 -0.54325 5.7072 0
M  V30 2503 H 223.736 0.192594 5.99791 0
M  V30 2504 H 224.806 0.887663 4.76706 0
M  V30 2505 N 226.149 -1.5696 0.141893 0
M  V30 2506 C 227.389 -1.9785 -0.513304 0
M  V30 2507 C 227.753 -1.02467 -1.62371 0
M  V30 2508 O 228.954 -1.32382 -2.33941 0
M  V30 2509 C 227.225 -3.42797 -1.01118 0
M  V30 2510 S 228.784 -4.05709 -1.67169 0
M  V30 2511 H 225.602 -0.691318 -0.166135 0
M  V30 2512 H 228.204 -1.94114 0.232398 0
M  V30 2513 H 226.908 -4.0995 -0.192179 0
M  V30 2514 H 226.439 -3.50235 -1.79162 0
M  V30 2515 H 228.454 -3.98342 -2.95868 0
M  V30 2516 N 227.627 0.131896 -1.57047 0
M  V30 2517 C 228.904 0.871495 -1.75112 0
M  V30 2518 C 229.284 1.9866 -0.713949 0
M  V30 2519 O 228.632 2.26965 0.264447 0
M  V30 2520 C 228.842 1.40007 -3.19686 0
M  V30 2521 C 230.19 1.85752 -3.81813 0
M  V30 2522 O 231.214 1.49715 -3.23209 0
M  V30 2523 O 230.073 2.5226 -4.84796 0
M  V30 2524 H 227.167 0.412919 -0.716538 0
M  V30 2525 H 229.713 0.116641 -1.69299 0
M  V30 2526 H 228.485 0.599404 -3.86682 0
M  V30 2527 H 228.108 2.218 -3.29986 0
M  V30 2528 N 229.106 1.52395 0.401703 0
M  V30 2529 C 230.039 1.70999 1.51111 0
M  V30 2530 C 231.017 0.55765 1.52738 0
M  V30 2531 O 232.201 0.785912 1.71335 0
M  V30 2532 C 229.328 1.75607 2.8962 0
M  V30 2533 C 228.374 2.97227 3.05873 0
M  V30 2534 S 229.207 4.57439 2.78405 0
M  V30 2535 C 230.363 4.64844 4.19131 0
M  V30 2536 H 230.596 2.6483 1.35102 0
M  V30 2537 H 228.129 1.42527 0.593762 0
M  V30 2538 H 230.087 1.78947 3.69443 0
M  V30 2539 H 228.748 0.828914 3.02965 0
M  V30 2540 H 227.941 2.96955 4.07227 0
M  V30 2541 H 227.543 2.91813 2.33925 0
M  V30 2542 H 229.835 4.42677 5.12877 0
M  V30 2543 H 230.778 5.66807 4.24424 0
M  V30 2544 H 231.186 3.93804 4.04448 0
M  V30 2545 N 230.584 -0.659388 1.43143 0
M  V30 2546 C 231.514 -1.78422 1.50625 0
M  V30 2547 C 232.495 -1.66216 0.361443 0
M  V30 2548 O 233.68 -1.85404 0.577834 0
M  V30 2549 C 230.81 -3.16815 1.42287 0
M  V30 2550 C 229.764 -3.43777 2.54954 0
M  V30 2551 C 229.09 -4.81905 2.31671 0
M  V30 2552 C 230.39 -3.39134 3.97222 0
M  V30 2553 H 232.084 -1.72417 2.44771 0
M  V30 2554 H 229.63 -0.828084 1.17808 0
M  V30 2555 H 231.583 -3.95253 1.46127 0
M  V30 2556 H 230.307 -3.23534 0.446435 0
M  V30 2557 H 228.966 -2.67707 2.50457 0
M  V30 2558 H 228.614 -4.85294 1.32284 0
M  V30 2559 H 228.314 -5.00906 3.07192 0
M  V30 2560 H 229.838 -5.62609 2.37284 0
M  V30 2561 H 231.252 -4.07518 4.03239 0
M  V30 2562 H 229.649 -3.69671 4.72719 0
M  V30 2563 H 230.719 -2.37426 4.22797 0
M  V30 2564 N 232.062 -1.29571 -0.897171 0
M  V30 2565 C 233.025 -1.14913 -1.98312 0
M  V30 2566 C 234.025 -0.0838629 -1.60581 0
M  V30 2567 O 235.215 -0.331006 -1.71026 0
M  V30 2568 C 232.347 -0.757835 -3.3237 0
M  V30 2569 H 233.54 -2.11377 -2.12743 0
M  V30 2570 H 231.093 -1.12793 -1.08201 0
M  V30 2571 H 231.828 0.206837 -3.2364 0
M  V30 2572 H 231.613 -1.52755 -3.61121 0
M  V30 2573 H 233.103 -0.678408 -4.12053 0
M  V30 2574 N 233.54 1.10788 -1.12088 0
M  V30 2575 C 234.768 1.86461 -0.896651 0
M  V30 2576 C 235.183 1.80492 0.553912 0
M  V30 2577 O 234.54 1.19102 1.38278 0
M  V30 2578 C 234.591 3.35006 -1.35843 0
M  V30 2579 O 234.312 3.40866 -2.75213 0
M  V30 2580 C 235.813 4.27565 -1.1706 0
M  V30 2581 H 233.033 0.589425 -0.320654 0
M  V30 2582 H 235.577 1.40076 -1.48993 0
M  V30 2583 H 233.732 3.7887 -0.808458 0
M  V30 2584 H 234.146 4.33411 -2.9539 0
M  V30 2585 H 235.62 5.30007 -1.54263 0
M  V30 2586 H 236.097 4.3906 -0.110814 0
M  V30 2587 H 236.703 3.89501 -1.70789 0
M  V30 2588 N 235.018 0.912232 1.28515 0
M  V30 2589 C 235.968 0.370649 2.24967 0
M  V30 2590 C 236.952 -0.516375 1.52389 0
M  V30 2591 O 238.144 -0.356345 1.73376 0
M  V30 2592 C 235.273 -0.389526 3.41083 0
M  V30 2593 C 234.359 0.51313 4.20984 0
M  V30 2594 N 234.75 1.62604 4.78951 0
M  V30 2595 C 233.048 0.313235 4.44899 0
M  V30 2596 C 233.749 2.18619 5.39055 0
M  V30 2597 N 232.725 1.47765 5.23132 0
M  V30 2598 H 236.527 1.22061 2.67354 0
M  V30 2599 H 234.041 0.764712 1.43269 0
M  V30 2600 H 236.038 -0.794353 4.09262 0
M  V30 2601 H 234.698 -1.2366 3.0023 0
M  V30 2602 H 235.709 2.00864 4.77362 0
M  V30 2603 H 232.386 -0.494452 4.14562 0
M  V30 2604 H 233.776 3.12228 5.94948 0
M  V30 2605 N 236.496 -1.42363 0.676048 0
M  V30 2606 C 237.444 -2.32596 -0.0131507 0
M  V30 2607 C 238.438 -1.49891 -0.789238 0
M  V30 2608 O 239.644 -1.65955 -0.697061 0
M  V30 2609 H 236.019 -0.751647 -0.0230481 0
M  V30 2610 H 237.99 -2.88421 0.765243 0
M  V30 2611 C 236.739 -3.34479 -0.949702 0
M  V30 2612 H 236.062 -3.98158 -0.361938 0
M  V30 2613 H 237.502 -4.00199 -1.4006 0
M  V30 2614 C 235.961 -2.66838 -2.05667 0
M  V30 2615 O 236.491 -2.50124 -3.14326 0
M  V30 2616 N 234.697 -2.25843 -1.82875 0
M  V30 2617 H 234.244 -2.39637 -0.945085 0
M  V30 2618 H 234.202 -1.80918 -2.5713 0
M  V30 2619 N 237.974 -0.419461 -1.51915 0
M  V30 2620 C 239.222 0.152637 -2.01523 0
M  V30 2621 C 239.543 1.44762 -1.30649 0
M  V30 2622 O 238.813 1.90997 -0.435535 0
M  V30 2623 H 237.393 0.0593966 -0.744635 0
M  V30 2624 H 240.055 -0.558073 -1.86739 0
M  V30 2625 H 239.151 0.341369 -3.10227 0
M  V30 2626 N 239.452 1.56882 -0.150215 0
M  V30 2627 C 240.384 2.14057 0.819286 0
M  V30 2628 C 241.397 1.09082 1.20851 0
M  V30 2629 O 242.586 1.36347 1.15203 0
M  V30 2630 C 239.686 2.65102 2.11127 0
M  V30 2631 C 238.859 3.94511 1.88891 0
M  V30 2632 C 237.918 4.30834 3.02107 0
M  V30 2633 O 236.944 4.99099 2.73659 0
M  V30 2634 N 238.146 3.90676 4.29363 0
M  V30 2635 H 240.911 2.97871 0.330618 0
M  V30 2636 H 238.472 1.61866 0.0332538 0
M  V30 2637 H 240.464 2.86411 2.85921 0
M  V30 2638 H 239.034 1.85994 2.51247 0
M  V30 2639 H 238.254 3.81795 0.981152 0
M  V30 2640 H 239.542 4.7907 1.71376 0
M  V30 2641 H 238.94 3.35677 4.55343 0
M  V30 2642 H 237.497 4.1703 5.00928 0
M  V30 2643 N 240.93 -0.123565 1.57115 0
M  V30 2644 C 242.155 -0.850398 1.89164 0
M  V30 2645 C 242.58 -1.7286 0.741688 0
M  V30 2646 O 241.938 -1.78665 -0.307958 0
M  V30 2647 C 241.986 -1.66353 3.19936 0
M  V30 2648 O 241.09 -2.77004 3.0552 0
M  V30 2649 H 240.431 -0.235454 0.620852 0
M  V30 2650 H 242.961 -0.107335 2.04318 0
M  V30 2651 H 242.971 -2.05372 3.52543 0
M  V30 2652 H 241.646 -1.01881 4.03228 0
M  V30 2653 H 240.223 -2.41221 2.84371 0
M  V30 2654 N 242.408 -1.52605 -0.393616 0
M  V30 2655 C 243.657 -1.66649 -1.13627 0
M  V30 2656 C 243.97 -0.410364 -1.91247 0
M  V30 2657 O 245.176 -0.430854 -2.68059 0
M  V30 2658 C 243.632 -2.9449 -2.06891 0
M  V30 2659 C 243.24 -4.27266 -1.34714 0
M  V30 2660 C 244.984 -3.17899 -2.81319 0
M  V30 2661 C 242.891 -5.46217 -2.26717 0
M  V30 2662 H 241.821 -0.62084 -0.427871 0
M  V30 2663 H 244.472 -1.791 -0.399428 0
M  V30 2664 H 242.854 -2.75774 -2.84191 0
M  V30 2665 H 244.028 -4.56518 -0.626714 0
M  V30 2666 H 242.343 -4.10081 -0.722643 0
M  V30 2667 H 244.94 -4.03949 -3.50328 0
M  V30 2668 H 245.283 -2.32777 -3.45139 0
M  V30 2669 H 245.816 -3.37159 -2.11113 0
M  V30 2670 H 242.555 -6.33733 -1.67521 0
M  V30 2671 H 242.075 -5.21283 -2.96689 0
M  V30 2672 H 243.754 -5.7991 -2.86903 0
M  V30 2673 N 243.887 0.651787 -1.4349 0
M  V30 2674 C 245.164 1.40909 -1.35661 0
M  V30 2675 C 245.544 2.11099 -0.00511733 0
M  V30 2676 O 244.892 2.04892 1.0115 0
M  V30 2677 C 245.102 2.3926 -2.54078 0
M  V30 2678 C 246.45 3.03217 -2.97228 0
M  V30 2679 O 247.474 2.49588 -2.54135 0
M  V30 2680 O 246.333 4.00455 -3.71885 0
M  V30 2681 H 243.427 0.629625 -0.536191 0
M  V30 2682 H 245.973 0.678575 -1.55542 0
M  V30 2683 H 244.745 1.86352 -3.44076 0
M  V30 2684 H 244.368 3.1976 -2.36303 0
M  V30 2685 N 245.365 1.30045 0.890287 0
M  V30 2686 C 246.614 1.17929 1.63633 0
M  V30 2687 C 246.927 -0.266204 1.9378 0
M  V30 2688 O 248.133 -0.508804 2.6669 0
M  V30 2689 C 246.589 2.06317 2.94892 0
M  V30 2690 C 246.197 3.55745 2.72305 0
M  V30 2691 C 247.941 2.0295 3.72843 0
M  V30 2692 C 245.848 4.36205 3.99348 0
M  V30 2693 H 244.778 0.437782 0.613892 0
M  V30 2694 H 247.429 1.54754 0.986075 0
M  V30 2695 H 245.811 1.6237 3.61182 0
M  V30 2696 H 246.985 4.07805 2.1455 0
M  V30 2697 H 245.3 3.6088 2.07737 0
M  V30 2698 H 247.897 2.60319 4.67053 0
M  V30 2699 H 248.24 1.0117 4.0382 0
M  V30 2700 H 248.773 2.4499 3.13408 0
M  V30 2701 H 245.512 5.38659 3.73533 0
M  V30 2702 H 245.032 3.8891 4.56628 0
M  V30 2703 H 246.711 4.47362 4.67415 0
M  V30 2704 N 246.843 -1.10192 1.12674 0
M  V30 2705 C 248.068 -1.86523 0.906853 0
M  V30 2706 C 248.493 -1.80221 -0.538711 0
M  V30 2707 O 247.851 -1.17396 -1.38158 0
M  V30 2708 C 247.899 -3.32758 1.3894 0
M  V30 2709 O 247.003 -4.08449 0.5695 0
M  V30 2710 H 246.344 -0.578678 0.325619 0
M  V30 2711 H 248.874 -1.39203 1.49946 0
M  V30 2712 H 248.884 -3.83608 1.38958 0
M  V30 2713 H 247.559 -3.36661 2.44197 0
M  V30 2714 H 246.136 -3.67427 0.636528 0
M  V30 2715 N 248.321 -0.919034 -1.28029 0
M  V30 2716 C 249.568 -0.554934 -1.94748 0
M  V30 2717 C 249.896 0.90231 -1.72304 0
M  V30 2718 O 249.151 1.65767 -1.04018 0
M  V30 2719 C 249.45 -0.816855 -3.4794 0
M  V30 2720 C 249.116 -2.25448 -3.90492 0
M  V30 2721 C 247.778 -2.64752 -4.01821 0
M  V30 2722 C 250.13 -3.18977 -4.12193 0
M  V30 2723 C 247.458 -3.96727 -4.32232 0
M  V30 2724 C 249.81 -4.50523 -4.44086 0
M  V30 2725 C 248.474 -4.89673 -4.53626 0
M  V30 2726 H 247.744 -0.203065 -0.712633 0
M  V30 2727 H 250.391 -1.16136 -1.52265 0
M  V30 2728 H 248.696 -0.127677 -3.91592 0
M  V30 2729 H 250.393 -0.514238 -3.97689 0
M  V30 2730 H 246.983 -1.93952 -3.82205 0
M  V30 2731 H 251.167 -2.89817 -4.02889 0
M  V30 2732 H 246.423 -4.26754 -4.37825 0
M  V30 2733 H 250.597 -5.23005 -4.59825 0
M  V30 2734 H 248.224 -5.91969 -4.76946 0
M  V30 2735 N 249.799 1.42003 -0.683588 0
M  V30 2736 C 251.21 1.84501 -0.285736 0
M  V30 2737 C 251.561 1.57213 1.17382 0
M  V30 2738 O 250.686 1.03642 1.89966 0
M  V30 2739 C 251.281 3.34912 -0.511821 0
M  V30 2740 C 249.84 3.76025 -0.168005 0
M  V30 2741 C 248.987 2.6551 -0.799983 0
M  V30 2742 H 251.938 1.31724 -0.885119 0
M  V30 2743 H 251.959 3.79784 0.233292 0
M  V30 2744 H 251.471 3.54741 -1.57418 0
M  V30 2745 H 249.572 3.61801 0.890567 0
M  V30 2746 H 249.685 4.75141 -0.614661 0
M  V30 2747 H 248.049 2.53654 -0.230568 0
M  V30 2748 H 248.832 2.8816 -1.86597 0
M  V30 2749 N 251.277 0.427512 1.51691 0
M  V30 2750 C 252.523 -0.142439 2.02299 0
M  V30 2751 C 252.856 -1.43214 1.31162 0
M  V30 2752 O 252.131 -1.89833 0.423511 0
M  V30 2753 C 252.414 -0.371301 3.58181 0
M  V30 2754 C 252.267 0.936358 4.39946 0
M  V30 2755 C 253.586 -1.14542 4.24933 0
M  V30 2756 H 250.705 -0.0502937 0.735282 0
M  V30 2757 H 253.347 0.564584 1.81418 0
M  V30 2758 H 251.497 -0.973559 3.76104 0
M  V30 2759 H 253.169 1.57184 4.33694 0
M  V30 2760 H 251.412 1.5432 4.05423 0
M  V30 2761 H 252.083 0.730388 5.47147 0
M  V30 2762 H 254.559 -0.635362 4.11221 0
M  V30 2763 H 253.435 -1.27431 5.33903 0
M  V30 2764 H 253.696 -2.17093 3.85127 0
M  V30 2765 N 252.755 -1.56801 0.158532 0
M  V30 2766 C 254.002 -1.9649 -0.489679 0
M  V30 2767 C 254.33 -1.04394 -1.6411 0
M  V30 2768 O 253.585 -0.0754401 -1.95555 0
M  V30 2769 C 253.884 -3.4235 -1.02623 0
M  V30 2770 C 253.55 -4.50899 0.00794526 0
M  V30 2771 C 252.212 -4.80312 0.292207 0
M  V30 2772 C 254.564 -5.16333 0.710584 0
M  V30 2773 C 251.892 -5.72461 1.28472 0
M  V30 2774 C 254.244 -6.09553 1.69199 0
M  V30 2775 C 252.908 -6.37339 1.98383 0
M  V30 2776 H 252.178 -0.719009 -0.179186 0
M  V30 2777 H 254.825 -1.8989 0.247798 0
M  V30 2778 H 253.13 -3.45838 -1.84128 0
M  V30 2779 H 254.827 -3.70393 -1.53656 0
M  V30 2780 H 251.417 -4.28015 -0.22379 0
M  V30 2781 H 255.601 -4.93732 0.504174 0
M  V30 2782 H 250.857 -5.92278 1.51714 0
M  V30 2783 H 255.031 -6.59327 2.24189 0
M  V30 2784 H 252.658 -7.08546 2.7544 0
M  V30 2785 N 254.233 0.115231 -1.57178 0
M  V30 2786 C 255.479 0.82357 -1.85325 0
M  V30 2787 C 255.812 1.79349 -0.744814 0
M  V30 2788 O 255.087 1.92899 0.249024 0
M  V30 2789 C 255.37 1.57014 -3.24066 0
M  V30 2790 C 255.223 0.619565 -4.45513 0
M  V30 2791 C 256.542 2.52545 -3.60429 0
M  V30 2792 H 253.661 0.297948 -0.674089 0
M  V30 2793 H 256.303 0.0877138 -1.89797 0
M  V30 2794 H 254.453 2.19742 -3.20383 0
M  V30 2795 H 256.125 0.000837639 -4.613 0
M  V30 2796 H 254.368 -0.0686174 -4.33746 0
M  V30 2797 H 255.039 1.17866 -5.3927 0
M  V30 2798 H 257.515 1.9992 -3.64926 0
M  V30 2799 H 256.391 3.01811 -4.58477 0
M  V30 2800 H 256.652 3.35383 -2.88047 0
M  V30 2801 N 255.711 1.52812 0.385517 0
M  V30 2802 C 256.674 1.77188 1.45386 0
M  V30 2803 C 257.674 0.641953 1.4743 0
M  V30 2804 O 258.864 0.910033 1.4854 0
M  V30 2805 C 255.996 1.87582 2.8465 0
M  V30 2806 H 257.189 2.72583 1.25054 0
M  V30 2807 H 254.742 1.43586 0.617467 0
M  V30 2808 H 255.477 0.941849 3.10322 0
M  V30 2809 H 255.262 2.69748 2.84567 0
M  V30 2810 H 256.752 2.08102 3.62054 0
M  V30 2811 N 257.189 -0.644168 1.43834 0
M  V30 2812 C 258.435 -1.40603 1.46146 0
M  V30 2813 C 258.768 -1.93997 0.0887717 0
M  V30 2814 O 258.043 -1.72854 -0.891724 0
M  V30 2815 C 258.326 -2.58086 2.51124 0
M  V30 2816 C 258.179 -2.10126 3.97702 0
M  V30 2817 C 259.498 -3.60291 2.52742 0
M  V30 2818 H 256.617 -0.509905 0.532134 0
M  V30 2819 H 259.259 -0.729502 1.75437 0
M  V30 2820 H 257.409 -3.15801 2.26278 0
M  V30 2821 H 259.081 -1.57342 4.33637 0
M  V30 2822 H 257.324 -1.41419 4.10101 0
M  V30 2823 H 257.995 -2.94649 4.66783 0
M  V30 2824 H 260.471 -3.12352 2.7491 0
M  V30 2825 H 259.347 -4.40032 3.28121 0
M  V30 2826 H 259.608 -4.1349 1.56455 0
M  V30 2827 N 258.668 -1.30515 -0.883378 0
M  V30 2828 C 259.896 -1.22359 -1.66841 0
M  V30 2829 C 260.311 0.213296 -1.87591 0
M  V30 2830 O 259.668 1.14075 -1.42454 0
M  V30 2831 C 259.719 -1.95011 -3.04389 0
M  V30 2832 O 259.44 -3.3309 -2.84575 0
M  V30 2833 C 260.941 -1.93532 -3.98824 0
M  V30 2834 H 258.161 -0.423371 -0.520575 0
M  V30 2835 H 260.705 -1.72167 -1.10357 0
M  V30 2836 H 258.86 -1.48997 -3.57601 0
M  V30 2837 H 259.274 -3.69907 -3.71846 0
M  V30 2838 H 260.748 -2.48902 -4.92699 0
M  V30 2839 H 261.225 -0.914627 -4.29571 0
M  V30 2840 H 261.831 -2.39364 -3.51547 0
M  V30 2841 N 260.146 1.09593 -1.13257 0
M  V30 2842 C 261.094 2.18271 -0.803783 0
M  V30 2843 C 262.088 1.68054 0.213148 0
M  V30 2844 O 263.294 1.79862 0.0704699 0
M  V30 2845 H 259.669 0.711949 -0.242143 0
M  V30 2846 H 261.64 2.43235 -1.72856 0
M  V30 2847 C 260.389 3.46536 -0.28424 0
M  V30 2848 H 259.712 3.85545 -1.05807 0
M  V30 2849 H 261.152 4.23899 -0.0925945 0
M  V30 2850 C 259.611 3.22036 0.989684 0
M  V30 2851 O 260.141 3.44509 2.06584 0
M  V30 2852 N 258.347 2.7565 0.920086 0
M  V30 2853 H 257.894 2.57562 0.0442019 0
M  V30 2854 H 257.852 2.59635 1.77306 0
M  V30 2855 N 261.624 0.925811 1.2754 0
M  V30 2856 C 262.87 0.566092 1.94739 0
M  V30 2857 C 263.203 -0.890057 1.72603 0
M  V30 2858 O 262.478 -1.63467 1.05399 0
M  V30 2859 C 262.761 0.89054 3.48915 0
M  V30 2860 C 262.614 2.4003 3.80402 0
M  V30 2861 C 263.933 0.395101 4.38323 0
M  V30 2862 H 261.052 0.20714 0.707292 0
M  V30 2863 H 263.694 1.15725 1.50691 0
M  V30 2864 H 261.844 0.387452 3.86563 0
M  V30 2865 H 263.516 2.97494 3.52555 0
M  V30 2866 H 261.759 2.85028 3.2702 0
M  V30 2867 H 262.43 2.57785 4.8811 0
M  V30 2868 H 264.906 0.826241 4.07814 0
M  V30 2869 H 263.782 0.651086 5.45025 0
M  V30 2870 H 264.043 -0.704798 4.36446 0
M  V30 2871 N 263.102 -1.41638 0.69111 0
M  V30 2872 C 264.351 -2.00526 0.217318 0
M  V30 2873 C 264.664 -1.55353 -1.18848 0
M  V30 2874 O 265.87 -2.06769 -1.75951 0
M  V30 2875 C 264.326 -3.58313 0.337639 0
M  V30 2876 C 263.934 -4.12469 1.74852 0
M  V30 2877 C 265.678 -4.24431 -0.0766066 0
M  V30 2878 C 263.585 -5.62675 1.82074 0
M  V30 2879 H 262.515 -0.750008 0.0774893 0
M  V30 2880 H 265.166 -1.6217 0.858661 0
M  V30 2881 H 263.548 -3.9425 -0.371879 0
M  V30 2882 H 264.722 -3.8796 2.48644 0
M  V30 2883 H 263.037 -3.58861 2.11205 0
M  V30 2884 H 265.634 -5.34683 -0.0430284 0
M  V30 2885 H 265.977 -4.01101 -1.1146 0
M  V30 2886 H 266.51 -3.93512 0.582476 0
M  V30 2887 H 263.249 -5.90826 2.83911 0
M  V30 2888 H 262.769 -5.89124 1.12661 0
M  V30 2889 H 264.448 -6.27371 1.58159 0
M  V30 2890 N 264.58 -0.43555 -1.51462 0
M  V30 2891 C 265.805 0.132627 -2.06976 0
M  V30 2892 C 266.23 1.35848 -1.30104 0
M  V30 2893 O 265.588 1.78112 -0.338493 0
M  V30 2894 C 265.636 0.43523 -3.57964 0
M  V30 2895 O 264.74 1.52198 -3.83288 0
M  V30 2896 H 264.081 0.00265 -0.663995 0
M  V30 2897 H 266.611 -0.616369 -1.95095 0
M  V30 2898 H 266.621 0.686206 -4.02188 0
M  V30 2899 H 265.296 -0.460739 -4.1334 0
M  V30 2900 H 263.873 1.2611 -3.50928 0
M  V30 2901 N 266.058 1.56714 -0.166846 0
M  V30 2902 C 266.988 2.20754 0.760913 0
M  V30 2903 C 267.969 1.16178 1.24244 0
M  V30 2904 O 269.154 1.44592 1.29641 0
M  V30 2905 C 266.284 2.84478 1.99223 0
M  V30 2906 C 265.238 3.95053 1.64672 0
M  V30 2907 C 264.564 4.45805 2.95232 0
M  V30 2908 C 265.864 5.14865 0.878155 0
M  V30 2909 H 267.558 2.98537 0.22713 0
M  V30 2910 H 265.104 1.43596 0.107805 0
M  V30 2911 H 267.057 3.27951 2.64624 0
M  V30 2912 H 265.781 2.04056 2.55007 0
M  V30 2913 H 264.44 3.52228 1.01641 0
M  V30 2914 H 264.088 3.62181 3.49047 0
M  V30 2915 H 263.788 5.204 2.7287 0
M  V30 2916 H 265.312 4.91962 3.6167 0
M  V30 2917 H 266.726 5.55059 1.43466 0
M  V30 2918 H 265.123 5.95348 0.753738 0
M  V30 2919 H 266.193 4.84735 -0.126377 0
M  V30 2920 N 267.536 -0.106894 1.57237 0
M  V30 2921 C 268.785 -0.811163 1.8467 0
M  V30 2922 C 269.098 -1.80469 0.754342 0
M  V30 2923 O 270.304 -2.55601 0.915439 0
M  V30 2924 C 268.76 -1.49337 3.27454 0
M  V30 2925 C 268.368 -0.540217 4.44731 0
M  V30 2926 C 270.112 -2.18206 3.64124 0
M  V30 2927 C 268.019 -1.22634 5.78545 0
M  V30 2928 H 266.949 -0.306679 0.688813 0
M  V30 2929 H 269.6 -0.0639887 1.83388 0
M  V30 2930 H 267.982 -2.2876 3.23241 0
M  V30 2931 H 269.156 0.221659 4.60267 0
M  V30 2932 H 267.471 0.042146 4.16379 0
M  V30 2933 H 270.068 -2.70253 4.61376 0
M  V30 2934 H 270.411 -2.96562 2.92158 0
M  V30 2935 H 270.944 -1.45658 3.70174 0
M  V30 2936 H 267.683 -0.483832 6.53712 0
M  V30 2937 H 267.203 -1.95993 5.66874 0
M  V30 2938 H 268.882 -1.75615 6.2271 0
M  V30 2939 N 269.014 -1.53014 -0.377408 0
M  V30 2940 C 270.254 -1.70318 -1.1301 0
M  V30 2941 C 270.618 -0.439538 -1.86901 0
M  V30 2942 O 271.819 -0.489095 -2.64313 0
M  V30 2943 C 270.09 -2.91125 -2.07319 0
M  V30 2944 S 271.649 -3.29075 -2.90268 0
M  V30 2945 H 268.467 -0.599426 -0.382374 0
M  V30 2946 H 271.069 -1.91089 -0.412933 0
M  V30 2947 H 269.773 -3.81303 -1.51777 0
M  V30 2948 H 269.304 -2.7272 -2.83526 0
M  V30 2949 H 271.319 -2.80165 -4.09539 0
M  V30 2950 N 270.492 0.636531 -1.44174 0
M  V30 2951 C 271.739 1.39619 -1.46672 0
M  V30 2952 C 272.067 1.94257 -0.0972691 0
M  V30 2953 O 271.322 1.73768 0.900175 0
M  V30 2954 C 271.621 2.58309 -2.47005 0
M  V30 2955 C 271.287 2.21992 -3.92467 0
M  V30 2956 C 269.949 2.118 -4.32081 0
M  V30 2957 C 272.301 1.9321 -4.84065 0
M  V30 2958 C 269.629 1.71007 -5.61225 0
M  V30 2959 C 271.981 1.53911 -6.13591 0
M  V30 2960 C 270.645 1.42257 -6.52165 0
M  V30 2961 H 269.915 0.510902 -0.536712 0
M  V30 2962 H 272.562 0.722328 -1.77355 0
M  V30 2963 H 270.867 3.30903 -2.09786 0
M  V30 2964 H 272.564 3.16533 -2.46186 0
M  V30 2965 H 269.154 2.30841 -3.61124 0
M  V30 2966 H 273.338 1.99997 -4.54219 0
M  V30 2967 H 268.594 1.60583 -5.89935 0
M  V30 2968 H 272.768 1.30677 -6.8403 0
M  V30 2969 H 270.395 1.10419 -7.52138 0
M  V30 2970 N 271.97 1.30982 0.876444 0
M  V30 2971 C 272.918 1.18006 2.00443 0
M  V30 2972 C 273.912 0.0898871 1.69161 0
M  V30 2973 O 275.118 0.251333 1.78237 0
M  V30 2974 H 271.493 0.365196 0.65737 0
M  V30 2975 H 273.464 2.13453 2.0852 0
M  V30 2976 C 272.213 0.897521 3.35916 0
M  V30 2977 H 271.536 1.7285 3.60504 0
M  V30 2978 H 272.976 0.846874 4.15456 0
M  V30 2979 C 271.435 -0.399674 3.34521 0
M  V30 2980 O 271.965 -1.41852 3.7582 0
M  V30 2981 N 270.171 -0.413893 2.87637 0
M  V30 2982 H 269.718 0.41571 2.54224 0
M  V30 2983 H 269.676 -1.28175 2.87086 0
M  V30 2984 N 273.449 -1.08991 1.13837 0
M  V30 2985 C 274.677 -1.85011 0.926202 0
M  V30 2986 C 275.092 -1.8135 -0.525127 0
M  V30 2987 O 274.449 -1.21287 -1.36366 0
M  V30 2988 C 274.5 -3.32802 1.41155 0
M  V30 2989 O 274.221 -3.36444 2.80601 0
M  V30 2990 C 275.722 -4.25649 1.23847 0
M  V30 2991 H 272.942 -0.584249 0.32999 0
M  V30 2992 H 275.486 -1.37688 1.51202 0
M  V30 2993 H 273.641 -3.77536 0.868631 0
M  V30 2994 H 274.055 -4.28657 3.02248 0
M  V30 2995 H 275.529 -5.27485 1.62675 0
M  V30 2996 H 276.006 -4.38828 0.18065 0
M  V30 2997 H 276.612 -3.86735 1.76964 0
M  V30 2998 N 274.927 -0.932562 -1.27047 0
M  V30 2999 C 276.152 -0.591474 -1.98787 0
M  V30 3000 C 276.577 0.824601 -1.69062 0
M  V30 3001 O 275.935 1.5541 -0.933677 0
M  V30 3002 C 275.983 -0.829808 -3.50922 0
M  V30 3003 O 275.087 0.102266 -4.12273 0
M  V30 3004 H 274.428 -0.227185 -0.623926 0
M  V30 3005 H 276.958 -1.25314 -1.61733 0
M  V30 3006 H 276.968 -0.747292 -4.01098 0
M  V30 3007 H 275.643 -1.86201 -3.7189 0
M  V30 3008 H 274.22 -0.0305761 -3.72887 0
M  V30 3009 N 276.405 1.4127 -0.698611 0
M  V30 3010 C 277.635 2.05205 -0.239644 0
M  V30 3011 C 278.043 1.52684 1.11733 0
M  V30 3012 O 277.386 0.671222 1.70998 0
M  V30 3013 C 277.448 3.59289 -0.123126 0
M  V30 3014 C 277.112 4.34619 -1.41263 0
M  V30 3015 C 278.109 4.63701 -2.35111 0
M  V30 3016 C 275.794 4.73837 -1.66684 0
M  V30 3017 C 277.788 5.30966 -3.52639 0
M  V30 3018 C 275.475 5.40837 -2.84498 0
M  V30 3019 C 276.473 5.69329 -3.77298 0
M  V30 3020 O 276.161 6.34949 -4.93047 0
M  V30 3021 H 275.893 0.66723 -0.108537 0
M  V30 3022 H 278.447 1.81974 -0.952602 0
M  V30 3023 H 276.677 3.81272 0.645628 0
M  V30 3024 H 278.366 4.04797 0.299056 0
M  V30 3025 H 279.132 4.33882 -2.16729 0
M  V30 3026 H 275.011 4.51039 -0.953135 0
M  V30 3027 H 278.555 5.53121 -4.25091 0
M  V30 3028 H 274.452 5.70075 -3.02795 0
M  V30 3029 H 275.22 6.53445 -4.92902 0
M  V30 3030 N 277.883 0.443576 1.51229 0
M  V30 3031 C 278.83 -0.364716 2.279 0
M  V30 3032 C 279.8 -1.0114 1.31757 0
M  V30 3033 O 280.985 -1.02912 1.60667 0
M  V30 3034 C 278.125 -1.45644 3.12861 0
M  V30 3035 C 277.238 -0.827269 4.24005 0
M  V30 3036 C 276.373 -1.89456 4.96266 0
M  V30 3037 C 275.412 -1.24416 5.99322 0
M  V30 3038 N 274.549 -2.25309 6.64966 0
M  V30 3039 H 279.389 0.295464 2.96532 0
M  V30 3040 H 276.926 0.157554 1.46254 0
M  V30 3041 H 278.884 -2.10076 3.6045 0
M  V30 3042 H 277.514 -2.08616 2.46331 0
M  V30 3043 H 276.566 -0.0710839 3.80334 0
M  V30 3044 H 277.878 -0.312481 4.9782 0
M  V30 3045 H 277.032 -2.61535 5.47434 0
M  V30 3046 H 275.771 -2.4431 4.22095 0
M  V30 3047 H 274.776 -0.508868 5.4744 0
M  V30 3048 H 276.001 -0.702882 6.75453 0
M  V30 3049 H 273.947 -2.79231 5.93604 0
M  V30 3050 H 273.864 -1.78739 7.34567 0
M  V30 3051 H 275.132 -2.96853 7.20763 0
M  V30 3052 N 279.361 -1.56624 0.175154 0
M  V30 3053 C 280.309 -2.19468 -0.770495 0
M  V30 3054 C 281.303 -1.15985 -1.23466 0
M  V30 3055 O 282.509 -1.34176 -1.19987 0
M  V30 3056 H 278.884 -0.703095 -0.266761 0
M  V30 3057 H 280.855 -2.97613 -0.216542 0
M  V30 3058 C 279.604 -2.85264 -1.98796 0
M  V30 3059 H 278.927 -3.64623 -1.63983 0
M  V30 3060 H 280.367 -3.327 -2.62843 0
M  V30 3061 C 278.826 -1.85239 -2.81404 0
M  V30 3062 O 279.356 -1.34024 -3.78682 0
M  V30 3063 N 277.562 -1.53911 -2.46495 0
M  V30 3064 H 277.109 -1.95751 -1.67449 0
M  V30 3065 H 277.067 -0.872382 -3.02054 0
M  V30 3066 N 280.839 0.0985539 -1.57292 0
M  V30 3067 C 282.087 0.801092 -1.85545 0
M  V30 3068 C 282.408 1.79438 -0.763353 0
M  V30 3069 O 281.678 1.94763 0.21073 0
M  V30 3070 H 280.258 0.29884 -0.684619 0
M  V30 3071 H 282.92 0.0810064 -1.94732 0
M  V30 3072 H 282.016 1.3338 -2.82163 0
M  V30 3073 N 282.317 1.53212 0.369288 0
M  V30 3074 C 283.594 1.59815 1.12776 0
M  V30 3075 C 283.974 0.403402 2.0721 0
M  V30 3076 O 283.322 -0.606667 2.20299 0
M  V30 3077 C 283.532 2.94664 1.87013 0
M  V30 3078 C 284.88 3.49109 2.41677 0
M  V30 3079 O 285.904 2.96669 1.97144 0
M  V30 3080 O 284.763 4.40775 3.23079 0
M  V30 3081 H 281.857 0.645376 0.517125 0
M  V30 3082 H 284.403 1.65553 0.37285 0
M  V30 3083 H 283.175 3.73061 1.18071 0
M  V30 3084 H 282.798 2.92401 2.69421 0
M  V30 3085 N 283.795 -0.628877 1.44509 0
M  V30 3086 C 285.206 -1.21054 1.42137 0
M  V30 3087 C 285.557 -1.95715 0.137881 0
M  V30 3088 O 284.682 -2.02554 -0.761645 0
M  V30 3089 C 285.277 -2.20189 2.57493 0
M  V30 3090 C 283.836 -2.73777 2.58308 0
M  V30 3091 C 282.983 -1.48813 2.33987 0
M  V30 3092 H 285.934 -0.41942 1.53057 0
M  V30 3093 H 285.955 -3.02833 2.30375 0
M  V30 3094 H 285.467 -1.6582 3.50892 0
M  V30 3095 H 283.568 -3.32142 1.68856 0
M  V30 3096 H 283.681 -3.19662 3.56865 0
M  V30 3097 H 282.045 -1.77024 1.83124 0
M  V30 3098 H 282.828 -0.963442 3.29504 0
M  V30 3099 N 285.273 -1.31445 -0.869486 0
M  V30 3100 C 286.183 -1.21097 -2.0093 0
M  V30 3101 C 287.199 -0.127584 -1.73532 0
M  V30 3102 O 288.375 -0.345477 -1.98415 0
M  V30 3103 C 285.44 -0.919378 -3.34288 0
M  V30 3104 C 284.501 -2.08971 -3.75006 0
M  V30 3105 C 283.734 -1.81194 -5.02001 0
M  V30 3106 O 283.957 -0.747296 -5.65484 0
M  V30 3107 O 282.891 -2.66883 -5.39497 0
M  V30 3108 H 286.717 -2.16883 -2.12592 0
M  V30 3109 H 284.302 -1.11189 -0.997868 0
M  V30 3110 H 286.184 -0.772625 -4.14257 0
M  V30 3111 H 284.859 0.00844772 -3.23699 0
M  V30 3112 H 283.766 -2.29187 -2.95676 0
M  V30 3113 H 285.099 -2.9998 -3.90221 0
M  V30 3114 N 286.751 1.08385 -1.14413 0
M  V30 3115 C 287.681 2.17321 -0.854044 0
M  V30 3116 C 288.662 1.69024 0.191049 0
M  V30 3117 O 289.847 1.94141 0.0476779 0
M  V30 3118 C 286.977 3.45719 -0.330983 0
M  V30 3119 C 285.931 4.07409 -1.31155 0
M  V30 3120 C 285.257 5.30762 -0.64778 0
M  V30 3121 C 286.557 4.48665 -2.67388 0
M  V30 3122 H 288.251 2.41845 -1.76498 0
M  V30 3123 H 285.797 1.16233 -0.850051 0
M  V30 3124 H 287.75 4.21241 -0.115645 0
M  V30 3125 H 286.474 3.2075 0.615381 0
M  V30 3126 H 285.133 3.33919 -1.51306 0
M  V30 3127 H 284.781 5.02078 0.304398 0
M  V30 3128 H 284.481 5.72992 -1.30207 0
M  V30 3129 H 286.005 6.08998 -0.441972 0
M  V30 3130 H 287.419 5.15364 -2.51143 0
M  V30 3131 H 285.816 5.01814 -3.29093 0
M  V30 3132 H 286.886 3.60543 -3.24248 0
M  V30 3133 N 288.23 0.939286 1.26551 0
M  V30 3134 C 289.178 0.43815 2.28436 0
M  V30 3135 C 290.172 -0.483587 1.62351 0
M  V30 3136 O 291.378 -0.362009 1.76322 0
M  V30 3137 H 287.753 0.123149 0.741848 0
M  V30 3138 H 289.724 1.31002 2.68106 0
M  V30 3139 C 288.473 -0.283052 3.46546 0
M  V30 3140 H 287.796 0.417043 3.97619 0
M  V30 3141 H 289.236 -0.597948 4.19763 0
M  V30 3142 C 287.695 -1.50018 3.01656 0
M  V30 3143 O 288.225 -2.59855 3.0633 0
M  V30 3144 N 286.431 -1.35608 2.57019 0
M  V30 3145 H 285.978 -0.46244 2.53415 0
M  V30 3146 H 285.936 -2.17165 2.27347 0
M  V30 3147 N 289.708 -1.40897 0.706093 0
M  V30 3148 C 290.954 -2.01352 0.241889 0
M  V30 3149 C 291.287 -1.55832 -1.15888 0
M  V30 3150 O 290.562 -0.774145 -1.7843 0
M  V30 3151 C 290.845 -3.58752 0.311311 0
M  V30 3152 C 290.698 -4.1437 1.74978 0
M  V30 3153 C 292.017 -4.38914 -0.322922 0
M  V30 3154 H 289.136 -0.731562 0.0893687 0
M  V30 3155 H 291.778 -1.67504 0.896802 0
M  V30 3156 H 289.928 -3.87718 -0.246302 0
M  V30 3157 H 291.6 -3.96239 2.36205 0
M  V30 3158 H 289.843 -3.69016 2.28057 0
M  V30 3159 H 290.514 -5.23532 1.74981 0
M  V30 3160 H 292.99 -4.15822 0.152089 0
M  V30 3161 H 291.866 -5.48358 -0.243855 0
M  V30 3162 H 292.127 -4.19176 -1.40513 0
M  V30 3163 N 291.186 -0.45159 -1.50991 0
M  V30 3164 C 292.435 0.111653 -2.01391 0
M  V30 3165 C 292.748 1.42529 -1.33959 0
M  V30 3166 O 293.954 2.07232 -1.75405 0
M  V30 3167 C 292.41 0.249514 -3.59034 0
M  V30 3168 C 292.018 -1.05453 -4.35412 0
M  V30 3169 C 293.762 0.765762 -4.17536 0
M  V30 3170 C 291.669 -0.881529 -5.84793 0
M  V30 3171 H 290.599 0.0455022 -0.752626 0
M  V30 3172 H 293.25 -0.583524 -1.73975 0
M  V30 3173 H 291.632 1.00803 -3.82955 0
M  V30 3174 H 292.806 -1.82248 -4.23229 0
M  V30 3175 H 291.121 -1.50039 -3.88429 0
M  V30 3176 H 293.718 0.911913 -5.26866 0
M  V30 3177 H 294.061 1.75201 -3.77638 0
M  V30 3178 H 294.594 0.0651744 -3.97747 0
M  V30 3179 H 291.333 -1.84057 -6.29129 0
M  V30 3180 H 290.853 -0.153625 -5.99603 0
M  V30 3181 H 292.532 -0.540363 -6.4474 0
M  V30 3182 N 292.664 1.56529 -0.183458 0
M  V30 3183 C 293.596 2.15747 0.773697 0
M  V30 3184 C 294.609 1.1162 1.1851 0
M  V30 3185 O 295.798 1.3876 1.12285 0
M  V30 3186 C 292.898 2.6952 2.05456 0
M  V30 3187 C 292.071 3.98429 1.8048 0
M  V30 3188 C 291.13 4.37145 2.92901 0
M  V30 3189 O 290.156 5.04791 2.6301 0
M  V30 3190 N 291.358 3.99695 4.2098 0
M  V30 3191 H 294.123 2.98505 0.26736 0
M  V30 3192 H 291.684 1.619 -0.0010878 0
M  V30 3193 H 293.676 2.92412 2.79781 0
M  V30 3194 H 292.246 1.91282 2.47245 0
M  V30 3195 H 291.466 3.8379 0.899947 0
M  V30 3196 H 292.754 4.82597 1.61175 0
M  V30 3197 H 292.152 3.4526 4.48121 0
M  V30 3198 H 290.709 4.27562 4.9197 0
M  V30 3199 N 294.142 -0.090211 1.57342 0
M  V30 3200 C 295.09 -1.12792 2.03422 0
M  V30 3201 C 296.084 -1.41182 0.936166 0
M  V30 3202 O 297.29 -1.40805 1.12133 0
M  V30 3203 H 293.665 -0.380986 0.648347 0
M  V30 3204 H 295.636 -0.71299 2.89757 0
M  V30 3205 C 294.385 -2.43855 2.47851 0
M  V30 3206 H 293.708 -2.22855 3.31927 0
M  V30 3207 H 295.148 -3.14955 2.83865 0
M  V30 3208 C 293.607 -3.08503 1.3538 0
M  V30 3209 O 294.137 -3.95805 0.685641 0
M  V30 3210 N 292.343 -2.68831 1.10355 0
M  V30 3211 H 291.89 -1.97929 1.64869 0
M  V30 3212 H 291.848 -3.12412 0.353031 0
M  V30 3213 N 295.62 -1.53406 -0.361157 0
M  V30 3214 C 296.85 -1.73465 -1.1222 0
M  V30 3215 C 297.258 -0.465486 -1.83384 0
M  V30 3216 O 296.601 0.571611 -1.7458 0
M  V30 3217 C 296.663 -2.84834 -2.19339 0
M  V30 3218 C 296.327 -4.25038 -1.67903 0
M  V30 3219 C 297.324 -5.07231 -1.14074 0
M  V30 3220 C 295.009 -4.71464 -1.73282 0
M  V30 3221 C 297.003 -6.33942 -0.663068 0
M  V30 3222 C 294.69 -5.98153 -1.25127 0
M  V30 3223 C 295.688 -6.79223 -0.717296 0
M  V30 3224 O 295.376 -8.03533 -0.242865 0
M  V30 3225 H 295.108 -0.583526 -0.341283 0
M  V30 3226 H 297.662 -2.00964 -0.424591 0
M  V30 3227 H 295.892 -2.5282 -2.92607 0
M  V30 3228 H 297.581 -2.9303 -2.80871 0
M  V30 3229 H 298.347 -4.72534 -1.09254 0
M  V30 3230 H 294.226 -4.08432 -2.13786 0
M  V30 3231 H 297.77 -6.97167 -0.245612 0
M  V30 3232 H 293.667 -6.32347 -1.29642 0
M  V30 3233 H 294.435 -8.177 -0.361786 0
M  V30 3234 N 297.098 0.621204 -1.44841 0
M  V30 3235 C 298.046 1.75385 -1.52784 0
M  V30 3236 C 299.04 1.64639 -0.398779 0
M  V30 3237 O 300.246 1.70598 -0.574137 0
M  V30 3238 H 296.621 0.579193 -0.479625 0
M  V30 3239 H 298.592 1.6581 -2.48092 0
M  V30 3240 C 297.341 3.13742 -1.4987 0
M  V30 3241 H 296.664 3.22663 -2.36069 0
M  V30 3242 H 298.104 3.92861 -1.59487 0
M  V30 3243 C 296.563 3.36175 -0.220973 0
M  V30 3244 O 297.093 3.95469 0.704782 0
M  V30 3245 N 295.299 2.90348 -0.120963 0
M  V30 3246 H 294.846 2.42278 -0.875162 0
M  V30 3247 H 294.804 3.05732 0.733168 0
M  V30 3248 N 298.576 1.31904 0.862503 0
M  V30 3249 C 299.486 1.22161 2.00285 0
M  V30 3250 C 300.502 0.136785 1.73462 0
M  V30 3251 O 301.678 0.355994 1.98229 0
M  V30 3252 C 298.743 0.937093 3.33796 0
M  V30 3253 C 297.804 2.10957 3.73893 0
M  V30 3254 C 297.037 1.83853 5.01033 0
M  V30 3255 O 297.26 0.777274 5.65079 0
M  V30 3256 O 296.194 2.69741 5.38074 0
M  V30 3257 H 300.02 2.18008 2.11439 0
M  V30 3258 H 297.605 1.11716 0.991957 0
M  V30 3259 H 299.487 0.794583 4.13841 0
M  V30 3260 H 298.162 0.00871894 3.23699 0
M  V30 3261 H 297.069 2.30752 2.94456 0
M  V30 3262 H 298.402 3.02046 3.88625 0
M  V30 3263 N 300.054 -1.07777 1.14986 0
M  V30 3264 C 301.302 -1.79934 0.920235 0
M  V30 3265 C 301.623 -1.86955 -0.554336 0
M  V30 3266 O 300.893 -1.36731 -1.40291 0
M  V30 3267 H 299.473 -0.666424 0.337473 0
M  V30 3268 H 302.135 -1.3027 1.44968 0
M  V30 3269 H 301.231 -2.82539 1.32583 0
M  V30 3270 N 301.532 -0.945985 -1.26051 0
M  V30 3271 C 302.781 -0.591836 -1.92822 0
M  V30 3272 C 303.094 0.873956 -1.7499 0
M  V30 3273 O 304.3 1.33769 -2.36259 0
M  V30 3274 C 302.756 -1.00776 -3.45503 0
M  V30 3275 C 302.364 -2.4955 -3.7206 0
M  V30 3276 C 304.108 -0.725735 -4.1825 0
M  V30 3277 C 302.015 -2.84988 -5.18205 0
M  V30 3278 H 300.945 -0.217635 -0.721908 0
M  V30 3279 H 303.596 -1.14927 -1.43052 0
M  V30 3280 H 301.978 -0.378812 -3.94184 0
M  V30 3281 H 303.152 -3.1739 -3.34066 0
M  V30 3282 H 301.467 -2.75133 -3.12555 0
M  V30 3283 H 304.064 -0.966771 -5.25887 0
M  V30 3284 H 304.407 0.337639 -4.14929 0
M  V30 3285 H 304.94 -1.31463 -3.7545 0
M  V30 3286 H 301.679 -3.90307 -5.26631 0
M  V30 3287 H 301.199 -2.21813 -5.57278 0
M  V30 3288 H 302.878 -2.73712 -5.86252 0
M  V30 3289 N 303.011 1.40521 -0.713556 0
M  V30 3290 C 304.26 2.00155 -0.249192 0
M  V30 3291 C 304.573 1.57224 1.16362 0
M  V30 3292 O 305.779 2.09542 1.72639 0
M  V30 3293 C 304.235 3.5773 -0.3946 0
M  V30 3294 C 303.843 4.09635 -1.81392 0
M  V30 3295 C 305.587 4.24499 0.00907364 0
M  V30 3296 C 303.494 5.59707 -1.91003 0
M  V30 3297 H 302.424 0.74868 -0.0894114 0
M  V30 3298 H 305.075 1.60784 -0.884352 0
M  V30 3299 H 303.457 3.94792 0.30911 0
M  V30 3300 H 304.631 3.83955 -2.54785 0
M  V30 3301 H 302.946 3.55456 -2.16888 0
M  V30 3302 H 305.543 5.34683 -0.0420404 0
M  V30 3303 H 305.886 4.02824 1.05065 0
M  V30 3304 H 306.419 3.92536 -0.645007 0
M  V30 3305 H 303.158 5.86234 -2.93275 0
M  V30 3306 H 302.678 5.87258 -1.22019 0
M  V30 3307 H 304.357 6.24776 -1.6812 0
M  V30 3308 N 304.489 0.459591 1.5075 0
M  V30 3309 C 305.766 -0.160371 1.94941 0
M  V30 3310 C 306.146 -1.58048 1.39943 0
M  V30 3311 O 305.494 -2.206 0.595629 0
M  V30 3312 C 305.704 -0.115432 3.48809 0
M  V30 3313 C 307.052 -0.310026 4.23467 0
M  V30 3314 O 308.076 -0.192543 3.55679 0
M  V30 3315 O 306.935 -0.546031 5.43765 0
M  V30 3316 H 304.029 -0.117925 0.818549 0
M  V30 3317 H 306.575 0.519169 1.61563 0
M  V30 3318 H 305.347 0.87652 3.81357 0
M  V30 3319 H 304.97 -0.836928 3.88692 0
M  V30 3320 N 305.967 -1.56429 0.191757 0
M  V30 3321 C 306.915 -2.20273 -0.747174 0
M  V30 3322 C 307.909 -1.17288 -1.22229 0
M  V30 3323 O 309.115 -1.35441 -1.18557 0
M  V30 3324 H 305.49 -0.705885 -0.259289 0
M  V30 3325 H 307.461 -2.97826 -0.184963 0
M  V30 3326 C 306.21 -2.87356 -1.95759 0
M  V30 3327 H 305.533 -3.66341 -1.60106 0
M  V30 3328 H 306.973 -3.3547 -2.59299 0
M  V30 3329 C 305.432 -1.88213 -2.79423 0
M  V30 3330 O 305.962 -1.38033 -3.7724 0
M  V30 3331 N 304.168 -1.56516 -2.44849 0
M  V30 3332 H 303.715 -1.97516 -1.65364 0
M  V30 3333 H 303.673 -0.904369 -3.01112 0
M  V30 3334 N 307.445 0.0818655 -1.57387 0
M  V30 3335 C 308.375 1.09885 -2.06028 0
M  V30 3336 C 309.356 1.4098 -0.951774 0
M  V30 3337 O 310.541 1.50781 -1.22387 0
M  V30 3338 C 307.671 2.4151 -2.4958 0
M  V30 3339 C 306.625 2.24792 -3.64215 0
M  V30 3340 C 305.951 3.61712 -3.93787 0
M  V30 3341 C 307.251 1.67749 -4.94629 0
M  V30 3342 H 308.945 0.694128 -2.91243 0
M  V30 3343 H 306.491 0.332448 -1.4011 0
M  V30 3344 H 308.444 3.12939 -2.82219 0
M  V30 3345 H 307.168 2.83943 -1.61381 0
M  V30 3346 H 305.827 1.55807 -3.31843 0
M  V30 3347 H 305.475 4.01697 -3.02735 0
M  V30 3348 H 305.175 3.51368 -4.70971 0
M  V30 3349 H 306.699 4.34587 -4.28913 0
M  V30 3350 H 308.113 2.29032 -5.25564 0
M  V30 3351 H 306.51 1.68128 -5.76067 0
M  V30 3352 H 307.58 0.638059 -4.80684 0
M  V30 3353 N 308.923 1.53595 0.353017 0
M  V30 3354 C 310.148 1.7462 1.11904 0
M  V30 3355 C 310.573 0.479721 1.8188 0
M  V30 3356 O 309.931 -0.567066 1.72204 0
M  V30 3357 C 309.979 2.92029 2.11545 0
M  V30 3358 O 309.083 2.61516 3.18878 0
M  V30 3359 H 308.424 0.579531 0.324099 0
M  V30 3360 H 310.954 2.00525 0.406301 0
M  V30 3361 H 310.964 3.18551 2.5493 0
M  V30 3362 H 309.639 3.83888 1.60008 0
M  V30 3363 H 308.216 2.45852 2.80377 0
M  V30 3364 N 310.401 -0.613514 1.45168 0
M  V30 3365 C 311.348 -1.72456 1.53387 0
M  V30 3366 C 312.318 -1.6169 0.380191 0
M  V30 3367 O 313.503 -1.81356 0.592836 0
M  V30 3368 C 310.643 -3.10753 1.50088 0
M  V30 3369 C 309.756 -3.32368 2.75963 0
M  V30 3370 C 308.891 -4.60737 2.64376 0
M  V30 3371 C 307.93 -4.7559 3.85332 0
M  V30 3372 N 307.067 -5.95253 3.72315 0
M  V30 3373 H 311.907 -1.64768 2.48305 0
M  V30 3374 H 309.444 -0.803503 1.23216 0
M  V30 3375 H 311.402 -3.90758 1.46164 0
M  V30 3376 H 310.032 -3.17413 0.587243 0
M  V30 3377 H 309.084 -2.4618 2.89999 0
M  V30 3378 H 310.396 -3.39218 3.65695 0
M  V30 3379 H 309.55 -5.48928 2.58385 0
M  V30 3380 H 308.289 -4.56275 1.72233 0
M  V30 3381 H 307.294 -3.85824 3.91688 0
M  V30 3382 H 308.519 -4.81854 4.78533 0
M  V30 3383 H 306.465 -5.91847 2.82937 0
M  V30 3384 H 306.382 -6.03236 4.55677 0
M  V30 3385 H 307.65 -6.85958 3.70246 0
M  V30 3386 N 311.879 -1.3236 -0.855495 0
M  V30 3387 C 313.156 -1.13491 -1.59309 0
M  V30 3388 C 313.536 0.30503 -2.08885 0
M  V30 3389 O 312.884 1.30151 -1.87811 0
M  V30 3390 C 313.094 -2.16176 -2.73987 0
M  V30 3391 C 314.442 -2.49463 -3.43589 0
M  V30 3392 O 315.466 -2.14715 -2.84211 0
M  V30 3393 O 314.325 -3.09027 -4.50738 0
M  V30 3394 H 311.419 -0.437887 -0.701559 0
M  V30 3395 H 313.965 -1.43887 -0.899696 0
M  V30 3396 H 312.737 -3.1297 -2.34873 0
M  V30 3397 H 312.36 -1.86769 -3.51003 0
M  V30 3398 N 313.357 1.07166 -1.15556 0
M  V30 3399 C 314.582 1.84053 -0.955988 0
M  V30 3400 C 315.007 1.81586 0.490739 0
M  V30 3401 O 314.365 1.21018 1.34997 0
M  V30 3402 C 314.413 3.28957 -1.47714 0
M  V30 3403 O 313.517 4.06795 -0.677593 0
M  V30 3404 H 312.858 0.569842 -0.340847 0
M  V30 3405 H 315.388 1.35178 -1.53584 0
M  V30 3406 H 315.398 3.79788 -1.4908 0
M  V30 3407 H 314.073 3.30068 -2.53037 0
M  V30 3408 H 312.65 3.6561 -0.733721 0
M  V30 3409 N 314.835 0.952656 1.25548 0
M  V30 3410 C 315.765 0.489287 2.28316 0
M  V30 3411 C 316.746 -0.463359 1.63667 0
M  V30 3412 O 317.931 -0.36274 1.90782 0
M  V30 3413 C 315.061 -0.235603 3.465 0
M  V30 3414 C 314.015 0.631593 4.23314 0
M  V30 3415 C 313.341 -0.223923 5.34231 0
M  V30 3416 C 314.641 1.90871 4.86174 0
M  V30 3417 H 316.335 1.34822 2.67326 0
M  V30 3418 H 313.881 0.649728 1.28509 0
M  V30 3419 H 315.834 -0.570882 4.17515 0
M  V30 3420 H 314.558 -1.12877 3.06474 0
M  V30 3421 H 313.217 0.949929 3.54079 0
M  V30 3422 H 312.865 -1.11678 4.90446 0
M  V30 3423 H 312.565 0.35299 5.86539 0
M  V30 3424 H 314.089 -0.554214 6.0808 0
M  V30 3425 H 315.503 1.63997 5.49343 0
M  V30 3426 H 313.9 2.43112 5.4865 0
M  V30 3427 H 314.97 2.61304 4.08471 0
M  V30 3428 N 316.313 -1.40141 0.720998 0
M  V30 3429 C 317.559 -2.01084 0.263231 0
M  V30 3430 C 317.892 -1.57052 -1.14229 0
M  V30 3431 O 317.167 -0.793027 -1.77599 0
M  V30 3432 C 317.45 -3.58401 0.349344 0
M  V30 3433 C 317.303 -4.12491 1.79363 0
M  V30 3434 C 318.622 -4.39231 -0.276351 0
M  V30 3435 H 315.741 -0.730572 0.0971228 0
M  V30 3436 H 318.383 -1.66543 0.914518 0
M  V30 3437 H 316.533 -3.87958 -0.205165 0
M  V30 3438 H 318.205 -3.93711 2.40394 0
M  V30 3439 H 316.448 -3.66576 2.31958 0
M  V30 3440 H 317.119 -5.21646 1.80524 0
M  V30 3441 H 319.595 -4.15637 0.196184 0
M  V30 3442 H 318.471 -5.48586 -0.185681 0
M  V30 3443 H 318.732 -4.20643 -1.36059 0
M  V30 3444 N 317.792 -0.46758 -1.50504 0
M  V30 3445 C 319.069 0.15003 -1.95024 0
M  V30 3446 C 319.449 1.57304 -1.40779 0
M  V30 3447 O 318.797 2.20281 -0.607319 0
M  V30 3448 C 319.007 0.0969324 -3.48865 0
M  V30 3449 C 320.355 0.287565 -4.23625 0
M  V30 3450 O 321.379 0.173678 -3.55776 0
M  V30 3451 O 320.238 0.517186 -5.44047 0
M  V30 3452 H 317.332 0.113582 -0.819163 0
M  V30 3453 H 319.878 -0.52773 -1.61286 0
M  V30 3454 H 318.65 -0.896732 -3.80886 0
M  V30 3455 H 318.273 0.816303 -3.8913 0
M  V30 3456 N 319.27 1.56325 -0.20005 0
M  V30 3457 C 320.2 2.22318 0.713916 0
M  V30 3458 C 321.181 1.18788 1.21752 0
M  V30 3459 O 322.366 1.47309 1.26545 0
M  V30 3460 C 319.496 2.88639 1.93144 0
M  V30 3461 C 318.45 3.98457 1.56255 0
M  V30 3462 C 317.776 4.51967 2.85709 0
M  V30 3463 C 319.076 5.16612 0.768747 0
M  V30 3464 H 320.77 2.98952 0.163755 0
M  V30 3465 H 318.316 1.43792 0.0773219 0
M  V30 3466 H 320.269 3.33491 2.57608 0
M  V30 3467 H 318.993 2.09419 2.50621 0
M  V30 3468 H 317.652 3.54305 0.941471 0
M  V30 3469 H 317.3 3.69503 3.41287 0
M  V30 3470 H 317 5.26071 2.6177 0
M  V30 3471 H 318.524 4.99523 3.51154 0
M  V30 3472 H 319.938 5.57977 1.3166 0
M  V30 3473 H 318.335 5.96812 0.627286 0
M  V30 3474 H 319.405 4.84358 -0.229168 0
M  V30 3475 N 320.748 -0.0735177 1.57428 0
M  V30 3476 C 321.994 -0.774145 1.87443 0
M  V30 3477 C 322.327 -1.77311 0.792103 0
M  V30 3478 O 321.602 -1.93492 -0.197793 0
M  V30 3479 C 321.885 -1.48367 3.28115 0
M  V30 3480 C 321.738 -0.501227 4.46999 0
M  V30 3481 C 323.057 -2.429 3.66998 0
M  V30 3482 H 320.176 -0.279971 0.681752 0
M  V30 3483 H 322.818 -0.0373616 1.89963 0
M  V30 3484 H 320.968 -2.11171 3.26097 0
M  V30 3485 H 322.64 0.121468 4.6114 0
M  V30 3486 H 320.883 0.183593 4.33411 0
M  V30 3487 H 321.554 -1.03526 5.42205 0
M  V30 3488 H 324.03 -1.90175 3.70098 0
M  V30 3489 H 322.906 -2.89549 4.66318 0
M  V30 3490 H 323.167 -3.27628 2.96837 0
M  V30 3491 N 322.226 -1.5378 -0.344866 0
M  V30 3492 C 323.637 -1.62428 -0.920552 0
M  V30 3493 C 323.988 -0.504747 -1.89596 0
M  V30 3494 O 323.113 0.365711 -2.13287 0
M  V30 3495 C 323.708 -2.94419 -1.67639 0
M  V30 3496 C 322.267 -3.05333 -2.20111 0
M  V30 3497 C 321.414 -2.57866 -1.01982 0
M  V30 3498 H 324.365 -1.58222 -0.123042 0
M  V30 3499 H 324.386 -2.83384 -2.53917 0
M  V30 3500 H 323.898 -3.7588 -0.966224 0
M  V30 3501 H 321.999 -2.28502 -2.94308 0
M  V30 3502 H 322.112 -4.10778 -2.46573 0
M  V30 3503 H 320.476 -2.13241 -1.39285 0
M  V30 3504 H 321.259 -3.41765 -0.324308 0
M  V30 3505 N 323.704 0.605807 -1.45491 0
M  V30 3506 C 324.95 1.36481 -1.50813 0
M  V30 3507 C 325.305 1.91826 -0.148469 0
M  V30 3508 O 324.598 1.72211 0.839869 0
M  V30 3509 C 324.792 2.53012 -2.52428 0
M  V30 3510 C 324.621 2.09078 -3.98141 0
M  V30 3511 C 323.391 1.95167 -4.66088 0
M  V30 3512 C 325.589 1.66438 -4.86624 0
M  V30 3513 N 323.571 1.45062 -5.96515 0
M  V30 3514 C 324.942 1.27761 -6.06694 0
M  V30 3515 C 326.997 1.54046 -4.7347 0
M  V30 3516 C 325.7 0.779286 -7.15066 0
M  V30 3517 C 327.726 1.05618 -5.81892 0
M  V30 3518 C 327.088 0.67906 -7.01119 0
M  V30 3519 H 323.187 0.493267 -0.606805 0
M  V30 3520 H 325.771 0.692347 -1.81974 0
M  V30 3521 H 323.942 3.17851 -2.23215 0
M  V30 3522 H 325.674 3.19897 -2.47887 0
M  V30 3523 H 322.429 2.16407 -4.21266 0
M  V30 3524 H 322.853 1.22237 -6.65873 0
M  V30 3525 H 327.495 1.81827 -3.81705 0
M  V30 3526 H 325.213 0.489026 -8.06619 0
M  V30 3527 H 328.799 0.964529 -5.73749 0
M  V30 3528 H 327.679 0.310091 -7.83587 0
M  V30 3529 N 325.182 1.32811 0.848464 0
M  V30 3530 C 326.112 1.24882 1.97299 0
M  V30 3531 C 327.093 0.131357 1.69592 0
M  V30 3532 O 328.278 0.319553 1.91553 0
M  V30 3533 C 325.408 0.97746 3.33261 0
M  V30 3534 C 324.362 2.05682 3.75338 0
M  V30 3535 C 323.688 1.63777 5.09 0
M  V30 3536 C 324.988 3.47254 3.90144 0
M  V30 3537 H 326.682 2.18966 2.04191 0
M  V30 3538 H 324.228 1.05413 0.981029 0
M  V30 3539 H 326.181 0.908513 4.1149 0
M  V30 3540 H 324.905 0.000980011 3.266 0
M  V30 3541 H 323.564 2.11603 2.99366 0
M  V30 3542 H 323.212 0.648569 4.98801 0
M  V30 3543 H 322.912 2.36 5.38124 0
M  V30 3544 H 324.436 1.5833 5.89715 0
M  V30 3545 H 325.85 3.43888 4.58709 0
M  V30 3546 H 324.247 4.1788 4.30693 0
M  V30 3547 H 325.317 3.86462 2.92874 0
M  V30 3548 N 326.66 -1.06551 1.16123 0
M  V30 3549 C 327.607 -2.13961 0.865414 0
M  V30 3550 C 328.577 -1.65066 -0.185055 0
M  V30 3551 O 329.762 -1.90732 -0.05083 0
M  V30 3552 C 326.902 -3.43113 0.369776 0
M  V30 3553 C 326.015 -4.05756 1.48276 0
M  V30 3554 C 325.15 -5.22773 0.942414 0
M  V30 3555 C 324.189 -5.77395 2.03179 0
M  V30 3556 N 323.326 -6.85731 1.50721 0
M  V30 3557 H 328.166 -2.38605 1.78527 0
M  V30 3558 H 325.703 -1.17072 0.890646 0
M  V30 3559 H 327.661 -4.17151 0.0640643 0
M  V30 3560 H 326.291 -3.18695 -0.513143 0
M  V30 3561 H 325.343 -3.29292 1.9045 0
M  V30 3562 H 326.655 -4.42351 2.30493 0
M  V30 3563 H 325.809 -6.03827 0.589729 0
M  V30 3564 H 324.548 -4.87618 0.0895191 0
M  V30 3565 H 323.553 -4.94981 2.3932 0
M  V30 3566 H 324.778 -6.14603 2.8886 0
M  V30 3567 H 322.724 -6.52499 0.676811 0
M  V30 3568 H 322.641 -7.21254 2.26557 0
M  V30 3569 H 323.909 -7.7047 1.18303 0
M  V30 3570 N 328.138 -0.959301 -1.25041 0
M  V30 3571 C 329.387 -0.612254 -1.92183 0
M  V30 3572 C 329.7 0.855347 -1.75907 0
M  V30 3573 O 330.906 1.31256 -2.37664 0
M  V30 3574 C 329.362 -1.04435 -3.44414 0
M  V30 3575 C 328.97 -2.53482 -3.69393 0
M  V30 3576 C 330.714 -0.770055 -4.17457 0
M  V30 3577 C 328.621 -2.90468 -5.15153 0
M  V30 3578 H 327.551 -0.225279 -0.719559 0
M  V30 3579 H 330.202 -1.16438 -1.41825 0
M  V30 3580 H 328.584 -0.4206 -3.9376 0
M  V30 3581 H 329.758 -3.20916 -3.30681 0
M  V30 3582 H 328.073 -2.78432 -3.0962 0
M  V30 3583 H 330.67 -1.02249 -5.24832 0
M  V30 3584 H 331.013 0.293611 -4.15263 0
M  V30 3585 H 331.546 -1.35437 -3.74034 0
M  V30 3586 H 328.285 -3.95871 -5.22462 0
M  V30 3587 H 327.805 -2.27711 -5.54894 0
M  V30 3588 H 329.484 -2.79914 -5.83315 0
M  V30 3589 N 329.616 1.39756 -0.72842 0
M  V30 3590 C 330.863 2.00645 -0.273487 0
M  V30 3591 C 331.191 1.57786 1.13727 0
M  V30 3592 O 330.446 0.794886 1.7883 0
M  V30 3593 C 330.745 3.56002 -0.315776 0
M  V30 3594 C 330.411 4.18489 -1.67863 0
M  V30 3595 C 329.073 4.3527 -2.05166 0
M  V30 3596 C 331.425 4.53219 -2.57375 0
M  V30 3597 C 328.753 4.84069 -3.31503 0
M  V30 3598 C 331.105 5.03423 -3.83077 0
M  V30 3599 C 329.769 5.18413 -4.20481 0
M  V30 3600 H 329.039 0.734211 -0.100076 0
M  V30 3601 H 331.686 1.6718 -0.933972 0
M  V30 3602 H 329.991 3.89452 0.428285 0
M  V30 3603 H 331.688 4.00963 0.0542575 0
M  V30 3604 H 328.278 4.05824 -1.37858 0
M  V30 3605 H 332.462 4.39878 -2.29827 0
M  V30 3606 H 327.718 4.93859 -3.60435 0
M  V30 3607 H 331.892 5.2927 -4.52599 0
M  V30 3608 H 329.519 5.55987 -5.18443 0
M  V30 3609 N 331.094 0.475555 1.50254 0
M  V30 3610 C 332.505 0.0215174 1.86688 0
M  V30 3611 C 332.856 -1.38467 1.39001 0
M  V30 3612 O 331.981 -2.02732 0.756894 0
M  V30 3613 C 332.576 0.0322715 3.38785 0
M  V30 3614 C 331.135 -0.366314 3.74613 0
M  V30 3615 C 330.282 0.415832 2.74164 0
M  V30 3616 H 333.233 0.689612 1.42934 0
M  V30 3617 H 333.254 -0.76889 3.7265 0
M  V30 3618 H 332.766 1.05584 3.73462 0
M  V30 3619 H 330.867 -1.39406 3.45538 0
M  V30 3620 H 330.98 -0.064555 4.79057 0
M  V30 3621 H 329.344 -0.131048 2.54363 0
M  V30 3622 H 330.127 1.43899 3.11686 0
M  V30 3623 N 332.573 -1.56217 0.208337 0
M  V30 3624 C 333.521 -2.21053 -0.723769 0
M  V30 3625 C 334.515 -1.18578 -1.20978 0
M  V30 3626 O 335.721 -1.36691 -1.17114 0
M  V30 3627 H 332.096 -0.708595 -0.251788 0
M  V30 3628 H 334.067 -2.98006 -0.153365 0
M  V30 3629 C 332.816 -2.89417 -1.927 0
M  V30 3630 H 332.139 -3.68019 -1.56212 0
M  V30 3631 H 333.579 -3.38201 -2.55727 0
M  V30 3632 C 332.038 -1.91166 -2.77411 0
M  V30 3633 O 332.568 -1.42026 -3.75754 0
M  V30 3634 N 330.774 -1.59105 -2.43175 0
M  V30 3635 H 330.321 -1.99259 -1.63259 0
M  V30 3636 H 330.279 -0.936255 -3.00136 0
M  V30 3637 N 334.051 0.0651679 -1.57465 0
M  V30 3638 C 334.998 1.07675 -2.04144 0
M  V30 3639 C 335.968 1.38071 -0.923335 0
M  V30 3640 O 337.153 1.49026 -1.19146 0
M  V30 3641 C 334.293 2.38337 -2.49579 0
M  V30 3642 C 333.406 2.14413 -3.75035 0
M  V30 3643 C 332.541 3.38686 -4.09225 0
M  V30 3644 C 331.58 3.10156 -5.27702 0
M  V30 3645 N 330.717 4.26778 -5.57499 0
M  V30 3646 H 335.557 0.671716 -2.90331 0
M  V30 3647 H 333.094 0.3201 -1.43575 0
M  V30 3648 H 335.052 3.14632 -2.73975 0
M  V30 3649 H 333.682 2.7663 -1.6636 0
M  V30 3650 H 332.734 1.2878 -3.57939 0
M  V30 3651 H 334.046 1.89344 -4.61466 0
M  V30 3652 H 333.2 4.23373 -4.34558 0
M  V30 3653 H 331.939 3.66837 -3.21374 0
M  V30 3654 H 330.944 2.23866 -5.02159 0
M  V30 3655 H 332.169 2.8332 -6.17176 0
M  V30 3656 H 330.115 4.54948 -4.72608 0
M  V30 3657 H 330.032 4.05005 -6.38362 0
M  V30 3658 H 331.3 5.12443 -5.87386 0
M  V30 3659 N 335.529 1.53961 0.336706 0
M  V30 3660 C 336.757 1.75483 1.09605 0
M  V30 3661 C 337.172 0.4972 1.82136 0
M  V30 3662 O 336.529 -0.53149 1.74589 0
M  V30 3663 C 336.58 2.93943 2.10428 0
M  V30 3664 O 336.301 4.14842 1.40846 0
M  V30 3665 C 337.802 3.27571 2.98684 0
M  V30 3666 H 335.022 0.586166 0.326574 0
M  V30 3667 H 337.566 2.00808 0.38683 0
M  V30 3668 H 335.721 2.70929 2.76905 0
M  V30 3669 H 336.135 4.81383 2.08255 0
M  V30 3670 H 337.609 4.13791 3.6535 0
M  V30 3671 H 338.086 2.44168 3.65074 0
M  V30 3672 H 338.692 3.52615 2.37787 0
M  V30 3673 N 337.007 -0.598083 1.45811 0
M  V30 3674 C 337.937 -1.71873 1.58057 0
M  V30 3675 C 338.918 -1.64533 0.431615 0
M  V30 3676 O 340.103 -1.82787 0.65595 0
M  V30 3677 C 337.233 -3.10495 1.55597 0
M  V30 3678 C 336.187 -3.32654 2.69305 0
M  V30 3679 C 335.513 -4.71646 2.51902 0
M  V30 3680 C 336.813 -3.21981 4.11248 0
M  V30 3681 H 338.507 -1.61881 2.51863 0
M  V30 3682 H 336.053 -0.777372 1.21214 0
M  V30 3683 H 338.006 -3.88699 1.6276 0
M  V30 3684 H 336.73 -3.2135 0.583255 0
M  V30 3685 H 335.389 -2.56843 2.61586 0
M  V30 3686 H 335.037 -4.79246 1.52748 0
M  V30 3687 H 334.737 -4.87426 3.2816 0
M  V30 3688 H 336.261 -5.52038 2.60933 0
M  V30 3689 H 337.675 -3.90049 4.20161 0
M  V30 3690 H 336.072 -3.49289 4.87972 0
M  V30 3691 H 337.142 -2.1928 4.32486 0
M  V30 3692 N 338.485 -1.33259 -0.841409 0
M  V30 3693 C 339.395 -1.25332 -1.98316 0
M  V30 3694 C 340.411 -0.164364 -1.73222 0
M  V30 3695 O 341.587 -0.387486 -1.97637 0
M  V30 3696 C 338.652 -0.990078 -3.32262 0
M  V30 3697 C 337.713 -2.16879 -3.70489 0
M  V30 3698 C 336.946 -1.91801 -4.98044 0
M  V30 3699 O 337.169 -0.867075 -5.63771 0
M  V30 3700 O 336.103 -2.78267 -5.33714 0
M  V30 3701 H 339.929 -2.21344 -2.07944 0
M  V30 3702 H 337.514 -1.1328 -0.974058 0
M  V30 3703 H 339.396 -0.860321 -4.12524 0
M  V30 3704 H 338.071 -0.0602155 -3.23644 0
M  V30 3705 H 336.978 -2.35407 -2.90748 0
M  V30 3706 H 338.311 -3.0819 -3.8377 0
M  V30 3707 N 339.963 1.05934 -1.16686 0
M  V30 3708 C 340.91 2.13499 -0.876748 0
M  V30 3709 C 341.88 1.65162 0.176299 0
M  V30 3710 O 343.065 1.90757 0.0407143 0
M  V30 3711 C 340.205 3.42912 -0.387967 0
M  V30 3712 C 339.318 4.04964 -1.50426 0
M  V30 3713 C 338.453 5.22266 -0.970125 0
M  V30 3714 C 337.492 5.76309 -2.06238 0
M  V30 3715 N 336.629 6.84922 -1.54356 0
M  V30 3716 H 341.469 2.37654 -1.7979 0
M  V30 3717 H 339.006 1.16598 -0.896843 0
M  V30 3718 H 340.964 4.17111 -0.086186 0
M  V30 3719 H 339.594 3.18963 0.496235 0
M  V30 3720 H 338.646 3.28277 -1.92193 0
M  V30 3721 H 339.958 4.41122 -2.32836 0
M  V30 3722 H 339.112 6.03506 -0.621743 0
M  V30 3723 H 337.851 4.87564 -0.115377 0
M  V30 3724 H 336.856 4.93704 -2.41942 0
M  V30 3725 H 338.081 6.13062 -2.92115 0
M  V30 3726 H 336.027 6.52131 -0.711406 0
M  V30 3727 H 335.944 7.20043 -2.30379 0
M  V30 3728 H 337.212 7.69832 -1.22387 0
M  V30 3729 N 341.441 0.965919 1.2453 0
M  V30 3730 C 342.371 0.513476 2.27784 0
M  V30 3731 C 343.352 -0.445974 1.6415 0
M  V30 3732 O 344.537 -0.342485 1.91156 0
M  V30 3733 C 341.667 -0.198839 3.4673 0
M  V30 3734 C 340.621 0.676456 4.2262 0
M  V30 3735 C 339.947 -0.167248 5.34438 0
M  V30 3736 C 341.247 1.96017 4.84123 0
M  V30 3737 H 342.941 1.3765 2.65881 0
M  V30 3738 H 340.487 0.663321 1.27813 0
M  V30 3739 H 342.44 -0.526567 4.18097 0
M  V30 3740 H 341.164 -1.0962 3.07654 0
M  V30 3741 H 339.823 0.98743 3.53052 0
M  V30 3742 H 339.471 -1.0647 4.91603 0
M  V30 3743 H 339.171 0.415181 5.86131 0
M  V30 3744 H 340.695 -0.489688 6.08633 0
M  V30 3745 H 342.109 1.69814 5.47573 0
M  V30 3746 H 340.506 2.48918 5.4604 0
M  V30 3747 H 341.576 2.65622 4.05676 0
M  V30 3748 N 342.919 -1.39368 0.735821 0
M  V30 3749 C 343.866 -2.30599 0.0963825 0
M  V30 3750 C 344.836 -1.49257 -0.728794 0
M  V30 3751 O 346.021 -1.77941 -0.688588 0
M  V30 3752 C 343.161 -3.35596 -0.804305 0
M  V30 3753 C 342.274 -4.31987 0.0335761 0
M  V30 3754 C 341.409 -5.24053 -0.868461 0
M  V30 3755 C 340.448 -6.12095 -0.0258776 0
M  V30 3756 N 339.585 -6.96514 -0.883893 0
M  V30 3757 H 344.425 -2.8471 0.880002 0
M  V30 3758 H 341.962 -1.40188 0.445619 0
M  V30 3759 H 343.92 -3.95062 -1.34096 0
M  V30 3760 H 342.55 -2.82938 -1.55389 0
M  V30 3761 H 341.602 -3.74133 0.68766 0
M  V30 3762 H 342.914 -4.94074 0.685036 0
M  V30 3763 H 342.068 -5.88549 -1.47293 0
M  V30 3764 H 340.807 -4.62289 -1.5537 0
M  V30 3765 H 339.812 -5.4661 0.591386 0
M  V30 3766 H 341.037 -6.75923 0.656156 0
M  V30 3767 H 338.983 -6.37318 -1.55441 0
M  V30 3768 H 338.9 -7.55448 -0.288931 0
M  V30 3769 H 340.168 -7.65439 -1.4739 0
M  V30 3770 N 344.397 -0.483516 -1.5 0
M  V30 3771 C 345.622 0.0667119 -2.07293 0
M  V30 3772 C 346.047 1.3164 -1.3436 0
M  V30 3773 O 345.405 1.76945 -0.394987 0
M  V30 3774 C 345.453 0.321126 -3.59167 0
M  V30 3775 O 344.557 1.39927 -3.87936 0
M  V30 3776 H 343.898 -0.0184758 -0.663743 0
M  V30 3777 H 346.428 -0.678125 -1.93035 0
M  V30 3778 H 346.438 0.557906 -4.04168 0
M  V30 3779 H 345.113 -0.592007 -4.11665 0
M  V30 3780 H 343.69 1.14882 -3.54763 0
M  V30 3781 N 345.875 1.56104 -0.216619 0
M  V30 3782 C 346.825 2.16703 0.708798 0
M  V30 3783 C 347.809 1.11392 1.16106 0
M  V30 3784 O 349.001 1.37395 1.11587 0
M  V30 3785 C 346.13 2.84666 1.91886 0
M  V30 3786 C 345.216 3.97195 1.48651 0
M  V30 3787 N 345.607 4.99959 0.766434 0
M  V30 3788 C 343.905 4.09193 1.77418 0
M  V30 3789 C 344.606 5.79126 0.546659 0
M  V30 3790 N 343.582 5.32315 1.10188 0
M  V30 3791 H 347.384 2.93516 0.150162 0
M  V30 3792 H 344.898 1.6239 -0.0176768 0
M  V30 3793 H 346.895 3.26486 2.59253 0
M  V30 3794 H 345.555 2.09347 2.48202 0
M  V30 3795 H 346.566 5.16197 0.419634 0
M  V30 3796 H 343.243 3.45021 2.35088 0
M  V30 3797 H 344.633 6.71895 -0.026103 0
M  V30 3798 N 347.353 -0.0568162 1.57498 0
M  V30 3799 C 348.599 -0.75422 1.88253 0
M  V30 3800 C 348.932 -1.76461 0.810865 0
M  V30 3801 O 348.207 -1.93691 -0.177259 0
M  V30 3802 C 348.49 -1.44878 3.2967 0
M  V30 3803 C 348.343 -0.453789 4.47505 0
M  V30 3804 C 349.662 -2.38994 3.69554 0
M  V30 3805 H 346.781 -0.272724 0.684683 0
M  V30 3806 H 349.423 -0.0172113 1.89992 0
M  V30 3807 H 347.573 -2.077 3.28318 0
M  V30 3808 H 349.245 0.170371 4.60985 0
M  V30 3809 H 347.488 0.229552 4.33192 0
M  V30 3810 H 348.159 -0.977699 5.43273 0
M  V30 3811 H 350.635 -1.86239 3.72095 0
M  V30 3812 H 349.511 -2.84587 4.69363 0
M  V30 3813 H 349.772 -3.24461 3.00296 0
M  V30 3814 N 348.832 -1.54138 -0.328536 0
M  V30 3815 C 349.779 -1.83176 -1.40411 0
M  V30 3816 C 350.749 -0.678494 -1.5161 0
M  V30 3817 O 351.934 -0.92443 -1.6691 0
M  V30 3818 C 349.074 -2.06035 -2.76846 0
M  V30 3819 C 348.187 -3.33727 -2.74318 0
M  V30 3820 C 347.322 -3.46574 -4.02567 0
M  V30 3821 C 346.361 -4.68159 -3.94327 0
M  V30 3822 N 345.498 -4.77959 -5.14296 0
M  V30 3823 H 350.338 -2.74938 -1.14948 0
M  V30 3824 H 347.875 -1.36166 -0.556538 0
M  V30 3825 H 349.833 -2.1728 -3.56153 0
M  V30 3826 H 348.463 -1.1757 -3.00628 0
M  V30 3827 H 347.515 -3.31246 -1.8703 0
M  V30 3828 H 348.827 -4.23139 -2.64111 0
M  V30 3829 H 347.981 -3.57333 -4.90304 0
M  V30 3830 H 346.72 -2.55245 -4.15574 0
M  V30 3831 H 345.725 -4.57461 -3.04974 0
M  V30 3832 H 346.95 -5.60868 -3.82889 0
M  V30 3833 H 344.896 -3.89544 -5.27818 0
M  V30 3834 H 344.813 -5.6133 -5.06404 0
M  V30 3835 H 346.081 -4.93044 -6.03761 0
M  V30 3836 N 350.31 0.590341 -1.46126 0
M  V30 3837 C 351.559 1.34499 -1.50309 0
M  V30 3838 C 351.872 1.94977 -0.156021 0
M  V30 3839 O 353.078 2.71395 -0.0756037 0
M  V30 3840 C 351.534 2.43723 -2.64815 0
M  V30 3841 C 351.142 1.89582 -4.0591 0
M  V30 3842 C 352.886 3.20579 -2.78262 0
M  V30 3843 C 350.793 2.9639 -5.11769 0
M  V30 3844 H 349.723 0.505593 -0.559368 0
M  V30 3845 H 352.374 0.630848 -1.72315 0
M  V30 3846 H 350.756 3.17902 -2.36124 0
M  V30 3847 H 351.93 1.21997 -4.44357 0
M  V30 3848 H 350.245 1.25418 -3.97063 0
M  V30 3849 H 352.842 4.00276 -3.54519 0
M  V30 3850 H 353.185 3.72684 -1.85505 0
M  V30 3851 H 353.718 2.53505 -3.06562 0
M  V30 3852 H 350.457 2.49181 -6.06291 0
M  V30 3853 H 349.977 3.62487 -4.77873 0
M  V30 3854 H 351.656 3.60474 -5.37278 0
M  V30 3855 N 351.788 1.33704 0.83433 0
M  V30 3856 C 353.204 1.13137 1.12571 0
M  V30 3857 C 353.404 -0.0747261 2.01361 0
M  V30 3858 O 352.46 -0.753647 2.4099 0
M  V30 3859 C 353.773 2.42105 1.78342 0
M  V30 3860 C 355.321 2.48054 1.90888 0
M  V30 3861 C 355.796 3.76995 2.60075 0
M  V30 3862 N 357.287 3.78092 2.67584 0
M  V30 3863 C 358.022 4.74574 3.21818 0
M  V30 3864 N 357.518 5.81434 3.76705 0
M  V30 3865 N 359.311 4.62044 3.20112 0
M  V30 3866 H 351.462 2.11 0.243489 0
M  V30 3867 H 353.725 0.932532 0.17055 0
M  V30 3868 H 353.431 3.30391 1.20561 0
M  V30 3869 H 353.305 2.54594 2.7832 0
M  V30 3870 H 355.692 1.60215 2.47821 0
M  V30 3871 H 355.773 2.39502 0.898459 0
M  V30 3872 H 355.417 4.65219 2.03799 0
M  V30 3873 H 355.347 3.82825 3.61597 0
M  V30 3874 H 357.838 3.00865 2.28667 0
M  V30 3875 H 358.151 6.51084 4.16305 0
M  V30 3876 H 356.496 5.85163 3.7498 0
M  V30 3877 H 359.687 3.77716 2.76493 0
M  V30 3878 H 359.86 5.37406 3.62076 0
M  V30 3879 N 353.266 -1.05314 1.17247 0
M  V30 3880 C 354.214 -2.15137 0.884238 0
M  V30 3881 C 355.208 -1.68729 -0.15063 0
M  V30 3882 O 356.414 -1.8 -0.00366673 0
M  V30 3883 H 352.789 -0.702471 0.2684 0
M  V30 3884 H 354.76 -2.36652 1.81764 0
M  V30 3885 C 353.509 -3.45243 0.412659 0
M  V30 3886 H 352.832 -3.81352 1.20043 0
M  V30 3887 H 354.272 -4.23263 0.249858 0
M  V30 3888 C 352.731 -3.25487 -0.86948 0
M  V30 3889 O 353.261 -3.51938 -1.93655 0
M  V30 3890 N 351.467 -2.78875 -0.817147 0
M  V30 3891 H 351.014 -2.57549 0.0514211 0
M  V30 3892 H 350.972 -2.66036 -1.67547 0
M  V30 3893 N 354.744 -0.972509 -1.24016 0
M  V30 3894 C 356.021 -0.553733 -1.87598 0
M  V30 3895 C 356.401 0.969158 -1.87538 0
M  V30 3896 O 355.749 1.84255 -1.35139 0
M  V30 3897 C 355.959 -1.15076 -3.29482 0
M  V30 3898 C 357.307 -1.23862 -4.06132 0
M  V30 3899 O 358.331 -1.10363 -3.38672 0
M  V30 3900 O 357.19 -1.45252 -5.26844 0
M  V30 3901 H 354.284 -0.185331 -0.805966 0
M  V30 3902 H 356.83 -1.06709 -1.31952 0
M  V30 3903 H 355.602 -2.19333 -3.2405 0
M  V30 3904 H 355.225 -0.621746 -3.92709 0
M  V30 3905 N 356.222 1.38976 -0.743202 0
M  V30 3906 C 357.152 2.33171 -0.123873 0
M  V30 3907 C 358.133 1.54336 0.71516 0
M  V30 3908 O 359.318 1.82696 0.658467 0
M  V30 3909 C 356.448 3.38474 0.777978 0
M  V30 3910 C 355.402 4.27979 0.0424758 0
M  V30 3911 C 354.728 5.2405 1.06189 0
M  V30 3912 C 356.028 5.10155 -1.1198 0
M  V30 3913 H 357.722 2.85213 -0.910709 0
M  V30 3914 H 355.268 1.37133 -0.439388 0
M  V30 3915 H 357.221 4.03328 1.22084 0
M  V30 3916 H 355.945 2.84891 1.59702 0
M  V30 3917 H 354.604 3.64616 -0.380853 0
M  V30 3918 H 354.252 4.66758 1.87472 0
M  V30 3919 H 353.952 5.84785 0.574485 0
M  V30 3920 H 355.476 5.9178 1.50428 0
M  V30 3921 H 356.89 5.68307 -0.75499 0
M  V30 3922 H 355.287 5.80073 -1.53738 0
M  V30 3923 H 356.357 4.44504 -1.93764 0
M  V30 3924 N 357.7 0.491464 1.49741 0
M  V30 3925 C 358.63 -0.28154 2.31796 0
M  V30 3926 C 359.611 -0.971473 1.3963 0
M  V30 3927 O 360.796 -0.964719 1.68543 0
M  V30 3928 C 357.926 -1.35203 3.19902 0
M  V30 3929 C 356.88 -0.782529 4.20786 0
M  V30 3930 C 356.206 -1.95283 4.97764 0
M  V30 3931 C 357.506 0.21999 5.21837 0
M  V30 3932 H 359.2 0.403355 2.96671 0
M  V30 3933 H 356.746 0.195425 1.42668 0
M  V30 3934 H 358.699 -1.90045 3.76113 0
M  V30 3935 H 357.423 -2.06598 2.52953 0
M  V30 3936 H 356.082 -0.255928 3.65706 0
M  V30 3937 H 355.73 -2.65423 4.2727 0
M  V30 3938 H 355.43 -1.57789 5.66018 0
M  V30 3939 H 356.954 -2.50577 5.56816 0
M  V30 3940 H 358.368 -0.23996 5.72798 0
M  V30 3941 H 356.765 0.51026 5.97927 0
M  V30 3942 H 357.835 1.13911 4.7133 0
M  V30 3943 N 359.178 -1.55987 0.224894 0
M  V30 3944 C 360.126 -2.21808 -0.700283 0
M  V30 3945 C 361.12 -1.19854 -1.19714 0
M  V30 3946 O 362.326 -1.37925 -1.15658 0
M  V30 3947 H 358.701 -0.711226 -0.244258 0
M  V30 3948 H 360.672 -2.98152 -0.121749 0
M  V30 3949 C 359.421 -2.91444 -1.8962 0
M  V30 3950 H 358.744 -3.69655 -1.52299 0
M  V30 3951 H 360.184 -3.40894 -2.52125 0
M  V30 3952 C 358.643 -1.94098 -2.75368 0
M  V30 3953 O 359.173 -1.46004 -3.74227 0
M  V30 3954 N 357.379 -1.61675 -2.41474 0
M  V30 3955 H 356.926 -2.00979 -1.61137 0
M  V30 3956 H 356.884 -0.968036 -2.99126 0
M  V30 3957 N 360.656 0.0484629 -1.57525 0
M  V30 3958 C 361.603 1.05504 -2.05275 0
M  V30 3959 C 362.573 1.37084 -0.937927 0
M  V30 3960 O 363.758 1.47754 -1.2072 0
M  V30 3961 C 360.898 2.35676 -2.52093 0
M  V30 3962 C 360.011 2.10423 -3.77288 0
M  V30 3963 C 359.146 3.34327 -4.12794 0
M  V30 3964 C 358.185 3.04542 -5.30962 0
M  V30 3965 N 357.322 4.20841 -5.61994 0
M  V30 3966 H 362.162 0.640885 -2.91027 0
M  V30 3967 H 359.699 0.304854 -1.43906 0
M  V30 3968 H 361.657 3.11709 -2.77297 0
M  V30 3969 H 360.287 2.7485 -1.69285 0
M  V30 3970 H 359.339 1.24976 -3.59284 0
M  V30 3971 H 360.651 1.84438 -4.63448 0
M  V30 3972 H 359.805 4.1874 -4.39024 0
M  V30 3973 H 358.544 3.63408 -3.25247 0
M  V30 3974 H 357.549 2.18528 -5.04505 0
M  V30 3975 H 358.774 2.76758 -6.20146 0
M  V30 3976 H 356.72 4.4991 -4.77406 0
M  V30 3977 H 356.637 3.98212 -6.42622 0
M  V30 3978 H 357.905 5.06184 -5.92789 0
M  V30 3979 N 362.134 1.5431 0.320358 0
M  V30 3980 C 363.383 1.7188 1.05546 0
M  V30 3981 C 363.696 0.501143 1.89071 0
M  V30 3982 O 364.902 0.558258 2.65699 0
M  V30 3983 C 363.358 3.04025 1.92605 0
M  V30 3984 C 362.966 4.33207 1.14176 0
M  V30 3985 C 364.71 3.30959 2.65832 0
M  V30 3986 C 362.617 5.56412 2.00399 0
M  V30 3987 H 361.547 0.640547 0.397763 0
M  V30 3988 H 364.198 1.80802 0.313522 0
M  V30 3989 H 362.58 2.89019 2.7071 0
M  V30 3990 H 363.754 4.58989 0.40819 0
M  V30 3991 H 362.069 4.13062 0.526165 0
M  V30 3992 H 364.666 4.20203 3.30656 0
M  V30 3993 H 365.009 2.48979 3.33639 0
M  V30 3994 H 365.542 3.46847 1.94787 0
M  V30 3995 H 362.281 6.41004 1.37094 0
M  V30 3996 H 361.801 5.34844 2.7148 0
M  V30 3997 H 363.48 5.92938 2.58908 0
M  V30 3998 N 363.613 -0.582584 1.46437 0
M  V30 3999 C 364.543 -1.70187 1.59871 0
M  V30 4000 C 365.524 -1.64066 0.449042 0
M  V30 4001 O 366.709 -1.82081 0.6753 0
M  V30 4002 C 363.839 -3.08827 1.58881 0
M  V30 4003 C 362.793 -3.29779 2.72819 0
M  V30 4004 C 362.119 -4.68947 2.5689 0
M  V30 4005 C 363.419 -3.17601 4.1464 0
M  V30 4006 H 365.113 -1.592 2.53566 0
M  V30 4007 H 362.659 -0.764472 1.22032 0
M  V30 4008 H 364.612 -3.86951 1.66873 0
M  V30 4009 H 363.336 -3.20713 0.617306 0
M  V30 4010 H 361.995 -2.54054 2.64296 0
M  V30 4011 H 361.643 -4.77599 1.57823 0
M  V30 4012 H 361.343 -4.83919 3.33312 0
M  V30 4013 H 362.867 -5.4924 2.66773 0
M  V30 4014 H 364.281 -3.8557 4.24274 0
M  V30 4015 H 362.678 -3.44094 4.9165 0
M  V30 4016 H 363.748 -2.14681 4.34788 0
M  V30 4017 N 365.091 -1.34144 -0.827227 0
M  V30 4018 C 366.001 -1.27428 -1.96975 0
M  V30 4019 C 367.017 -0.182728 -1.73038 0
M  V30 4020 O 368.193 -0.408426 -1.97215 0
M  V30 4021 C 365.258 -1.02526 -3.31194 0
M  V30 4022 C 364.319 -2.20796 -3.68168 0
M  V30 4023 C 363.552 -1.97073 -4.95982 0
M  V30 4024 O 363.775 -0.926822 -5.6282 0
M  V30 4025 O 362.709 -2.83912 -5.30733 0
M  V30 4026 H 366.535 -2.23537 -2.05584 0
M  V30 4027 H 364.12 -1.14307 -0.961989 0
M  V30 4028 H 366.002 -0.904026 -4.11589 0
M  V30 4029 H 364.677 -0.0945389 -3.23562 0
M  V30 4030 H 363.584 -2.38477 -2.88235 0
M  V30 4031 H 364.917 -3.12243 -3.8048 0
M  V30 4032 N 366.569 1.04691 -1.17803 0
M  V30 4033 C 367.517 2.14665 -0.895635 0
M  V30 4034 C 368.511 1.68806 0.141679 0
M  V30 4035 O 369.717 1.79999 -0.00587914 0
M  V30 4036 H 366.092 0.701038 -0.272121 0
M  V30 4037 H 368.063 2.35685 -1.83017 0
M  V30 4038 C 366.812 3.45019 -0.430962 0
M  V30 4039 H 366.135 3.8071 -1.22064 0
M  V30 4040 H 367.575 4.23125 -0.272301 0
M  V30 4041 C 366.034 3.25943 0.852207 0
M  V30 4042 O 366.564 3.5296 1.91786 0
M  V30 4043 N 364.77 2.79304 0.802346 0
M  V30 4044 H 364.317 2.57518 -0.0650788 0
M  V30 4045 H 364.275 2.66921 1.66134 0
M  V30 4046 N 368.047 0.979072 1.23499 0
M  V30 4047 C 369.277 0.664237 1.95631 0
M  V30 4048 C 369.685 -0.772653 1.72704 0
M  V30 4049 O 369.028 -1.53141 1.01457 0
M  V30 4050 C 369.09 0.873115 3.48736 0
M  V30 4051 C 368.754 2.29182 3.95379 0
M  V30 4052 C 369.751 3.2704 4.04155 0
M  V30 4053 C 367.436 2.62256 4.28401 0
M  V30 4054 C 369.43 4.56052 4.45304 0
M  V30 4055 C 367.117 3.91491 4.69231 0
M  V30 4056 C 368.115 4.88201 4.77649 0
M  V30 4057 O 367.803 6.15129 5.17563 0
M  V30 4058 H 367.535 0.245915 0.629684 0
M  V30 4059 H 370.089 1.3127 1.57979 0
M  V30 4060 H 368.319 0.167476 3.86337 0
M  V30 4061 H 370.008 0.555642 4.02079 0
M  V30 4062 H 370.774 3.02819 3.78848 0
M  V30 4063 H 366.653 1.87692 4.21061 0
M  V30 4064 H 370.197 5.31538 4.51789 0
M  V30 4065 H 366.094 4.15508 4.93987 0
M  V30 4066 H 366.862 6.18862 5.35679 0
M  V30 4067 N 369.525 -1.3858 0.750561 0
M  V30 4068 C 370.472 -2.30483 0.120835 0
M  V30 4069 C 371.442 -1.50022 -0.712923 0
M  V30 4070 O 372.627 -1.78662 -0.669676 0
M  V30 4071 C 369.767 -3.36431 -0.768666 0
M  V30 4072 C 368.88 -4.31927 0.0793922 0
M  V30 4073 C 368.015 -5.24944 -0.81283 0
M  V30 4074 C 367.054 -6.12088 0.0390447 0
M  V30 4075 N 366.191 -6.97412 -0.809969 0
M  V30 4076 H 371.031 -2.83761 0.91015 0
M  V30 4077 H 368.568 -1.39707 0.460463 0
M  V30 4078 H 370.526 -3.96462 -1.29898 0
M  V30 4079 H 369.156 -2.8457 -1.5238 0
M  V30 4080 H 368.208 -3.73382 0.727303 0
M  V30 4081 H 369.52 -4.93319 0.737401 0
M  V30 4082 H 368.674 -5.90078 -1.41042 0
M  V30 4083 H 367.413 -4.63911 -1.50458 0
M  V30 4084 H 366.418 -5.45952 0.649328 0
M  V30 4085 H 367.643 -6.75189 0.727809 0
M  V30 4086 H 365.589 -6.38931 -1.48672 0
M  V30 4087 H 365.506 -7.55712 -0.208789 0
M  V30 4088 H 366.774 -7.66959 -1.39263 0
M  V30 4089 N 371.003 -0.499398 -1.49478 0
M  V30 4090 C 371.913 0.284489 -2.32869 0
M  V30 4091 C 372.929 0.968885 -1.44529 0
M  V30 4092 O 374.105 0.95062 -1.77553 0
M  V30 4093 C 371.17 1.33594 -3.19928 0
M  V30 4094 C 370.231 0.665149 -4.24116 0
M  V30 4095 C 369.464 1.6665 -5.07014 0
M  V30 4096 O 369.687 2.89618 -4.91404 0
M  V30 4097 O 368.621 1.22271 -5.8935 0
M  V30 4098 H 372.447 -0.39802 -3.01081 0
M  V30 4099 H 370.032 -0.260758 -1.47107 0
M  V30 4100 H 371.914 1.94431 -3.73864 0
M  V30 4101 H 370.589 2.0014 -2.54412 0
M  V30 4102 H 369.496 0.0170769 -3.74096 0
M  V30 4103 H 370.829 0.0421555 -4.92182 0
M  V30 4104 N 372.481 1.55866 -0.233164 0
M  V30 4105 C 373.428 2.20796 0.67215 0
M  V30 4106 C 374.398 1.16731 1.18166 0
M  V30 4107 O 375.583 1.45129 1.23864 0
M  V30 4108 C 372.723 2.90072 1.86955 0
M  V30 4109 C 371.836 4.08759 1.39786 0
M  V30 4110 C 370.971 4.65787 2.55374 0
M  V30 4111 C 370.01 5.76752 2.04998 0
M  V30 4112 N 369.147 6.28021 3.13901 0
M  V30 4113 H 373.987 2.9779 0.111749 0
M  V30 4114 H 371.524 1.47036 0.0434007 0
M  V30 4115 H 373.482 3.28428 2.57276 0
M  V30 4116 H 372.112 2.15575 2.40265 0
M  V30 4117 H 371.164 3.7581 0.589173 0
M  V30 4118 H 372.476 4.88906 0.98856 0
M  V30 4119 H 371.63 5.06646 3.33758 0
M  V30 4120 H 370.369 3.84828 2.99598 0
M  V30 4121 H 369.374 5.35383 1.25079 0
M  V30 4122 H 370.599 6.59553 1.61759 0
M  V30 4123 H 368.545 5.49971 3.57586 0
M  V30 4124 H 368.462 7.03323 2.7726 0
M  V30 4125 H 369.73 6.73538 3.92386 0
M  V30 4126 N 373.959 -0.0401083 1.57549 0
M  V30 4127 C 375.206 -0.733125 1.88763 0
M  V30 4128 C 375.534 -1.75946 0.829058 0
M  V30 4129 O 374.789 -1.94949 -0.171323 0
M  V30 4130 C 375.088 -1.44902 3.26708 0
M  V30 4131 C 374.754 -0.559707 4.47413 0
M  V30 4132 C 373.416 -0.314731 4.8017 0
M  V30 4133 C 375.768 0.0549743 5.21171 0
M  V30 4134 C 373.096 0.553886 5.8408 0
M  V30 4135 C 375.448 0.911229 6.26003 0
M  V30 4136 C 374.112 1.16577 6.57241 0
M  V30 4137 H 373.382 -0.268269 0.690733 0
M  V30 4138 H 376.029 0.00679408 1.91499 0
M  V30 4139 H 374.334 -2.26197 3.1991 0
M  V30 4140 H 376.031 -1.99058 3.48105 0
M  V30 4141 H 372.621 -0.760793 4.21794 0
M  V30 4142 H 376.805 -0.121344 4.96152 0
M  V30 4143 H 372.061 0.759518 6.06664 0
M  V30 4144 H 376.235 1.3941 6.82303 0
M  V30 4145 H 373.862 1.84058 7.37582 0
M  V30 4146 N 375.437 -1.54477 -0.31217 0
M  V30 4147 C 376.853 -1.45442 -0.657185 0
M  V30 4148 C 377.053 -0.63653 -1.91182 0
M  V30 4149 O 376.109 -0.139815 -2.52113 0
M  V30 4150 C 377.422 -2.89287 -0.82058 0
M  V30 4151 C 378.97 -2.9926 -0.917188 0
M  V30 4152 C 379.445 -4.44279 -1.11267 0
M  V30 4153 N 380.936 -4.4794 -1.17914 0
M  V30 4154 C 381.671 -5.57318 -1.34848 0
M  V30 4155 N 381.167 -6.76642 -1.48752 0
M  V30 4156 N 382.96 -5.44986 -1.37647 0
M  V30 4157 H 375.111 -2.06129 0.512313 0
M  V30 4158 H 377.374 -0.933088 0.167485 0
M  V30 4159 H 377.08 -3.51687 0.0302604 0
M  V30 4160 H 376.954 -3.36061 -1.71298 0
M  V30 4161 H 379.341 -2.36981 -1.75852 0
M  V30 4162 H 379.422 -2.558 -0.00101257 0
M  V30 4163 H 379.066 -5.07149 -0.27614 0
M  V30 4164 H 378.996 -4.85359 -2.04289 0
M  V30 4165 H 381.487 -3.61969 -1.08567 0
M  V30 4166 H 381.8 -7.55758 -1.61397 0
M  V30 4167 H 380.145 -6.79529 -1.45828 0
M  V30 4168 H 383.336 -4.50715 -1.26388 0
M  V30 4169 H 383.509 -6.3028 -1.50501 0
M  V30 4170 N 376.915 0.57481 -1.46744 0
M  V30 4171 C 378.14 1.36341 -1.56288 0
M  V30 4172 C 378.565 1.86954 -0.207347 0
M  V30 4173 O 377.923 1.62006 0.813871 0
M  V30 4174 C 377.971 2.52147 -2.57787 0
M  V30 4175 O 377.075 3.53834 -2.11838 0
M  V30 4176 H 376.416 0.405713 -0.525636 0
M  V30 4177 H 378.946 0.696453 -1.92382 0
M  V30 4178 H 378.956 2.98958 -2.77648 0
M  V30 4179 H 377.631 2.14663 -3.5622 0
M  V30 4180 H 376.208 3.1345 -2.01999 0
M  V30 4181 N 378.394 1.34581 0.820102 0
M  V30 4182 C 379.671 1.17675 1.56244 0
M  V30 4183 C 380.051 -0.249541 2.0962 0
M  V30 4184 O 379.399 -1.25125 1.91196 0
M  V30 4185 C 379.609 2.23364 2.6816 0
M  V30 4186 C 380.957 2.58485 3.36854 0
M  V30 4187 O 381.981 2.22175 2.78418 0
M  V30 4188 O 380.84 3.20868 4.42386 0
M  V30 4189 H 377.934 0.456333 0.689702 0
M  V30 4190 H 380.48 1.46222 0.861231 0
M  V30 4191 H 379.252 3.19087 2.26493 0
M  V30 4192 H 378.875 1.96009 3.45928 0
M  V30 4193 N 379.872 -1.04064 1.18357 0
M  V30 4194 C 381.097 -1.81454 1.00445 0
M  V30 4195 C 381.522 -1.82823 -0.442423 0
M  V30 4196 O 380.88 -1.24555 -1.31741 0
M  V30 4197 C 380.928 -3.24925 1.56384 0
M  V30 4198 O 380.032 -4.04856 0.785209 0
M  V30 4199 H 379.373 -0.560604 0.355835 0
M  V30 4200 H 381.903 -1.31059 1.57114 0
M  V30 4201 H 381.913 -3.75702 1.59097 0
M  V30 4202 H 380.588 -3.23244 2.61699 0
M  V30 4203 H 379.165 -3.63537 0.830399 0
M  V30 4204 N 381.35 -0.985608 -1.22978 0
M  V30 4205 C 382.599 -0.652881 -1.90841 0
M  V30 4206 C 382.912 0.817842 -1.77681 0
M  V30 4207 O 384.118 1.26185 -2.40395 0
M  V30 4208 C 382.574 -1.11717 -3.42122 0
M  V30 4209 C 382.182 -2.6126 -3.63933 0
M  V30 4210 C 383.926 -0.85843 -4.1573 0
M  V30 4211 C 381.833 -3.0133 -5.08876 0
M  V30 4212 H 380.763 -0.240491 -0.714619 0
M  V30 4213 H 383.414 -1.1942 -1.39324 0
M  V30 4214 H 381.796 -0.504027 -3.92779 0
M  V30 4215 H 382.97 -3.27858 -3.23799 0
M  V30 4216 H 381.285 -2.84937 -3.03644 0
M  V30 4217 H 383.882 -1.13359 -5.22546 0
M  V30 4218 H 384.225 0.205461 -4.15793 0
M  V30 4219 H 384.758 -1.43341 -3.71077 0
M  V30 4220 H 381.497 -4.06864 -5.13947 0
M  V30 4221 H 381.017 -2.3943 -5.49939 0
M  V30 4222 H 382.696 -2.92224 -5.77247 0
M  V30 4223 N 382.828 1.3818 -0.7579 0
M  V30 4224 C 384.056 2.04301 -0.326937 0
M  V30 4225 C 384.471 1.57163 1.0462 0
M  V30 4226 O 383.828 0.746626 1.66529 0
M  V30 4227 C 383.879 3.59846 -0.345363 0
M  V30 4228 O 383.6 4.05256 -1.66432 0
M  V30 4229 C 385.101 4.4319 0.098927 0
M  V30 4230 H 382.321 0.656443 -0.139012 0
M  V30 4231 H 384.865 1.76786 -1.02796 0
M  V30 4232 H 383.02 3.86182 0.306955 0
M  V30 4233 H 383.434 4.99709 -1.59345 0
M  V30 4234 H 384.908 5.51989 0.0348745 0
M  V30 4235 H 385.385 4.23947 1.14741 0
M  V30 4236 H 385.991 4.22051 -0.52468 0
M  V30 4237 N 384.306 0.507319 1.49211 0
M  V30 4238 C 385.254 -0.281364 2.30892 0
M  V30 4239 C 386.248 -0.95687 1.39787 0
M  V30 4240 O 387.454 -0.883838 1.56807 0
M  V30 4241 H 383.829 -0.109597 0.743971 0
M  V30 4242 H 385.8 0.42744 2.95323 0
M  V30 4243 C 384.549 -1.32918 3.21291 0
M  V30 4244 H 383.872 -0.818799 3.91326 0
M  V30 4245 H 385.312 -1.85288 3.81372 0
M  V30 4246 C 383.771 -2.35074 2.41333 0
M  V30 4247 O 384.301 -3.4108 2.12197 0
M  V30 4248 N 382.507 -2.07705 2.03241 0
M  V30 4249 H 382.054 -1.2152 2.27136 0
M  V30 4250 H 382.012 -2.76283 1.50051 0
M  V30 4251 N 385.784 -1.5574 0.241426 0
M  V30 4252 C 386.717 -2.17168 -0.700935 0
M  V30 4253 C 387.695 -1.12206 -1.1768 0
M  V30 4254 O 388.879 -1.40565 -1.25593 0
M  V30 4255 C 386.006 -2.76796 -1.95196 0
M  V30 4256 C 385.052 -3.94764 -1.61442 0
M  V30 4257 S 385.885 -5.30613 -0.72182 0
M  V30 4258 C 387.041 -5.93691 -1.98197 0
M  V30 4259 H 387.274 -2.96761 -0.178882 0
M  V30 4260 H 384.807 -1.54378 0.0259299 0
M  V30 4261 H 386.765 -3.11787 -2.67019 0
M  V30 4262 H 385.426 -1.9716 -2.44514 0
M  V30 4263 H 384.619 -4.35057 -2.54443 0
M  V30 4264 H 384.221 -3.61022 -0.976672 0
M  V30 4265 H 386.513 -6.10874 -2.92983 0
M  V30 4266 H 387.456 -6.89258 -1.62262 0
M  V30 4267 H 387.864 -5.22709 -2.13156 0
M  V30 4268 N 387.262 0.0317525 -1.57568 0
M  V30 4269 C 388.192 1.03274 -2.0942 0
M  V30 4270 C 389.173 1.3788 -0.996143 0
M  V30 4271 O 390.358 1.46811 -1.27122 0
M  V30 4272 C 387.488 2.33448 -2.57137 0
M  V30 4273 C 386.442 2.13091 -3.71182 0
M  V30 4274 C 385.768 3.49001 -4.05095 0
M  V30 4275 C 387.068 1.51928 -4.99715 0
M  V30 4276 H 388.762 0.60112 -2.93303 0
M  V30 4277 H 386.308 0.287705 -1.41097 0
M  V30 4278 H 388.261 3.03802 -2.92032 0
M  V30 4279 H 386.985 2.78665 -1.70333 0
M  V30 4280 H 385.644 1.45171 -3.36632 0
M  V30 4281 H 385.292 3.91862 -3.15362 0
M  V30 4282 H 384.992 3.36207 -4.81911 0
M  V30 4283 H 386.516 4.20721 -4.42522 0
M  V30 4284 H 387.93 2.12196 -5.32584 0
M  V30 4285 H 386.327 1.49716 -5.81124 0
M  V30 4286 H 387.397 0.484811 -4.8247 0
M  V30 4287 N 388.74 1.54641 0.303973 0
M  V30 4288 C 390.017 1.64455 1.05896 0
M  V30 4289 C 390.397 0.490923 2.05312 0
M  V30 4290 O 389.745 -0.512685 2.22674 0
M  V30 4291 C 389.955 3.02331 1.74347 0
M  V30 4292 C 391.303 3.59045 2.26653 0
M  V30 4293 O 392.327 3.04764 1.84384 0
M  V30 4294 O 391.186 4.54081 3.04093 0
M  V30 4295 H 388.28 0.666729 0.489287 0
M  V30 4296 H 390.826 1.66986 0.302298 0
M  V30 4297 H 389.598 3.77734 1.02142 0
M  V30 4298 H 389.221 3.03565 2.56777 0
M  V30 4299 N 390.218 -0.567019 1.47046 0
M  V30 4300 C 391.446 -1.35027 1.56765 0
M  V30 4301 C 391.861 -1.8758 0.214316 0
M  V30 4302 O 391.218 -1.64471 -0.790919 0
M  V30 4303 C 391.269 -2.52698 2.58507 0
M  V30 4304 O 390.99 -2.0232 3.88585 0
M  V30 4305 C 392.491 -3.45043 2.78316 0
M  V30 4306 H 389.711 -0.41195 0.529658 0
M  V30 4307 H 392.255 -0.687832 1.92585 0
M  V30 4308 H 390.41 -3.149 2.25648 0
M  V30 4309 H 390.824 -2.79068 4.44096 0
M  V30 4310 H 392.298 -4.2405 3.53391 0
M  V30 4311 H 392.775 -3.97971 1.85784 0
M  V30 4312 H 393.381 -2.88665 3.12334 0
M  V30 4313 N 391.696 -1.35014 -0.812953 0
M  V30 4314 C 392.626 -1.30069 -1.93919 0
M  V30 4315 C 393.607 -0.176275 -1.69184 0
M  V30 4316 O 394.792 -0.370227 -1.90638 0
M  V30 4317 C 391.922 -1.06547 -3.30552 0
M  V30 4318 C 390.876 -2.15561 -3.69753 0
M  V30 4319 C 390.202 -1.77214 -5.04479 0
M  V30 4320 C 391.502 -3.57476 -3.808 0
M  V30 4321 H 393.196 -2.24303 -1.98314 0
M  V30 4322 H 390.742 -1.07977 -0.952736 0
M  V30 4323 H 392.695 -1.01729 -4.08937 0
M  V30 4324 H 391.419 -0.0875719 -3.26483 0
M  V30 4325 H 390.078 -2.19466 -2.9365 0
M  V30 4326 H 389.726 -0.780589 -4.96906 0
M  V30 4327 H 389.426 -2.50184 -5.31678 0
M  V30 4328 H 390.95 -1.7391 -5.8531 0
M  V30 4329 H 392.364 -3.55929 -4.4943 0
M  V30 4330 H 390.761 -4.29152 -4.19462 0
M  V30 4331 H 391.831 -3.94091 -2.82525 0
M  V30 4332 N 393.175 1.03435 -1.18907 0
M  V30 4333 C 394.108 2.11162 -0.86521 0
M  V30 4334 C 395.086 1.6165 0.175473 0
M  V30 4335 O 396.27 1.88425 0.0530129 0
M  V30 4336 C 393.397 3.37423 -0.293868 0
M  V30 4337 C 392.443 4.05795 -1.31274 0
M  V30 4338 S 393.276 4.52027 -2.8711 0
M  V30 4339 C 394.432 5.81513 -2.31504 0
M  V30 4340 H 394.665 2.38308 -1.77754 0
M  V30 4341 H 392.198 1.16295 -1.01562 0
M  V30 4342 H 394.156 4.1049 0.0292572 0
M  V30 4343 H 392.817 3.0838 0.596682 0
M  V30 4344 H 392.01 4.96574 -0.86198 0
M  V30 4345 H 391.612 3.38874 -1.58242 0
M  V30 4346 H 393.904 6.55784 -1.70157 0
M  V30 4347 H 394.847 6.3136 -3.20608 0
M  V30 4348 H 395.255 5.36921 -1.74286 0
M  V30 4349 N 394.653 0.992116 1.22453 0
M  V30 4350 C 395.585 0.500024 2.23679 0
M  V30 4351 C 396.598 -0.404463 1.57696 0
M  V30 4352 O 397.787 -0.206722 1.77299 0
M  V30 4353 C 394.887 -0.294711 3.37616 0
M  V30 4354 C 394.06 0.605723 4.33186 0
M  V30 4355 C 393.119 -0.13717 5.26021 0
M  V30 4356 O 392.145 0.477164 5.67196 0
M  V30 4357 N 393.347 -1.4197 5.62872 0
M  V30 4358 H 396.112 1.37045 2.66531 0
M  V30 4359 H 393.673 0.866741 1.36745 0
M  V30 4360 H 395.665 -0.800329 3.96707 0
M  V30 4361 H 394.235 -1.06623 2.93854 0
M  V30 4362 H 393.455 1.29202 3.72425 0
M  V30 4363 H 394.743 1.21896 4.93983 0
M  V30 4364 H 394.141 -1.94015 5.31389 0
M  V30 4365 H 392.698 -1.87052 6.24383 0
M  V30 4366 N 396.131 -1.37776 0.765217 0
M  V30 4367 C 397.094 -2.28686 0.153416 0
M  V30 4368 C 398.094 -1.47727 -0.635081 0
M  V30 4369 O 399.284 -1.68027 -0.459632 0
M  V30 4370 C 396.416 -3.31608 -0.790495 0
M  V30 4371 H 397.609 -2.84297 0.954723 0
M  V30 4372 H 395.162 -1.46932 0.53299 0
M  V30 4373 H 395.897 -2.81109 -1.61705 0
M  V30 4374 H 395.682 -3.9144 -0.227348 0
M  V30 4375 H 397.172 -3.99559 -1.21419 0
M  V30 4376 N 397.609 -0.515225 -1.4894 0
M  V30 4377 C 398.556 0.255567 -2.29381 0
M  V30 4378 C 399.526 0.947387 -1.36432 0
M  V30 4379 O 400.711 0.951288 -1.65394 0
M  V30 4380 C 397.851 1.30551 -3.19453 0
M  V30 4381 C 396.964 0.624029 -4.27469 0
M  V30 4382 C 396.099 1.65563 -5.0474 0
M  V30 4383 C 395.138 0.956802 -6.04576 0
M  V30 4384 N 394.275 1.93326 -6.74959 0
M  V30 4385 H 399.115 -0.436607 -2.94784 0
M  V30 4386 H 396.652 -0.227154 -1.45336 0
M  V30 4387 H 398.61 1.92639 -3.70062 0
M  V30 4388 H 397.24 1.96626 -2.56004 0
M  V30 4389 H 396.292 -0.110459 -3.8024 0
M  V30 4390 H 397.604 0.0746092 -4.98744 0
M  V30 4391 H 396.758 2.35119 -5.59289 0
M  V30 4392 H 395.497 2.23893 -4.3327 0
M  V30 4393 H 394.502 0.247097 -5.49244 0
M  V30 4394 H 395.727 0.379814 -6.78037 0
M  V30 4395 H 393.673 2.50591 -6.06251 0
M  V30 4396 H 393.59 1.43489 -7.42258 0
M  V30 4397 H 394.858 2.62126 -7.34105 0
M  V30 4398 N 399.087 1.5561 -0.249682 0
M  V30 4399 C 400.02 2.17537 0.689408 0
M  V30 4400 C 400.998 1.12829 1.17083 0
M  V30 4401 O 402.182 1.41229 1.24846 0
M  V30 4402 C 399.309 2.77828 1.93725 0
M  V30 4403 C 398.355 3.95615 1.59346 0
M  V30 4404 S 399.188 5.30988 0.69367 0
M  V30 4405 C 400.344 5.94734 1.95046 0
M  V30 4406 H 400.577 2.96852 0.163142 0
M  V30 4407 H 398.11 1.54362 -0.0341166 0
M  V30 4408 H 400.068 3.13199 2.65361 0
M  V30 4409 H 398.729 1.98454 2.43465 0
M  V30 4410 H 397.922 4.364 2.52132 0
M  V30 4411 H 397.524 3.61535 0.957512 0
M  V30 4412 H 399.816 6.12419 2.89739 0
M  V30 4413 H 400.759 6.90109 1.58604 0
M  V30 4414 H 401.167 5.23832 2.10381 0
M  V30 4415 N 400.565 -0.0233959 1.57583 0
M  V30 4416 C 401.513 -1.04063 2.08023 0
M  V30 4417 C 402.507 -1.37084 0.995204 0
M  V30 4418 O 403.713 -1.35923 1.18004 0
M  V30 4419 H 400.088 -0.353144 0.663922 0
M  V30 4420 H 402.059 -0.589453 2.9252 0
M  V30 4421 C 400.808 -2.33123 2.57971 0
M  V30 4422 H 400.131 -2.08577 3.4108 0
M  V30 4423 H 401.571 -3.02632 2.96967 0
M  V30 4424 C 400.03 -3.02483 1.48342 0
M  V30 4425 O 400.56 -3.92541 0.852898 0
M  V30 4426 N 398.766 -2.63909 1.21658 0
M  V30 4427 H 398.313 -1.90758 1.73116 0
M  V30 4428 H 398.271 -3.10633 0.485218 0
M  V30 4429 N 402.043 -1.548 -0.295768 0
M  V30 4430 C 403.268 -1.78653 -1.05346 0
M  V30 4431 C 403.693 -0.546894 -1.79974 0
M  V30 4432 O 403.051 0.502763 -1.7419 0
M  V30 4433 C 403.099 -2.99679 -2.00561 0
M  V30 4434 O 402.203 -2.7317 -3.08953 0
M  V30 4435 H 401.544 -0.59116 -0.302367 0
M  V30 4436 H 404.074 -2.01895 -0.331598 0
M  V30 4437 H 404.084 -3.27793 -2.42932 0
M  V30 4438 H 402.759 -3.89562 -1.4565 0
M  V30 4439 H 401.336 -2.56089 -2.71059 0
M  V30 4440 N 403.521 0.559213 -1.47345 0
M  V30 4441 C 404.798 1.31997 -1.44348 0
M  V30 4442 C 405.178 2.1064 -0.139358 0
M  V30 4443 O 404.526 2.1091 0.879153 0
M  V30 4444 C 404.736 2.22618 -2.68779 0
M  V30 4445 C 406.084 2.83701 -3.1591 0
M  V30 4446 O 407.108 2.32921 -2.69493 0
M  V30 4447 O 405.967 3.75993 -3.966 0
M  V30 4448 H 403.061 0.594251 -0.575147 0
M  V30 4449 H 405.607 0.578282 -1.59543 0
M  V30 4450 H 404.379 1.64093 -3.55231 0
M  V30 4451 H 404.002 3.04085 -2.5616 0
M  V30 4452 N 404.999 1.35443 0.805782 0
M  V30 4453 C 405.947 1.28465 1.93906 0
M  V30 4454 C 406.941 0.17943 1.68447 0
M  V30 4455 O 408.147 0.345459 1.76654 0
M  V30 4456 H 404.522 0.399528 0.637088 0
M  V30 4457 H 406.493 2.24206 1.96912 0
M  V30 4458 C 405.242 1.07432 3.30687 0
M  V30 4459 H 404.565 1.91716 3.50835 0
M  V30 4460 H 406.005 1.06591 4.10383 0
M  V30 4461 C 404.464 -0.22179 3.36169 0
M  V30 4462 O 404.994 -1.21731 3.82811 0
M  V30 4463 N 403.2 -0.260841 2.89427 0
M  V30 4464 H 402.747 0.549884 2.51663 0
M  V30 4465 H 402.705 -1.12777 2.93477 0
M  V30 4466 N 406.477 -1.02803 1.19454 0
M  V30 4467 C 407.725 -1.75869 0.995722 0
M  V30 4468 C 408.046 -1.89138 -0.474543 0
M  V30 4469 O 407.316 -1.42558 -1.34366 0
M  V30 4470 H 405.896 -0.651511 0.365435 0
M  V30 4471 H 408.558 -1.24004 1.50363 0
M  V30 4472 H 407.654 -2.76661 1.44447 0
M  V30 4473 N 407.956 -0.998596 -1.21925 0
M  V30 4474 C 408.904 -0.546641 -2.26085 0
M  V30 4475 C 409.898 0.405576 -1.64473 0
M  V30 4476 O 411.104 0.277471 -1.77849 0
M  V30 4477 H 407.479 -0.158403 -0.735127 0
M  V30 4478 H 409.45 -1.43645 -2.61551 0
M  V30 4479 C 408.199 0.117388 -3.47502 0
M  V30 4480 H 407.522 -0.606277 -3.95176 0
M  V30 4481 H 408.962 0.396993 -4.22137 0
M  V30 4482 C 407.421 1.35455 -3.0847 0
M  V30 4483 O 407.951 2.44944 -3.18379 0
M  V30 4484 N 406.157 1.23191 -2.63196 0
M  V30 4485 H 405.704 0.341006 -2.55333 0
M  V30 4486 H 405.662 2.06071 -2.37449 0
M  V30 4487 N 409.434 1.37368 -0.772513 0
M  V30 4488 C 410.397 2.28601 -0.165541 0
M  V30 4489 C 411.397 1.48062 0.627238 0
M  V30 4490 O 412.587 1.68268 0.450715 0
M  V30 4491 C 409.719 3.32023 0.772897 0
M  V30 4492 H 410.912 2.83787 -0.969787 0
M  V30 4493 H 408.465 1.46647 -0.540775 0
M  V30 4494 H 409.2 2.81962 1.60212 0
M  V30 4495 H 408.985 3.91555 0.206585 0
M  V30 4496 H 410.475 4.00197 1.19298 0
M  V30 4497 N 410.912 0.523116 1.48665 0
M  V30 4498 C 412.16 -0.0134497 2.02096 0
M  V30 4499 C 412.481 -1.35418 1.40311 0
M  V30 4500 O 411.751 -1.87543 0.566074 0
M  V30 4501 H 410.331 -0.00795915 0.746958 0
M  V30 4502 H 412.993 0.685388 1.82451 0
M  V30 4503 H 412.089 -0.126849 3.11842 0
M  V30 4504 N 412.39 -1.55475 0.257931 0
M  V30 4505 C 413.801 -1.8511 -0.243135 0
M  V30 4506 C 414.152 -1.17986 -1.5676 0
M  V30 4507 O 413.277 -0.462102 -2.11409 0
M  V30 4508 C 413.872 -3.35826 -0.447929 0
M  V30 4509 C 412.431 -3.65647 -0.893245 0
M  V30 4510 C 411.578 -2.7729 0.0232965 0
M  V30 4511 H 414.529 -1.51261 0.480199 0
M  V30 4512 H 414.55 -3.58002 -1.28898 0
M  V30 4513 H 414.062 -3.84652 0.516196 0
M  V30 4514 H 412.163 -3.22308 -1.86945 0
M  V30 4515 H 412.276 -4.73312 -0.742469 0
M  V30 4516 H 410.64 -2.49942 -0.490021 0
M  V30 4517 H 411.423 -3.28926 0.982994 0
M  V30 4518 N 413.868 0.0150385 -1.57593 0
M  V30 4519 C 415.145 0.7392 -1.81094 0
M  V30 4520 C 415.525 1.92817 -0.859344 0
M  V30 4521 O 414.873 2.28301 0.095362 0
M  V30 4522 C 415.083 1.15907 -3.29191 0
M  V30 4523 C 416.431 1.56918 -3.9454 0
M  V30 4524 O 417.455 1.25328 -3.33424 0
M  V30 4525 O 416.314 2.15604 -5.02173 0
M  V30 4526 H 413.408 0.358631 -0.745193 0
M  V30 4527 H 415.954 -0.00926156 -1.69697 0
M  V30 4528 H 414.726 0.310921 -3.90063 0
M  V30 4529 H 414.349 1.96711 -3.45529 0
M  V30 4530 N 415.346 1.54954 0.287554 0
M  V30 4531 C 416.278 1.83224 1.37701 0
M  V30 4532 C 417.291 0.715898 1.46215 0
M  V30 4533 O 418.48 0.993565 1.48292 0
M  V30 4534 C 415.58 1.96723 2.75959 0
M  V30 4535 C 414.753 3.27253 2.90215 0
M  V30 4536 C 413.812 3.30998 4.09056 0
M  V30 4537 O 412.838 4.04457 4.00503 0
M  V30 4538 N 414.04 2.57353 5.20336 0
M  V30 4539 H 416.805 2.77254 1.138 0
M  V30 4540 H 414.366 1.54694 0.477652 0
M  V30 4541 H 416.358 1.96615 3.5373 0
M  V30 4542 H 414.928 1.09626 2.92747 0
M  V30 4543 H 414.148 3.40022 1.99447 0
M  V30 4544 H 415.436 4.13365 2.96659 0
M  V30 4545 H 414.834 1.97327 5.30169 0
M  V30 4546 H 413.391 2.62984 5.96391 0
M  V30 4547 N 416.824 -0.551391 1.4764 0
M  V30 4548 C 418.101 -1.31229 1.45046 0
M  V30 4549 C 418.481 -2.10563 0.150527 0
M  V30 4550 O 417.829 -2.11374 -0.867956 0
M  V30 4551 C 418.039 -2.21189 2.69956 0
M  V30 4552 C 419.387 -2.82021 3.1741 0
M  V30 4553 O 420.411 -2.31488 2.70724 0
M  V30 4554 O 419.27 -3.73885 3.98588 0
M  V30 4555 H 416.364 -0.591193 0.578291 0
M  V30 4556 H 418.91 -0.569813 1.59847 0
M  V30 4557 H 417.682 -1.62207 3.56096 0
M  V30 4558 H 417.305 -3.02722 2.57769 0
M  V30 4559 N 418.302 -1.35869 -0.798587 0
M  V30 4560 C 419.527 -1.32883 -1.59238 0
M  V30 4561 C 419.952 0.0894587 -1.87887 0
M  V30 4562 O 419.31 1.05869 -1.47178 0
M  V30 4563 C 419.358 -2.14892 -2.89575 0
M  V30 4564 O 418.462 -1.53512 -3.82763 0
M  V30 4565 H 417.803 -0.455236 -0.48338 0
M  V30 4566 H 420.333 -1.79024 -0.990539 0
M  V30 4567 H 420.343 -2.27139 -3.38928 0
M  V30 4568 H 419.018 -3.17998 -2.68049 0
M  V30 4569 H 417.595 -1.50153 -3.41334 0
M  V30 4570 N 419.78 1.02168 -1.19998 0
M  V30 4571 C 420.69 2.14069 -0.959774 0
M  V30 4572 C 421.706 1.73804 0.082655 0
M  V30 4573 O 422.882 2.01133 -0.103633 0
M  V30 4574 C 419.947 3.42936 -0.509459 0
M  V30 4575 C 419.008 3.97474 -1.62213 0
M  V30 4576 C 418.241 5.2019 -1.19321 0
M  V30 4577 O 418.464 5.70369 -0.0597726 0
M  V30 4578 O 417.398 5.67749 -1.99863 0
M  V30 4579 H 421.224 2.37199 -1.89658 0
M  V30 4580 H 418.809 1.12469 -0.983411 0
M  V30 4581 H 420.691 4.20551 -0.267322 0
M  V30 4582 H 419.366 3.21234 0.398821 0
M  V30 4583 H 418.273 3.21161 -1.9185 0
M  V30 4584 H 419.606 4.23555 -2.50723 0
M  V30 4585 N 421.258 1.00505 1.21394 0
M  V30 4586 C 422.188 0.585684 2.26035 0
M  V30 4587 C 423.169 -0.393525 1.65485 0
M  V30 4588 O 424.354 -0.281497 1.92149 0
M  V30 4589 C 421.484 -0.0884283 3.47187 0
M  V30 4590 C 420.438 0.810567 4.20254 0
M  V30 4591 C 419.764 0.00286382 5.347 0
M  V30 4592 C 421.064 2.1132 4.77641 0
M  V30 4593 H 422.758 1.46039 2.61368 0
M  V30 4594 H 420.304 0.703648 1.25638 0
M  V30 4595 H 422.257 -0.393286 4.19561 0
M  V30 4596 H 420.981 -0.997766 3.10986 0
M  V30 4597 H 419.64 1.09925 3.49731 0
M  V30 4598 H 419.288 -0.907765 4.94741 0
M  V30 4599 H 418.988 0.601444 5.84514 0
M  V30 4600 H 420.512 -0.295808 6.09883 0
M  V30 4601 H 421.926 1.87148 5.41893 0
M  V30 4602 H 420.323 2.66164 5.37845 0
M  V30 4603 H 421.393 2.78393 3.9702 0
M  V30 4604 N 422.737 -1.36956 0.779787 0
M  V30 4605 C 423.667 -2.32761 0.185651 0
M  V30 4606 C 424.648 -1.56177 -0.673989 0
M  V30 4607 O 425.833 -1.84378 -0.609797 0
M  V30 4608 C 422.963 -3.40418 -0.687964 0
M  V30 4609 C 421.917 -4.27941 0.0710102 0
M  V30 4610 C 421.243 -5.26681 -0.922573 0
M  V30 4611 C 422.543 -5.07006 1.25467 0
M  V30 4612 H 424.237 -2.82698 0.986008 0
M  V30 4613 H 421.783 -1.3592 0.475592 0
M  V30 4614 H 423.736 -4.06423 -1.11348 0
M  V30 4615 H 422.46 -2.89025 -1.52093 0
M  V30 4616 H 421.119 -3.63478 0.47739 0
M  V30 4617 H 420.767 -4.71565 -1.7503 0
M  V30 4618 H 420.467 -5.86103 -0.419237 0
M  V30 4619 H 421.991 -5.9556 -1.34686 0
M  V30 4620 H 423.405 -5.66105 0.905401 0
M  V30 4621 H 421.802 -5.75793 1.69063 0
M  V30 4622 H 422.872 -4.3921 2.05481 0
M  V30 4623 N 424.215 -0.530993 -1.48385 0
M  V30 4624 C 425.44 0.000729535 -2.074 0
M  V30 4625 C 425.865 1.27298 -1.3848 0
M  V30 4626 O 425.223 1.75599 -0.451081 0
M  V30 4627 C 425.271 0.206697 -3.60007 0
M  V30 4628 O 424.375 1.27514 -3.92191 0
M  V30 4629 H 423.716 -0.039583 -0.662819 0
M  V30 4630 H 426.246 -0.739194 -1.9078 0
M  V30 4631 H 426.256 0.42904 -4.05738 0
M  V30 4632 H 424.931 -0.722675 -4.09573 0
M  V30 4633 H 423.508 1.03537 -3.58238 0
M  V30 4634 N 425.693 1.55336 -0.266172 0
M  V30 4635 C 426.97 1.91372 0.404486 0
M  V30 4636 C 427.35 1.18935 1.74407 0
M  V30 4637 O 426.698 0.3132 2.26343 0
M  V30 4638 C 426.908 3.44581 0.553593 0
M  V30 4639 C 428.256 4.16196 0.840618 0
M  V30 4640 O 429.28 3.50426 0.638739 0
M  V30 4641 O 428.139 5.32567 1.22618 0
M  V30 4642 H 425.233 0.797194 0.220025 0
M  V30 4643 H 427.779 1.66813 -0.311664 0
M  V30 4644 H 426.551 3.89357 -0.389498 0
M  V30 4645 H 426.174 3.75065 1.31955 0
M  V30 4646 N 427.171 -0.0066808 1.57599 0
M  V30 4647 C 428.119 -1.01851 2.09115 0
M  V30 4648 C 429.113 -1.36021 1.00969 0
M  V30 4649 O 430.319 -1.34663 1.19439 0
M  V30 4650 H 426.694 -0.346083 0.667631 0
M  V30 4651 H 428.665 -0.558394 2.93129 0
M  V30 4652 C 427.414 -2.30374 2.60429 0
M  V30 4653 H 426.737 -2.04947 3.43273 0
M  V30 4654 H 428.177 -2.99466 3.00161 0
M  V30 4655 C 426.636 -3.00893 1.51542 0
M  V30 4656 O 427.166 -3.91614 0.894484 0
M  V30 4657 N 425.372 -2.62603 1.2445 0
M  V30 4658 H 424.919 -1.88911 1.75129 0
M  V30 4659 H 424.877 -3.10101 0.518137 0
M  V30 4660 N 428.649 -1.55105 -0.279332 0
M  V30 4661 C 429.599 -1.83937 -1.34727 0
M  V30 4662 C 430.583 -0.69785 -1.44979 0
M  V30 4663 O 431.775 -0.95904 -1.48766 0
M  V30 4664 C 428.904 -2.1092 -2.70864 0
M  V30 4665 C 427.99 -3.31314 -2.64748 0
M  V30 4666 N 428.381 -4.51371 -2.2825 0
M  V30 4667 C 426.679 -3.33777 -2.95819 0
M  V30 4668 C 427.38 -5.33447 -2.31969 0
M  V30 4669 N 426.356 -4.71697 -2.7019 0
M  V30 4670 H 430.158 -2.74309 -1.05506 0
M  V30 4671 H 427.672 -1.54896 -0.487959 0
M  V30 4672 H 429.669 -2.2973 -3.47893 0
M  V30 4673 H 428.329 -1.21828 -3.00979 0
M  V30 4674 H 429.34 -4.77584 -2.00335 0
M  V30 4675 H 426.017 -2.54858 -3.30687 0
M  V30 4676 H 427.407 -6.39424 -2.06365 0
M  V30 4677 N 430.127 0.543554 -1.4793 0
M  V30 4678 C 431.376 1.29649 -1.54512 0
M  V30 4679 C 431.689 1.94382 -0.217973 0
M  V30 4680 O 432.895 2.71017 -0.161908 0
M  V30 4681 C 431.351 2.35175 -2.72435 0
M  V30 4682 C 430.959 1.76572 -4.11736 0
M  V30 4683 C 432.703 3.11564 -2.8832 0
M  V30 4684 C 430.61 2.79958 -5.20939 0
M  V30 4685 H 429.54 0.487541 -0.57517 0
M  V30 4686 H 432.191 0.575708 -1.74235 0
M  V30 4687 H 430.573 3.10229 -2.46118 0
M  V30 4688 H 431.747 1.07799 -4.48013 0
M  V30 4689 H 430.062 1.12722 -4.00852 0
M  V30 4690 H 432.659 3.88794 -3.67074 0
M  V30 4691 H 433.002 3.66594 -1.97268 0
M  V30 4692 H 433.535 2.43623 -3.14472 0
M  V30 4693 H 430.274 2.29766 -6.13912 0
M  V30 4694 H 429.794 3.47101 -4.89164 0
M  V30 4695 H 431.473 3.43198 -5.48474 0
M  V30 4696 N 431.605 1.3629 0.791371 0
M  V30 4697 C 432.535 1.33137 1.91825 0
M  V30 4698 C 433.516 0.203168 1.68882 0
M  V30 4699 O 434.701 0.400509 1.90025 0
M  V30 4700 C 431.831 1.11793 3.28816 0
M  V30 4701 C 430.785 2.21417 3.66277 0
M  V30 4702 C 430.111 1.85218 5.01596 0
M  V30 4703 C 431.411 3.63489 3.75064 0
M  V30 4704 H 433.105 2.2743 1.9472 0
M  V30 4705 H 430.651 1.09479 0.935437 0
M  V30 4706 H 432.604 1.08222 4.07266 0
M  V30 4707 H 431.328 0.139501 3.26302 0
M  V30 4708 H 429.987 2.2411 2.90121 0
M  V30 4709 H 429.635 0.859544 4.95602 0
M  V30 4710 H 429.335 2.58611 5.27631 0
M  V30 4711 H 430.859 1.832 5.82469 0
M  V30 4712 H 432.273 3.63034 4.43711 0
M  V30 4713 H 430.67 4.35771 4.12582 0
M  V30 4714 H 431.74 3.98536 2.76219 0
M  V30 4715 N 433.083 -1.0153 1.20538 0
M  V30 4716 C 434.311 -1.78746 1.04199 0
M  V30 4717 C 434.726 -1.84323 -0.408733 0
M  V30 4718 O 434.083 -1.29714 -1.28377 0
M  V30 4719 C 434.134 -3.23152 1.62035 0
M  V30 4720 O 433.855 -3.17918 3.0143 0
M  V30 4721 C 435.356 -4.16911 1.50666 0
M  V30 4722 H 432.576 -0.56208 0.366479 0
M  V30 4723 H 435.12 -1.27794 1.59653 0
M  V30 4724 H 433.275 -3.71248 1.10697 0
M  V30 4725 H 433.689 -4.08567 3.28897 0
M  V30 4726 H 435.163 -5.16072 1.95892 0
M  V30 4727 H 435.64 -4.36791 0.459363 0
M  V30 4728 H 436.246 -3.74698 2.01201 0
M  V30 4729 N 434.561 -1.01147 -1.20859 0
M  V30 4730 C 435.789 -0.716911 -1.94082 0
M  V30 4731 C 436.204 0.721568 -1.74467 0
M  V30 4732 O 435.561 1.48889 -1.05539 0
M  V30 4733 C 435.612 -1.03662 -3.46318 0
M  V30 4734 O 435.333 -2.4186 -3.65288 0
M  V30 4735 C 436.834 -0.762386 -4.36695 0
M  V30 4736 H 434.054 -0.26367 -0.617024 0
M  V30 4737 H 436.598 -1.35127 -1.53496 0
M  V30 4738 H 434.753 -0.447757 -3.84804 0
M  V30 4739 H 435.167 -2.53224 -4.59323 0
M  V30 4740 H 436.641 -1.03621 -5.42187 0
M  V30 4741 H 437.118 0.303514 -4.3815 0
M  V30 4742 H 437.724 -1.33316 -4.03865 0
M  V30 4743 N 436.039 1.36541 -0.78704 0
M  V30 4744 C 437.288 1.98552 -0.35494 0
M  V30 4745 C 437.601 1.63171 1.07864 0
M  V30 4746 O 438.807 2.18399 1.61289 0
M  V30 4747 C 437.263 3.55136 -0.583671 0
M  V30 4748 C 436.871 3.99444 -2.02851 0
M  V30 4749 C 438.615 4.2395 -0.215957 0
M  V30 4750 C 436.522 5.48796 -2.20403 0
M  V30 4751 H 435.452 0.742888 -0.128972 0
M  V30 4752 H 438.103 1.5587 -0.968337 0
M  V30 4753 H 436.485 3.95875 0.0994046 0
M  V30 4754 H 437.659 3.6991 -2.74779 0
M  V30 4755 H 435.974 3.43459 -2.35425 0
M  V30 4756 H 438.571 5.33709 -0.325405 0
M  V30 4757 H 438.914 4.07827 0.835646 0
M  V30 4758 H 439.447 3.88565 -0.852175 0
M  V30 4759 H 436.186 5.69864 -3.23937 0
M  V30 4760 H 435.706 5.79964 -1.52977 0
M  V30 4761 H 437.385 6.14986 -2.01002 0
M  V30 4762 N 437.518 0.538854 1.48102 0
M  V30 4763 C 438.766 0.00798599 2.02098 0
M  V30 4764 C 439.087 -1.33922 1.41739 0
M  V30 4765 O 438.357 -1.86932 0.585934 0
M  V30 4766 H 436.937 -3.62179e-05 0.747 0
M  V30 4767 H 439.599 0.7047 1.81714 0
M  V30 4768 H 438.695 -0.0937672 3.11959 0
M  V30 4769 N 438.996 -1.55193 0.274407 0
M  V30 4770 C 440.273 -1.91584 -0.394331 0
M  V30 4771 C 440.653 -1.19858 -1.73774 0
M  V30 4772 O 440.001 -0.3252 -2.26174 0
M  V30 4773 C 440.211 -3.4487 -0.535311 0
M  V30 4774 C 441.559 -4.16636 -0.818534 0
M  V30 4775 O 442.583 -3.5076 -0.620146 0
M  V30 4776 O 441.442 -5.33209 -1.19792 0
M  V30 4777 H 438.536 -0.798349 -0.215794 0
M  V30 4778 H 441.082 -1.66646 0.320507 0
M  V30 4779 H 439.854 -3.89145 0.410141 0
M  V30 4780 H 439.477 -3.75759 -1.29964 0
M  V30 4781 N 440.474 -0.00167713 -1.576 0
M  V30 4782 C 441.723 0.682021 -1.89819 0
M  V30 4783 C 442.036 1.74844 -0.876871 0
M  V30 4784 O 443.242 2.48688 -1.08934 0
M  V30 4785 C 441.698 1.26425 -3.36964 0
M  V30 4786 C 441.306 0.232568 -4.47396 0
M  V30 4787 C 443.05 1.92604 -3.78291 0
M  V30 4788 C 440.957 0.824882 -5.85619 0
M  V30 4789 H 439.887 0.258499 -0.708304 0
M  V30 4790 H 442.538 -0.0624957 -1.83394 0
M  V30 4791 H 440.92 2.05949 -3.38232 0
M  V30 4792 H 442.094 -0.5382 -4.57646 0
M  V30 4793 H 440.409 -0.32888 -4.15099 0
M  V30 4794 H 443.006 2.37827 -4.78897 0
M  V30 4795 H 443.349 2.75732 -3.11894 0
M  V30 4796 H 443.882 1.19812 -3.79328 0
M  V30 4797 H 440.621 0.0323542 -6.55492 0
M  V30 4798 H 440.141 1.56477 -5.79029 0
M  V30 4799 H 441.82 1.32301 -6.33329 0
M  V30 4800 N 441.952 1.55251 0.271103 0
M  V30 4801 C 443.199 1.75946 1.00245 0
M  V30 4802 C 443.527 0.561611 1.86215 0
M  V30 4803 O 442.782 -0.455832 1.90317 0
M  V30 4804 C 443.081 3.01879 1.91321 0
M  V30 4805 C 442.747 4.34337 1.21086 0
M  V30 4806 C 441.409 4.70338 1.01666 0
M  V30 4807 C 443.761 5.16325 0.71119 0
M  V30 4808 C 441.089 5.8588 0.310099 0
M  V30 4809 C 443.441 6.32597 0.0182157 0
M  V30 4810 C 442.105 6.67236 -0.18768 0
M  V30 4811 H 441.375 0.643833 0.366824 0
M  V30 4812 H 444.022 1.89521 0.27458 0
M  V30 4813 H 442.327 2.83212 2.70736 0
M  V30 4814 H 444.024 3.15088 2.48033 0
M  V30 4815 H 440.614 4.06043 1.37213 0
M  V30 4816 H 444.798 4.88987 0.848844 0
M  V30 4817 H 440.054 6.1124 0.139873 0
M  V30 4818 H 444.228 6.9538 -0.376711 0
M  V30 4819 H 441.855 7.56618 -0.73715 0
M  V30 4820 N 443.43 -0.535701 1.48216 0
M  V30 4821 C 444.678 -1.28928 1.55634 0
M  V30 4822 C 444.999 -1.93645 0.229514 0
M  V30 4823 O 444.269 -1.81038 -0.74846 0
M  V30 4824 H 442.849 -0.47884 0.573342 0
M  V30 4825 H 445.511 -0.623853 1.84646 0
M  V30 4826 H 444.607 -2.07157 2.33436 0
M  V30 4827 N 444.908 -1.36708 -0.784132 0
M  V30 4828 C 445.871 -1.31307 -1.87859 0
M  V30 4829 C 446.871 -0.219654 -1.59293 0
M  V30 4830 O 448.061 -0.47476 -1.67606 0
M  V30 4831 C 445.193 -1.03679 -3.24751 0
M  V30 4832 H 446.386 -2.28647 -1.94064 0
M  V30 4833 H 443.939 -1.21558 -0.98252 0
M  V30 4834 H 444.674 -0.0681936 -3.24228 0
M  V30 4835 H 444.459 -1.82811 -3.46876 0
M  V30 4836 H 445.949 -1.02518 -4.04821 0
M  V30 4837 N 446.386 1.0089 -1.21074 0
M  V30 4838 C 447.634 1.74262 -1.02358 0
M  V30 4839 C 447.955 1.89869 0.444393 0
M  V30 4840 O 447.225 1.44677 1.32081 0
M  V30 4841 H 445.805 0.645615 -0.375754 0
M  V30 4842 H 448.467 1.21596 -1.52317 0
M  V30 4843 H 447.563 2.74328 -1.4883 0
M  V30 4844 N 447.864 1.01787 1.20321 0
M  V30 4845 C 449.11 0.708985 1.90003 0
M  V30 4846 C 449.443 -0.759572 1.78729 0
M  V30 4847 O 448.718 -1.55198 1.17234 0
M  V30 4848 C 449.001 1.1469 3.41348 0
M  V30 4849 C 448.854 2.67586 3.61549 0
M  V30 4850 C 450.173 0.71915 4.34185 0
M  V30 4851 H 447.292 0.259034 0.689978 0
M  V30 4852 H 449.934 1.26584 1.41692 0
M  V30 4853 H 448.084 0.673128 3.82624 0
M  V30 4854 H 449.756 3.22826 3.29517 0
M  V30 4855 H 447.999 3.085 3.04976 0
M  V30 4856 H 448.67 2.93281 4.67643 0
M  V30 4857 H 451.146 1.12647 4.00562 0
M  V30 4858 H 450.022 1.05358 5.38694 0
M  V30 4859 H 450.283 -0.379111 4.40472 0
M  V30 4860 N 449.342 -1.36122 0.79427 0
M  V30 4861 C 450.252 -2.33769 0.197296 0
M  V30 4862 C 451.268 -1.61276 -0.653153 0
M  V30 4863 O 452.444 -1.9323 -0.5678 0
M  V30 4864 C 449.509 -3.40474 -0.654098 0
M  V30 4865 C 448.57 -4.28759 0.215411 0
M  V30 4866 C 447.803 -5.30368 -0.595443 0
M  V30 4867 O 448.026 -5.40211 -1.83107 0
M  V30 4868 O 446.96 -6.019 0.00721351 0
M  V30 4869 H 450.786 -2.86597 1.00478 0
M  V30 4870 H 448.371 -1.38676 0.555818 0
M  V30 4871 H 450.253 -4.05703 -1.13944 0
M  V30 4872 H 448.928 -2.89937 -1.43938 0
M  V30 4873 H 447.835 -3.66554 0.747615 0
M  V30 4874 H 449.168 -4.82661 0.964332 0
M  V30 4875 N 450.82 -0.546701 -1.47814 0
M  V30 4876 C 452.048 -0.0232857 -2.06887 0
M  V30 4877 C 452.463 1.26571 -1.4009 0
M  V30 4878 O 451.82 1.7569 -0.493906 0
M  V30 4879 C 451.871 0.186975 -3.61016 0
M  V30 4880 O 451.592 -1.05097 -4.25307 0
M  V30 4881 C 453.093 0.748872 -4.36929 0
M  V30 4882 H 450.313 -0.0410763 -0.669742 0
M  V30 4883 H 452.857 -0.757117 -1.89968 0
M  V30 4884 H 451.012 0.870903 -3.77484 0
M  V30 4885 H 451.426 -0.842121 -5.17695 0
M  V30 4886 H 452.9 0.845334 -5.45489 0
M  V30 4887 H 453.377 1.75772 -4.02493 0
M  V30 4888 H 453.983 0.100979 -4.2518 0
M  V30 4889 N 452.299 1.55045 -0.282633 0
M  V30 4890 C 453.527 2.04168 0.33512 0
M  V30 4891 C 453.942 1.16071 1.48906 0
M  V30 4892 O 453.299 0.182391 1.81586 0
M  V30 4893 C 453.35 3.52332 0.808957 0
M  V30 4894 O 453.071 4.37078 -0.299038 0
M  V30 4895 C 454.572 4.17375 1.49375 0
M  V30 4896 H 451.792 0.666744 0.0754543 0
M  V30 4897 H 454.336 2.00205 -0.416918 0
M  V30 4898 H 452.491 3.56715 1.51106 0
M  V30 4899 H 452.905 5.24458 0.0665514 0
M  V30 4900 H 454.379 5.22627 1.77664 0
M  V30 4901 H 454.856 3.65999 2.42778 0
M  V30 4902 H 455.462 4.17016 0.835305 0
M  V30 4903 N 453.777 0.010035 1.57597 0
M  V30 4904 C 455.005 -0.683413 1.95287 0
M  V30 4905 C 455.42 -1.66747 0.885481 0
M  V30 4906 O 454.777 -1.82003 -0.134629 0
M  V30 4907 C 454.828 -1.40652 3.33015 0
M  V30 4908 O 454.549 -0.461916 4.35658 0
M  V30 4909 C 456.05 -2.19356 3.85225 0
M  V30 4910 H 453.27 -0.189708 0.643624 0
M  V30 4911 H 455.814 0.0641359 2.04399 0
M  V30 4912 H 453.969 -2.10562 3.2518 0
M  V30 4913 H 454.383 -0.973215 5.15392 0
M  V30 4914 H 455.857 -2.65433 4.83993 0
M  V30 4915 H 456.334 -3.02457 3.18459 0
M  V30 4916 H 456.94 -1.54442 3.96267 0
M  V30 4917 N 455.255 -1.55392 -0.262866 0
M  V30 4918 C 456.48 -1.80847 -1.01533 0
M  V30 4919 C 456.905 -0.584946 -1.78774 0
M  V30 4920 O 456.263 0.465701 -1.75217 0
M  V30 4921 C 456.311 -3.03866 -1.94159 0
M  V30 4922 O 455.415 -2.79662 -3.03089 0
M  V30 4923 H 454.756 -0.597441 -0.289759 0
M  V30 4924 H 457.286 -2.02553 -0.288698 0
M  V30 4925 H 457.296 -3.32872 -2.35924 0
M  V30 4926 H 455.971 -3.92564 -1.37354 0
M  V30 4927 H 454.548 -2.61781 -2.65566 0
M  V30 4928 N 456.733 0.527833 -1.48498 0
M  V30 4929 C 457.979 1.28545 -1.56857 0
M  V30 4930 C 458.312 1.92678 -0.242651 0
M  V30 4931 O 457.587 1.79394 0.751545 0
M  V30 4932 C 457.87 2.37314 -2.70839 0
M  V30 4933 C 457.723 1.77858 -4.13142 0
M  V30 4934 C 459.042 3.39068 -2.80573 0
M  V30 4935 H 456.161 0.466006 -0.570971 0
M  V30 4936 H 458.803 0.587784 -1.8068 0
M  V30 4937 H 456.953 2.96821 -2.50658 0
M  V30 4938 H 458.625 1.22385 -4.44769 0
M  V30 4939 H 456.868 1.08383 -4.20042 0
M  V30 4940 H 457.539 2.56624 -4.88721 0
M  V30 4941 H 460.015 2.89518 -2.98862 0
M  V30 4942 H 458.891 4.12566 -3.6205 0
M  V30 4943 H 459.152 3.9975 -1.88818 0
M  V30 4944 N 458.211 1.37122 0.776871 0
M  V30 4945 C 459.457 1.32243 1.53752 0
M  V30 4946 C 459.79 -0.0944745 1.9397 0
M  V30 4947 O 459.065 -1.05068 1.6368 0
M  V30 4948 C 459.348 2.25681 2.80607 0
M  V30 4949 C 459.201 3.76127 2.46676 0
M  V30 4950 C 460.52 2.17657 3.82509 0
M  V30 4951 H 457.639 0.481704 0.557791 0
M  V30 4952 H 460.281 1.6778 0.891612 0
M  V30 4953 H 458.431 1.95505 3.35723 0
M  V30 4954 H 460.103 4.16877 1.97513 0
M  V30 4955 H 458.346 3.94946 1.79443 0
M  V30 4956 H 459.017 4.36933 3.37333 0
M  V30 4957 H 461.493 2.44245 3.36873 0
M  V30 4958 H 460.369 2.85185 4.69 0
M  V30 4959 H 460.63 1.16785 4.26396 0
M  V30 4960 N 459.689 -1.00246 1.21608 0
M  V30 4961 C 460.636 -2.09073 0.977613 0
M  V30 4962 C 461.606 -1.65815 -0.097297 0
M  V30 4963 O 462.791 -1.90734 0.0503445 0
M  V30 4964 C 459.931 -3.40671 0.551133 0
M  V30 4965 C 459.044 -3.97326 1.69576 0
M  V30 4966 C 458.179 -5.17043 1.2182 0
M  V30 4967 C 457.218 -5.65813 2.335 0
M  V30 4968 N 456.355 -6.76778 1.86859 0
M  V30 4969 H 461.195 -2.28806 1.90924 0
M  V30 4970 H 458.732 -1.12186 0.951452 0
M  V30 4971 H 460.69 -4.16225 0.285097 0
M  V30 4972 H 459.32 -3.20967 -0.343489 0
M  V30 4973 H 458.372 -3.18734 2.07637 0
M  V30 4974 H 459.684 -4.29511 2.53617 0
M  V30 4975 H 458.838 -5.99852 0.908975 0
M  V30 4976 H 457.577 -4.86458 0.347869 0
M  V30 4977 H 456.582 -4.81599 2.65222 0
M  V30 4978 H 457.807 -5.98427 3.21033 0
M  V30 4979 H 455.753 -6.47994 1.02174 0
M  V30 4980 H 455.67 -7.08231 2.64471 0
M  V30 4981 H 456.938 -7.63116 1.58978 0
M  V30 4982 N 461.167 -1.02423 -1.1978 0
M  V30 4983 C 462.413 -0.72878 -1.89896 0
M  V30 4984 C 462.768 0.734248 -1.77839 0
M  V30 4985 O 462.061 1.52733 -1.15685 0
M  V30 4986 C 462.255 -1.1088 -3.39765 0
M  V30 4987 C 462.084 -2.60722 -3.66407 0
M  V30 4988 C 460.854 -3.27623 -3.84696 0
M  V30 4989 C 463.052 -3.58924 -3.68345 0
M  V30 4990 N 461.034 -4.66617 -3.98926 0
M  V30 4991 C 462.405 -4.83514 -3.8809 0
M  V30 4992 C 464.46 -3.52788 -3.51347 0
M  V30 4993 C 463.163 -6.0271 -3.92598 0
M  V30 4994 C 465.189 -4.71394 -3.5713 0
M  V30 4995 C 464.551 -5.94796 -3.77356 0
M  V30 4996 H 460.65 -0.318473 -0.714212 0
M  V30 4997 H 463.234 -1.3106 -1.43984 0
M  V30 4998 H 461.405 -0.555233 -3.84411 0
M  V30 4999 H 463.137 -0.766082 -3.97383 0
M  V30 5000 H 459.892 -2.7804 -3.83393 0
M  V30 5001 H 460.316 -5.38805 -4.099 0
M  V30 5002 H 464.958 -2.58372 -3.3467 0
M  V30 5003 H 462.676 -6.97499 -4.08069 0
M  V30 5004 H 466.262 -4.6827 -3.45275 0
M  V30 5005 H 465.142 -6.85037 -3.81699 0
M  V30 5006 N 462.645 1.35699 -0.801477 0
M  V30 5007 C 463.873 2.03157 -0.391768 0
M  V30 5008 C 464.288 1.60412 0.995668 0
M  V30 5009 O 463.645 0.799228 1.64069 0
M  V30 5010 C 463.696 3.58566 -0.459671 0
M  V30 5011 O 463.417 3.99756 -1.7924 0
M  V30 5012 C 464.918 4.4328 -0.0421205 0
M  V30 5013 H 462.138 0.651688 -0.159825 0
M  V30 5014 H 464.682 1.73426 -1.08368 0
M  V30 5015 H 462.837 3.86963 0.183939 0
M  V30 5016 H 463.251 4.94387 -1.75162 0
M  V30 5017 H 464.725 5.51821 -0.140754 0
M  V30 5018 H 465.202 4.27383 1.01196 0
M  V30 5019 H 465.808 4.20168 -0.658687 0
M  V30 5020 N 464.123 0.554532 1.47522 0
M  V30 5021 C 465.053 -0.182974 2.32782 0
M  V30 5022 C 466.034 -0.911377 1.43624 0
M  V30 5023 O 467.219 -0.892366 1.72483 0
M  V30 5024 C 464.349 -1.21513 3.25349 0
M  V30 5025 C 463.303 -0.603355 4.23726 0
M  V30 5026 C 462.629 -1.73995 5.05598 0
M  V30 5027 C 463.929 0.441121 5.20434 0
M  V30 5028 H 465.623 0.52882 2.94693 0
M  V30 5029 H 463.169 0.255759 1.41711 0
M  V30 5030 H 465.122 -1.73922 3.83835 0
M  V30 5031 H 463.846 -1.95683 2.61487 0
M  V30 5032 H 462.505 -0.10059 3.66462 0
M  V30 5033 H 462.153 -2.47063 4.38143 0
M  V30 5034 H 461.853 -1.3364 5.72201 0
M  V30 5035 H 463.377 -2.26735 5.66942 0
M  V30 5036 H 464.791 0.00319931 5.733 0
M  V30 5037 H 463.188 0.763402 5.95224 0
M  V30 5038 H 464.258 1.33799 4.66075 0
M  V30 5039 N 465.601 -1.54893 0.290851 0
M  V30 5040 C 466.564 -2.21824 -0.576784 0
M  V30 5041 C 467.564 -1.20104 -1.06919 0
M  V30 5042 O 468.754 -1.44906 -0.966843 0
M  V30 5043 C 465.886 -2.89662 -1.79747 0
M  V30 5044 H 467.079 -2.99899 0.00784051 0
M  V30 5045 H 464.632 -1.56245 0.0415934 0
M  V30 5046 H 465.367 -2.15639 -2.42219 0
M  V30 5047 H 465.152 -3.64219 -1.45214 0
M  V30 5048 H 466.642 -3.4075 -2.4141 0
M  V30 5049 N 467.08 -0.0183926 -1.57589 0
M  V30 5050 C 468.327 0.662562 -1.91354 0
M  V30 5051 C 468.655 1.72747 -0.893788 0
M  V30 5052 O 467.91 1.9545 0.0988509 0
M  V30 5053 C 468.209 1.32676 -3.31861 0
M  V30 5054 C 467.875 0.393267 -4.49182 0
M  V30 5055 C 466.537 0.136302 -4.81007 0
M  V30 5056 C 468.889 -0.248366 -5.20608 0
M  V30 5057 C 466.217 -0.770282 -5.81621 0
M  V30 5058 C 468.569 -1.14294 -6.22189 0
M  V30 5059 C 467.233 -1.4089 -6.52462 0
M  V30 5060 H 466.503 0.242448 -0.700214 0
M  V30 5061 H 469.15 -0.0778629 -1.91342 0
M  V30 5062 H 467.455 2.14168 -3.28084 0
M  V30 5063 H 469.152 1.86001 -3.55253 0
M  V30 5064 H 465.742 0.603723 -4.24327 0
M  V30 5065 H 469.926 -0.062883 -4.9626 0
M  V30 5066 H 465.182 -0.984154 -6.03427 0
M  V30 5067 H 469.356 -1.64637 -6.76659 0
M  V30 5068 H 466.983 -2.11306 -7.30242 0
M  V30 5069 N 468.558 1.5553 0.254621 0
M  V30 5070 C 469.488 1.9268 1.31897 0
M  V30 5071 C 470.469 0.790797 1.506 0
M  V30 5072 O 471.654 1.05045 1.63337 0
M  V30 5073 C 468.784 2.21477 2.67517 0
M  V30 5074 C 467.738 3.37256 2.63519 0
M  V30 5075 C 467.064 3.51576 4.02862 0
M  V30 5076 C 468.364 4.73157 2.21179 0
M  V30 5077 H 470.058 2.81832 1.01051 0
M  V30 5078 H 467.604 1.35599 0.484662 0
M  V30 5079 H 469.557 2.46055 3.42104 0
M  V30 5080 H 468.281 1.29144 2.99982 0
M  V30 5081 H 466.94 3.12675 1.9139 0
M  V30 5082 H 466.588 2.56676 4.32581 0
M  V30 5083 H 466.288 4.2943 4.01078 0
M  V30 5084 H 467.812 3.78467 4.79161 0
M  V30 5085 H 469.226 4.97158 2.85494 0
M  V30 5086 H 467.623 5.54058 2.30521 0
M  V30 5087 H 468.693 4.70739 1.16332 0
M  V30 5088 N 470.036 -0.519951 1.48776 0
M  V30 5089 C 470.966 -1.63253 1.66945 0
M  V30 5090 C 471.947 -1.62014 0.518224 0
M  V30 5091 O 473.132 -1.79053 0.751919 0
M  V30 5092 C 470.262 -3.0181 1.71836 0
M  V30 5093 C 469.216 -3.17911 2.8656 0
M  V30 5094 C 468.542 -4.5763 2.76548 0
M  V30 5095 C 469.842 -2.99729 4.27738 0
M  V30 5096 H 471.536 -1.48302 2.6009 0
M  V30 5097 H 469.082 -0.712026 1.25165 0
M  V30 5098 H 471.035 -3.79525 1.83135 0
M  V30 5099 H 469.759 -3.17806 0.752775 0
M  V30 5100 H 468.418 -2.42616 2.74833 0
M  V30 5101 H 468.066 -4.70476 1.77937 0
M  V30 5102 H 467.766 -4.69346 3.53536 0
M  V30 5103 H 469.29 -5.37431 2.89828 0
M  V30 5104 H 470.704 -3.67228 4.40246 0
M  V30 5105 H 469.101 -3.22932 5.05801 0
M  V30 5106 H 470.171 -1.96047 4.43502 0
M  V30 5107 N 471.514 -1.37532 -0.769588 0
M  V30 5108 C 472.464 -1.29984 -1.87318 0
M  V30 5109 C 473.448 -0.187242 -1.59807 0
M  V30 5110 O 474.64 -0.421827 -1.719 0
M  V30 5111 C 471.769 -1.11126 -3.24817 0
M  V30 5112 C 470.855 -2.26939 -3.58273 0
M  V30 5113 N 471.246 -3.52336 -3.62895 0
M  V30 5114 C 469.544 -2.19141 -3.8845 0
M  V30 5115 C 470.245 -4.28719 -3.9316 0
M  V30 5116 N 469.221 -3.57884 -4.0917 0
M  V30 5117 H 473.023 -2.24946 -1.89147 0
M  V30 5118 H 470.537 -1.30535 -0.966143 0
M  V30 5119 H 472.534 -1.03803 -4.0377 0
M  V30 5120 H 471.194 -0.17083 -3.2425 0
M  V30 5121 H 472.205 -3.86216 -3.45048 0
M  V30 5122 H 468.882 -1.33167 -3.95693 0
M  V30 5123 H 470.272 -5.37254 -4.03494 0
M  V30 5124 N 472.992 0.995999 -1.22138 0
M  V30 5125 C 473.94 2.10673 -0.985876 0
M  V30 5126 C 474.934 1.69255 0.0699553 0
M  V30 5127 O 476.14 1.79812 -0.0822176 0
M  V30 5128 H 472.515 0.688865 -0.30161 0
M  V30 5129 H 474.486 2.27711 -1.92848 0
M  V30 5130 C 473.235 3.42881 -0.576909 0
M  V30 5131 H 472.558 3.75191 -1.38101 0
M  V30 5132 H 473.998 4.21589 -0.451518 0
M  V30 5133 C 472.457 3.29265 0.713196 0
M  V30 5134 O 472.987 3.60777 1.76643 0
M  V30 5135 N 471.193 2.82456 0.683162 0
M  V30 5136 H 470.74 2.5701 -0.174242 0
M  V30 5137 H 470.698 2.73727 1.54663 0
M  V30 5138 N 474.47 1.03057 1.19235 0
M  V30 5139 C 475.881 0.757449 1.70645 0
M  V30 5140 C 476.232 -0.722735 1.82403 0
M  V30 5141 O 475.357 -1.56325 1.49638 0
M  V30 5142 C 475.952 1.36833 3.09939 0
M  V30 5143 C 474.511 1.14375 3.58602 0
M  V30 5144 C 473.658 1.46533 2.35422 0
M  V30 5145 H 476.609 1.19828 1.04052 0
M  V30 5146 H 476.63 0.766184 3.72706 0
M  V30 5147 H 476.142 2.44562 3.01349 0
M  V30 5148 H 474.243 0.0847542 3.72504 0
M  V30 5149 H 474.356 1.83366 4.42622 0
M  V30 5150 H 472.72 0.884712 2.38841 0
M  V30 5151 H 473.503 2.55349 2.2946 0
M  V30 5152 N 475.948 -1.35272 0.808662 0
M  V30 5153 C 476.88 -2.28507 0.178149 0
M  V30 5154 C 477.893 -1.50377 -0.623754 0
M  V30 5155 O 479.082 -1.72583 -0.455774 0
M  V30 5156 C 476.182 -3.30038 -0.769959 0
M  V30 5157 C 475.355 -4.37398 -0.0139749 0
M  V30 5158 C 474.414 -5.18775 -0.880875 0
M  V30 5159 O 473.44 -5.68236 -0.331059 0
M  V30 5160 N 474.642 -5.37087 -2.20267 0
M  V30 5161 H 477.407 -2.83255 0.979106 0
M  V30 5162 H 474.968 -1.47643 0.664308 0
M  V30 5163 H 476.96 -3.81371 -1.35418 0
M  V30 5164 H 475.53 -2.75789 -1.47171 0
M  V30 5165 H 474.75 -3.86971 0.751468 0
M  V30 5166 H 476.038 -5.06268 0.506965 0
M  V30 5167 H 475.436 -4.9855 -2.67328 0
M  V30 5168 H 473.993 -5.91593 -2.73608 0
M  V30 5169 N 477.426 -0.562348 -1.47226 0
M  V30 5170 C 478.672 -0.0402761 -2.0276 0
M  V30 5171 C 479.005 1.30823 -1.43523 0
M  V30 5172 O 478.28 1.85249 -0.592705 0
M  V30 5173 C 478.563 0.047311 -3.60069 0
M  V30 5174 C 478.416 -1.32865 -4.29729 0
M  V30 5175 C 479.735 0.758182 -4.3352 0
M  V30 5176 H 476.854 -0.0161105 -0.736824 0
M  V30 5177 H 479.496 -0.725628 -1.75598 0
M  V30 5178 H 477.646 0.630986 -3.83342 0
M  V30 5179 H 479.318 -1.95593 -4.17781 0
M  V30 5180 H 477.561 -1.90195 -3.89882 0
M  V30 5181 H 478.232 -1.22004 -5.38349 0
M  V30 5182 H 480.708 0.262546 -4.15271 0
M  V30 5183 H 479.584 0.78844 -5.43208 0
M  V30 5184 H 479.845 1.81537 -4.03109 0
M  V30 5185 N 478.904 1.54736 -0.299062 0
M  V30 5186 C 479.851 2.23448 0.577899 0
M  V30 5187 C 480.821 1.21637 1.13109 0
M  V30 5188 O 482.006 1.50252 1.17597 0
M  V30 5189 C 479.146 2.9774 1.74484 0
M  V30 5190 C 478.259 4.1432 1.22323 0
M  V30 5191 C 477.394 4.76199 2.35388 0
M  V30 5192 C 476.433 5.84927 1.80351 0
M  V30 5193 N 475.57 6.4077 2.86982 0
M  V30 5194 H 480.41 2.97996 -0.0146545 0
M  V30 5195 H 477.947 1.47088 -0.0190013 0
M  V30 5196 H 479.905 3.39045 2.43114 0
M  V30 5197 H 478.535 2.25572 2.30905 0
M  V30 5198 H 477.587 3.7797 0.429249 0
M  V30 5199 H 478.899 4.92659 0.780309 0
M  V30 5200 H 478.053 5.20346 3.11969 0
M  V30 5201 H 476.792 3.97188 2.83006 0
M  V30 5202 H 475.797 5.40207 1.02259 0
M  V30 5203 H 477.022 6.65821 1.3364 0
M  V30 5204 H 474.968 5.64643 3.33938 0
M  V30 5205 H 474.885 7.1445 2.4718 0
M  V30 5206 H 476.153 6.89574 3.63466 0
M  V30 5207 N 480.382 0.0267497 1.57577 0
M  V30 5208 C 481.329 -0.955894 2.10075 0
M  V30 5209 C 482.299 -1.32453 1.00226 0
M  V30 5210 O 483.484 -1.41826 1.27632 0
M  V30 5211 C 480.624 -2.2338 2.6305 0
M  V30 5212 C 479.737 -1.92183 3.86898 0
M  V30 5213 C 478.872 -3.14251 4.28275 0
M  V30 5214 C 477.911 -2.78862 5.44888 0
M  V30 5215 N 477.048 -3.93548 5.81433 0
M  V30 5216 H 481.888 -0.501303 2.93753 0
M  V30 5217 H 479.425 -0.235847 1.45197 0
M  V30 5218 H 481.383 -2.98124 2.91853 0
M  V30 5219 H 480.013 -2.6646 1.82205 0
M  V30 5220 H 479.065 -1.07692 3.64838 0
M  V30 5221 H 480.377 -1.62117 4.7172 0
M  V30 5222 H 479.531 -3.97317 4.58502 0
M  V30 5223 H 478.27 -3.47476 3.42215 0
M  V30 5224 H 477.275 -1.94208 5.14357 0
M  V30 5225 H 478.5 -2.46855 6.32645 0
M  V30 5226 H 476.446 -4.2662 4.98328 0
M  V30 5227 H 476.363 -3.67098 6.6089 0
M  V30 5228 H 477.631 -4.77325 6.16264 0
M  V30 5229 N 481.861 -1.55662 -0.24637 0
M  V30 5230 C 482.808 -1.90361 -1.30504 0
M  V30 5231 C 483.778 -0.757905 -1.47801 0
M  V30 5232 O 484.963 -1.01161 -1.61775 0
M  V30 5233 C 482.103 -2.2042 -2.65535 0
M  V30 5234 C 481.216 -3.47799 -2.56242 0
M  V30 5235 C 480.351 -3.67426 -3.8363 0
M  V30 5236 C 479.39 -4.88403 -3.68956 0
M  V30 5237 N 478.527 -5.04548 -4.88237 0
M  V30 5238 H 483.367 -2.80645 -1.00213 0
M  V30 5239 H 480.904 -1.38924 -0.483577 0
M  V30 5240 H 482.862 -2.35853 -3.44135 0
M  V30 5241 H 481.492 -1.3334 -2.93973 0
M  V30 5242 H 480.544 -3.40694 -1.69208 0
M  V30 5243 H 481.856 -4.36544 -2.4131 0
M  V30 5244 H 481.01 -3.82821 -4.70673 0
M  V30 5245 H 479.749 -2.76914 -4.01459 0
M  V30 5246 H 478.754 -4.72984 -2.80296 0
M  V30 5247 H 479.979 -5.80375 -3.52621 0
M  V30 5248 H 477.925 -4.16974 -5.06427 0
M  V30 5249 H 477.842 -5.87384 -4.75937 0
M  V30 5250 H 479.11 -5.24355 -5.76777 0
M  V30 5251 N 483.339 0.512053 -1.4905 0
M  V30 5252 C 484.269 1.62365 -1.67809 0
M  V30 5253 C 485.25 1.61737 -0.526809 0
M  V30 5254 O 486.435 1.78651 -0.761404 0
M  V30 5255 C 483.565 3.00895 -1.73435 0
M  V30 5256 C 482.519 3.16387 -2.88242 0
M  V30 5257 C 481.845 4.56157 -2.78971 0
M  V30 5258 C 483.145 2.97457 -4.29321 0
M  V30 5259 H 484.839 1.46921 -2.60873 0
M  V30 5260 H 482.385 0.705379 -1.2554 0
M  V30 5261 H 484.338 3.78549 -1.85145 0
M  V30 5262 H 483.062 3.17403 -0.769619 0
M  V30 5263 H 481.721 2.41155 -2.76116 0
M  V30 5264 H 481.369 4.69525 -1.8043 0
M  V30 5265 H 481.069 4.67465 -3.5602 0
M  V30 5266 H 482.593 5.35886 -2.92675 0
M  V30 5267 H 484.007 3.64888 -4.42187 0
M  V30 5268 H 482.404 3.20245 -5.07507 0
M  V30 5269 H 483.474 1.93692 -4.44535 0
M  V30 5270 N 484.817 1.37938 0.762283 0
M  V30 5271 C 486.047 1.36685 1.54922 0
M  V30 5272 C 486.455 -0.0474099 1.89141 0
M  V30 5273 O 485.798 -1.02213 1.52638 0
M  V30 5274 C 485.86 2.14963 2.88152 0
M  V30 5275 C 485.524 3.6385 2.76518 0
M  V30 5276 C 486.521 4.57531 2.46904 0
M  V30 5277 C 484.206 4.07095 2.94243 0
M  V30 5278 C 486.2 5.92436 2.35156 0
M  V30 5279 C 483.887 5.42083 2.82116 0
M  V30 5280 C 484.885 6.34567 2.52614 0
M  V30 5281 O 484.573 7.67073 2.40529 0
M  V30 5282 H 484.305 0.469586 0.486276 0
M  V30 5283 H 486.859 1.82012 0.951876 0
M  V30 5284 H 485.089 1.6434 3.50042 0
M  V30 5285 H 486.778 2.06224 3.49609 0
M  V30 5286 H 487.544 4.25428 2.32886 0
M  V30 5287 H 483.423 3.35462 3.16206 0
M  V30 5288 H 486.967 6.64591 2.12049 0
M  V30 5289 H 482.864 5.73785 2.95704 0
M  V30 5290 H 483.632 7.77499 2.55807 0
M  V30 5291 N 486.295 -0.989507 1.22664 0
M  V30 5292 C 487.205 -2.11449 1.01619 0
M  V30 5293 C 488.221 -1.73962 -0.036545 0
M  V30 5294 O 489.397 -2.00788 0.156924 0
M  V30 5295 C 486.462 -3.41465 0.600204 0
M  V30 5296 C 485.523 -3.93033 1.72695 0
M  V30 5297 C 484.756 -5.16844 1.33071 0
M  V30 5298 O 484.979 -5.7001 0.210975 0
M  V30 5299 O 483.913 -5.6225 2.14845 0
M  V30 5300 H 487.739 -2.32088 1.9588 0
M  V30 5301 H 485.324 -1.09823 1.01289 0
M  V30 5302 H 487.206 -4.19695 0.37873 0
M  V30 5303 H 485.881 -3.22178 -0.313511 0
M  V30 5304 H 484.788 -3.15961 2.00298 0
M  V30 5305 H 486.121 -4.16758 2.61865 0
M  V30 5306 N 487.773 -1.03688 -1.18687 0
M  V30 5307 C 488.683 -0.634908 -2.25845 0
M  V30 5308 C 489.699 0.337065 -1.70704 0
M  V30 5309 O 490.875 0.192943 -2.00474 0
M  V30 5310 C 487.94 -0.000180054 -3.467 0
M  V30 5311 C 487.001 -1.02067 -4.1699 0
M  V30 5312 C 486.234 -0.41614 -5.32075 0
M  V30 5313 O 486.457 0.778712 -5.65059 0
M  V30 5314 O 485.391 -1.14296 -5.90948 0
M  V30 5315 H 489.217 -1.52757 -2.62486 0
M  V30 5316 H 486.802 -0.807533 -1.25695 0
M  V30 5317 H 488.684 0.353342 -4.19916 0
M  V30 5318 H 487.359 0.866367 -3.11891 0
M  V30 5319 H 486.266 -1.42592 -3.45859 0
M  V30 5320 H 487.599 -1.85786 -4.5579 0
M  V30 5321 N 489.251 1.34841 -0.815825 0
M  V30 5322 C 490.5 1.97755 -0.396976 0
M  V30 5323 C 490.813 1.65422 1.04379 0
M  V30 5324 O 492.019 2.21771 1.5662 0
M  V30 5325 C 490.475 3.53818 -0.658869 0
M  V30 5326 C 490.083 3.95051 -2.11278 0
M  V30 5327 C 491.827 4.23397 -0.305834 0
M  V30 5328 C 489.734 5.43997 -2.31994 0
M  V30 5329 H 488.664 0.739985 -0.1447 0
M  V30 5330 H 491.315 1.53781 -1.00118 0
M  V30 5331 H 489.697 3.95997 0.0154112 0
M  V30 5332 H 490.871 3.63998 -2.82564 0
M  V30 5333 H 489.186 3.38388 -2.42657 0
M  V30 5334 H 491.783 5.32899 -0.43854 0
M  V30 5335 H 492.126 4.09508 0.748952 0
M  V30 5336 H 492.659 3.8667 -0.934403 0
M  V30 5337 H 489.398 5.62865 -3.35952 0
M  V30 5338 H 488.918 5.76589 -1.65244 0
M  V30 5339 H 490.597 6.10584 -2.14001 0
M  V30 5340 N 490.729 0.570148 1.46925 0
M  V30 5341 C 492.006 -0.0153259 1.95594 0
M  V30 5342 C 492.386 -1.47232 1.51281 0
M  V30 5343 O 491.734 -2.15574 0.757624 0
M  V30 5344 C 491.944 0.143624 3.48704 0
M  V30 5345 C 493.292 0.00494484 4.246 0
M  V30 5346 O 494.316 0.0718214 3.56128 0
M  V30 5347 O 493.175 -0.141175 5.46318 0
M  V30 5348 H 490.269 -0.0568819 0.825041 0
M  V30 5349 H 492.815 0.637583 1.57267 0
M  V30 5350 H 491.587 1.15699 3.73804 0
M  V30 5351 H 491.21 -0.5463 3.93829 0
M  V30 5352 N 492.207 -1.54576 0.307264 0
M  V30 5353 C 493.139 -2.21212 -0.599807 0
M  V30 5354 C 494.152 -1.20685 -1.09266 0
M  V30 5355 O 495.341 -1.47244 -1.00903 0
M  V30 5356 C 492.441 -2.84994 -1.83389 0
M  V30 5357 C 491.614 -4.11511 -1.48248 0
M  V30 5358 C 490.673 -4.59038 -2.57237 0
M  V30 5359 O 489.699 -5.24095 -2.22065 0
M  V30 5360 N 490.901 -4.31884 -3.87887 0
M  V30 5361 H 493.666 -2.99686 -0.0293075 0
M  V30 5362 H 491.227 -1.61379 0.129738 0
M  V30 5363 H 493.219 -3.1372 -2.5566 0
M  V30 5364 H 491.789 -2.10324 -2.31263 0
M  V30 5365 H 491.009 -3.89728 -0.592122 0
M  V30 5366 H 492.297 -4.93879 -1.22316 0
M  V30 5367 H 491.695 -3.79778 -4.19268 0
M  V30 5368 H 490.252 -4.65304 -4.56438 0
M  V30 5369 N 493.685 -0.035106 -1.57561 0
M  V30 5370 C 494.633 0.962707 -2.11742 0
M  V30 5371 C 495.627 1.33296 -1.0454 0
M  V30 5372 O 496.833 1.31449 -1.22968 0
M  V30 5373 H 493.208 0.32826 -0.676572 0
M  V30 5374 H 495.179 0.48048 -2.94506 0
M  V30 5375 C 493.928 2.23388 -2.66445 0
M  V30 5376 H 493.251 1.95774 -3.48587 0
M  V30 5377 H 494.691 2.91402 -3.07995 0
M  V30 5378 C 493.15 2.96769 -1.59467 0
M  V30 5379 O 493.68 3.89105 -0.998 0
M  V30 5380 N 491.886 2.59212 -1.31369 0
M  V30 5381 H 491.433 1.84202 -1.80076 0
M  V30 5382 H 491.391 3.08618 -0.600173 0
M  V30 5383 N 495.163 1.55791 0.238111 0
M  V30 5384 C 496.409 1.78297 0.966337 0
M  V30 5385 C 496.742 0.601903 1.84637 0
M  V30 5386 O 496.017 -0.399499 1.90353 0
M  V30 5387 C 496.3 3.10758 1.81939 0
M  V30 5388 C 496.153 4.39283 0.966958 0
M  V30 5389 C 497.472 3.39519 2.80027 0
M  V30 5390 H 494.591 0.648654 0.349882 0
M  V30 5391 H 497.233 1.88525 0.236253 0
M  V30 5392 H 495.383 3.02168 2.44185 0
M  V30 5393 H 497.055 4.59873 0.362514 0
M  V30 5394 H 495.298 4.32948 0.271669 0
M  V30 5395 H 495.969 5.28368 1.59784 0
M  V30 5396 H 498.445 3.48128 2.27917 0
M  V30 5397 H 497.321 4.33402 3.36829 0
M  V30 5398 H 497.582 2.60864 3.56934 0
M  V30 5399 N 496.642 -0.504142 1.49319 0
M  V30 5400 C 497.89 -1.25598 1.58334 0
M  V30 5401 C 498.211 -1.93114 0.270538 0
M  V30 5402 O 497.481 -1.82585 -0.709891 0
M  V30 5403 H 496.061 -0.466571 0.58337 0
M  V30 5404 H 498.723 -0.584547 1.85928 0
M  V30 5405 H 497.819 -2.02159 2.37778 0
M  V30 5406 N 498.12 -1.38341 -0.754957 0
M  V30 5407 C 499.367 -1.34473 -1.51404 0
M  V30 5408 C 499.695 0.0656458 -1.94389 0
M  V30 5409 O 498.95 1.04244 -1.65625 0
M  V30 5410 C 499.249 -2.2452 -2.78075 0
M  V30 5411 C 498.915 -3.72512 -2.54059 0
M  V30 5412 C 497.577 -4.1284 -2.47218 0
M  V30 5413 C 499.929 -4.66197 -2.33044 0
M  V30 5414 C 497.257 -5.44945 -2.17376 0
M  V30 5415 C 499.609 -5.98558 -2.04723 0
M  V30 5416 C 498.273 -6.37972 -1.96337 0
M  V30 5417 H 497.543 -0.492072 -0.554027 0
M  V30 5418 H 500.19 -1.70687 -0.868223 0
M  V30 5419 H 498.495 -1.81357 -3.473 0
M  V30 5420 H 500.192 -2.18832 -3.36026 0
M  V30 5421 H 496.782 -3.40538 -2.60253 0
M  V30 5422 H 500.966 -4.35888 -2.37309 0
M  V30 5423 H 496.222 -5.74426 -2.09391 0
M  V30 5424 H 500.396 -6.70693 -1.87465 0
M  V30 5425 H 498.023 -7.40258 -1.72978 0
M  V30 5426 N 499.598 0.982988 -1.23187 0
M  V30 5427 C 500.823 1.76455 -1.08988 0
M  V30 5428 C 501.248 1.84726 0.354691 0
M  V30 5429 O 500.606 1.30699 1.25649 0
M  V30 5430 C 500.654 3.17094 -1.71708 0
M  V30 5431 O 499.758 4.00648 -0.977477 0
M  V30 5432 H 499.099 0.542988 -0.382177 0
M  V30 5433 H 501.629 1.23413 -1.63188 0
M  V30 5434 H 501.639 3.67684 -1.76841 0
M  V30 5435 H 500.314 3.10389 -2.76823 0
M  V30 5436 H 498.891 3.59161 -1.0029 0
M  V30 5437 N 501.076 1.04316 1.18135 0
M  V30 5438 C 502.492 0.762858 1.40188 0
M  V30 5439 C 502.692 -0.646547 1.90846 0
M  V30 5440 O 501.748 -1.41036 2.0944 0
M  V30 5441 C 503.061 1.81106 2.40044 0
M  V30 5442 C 504.609 1.83226 2.53766 0
M  V30 5443 C 505.084 2.87044 3.56889 0
M  V30 5444 N 506.575 2.85951 3.64398 0
M  V30 5445 C 507.31 3.62932 4.43923 0
M  V30 5446 N 506.806 4.49672 5.27036 0
M  V30 5447 N 508.599 3.51411 4.38711 0
M  V30 5448 H 500.75 1.95264 0.835805 0
M  V30 5449 H 503.013 0.845017 0.429709 0
M  V30 5450 H 502.719 2.82214 2.09876 0
M  V30 5451 H 502.593 1.64529 3.39426 0
M  V30 5452 H 504.98 0.827869 2.8325 0
M  V30 5453 H 505.061 2.03879 1.54489 0
M  V30 5454 H 504.705 3.87663 3.28145 0
M  V30 5455 H 504.635 2.63645 4.5585 0
M  V30 5456 H 507.126 2.23051 3.05052 0
M  V30 5457 H 507.439 5.05116 5.84874 0
M  V30 5458 H 505.784 4.53738 5.26447 0
M  V30 5459 H 508.975 2.83047 3.72829 0
M  V30 5460 H 509.148 4.11654 5.00445 0
M  V30 5461 N 502.554 -1.34406 0.822964 0
M  V30 5462 C 503.782 -2.02508 0.424039 0
M  V30 5463 C 504.197 -1.61975 -0.970022 0
M  V30 5464 O 503.554 -0.825228 -1.62777 0
M  V30 5465 C 503.605 -3.57789 0.516657 0
M  V30 5466 O 503.326 -3.96853 1.85577 0
M  V30 5467 C 504.827 -4.43157 0.112637 0
M  V30 5468 H 502.047 -0.649063 0.170173 0
M  V30 5469 H 504.591 -1.7168 1.11113 0
M  V30 5470 H 502.746 -3.87207 -0.122353 0
M  V30 5471 H 503.16 -4.91538 1.83005 0
M  V30 5472 H 504.634 -5.51527 0.228526 0
M  V30 5473 H 505.111 -4.28939 -0.943837 0
M  V30 5474 H 505.717 -4.19067 0.725449 0
M  V30 5475 N 504.032 -0.577932 -1.46621 0
M  V30 5476 C 505.443 -0.150071 -1.86096 0
M  V30 5477 C 505.794 1.28563 -1.48209 0
M  V30 5478 O 504.919 1.97036 -0.894754 0
M  V30 5479 C 505.514 -0.265576 -3.37758 0
M  V30 5480 C 504.073 0.10738 -3.76247 0
M  V30 5481 C 503.22 -0.603711 -2.70649 0
M  V30 5482 H 506.171 -0.786438 -1.37844 0
M  V30 5483 H 506.192 0.510352 -3.77062 0
M  V30 5484 H 505.704 -1.3106 -3.65301 0
M  V30 5485 H 503.805 1.15272 -3.54321 0
M  V30 5486 H 503.918 -0.26561 -4.78363 0
M  V30 5487 H 502.282 -0.0444884 -2.54661 0
M  V30 5488 H 503.065 -1.65029 -3.01032 0
M  V30 5489 N 505.51 1.54411 -0.315457 0
M  V30 5490 C 506.738 2.04833 0.291738 0
M  V30 5491 C 507.153 1.19203 1.46411 0
M  V30 5492 O 506.51 0.220867 1.81159 0
M  V30 5493 C 506.561 3.53969 0.73404 0
M  V30 5494 O 506.282 4.36346 -0.391682 0
M  V30 5495 C 507.783 4.2045 1.40489 0
M  V30 5496 H 505.003 0.668195 0.0612947 0
M  V30 5497 H 507.547 1.99276 -0.45929 0
M  V30 5498 H 505.702 3.5984 1.43506 0
M  V30 5499 H 506.116 5.24481 -0.0447088 0
M  V30 5500 H 507.59 5.26278 1.66539 0
M  V30 5501 H 508.067 3.71067 2.3496 0
M  V30 5502 H 508.673 4.18694 0.746662 0
M  V30 5503 N 506.988 0.0434614 1.5754 0
M  V30 5504 C 508.237 -0.631454 1.91561 0
M  V30 5505 C 508.55 -1.72457 0.92292 0
M  V30 5506 O 509.756 -2.45712 1.15489 0
M  V30 5507 C 508.212 -1.17447 3.40197 0
M  V30 5508 C 507.82 -0.113867 4.47855 0
M  V30 5509 C 509.564 -1.82507 3.83264 0
M  V30 5510 C 507.471 -0.669326 5.876 0
M  V30 5511 H 506.401 -0.239629 0.714908 0
M  V30 5512 H 509.052 0.111097 1.83163 0
M  V30 5513 H 507.434 -1.96909 3.43574 0
M  V30 5514 H 508.608 0.659348 4.56058 0
M  V30 5515 H 506.923 0.438821 4.14081 0
M  V30 5516 H 509.52 -2.25047 4.85034 0
M  V30 5517 H 509.863 -2.67365 3.19095 0
M  V30 5518 H 510.396 -1.09712 3.82372 0
M  V30 5519 H 507.135 0.141449 6.55347 0
M  V30 5520 H 506.655 -1.4107 5.82974 0
M  V30 5521 H 508.334 -1.15463 6.36614 0
M  V30 5522 N 508.466 -1.55915 -0.229846 0
M  V30 5523 C 509.691 -1.8296 -0.976743 0
M  V30 5524 C 510.116 -0.622735 -1.77493 0
M  V30 5525 O 509.474 0.428431 -1.76165 0
M  V30 5526 C 509.522 -3.07916 -1.8767 0
M  V30 5527 O 508.626 -2.86028 -2.97088 0
M  V30 5528 H 507.967 -0.603453 -0.277021 0
M  V30 5529 H 510.497 -2.0312 -0.245669 0
M  V30 5530 H 510.507 -3.37802 -2.2881 0
M  V30 5531 H 509.182 -3.95389 -1.28996 0
M  V30 5532 H 507.759 -2.67355 -2.59954 0
M  V30 5533 N 509.944 0.496216 -1.49584 0
M  V30 5534 C 511.221 1.25755 -1.49816 0
M  V30 5535 C 511.601 2.09859 -0.228572 0
M  V30 5536 O 510.949 2.14449 0.788908 0
M  V30 5537 C 511.159 2.11017 -2.7798 0
M  V30 5538 C 512.507 2.70047 -3.27658 0
M  V30 5539 O 513.531 2.21281 -2.79129 0
M  V30 5540 O 512.39 3.58834 -4.1219 0
M  V30 5541 H 509.484 0.569322 -0.599834 0
M  V30 5542 H 512.03 0.510094 -1.61852 0
M  V30 5543 H 510.802 1.48879 -3.61871 0
M  V30 5544 H 510.425 2.92947 -2.68827 0
M  V30 5545 N 511.423 1.38739 0.74761 0
M  V30 5546 C 512.839 1.20067 1.05148 0
M  V30 5547 C 513.039 0.0534835 2.01429 0
M  V30 5548 O 512.095 -0.59886 2.45296 0
M  V30 5549 C 513.408 2.52957 1.62584 0
M  V30 5550 C 514.956 2.59692 1.74726 0
M  V30 5551 C 515.431 3.92772 2.35573 0
M  V30 5552 N 516.922 3.94343 2.42997 0
M  V30 5553 C 517.657 4.9408 2.90985 0
M  V30 5554 N 517.153 6.04214 3.38965 0
M  V30 5555 N 518.946 4.81466 2.9008 0
M  V30 5556 H 511.097 2.12121 0.108808 0
M  V30 5557 H 513.36 0.941491 0.110899 0
M  V30 5558 H 513.066 3.37389 0.993051 0
M  V30 5559 H 512.94 2.71779 2.61565 0
M  V30 5560 H 515.327 1.75651 2.3713 0
M  V30 5561 H 515.408 2.44731 0.744326 0
M  V30 5562 H 515.052 4.77238 1.738 0
M  V30 5563 H 514.982 4.05046 3.36519 0
M  V30 5564 H 517.473 3.14799 2.0907 0
M  V30 5565 H 517.786 6.76241 3.74056 0
M  V30 5566 H 516.131 6.07825 3.37007 0
M  V30 5567 H 519.322 3.94535 2.51912 0
M  V30 5568 H 519.495 5.59344 3.27166 0
M  V30 5569 N 512.901 -0.976442 1.23707 0
M  V30 5570 C 513.849 -2.09078 1.01927 0
M  V30 5571 C 514.843 -1.69345 -0.0430193 0
M  V30 5572 O 516.049 -1.79659 0.110814 0
M  V30 5573 H 512.424 -0.68398 0.312531 0
M  V30 5574 H 514.395 -2.24614 1.96447 0
M  V30 5575 C 513.144 -3.41919 0.631385 0
M  V30 5576 H 512.467 -3.72946 1.44053 0
M  V30 5577 H 513.907 -4.20817 0.518532 0
M  V30 5578 C 512.366 -3.30357 -0.660723 0
M  V30 5579 O 512.896 -3.63542 -1.70881 0
M  V30 5580 N 511.102 -2.83507 -0.638139 0
M  V30 5581 H 510.649 -2.567 0.215108 0
M  V30 5582 H 510.607 -2.76153 -1.50289 0
M  V30 5583 N 514.379 -1.04941 -1.1758 0
M  V30 5584 C 515.795 -0.770282 -1.39781 0
M  V30 5585 C 515.995 0.636417 -1.91186 0
M  V30 5586 O 515.051 1.39923 -2.10185 0
M  V30 5587 C 516.364 -1.82376 -2.3908 0
M  V30 5588 C 517.912 -1.84569 -2.52791 0
M  V30 5589 C 518.387 -2.88933 -3.55361 0
M  V30 5590 N 519.878 -2.8788 -3.62877 0
M  V30 5591 C 520.613 -3.65282 -4.41992 0
M  V30 5592 N 520.109 -4.52461 -5.24643 0
M  V30 5593 N 521.902 -3.53732 -4.36841 0
M  V30 5594 H 514.053 -1.95705 -0.825438 0
M  V30 5595 H 516.316 -0.847284 -0.425222 0
M  V30 5596 H 516.022 -2.83323 -2.08376 0
M  V30 5597 H 515.896 -1.66327 -3.38549 0
M  V30 5598 H 518.283 -0.842879 -2.82807 0
M  V30 5599 H 518.364 -2.04696 -1.53406 0
M  V30 5600 H 518.008 -3.89398 -3.26085 0
M  V30 5601 H 517.938 -2.66059 -4.54445 0
M  V30 5602 H 520.429 -2.24666 -3.03864 0
M  V30 5603 H 520.742 -5.08211 -5.82187 0
M  V30 5604 H 519.087 -4.56524 -5.24033 0
M  V30 5605 H 522.278 -2.85021 -3.71323 0
M  V30 5606 H 522.451 -4.14302 -4.98255 0
M  V30 5607 N 515.857 1.33968 -0.830081 0
M  V30 5608 C 516.787 2.31911 -0.271911 0
M  V30 5609 C 517.768 1.58571 0.61556 0
M  V30 5610 O 518.953 1.86514 0.540946 0
M  V30 5611 C 516.083 3.42737 0.561146 0
M  V30 5612 C 515.037 4.27383 -0.229789 0
M  V30 5613 C 514.363 5.29742 0.726463 0
M  V30 5614 C 515.663 5.02 -1.44197 0
M  V30 5615 H 517.357 2.78844 -1.09025 0
M  V30 5616 H 514.903 1.34061 -0.52571 0
M  V30 5617 H 516.856 4.10276 0.961867 0
M  V30 5618 H 515.58 2.94471 1.41261 0
M  V30 5619 H 514.239 3.61456 -0.611964 0
M  V30 5620 H 513.887 4.77736 1.57408 0
M  V30 5621 H 513.587 5.87255 0.20142 0
M  V30 5622 H 515.111 6.00149 1.12489 0
M  V30 5623 H 516.525 5.62355 -1.11488 0
M  V30 5624 H 514.922 5.69122 -1.90317 0
M  V30 5625 H 515.992 4.31281 -2.2164 0
M  V30 5626 N 517.335 0.585699 1.46312 0
M  V30 5627 C 518.265 -0.133556 2.33118 0
M  V30 5628 C 519.246 -0.880707 1.45525 0
M  V30 5629 O 520.431 -0.855579 1.74337 0
M  V30 5630 C 517.561 -1.14585 3.27853 0
M  V30 5631 C 516.515 -0.513341 4.2491 0
M  V30 5632 C 515.841 -1.63231 5.09175 0
M  V30 5633 C 517.141 0.551413 5.19381 0
M  V30 5634 H 518.835 0.59121 2.93505 0
M  V30 5635 H 516.381 0.285761 1.41136 0
M  V30 5636 H 518.334 -1.65741 3.87438 0
M  V30 5637 H 517.058 -1.90093 2.65579 0
M  V30 5638 H 515.717 -0.0228349 3.66593 0
M  V30 5639 H 515.365 -2.37713 4.43285 0
M  V30 5640 H 515.065 -1.21473 5.74907 0
M  V30 5641 H 516.589 -2.14658 5.71624 0
M  V30 5642 H 518.003 0.124804 5.73164 0
M  V30 5643 H 516.4 0.889486 5.93471 0
M  V30 5644 H 517.47 1.43655 4.63132 0
M  V30 5645 N 518.813 -1.54241 0.323641 0
M  V30 5646 C 519.743 -2.27289 -0.534993 0
M  V30 5647 C 520.724 -1.28087 -1.11927 0
M  V30 5648 O 521.909 -1.56899 -1.14439 0
M  V30 5649 C 519.039 -3.03075 -1.69596 0
M  V30 5650 C 517.993 -4.09614 -1.24098 0
M  V30 5651 C 517.319 -4.73242 -2.4889 0
M  V30 5652 C 518.619 -5.21087 -0.355789 0
M  V30 5653 H 520.313 -2.99308 0.0743257 0
M  V30 5654 H 517.859 -1.43952 0.0371874 0
M  V30 5655 H 519.812 -3.52907 -2.30293 0
M  V30 5656 H 518.536 -2.28673 -2.33187 0
M  V30 5657 H 517.195 -3.60666 -0.656945 0
M  V30 5658 H 516.843 -3.95455 -3.10845 0
M  V30 5659 H 516.543 -5.45209 -2.19138 0
M  V30 5660 H 518.067 -5.25848 -3.10348 0
M  V30 5661 H 519.481 -5.66675 -0.869042 0
M  V30 5662 H 517.878 -5.9991 -0.151045 0
M  V30 5663 H 518.948 -4.81005 0.613339 0
M  V30 5664 N 520.291 -0.0518155 -1.57515 0
M  V30 5665 C 521.221 0.920283 -2.146 0
M  V30 5666 C 522.202 1.32406 -1.06783 0
M  V30 5667 O 523.387 1.39866 -1.34726 0
M  V30 5668 C 520.517 2.1949 -2.6915 0
M  V30 5669 C 519.471 1.93116 -3.81956 0
M  V30 5670 C 518.797 3.27037 -4.23026 0
M  V30 5671 C 520.097 1.25225 -5.07066 0
M  V30 5672 H 521.791 0.444801 -2.96077 0
M  V30 5673 H 519.337 0.212508 -1.42423 0
M  V30 5674 H 521.29 2.87894 -3.07725 0
M  V30 5675 H 520.014 2.69244 -1.84865 0
M  V30 5676 H 518.673 1.27123 -3.43854 0
M  V30 5677 H 518.321 3.74595 -3.3569 0
M  V30 5678 H 518.021 3.10189 -4.99056 0
M  V30 5679 H 519.545 3.96673 -4.64202 0
M  V30 5680 H 520.959 1.83666 -5.43083 0
M  V30 5681 H 519.356 1.18702 -5.88243 0
M  V30 5682 H 520.426 0.228382 -4.84362 0
M  V30 5683 N 521.769 1.56035 0.221574 0
M  V30 5684 C 522.679 1.95581 1.29558 0
M  V30 5685 C 523.695 0.859639 1.51282 0
M  V30 5686 O 524.871 1.16321 1.64413 0
M  V30 5687 C 521.936 2.26447 2.62531 0
M  V30 5688 C 520.997 3.49632 2.4911 0
M  V30 5689 C 520.23 3.79017 3.75742 0
M  V30 5690 O 520.453 3.10077 4.78757 0
M  V30 5691 O 519.387 4.72507 3.72855 0
M  V30 5692 H 523.213 2.8711 0.990035 0
M  V30 5693 H 520.798 1.43244 0.424434 0
M  V30 5694 H 522.68 2.47494 3.41064 0
M  V30 5695 H 521.355 1.38092 2.92766 0
M  V30 5696 H 520.262 3.33864 1.68777 0
M  V30 5697 H 521.595 4.3837 2.23814 0
M  V30 5698 N 523.247 -0.488276 1.49845 0
M  V30 5699 C 524.21 -1.57069 1.66919 0
M  V30 5700 C 525.21 -1.51445 0.540479 0
M  V30 5701 O 526.4 -1.5437 0.807188 0
M  V30 5702 C 523.532 -2.96718 1.67844 0
M  V30 5703 H 524.725 -1.43254 2.63474 0
M  V30 5704 H 522.278 -0.713435 1.39068 0
M  V30 5705 H 523.013 -3.15996 0.7292 0
M  V30 5706 H 522.798 -3.02208 2.49826 0
M  V30 5707 H 524.288 -3.75335 1.83066 0
M  V30 5708 N 524.725 -1.39134 -0.740242 0
M  V30 5709 C 525.953 -1.39334 -1.5295 0
M  V30 5710 C 526.368 0.0135008 -1.88795 0
M  V30 5711 O 525.725 0.983524 -1.5373 0
M  V30 5712 C 525.776 -2.2614 -2.82034 0
M  V30 5713 O 525.497 -3.61345 -2.47712 0
M  V30 5714 C 526.998 -2.34666 -3.76094 0
M  V30 5715 H 524.218 -0.476103 -0.472828 0
M  V30 5716 H 526.762 -1.82883 -0.9151 0
M  V30 5717 H 524.917 -1.86018 -3.39818 0
M  V30 5718 H 525.331 -4.07194 -3.30595 0
M  V30 5719 H 526.805 -2.99663 -4.63579 0
M  V30 5720 H 527.282 -1.36426 -4.17474 0
M  V30 5721 H 527.888 -2.75236 -3.2423 0
M  V30 5722 N 526.204 0.969867 -1.24223 0
M  V30 5723 C 527.453 1.70687 -1.07466 0
M  V30 5724 C 527.766 1.91736 0.386861 0
M  V30 5725 O 528.972 2.62986 0.674581 0
M  V30 5726 C 527.428 3.07217 -1.87472 0
M  V30 5727 C 527.036 2.94018 -3.3802 0
M  V30 5728 C 528.78 3.84804 -1.79237 0
M  V30 5729 C 526.687 4.25844 -4.10379 0
M  V30 5730 H 525.617 0.640067 -0.398536 0
M  V30 5731 H 528.268 1.08092 -1.48285 0
M  V30 5732 H 526.65 3.70628 -1.39466 0
M  V30 5733 H 527.824 2.39632 -3.9359 0
M  V30 5734 H 526.139 2.29898 -3.47183 0
M  V30 5735 H 528.736 4.82417 -2.30603 0
M  V30 5736 H 529.079 4.09356 -0.757197 0
M  V30 5737 H 529.612 3.28115 -2.24912 0
M  V30 5738 H 526.351 4.06486 -5.14246 0
M  V30 5739 H 525.871 4.80054 -3.59594 0
M  V30 5740 H 527.55 4.94475 -4.17257 0
M  V30 5741 N 527.682 1.05563 1.17022 0
M  V30 5742 C 529.098 0.777684 1.39371 0
M  V30 5743 C 529.298 -0.626269 1.91521 0
M  V30 5744 O 528.354 -1.38806 2.10924 0
M  V30 5745 C 529.667 1.83642 2.3811 0
M  V30 5746 C 531.215 1.85907 2.51809 0
M  V30 5747 C 531.69 2.90813 3.53824 0
M  V30 5748 N 533.181 2.898 3.61345 0
M  V30 5749 C 533.916 3.6762 4.40049 0
M  V30 5750 N 533.412 4.55237 5.22237 0
M  V30 5751 N 535.205 3.56044 4.34959 0
M  V30 5752 H 527.356 1.9614 0.815047 0
M  V30 5753 H 529.619 0.849527 0.420722 0
M  V30 5754 H 529.325 2.84425 2.06871 0
M  V30 5755 H 529.199 1.6812 3.37662 0
M  V30 5756 H 531.586 0.857865 2.82356 0
M  V30 5757 H 531.667 2.05506 1.52318 0
M  V30 5758 H 531.311 3.91122 3.24015 0
M  V30 5759 H 531.241 2.68465 4.53028 0
M  V30 5760 H 533.732 2.26274 3.02669 0
M  V30 5761 H 534.045 5.11291 5.79484 0
M  V30 5762 H 532.39 4.59296 5.21605 0
M  V30 5763 H 535.581 2.86986 3.69806 0
M  V30 5764 H 535.754 4.16938 4.96051 0
M  V30 5765 N 529.16 -1.33526 0.837174 0
M  V30 5766 C 530.07 -2.33023 0.271568 0
M  V30 5767 C 531.086 -1.63272 -0.601514 0
M  V30 5768 O 532.262 -1.94939 -0.506038 0
M  V30 5769 C 529.327 -3.42382 -0.545448 0
M  V30 5770 C 528.388 -4.27857 0.351709 0
M  V30 5771 C 527.621 -5.31994 -0.426409 0
M  V30 5772 O 527.844 -5.45763 -1.65828 0
M  V30 5773 O 526.778 -6.01572 0.1987 0
M  V30 5774 H 530.604 -2.83256 1.09545 0
M  V30 5775 H 528.189 -1.36837 0.599655 0
M  V30 5776 H 530.071 -4.09122 -1.00979 0
M  V30 5777 H 528.746 -2.94369 -1.34641 0
M  V30 5778 H 527.653 -3.6399 0.863853 0
M  V30 5779 H 528.986 -4.79349 1.1174 0
M  V30 5780 N 530.638 -0.59345 -1.46 0
M  V30 5781 C 531.884 -0.0832754 -2.02629 0
M  V30 5782 C 532.217 1.27749 -1.46266 0
M  V30 5783 O 531.492 1.8395 -0.631866 0
M  V30 5784 C 531.775 -0.0290756 -3.60088 0
M  V30 5785 C 531.628 -1.41951 -4.26814 0
M  V30 5786 C 532.947 0.666055 -4.35031 0
M  V30 5787 H 530.066 -0.031736 -0.736316 0
M  V30 5788 H 532.708 -0.762711 -1.74019 0
M  V30 5789 H 530.858 0.549532 -3.84594 0
M  V30 5790 H 532.53 -2.04411 -4.13538 0
M  V30 5791 H 530.773 -1.98422 -3.8576 0
M  V30 5792 H 531.444 -1.33395 -5.3564 0
M  V30 5793 H 533.92 0.174401 -4.15734 0
M  V30 5794 H 532.796 0.673041 -5.44758 0
M  V30 5795 H 533.057 1.72946 -4.06869 0
M  V30 5796 N 532.116 1.54067 -0.331816 0
M  V30 5797 C 533.046 2.27569 0.522932 0
M  V30 5798 C 534.027 1.28679 1.11247 0
M  V30 5799 O 535.212 1.57504 1.13605 0
M  V30 5800 C 532.342 3.0397 1.67987 0
M  V30 5801 C 531.296 4.10267 1.21924 0
M  V30 5802 C 530.622 4.74555 2.46377 0
M  V30 5803 C 531.922 5.21268 0.32815 0
M  V30 5804 H 533.616 2.99264 -0.0901977 0
M  V30 5805 H 531.162 1.4393 -0.044821 0
M  V30 5806 H 533.115 3.54123 2.28418 0
M  V30 5807 H 531.839 2.29906 2.31971 0
M  V30 5808 H 530.498 3.61009 0.637809 0
M  V30 5809 H 530.146 3.97098 3.08743 0
M  V30 5810 H 529.846 5.46363 2.16243 0
M  V30 5811 H 531.37 5.27487 3.07555 0
M  V30 5812 H 532.784 5.67128 0.838978 0
M  V30 5813 H 531.181 5.99982 0.119228 0
M  V30 5814 H 532.251 4.80673 -0.638839 0
M  V30 5815 N 533.594 0.0601682 1.57485 0
M  V30 5816 C 535.01 -0.296422 1.56823 0
M  V30 5817 C 535.21 -1.70831 1.0686 0
M  V30 5818 O 534.266 -2.4174 0.729245 0
M  V30 5819 C 535.579 -0.116681 3.00474 0
M  V30 5820 C 537.127 -0.187103 3.1244 0
M  V30 5821 C 537.602 -0.035783 4.57986 0
M  V30 5822 N 539.093 -0.0917676 4.63109 0
M  V30 5823 C 539.828 0.00107251 5.734 0
M  V30 5824 N 539.324 0.146773 6.92645 0
M  V30 5825 N 541.117 -0.0551577 5.62073 0
M  V30 5826 H 533.268 0.983055 1.88281 0
M  V30 5827 H 535.531 0.382386 0.867459 0
M  V30 5828 H 535.237 0.85712 3.41096 0
M  V30 5829 H 535.111 -0.873929 3.66936 0
M  V30 5830 H 537.498 -1.15138 2.71712 0
M  V30 5831 H 537.579 0.601052 2.48638 0
M  V30 5832 H 537.223 0.925212 4.99402 0
M  V30 5833 H 537.153 -0.843196 5.19806 0
M  V30 5834 H 539.644 -0.203261 3.77353 0
M  V30 5835 H 539.957 0.210076 7.72514 0
M  V30 5836 H 538.302 0.181979 6.94762 0
M  V30 5837 H 541.493 -0.167605 4.678 0
M  V30 5838 H 541.666 0.020652 6.47997 0
M  V30 5839 N 535.072 -1.5615 -0.213296 0
M  V30 5840 C 536.002 -1.96109 -1.26742 0
M  V30 5841 C 536.983 -0.830448 -1.48451 0
M  V30 5842 O 538.168 -1.09339 -1.60495 0
M  V30 5843 C 535.298 -2.28492 -2.61551 0
M  V30 5844 C 534.252 -3.44124 -2.54485 0
M  V30 5845 C 533.578 -3.62134 -3.93399 0
M  V30 5846 C 534.878 -4.78855 -2.08556 0
M  V30 5847 H 536.572 -2.84412 -0.935434 0
M  V30 5848 H 534.118 -1.36836 -0.44854 0
M  V30 5849 H 536.071 -2.55039 -3.3546 0
M  V30 5850 H 534.795 -1.37052 -2.96453 0
M  V30 5851 H 533.454 -3.17639 -1.83033 0
M  V30 5852 H 533.102 -2.68055 -4.25623 0
M  V30 5853 H 532.802 -4.39913 -3.89551 0
M  V30 5854 H 534.326 -3.91038 -4.68958 0
M  V30 5855 H 535.74 -5.04552 -2.72213 0
M  V30 5856 H 534.137 -5.59975 -2.1575 0
M  V30 5857 H 535.207 -4.73657 -1.03811 0
M  V30 5858 N 536.55 0.480323 -1.50102 0
M  V30 5859 C 537.966 0.813295 -1.37323 0
M  V30 5860 C 538.166 1.97027 -0.422206 0
M  V30 5861 O 537.222 2.5212 0.138563 0
M  V30 5862 C 538.535 1.13404 -2.78496 0
M  V30 5863 C 540.083 1.24104 -2.87345 0
M  V30 5864 C 540.558 1.59497 -4.29331 0
M  V30 5865 N 542.049 1.66507 -4.32238 0
M  V30 5866 C 542.784 1.95378 -5.39087 0
M  V30 5867 N 542.28 2.22333 -6.56155 0
M  V30 5868 N 544.073 1.96803 -5.26522 0
M  V30 5869 H 536.224 -0.282291 -2.10516 0
M  V30 5870 H 538.487 -0.063752 -0.945854 0
M  V30 5871 H 538.193 0.357064 -3.49883 0
M  V30 5872 H 538.067 2.07251 -3.15162 0
M  V30 5873 H 540.454 2.00871 -2.16183 0
M  V30 5874 H 540.535 0.282593 -2.54234 0
M  V30 5875 H 540.179 0.832736 -5.01027 0
M  V30 5876 H 540.109 2.56477 -4.59921 0
M  V30 5877 H 542.6 1.47753 -3.47818 0
M  V30 5878 H 542.913 2.43611 -7.33399 0
M  V30 5879 H 541.258 2.19745 -6.59346 0
M  V30 5880 H 544.449 1.75235 -4.34062 0
M  V30 5881 H 544.622 2.18969 -6.09883 0
M  V30 5882 N 538.028 1.39524 0.732853 0
M  V30 5883 C 539.439 1.32905 1.31122 0
M  V30 5884 C 539.79 -0.00558708 1.96199 0
M  V30 5885 O 538.915 -0.907706 1.96443 0
M  V30 5886 C 539.51 2.40704 2.38426 0
M  V30 5887 C 538.069 2.37599 2.91931 0
M  V30 5888 C 537.216 2.2248 1.65523 0
M  V30 5889 H 540.167 1.49581 0.530207 0
M  V30 5890 H 540.188 2.07616 3.18867 0
M  V30 5891 H 539.7 3.37829 1.91033 0
M  V30 5892 H 537.801 1.44119 3.43599 0
M  V30 5893 H 537.914 3.32538 3.44899 0
M  V30 5894 H 536.278 1.69691 1.8994 0
M  V30 5895 H 537.061 3.21577 1.20178 0
M  V30 5896 N 539.506 -0.963266 1.24736 0
M  V30 5897 C 540.752 -1.70933 1.09131 0
M  V30 5898 C 541.085 -1.90676 -0.368273 0
M  V30 5899 O 540.36 -1.47147 -1.27193 0
M  V30 5900 C 540.643 -3.09744 1.83658 0
M  V30 5901 C 540.496 -2.97465 3.37394 0
M  V30 5902 C 541.815 -4.09483 1.61282 0
M  V30 5903 H 538.934 -0.620398 0.397838 0
M  V30 5904 H 541.576 -1.12028 1.53459 0
M  V30 5905 H 539.726 -3.60031 1.4598 0
M  V30 5906 H 541.398 -2.54571 3.84696 0
M  V30 5907 H 539.641 -2.33576 3.65547 0
M  V30 5908 H 540.312 -3.95822 3.84745 0
M  V30 5909 H 542.788 -3.68073 1.94066 0
M  V30 5910 H 541.664 -5.04666 2.15878 0
M  V30 5911 H 541.925 -4.38639 0.552102 0
M  V30 5912 N 540.985 -1.06182 -1.16461 0
M  V30 5913 C 541.948 -0.675723 -2.19013 0
M  V30 5914 C 542.948 0.277963 -1.58379 0
M  V30 5915 O 544.138 0.0604962 -1.74095 0
M  V30 5916 C 541.27 0.00591459 -3.40899 0
M  V30 5917 H 542.463 -1.58353 -2.54685 0
M  V30 5918 H 540.016 -0.856908 -1.30716 0
M  V30 5919 H 540.751 0.92652 -3.10783 0
M  V30 5920 H 540.536 -0.67984 -3.86161 0
M  V30 5921 H 542.026 0.26181 -4.16778 0
M  V30 5922 N 542.463 1.3308 -0.844243 0
M  V30 5923 C 543.874 1.7992 -0.498566 0
M  V30 5924 C 544.225 1.69808 0.982834 0
M  V30 5925 O 543.35 1.25051 1.7661 0
M  V30 5926 C 543.945 3.26677 -0.898204 0
M  V30 5927 C 542.504 3.71513 -0.604583 0
M  V30 5928 C 541.651 2.54393 -1.10362 0
M  V30 5929 H 544.602 1.20526 -1.03244 0
M  V30 5930 H 544.623 3.79918 -0.21039 0
M  V30 5931 H 544.135 3.34004 -1.97643 0
M  V30 5932 H 542.236 3.69708 0.46335 0
M  V30 5933 H 542.349 4.64755 -1.16358 0
M  V30 5934 H 540.713 2.49246 -0.524273 0
M  V30 5935 H 541.496 2.6448 -2.18873 0
M  V30 5936 N 543.941 0.601185 1.45683 0
M  V30 5937 C 544.874 -0.17013 2.27565 0
M  V30 5938 C 545.852 -0.879661 1.36751 0
M  V30 5939 O 547.036 -0.889827 1.66176 0
M  V30 5940 C 544.163 -1.24568 3.14961 0
M  V30 5941 C 543.209 -0.639978 4.21671 0
M  V30 5942 S 544.042 0.547275 5.32696 0
M  V30 5943 C 545.198 -0.529019 6.2366 0
M  V30 5944 H 545.431 0.524583 2.92635 0
M  V30 5945 H 542.964 0.388537 1.49431 0
M  V30 5946 H 544.922 -1.86138 3.65873 0
M  V30 5947 H 543.583 -1.91243 2.49169 0
M  V30 5948 H 542.776 -1.44903 4.8272 0
M  V30 5949 H 542.378 -0.0995558 3.73867 0
M  V30 5950 H 544.67 -1.40981 6.62669 0
M  V30 5951 H 545.613 0.0451599 7.08086 0
M  V30 5952 H 546.021 -0.84147 5.58193 0
M  V30 5953 N 545.419 -1.53889 0.339982 0
M  V30 5954 C 546.349 -2.27843 -0.510856 0
M  V30 5955 C 547.33 -1.29267 -1.10563 0
M  V30 5956 O 548.515 -1.58104 -1.12768 0
M  V30 5957 C 545.645 -3.04857 -1.66372 0
M  V30 5958 C 544.599 -4.10907 -1.19746 0
M  V30 5959 C 543.925 -4.75855 -2.43857 0
M  V30 5960 C 545.225 -5.21435 -0.300501 0
M  V30 5961 H 546.919 -2.99212 0.106067 0
M  V30 5962 H 544.465 -1.43904 0.0524533 0
M  V30 5963 H 546.418 -3.5533 -2.26537 0
M  V30 5964 H 545.142 -2.31133 -2.30749 0
M  V30 5965 H 543.801 -3.61342 -0.618654 0
M  V30 5966 H 543.449 -3.9873 -3.06633 0
M  V30 5967 H 543.149 -5.47502 -2.13343 0
M  V30 5968 H 544.673 -5.2911 -3.04754 0
M  V30 5969 H 546.087 -5.67565 -0.80889 0
M  V30 5970 H 544.484 -6.00036 -0.0874076 0
M  V30 5971 H 545.554 -4.80328 0.664321 0
M  V30 5972 N 546.897 -0.0685191 -1.57451 0
M  V30 5973 C 548.146 0.600898 -1.92541 0
M  V30 5974 C 548.459 1.70967 -0.950239 0
M  V30 5975 O 549.665 2.43844 -1.19384 0
M  V30 5976 C 548.121 1.12019 -3.42023 0
M  V30 5977 C 547.729 0.0426028 -4.4798 0
M  V30 5978 C 549.473 1.76386 -3.86119 0
M  V30 5979 C 547.38 0.575759 -5.88591 0
M  V30 5980 H 546.31 0.228225 -0.71863 0
M  V30 5981 H 548.961 -0.140223 -1.82963 0
M  V30 5982 H 547.343 1.91418 -3.46663 0
M  V30 5983 H 548.517 -0.73182 -4.54952 0
M  V30 5984 H 546.832 -0.504642 -4.13331 0
M  V30 5985 H 549.429 2.17302 -4.88553 0
M  V30 5986 H 549.772 2.62255 -3.23308 0
M  V30 5987 H 550.305 1.03615 -3.84069 0
M  V30 5988 H 547.044 -0.245691 -6.55039 0
M  V30 5989 H 546.564 1.31778 -5.85145 0
M  V30 5990 H 548.243 1.0532 -6.3837 0
M  V30 5991 N 548.375 1.56261 0.205012 0
M  V30 5992 C 549.786 1.70056 0.770574 0
M  V30 5993 C 550.137 0.673398 1.84282 0
M  V30 5994 O 549.262 -0.172196 2.15714 0
M  V30 5995 C 549.857 3.08316 1.40451 0
M  V30 5996 C 548.416 3.2391 1.91727 0
M  V30 5997 C 547.563 2.66001 0.783516 0
M  V30 5998 H 550.514 1.58688 -0.019911 0
M  V30 5999 H 550.535 3.05094 2.27371 0
M  V30 6000 H 550.047 3.83053 0.623882 0
M  V30 6001 H 548.148 2.54072 2.7254 0
M  V30 6002 H 548.261 4.3131 2.08588 0
M  V30 6003 H 546.625 2.24915 1.19521 0
M  V30 6004 H 547.408 3.43297 0.0152883 0
M  V30 6005 N 549.853 -0.472356 1.50355 0
M  V30 6006 C 550.803 -1.56809 1.65514 0
M  V30 6007 C 551.787 -1.5261 0.509801 0
M  V30 6008 O 552.979 -1.59655 0.764145 0
M  V30 6009 C 550.108 -2.9526 1.75146 0
M  V30 6010 C 549.194 -3.04348 2.95353 0
M  V30 6011 N 549.585 -2.83253 4.19048 0
M  V30 6012 C 547.883 -3.35482 2.93884 0
M  V30 6013 C 548.584 -2.97273 5.00003 0
M  V30 6014 N 547.56 -3.27418 4.33934 0
M  V30 6015 H 551.362 -1.39197 2.58846 0
M  V30 6016 H 548.876 -0.67906 1.47521 0
M  V30 6017 H 550.873 -3.74044 1.8411 0
M  V30 6018 H 549.533 -3.1392 0.829717 0
M  V30 6019 H 550.544 -2.5886 4.48567 0
M  V30 6020 H 547.221 -3.60138 2.11204 0
M  V30 6021 H 548.611 -2.85214 6.08361 0
M  V30 6022 N 551.331 -1.39911 -0.725443 0
M  V30 6023 C 552.278 -1.39393 -1.83952 0
M  V30 6024 C 553.248 -0.252249 -1.64173 0
M  V30 6025 O 554.433 -0.44882 -1.85446 0
M  V30 6026 C 551.573 -1.25262 -3.21564 0
M  V30 6027 C 550.686 -2.49054 -3.52982 0
M  V30 6028 C 549.821 -2.27439 -4.80047 0
M  V30 6029 C 548.86 -3.46857 -5.04338 0
M  V30 6030 N 547.997 -3.24499 -6.22611 0
M  V30 6031 H 552.837 -2.34622 -1.83729 0
M  V30 6032 H 550.374 -1.16537 -0.897636 0
M  V30 6033 H 552.332 -1.15077 -4.01015 0
M  V30 6034 H 550.962 -0.33657 -3.21041 0
M  V30 6035 H 550.014 -2.69805 -2.6816 0
M  V30 6036 H 551.326 -3.37973 -3.66846 0
M  V30 6037 H 550.48 -2.14551 -5.67497 0
M  V30 6038 H 549.219 -1.35929 -4.68374 0
M  V30 6039 H 548.224 -3.60232 -4.15346 0
M  V30 6040 H 549.449 -4.3928 -5.17889 0
M  V30 6041 H 547.395 -2.35663 -6.12208 0
M  V30 6042 H 547.312 -4.06978 -6.37106 0
M  V30 6043 H 548.58 -3.15325 -7.12875 0
M  V30 6044 N 552.809 0.956637 -1.25245 0
M  V30 6045 C 553.772 2.03457 -1.05537 0
M  V30 6046 C 554.772 1.60798 -0.00886317 0
M  V30 6047 O 555.962 1.72384 -0.250865 0
M  V30 6048 C 553.094 3.35543 -0.601965 0
M  V30 6049 H 554.287 2.22372 -2.01223 0
M  V30 6050 H 551.84 1.13344 -1.07623 0
M  V30 6051 H 552.575 3.22323 0.357584 0
M  V30 6052 H 552.36 3.67854 -1.35743 0
M  V30 6053 H 553.85 4.14769 -0.485454 0
M  V30 6054 N 554.287 1.06798 1.15896 0
M  V30 6055 C 555.235 0.677525 2.22514 0
M  V30 6056 C 556.229 -0.308994 1.66558 0
M  V30 6057 O 557.435 -0.173308 1.79164 0
M  V30 6058 H 553.81 0.200994 0.724642 0
M  V30 6059 H 555.781 1.5865 2.52731 0
M  V30 6060 C 554.53 0.0854153 3.47595 0
M  V30 6061 H 553.853 0.835645 3.90969 0
M  V30 6062 H 555.293 -0.150199 4.23734 0
M  V30 6063 C 553.752 -1.1724 3.15843 0
M  V30 6064 O 554.282 -2.25965 3.32119 0
M  V30 6065 N 552.488 -1.07636 2.69931 0
M  V30 6066 H 552.035 -0.191559 2.56887 0
M  V30 6067 H 551.993 -1.91876 2.4906 0
M  V30 6068 N 555.766 -1.3263 0.851289 0
M  V30 6069 C 557.012 -1.9766 0.453694 0
M  V30 6070 C 557.345 -1.67225 -0.987396 0
M  V30 6071 O 556.62 -0.958693 -1.69232 0
M  V30 6072 C 556.903 -3.5344 0.68936 0
M  V30 6073 C 556.756 -3.93517 2.17862 0
M  V30 6074 C 558.075 -4.39866 0.143555 0
M  V30 6075 H 555.194 -0.717989 0.166314 0
M  V30 6076 H 557.836 -1.57068 1.06909 0
M  V30 6077 H 555.986 -3.88147 0.165546 0
M  V30 6078 H 557.658 -3.69006 2.76826 0
M  V30 6079 H 555.901 -3.42798 2.65841 0
M  V30 6080 H 556.572 -5.02065 2.29422 0
M  V30 6081 H 559.048 -4.11875 0.591451 0
M  V30 6082 H 557.924 -5.47858 0.338043 0
M  V30 6083 H 558.185 -4.31696 -0.953466 0
M  V30 6084 N 557.244 -0.608902 -1.45362 0
M  V30 6085 C 558.521 -0.0365378 -1.95566 0
M  V30 6086 C 558.901 1.43169 -1.55131 0
M  V30 6087 O 558.249 2.1349 -0.814513 0
M  V30 6088 C 558.459 -0.236026 -3.48201 0
M  V30 6089 C 559.807 -0.117518 -4.24437 0
M  V30 6090 O 560.831 -0.166217 -3.55812 0
M  V30 6091 O 559.69 -0.00372127 -5.465 0
M  V30 6092 H 556.784 0.0349874 -0.82626 0
M  V30 6093 H 559.33 -0.679055 -1.55521 0
M  V30 6094 H 558.102 -1.25569 -3.70605 0
M  V30 6095 H 557.725 0.441691 -3.95139 0
M  V30 6096 N 558.722 1.53707 -0.348139 0
M  V30 6097 C 559.947 2.05877 0.250883 0
M  V30 6098 C 560.372 1.22115 1.43072 0
M  V30 6099 O 559.73 0.235986 1.79758 0
M  V30 6100 C 559.778 3.54886 0.639416 0
M  V30 6101 O 558.882 3.73948 1.73888 0
M  V30 6102 H 558.223 0.662754 0.040653 0
M  V30 6103 H 560.753 1.98303 -0.503685 0
M  V30 6104 H 560.763 3.97601 0.915295 0
M  V30 6105 H 559.438 4.153 -0.223386 0
M  V30 6106 H 558.015 3.43134 1.45991 0
M  V30 6107 N 560.2 0.0768682 1.57412 0
M  V30 6108 C 561.425 -0.603404 1.98428 0
M  V30 6109 C 561.85 -1.62047 0.955108 0
M  V30 6110 O 561.208 -1.81129 -0.0786778 0
M  V30 6111 C 561.256 -1.24396 3.38464 0
M  V30 6112 O 560.36 -2.35982 3.3821 0
M  V30 6113 H 559.701 -0.154741 0.645718 0
M  V30 6114 H 562.231 0.152885 2.04028 0
M  V30 6115 H 562.241 -1.5896 3.7576 0
M  V30 6116 H 560.916 -0.498735 4.12899 0
M  V30 6117 H 559.493 -2.03173 3.1269 0
M  V30 6118 N 561.678 -1.56367 -0.196722 0
M  V30 6119 C 562.927 -1.79724 -0.915539 0
M  V30 6120 C 563.24 -0.649804 -1.84491 0
M  V30 6121 O 564.446 -0.767631 -2.60422 0
M  V30 6122 C 562.902 -3.18369 -1.67836 0
M  V30 6123 C 562.51 -4.4091 -0.793897 0
M  V30 6124 C 564.254 -3.51037 -2.38691 0
M  V30 6125 C 562.161 -5.70577 -1.55549 0
M  V30 6126 H 561.091 -0.67013 -0.345604 0
M  V30 6127 H 563.742 -1.82721 -0.168856 0
M  V30 6128 H 562.124 -3.09617 -2.46887 0
M  V30 6129 H 563.298 -4.60781 -0.042163 0
M  V30 6130 H 561.613 -4.15937 -0.19626 0
M  V30 6131 H 564.21 -4.4515 -2.96219 0
M  V30 6132 H 564.553 -2.74704 -3.12799 0
M  V30 6133 H 565.086 -3.61229 -1.66608 0
M  V30 6134 H 561.825 -6.49871 -0.857226 0
M  V30 6135 H 561.345 -5.54726 -2.2812 0
M  V30 6136 H 563.024 -6.11637 -2.10971 0
M  V30 6137 N 563.156 0.464375 -1.50603 0
M  V30 6138 C 564.404 1.21356 -1.61608 0
M  V30 6139 C 564.725 1.92329 -0.321643 0
M  V30 6140 O 563.995 1.84403 0.661232 0
M  V30 6141 H 562.575 0.45094 -0.595535 0
M  V30 6142 H 565.237 0.535046 -1.87412 0
M  V30 6143 H 564.333 1.95783 -2.43054 0
M  V30 6144 N 564.634 1.40294 0.718013 0
M  V30 6145 C 565.544 1.42678 1.86226 0
M  V30 6146 C 566.56 0.319655 1.71039 0
M  V30 6147 O 567.736 0.563852 1.93346 0
M  V30 6148 C 564.801 1.2852 3.21999 0
M  V30 6149 C 563.862 2.49354 3.49458 0
M  V30 6150 C 563.095 2.35863 4.78753 0
M  V30 6151 O 563.318 1.37114 5.53675 0
M  V30 6152 O 562.252 3.25189 5.06494 0
M  V30 6153 H 566.078 2.39167 1.87171 0
M  V30 6154 H 563.663 1.2159 0.868112 0
M  V30 6155 H 565.545 1.22824 4.03103 0
M  V30 6156 H 564.22 0.351359 3.21787 0
M  V30 6157 H 563.127 2.60628 2.68373 0
M  V30 6158 H 564.46 3.41491 3.54464 0
M  V30 6159 N 566.112 -0.949982 1.2575 0
M  V30 6160 C 567.359 -1.69515 1.10774 0
M  V30 6161 C 567.687 -1.91316 -0.350479 0
M  V30 6162 O 566.942 -1.48515 -1.27443 0
M  V30 6163 C 567.241 -3.08039 1.81237 0
M  V30 6164 C 566.907 -3.06023 3.31151 0
M  V30 6165 C 565.569 -3.0518 3.72047 0
M  V30 6166 C 567.921 -2.98998 4.26907 0
M  V30 6167 C 565.249 -2.95067 5.07102 0
M  V30 6168 C 567.601 -2.90426 5.61992 0
M  V30 6169 C 566.265 -2.87922 6.0221 0
M  V30 6170 H 565.535 -0.6203 0.405351 0
M  V30 6171 H 568.182 -1.10953 1.56082 0
M  V30 6172 H 566.487 -3.70172 1.28373 0
M  V30 6173 H 568.184 -3.64526 1.67098 0
M  V30 6174 H 564.774 -3.07453 2.98614 0
M  V30 6175 H 568.958 -2.98764 3.963 0
M  V30 6176 H 564.214 -2.915 5.37436 0
M  V30 6177 H 568.388 -2.83952 6.35881 0
M  V30 6178 H 566.015 -2.79841 7.06819 0
M  V30 6179 N 567.59 -1.07411 -1.15328 0
M  V30 6180 C 568.553 -0.698914 -2.18284 0
M  V30 6181 C 569.553 0.261149 -1.58665 0
M  V30 6182 O 570.743 0.0420277 -1.74149 0
M  V30 6183 C 567.875 -0.0302427 -3.40887 0
M  V30 6184 H 569.068 -1.61045 -2.52991 0
M  V30 6185 H 566.621 -0.870724 -1.298 0
M  V30 6186 H 567.356 0.893505 -3.11748 0
M  V30 6187 H 567.141 -0.720759 -3.85419 0
M  V30 6188 H 568.631 0.21759 -4.17033 0
M  V30 6189 N 569.068 1.32177 -0.85831 0
M  V30 6190 C 570.314 1.97417 -0.46417 0
M  V30 6191 C 570.647 1.67746 0.978514 0
M  V30 6192 O 569.922 0.967654 1.68721 0
M  V30 6193 C 570.205 3.53069 -0.708094 0
M  V30 6194 C 570.058 3.92357 -2.19946 0
M  V30 6195 C 571.377 4.39783 -0.166881 0
M  V30 6196 H 568.496 0.717097 -0.17012 0
M  V30 6197 H 571.138 1.56499 -1.07741 0
M  V30 6198 H 569.288 3.88054 -0.186128 0
M  V30 6199 H 570.96 3.67533 -2.78779 0
M  V30 6200 H 569.203 3.41384 -2.67656 0
M  V30 6201 H 569.874 5.00841 -2.32082 0
M  V30 6202 H 572.35 4.11556 -0.613285 0
M  V30 6203 H 571.226 5.47671 -0.367093 0
M  V30 6204 H 571.487 4.32196 0.930559 0
M  V30 6205 N 570.547 0.616602 1.45037 0
M  V30 6206 C 571.824 0.0469086 1.95544 0
M  V30 6207 C 572.204 -1.42345 1.55888 0
M  V30 6208 O 571.552 -2.13055 0.825824 0
M  V30 6209 C 571.762 0.254489 3.48071 0
M  V30 6210 C 573.11 0.140025 4.24369 0
M  V30 6211 O 574.134 0.185084 3.55719 0
M  V30 6212 O 572.993 0.0327034 5.4649 0
M  V30 6213 H 570.087 -0.0306051 0.826433 0
M  V30 6214 H 572.633 0.687293 1.55159 0
M  V30 6215 H 571.405 1.27532 3.69934 0
M  V30 6216 H 571.028 -0.42073 3.95368 0
M  V30 6217 N 572.025 -1.5352 0.356285 0
M  V30 6218 C 572.972 -2.25439 -0.494569 0
M  V30 6219 C 573.942 -1.25752 -1.08516 0
M  V30 6220 O 575.127 -1.54513 -1.1194 0
M  V30 6221 C 572.267 -3.04011 -1.63313 0
M  V30 6222 C 571.38 -4.18574 -1.06862 0
M  V30 6223 C 570.515 -4.84607 -2.17552 0
M  V30 6224 C 569.554 -5.91218 -1.58518 0
M  V30 6225 N 568.691 -6.50979 -2.63003 0
M  V30 6226 H 573.531 -2.97737 0.125244 0
M  V30 6227 H 571.068 -1.46916 0.0735789 0
M  V30 6228 H 573.026 -3.47834 -2.30363 0
M  V30 6229 H 571.656 -2.33986 -2.22374 0
M  V30 6230 H 570.708 -3.79303 -0.288672 0
M  V30 6231 H 572.02 -4.95215 -0.596924 0
M  V30 6232 H 571.174 -5.31566 -2.92442 0
M  V30 6233 H 569.913 -4.07418 -2.6807 0
M  V30 6234 H 568.918 -5.4363 -0.821391 0
M  V30 6235 H 570.143 -6.70322 -1.08836 0
M  V30 6236 H 568.089 -5.76648 -3.12751 0
M  V30 6237 H 568.006 -7.23131 -2.20493 0
M  V30 6238 H 569.274 -7.02589 -3.37623 0
M  V30 6239 N 573.503 -0.0852151 -1.57369 0
M  V30 6240 C 574.751 0.579658 -1.93609 0
M  V30 6241 C 575.072 1.69332 -0.967043 0
M  V30 6242 O 574.342 1.95892 -0.0174215 0
M  V30 6243 H 572.922 0.217113 -0.714752 0
M  V30 6244 H 575.584 -0.146226 -1.94351 0
M  V30 6245 H 574.68 0.996276 -2.95771 0
M  V30 6246 N 574.981 1.5647 0.188427 0
M  V30 6247 C 576.209 1.85131 0.923803 0
M  V30 6248 C 576.624 0.668537 1.76567 0
M  V30 6249 O 575.981 -0.362662 1.7886 0
M  V30 6250 C 576.032 3.12661 1.81453 0
M  V30 6251 O 575.753 4.26378 1.00665 0
M  V30 6252 C 577.254 3.54548 2.66103 0
M  V30 6253 H 574.474 0.614624 0.269218 0
M  V30 6254 H 577.018 2.03581 0.193671 0
M  V30 6255 H 575.173 2.96088 2.49821 0
M  V30 6256 H 575.587 4.99041 1.61425 0
M  V30 6257 H 577.061 4.4673 3.24247 0
M  V30 6258 H 577.538 2.77853 3.40139 0
M  V30 6259 H 578.144 3.73674 2.03096 0
M  V30 6260 N 576.459 -0.456382 1.50847 0
M  V30 6261 C 577.369 -1.57805 1.73594 0
M  V30 6262 C 578.385 -1.62599 0.619476 0
M  V30 6263 O 579.561 -1.80195 0.899532 0
M  V30 6264 C 576.626 -2.93926 1.8387 0
M  V30 6265 C 575.687 -2.99402 3.07663 0
M  V30 6266 C 574.92 -4.29031 3.1744 0
M  V30 6267 O 575.143 -5.20358 2.33631 0
M  V30 6268 O 574.077 -4.40401 4.10281 0
M  V30 6269 H 577.903 -1.41531 2.68705 0
M  V30 6270 H 575.488 -0.637422 1.3512 0
M  V30 6271 H 577.37 -3.74747 1.92725 0
M  V30 6272 H 576.045 -3.10368 0.91944 0
M  V30 6273 H 574.952 -2.17606 3.043 0
M  V30 6274 H 576.285 -2.87901 3.99216 0
M  V30 6275 N 577.937 -1.40673 -0.710563 0
M  V30 6276 C 579.183 -1.39428 -1.47267 0
M  V30 6277 C 579.516 0.00182129 -1.942 0
M  V30 6278 O 578.791 0.971387 -1.68506 0
M  V30 6279 C 579.074 -2.38812 -2.6952 0
M  V30 6280 C 578.927 -3.87467 -2.28449 0
M  V30 6281 C 580.246 -2.3566 -3.71689 0
M  V30 6282 H 577.365 -0.507768 -0.534173 0
M  V30 6283 H 580.007 -1.71843 -0.810547 0
M  V30 6284 H 578.157 -2.113 -3.26013 0
M  V30 6285 H 579.829 -4.25825 -1.77399 0
M  V30 6286 H 578.072 -4.03058 -1.60395 0
M  V30 6287 H 578.743 -4.5253 -3.16103 0
M  V30 6288 H 581.219 -2.6004 -3.24836 0
M  V30 6289 H 580.095 -3.07237 -4.54859 0
M  V30 6290 H 580.356 -1.36996 -4.20339 0
M  V30 6291 N 579.415 0.9433 -1.26252 0
M  V30 6292 C 580.664 1.68369 -1.11062 0
M  V30 6293 C 580.977 1.92514 0.346104 0
M  V30 6294 O 582.183 2.64358 0.618646 0
M  V30 6295 C 580.639 3.03171 -1.93946 0
M  V30 6296 C 580.247 2.86782 -3.4418 0
M  V30 6297 C 581.991 3.80916 -1.87359 0
M  V30 6298 C 579.898 4.17044 -4.19319 0
M  V30 6299 H 578.828 0.631469 -0.412023 0
M  V30 6300 H 581.479 1.04922 -1.50544 0
M  V30 6301 H 579.861 3.67587 -1.47296 0
M  V30 6302 H 581.035 2.31229 -3.98585 0
M  V30 6303 H 579.35 2.22482 -3.51981 0
M  V30 6304 H 581.947 4.77417 -2.40784 0
M  V30 6305 H 582.29 4.07658 -0.843857 0
M  V30 6306 H 582.823 3.2327 -2.31821 0
M  V30 6307 H 579.562 3.95487 -5.22753 0
M  V30 6308 H 579.082 4.72319 -3.69696 0
M  V30 6309 H 580.761 4.85513 -4.27651 0
M  V30 6310 N 580.893 1.08022 1.14757 0
M  V30 6311 C 582.142 0.802468 1.8505 0
M  V30 6312 C 582.455 -0.674061 1.83619 0
M  V30 6313 O 583.661 -1.06683 2.49662 0
M  V30 6314 C 582.117 1.38551 3.32162 0
M  V30 6315 C 581.725 2.89354 3.42021 0
M  V30 6316 C 583.469 1.18608 4.07594 0
M  V30 6317 C 581.376 3.40815 4.83321 0
M  V30 6318 H 580.306 0.296518 0.693248 0
M  V30 6319 H 582.957 1.30114 1.29393 0
M  V30 6320 H 581.339 0.814556 3.87532 0
M  V30 6321 H 582.513 3.52552 2.96722 0
M  V30 6322 H 580.828 3.08165 2.80041 0
M  V30 6323 H 583.425 1.54525 5.11885 0
M  V30 6324 H 583.768 0.125599 4.1611 0
M  V30 6325 H 584.301 1.72375 3.58513 0
M  V30 6326 H 581.04 4.46418 4.79991 0
M  V30 6327 H 580.56 2.82374 5.29174 0
M  V30 6328 H 582.239 3.37171 5.522 0
M  V30 6329 N 582.371 -1.3172 0.865308 0
M  V30 6330 C 583.319 -2.30569 0.306674 0
M  V30 6331 C 584.313 -1.59317 -0.575724 0
M  V30 6332 O 585.519 -1.73961 -0.462343 0
M  V30 6333 H 581.894 -0.747681 0.0804834 0
M  V30 6334 H 583.865 -2.75165 1.15441 0
M  V30 6335 C 582.614 -3.44358 -0.480952 0
M  V30 6336 H 581.937 -3.99354 0.18876 0
M  V30 6337 H 583.377 -4.15652 -0.837241 0
M  V30 6338 C 581.836 -2.92574 -1.67039 0
M  V30 6339 O 582.366 -2.90954 -2.76964 0
M  V30 6340 N 580.572 -2.48835 -1.50097 0
M  V30 6341 H 580.119 -2.50353 -0.606738 0
M  V30 6342 H 580.077 -2.14543 -2.29823 0
M  V30 6343 N 583.85 -0.624285 -1.44708 0
M  V30 6344 C 584.779 0.0717025 -2.3339 0
M  V30 6345 C 585.76 0.841814 -1.47809 0
M  V30 6346 O 586.946 0.809056 -1.76544 0
M  V30 6347 C 584.076 1.05852 -3.30776 0
M  V30 6348 C 583.029 0.400503 -4.26122 0
M  V30 6349 C 582.356 1.49674 -5.13324 0
M  V30 6350 C 583.656 -0.688924 -5.17737 0
M  V30 6351 H 585.35 -0.668819 -2.91834 0
M  V30 6352 H 582.896 -0.32308 -1.40329 0
M  V30 6353 H 584.849 1.5541 -3.91696 0
M  V30 6354 H 583.572 1.82984 -2.70526 0
M  V30 6355 H 582.231 -0.0743687 -3.66525 0
M  V30 6356 H 581.88 2.25877 -4.49431 0
M  V30 6357 H 581.58 1.06188 -5.77926 0
M  V30 6358 H 583.104 1.99427 -5.77115 0
M  V30 6359 H 584.518 -0.276724 -5.72632 0
M  V30 6360 H 582.915 -1.04652 -5.90904 0
M  V30 6361 H 583.985 -1.55884 -4.5916 0
M  V30 6362 N 585.328 1.53329 -0.364422 0
M  V30 6363 C 586.574 2.02222 0.21855 0
M  V30 6364 C 586.929 1.24702 1.46517 0
M  V30 6365 O 586.222 0.331969 1.88702 0
M  V30 6366 C 586.416 3.52911 0.564661 0
M  V30 6367 C 586.245 4.45023 -0.646862 0
M  V30 6368 C 585.015 4.91838 -1.15858 0
M  V30 6369 C 587.213 4.91581 -1.51172 0
M  V30 6370 N 585.195 5.67955 -2.33025 0
M  V30 6371 C 586.566 5.66028 -2.53006 0
M  V30 6372 C 588.621 4.73656 -1.53473 0
M  V30 6373 C 587.324 6.24457 -3.56996 0
M  V30 6374 C 589.35 5.3295 -2.56356 0
M  V30 6375 C 588.712 6.07282 -3.56914 0
M  V30 6376 H 584.811 0.780832 0.0427199 0
M  V30 6377 H 587.395 1.87937 -0.508704 0
M  V30 6378 H 585.566 3.6736 1.26099 0
M  V30 6379 H 587.298 3.88528 1.13262 0
M  V30 6380 H 584.053 4.68043 -0.723393 0
M  V30 6381 H 584.477 6.10675 -2.92241 0
M  V30 6382 H 589.119 4.15714 -0.770842 0
M  V30 6383 H 586.837 6.81496 -4.34268 0
M  V30 6384 H 590.423 5.20976 -2.58989 0
M  V30 6385 H 589.303 6.52345 -4.35218 0
M  V30 6386 N 586.806 0.0935595 1.57322 0
M  V30 6387 C 587.769 -0.851426 2.12799 0
M  V30 6388 C 588.769 -1.21187 1.0569 0
M  V30 6389 O 589.959 -1.14156 1.31583 0
M  V30 6390 C 587.091 -2.14779 2.64731 0
M  V30 6391 H 588.284 -0.369733 2.97612 0
M  V30 6392 H 585.837 -0.155417 1.55525 0
M  V30 6393 H 586.572 -2.67437 1.83434 0
M  V30 6394 H 586.357 -1.89907 3.43042 0
M  V30 6395 H 587.847 -2.82383 3.07651 0
M  V30 6396 N 588.284 -1.56567 -0.180126 0
M  V30 6397 C 589.214 -1.98753 -1.22553 0
M  V30 6398 C 590.195 -0.86175 -1.46656 0
M  V30 6399 O 591.38 -1.12719 -1.58139 0
M  V30 6400 C 588.51 -2.33988 -2.56645 0
M  V30 6401 C 587.464 -3.49445 -2.47128 0
M  V30 6402 C 586.79 -3.70397 -3.8563 0
M  V30 6403 C 588.09 -4.83171 -1.98352 0
M  V30 6404 H 589.784 -2.86332 -0.874896 0
M  V30 6405 H 587.33 -1.37757 -0.419414 0
M  V30 6406 H 589.283 -2.62097 -3.29974 0
M  V30 6407 H 588.007 -1.43309 -2.93479 0
M  V30 6408 H 586.666 -3.2145 -1.76254 0
M  V30 6409 H 586.314 -2.77023 -4.19842 0
M  V30 6410 H 586.014 -4.48077 -3.80132 0
M  V30 6411 H 587.538 -4.00897 -4.60558 0
M  V30 6412 H 588.952 -5.10213 -2.61449 0
M  V30 6413 H 587.349 -5.64425 -2.03823 0
M  V30 6414 H 588.419 -4.75753 -0.937402 0
M  V30 6415 N 589.762 0.448376 -1.51087 0
M  V30 6416 C 590.712 1.54156 -1.67988 0
M  V30 6417 C 591.696 1.5178 -0.534015 0
M  V30 6418 O 592.888 1.58419 -0.789448 0
M  V30 6419 C 590.017 2.92437 -1.79822 0
M  V30 6420 C 589.103 2.99611 -3.00157 0
M  V30 6421 N 589.494 2.7655 -4.23502 0
M  V30 6422 C 587.792 3.30764 -2.99184 0
M  V30 6423 C 588.493 2.89281 -5.0467 0
M  V30 6424 N 587.469 3.20473 -4.39088 0
M  V30 6425 H 591.271 1.35061 -2.61028 0
M  V30 6426 H 588.785 0.655504 -1.48583 0
M  V30 6427 H 590.782 3.71068 -1.90037 0
M  V30 6428 H 589.442 3.1256 -0.879554 0
M  V30 6429 H 590.453 2.5169 -4.52628 0
M  V30 6430 H 587.13 3.56732 -2.16907 0
M  V30 6431 H 588.52 2.75499 -6.12821 0
M  V30 6432 N 591.24 1.41047 0.703093 0
M  V30 6433 C 592.19 1.38774 1.80903 0
M  V30 6434 C 593.174 0.263275 1.58731 0
M  V30 6435 O 594.366 0.503362 1.69692 0
M  V30 6436 C 591.495 1.26497 3.19145 0
M  V30 6437 C 590.581 2.43775 3.47037 0
M  V30 6438 N 590.972 3.69249 3.45672 0
M  V30 6439 C 589.27 2.37425 3.77552 0
M  V30 6440 C 589.971 4.46989 3.72258 0
M  V30 6441 N 588.947 3.76998 3.91629 0
M  V30 6442 H 592.749 2.33714 1.78199 0
M  V30 6443 H 590.263 1.34996 0.902762 0
M  V30 6444 H 592.26 1.2295 3.98358 0
M  V30 6445 H 590.92 0.32534 3.23066 0
M  V30 6446 H 591.931 4.02239 3.26228 0
M  V30 6447 H 588.608 1.51895 3.88888 0
M  V30 6448 H 589.998 5.55894 3.77402 0
M  V30 6449 N 592.718 -0.936591 1.26751 0
M  V30 6450 C 593.666 -2.0573 1.08527 0
M  V30 6451 C 594.66 -1.69397 0.0108784 0
M  V30 6452 O 595.866 -1.79215 0.167915 0
M  V30 6453 H 592.241 -0.673691 0.334133 0
M  V30 6454 H 594.212 -2.1825 2.03493 0
M  V30 6455 C 592.961 -3.39738 0.739845 0
M  V30 6456 H 592.284 -3.68174 1.55845 0
M  V30 6457 H 593.724 -4.18955 0.652149 0
M  V30 6458 C 592.183 -3.32292 -0.555288 0
M  V30 6459 O 592.713 -3.68794 -1.59229 0
M  V30 6460 N 590.919 -2.85394 -0.54762 0
M  V30 6461 H 590.466 -2.55886 0.296667 0
M  V30 6462 H 590.424 -2.80795 -1.41427 0
M  V30 6463 N 594.196 -1.08629 -1.14182 0
M  V30 6464 C 595.106 -0.730126 -2.22949 0
M  V30 6465 C 596.122 0.26436 -1.7198 0
M  V30 6466 O 597.298 0.107742 -2.01112 0
M  V30 6467 C 594.363 -0.147227 -3.46387 0
M  V30 6468 C 593.424 -1.19662 -4.12286 0
M  V30 6469 C 592.657 -0.641437 -5.29831 0
M  V30 6470 O 592.88 0.538351 -5.67854 0
M  V30 6471 O 591.814 -1.39257 -5.85569 0
M  V30 6472 H 595.64 -1.63753 -2.55771 0
M  V30 6473 H 593.225 -0.860118 -1.22157 0
M  V30 6474 H 595.107 0.174923 -4.21037 0
M  V30 6475 H 593.782 0.733304 -3.15285 0
M  V30 6476 H 592.689 -1.57133 -3.395 0
M  V30 6477 H 594.022 -2.0495 -4.475 0
M  V30 6478 N 595.674 1.31259 -0.872281 0
M  V30 6479 C 596.621 2.28459 -0.327857 0
M  V30 6480 C 597.591 1.55831 0.574957 0
M  V30 6481 O 598.776 1.83965 0.506101 0
M  V30 6482 C 595.916 3.41985 0.462644 0
M  V30 6483 C 595.029 4.29458 -0.467949 0
M  V30 6484 C 594.164 5.30131 0.336903 0
M  V30 6485 C 593.203 6.0925 -0.58997 0
M  V30 6486 N 592.34 7.01872 0.178775 0
M  V30 6487 H 597.18 2.74414 -1.16193 0
M  V30 6488 H 594.717 1.34994 -0.584376 0
M  V30 6489 H 596.675 4.06547 0.936759 0
M  V30 6490 H 595.305 2.97134 1.2614 0
M  V30 6491 H 594.357 3.65318 -1.06052 0
M  V30 6492 H 595.669 4.84677 -1.17856 0
M  V30 6493 H 594.823 6.0038 0.873427 0
M  V30 6494 H 593.562 4.75573 1.08079 0
M  V30 6495 H 592.567 5.37889 -1.13823 0
M  V30 6496 H 593.792 6.65894 -1.33275 0
M  V30 6497 H 591.738 6.49721 0.905435 0
M  V30 6498 H 591.655 7.54522 -0.472452 0
M  V30 6499 H 592.923 7.76382 0.696454 0
M  V30 6500 N 597.152 0.631951 1.44375 0
M  V30 6501 C 598.062 -0.073674 2.34484 0
M  V30 6502 C 599.078 -0.834825 1.52665 0
M  V30 6503 O 600.254 -0.786902 1.85391 0
M  V30 6504 C 597.319 -1.04247 3.30656 0
M  V30 6505 C 596.38 -0.280602 4.28382 0
M  V30 6506 C 595.613 -1.20325 5.19959 0
M  V30 6507 O 595.836 -2.44199 5.15484 0
M  V30 6508 O 594.77 -0.687128 5.97965 0
M  V30 6509 H 598.596 0.667477 2.96274 0
M  V30 6510 H 596.181 0.392144 1.44162 0
M  V30 6511 H 598.063 -1.59981 3.89851 0
M  V30 6512 H 596.738 -1.76422 2.71398 0
M  V30 6513 H 595.645 0.319804 3.72731 0
M  V30 6514 H 596.978 0.401144 4.90563 0
M  V30 6515 N 598.631 -1.53133 0.372548 0
M  V30 6516 C 599.877 -2.02336 -0.207823 0
M  V30 6517 C 600.232 -1.25477 -1.45853 0
M  V30 6518 O 599.525 -0.341971 -1.88524 0
M  V30 6519 C 599.719 -3.53206 -0.545938 0
M  V30 6520 C 599.548 -4.44674 0.670454 0
M  V30 6521 C 598.318 -4.91217 1.18465 0
M  V30 6522 C 600.516 -4.90772 1.53777 0
M  V30 6523 N 598.498 -5.66711 2.36034 0
M  V30 6524 C 599.869 -5.64678 2.56004 0
M  V30 6525 C 601.924 -4.72836 1.55983 0
M  V30 6526 C 600.627 -6.22555 3.60303 0
M  V30 6527 C 602.653 -5.31583 2.59179 0
M  V30 6528 C 602.015 -6.05381 3.6013 0
M  V30 6529 H 598.114 -0.781048 -0.0385783 0
M  V30 6530 H 600.698 -1.87665 0.518664 0
M  V30 6531 H 598.869 -3.68024 -1.24149 0
M  V30 6532 H 600.601 -3.89123 -1.112 0
M  V30 6533 H 597.356 -4.67652 0.748205 0
M  V30 6534 H 597.78 -6.09117 2.95475 0
M  V30 6535 H 602.422 -4.15299 0.792877 0
M  V30 6536 H 600.14 -6.79183 4.37876 0
M  V30 6537 H 603.726 -5.19595 2.61749 0
M  V30 6538 H 602.606 -6.50028 4.38672 0
M  V30 6539 N 600.109 -0.101901 -1.5727 0
M  V30 6540 C 601.059 0.865346 -2.1094 0
M  V30 6541 C 602.043 1.2394 -1.02605 0
M  V30 6542 O 603.235 1.21334 -1.28868 0
M  V30 6543 C 600.364 2.12187 -2.69874 0
M  V30 6544 C 599.45 1.77295 -3.85263 0
M  V30 6545 N 599.841 1.12993 -4.93017 0
M  V30 6546 C 598.139 2.06862 -3.95126 0
M  V30 6547 C 598.84 0.968631 -5.73579 0
M  V30 6548 N 597.816 1.48814 -5.22834 0
M  V30 6549 H 601.618 0.364368 -2.91633 0
M  V30 6550 H 599.132 0.101104 -1.62085 0
M  V30 6551 H 601.129 2.82431 -3.06657 0
M  V30 6552 H 599.789 2.62844 -1.90639 0
M  V30 6553 H 600.8 0.795935 -5.11747 0
M  V30 6554 H 597.477 2.59686 -3.26909 0
M  V30 6555 H 598.867 0.465231 -6.70287 0
M  V30 6556 N 601.587 1.56661 0.17182 0
M  V30 6557 C 602.519 1.92934 1.2373 0
M  V30 6558 C 603.532 0.822385 1.40502 0
M  V30 6559 O 604.721 1.10083 1.40514 0
M  V30 6560 C 601.821 2.16651 2.60607 0
M  V30 6561 C 600.994 3.47878 2.6514 0
M  V30 6562 C 600.053 3.60429 3.83377 0
M  V30 6563 O 599.079 4.33051 3.69398 0
M  V30 6564 N 600.281 2.95241 4.99813 0
M  V30 6565 H 603.046 2.84931 0.929205 0
M  V30 6566 H 600.607 1.5781 0.361588 0
M  V30 6567 H 602.599 2.22312 3.38171 0
M  V30 6568 H 601.169 1.3104 2.83809 0
M  V30 6569 H 600.389 3.53879 1.73675 0
M  V30 6570 H 601.677 4.34232 2.6518 0
M  V30 6571 H 601.075 2.3611 5.14071 0
M  V30 6572 H 599.632 3.06499 5.75241 0
M  V30 6573 N 603.065 -0.440357 1.51323 0
M  V30 6574 C 604.476 -1.02032 1.56353 0
M  V30 6575 C 604.827 -1.92382 0.385197 0
M  V30 6576 O 603.952 -2.10583 -0.498373 0
M  V30 6577 C 604.547 -1.85723 2.83359 0
M  V30 6578 C 603.106 -2.38774 2.90971 0
M  V30 6579 C 602.253 -1.17908 2.50984 0
M  V30 6580 H 605.204 -0.221744 1.57143 0
M  V30 6581 H 605.225 -2.71141 2.66951 0
M  V30 6582 H 604.737 -1.19939 3.69102 0
M  V30 6583 H 602.838 -3.08021 2.09651 0
M  V30 6584 H 602.951 -2.71778 3.94555 0
M  V30 6585 H 601.315 -1.52347 2.04114 0
M  V30 6586 H 602.098 -0.537393 3.39068 0
M  V30 6587 N 604.543 -1.41418 -0.695603 0
M  V30 6588 C 605.82 -1.31264 -1.45014 0
M  V30 6589 C 606.2 0.0597994 -2.11015 0
M  V30 6590 O 605.548 1.07403 -2.01685 0
M  V30 6591 C 605.758 -2.466 -2.4696 0
M  V30 6592 C 607.106 -2.87763 -3.12214 0
M  V30 6593 O 608.13 -2.46339 -2.57285 0
M  V30 6594 O 606.989 -3.59395 -4.11701 0
M  V30 6595 H 604.083 -0.516576 -0.645816 0
M  V30 6596 H 606.629 -1.53382 -0.726084 0
M  V30 6597 H 605.401 -3.38183 -1.96845 0
M  V30 6598 H 605.024 -2.26358 -3.26876 0
M  V30 6599 N 606.021 0.929856 -1.27246 0
M  V30 6600 C 606.953 2.03434 -1.0558 0
M  V30 6601 C 607.966 1.62795 -0.0125762 0
M  V30 6602 O 609.155 1.76685 -0.2539 0
M  V30 6603 C 606.255 3.33915 -0.57912 0
M  V30 6604 C 605.428 4.03259 -1.69415 0
M  V30 6605 C 604.487 5.12014 -1.21357 0
M  V30 6606 O 603.513 5.36097 -1.91282 0
M  V30 6607 N 604.715 5.8046 -0.0680622 0
M  V30 6608 H 607.48 2.22583 -2.00691 0
M  V30 6609 H 605.041 1.1001 -1.18783 0
M  V30 6610 H 607.033 4.03978 -0.241563 0
M  V30 6611 H 605.603 3.11355 0.278703 0
M  V30 6612 H 604.823 3.26958 -2.20209 0
M  V30 6613 H 606.111 4.46337 -2.44255 0
M  V30 6614 H 605.509 5.63345 0.515626 0
M  V30 6615 H 604.066 6.51461 0.210332 0
M  V30 6616 N 607.499 1.09233 1.13605 0
M  V30 6617 C 608.746 0.827159 1.84836 0
M  V30 6618 C 609.074 -0.647199 1.83416 0
M  V30 6619 O 608.329 -1.49228 1.26608 0
M  V30 6620 C 608.628 1.305 3.32723 0
M  V30 6621 C 608.294 2.78864 3.54325 0
M  V30 6622 C 606.956 3.19382 3.59928 0
M  V30 6623 C 609.308 3.74532 3.62457 0
M  V30 6624 C 606.636 4.54346 3.71196 0
M  V30 6625 C 608.988 5.09283 3.75252 0
M  V30 6626 C 607.652 5.49394 3.79108 0
M  V30 6627 H 606.922 0.302679 0.676363 0
M  V30 6628 H 609.569 1.36676 1.34134 0
M  V30 6629 H 607.874 0.68517 3.85762 0
M  V30 6630 H 609.571 1.07648 3.86281 0
M  V30 6631 H 606.161 2.46507 3.50617 0
M  V30 6632 H 610.345 3.44343 3.57409 0
M  V30 6633 H 605.601 4.84864 3.72447 0
M  V30 6634 H 609.775 5.83269 3.80487 0
M  V30 6635 H 607.402 6.5397 3.87591 0
M  V30 6636 N 608.977 -1.30795 0.87923 0
M  V30 6637 C 609.91 -2.26396 0.286404 0
M  V30 6638 C 610.888 -1.51528 -0.589748 0
M  V30 6639 O 612.072 -1.80566 -0.541119 0
M  V30 6640 C 609.199 -3.33458 -0.593581 0
M  V30 6641 C 608.245 -4.2597 0.21247 0
M  V30 6642 S 609.078 -5.11132 1.59702 0
M  V30 6643 C 610.234 -6.21705 0.723408 0
M  V30 6644 H 610.467 -2.7633 1.09677 0
M  V30 6645 H 608 -1.38703 0.678305 0
M  V30 6646 H 609.958 -3.9561 -1.09557 0
M  V30 6647 H 608.619 -2.82259 -1.37799 0
M  V30 6648 H 607.812 -5.01907 -0.458822 0
M  V30 6649 H 607.414 -3.68363 0.646883 0
M  V30 6650 H 609.706 -6.77472 -0.0620739 0
M  V30 6651 H 610.649 -6.93007 1.4542 0
M  V30 6652 H 611.057 -5.63771 0.286855 0
M  V30 6653 N 610.455 -0.639598 -1.44038 0
M  V30 6654 C 611.866 -0.228866 -1.85292 0
M  V30 6655 C 612.217 1.22161 -1.53529 0
M  V30 6656 O 611.342 1.93064 -0.977518 0
M  V30 6657 C 611.937 -0.408592 -3.36327 0
M  V30 6658 C 610.496 -0.0522953 -3.76364 0
M  V30 6659 C 609.643 -0.717959 -2.67844 0
M  V30 6660 H 612.594 -0.844194 -1.34384 0
M  V30 6661 H 612.615 0.349968 -3.78887 0
M  V30 6662 H 612.127 -1.46435 -3.59414 0
M  V30 6663 H 610.228 1.0014 -3.58891 0
M  V30 6664 H 610.341 -0.468261 -4.76806 0
M  V30 6665 H 608.705 -0.152459 -2.54243 0
M  V30 6666 H 609.488 -1.77648 -2.93762 0
M  V30 6667 N 611.933 1.52934 -0.380664 0
M  V30 6668 C 612.843 2.29921 0.466192 0
M  V30 6669 C 613.859 1.36488 1.07922 0
M  V30 6670 O 615.035 1.69553 1.0869 0
M  V30 6671 C 612.1 3.08468 1.58266 0
M  V30 6672 C 611.161 4.17595 0.995627 0
M  V30 6673 C 610.394 4.92387 2.05889 0
M  V30 6674 O 610.617 4.67184 3.27254 0
M  V30 6675 O 609.551 5.77949 1.68102 0
M  V30 6676 H 613.377 3.03274 -0.160735 0
M  V30 6677 H 610.962 1.48698 -0.144617 0
M  V30 6678 H 612.844 3.57469 2.23145 0
M  V30 6679 H 611.519 2.37937 2.19471 0
M  V30 6680 H 610.426 3.72811 0.310332 0
M  V30 6681 H 611.759 4.90336 0.427918 0
M  V30 6682 N 613.412 0.11024 1.57214 0
M  V30 6683 C 614.828 -0.24638 1.57687 0
M  V30 6684 C 615.028 -1.67344 1.12241 0
M  V30 6685 O 614.084 -2.39298 0.805783 0
M  V30 6686 C 615.397 -0.0210288 3.00693 0
M  V30 6687 C 616.945 -0.0876077 3.12877 0
M  V30 6688 C 617.42 0.10994 4.57868 0
M  V30 6689 N 618.911 0.0556135 4.63167 0
M  V30 6690 C 619.646 0.183495 5.73106 0
M  V30 6691 N 619.142 0.367058 6.91827 0
M  V30 6692 N 620.935 0.123689 5.61964 0
M  V30 6693 H 613.086 1.04246 1.85058 0
M  V30 6694 H 615.349 0.40979 0.854854 0
M  V30 6695 H 615.055 0.965203 3.38196 0
M  V30 6696 H 614.929 -0.756748 3.69531 0
M  V30 6697 H 617.316 -1.06436 2.75237 0
M  V30 6698 H 617.397 0.67985 2.466 0
M  V30 6699 H 617.041 1.08362 4.96206 0
M  V30 6700 H 616.971 -0.677397 5.22225 0
M  V30 6701 H 619.462 -0.0831062 3.77809 0
M  V30 6702 H 619.775 0.455739 7.71455 0
M  V30 6703 H 618.12 0.40292 6.93831 0
M  V30 6704 H 621.311 -0.0186928 4.68096 0
M  V30 6705 H 621.484 0.226797 6.47603 0
M  V30 6706 N 614.89 -1.56749 -0.16351 0
M  V30 6707 C 616.137 -1.82434 -0.878866 0
M  V30 6708 C 616.465 -0.688557 -1.81904 0
M  V30 6709 O 615.72 0.323644 -1.93005 0
M  V30 6710 C 616.019 -3.14342 -1.70071 0
M  V30 6711 C 615.685 -4.41647 -0.908775 0
M  V30 6712 C 614.347 -4.76224 -0.690236 0
M  V30 6713 C 616.699 -5.19998 -0.353815 0
M  V30 6714 C 614.027 -5.86624 0.0942374 0
M  V30 6715 C 616.379 -6.3122 0.41761 0
M  V30 6716 C 615.043 -6.64358 0.646879 0
M  V30 6717 H 614.313 -0.667574 -0.3216 0
M  V30 6718 H 616.96 -1.90963 -0.14337 0
M  V30 6719 H 615.265 -3.0119 -2.50583 0
M  V30 6720 H 616.962 -3.31426 -2.25738 0
M  V30 6721 H 613.552 -4.1453 -1.08916 0
M  V30 6722 H 617.736 -4.93673 -0.509975 0
M  V30 6723 H 612.992 -6.10751 0.281529 0
M  V30 6724 H 617.166 -6.91133 0.854849 0
M  V30 6725 H 614.793 -7.49742 1.25662 0
M  V30 6726 N 616.368 0.432326 -1.51554 0
M  V30 6727 C 617.298 1.53242 -1.76179 0
M  V30 6728 C 618.279 1.58717 -0.611801 0
M  V30 6729 O 619.464 1.74364 -0.855033 0
M  V30 6730 C 616.594 2.91278 -1.89141 0
M  V30 6731 C 615.548 3.00663 -3.04608 0
M  V30 6732 C 614.874 4.40728 -3.02759 0
M  V30 6733 C 616.174 2.74281 -4.44485 0
M  V30 6734 H 617.868 1.32886 -2.68294 0
M  V30 6735 H 615.414 0.637841 -1.29103 0
M  V30 6736 H 617.367 3.68203 -2.04951 0
M  V30 6737 H 616.091 3.12877 -0.936785 0
M  V30 6738 H 614.75 2.26179 -2.88511 0
M  V30 6739 H 614.398 4.59301 -2.05065 0
M  V30 6740 H 614.098 4.47936 -3.80299 0
M  V30 6741 H 615.622 5.19619 -3.20669 0
M  V30 6742 H 617.036 3.40936 -4.60907 0
M  V30 6743 H 615.433 2.92893 -5.23769 0
M  V30 6744 H 616.503 1.69856 -4.54177 0
M  V30 6745 N 617.846 1.41785 0.688094 0
M  V30 6746 C 618.794 1.44436 1.82321 0
M  V30 6747 C 619.788 0.321544 1.6632 0
M  V30 6748 O 620.994 0.493931 1.73091 0
M  V30 6749 H 617.369 0.452084 0.600936 0
M  V30 6750 H 619.34 2.40087 1.77202 0
M  V30 6751 C 618.089 1.35071 3.20392 0
M  V30 6752 H 617.412 2.2076 3.33324 0
M  V30 6753 H 618.852 1.40988 3.99873 0
M  V30 6754 C 617.311 0.0639127 3.36839 0
M  V30 6755 O 617.841 -0.888495 3.91751 0
M  V30 6756 N 616.047 -0.0146114 2.90596 0
M  V30 6757 H 615.594 0.761191 2.46097 0
M  V30 6758 H 615.552 -0.874988 3.01979 0
M  V30 6759 N 619.324 -0.923095 1.27737 0
M  V30 6760 C 620.735 -1.48626 1.12993 0
M  V30 6761 C 621.086 -1.94142 -0.283439 0
M  V30 6762 O 620.211 -1.81605 -1.17681 0
M  V30 6763 C 620.806 -2.70117 2.04505 0
M  V30 6764 C 619.365 -3.22642 1.93853 0
M  V30 6765 C 618.512 -1.95368 1.96791 0
M  V30 6766 H 621.463 -0.736737 1.40563 0
M  V30 6767 H 621.484 -3.4506 1.60356 0
M  V30 6768 H 620.996 -2.36959 3.07363 0
M  V30 6769 H 619.097 -3.60549 0.939968 0
M  V30 6770 H 619.21 -3.88525 2.80331 0
M  V30 6771 H 617.574 -2.12061 1.41076 0
M  V30 6772 H 618.357 -1.64517 3.01312 0
M  V30 6773 N 620.802 -1.09834 -1.13024 0
M  V30 6774 C 621.765 -0.745058 -2.16752 0
M  V30 6775 C 622.765 0.227435 -1.59183 0
M  V30 6776 O 623.955 0.0050786 -1.74199 0
M  V30 6777 C 621.087 -0.102543 -3.40746 0
M  V30 6778 H 622.28 -1.66375 -2.49518 0
M  V30 6779 H 619.833 -0.898061 -1.27924 0
M  V30 6780 H 620.568 0.827177 -3.13573 0
M  V30 6781 H 620.353 -0.80235 -3.83803 0
M  V30 6782 H 621.843 0.129082 -4.174 0
M  V30 6783 N 622.28 1.30327 -0.886154 0
M  V30 6784 C 623.528 1.9571 -0.504195 0
M  V30 6785 C 623.849 1.70294 0.950003 0
M  V30 6786 O 623.119 1.02718 1.66811 0
M  V30 6787 H 621.699 0.72412 -0.183465 0
M  V30 6788 H 624.361 1.58835 -1.12949 0
M  V30 6789 H 623.457 3.04704 -0.675431 0
M  V30 6790 N 623.758 0.647228 1.43697 0
M  V30 6791 C 624.986 0.16575 2.06235 0
M  V30 6792 C 625.401 -1.1662 1.48476 0
M  V30 6793 O 624.758 -1.7187 0.613762 0
M  V30 6794 C 624.809 0.0621651 3.61447 0
M  V30 6795 O 624.53 1.34146 4.17057 0
M  V30 6796 C 626.031 -0.446102 4.4105 0
M  V30 6797 H 623.251 0.0871158 0.665321 0
M  V30 6798 H 625.795 0.886183 1.84301 0
M  V30 6799 H 623.95 -0.608794 3.82587 0
M  V30 6800 H 624.364 1.19675 5.10664 0
M  V30 6801 H 625.838 -0.46755 5.50016 0
M  V30 6802 H 626.315 -1.47627 4.13646 0
M  V30 6803 H 626.921 0.192159 4.24866 0
M  V30 6804 N 625.236 -1.5273 0.388769 0
M  V30 6805 C 626.168 -2.24081 -0.481704 0
M  V30 6806 C 627.181 -1.26307 -1.02715 0
M  V30 6807 O 628.37 -1.52386 -0.929565 0
M  V30 6808 C 625.47 -2.94315 -1.68024 0
M  V30 6809 C 624.643 -4.18791 -1.26226 0
M  V30 6810 C 623.702 -4.72028 -2.32542 0
M  V30 6811 O 622.728 -5.35129 -1.93972 0
M  V30 6812 N 623.93 -4.51838 -3.64448 0
M  V30 6813 H 626.695 -2.9942 0.129591 0
M  V30 6814 H 624.256 -1.60465 0.2151 0
M  V30 6815 H 626.248 -3.26831 -2.38671 0
M  V30 6816 H 624.818 -2.22287 -2.19789 0
M  V30 6817 H 624.038 -3.92318 -0.384703 0
M  V30 6818 H 625.326 -4.99668 -0.959647 0
M  V30 6819 H 624.724 -4.01468 -3.98547 0
M  V30 6820 H 623.281 -4.88845 -4.31131 0
M  V30 6821 N 626.714 -0.118576 -1.57153 0
M  V30 6822 C 627.644 0.828436 -2.1831 0
M  V30 6823 C 628.625 1.27758 -1.12303 0
M  V30 6824 O 629.81 1.34026 -1.40537 0
M  V30 6825 C 626.94 2.07876 -2.78217 0
M  V30 6826 C 625.894 1.76742 -3.89803 0
M  V30 6827 C 625.22 3.08801 -4.36516 0
M  V30 6828 C 626.52 1.03606 -5.11921 0
M  V30 6829 H 628.214 0.318824 -2.97698 0
M  V30 6830 H 625.76 0.151911 -1.43196 0
M  V30 6831 H 627.713 2.74584 -3.19659 0
M  V30 6832 H 626.437 2.61161 -1.96118 0
M  V30 6833 H 625.096 1.12424 -3.48936 0
M  V30 6834 H 624.744 3.6002 -3.51276 0
M  V30 6835 H 624.444 2.88743 -5.11763 0
M  V30 6836 H 625.968 3.76627 -4.80608 0
M  V30 6837 H 627.382 1.60467 -5.50385 0
M  V30 6838 H 625.779 0.936454 -5.92748 0
M  V30 6839 H 626.849 0.0227421 -4.84895 0
M  V30 6840 N 628.193 1.56834 0.155195 0
M  V30 6841 C 629.442 1.82088 0.867567 0
M  V30 6842 C 629.755 0.69849 1.82703 0
M  V30 6843 O 630.961 0.836407 2.58295 0
M  V30 6844 C 629.417 3.22707 1.59336 0
M  V30 6845 C 629.025 4.42859 0.676719 0
M  V30 6846 C 630.769 3.57242 2.293 0
M  V30 6847 C 628.676 5.74501 1.40367 0
M  V30 6848 H 627.606 0.679057 0.327715 0
M  V30 6849 H 630.257 1.83105 0.120351 0
M  V30 6850 H 628.639 3.16054 2.38591 0
M  V30 6851 H 629.813 4.60731 -0.0800196 0
M  V30 6852 H 628.128 4.16311 0.0859129 0
M  V30 6853 H 630.725 4.52847 2.84312 0
M  V30 6854 H 631.068 2.82901 3.05406 0
M  V30 6855 H 631.601 3.6552 1.56972 0
M  V30 6856 H 628.34 6.51915 0.684623 0
M  V30 6857 H 627.86 5.60579 2.13332 0
M  V30 6858 H 629.539 6.17016 1.94681 0
M  V30 6859 N 629.671 -0.424282 1.51781 0
M  V30 6860 C 630.896 -1.19928 1.6921 0
M  V30 6861 C 631.321 -1.8392 0.394355 0
M  V30 6862 O 630.679 -1.69371 -0.646778 0
M  V30 6863 C 630.727 -2.24937 2.81843 0
M  V30 6864 O 629.831 -3.3073 2.46356 0
M  V30 6865 H 629.172 -0.35078 0.563781 0
M  V30 6866 H 631.702 -0.499401 1.98412 0
M  V30 6867 H 631.712 -2.69512 3.06312 0
M  V30 6868 H 630.387 -1.77742 3.76006 0
M  V30 6869 H 628.964 -2.9154 2.32505 0
M  V30 6870 N 631.149 -1.42148 -0.680565 0
M  V30 6871 C 632.56 -1.3768 -1.26099 0
M  V30 6872 C 632.911 -0.0672348 -1.96085 0
M  V30 6873 O 632.036 0.834172 -1.99676 0
M  V30 6874 C 632.631 -2.49387 -2.29328 0
M  V30 6875 C 631.19 -2.4827 -2.82911 0
M  V30 6876 C 630.337 -2.2847 -1.57152 0
M  V30 6877 H 633.288 -1.51446 -0.474326 0
M  V30 6878 H 633.309 -2.19307 -3.10941 0
M  V30 6879 H 632.821 -3.44686 -1.78363 0
M  V30 6880 H 630.922 -1.56773 -3.38013 0
M  V30 6881 H 631.035 -3.45109 -3.3232 0
M  V30 6882 H 629.399 -1.76623 -1.83511 0
M  V30 6883 H 630.182 -3.25816 -1.0816 0
M  V30 6884 N 632.627 0.916307 -1.28225 0
M  V30 6885 C 633.852 1.7043 -1.18188 0
M  V30 6886 C 634.277 1.86346 0.256274 0
M  V30 6887 O 633.635 1.37175 1.18544 0
M  V30 6888 C 633.683 3.07546 -1.88275 0
M  V30 6889 O 632.787 3.94904 -1.18848 0
M  V30 6890 H 632.128 0.521967 -0.410423 0
M  V30 6891 H 634.658 1.14589 -1.69501 0
M  V30 6892 H 634.668 3.57793 -1.96082 0
M  V30 6893 H 633.343 2.95279 -2.92887 0
M  V30 6894 H 631.92 3.53339 -1.19187 0
M  V30 6895 N 634.105 1.10431 1.1244 0
M  V30 6896 C 635.351 0.847972 1.84221 0
M  V30 6897 C 635.684 -0.624903 1.83871 0
M  V30 6898 O 634.959 -1.46074 1.28423 0
M  V30 6899 C 635.242 1.39695 3.319 0
M  V30 6900 C 635.095 2.93668 3.40704 0
M  V30 6901 C 636.414 1.03924 4.27654 0
M  V30 6902 H 633.533 0.309502 0.668863 0
M  V30 6903 H 636.175 1.36745 1.31912 0
M  V30 6904 H 634.325 0.955095 3.76577 0
M  V30 6905 H 635.997 3.46379 3.04662 0
M  V30 6906 H 634.24 3.30272 2.81252 0
M  V30 6907 H 634.911 3.27162 4.446 0
M  V30 6908 H 637.387 1.42049 3.91102 0
M  V30 6909 H 636.263 1.45027 5.29394 0
M  V30 6910 H 636.524 -0.051336 4.4207 0
M  V30 6911 N 635.583 -1.29855 0.893053 0
M  V30 6912 C 636.808 -2.00512 0.530066 0
M  V30 6913 C 637.233 -1.66446 -0.876199 0
M  V30 6914 O 636.591 -0.885446 -1.58207 0
M  V30 6915 C 636.639 -3.53308 0.721505 0
M  V30 6916 O 635.743 -4.11764 -0.228994 0
M  V30 6917 H 635.084 -0.630617 0.207891 0
M  V30 6918 H 637.614 -1.6551 1.20282 0
M  V30 6919 H 637.624 -4.03206 0.623599 0
M  V30 6920 H 636.299 -3.77439 1.74678 0
M  V30 6921 H 634.876 -3.72805 -0.0841034 0
M  V30 6922 N 637.061 -0.65484 -1.43351 0
M  V30 6923 C 638.291 -0.176429 -2.05845 0
M  V30 6924 C 638.699 1.16375 -1.49176 0
M  V30 6925 O 638.042 1.72981 -0.618322 0
M  V30 6926 C 638.104 -0.0125844 -3.59498 0
M  V30 6927 C 637.768 -1.27831 -4.38758 0
M  V30 6928 C 638.765 -2.2074 -4.70712 0
M  V30 6929 C 636.45 -1.52035 -4.78739 0
M  V30 6930 C 638.444 -3.36145 -5.41558 0
M  V30 6931 C 636.131 -2.67732 -5.49329 0
M  V30 6932 C 637.129 -3.59612 -5.80662 0
M  V30 6933 O 636.817 -4.73289 -6.4981 0
M  V30 6934 H 636.549 -0.0879682 -0.670252 0
M  V30 6935 H 639.103 -0.896193 -1.84818 0
M  V30 6936 H 637.333 0.762567 -3.79107 0
M  V30 6937 H 639.022 0.423392 -4.03686 0
M  V30 6938 H 639.788 -2.03284 -4.40341 0
M  V30 6939 H 635.667 -0.813987 -4.53757 0
M  V30 6940 H 639.211 -4.07881 -5.65932 0
M  V30 6941 H 635.108 -2.85122 -5.79116 0
M  V30 6942 H 635.876 -4.72575 -6.68293 0
M  V30 6943 N 638.539 1.52521 -0.396863 0
M  V30 6944 C 639.469 2.29582 0.425941 0
M  V30 6945 C 640.45 1.33281 1.05689 0
M  V30 6946 O 641.635 1.62181 1.06823 0
M  V30 6947 C 638.765 3.10821 1.54943 0
M  V30 6948 C 637.719 4.15069 1.04413 0
M  V30 6949 C 637.045 4.84578 2.26028 0
M  V30 6950 C 638.345 5.22191 0.106767 0
M  V30 6951 H 640.039 2.98612 -0.217045 0
M  V30 6952 H 637.585 1.43611 -0.105826 0
M  V30 6953 H 639.538 3.63492 2.13193 0
M  V30 6954 H 638.262 2.39538 2.22011 0
M  V30 6955 H 636.921 3.63389 0.484118 0
M  V30 6956 H 636.569 4.09835 2.91623 0
M  V30 6957 H 636.269 5.55043 1.92876 0
M  V30 6958 H 637.793 5.40056 2.84906 0
M  V30 6959 H 639.207 5.70176 0.597685 0
M  V30 6960 H 637.604 5.99947 -0.135352 0
M  V30 6961 H 638.674 4.77531 -0.842134 0
M  V30 6962 N 640.017 0.126909 1.57088 0
M  V30 6963 C 641.428 -0.397201 1.82426 0
M  V30 6964 C 641.779 -1.66084 1.04453 0
M  V30 6965 O 640.904 -2.14534 0.283552 0
M  V30 6966 C 641.499 -0.727411 3.30899 0
M  V30 6967 C 640.058 -1.19612 3.56889 0
M  V30 6968 C 639.205 -0.20885 2.76512 0
M  V30 6969 H 642.156 0.351924 1.54749 0
M  V30 6970 H 642.177 -1.58407 3.45959 0
M  V30 6971 H 641.689 0.19247 3.87622 0
M  V30 6972 H 639.79 -2.13263 3.05532 0
M  V30 6973 H 639.903 -1.13598 4.65438 0
M  V30 6974 H 638.267 -0.697479 2.44964 0
M  V30 6975 H 639.05 0.704267 3.35998 0
M  V30 6976 N 641.495 -1.56914 -0.146875 0
M  V30 6977 C 642.742 -1.83356 -0.859467 0
M  V30 6978 C 643.07 -0.707811 -1.81164 0
M  V30 6979 O 642.325 0.303155 -1.93338 0
M  V30 6980 C 642.624 -3.16128 -1.66727 0
M  V30 6981 C 642.29 -4.42586 -0.861881 0
M  V30 6982 C 640.952 -4.76929 -0.639687 0
M  V30 6983 C 643.304 -5.20344 -0.298643 0
M  V30 6984 C 640.632 -5.86491 0.156451 0
M  V30 6985 C 642.984 -6.30742 0.484536 0
M  V30 6986 C 641.648 -6.63635 0.717306 0
M  V30 6987 H 640.918 -0.670947 -0.314501 0
M  V30 6988 H 643.565 -1.91104 -0.123108 0
M  V30 6989 H 641.87 -3.03831 -2.47374 0
M  V30 6990 H 643.567 -3.33802 -2.2221 0
M  V30 6991 H 640.157 -4.15662 -1.04513 0
M  V30 6992 H 644.341 -4.94186 -0.457585 0
M  V30 6993 H 639.597 -6.10419 0.346292 0
M  V30 6994 H 643.771 -6.90188 0.928105 0
M  V30 6995 H 641.398 -7.48367 1.33607 0
M  V30 6996 N 642.974 0.416227 -1.52004 0
M  V30 6997 C 644.222 1.16153 -1.65387 0
M  V30 6998 C 644.543 1.91208 -0.382669 0
M  V30 6999 O 643.813 1.86413 0.602231 0
M  V30 7000 H 642.393 0.431765 -0.60958 0
M  V30 7001 H 645.055 0.475151 -1.89019 0
M  V30 7002 H 644.151 1.87952 -2.4916 0
M  V30 7003 N 644.452 1.42507 0.673017 0
M  V30 7004 C 645.415 1.4582 1.76831 0
M  V30 7005 C 646.415 0.345542 1.57043 0
M  V30 7006 O 647.605 0.606447 1.63303 0
M  V30 7007 C 644.737 1.29158 3.15485 0
M  V30 7008 H 645.93 2.43345 1.7528 0
M  V30 7009 H 643.483 1.28981 0.882817 0
M  V30 7010 H 644.218 0.325626 3.22661 0
M  V30 7011 H 644.003 2.09797 3.31252 0
M  V30 7012 H 645.493 1.34363 3.95394 0
M  V30 7013 N 645.93 -0.909495 1.28709 0
M  V30 7014 C 647.178 -1.65577 1.15882 0
M  V30 7015 C 647.499 -1.928 -0.292108 0
M  V30 7016 O 646.769 -1.54716 -1.20166 0
M  V30 7017 H 645.349 -0.613714 0.425869 0
M  V30 7018 H 648.011 -1.09108 1.61498 0
M  V30 7019 H 647.107 -2.61634 1.70159 0
M  V30 7020 N 647.408 -1.11026 -1.11852 0
M  V30 7021 C 648.819 -0.873203 -1.65021 0
M  V30 7022 C 649.17 0.595364 -1.86949 0
M  V30 7023 O 648.295 1.45645 -1.60051 0
M  V30 7024 C 648.89 -1.57859 -2.99777 0
M  V30 7025 C 647.449 -1.38807 -3.49871 0
M  V30 7026 C 646.596 -1.62403 -2.24768 0
M  V30 7027 H 649.547 -1.26712 -0.955503 0
M  V30 7028 H 649.568 -1.02111 -3.66543 0
M  V30 7029 H 649.08 -2.6474 -2.83786 0
M  V30 7030 H 647.181 -0.341163 -3.71035 0
M  V30 7031 H 647.294 -2.13421 -4.28938 0
M  V30 7032 H 645.658 -1.04714 -2.32179 0
M  V30 7033 H 646.441 -2.70549 -2.11324 0
M  V30 7034 N 648.886 1.2938 -0.899927 0
M  V30 7035 C 650.302 1.48052 -0.596059 0
M  V30 7036 C 650.502 1.82114 0.862372 0
M  V30 7037 O 649.558 1.91774 1.64253 0
M  V30 7038 C 650.871 2.59332 -1.52208 0
M  V30 7039 C 652.419 2.73208 -1.5273 0
M  V30 7040 C 652.894 3.87617 -2.43961 0
M  V30 7041 N 654.385 3.9495 -2.42009 0
M  V30 7042 C 655.12 4.82824 -3.09303 0
M  V30 7043 N 654.616 5.75387 -3.85877 0
M  V30 7044 N 656.409 4.76317 -2.98459 0
M  V30 7045 H 648.56 1.05546 -1.8432 0
M  V30 7046 H 650.823 0.524314 -0.78981 0
M  V30 7047 H 650.529 2.41029 -2.56121 0
M  V30 7048 H 650.403 3.56139 -1.24278 0
M  V30 7049 H 652.79 2.90908 -0.495614 0
M  V30 7050 H 652.871 1.76975 -1.84698 0
M  V30 7051 H 652.515 3.70672 -3.47224 0
M  V30 7052 H 652.445 4.83218 -2.09303 0
M  V30 7053 H 654.936 3.28744 -1.86375 0
M  V30 7054 H 655.249 6.39235 -4.34279 0
M  V30 7055 H 653.594 5.75272 -3.89984 0
M  V30 7056 H 656.785 4.0299 -2.38152 0
M  V30 7057 H 656.958 5.44589 -3.51179 0
M  V30 7058 N 650.364 0.662433 1.43002 0
M  V30 7059 C 651.589 0.186003 2.06564 0
M  V30 7060 C 652.014 -1.14314 1.49379 0
M  V30 7061 O 651.372 -1.70824 0.607346 0
M  V30 7062 C 651.42 0.118269 3.60406 0
M  V30 7063 O 650.524 -0.916859 4.02079 0
M  V30 7064 H 649.865 0.0990981 0.656563 0
M  V30 7065 H 652.395 0.907958 1.8335 0
M  V30 7066 H 652.405 -0.0619981 4.07953 0
M  V30 7067 H 651.08 1.08849 4.01403 0
M  V30 7068 H 649.657 -0.708635 3.66105 0
M  V30 7069 N 651.842 -1.52309 0.404946 0
M  V30 7070 C 653.082 -2.03677 -0.171779 0
M  V30 7071 C 653.446 -1.28419 -1.42733 0
M  V30 7072 O 654.647 -1.69991 -2.08222 0
M  V30 7073 C 652.918 -3.54951 -0.417701 0
M  V30 7074 S 654.477 -4.28114 -0.962472 0
M  V30 7075 H 651.295 -0.709445 -0.0469912 0
M  V30 7076 H 653.897 -1.874 0.556901 0
M  V30 7077 H 652.601 -4.07306 0.50295 0
M  V30 7078 H 652.132 -3.75462 -1.17437 0
M  V30 7079 H 654.147 -4.42589 -2.24342 0
M  V30 7080 N 653.32 -0.135238 -1.57019 0
M  V30 7081 C 654.569 0.518694 -1.94917 0
M  V30 7082 C 654.882 1.66783 -1.0219 0
M  V30 7083 O 656.088 2.38561 -1.29619 0
M  V30 7084 C 654.544 0.974123 -3.46466 0
M  V30 7085 C 654.152 -0.147439 -4.47757 0
M  V30 7086 C 655.896 1.59851 -3.93253 0
M  V30 7087 C 653.803 0.325599 -5.90503 0
M  V30 7088 H 652.733 0.19754 -0.727663 0
M  V30 7089 H 655.384 -0.217698 -1.82204 0
M  V30 7090 H 653.766 1.76542 -3.5447 0
M  V30 7091 H 654.94 -0.924122 -4.51438 0
M  V30 7092 H 653.255 -0.679496 -4.10818 0
M  V30 7093 H 655.852 1.96385 -4.9733 0
M  V30 7094 H 656.195 2.48306 -3.3414 0
M  V30 7095 H 656.728 0.872323 -3.88118 0
M  V30 7096 H 653.467 -0.523295 -6.53408 0
M  V30 7097 H 652.987 1.06841 -5.90208 0
M  V30 7098 H 654.666 0.781498 -6.42263 0
M  V30 7099 N 654.798 1.5699 0.138552 0
M  V30 7100 C 656.046 1.83446 0.848053 0
M  V30 7101 C 656.367 0.71744 1.81322 0
M  V30 7102 O 655.637 -0.260228 1.94164 0
M  V30 7103 H 654.217 0.676792 0.316166 0
M  V30 7104 H 656.879 1.94462 0.130538 0
M  V30 7105 H 655.975 2.78677 1.40518 0
M  V30 7106 N 656.276 -0.40816 1.52223 0
M  V30 7107 C 657.186 -1.52202 1.78526 0
M  V30 7108 C 658.202 -1.60546 0.670892 0
M  V30 7109 O 659.378 -1.77242 0.956404 0
M  V30 7110 C 656.443 -2.87928 1.93128 0
M  V30 7111 C 655.504 -2.89463 3.17033 0
M  V30 7112 C 654.737 -4.18715 3.30929 0
M  V30 7113 O 654.96 -5.12662 2.50067 0
M  V30 7114 O 653.894 -4.27125 4.24084 0
M  V30 7115 H 657.72 -1.32911 2.73072 0
M  V30 7116 H 655.305 -0.594112 1.37079 0
M  V30 7117 H 657.187 -3.68426 2.04549 0
M  V30 7118 H 655.862 -3.07285 1.01772 0
M  V30 7119 H 654.769 -2.07815 3.11069 0
M  V30 7120 H 656.102 -2.75055 4.08174 0
M  V30 7121 N 657.755 -1.42862 -0.66545 0
M  V30 7122 C 659.004 -1.43119 -1.42126 0
M  V30 7123 C 659.317 -0.0545297 -1.95524 0
M  V30 7124 O 660.523 0.0654747 -2.71421 0
M  V30 7125 C 658.979 -2.51797 -2.5715 0
M  V30 7126 C 658.587 -3.95514 -2.10411 0
M  V30 7127 C 660.331 -2.61233 -3.346 0
M  V30 7128 C 658.238 -4.95682 -3.22573 0
M  V30 7129 H 657.168 -0.532349 -0.533966 0
M  V30 7130 H 659.819 -1.68806 -0.719506 0
M  V30 7131 H 658.201 -2.19292 -3.29738 0
M  V30 7132 H 659.375 -4.3742 -1.44915 0
M  V30 7133 H 657.69 -3.90012 -1.45874 0
M  V30 7134 H 660.287 -3.33248 -4.18151 0
M  V30 7135 H 660.63 -1.65896 -3.81817 0
M  V30 7136 H 661.163 -2.9298 -2.69087 0
M  V30 7137 H 657.902 -5.92529 -2.80338 0
M  V30 7138 H 657.422 -4.58399 -3.86821 0
M  V30 7139 H 659.101 -5.17828 -3.87896 0
M  V30 7140 N 659.233 0.902656 -1.29189 0
M  V30 7141 C 660.163 2.02294 -1.16616 0
M  V30 7142 C 661.144 1.6999 -0.0611175 0
M  V30 7143 O 662.329 1.9271 -0.240072 0
M  V30 7144 C 659.459 3.37018 -0.83882 0
M  V30 7145 C 658.413 3.83522 -1.89986 0
M  V30 7146 C 657.739 5.15337 -1.42589 0
M  V30 7147 C 659.039 4.04169 -3.30824 0
M  V30 7148 H 660.733 2.13071 -2.10336 0
M  V30 7149 H 658.279 1.02378 -1.01266 0
M  V30 7150 H 660.232 4.14895 -0.737584 0
M  V30 7151 H 658.956 3.26325 0.134071 0
M  V30 7152 H 657.615 3.07859 -1.99043 0
M  V30 7153 H 657.263 5.01056 -0.441759 0
M  V30 7154 H 656.963 5.47423 -2.13547 0
M  V30 7155 H 658.487 5.95758 -1.3381 0
M  V30 7156 H 659.901 4.72537 -3.24626 0
M  V30 7157 H 658.298 4.47604 -3.99713 0
M  V30 7158 H 659.368 3.08604 -3.74021 0
M  V30 7159 N 660.711 1.11618 1.11262 0
M  V30 7160 C 661.674 0.779447 2.15539 0
M  V30 7161 C 662.674 -0.202081 1.59525 0
M  V30 7162 O 663.864 0.0226356 1.74185 0
M  V30 7163 C 660.996 0.15674 3.40539 0
M  V30 7164 H 662.189 1.70324 2.4684 0
M  V30 7165 H 659.742 0.918298 1.26479 0
M  V30 7166 H 660.477 -0.777186 3.1485 0
M  V30 7167 H 660.262 0.863308 3.82478 0
M  V30 7168 H 661.752 -0.062661 4.17553 0
M  V30 7169 N 662.189 -1.289 0.906776 0
M  V30 7170 C 663.605 -1.47733 0.603902 0
M  V30 7171 C 663.805 -1.82568 -0.852702 0
M  V30 7172 O 662.861 -1.92642 -1.63234 0
M  V30 7173 C 664.174 -2.58522 1.53581 0
M  V30 7174 C 665.722 -2.72394 1.54177 0
M  V30 7175 C 666.197 -3.86318 2.46013 0
M  V30 7176 N 667.688 -3.93661 2.441 0
M  V30 7177 C 668.423 -4.81177 3.11859 0
M  V30 7178 N 667.919 -5.73333 3.88923 0
M  V30 7179 N 669.712 -4.74728 3.00981 0
M  V30 7180 H 661.863 -1.04567 1.84877 0
M  V30 7181 H 664.126 -0.520118 0.792579 0
M  V30 7182 H 663.832 -2.39667 2.57396 0
M  V30 7183 H 663.706 -3.55475 1.26165 0
M  V30 7184 H 666.093 -2.90641 0.511034 0
M  V30 7185 H 666.174 -1.75993 1.85634 0
M  V30 7186 H 665.818 -3.68826 3.49185 0
M  V30 7187 H 665.748 -4.82102 2.11862 0
M  V30 7188 H 668.239 -3.27751 1.88115 0
M  V30 7189 H 668.552 -6.36923 4.37663 0
M  V30 7190 H 666.897 -5.73196 3.93029 0
M  V30 7191 H 670.088 -4.01722 2.40286 0
M  V30 7192 H 670.261 -5.42719 3.54062 0
M  V30 7193 N 663.667 -0.670007 -1.42649 0
M  V30 7194 C 664.599 0.0501746 -2.29145 0
M  V30 7195 C 665.612 0.770331 -1.43422 0
M  V30 7196 O 666.801 0.625288 -1.6719 0
M  V30 7197 C 663.901 1.09463 -3.20735 0
M  V30 7198 C 663.074 0.44926 -4.35087 0
M  V30 7199 C 662.133 1.39285 -5.07431 0
M  V30 7200 O 661.159 0.894997 -5.6212 0
M  V30 7201 N 662.361 2.72631 -5.12496 0
M  V30 7202 H 665.126 -0.692312 -2.91594 0
M  V30 7203 H 662.687 -0.514056 -1.53522 0
M  V30 7204 H 664.679 1.72705 -3.65999 0
M  V30 7205 H 663.249 1.73891 -2.59771 0
M  V30 7206 H 662.469 -0.362573 -3.92529 0
M  V30 7207 H 663.757 -0.000544776 -5.088 0
M  V30 7208 H 663.155 3.15623 -4.69467 0
M  V30 7209 H 661.712 3.31132 -5.61422 0
M  V30 7210 N 665.145 1.52092 -0.413018 0
M  V30 7211 C 666.055 2.30858 0.417318 0
M  V30 7212 C 667.071 1.38746 1.05003 0
M  V30 7213 O 668.247 1.71821 1.05069 0
M  V30 7214 C 665.312 3.11756 1.51687 0
M  V30 7215 C 664.373 4.19613 0.906825 0
M  V30 7216 C 663.606 4.96644 1.95399 0
M  V30 7217 O 663.829 4.7402 3.17271 0
M  V30 7218 O 662.763 5.81385 1.55805 0
M  V30 7219 H 666.589 3.02865 -0.225028 0
M  V30 7220 H 664.174 1.48358 -0.176126 0
M  V30 7221 H 666.056 3.62122 2.15512 0
M  V30 7222 H 664.731 2.42539 2.14375 0
M  V30 7223 H 663.638 3.73385 0.231183 0
M  V30 7224 H 664.971 4.91134 0.323814 0
M  V30 7225 N 666.623 0.143563 1.56945 0
M  V30 7226 C 667.553 -0.7936 2.196 0
M  V30 7227 C 668.534 -1.25955 1.14321 0
M  V30 7228 O 669.719 -1.31773 1.42651 0
M  V30 7229 C 666.849 -2.03424 2.81489 0
M  V30 7230 C 665.803 -1.70519 3.92565 0
M  V30 7231 C 665.129 -3.01817 4.41373 0
M  V30 7232 C 666.429 -0.95449 5.13504 0
M  V30 7233 H 668.123 -0.271423 2.98167 0
M  V30 7234 H 665.669 -0.12911 1.4342 0
M  V30 7235 H 667.622 -2.69463 3.23987 0
M  V30 7236 H 666.346 -2.58008 2.00248 0
M  V30 7237 H 665.005 -1.06859 3.5068 0
M  V30 7238 H 664.653 -3.54386 3.56959 0
M  V30 7239 H 664.353 -2.80565 5.16292 0
M  V30 7240 H 665.877 -3.68934 4.86539 0
M  V30 7241 H 667.291 -1.5169 5.52868 0
M  V30 7242 H 665.688 -0.842035 5.94163 0
M  V30 7243 H 666.758 0.0544033 4.84869 0
M  V30 7244 N 668.101 -1.57061 -0.130224 0
M  V30 7245 C 669.348 -1.84257 -0.839972 0
M  V30 7246 C 669.676 -0.726986 -1.80403 0
M  V30 7247 O 668.931 0.282632 -1.93648 0
M  V30 7248 C 669.23 -3.17878 -1.63365 0
M  V30 7249 C 668.896 -4.43475 -0.814891 0
M  V30 7250 C 667.558 -4.77581 -0.589066 0
M  V30 7251 C 669.91 -5.20631 -0.243437 0
M  V30 7252 C 667.238 -5.86292 0.218648 0
M  V30 7253 C 669.59 -6.30192 0.551408 0
M  V30 7254 C 668.254 -6.62837 0.787653 0
M  V30 7255 H 667.524 -0.674245 -0.307367 0
M  V30 7256 H 670.171 -1.91224 -0.102832 0
M  V30 7257 H 668.476 -3.06437 -2.44138 0
M  V30 7258 H 670.173 -3.3614 -2.18658 0
M  V30 7259 H 666.763 -4.16747 -1.00098 0
M  V30 7260 H 670.947 -4.94644 -0.405145 0
M  V30 7261 H 666.203 -6.10017 0.411016 0
M  V30 7262 H 670.377 -6.89165 1.00126 0
M  V30 7263 H 668.004 -7.46908 1.41537 0
M  V30 7264 N 669.579 0.400081 -1.52437 0
M  V30 7265 C 670.509 1.4947 -1.7939 0
M  V30 7266 C 671.49 1.57383 -0.645329 0
M  V30 7267 O 672.675 1.72511 -0.891826 0
M  V30 7268 C 669.805 2.87201 -1.95276 0
M  V30 7269 C 668.759 2.94134 -3.10917 0
M  V30 7270 C 668.085 4.34207 -3.1204 0
M  V30 7271 C 669.385 2.64791 -4.50203 0
M  V30 7272 H 671.079 1.27165 -2.71052 0
M  V30 7273 H 668.625 0.610312 -1.30427 0
M  V30 7274 H 670.578 3.63772 -2.12715 0
M  V30 7275 H 669.302 3.10819 -1.00294 0
M  V30 7276 H 667.961 2.20009 -2.93243 0
M  V30 7277 H 667.609 4.54848 -2.14761 0
M  V30 7278 H 667.309 4.39768 -3.89715 0
M  V30 7279 H 668.833 5.127 -3.31619 0
M  V30 7280 H 670.247 3.31083 -4.68035 0
M  V30 7281 H 668.644 2.81717 -5.29864 0
M  V30 7282 H 669.714 1.60184 -4.57678 0
M  V30 7283 N 671.057 1.43213 0.657864 0
M  V30 7284 C 672.306 1.43871 1.41365 0
M  V30 7285 C 672.619 0.064898 1.95492 0
M  V30 7286 O 673.825 -0.0510796 2.71452 0
M  V30 7287 C 672.281 2.53158 2.55811 0
M  V30 7288 C 671.889 3.96624 2.08311 0
M  V30 7289 C 673.633 2.63004 3.3321 0
M  V30 7290 C 671.54 4.97385 3.1994 0
M  V30 7291 H 670.47 0.535174 0.531136 0
M  V30 7292 H 673.121 1.69185 0.710543 0
M  V30 7293 H 671.503 2.21037 3.2857 0
M  V30 7294 H 672.677 4.38182 1.42593 0
M  V30 7295 H 670.992 3.90781 1.43804 0
M  V30 7296 H 673.589 3.3546 4.16378 0
M  V30 7297 H 673.932 1.67918 3.80932 0
M  V30 7298 H 674.465 2.94403 2.67529 0
M  V30 7299 H 671.204 5.94007 2.77192 0
M  V30 7300 H 670.724 4.60444 3.84385 0
M  V30 7301 H 672.403 5.19877 3.85145 0
M  V30 7302 N 672.536 -0.895792 1.29666 0
M  V30 7303 C 673.469 -2.00238 1.09453 0
M  V30 7304 C 674.447 -1.62599 0.00527044 0
M  V30 7305 O 675.631 -1.87847 0.156729 0
M  V30 7306 C 672.758 -3.32066 0.667054 0
M  V30 7307 C 671.804 -3.88691 1.7556 0
M  V30 7308 S 672.637 -4.17317 3.35569 0
M  V30 7309 C 673.793 -5.52181 2.94698 0
M  V30 7310 H 674.026 -2.17076 2.03138 0
M  V30 7311 H 671.559 -1.04287 1.13858 0
M  V30 7312 H 673.517 -4.08272 0.427136 0
M  V30 7313 H 672.178 -3.13101 -0.250256 0
M  V30 7314 H 671.371 -4.83918 1.40853 0
M  V30 7315 H 670.973 -3.19187 1.94924 0
M  V30 7316 H 673.265 -6.3281 2.41986 0
M  V30 7317 H 674.208 -5.91817 3.88791 0
M  V30 7318 H 674.616 -5.14225 2.32879 0
M  V30 7319 N 674.014 -1.12206 -1.10668 0
M  V30 7320 C 674.977 -0.790867 -2.15123 0
M  V30 7321 C 675.977 0.193618 -1.5963 0
M  V30 7322 O 677.167 -0.0318728 -1.74171 0
M  V30 7323 C 674.299 -0.174797 -3.40452 0
M  V30 7324 H 675.492 -1.7163 -2.45933 0
M  V30 7325 H 673.045 -0.924993 -1.2599 0
M  V30 7326 H 673.78 0.760478 -3.15257 0
M  V30 7327 H 673.565 -0.88358 -3.82015 0
M  V30 7328 H 675.055 0.0405162 -4.1758 0
M  V30 7329 N 675.492 1.28418 -0.913599 0
M  V30 7330 C 676.738 1.95627 -0.556933 0
M  V30 7331 C 677.093 1.706 0.889565 0
M  V30 7332 O 676.386 1.01637 1.6242 0
M  V30 7333 C 676.58 3.48283 -0.802099 0
M  V30 7334 C 676.409 3.88151 -2.27088 0
M  V30 7335 C 675.179 4.1232 -2.92096 0
M  V30 7336 C 677.377 3.98819 -3.24728 0
M  V30 7337 N 675.359 4.3886 -4.29272 0
M  V30 7338 C 676.73 4.29571 -4.47067 0
M  V30 7339 C 678.785 3.81342 -3.20129 0
M  V30 7340 C 677.488 4.44667 -5.65388 0
M  V30 7341 C 679.514 3.97656 -4.37749 0
M  V30 7342 C 678.876 4.2878 -5.58862 0
M  V30 7343 H 674.975 0.739715 -0.253664 0
M  V30 7344 H 677.559 1.55074 -1.1773 0
M  V30 7345 H 675.73 3.87826 -0.211007 0
M  V30 7346 H 677.462 4.02623 -0.409478 0
M  V30 7347 H 674.217 4.06611 -2.42826 0
M  V30 7348 H 674.641 4.56214 -5.00198 0
M  V30 7349 H 679.283 3.56331 -2.2757 0
M  V30 7350 H 677.001 4.68509 -6.58426 0
M  V30 7351 H 680.587 3.85569 -4.35692 0
M  V30 7352 H 679.467 4.41136 -6.48359 0
M  V30 7353 N 676.97 0.677563 1.42291 0
M  V30 7354 C 677.9 0.014968 2.33495 0
M  V30 7355 C 678.881 -0.786376 1.50831 0
M  V30 7356 O 680.066 -0.742975 1.79426 0
M  V30 7357 C 677.196 -0.935023 3.34477 0
M  V30 7358 C 676.15 -0.242074 4.27315 0
M  V30 7359 C 675.476 -1.30519 5.18526 0
M  V30 7360 C 676.776 0.880604 5.14823 0
M  V30 7361 H 678.47 0.776671 2.89151 0
M  V30 7362 H 676.016 0.37494 1.39033 0
M  V30 7363 H 677.969 -1.40766 3.97194 0
M  V30 7364 H 676.693 -1.72818 2.77131 0
M  V30 7365 H 675.352 0.210351 3.65996 0
M  V30 7366 H 675 -2.09041 4.57505 0
M  V30 7367 H 674.7 -0.846652 5.81468 0
M  V30 7368 H 676.224 -1.7787 5.84119 0
M  V30 7369 H 677.638 0.489062 5.7121 0
M  V30 7370 H 676.035 1.26511 5.86613 0
M  V30 7371 H 677.105 1.72818 4.53059 0
M  V30 7372 N 678.448 -1.51871 0.421078 0
M  V30 7373 C 679.378 -2.30231 -0.389363 0
M  V30 7374 C 680.359 -1.34946 -1.03555 0
M  V30 7375 O 681.544 -1.63859 -1.04229 0
M  V30 7376 C 678.674 -3.13247 -1.49979 0
M  V30 7377 C 677.628 -4.16677 -0.977966 0
M  V30 7378 C 676.954 -4.88112 -2.1829 0
M  V30 7379 C 678.254 -5.22295 -0.0236775 0
M  V30 7380 H 679.948 -2.98229 0.264524 0
M  V30 7381 H 677.494 -1.43424 0.12866 0
M  V30 7382 H 679.447 -3.66838 -2.07383 0
M  V30 7383 H 678.171 -2.4304 -2.18173 0
M  V30 7384 H 676.83 -3.64114 -0.426245 0
M  V30 7385 H 676.478 -4.14423 -2.85066 0
M  V30 7386 H 676.178 -5.58041 -1.84021 0
M  V30 7387 H 677.702 -5.44521 -2.76278 0
M  V30 7388 H 679.116 -5.71055 -0.506899 0
M  V30 7389 H 677.513 -5.99656 0.230782 0
M  V30 7390 H 678.583 -4.76131 0.917999 0
M  V30 7391 N 679.926 -0.151884 -1.56866 0
M  V30 7392 C 680.858 0.817008 -2.14144 0
M  V30 7393 C 681.871 1.20735 -1.0921 0
M  V30 7394 O 683.06 1.15058 -1.36469 0
M  V30 7395 C 680.16 2.10844 -2.65326 0
M  V30 7396 C 679.333 1.88471 -3.94712 0
M  V30 7397 C 678.392 3.01649 -4.31155 0
M  V30 7398 O 677.418 2.73127 -4.9939 0
M  V30 7399 N 678.62 4.28947 -3.91132 0
M  V30 7400 H 681.385 0.327448 -2.97906 0
M  V30 7401 H 678.946 0.0315313 -1.61869 0
M  V30 7402 H 680.938 2.85616 -2.86715 0
M  V30 7403 H 679.508 2.51049 -1.86262 0
M  V30 7404 H 678.728 0.977088 -3.81899 0
M  V30 7405 H 680.016 1.70866 -4.79252 0
M  V30 7406 H 679.414 4.54986 -3.36161 0
M  V30 7407 H 677.971 5.00484 -4.17563 0
M  V30 7408 N 681.404 1.57128 0.121893 0
M  V30 7409 C 682.82 1.52357 0.47534 0
M  V30 7410 C 683.02 0.864417 1.82017 0
M  V30 7411 O 682.076 0.445529 2.48538 0
M  V30 7412 C 683.389 2.97122 0.4625 0
M  V30 7413 C 684.937 3.08196 0.546255 0
M  V30 7414 C 685.412 4.54516 0.563833 0
M  V30 7415 N 686.903 4.58959 0.625353 0
M  V30 7416 C 687.638 5.69585 0.660354 0
M  V30 7417 N 687.134 6.89714 0.653175 0
M  V30 7418 N 688.927 5.57685 0.703143 0
M  V30 7419 H 681.078 1.98364 -0.75931 0
M  V30 7420 H 683.341 0.905777 -0.279772 0
M  V30 7421 H 683.047 3.48706 -0.457943 0
M  V30 7422 H 682.921 3.54406 1.29136 0
M  V30 7423 H 685.308 2.56617 1.45712 0
M  V30 7424 H 685.389 2.53912 -0.310234 0
M  V30 7425 H 685.033 5.06741 -0.342974 0
M  V30 7426 H 684.963 5.06609 1.43716 0
M  V30 7427 H 687.454 3.72489 0.637182 0
M  V30 7428 H 687.767 7.69781 0.682425 0
M  V30 7429 H 686.112 6.92223 0.620646 0
M  V30 7430 H 689.303 4.62744 0.706095 0
M  V30 7431 H 689.476 6.43909 0.726952 0
M  V30 7432 N 682.882 -0.391992 1.52647 0
M  V30 7433 C 684.129 -1.13732 1.67545 0
M  V30 7434 C 684.457 -1.90045 0.413881 0
M  V30 7435 O 683.712 -1.86157 -0.603646 0
M  V30 7436 C 684.011 -2.14401 2.85949 0
M  V30 7437 C 683.677 -1.54767 4.23507 0
M  V30 7438 C 682.339 -1.38229 4.60919 0
M  V30 7439 C 684.691 -1.11382 5.0916 0
M  V30 7440 C 682.019 -0.7685 5.81645 0
M  V30 7441 C 684.371 -0.514143 6.30507 0
M  V30 7442 C 683.035 -0.33604 6.66654 0
M  V30 7443 H 682.305 -0.416174 0.613091 0
M  V30 7444 H 684.952 -0.422327 1.86785 0
M  V30 7445 H 683.257 -2.92108 2.61114 0
M  V30 7446 H 684.954 -2.71974 2.94671 0
M  V30 7447 H 681.544 -1.68626 3.94035 0
M  V30 7448 H 685.728 -1.22962 4.80826 0
M  V30 7449 H 680.984 -0.618681 6.08262 0
M  V30 7450 H 685.158 -0.169657 6.96193 0
M  V30 7451 H 682.785 0.14166 7.60068 0
M  V30 7452 N 684.36 -1.4356 -0.65026 0
M  V30 7453 C 685.637 -1.35811 -1.40765 0
M  V30 7454 C 686.017 -0.00736379 -2.11099 0
M  V30 7455 O 685.365 1.00932 -2.05 0
M  V30 7456 C 685.575 -2.54332 -2.3899 0
M  V30 7457 C 686.923 -2.97551 -3.02901 0
M  V30 7458 O 687.947 -2.544 -2.49317 0
M  V30 7459 O 686.806 -3.72311 -4.00059 0
M  V30 7460 H 683.9 -0.536861 -0.629054 0
M  V30 7461 H 686.446 -1.55615 -0.676919 0
M  V30 7462 H 685.218 -3.44274 -1.85986 0
M  V30 7463 H 684.841 -2.36643 -3.19509 0
M  V30 7464 N 685.838 0.888903 -1.30139 0
M  V30 7465 C 686.768 2.01046 -1.18755 0
M  V30 7466 C 687.749 1.69916 -0.0791438 0
M  V30 7467 O 688.934 1.92445 -0.260498 0
M  V30 7468 C 686.064 3.36109 -0.874518 0
M  V30 7469 C 685.018 3.81486 -1.94043 0
M  V30 7470 C 684.344 5.13796 -1.48047 0
M  V30 7471 C 685.644 4.00637 -3.35093 0
M  V30 7472 H 687.338 2.10828 -2.12584 0
M  V30 7473 H 684.884 1.01298 -1.02346 0
M  V30 7474 H 686.837 4.14089 -0.781548 0
M  V30 7475 H 685.561 3.26449 0.0994519 0
M  V30 7476 H 684.22 3.05731 -2.02297 0
M  V30 7477 H 683.868 5.0056 -0.494878 0
M  V30 7478 H 683.568 5.45127 -2.19341 0
M  V30 7479 H 685.092 5.94305 -1.40121 0
M  V30 7480 H 686.506 4.69067 -3.2962 0
M  V30 7481 H 684.903 4.43339 -4.04438 0
M  V30 7482 H 685.973 3.0462 -3.77273 0
M  V30 7483 N 687.317 1.12792 1.10072 0
M  V30 7484 C 688.227 0.812369 2.20086 0
M  V30 7485 C 689.243 -0.200349 1.72843 0
M  V30 7486 O 690.419 -0.0330262 2.01373 0
M  V30 7487 C 687.484 0.275685 3.45602 0
M  V30 7488 C 686.545 1.34881 4.07561 0
M  V30 7489 C 685.778 0.837639 5.27086 0
M  V30 7490 O 686.001 -0.327224 5.69461 0
M  V30 7491 O 684.935 1.60894 5.79997 0
M  V30 7492 H 688.761 1.73133 2.49517 0
M  V30 7493 H 686.346 0.904863 1.18881 0
M  V30 7494 H 688.228 -0.0185375 4.21396 0
M  V30 7495 H 686.903 -0.615783 3.17789 0
M  V30 7496 H 685.81 1.69625 3.33434 0
M  V30 7497 H 687.143 2.21418 4.39585 0
M  V30 7498 N 688.795 -1.27931 0.920396 0
M  V30 7499 C 690.041 -1.94977 0.557832 0
M  V30 7500 C 690.374 -1.72224 -0.897365 0
M  V30 7501 O 689.649 -1.04705 -1.63912 0
M  V30 7502 C 689.932 -3.49289 0.875741 0
M  V30 7503 C 689.785 -3.81416 2.38416 0
M  V30 7504 C 691.104 -4.38486 0.376517 0
M  V30 7505 H 688.223 -0.708164 0.20414 0
M  V30 7506 H 690.865 -1.5118 1.15085 0
M  V30 7507 H 689.015 -3.86724 0.371062 0
M  V30 7508 H 690.687 -3.53813 2.95997 0
M  V30 7509 H 688.93 -3.28225 2.83639 0
M  V30 7510 H 689.601 -4.89198 2.55713 0
M  V30 7511 H 692.077 -4.08161 0.808945 0
M  V30 7512 H 690.953 -5.45296 0.627976 0
M  V30 7513 H 691.214 -4.36143 -0.723293 0
M  V30 7514 N 690.273 -0.685099 -1.4193 0
M  V30 7515 C 691.684 -0.287699 -1.8447 0
M  V30 7516 C 692.035 1.17215 -1.57338 0
M  V30 7517 O 691.16 1.89856 -1.03845 0
M  V30 7518 C 691.755 -0.515385 -3.34857 0
M  V30 7519 C 690.314 -0.172006 -3.76007 0
M  V30 7520 C 689.461 -0.802808 -2.65425 0
M  V30 7521 H 692.412 -0.88652 -1.3163 0
M  V30 7522 H 692.433 0.229251 -3.79809 0
M  V30 7523 H 691.945 -1.57796 -3.54573 0
M  V30 7524 H 690.046 0.886716 -3.61895 0
M  V30 7525 H 690.159 -0.619717 -4.75075 0
M  V30 7526 H 688.523 -0.233267 -2.5363 0
M  V30 7527 H 689.306 -1.86904 -2.87961 0
M  V30 7528 N 691.751 1.51645 -0.429126 0
M  V30 7529 C 693.028 1.94579 0.199614 0
M  V30 7530 C 693.408 1.3673 1.60836 0
M  V30 7531 O 692.756 0.551062 2.21756 0
M  V30 7532 C 692.966 3.48506 0.185685 0
M  V30 7533 C 694.314 4.22756 0.395282 0
M  V30 7534 O 695.338 3.55219 0.264165 0
M  V30 7535 O 694.197 5.42555 0.655475 0
M  V30 7536 H 691.291 0.816007 0.134393 0
M  V30 7537 H 693.837 1.62577 -0.486513 0
M  V30 7538 H 692.609 3.83045 -0.799508 0
M  V30 7539 H 692.232 3.86927 0.91507 0
M  V30 7540 N 693.229 0.160201 1.56784 0
M  V30 7541 C 694.506 -0.533355 1.88188 0
M  V30 7542 C 694.886 -1.82072 1.06831 0
M  V30 7543 O 694.234 -2.27946 0.158959 0
M  V30 7544 C 694.444 -0.786034 3.40033 0
M  V30 7545 C 695.792 -1.12097 4.09536 0
M  V30 7546 O 696.816 -0.874949 3.45287 0
M  V30 7547 O 695.675 -1.58457 5.23023 0
M  V30 7548 H 692.769 -0.273589 0.780434 0
M  V30 7549 H 695.315 0.197803 1.68543 0
M  V30 7550 H 694.087 0.124515 3.91102 0
M  V30 7551 H 693.71 -1.57091 3.65251 0
M  V30 7552 N 694.707 -1.5719 -0.113559 0
M  V30 7553 C 695.955 -1.84772 -0.818761 0
M  V30 7554 C 696.276 -0.746196 -1.80158 0
M  V30 7555 O 695.546 0.229305 -1.94553 0
M  V30 7556 H 694.126 -0.681737 -0.305359 0
M  V30 7557 H 696.788 -1.94645 -0.0995845 0
M  V30 7558 H 695.884 -2.80878 -1.36067 0
M  V30 7559 N 696.185 0.383891 -1.52853 0
M  V30 7560 C 697.117 1.48889 -1.74255 0
M  V30 7561 C 698.13 1.50405 -0.623063 0
M  V30 7562 O 699.319 1.54215 -0.898887 0
M  V30 7563 C 696.419 2.87721 -1.79081 0
M  V30 7564 C 695.592 3.10111 -3.08464 0
M  V30 7565 C 694.651 4.28954 -3.0477 0
M  V30 7566 O 693.677 4.25012 -3.78621 0
M  V30 7567 N 694.879 5.35411 -2.24311 0
M  V30 7568 H 697.644 1.30915 -2.69595 0
M  V30 7569 H 695.205 0.573454 -1.51404 0
M  V30 7570 H 697.197 3.65333 -1.7411 0
M  V30 7571 H 695.767 2.99029 -0.911052 0
M  V30 7572 H 694.987 2.20319 -3.26884 0
M  V30 7573 H 696.275 3.21928 -3.94005 0
M  V30 7574 H 695.673 5.41471 -1.63787 0
M  V30 7575 H 694.23 6.1167 -2.25175 0
M  V30 7576 N 697.663 1.43903 0.642637 0
M  V30 7577 C 698.593 1.52697 1.76652 0
M  V30 7578 C 699.574 0.380816 1.65782 0
M  V30 7579 O 700.759 0.599432 1.84717 0
M  V30 7580 C 697.889 1.45975 3.15133 0
M  V30 7581 C 696.843 2.58949 3.40778 0
M  V30 7582 C 696.169 2.37279 4.79169 0
M  V30 7583 C 697.469 4.01153 3.34475 0
M  V30 7584 H 699.163 2.46766 1.69549 0
M  V30 7585 H 696.709 1.18767 0.814279 0
M  V30 7586 H 698.662 1.5073 3.93521 0
M  V30 7587 H 697.386 0.484162 3.22991 0
M  V30 7588 H 696.045 2.53564 2.64765 0
M  V30 7589 H 695.693 1.37939 4.83717 0
M  V30 7590 H 695.393 3.13016 4.97287 0
M  V30 7591 H 696.917 2.43834 5.59801 0
M  V30 7592 H 698.331 4.07968 4.02784 0
M  V30 7593 H 696.728 4.77001 3.64129 0
M  V30 7594 H 697.798 4.25539 2.32475 0
M  V30 7595 N 699.141 -0.881989 1.30609 0
M  V30 7596 C 700.552 -1.44956 1.17664 0
M  V30 7597 C 700.903 -1.94945 -0.221531 0
M  V30 7598 O 700.028 -1.85257 -1.11844 0
M  V30 7599 C 700.623 -2.63474 2.12995 0
M  V30 7600 C 699.182 -3.16312 2.04019 0
M  V30 7601 C 698.329 -1.89008 2.02907 0
M  V30 7602 H 701.28 -0.691645 1.42835 0
M  V30 7603 H 701.301 -3.39783 1.71253 0
M  V30 7604 H 700.813 -2.2706 3.14746 0
M  V30 7605 H 698.914 -3.57376 1.0542 0
M  V30 7606 H 699.027 -3.79409 2.9255 0
M  V30 7607 H 697.391 -2.07465 1.47751 0
M  V30 7608 H 698.174 -1.54848 3.06394 0
M  V30 7609 N 700.619 -1.13374 -1.09472 0
M  V30 7610 C 701.844 -0.918711 -1.85942 0
M  V30 7611 C 702.269 0.527225 -1.8056 0
M  V30 7612 O 701.627 1.37408 -1.18274 0
M  V30 7613 C 701.675 -1.41056 -3.31867 0
M  V30 7614 O 700.779 -0.595496 -4.08078 0
M  V30 7615 H 700.12 -0.329297 -0.576593 0
M  V30 7616 H 702.65 -1.50829 -1.38245 0
M  V30 7617 H 702.66 -1.41398 -3.82715 0
M  V30 7618 H 701.335 -2.46335 -3.35099 0
M  V30 7619 H 699.912 -0.659911 -3.67014 0
M  V30 7620 N 702.098 1.27442 -0.927168 0
M  V30 7621 C 703.028 2.29256 -0.443188 0
M  V30 7622 C 704.009 1.62701 0.49624 0
M  V30 7623 O 705.194 1.90013 0.401105 0
M  V30 7624 C 702.324 3.45955 0.305366 0
M  V30 7625 C 701.278 4.24501 -0.546178 0
M  V30 7626 C 700.604 5.33671 0.331512 0
M  V30 7627 C 701.904 4.89921 -1.81037 0
M  V30 7628 H 703.598 2.69988 -1.29409 0
M  V30 7629 H 701.144 1.29792 -0.623705 0
M  V30 7630 H 703.097 4.1628 0.654885 0
M  V30 7631 H 701.821 3.04138 1.19029 0
M  V30 7632 H 700.48 3.55921 -0.878398 0
M  V30 7633 H 700.128 4.88096 1.21537 0
M  V30 7634 H 699.828 5.87131 -0.234746 0
M  V30 7635 H 701.352 6.0684 0.676614 0
M  V30 7636 H 702.766 5.52536 -1.52895 0
M  V30 7637 H 701.163 5.53436 -2.32009 0
M  V30 7638 H 702.233 4.13652 -2.53021 0
M  V30 7639 N 703.576 0.692616 1.41565 0
M  V30 7640 C 704.486 0.0258451 2.34586 0
M  V30 7641 C 705.502 -0.769324 1.56069 0
M  V30 7642 O 706.678 -0.707563 1.88562 0
M  V30 7643 C 703.743 -0.901289 3.3478 0
M  V30 7644 C 702.804 -0.0986579 4.29187 0
M  V30 7645 C 702.037 -0.981634 5.24595 0
M  V30 7646 O 702.26 -2.22115 5.25377 0
M  V30 7647 O 701.194 -0.432892 6.00341 0
M  V30 7648 H 705.02 0.792537 2.93177 0
M  V30 7649 H 702.605 0.452935 1.42369 0
M  V30 7650 H 704.487 -1.43302 3.96286 0
M  V30 7651 H 703.162 -1.64752 2.78637 0
M  V30 7652 H 702.069 0.477604 3.71039 0
M  V30 7653 H 703.402 0.608848 4.8842 0
M  V30 7654 N 705.054 -1.51416 0.437162 0
M  V30 7655 C 706.302 -2.01687 -0.129108 0
M  V30 7656 C 706.623 -1.32329 -1.43227 0
M  V30 7657 O 705.893 -0.457796 -1.90476 0
M  V30 7658 H 704.473 -0.745277 -0.0507023 0
M  V30 7659 H 707.135 -1.86075 0.579828 0
M  V30 7660 H 706.231 -3.10605 -0.305141 0
M  V30 7661 N 706.532 -0.168513 -1.56696 0
M  V30 7662 C 707.781 0.477233 -1.95973 0
M  V30 7663 C 708.094 1.64578 -1.05704 0
M  V30 7664 O 709.3 2.35758 -1.3465 0
M  V30 7665 C 707.756 0.900413 -3.48455 0
M  V30 7666 C 707.364 -0.242382 -4.47344 0
M  V30 7667 C 709.108 1.51474 -3.96555 0
M  V30 7668 C 707.015 0.200272 -5.91061 0
M  V30 7669 H 705.945 0.182061 -0.73169 0
M  V30 7670 H 708.596 -0.256297 -1.81701 0
M  V30 7671 H 706.978 1.68984 -3.58135 0
M  V30 7672 H 708.152 -1.01967 -4.49377 0
M  V30 7673 H 706.467 -0.766484 -4.09285 0
M  V30 7674 H 709.064 1.85792 -5.01384 0
M  V30 7675 H 709.407 2.41163 -3.39332 0
M  V30 7676 H 709.94 0.789802 -3.89881 0
M  V30 7677 H 706.679 -0.661775 -6.52151 0
M  V30 7678 H 706.199 0.942979 -5.92341 0
M  V30 7679 H 707.878 0.645088 -6.43776 0
M  V30 7680 N 708.01 1.57248 0.105221 0
M  V30 7681 C 709.421 1.74612 0.660865 0
M  V30 7682 C 709.772 0.789231 1.79626 0
M  V30 7683 O 708.897 -0.0346611 2.16372 0
M  V30 7684 C 709.492 3.16624 1.20559 0
M  V30 7685 C 708.051 3.35447 1.7074 0
M  V30 7686 C 707.198 2.70445 0.612764 0
M  V30 7687 H 710.149 1.5824 -0.12079 0
M  V30 7688 H 710.17 3.18937 2.07508 0
M  V30 7689 H 709.682 3.86245 0.379012 0
M  V30 7690 H 707.783 2.7089 2.5583 0
M  V30 7691 H 707.896 4.43702 1.80736 0
M  V30 7692 H 706.26 2.32061 1.04975 0
M  V30 7693 H 707.043 3.42699 -0.203066 0
M  V30 7694 N 709.488 -0.375779 1.53054 0
M  V30 7695 C 710.435 -1.45978 1.78771 0
M  V30 7696 C 711.405 -1.53625 0.631552 0
M  V30 7697 O 712.59 -1.69674 0.872667 0
M  V30 7698 C 709.73 -2.8305 1.97425 0
M  V30 7699 C 708.843 -2.84451 3.25134 0
M  V30 7700 C 707.978 -4.13034 3.34031 0
M  V30 7701 C 707.017 -4.08536 4.55812 0
M  V30 7702 N 706.154 -5.2875 4.61918 0
M  V30 7703 H 710.994 -1.23349 2.71273 0
M  V30 7704 H 708.531 -0.598147 1.3439 0
M  V30 7705 H 710.489 -3.62666 2.06225 0
M  V30 7706 H 709.119 -3.04101 1.0827 0
M  V30 7707 H 708.171 -1.97127 3.25338 0
M  V30 7708 H 709.483 -2.76998 4.14818 0
M  V30 7709 H 708.637 -5.0106 3.42087 0
M  V30 7710 H 707.376 -4.23226 2.42345 0
M  V30 7711 H 706.381 -3.18897 4.47867 0
M  V30 7712 H 707.606 -3.99955 5.48828 0
M  V30 7713 H 705.552 -5.39547 3.73129 0
M  V30 7714 H 705.469 -5.23426 5.45492 0
M  V30 7715 H 706.737 -6.18637 4.74245 0
M  V30 7716 N 710.966 -1.44241 -0.634997 0
M  V30 7717 C 712.212 -1.47038 -1.39669 0
M  V30 7718 C 712.545 -0.101122 -1.93937 0
M  V30 7719 O 711.82 0.880699 -1.73418 0
M  V30 7720 C 712.103 -2.52763 -2.56482 0
M  V30 7721 C 711.956 -3.99032 -2.07589 0
M  V30 7722 C 713.275 -2.55031 -3.58674 0
M  V30 7723 H 710.394 -0.53537 -0.506506 0
M  V30 7724 H 713.036 -1.75898 -0.718317 0
M  V30 7725 H 711.186 -2.28284 -3.14354 0
M  V30 7726 H 712.858 -4.3463 -1.54577 0
M  V30 7727 H 711.101 -4.10994 -1.38804 0
M  V30 7728 H 711.772 -4.68649 -2.91671 0
M  V30 7729 H 714.248 -2.76893 -3.10595 0
M  V30 7730 H 713.124 -3.30916 -4.37934 0
M  V30 7731 H 713.385 -1.59085 -4.12486 0
M  V30 7732 N 712.444 0.87505 -1.31075 0
M  V30 7733 C 713.69 1.63009 -1.20647 0
M  V30 7734 C 714.023 1.9276 0.236045 0
M  V30 7735 O 713.298 1.55559 1.16754 0
M  V30 7736 C 713.581 2.96357 -2.0456 0
M  V30 7737 C 713.434 2.73516 -3.57084 0
M  V30 7738 C 714.753 3.974 -1.89107 0
M  V30 7739 H 711.872 0.591518 -0.439631 0
M  V30 7740 H 714.514 1.0119 -1.60812 0
M  V30 7741 H 712.664 3.49119 -1.70435 0
M  V30 7742 H 714.336 2.27465 -4.01319 0
M  V30 7743 H 712.579 2.0784 -3.80769 0
M  V30 7744 H 713.25 3.68377 -4.11099 0
M  V30 7745 H 715.726 3.5383 -2.18961 0
M  V30 7746 H 714.602 4.88596 -2.5013 0
M  V30 7747 H 714.863 4.33794 -0.85296 0
M  V30 7748 N 713.922 1.13953 1.08869 0
M  V30 7749 C 715.169 0.90481 1.81161 0
M  V30 7750 C 715.497 -0.568824 1.85996 0
M  V30 7751 O 714.752 -1.43723 1.32823 0
M  V30 7752 C 715.051 1.44495 3.26888 0
M  V30 7753 C 714.717 2.93641 3.42178 0
M  V30 7754 C 713.379 3.34361 3.46059 0
M  V30 7755 C 715.731 3.89568 3.46246 0
M  V30 7756 C 713.059 4.69681 3.51592 0
M  V30 7757 C 715.411 5.2474 3.53314 0
M  V30 7758 C 714.075 5.64979 3.55465 0
M  V30 7759 H 713.345 0.331094 0.662916 0
M  V30 7760 H 715.992 1.42242 1.28217 0
M  V30 7761 H 714.297 0.848169 3.82509 0
M  V30 7762 H 715.994 1.23934 3.81368 0
M  V30 7763 H 712.584 2.61156 3.39846 0
M  V30 7764 H 716.768 3.59192 3.42483 0
M  V30 7765 H 712.024 5.00224 3.51547 0
M  V30 7766 H 716.198 5.98882 3.55406 0
M  V30 7767 H 713.825 6.69821 3.59505 0
M  V30 7768 N 715.4 -1.26948 0.933913 0
M  V30 7769 C 716.33 -2.29017 0.45534 0
M  V30 7770 C 717.311 -1.62961 -0.487605 0
M  V30 7771 O 718.496 -1.90223 -0.391022 0
M  V30 7772 C 715.626 -3.46112 -0.287015 0
M  V30 7773 C 714.58 -4.24205 0.568682 0
M  V30 7774 C 713.906 -5.3384 -0.303206 0
M  V30 7775 C 715.206 -4.88954 1.83633 0
M  V30 7776 H 716.9 -2.69298 1.30839 0
M  V30 7777 H 714.446 -1.29459 0.630579 0
M  V30 7778 H 716.399 -4.16622 -0.6328 0
M  V30 7779 H 715.123 -3.04765 -1.17414 0
M  V30 7780 H 713.782 -3.5545 0.897261 0
M  V30 7781 H 713.43 -4.88734 -1.18947 0
M  V30 7782 H 713.13 -5.86998 0.265879 0
M  V30 7783 H 714.654 -6.0719 -0.644423 0
M  V30 7784 H 716.068 -5.51717 1.55823 0
M  V30 7785 H 714.465 -5.52198 2.34941 0
M  V30 7786 H 715.535 -4.12305 2.55211 0
M  V30 7787 N 716.879 -0.700114 -1.41195 0
M  V30 7788 C 718.128 -0.230082 -2.00383 0
M  V30 7789 C 718.441 1.17857 -1.56106 0
M  V30 7790 O 719.647 1.74631 -2.07885 0
M  V30 7791 C 718.103 -0.360447 -3.5809 0
M  V30 7792 C 717.711 -1.77475 -4.11347 0
M  V30 7793 C 719.455 0.0495799 -4.24471 0
M  V30 7794 C 717.362 -1.85653 -5.61504 0
M  V30 7795 H 716.292 -0.0822633 -0.749499 0
M  V30 7796 H 718.943 -0.868969 -1.6162 0
M  V30 7797 H 717.325 0.346768 -3.94479 0
M  V30 7798 H 718.499 -2.51109 -3.86369 0
M  V30 7799 H 716.814 -2.13486 -3.57509 0
M  V30 7800 H 719.411 0.00898219 -5.34699 0
M  V30 7801 H 719.754 1.08904 -4.01803 0
M  V30 7802 H 720.287 -0.607521 -3.93134 0
M  V30 7803 H 717.026 -2.87667 -5.89006 0
M  V30 7804 H 716.546 -1.1641 -5.88395 0
M  V30 7805 H 718.225 -1.62151 -6.26351 0
M  V30 7806 N 718.357 1.51182 -0.445186 0
M  V30 7807 C 719.634 1.9478 0.178965 0
M  V30 7808 C 720.014 1.38428 1.59376 0
M  V30 7809 O 719.362 0.574552 2.21159 0
M  V30 7810 C 719.572 3.48683 0.148711 0
M  V30 7811 C 720.92 4.23152 0.35042 0
M  V30 7812 O 721.944 3.55479 0.226474 0
M  V30 7813 O 720.803 5.4322 0.597893 0
M  V30 7814 H 717.897 0.817387 0.12573 0
M  V30 7815 H 720.443 1.62051 -0.503729 0
M  V30 7816 H 719.215 3.82176 -0.84009 0
M  V30 7817 H 718.838 3.87875 0.873979 0
M  V30 7818 N 719.835 0.176821 1.56605 0
M  V30 7819 C 721.06 -0.47599 2.01864 0
M  V30 7820 C 721.485 -1.55645 1.05623 0
M  V30 7821 O 720.843 -1.81263 0.0366729 0
M  V30 7822 C 720.891 -1.02619 3.4569 0
M  V30 7823 O 719.995 -2.13996 3.52533 0
M  V30 7824 H 719.336 -0.113363 0.654251 0
M  V30 7825 H 721.866 0.28233 2.02643 0
M  V30 7826 H 721.876 -1.34742 3.85109 0
M  V30 7827 H 720.551 -0.235138 4.15235 0
M  V30 7828 H 719.128 -1.82876 3.24978 0
M  V30 7829 N 721.313 -1.57302 -0.09688 0
M  V30 7830 C 722.56 -1.85997 -0.800699 0
M  V30 7831 C 722.888 -0.765089 -1.7882 0
M  V30 7832 O 722.143 0.241492 -1.94204 0
M  V30 7833 C 722.442 -3.21272 -1.56586 0
M  V30 7834 C 722.108 -4.45104 -0.72064 0
M  V30 7835 C 720.77 -4.78723 -0.487632 0
M  V30 7836 C 723.122 -5.2103 -0.132948 0
M  V30 7837 C 720.45 -5.85697 0.34296 0
M  V30 7838 C 722.802 -6.28881 0.684957 0
M  V30 7839 C 721.466 -6.61017 0.928073 0
M  V30 7840 H 720.736 -0.680613 -0.292997 0
M  V30 7841 H 723.383 -1.91399 -0.0622474 0
M  V30 7842 H 721.688 -3.11547 -2.37583 0
M  V30 7843 H 723.385 -3.40702 -2.11478 0
M  V30 7844 H 719.975 -4.18777 -0.912359 0
M  V30 7845 H 724.159 -4.95392 -0.300132 0
M  V30 7846 H 719.415 -6.09008 0.540317 0
M  V30 7847 H 723.589 -6.86886 1.14721 0
M  V30 7848 H 721.216 -7.43738 1.57348 0
M  V30 7849 N 722.791 0.367657 -1.53252 0
M  V30 7850 C 723.738 1.45028 -1.79543 0
M  V30 7851 C 724.708 1.53288 -0.63969 0
M  V30 7852 O 725.893 1.69209 -0.881653 0
M  V30 7853 C 723.033 2.82 -1.98923 0
M  V30 7854 C 722.146 2.82722 -3.26638 0
M  V30 7855 C 721.281 4.11257 -3.36216 0
M  V30 7856 C 720.32 4.06113 -4.57972 0
M  V30 7857 N 719.457 5.26293 -4.64715 0
M  V30 7858 H 724.297 1.21908 -2.71923 0
M  V30 7859 H 721.834 0.591011 -1.34705 0
M  V30 7860 H 723.792 3.61568 -2.08146 0
M  V30 7861 H 722.422 3.03523 -1.09881 0
M  V30 7862 H 721.474 1.95399 -3.26379 0
M  V30 7863 H 722.786 2.74794 -4.16281 0
M  V30 7864 H 721.94 4.99239 -3.44739 0
M  V30 7865 H 720.679 4.21935 -2.44586 0
M  V30 7866 H 719.684 3.16517 -4.49552 0
M  V30 7867 H 720.909 3.97039 -5.50942 0
M  V30 7868 H 718.855 5.37561 -3.75985 0
M  V30 7869 H 718.772 5.20526 -5.4826 0
M  V30 7870 H 720.04 6.16113 -4.77519 0
M  V30 7871 N 724.269 1.44576 0.627338 0
M  V30 7872 C 725.515 1.47777 1.38888 0
M  V30 7873 C 725.848 0.111406 1.9388 0
M  V30 7874 O 725.123 -0.87149 1.73883 0
M  V30 7875 C 725.406 2.54119 2.55138 0
M  V30 7876 C 725.259 4.00128 2.0547 0
M  V30 7877 C 726.578 2.56929 3.57317 0
M  V30 7878 H 723.697 0.538048 0.50366 0
M  V30 7879 H 726.339 1.76277 0.708978 0
M  V30 7880 H 724.489 2.29948 3.13139 0
M  V30 7881 H 726.161 4.35444 1.5227 0
M  V30 7882 H 724.404 4.11724 1.36623 0
M  V30 7883 H 725.075 4.7019 2.89181 0
M  V30 7884 H 727.551 2.78536 3.09122 0
M  V30 7885 H 726.427 3.33234 4.36173 0
M  V30 7886 H 726.688 1.6127 4.11636 0
M  V30 7887 N 725.747 -0.868086 1.31537 0
M  V30 7888 C 726.694 -1.97548 1.19346 0
M  V30 7889 C 727.664 -1.65913 0.0787922 0
M  V30 7890 O 728.849 -1.89129 0.251985 0
M  V30 7891 C 725.989 -3.32922 0.908692 0
M  V30 7892 C 725.102 -3.77141 2.10687 0
M  V30 7893 C 724.237 -5.01241 1.75873 0
M  V30 7894 C 723.276 -5.37914 2.92088 0
M  V30 7895 N 722.413 -6.53192 2.57457 0
M  V30 7896 H 727.253 -2.07307 2.14074 0
M  V30 7897 H 724.79 -1.01483 1.06487 0
M  V30 7898 H 726.748 -4.10867 0.724138 0
M  V30 7899 H 725.378 -3.228 -0.0017611 0
M  V30 7900 H 724.43 -2.94961 2.40213 0
M  V30 7901 H 725.742 -4.00248 2.97663 0
M  V30 7902 H 724.896 -5.86858 1.53891 0
M  V30 7903 H 723.635 -4.80041 0.86091 0
M  V30 7904 H 722.64 -4.50814 3.14717 0
M  V30 7905 H 723.865 -5.61077 3.82582 0
M  V30 7906 H 721.811 -6.33536 1.702 0
M  V30 7907 H 721.728 -6.76252 3.37963 0
M  V30 7908 H 722.996 -7.41997 2.38873 0
M  V30 7909 N 727.225 -1.14528 -1.08264 0
M  V30 7910 C 728.474 -0.908992 -1.80056 0
M  V30 7911 C 728.787 0.565859 -1.87236 0
M  V30 7912 O 729.993 0.919454 -2.55457 0
M  V30 7913 C 728.449 -1.57681 -3.23519 0
M  V30 7914 C 728.057 -3.08803 -3.24569 0
M  V30 7915 C 729.801 -1.4217 -3.99985 0
M  V30 7916 C 727.708 -3.68414 -4.62629 0
M  V30 7917 H 726.638 -0.336432 -0.674781 0
M  V30 7918 H 729.289 -1.37437 -1.21587 0
M  V30 7919 H 727.671 -1.03911 -3.82124 0
M  V30 7920 H 728.845 -3.69252 -2.75663 0
M  V30 7921 H 727.16 -3.23968 -2.61598 0
M  V30 7922 H 729.757 -1.84106 -5.02005 0
M  V30 7923 H 730.1 -0.367989 -4.1467 0
M  V30 7924 H 730.633 -1.92984 -3.47853 0
M  V30 7925 H 727.372 -4.73644 -4.53147 0
M  V30 7926 H 726.892 -3.12746 -5.11811 0
M  V30 7927 H 728.571 -3.68793 -5.31602 0
M  V30 7928 N 728.703 1.26451 -0.940633 0
M  V30 7929 C 729.65 2.264 -0.448497 0
M  V30 7930 C 730.62 1.5866 0.491546 0
M  V30 7931 O 731.805 1.86389 0.407874 0
M  V30 7932 C 728.945 3.43956 0.280715 0
M  V30 7933 C 728.058 4.26374 -0.694937 0
M  V30 7934 C 727.193 5.31171 0.0554186 0
M  V30 7935 C 726.232 6.05266 -0.912091 0
M  V30 7936 N 725.369 7.01833 -0.193524 0
M  V30 7937 H 730.209 2.67869 -1.30576 0
M  V30 7938 H 727.746 1.31707 -0.655112 0
M  V30 7939 H 729.704 4.10941 0.71994 0
M  V30 7940 H 728.334 3.03403 1.10212 0
M  V30 7941 H 727.386 3.59183 -1.25267 0
M  V30 7942 H 728.698 4.77748 -1.43382 0
M  V30 7943 H 727.852 6.04166 0.553951 0
M  V30 7944 H 726.591 4.80634 0.827183 0
M  V30 7945 H 725.596 5.31099 -1.42175 0
M  V30 7946 H 726.821 6.57893 -1.68385 0
M  V30 7947 H 724.767 6.53607 0.559758 0
M  V30 7948 H 724.684 7.50957 -0.871744 0
M  V30 7949 H 725.952 7.78983 0.283932 0
M  V30 7950 N 730.181 0.707592 1.40822 0
M  V30 7951 C 731.427 0.244031 2.01326 0
M  V30 7952 C 731.76 -1.15722 1.55955 0
M  V30 7953 O 731.035 -1.78347 0.776044 0
M  V30 7954 C 731.318 0.315128 3.58718 0
M  V30 7955 C 731.171 1.75419 4.14184 0
M  V30 7956 C 732.49 -0.318251 4.38948 0
M  V30 7957 H 729.609 0.0901471 0.731466 0
M  V30 7958 H 732.251 0.898584 1.67408 0
M  V30 7959 H 730.401 -0.242176 3.87744 0
M  V30 7960 H 732.073 2.36626 3.95987 0
M  V30 7961 H 730.316 2.28449 3.68773 0
M  V30 7962 H 730.987 1.75538 5.23345 0
M  V30 7963 H 733.463 0.156514 4.15806 0
M  V30 7964 H 732.339 -0.238019 5.48384 0
M  V30 7965 H 732.6 -1.40067 4.19325 0
M  V30 7966 N 731.66 -1.50943 0.453197 0
M  V30 7967 C 733.076 -1.59245 0.106342 0
M  V30 7968 C 733.276 -1.46287 -1.38572 0
M  V30 7969 O 732.332 -1.31219 -2.15726 0
M  V30 7970 C 733.645 -2.93797 0.640595 0
M  V30 7971 C 735.193 -3.07148 0.602435 0
M  V30 7972 C 735.668 -4.44247 1.11393 0
M  V30 7973 N 737.159 -4.50611 1.07258 0
M  V30 7974 C 737.894 -5.55049 1.43905 0
M  V30 7975 N 737.39 -6.66828 1.87914 0
M  V30 7976 N 739.183 -5.45494 1.35621 0
M  V30 7977 H 731.334 -1.5761 1.42382 0
M  V30 7978 H 733.597 -0.74384 0.587713 0
M  V30 7979 H 733.303 -3.087 1.68515 0
M  V30 7980 H 733.177 -3.77127 0.0742272 0
M  V30 7981 H 735.564 -2.91903 -0.433171 0
M  V30 7982 H 735.645 -2.25619 1.20539 0
M  V30 7983 H 735.289 -4.60239 2.14808 0
M  V30 7984 H 735.219 -5.2434 0.487353 0
M  V30 7985 H 737.71 -3.70391 0.749585 0
M  V30 7986 H 738.023 -7.42558 2.14072 0
M  V30 7987 H 736.368 -6.67995 1.91853 0
M  V30 7988 H 739.559 -4.57053 1.01093 0
M  V30 7989 H 739.732 -6.2677 1.64508 0
M  V30 7990 N 733.138 -0.185124 -1.56509 0
M  V30 7991 C 734.07 0.771401 -2.15829 0
M  V30 7992 C 735.083 1.18392 -1.11747 0
M  V30 7993 O 736.272 1.12137 -1.38879 0
M  V30 7994 C 733.372 2.05169 -2.69739 0
M  V30 7995 C 732.545 1.80056 -3.98621 0
M  V30 7996 C 731.604 2.92435 -4.37456 0
M  V30 7997 O 730.63 2.62473 -5.05071 0
M  V30 7998 N 731.832 4.20554 -4.00143 0
M  V30 7999 H 734.597 0.264184 -2.98533 0
M  V30 8000 H 732.158 -0.00281069 -1.619 0
M  V30 8001 H 734.15 2.7947 -2.92709 0
M  V30 8002 H 732.72 2.47041 -1.91545 0
M  V30 8003 H 731.94 0.895862 -3.83885 0
M  V30 8004 H 733.228 1.60662 -4.82768 0
M  V30 8005 H 732.626 4.47753 -3.45736 0
M  V30 8006 H 731.183 4.91514 -4.28085 0
M  V30 8007 N 734.616 1.57351 0.0885366 0
M  V30 8008 C 735.579 2.01557 1.09121 0
M  V30 8009 C 736.579 0.910052 1.3257 0
M  V30 8010 O 737.769 1.17537 1.28572 0
M  V30 8011 C 734.901 2.38189 2.43883 0
M  V30 8012 H 736.094 2.91361 0.710562 0
M  V30 8013 H 733.647 1.52694 0.333779 0
M  V30 8014 H 734.382 1.5136 2.86811 0
M  V30 8015 H 734.167 3.18846 2.28209 0
M  V30 8016 H 735.657 2.73025 3.15986 0
M  V30 8017 N 736.094 -0.359525 1.53444 0
M  V30 8018 C 737.34 -1.09958 1.71116 0
M  V30 8019 C 737.695 -1.8681 0.460414 0
M  V30 8020 O 736.988 -1.83635 -0.5467 0
M  V30 8021 C 737.182 -2.08287 2.90433 0
M  V30 8022 C 737.011 -1.41098 4.26991 0
M  V30 8023 C 735.781 -1.16255 4.91745 0
M  V30 8024 C 737.979 -0.845517 5.07302 0
M  V30 8025 N 735.961 -0.454798 6.12213 0
M  V30 8026 C 737.332 -0.267455 6.19423 0
M  V30 8027 C 739.387 -0.744797 4.92298 0
M  V30 8028 C 738.09 0.401511 7.18179 0
M  V30 8029 C 740.116 -0.0896013 5.91332 0
M  V30 8030 C 739.478 0.47756 7.02779 0
M  V30 8031 H 735.577 -0.387305 0.679352 0
M  V30 8032 H 738.161 -0.38519 1.90852 0
M  V30 8033 H 736.332 -2.77034 2.72226 0
M  V30 8034 H 738.064 -2.75015 2.96899 0
M  V30 8035 H 734.819 -1.44544 4.51003 0
M  V30 8036 H 735.243 -0.116108 6.769 0
M  V30 8037 H 739.885 -1.16905 4.06317 0
M  V30 8038 H 737.603 0.837694 8.03746 0
M  V30 8039 H 741.189 -0.0125162 5.81799 0
M  V30 8040 H 740.069 0.976522 7.78096 0
M  V30 8041 N 737.572 -1.44907 -0.619662 0
M  V30 8042 C 738.988 -1.29046 -0.939107 0
M  V30 8043 C 739.188 -0.23462 -2.00129 0
M  V30 8044 O 738.244 0.37558 -2.49691 0
M  V30 8045 C 739.557 -2.66567 -1.39149 0
M  V30 8046 C 741.105 -2.74368 -1.50635 0
M  V30 8047 C 741.58 -4.12386 -1.99253 0
M  V30 8048 N 743.071 -4.1462 -2.06506 0
M  V30 8049 C 743.806 -5.18272 -2.4532 0
M  V30 8050 N 743.302 -6.32278 -2.83189 0
M  V30 8051 N 745.095 -5.05628 -2.45554 0
M  V30 8052 H 737.246 -2.12239 0.0826135 0
M  V30 8053 H 739.509 -0.947652 -0.0256829 0
M  V30 8054 H 739.215 -3.4496 -0.685254 0
M  V30 8055 H 739.089 -2.94224 -2.36034 0
M  V30 8056 H 741.476 -1.96287 -2.20353 0
M  V30 8057 H 741.557 -2.50439 -0.520963 0
M  V30 8058 H 741.201 -4.90947 -1.30127 0
M  V30 8059 H 741.131 -4.33699 -2.98684 0
M  V30 8060 H 743.622 -3.32343 -1.79878 0
M  V30 8061 H 743.935 -7.07172 -3.11652 0
M  V30 8062 H 742.28 -6.35699 -2.80913 0
M  V30 8063 H 745.471 -4.15613 -2.15367 0
M  V30 8064 H 745.644 -5.86529 -2.75478 0
M  V30 8065 N 739.05 0.861098 -1.31996 0
M  V30 8066 C 739.96 2.00154 -1.22374 0
M  V30 8067 C 740.976 1.73447 -0.138631 0
M  V30 8068 O 742.152 1.98191 -0.358104 0
M  V30 8069 C 739.217 3.33696 -0.940645 0
M  V30 8070 C 738.278 3.73668 -2.11355 0
M  V30 8071 C 737.511 5.00837 -1.84386 0
M  V30 8072 O 737.734 5.64996 -0.783287 0
M  V30 8073 O 736.668 5.37787 -2.70313 0
M  V30 8074 H 740.494 2.11207 -2.18233 0
M  V30 8075 H 738.079 0.990768 -1.11822 0
M  V30 8076 H 739.961 4.13756 -0.798987 0
M  V30 8077 H 738.636 3.23698 -0.0121636 0
M  V30 8078 H 737.543 2.94211 -2.31065 0
M  V30 8079 H 738.876 3.88303 -3.02459 0
M  V30 8080 N 740.528 1.15101 1.07655 0
M  V30 8081 C 741.491 0.847625 2.12951 0
M  V30 8082 C 742.491 -0.151227 1.60087 0
M  V30 8083 O 743.681 0.0780399 1.74025 0
M  V30 8084 C 740.813 0.265 3.39868 0
M  V30 8085 H 742.006 1.7809 2.41296 0
M  V30 8086 H 739.559 0.958072 1.23494 0
M  V30 8087 H 740.294 -0.676625 3.17163 0
M  V30 8088 H 740.079 0.984554 3.79538 0
M  V30 8089 H 741.569 0.0702121 4.17541 0
M  V30 8090 N 742.006 -1.2595 0.947325 0
M  V30 8091 C 742.938 -2.25336 0.41906 0
M  V30 8092 C 743.951 -1.56135 -0.461051 0
M  V30 8093 O 745.14 -1.76438 -0.270505 0
M  V30 8094 C 742.24 -3.36334 -0.416233 0
M  V30 8095 C 741.413 -4.35088 0.449162 0
M  V30 8096 C 740.472 -5.25185 -0.326716 0
M  V30 8097 O 739.498 -5.68548 0.272374 0
M  V30 8098 N 740.7 -5.57388 -1.6217 0
M  V30 8099 H 743.465 -2.71298 1.27348 0
M  V30 8100 H 741.026 -1.39781 0.81688 0
M  V30 8101 H 743.018 -3.93564 -0.942826 0
M  V30 8102 H 741.588 -2.89819 -1.17148 0
M  V30 8103 H 740.808 -3.76841 1.15692 0
M  V30 8104 H 742.096 -4.98056 1.04008 0
M  V30 8105 H 741.494 -5.2405 -2.13046 0
M  V30 8106 H 740.051 -6.17234 -2.0944 0
M  V30 8107 N 743.484 -0.715051 -1.40445 0
M  V30 8108 C 744.447 -0.0708726 -2.2909 0
M  V30 8109 C 745.447 0.687926 -1.45342 0
M  V30 8110 O 746.637 0.519908 -1.66261 0
M  V30 8111 C 743.769 0.909528 -3.28543 0
M  V30 8112 H 744.962 -0.851611 -2.87555 0
M  V30 8113 H 742.515 -0.479674 -1.48758 0
M  V30 8114 H 743.25 1.71734 -2.75096 0
M  V30 8115 H 743.035 0.368318 -3.90366 0
M  V30 8116 H 744.525 1.35744 -3.94922 0
M  V30 8117 N 744.962 1.50701 -0.461195 0
M  V30 8118 C 745.872 2.32069 0.343661 0
M  V30 8119 C 746.888 1.42016 1.00535 0
M  V30 8120 O 748.064 1.75077 0.995498 0
M  V30 8121 C 745.129 3.16424 1.41692 0
M  V30 8122 C 744.19 4.22286 0.772869 0
M  V30 8123 C 743.423 5.02609 1.79499 0
M  V30 8124 O 743.646 4.83874 3.0203 0
M  V30 8125 O 742.58 5.86047 1.3723 0
M  V30 8126 H 746.406 3.01996 -0.321268 0
M  V30 8127 H 743.991 1.47723 -0.223235 0
M  V30 8128 H 745.873 3.68795 2.03883 0
M  V30 8129 H 744.548 2.49236 2.0655 0
M  V30 8130 H 743.455 3.73931 0.112277 0
M  V30 8131 H 744.788 4.91915 0.167399 0
M  V30 8132 N 746.441 0.193421 1.56409 0
M  V30 8133 C 747.689 -0.444908 1.97142 0
M  V30 8134 C 748.01 -1.62268 1.08139 0
M  V30 8135 O 747.28 -1.95307 0.152326 0
M  V30 8136 H 745.86 -0.16736 0.728011 0
M  V30 8137 H 748.522 0.279763 1.92882 0
M  V30 8138 H 747.618 -0.790159 3.01932 0
M  V30 8139 N 747.919 -1.57396 -0.0801906 0
M  V30 8140 C 749.144 -1.91437 -0.797909 0
M  V30 8141 C 749.569 -0.789075 -1.70749 0
M  V30 8142 O 748.927 0.25857 -1.79447 0
M  V30 8143 C 748.975 -3.24402 -1.57467 0
M  V30 8144 O 748.079 -3.13043 -2.68473 0
M  V30 8145 H 747.42 -0.627109 -0.218243 0
M  V30 8146 H 749.95 -2.04537 -0.050949 0
M  V30 8147 H 749.96 -3.58072 -1.95571 0
M  V30 8148 H 748.635 -4.05884 -0.907229 0
M  V30 8149 H 747.212 -2.90915 -2.33287 0
M  V30 8150 N 749.397 0.351382 -1.53633 0
M  V30 8151 C 750.625 1.11275 -1.74429 0
M  V30 8152 C 751.04 1.82602 -0.479798 0
M  V30 8153 O 750.397 1.74074 0.548125 0
M  V30 8154 C 750.448 2.13223 -2.91921 0
M  V30 8155 O 750.169 1.44798 -4.13479 0
M  V30 8156 C 751.67 3.01797 -3.24706 0
M  V30 8157 H 748.89 0.332153 -0.583023 0
M  V30 8158 H 751.434 0.405974 -2.0043 0
M  V30 8159 H 749.589 2.79477 -2.68274 0
M  V30 8160 H 750.003 2.12839 -4.79374 0
M  V30 8161 H 751.477 3.69282 -4.10286 0
M  V30 8162 H 751.954 3.67387 -2.40673 0
M  V30 8163 H 752.56 2.41141 -3.5033 0
M  V30 8164 O 750.914 1.53651 0.497361 0
M  V30 8165 H 751.605 1.55706 1.15218 0
M  V30 END ATOM
M  V30 BEGIN BOND
M  V30 END BOND
M  V30 END CTAB
M  END
$$$$
