drugbank_target|P49915 GMP synthase [glutamine-hydrolyzing] (DB00142)
 OpenBabel12092119293D

  0  0  0     0  0            999 V3000
M  V30 BEGIN CTAB
M  V30 COUNTS 10879 10981 0 0 0
M  V30 BEGIN ATOM
M  V30 1 H -0.908 1.98254 -0.117106 0
M  V30 2 N 0 1.576 0 0
M  V30 3 C 0.933 2.03868 1.02534 0
M  V30 4 C 1.911 0.928543 1.3348 0
M  V30 5 O 3.095 1.19667 1.45644 0
M  V30 6 C 0.222 2.43627 2.35294 0
M  V30 7 C -0.732 3.65373 2.2001 0
M  V30 8 S 0.101 5.13292 1.52614 0
M  V30 9 C 1.257 5.56322 2.86805 0
M  V30 10 H 1.49 2.90518 0.631377 0
M  V30 11 H -0.977 1.52953 0.210867 0
M  V30 12 H 0.981 2.67203 3.11629 0
M  V30 13 H -0.358 1.57376 2.7183 0
M  V30 14 H -1.165 3.90944 3.18086 0
M  V30 15 H -1.563 3.418 1.51819 0
M  V30 16 H 0.729 5.58782 3.83104 0
M  V30 17 H 1.672 6.56266 2.65933 0
M  V30 18 H 2.08 4.83886 2.90714 0
M  V30 19 N 1.4781 -0.272755 1.55222 0
M  V30 20 C 2.4411 -1.32041 1.87344 0
M  V30 21 C 3.4411 -1.42342 0.74803 0
M  V30 22 O 4.6311 -1.41488 1.0162 0
M  V30 23 C 1.7631 -2.70173 2.07893 0
M  V30 24 H 2.9561 -1.04789 2.80997 0
M  V30 25 H 0.5091 -0.51083 1.47717 0
M  V30 26 H 1.2441 -3.02605 1.16622 0
M  V30 27 H 1.0291 -2.64082 2.89833 0
M  V30 28 H 2.5191 -3.45869 2.34017 0
M  V30 29 N 2.9562 -1.48159 -0.537278 0
M  V30 30 C 3.8862 -1.65029 -1.6519 0
M  V30 31 C 4.8672 -0.499281 -1.62607 0
M  V30 32 O 6.0522 -0.730972 -1.79918 0
M  V30 33 C 3.1822 -1.68303 -3.03795 0
M  V30 34 C 2.1362 -2.8283 -3.21234 0
M  V30 35 C 1.4622 -2.71189 -4.60826 0
M  V30 36 C 2.7622 -4.24211 -3.04701 0
M  V30 37 H 4.4562 -2.58341 -1.51328 0
M  V30 38 H 2.0022 -1.24325 -0.726585 0
M  V30 39 H 3.9552 -1.78693 -3.81637 0
M  V30 40 H 2.6792 -0.715635 -3.18663 0
M  V30 41 H 1.3382 -2.71983 -2.45807 0
M  V30 42 H 0.9862 -1.72435 -4.7252 0
M  V30 43 H 0.6862 -3.48035 -4.7344 0
M  V30 44 H 2.2102 -2.83537 -5.40777 0
M  V30 45 H 3.6242 -4.3593 -3.72341 0
M  V30 46 H 2.0212 -5.01998 -3.28813 0
M  V30 47 H 3.0912 -4.41184 -2.01209 0
M  V30 48 N 4.4343 0.785586 -1.36625 0
M  V30 49 C 5.6743 1.55678 -1.32453 0
M  V30 50 C 6.0383 1.91769 0.0941089 0
M  V30 51 O 7.2393 2.67536 0.26042 0
M  V30 52 C 5.5103 2.79701 -2.22491 0
M  V30 53 S 7.0693 3.69907 -2.36038 0
M  V30 54 H 3.8873 0.533141 -0.470405 0
M  V30 55 H 6.4893 0.924953 -1.72235 0
M  V30 56 H 5.1933 2.51244 -3.24507 0
M  V30 57 H 4.7243 3.47854 -1.83742 0
M  V30 58 H 6.7393 4.71016 -1.56072 0
M  V30 59 N 5.9124 1.20967 1.01018 0
M  V30 60 C 6.8604 0.961223 2.1181 0
M  V30 61 C 7.8544 -0.0897034 1.69162 0
M  V30 62 O 9.0604 0.0612271 1.79896 0
M  V30 63 H 5.4354 0.29355 0.692338 0
M  V30 64 H 7.4064 1.90178 2.29946 0
M  V30 65 C 6.1554 0.536854 3.4353 0
M  V30 66 H 5.4784 1.33713 3.76777 0
M  V30 67 H 6.9184 0.402286 4.22087 0
M  V30 68 C 5.3774 -0.751574 3.2841 0
M  V30 69 O 5.9074 -1.80841 3.58691 0
M  V30 70 N 4.1134 -0.716079 2.81639 0
M  V30 71 H 3.6604 0.144236 2.57196 0
M  V30 72 H 3.6184 -1.57847 2.71904 0
M  V30 73 N 7.3905 -1.2043 1.01659 0
M  V30 74 C 8.6385 -1.89423 0.704522 0
M  V30 75 C 8.9595 -1.79231 -0.768197 0
M  V30 76 O 8.2295 -1.1947 -1.55254 0
M  V30 77 H 6.8095 -0.701178 0.257602 0
M  V30 78 H 9.4715 -1.4626 1.28818 0
M  V30 79 H 8.5675 -2.96052 0.987916 0
M  V30 80 N 8.8686 -0.792821 -1.36206 0
M  V30 81 C 10.1456 -0.290627 -1.93429 0
M  V30 82 C 10.5256 1.21773 -1.72437 0
M  V30 83 O 9.8736 2.0108 -1.08531 0
M  V30 84 C 10.0836 -0.686973 -3.42172 0
M  V30 85 C 11.4316 -0.668643 -4.19302 0
M  V30 86 O 12.4556 -0.627658 -3.50626 0
M  V30 87 O 11.3146 -0.714597 -5.41808 0
M  V30 88 H 8.4086 -0.0727927 -0.82379 0
M  V30 89 H 10.9546 -0.875593 -1.45367 0
M  V30 90 H 9.7266 -1.72711 -3.51122 0
M  V30 91 H 9.3496 -0.0760733 -3.97527 0
M  V30 92 N 10.3467 1.47872 -0.545128 0
M  V30 93 C 11.5717 2.07391 -0.0190611 0
M  V30 94 C 11.9967 1.39688 1.25971 0
M  V30 95 O 11.3547 0.467816 1.7516 0
M  V30 96 C 11.4027 3.60188 0.172335 0
M  V30 97 O 10.5067 3.9339 1.23766 0
M  V30 98 H 9.8477 0.662411 -0.0459059 0
M  V30 99 H 12.3777 1.90066 -0.757365 0
M  V30 100 H 12.3877 4.06129 0.390305 0
M  V30 101 H 11.0627 4.08865 -0.761725 0
M  V30 102 H 9.6397 3.5921 1.00114 0
M  V30 103 N 11.8248 0.280983 1.55075 0
M  V30 104 C 12.7718 -0.603937 2.22758 0
M  V30 105 C 13.7418 -1.1452 1.20309 0
M  V30 106 O 14.9268 -1.19343 1.48869 0
M  V30 107 C 12.0668 -1.77947 2.95684 0
M  V30 108 C 11.1798 -1.2715 4.12864 0
M  V30 109 C 10.3148 -2.4093 4.7342 0
M  V30 110 C 9.3538 -1.87165 5.82783 0
M  V30 111 N 8.4908 -2.94441 6.37377 0
M  V30 112 H 13.3308 -0.020124 2.97993 0
M  V30 113 H 10.8678 0.00183425 1.471 0
M  V30 114 H 12.8258 -2.47055 3.36184 0
M  V30 115 H 11.4558 -2.33522 2.22861 0
M  V30 116 H 10.5078 -0.473331 3.77444 0
M  V30 117 H 11.8198 -0.837751 4.91715 0
M  V30 118 H 10.9738 -3.18021 5.1667 0
M  V30 119 H 9.7128 -2.87623 3.93859 0
M  V30 120 H 8.7178 -1.08556 5.38976 0
M  V30 121 H 9.9428 -1.41401 6.64216 0
M  V30 122 H 7.8888 -3.40505 5.60707 0
M  V30 123 H 7.8058 -2.55501 7.11516 0
M  V30 124 H 9.0738 -3.71489 6.85285 0
M  V30 125 N 13.3029 -1.57598 0.00835791 0
M  V30 126 C 14.2329 -2.1198 -0.979113 0
M  V30 127 C 15.2139 -1.03091 -1.35301 0
M  V30 128 O 16.3989 -1.30818 -1.43528 0
M  V30 129 C 13.5289 -2.62995 -2.26828 0
M  V30 130 C 12.4829 -3.76485 -2.03576 0
M  V30 131 C 11.8089 -4.13846 -3.38579 0
M  V30 132 C 13.1089 -5.0342 -1.39161 0
M  V30 133 H 14.8029 -2.94738 -0.526281 0
M  V30 134 H 12.3489 -1.41783 -0.251704 0
M  V30 135 H 14.3019 -2.99669 -2.96271 0
M  V30 136 H 13.0259 -1.7737 -2.7424 0
M  V30 137 H 11.6849 -3.40217 -1.36557 0
M  V30 138 H 11.3329 -3.25232 -3.83709 0
M  V30 139 H 11.0329 -4.90312 -3.23834 0
M  V30 140 H 12.5569 -4.53086 -4.09323 0
M  V30 141 H 13.9709 -5.37812 -1.98573 0
M  V30 142 H 12.3679 -5.84746 -1.34878 0
M  V30 143 H 13.4379 -4.83548 -0.361868 0
M  V30 144 N 14.781 0.264519 -1.55364 0
M  V30 145 C 15.691 1.34902 -1.91934 0
M  V30 146 C 16.707 1.53595 -0.817593 0
M  V30 147 O 17.883 1.67558 -1.11742 0
M  V30 148 C 14.948 2.68676 -2.19121 0
M  V30 149 C 14.009 2.58657 -3.4263 0
M  V30 150 C 13.242 3.86051 -3.68511 0
M  V30 151 O 13.465 4.87126 -2.96757 0
M  V30 152 O 12.399 3.85744 -4.62045 0
M  V30 153 H 16.225 1.06883 -2.8427 0
M  V30 154 H 13.81 0.463775 -1.42019 0
M  V30 155 H 15.692 3.47759 -2.37995 0
M  V30 156 H 14.367 2.96463 -1.29966 0
M  V30 157 H 13.274 1.7792 -3.29082 0
M  V30 158 H 14.607 2.35818 -4.32031 0
M  V30 159 N 16.2591 1.48442 0.529413 0
M  V30 160 C 17.2071 1.63452 1.65487 0
M  V30 161 C 18.2011 0.500955 1.61823 0
M  V30 162 O 19.4071 0.679695 1.66674 0
M  V30 163 H 15.7821 0.514905 0.548066 0
M  V30 164 H 17.7531 2.57975 1.49971 0
M  V30 165 C 16.5021 1.69196 3.03756 0
M  V30 166 H 15.8251 2.55784 3.07269 0
M  V30 167 H 17.2651 1.83743 3.82119 0
M  V30 168 C 15.7241 0.430765 3.34135 0
M  V30 169 O 16.2541 -0.4561 3.99102 0
M  V30 170 N 14.4601 0.302293 2.89023 0
M  V30 171 H 14.0071 1.02496 2.36331 0
M  V30 172 H 13.9651 -0.540546 3.09718 0
M  V30 173 N 17.7372 -0.778329 1.37039 0
M  V30 174 C 18.7002 -1.87301 1.32102 0
M  V30 175 C 19.7002 -1.59198 0.226405 0
M  V30 176 O 20.8902 -1.67403 0.481861 0
M  V30 177 C 18.0222 -3.24309 1.05055 0
M  V30 178 H 19.2152 -1.93093 2.29467 0
M  V30 179 H 16.7682 -0.977358 1.21973 0
M  V30 180 H 17.5032 -3.24196 0.0819373 0
M  V30 181 H 17.2882 -3.46098 1.84279 0
M  V30 182 H 18.7782 -4.04382 1.04234 0
M  V30 183 N 19.2153 -1.21501 -1.00376 0
M  V30 184 C 20.4633 -1.03095 -1.73827 0
M  V30 185 C 20.7843 0.436341 -1.90055 0
M  V30 186 O 20.0543 1.31466 -1.45236 0
M  V30 187 H 18.6343 -0.378487 -0.644016 0
M  V30 188 H 21.2963 -1.52831 -1.20949 0
M  V30 189 H 20.3923 -1.49991 -2.73695 0
M  V30 190 N 20.6934 1.19889 -1.02296 0
M  V30 191 C 21.9414 1.89046 -0.714558 0
M  V30 192 C 22.2624 1.79636 0.758681 0
M  V30 193 O 21.5324 1.20292 1.54618 0
M  V30 194 H 20.1124 0.699802 -0.261317 0
M  V30 195 H 22.7744 1.45574 -1.29592 0
M  V30 196 H 21.8704 2.95524 -1.0036 0
M  V30 197 N 22.1715 0.800033 1.35784 0
M  V30 198 C 23.4485 0.30088 1.93272 0
M  V30 199 C 23.8285 -1.20857 1.73081 0
M  V30 200 O 23.1765 -2.00502 1.09596 0
M  V30 201 C 23.3865 0.70511 3.41803 0
M  V30 202 C 24.7345 0.690871 4.18942 0
M  V30 203 O 25.7585 0.646244 3.50289 0
M  V30 204 O 24.6175 0.74332 5.41421 0
M  V30 205 H 21.7115 0.0771605 0.823393 0
M  V30 206 H 24.2575 0.88329 1.449 0
M  V30 207 H 23.0295 1.74571 3.50201 0
M  V30 208 H 22.6525 0.0971541 3.97481 0
M  V30 209 N 23.6496 -1.47581 0.552962 0
M  V30 210 C 24.5796 -2.32762 -0.185451 0
M  V30 211 C 25.5606 -1.43527 -0.912905 0
M  V30 212 O 26.7456 -1.72388 -0.894201 0
M  V30 213 C 23.8756 -3.25219 -1.21859 0
M  V30 214 C 22.8296 -4.23661 -0.607864 0
M  V30 215 C 22.1556 -5.05413 -1.74533 0
M  V30 216 C 23.4556 -5.20481 0.435582 0
M  V30 217 H 25.1496 -2.94749 0.525684 0
M  V30 218 H 22.6956 -1.41738 0.254251 0
M  V30 219 H 24.6486 -3.8365 -1.7433 0
M  V30 220 H 23.3726 -2.61279 -1.95961 0
M  V30 221 H 22.0316 -3.66451 -0.104489 0
M  V30 222 H 21.6796 -4.3788 -2.47529 0
M  V30 223 H 21.3796 -5.72059 -1.34249 0
M  V30 224 H 22.9036 -5.66701 -2.27338 0
M  V30 225 H 24.3176 -5.733 -0.00290157 0
M  V30 226 H 22.7146 -5.95305 0.757067 0
M  V30 227 H 23.7846 -4.66217 1.33303 0
M  V30 228 N 25.1277 -0.289203 -1.54924 0
M  V30 229 C 26.0747 0.592115 -2.23075 0
M  V30 230 C 27.0447 1.13881 -1.20915 0
M  V30 231 O 28.2297 1.18551 -1.495 0
M  V30 232 C 25.3697 1.76376 -2.96623 0
M  V30 233 C 24.4827 1.24959 -4.13533 0
M  V30 234 C 23.6177 2.38416 -4.74691 0
M  V30 235 C 22.6567 1.84072 -5.83767 0
M  V30 236 N 21.7937 2.91057 -6.38929 0
M  V30 237 H 26.6337 0.00432038 -2.98 0
M  V30 238 H 24.1707 -0.00963529 -1.47097 0
M  V30 239 H 26.1287 2.45268 -3.3749 0
M  V30 240 H 24.7587 2.32337 -2.24097 0
M  V30 241 H 23.8107 0.453307 -3.77689 0
M  V30 242 H 25.1227 0.811662 -4.92152 0
M  V30 243 H 24.2767 3.15276 -5.18349 0
M  V30 244 H 23.0157 2.8553 -3.95378 0
M  V30 245 H 22.0207 1.05697 -5.39545 0
M  V30 246 H 23.2457 1.37877 -6.64956 0
M  V30 247 H 21.1917 3.37526 -5.62505 0
M  V30 248 H 21.1087 2.51724 -7.12861 0
M  V30 249 H 22.3767 3.6785 -6.87246 0
M  V30 250 N 26.6058 1.57591 -0.0167156 0
M  V30 251 C 27.8828 1.82547 0.702564 0
M  V30 252 C 28.2628 0.898018 1.91047 0
M  V30 253 O 27.6108 -0.0493456 2.28447 0
M  V30 254 C 27.8208 3.31459 1.09251 0
M  V30 255 C 29.1688 3.97622 1.48937 0
M  V30 256 O 30.1928 3.35881 1.18584 0
M  V30 257 O 29.0518 5.06415 2.05442 0
M  V30 258 H 26.1458 0.752268 0.343544 0
M  V30 259 H 28.6918 1.69644 -0.0434495 0
M  V30 260 H 27.4638 3.9061 0.23227 0
M  V30 261 H 27.0868 3.49422 1.89709 0
M  V30 262 N 28.0839 -0.256276 1.55502 0
M  V30 263 C 29.3319 -0.983672 1.76545 0
M  V30 264 C 29.6529 -1.86206 0.578982 0
M  V30 265 O 28.9229 -1.91656 -0.405577 0
M  V30 266 H 27.5029 -0.366191 0.651086 0
M  V30 267 H 30.1649 -0.276479 1.92929 0
M  V30 268 H 29.2609 -1.61087 2.67315 0
M  V30 269 N 29.562 -1.4872 -0.521534 0
M  V30 270 C 30.512 -1.60269 -1.62166 0
M  V30 271 C 31.496 -0.45935 -1.54204 0
M  V30 272 O 32.688 -0.711241 -1.62081 0
M  V30 273 C 29.817 -1.65344 -3.00859 0
M  V30 274 C 28.903 -2.85187 -3.13894 0
M  V30 275 N 29.294 -4.09509 -2.96877 0
M  V30 276 C 27.592 -2.82695 -3.44963 0
M  V30 277 C 28.293 -4.89959 -3.13552 0
M  V30 278 N 27.269 -4.22934 -3.41508 0
M  V30 279 H 31.071 -2.5413 -1.47632 0
M  V30 280 H 28.585 -1.45209 -0.727194 0
M  V30 281 H 30.582 -1.71713 -3.79895 0
M  V30 282 H 29.242 -0.726058 -3.16478 0
M  V30 283 H 30.253 -4.39814 -2.73467 0
M  V30 284 H 26.93 -1.99249 -3.66887 0
M  V30 285 H 28.32 -5.98654 -3.05061 0
M  V30 286 N 31.0401 0.771051 -1.3745 0
M  V30 287 C 31.9901 1.87456 -1.29785 0
M  V30 288 C 32.9741 1.59827 -0.185541 0
M  V30 289 O 34.1661 1.71945 -0.419997 0
M  V30 290 C 31.2951 3.24935 -1.1078 0
M  V30 291 C 30.3811 3.58514 -2.26558 0
M  V30 292 N 30.7721 3.6327 -3.5195 0
M  V30 293 C 29.0701 3.88683 -2.18727 0
M  V30 294 C 29.7711 3.93616 -4.283 0
M  V30 295 N 28.7471 4.09551 -3.57448 0
M  V30 296 H 32.5491 1.89386 -2.24745 0
M  V30 297 H 30.0631 0.967531 -1.30432 0
M  V30 298 H 32.0601 4.03881 -1.03374 0
M  V30 299 H 30.7201 3.24268 -0.16738 0
M  V30 300 H 31.7311 3.45458 -3.85848 0
M  V30 301 H 28.4081 3.95834 -1.32746 0
M  V30 302 H 29.7981 4.04066 -5.36824 0
M  V30 303 N 32.5182 1.22032 0.997298 0
M  V30 304 C 33.4682 0.953838 2.07089 0
M  V30 305 C 34.4522 -0.0938669 1.60626 0
M  V30 306 O 35.6442 0.116078 1.76619 0
M  V30 307 C 32.7732 0.528726 3.39204 0
M  V30 308 C 31.8592 1.61092 3.92314 0
M  V30 309 N 32.2502 2.83768 4.18699 0
M  V30 310 C 30.5482 1.48158 4.20672 0
M  V30 311 C 31.2492 3.53715 4.61802 0
M  V30 312 N 30.2252 2.81174 4.65233 0
M  V30 313 H 34.0272 1.88577 2.25424 0
M  V30 314 H 31.5412 1.11719 1.17867 0
M  V30 315 H 33.5382 0.31915 4.15677 0
M  V30 316 H 32.1982 -0.39635 3.22272 0
M  V30 317 H 33.2092 3.20238 4.07023 0
M  V30 318 H 29.8862 0.622369 4.12835 0
M  V30 319 H 31.2762 4.58793 4.90875 0
M  V30 320 N 33.9963 -1.19345 1.0293 0
M  V30 321 C 35.2263 -1.92717 0.744563 0
M  V30 322 C 35.6343 -1.75751 -0.700579 0
M  V30 323 O 34.9773 -1.07703 -1.48815 0
M  V30 324 C 35.0393 -3.44828 1.01657 0
M  V30 325 C 34.7033 -3.85564 2.45335 0
M  V30 326 C 35.7003 -3.90286 3.43472 0
M  V30 327 C 33.3853 -4.1719 2.79746 0
M  V30 328 C 35.3793 -4.26065 4.74075 0
M  V30 329 C 33.0663 -4.52642 4.10559 0
M  V30 330 C 34.0643 -4.57054 5.07534 0
M  V30 331 O 33.7523 -4.91685 6.36004 0
M  V30 332 H 33.4843 -0.618977 0.271742 0
M  V30 333 H 36.0383 -1.52415 1.37691 0
M  V30 334 H 34.2683 -3.85314 0.327084 0
M  V30 335 H 35.9573 -3.99437 0.721427 0
M  V30 336 H 36.7233 -3.66002 3.18225 0
M  V30 337 H 32.6023 -4.1294 2.04943 0
M  V30 338 H 36.1463 -4.29423 5.49765 0
M  V30 339 H 32.0433 -4.76383 4.35579 0
M  V30 340 H 32.8113 -5.09631 6.40483 0
M  V30 341 N 35.4744 -0.807222 -1.35358 0
M  V30 342 C 36.3844 -0.219594 -2.3357 0
M  V30 343 C 37.4004 0.637734 -1.61892 0
M  V30 344 O 38.5764 0.549336 -1.93763 0
M  V30 345 C 35.6414 0.62158 -3.41083 0
M  V30 346 C 34.7024 -0.256315 -4.28534 0
M  V30 347 C 33.9354 0.544807 -5.30912 0
M  V30 348 O 34.1584 1.77944 -5.41934 0
M  V30 349 O 33.0924 -0.0646478 -6.01865 0
M  V30 350 H 36.9184 -1.03208 -2.85625 0
M  V30 351 H 34.5034 -0.569025 -1.38139 0
M  V30 352 H 36.3854 1.10067 -4.06772 0
M  V30 353 H 35.0604 1.41165 -2.91297 0
M  V30 354 H 33.9674 -0.782559 -3.65823 0
M  V30 355 H 35.3004 -1.01034 -4.81719 0
M  V30 356 N 36.9525 1.47285 -0.560781 0
M  V30 357 C 38.2005 2.02064 -0.0379868 0
M  V30 358 C 38.5215 1.43711 1.31803 0
M  V30 359 O 37.7915 0.61362 1.86042 0
M  V30 360 H 36.3715 0.746918 -0.0110531 0
M  V30 361 H 39.0335 1.80648 -0.731598 0
M  V30 362 H 38.1295 3.12064 0.0474463 0
M  V30 363 N 38.4306 0.297415 1.54768 0
M  V30 364 C 39.3936 -0.567375 2.22066 0
M  V30 365 C 40.3936 -1.06409 1.20556 0
M  V30 366 O 41.5836 -0.960691 1.45315 0
M  V30 367 C 38.7156 -1.78517 2.90421 0
M  V30 368 H 39.9086 0.0205534 2.99893 0
M  V30 369 H 37.4616 0.0482163 1.56226 0
M  V30 370 H 38.1966 -2.41303 2.16664 0
M  V30 371 H 37.9816 -1.43669 3.64831 0
M  V30 372 H 39.4716 -2.39964 3.41771 0
M  V30 373 N 39.9087 -1.5758 0.0250728 0
M  V30 374 C 41.1547 -1.91917 -0.655413 0
M  V30 375 C 41.4877 -0.901433 -1.72011 0
M  V30 376 O 40.7627 0.0764069 -1.9435 0
M  V30 377 C 41.0457 -3.36751 -1.27558 0
M  V30 378 C 40.8987 -4.49258 -0.220719 0
M  V30 379 C 42.2177 -3.81469 -2.19475 0
M  V30 380 H 39.3367 -0.697925 -0.23679 0
M  V30 381 H 41.9787 -1.89825 0.0815036 0
M  V30 382 H 40.1287 -3.38664 -1.90365 0
M  V30 383 H 41.8007 -4.59478 0.409601 0
M  V30 384 H 40.0437 -4.31415 0.454264 0
M  V30 385 H 40.7147 -5.47618 -0.694175 0
M  V30 386 H 43.1907 -3.81266 -1.66659 0
M  V30 387 H 42.0667 -4.83512 -2.59822 0
M  V30 388 H 42.3277 -3.16744 -3.08424 0
M  V30 389 N 41.3868 0.248026 -1.55636 0
M  V30 390 C 42.6328 0.97767 -1.77678 0
M  V30 391 C 42.9658 1.85016 -0.590135 0
M  V30 392 O 42.2408 1.90095 0.411611 0
M  V30 393 C 42.5238 1.83914 -3.09593 0
M  V30 394 C 42.3768 0.99491 -4.38659 0
M  V30 395 C 43.6958 2.82183 -3.37729 0
M  V30 396 H 40.8148 0.354005 -0.646413 0
M  V30 397 H 43.4568 0.248253 -1.88371 0
M  V30 398 H 41.6068 2.46104 -3.00608 0
M  V30 399 H 43.2788 0.391789 -4.59633 0
M  V30 400 H 41.5218 0.299231 -4.32767 0
M  V30 401 H 42.1928 1.63145 -5.2734 0
M  V30 402 H 44.6688 2.30129 -3.4667 0
M  V30 403 H 43.5448 3.39582 -4.31249 0
M  V30 404 H 43.8058 3.58588 -2.58586 0
M  V30 405 N 42.8649 1.48995 0.513639 0
M  V30 406 C 44.1139 1.57093 1.2651 0
M  V30 407 C 44.4269 0.257091 1.93903 0
M  V30 408 O 45.6329 0.216478 2.70636 0
M  V30 409 C 44.0889 2.77118 2.29638 0
M  V30 410 C 43.6969 4.15209 1.68241 0
M  V30 411 C 45.4409 2.94538 3.05692 0
M  V30 412 C 43.3479 5.26474 2.69406 0
M  V30 413 H 42.2779 0.584876 0.475854 0
M  V30 414 H 44.9289 1.7536 0.540487 0
M  V30 415 H 43.3109 2.52319 3.05207 0
M  V30 416 H 44.4849 4.50094 0.987505 0
M  V30 417 H 42.7999 4.03042 1.04623 0
M  V30 418 H 45.3969 3.74832 3.8132 0
M  V30 419 H 45.7399 2.04614 3.62545 0
M  V30 420 H 46.2729 3.19316 2.37238 0
M  V30 421 H 43.0119 6.18417 2.17351 0
M  V30 422 H 42.5319 4.96058 3.37175 0
M  V30 423 H 44.2109 5.55277 3.32078 0
M  V30 424 N 44.343 -0.763751 1.37857 0
M  V30 425 C 45.273 -1.89103 1.36975 0
M  V30 426 C 46.254 -1.68439 0.237152 0
M  V30 427 O 47.439 -1.8918 0.438713 0
M  V30 428 C 44.569 -3.26496 1.18395 0
M  V30 429 C 43.523 -3.61741 2.28751 0
M  V30 430 C 42.849 -4.97762 1.95286 0
M  V30 431 C 44.149 -3.67665 3.70972 0
M  V30 432 H 45.843 -1.90099 2.31307 0
M  V30 433 H 43.389 -0.91319 1.11341 0
M  V30 434 H 45.342 -4.05003 1.16406 0
M  V30 435 H 44.066 -3.25955 0.205215 0
M  V30 436 H 42.725 -2.85547 2.29909 0
M  V30 437 H 42.373 -4.93769 0.959221 0
M  V30 438 H 42.073 -5.22313 2.69189 0
M  V30 439 H 43.597 -5.7866 1.94898 0
M  V30 440 H 45.011 -4.36307 3.719 0
M  V30 441 H 43.408 -4.03718 4.43995 0
M  V30 442 H 44.478 -2.68134 4.0402 0
M  V30 443 N 45.8211 -1.22559 -0.990812 0
M  V30 444 C 47.0981 -0.959875 -1.70428 0
M  V30 445 C 47.4781 0.524455 -2.04481 0
M  V30 446 O 46.8261 1.49302 -1.72977 0
M  V30 447 C 47.0361 -1.85955 -2.95333 0
M  V30 448 C 48.3841 -2.11687 -3.68068 0
M  V30 449 O 49.4081 -1.8342 -3.05345 0
M  V30 450 O 48.2671 -2.59572 -4.80921 0
M  V30 451 H 45.3611 -0.361154 -0.743974 0
M  V30 452 H 47.9071 -1.33554 -1.04697 0
M  V30 453 H 46.6791 -2.86346 -2.66687 0
M  V30 454 H 46.3021 -1.4856 -3.68803 0
M  V30 455 N 47.2992 1.18797 -1.03562 0
M  V30 456 C 48.2622 2.20464 -0.626769 0
M  V30 457 C 49.2622 1.57721 0.313173 0
M  V30 458 O 50.4522 1.73917 0.0992615 0
M  V30 459 C 47.5842 3.40802 0.0818498 0
M  V30 460 H 48.7772 2.58149 -1.5264 0
M  V30 461 H 46.3302 1.32593 -0.827578 0
M  V30 462 H 47.0652 3.08642 0.995518 0
M  V30 463 H 46.8502 3.8758 -0.593652 0
M  V30 464 H 48.3402 4.16092 0.354584 0
M  V30 465 N 48.7773 0.814389 1.34928 0
M  V30 466 C 50.0253 0.397636 1.9815 0
M  V30 467 C 50.3463 -1.04069 1.64908 0
M  V30 468 O 49.6163 -1.72121 0.93548 0
M  V30 469 H 48.1963 0.144043 0.732981 0
M  V30 470 H 50.8583 1.04195 1.6471 0
M  V30 471 H 49.9543 0.509688 3.0791 0
M  V30 472 N 50.2554 -1.46986 0.568584 0
M  V30 473 C 51.2184 -2.28624 -0.162366 0
M  V30 474 C 52.2184 -1.37596 -0.832103 0
M  V30 475 O 53.4084 -1.60115 -0.68622 0
M  V30 476 C 50.5404 -3.17596 -1.23878 0
M  V30 477 H 51.7334 -2.94722 0.554899 0
M  V30 478 H 49.2864 -1.52863 0.325976 0
M  V30 479 H 50.0214 -2.56214 -1.98808 0
M  V30 480 H 49.8064 -3.846 -0.763219 0
M  V30 481 H 51.2964 -3.79078 -1.75185 0
M  V30 482 N 51.7335 -0.305618 -1.54608 0
M  V30 483 C 52.6655 0.602161 -2.21149 0
M  V30 484 C 53.6785 1.09394 -1.20569 0
M  V30 485 O 54.8675 1.0106 -1.47136 0
M  V30 486 C 51.9675 1.83692 -2.84799 0
M  V30 487 C 51.1405 1.48686 -4.11353 0
M  V30 488 C 50.1995 2.57725 -4.58764 0
M  V30 489 O 49.2255 2.22623 -5.23858 0
M  V30 490 N 50.4275 3.88346 -4.31471 0
M  V30 491 H 53.1925 0.0324966 -2.99682 0
M  V30 492 H 50.7535 -0.128021 -1.61393 0
M  V30 493 H 52.7455 2.55994 -3.13448 0
M  V30 494 H 51.3155 2.31486 -2.10078 0
M  V30 495 H 50.5355 0.596269 -3.89664 0
M  V30 496 H 51.8235 1.22842 -4.93748 0
M  V30 497 H 51.2215 4.19671 -3.79331 0
M  V30 498 H 49.7785 4.56932 -4.64818 0
M  V30 499 N 53.2116 1.57565 -0.0334293 0
M  V30 500 C 54.4416 1.95996 0.653398 0
M  V30 501 C 54.8496 0.908749 1.65947 0
M  V30 502 O 54.1926 -0.117471 1.83324 0
M  V30 503 C 54.2546 3.30589 1.41249 0
M  V30 504 C 53.9186 4.53503 0.564263 0
M  V30 505 C 54.9156 5.19647 -0.16225 0
M  V30 506 C 52.6006 4.99801 0.500398 0
M  V30 507 C 54.5946 6.30412 -0.941255 0
M  V30 508 C 52.2816 6.10448 -0.282308 0
M  V30 509 C 53.2796 6.75612 -1.00184 0
M  V30 510 O 52.9676 7.84134 -1.77171 0
M  V30 511 H 52.6996 0.65027 0.184728 0
M  V30 512 H 55.2536 2.05199 -0.0907841 0
M  V30 513 H 53.4836 3.17888 2.20191 0
M  V30 514 H 55.1726 3.53892 1.98784 0
M  V30 515 H 55.9386 4.84846 -0.12227 0
M  V30 516 H 51.8176 4.48883 1.05002 0
M  V30 517 H 55.3616 6.81208 -1.50339 0
M  V30 518 H 51.2586 6.44686 -0.323989 0
M  V30 519 H 52.0266 8.00822 -1.69194 0
M  V30 520 N 54.6897 -0.239769 1.55765 0
M  V30 521 C 55.9377 -0.964892 1.77579 0
M  V30 522 C 56.2587 -1.85582 0.598699 0
M  V30 523 O 55.5287 -1.92075 -0.385226 0
M  V30 524 H 54.1087 -0.359265 0.654933 0
M  V30 525 H 56.7707 -0.256001 1.93211 0
M  V30 526 H 55.8667 -1.58243 2.69009 0
M  V30 527 N 56.1678 -1.49265 -0.50573 0
M  V30 528 C 57.1148 -1.65585 -1.6078 0
M  V30 529 C 58.0848 -0.497396 -1.58478 0
M  V30 530 O 59.2698 -0.72385 -1.76536 0
M  V30 531 C 56.4098 -1.72408 -2.98948 0
M  V30 532 C 55.5228 -2.99525 -3.11301 0
M  V30 533 C 54.6578 -2.97356 -4.40174 0
M  V30 534 C 53.6968 -4.19074 -4.46143 0
M  V30 535 N 52.8338 -4.14841 -5.66437 0
M  V30 536 H 57.6738 -2.59688 -1.46172 0
M  V30 537 H 55.2108 -1.28761 -0.711261 0
M  V30 538 H 57.1688 -1.74344 -3.79025 0
M  V30 539 H 55.7988 -0.817753 -3.1227 0
M  V30 540 H 54.8508 -3.07222 -2.24318 0
M  V30 541 H 56.1628 -3.89518 -3.11572 0
M  V30 542 H 55.3168 -2.97829 -5.28567 0
M  V30 543 H 54.0558 -2.05133 -4.42461 0
M  V30 544 H 53.0608 -4.1885 -3.56153 0
M  V30 545 H 54.2858 -5.12483 -4.45575 0
M  V30 546 H 52.2318 -3.25453 -5.69575 0
M  V30 547 H 52.1488 -4.98564 -5.68304 0
M  V30 548 H 53.4168 -4.1941 -6.57051 0
M  V30 549 N 57.6459 0.756429 -1.3826 0
M  V30 550 C 58.8919 1.51772 -1.34511 0
M  V30 551 C 59.2249 1.94089 0.0656691 0
M  V30 552 O 58.4999 1.65221 1.02626 0
M  V30 553 C 58.7829 2.77226 -2.29821 0
M  V30 554 C 58.6359 2.41065 -3.79747 0
M  V30 555 C 59.9549 3.79236 -2.23312 0
M  V30 556 H 57.0739 0.550578 -0.489931 0
M  V30 557 H 59.7159 0.866607 -1.69086 0
M  V30 558 H 57.8659 3.32784 -2.00467 0
M  V30 559 H 59.5379 1.91303 -4.19763 0
M  V30 560 H 57.7809 1.7356 -3.97567 0
M  V30 561 H 58.4519 3.3081 -4.41892 0
M  V30 562 H 60.9279 3.3321 -2.49219 0
M  V30 563 H 59.8039 4.64714 -2.92116 0
M  V30 564 H 60.0649 4.24615 -1.23102 0
M  V30 565 N 59.124 1.23083 0.984299 0
M  V30 566 C 60.373 1.05466 1.71929 0
M  V30 567 C 60.686 -0.409211 1.91272 0
M  V30 568 O 61.892 -0.705226 2.62181 0
M  V30 569 C 60.348 1.83874 3.09384 0
M  V30 570 C 59.956 3.34566 2.97943 0
M  V30 571 C 61.7 1.74734 3.8687 0
M  V30 572 C 59.607 4.05381 4.30605 0
M  V30 573 H 58.537 0.391039 0.644674 0
M  V30 574 H 61.188 1.47013 1.09815 0
M  V30 575 H 59.57 1.35131 3.72231 0
M  V30 576 H 60.744 3.90767 2.44209 0
M  V30 577 H 59.059 3.44476 2.33934 0
M  V30 578 H 61.656 2.24957 4.85076 0
M  V30 579 H 61.999 0.709372 4.10212 0
M  V30 580 H 62.532 2.21067 3.30717 0
M  V30 581 H 59.271 5.09467 4.1246 0
M  V30 582 H 58.791 3.53967 4.84218 0
M  V30 583 H 60.47 4.11458 4.99311 0
M  V30 584 N 60.6021 -1.18246 1.0419 0
M  V30 585 C 61.8791 -1.84121 0.660208 0
M  V30 586 C 62.2591 -1.92778 -0.860221 0
M  V30 587 O 61.6071 -1.45464 -1.76217 0
M  V30 588 C 61.8171 -3.22355 1.33747 0
M  V30 589 C 63.1651 -3.98376 1.46906 0
M  V30 590 O 64.1891 -3.31799 1.29568 0
M  V30 591 O 63.0481 -5.17665 1.75171 0
M  V30 592 H 60.1421 -0.794036 0.231161 0
M  V30 593 H 62.6881 -1.25628 1.14087 0
M  V30 594 H 61.4601 -3.10964 2.37522 0
M  V30 595 H 61.0831 -3.88506 0.845515 0
M  V30 596 N 62.0802 -0.821533 -1.34494 0
M  V30 597 C 63.4962 -0.507117 -1.51329 0
M  V30 598 C 63.6962 0.968964 -1.76673 0
M  V30 599 O 62.7522 1.75348 -1.81685 0
M  V30 600 C 64.0652 -1.36544 -2.67911 0
M  V30 601 C 65.6132 -1.36242 -2.81793 0
M  V30 602 C 66.0882 -2.2052 -4.01416 0
M  V30 603 N 67.5792 -2.18136 -4.08621 0
M  V30 604 C 68.3142 -2.80095 -5.00334 0
M  V30 605 N 67.8102 -3.51039 -5.9728 0
M  V30 606 N 69.6032 -2.69656 -4.93196 0
M  V30 607 H 61.7542 -1.77729 -1.16302 0
M  V30 608 H 64.0172 -0.757291 -0.570276 0
M  V30 609 H 63.7232 -2.41361 -2.55808 0
M  V30 610 H 63.5972 -1.02917 -3.62888 0
M  V30 611 H 65.9842 -0.322041 -2.93338 0
M  V30 612 H 66.0652 -1.73866 -1.87628 0
M  V30 613 H 65.7092 -3.24607 -3.90631 0
M  V30 614 H 65.6392 -1.80247 -4.94791 0
M  V30 615 H 68.1302 -1.6653 -3.39229 0
M  V30 616 H 68.4432 -3.95565 -6.63889 0
M  V30 617 H 66.7882 -3.55145 -5.97409 0
M  V30 618 H 69.9792 -2.13808 -4.16418 0
M  V30 619 H 70.1522 -3.1823 -5.64476 0
M  V30 620 N 63.5583 1.46682 -0.576371 0
M  V30 621 C 64.9743 1.57822 -0.237562 0
M  V30 622 C 65.1743 1.57237 1.26011 0
M  V30 623 O 64.2303 1.48596 2.04146 0
M  V30 624 C 65.5433 2.87499 -0.881168 0
M  V30 625 C 67.0913 3.01119 -0.85417 0
M  V30 626 C 67.5663 4.33524 -1.4772 0
M  V30 627 N 69.0573 4.40207 -1.44125 0
M  V30 628 C 69.7923 5.4126 -1.89276 0
M  V30 629 N 69.2883 6.49021 -2.42371 0
M  V30 630 N 71.0813 5.32422 -1.80231 0
M  V30 631 H 63.2323 1.45306 -1.54919 0
M  V30 632 H 65.4953 0.692733 -0.647167 0
M  V30 633 H 65.2013 2.9372 -1.93447 0
M  V30 634 H 65.0753 3.75224 -0.385592 0
M  V30 635 H 67.4623 2.94485 0.190491 0
M  V30 636 H 67.5433 2.14887 -1.3877 0
M  V30 637 H 67.1873 4.40916 -2.52103 0
M  V30 638 H 67.1173 5.1852 -0.918947 0
M  V30 639 H 69.6083 3.62931 -1.05307 0
M  V30 640 H 69.9213 7.2233 -2.74698 0
M  V30 641 H 68.2663 6.49858 -2.46393 0
M  V30 642 H 71.4573 4.47137 -1.38514 0
M  V30 643 H 71.6303 6.11034 -2.15735 0
M  V30 644 N 65.0364 0.313813 1.54444 0
M  V30 645 C 66.2824 -0.292108 2.00685 0
M  V30 646 C 66.6154 -1.52548 1.20177 0
M  V30 647 O 65.8904 -1.92452 0.281531 0
M  V30 648 C 66.1734 -0.635968 3.5444 0
M  V30 649 C 66.0264 0.607437 4.4568 0
M  V30 650 C 67.3454 -1.45747 4.15266 0
M  V30 651 H 64.4644 -0.104697 0.729526 0
M  V30 652 H 67.1064 0.428457 1.85106 0
M  V30 653 H 65.2564 -1.24986 3.67846 0
M  V30 654 H 66.9284 1.24581 4.44159 0
M  V30 655 H 65.1714 1.23822 4.15753 0
M  V30 656 H 65.8424 0.322515 5.51057 0
M  V30 657 H 68.3184 -0.938645 4.05375 0
M  V30 658 H 67.1944 -1.66683 5.2298 0
M  V30 659 H 67.4554 -2.45063 3.67963 0
M  V30 660 N 66.5145 -1.57545 0.0417849 0
M  V30 661 C 67.9305 -1.56467 -0.314704 0
M  V30 662 C 68.1305 -1.04859 -1.72066 0
M  V30 663 O 67.1865 -0.700983 -2.42575 0
M  V30 664 C 68.4995 -3.00317 -0.15174 0
M  V30 665 C 70.0475 -3.12201 -0.223553 0
M  V30 666 C 70.5225 -4.57913 -0.0892295 0
M  V30 667 N 72.0135 -4.6297 -0.145808 0
M  V30 668 C 72.7485 -5.73362 -0.0658459 0
M  V30 669 N 72.2445 -6.92769 0.0659282 0
M  V30 670 N 74.0375 -5.6197 -0.12075 0
M  V30 671 H 66.1885 -1.89416 0.961014 0
M  V30 672 H 68.4515 -0.871862 0.372237 0
M  V30 673 H 68.1575 -3.42073 0.817254 0
M  V30 674 H 68.0315 -3.65892 -0.916692 0
M  V30 675 H 70.4185 -2.70349 -1.18301 0
M  V30 676 H 70.4995 -2.49323 0.571994 0
M  V30 677 H 70.1435 -5.00448 0.866867 0
M  V30 678 H 70.0735 -5.18786 -0.903802 0
M  V30 679 H 72.5645 -3.7709 -0.247286 0
M  V30 680 H 72.8775 -7.72707 0.119905 0
M  V30 681 H 71.2225 -6.94927 0.100885 0
M  V30 682 H 74.4135 -4.67572 -0.222187 0
M  V30 683 H 74.5865 -6.47977 -0.0549735 0
M  V30 684 N 67.9926 0.231505 -1.5589 0
M  V30 685 C 68.9026 1.308 -1.94752 0
M  V30 686 C 69.9186 1.51826 -0.849989 0
M  V30 687 O 71.0946 1.6515 -1.15271 0
M  V30 688 C 68.1596 2.63968 -2.24771 0
M  V30 689 C 67.2206 2.51331 -3.48039 0
M  V30 690 C 66.4536 3.78148 -3.76616 0
M  V30 691 O 66.6766 4.80722 -3.07022 0
M  V30 692 O 65.6106 3.75857 -4.70123 0
M  V30 693 H 69.4366 1.0083 -2.86474 0
M  V30 694 H 67.0216 0.433547 -1.42971 0
M  V30 695 H 68.9036 3.42633 -2.45318 0
M  V30 696 H 67.5786 2.9364 -1.36225 0
M  V30 697 H 66.4856 1.709 -3.32782 0
M  V30 698 H 67.8186 2.26601 -4.36936 0
M  V30 699 N 69.4707 1.49531 0.497807 0
M  V30 700 C 70.4007 1.6935 1.60757 0
M  V30 701 C 71.3817 0.542218 1.61227 0
M  V30 702 O 72.5667 0.778417 1.77917 0
M  V30 703 C 69.6967 1.76298 2.99226 0
M  V30 704 C 68.6507 2.91248 3.13622 0
M  V30 705 C 67.9767 2.83312 4.53474 0
M  V30 706 C 69.2767 4.3214 2.93346 0
M  V30 707 H 70.9707 2.62263 1.44425 0
M  V30 708 H 68.5167 1.26208 0.693367 0
M  V30 709 H 70.4697 1.88749 3.76765 0
M  V30 710 H 69.1937 0.799871 3.16654 0
M  V30 711 H 67.8527 2.78404 2.38509 0
M  V30 712 H 67.5007 1.84902 4.67782 0
M  V30 713 H 67.2007 3.60465 4.64046 0
M  V30 714 H 68.7247 2.97775 5.33069 0
M  V30 715 H 70.1387 4.45649 3.60652 0
M  V30 716 H 68.5357 5.1054 3.15387 0
M  V30 717 H 69.6057 4.46363 1.89441 0
M  V30 718 N 70.9488 -0.749086 1.3866 0
M  V30 719 C 72.1958 -1.50833 1.35114 0
M  V30 720 C 72.5238 -1.94415 -0.0574049 0
M  V30 721 O 71.7788 -1.66065 -1.03541 0
M  V30 722 C 72.0778 -2.7712 2.25697 0
M  V30 723 C 71.7438 -2.52477 3.73585 0
M  V30 724 C 70.4058 -2.45466 4.13884 0
M  V30 725 C 72.7578 -2.31066 4.67181 0
M  V30 726 C 70.0858 -2.15064 5.45861 0
M  V30 727 C 72.4378 -2.02183 5.9942 0
M  V30 728 C 71.1018 -1.93631 6.38798 0
M  V30 729 H 70.3718 -0.551936 0.494416 0
M  V30 730 H 73.0188 -0.860979 1.71054 0
M  V30 731 H 71.3238 -3.46528 1.82827 0
M  V30 732 H 73.0208 -3.35096 2.20254 0
M  V30 733 H 69.6108 -2.58807 3.41638 0
M  V30 734 H 73.7948 -2.35459 4.3689 0
M  V30 735 H 69.0508 -2.06954 5.75308 0
M  V30 736 H 73.2248 -1.8462 6.71482 0
M  V30 737 H 70.8518 -1.69839 7.40985 0
M  V30 738 N 72.4269 -1.23603 -0.977757 0
M  V30 739 C 73.6729 -1.07129 -1.72195 0
M  V30 740 C 74.0059 0.390501 -1.90233 0
M  V30 741 O 73.2809 1.28902 -1.45653 0
M  V30 742 C 73.5639 -1.80031 -3.11867 0
M  V30 743 C 73.4169 -3.33899 -3.01383 0
M  V30 744 C 74.7359 -1.56492 -4.11337 0
M  V30 745 H 71.8549 -0.390571 -0.624999 0
M  V30 746 H 74.4969 -1.52142 -1.13811 0
M  V30 747 H 72.6469 -1.41768 -3.6171 0
M  V30 748 H 74.3189 -3.81699 -2.59043 0
M  V30 749 H 72.5619 -3.62796 -2.37827 0
M  V30 750 H 73.2329 -3.801 -4.00285 0
M  V30 751 H 75.7089 -1.89757 -3.70313 0
M  V30 752 H 74.5849 -2.09973 -5.07151 0
M  V30 753 H 74.8459 -0.500874 -4.39254 0
M  V30 754 N 73.905 1.17692 -1.04816 0
M  V30 755 C 74.837 2.21103 -0.603822 0
M  V30 756 C 75.85 1.59411 0.33046 0
M  V30 757 O 77.039 1.7807 0.12379 0
M  V30 758 C 74.139 3.38623 0.136898 0
M  V30 759 C 73.312 4.29888 -0.807137 0
M  V30 760 C 72.371 5.26088 -0.10836 0
M  V30 761 O 71.397 5.64353 -0.741232 0
M  V30 762 N 72.599 5.68882 1.15558 0
M  V30 763 H 75.364 2.59848 -1.49329 0
M  V30 764 H 72.925 1.32553 -0.929587 0
M  V30 765 H 74.917 4.00009 0.614401 0
M  V30 766 H 73.487 2.98508 0.927993 0
M  V30 767 H 72.707 3.65993 -1.46434 0
M  V30 768 H 73.995 4.87759 -1.44807 0
M  V30 769 H 73.393 5.39861 1.69015 0
M  V30 770 H 71.95 6.32429 1.57722 0
M  V30 771 N 75.3831 0.828654 1.34056 0
M  V30 772 C 76.6081 0.431637 2.02859 0
M  V30 773 C 77.0331 -0.956339 1.61975 0
M  V30 774 O 76.3911 -1.62338 0.807228 0
M  V30 775 C 76.4391 0.548323 3.56407 0
M  V30 776 O 75.5431 -0.429556 4.10157 0
M  V30 777 H 74.8841 0.176886 0.640006 0
M  V30 778 H 77.4141 1.12066 1.71179 0
M  V30 779 H 77.4241 0.426196 4.05768 0
M  V30 780 H 76.0991 1.5606 3.8551 0
M  V30 781 H 74.6761 -0.265836 3.71951 0
M  V30 782 N 76.8612 -1.46375 0.584142 0
M  V30 783 C 77.7712 -2.34115 -0.150728 0
M  V30 784 C 78.7872 -1.49838 -0.884567 0
M  V30 785 O 79.9632 -1.82704 -0.847429 0
M  V30 786 C 77.0282 -3.2705 -1.15062 0
M  V30 787 C 76.0892 -4.27228 -0.421293 0
M  V30 788 C 75.3222 -5.15722 -1.37355 0
M  V30 789 O 75.5452 -5.07176 -2.61014 0
M  V30 790 O 74.4792 -5.95383 -0.883355 0
M  V30 791 H 78.3052 -2.98309 0.569708 0
M  V30 792 H 75.8902 -1.45373 0.344535 0
M  V30 793 H 77.7722 -3.84381 -1.72712 0
M  V30 794 H 76.4472 -2.65451 -1.8525 0
M  V30 795 H 75.3542 -3.7358 0.197085 0
M  V30 796 H 76.6872 -4.91616 0.239641 0
M  V30 797 N 78.3393 -0.321999 -1.54275 0
M  V30 798 C 79.5883 0.281931 -1.9972 0
M  V30 799 C 79.9013 1.53369 -1.21397 0
M  V30 800 O 81.1073 2.21352 -1.57211 0
M  V30 801 C 79.5633 0.5529 -3.55628 0
M  V30 802 C 79.1713 -0.681721 -4.42783 0
M  V30 803 C 80.9153 1.11687 -4.09544 0
M  V30 804 C 78.8223 -0.382742 -5.9016 0
M  V30 805 H 77.7523 0.109124 -0.746062 0
M  V30 806 H 80.4033 -0.43398 -1.78294 0
M  V30 807 H 78.7853 1.32896 -3.73035 0
M  V30 808 H 79.9593 -1.45723 -4.37151 0
M  V30 809 H 78.2743 -1.1658 -3.99748 0
M  V30 810 H 80.8713 1.35515 -5.17242 0
M  V30 811 H 81.2143 2.06575 -3.61431 0
M  V30 812 H 81.7473 0.402032 -3.95763 0
M  V30 813 H 78.4863 -1.30076 -6.42464 0
M  V30 814 H 78.0063 0.355094 -5.98748 0
M  V30 815 H 79.6853 0.00800157 -6.47 0
M  V30 816 N 79.8174 1.5752 -0.0501392 0
M  V30 817 C 81.0644 1.9265 0.623874 0
M  V30 818 C 81.3924 0.928411 1.70912 0
M  V30 819 O 80.6474 -0.0594525 1.9561 0
M  V30 820 C 80.9464 3.34467 1.25963 0
M  V30 821 C 80.6124 4.49883 0.302689 0
M  V30 822 C 79.2744 4.81184 0.0393636 0
M  V30 823 C 81.6264 5.20002 -0.353205 0
M  V30 824 C 78.9544 5.79951 -0.887308 0
M  V30 825 C 81.3064 6.1976 -1.26806 0
M  V30 826 C 79.9704 6.49491 -1.54007 0
M  V30 827 H 79.2404 0.704957 0.228292 0
M  V30 828 H 81.8874 1.91146 -0.116398 0
M  V30 829 H 80.1924 3.32333 2.07514 0
M  V30 830 H 81.8894 3.58928 1.78806 0
M  V30 831 H 78.4794 4.25457 0.518109 0
M  V30 832 H 82.6634 4.96033 -0.162854 0
M  V30 833 H 77.9194 6.01322 -1.10553 0
M  V30 834 H 82.0934 6.73205 -1.78236 0
M  V30 835 H 79.7204 7.25837 -2.25976 0
M  V30 836 N 81.2955 -0.223234 1.56011 0
M  V30 837 C 82.7065 -0.790368 1.69145 0
M  V30 838 C 83.0575 -1.85055 0.651845 0
M  V30 839 O 82.1825 -2.15498 -0.197359 0
M  V30 840 C 82.7775 -1.4404 3.06656 0
M  V30 841 C 81.3365 -1.95494 3.2165 0
M  V30 842 C 80.4835 -0.814506 2.65068 0
M  V30 843 H 83.4345 0.00139011 1.587 0
M  V30 844 H 83.4555 -2.30916 3.0242 0
M  V30 845 H 82.9675 -0.668543 3.82298 0
M  V30 846 H 81.0685 -2.75487 2.50874 0
M  V30 847 H 81.1815 -2.13607 4.28846 0
M  V30 848 H 79.5455 -1.22137 2.23505 0
M  V30 849 H 80.3285 -0.0553515 3.43255 0
M  V30 850 N 82.7736 -1.49793 -0.48987 0
M  V30 851 C 83.7036 -1.70201 -1.59856 0
M  V30 852 C 84.6846 -0.55076 -1.60937 0
M  V30 853 O 85.8696 -0.787841 -1.77501 0
M  V30 854 C 82.9996 -1.77882 -2.98287 0
M  V30 855 C 81.9536 -2.92907 -3.12073 0
M  V30 856 C 81.2796 -2.85712 -4.51965 0
M  V30 857 C 82.5796 -4.3369 -2.91051 0
M  V30 858 H 84.2736 -2.63025 -1.43032 0
M  V30 859 H 81.8196 -1.26574 -0.686664 0
M  V30 860 H 83.7726 -1.90744 -3.75759 0
M  V30 861 H 82.4966 -0.816653 -3.16225 0
M  V30 862 H 81.1556 -2.79665 -2.37029 0
M  V30 863 H 80.8036 -1.8738 -4.66795 0
M  V30 864 H 80.5036 -3.62921 -4.62128 0
M  V30 865 H 82.0276 -3.00598 -5.31482 0
M  V30 866 H 83.4416 -4.47555 -3.58284 0
M  V30 867 H 81.8386 -5.12205 -3.12675 0
M  V30 868 H 82.9086 -4.47362 -1.87071 0
M  V30 869 N 84.2517 0.741722 -1.39055 0
M  V30 870 C 85.1617 1.88621 -1.39496 0
M  V30 871 C 86.1777 1.71557 -0.290578 0
M  V30 872 O 87.3537 1.94275 -0.530954 0
M  V30 873 C 84.4187 3.24134 -1.23037 0
M  V30 874 C 83.4797 3.5364 -2.43387 0
M  V30 875 C 82.7127 4.82687 -2.27703 0
M  V30 876 O 82.9357 5.55922 -1.27696 0
M  V30 877 O 81.8697 5.1194 -3.16545 0
M  V30 878 H 85.6957 1.91203 -2.35956 0
M  V30 879 H 83.2807 0.888625 -1.20099 0
M  V30 880 H 85.1627 4.0513 -1.15964 0
M  V30 881 H 83.8377 3.22337 -0.296691 0
M  V30 882 H 82.7447 2.72758 -2.56035 0
M  V30 883 H 84.0777 3.60209 -3.35425 0
M  V30 884 N 85.7298 1.2412 0.971189 0
M  V30 885 C 86.9578 1.10575 1.74874 0
M  V30 886 C 87.3728 -0.342017 1.85676 0
M  V30 887 O 86.7298 -1.23617 1.34258 0
M  V30 888 C 86.7808 1.73579 3.171 0
M  V30 889 O 86.5018 3.12695 3.06844 0
M  V30 890 C 88.0028 1.65598 4.11208 0
M  V30 891 H 85.2228 0.386504 0.548503 0
M  V30 892 H 87.7668 1.64156 1.21955 0
M  V30 893 H 85.9218 1.24009 3.67016 0
M  V30 894 H 86.3358 3.43412 3.96445 0
M  V30 895 H 87.8098 2.1437 5.08674 0
M  V30 896 H 88.2868 0.616532 4.34851 0
M  V30 897 H 88.8928 2.14578 3.67201 0
M  V30 898 N 87.2079 -1.17134 1.05439 0
M  V30 899 C 88.6189 -1.69084 0.791676 0
M  V30 900 C 88.9699 -1.83822 -0.685839 0
M  V30 901 O 88.0949 -1.52757 -1.53278 0
M  V30 902 C 88.6899 -3.07119 1.4305 0
M  V30 903 C 87.2489 -3.56225 1.21577 0
M  V30 904 C 86.3959 -2.32421 1.51247 0
M  V30 905 H 89.3469 -1.01617 1.219 0
M  V30 906 H 89.3679 -3.71087 0.84112 0
M  V30 907 H 88.8799 -2.9636 2.50584 0
M  V30 908 H 86.9809 -3.72257 0.159787 0
M  V30 909 H 87.0939 -4.38837 1.92246 0
M  V30 910 H 85.4579 -2.3701 0.932653 0
M  V30 911 H 86.2409 -2.24268 2.5992 0
M  V30 912 N 88.686 -0.835752 -1.33615 0
M  V30 913 C 89.649 -0.272 -2.2758 0
M  V30 914 C 90.649 0.557487 -1.50827 0
M  V30 915 O 91.839 0.37173 -1.70188 0
M  V30 916 C 88.971 0.617173 -3.35267 0
M  V30 917 H 90.164 -1.10111 -2.78954 0
M  V30 918 H 87.717 -0.608594 -1.43965 0
M  V30 919 H 88.452 1.46884 -2.89129 0
M  V30 920 H 88.237 0.0237066 -3.92093 0
M  V30 921 H 89.727 1.005 -4.05326 0
M  V30 922 N 90.1641 1.46063 -0.591896 0
M  V30 923 C 91.4111 2.02338 -0.0809991 0
M  V30 924 C 91.7391 1.46228 1.28249 0
M  V30 925 O 90.9941 0.620818 1.85592 0
M  V30 926 C 91.2931 3.57391 0.0249813 0
M  V30 927 C 90.9591 4.32583 -1.27211 0
M  V30 928 C 89.6211 4.52844 -1.62745 0
M  V30 929 C 91.9731 4.75687 -2.13005 0
M  V30 930 C 89.3011 5.13462 -2.83855 0
M  V30 931 C 91.6531 5.37644 -3.3335 0
M  V30 932 C 90.3171 5.5613 -3.69155 0
M  V30 933 H 89.5871 0.740407 -0.0296397 0
M  V30 934 H 92.2341 1.75321 -0.770374 0
M  V30 935 H 90.5391 3.83597 0.797537 0
M  V30 936 H 92.2361 3.98621 0.436184 0
M  V30 937 H 88.8261 4.17116 -0.985499 0
M  V30 938 H 93.0101 4.59782 -1.86855 0
M  V30 939 H 88.2661 5.25965 -3.11722 0
M  V30 940 H 92.4401 5.7 -4.00092 0
M  V30 941 H 90.0671 6.0287 -4.63089 0
M  V30 942 N 91.6422 0.330177 1.54103 0
M  V30 943 C 92.6052 -0.520144 2.2322 0
M  V30 944 C 93.6052 -1.03828 1.22786 0
M  V30 945 O 94.7952 -0.929652 1.4732 0
M  V30 946 C 91.9272 -1.72317 2.94142 0
M  V30 947 H 93.1202 0.0841605 2.99782 0
M  V30 948 H 90.6732 0.0813433 1.56088 0
M  V30 949 H 91.4082 -2.36653 2.21734 0
M  V30 950 H 91.1932 -1.35898 3.67796 0
M  V30 951 H 92.6832 -2.3266 3.46784 0
M  V30 952 N 93.1203 -1.57491 0.0584922 0
M  V30 953 C 94.3693 -1.92155 -0.613146 0
M  V30 954 C 94.6823 -0.939334 -1.71569 0
M  V30 955 O 95.8883 -1.17829 -2.44599 0
M  V30 956 C 94.3443 -3.41303 -1.14195 0
M  V30 957 C 93.9523 -4.47944 -0.0711265 0
M  V30 958 C 95.6963 -3.84988 -1.78841 0
M  V30 959 C 93.6033 -5.88212 -0.613225 0
M  V30 960 H 92.5333 -0.717162 -0.232796 0
M  V30 961 H 95.1843 -1.83049 0.12857 0
M  V30 962 H 93.5663 -3.45437 -1.93621 0
M  V30 963 H 94.7403 -4.55408 0.702836 0
M  V30 964 H 93.0553 -4.13644 0.478313 0
M  V30 965 H 95.6523 -4.87159 -2.20408 0
M  V30 966 H 95.9953 -3.21632 -2.64308 0
M  V30 967 H 96.5283 -3.83401 -1.06059 0
M  V30 968 H 93.2673 -6.55183 0.203978 0
M  V30 969 H 92.7873 -5.84294 -1.35501 0
M  V30 970 H 94.4663 -6.37687 -1.09383 0
M  V30 971 N 94.5984 0.214957 -1.56127 0
M  V30 972 C 95.5454 1.26642 -1.92952 0
M  V30 973 C 96.5154 1.46244 -0.78753 0
M  V30 974 O 97.7004 1.59704 -1.04399 0
M  V30 975 C 94.8404 2.6104 -2.25726 0
M  V30 976 C 93.9534 2.49183 -3.52891 0
M  V30 977 C 93.0884 3.76149 -3.7508 0
M  V30 978 C 92.1274 3.59041 -4.95738 0
M  V30 979 N 91.2644 4.77972 -5.14283 0
M  V30 980 H 96.1044 0.945384 -2.82607 0
M  V30 981 H 93.6414 0.455489 -1.3987 0
M  V30 982 H 95.5994 3.39313 -2.42739 0
M  V30 983 H 94.2294 2.91227 -1.39236 0
M  V30 984 H 93.2814 1.6231 -3.44034 0
M  V30 985 H 94.5934 2.32466 -4.41318 0
M  V30 986 H 93.7474 4.62865 -3.92226 0
M  V30 987 H 92.4864 3.95799 -2.84947 0
M  V30 988 H 91.4914 2.7071 -4.78535 0
M  V30 989 H 92.7164 3.40856 -5.87362 0
M  V30 990 H 90.6624 4.97923 -4.27093 0
M  V30 991 H 90.5794 4.64006 -5.96853 0
M  V30 992 H 91.8474 5.66096 -5.35869 0
M  V30 993 N 96.0765 1.50051 0.48192 0
M  V30 994 C 96.9865 1.7089 1.60728 0
M  V30 995 C 98.0025 0.591788 1.63627 0
M  V30 996 O 99.1785 0.868817 1.81696 0
M  V30 997 C 96.2435 1.78855 2.97005 0
M  V30 998 C 95.3045 3.02537 3.04581 0
M  V30 999 C 94.5375 3.10112 4.34357 0
M  V30 1000 O 94.7605 2.24765 5.24249 0
M  V30 1001 O 93.6945 4.02747 4.47301 0
M  V30 1002 H 97.5205 2.66264 1.46072 0
M  V30 1003 H 95.1055 1.34018 0.660264 0
M  V30 1004 H 96.9875 1.86336 3.77964 0
M  V30 1005 H 95.6625 0.866628 3.11883 0
M  V30 1006 H 94.5695 3.00563 2.22739 0
M  V30 1007 H 95.9025 3.94272 2.94636 0
M  V30 1008 N 97.5546 -0.734337 1.39446 0
M  V30 1009 C 98.4866 -1.85861 1.34121 0
M  V30 1010 C 99.4996 -1.60871 0.249864 0
M  V30 1011 O 100.689 -1.71093 0.508865 0
M  V30 1012 C 97.7886 -3.21899 1.05991 0
M  V30 1013 C 96.9616 -3.74239 2.26415 0
M  V30 1014 C 96.0206 -4.88841 1.94733 0
M  V30 1015 O 95.0466 -5.02468 2.67422 0
M  V30 1016 N 96.2486 -5.73261 0.913884 0
M  V30 1017 H 99.0136 -1.90934 2.31007 0
M  V30 1018 H 96.5746 -0.915102 1.33557 0
M  V30 1019 H 98.5666 -3.96136 0.828147 0
M  V30 1020 H 97.1366 -3.12091 0.178361 0
M  V30 1021 H 96.3566 -2.91347 2.65539 0
M  V30 1022 H 97.6446 -4.05942 3.06738 0
M  V30 1023 H 97.0426 -5.64842 0.311476 0
M  V30 1024 H 95.5996 -6.47563 0.742015 0
M  V30 1025 N 99.0327 -1.24633 -0.964593 0
M  V30 1026 C 100.281 -1.08573 -1.70459 0
M  V30 1027 C 100.602 0.375655 -1.91347 0
M  V30 1028 O 99.8717 1.26779 -1.49345 0
M  V30 1029 H 98.4517 -0.398784 -0.631649 0
M  V30 1030 H 101.114 -1.56601 -1.16026 0
M  V30 1031 H 100.21 -1.58623 -2.68785 0
M  V30 1032 N 100.511 1.16574 -1.06058 0
M  V30 1033 C 101.758 1.87047 -0.775873 0
M  V30 1034 C 102.086 1.81562 0.697534 0
M  V30 1035 O 101.341 1.22445 1.52662 0
M  V30 1036 C 101.64 3.36195 -1.21275 0
M  V30 1037 C 101.306 3.6188 -2.68986 0
M  V30 1038 C 99.9678 3.68599 -3.09335 0
M  V30 1039 C 102.32 3.72648 -3.64394 0
M  V30 1040 C 99.6478 3.83584 -4.43937 0
M  V30 1041 C 102 3.89154 -4.98741 0
M  V30 1042 C 100.664 3.94114 -5.3873 0
M  V30 1043 H 99.9338 0.684452 -0.283912 0
M  V30 1044 H 102.581 1.37853 -1.32925 0
M  V30 1045 H 100.886 3.87505 -0.578528 0
M  V30 1046 H 102.583 3.89103 -0.969542 0
M  V30 1047 H 99.1728 3.57281 -2.36744 0
M  V30 1048 H 103.357 3.66769 -3.34356 0
M  V30 1049 H 98.6128 3.85677 -4.74409 0
M  V30 1050 H 102.787 3.96427 -5.72554 0
M  V30 1051 H 100.414 4.05478 -6.43033 0
M  V30 1052 N 101.989 0.842826 1.3317 0
M  V30 1053 C 103.405 0.531128 1.50503 0
M  V30 1054 C 103.605 -0.940734 1.78192 0
M  V30 1055 O 102.661 -1.72436 1.84451 0
M  V30 1056 C 103.974 1.40789 2.65705 0
M  V30 1057 C 105.522 1.40708 2.79589 0
M  V30 1058 C 105.997 2.26878 3.97857 0
M  V30 1059 N 107.488 2.24609 4.05099 0
M  V30 1060 C 108.223 2.88019 4.95815 0
M  V30 1061 N 107.719 3.60496 5.9162 0
M  V30 1062 N 109.512 2.77469 4.88843 0
M  V30 1063 H 101.663 1.79557 1.1346 0
M  V30 1064 H 103.926 0.766267 0.558156 0
M  V30 1065 H 103.632 2.454 2.51936 0
M  V30 1066 H 103.506 1.08677 3.61205 0
M  V30 1067 H 105.893 0.368668 2.92788 0
M  V30 1068 H 105.974 1.76829 1.84838 0
M  V30 1069 H 105.618 3.3078 3.85418 0
M  V30 1070 H 105.548 1.88096 4.91861 0
M  V30 1071 H 108.039 1.71906 3.36536 0
M  V30 1072 H 108.352 4.06076 6.57512 0
M  V30 1073 H 106.697 3.64604 5.91683 0
M  V30 1074 H 109.888 2.20406 4.12963 0
M  V30 1075 H 110.061 3.2717 5.59342 0
M  V30 1076 N 103.467 -1.45747 0.599634 0
M  V30 1077 C 104.43 -2.28917 -0.113835 0
M  V30 1078 C 105.43 -1.3933 -0.802729 0
M  V30 1079 O 106.62 -1.61534 -0.652103 0
M  V30 1080 C 103.752 -3.20152 -1.17114 0
M  V30 1081 H 104.945 -2.93478 0.617289 0
M  V30 1082 H 102.498 -1.52137 0.358327 0
M  V30 1083 H 103.233 -2.60374 -1.93329 0
M  V30 1084 H 103.018 -3.86133 -0.681468 0
M  V30 1085 H 104.508 -3.82708 -1.67105 0
M  V30 1086 N 104.945 -0.338344 -1.53925 0
M  V30 1087 C 106.194 0.260732 -2.00008 0
M  V30 1088 C 106.507 1.52073 -1.23017 0
M  V30 1089 O 107.713 2.19672 -1.5955 0
M  V30 1090 C 106.169 0.51515 -3.56194 0
M  V30 1091 C 105.777 -0.728645 -4.42035 0
M  V30 1092 C 107.521 1.07337 -4.10706 0
M  V30 1093 C 105.428 -0.445315 -5.89721 0
M  V30 1094 H 104.358 0.101205 -0.747177 0
M  V30 1095 H 107.009 -0.452866 -1.77824 0
M  V30 1096 H 105.391 1.28932 -3.74423 0
M  V30 1097 H 106.565 -1.50352 -4.35581 0
M  V30 1098 H 104.88 -1.20813 -3.98489 0
M  V30 1099 H 107.477 1.30022 -5.18651 0
M  V30 1100 H 107.82 2.0273 -3.63602 0
M  V30 1101 H 108.353 0.360034 -3.96167 0
M  V30 1102 H 105.092 -1.36883 -6.41049 0
M  V30 1103 H 104.612 0.291569 -5.99091 0
M  V30 1104 H 106.291 -0.0606218 -6.46972 0
M  V30 1105 N 106.423 1.57458 -0.0668435 0
M  V30 1106 C 107.672 1.92477 0.602947 0
M  V30 1107 C 107.985 0.948419 1.71068 0
M  V30 1108 O 109.191 1.19124 2.43971 0
M  V30 1109 C 107.647 3.41903 1.12383 0
M  V30 1110 C 107.255 4.47975 0.04737 0
M  V30 1111 C 108.999 3.85931 1.76797 0
M  V30 1112 C 106.906 5.88529 0.582022 0
M  V30 1113 H 105.836 0.718387 0.22899 0
M  V30 1114 H 108.487 1.82978 -0.138276 0
M  V30 1115 H 106.869 3.46459 1.91787 0
M  V30 1116 H 108.043 4.55029 -0.726978 0
M  V30 1117 H 106.358 4.13384 -0.500243 0
M  V30 1118 H 108.955 4.88322 2.17821 0
M  V30 1119 H 109.298 3.23029 2.62599 0
M  V30 1120 H 109.831 3.83958 1.04024 0
M  V30 1121 H 106.57 6.55065 -0.238721 0
M  V30 1122 H 106.09 5.85004 1.324 0
M  V30 1123 H 107.769 6.38258 1.05999 0
M  V30 1124 N 107.901 -0.206675 1.56239 0
M  V30 1125 C 109.15 -0.926964 1.79138 0
M  V30 1126 C 109.463 -1.84901 0.638043 0
M  V30 1127 O 110.669 -2.60906 0.751033 0
M  V30 1128 C 109.125 -1.6986 3.17294 0
M  V30 1129 C 108.733 -0.821956 4.40395 0
M  V30 1130 C 110.477 -2.40922 3.4951 0
M  V30 1131 C 108.384 -1.59179 5.69575 0
M  V30 1132 H 107.314 -0.349864 0.667915 0
M  V30 1133 H 109.965 -0.180487 1.8261 0
M  V30 1134 H 108.347 -2.48853 3.08039 0
M  V30 1135 H 109.521 -0.0715019 4.60745 0
M  V30 1136 H 107.836 -0.222741 4.15804 0
M  V30 1137 H 110.433 -2.99047 4.43255 0
M  V30 1138 H 110.776 -3.14542 2.72707 0
M  V30 1139 H 111.309 -1.68905 3.60161 0
M  V30 1140 H 108.048 -0.898589 6.49312 0
M  V30 1141 H 107.568 -2.31648 5.53262 0
M  V30 1142 H 109.247 -2.14862 6.10281 0
M  V30 1143 N 109.379 -1.50304 -0.473955 0
M  V30 1144 C 110.604 -1.65175 -1.25427 0
M  V30 1145 C 111.029 -0.333673 -1.85117 0
M  V30 1146 O 110.387 0.702114 -1.67153 0
M  V30 1147 C 110.435 -2.74295 -2.34082 0
M  V30 1148 O 109.539 -2.35349 -3.38651 0
M  V30 1149 H 108.88 -0.551944 -0.369126 0
M  V30 1150 H 111.41 -1.96662 -0.564364 0
M  V30 1151 H 111.42 -2.97285 -2.79438 0
M  V30 1152 H 110.095 -3.69959 -1.90008 0
M  V30 1153 H 108.672 -2.22794 -2.99027 0
M  V30 1154 N 110.857 0.726932 -1.39834 0
M  V30 1155 C 112.105 1.4837 -1.37225 0
M  V30 1156 C 112.426 1.94979 0.0284857 0
M  V30 1157 O 111.696 1.69555 0.981213 0
M  V30 1158 H 110.276 0.55043 -0.505011 0
M  V30 1159 H 112.938 0.862468 -1.74778 0
M  V30 1160 H 112.034 2.36198 -2.04003 0
M  V30 1161 N 112.336 1.25143 0.95797 0
M  V30 1162 C 113.584 1.09476 1.69881 0
M  V30 1163 C 113.905 -0.365502 1.91544 0
M  V30 1164 O 113.175 -1.25985 1.50015 0
M  V30 1165 H 111.755 0.402128 0.629525 0
M  V30 1166 H 114.417 1.57214 1.15194 0
M  V30 1167 H 113.513 1.60046 2.6794 0
M  V30 1168 N 113.814 -1.1601 1.06675 0
M  V30 1169 C 115.225 -1.68235 0.809565 0
M  V30 1170 C 115.576 -1.8454 -0.666303 0
M  V30 1171 O 114.701 -1.54374 -1.5165 0
M  V30 1172 C 115.296 -3.05585 1.46299 0
M  V30 1173 C 113.855 -3.54915 1.25349 0
M  V30 1174 C 113.002 -2.30804 1.53703 0
M  V30 1175 H 115.953 -1.00318 1.22971 0
M  V30 1176 H 115.974 -3.70174 0.880431 0
M  V30 1177 H 115.486 -2.93686 2.53713 0
M  V30 1178 H 113.587 -3.72067 0.199261 0
M  V30 1179 H 113.7 -4.36774 1.9689 0
M  V30 1180 H 112.064 -2.36007 0.957739 0
M  V30 1181 H 112.847 -2.21499 2.62284 0
M  V30 1182 N 115.292 -0.849877 -1.32721 0
M  V30 1183 C 116.24 -0.279745 -2.30912 0
M  V30 1184 C 117.234 0.594278 -1.58634 0
M  V30 1185 O 118.44 0.482613 -1.73409 0
M  V30 1186 H 114.815 -0.0717521 -0.748569 0
M  V30 1187 H 116.786 -1.12222 -2.76494 0
M  V30 1188 C 115.535 0.521108 -3.43773 0
M  V30 1189 H 114.858 -0.142141 -3.99547 0
M  V30 1190 H 116.298 0.885693 -4.14646 0
M  V30 1191 C 114.757 1.70442 -2.90605 0
M  V30 1192 O 115.287 2.8034 -2.87702 0
M  V30 1193 N 113.493 1.52991 -2.47067 0
M  V30 1194 H 113.04 0.635914 -2.49628 0
M  V30 1195 H 112.998 2.32311 -2.11847 0
M  V30 1196 N 116.77 1.45427 -0.607355 0
M  V30 1197 C 117.995 2.07124 -0.107006 0
M  V30 1198 C 118.42 1.44906 1.19933 0
M  V30 1199 O 117.778 0.541687 1.73019 0
M  V30 1200 C 117.826 3.60595 0.0194119 0
M  V30 1201 O 116.93 3.98285 1.0697 0
M  V30 1202 H 116.271 0.659868 -0.0739597 0
M  V30 1203 H 118.801 1.86683 -0.837297 0
M  V30 1204 H 118.811 4.07419 0.2177 0
M  V30 1205 H 117.486 4.05266 -0.934453 0
M  V30 1206 H 116.063 3.63133 0.847889 0
M  V30 1207 N 118.248 0.346503 1.53744 0
M  V30 1208 C 119.494 -0.249473 2.0126 0
M  V30 1209 C 119.827 -1.49965 1.23386 0
M  V30 1210 O 119.102 -1.91811 0.32229 0
M  V30 1211 C 119.385 -0.560643 3.55709 0
M  V30 1212 C 119.238 0.701836 4.44291 0
M  V30 1213 C 120.557 -1.36905 4.18264 0
M  V30 1214 H 117.676 -0.0891987 0.731582 0
M  V30 1215 H 120.318 0.467624 1.84156 0
M  V30 1216 H 118.468 -1.17156 3.70414 0
M  V30 1217 H 120.14 1.33974 4.41417 0
M  V30 1218 H 118.383 1.32612 4.13033 0
M  V30 1219 H 119.054 0.43933 5.50249 0
M  V30 1220 H 121.53 -0.852448 4.07275 0
M  V30 1221 H 120.406 -1.55553 5.26398 0
M  V30 1222 H 120.667 -2.37203 3.73078 0
M  V30 1223 N 119.726 -1.57421 0.075193 0
M  V30 1224 C 120.956 -1.97659 -0.601203 0
M  V30 1225 C 121.364 -0.952427 -1.63479 0
M  V30 1226 O 120.707 0.0688241 -1.83571 0
M  V30 1227 C 120.769 -3.34218 -1.32434 0
M  V30 1228 C 120.433 -4.5484 -0.443826 0
M  V30 1229 C 121.43 -5.19034 0.299969 0
M  V30 1230 C 119.115 -5.00952 -0.367709 0
M  V30 1231 C 121.109 -6.27695 1.10807 0
M  V30 1232 C 118.796 -6.09484 0.444058 0
M  V30 1233 C 119.794 -6.72719 1.18061 0
M  V30 1234 O 119.482 -7.79161 1.97898 0
M  V30 1235 H 119.214 -0.65494 -0.167422 0
M  V30 1236 H 121.768 -2.04886 0.145157 0
M  V30 1237 H 119.998 -3.23615 -2.11685 0
M  V30 1238 H 121.687 -3.59038 -1.89331 0
M  V30 1239 H 122.453 -4.84351 0.250776 0
M  V30 1240 H 118.332 -4.51509 -0.930638 0
M  V30 1241 H 121.876 -6.76982 1.68347 0
M  V30 1242 H 117.773 -6.43601 0.494803 0
M  V30 1243 H 118.541 -7.96055 1.90367 0
M  V30 1244 N 121.204 0.198386 -1.56346 0
M  V30 1245 C 122.167 1.22952 -1.93431 0
M  V30 1246 C 123.167 1.38611 -0.815092 0
M  V30 1247 O 124.357 1.36479 -1.08255 0
M  V30 1248 C 121.489 2.59946 -2.20546 0
M  V30 1249 H 122.682 0.912626 -2.85677 0
M  V30 1250 H 120.235 0.43977 -1.49986 0
M  V30 1251 H 120.97 2.96696 -1.30927 0
M  V30 1252 H 120.755 2.49953 -3.02102 0
M  V30 1253 H 122.245 3.3431 -2.50253 0
M  V30 1254 N 122.682 1.50554 0.465978 0
M  V30 1255 C 123.592 1.72585 1.58907 0
M  V30 1256 C 124.608 0.60911 1.6299 0
M  V30 1257 O 125.784 0.88804 1.80765 0
M  V30 1258 C 122.849 1.81995 2.95091 0
M  V30 1259 C 121.91 3.05751 3.01355 0
M  V30 1260 C 121.143 3.14702 4.31043 0
M  V30 1261 O 121.366 2.30313 5.21835 0
M  V30 1262 O 120.3 4.07468 4.43005 0
M  V30 1263 H 124.126 2.67799 1.43239 0
M  V30 1264 H 121.711 1.34711 0.646013 0
M  V30 1265 H 123.593 1.90335 3.75966 0
M  V30 1266 H 122.268 0.899659 3.10947 0
M  V30 1267 H 121.175 3.02908 2.19539 0
M  V30 1268 H 122.508 3.97375 2.90437 0
M  V30 1269 N 124.16 -0.719506 1.40217 0
M  V30 1270 C 125.437 -1.47221 1.28784 0
M  V30 1271 C 125.817 -2.10883 -0.0956067 0
M  V30 1272 O 125.165 -1.99833 -1.10811 0
M  V30 1273 C 125.375 -2.5111 2.42373 0
M  V30 1274 C 126.723 -3.17053 2.82423 0
M  V30 1275 O 127.747 -2.61429 2.41937 0
M  V30 1276 O 126.606 -4.17742 3.52355 0
M  V30 1277 H 123.7 -0.654491 0.50554 0
M  V30 1278 H 126.246 -0.752014 1.52128 0
M  V30 1279 H 125.018 -2.02556 3.34793 0
M  V30 1280 H 124.641 -3.3067 2.20778 0
M  V30 1281 N 125.638 -1.25649 -0.95132 0
M  V30 1282 C 126.601 -1.06399 -2.03007 0
M  V30 1283 C 127.601 -0.0156794 -1.60792 0
M  V30 1284 O 128.791 -0.25817 -1.72276 0
M  V30 1285 C 125.923 -0.616184 -3.35285 0
M  V30 1286 H 127.116 -2.02164 -2.21517 0
M  V30 1287 H 124.669 -1.08103 -1.12887 0
M  V30 1288 H 125.404 0.343917 -3.22471 0
M  V30 1289 H 125.189 -1.37301 -3.67275 0
M  V30 1290 H 126.679 -0.503032 -4.14559 0
M  V30 1291 N 127.117 1.15442 -1.07289 0
M  V30 1292 C 128.528 1.67803 -0.818475 0
M  V30 1293 C 128.879 1.8489 0.656507 0
M  V30 1294 O 128.004 1.55176 1.50829 0
M  V30 1295 C 128.599 3.04805 -1.47917 0
M  V30 1296 C 127.158 3.54245 -1.27229 0
M  V30 1297 C 126.305 2.29986 -1.54925 0
M  V30 1298 H 129.256 0.996646 -1.23502 0
M  V30 1299 H 129.277 3.69702 -0.90005 0
M  V30 1300 H 128.789 2.92336 -2.55267 0
M  V30 1301 H 126.89 3.71956 -0.21899 0
M  V30 1302 H 127.003 4.35723 -1.99203 0
M  V30 1303 H 125.367 2.35496 -0.970242 0
M  V30 1304 H 126.15 2.20105 -2.63455 0
M  V30 1305 N 128.595 0.856903 1.32268 0
M  V30 1306 C 129.841 0.471355 1.97863 0
M  V30 1307 C 130.196 -0.962896 1.66572 0
M  V30 1308 O 129.489 -1.66686 0.944797 0
M  V30 1309 C 129.683 0.649919 3.51441 0
M  V30 1310 C 129.512 2.09997 3.97657 0
M  V30 1311 C 128.282 2.73893 4.2463 0
M  V30 1312 C 130.48 3.07081 4.1256 0
M  V30 1313 N 128.462 4.09786 4.57109 0
M  V30 1314 C 129.833 4.27968 4.48602 0
M  V30 1315 C 131.888 3.03247 3.949 0
M  V30 1316 C 130.591 5.45521 4.68827 0
M  V30 1317 C 132.617 4.20046 4.16311 0
M  V30 1318 C 131.979 5.39692 4.52672 0
M  V30 1319 H 128.078 0.221263 0.750044 0
M  V30 1320 H 130.662 1.10876 1.60045 0
M  V30 1321 H 128.833 0.0421938 3.88377 0
M  V30 1322 H 130.565 0.234044 4.04023 0
M  V30 1323 H 127.32 2.24918 4.16784 0
M  V30 1324 H 127.744 4.7989 4.7753 0
M  V30 1325 H 132.386 2.11863 3.65888 0
M  V30 1326 H 130.104 6.37434 4.96693 0
M  V30 1327 H 133.69 4.18517 4.04147 0
M  V30 1328 H 132.57 6.28566 4.68907 0
M  V30 1329 N 130.073 -1.45103 0.615059 0
M  V30 1330 C 131.32 -2.02183 0.113179 0
M  V30 1331 C 131.648 -1.48249 -1.25906 0
M  V30 1332 O 130.903 -0.650265 -1.84581 0
M  V30 1333 C 131.202 -3.57386 0.0318797 0
M  V30 1334 C 130.868 -4.30505 1.34077 0
M  V30 1335 C 129.53 -4.50197 1.69929 0
M  V30 1336 C 131.882 -4.72238 2.20546 0
M  V30 1337 C 129.21 -5.08881 2.91988 0
M  V30 1338 C 131.562 -5.32272 3.41861 0
M  V30 1339 C 130.226 -5.50187 3.77956 0
M  V30 1340 H 129.496 -0.739842 0.0414151 0
M  V30 1341 H 132.143 -1.74073 0.798168 0
M  V30 1342 H 130.448 -3.84817 -0.736409 0
M  V30 1343 H 132.145 -3.99264 -0.372712 0
M  V30 1344 H 128.735 -4.15496 1.05173 0
M  V30 1345 H 132.919 -4.56751 1.94146 0
M  V30 1346 H 128.175 -5.20939 3.2005 0
M  V30 1347 H 132.349 -5.63563 4.09109 0
M  V30 1348 H 129.976 -5.95427 4.72622 0
M  V30 1349 N 131.551 -0.354651 -1.53558 0
M  V30 1350 C 132.828 0.294281 -1.93374 0
M  V30 1351 C 133.208 1.67313 -1.28723 0
M  V30 1352 O 132.556 2.24179 -0.442247 0
M  V30 1353 C 132.766 0.355445 -3.47185 0
M  V30 1354 C 134.114 0.601007 -4.20325 0
M  V30 1355 O 135.138 0.437106 -3.53508 0
M  V30 1356 O 133.997 0.919322 -5.38712 0
M  V30 1357 H 131.091 0.174033 -0.808481 0
M  V30 1358 H 133.637 -0.406638 -1.64756 0
M  V30 1359 H 132.409 -0.611729 -3.86489 0
M  V30 1360 H 132.032 1.1027 -3.82003 0
M  V30 1361 N 133.029 1.57378 -0.0835403 0
M  V30 1362 C 134.44 1.81261 0.447358 0
M  V30 1363 C 134.791 0.998331 1.68902 0
M  V30 1364 O 133.916 0.224282 2.15235 0
M  V30 1365 C 134.511 3.28767 0.818386 0
M  V30 1366 C 133.07 3.53455 1.29409 0
M  V30 1367 C 132.217 2.75831 0.285024 0
M  V30 1368 H 135.168 1.5566 -0.309115 0
M  V30 1369 H 135.189 3.41459 1.67887 0
M  V30 1370 H 134.701 3.88006 -0.0855019 0
M  V30 1371 H 132.802 2.99534 2.21608 0
M  V30 1372 H 132.915 4.62128 1.2639 0
M  V30 1373 H 131.279 2.42947 0.764767 0
M  V30 1374 H 132.062 3.37813 -0.611341 0
M  V30 1375 N 134.507 -0.190092 1.56449 0
M  V30 1376 C 135.47 -1.21925 1.9408 0
M  V30 1377 C 136.47 -1.38176 0.822431 0
M  V30 1378 O 137.66 -1.35903 1.08977 0
M  V30 1379 C 134.792 -2.58773 2.21922 0
M  V30 1380 H 135.985 -0.897464 2.86157 0
M  V30 1381 H 133.538 -0.43181 1.50217 0
M  V30 1382 H 134.273 -2.95998 1.32499 0
M  V30 1383 H 134.058 -2.48348 3.03424 0
M  V30 1384 H 135.548 -3.32978 2.52022 0
M  V30 1385 N 135.985 -1.50799 -0.457987 0
M  V30 1386 C 137.234 -1.6168 -1.20593 0
M  V30 1387 C 137.547 -0.32888 -1.92815 0
M  V30 1388 O 138.753 -0.316773 -2.69646 0
M  V30 1389 C 137.209 -2.8545 -2.19195 0
M  V30 1390 C 136.817 -4.21168 -1.52715 0
M  V30 1391 C 138.561 -3.05681 -2.94549 0
M  V30 1392 C 136.468 -5.3611 -2.4968 0
M  V30 1393 H 135.398 -0.602134 -0.453818 0
M  V30 1394 H 138.049 -1.77245 -0.475031 0
M  V30 1395 H 136.431 -2.63472 -2.95632 0
M  V30 1396 H 137.605 -4.53449 -0.819775 0
M  V30 1397 H 135.92 -4.06648 -0.895922 0
M  V30 1398 H 138.517 -3.88727 -3.67145 0
M  V30 1399 H 138.86 -2.17929 -3.54701 0
M  V30 1400 H 139.393 -3.27901 -2.25223 0
M  V30 1401 H 136.132 -6.26057 -1.94249 0
M  V30 1402 H 135.652 -5.0823 -3.18532 0
M  V30 1403 H 137.331 -5.6722 -3.11241 0
M  V30 1404 N 137.463 0.71206 -1.40597 0
M  V30 1405 C 138.71 1.47197 -1.39065 0
M  V30 1406 C 139.038 1.94499 0.00583891 0
M  V30 1407 O 138.293 1.68752 0.99102 0
M  V30 1408 C 138.592 2.71039 -2.32965 0
M  V30 1409 C 138.258 2.42484 -3.80148 0
M  V30 1410 C 136.92 2.34406 -4.20247 0
M  V30 1411 C 139.272 2.18598 -4.73143 0
M  V30 1412 C 136.6 2.00516 -5.51371 0
M  V30 1413 C 138.952 1.8622 -6.0457 0
M  V30 1414 C 137.616 1.76626 -6.43708 0
M  V30 1415 H 136.886 0.538634 -0.508876 0
M  V30 1416 H 139.533 0.815325 -1.73276 0
M  V30 1417 H 137.838 3.41558 -1.91951 0
M  V30 1418 H 139.535 3.29138 -2.29061 0
M  V30 1419 H 136.125 2.49659 -3.4838 0
M  V30 1420 H 140.309 2.23793 -4.42979 0
M  V30 1421 H 135.565 1.91628 -5.80593 0
M  V30 1422 H 139.739 1.66752 -6.76141 0
M  V30 1423 H 137.366 1.50133 -7.45228 0
M  V30 1424 N 138.941 1.26152 0.944643 0
M  V30 1425 C 140.169 1.14259 1.72489 0
M  V30 1426 C 140.584 -0.302555 1.8636 0
M  V30 1427 O 139.941 -1.20741 1.36849 0
M  V30 1428 C 139.992 1.80266 3.13347 0
M  V30 1429 O 139.713 3.19133 3.00143 0
M  V30 1430 C 141.214 1.74283 4.07603 0
M  V30 1431 H 138.434 0.398051 0.540181 0
M  V30 1432 H 140.978 1.66706 1.18446 0
M  V30 1433 H 139.133 1.31766 3.64303 0
M  V30 1434 H 139.547 3.51744 3.89071 0
M  V30 1435 H 141.021 2.25111 5.04013 0
M  V30 1436 H 141.498 0.708631 4.33446 0
M  V30 1437 H 142.104 2.22319 3.62567 0
M  V30 1438 N 140.419 -1.14872 1.07899 0
M  V30 1439 C 141.668 -1.85135 0.800499 0
M  V30 1440 C 141.981 -1.83547 -0.676014 0
M  V30 1441 O 143.187 -2.49548 -1.06948 0
M  V30 1442 C 141.643 -3.3231 1.38197 0
M  V30 1443 C 141.251 -3.42329 2.8899 0
M  V30 1444 C 142.995 -4.0772 1.18174 0
M  V30 1445 C 140.902 -4.83684 3.403 0
M  V30 1446 H 139.832 -0.693563 0.29578 0
M  V30 1447 H 142.483 -1.29532 1.29976 0
M  V30 1448 H 140.865 -3.87618 0.810431 0
M  V30 1449 H 142.039 -2.97097 3.52236 0
M  V30 1450 H 140.354 -2.80369 3.07867 0
M  V30 1451 H 142.951 -5.12049 1.5398 0
M  V30 1452 H 143.294 -4.16124 0.12117 0
M  V30 1453 H 143.827 -3.58696 1.71994 0
M  V30 1454 H 140.566 -4.80465 4.45907 0
M  V30 1455 H 140.086 -5.29474 2.81811 0
M  V30 1456 H 141.765 -5.52558 3.36584 0
M  V30 1457 N 141.898 -0.863906 -1.31812 0
M  V30 1458 C 143.146 -0.470904 -1.96537 0
M  V30 1459 C 143.467 0.978771 -1.68657 0
M  V30 1460 O 142.737 1.6853 -0.998717 0
M  V30 1461 H 141.317 -0.171148 -0.72713 0
M  V30 1462 H 143.979 -1.10236 -1.60729 0
M  V30 1463 H 143.075 -0.623616 -3.05806 0
M  V30 1464 N 143.376 1.44774 -0.622745 0
M  V30 1465 C 144.323 2.30635 0.0871679 0
M  V30 1466 C 145.293 1.42994 0.845097 0
M  V30 1467 O 146.478 1.71907 0.827812 0
M  V30 1468 C 143.618 3.28144 1.06844 0
M  V30 1469 C 142.731 4.30888 0.309809 0
M  V30 1470 C 141.866 5.15494 1.28215 0
M  V30 1471 C 140.905 6.09953 0.512198 0
M  V30 1472 N 140.042 6.87287 1.43458 0
M  V30 1473 H 144.882 2.90803 -0.650974 0
M  V30 1474 H 142.419 1.43286 -0.33281 0
M  V30 1475 H 144.377 3.83157 1.65066 0
M  V30 1476 H 143.007 2.69695 1.77382 0
M  V30 1477 H 142.059 3.78414 -0.388181 0
M  V30 1478 H 143.371 4.97955 -0.290254 0
M  V30 1479 H 142.525 5.74983 1.93596 0
M  V30 1480 H 141.264 4.48481 1.91614 0
M  V30 1481 H 140.269 5.49581 -0.155151 0
M  V30 1482 H 141.494 6.78999 -0.116958 0
M  V30 1483 H 139.44 6.2295 2.05594 0
M  V30 1484 H 139.357 7.50763 0.888335 0
M  V30 1485 H 140.625 7.51306 2.07749 0
M  V30 1486 N 144.854 0.36279 1.53368 0
M  V30 1487 C 146.265 -0.117022 1.86333 0
M  V30 1488 C 146.616 -1.48397 1.28347 0
M  V30 1489 O 145.741 -2.07787 0.604428 0
M  V30 1490 C 146.336 -0.21912 3.38091 0
M  V30 1491 C 144.895 -0.643184 3.70864 0
M  V30 1492 C 144.042 0.211318 2.76494 0
M  V30 1493 H 146.993 0.581687 1.47655 0
M  V30 1494 H 147.014 -1.04319 3.6592 0
M  V30 1495 H 146.526 0.775902 3.80265 0
M  V30 1496 H 144.627 -1.64654 3.34245 0
M  V30 1497 H 144.74 -0.41973 4.77258 0
M  V30 1498 H 143.104 -0.319367 2.5269 0
M  V30 1499 H 143.887 1.20383 3.21501 0
M  V30 1500 N 146.332 -1.57332 0.0918853 0
M  V30 1501 C 147.578 -1.94524 -0.573425 0
M  V30 1502 C 147.911 -0.973578 -1.68033 0
M  V30 1503 O 147.186 -0.00609226 -1.94499 0
M  V30 1504 C 147.469 -3.41858 -1.13161 0
M  V30 1505 C 147.322 -4.4979 -0.0299747 0
M  V30 1506 C 148.641 -3.90435 -2.03098 0
M  V30 1507 H 145.76 -0.70734 -0.206975 0
M  V30 1508 H 148.402 -1.89309 0.161942 0
M  V30 1509 H 146.552 -3.46433 -1.7583 0
M  V30 1510 H 148.224 -4.57327 0.604112 0
M  V30 1511 H 146.467 -4.291 0.636833 0
M  V30 1512 H 147.138 -5.50069 -0.461287 0
M  V30 1513 H 149.614 -3.87992 -1.50338 0
M  V30 1514 H 148.49 -4.94097 -2.39081 0
M  V30 1515 H 148.751 -3.29541 -2.94712 0
M  V30 1516 N 147.81 0.181792 -1.56548 0
M  V30 1517 C 148.74 1.22765 -1.98623 0
M  V30 1518 C 149.721 1.46747 -0.860189 0
M  V30 1519 O 150.906 1.58259 -1.12551 0
M  V30 1520 C 148.036 2.56894 -2.33715 0
M  V30 1521 C 146.99 2.475 -3.49182 0
M  V30 1522 C 146.316 3.86023 -3.69986 0
M  V30 1523 C 147.616 1.98866 -4.82959 0
M  V30 1524 H 149.31 0.877942 -2.86239 0
M  V30 1525 H 146.856 0.42088 -1.37712 0
M  V30 1526 H 148.809 3.30253 -2.61746 0
M  V30 1527 H 147.533 2.93632 -1.42997 0
M  V30 1528 H 146.192 1.76596 -3.21262 0
M  V30 1529 H 145.84 4.20136 -2.76576 0
M  V30 1530 H 145.54 3.80609 -4.47672 0
M  V30 1531 H 147.064 4.60984 -4.00407 0
M  V30 1532 H 148.478 2.61992 -5.09934 0
M  V30 1533 H 146.875 2.04424 -5.64208 0
M  V30 1534 H 147.945 0.942465 -4.75653 0
M  V30 1535 N 149.288 1.51039 0.449983 0
M  V30 1536 C 150.536 1.62759 1.19808 0
M  V30 1537 C 150.857 0.339981 1.92013 0
M  V30 1538 O 150.127 -0.643606 1.85026 0
M  V30 1539 H 148.707 0.599811 0.445237 0
M  V30 1540 H 151.369 1.87914 0.517138 0
M  V30 1541 H 150.465 2.44911 1.93455 0
M  V30 1542 N 150.766 -0.704594 1.40972 0
M  V30 1543 C 152.015 -1.46018 1.39146 0
M  V30 1544 C 152.328 -1.956 0.000589254 0
M  V30 1545 O 153.534 -2.71137 -0.1403 0
M  V30 1546 C 151.99 -2.63996 2.4461 0
M  V30 1547 C 151.598 -2.21238 3.89561 0
M  V30 1548 C 153.342 -3.41677 2.51907 0
M  V30 1549 C 151.249 -3.3612 4.86598 0
M  V30 1550 H 150.179 -0.548444 0.517422 0
M  V30 1551 H 152.83 -0.765784 1.66757 0
M  V30 1552 H 151.212 -3.3566 2.10115 0
M  V30 1553 H 152.386 -1.56923 4.33257 0
M  V30 1554 H 150.701 -1.56574 3.85841 0
M  V30 1555 H 153.298 -4.27182 3.2159 0
M  V30 1556 H 153.641 -3.86247 1.55303 0
M  V30 1557 H 154.174 -2.77064 2.85448 0
M  V30 1558 H 150.913 -2.96572 5.84573 0
M  V30 1559 H 150.433 -3.99315 4.47557 0
M  V30 1560 H 152.112 -4.02029 5.06934 0
M  V30 1561 N 152.244 -1.26651 -0.937939 0
M  V30 1562 C 153.484 -1.13611 -1.69917 0
M  V30 1563 C 153.848 0.314687 -1.89404 0
M  V30 1564 O 155.049 0.567285 -2.62746 0
M  V30 1565 C 153.32 -1.88742 -3.03498 0
M  V30 1566 S 154.879 -1.91794 -3.94665 0
M  V30 1567 H 151.697 -0.405767 -0.583844 0
M  V30 1568 H 154.299 -1.60416 -1.11745 0
M  V30 1569 H 153.003 -2.9336 -2.86999 0
M  V30 1570 H 152.534 -1.42391 -3.66727 0
M  V30 1571 H 154.549 -1.00698 -4.85875 0
M  V30 1572 N 153.722 1.14298 -1.08507 0
M  V30 1573 C 154.952 1.88945 -0.835663 0
M  V30 1574 C 155.36 1.78894 0.615928 0
M  V30 1575 O 154.703 1.1468 1.43506 0
M  V30 1576 C 154.765 3.39585 -1.17994 0
M  V30 1577 C 154.429 3.7342 -2.63451 0
M  V30 1578 C 155.426 3.73454 -3.61702 0
M  V30 1579 C 153.111 4.03368 -2.99332 0
M  V30 1580 C 155.105 4.02961 -4.93864 0
M  V30 1581 C 152.792 4.32538 -4.31687 0
M  V30 1582 C 153.79 4.32318 -5.28763 0
M  V30 1583 O 153.478 4.6078 -6.58739 0
M  V30 1584 H 153.21 0.605307 -0.300965 0
M  V30 1585 H 155.764 1.45673 -1.44806 0
M  V30 1586 H 153.994 3.83315 -0.51055 0
M  V30 1587 H 155.683 3.9554 -0.911182 0
M  V30 1588 H 156.449 3.50403 -3.35325 0
M  V30 1589 H 152.328 4.02692 -2.24411 0
M  V30 1590 H 155.872 4.02704 -5.69627 0
M  V30 1591 H 151.769 4.55059 -4.57812 0
M  V30 1592 H 152.537 4.78492 -6.64069 0
M  V30 1593 N 155.201 0.870884 1.31352 0
M  V30 1594 C 156.449 0.48132 1.96285 0
M  V30 1595 C 156.77 -0.969813 1.69173 0
M  V30 1596 O 156.04 -1.67998 1.00764 0
M  V30 1597 H 154.62 0.175002 0.726212 0
M  V30 1598 H 157.282 1.11087 1.60143 0
M  V30 1599 H 156.378 0.639825 3.05471 0
M  V30 1600 N 156.679 -1.44442 0.630414 0
M  V30 1601 C 157.612 -2.27862 -0.124247 0
M  V30 1602 C 158.59 -1.38495 -0.851931 0
M  V30 1603 O 159.774 -1.67935 -0.856166 0
M  V30 1604 C 156.901 -3.17407 -1.18197 0
M  V30 1605 C 155.947 -4.22875 -0.554892 0
M  V30 1606 S 156.78 -5.31485 0.654489 0
M  V30 1607 C 157.936 -6.246 -0.40326 0
M  V30 1608 H 158.169 -2.91519 0.583435 0
M  V30 1609 H 155.702 -1.48618 0.418565 0
M  V30 1610 H 157.66 -3.69549 -1.78728 0
M  V30 1611 H 156.321 -2.52971 -1.86184 0
M  V30 1612 H 155.514 -4.85542 -1.35148 0
M  V30 1613 H 155.116 -3.73992 -0.0242105 0
M  V30 1614 H 157.408 -6.65375 -1.27602 0
M  V30 1615 H 158.351 -7.07851 0.187813 0
M  V30 1616 H 158.759 -5.59775 -0.728837 0
M  V30 1617 N 158.157 -0.370918 -1.53173 0
M  V30 1618 C 159.089 0.507823 -2.23503 0
M  V30 1619 C 160.102 1.04182 -1.251 0
M  V30 1620 O 161.291 0.947286 -1.5129 0
M  V30 1621 C 158.391 1.71447 -2.92334 0
M  V30 1622 C 157.564 1.31105 -4.17289 0
M  V30 1623 C 156.623 2.38035 -4.69282 0
M  V30 1624 O 155.649 2.00204 -5.32829 0
M  V30 1625 N 156.851 3.69697 -4.47554 0
M  V30 1626 H 159.616 -0.0946382 -2.99551 0
M  V30 1627 H 157.177 -0.196358 -1.60705 0
M  V30 1628 H 159.169 2.42469 -3.24023 0
M  V30 1629 H 157.739 2.22368 -2.19707 0
M  V30 1630 H 156.959 0.430462 -3.91843 0
M  V30 1631 H 158.247 1.0179 -4.98514 0
M  V30 1632 H 157.645 4.03205 -3.9679 0
M  V30 1633 H 156.202 4.36807 -4.8378 0
M  V30 1634 N 159.635 1.57281 -0.100228 0
M  V30 1635 C 160.568 2.09976 0.893612 0
M  V30 1636 C 161.546 1.01155 1.27304 0
M  V30 1637 O 162.73 1.28687 1.37739 0
M  V30 1638 C 159.857 2.58098 2.19324 0
M  V30 1639 C 158.903 3.78626 1.96328 0
M  V30 1640 S 159.736 5.21959 1.19662 0
M  V30 1641 C 160.892 5.73435 2.50844 0
M  V30 1642 H 161.125 2.93946 0.44534 0
M  V30 1643 H 158.658 1.53985 0.113167 0
M  V30 1644 H 160.616 2.8648 2.94005 0
M  V30 1645 H 159.277 1.74344 2.61272 0
M  V30 1646 H 158.47 4.10382 2.92579 0
M  V30 1647 H 158.072 3.50763 1.29775 0
M  V30 1648 H 160.364 5.82015 3.46792 0
M  V30 1649 H 161.307 6.7185 2.23659 0
M  V30 1650 H 161.715 5.01395 2.59352 0
M  V30 1651 N 161.113 -0.173488 1.56642 0
M  V30 1652 C 162.046 -1.24353 1.91342 0
M  V30 1653 C 163.024 -1.4289 0.775965 0
M  V30 1654 O 164.208 -1.57932 1.02907 0
M  V30 1655 C 161.335 -2.60683 2.16245 0
M  V30 1656 C 160.381 -2.58894 3.38934 0
M  V30 1657 S 161.214 -2.0819 4.93373 0
M  V30 1658 C 162.37 -3.46302 5.21369 0
M  V30 1659 H 162.603 -0.947345 2.81803 0
M  V30 1660 H 160.136 -0.377958 1.49703 0
M  V30 1661 H 162.094 -3.39149 2.31275 0
M  V30 1662 H 160.755 -2.87502 1.26496 0
M  V30 1663 H 159.948 -3.59188 3.53553 0
M  V30 1664 H 159.55 -1.88522 3.2301 0
M  V30 1665 H 161.842 -4.42287 5.13214 0
M  V30 1666 H 162.785 -3.3656 6.23003 0
M  V30 1667 H 163.193 -3.42214 4.48943 0
M  V30 1668 N 162.591 -1.51276 -0.441967 0
M  V30 1669 C 163.539 -1.72823 -1.55676 0
M  V30 1670 C 164.533 -0.59445 -1.58627 0
M  V30 1671 O 165.739 -0.775715 -1.62427 0
M  V30 1672 H 162.114 -0.545983 -0.517113 0
M  V30 1673 H 164.085 -2.6628 -1.34675 0
M  V30 1674 C 162.834 -1.86619 -2.93375 0
M  V30 1675 H 162.157 -2.73264 -2.91834 0
M  V30 1676 H 163.597 -2.05709 -3.70756 0
M  V30 1677 C 162.056 -0.624842 -3.31055 0
M  V30 1678 O 162.586 0.222636 -4.01083 0
M  V30 1679 N 160.792 -0.470288 -2.86769 0
M  V30 1680 H 160.339 -1.161 -2.29953 0
M  V30 1681 H 160.297 0.359051 -3.12343 0
M  V30 1682 N 164.069 0.697108 -1.41344 0
M  V30 1683 C 165.016 1.81106 -1.43071 0
M  V30 1684 C 165.986 1.63632 -0.285275 0
M  V30 1685 O 167.171 1.84504 -0.486091 0
M  V30 1686 C 164.311 3.18975 -1.31715 0
M  V30 1687 C 163.424 3.47892 -2.56115 0
M  V30 1688 C 162.559 4.75367 -2.37064 0
M  V30 1689 C 161.598 4.97247 -3.56948 0
M  V30 1690 N 160.735 6.15947 -3.36977 0
M  V30 1691 H 165.575 1.78965 -2.38276 0
M  V30 1692 H 163.112 0.873975 -1.18322 0
M  V30 1693 H 165.07 3.98615 -1.23133 0
M  V30 1694 H 163.7 3.20297 -0.401183 0
M  V30 1695 H 162.752 2.62669 -2.75153 0
M  V30 1696 H 164.064 3.59962 -3.45295 0
M  V30 1697 H 163.218 5.63059 -2.25941 0
M  V30 1698 H 161.957 4.65541 -1.45338 0
M  V30 1699 H 160.962 4.08004 -3.68527 0
M  V30 1700 H 162.187 5.08934 -4.49626 0
M  V30 1701 H 160.133 6.07336 -2.47949 0
M  V30 1702 H 160.05 6.28777 -4.19732 0
M  V30 1703 H 161.318 7.06377 -3.29623 0
M  V30 1704 N 165.547 1.27147 0.931209 0
M  V30 1705 C 166.793 1.13446 1.68101 0
M  V30 1706 C 167.126 -0.319628 1.91552 0
M  V30 1707 O 166.401 -1.23407 1.50336 0
M  V30 1708 C 166.684 1.91482 3.0497 0
M  V30 1709 C 166.537 3.44855 2.88782 0
M  V30 1710 C 167.856 1.71651 4.05246 0
M  V30 1711 H 164.975 0.413498 0.610072 0
M  V30 1712 H 167.617 1.56261 1.08086 0
M  V30 1713 H 165.767 1.55095 3.56199 0
M  V30 1714 H 167.439 3.9105 2.44698 0
M  V30 1715 H 165.682 3.71373 2.24198 0
M  V30 1716 H 166.353 3.94694 3.85902 0
M  V30 1717 H 168.829 2.0337 3.63015 0
M  V30 1718 H 167.705 2.28651 4.99009 0
M  V30 1719 H 167.966 0.663555 4.37092 0
M  V30 1720 N 167.025 -1.13721 1.09112 0
M  V30 1721 C 168.272 -1.84924 0.825192 0
M  V30 1722 C 168.6 -1.83347 -0.649151 0
M  V30 1723 O 167.855 -1.26449 -1.49362 0
M  V30 1724 C 168.154 -3.32861 1.30146 0
M  V30 1725 C 167.82 -3.54621 2.78486 0
M  V30 1726 C 166.482 -3.60268 3.18999 0
M  V30 1727 C 168.834 -3.62855 3.74146 0
M  V30 1728 C 166.162 -3.71679 4.53951 0
M  V30 1729 C 168.514 -3.75793 5.08883 0
M  V30 1730 C 167.178 -3.79692 5.4899 0
M  V30 1731 H 166.448 -0.676684 0.301959 0
M  V30 1732 H 169.095 -1.3428 1.36533 0
M  V30 1733 H 167.4 -3.85835 0.681064 0
M  V30 1734 H 169.097 -3.86395 1.07236 0
M  V30 1735 H 165.687 -3.50879 2.46134 0
M  V30 1736 H 169.871 -3.57775 3.43963 0
M  V30 1737 H 165.127 -3.72963 4.84467 0
M  V30 1738 H 169.301 -3.81107 5.82864 0
M  V30 1739 H 166.928 -3.88287 6.53558 0
M  V30 1740 N 168.503 -0.877838 -1.30888 0
M  V30 1741 C 169.751 -0.491723 -1.96027 0
M  V30 1742 C 170.072 0.960827 -1.69685 0
M  V30 1743 O 169.342 1.67462 -1.01654 0
M  V30 1744 H 167.922 -0.17885 -0.725273 0
M  V30 1745 H 170.584 -1.11935 -1.59551 0
M  V30 1746 H 169.68 -0.656016 -3.05128 0
M  V30 1747 N 169.982 1.44106 -0.638065 0
M  V30 1748 C 171.23 2.01579 -0.145043 0
M  V30 1749 C 171.551 1.50496 1.24 0
M  V30 1750 O 170.821 0.711374 1.82527 0
M  V30 1751 H 169.401 0.745282 -0.05063 0
M  V30 1752 H 172.063 1.76516 -0.826327 0
M  V30 1753 H 171.159 3.11877 -0.118039 0
M  V30 1754 N 171.46 0.379036 1.52974 0
M  V30 1755 C 172.688 -0.20679 2.05864 0
M  V30 1756 C 173.103 -1.41356 1.25155 0
M  V30 1757 O 172.46 -1.8009 0.295588 0
M  V30 1758 C 172.511 -0.587045 3.56702 0
M  V30 1759 O 172.232 0.571776 4.34353 0
M  V30 1760 C 173.733 -1.22983 4.25899 0
M  V30 1761 H 170.953 -0.0336123 0.670158 0
M  V30 1762 H 173.497 0.541298 1.97206 0
M  V30 1763 H 171.652 -1.28504 3.65466 0
M  V30 1764 H 172.066 0.261544 5.23847 0
M  V30 1765 H 173.54 -1.44635 5.32715 0
M  V30 1766 H 174.017 -2.19416 3.80465 0
M  V30 1767 H 174.623 -0.572892 4.21424 0
M  V30 1768 N 172.938 -1.57226 0.108567 0
M  V30 1769 C 174.184 -1.95121 -0.552761 0
M  V30 1770 C 174.517 -0.991345 -1.66991 0
M  V30 1771 O 173.792 -0.0267211 -1.94482 0
M  V30 1772 C 174.075 -3.43039 -1.09528 0
M  V30 1773 C 173.928 -4.49797 0.0177332 0
M  V30 1774 C 175.247 -3.92567 -1.98945 0
M  V30 1775 H 172.366 -0.709496 -0.199461 0
M  V30 1776 H 175.008 -1.89126 0.182011 0
M  V30 1777 H 173.158 -3.48279 -1.72146 0
M  V30 1778 H 174.83 -4.56661 0.652584 0
M  V30 1779 H 173.073 -4.284 0.682309 0
M  V30 1780 H 173.744 -5.50528 -0.402919 0
M  V30 1781 H 176.22 -3.89565 -1.46214 0
M  V30 1782 H 175.096 -4.96605 -2.33827 0
M  V30 1783 H 175.357 -3.32648 -2.91201 0
M  V30 1784 N 174.416 0.165178 -1.56732 0
M  V30 1785 C 175.366 1.20917 -1.93295 0
M  V30 1786 C 176.35 1.39488 -0.801985 0
M  V30 1787 O 177.542 1.41356 -1.06525 0
M  V30 1788 C 174.671 2.54718 -2.3016 0
M  V30 1789 C 173.757 2.39815 -3.49785 0
M  V30 1790 N 174.148 1.94637 -4.66851 0
M  V30 1791 C 172.446 2.70623 -3.54513 0
M  V30 1792 C 173.147 1.92344 -5.4898 0
M  V30 1793 N 172.123 2.34978 -4.9019 0
M  V30 1794 H 175.925 0.851675 -2.81289 0
M  V30 1795 H 173.439 0.373399 -1.58049 0
M  V30 1796 H 175.436 3.30165 -2.54552 0
M  V30 1797 H 174.096 2.91265 -1.43508 0
M  V30 1798 H 175.107 1.6488 -4.90953 0
M  V30 1799 H 171.784 3.11167 -2.78354 0
M  V30 1800 H 173.174 1.5906 -6.52801 0
M  V30 1801 N 175.894 1.51508 0.433938 0
M  V30 1802 C 176.841 1.73068 1.52696 0
M  V30 1803 C 177.811 0.572441 1.55924 0
M  V30 1804 O 178.996 0.807253 1.72882 0
M  V30 1805 C 176.136 1.86474 2.90381 0
M  V30 1806 C 175.249 3.14037 2.96656 0
M  V30 1807 C 174.384 3.18019 4.25485 0
M  V30 1808 C 173.423 4.39882 4.2564 0
M  V30 1809 N 172.56 4.41394 5.45999 0
M  V30 1810 H 177.4 2.66366 1.33615 0
M  V30 1811 H 174.937 1.32008 0.649018 0
M  V30 1812 H 176.895 1.92229 3.70275 0
M  V30 1813 H 175.525 0.965809 3.08013 0
M  V30 1814 H 174.577 3.17575 2.09404 0
M  V30 1815 H 175.889 4.0394 2.92633 0
M  V30 1816 H 175.043 3.22708 5.13755 0
M  V30 1817 H 173.782 2.2601 4.3217 0
M  V30 1818 H 172.787 4.35366 3.35763 0
M  V30 1819 H 174.012 5.33159 4.20617 0
M  V30 1820 H 171.958 3.52258 5.53399 0
M  V30 1821 H 171.875 5.25111 5.4387 0
M  V30 1822 H 173.143 4.50281 6.36292 0
M  V30 1823 N 177.372 -0.689602 1.41712 0
M  V30 1824 C 178.319 -1.80345 1.44029 0
M  V30 1825 C 179.289 -1.63478 0.293948 0
M  V30 1826 O 180.474 -1.84244 0.495869 0
M  V30 1827 C 177.614 -3.18272 1.33405 0
M  V30 1828 C 176.727 -3.46529 2.57956 0
M  V30 1829 C 175.862 -4.74103 2.39582 0
M  V30 1830 C 174.901 -4.95347 3.5958 0
M  V30 1831 N 174.038 -6.14151 3.40239 0
M  V30 1832 H 178.878 -1.77698 2.39222 0
M  V30 1833 H 176.415 -0.867688 1.18784 0
M  V30 1834 H 178.373 -3.97956 1.25246 0
M  V30 1835 H 177.003 -3.2008 0.418164 0
M  V30 1836 H 176.055 -2.61207 2.76542 0
M  V30 1837 H 177.367 -3.58126 3.47199 0
M  V30 1838 H 176.521 -5.61853 2.28924 0
M  V30 1839 H 175.26 -4.64763 1.47805 0
M  V30 1840 H 174.265 -4.06044 3.70686 0
M  V30 1841 H 175.49 -5.06542 4.52318 0
M  V30 1842 H 173.436 -6.06013 2.51167 0
M  V30 1843 H 173.353 -6.26543 4.23061 0
M  V30 1844 H 174.621 -7.04619 3.33365 0
M  V30 1845 N 178.85 -1.27639 -0.924453 0
M  V30 1846 C 180.075 -1.17101 -1.71179 0
M  V30 1847 C 180.5 0.268134 -1.86179 0
M  V30 1848 O 179.858 1.19415 -1.36418 0
M  V30 1849 C 179.906 -1.86313 -3.08739 0
M  V30 1850 O 179.01 -1.16331 -3.95652 0
M  V30 1851 H 178.351 -0.407091 -0.524569 0
M  V30 1852 H 180.881 -1.68767 -1.15666 0
M  V30 1853 H 180.891 -1.938 -3.59034 0
M  V30 1854 H 179.566 -2.91001 -2.97138 0
M  V30 1855 H 178.143 -1.16935 -3.54091 0
M  V30 1856 N 180.328 1.1314 -1.09713 0
M  V30 1857 C 181.574 1.84757 -0.836224 0
M  V30 1858 C 181.907 1.8347 0.636598 0
M  V30 1859 O 181.182 1.27491 1.46889 0
M  V30 1860 C 181.465 3.32782 -1.37578 0
M  V30 1861 C 181.318 3.42567 -2.91493 0
M  V30 1862 C 182.637 4.28307 -1.01198 0
M  V30 1863 H 179.756 0.67082 -0.305236 0
M  V30 1864 H 182.398 1.3278 -1.35903 0
M  V30 1865 H 180.548 3.77177 -0.931097 0
M  V30 1866 H 182.22 3.06862 -3.44432 0
M  V30 1867 H 180.463 2.83349 -3.28475 0
M  V30 1868 H 181.134 4.46674 -3.24324 0
M  V30 1869 H 183.61 3.91999 -1.39556 0
M  V30 1870 H 182.486 5.30307 -1.41653 0
M  V30 1871 H 182.747 4.42029 0.0794833 0
M  V30 1872 N 181.806 0.884767 1.30421 0
M  V30 1873 C 183.222 0.57874 1.48737 0
M  V30 1874 C 183.422 -0.883567 1.81095 0
M  V30 1875 O 182.478 -1.6648 1.89844 0
M  V30 1876 C 183.791 1.49171 2.61091 0
M  V30 1877 C 185.339 1.49532 2.74971 0
M  V30 1878 C 185.814 2.39421 3.90438 0
M  V30 1879 N 187.305 2.37383 3.97748 0
M  V30 1880 C 188.04 3.03647 4.86401 0
M  V30 1881 N 187.536 3.79136 5.79852 0
M  V30 1882 N 189.329 2.9288 4.79768 0
M  V30 1883 H 181.48 1.83075 1.0769 0
M  V30 1884 H 183.743 0.783637 0.533495 0
M  V30 1885 H 183.449 2.53291 2.44001 0
M  V30 1886 H 183.323 1.20113 3.57565 0
M  V30 1887 H 185.71 0.46163 2.91467 0
M  V30 1888 H 185.791 1.8262 1.79119 0
M  V30 1889 H 185.435 3.42874 3.74699 0
M  V30 1890 H 185.365 2.03649 4.85628 0
M  V30 1891 H 187.856 1.82525 3.30897 0
M  V30 1892 H 188.169 4.26789 6.4426 0
M  V30 1893 H 186.514 3.83243 5.79784 0
M  V30 1894 H 189.705 2.33433 4.05742 0
M  V30 1895 H 189.878 3.448 5.4865 0
M  V30 1896 N 183.284 -1.43765 0.645699 0
M  V30 1897 C 184.194 -2.34544 -0.0512957 0
M  V30 1898 C 185.21 -1.53455 -0.82022 0
M  V30 1899 O 186.386 -1.86133 -0.769176 0
M  V30 1900 C 183.451 -3.31636 -1.01087 0
M  V30 1901 C 182.512 -4.2863 -0.239712 0
M  V30 1902 C 181.745 -5.21084 -1.15358 0
M  V30 1903 O 181.968 -5.1779 -2.39269 0
M  V30 1904 O 180.902 -5.98593 -0.630038 0
M  V30 1905 H 184.728 -2.95624 0.695718 0
M  V30 1906 H 182.313 -1.43781 0.405882 0
M  V30 1907 H 184.195 -3.9136 -1.56254 0
M  V30 1908 H 182.87 -2.73069 -1.73824 0
M  V30 1909 H 181.777 -3.72408 0.355356 0
M  V30 1910 H 183.11 -4.90157 0.447936 0
M  V30 1911 N 184.763 -0.387143 -1.52771 0
M  V30 1912 C 186.04 0.253197 -1.93954 0
M  V30 1913 C 186.42 1.64545 -1.32243 0
M  V30 1914 O 185.768 2.23191 -0.489699 0
M  V30 1915 C 185.978 0.281722 -3.47861 0
M  V30 1916 C 187.326 0.511715 -4.21505 0
M  V30 1917 O 188.35 0.362023 -3.54356 0
M  V30 1918 O 187.209 0.804847 -5.40541 0
M  V30 1919 H 184.303 0.156845 -0.811991 0
M  V30 1920 H 186.849 -0.441494 -1.63856 0
M  V30 1921 H 185.621 -0.693571 -3.85104 0
M  V30 1922 H 185.244 1.02142 -3.84256 0
M  V30 1923 N 186.241 1.57166 -0.116904 0
M  V30 1924 C 187.489 1.94737 0.540533 0
M  V30 1925 C 187.81 1.00096 1.67349 0
M  V30 1926 O 187.08 0.0568854 1.95817 0
M  V30 1927 H 185.66 0.718981 0.202669 0
M  V30 1928 H 188.322 1.94017 -0.185353 0
M  V30 1929 H 187.418 2.97719 0.936483 0
M  V30 1930 N 187.719 -0.156864 1.56817 0
M  V30 1931 C 188.965 -0.872416 1.83076 0
M  V30 1932 C 189.298 -1.81261 0.697001 0
M  V30 1933 O 188.573 -1.92171 -0.30008 0
M  V30 1934 C 188.856 -1.65551 3.19789 0
M  V30 1935 C 188.709 -0.737467 4.43713 0
M  V30 1936 C 190.028 -2.62012 3.53606 0
M  V30 1937 H 187.147 -0.315715 0.665953 0
M  V30 1938 H 189.789 -0.138004 1.89498 0
M  V30 1939 H 187.939 -2.28159 3.14445 0
M  V30 1940 H 189.611 -0.123143 4.61136 0
M  V30 1941 H 187.854 -0.0464067 4.33775 0
M  V30 1942 H 188.525 -1.32122 5.35955 0
M  V30 1943 H 191.001 -2.09525 3.59497 0
M  V30 1944 H 189.877 -3.13861 4.50314 0
M  V30 1945 H 190.138 -3.42902 2.79053 0
M  V30 1946 N 189.197 -1.51736 -0.425897 0
M  V30 1947 C 190.444 -1.6497 -1.17436 0
M  V30 1948 C 190.772 -0.371445 -1.9092 0
M  V30 1949 O 190.027 0.644963 -1.84767 0
M  V30 1950 C 190.326 -2.81103 -2.20717 0
M  V30 1951 C 189.992 -4.19954 -1.64162 0
M  V30 1952 C 188.654 -4.57725 -1.48462 0
M  V30 1953 C 191.006 -5.06552 -1.22696 0
M  V30 1954 C 188.334 -5.79789 -0.897873 0
M  V30 1955 C 190.686 -6.29205 -0.654464 0
M  V30 1956 C 189.35 -6.6574 -0.484456 0
M  V30 1957 H 188.62 -0.603668 -0.429727 0
M  V30 1958 H 191.267 -1.85798 -0.463829 0
M  V30 1959 H 189.572 -2.54542 -2.97852 0
M  V30 1960 H 191.269 -2.8854 -2.78471 0
M  V30 1961 H 187.859 -3.90181 -1.77361 0
M  V30 1962 H 192.043 -4.77968 -1.33642 0
M  V30 1963 H 187.299 -6.06733 -0.75402 0
M  V30 1964 H 191.473 -6.95643 -0.324694 0
M  V30 1965 H 189.1 -7.60195 -0.0276833 0
M  V30 1966 N 190.675 0.682077 -1.42076 0
M  V30 1967 C 191.623 1.81707 -1.45208 0
M  V30 1968 C 192.617 1.66183 -0.328591 0
M  V30 1969 O 193.823 1.7288 -0.501264 0
M  V30 1970 H 190.198 0.599014 -0.454628 0
M  V30 1971 H 192.169 1.76183 -2.40836 0
M  V30 1972 C 190.918 3.19816 -1.36428 0
M  V30 1973 H 190.241 3.32385 -2.22171 0
M  V30 1974 H 191.681 3.99272 -1.42681 0
M  V30 1975 C 190.14 3.36809 -0.078191 0
M  V30 1976 O 190.67 3.92124 0.87188 0
M  V30 1977 N 188.876 2.906 0.00229266 0
M  V30 1978 H 188.423 2.45772 -0.771616 0
M  V30 1979 H 188.381 3.02347 0.862179 0
M  V30 1980 N 192.153 1.28127 0.917671 0
M  V30 1981 C 193.402 1.14432 1.66097 0
M  V30 1982 C 193.715 -0.307247 1.93172 0
M  V30 1983 O 194.921 -0.565259 2.65551 0
M  V30 1984 C 193.377 2.00015 2.99202 0
M  V30 1985 C 192.985 3.49889 2.79789 0
M  V30 1986 C 194.729 1.94996 3.77064 0
M  V30 1987 C 192.636 4.27636 4.08511 0
M  V30 1988 H 191.566 0.424662 0.62304 0
M  V30 1989 H 194.217 1.52628 1.01868 0
M  V30 1990 H 192.599 1.54672 3.64544 0
M  V30 1991 H 193.773 4.03162 2.23152 0
M  V30 1992 H 192.088 3.56392 2.15345 0
M  V30 1993 H 194.685 2.50354 4.72469 0
M  V30 1994 H 195.028 0.925819 4.05875 0
M  V30 1995 H 195.561 2.38287 3.18534 0
M  V30 1996 H 192.3 5.30615 3.84874 0
M  V30 1997 H 191.82 3.79137 4.64774 0
M  V30 1998 H 193.499 4.37346 4.76799 0
M  V30 1999 N 193.631 -1.12557 1.10312 0
M  V30 2000 C 194.856 -1.88405 0.867085 0
M  V30 2001 C 195.281 -1.79038 -0.576817 0
M  V30 2002 O 194.639 -1.14439 -1.40618 0
M  V30 2003 C 194.687 -3.3563 1.31851 0
M  V30 2004 O 193.791 -4.09565 0.482734 0
M  V30 2005 H 193.132 -0.585455 0.313271 0
M  V30 2006 H 195.662 -1.42352 1.4696 0
M  V30 2007 H 195.672 -3.86469 1.3079 0
M  V30 2008 H 194.347 -3.41765 2.37001 0
M  V30 2009 H 192.924 -3.68695 0.558448 0
M  V30 2010 N 195.109 -0.891671 -1.2995 0
M  V30 2011 C 196.355 -0.514261 -1.96171 0
M  V30 2012 C 196.688 0.935506 -1.70182 0
M  V30 2013 O 195.963 1.66204 -1.01028 0
M  V30 2014 C 196.246 -0.797719 -3.51153 0
M  V30 2015 C 196.099 -2.2986 -3.86632 0
M  V30 2016 C 197.418 -0.278749 -4.39216 0
M  V30 2017 H 194.537 -0.188314 -0.712535 0
M  V30 2018 H 197.179 -1.11689 -1.53706 0
M  V30 2019 H 195.329 -0.284826 -3.87455 0
M  V30 2020 H 197.001 -2.88042 -3.60319 0
M  V30 2021 H 195.244 -2.76257 -3.34462 0
M  V30 2022 H 195.915 -2.44753 -4.94773 0
M  V30 2023 H 198.391 -0.717825 -4.09862 0
M  V30 2024 H 197.267 -0.506353 -5.46559 0
M  V30 2025 H 197.528 0.820266 -4.34424 0
M  V30 2026 N 196.587 1.43421 -0.653314 0
M  V30 2027 C 197.864 1.95361 -0.0966581 0
M  V30 2028 C 198.244 1.59461 1.38331 0
M  V30 2029 O 197.592 0.879777 2.10884 0
M  V30 2030 C 197.802 3.47311 -0.342988 0
M  V30 2031 C 199.15 4.23875 -0.24798 0
M  V30 2032 O 200.174 3.55133 -0.275553 0
M  V30 2033 O 199.033 5.4623 -0.171771 0
M  V30 2034 H 196.127 0.826945 0.00956291 0
M  V30 2035 H 198.673 1.5336 -0.726558 0
M  V30 2036 H 197.445 3.66569 -1.36906 0
M  V30 2037 H 197.068 3.9631 0.319975 0
M  V30 2038 N 198.065 0.39524 1.52563 0
M  V30 2039 C 199.013 -0.451859 2.28169 0
M  V30 2040 C 200.007 -1.05792 1.32304 0
M  V30 2041 O 201.213 -0.997718 1.49818 0
M  V30 2042 H 197.588 -0.164481 0.733792 0
M  V30 2043 H 199.559 0.207199 2.9768 0
M  V30 2044 C 198.308 -1.56385 3.10546 0
M  V30 2045 H 197.631 -1.10682 3.84174 0
M  V30 2046 H 199.071 -2.13067 3.66577 0
M  V30 2047 C 197.53 -2.52328 2.23231 0
M  V30 2048 O 198.06 -3.5588 1.86312 0
M  V30 2049 N 196.266 -2.22209 1.87274 0
M  V30 2050 H 195.813 -1.38033 2.17496 0
M  V30 2051 H 195.771 -2.86652 1.29143 0
M  V30 2052 N 199.544 -1.57102 0.125237 0
M  V30 2053 C 200.772 -1.99761 -0.538797 0
M  V30 2054 C 201.187 -1.00503 -1.59827 0
M  V30 2055 O 200.544 0.00119474 -1.825 0
M  V30 2056 C 200.595 -3.42408 -1.15927 0
M  V30 2057 O 200.316 -4.37869 -0.142143 0
M  V30 2058 C 201.817 -4.00232 -1.90602 0
M  V30 2059 H 199.037 -0.655772 -0.14214 0
M  V30 2060 H 201.581 -2.03383 0.213413 0
M  V30 2061 H 199.736 -3.39706 -1.86223 0
M  V30 2062 H 200.15 -5.21128 -0.593775 0
M  V30 2063 H 201.624 -5.02105 -2.29335 0
M  V30 2064 H 202.101 -3.39721 -2.78363 0
M  V30 2065 H 202.707 -4.06499 -1.25055 0
M  V30 2066 N 201.022 0.148545 -1.56898 0
M  V30 2067 C 202.262 0.86765 -1.85071 0
M  V30 2068 C 202.626 1.78417 -0.709317 0
M  V30 2069 O 203.827 2.54261 -0.872049 0
M  V30 2070 C 202.098 1.62306 -3.1842 0
M  V30 2071 S 203.657 2.3878 -3.68143 0
M  V30 2072 H 200.475 0.290174 -0.649092 0
M  V30 2073 H 203.077 0.127755 -1.95082 0
M  V30 2074 H 201.781 0.941192 -3.99462 0
M  V30 2075 H 201.312 2.4039 -3.1141 0
M  V30 2076 H 203.327 3.63942 -3.37285 0
M  V30 2077 N 202.5 1.5196 0.417844 0
M  V30 2078 C 203.725 1.69717 1.1921 0
M  V30 2079 C 204.15 0.402148 1.83751 0
M  V30 2080 O 203.508 -0.639593 1.69643 0
M  V30 2081 C 203.556 2.82794 2.2374 0
M  V30 2082 O 202.66 2.47756 3.29683 0
M  V30 2083 H 202.001 0.565263 0.348387 0
M  V30 2084 H 204.531 1.98621 0.490985 0
M  V30 2085 H 204.541 3.07452 2.68212 0
M  V30 2086 H 203.216 3.76756 1.76146 0
M  V30 2087 H 201.793 2.33739 2.90552 0
M  V30 2088 N 203.978 -0.674533 1.42435 0
M  V30 2089 C 204.908 -1.80009 1.48724 0
M  V30 2090 C 205.889 -1.6659 0.343793 0
M  V30 2091 O 207.074 -1.86007 0.558137 0
M  V30 2092 C 204.204 -3.18306 1.38919 0
M  V30 2093 C 203.158 -3.46461 2.51294 0
M  V30 2094 C 202.484 -4.84335 2.26547 0
M  V30 2095 C 203.784 -3.43328 3.93603 0
M  V30 2096 H 205.478 -1.75004 2.42928 0
M  V30 2097 H 203.024 -0.840533 1.16923 0
M  V30 2098 H 204.977 -3.9678 1.41927 0
M  V30 2099 H 203.701 -3.2399 0.412094 0
M  V30 2100 H 202.36 -2.70348 2.47604 0
M  V30 2101 H 202.008 -4.86669 1.2713 0
M  V30 2102 H 201.708 -5.04136 3.01861 0
M  V30 2103 H 203.232 -5.65094 2.31304 0
M  V30 2104 H 204.646 -4.11772 3.98894 0
M  V30 2105 H 203.043 -3.74664 4.68771 0
M  V30 2106 H 204.113 -2.41897 4.20255 0
M  V30 2107 N 205.456 -1.28612 -0.910864 0
M  V30 2108 C 206.703 -1.15934 -1.66029 0
M  V30 2109 C 207.031 0.291483 -1.92303 0
M  V30 2110 O 206.286 1.22816 -1.52364 0
M  V30 2111 C 206.585 -1.90624 -3.0232 0
M  V30 2112 C 206.251 -3.40405 -2.95695 0
M  V30 2113 C 204.913 -3.81255 -2.93595 0
M  V30 2114 C 207.265 -4.359 -2.85728 0
M  V30 2115 C 204.593 -5.15936 -2.79334 0
M  V30 2116 C 206.945 -5.70657 -2.73007 0
M  V30 2117 C 205.609 -6.10779 -2.69267 0
M  V30 2118 H 204.879 -0.424234 -0.607541 0
M  V30 2119 H 207.526 -1.5942 -1.06101 0
M  V30 2120 H 205.831 -1.39696 -3.6605 0
M  V30 2121 H 207.528 -1.78228 -3.59215 0
M  V30 2122 H 204.118 -3.07927 -2.98125 0
M  V30 2123 H 208.302 -4.053 -2.86436 0
M  V30 2124 H 203.558 -5.46146 -2.74835 0
M  V30 2125 H 207.732 -6.44311 -2.64264 0
M  V30 2126 H 205.359 -7.1509 -2.57974 0
M  V30 2127 N 206.934 1.1197 -1.10907 0
M  V30 2128 C 208.35 1.35591 -0.841852 0
M  V30 2129 C 208.55 1.94233 0.536246 0
M  V30 2130 O 207.606 2.1717 1.28816 0
M  V30 2131 C 208.919 2.29284 -1.94549 0
M  V30 2132 C 210.467 2.42862 -1.97451 0
M  V30 2133 C 210.942 3.39873 -3.07002 0
M  V30 2134 N 212.433 3.47433 -3.06341 0
M  V30 2135 C 213.168 4.22421 -3.87748 0
M  V30 2136 N 212.664 5.00432 -4.79103 0
M  V30 2137 N 214.457 4.17876 -3.75946 0
M  V30 2138 H 206.608 0.722664 -1.99728 0
M  V30 2139 H 208.871 0.380635 -0.868229 0
M  V30 2140 H 208.577 1.93378 -2.93765 0
M  V30 2141 H 208.451 3.29452 -1.83688 0
M  V30 2142 H 210.838 2.78046 -0.988645 0
M  V30 2143 H 210.919 1.42566 -2.12388 0
M  V30 2144 H 210.563 3.05417 -4.05811 0
M  V30 2145 H 210.493 4.40011 -2.89306 0
M  V30 2146 H 212.984 2.91784 -2.40147 0
M  V30 2147 H 213.297 5.55002 -5.37766 0
M  V30 2148 H 211.642 4.99612 -4.83128 0
M  V30 2149 H 214.833 3.56016 -3.03924 0
M  V30 2150 H 215.006 4.76061 -4.39624 0
M  V30 2151 N 208.412 0.89855 1.29475 0
M  V30 2152 C 209.66 0.522847 1.9522 0
M  V30 2153 C 209.981 -0.93371 1.71192 0
M  V30 2154 O 209.251 -1.65823 1.04305 0
M  V30 2155 H 207.831 0.190366 0.722336 0
M  V30 2156 H 210.493 1.14459 1.5775 0
M  V30 2157 H 209.589 0.704476 3.04045 0
M  V30 2158 N 209.89 -1.43072 0.660911 0
M  V30 2159 C 210.82 -2.33497 -0.0122829 0
M  V30 2160 C 211.801 -1.49903 -0.803925 0
M  V30 2161 O 212.986 -1.78546 -0.763864 0
M  V30 2162 C 210.116 -3.33363 -0.973994 0
M  V30 2163 C 209.07 -4.27003 -0.291928 0
M  V30 2164 C 208.396 -5.16967 -1.36562 0
M  V30 2165 C 209.696 -5.15816 0.820462 0
M  V30 2166 H 211.39 -2.90038 0.742873 0
M  V30 2167 H 208.936 -1.39461 0.358688 0
M  V30 2168 H 210.889 -3.95524 -1.45392 0
M  V30 2169 H 209.613 -2.75095 -1.7604 0
M  V30 2170 H 208.272 -3.66217 0.167623 0
M  V30 2171 H 207.92 -4.55034 -2.14366 0
M  V30 2172 H 207.62 -5.80441 -0.914454 0
M  V30 2173 H 209.144 -5.82003 -1.84675 0
M  V30 2174 H 210.558 -5.71742 0.422366 0
M  V30 2175 H 208.955 -5.8805 1.19656 0
M  V30 2176 H 210.025 -4.55045 1.67518 0
M  V30 2177 N 211.368 -0.403325 -1.52352 0
M  V30 2178 C 212.3 0.4603 -2.2453 0
M  V30 2179 C 213.313 1.01505 -1.27282 0
M  V30 2180 O 214.502 0.914982 -1.53266 0
M  V30 2181 C 211.602 1.65208 -2.95905 0
M  V30 2182 C 210.775 1.22224 -4.19976 0
M  V30 2183 C 209.834 2.28028 -4.74226 0
M  V30 2184 O 208.86 1.88857 -5.36956 0
M  V30 2185 N 210.062 3.6012 -4.55295 0
M  V30 2186 H 212.827 -0.158156 -2.99282 0
M  V30 2187 H 210.388 -0.230402 -1.60252 0
M  V30 2188 H 212.38 2.35541 -3.29093 0
M  V30 2189 H 210.95 2.17658 -2.24374 0
M  V30 2190 H 210.17 0.34725 -3.92668 0
M  V30 2191 H 211.458 0.911924 -5.00561 0
M  V30 2192 H 210.856 3.94698 -4.05253 0
M  V30 2193 H 209.413 4.26447 -4.92936 0
M  V30 2194 N 212.846 1.57033 -0.133567 0
M  V30 2195 C 213.793 2.16074 0.811208 0
M  V30 2196 C 214.763 1.08979 1.2535 0
M  V30 2197 O 215.948 1.36958 1.32843 0
M  V30 2198 C 213.088 2.77595 2.05024 0
M  V30 2199 C 212.201 3.99042 1.65498 0
M  V30 2200 C 211.336 4.48603 2.84479 0
M  V30 2201 C 210.375 5.62547 2.41262 0
M  V30 2202 N 209.512 6.06787 3.53206 0
M  V30 2203 H 214.352 2.96477 0.300906 0
M  V30 2204 H 211.889 1.46462 0.136822 0
M  V30 2205 H 213.847 3.11402 2.77642 0
M  V30 2206 H 212.477 1.99859 2.53488 0
M  V30 2207 H 211.529 3.71302 0.826981 0
M  V30 2208 H 212.841 4.81629 1.29748 0
M  V30 2209 H 211.995 4.84395 3.65303 0
M  V30 2210 H 210.734 3.64995 3.23465 0
M  V30 2211 H 209.739 5.26345 1.58874 0
M  V30 2212 H 210.964 6.47931 2.03377 0
M  V30 2213 H 208.91 5.26117 3.91838 0
M  V30 2214 H 208.827 6.84266 3.21427 0
M  V30 2215 H 210.095 6.4722 4.34427 0
M  V30 2216 N 214.325 -0.140222 1.56975 0
M  V30 2217 C 215.235 -1.19223 2.02047 0
M  V30 2218 C 216.251 -1.46612 0.937062 0
M  V30 2219 O 217.427 -1.58148 1.24704 0
M  V30 2220 C 214.492 -2.50414 2.39778 0
M  V30 2221 C 213.553 -2.30612 3.621 0
M  V30 2222 C 212.786 -3.55547 3.98023 0
M  V30 2223 O 213.009 -4.62004 3.34528 0
M  V30 2224 O 211.943 -3.47808 4.91237 0
M  V30 2225 H 215.769 -0.839559 2.91865 0
M  V30 2226 H 213.354 -0.349453 1.45256 0
M  V30 2227 H 215.236 -3.27747 2.64877 0
M  V30 2228 H 213.911 -2.85198 1.53114 0
M  V30 2229 H 212.818 -1.51207 3.4218 0
M  V30 2230 H 214.151 -2.00741 4.49404 0
M  V30 2231 N 215.803 -1.52179 -0.40978 0
M  V30 2232 C 216.713 -1.78364 -1.52392 0
M  V30 2233 C 217.729 -0.669183 -1.60617 0
M  V30 2234 O 218.905 -0.954518 -1.77344 0
M  V30 2235 C 215.97 -1.92822 -2.88133 0
M  V30 2236 C 215.031 -3.16725 -2.898 0
M  V30 2237 C 214.264 -3.30483 -4.19067 0
M  V30 2238 O 214.487 -2.49522 -5.12928 0
M  V30 2239 O 213.421 -4.2363 -4.27576 0
M  V30 2240 H 217.247 -2.72931 -1.33201 0
M  V30 2241 H 214.832 -1.37016 -0.59557 0
M  V30 2242 H 216.714 -2.04157 -3.68643 0
M  V30 2243 H 215.389 -1.01444 -3.07393 0
M  V30 2244 H 214.296 -3.10848 -2.08146 0
M  V30 2245 H 215.629 -4.07881 -2.75489 0
M  V30 2246 N 217.281 0.66697 -1.42791 0
M  V30 2247 C 218.527 1.4291 -1.43891 0
M  V30 2248 C 218.86 1.94114 -0.0578972 0
M  V30 2249 O 218.135 1.71414 0.91911 0
M  V30 2250 C 218.418 2.62049 -2.46987 0
M  V30 2251 C 218.271 2.16426 -3.94309 0
M  V30 2252 C 219.59 3.64266 -2.46978 0
M  V30 2253 H 216.709 0.518306 -0.523954 0
M  V30 2254 H 219.351 0.757321 -1.74255 0
M  V30 2255 H 217.501 3.19361 -2.21225 0
M  V30 2256 H 219.173 1.64221 -4.31079 0
M  V30 2257 H 217.416 1.47925 -4.078 0
M  V30 2258 H 218.087 3.02038 -4.62036 0
M  V30 2259 H 220.563 3.16686 -2.69906 0
M  V30 2260 H 219.439 4.45196 -3.21079 0
M  V30 2261 H 219.7 4.15927 -1.49857 0
M  V30 2262 N 218.759 1.29093 0.90403 0
M  V30 2263 C 220.005 1.16986 1.65656 0
M  V30 2264 C 220.338 -0.278925 1.92186 0
M  V30 2265 O 219.613 -1.2019 1.5292 0
M  V30 2266 C 219.896 1.97908 3.0084 0
M  V30 2267 C 219.749 3.50903 2.81403 0
M  V30 2268 C 221.068 1.80208 4.01513 0
M  V30 2269 H 218.187 0.426346 0.601164 0
M  V30 2270 H 220.829 1.58518 1.04747 0
M  V30 2271 H 218.979 1.62616 3.52829 0
M  V30 2272 H 220.651 3.96153 2.36348 0
M  V30 2273 H 218.894 3.76045 2.1627 0
M  V30 2274 H 219.565 4.02791 3.77443 0
M  V30 2275 H 222.041 2.11025 3.58619 0
M  V30 2276 H 220.917 2.39184 4.94047 0
M  V30 2277 H 221.178 0.756119 4.35586 0
M  V30 2278 N 220.237 -1.11381 1.11499 0
M  V30 2279 C 221.167 -2.19509 0.796125 0
M  V30 2280 C 222.148 -1.68458 -0.235796 0
M  V30 2281 O 223.333 -1.93947 -0.0991344 0
M  V30 2282 C 220.463 -3.46475 0.239205 0
M  V30 2283 C 219.417 -4.10744 1.20307 0
M  V30 2284 C 218.743 -5.32293 0.50683 0
M  V30 2285 C 220.043 -4.55597 2.55399 0
M  V30 2286 H 221.737 -2.46439 1.70024 0
M  V30 2287 H 219.283 -1.18446 0.818935 0
M  V30 2288 H 221.236 -4.214 0.00392006 0
M  V30 2289 H 219.96 -3.19006 -0.700206 0
M  V30 2290 H 218.619 -3.37813 1.42399 0
M  V30 2291 H 218.267 -5.01095 -0.437408 0
M  V30 2292 H 217.967 -5.76243 1.1497 0
M  V30 2293 H 219.491 -6.09956 0.280351 0
M  V30 2294 H 220.905 -5.21841 2.37391 0
M  V30 2295 H 219.302 -5.10363 3.15673 0
M  V30 2296 H 220.372 -3.69013 3.14575 0
M  V30 2297 N 221.715 -0.905404 -1.28997 0
M  V30 2298 C 222.645 -0.404212 -2.29975 0
M  V30 2299 C 223.626 0.523784 -1.61835 0
M  V30 2300 O 224.811 0.433298 -1.89304 0
M  V30 2301 C 221.941 0.364042 -3.45387 0
M  V30 2302 C 220.895 -0.474048 -4.25367 0
M  V30 2303 C 220.221 0.422045 -5.33032 0
M  V30 2304 C 221.521 -1.72696 -4.92923 0
M  V30 2305 H 223.215 -1.24807 -2.72146 0
M  V30 2306 H 220.761 -0.601585 -1.30832 0
M  V30 2307 H 222.714 0.725447 -4.15109 0
M  V30 2308 H 221.438 1.24174 -3.02074 0
M  V30 2309 H 220.097 -0.81786 -3.57361 0
M  V30 2310 H 219.745 1.29804 -4.85963 0
M  V30 2311 H 219.445 -0.135057 -5.87445 0
M  V30 2312 H 220.969 0.779517 -6.05604 0
M  V30 2313 H 222.383 -1.43495 -5.55051 0
M  V30 2314 H 220.78 -2.22582 -5.57295 0
M  V30 2315 H 221.85 -2.45964 -4.17887 0
M  V30 2316 N 223.193 1.4272 -0.668489 0
M  V30 2317 C 224.421 2.05966 -0.196348 0
M  V30 2318 C 224.836 1.50191 1.14403 0
M  V30 2319 O 224.193 0.639208 1.7094 0
M  V30 2320 C 224.244 3.61314 -0.115815 0
M  V30 2321 O 223.965 4.1502 -1.40322 0
M  V30 2322 C 225.466 4.41663 0.380579 0
M  V30 2323 H 222.686 0.663954 -0.0969829 0
M  V30 2324 H 225.23 1.82966 -0.913446 0
M  V30 2325 H 223.385 3.83448 0.551931 0
M  V30 2326 H 223.799 5.08832 -1.27243 0
M  V30 2327 H 225.273 5.5065 0.385848 0
M  V30 2328 H 225.75 4.15792 1.41471 0
M  V30 2329 H 226.356 4.24534 -0.255209 0
M  V30 2330 N 224.671 0.411399 1.52136 0
M  V30 2331 C 225.621 -0.430376 2.23901 0
M  V30 2332 C 226.605 -1.0116 1.25121 0
M  V30 2333 O 227.797 -0.934044 1.50348 0
M  V30 2334 C 224.926 -1.54527 3.06556 0
M  V30 2335 C 224.012 -0.9747 4.12747 0
M  V30 2336 N 224.403 -0.130991 5.0563 0
M  V30 2337 C 222.701 -1.24497 4.28271 0
M  V30 2338 C 223.402 0.186689 5.814 0
M  V30 2339 N 222.378 -0.42304 5.41951 0
M  V30 2340 H 226.18 0.220509 2.93072 0
M  V30 2341 H 223.694 0.221952 1.60876 0
M  V30 2342 H 225.691 -2.16093 3.56524 0
M  V30 2343 H 224.351 -2.19875 2.38925 0
M  V30 2344 H 225.362 0.23349 5.17373 0
M  V30 2345 H 222.039 -1.89787 3.7187 0
M  V30 2346 H 223.429 0.871673 6.66222 0
M  V30 2347 N 226.149 -1.5696 0.141893 0
M  V30 2348 C 227.397 -1.95573 -0.509484 0
M  V30 2349 C 227.718 -1.02746 -1.65736 0
M  V30 2350 O 226.988 -0.0880311 -1.95702 0
M  V30 2351 H 225.568 -0.722115 -0.191205 0
M  V30 2352 H 228.23 -1.93697 0.216196 0
M  V30 2353 H 227.326 -2.99171 -0.889 0
M  V30 2354 N 227.627 0.131896 -1.57047 0
M  V30 2355 C 228.904 0.871495 -1.75112 0
M  V30 2356 C 229.284 1.9866 -0.713949 0
M  V30 2357 O 228.632 2.26965 0.264447 0
M  V30 2358 C 228.842 1.40007 -3.19686 0
M  V30 2359 C 230.19 1.85752 -3.81813 0
M  V30 2360 O 231.214 1.49715 -3.23209 0
M  V30 2361 O 230.073 2.5226 -4.84796 0
M  V30 2362 H 227.167 0.412919 -0.716538 0
M  V30 2363 H 229.713 0.116641 -1.69299 0
M  V30 2364 H 228.485 0.599404 -3.86682 0
M  V30 2365 H 228.108 2.218 -3.29986 0
M  V30 2366 N 229.106 1.52395 0.401703 0
M  V30 2367 C 230.331 1.70972 1.17403 0
M  V30 2368 C 230.756 0.421615 1.83314 0
M  V30 2369 O 230.114 -0.621564 1.70312 0
M  V30 2370 C 230.162 2.85151 2.20728 0
M  V30 2371 O 229.266 2.51238 3.27037 0
M  V30 2372 H 228.607 0.568927 0.342372 0
M  V30 2373 H 231.137 1.99131 0.469891 0
M  V30 2374 H 231.147 3.10279 2.64936 0
M  V30 2375 H 229.822 3.78603 1.7214 0
M  V30 2376 H 228.399 2.36808 2.88057 0
M  V30 2377 N 230.584 -0.659388 1.43143 0
M  V30 2378 C 231.83 -1.42145 1.44647 0
M  V30 2379 C 232.163 -1.9408 0.0681907 0
M  V30 2380 O 231.438 -1.71899 -0.910007 0
M  V30 2381 C 231.721 -2.60735 2.48373 0
M  V30 2382 C 231.574 -2.14332 3.95451 0
M  V30 2383 C 232.893 -3.62951 2.48906 0
M  V30 2384 H 230.012 -0.51552 0.526696 0
M  V30 2385 H 232.654 -0.748069 1.74654 0
M  V30 2386 H 230.804 -3.18184 2.22916 0
M  V30 2387 H 232.476 -1.61932 4.31944 0
M  V30 2388 H 230.719 -1.4576 4.08578 0
M  V30 2389 H 231.39 -2.99583 4.63631 0
M  V30 2390 H 233.866 -3.1525 2.71582 0
M  V30 2391 H 232.742 -4.43487 3.23435 0
M  V30 2392 H 233.003 -4.15126 1.52061 0
M  V30 2393 N 232.062 -1.29571 -0.897171 0
M  V30 2394 C 233.339 -1.08365 -1.62839 0
M  V30 2395 C 233.719 0.371331 -2.07808 0
M  V30 2396 O 233.067 1.3606 -1.83576 0
M  V30 2397 C 233.277 -2.0735 -2.80726 0
M  V30 2398 C 234.625 -2.38406 -3.51351 0
M  V30 2399 O 235.649 -2.05564 -2.90898 0
M  V30 2400 O 234.508 -2.9453 -4.60341 0
M  V30 2401 H 231.602 -0.415345 -0.715134 0
M  V30 2402 H 234.148 -1.40952 -0.945018 0
M  V30 2403 H 232.92 -3.05339 -2.44711 0
M  V30 2404 H 232.543 -1.75507 -3.56767 0
M  V30 2405 N 233.54 1.10788 -1.12088 0
M  V30 2406 C 234.487 2.17025 -0.785407 0
M  V30 2407 C 235.457 1.64265 0.246191 0
M  V30 2408 O 236.642 1.90412 0.121584 0
M  V30 2409 C 233.782 3.44249 -0.242177 0
M  V30 2410 C 232.895 4.1098 -1.33115 0
M  V30 2411 C 232.03 5.25911 -0.747741 0
M  V30 2412 C 231.069 5.84538 -1.81609 0
M  V30 2413 N 230.206 6.90853 -1.25167 0
M  V30 2414 H 235.046 2.45066 -1.69548 0
M  V30 2415 H 232.583 1.20297 -0.846582 0
M  V30 2416 H 234.541 4.17101 0.0908026 0
M  V30 2417 H 233.171 3.16571 0.631072 0
M  V30 2418 H 232.223 3.36133 -1.78097 0
M  V30 2419 H 233.535 4.50601 -2.13917 0
M  V30 2420 H 232.689 6.056 -0.365216 0
M  V30 2421 H 231.428 4.87614 0.0915188 0
M  V30 2422 H 230.433 5.03522 -2.20785 0
M  V30 2423 H 231.658 6.249 -2.6585 0
M  V30 2424 H 229.604 6.54562 -0.434174 0
M  V30 2425 H 229.521 7.29166 -1.99633 0
M  V30 2426 H 230.789 7.7433 -0.896259 0
M  V30 2427 N 235.018 0.912232 1.28515 0
M  V30 2428 C 236.264 0.545405 1.95328 0
M  V30 2429 C 236.597 -0.908313 1.71649 0
M  V30 2430 O 235.872 -1.64575 1.03659 0
M  V30 2431 C 236.155 0.853483 3.4984 0
M  V30 2432 C 236.008 2.35982 3.82926 0
M  V30 2433 C 237.327 0.348589 4.38717 0
M  V30 2434 H 234.446 0.199626 0.709449 0
M  V30 2435 H 237.088 1.1412 1.5191 0
M  V30 2436 H 235.238 0.34643 3.86952 0
M  V30 2437 H 236.91 2.93738 3.55691 0
M  V30 2438 H 235.153 2.81543 3.30024 0
M  V30 2439 H 235.824 2.52593 4.90816 0
M  V30 2440 H 238.3 0.78294 4.08668 0
M  V30 2441 H 237.176 0.593242 5.45685 0
M  V30 2442 H 237.437 -0.751049 4.35674 0
M  V30 2443 N 236.496 -1.42363 0.676048 0
M  V30 2444 C 237.459 -2.29199 0.00766941 0
M  V30 2445 C 238.459 -1.43389 -0.727745 0
M  V30 2446 O 239.649 -1.64764 -0.56556 0
M  V30 2447 C 236.781 -3.2591 -0.999785 0
M  V30 2448 H 237.974 -2.89794 0.771988 0
M  V30 2449 H 235.527 -1.50024 0.438468 0
M  V30 2450 H 236.262 -2.70256 -1.79255 0
M  V30 2451 H 236.047 -3.89202 -0.475829 0
M  V30 2452 H 237.537 -3.91028 -1.46583 0
M  V30 2453 N 237.974 -0.419461 -1.51915 0
M  V30 2454 C 239.251 0.211999 -1.94448 0
M  V30 2455 C 239.631 1.61703 -1.35703 0
M  V30 2456 O 238.979 2.22102 -0.536931 0
M  V30 2457 C 239.189 0.207872 -3.4838 0
M  V30 2458 C 240.537 0.422192 -4.22496 0
M  V30 2459 O 241.561 0.286778 -3.55044 0
M  V30 2460 O 240.42 0.690009 -5.42126 0
M  V30 2461 H 237.514 0.139586 -0.815135 0
M  V30 2462 H 240.06 -0.476151 -1.62883 0
M  V30 2463 H 238.832 -0.775102 -3.83546 0
M  V30 2464 H 238.455 0.939688 -3.86336 0
M  V30 2465 N 239.452 1.56882 -0.150215 0
M  V30 2466 C 240.7 1.9584 0.499105 0
M  V30 2467 C 241.021 1.03623 1.65188 0
M  V30 2468 O 240.291 0.0984084 1.95653 0
M  V30 2469 H 238.871 0.723119 0.187373 0
M  V30 2470 H 241.533 1.9358 -0.226466 0
M  V30 2471 H 240.629 2.99638 0.873122 0
M  V30 2472 N 240.93 -0.123565 1.57115 0
M  V30 2473 C 242.177 -0.832153 1.84612 0
M  V30 2474 C 242.505 -1.80093 0.734627 0
M  V30 2475 O 241.76 -1.93766 -0.27442 0
M  V30 2476 C 242.059 -1.62016 3.18568 0
M  V30 2477 C 241.725 -0.796084 4.43817 0
M  V30 2478 C 240.387 -0.568816 4.77826 0
M  V30 2479 C 242.739 -0.221364 5.2073 0
M  V30 2480 C 240.067 0.243499 5.86194 0
M  V30 2481 C 242.419 0.578117 6.29953 0
M  V30 2482 C 241.083 0.815744 6.62497 0
M  V30 2483 H 240.353 -0.304507 0.675542 0
M  V30 2484 H 243 -0.0947248 1.91266 0
M  V30 2485 H 241.305 -2.42837 3.0747 0
M  V30 2486 H 243.002 -2.17231 3.37064 0
M  V30 2487 H 239.592 -0.983307 4.17168 0
M  V30 2488 H 243.776 -0.384173 4.94811 0
M  V30 2489 H 239.032 0.436871 6.09837 0
M  V30 2490 H 243.206 1.03046 6.88734 0
M  V30 2491 H 240.833 1.44701 7.46301 0
M  V30 2492 N 242.408 -1.52605 -0.393616 0
M  V30 2493 C 243.355 -1.77055 -1.48054 0
M  V30 2494 C 244.325 -0.61358 -1.54352 0
M  V30 2495 O 245.51 -0.852806 -1.70681 0
M  V30 2496 C 242.65 -1.94108 -2.85335 0
M  V30 2497 C 241.763 -3.21792 -2.88226 0
M  V30 2498 C 240.898 -3.29188 -4.16904 0
M  V30 2499 C 239.937 -4.51013 -4.13828 0
M  V30 2500 N 239.074 -4.55716 -5.34105 0
M  V30 2501 H 243.914 -2.69815 -1.26506 0
M  V30 2502 H 241.451 -1.33683 -0.61379 0
M  V30 2503 H 243.409 -2.01979 -3.65049 0
M  V30 2504 H 242.039 -1.04713 -3.05344 0
M  V30 2505 H 241.091 -3.23015 -2.00911 0
M  V30 2506 H 242.403 -4.11557 -2.8182 0
M  V30 2507 H 241.557 -3.36216 -5.05018 0
M  V30 2508 H 240.296 -2.37389 -4.26026 0
M  V30 2509 H 239.301 -4.44115 -3.24102 0
M  V30 2510 H 240.526 -5.44123 -4.06333 0
M  V30 2511 H 238.472 -3.66807 -5.43865 0
M  V30 2512 H 238.389 -5.39346 -5.29756 0
M  V30 2513 H 239.657 -4.66993 -6.2413 0
M  V30 2514 N 243.887 0.651787 -1.4349 0
M  V30 2515 C 245.133 1.41376 -1.45398 0
M  V30 2516 C 245.466 1.94041 -0.0784823 0
M  V30 2517 O 244.741 1.72379 0.900878 0
M  V30 2518 C 245.024 2.59414 -2.49752 0
M  V30 2519 C 244.877 2.12232 -3.96582 0
M  V30 2520 C 246.196 3.61626 -2.50827 0
M  V30 2521 H 243.315 0.512719 -0.529422 0
M  V30 2522 H 245.957 0.738796 -1.75048 0
M  V30 2523 H 244.107 3.16997 -2.246 0
M  V30 2524 H 245.779 1.59639 -4.32797 0
M  V30 2525 H 244.022 1.43592 -4.09346 0
M  V30 2526 H 244.693 2.9712 -4.65214 0
M  V30 2527 H 247.169 3.13805 -2.7325 0
M  V30 2528 H 246.045 4.41766 -3.25783 0
M  V30 2529 H 246.306 4.14314 -1.5426 0
M  V30 2530 N 245.365 1.30045 0.890287 0
M  V30 2531 C 246.611 1.18737 1.64406 0
M  V30 2532 C 246.944 -0.258525 1.92472 0
M  V30 2533 O 246.219 -1.18562 1.54186 0
M  V30 2534 C 246.502 2.01087 2.98724 0
M  V30 2535 C 246.355 3.53867 2.77665 0
M  V30 2536 C 247.674 1.84457 3.9958 0
M  V30 2537 H 244.793 0.432698 0.596608 0
M  V30 2538 H 247.435 1.5962 1.0306 0
M  V30 2539 H 245.585 1.66349 3.51084 0
M  V30 2540 H 247.257 3.98637 2.32133 0
M  V30 2541 H 245.5 3.78318 2.12269 0
M  V30 2542 H 246.171 4.06772 3.7315 0
M  V30 2543 H 248.647 2.14817 3.56361 0
M  V30 2544 H 247.523 2.44411 4.91482 0
M  V30 2545 H 247.784 0.802276 4.3476 0
M  V30 2546 N 246.843 -1.10192 1.12674 0
M  V30 2547 C 247.806 -2.14786 0.799979 0
M  V30 2548 C 248.806 -1.59711 -0.18685 0
M  V30 2549 O 249.996 -1.74156 0.0392558 0
M  V30 2550 C 247.128 -3.40374 0.189228 0
M  V30 2551 H 248.321 -2.45203 1.72671 0
M  V30 2552 H 245.874 -1.25597 0.930326 0
M  V30 2553 H 246.609 -3.15577 -0.747107 0
M  V30 2554 H 246.394 -3.81637 0.899766 0
M  V30 2555 H 247.884 -4.17594 -0.0228143 0
M  V30 2556 N 248.321 -0.919034 -1.28029 0
M  V30 2557 C 249.737 -0.617972 -1.4715 0
M  V30 2558 C 249.937 0.835242 -1.83374 0
M  V30 2559 O 248.993 1.61388 -1.94191 0
M  V30 2560 C 250.306 -1.56041 -2.57044 0
M  V30 2561 C 251.854 -1.56769 -2.7091 0
M  V30 2562 C 252.329 -2.49688 -3.83953 0
M  V30 2563 N 253.82 -2.47845 -3.91314 0
M  V30 2564 C 254.555 -3.16437 -4.78179 0
M  V30 2565 N 254.051 -3.94376 -5.69596 0
M  V30 2566 N 255.844 -3.05498 -4.71834 0
M  V30 2567 H 247.995 -1.85866 -1.02798 0
M  V30 2568 H 250.258 -0.797506 -0.512531 0
M  V30 2569 H 249.964 -2.59671 -2.372 0
M  V30 2570 H 249.838 -1.29551 -3.54255 0
M  V30 2571 H 252.225 -0.538745 -2.90141 0
M  V30 2572 H 252.306 -1.87305 -1.74214 0
M  V30 2573 H 251.95 -3.52688 -3.65477 0
M  V30 2574 H 251.88 -2.16453 -4.80058 0
M  V30 2575 H 254.371 -1.91234 -3.25941 0
M  V30 2576 H 254.684 -4.43721 -6.32718 0
M  V30 2577 H 253.029 -3.98481 -5.69419 0
M  V30 2578 H 256.22 -2.44108 -3.99411 0
M  V30 2579 H 256.393 -3.59225 -5.39316 0
M  V30 2580 N 249.799 1.42003 -0.683588 0
M  V30 2581 C 251.024 2.06265 -0.216647 0
M  V30 2582 C 251.449 1.51059 1.12083 0
M  V30 2583 O 250.807 0.632638 1.69904 0
M  V30 2584 C 250.855 3.60191 -0.171759 0
M  V30 2585 O 249.959 4.03396 0.857069 0
M  V30 2586 H 249.3 0.65502 -0.108834 0
M  V30 2587 H 251.83 1.81982 -0.935077 0
M  V30 2588 H 251.84 4.08 0.0014303 0
M  V30 2589 H 250.515 3.99743 -1.14796 0
M  V30 2590 H 249.092 3.67117 0.654208 0
M  V30 2591 N 251.277 0.427512 1.51691 0
M  V30 2592 C 252.525 -0.141948 2.01601 0
M  V30 2593 C 252.846 -1.44067 1.31414 0
M  V30 2594 O 252.116 -1.90763 0.445658 0
M  V30 2595 H 250.696 -0.0554468 0.744939 0
M  V30 2596 H 253.358 0.567968 1.86441 0
M  V30 2597 H 252.454 -0.324913 3.10404 0
M  V30 2598 N 252.755 -1.56801 0.158532 0
M  V30 2599 C 253.703 -2.18638 -0.793729 0
M  V30 2600 C 254.697 -1.14669 -1.24689 0
M  V30 2601 O 255.903 -1.32895 -1.21403 0
M  V30 2602 H 252.278 -0.700226 -0.274204 0
M  V30 2603 H 254.249 -2.97367 -0.248095 0
M  V30 2604 C 252.998 -2.83139 -2.0181 0
M  V30 2605 H 252.321 -3.62863 -1.67841 0
M  V30 2606 H 253.761 -3.29894 -2.66357 0
M  V30 2607 C 252.22 -1.82244 -2.83353 0
M  V30 2608 O 252.75 -1.3 -3.80083 0
M  V30 2609 N 250.956 -1.51288 -2.48114 0
M  V30 2610 H 250.503 -1.93964 -1.69516 0
M  V30 2611 H 250.461 -0.840296 -3.02963 0
M  V30 2612 N 254.233 0.115231 -1.57178 0
M  V30 2613 C 255.482 0.820945 -1.84237 0
M  V30 2614 C 255.795 1.80866 -0.744761 0
M  V30 2615 O 257.001 2.56083 -0.901871 0
M  V30 2616 C 255.457 1.51072 -3.26658 0
M  V30 2617 C 255.065 0.563795 -4.44438 0
M  V30 2618 C 256.809 2.20134 -3.62962 0
M  V30 2619 C 254.716 1.25701 -5.77887 0
M  V30 2620 H 253.646 0.310328 -0.687177 0
M  V30 2621 H 256.297 0.0737134 -1.83352 0
M  V30 2622 H 254.679 2.30471 -3.22024 0
M  V30 2623 H 255.853 -0.197247 -4.60378 0
M  V30 2624 H 254.168 -0.0200638 -4.16395 0
M  V30 2625 H 256.765 2.72696 -4.59936 0
M  V30 2626 H 257.108 2.98107 -2.90582 0
M  V30 2627 H 257.641 1.47619 -3.69396 0
M  V30 2628 H 254.38 0.518493 -6.53446 0
M  V30 2629 H 253.9 1.98997 -5.65827 0
M  V30 2630 H 255.579 1.78915 -6.2177 0
M  V30 2631 N 255.711 1.52812 0.385517 0
M  V30 2632 C 256.957 1.68275 1.13188 0
M  V30 2633 C 257.29 0.423179 1.89533 0
M  V30 2634 O 256.565 -0.579113 1.85679 0
M  V30 2635 C 256.848 2.92001 2.1073 0
M  V30 2636 C 256.701 4.28067 1.38125 0
M  V30 2637 C 258.02 3.11283 3.11113 0
M  V30 2638 H 255.139 0.612352 0.410115 0
M  V30 2639 H 257.781 1.85415 0.414869 0
M  V30 2640 H 255.931 2.77519 2.71874 0
M  V30 2641 H 257.603 4.54324 0.799187 0
M  V30 2642 H 255.846 4.28388 0.683092 0
M  V30 2643 H 256.517 5.10733 2.09417 0
M  V30 2644 H 258.993 3.2482 2.6006 0
M  V30 2645 H 257.869 3.99325 3.76605 0
M  V30 2646 H 258.13 2.25656 3.80173 0
M  V30 2647 N 257.189 -0.644168 1.43834 0
M  V30 2648 C 258.152 -1.73857 1.49353 0
M  V30 2649 C 259.152 -1.56315 0.377112 0
M  V30 2650 O 260.342 -1.62048 0.639226 0
M  V30 2651 C 257.474 -3.12819 1.35488 0
M  V30 2652 H 258.667 -1.70342 2.46827 0
M  V30 2653 H 256.22 -0.856652 1.30733 0
M  V30 2654 H 256.955 -3.2194 0.390569 0
M  V30 2655 H 256.74 -3.26958 2.16428 0
M  V30 2656 H 258.23 -3.92606 1.42302 0
M  V30 2657 N 258.668 -1.30515 -0.883378 0
M  V30 2658 C 259.916 -1.19194 -1.63209 0
M  V30 2659 C 260.237 0.253205 -1.93349 0
M  V30 2660 O 259.507 1.17025 -1.57105 0
M  V30 2661 H 258.087 -0.438148 -0.605009 0
M  V30 2662 H 260.749 -1.63663 -1.05832 0
M  V30 2663 H 259.845 -1.75396 -2.58153 0
M  V30 2664 N 260.146 1.09593 -1.13257 0
M  V30 2665 C 261.395 1.81105 -0.887917 0
M  V30 2666 C 261.708 1.86563 0.587672 0
M  V30 2667 O 262.914 2.54367 0.949204 0
M  V30 2668 C 261.37 3.25338 -1.53895 0
M  V30 2669 C 260.978 3.28151 -3.04994 0
M  V30 2670 C 262.722 4.01617 -1.37492 0
M  V30 2671 C 260.629 4.66897 -3.6299 0
M  V30 2672 H 259.559 0.678661 -0.328534 0
M  V30 2673 H 262.21 1.23183 -1.36008 0
M  V30 2674 H 260.592 3.8331 -0.994446 0
M  V30 2675 H 261.766 2.79953 -3.66009 0
M  V30 2676 H 260.081 2.65361 -3.20893 0
M  V30 2677 H 262.678 5.04119 -1.78235 0
M  V30 2678 H 263.021 4.15072 -0.31957 0
M  V30 2679 H 263.554 3.50082 -1.88912 0
M  V30 2680 H 260.293 4.58643 -4.68323 0
M  V30 2681 H 259.813 5.15426 -3.06752 0
M  V30 2682 H 261.492 5.3587 -3.62563 0
M  V30 2683 N 261.624 0.925811 1.2754 0
M  V30 2684 C 262.587 0.428129 2.25166 0
M  V30 2685 C 263.587 -0.452261 1.54309 0
M  V30 2686 O 264.777 -0.253608 1.72344 0
M  V30 2687 C 261.909 -0.384749 3.38722 0
M  V30 2688 H 263.102 1.29066 2.70706 0
M  V30 2689 H 260.655 0.706323 1.3943 0
M  V30 2690 H 261.39 -1.26618 2.98561 0
M  V30 2691 H 261.175 0.246454 3.91325 0
M  V30 2692 H 262.665 -0.723389 4.11287 0
M  V30 2693 N 263.102 -1.41638 0.69111 0
M  V30 2694 C 264.05 -2.32597 0.0115199 0
M  V30 2695 C 265.044 -1.5072 -0.773296 0
M  V30 2696 O 266.25 -1.66685 -0.67942 0
M  V30 2697 H 262.625 -0.751849 -0.0150746 0
M  V30 2698 H 264.596 -2.87593 0.795791 0
M  V30 2699 C 263.345 -3.35467 -0.914172 0
M  V30 2700 H 262.668 -3.9852 -0.319687 0
M  V30 2701 H 264.108 -4.01662 -1.35808 0
M  V30 2702 C 262.567 -2.69004 -2.02826 0
M  V30 2703 O 263.097 -2.53444 -3.11655 0
M  V30 2704 N 261.303 -2.2777 -1.80469 0
M  V30 2705 H 260.85 -2.40626 -0.919615 0
M  V30 2706 H 260.808 -1.83635 -2.55197 0
M  V30 2707 N 264.58 -0.43555 -1.51462 0
M  V30 2708 C 265.49 0.383001 -2.31453 0
M  V30 2709 C 266.506 1.02931 -1.4029 0
M  V30 2710 O 267.682 1.02507 -1.73362 0
M  V30 2711 C 264.747 1.47043 -3.13973 0
M  V30 2712 C 263.808 0.844433 -4.20913 0
M  V30 2713 C 263.041 1.88004 -4.9949 0
M  V30 2714 O 263.264 3.10199 -4.78678 0
M  V30 2715 O 262.198 1.47157 -5.83634 0
M  V30 2716 H 266.024 -0.269964 -3.02498 0
M  V30 2717 H 263.609 -0.19813 -1.4808 0
M  V30 2718 H 265.491 2.10113 -3.65281 0
M  V30 2719 H 264.166 2.10751 -2.45695 0
M  V30 2720 H 263.073 0.175729 -3.73687 0
M  V30 2721 H 264.406 0.250869 -4.9156 0
M  V30 2722 N 266.058 1.56714 -0.166846 0
M  V30 2723 C 267.283 2.01557 0.488833 0
M  V30 2724 C 267.708 1.0463 1.56314 0
M  V30 2725 O 267.066 0.0251304 1.81283 0
M  V30 2726 C 267.114 3.4503 1.04818 0
M  V30 2727 O 266.218 3.51163 2.16236 0
M  V30 2728 H 265.559 0.653516 0.117526 0
M  V30 2729 H 268.089 2.02818 -0.269421 0
M  V30 2730 H 268.099 3.84243 1.37191 0
M  V30 2731 H 266.774 4.15077 0.261572 0
M  V30 2732 H 265.351 3.23807 1.84942 0
M  V30 2733 N 267.536 -0.106894 1.57237 0
M  V30 2734 C 268.483 -1.13049 2.01217 0
M  V30 2735 C 269.453 -1.40471 0.886403 0
M  V30 2736 O 270.638 -1.52133 1.15153 0
M  V30 2737 C 267.778 -2.4487 2.43172 0
M  V30 2738 C 266.891 -2.24281 3.69218 0
M  V30 2739 C 266.026 -3.49417 4.00101 0
M  V30 2740 C 265.065 -3.24038 5.19294 0
M  V30 2741 N 264.202 -4.41409 5.45988 0
M  V30 2742 H 269.042 -0.748456 2.88448 0
M  V30 2743 H 266.579 -0.358054 1.42676 0
M  V30 2744 H 268.537 -3.21786 2.65537 0
M  V30 2745 H 267.167 -2.80944 1.58967 0
M  V30 2746 H 266.219 -1.38224 3.54398 0
M  V30 2747 H 267.531 -2.01512 4.56283 0
M  V30 2748 H 266.685 -4.34746 4.2318 0
M  V30 2749 H 265.424 -3.75229 3.11535 0
M  V30 2750 H 264.429 -2.37102 4.96047 0
M  V30 2751 H 265.654 -2.99584 6.09447 0
M  V30 2752 H 263.6 -4.67319 4.60379 0
M  V30 2753 H 263.517 -4.21788 6.274 0
M  V30 2754 H 264.785 -5.27836 5.73593 0
M  V30 2755 N 269.014 -1.53014 -0.377408 0
M  V30 2756 C 269.961 -1.78616 -1.46168 0
M  V30 2757 C 270.931 -0.629917 -1.53692 0
M  V30 2758 O 272.116 -0.870861 -1.69766 0
M  V30 2759 C 269.256 -1.97123 -2.8326 0
M  V30 2760 C 268.369 -3.24831 -2.84796 0
M  V30 2761 C 267.504 -3.33591 -4.13389 0
M  V30 2762 C 266.543 -4.55377 -4.09021 0
M  V30 2763 N 265.68 -4.61355 -5.29241 0
M  V30 2764 H 270.52 -2.71142 -1.23637 0
M  V30 2765 H 268.057 -1.34326 -0.599577 0
M  V30 2766 H 270.015 -2.05839 -3.62886 0
M  V30 2767 H 268.645 -1.07946 -3.04216 0
M  V30 2768 H 267.697 -3.25128 -1.97474 0
M  V30 2769 H 269.009 -4.14523 -2.77439 0
M  V30 2770 H 268.163 -3.41554 -5.01424 0
M  V30 2771 H 266.902 -2.41894 -4.23484 0
M  V30 2772 H 265.907 -4.47527 -3.19373 0
M  V30 2773 H 267.132 -5.48402 -4.00539 0
M  V30 2774 H 265.078 -3.72554 -5.39944 0
M  V30 2775 H 264.995 -5.44935 -5.24006 0
M  V30 2776 H 266.263 -4.73586 -6.19141 0
M  V30 2777 N 270.492 0.636531 -1.44174 0
M  V30 2778 C 271.422 1.76003 -1.53444 0
M  V30 2779 C 272.403 1.65619 -0.387841 0
M  V30 2780 O 273.588 1.84461 -0.607257 0
M  V30 2781 C 270.718 3.14511 -1.4731 0
M  V30 2782 C 269.672 3.39677 -2.60391 0
M  V30 2783 C 268.998 4.78159 -2.39308 0
M  V30 2784 C 270.298 3.32772 -4.02567 0
M  V30 2785 H 271.992 1.68501 -2.47483 0
M  V30 2786 H 269.538 0.809237 -1.19111 0
M  V30 2787 H 271.491 3.92878 -1.52397 0
M  V30 2788 H 270.215 3.22783 -0.49785 0
M  V30 2789 H 268.874 2.63688 -2.54684 0
M  V30 2790 H 268.522 4.83128 -1.39988 0
M  V30 2791 H 268.222 4.95956 -3.15122 0
M  V30 2792 H 269.746 5.58762 -2.46205 0
M  V30 2793 H 271.16 4.01051 -4.09672 0
M  V30 2794 H 269.557 3.62104 -4.7854 0
M  V30 2795 H 270.627 2.30669 -4.2652 0
M  V30 2796 N 271.97 1.30982 0.876444 0
M  V30 2797 C 273.2 1.23063 1.65949 0
M  V30 2798 C 273.608 -0.207537 1.88058 0
M  V30 2799 O 272.951 -1.14781 1.43426 0
M  V30 2800 C 273.013 1.89768 3.05333 0
M  V30 2801 C 272.677 3.39106 3.0636 0
M  V30 2802 C 273.674 4.3496 2.84791 0
M  V30 2803 C 271.359 3.80693 3.27686 0
M  V30 2804 C 273.353 5.70375 2.84519 0
M  V30 2805 C 271.04 5.16223 3.27043 0
M  V30 2806 C 272.038 6.10875 3.05485 0
M  V30 2807 O 271.726 7.43928 3.04674 0
M  V30 2808 H 271.458 0.426685 0.524324 0
M  V30 2809 H 274.012 1.7329 1.10271 0
M  V30 2810 H 272.242 1.34082 3.6271 0
M  V30 2811 H 273.931 1.75853 3.65829 0
M  V30 2812 H 274.697 4.0416 2.68103 0
M  V30 2813 H 270.576 3.07457 3.43499 0
M  V30 2814 H 274.12 6.44228 2.67611 0
M  V30 2815 H 270.017 5.4666 3.43269 0
M  V30 2816 H 270.785 7.53022 3.2078 0
M  V30 2817 N 273.449 -1.08991 1.13837 0
M  V30 2818 C 274.697 -1.80899 0.901098 0
M  V30 2819 C 275.018 -1.86356 -0.574134 0
M  V30 2820 O 274.288 -1.35235 -1.41733 0
M  V30 2821 H 272.868 -0.669966 0.330386 0
M  V30 2822 H 275.53 -1.318 1.43578 0
M  V30 2823 H 274.626 -2.83929 1.29578 0
M  V30 2824 N 274.927 -0.932562 -1.27047 0
M  V30 2825 C 275.89 -0.440064 -2.24936 0
M  V30 2826 C 276.89 0.444071 -1.54547 0
M  V30 2827 O 278.08 0.244465 -1.72476 0
M  V30 2828 C 275.212 0.36678 -3.38921 0
M  V30 2829 H 276.405 -1.305 -2.70018 0
M  V30 2830 H 273.958 -0.713707 -1.39054 0
M  V30 2831 H 274.693 1.25033 -2.99228 0
M  V30 2832 H 274.478 -0.267204 -3.91188 0
M  V30 2833 H 275.968 0.701567 -4.11665 0
M  V30 2834 N 276.405 1.4127 -0.698611 0
M  V30 2835 C 277.337 2.292 0.00399731 0
M  V30 2836 C 278.35 1.44944 0.741279 0
M  V30 2837 O 279.539 1.68416 0.591477 0
M  V30 2838 C 276.639 3.22875 1.02979 0
M  V30 2839 C 275.812 4.35904 0.36151 0
M  V30 2840 C 274.871 5.10134 1.29033 0
M  V30 2841 O 273.897 5.63809 0.781562 0
M  V30 2842 N 275.099 5.17885 2.6225 0
M  V30 2843 H 277.864 2.9014 -0.750921 0
M  V30 2844 H 275.425 1.52455 -0.544882 0
M  V30 2845 H 277.417 3.69404 1.65296 0
M  V30 2846 H 275.987 2.63221 1.68622 0
M  V30 2847 H 275.207 3.91719 -0.441584 0
M  V30 2848 H 276.495 5.08696 -0.103055 0
M  V30 2849 H 275.893 4.7573 3.061 0
M  V30 2850 H 274.45 5.6798 3.19754 0
M  V30 2851 N 277.883 0.443576 1.51229 0
M  V30 2852 C 279.13 -0.120796 2.02139 0
M  V30 2853 C 279.458 -1.42166 1.32736 0
M  V30 2854 O 278.713 -1.90849 0.43301 0
M  V30 2855 C 279.012 -0.380579 3.55368 0
M  V30 2856 C 278.678 0.83523 4.43097 0
M  V30 2857 C 277.34 1.16864 4.66794 0
M  V30 2858 C 279.692 1.64601 4.94526 0
M  V30 2859 C 277.02 2.31339 5.39165 0
M  V30 2860 C 279.372 2.78181 5.68153 0
M  V30 2861 C 278.036 3.11969 5.90112 0
M  V30 2862 H 277.306 -0.0442023 0.73968 0
M  V30 2863 H 279.953 0.592046 1.82118 0
M  V30 2864 H 278.258 -1.17538 3.73754 0
M  V30 2865 H 279.955 -0.830777 3.923 0
M  V30 2866 H 276.545 0.565437 4.24854 0
M  V30 2867 H 280.729 1.40163 4.76097 0
M  V30 2868 H 275.985 2.57823 5.5438 0
M  V30 2869 H 280.159 3.41371 6.06992 0
M  V30 2870 H 277.786 4.00784 6.45969 0
M  V30 2871 N 279.361 -1.56624 0.175154 0
M  V30 2872 C 280.311 -2.14747 -0.766004 0
M  V30 2873 C 281.295 -1.08275 -1.19018 0
M  V30 2874 O 282.487 -1.34388 -1.15191 0
M  V30 2875 C 279.616 -2.79478 -1.99366 0
M  V30 2876 C 278.702 -3.93114 -1.5913 0
M  V30 2877 N 279.093 -4.97752 -0.89872 0
M  V30 2878 C 277.391 -4.04345 -1.88204 0
M  V30 2879 C 278.092 -5.77473 -0.700012 0
M  V30 2880 N 277.068 -5.29207 -1.24263 0
M  V30 2881 H 280.87 -2.93015 -0.22793 0
M  V30 2882 H 278.384 -1.6238 -0.0253843 0
M  V30 2883 H 280.381 -3.19498 -2.67818 0
M  V30 2884 H 279.041 -2.02692 -2.53665 0
M  V30 2885 H 280.052 -5.14903 -0.556347 0
M  V30 2886 H 276.729 -3.38667 -2.44153 0
M  V30 2887 H 278.119 -6.71728 -0.152047 0
M  V30 2888 N 280.839 0.0985539 -1.57292 0
M  V30 2889 C 282.25 0.653457 -1.74891 0
M  V30 2890 C 282.601 1.7929 -0.796838 0
M  V30 2891 O 281.726 2.16385 0.0254886 0
M  V30 2892 C 282.321 1.19216 -3.17133 0
M  V30 2893 C 280.88 1.69316 -3.36168 0
M  V30 2894 C 280.027 0.601294 -2.70702 0
M  V30 2895 H 282.978 -0.127497 -1.58187 0
M  V30 2896 H 282.999 2.06154 -3.19814 0
M  V30 2897 H 282.511 0.362635 -3.86402 0
M  V30 2898 H 280.612 2.5468 -2.71972 0
M  V30 2899 H 280.725 1.78853 -4.44464 0
M  V30 2900 H 279.089 1.0399 -2.32504 0
M  V30 2901 H 279.872 -0.217592 -3.4261 0
M  V30 2902 N 282.317 1.53212 0.369288 0
M  V30 2903 C 283.227 1.82342 1.47609 0
M  V30 2904 C 284.243 0.711532 1.58787 0
M  V30 2905 O 285.419 1.0012 1.74751 0
M  V30 2906 C 282.484 2.00393 2.8292 0
M  V30 2907 C 281.545 3.24297 2.81301 0
M  V30 2908 C 280.778 3.41478 4.10157 0
M  V30 2909 O 281.001 2.63033 5.06132 0
M  V30 2910 O 279.935 4.34817 4.16194 0
M  V30 2911 H 283.761 2.76366 1.25918 0
M  V30 2912 H 281.346 1.38547 0.559034 0
M  V30 2913 H 283.228 2.13859 3.63101 0
M  V30 2914 H 281.903 1.09559 3.04596 0
M  V30 2915 H 280.81 3.16257 1.99831 0
M  V30 2916 H 282.143 4.15041 2.64578 0
M  V30 2917 N 283.795 -0.628877 1.44509 0
M  V30 2918 C 285.041 -1.39045 1.47629 0
M  V30 2919 C 285.374 -1.93892 0.109343 0
M  V30 2920 O 284.649 -1.7379 -0.87334 0
M  V30 2921 C 284.932 -2.55408 2.53848 0
M  V30 2922 C 284.785 -2.05896 3.99909 0
M  V30 2923 C 286.104 -3.5759 2.56549 0
M  V30 2924 H 283.223 -0.504232 0.537512 0
M  V30 2925 H 285.865 -0.710854 1.76201 0
M  V30 2926 H 284.015 -3.13384 2.29615 0
M  V30 2927 H 285.687 -1.52734 4.35282 0
M  V30 2928 H 283.93 -1.37061 4.11578 0
M  V30 2929 H 284.601 -2.89681 4.69882 0
M  V30 2930 H 287.077 -3.09419 2.78207 0
M  V30 2931 H 285.953 -4.36527 3.32769 0
M  V30 2932 H 286.214 -4.11808 1.60832 0
M  V30 2933 N 285.273 -1.31445 -0.869486 0
M  V30 2934 C 286.521 -1.20918 -1.61936 0
M  V30 2935 C 286.842 0.232683 -1.93607 0
M  V30 2936 O 286.112 1.15352 -1.58338 0
M  V30 2937 H 284.692 -0.44454 -0.600328 0
M  V30 2938 H 287.354 -1.64776 -1.0409 0
M  V30 2939 H 286.45 -1.78124 -2.56278 0
M  V30 2940 N 286.751 1.08385 -1.14413 0
M  V30 2941 C 287.681 2.17321 -0.854044 0
M  V30 2942 C 288.662 1.69024 0.191049 0
M  V30 2943 O 289.847 1.94141 0.0476779 0
M  V30 2944 C 286.977 3.45719 -0.330983 0
M  V30 2945 C 285.931 4.07409 -1.31155 0
M  V30 2946 C 285.257 5.30762 -0.64778 0
M  V30 2947 C 286.557 4.48665 -2.67388 0
M  V30 2948 H 288.251 2.41845 -1.76498 0
M  V30 2949 H 285.797 1.16233 -0.850051 0
M  V30 2950 H 287.75 4.21241 -0.115645 0
M  V30 2951 H 286.474 3.2075 0.615381 0
M  V30 2952 H 285.133 3.33919 -1.51306 0
M  V30 2953 H 284.781 5.02078 0.304398 0
M  V30 2954 H 284.481 5.72992 -1.30207 0
M  V30 2955 H 286.005 6.08998 -0.441972 0
M  V30 2956 H 287.419 5.15364 -2.51143 0
M  V30 2957 H 285.816 5.01814 -3.29093 0
M  V30 2958 H 286.886 3.60543 -3.24248 0
M  V30 2959 N 288.23 0.939286 1.26551 0
M  V30 2960 C 289.458 0.602536 1.97932 0
M  V30 2961 C 289.873 -0.82206 1.69964 0
M  V30 2962 O 289.23 -1.54789 0.966784 0
M  V30 2963 C 289.281 0.832946 3.51773 0
M  V30 2964 O 289.002 2.20151 3.78768 0
M  V30 2965 C 290.503 0.506483 4.40397 0
M  V30 2966 H 287.723 0.227248 0.631347 0
M  V30 2967 H 290.267 1.25948 1.61113 0
M  V30 2968 H 288.422 0.222644 3.8676 0
M  V30 2969 H 288.836 2.26013 4.73306 0
M  V30 2970 H 290.31 0.718333 5.47306 0
M  V30 2971 H 290.787 -0.558451 4.35635 0
M  V30 2972 H 291.393 1.09543 4.10951 0
M  V30 2973 N 289.708 -1.40897 0.706093 0
M  V30 2974 C 290.618 -2.3455 0.0482286 0
M  V30 2975 C 291.634 -1.56796 -0.754396 0
M  V30 2976 O 292.81 -1.89228 -0.689538 0
M  V30 2977 C 289.875 -3.35625 -0.869303 0
M  V30 2978 C 288.936 -4.29261 -0.0576994 0
M  V30 2979 C 288.169 -5.25508 -0.931531 0
M  V30 2980 O 288.392 -5.27472 -2.17092 0
M  V30 2981 O 287.326 -6.00727 -0.375587 0
M  V30 2982 H 291.152 -2.92407 0.820476 0
M  V30 2983 H 288.737 -1.4193 0.4665 0
M  V30 2984 H 290.619 -3.97635 -1.39514 0
M  V30 2985 H 289.294 -2.80196 -1.62086 0
M  V30 2986 H 288.201 -3.70566 0.512988 0
M  V30 2987 H 289.534 -4.87817 0.655426 0
M  V30 2988 N 291.186 -0.45159 -1.50991 0
M  V30 2989 C 292.134 0.366864 -2.29689 0
M  V30 2990 C 293.128 1.00809 -1.36139 0
M  V30 2991 O 294.334 0.941427 -1.53418 0
M  V30 2992 H 290.709 0.137133 -0.739391 0
M  V30 2993 H 292.68 -0.317538 -2.96706 0
M  V30 2994 C 291.429 1.44751 -3.16137 0
M  V30 2995 H 290.752 0.963473 -3.88017 0
M  V30 2996 H 292.192 1.99315 -3.74232 0
M  V30 2997 C 290.651 2.43869 -2.32442 0
M  V30 2998 O 291.181 3.4872 -1.99392 0
M  V30 2999 N 289.387 2.15105 -1.95392 0
M  V30 3000 H 288.934 1.29866 -2.22469 0
M  V30 3001 H 288.892 2.81661 -1.39693 0
M  V30 3002 N 292.664 1.56529 -0.183458 0
M  V30 3003 C 293.912 1.96855 0.457452 0
M  V30 3004 C 294.233 1.07104 1.62953 0
M  V30 3005 O 293.503 0.139887 1.954 0
M  V30 3006 H 292.083 0.72693 0.171992 0
M  V30 3007 H 294.745 1.93056 -0.267476 0
M  V30 3008 H 293.841 3.01423 0.809368 0
M  V30 3009 N 294.142 -0.090211 1.57342 0
M  V30 3010 C 295.089 -1.10909 2.02405 0
M  V30 3011 C 296.059 -1.39523 0.901252 0
M  V30 3012 O 297.244 -1.50903 1.1676 0
M  V30 3013 C 294.384 -2.42277 2.45755 0
M  V30 3014 C 293.497 -2.20352 3.71576 0
M  V30 3015 C 292.632 -3.45154 4.03785 0
M  V30 3016 C 291.671 -3.18512 5.22701 0
M  V30 3017 N 290.808 -4.35593 5.50639 0
M  V30 3018 H 295.648 -0.71782 2.89225 0
M  V30 3019 H 293.185 -0.342901 1.43048 0
M  V30 3020 H 295.143 -3.18951 2.68935 0
M  V30 3021 H 293.773 -2.79242 1.61938 0
M  V30 3022 H 292.825 -1.34458 3.55844 0
M  V30 3023 H 294.137 -1.96661 4.58395 0
M  V30 3024 H 293.291 -4.30233 4.27767 0
M  V30 3025 H 292.03 -3.71904 3.15498 0
M  V30 3026 H 291.035 -2.31827 4.98534 0
M  V30 3027 H 292.26 -2.93103 6.12591 0
M  V30 3028 H 290.206 -4.6241 4.6531 0
M  V30 3029 H 290.123 -4.1511 6.31838 0
M  V30 3030 H 291.391 -5.21723 5.7916 0
M  V30 3031 N 295.62 -1.53406 -0.361157 0
M  V30 3032 C 296.866 -1.70054 -1.10496 0
M  V30 3033 C 297.199 -0.453278 -1.88836 0
M  V30 3034 O 296.474 0.5495 -1.86576 0
M  V30 3035 C 296.757 -2.95317 -2.06058 0
M  V30 3036 C 296.61 -4.3021 -1.31298 0
M  V30 3037 C 297.929 -3.16193 -3.06121 0
M  V30 3038 H 295.048 -0.618799 -0.400321 0
M  V30 3039 H 297.69 -1.86052 -0.385318 0
M  V30 3040 H 295.84 -2.81809 -2.67425 0
M  V30 3041 H 297.512 -4.55538 -0.726807 0
M  V30 3042 H 295.755 -4.29421 -0.614853 0
M  V30 3043 H 296.426 -5.14 -2.01265 0
M  V30 3044 H 298.902 -3.28916 -2.5486 0
M  V30 3045 H 297.778 -4.05266 -3.70204 0
M  V30 3046 H 298.039 -2.31676 -3.76535 0
M  V30 3047 N 297.098 0.621204 -1.44841 0
M  V30 3048 C 298.347 1.37658 -1.47422 0
M  V30 3049 C 298.66 1.95264 -0.114629 0
M  V30 3050 O 299.866 2.71494 -0.0180199 0
M  V30 3051 C 298.322 2.49285 -2.59586 0
M  V30 3052 C 297.93 1.98149 -4.01797 0
M  V30 3053 C 299.674 3.26409 -2.71399 0
M  V30 3054 C 297.581 3.07178 -5.05367 0
M  V30 3055 H 296.511 0.517344 -0.548517 0
M  V30 3056 H 299.162 0.667257 -1.70938 0
M  V30 3057 H 297.544 3.22839 -2.29328 0
M  V30 3058 H 298.718 1.31395 -4.41669 0
M  V30 3059 H 297.033 1.33812 -3.94314 0
M  V30 3060 H 299.63 4.07706 -3.45948 0
M  V30 3061 H 299.973 3.76535 -1.77559 0
M  V30 3062 H 300.506 2.5995 -3.01116 0
M  V30 3063 H 297.245 2.61985 -6.00869 0
M  V30 3064 H 296.765 3.72542 -4.70077 0
M  V30 3065 H 298.444 3.71789 -5.29511 0
M  V30 3066 N 298.576 1.31904 0.862503 0
M  V30 3067 C 299.506 1.22782 1.98612 0
M  V30 3068 C 300.487 0.113362 1.69722 0
M  V30 3069 O 301.672 0.299218 1.91881 0
M  V30 3070 C 298.802 0.942058 3.34279 0
M  V30 3071 C 297.756 2.0169 3.77499 0
M  V30 3072 C 297.082 1.58369 5.10709 0
M  V30 3073 C 298.382 3.43096 3.93805 0
M  V30 3074 H 300.076 2.16788 2.06502 0
M  V30 3075 H 297.622 1.04366 0.992154 0
M  V30 3076 H 299.575 0.864818 4.1243 0
M  V30 3077 H 298.299 -0.0336603 3.26583 0
M  V30 3078 H 296.958 2.08416 3.01593 0
M  V30 3079 H 296.606 0.595628 4.99461 0
M  V30 3080 H 296.306 2.30279 5.40597 0
M  V30 3081 H 297.83 1.52067 5.91361 0
M  V30 3082 H 299.244 3.39003 4.62331 0
M  V30 3083 H 297.641 4.13288 4.35101 0
M  V30 3084 H 298.711 3.83334 2.96957 0
M  V30 3085 N 300.054 -1.07777 1.14986 0
M  V30 3086 C 301.001 -2.14867 0.842672 0
M  V30 3087 C 301.971 -1.6486 -0.202552 0
M  V30 3088 O 303.156 -1.90668 -0.0710568 0
M  V30 3089 C 300.296 -3.43486 0.333363 0
M  V30 3090 C 299.409 -4.07306 1.43965 0
M  V30 3091 C 298.544 -5.23744 0.886914 0
M  V30 3092 C 297.583 -5.79517 1.97043 0
M  V30 3093 N 296.72 -6.87291 1.4344 0
M  V30 3094 H 301.56 -2.40485 1.75986 0
M  V30 3095 H 299.097 -1.1801 0.878179 0
M  V30 3096 H 301.055 -4.17195 0.0198163 0
M  V30 3097 H 299.685 -3.18133 -0.546916 0
M  V30 3098 H 298.737 -3.31293 1.86946 0
M  V30 3099 H 300.049 -4.44771 2.25788 0
M  V30 3100 H 299.203 -6.04419 0.525651 0
M  V30 3101 H 297.942 -4.87685 0.0377957 0
M  V30 3102 H 296.947 -4.97491 2.34057 0
M  V30 3103 H 298.172 -6.17632 2.82325 0
M  V30 3104 H 296.118 -6.5318 0.607567 0
M  V30 3105 H 296.035 -7.23617 2.18895 0
M  V30 3106 H 297.303 -7.71682 1.10124 0
M  V30 3107 N 301.532 -0.945985 -1.26051 0
M  V30 3108 C 302.48 -0.450259 -2.282 0
M  V30 3109 C 303.474 0.47497 -1.62605 0
M  V30 3110 O 304.68 0.352653 -1.76512 0
M  V30 3111 H 301.055 -0.127081 -0.741184 0
M  V30 3112 H 303.026 -1.32422 -2.67408 0
M  V30 3113 C 301.775 0.26467 -3.46691 0
M  V30 3114 H 301.098 -0.438123 -3.97392 0
M  V30 3115 H 302.538 0.575678 -4.20074 0
M  V30 3116 C 300.997 1.48416 -3.02447 0
M  V30 3117 O 301.527 2.58227 -3.07704 0
M  V30 3118 N 299.733 1.34243 -2.57735 0
M  V30 3119 H 299.28 0.448994 -2.53657 0
M  V30 3120 H 299.238 2.15957 -2.28495 0
M  V30 3121 N 303.011 1.40521 -0.713556 0
M  V30 3122 C 304.258 2.00923 -0.25219 0
M  V30 3123 C 304.586 1.56571 1.15395 0
M  V30 3124 O 303.841 0.775874 1.79663 0
M  V30 3125 C 304.14 3.56317 -0.278 0
M  V30 3126 C 303.806 4.20246 -1.63415 0
M  V30 3127 C 302.468 4.37422 -2.00538 0
M  V30 3128 C 304.82 4.55923 -2.52554 0
M  V30 3129 C 302.148 4.87558 -3.2635 0
M  V30 3130 C 304.5 5.07458 -3.77716 0
M  V30 3131 C 303.164 5.22843 -4.14959 0
M  V30 3132 H 302.434 0.735231 -0.0922829 0
M  V30 3133 H 305.081 1.68161 -0.916188 0
M  V30 3134 H 303.386 3.88976 0.469567 0
M  V30 3135 H 305.083 4.00883 0.0967819 0
M  V30 3136 H 301.673 4.07263 -1.33546 0
M  V30 3137 H 305.857 4.42291 -2.25149 0
M  V30 3138 H 301.113 4.97654 -3.55176 0
M  V30 3139 H 305.287 5.34041 -4.4696 0
M  V30 3140 H 302.914 5.61454 -5.12516 0
M  V30 3141 N 304.489 0.459591 1.5075 0
M  V30 3142 C 305.419 -0.330644 2.31147 0
M  V30 3143 C 306.4 -1.00087 1.37538 0
M  V30 3144 O 307.585 -1.00025 1.66459 0
M  V30 3145 C 304.715 -1.41958 3.16962 0
M  V30 3146 C 303.669 -0.871608 4.19031 0
M  V30 3147 C 302.995 -2.05797 4.9351 0
M  V30 3148 C 304.295 0.109251 5.22186 0
M  V30 3149 H 305.989 0.340336 2.97459 0
M  V30 3150 H 303.535 0.165119 1.4305 0
M  V30 3151 H 305.488 -1.9798 3.71997 0
M  V30 3152 H 304.212 -2.11917 2.48513 0
M  V30 3153 H 302.871 -0.333442 3.6508 0
M  V30 3154 H 302.519 -2.74427 4.21544 0
M  V30 3155 H 302.219 -1.6976 5.62544 0
M  V30 3156 H 303.743 -2.62331 5.51375 0
M  V30 3157 H 305.157 -0.361405 5.7216 0
M  V30 3158 H 303.554 0.383316 5.98875 0
M  V30 3159 H 304.624 1.03887 4.73641 0
M  V30 3160 N 305.967 -1.56429 0.191757 0
M  V30 3161 C 307.197 -2.01574 -0.452928 0
M  V30 3162 C 307.605 -1.07107 -1.55964 0
M  V30 3163 O 306.948 -0.067534 -1.83576 0
M  V30 3164 C 307.01 -3.43121 -1.07278 0
M  V30 3165 C 306.674 -4.56879 -0.105214 0
M  V30 3166 C 307.671 -5.15379 0.684149 0
M  V30 3167 C 305.356 -5.023 0.00489824 0
M  V30 3168 C 307.35 -6.17746 1.57062 0
M  V30 3169 C 305.037 -6.04511 0.894935 0
M  V30 3170 C 306.035 -6.62108 1.67637 0
M  V30 3171 O 305.723 -7.62335 2.55149 0
M  V30 3172 H 305.455 -0.665554 -0.118379 0
M  V30 3173 H 308.009 -2.03245 0.296737 0
M  V30 3174 H 306.239 -3.38425 -1.87097 0
M  V30 3175 H 307.928 -3.72093 -1.62177 0
M  V30 3176 H 308.694 -4.81157 0.609365 0
M  V30 3177 H 304.573 -4.57168 -0.593156 0
M  V30 3178 H 308.117 -6.6263 2.181 0
M  V30 3179 H 304.014 -6.38157 0.970847 0
M  V30 3180 H 304.782 -7.79741 2.48892 0
M  V30 3181 N 307.445 0.0818655 -1.57387 0
M  V30 3182 C 308.722 0.815343 -1.77796 0
M  V30 3183 C 309.102 1.96289 -0.77679 0
M  V30 3184 O 308.45 2.27691 0.192106 0
M  V30 3185 C 308.66 1.29765 -3.23978 0
M  V30 3186 C 310.008 1.7351 -3.8753 0
M  V30 3187 O 311.032 1.39356 -3.27808 0
M  V30 3188 O 309.891 2.36708 -4.92576 0
M  V30 3189 H 306.985 0.389914 -0.729312 0
M  V30 3190 H 309.531 0.0627213 -1.69584 0
M  V30 3191 H 308.303 0.47608 -3.88393 0
M  V30 3192 H 307.926 2.11189 -3.36875 0
M  V30 3193 N 308.923 1.53595 0.353017 0
M  V30 3194 C 310.172 1.69603 1.09168 0
M  V30 3195 C 310.485 0.460925 1.90092 0
M  V30 3196 O 311.691 0.501774 2.66823 0
M  V30 3197 C 310.147 2.99872 1.9901 0
M  V30 3198 C 309.755 4.30687 1.23339 0
M  V30 3199 C 311.499 3.25246 2.72792 0
M  V30 3200 C 309.406 5.52036 2.12156 0
M  V30 3201 H 308.336 0.631966 0.411261 0
M  V30 3202 H 310.987 1.80096 0.351802 0
M  V30 3203 H 309.369 2.83212 2.7678 0
M  V30 3204 H 310.543 4.58019 0.505456 0
M  V30 3205 H 308.858 4.11853 0.613663 0
M  V30 3206 H 311.455 4.13095 3.39495 0
M  V30 3207 H 311.798 2.41846 3.38846 0
M  V30 3208 H 312.331 3.42638 2.021 0
M  V30 3209 H 309.07 6.37951 1.50659 0
M  V30 3210 H 308.59 5.28966 2.82764 0
M  V30 3211 H 310.269 5.87313 2.71427 0
M  V30 3212 N 310.401 -0.613514 1.45168 0
M  V30 3213 C 311.364 -1.7065 1.53007 0
M  V30 3214 C 312.364 -1.5548 0.410184 0
M  V30 3215 O 313.554 -1.60656 0.673455 0
M  V30 3216 C 310.686 -3.09875 1.42093 0
M  V30 3217 H 311.879 -1.65068 2.50385 0
M  V30 3218 H 309.432 -0.828728 1.32521 0
M  V30 3219 H 310.167 -3.21039 0.458769 0
M  V30 3220 H 309.952 -3.22293 2.23315 0
M  V30 3221 H 311.442 -3.895 1.50598 0
M  V30 3222 N 311.879 -1.3236 -0.855495 0
M  V30 3223 C 313.127 -1.22629 -1.60644 0
M  V30 3224 C 313.448 0.212136 -1.93843 0
M  V30 3225 O 312.718 1.13666 -1.59552 0
M  V30 3226 H 311.298 -0.450882 -0.595579 0
M  V30 3227 H 313.96 -1.65871 -1.02337 0
M  V30 3228 H 313.056 -1.80832 -2.54374 0
M  V30 3229 N 313.357 1.07166 -1.15556 0
M  V30 3230 C 314.597 1.81391 -0.94216 0
M  V30 3231 C 314.961 1.84788 0.521272 0
M  V30 3232 O 316.162 2.54904 0.85307 0
M  V30 3233 C 314.433 3.22431 -1.54185 0
M  V30 3234 S 315.992 4.13379 -1.47183 0
M  V30 3235 H 312.81 0.624963 -0.339031 0
M  V30 3236 H 315.412 1.28725 -1.4714 0
M  V30 3237 H 314.116 3.17548 -2.59984 0
M  V30 3238 H 313.647 3.80172 -1.01156 0
M  V30 3239 H 315.662 4.94007 -0.466004 0
M  V30 3240 N 314.835 0.952656 1.25548 0
M  V30 3241 C 316.06 0.623025 1.97821 0
M  V30 3242 C 316.485 -0.7976 1.70352 0
M  V30 3243 O 315.843 -1.53905 0.958283 0
M  V30 3244 C 315.891 0.885532 3.49558 0
M  V30 3245 O 314.995 -0.0366641 4.12384 0
M  V30 3246 H 314.336 0.237082 0.620232 0
M  V30 3247 H 316.866 1.27871 1.59719 0
M  V30 3248 H 316.876 0.811009 3.99858 0
M  V30 3249 H 315.551 1.92094 3.6888 0
M  V30 3250 H 314.128 0.0898954 3.72792 0
M  V30 3251 N 316.313 -1.40141 0.720998 0
M  V30 3252 C 317.561 -2.0039 0.262323 0
M  V30 3253 C 317.882 -1.57469 -1.15015 0
M  V30 3254 O 317.152 -0.816582 -1.78069 0
M  V30 3255 H 315.732 -0.741063 0.093996 0
M  V30 3256 H 318.394 -1.71398 0.927835 0
M  V30 3257 H 317.49 -3.10658 0.299671 0
M  V30 3258 N 317.792 -0.46758 -1.50504 0
M  V30 3259 C 319.02 0.0864133 -2.06719 0
M  V30 3260 C 319.435 1.33819 -1.33184 0
M  V30 3261 O 318.792 1.78061 -0.400083 0
M  V30 3262 C 318.843 0.378079 -3.59517 0
M  V30 3263 O 318.564 -0.824044 -4.3028 0
M  V30 3264 C 320.065 0.979426 -4.32345 0
M  V30 3265 H 317.285 -0.00551697 -0.670977 0
M  V30 3266 H 319.829 -0.655354 -1.93715 0
M  V30 3267 H 317.984 1.06977 -3.72337 0
M  V30 3268 H 318.398 -0.566518 -5.21432 0
M  V30 3269 H 319.872 1.1333 -5.40241 0
M  V30 3270 H 320.349 1.9686 -3.9261 0
M  V30 3271 H 320.955 0.326216 -4.24047 0
M  V30 3272 N 319.27 1.56325 -0.20005 0
M  V30 3273 C 320.517 1.97719 0.437411 0
M  V30 3274 C 320.845 1.08709 1.61284 0
M  V30 3275 O 320.1 0.127261 1.95286 0
M  V30 3276 C 320.399 3.4495 0.935103 0
M  V30 3277 C 320.065 4.5072 -0.12749 0
M  V30 3278 C 318.727 4.79368 -0.419451 0
M  V30 3279 C 321.079 5.14268 -0.847231 0
M  V30 3280 C 318.407 5.68854 -1.43604 0
M  V30 3281 C 320.759 6.04852 -1.85301 0
M  V30 3282 C 319.423 6.31855 -2.15211 0
M  V30 3283 H 318.693 0.723507 0.16006 0
M  V30 3284 H 321.34 1.89166 -0.298056 0
M  V30 3285 H 319.645 3.50599 1.74894 0
M  V30 3286 H 321.342 3.74337 1.43781 0
M  V30 3287 H 317.932 4.28458 0.11023 0
M  V30 3288 H 322.116 4.92222 -0.634901 0
M  V30 3289 H 317.372 5.88047 -1.67364 0
M  V30 3290 H 321.546 6.53152 -2.41591 0
M  V30 3291 H 319.173 7.00994 -2.94129 0
M  V30 3292 N 320.748 -0.0735177 1.57428 0
M  V30 3293 C 321.976 -0.785969 1.9139 0
M  V30 3294 C 322.391 -1.71207 0.795847 0
M  V30 3295 O 321.748 -1.81033 -0.230915 0
M  V30 3296 C 321.799 -1.58107 3.25091 0
M  V30 3297 O 321.52 -0.6922 4.32597 0
M  V30 3298 C 323.021 -2.39467 3.73055 0
M  V30 3299 H 320.241 -0.223558 0.632663 0
M  V30 3300 H 322.785 -0.044302 2.04452 0
M  V30 3301 H 320.94 -2.27503 3.13562 0
M  V30 3302 H 321.354 -1.24504 5.09508 0
M  V30 3303 H 322.828 -2.90716 4.69242 0
M  V30 3304 H 323.305 -3.18913 3.01979 0
M  V30 3305 H 323.911 -1.7523 3.87523 0
M  V30 3306 N 322.226 -1.5378 -0.344866 0
M  V30 3307 C 323.472 -1.71216 -1.08687 0
M  V30 3308 C 323.805 -0.473281 -1.88345 0
M  V30 3309 O 323.08 0.52968 -1.87149 0
M  V30 3310 C 323.363 -2.97486 -2.02914 0
M  V30 3311 C 323.216 -4.31579 -1.26727 0
M  V30 3312 C 324.535 -3.19422 -3.0275 0
M  V30 3313 H 321.654 -0.62301 -0.393735 0
M  V30 3314 H 324.296 -1.8645 -0.365563 0
M  V30 3315 H 322.446 -2.84629 -2.64421 0
M  V30 3316 H 324.118 -4.56284 -0.67845 0
M  V30 3317 H 322.361 -4.30049 -0.569273 0
M  V30 3318 H 323.032 -5.16106 -1.95803 0
M  V30 3319 H 325.508 -3.316 -2.51357 0
M  V30 3320 H 324.384 -4.09169 -3.65885 0
M  V30 3321 H 324.645 -2.35656 -3.74057 0
M  V30 3322 N 323.704 0.605807 -1.45491 0
M  V30 3323 C 324.636 1.73031 -1.5031 0
M  V30 3324 C 325.649 1.57968 -0.393687 0
M  V30 3325 O 326.838 1.65817 -0.660839 0
M  V30 3326 C 323.938 3.11049 -1.34543 0
M  V30 3327 C 323.111 3.52334 -2.59189 0
M  V30 3328 C 322.17 4.69323 -2.37954 0
M  V30 3329 O 321.196 4.7635 -3.11575 0
M  V30 3330 N 322.398 5.62705 -1.4263 0
M  V30 3331 H 325.163 1.6936 -2.4726 0
M  V30 3332 H 322.724 0.79114 -1.41254 0
M  V30 3333 H 324.716 3.87071 -1.18144 0
M  V30 3334 H 323.286 3.09217 -0.458623 0
M  V30 3335 H 322.506 2.66256 -2.90691 0
M  V30 3336 H 323.794 3.76677 -3.42041 0
M  V30 3337 H 323.192 5.59744 -0.818758 0
M  V30 3338 H 321.749 6.38252 -1.32202 0
M  V30 3339 N 325.182 1.32811 0.848464 0
M  V30 3340 C 326.13 1.22231 1.97895 0
M  V30 3341 C 327.124 0.125749 1.68933 0
M  V30 3342 O 328.33 0.289083 1.77663 0
M  V30 3343 H 324.705 0.379058 0.649476 0
M  V30 3344 H 326.676 2.17828 2.03945 0
M  V30 3345 C 325.425 0.968572 3.33937 0
M  V30 3346 H 324.748 1.80458 3.56756 0
M  V30 3347 H 326.188 0.934808 4.13567 0
M  V30 3348 C 324.647 -0.328628 3.35293 0
M  V30 3349 O 325.177 -1.33848 3.78745 0
M  V30 3350 N 323.383 -0.352788 2.88451 0
M  V30 3351 H 322.93 0.469541 2.53285 0
M  V30 3352 H 322.888 -1.22057 2.89741 0
M  V30 3353 N 326.66 -1.06551 1.16123 0
M  V30 3354 C 328.076 -1.3142 0.905585 0
M  V30 3355 C 328.276 -1.96571 -0.442964 0
M  V30 3356 O 327.332 -2.23068 -1.18308 0
M  V30 3357 C 328.645 -2.19741 2.05267 0
M  V30 3358 C 330.193 -2.33165 2.08813 0
M  V30 3359 C 330.668 -3.24838 3.22868 0
M  V30 3360 N 332.159 -3.32421 3.22568 0
M  V30 3361 C 332.894 -4.0344 4.0746 0
M  V30 3362 N 332.39 -4.77003 5.02434 0
M  V30 3363 N 334.183 -3.99464 3.95456 0
M  V30 3364 H 326.334 -0.626548 2.02949 0
M  V30 3365 H 328.597 -0.338777 0.8854 0
M  V30 3366 H 328.303 -1.79142 3.02657 0
M  V30 3367 H 328.177 -3.20313 1.99198 0
M  V30 3368 H 330.564 -2.73013 1.12018 0
M  V30 3369 H 330.645 -1.3227 2.18948 0
M  V30 3370 H 330.289 -2.85708 4.19921 0
M  V30 3371 H 330.219 -4.25707 3.0997 0
M  V30 3372 H 332.71 -2.79994 2.53795 0
M  V30 3373 H 333.023 -5.28712 5.63634 0
M  V30 3374 H 331.368 -4.75992 5.06415 0
M  V30 3375 H 334.559 -3.4111 3.20564 0
M  V30 3376 H 334.732 -4.54544 4.61837 0
M  V30 3377 N 328.138 -0.959301 -1.25041 0
M  V30 3378 C 329.048 -0.489994 -2.29426 0
M  V30 3379 C 330.064 0.444944 -1.68215 0
M  V30 3380 O 331.24 0.320046 -1.98841 0
M  V30 3381 C 328.305 0.220309 -3.45999 0
M  V30 3382 C 327.366 -0.753418 -4.22637 0
M  V30 3383 C 326.599 -0.076918 -5.33645 0
M  V30 3384 O 326.822 1.13649 -5.58963 0
M  V30 3385 O 325.756 -0.764824 -5.97021 0
M  V30 3386 H 329.582 -1.35755 -2.71669 0
M  V30 3387 H 327.167 -0.725961 -1.30576 0
M  V30 3388 H 329.049 0.619677 -4.16819 0
M  V30 3389 H 327.724 1.06296 -3.0575 0
M  V30 3390 H 326.631 -1.20308 -3.54227 0
M  V30 3391 H 327.964 -1.56423 -4.66683 0
M  V30 3392 N 329.616 1.39756 -0.72842 0
M  V30 3393 C 330.546 2.33289 -0.0991354 0
M  V30 3394 C 331.527 1.53568 0.731489 0
M  V30 3395 O 332.712 1.81987 0.677807 0
M  V30 3396 C 329.842 3.3763 0.813834 0
M  V30 3397 C 328.796 4.2791 0.0878663 0
M  V30 3398 C 328.122 5.22894 1.11741 0
M  V30 3399 C 329.422 5.11314 -1.06563 0
M  V30 3400 H 331.116 2.86163 -0.880408 0
M  V30 3401 H 328.662 1.37591 -0.424819 0
M  V30 3402 H 330.615 4.0201 1.26355 0
M  V30 3403 H 329.339 2.83181 1.62715 0
M  V30 3404 H 327.998 3.65 -0.342159 0
M  V30 3405 H 327.646 4.64744 1.92412 0
M  V30 3406 H 327.346 5.84143 0.636477 0
M  V30 3407 H 328.87 5.90151 1.56697 0
M  V30 3408 H 330.284 5.69076 -0.694671 0
M  V30 3409 H 328.681 5.81671 -1.47577 0
M  V30 3410 H 329.751 4.46534 -1.89038 0
M  V30 3411 N 331.094 0.475555 1.50254 0
M  V30 3412 C 332.004 -0.321501 2.32387 0
M  V30 3413 C 333.02 -0.991755 1.42969 0
M  V30 3414 O 334.196 -0.978747 1.76018 0
M  V30 3415 C 331.261 -1.38667 3.17762 0
M  V30 3416 C 330.322 -0.732538 4.23004 0
M  V30 3417 C 329.555 -1.74695 5.04299 0
M  V30 3418 O 329.778 -2.97399 4.86734 0
M  V30 3419 O 328.712 -1.31631 5.8733 0
M  V30 3420 H 332.538 0.350071 3.01676 0
M  V30 3421 H 330.123 0.237321 1.47503 0
M  V30 3422 H 332.005 -2.00354 3.70724 0
M  V30 3423 H 330.68 -2.04163 2.51196 0
M  V30 3424 H 329.587 -0.0765902 3.74022 0
M  V30 3425 H 330.92 -0.120452 4.92053 0
M  V30 3426 N 332.573 -1.56217 0.208337 0
M  V30 3427 C 333.813 -1.99849 -0.428927 0
M  V30 3428 C 334.177 -1.09262 -1.57879 0
M  V30 3429 O 335.378 -1.42185 -2.28116 0
M  V30 3430 C 333.649 -3.46777 -0.864879 0
M  V30 3431 S 335.208 -4.12434 -1.49811 0
M  V30 3432 H 332.026 -0.697742 -0.136665 0
M  V30 3433 H 334.628 -1.92953 0.314519 0
M  V30 3434 H 333.332 -4.10396 -0.0181326 0
M  V30 3435 H 332.863 -3.57518 -1.64147 0
M  V30 3436 H 334.878 -4.10532 -2.78707 0
M  V30 3437 N 334.051 0.0651679 -1.57465 0
M  V30 3438 C 335.3 0.761916 -1.86756 0
M  V30 3439 C 335.613 1.78406 -0.801925 0
M  V30 3440 O 336.819 2.53084 -0.982885 0
M  V30 3441 C 335.275 1.40603 -3.31299 0
M  V30 3442 C 334.883 0.422115 -4.46007 0
M  V30 3443 C 336.627 2.08476 -3.69781 0
M  V30 3444 C 334.534 1.07252 -5.81593 0
M  V30 3445 H 333.464 0.288308 -0.696702 0
M  V30 3446 H 336.115 0.015344 -1.83494 0
M  V30 3447 H 334.497 2.20109 -3.29193 0
M  V30 3448 H 335.671 -0.343613 -4.59517 0
M  V30 3449 H 333.986 -0.152527 -4.16121 0
M  V30 3450 H 336.583 2.57925 -4.68379 0
M  V30 3451 H 336.926 2.88712 -2.99919 0
M  V30 3452 H 337.459 1.35792 -3.73905 0
M  V30 3453 H 334.198 0.310342 -6.54765 0
M  V30 3454 H 333.718 1.80895 -5.71872 0
M  V30 3455 H 335.397 1.59043 -6.27148 0
M  V30 3456 N 335.529 1.53961 0.336706 0
M  V30 3457 C 336.945 1.44378 0.680241 0
M  V30 3458 C 337.145 0.606034 1.9217 0
M  V30 3459 O 336.201 0.099688 2.52303 0
M  V30 3460 C 337.514 2.87945 0.8665 0
M  V30 3461 C 339.062 2.97763 0.964682 0
M  V30 3462 C 339.537 4.42453 1.18321 0
M  V30 3463 N 341.028 4.46008 1.25025 0
M  V30 3464 C 341.763 5.55102 1.43697 0
M  V30 3465 N 341.259 6.7419 1.59498 0
M  V30 3466 N 343.052 5.42727 1.463 0
M  V30 3467 H 335.203 2.06918 -0.479455 0
M  V30 3468 H 337.466 0.935634 -0.152619 0
M  V30 3469 H 337.172 3.51691 0.0256937 0
M  V30 3470 H 337.046 3.33293 1.76623 0
M  V30 3471 H 339.433 2.34153 1.796 0
M  V30 3472 H 339.514 2.55766 0.041708 0
M  V30 3473 H 339.158 5.06645 0.356788 0
M  V30 3474 H 339.088 4.82048 2.11985 0
M  V30 3475 H 341.579 3.60196 1.14312 0
M  V30 3476 H 341.892 7.53095 1.734 0
M  V30 3477 H 340.237 6.77123 1.56621 0
M  V30 3478 H 343.428 4.48647 1.33543 0
M  V30 3479 H 343.601 6.27806 1.6051 0
M  V30 3480 N 337.007 -0.598083 1.45811 0
M  V30 3481 C 337.917 -1.73632 1.57763 0
M  V30 3482 C 338.933 -1.67763 0.461676 0
M  V30 3483 O 340.109 -1.87949 0.723685 0
M  V30 3484 C 337.174 -3.10114 1.55018 0
M  V30 3485 C 336.235 -3.27364 2.77726 0
M  V30 3486 C 335.468 -4.57334 2.75102 0
M  V30 3487 O 335.691 -5.40258 1.8297 0
M  V30 3488 O 334.625 -4.77502 3.66437 0
M  V30 3489 H 338.451 -1.66498 2.53992 0
M  V30 3490 H 336.036 -0.763308 1.28429 0
M  V30 3491 H 337.918 -3.9141 1.56129 0
M  V30 3492 H 336.593 -3.17718 0.619431 0
M  V30 3493 H 335.5 -2.45619 2.82174 0
M  V30 3494 H 336.833 -3.24641 3.69958 0
M  V30 3495 N 338.485 -1.33259 -0.841409 0
M  V30 3496 C 339.734 -1.23921 -1.59143 0
M  V30 3497 C 340.047 0.1941 -1.94635 0
M  V30 3498 O 341.253 0.409474 -2.68394 0
M  V30 3499 C 339.709 -2.17119 -2.87032 0
M  V30 3500 C 339.317 -3.65606 -2.58914 0
M  V30 3501 C 341.061 -2.16648 -3.65053 0
M  V30 3502 C 338.968 -4.50726 -3.82884 0
M  V30 3503 H 337.898 -0.460264 -0.597221 0
M  V30 3504 H 340.549 -1.58307 -0.927959 0
M  V30 3505 H 338.931 -1.75663 -3.54906 0
M  V30 3506 H 340.105 -4.15487 -1.99267 0
M  V30 3507 H 338.42 -3.68341 -1.942 0
M  V30 3508 H 341.017 -2.77474 -4.57069 0
M  V30 3509 H 341.36 -1.16088 -3.99787 0
M  V30 3510 H 341.893 -2.56453 -3.041 0
M  V30 3511 H 338.632 -5.52151 -3.53283 0
M  V30 3512 H 338.152 -4.0559 -4.41879 0
M  V30 3513 H 339.831 -4.64401 -4.50489 0
M  V30 3514 N 339.963 1.05934 -1.16686 0
M  V30 3515 C 340.91 2.13499 -0.876748 0
M  V30 3516 C 341.88 1.65162 0.176299 0
M  V30 3517 O 343.065 1.90757 0.0407143 0
M  V30 3518 C 340.205 3.42912 -0.387967 0
M  V30 3519 C 339.318 4.04964 -1.50426 0
M  V30 3520 C 338.453 5.22266 -0.970125 0
M  V30 3521 C 337.492 5.76309 -2.06238 0
M  V30 3522 N 336.629 6.84922 -1.54356 0
M  V30 3523 H 341.469 2.37654 -1.7979 0
M  V30 3524 H 339.006 1.16598 -0.896843 0
M  V30 3525 H 340.964 4.17111 -0.086186 0
M  V30 3526 H 339.594 3.18963 0.496235 0
M  V30 3527 H 338.646 3.28277 -1.92193 0
M  V30 3528 H 339.958 4.41122 -2.32836 0
M  V30 3529 H 339.112 6.03506 -0.621743 0
M  V30 3530 H 337.851 4.87564 -0.115377 0
M  V30 3531 H 336.856 4.93704 -2.41942 0
M  V30 3532 H 338.081 6.13062 -2.92115 0
M  V30 3533 H 336.027 6.52131 -0.711406 0
M  V30 3534 H 335.944 7.20043 -2.30379 0
M  V30 3535 H 337.212 7.69832 -1.22387 0
M  V30 3536 N 341.441 0.965919 1.2453 0
M  V30 3537 C 342.351 0.502154 2.29163 0
M  V30 3538 C 343.367 -0.436017 1.68448 0
M  V30 3539 O 344.543 -0.309497 1.99008 0
M  V30 3540 C 341.608 -0.201956 3.46111 0
M  V30 3541 C 340.669 0.775821 4.22232 0
M  V30 3542 C 339.902 0.105217 5.33596 0
M  V30 3543 O 340.125 -1.10683 5.59558 0
M  V30 3544 O 339.059 0.796475 5.96607 0
M  V30 3545 H 342.885 1.37194 2.70946 0
M  V30 3546 H 340.47 0.732875 1.30189 0
M  V30 3547 H 342.352 -0.597564 4.17142 0
M  V30 3548 H 341.027 -1.04673 3.06309 0
M  V30 3549 H 339.934 1.22185 3.53584 0
M  V30 3550 H 341.267 1.58896 4.65846 0
M  V30 3551 N 342.919 -1.39368 0.735821 0
M  V30 3552 C 344.335 -1.54204 0.411492 0
M  V30 3553 C 344.535 -1.70268 -1.07755 0
M  V30 3554 O 343.591 -1.70364 -1.86366 0
M  V30 3555 C 344.904 -2.75925 1.19523 0
M  V30 3556 C 346.452 -2.89761 1.18354 0
M  V30 3557 C 346.927 -4.14421 1.94986 0
M  V30 3558 N 348.418 -4.21462 1.92156 0
M  V30 3559 C 349.153 -5.16871 2.48258 0
M  V30 3560 N 348.649 -6.18063 3.13001 0
M  V30 3561 N 350.442 -5.09093 2.38287 0
M  V30 3562 H 342.593 -1.27189 1.70108 0
M  V30 3563 H 344.856 -0.616517 0.720147 0
M  V30 3564 H 344.562 -2.70401 2.24892 0
M  V30 3565 H 344.436 -3.68614 0.800222 0
M  V30 3566 H 346.823 -2.94777 0.137975 0
M  V30 3567 H 346.904 -1.98133 1.61793 0
M  V30 3568 H 346.548 -4.10166 2.99543 0
M  V30 3569 H 346.478 -5.05095 1.48953 0
M  V30 3570 H 348.969 -3.48979 1.44991 0
M  V30 3571 H 349.282 -6.87326 3.53275 0
M  V30 3572 H 347.627 -6.18448 3.17091 0
M  V30 3573 H 350.818 -4.28973 1.8735 0
M  V30 3574 H 350.991 -5.83272 2.82308 0
M  V30 3575 N 344.397 -0.483516 -1.5 0
M  V30 3576 C 345.643 0.0672592 -2.02688 0
M  V30 3577 C 345.976 1.38247 -1.36387 0
M  V30 3578 O 345.251 1.88131 -0.493675 0
M  V30 3579 C 345.534 0.238109 -3.59312 0
M  V30 3580 C 345.387 -1.099 -4.36168 0
M  V30 3581 C 346.706 0.986916 -4.28892 0
M  V30 3582 H 343.825 0.0229696 -0.736642 0
M  V30 3583 H 346.467 -0.631527 -1.79197 0
M  V30 3584 H 344.617 0.8333 -3.79458 0
M  V30 3585 H 346.289 -1.73172 -4.27562 0
M  V30 3586 H 344.532 -1.69261 -3.99416 0
M  V30 3587 H 345.203 -0.932954 -5.44059 0
M  V30 3588 H 347.679 0.482302 -4.13295 0
M  V30 3589 H 346.555 1.07527 -5.38265 0
M  V30 3590 H 346.816 2.0265 -3.92919 0
M  V30 3591 N 345.875 1.56104 -0.216619 0
M  V30 3592 C 347.123 1.97781 0.415593 0
M  V30 3593 C 347.444 1.10536 1.60645 0
M  V30 3594 O 346.714 0.181303 1.95059 0
M  V30 3595 H 345.294 0.730415 0.156534 0
M  V30 3596 H 347.956 1.92445 -0.308366 0
M  V30 3597 H 347.052 3.03072 0.74525 0
M  V30 3598 N 347.353 -0.0568162 1.57498 0
M  V30 3599 C 348.581 -0.765626 1.92213 0
M  V30 3600 C 348.996 -1.70353 0.813961 0
M  V30 3601 O 348.353 -1.81268 -0.211701 0
M  V30 3602 C 348.404 -1.5465 3.2675 0
M  V30 3603 O 348.125 -0.646278 4.33307 0
M  V30 3604 C 349.626 -2.35497 3.75574 0
M  V30 3605 H 346.846 -0.216835 0.634999 0
M  V30 3606 H 349.39 -0.0226146 2.04487 0
M  V30 3607 H 347.545 -2.24165 3.15957 0
M  V30 3608 H 347.959 -1.19093 5.108 0
M  V30 3609 H 349.433 -2.85722 4.72299 0
M  V30 3610 H 349.91 -3.15692 3.05344 0
M  V30 3611 H 350.516 -1.7111 3.8936 0
M  V30 3612 N 348.832 -1.54138 -0.328536 0
M  V30 3613 C 350.057 -1.76378 -1.09112 0
M  V30 3614 C 350.482 -0.508596 -1.81094 0
M  V30 3615 O 349.84 0.539598 -1.73084 0
M  V30 3616 C 349.888 -2.95358 -2.06872 0
M  V30 3617 O 348.992 -2.66556 -3.14677 0
M  V30 3618 H 348.333 -0.584614 -0.314838 0
M  V30 3619 H 350.863 -2.01146 -0.374348 0
M  V30 3620 H 350.873 -3.22566 -2.4983 0
M  V30 3621 H 349.548 -3.86385 -1.5388 0
M  V30 3622 H 348.125 -2.50282 -2.7643 0
M  V30 3623 N 350.31 0.590341 -1.46126 0
M  V30 3624 C 351.257 1.69994 -1.56111 0
M  V30 3625 C 352.227 1.61065 -0.405867 0
M  V30 3626 O 353.412 1.8039 -0.621613 0
M  V30 3627 C 350.552 3.08326 -1.55013 0
M  V30 3628 C 349.665 3.27936 -2.81215 0
M  V30 3629 C 348.8 4.56473 -2.71673 0
M  V30 3630 C 347.839 4.694 -3.92849 0
M  V30 3631 N 346.976 5.89254 -3.81738 0
M  V30 3632 H 351.816 1.60797 -2.50895 0
M  V30 3633 H 349.353 0.783799 -1.24479 0
M  V30 3634 H 351.311 3.88383 -1.52362 0
M  V30 3635 H 349.941 3.16439 -0.637667 0
M  V30 3636 H 348.993 2.41536 -2.93879 0
M  V30 3637 H 350.305 3.33357 -3.71045 0
M  V30 3638 H 349.459 5.44748 -2.67085 0
M  V30 3639 H 348.198 4.53477 -1.7947 0
M  V30 3640 H 347.203 3.79544 -3.97777 0
M  V30 3641 H 348.428 4.7418 -4.86138 0
M  V30 3642 H 346.374 5.87271 -2.92317 0
M  V30 3643 H 346.291 5.95911 -4.65217 0
M  V30 3644 H 347.559 6.79981 -3.81112 0
M  V30 3645 N 351.788 1.33704 0.83433 0
M  V30 3646 C 353.034 1.25603 1.59222 0
M  V30 3647 C 353.367 -0.176659 1.93395 0
M  V30 3648 O 352.642 -1.11915 1.59076 0
M  V30 3649 C 352.925 2.13576 2.89926 0
M  V30 3650 C 352.778 3.65326 2.62406 0
M  V30 3651 C 354.097 2.01238 3.91397 0
M  V30 3652 H 351.216 0.457613 0.577719 0
M  V30 3653 H 353.858 1.63848 0.961972 0
M  V30 3654 H 352.008 1.8109 3.43713 0
M  V30 3655 H 353.68 4.08124 2.15017 0
M  V30 3656 H 351.923 3.8698 1.96033 0
M  V30 3657 H 352.594 4.22232 3.55562 0
M  V30 3658 H 355.07 2.29738 3.46929 0
M  V30 3659 H 353.946 2.65036 4.80673 0
M  V30 3660 H 354.207 0.985951 4.30966 0
M  V30 3661 N 353.266 -1.05314 1.17247 0
M  V30 3662 C 354.196 -2.1498 0.911362 0
M  V30 3663 C 355.177 -1.69471 -0.146169 0
M  V30 3664 O 356.362 -1.942 0.003812 0
M  V30 3665 C 353.492 -3.4472 0.422528 0
M  V30 3666 C 352.446 -4.03789 1.4191 0
M  V30 3667 C 351.772 -5.28858 0.788274 0
M  V30 3668 C 353.072 -4.41418 2.7919 0
M  V30 3669 H 354.766 -2.3708 1.82848 0
M  V30 3670 H 352.312 -1.13938 0.880569 0
M  V30 3671 H 354.265 -4.20787 0.227289 0
M  V30 3672 H 352.989 -3.22269 -0.530123 0
M  V30 3673 H 351.648 -3.2979 1.60106 0
M  V30 3674 H 351.296 -5.02709 -0.171173 0
M  V30 3675 H 350.996 -5.69338 1.45353 0
M  V30 3676 H 352.52 -6.07612 0.603282 0
M  V30 3677 H 353.934 -5.08524 2.64719 0
M  V30 3678 H 352.331 -4.92913 3.42282 0
M  V30 3679 H 353.401 -3.51819 3.33693 0
M  V30 3680 N 354.744 -0.972509 -1.24016 0
M  V30 3681 C 355.99 -0.637978 -1.92504 0
M  V30 3682 C 356.323 0.825383 -1.75787 0
M  V30 3683 O 355.598 1.59442 -1.11393 0
M  V30 3684 C 355.881 -1.01942 -3.45369 0
M  V30 3685 C 355.734 -2.53983 -3.71231 0
M  V30 3686 C 357.053 -0.55751 -4.36555 0
M  V30 3687 H 354.172 -0.233248 -0.699117 0
M  V30 3688 H 356.814 -1.21238 -1.46292 0
M  V30 3689 H 354.964 -0.530656 -3.84859 0
M  V30 3690 H 356.636 -3.10374 -3.41271 0
M  V30 3691 H 354.879 -2.96968 -3.16216 0
M  V30 3692 H 355.55 -2.75723 -4.78206 0
M  V30 3693 H 358.026 -0.977029 -4.04467 0
M  V30 3694 H 356.902 -0.85292 -5.42233 0
M  V30 3695 H 357.163 0.542328 -4.38761 0
M  V30 3696 N 356.222 1.38976 -0.743202 0
M  V30 3697 C 357.152 2.33171 -0.123873 0
M  V30 3698 C 358.133 1.54336 0.71516 0
M  V30 3699 O 359.318 1.82696 0.658467 0
M  V30 3700 C 356.448 3.38474 0.777978 0
M  V30 3701 C 355.402 4.27979 0.0424758 0
M  V30 3702 C 354.728 5.2405 1.06189 0
M  V30 3703 C 356.028 5.10155 -1.1198 0
M  V30 3704 H 357.722 2.85213 -0.910709 0
M  V30 3705 H 355.268 1.37133 -0.439388 0
M  V30 3706 H 357.221 4.03328 1.22084 0
M  V30 3707 H 355.945 2.84891 1.59702 0
M  V30 3708 H 354.604 3.64616 -0.380853 0
M  V30 3709 H 354.252 4.66758 1.87472 0
M  V30 3710 H 353.952 5.84785 0.574485 0
M  V30 3711 H 355.476 5.9178 1.50428 0
M  V30 3712 H 356.89 5.68307 -0.75499 0
M  V30 3713 H 355.287 5.80073 -1.53738 0
M  V30 3714 H 356.357 4.44504 -1.93764 0
M  V30 3715 N 357.7 0.491464 1.49741 0
M  V30 3716 C 358.63 -0.28154 2.31796 0
M  V30 3717 C 359.611 -0.971473 1.3963 0
M  V30 3718 O 360.796 -0.964719 1.68543 0
M  V30 3719 C 357.926 -1.35203 3.19902 0
M  V30 3720 C 356.88 -0.782529 4.20786 0
M  V30 3721 C 356.206 -1.95283 4.97764 0
M  V30 3722 C 357.506 0.21999 5.21837 0
M  V30 3723 H 359.2 0.403355 2.96671 0
M  V30 3724 H 356.746 0.195425 1.42668 0
M  V30 3725 H 358.699 -1.90045 3.76113 0
M  V30 3726 H 357.423 -2.06598 2.52953 0
M  V30 3727 H 356.082 -0.255928 3.65706 0
M  V30 3728 H 355.73 -2.65423 4.2727 0
M  V30 3729 H 355.43 -1.57789 5.66018 0
M  V30 3730 H 356.954 -2.50577 5.56816 0
M  V30 3731 H 358.368 -0.23996 5.72798 0
M  V30 3732 H 356.765 0.51026 5.97927 0
M  V30 3733 H 357.835 1.13911 4.7133 0
M  V30 3734 N 359.178 -1.55987 0.224894 0
M  V30 3735 C 360.403 -2.03232 -0.41369 0
M  V30 3736 C 360.828 -1.10359 -1.52323 0
M  V30 3737 O 360.186 -0.092395 -1.81064 0
M  V30 3738 C 360.234 -3.48682 -0.919405 0
M  V30 3739 O 359.338 -3.58947 -2.03054 0
M  V30 3740 H 358.679 -0.657428 -0.0931903 0
M  V30 3741 H 361.209 -2.01679 0.34451 0
M  V30 3742 H 361.219 -3.8907 -1.22835 0
M  V30 3743 H 359.894 -4.15761 -0.107339 0
M  V30 3744 H 358.471 -3.30448 -1.72796 0
M  V30 3745 N 360.656 0.0484629 -1.57525 0
M  V30 3746 C 361.904 0.741657 -1.88 0
M  V30 3747 C 362.225 1.76918 -0.820054 0
M  V30 3748 O 361.495 1.95335 0.148661 0
M  V30 3749 H 360.075 0.276908 -0.69378 0
M  V30 3750 H 362.737 0.019013 -1.94891 0
M  V30 3751 H 361.833 1.24336 -2.86264 0
M  V30 3752 N 362.134 1.5431 0.320358 0
M  V30 3753 C 363.382 1.72327 1.05583 0
M  V30 3754 C 363.703 0.50149 1.88441 0
M  V30 3755 O 362.973 -0.48448 1.89815 0
M  V30 3756 H 361.553 0.635387 0.3928 0
M  V30 3757 H 364.215 1.91621 0.356019 0
M  V30 3758 H 363.311 2.60426 1.72003 0
M  V30 3759 N 363.613 -0.582584 1.46437 0
M  V30 3760 C 364.859 -1.34278 1.51978 0
M  V30 3761 C 365.192 -1.93446 0.170973 0
M  V30 3762 O 364.467 -1.76481 -0.817608 0
M  V30 3763 C 364.75 -2.47203 2.61845 0
M  V30 3764 C 364.603 -1.93069 4.06257 0
M  V30 3765 C 365.922 -3.49247 2.67795 0
M  V30 3766 H 363.041 -0.486876 0.553282 0
M  V30 3767 H 365.683 -0.654437 1.78374 0
M  V30 3768 H 363.833 -3.0592 2.39469 0
M  V30 3769 H 365.505 -1.38808 4.3992 0
M  V30 3770 H 363.748 -1.23898 4.1573 0
M  V30 3771 H 364.419 -2.74586 4.7886 0
M  V30 3772 H 366.895 -3.00411 2.8791 0
M  V30 3773 H 365.771 -4.25719 3.46489 0
M  V30 3774 H 366.032 -4.06482 1.73852 0
M  V30 3775 N 365.091 -1.34144 -0.827227 0
M  V30 3776 C 366.368 -1.16844 -1.56865 0
M  V30 3777 C 366.748 0.260654 -2.09485 0
M  V30 3778 O 366.096 1.26138 -1.9053 0
M  V30 3779 C 366.306 -2.21939 -2.6934 0
M  V30 3780 C 367.654 -2.56695 -3.3822 0
M  V30 3781 O 368.678 -2.20695 -2.79593 0
M  V30 3782 O 367.537 -3.18518 -4.44082 0
M  V30 3783 H 364.631 -0.452669 -0.692112 0
M  V30 3784 H 367.177 -1.45763 -0.868973 0
M  V30 3785 H 365.949 -3.17882 -2.28182 0
M  V30 3786 H 365.572 -1.94172 -3.46962 0
M  V30 3787 N 366.569 1.04691 -1.17803 0
M  V30 3788 C 367.794 1.81984 -0.994813 0
M  V30 3789 C 368.219 1.82586 0.452112 0
M  V30 3790 O 367.577 1.23854 1.324 0
M  V30 3791 C 367.625 3.2575 -1.54659 0
M  V30 3792 O 366.729 4.05267 -0.763728 0
M  V30 3793 H 366.07 0.562483 -0.352857 0
M  V30 3794 H 368.6 1.3189 -1.56417 0
M  V30 3795 H 368.61 3.76541 -1.57102 0
M  V30 3796 H 367.285 3.24627 -2.59981 0
M  V30 3797 H 365.862 3.63972 -0.811108 0
M  V30 3798 N 368.047 0.979072 1.23499 0
M  V30 3799 C 369.275 0.665202 1.95915 0
M  V30 3800 C 369.69 -0.767571 1.72493 0
M  V30 3801 O 369.047 -1.51635 1.01554 0
M  V30 3802 C 369.098 0.944438 3.48945 0
M  V30 3803 O 368.819 2.3209 3.71572 0
M  V30 3804 C 370.32 0.646336 4.38563 0
M  V30 3805 H 367.54 0.247218 0.623798 0
M  V30 3806 H 370.084 1.31009 1.57025 0
M  V30 3807 H 368.239 0.345575 3.85856 0
M  V30 3808 H 368.653 2.40957 4.65876 0
M  V30 3809 H 370.127 0.892091 5.44744 0
M  V30 3810 H 370.604 -0.419575 4.37191 0
M  V30 3811 H 371.21 1.22562 4.07258 0
M  V30 3812 N 369.525 -1.3858 0.750561 0
M  V30 3813 C 370.771 -2.00481 0.305825 0
M  V30 3814 C 371.104 -1.5944 -1.10872 0
M  V30 3815 O 370.379 -0.83052 -1.75877 0
M  V30 3816 C 370.662 -3.5758 0.425287 0
M  V30 3817 C 370.515 -4.08594 1.88072 0
M  V30 3818 C 371.834 -4.39719 -0.183122 0
M  V30 3819 H 368.953 -0.728348 0.112598 0
M  V30 3820 H 371.595 -1.64566 0.949638 0
M  V30 3821 H 369.745 -3.88306 -0.122828 0
M  V30 3822 H 371.417 -3.88523 2.48691 0
M  V30 3823 H 369.66 -3.61574 2.39681 0
M  V30 3824 H 370.331 -5.177 1.91548 0
M  V30 3825 H 372.807 -4.15128 0.284303 0
M  V30 3826 H 371.683 -5.48856 -0.0692757 0
M  V30 3827 H 371.944 -4.23434 -1.27106 0
M  V30 3828 N 371.003 -0.499398 -1.49478 0
M  V30 3829 C 372.243 0.0440751 -2.04352 0
M  V30 3830 C 372.607 1.34423 -1.37093 0
M  V30 3831 O 373.808 1.97184 -1.82679 0
M  V30 3832 C 372.079 0.194918 -3.56868 0
M  V30 3833 S 373.638 0.69287 -4.33295 0
M  V30 3834 H 370.456 0.00253458 -0.710995 0
M  V30 3835 H 373.058 -0.673 -1.83551 0
M  V30 3836 H 371.762 -0.756672 -4.03364 0
M  V30 3837 H 371.293 0.93728 -3.82071 0
M  V30 3838 H 373.308 1.96226 -4.55752 0
M  V30 3839 N 372.481 1.55866 -0.233164 0
M  V30 3840 C 373.709 2.02998 0.399905 0
M  V30 3841 C 374.124 1.11274 1.52524 0
M  V30 3842 O 373.481 0.124528 1.82075 0
M  V30 3843 C 373.532 3.4958 0.920639 0
M  V30 3844 O 373.253 4.37808 -0.159834 0
M  V30 3845 C 374.754 4.12411 1.62578 0
M  V30 3846 H 371.974 0.664006 0.0966281 0
M  V30 3847 H 374.518 2.0143 -0.353013 0
M  V30 3848 H 372.673 3.51727 1.62379 0
M  V30 3849 H 373.087 5.23981 0.23337 0
M  V30 3850 H 374.561 5.16711 1.94201 0
M  V30 3851 H 375.038 3.5809 2.54299 0
M  V30 3852 H 375.644 4.14148 0.967553 0
M  V30 3853 N 373.959 -0.0401083 1.57549 0
M  V30 3854 C 374.922 -1.02871 2.04817 0
M  V30 3855 C 375.922 -1.29708 0.950388 0
M  V30 3856 O 377.112 -1.24897 1.21435 0
M  V30 3857 C 374.244 -2.36443 2.45576 0
M  V30 3858 H 375.437 -0.620631 2.93408 0
M  V30 3859 H 372.99 -0.286667 1.53649 0
M  V30 3860 H 373.725 -2.82021 1.60108 0
M  V30 3861 H 373.51 -2.18296 3.25713 0
M  V30 3862 H 375 -3.07441 2.82612 0
M  V30 3863 N 375.437 -1.54477 -0.31217 0
M  V30 3864 C 376.367 -1.87652 -1.38957 0
M  V30 3865 C 377.348 -0.734358 -1.53431 0
M  V30 3866 O 378.533 -0.98911 -1.67123 0
M  V30 3867 C 375.663 -2.11396 -2.75552 0
M  V30 3868 C 374.617 -3.27243 -2.75855 0
M  V30 3869 C 373.943 -3.36382 -4.15633 0
M  V30 3870 C 375.243 -4.64622 -2.38587 0
M  V30 3871 H 376.937 -2.77887 -1.11442 0
M  V30 3872 H 374.483 -1.33707 -0.534655 0
M  V30 3873 H 376.436 -2.33189 -3.51 0
M  V30 3874 H 375.16 -1.17921 -3.04569 0
M  V30 3875 H 373.819 -3.05356 -2.02863 0
M  V30 3876 H 373.467 -2.40445 -4.41809 0
M  V30 3877 H 373.167 -4.14249 -4.1674 0
M  V30 3878 H 374.691 -3.60422 -4.92877 0
M  V30 3879 H 376.105 -4.86219 -3.03749 0
M  V30 3880 H 374.502 -5.45121 -2.50925 0
M  V30 3881 H 375.572 -4.66097 -1.33723 0
M  V30 3882 N 376.915 0.57481 -1.46744 0
M  V30 3883 C 377.845 1.69337 -1.60771 0
M  V30 3884 C 378.826 1.63825 -0.457736 0
M  V30 3885 O 380.011 1.8172 -0.684947 0
M  V30 3886 C 377.141 3.0798 -1.60517 0
M  V30 3887 C 376.095 3.28327 -2.74564 0
M  V30 3888 C 375.421 4.67578 -2.59373 0
M  V30 3889 C 376.721 3.15398 -4.16319 0
M  V30 3890 H 378.415 1.57853 -2.54407 0
M  V30 3891 H 375.961 0.75799 -1.22436 0
M  V30 3892 H 377.914 3.86061 -1.68923 0
M  V30 3893 H 376.638 3.20381 -0.634305 0
M  V30 3894 H 375.297 2.52649 -2.65639 0
M  V30 3895 H 374.945 4.76755 -1.60353 0
M  V30 3896 H 374.645 4.82144 -3.35873 0
M  V30 3897 H 376.169 5.47817 -2.69682 0
M  V30 3898 H 377.583 3.83315 -4.26313 0
M  V30 3899 H 375.98 3.41482 -4.93468 0
M  V30 3900 H 377.05 2.12372 -4.3592 0
M  V30 3901 N 378.394 1.34581 0.820102 0
M  V30 3902 C 379.342 1.26401 1.95258 0
M  V30 3903 C 380.336 0.161553 1.68628 0
M  V30 3904 O 381.542 0.326703 1.7701 0
M  V30 3905 H 377.917 0.392749 0.64129 0
M  V30 3906 H 379.888 2.22105 1.99279 0
M  V30 3907 C 378.637 1.03919 3.31807 0
M  V30 3908 H 377.96 1.87984 3.52848 0
M  V30 3909 H 379.4 1.02232 4.11491 0
M  V30 3910 C 377.859 -0.257433 3.35915 0
M  V30 3911 O 378.389 -1.25784 3.81499 0
M  V30 3912 N 376.595 -0.291524 2.89134 0
M  V30 3913 H 376.142 0.523161 2.52232 0
M  V30 3914 H 376.1 -1.15883 2.92264 0
M  V30 3915 N 379.872 -1.04064 1.18357 0
M  V30 3916 C 381.288 -1.2947 0.933258 0
M  V30 3917 C 381.488 -1.97466 -0.401169 0
M  V30 3918 O 380.544 -2.25528 -1.13549 0
M  V30 3919 C 381.857 -2.15337 2.09882 0
M  V30 3920 C 383.405 -2.28683 2.13712 0
M  V30 3921 C 383.88 -3.17917 3.29686 0
M  V30 3922 N 385.371 -3.25504 3.29547 0
M  V30 3923 C 386.106 -3.94706 4.15926 0
M  V30 3924 N 385.602 -4.66239 5.12439 0
M  V30 3925 N 387.395 -3.90986 4.0384 0
M  V30 3926 H 379.546 -0.583359 2.04232 0
M  V30 3927 H 381.809 -0.319921 0.892387 0
M  V30 3928 H 381.515 -1.72682 3.06389 0
M  V30 3929 H 381.389 -3.16015 2.05947 0
M  V30 3930 H 383.776 -2.70575 1.17784 0
M  V30 3931 H 383.857 -1.27596 2.21705 0
M  V30 3932 H 383.501 -2.76736 4.25887 0
M  V30 3933 H 383.431 -4.19036 3.1893 0
M  V30 3934 H 385.922 -2.74547 2.59677 0
M  V30 3935 H 386.235 -5.16638 5.74722 0
M  V30 3936 H 384.58 -4.65143 5.16398 0
M  V30 3937 H 387.771 -3.34234 3.27727 0
M  V30 3938 H 387.944 -4.44646 4.71375 0
M  V30 3939 N 381.35 -0.985608 -1.22978 0
M  V30 3940 C 382.313 -0.535071 -2.22867 0
M  V30 3941 C 383.313 0.378123 -1.56291 0
M  V30 3942 O 384.503 0.171092 -1.73358 0
M  V30 3943 C 381.635 0.222702 -3.40172 0
M  V30 3944 H 382.828 -1.41835 -2.6424 0
M  V30 3945 H 380.381 -0.772042 -1.35901 0
M  V30 3946 H 381.116 1.12229 -3.04262 0
M  V30 3947 H 380.901 -0.43288 -3.89703 0
M  V30 3948 H 382.391 0.526335 -4.1427 0
M  V30 3949 N 382.828 1.3818 -0.7579 0
M  V30 3950 C 383.758 2.33027 -0.148597 0
M  V30 3951 C 384.739 1.55085 0.69875 0
M  V30 3952 O 385.924 1.83384 0.639053 0
M  V30 3953 C 383.054 3.3928 0.742034 0
M  V30 3954 C 382.008 4.28 -0.00291946 0
M  V30 3955 C 381.334 5.25146 1.00625 0
M  V30 3956 C 382.634 5.08938 -1.17385 0
M  V30 3957 H 384.328 2.84231 -0.940909 0
M  V30 3958 H 381.874 1.36659 -0.453908 0
M  V30 3959 H 383.827 4.046 1.17799 0
M  V30 3960 H 382.551 2.86569 1.56671 0
M  V30 3961 H 381.21 3.64192 -0.419504 0
M  V30 3962 H 380.858 4.68721 1.8251 0
M  V30 3963 H 380.558 5.85361 0.512428 0
M  V30 3964 H 382.082 5.93342 1.44143 0
M  V30 3965 H 383.496 5.67474 -0.815224 0
M  V30 3966 H 381.893 5.7841 -1.59882 0
M  V30 3967 H 382.963 4.42424 -1.98468 0
M  V30 3968 N 384.306 0.507319 1.49211 0
M  V30 3969 C 385.254 -0.281364 2.30892 0
M  V30 3970 C 386.248 -0.95687 1.39787 0
M  V30 3971 O 387.454 -0.883838 1.56807 0
M  V30 3972 H 383.829 -0.109597 0.743971 0
M  V30 3973 H 385.8 0.42744 2.95323 0
M  V30 3974 C 384.549 -1.32918 3.21291 0
M  V30 3975 H 383.872 -0.818799 3.91326 0
M  V30 3976 H 385.312 -1.85288 3.81372 0
M  V30 3977 C 383.771 -2.35074 2.41333 0
M  V30 3978 O 384.301 -3.4108 2.12197 0
M  V30 3979 N 382.507 -2.07705 2.03241 0
M  V30 3980 H 382.054 -1.2152 2.27136 0
M  V30 3981 H 382.012 -2.76283 1.50051 0
M  V30 3982 N 385.784 -1.5574 0.241426 0
M  V30 3983 C 386.716 -2.18469 -0.693091 0
M  V30 3984 C 387.729 -1.15942 -1.14286 0
M  V30 3985 O 388.918 -1.42832 -1.07058 0
M  V30 3986 C 386.018 -2.7696 -1.95311 0
M  V30 3987 C 385.191 -4.04853 -1.65568 0
M  V30 3988 C 384.25 -4.47715 -2.76474 0
M  V30 3989 O 383.276 -5.14205 -2.44094 0
M  V30 3990 N 384.478 -4.15044 -4.05855 0
M  V30 3991 H 387.243 -2.99292 -0.156388 0
M  V30 3992 H 384.804 -1.61784 0.0611752 0
M  V30 3993 H 386.796 -3.02594 -2.68736 0
M  V30 3994 H 385.366 -2.00326 -2.39975 0
M  V30 3995 H 384.586 -3.86865 -0.756886 0
M  V30 3996 H 385.874 -4.88246 -1.43153 0
M  V30 3997 H 385.272 -3.61654 -4.34998 0
M  V30 3998 H 383.829 -4.45526 -4.75762 0
M  V30 3999 N 387.262 0.0317525 -1.57568 0
M  V30 4000 C 388.172 1.05021 -2.0978 0
M  V30 4001 C 389.188 1.39809 -1.03583 0
M  V30 4002 O 390.364 1.49182 -1.35302 0
M  V30 4003 C 387.429 2.33301 -2.56459 0
M  V30 4004 C 386.49 2.0512 -3.77127 0
M  V30 4005 C 385.723 3.27283 -4.2157 0
M  V30 4006 O 385.946 4.37861 -3.65559 0
M  V30 4007 O 384.88 3.13141 -5.14029 0
M  V30 4008 H 388.706 0.636505 -2.96955 0
M  V30 4009 H 386.291 0.248559 -1.47318 0
M  V30 4010 H 388.173 3.08722 -2.86825 0
M  V30 4011 H 386.848 2.73973 -1.72397 0
M  V30 4012 H 385.755 1.27276 -3.51784 0
M  V30 4013 H 387.088 1.69305 -4.62165 0
M  V30 4014 N 388.74 1.54641 0.303973 0
M  V30 4015 C 389.672 1.81754 1.39636 0
M  V30 4016 C 390.685 0.70035 1.46966 0
M  V30 4017 O 391.874 0.97778 1.49338 0
M  V30 4018 C 388.974 1.93785 2.7803 0
M  V30 4019 C 388.147 3.24156 2.93669 0
M  V30 4020 C 387.206 3.26641 4.12544 0
M  V30 4021 O 386.232 4.00187 4.04771 0
M  V30 4022 N 387.434 2.5182 5.23036 0
M  V30 4023 H 390.199 2.76031 1.16734 0
M  V30 4024 H 387.76 1.54178 0.494033 0
M  V30 4025 H 389.752 1.92852 3.55795 0
M  V30 4026 H 388.322 1.06515 2.93893 0
M  V30 4027 H 387.542 3.37887 2.03042 0
M  V30 4028 H 388.83 4.10195 3.01027 0
M  V30 4029 H 388.228 1.91692 5.32232 0
M  V30 4030 H 386.785 2.56644 5.99147 0
M  V30 4031 N 390.218 -0.567019 1.47046 0
M  V30 4032 C 391.464 -1.32658 1.53394 0
M  V30 4033 C 391.797 -1.93254 0.19148 0
M  V30 4034 O 391.072 -1.77338 -0.798844 0
M  V30 4035 C 391.355 -2.44412 2.64452 0
M  V30 4036 C 391.208 -1.88749 4.08282 0
M  V30 4037 C 392.527 -3.46387 2.71485 0
M  V30 4038 H 389.646 -0.48098 0.558415 0
M  V30 4039 H 392.288 -0.635481 1.79058 0
M  V30 4040 H 390.438 -3.03363 2.427 0
M  V30 4041 H 392.11 -1.34134 4.41368 0
M  V30 4042 H 390.353 -1.19481 4.17021 0
M  V30 4043 H 391.024 -2.69491 4.81745 0
M  V30 4044 H 393.5 -2.9734 2.91081 0
M  V30 4045 H 392.376 -4.2202 3.50985 0
M  V30 4046 H 392.637 -4.04616 1.78153 0
M  V30 4047 N 391.696 -1.35014 -0.812953 0
M  V30 4048 C 392.945 -1.27269 -1.56479 0
M  V30 4049 C 393.258 0.152771 -1.95002 0
M  V30 4050 O 394.464 0.352451 -2.69203 0
M  V30 4051 C 392.92 -2.23159 -2.82362 0
M  V30 4052 C 392.528 -3.71016 -2.511 0
M  V30 4053 C 394.272 -2.24342 -3.60376 0
M  V30 4054 C 392.179 -4.58746 -3.73237 0
M  V30 4055 H 391.109 -0.472829 -0.587324 0
M  V30 4056 H 393.76 -1.6024 -0.894171 0
M  V30 4057 H 392.142 -1.83151 -3.51101 0
M  V30 4058 H 393.316 -4.1962 -1.90409 0
M  V30 4059 H 391.631 -3.72378 -1.86343 0
M  V30 4060 H 394.228 -2.87107 -4.51081 0
M  V30 4061 H 394.571 -1.24542 -3.97234 0
M  V30 4062 H 395.104 -2.62846 -2.98591 0
M  V30 4063 H 391.843 -5.59521 -3.41492 0
M  V30 4064 H 391.363 -4.14871 -4.33176 0
M  V30 4065 H 393.042 -4.73852 -4.40537 0
M  V30 4066 N 393.175 1.03435 -1.18907 0
M  V30 4067 C 394.138 2.09756 -0.923844 0
M  V30 4068 C 395.138 1.60528 0.093416 0
M  V30 4069 O 396.328 1.73631 -0.140727 0
M  V30 4070 C 393.46 3.38692 -0.387354 0
M  V30 4071 H 394.653 2.34719 -1.86674 0
M  V30 4072 H 392.206 1.19959 -1.00197 0
M  V30 4073 H 392.941 3.19396 0.561845 0
M  V30 4074 H 392.726 3.75742 -1.12074 0
M  V30 4075 H 394.216 4.17016 -0.220694 0
M  V30 4076 N 394.653 0.992116 1.22453 0
M  V30 4077 C 395.899 0.668523 1.91464 0
M  V30 4078 C 396.232 -0.797313 1.77078 0
M  V30 4079 O 395.507 -1.5765 1.13916 0
M  V30 4080 C 395.79 1.07424 3.43703 0
M  V30 4081 C 395.643 2.59857 3.67143 0
M  V30 4082 C 396.962 0.626891 4.35612 0
M  V30 4083 H 394.081 0.244341 0.695318 0
M  V30 4084 H 396.723 1.2355 1.44345 0
M  V30 4085 H 394.873 0.591816 3.83966 0
M  V30 4086 H 396.545 3.15764 3.3629 0
M  V30 4087 H 394.788 3.01961 3.11451 0
M  V30 4088 H 395.459 2.83296 4.73759 0
M  V30 4089 H 397.935 1.04125 4.02861 0
M  V30 4090 H 396.811 0.939076 5.40807 0
M  V30 4091 H 397.072 -0.472457 4.39568 0
M  V30 4092 N 396.131 -1.37776 0.765217 0
M  V30 4093 C 397.081 -2.2768 0.12075 0
M  V30 4094 C 398.065 -1.45778 -0.680988 0
M  V30 4095 O 399.257 -1.684 -0.545033 0
M  V30 4096 C 396.386 -3.34722 -0.762626 0
M  V30 4097 C 395.472 -4.24074 0.0465881 0
M  V30 4098 N 395.863 -4.93939 1.08892 0
M  V30 4099 C 394.161 -4.45643 -0.178418 0
M  V30 4100 C 394.862 -5.59845 1.57951 0
M  V30 4101 N 393.838 -5.36218 0.892797 0
M  V30 4102 H 397.64 -2.79166 0.918889 0
M  V30 4103 H 395.154 -1.50816 0.602353 0
M  V30 4104 H 397.151 -3.98031 -1.24005 0
M  V30 4105 H 395.811 -2.84793 -1.55959 0
M  V30 4106 H 396.822 -4.96572 1.47095 0
M  V30 4107 H 393.499 -4.06599 -0.9478 0
M  V30 4108 H 394.889 -6.25703 2.44838 0
M  V30 4109 N 397.609 -0.515225 -1.4894 0
M  V30 4110 C 398.858 0.0261361 -2.01683 0
M  V30 4111 C 399.171 1.36719 -1.39883 0
M  V30 4112 O 400.377 1.99606 -1.84037 0
M  V30 4113 C 398.833 0.0970111 -3.59769 0
M  V30 4114 C 398.441 -1.23825 -4.30548 0
M  V30 4115 C 400.185 0.587981 -4.20408 0
M  V30 4116 C 398.092 -1.12877 -5.80528 0
M  V30 4117 H 397.022 0.0135398 -0.753878 0
M  V30 4118 H 399.673 -0.656787 -1.71343 0
M  V30 4119 H 398.055 0.844694 -3.86886 0
M  V30 4120 H 399.229 -2.00034 -4.15118 0
M  V30 4121 H 397.544 -1.66379 -3.81716 0
M  V30 4122 H 400.141 0.68763 -5.3026 0
M  V30 4123 H 400.484 1.59026 -3.84729 0
M  V30 4124 H 401.017 -0.103582 -3.97665 0
M  V30 4125 H 397.756 -2.10575 -6.20756 0
M  V30 4126 H 397.276 -0.407799 -5.98412 0
M  V30 4127 H 398.955 -0.813332 -6.41868 0
M  V30 4128 N 399.087 1.5561 -0.249682 0
M  V30 4129 C 400.364 1.90932 0.424761 0
M  V30 4130 C 400.744 1.17078 1.75658 0
M  V30 4131 O 400.092 0.289176 2.26663 0
M  V30 4132 C 400.302 3.43975 0.590109 0
M  V30 4133 C 401.65 4.15281 0.884714 0
M  V30 4134 O 402.674 3.49729 0.67587 0
M  V30 4135 O 401.533 5.31236 1.28259 0
M  V30 4136 H 398.627 0.794815 0.228468 0
M  V30 4137 H 401.173 1.67135 -0.293954 0
M  V30 4138 H 399.945 3.89748 -0.34818 0
M  V30 4139 H 399.568 3.73644 1.35926 0
M  V30 4140 N 400.565 -0.0233959 1.57583 0
M  V30 4141 C 401.513 -1.04063 2.08023 0
M  V30 4142 C 402.507 -1.37084 0.995204 0
M  V30 4143 O 403.713 -1.35923 1.18004 0
M  V30 4144 H 400.088 -0.353144 0.663922 0
M  V30 4145 H 402.059 -0.589453 2.9252 0
M  V30 4146 C 400.808 -2.33123 2.57971 0
M  V30 4147 H 400.131 -2.08577 3.4108 0
M  V30 4148 H 401.571 -3.02632 2.96967 0
M  V30 4149 C 400.03 -3.02483 1.48342 0
M  V30 4150 O 400.56 -3.92541 0.852898 0
M  V30 4151 N 398.766 -2.63909 1.21658 0
M  V30 4152 H 398.313 -1.90758 1.73116 0
M  V30 4153 H 398.271 -3.10633 0.485218 0
M  V30 4154 N 402.043 -1.548 -0.295768 0
M  V30 4155 C 403.291 -1.73985 -1.02828 0
M  V30 4156 C 403.612 -0.531406 -1.87619 0
M  V30 4157 O 402.882 0.454221 -1.90561 0
M  V30 4158 H 401.462 -0.641556 -0.382642 0
M  V30 4159 H 404.124 -1.92163 -0.325489 0
M  V30 4160 H 403.22 -2.63129 -1.67838 0
M  V30 4161 N 403.521 0.559213 -1.47345 0
M  V30 4162 C 404.768 1.31648 -1.53867 0
M  V30 4163 C 405.096 1.93468 -0.200104 0
M  V30 4164 O 404.351 1.78295 0.806799 0
M  V30 4165 C 404.65 2.44853 -2.6035 0
M  V30 4166 C 404.316 2.00876 -4.03683 0
M  V30 4167 C 402.978 1.88599 -4.42701 0
M  V30 4168 C 405.33 1.67279 -4.93626 0
M  V30 4169 C 402.658 1.41017 -5.69501 0
M  V30 4170 C 405.01 1.21169 -6.20887 0
M  V30 4171 C 403.674 1.07487 -6.58789 0
M  V30 4172 H 402.944 0.481734 -0.56304 0
M  V30 4173 H 405.591 0.627301 -1.80934 0
M  V30 4174 H 403.896 3.19318 -2.27032 0
M  V30 4175 H 405.593 3.03039 -2.62619 0
M  V30 4176 H 402.183 2.11374 -3.72853 0
M  V30 4177 H 406.367 1.75638 -4.64182 0
M  V30 4178 H 401.623 1.29086 -5.97618 0
M  V30 4179 H 405.797 0.942345 -6.89995 0
M  V30 4180 H 403.424 0.703946 -7.56934 0
M  V30 4181 N 404.999 1.35443 0.805782 0
M  V30 4182 C 405.932 1.22783 1.92353 0
M  V30 4183 C 406.91 0.115543 1.62189 0
M  V30 4184 O 408.094 0.283778 1.86352 0
M  V30 4185 C 405.221 0.890746 3.26777 0
M  V30 4186 C 404.267 2.01519 3.75889 0
M  V30 4187 S 405.1 3.63101 3.93596 0
M  V30 4188 C 406.256 3.31472 5.30921 0
M  V30 4189 H 406.489 2.17394 2.02798 0
M  V30 4190 H 404.022 1.20669 0.963245 0
M  V30 4191 H 405.98 0.703068 4.04434 0
M  V30 4192 H 404.641 -0.0373152 3.14078 0
M  V30 4193 H 403.834 1.7335 4.7325 0
M  V30 4194 H 403.436 2.16124 3.05231 0
M  V30 4195 H 405.728 2.8435 6.1494 0
M  V30 4196 H 406.671 4.28036 5.64084 0
M  V30 4197 H 407.079 2.67221 4.97246 0
M  V30 4198 N 406.477 -1.02803 1.19454 0
M  V30 4199 C 407.893 -1.28473 0.946937 0
M  V30 4200 C 408.093 -1.97881 -0.380202 0
M  V30 4201 O 407.149 -2.26719 -1.11151 0
M  V30 4202 C 408.462 -2.13099 2.12154 0
M  V30 4203 C 410.01 -2.26404 2.16126 0
M  V30 4204 C 410.485 -3.14402 3.33039 0
M  V30 4205 N 411.976 -3.21991 3.32981 0
M  V30 4206 C 412.711 -3.90272 4.20089 0
M  V30 4207 N 412.207 -4.60777 5.17355 0
M  V30 4208 N 414 -3.8668 4.07964 0
M  V30 4209 H 406.151 -0.561665 2.04839 0
M  V30 4210 H 408.414 -0.310438 0.89573 0
M  V30 4211 H 408.12 -1.69422 3.08203 0
M  V30 4212 H 407.994 -3.13813 2.09287 0
M  V30 4213 H 410.381 -2.69311 1.20647 0
M  V30 4214 H 410.462 -1.25237 2.23045 0
M  V30 4215 H 410.106 -2.72204 4.28798 0
M  V30 4216 H 410.036 -4.1563 3.23356 0
M  V30 4217 H 412.527 -2.71778 2.62574 0
M  V30 4218 H 412.84 -5.10513 5.80169 0
M  V30 4219 H 411.185 -4.5964 5.21302 0
M  V30 4220 H 414.376 -3.30739 3.31254 0
M  V30 4221 H 414.549 -4.39621 4.76064 0
M  V30 4222 N 407.956 -0.998596 -1.21925 0
M  V30 4223 C 408.903 -0.553621 -2.24062 0
M  V30 4224 C 409.873 0.416999 -1.6078 0
M  V30 4225 O 411.058 0.320482 -1.88089 0
M  V30 4226 C 408.198 0.119959 -3.44891 0
M  V30 4227 C 407.311 -0.893077 -4.22668 0
M  V30 4228 C 406.446 -0.192424 -5.30851 0
M  V30 4229 C 405.485 -1.19344 -6.00353 0
M  V30 4230 N 404.622 -0.520707 -7.00166 0
M  V30 4231 H 409.462 -1.4293 -2.61486 0
M  V30 4232 H 406.999 -0.715838 -1.28507 0
M  V30 4233 H 408.957 0.527459 -4.13852 0
M  V30 4234 H 407.587 0.959389 -3.08214 0
M  V30 4235 H 406.639 -1.41886 -3.52948 0
M  V30 4236 H 407.951 -1.65512 -4.70539 0
M  V30 4237 H 407.105 0.271515 -6.06092 0
M  V30 4238 H 405.844 0.602075 -4.83969 0
M  V30 4239 H 404.849 -1.66795 -5.23889 0
M  V30 4240 H 406.074 -1.98891 -6.49322 0
M  V30 4241 H 404.02 0.254252 -6.55507 0
M  V30 4242 H 403.937 -1.2211 -7.46073 0
M  V30 4243 H 405.205 -0.0797596 -7.79459 0
M  V30 4244 N 409.434 1.37368 -0.772513 0
M  V30 4245 C 410.85 1.53059 -0.452231 0
M  V30 4246 C 411.05 1.73065 1.03203 0
M  V30 4247 O 410.106 1.75245 1.81784 0
M  V30 4248 C 411.419 2.72659 -1.26797 0
M  V30 4249 C 412.967 2.86521 -1.25995 0
M  V30 4250 C 413.442 4.09105 -2.05905 0
M  V30 4251 N 414.933 4.16219 -2.03263 0
M  V30 4252 C 415.668 5.10107 -2.61875 0
M  V30 4253 N 415.164 6.09547 -3.29278 0
M  V30 4254 N 416.957 5.02596 -2.51701 0
M  V30 4255 H 409.108 1.22634 -1.7342 0
M  V30 4256 H 411.371 0.597206 -0.736239 0
M  V30 4257 H 411.077 2.64343 -2.31982 0
M  V30 4258 H 410.951 3.66363 -0.897672 0
M  V30 4259 H 413.338 2.94308 -0.216081 0
M  V30 4260 H 413.419 1.93774 -1.66989 0
M  V30 4261 H 413.063 4.0208 -3.10313 0
M  V30 4262 H 412.993 5.00968 -1.62292 0
M  V30 4263 H 415.484 3.45012 -1.54192 0
M  V30 4264 H 415.797 6.77718 -3.71374 0
M  V30 4265 H 414.142 6.09824 -3.33377 0
M  V30 4266 H 417.333 4.23855 -1.98657 0
M  V30 4267 H 417.506 5.75582 -2.97673 0
M  V30 4268 N 410.912 0.523116 1.48665 0
M  V30 4269 C 411.822 -0.247406 2.33292 0
M  V30 4270 C 412.838 -0.945769 1.46052 0
M  V30 4271 O 414.014 -0.922253 1.79043 0
M  V30 4272 C 411.079 -1.28487 3.22012 0
M  V30 4273 C 410.14 -0.597592 4.2512 0
M  V30 4274 C 409.373 -1.58563 5.09601 0
M  V30 4275 O 409.596 -2.81763 4.95949 0
M  V30 4276 O 408.53 -1.12879 5.91221 0
M  V30 4277 H 412.356 0.445869 3.00409 0
M  V30 4278 H 409.941 0.284128 1.46673 0
M  V30 4279 H 411.823 -1.88459 3.7691 0
M  V30 4280 H 410.498 -1.96068 2.57564 0
M  V30 4281 H 409.405 0.0424407 3.74076 0
M  V30 4282 H 410.738 0.0361517 4.92187 0
M  V30 4283 N 412.39 -1.55475 0.257931 0
M  V30 4284 C 413.615 -2.04064 -0.370488 0
M  V30 4285 C 414.04 -1.13565 -1.49948 0
M  V30 4286 O 413.398 -0.130781 -1.80828 0
M  V30 4287 C 413.446 -3.50554 -0.845237 0
M  V30 4288 O 412.55 -3.63173 -1.95394 0
M  V30 4289 H 411.891 -0.659257 -0.0792243 0
M  V30 4290 H 414.421 -2.00903 0.387212 0
M  V30 4291 H 414.431 -3.91588 -1.14555 0
M  V30 4292 H 413.106 -4.15896 -0.0191259 0
M  V30 4293 H 411.683 -3.34039 -1.65748 0
M  V30 4294 N 413.868 0.0150385 -1.57593 0
M  V30 4295 C 414.8 1.03912 -2.04291 0
M  V30 4296 C 415.813 1.31618 -0.958146 0
M  V30 4297 O 417.002 1.28859 -1.23522 0
M  V30 4298 C 414.102 2.37749 -2.41514 0
M  V30 4299 C 413.275 2.29198 -3.72541 0
M  V30 4300 C 412.334 3.45598 -3.96797 0
M  V30 4301 O 411.36 3.24461 -4.67668 0
M  V30 4302 N 412.562 4.67945 -3.43523 0
M  V30 4303 H 415.327 0.64099 -2.92765 0
M  V30 4304 H 412.888 0.20272 -1.60626 0
M  V30 4305 H 414.88 3.14364 -2.54867 0
M  V30 4306 H 413.45 2.69357 -1.58637 0
M  V30 4307 H 412.67 1.3759 -3.69408 0
M  V30 4308 H 413.958 2.20642 -4.5847 0
M  V30 4309 H 413.356 4.88017 -2.86104 0
M  V30 4310 H 411.913 5.41878 -3.62232 0
M  V30 4311 N 415.346 1.54954 0.287554 0
M  V30 4312 C 416.571 1.79209 1.04397 0
M  V30 4313 C 416.996 0.556431 1.79682 0
M  V30 4314 O 416.354 -0.493518 1.74454 0
M  V30 4315 C 416.402 3.00739 1.98969 0
M  V30 4316 O 415.506 2.74805 3.075 0
M  V30 4317 H 414.847 0.592755 0.299227 0
M  V30 4318 H 417.377 2.02068 0.320886 0
M  V30 4319 H 417.387 3.29077 2.4119 0
M  V30 4320 H 416.062 3.90329 1.43582 0
M  V30 4321 H 414.639 2.57523 2.69697 0
M  V30 4322 N 416.824 -0.551391 1.4764 0
M  V30 4323 C 418.07 -1.31024 1.54792 0
M  V30 4324 C 418.403 -1.9304 0.211967 0
M  V30 4325 O 417.678 -1.78175 -0.77999 0
M  V30 4326 C 417.961 -2.41593 2.67029 0
M  V30 4327 C 417.814 -1.84408 4.10261 0
M  V30 4328 C 419.133 -3.43488 2.75143 0
M  V30 4329 H 416.252 -0.475031 0.563485 0
M  V30 4330 H 418.894 -0.616454 1.79722 0
M  V30 4331 H 417.044 -3.00772 2.45904 0
M  V30 4332 H 418.716 -1.29445 4.42766 0
M  V30 4333 H 416.959 -1.15051 4.18265 0
M  V30 4334 H 417.63 -2.64367 4.84576 0
M  V30 4335 H 420.106 -2.94236 2.94218 0
M  V30 4336 H 418.982 -4.18274 3.55441 0
M  V30 4337 H 419.243 -4.02703 1.82435 0
M  V30 4338 N 418.302 -1.35869 -0.798587 0
M  V30 4339 C 419.212 -1.31578 -1.94228 0
M  V30 4340 C 420.228 -0.21939 -1.72611 0
M  V30 4341 O 421.404 -0.450167 -1.96305 0
M  V30 4342 C 418.469 -1.09528 -3.28944 0
M  V30 4343 C 417.53 -2.28556 -3.63402 0
M  V30 4344 C 416.763 -2.07549 -4.9169 0
M  V30 4345 O 416.986 -1.046 -5.60727 0
M  V30 4346 O 415.92 -2.95106 -5.24591 0
M  V30 4347 H 419.746 -2.27847 -2.00796 0
M  V30 4348 H 417.331 -1.16322 -0.937526 0
M  V30 4349 H 419.213 -0.991127 -4.09579 0
M  V30 4350 H 417.888 -0.16315 -3.23289 0
M  V30 4351 H 416.795 -2.44538 -2.83112 0
M  V30 4352 H 418.128 -3.20244 -3.73771 0
M  V30 4353 N 419.78 1.02168 -1.19998 0
M  V30 4354 C 420.69 2.14069 -0.959774 0
M  V30 4355 C 421.706 1.73804 0.082655 0
M  V30 4356 O 422.882 2.01133 -0.103633 0
M  V30 4357 C 419.947 3.42936 -0.509459 0
M  V30 4358 C 419.008 3.97474 -1.62213 0
M  V30 4359 C 418.241 5.2019 -1.19321 0
M  V30 4360 O 418.464 5.70369 -0.0597726 0
M  V30 4361 O 417.398 5.67749 -1.99863 0
M  V30 4362 H 421.224 2.37199 -1.89658 0
M  V30 4363 H 418.809 1.12469 -0.983411 0
M  V30 4364 H 420.691 4.20551 -0.267322 0
M  V30 4365 H 419.366 3.21234 0.398821 0
M  V30 4366 H 418.273 3.21161 -1.9185 0
M  V30 4367 H 419.606 4.23555 -2.50723 0
M  V30 4368 N 421.258 1.00505 1.21394 0
M  V30 4369 C 422.221 0.570459 2.21987 0
M  V30 4370 C 423.221 -0.353211 1.56873 0
M  V30 4371 O 424.411 -0.14349 1.73608 0
M  V30 4372 C 421.543 -0.168555 3.40483 0
M  V30 4373 H 422.736 1.46021 2.6195 0
M  V30 4374 H 420.289 0.793565 1.34656 0
M  V30 4375 H 421.024 -1.07374 3.06009 0
M  V30 4376 H 420.809 0.494823 3.88965 0
M  V30 4377 H 422.299 -0.460362 4.15055 0
M  V30 4378 N 422.737 -1.36956 0.779787 0
M  V30 4379 C 423.667 -2.32761 0.185651 0
M  V30 4380 C 424.648 -1.56177 -0.673989 0
M  V30 4381 O 425.833 -1.84378 -0.609797 0
M  V30 4382 C 422.963 -3.40418 -0.687964 0
M  V30 4383 C 421.917 -4.27941 0.0710102 0
M  V30 4384 C 421.243 -5.26681 -0.922573 0
M  V30 4385 C 422.543 -5.07006 1.25467 0
M  V30 4386 H 424.237 -2.82698 0.986008 0
M  V30 4387 H 421.783 -1.3592 0.475592 0
M  V30 4388 H 423.736 -4.06423 -1.11348 0
M  V30 4389 H 422.46 -2.89025 -1.52093 0
M  V30 4390 H 421.119 -3.63478 0.47739 0
M  V30 4391 H 420.767 -4.71565 -1.7503 0
M  V30 4392 H 420.467 -5.86103 -0.419237 0
M  V30 4393 H 421.991 -5.9556 -1.34686 0
M  V30 4394 H 423.405 -5.66105 0.905401 0
M  V30 4395 H 421.802 -5.75793 1.69063 0
M  V30 4396 H 422.872 -4.3921 2.05481 0
M  V30 4397 N 424.215 -0.530993 -1.48385 0
M  V30 4398 C 425.162 0.231223 -2.29639 0
M  V30 4399 C 426.132 0.932864 -1.37429 0
M  V30 4400 O 427.317 0.933692 -1.66394 0
M  V30 4401 C 424.457 1.27155 -3.2082 0
M  V30 4402 C 423.57 0.578655 -4.28107 0
M  V30 4403 C 422.705 1.602 -5.06467 0
M  V30 4404 C 421.744 0.892625 -6.05556 0
M  V30 4405 N 420.881 1.86157 -6.76971 0
M  V30 4406 H 425.721 -0.467848 -2.94305 0
M  V30 4407 H 423.258 -0.242556 -1.45086 0
M  V30 4408 H 425.216 1.88703 -3.72085 0
M  V30 4409 H 423.846 1.939 -2.58075 0
M  V30 4410 H 422.898 -0.150782 -3.80101 0
M  V30 4411 H 424.21 0.0217065 -4.98795 0
M  V30 4412 H 423.364 2.29173 -5.61751 0
M  V30 4413 H 422.103 2.19285 -4.35621 0
M  V30 4414 H 421.108 0.188829 -5.49476 0
M  V30 4415 H 422.333 0.307878 -6.78402 0
M  V30 4416 H 420.279 2.44147 -6.08875 0
M  V30 4417 H 420.196 1.35608 -7.43738 0
M  V30 4418 H 421.464 2.54325 -7.36844 0
M  V30 4419 N 425.693 1.55336 -0.266172 0
M  V30 4420 C 426.64 2.22172 0.625165 0
M  V30 4421 C 427.61 1.19211 1.15663 0
M  V30 4422 O 428.795 1.47723 1.20758 0
M  V30 4423 C 425.935 2.93972 1.8076 0
M  V30 4424 C 425.048 4.11632 1.31084 0
M  V30 4425 C 424.183 4.71099 2.45436 0
M  V30 4426 C 423.222 5.8097 1.92718 0
M  V30 4427 N 422.359 6.34538 3.00509 0
M  V30 4428 H 427.199 2.9796 0.0485582 0
M  V30 4429 H 424.736 1.47095 0.0122024 0
M  V30 4430 H 426.694 3.33811 2.50251 0
M  V30 4431 H 425.324 2.20623 2.35638 0
M  V30 4432 H 424.376 3.76975 0.509326 0
M  V30 4433 H 425.688 4.90893 0.884633 0
M  V30 4434 H 424.842 5.13612 3.22936 0
M  V30 4435 H 423.581 3.91096 2.91368 0
M  V30 4436 H 422.586 5.37916 1.13695 0
M  V30 4437 H 423.811 6.62836 1.47733 0
M  V30 4438 H 421.757 5.57433 3.45839 0
M  V30 4439 H 421.674 7.09046 2.62279 0
M  V30 4440 H 422.942 6.81709 3.78011 0
M  V30 4441 N 427.171 -0.0066808 1.57599 0
M  V30 4442 C 428.101 -0.999296 2.11036 0
M  V30 4443 C 429.082 -1.36278 1.01795 0
M  V30 4444 O 430.267 -1.4477 1.29442 0
M  V30 4445 C 427.397 -2.29328 2.60818 0
M  V30 4446 C 426.351 -2.07159 3.74525 0
M  V30 4447 C 425.677 -3.42512 4.10596 0
M  V30 4448 C 426.977 -1.43959 5.02069 0
M  V30 4449 H 428.671 -0.554382 2.94223 0
M  V30 4450 H 426.217 -0.265221 1.41536 0
M  V30 4451 H 428.17 -2.99117 2.96828 0
M  V30 4452 H 426.894 -2.7592 1.74745 0
M  V30 4453 H 425.553 -1.39797 3.38899 0
M  V30 4454 H 425.201 -3.86795 3.21556 0
M  V30 4455 H 424.901 -3.28498 4.87199 0
M  V30 4456 H 426.425 -4.13628 4.4916 0
M  V30 4457 H 427.839 -2.03696 5.35893 0
M  V30 4458 H 426.236 -1.40452 5.83432 0
M  V30 4459 H 427.306 -0.407992 4.83181 0
M  V30 4460 N 428.649 -1.55105 -0.279332 0
M  V30 4461 C 429.897 -1.75066 -1.00977 0
M  V30 4462 C 430.218 -0.551276 -1.87045 0
M  V30 4463 O 429.488 0.433984 -1.91032 0
M  V30 4464 H 428.068 -0.645578 -0.375816 0
M  V30 4465 H 430.73 -1.92497 -0.305089 0
M  V30 4466 H 429.826 -2.64894 -1.65038 0
M  V30 4467 N 430.127 0.543554 -1.4793 0
M  V30 4468 C 431.376 1.29649 -1.54512 0
M  V30 4469 C 431.689 1.94382 -0.217973 0
M  V30 4470 O 432.895 2.71017 -0.161908 0
M  V30 4471 C 431.351 2.35175 -2.72435 0
M  V30 4472 C 430.959 1.76572 -4.11736 0
M  V30 4473 C 432.703 3.11564 -2.8832 0
M  V30 4474 C 430.61 2.79958 -5.20939 0
M  V30 4475 H 429.54 0.487541 -0.57517 0
M  V30 4476 H 432.191 0.575708 -1.74235 0
M  V30 4477 H 430.573 3.10229 -2.46118 0
M  V30 4478 H 431.747 1.07799 -4.48013 0
M  V30 4479 H 430.062 1.12722 -4.00852 0
M  V30 4480 H 432.659 3.88794 -3.67074 0
M  V30 4481 H 433.002 3.66594 -1.97268 0
M  V30 4482 H 433.535 2.43623 -3.14472 0
M  V30 4483 H 430.274 2.29766 -6.13912 0
M  V30 4484 H 429.794 3.47101 -4.89164 0
M  V30 4485 H 431.473 3.43198 -5.48474 0
M  V30 4486 N 431.605 1.3629 0.791371 0
M  V30 4487 C 432.537 1.26321 1.91248 0
M  V30 4488 C 433.55 0.18313 1.61767 0
M  V30 4489 O 434.739 0.437682 1.73051 0
M  V30 4490 C 431.839 0.925901 3.26007 0
M  V30 4491 C 431.012 2.10746 3.83281 0
M  V30 4492 C 430.071 1.74352 4.96475 0
M  V30 4493 O 429.097 2.46416 5.13096 0
M  V30 4494 N 430.299 0.676058 5.7655 0
M  V30 4495 H 433.064 2.22915 2.00323 0
M  V30 4496 H 430.625 1.29659 0.969546 0
M  V30 4497 H 432.617 0.663636 3.99222 0
M  V30 4498 H 431.187 0.0491581 3.12561 0
M  V30 4499 H 430.407 2.53264 3.02077 0
M  V30 4500 H 431.695 2.8969 4.18279 0
M  V30 4501 H 431.093 0.0776467 5.65647 0
M  V30 4502 H 429.65 0.473612 6.50077 0
M  V30 4503 N 433.083 -1.0153 1.20538 0
M  V30 4504 C 434.329 -1.75408 1.01783 0
M  V30 4505 C 434.662 -1.88943 -0.448814 0
M  V30 4506 O 433.937 -1.4162 -1.33319 0
M  V30 4507 C 434.22 -3.17255 1.70356 0
M  V30 4508 C 434.073 -3.11508 3.24473 0
M  V30 4509 C 435.392 -4.15955 1.43769 0
M  V30 4510 H 432.511 -0.636713 0.371167 0
M  V30 4511 H 435.153 -1.18436 1.4857 0
M  V30 4512 H 433.303 -3.65898 1.30578 0
M  V30 4513 H 434.975 -2.70658 3.73553 0
M  V30 4514 H 433.218 -2.4887 3.55311 0
M  V30 4515 H 433.889 -4.11784 3.67611 0
M  V30 4516 H 436.365 -3.75973 1.7828 0
M  V30 4517 H 435.241 -5.13368 1.94279 0
M  V30 4518 H 435.502 -4.40586 0.365564 0
M  V30 4519 N 434.561 -1.01147 -1.20859 0
M  V30 4520 C 435.508 -0.577354 -2.23462 0
M  V30 4521 C 436.478 0.399922 -1.61214 0
M  V30 4522 O 437.663 0.300515 -1.88419 0
M  V30 4523 C 434.803 0.083372 -3.44999 0
M  V30 4524 C 433.916 -0.937856 -4.21697 0
M  V30 4525 C 433.051 -0.248717 -5.30617 0
M  V30 4526 C 432.09 -1.25705 -5.99053 0
M  V30 4527 N 431.227 -0.594939 -6.99575 0
M  V30 4528 H 436.067 -1.45695 -2.59956 0
M  V30 4529 H 433.604 -0.729428 -1.27741 0
M  V30 4530 H 435.562 0.483535 -4.14388 0
M  V30 4531 H 434.192 0.926645 -3.09214 0
M  V30 4532 H 433.244 -1.45622 -3.51423 0
M  V30 4533 H 434.556 -1.70493 -4.68757 0
M  V30 4534 H 433.71 0.207215 -6.06346 0
M  V30 4535 H 432.449 0.55071 -4.84581 0
M  V30 4536 H 431.454 -1.72343 -5.2209 0
M  V30 4537 H 432.679 -2.05767 -6.47176 0
M  V30 4538 H 430.625 0.184713 -6.5574 0
M  V30 4539 H 430.542 -1.30017 -7.44736 0
M  V30 4540 H 431.81 -0.162427 -7.79331 0
M  V30 4541 N 436.039 1.36541 -0.78704 0
M  V30 4542 C 437.285 1.99599 -0.358872 0
M  V30 4543 C 437.618 1.62323 1.06606 0
M  V30 4544 O 436.893 0.876858 1.73613 0
M  V30 4545 C 437.176 3.56327 -0.519944 0
M  V30 4546 C 437.029 4.03464 -1.98839 0
M  V30 4547 C 438.348 4.4005 0.0664737 0
M  V30 4548 H 435.467 0.725107 -0.131869 0
M  V30 4549 H 438.109 1.6199 -0.992936 0
M  V30 4550 H 436.259 3.88495 0.0198321 0
M  V30 4551 H 437.931 3.81793 -2.58905 0
M  V30 4552 H 436.174 3.55092 -2.49183 0
M  V30 4553 H 436.845 5.12439 -2.05207 0
M  V30 4554 H 439.321 4.14228 -0.394267 0
M  V30 4555 H 438.197 5.48847 -0.0762682 0
M  V30 4556 H 438.458 4.26655 1.15835 0
M  V30 4557 N 437.518 0.538854 1.48102 0
M  V30 4558 C 438.767 0.0059532 2.01699 0
M  V30 4559 C 439.08 -1.34476 1.42041 0
M  V30 4560 O 440.286 -1.96653 1.87189 0
M  V30 4561 C 438.742 -0.0397627 3.59878 0
M  V30 4562 C 438.35 1.30659 4.28523 0
M  V30 4563 C 440.094 -0.521024 4.2129 0
M  V30 4564 C 438.001 1.22098 5.78659 0
M  V30 4565 H 436.931 -0.00154456 0.753998 0
M  V30 4566 H 439.582 0.683963 1.70277 0
M  V30 4567 H 437.964 -0.783037 3.88181 0
M  V30 4568 H 439.138 2.06613 4.11883 0
M  V30 4569 H 437.453 1.7243 3.79021 0
M  V30 4570 H 440.05 -0.603184 5.31287 0
M  V30 4571 H 440.393 -1.52885 3.8721 0
M  V30 4572 H 440.926 0.166834 3.9745 0
M  V30 4573 H 437.665 2.20424 6.17328 0
M  V30 4574 H 437.185 0.50295 5.97688 0
M  V30 4575 H 438.864 0.915345 6.40492 0
M  V30 4576 N 438.996 -1.55193 0.274407 0
M  V30 4577 C 439.944 -2.23924 -0.629362 0
M  V30 4578 C 440.938 -1.23602 -1.1584 0
M  V30 4579 O 442.144 -1.41535 -1.11211 0
M  V30 4580 H 438.519 -0.718637 -0.221507 0
M  V30 4581 H 440.49 -2.98388 -0.0268322 0
M  V30 4582 C 439.239 -2.97329 -1.80252 0
M  V30 4583 H 438.562 -3.74313 -1.40462 0
M  V30 4584 H 440.002 -3.48743 -2.41152 0
M  V30 4585 C 438.461 -2.0276 -2.69054 0
M  V30 4586 O 438.991 -1.57836 -3.69392 0
M  V30 4587 N 437.197 -1.69275 -2.36208 0
M  V30 4588 H 436.744 -2.06004 -1.54661 0
M  V30 4589 H 436.702 -1.06271 -2.95895 0
M  V30 4590 N 440.474 -0.00167713 -1.576 0
M  V30 4591 C 441.437 0.974046 -2.07473 0
M  V30 4592 C 442.437 1.27143 -0.984444 0
M  V30 4593 O 443.627 1.21633 -1.24703 0
M  V30 4594 C 440.759 2.29849 -2.51759 0
M  V30 4595 H 441.952 0.54262 -2.9495 0
M  V30 4596 H 439.505 0.245829 -1.54355 0
M  V30 4597 H 440.24 2.77677 -1.67529 0
M  V30 4598 H 440.025 2.09584 -3.31386 0
M  V30 4599 H 441.515 2.9984 -2.90664 0
M  V30 4600 N 441.952 1.55251 0.271103 0
M  V30 4601 C 442.915 1.87484 1.31842 0
M  V30 4602 C 443.915 0.749545 1.42262 0
M  V30 4603 O 445.105 1.01771 1.4138 0
M  V30 4604 C 442.237 2.0818 2.69951 0
M  V30 4605 H 443.43 2.81108 1.0449 0
M  V30 4606 H 440.983 1.47771 0.509258 0
M  V30 4607 H 441.718 1.16944 3.02481 0
M  V30 4608 H 441.503 2.90114 2.63774 0
M  V30 4609 H 442.993 2.34385 3.4562 0
M  V30 4610 N 443.43 -0.535701 1.48216 0
M  V30 4611 C 444.38 -1.63688 1.58714 0
M  V30 4612 C 445.364 -1.54635 0.444615 0
M  V30 4613 O 446.556 -1.62753 0.695742 0
M  V30 4614 C 443.685 -3.02423 1.62466 0
M  V30 4615 C 442.771 -3.16601 2.82178 0
M  V30 4616 N 443.162 -3.00771 4.06658 0
M  V30 4617 C 441.46 -3.47645 2.79391 0
M  V30 4618 C 442.161 -3.18213 4.86945 0
M  V30 4619 N 441.137 -3.45528 4.19656 0
M  V30 4620 H 444.939 -1.5005 2.5271 0
M  V30 4621 H 442.453 -0.741018 1.44508 0
M  V30 4622 H 444.45 -3.81517 1.6808 0
M  V30 4623 H 443.11 -3.17157 0.695826 0
M  V30 4624 H 444.121 -2.77652 4.37184 0
M  V30 4625 H 440.798 -3.68771 1.95739 0
M  V30 4626 H 442.188 -3.1076 5.95716 0
M  V30 4627 N 444.908 -1.36708 -0.784132 0
M  V30 4628 C 446.133 -1.34565 -1.5782 0
M  V30 4629 C 446.558 0.0695257 -1.87971 0
M  V30 4630 O 445.916 1.04302 -1.48293 0
M  V30 4631 C 445.964 -2.17952 -2.87279 0
M  V30 4632 O 445.068 -1.57563 -3.81114 0
M  V30 4633 H 444.409 -0.460337 -0.478524 0
M  V30 4634 H 446.939 -1.80064 -0.971495 0
M  V30 4635 H 446.949 -2.30721 -3.365 0
M  V30 4636 H 445.624 -3.20823 -2.64661 0
M  V30 4637 H 444.201 -1.53764 -3.39722 0
M  V30 4638 N 446.386 1.0089 -1.21074 0
M  V30 4639 C 447.633 1.74607 -1.0256 0
M  V30 4640 C 447.961 1.89426 0.44136 0
M  V30 4641 O 447.216 1.42266 1.34384 0
M  V30 4642 C 447.515 3.16335 -1.66334 0
M  V30 4643 C 447.181 3.21474 -3.16173 0
M  V30 4644 C 445.843 3.22583 -3.57062 0
M  V30 4645 C 448.195 3.19025 -4.12156 0
M  V30 4646 C 445.523 3.18925 -4.92446 0
M  V30 4647 C 447.875 3.16909 -5.47496 0
M  V30 4648 C 446.539 3.16326 -5.87787 0
M  V30 4649 H 445.809 0.638933 -0.375294 0
M  V30 4650 H 448.456 1.18274 -1.50611 0
M  V30 4651 H 446.761 3.75876 -1.10566 0
M  V30 4652 H 448.458 3.72083 -1.49516 0
M  V30 4653 H 445.048 3.2135 -2.83605 0
M  V30 4654 H 449.232 3.17332 -3.81595 0
M  V30 4655 H 444.488 3.16809 -5.22917 0
M  V30 4656 H 448.662 3.13968 -6.21609 0
M  V30 4657 H 446.289 3.13246 -6.92662 0
M  V30 4658 N 447.864 1.01787 1.20321 0
M  V30 4659 C 449.094 0.72614 1.93419 0
M  V30 4660 C 449.502 -0.717317 1.75075 0
M  V30 4661 O 448.845 -1.49836 1.06278 0
M  V30 4662 C 448.907 0.983621 3.45782 0
M  V30 4663 C 448.571 2.41645 3.87888 0
M  V30 4664 C 449.568 3.39732 3.93545 0
M  V30 4665 C 447.253 2.75752 4.19841 0
M  V30 4666 C 449.247 4.69988 4.30569 0
M  V30 4667 C 446.934 4.06221 4.56539 0
M  V30 4668 C 447.932 5.0315 4.61876 0
M  V30 4669 O 447.62 6.31284 4.97731 0
M  V30 4670 H 447.352 0.265824 0.621541 0
M  V30 4671 H 449.906 1.3623 1.53722 0
M  V30 4672 H 448.136 0.290301 3.85609 0
M  V30 4673 H 449.825 0.683279 4.00108 0
M  V30 4674 H 450.591 3.14718 3.69022 0
M  V30 4675 H 446.47 2.00993 4.14877 0
M  V30 4676 H 450.014 5.45642 4.3465 0
M  V30 4677 H 445.911 4.31013 4.80518 0
M  V30 4678 H 446.679 6.35591 5.15719 0
M  V30 4679 N 449.342 -1.36122 0.79427 0
M  V30 4680 C 450.29 -2.31871 0.184023 0
M  V30 4681 C 451.284 -1.56041 -0.659365 0
M  V30 4682 O 452.49 -1.71266 -0.553906 0
M  V30 4683 H 448.865 -0.750896 0.0407373 0
M  V30 4684 H 450.836 -2.80898 1.00693 0
M  V30 4685 C 449.585 -3.41324 -0.662813 0
M  V30 4686 H 448.908 -3.99793 -0.0231944 0
M  V30 4687 H 450.348 -4.10629 -1.05639 0
M  V30 4688 C 448.807 -2.83308 -1.82313 0
M  V30 4689 O 449.337 -2.75863 -2.91997 0
M  V30 4690 N 447.543 -2.40529 -1.63077 0
M  V30 4691 H 447.09 -2.46785 -0.738591 0
M  V30 4692 H 447.048 -2.02059 -2.40872 0
M  V30 4693 N 450.82 -0.546701 -1.47814 0
M  V30 4694 C 452.068 -0.0187037 -2.02091 0
M  V30 4695 C 452.389 1.33168 -1.42447 0
M  V30 4696 O 451.659 1.86619 -0.595839 0
M  V30 4697 H 450.239 -0.00392531 -0.74699 0
M  V30 4698 H 452.901 -0.714327 -1.81338 0
M  V30 4699 H 451.997 0.0772219 -3.12004 0
M  V30 4700 N 452.299 1.55045 -0.282633 0
M  V30 4701 C 453.527 2.04168 0.33512 0
M  V30 4702 C 453.942 1.16071 1.48906 0
M  V30 4703 O 453.299 0.182391 1.81586 0
M  V30 4704 C 453.35 3.52332 0.808957 0
M  V30 4705 O 453.071 4.37078 -0.299038 0
M  V30 4706 C 454.572 4.17375 1.49375 0
M  V30 4707 H 451.792 0.666744 0.0754543 0
M  V30 4708 H 454.336 2.00205 -0.416918 0
M  V30 4709 H 452.491 3.56715 1.51106 0
M  V30 4710 H 452.905 5.24458 0.0665514 0
M  V30 4711 H 454.379 5.22627 1.77664 0
M  V30 4712 H 454.856 3.65999 2.42778 0
M  V30 4713 H 455.462 4.17016 0.835305 0
M  V30 4714 N 453.777 0.010035 1.57597 0
M  V30 4715 C 455.005 -0.683413 1.95287 0
M  V30 4716 C 455.42 -1.66747 0.885481 0
M  V30 4717 O 454.777 -1.82003 -0.134629 0
M  V30 4718 C 454.828 -1.40652 3.33015 0
M  V30 4719 O 454.549 -0.461916 4.35658 0
M  V30 4720 C 456.05 -2.19356 3.85225 0
M  V30 4721 H 453.27 -0.189708 0.643624 0
M  V30 4722 H 455.814 0.0641359 2.04399 0
M  V30 4723 H 453.969 -2.10562 3.2518 0
M  V30 4724 H 454.383 -0.973215 5.15392 0
M  V30 4725 H 455.857 -2.65433 4.83993 0
M  V30 4726 H 456.334 -3.02457 3.18459 0
M  V30 4727 H 456.94 -1.54442 3.96267 0
M  V30 4728 N 455.255 -1.55392 -0.262866 0
M  V30 4729 C 456.483 -1.80513 -1.01108 0
M  V30 4730 C 456.898 -0.583533 -1.79556 0
M  V30 4731 O 456.255 0.447585 -1.76926 0
M  V30 4732 C 456.306 -3.03648 -1.96164 0
M  V30 4733 O 456.027 -4.2109 -1.20893 0
M  V30 4734 C 457.528 -3.41448 -2.82715 0
M  V30 4735 H 454.748 -0.601079 -0.298236 0
M  V30 4736 H 457.292 -2.02425 -0.290582 0
M  V30 4737 H 455.447 -2.83832 -2.63663 0
M  V30 4738 H 455.861 -4.90771 -1.85051 0
M  V30 4739 H 457.335 -4.30751 -3.45192 0
M  V30 4740 H 457.812 -2.61308 -3.53008 0
M  V30 4741 H 458.418 -3.63559 -2.20693 0
M  V30 4742 N 456.733 0.527833 -1.48498 0
M  V30 4743 C 457.663 1.64136 -1.66077 0
M  V30 4744 C 458.644 1.62286 -0.509625 0
M  V30 4745 O 459.829 1.79449 -0.742413 0
M  V30 4746 C 456.959 3.02717 -1.70234 0
M  V30 4747 C 455.913 3.19426 -2.8487 0
M  V30 4748 C 455.239 4.5909 -2.74118 0
M  V30 4749 C 456.539 3.01993 -4.26142 0
M  V30 4750 H 458.233 1.4968 -2.593 0
M  V30 4751 H 455.779 0.718654 -1.24785 0
M  V30 4752 H 457.732 3.80491 -1.8112 0
M  V30 4753 H 456.456 3.18201 -0.735911 0
M  V30 4754 H 455.115 2.4407 -2.73542 0
M  V30 4755 H 454.763 4.71413 -1.7544 0
M  V30 4756 H 454.463 4.71214 -3.51042 0
M  V30 4757 H 455.987 5.3896 -2.86974 0
M  V30 4758 H 457.401 3.69558 -4.38292 0
M  V30 4759 H 455.798 3.2561 -5.04082 0
M  V30 4760 H 456.868 1.98396 -4.42456 0
M  V30 4761 N 458.211 1.37122 0.776871 0
M  V30 4762 C 459.622 1.28667 1.35284 0
M  V30 4763 C 459.973 -0.0680035 1.96082 0
M  V30 4764 O 459.098 -0.969743 1.93455 0
M  V30 4765 C 459.693 2.32997 2.45963 0
M  V30 4766 C 458.252 2.28191 2.99342 0
M  V30 4767 C 457.399 2.17101 1.72517 0
M  V30 4768 H 460.35 1.47819 0.577527 0
M  V30 4769 H 460.371 1.97366 3.2531 0
M  V30 4770 H 459.883 3.3158 2.01684 0
M  V30 4771 H 457.984 1.33115 3.4801 0
M  V30 4772 H 458.097 3.21397 3.55304 0
M  V30 4773 H 456.461 1.63562 1.95242 0
M  V30 4774 H 457.244 3.17591 1.30348 0
M  V30 4775 N 459.689 -1.00246 1.21608 0
M  V30 4776 C 460.938 -1.73476 1.02902 0
M  V30 4777 C 461.251 -1.90643 -0.437561 0
M  V30 4778 O 462.457 -2.61105 -0.74407 0
M  V30 4779 C 460.913 -3.12079 1.79261 0
M  V30 4780 C 460.521 -3.02877 3.30106 0
M  V30 4781 C 462.265 -3.89421 1.68972 0
M  V30 4782 C 460.172 -4.36575 3.98944 0
M  V30 4783 H 459.102 -0.650408 0.381425 0
M  V30 4784 H 461.753 -1.11985 1.45367 0
M  V30 4785 H 460.135 -3.74196 1.2959 0
M  V30 4786 H 461.309 -2.49983 3.87098 0
M  V30 4787 H 459.624 -2.39022 3.40965 0
M  V30 4788 H 462.221 -4.88362 2.17731 0
M  V30 4789 H 462.564 -4.1122 0.648397 0
M  V30 4790 H 463.097 -3.33963 2.16133 0
M  V30 4791 H 459.836 -4.19978 5.03288 0
M  V30 4792 H 459.356 -4.8942 3.4674 0
M  V30 4793 H 461.035 -5.05364 4.04 0
M  V30 4794 N 461.167 -1.02423 -1.1978 0
M  V30 4795 C 462.392 -0.7373 -1.93852 0
M  V30 4796 C 462.817 0.696923 -1.74713 0
M  V30 4797 O 462.175 1.48056 -1.04638 0
M  V30 4798 C 462.223 -1.08783 -3.438 0
M  V30 4799 O 461.327 -0.20383 -4.11896 0
M  V30 4800 H 460.668 -0.27284 -0.605355 0
M  V30 4801 H 463.198 -1.36966 -1.51992 0
M  V30 4802 H 463.208 -1.04276 -3.9445 0
M  V30 4803 H 461.883 -2.13274 -3.57053 0
M  V30 4804 H 460.46 -0.307091 -3.71633 0
M  V30 4805 N 462.645 1.35699 -0.801477 0
M  V30 4806 C 463.922 1.9324 -0.302937 0
M  V30 4807 C 464.302 1.73209 1.20672 0
M  V30 4808 O 463.65 1.09809 2.00385 0
M  V30 4809 C 463.86 3.41728 -0.708747 0
M  V30 4810 C 465.208 4.18868 -0.695328 0
M  V30 4811 O 466.232 3.5022 -0.649971 0
M  V30 4812 O 465.091 5.41342 -0.749081 0
M  V30 4813 H 462.185 0.82331 -0.0780367 0
M  V30 4814 H 464.731 1.44806 -0.884832 0
M  V30 4815 H 463.503 3.50015 -1.74944 0
M  V30 4816 H 463.126 3.97471 -0.101384 0
M  V30 4817 N 464.123 0.554532 1.47522 0
M  V30 4818 C 465.033 -0.197865 2.33764 0
M  V30 4819 C 466.049 -0.914576 1.48025 0
M  V30 4820 O 467.225 -0.884067 1.80959 0
M  V30 4821 C 464.29 -1.21628 3.24665 0
M  V30 4822 C 463.351 -0.507283 4.26292 0
M  V30 4823 C 462.584 -1.47718 5.1285 0
M  V30 4824 O 462.807 -2.7118 5.01814 0
M  V30 4825 O 461.741 -1.00313 5.93482 0
M  V30 4826 H 465.567 0.50949 2.99396 0
M  V30 4827 H 463.152 0.315176 1.46038 0
M  V30 4828 H 465.034 -1.80421 3.80823 0
M  V30 4829 H 463.709 -1.9056 2.61665 0
M  V30 4830 H 462.616 0.121778 3.73902 0
M  V30 4831 H 463.949 0.140544 4.91999 0
M  V30 4832 N 465.601 -1.54893 0.290851 0
M  V30 4833 C 466.878 -1.91991 -0.373989 0
M  V30 4834 C 467.258 -1.21694 -1.72493 0
M  V30 4835 O 466.606 -0.34917 -2.25816 0
M  V30 4836 C 466.816 -3.45419 -0.498703 0
M  V30 4837 C 468.164 -4.1748 -0.774298 0
M  V30 4838 O 469.188 -3.51398 -0.582908 0
M  V30 4839 O 468.047 -5.3445 -1.14129 0
M  V30 4840 H 465.141 -0.800593 -0.207315 0
M  V30 4841 H 467.687 -1.66297 0.338164 0
M  V30 4842 H 466.459 -3.88688 0.451392 0
M  V30 4843 H 466.082 -3.77117 -1.25972 0
M  V30 4844 N 467.08 -0.0183926 -1.57589 0
M  V30 4845 C 468.496 0.337897 -1.55982 0
M  V30 4846 C 468.696 1.73604 -1.02294 0
M  V30 4847 O 467.752 2.43589 -0.664895 0
M  V30 4848 C 469.065 0.196305 -3.00059 0
M  V30 4849 C 470.613 0.269875 -3.11834 0
M  V30 4850 C 471.088 0.157197 -4.5773 0
M  V30 4851 N 472.579 0.214521 -4.62703 0
M  V30 4852 C 473.314 0.150955 -5.73201 0
M  V30 4853 N 472.81 0.0369212 -6.9279 0
M  V30 4854 N 474.603 0.204162 -5.61729 0
M  V30 4855 H 466.754 -0.93279 -1.90821 0
M  V30 4856 H 469.017 -0.359253 -0.877292 0
M  V30 4857 H 468.723 -0.766383 -3.43248 0
M  V30 4858 H 468.597 0.970908 -3.6449 0
M  V30 4859 H 470.984 1.22302 -2.68563 0
M  V30 4860 H 471.065 -0.534918 -2.50144 0
M  V30 4861 H 470.709 -0.792479 -5.01679 0
M  V30 4862 H 470.639 0.980717 -5.17387 0
M  V30 4863 H 473.13 0.303238 -3.76681 0
M  V30 4864 H 473.443 -0.00518321 -7.728 0
M  V30 4865 H 471.788 0.0022886 -6.95 0
M  V30 4866 H 474.979 0.291575 -4.67191 0
M  V30 4867 H 475.152 0.15116 -6.47824 0
M  V30 4868 N 468.558 1.5553 0.254621 0
M  V30 4869 C 469.786 1.81046 1.00149 0
M  V30 4870 C 470.201 0.593047 1.79244 0
M  V30 4871 O 469.558 -0.438196 1.77161 0
M  V30 4872 C 469.609 3.04684 1.94551 0
M  V30 4873 O 469.33 4.21725 1.18658 0
M  V30 4874 C 470.831 3.42943 2.80901 0
M  V30 4875 H 468.051 0.602653 0.295044 0
M  V30 4876 H 470.595 2.02576 0.279842 0
M  V30 4877 H 468.75 2.85226 2.62154 0
M  V30 4878 H 469.164 4.91746 1.82445 0
M  V30 4879 H 470.638 4.32576 3.42902 0
M  V30 4880 H 471.115 2.63176 3.51617 0
M  V30 4881 H 471.721 3.64724 2.18762 0
M  V30 4882 N 470.036 -0.519951 1.48776 0
M  V30 4883 C 471.447 -1.10177 1.50725 0
M  V30 4884 C 471.798 -1.94153 0.282678 0
M  V30 4885 O 470.923 -2.07645 -0.609298 0
M  V30 4886 C 471.518 -2.00482 2.73116 0
M  V30 4887 C 470.077 -2.53862 2.77905 0
M  V30 4888 C 469.224 -1.31047 2.44381 0
M  V30 4889 H 472.175 -0.30473 1.55747 0
M  V30 4890 H 472.196 -2.8491 2.52203 0
M  V30 4891 H 471.708 -1.39335 3.62225 0
M  V30 4892 H 469.809 -3.18702 1.93029 0
M  V30 4893 H 469.922 -2.9231 3.79594 0
M  V30 4894 H 468.286 -1.62953 1.95751 0
M  V30 4895 H 469.069 -0.71637 3.35743 0
M  V30 4896 N 471.514 -1.37532 -0.769588 0
M  V30 4897 C 472.93 -1.18379 -1.07045 0
M  V30 4898 C 473.13 -0.0214312 -2.01489 0
M  V30 4899 O 472.186 0.637809 -2.44312 0
M  V30 4900 C 473.499 -2.50338 -1.66588 0
M  V30 4901 C 475.047 -2.56879 -1.78835 0
M  V30 4902 C 475.522 -3.88974 -2.41792 0
M  V30 4903 N 477.013 -3.90428 -2.4924 0
M  V30 4904 C 477.748 -4.89388 -2.98809 0
M  V30 4905 N 477.244 -5.98745 -3.48535 0
M  V30 4906 N 479.037 -4.76791 -2.97703 0
M  V30 4907 H 471.188 -2.11921 -0.142541 0
M  V30 4908 H 473.451 -0.939608 -0.125863 0
M  V30 4909 H 473.157 -3.35767 -1.0466 0
M  V30 4910 H 473.031 -2.67583 -2.65856 0
M  V30 4911 H 475.418 -1.71856 -2.39895 0
M  V30 4912 H 475.499 -2.43516 -0.783166 0
M  V30 4913 H 475.143 -4.74412 -1.81371 0
M  V30 4914 H 475.073 -3.99641 -3.4292 0
M  V30 4915 H 477.564 -3.11433 -2.14052 0
M  V30 4916 H 477.877 -6.70205 -3.84767 0
M  V30 4917 H 476.222 -6.02387 -3.46634 0
M  V30 4918 H 479.413 -3.90478 -2.58157 0
M  V30 4919 H 479.586 -5.54069 -3.36024 0
M  V30 4920 N 472.992 0.995999 -1.22138 0
M  V30 4921 C 473.939 2.08551 -0.988687 0
M  V30 4922 C 474.909 1.65864 0.0885021 0
M  V30 4923 O 476.094 1.90704 -0.0604589 0
M  V30 4924 C 473.234 3.40374 -0.569191 0
M  V30 4925 C 472.347 3.96421 -1.71681 0
M  V30 4926 C 471.482 5.1639 -1.2456 0
M  V30 4927 C 470.521 5.64567 -2.36497 0
M  V30 4928 N 469.658 6.75777 -1.90445 0
M  V30 4929 H 474.498 2.2779 -1.92135 0
M  V30 4930 H 472.035 1.1168 -0.957388 0
M  V30 4931 H 473.993 4.16068 -0.307166 0
M  V30 4932 H 472.623 3.21145 0.326462 0
M  V30 4933 H 471.675 3.17628 -2.09324 0
M  V30 4934 H 472.987 4.2816 -2.55891 0
M  V30 4935 H 472.141 5.99362 -0.940774 0
M  V30 4936 H 470.88 4.86266 -0.373662 0
M  V30 4937 H 469.885 4.80185 -2.67772 0
M  V30 4938 H 471.11 5.96716 -3.24202 0
M  V30 4939 H 469.056 6.47443 -1.05609 0
M  V30 4940 H 468.973 7.06818 -2.68223 0
M  V30 4941 H 470.241 7.62262 -1.63022 0
M  V30 4942 N 474.47 1.03057 1.19235 0
M  V30 4943 C 475.886 0.747947 1.40989 0
M  V30 4944 C 476.086 -0.666752 1.90149 0
M  V30 4945 O 475.142 -1.43249 2.07933 0
M  V30 4946 C 476.455 1.7855 2.41951 0
M  V30 4947 C 478.003 1.80524 2.55695 0
M  V30 4948 C 478.478 2.83243 3.59913 0
M  V30 4949 N 479.969 2.8207 3.67411 0
M  V30 4950 C 480.704 3.58204 4.47747 0
M  V30 4951 N 480.2 4.44057 5.31775 0
M  V30 4952 N 481.993 3.46738 4.42413 0
M  V30 4953 H 474.144 1.94367 0.856468 0
M  V30 4954 H 476.407 0.840412 0.438647 0
M  V30 4955 H 476.113 2.79973 2.12857 0
M  V30 4956 H 475.987 1.6092 3.41152 0
M  V30 4957 H 478.374 0.79778 2.84112 0
M  V30 4958 H 478.455 2.02229 1.56643 0
M  V30 4959 H 478.099 3.84161 3.32239 0
M  V30 4960 H 478.029 2.58795 4.5862 0
M  V30 4961 H 480.52 2.19803 3.074 0
M  V30 4962 H 480.833 4.98884 5.90199 0
M  V30 4963 H 479.178 4.48129 5.3123 0
M  V30 4964 H 482.369 2.79077 3.75811 0
M  V30 4965 H 482.542 4.06322 5.04783 0
M  V30 4966 N 475.948 -1.35272 0.808662 0
M  V30 4967 C 477.197 -1.97963 0.386483 0
M  V30 4968 C 477.51 -1.64866 -1.05255 0
M  V30 4969 O 478.716 -2.20937 -1.57794 0
M  V30 4970 C 477.172 -3.54162 0.640096 0
M  V30 4971 C 476.78 -3.96166 2.0918 0
M  V30 4972 C 478.524 -4.23553 0.283376 0
M  V30 4973 C 476.431 -5.4522 2.29106 0
M  V30 4974 H 475.361 -0.740742 0.140774 0
M  V30 4975 H 478.012 -1.5431 0.993012 0
M  V30 4976 H 476.394 -3.95983 -0.0364117 0
M  V30 4977 H 477.568 -3.65491 2.80629 0
M  V30 4978 H 475.883 -3.3967 2.40859 0
M  V30 4979 H 478.48 -5.33124 0.410273 0
M  V30 4980 H 478.823 -4.09105 -0.770659 0
M  V30 4981 H 479.356 -3.8716 0.913884 0
M  V30 4982 H 476.095 -5.64638 3.32962 0
M  V30 4983 H 475.615 -5.77457 1.62184 0
M  V30 4984 H 477.294 -6.1171 2.1076 0
M  V30 4985 N 477.426 -0.562348 -1.47226 0
M  V30 4986 C 478.651 -0.0432632 -2.07355 0
M  V30 4987 C 479.076 1.24332 -1.41149 0
M  V30 4988 O 478.434 1.74603 -0.488226 0
M  V30 4989 C 478.482 0.130288 -3.60365 0
M  V30 4990 O 477.586 1.19166 -3.94808 0
M  V30 4991 H 476.927 -0.0536334 -0.66183 0
M  V30 4992 H 479.457 -0.779495 -1.89169 0
M  V30 4993 H 479.467 0.342881 -4.06557 0
M  V30 4994 H 478.142 -0.809389 -4.07948 0
M  V30 4995 H 476.719 0.959153 -3.60354 0
M  V30 4996 N 478.904 1.54736 -0.299062 0
M  V30 4997 C 479.851 2.23448 0.577899 0
M  V30 4998 C 480.821 1.21637 1.13109 0
M  V30 4999 O 482.006 1.50252 1.17597 0
M  V30 5000 C 479.146 2.9774 1.74484 0
M  V30 5001 C 478.259 4.1432 1.22323 0
M  V30 5002 C 477.394 4.76199 2.35388 0
M  V30 5003 C 476.433 5.84927 1.80351 0
M  V30 5004 N 475.57 6.4077 2.86982 0
M  V30 5005 H 480.41 2.97996 -0.0146545 0
M  V30 5006 H 477.947 1.47088 -0.0190013 0
M  V30 5007 H 479.905 3.39045 2.43114 0
M  V30 5008 H 478.535 2.25572 2.30905 0
M  V30 5009 H 477.587 3.7797 0.429249 0
M  V30 5010 H 478.899 4.92659 0.780309 0
M  V30 5011 H 478.053 5.20346 3.11969 0
M  V30 5012 H 476.792 3.97188 2.83006 0
M  V30 5013 H 475.797 5.40207 1.02259 0
M  V30 5014 H 477.022 6.65821 1.3364 0
M  V30 5015 H 474.968 5.64643 3.33938 0
M  V30 5016 H 474.885 7.1445 2.4718 0
M  V30 5017 H 476.153 6.89574 3.63466 0
M  V30 5018 N 480.382 0.0267497 1.57577 0
M  V30 5019 C 481.61 -0.662661 1.96001 0
M  V30 5020 C 482.025 -1.65799 0.903117 0
M  V30 5021 O 481.382 -1.82135 -0.115317 0
M  V30 5022 C 481.433 -1.37112 3.34488 0
M  V30 5023 O 481.154 -0.415683 4.36123 0
M  V30 5024 C 482.655 -2.15257 3.8753 0
M  V30 5025 H 479.875 -0.18287 0.6456 0
M  V30 5026 H 482.419 0.0858116 2.0432 0
M  V30 5027 H 480.574 -2.07101 3.27395 0
M  V30 5028 H 480.988 -0.918496 5.16395 0
M  V30 5029 H 482.462 -2.60285 4.86781 0
M  V30 5030 H 482.939 -2.99063 3.21649 0
M  V30 5031 H 483.545 -1.50231 3.97883 0
M  V30 5032 N 481.861 -1.55662 -0.24637 0
M  V30 5033 C 482.791 -1.93377 -1.30873 0
M  V30 5034 C 483.772 -0.798773 -1.50179 0
M  V30 5035 O 484.957 -1.0591 -1.62778 0
M  V30 5036 C 482.087 -2.22893 -2.66338 0
M  V30 5037 C 481.041 -3.38649 -2.61727 0
M  V30 5038 C 480.367 -3.53708 -4.00992 0
M  V30 5039 C 481.667 -4.74323 -2.18666 0
M  V30 5040 H 483.361 -2.82363 -0.995552 0
M  V30 5041 H 480.907 -1.35854 -0.477464 0
M  V30 5042 H 482.86 -2.47866 -3.40794 0
M  V30 5043 H 481.584 -1.30733 -2.99293 0
M  V30 5044 H 480.243 -3.13685 -1.89729 0
M  V30 5045 H 479.891 -2.58967 -4.31214 0
M  V30 5046 H 479.591 -4.31551 -3.98795 0
M  V30 5047 H 481.115 -3.81003 -4.77147 0
M  V30 5048 H 482.529 -4.98665 -2.82854 0
M  V30 5049 H 480.926 -5.55273 -2.27579 0
M  V30 5050 H 481.996 -4.71349 -1.13834 0
M  V30 5051 N 483.339 0.512053 -1.4905 0
M  V30 5052 C 484.287 1.63568 -1.65373 0
M  V30 5053 C 485.281 1.61228 -0.519806 0
M  V30 5054 O 486.487 1.65869 -0.699101 0
M  V30 5055 H 482.862 0.542019 -0.521267 0
M  V30 5056 H 484.833 1.4695 -2.59708 0
M  V30 5057 C 483.582 3.01761 -1.7273 0
M  V30 5058 H 482.905 3.04263 -2.59353 0
M  V30 5059 H 484.345 3.79948 -1.8819 0
M  V30 5060 C 482.804 3.33609 -0.46973 0
M  V30 5061 O 483.334 3.99607 0.409492 0
M  V30 5062 N 481.54 2.88651 -0.336003 0
M  V30 5063 H 481.087 2.35119 -1.05247 0
M  V30 5064 H 481.045 3.10328 0.504363 0
M  V30 5065 N 484.817 1.37938 0.762283 0
M  V30 5066 C 485.75 1.2884 1.88349 0
M  V30 5067 C 486.728 0.167084 1.61739 0
M  V30 5068 O 487.912 0.34292 1.85355 0
M  V30 5069 C 485.039 0.994257 3.23778 0
M  V30 5070 C 484.085 2.13376 3.69287 0
M  V30 5071 S 484.918 3.75439 3.81845 0
M  V30 5072 C 486.074 3.48195 5.20107 0
M  V30 5073 H 486.307 2.23736 1.95779 0
M  V30 5074 H 483.84 1.23672 0.924368 0
M  V30 5075 H 485.798 0.83138 4.01993 0
M  V30 5076 H 484.459 0.0626251 3.14038 0
M  V30 5077 H 483.652 1.88319 4.67495 0
M  V30 5078 H 483.254 2.25726 2.98201 0
M  V30 5079 H 485.546 3.0377 6.05583 0
M  V30 5080 H 486.489 4.45765 5.50181 0
M  V30 5081 H 486.897 2.82905 4.88493 0
M  V30 5082 N 486.295 -0.989507 1.22664 0
M  V30 5083 C 487.523 -1.76496 1.07967 0
M  V30 5084 C 487.938 -1.85148 -0.369543 0
M  V30 5085 O 487.295 -1.32408 -1.25596 0
M  V30 5086 C 487.346 -3.19642 1.68853 0
M  V30 5087 O 487.067 -3.11453 3.08105 0
M  V30 5088 C 488.568 -4.13621 1.59475 0
M  V30 5089 H 485.788 -0.55418 0.378319 0
M  V30 5090 H 488.332 -1.24378 1.62328 0
M  V30 5091 H 486.487 -3.68816 1.18547 0
M  V30 5092 H 486.901 -4.01499 3.37489 0
M  V30 5093 H 488.375 -5.11801 2.06795 0
M  V30 5094 H 488.852 -4.35718 0.55191 0
M  V30 5095 H 489.458 -3.70346 2.09103 0
M  V30 5096 N 487.773 -1.03688 -1.18687 0
M  V30 5097 C 489.001 -0.757918 -1.92518 0
M  V30 5098 C 489.416 0.684398 -1.75959 0
M  V30 5099 O 488.773 1.46617 -1.08673 0
M  V30 5100 C 488.824 -1.10985 -3.44042 0
M  V30 5101 O 488.545 -2.49554 -3.60076 0
M  V30 5102 C 490.046 -0.854844 -4.3498 0
M  V30 5103 H 487.266 -0.276699 -0.611293 0
M  V30 5104 H 489.81 -1.38352 -1.50595 0
M  V30 5105 H 487.965 -0.529279 -3.83767 0
M  V30 5106 H 488.379 -2.6291 -4.53849 0
M  V30 5107 H 489.853 -1.15098 -5.39867 0
M  V30 5108 H 490.33 0.210507 -4.38695 0
M  V30 5109 H 490.936 -1.41853 -4.00946 0
M  V30 5110 N 489.251 1.34841 -0.815825 0
M  V30 5111 C 490.476 2.03261 -0.41226 0
M  V30 5112 C 490.901 1.61055 0.971751 0
M  V30 5113 O 490.259 0.7917 1.63101 0
M  V30 5114 C 490.307 3.56914 -0.514289 0
M  V30 5115 O 489.411 4.09728 0.468675 0
M  V30 5116 H 488.752 0.641664 -0.170771 0
M  V30 5117 H 491.282 1.72241 -1.10427 0
M  V30 5118 H 491.292 4.06156 -0.387457 0
M  V30 5119 H 489.967 3.86982 -1.52375 0
M  V30 5120 H 488.544 3.71681 0.301316 0
M  V30 5121 N 490.729 0.570148 1.46925 0
M  V30 5122 C 492.14 0.1402 1.86173 0
M  V30 5123 C 492.491 -1.29347 1.47526 0
M  V30 5124 O 491.616 -1.97508 0.884292 0
M  V30 5125 C 492.211 0.247661 3.37894 0
M  V30 5126 C 490.77 -0.127332 3.76185 0
M  V30 5127 C 489.917 0.589349 2.70965 0
M  V30 5128 H 492.868 0.779117 1.38259 0
M  V30 5129 H 492.889 -0.530341 3.76786 0
M  V30 5130 H 492.401 1.29121 3.65991 0
M  V30 5131 H 490.502 -1.17149 3.53704 0
M  V30 5132 H 490.615 0.240238 4.78497 0
M  V30 5133 H 488.979 0.0309824 2.54681 0
M  V30 5134 H 489.762 1.6343 3.01903 0
M  V30 5135 N 492.207 -1.54576 0.307264 0
M  V30 5136 C 493.117 -2.27435 -0.57536 0
M  V30 5137 C 494.133 -1.31183 -1.14311 0
M  V30 5138 O 495.309 -1.64175 -1.16656 0
M  V30 5139 C 492.374 -3.00566 -1.72803 0
M  V30 5140 C 491.435 -4.12369 -1.19373 0
M  V30 5141 C 490.668 -4.82003 -2.29147 0
M  V30 5142 O 490.891 -4.51038 -3.49171 0
M  V30 5143 O 489.825 -5.69271 -1.95485 0
M  V30 5144 H 493.651 -3.03696 0.0158558 0
M  V30 5145 H 491.236 -1.49219 0.0735064 0
M  V30 5146 H 493.118 -3.46416 -2.39946 0
M  V30 5147 H 491.793 -2.27195 -2.30574 0
M  V30 5148 H 490.7 -3.70905 -0.487851 0
M  V30 5149 H 492.033 -4.87736 -0.661376 0
M  V30 5150 N 493.685 -0.035106 -1.57561 0
M  V30 5151 C 494.595 0.960295 -2.14046 0
M  V30 5152 C 495.611 1.3529 -1.0942 0
M  V30 5153 O 496.787 1.43309 -1.41508 0
M  V30 5154 C 493.852 2.22214 -2.66124 0
M  V30 5155 C 492.913 1.8894 -3.85487 0
M  V30 5156 C 492.146 3.09109 -4.35072 0
M  V30 5157 O 492.369 4.21963 -3.83802 0
M  V30 5158 O 491.303 2.91058 -5.26848 0
M  V30 5159 H 495.129 0.509983 -2.99387 0
M  V30 5160 H 492.714 0.185853 -1.48239 0
M  V30 5161 H 494.596 2.96279 -2.99661 0
M  V30 5162 H 493.271 2.66414 -1.83862 0
M  V30 5163 H 492.178 1.12241 -3.56865 0
M  V30 5164 H 493.511 1.49551 -4.6893 0
M  V30 5165 N 495.163 1.55791 0.238111 0
M  V30 5166 C 496.11 1.9105 1.29493 0
M  V30 5167 C 497.08 0.765733 1.47397 0
M  V30 5168 O 498.265 1.02017 1.61236 0
M  V30 5169 C 495.405 2.21826 2.64362 0
M  V30 5170 C 494.518 3.49153 2.54394 0
M  V30 5171 C 493.653 3.69455 3.81676 0
M  V30 5172 C 492.692 4.90353 3.66361 0
M  V30 5173 N 491.829 5.07131 4.85554 0
M  V30 5174 H 496.669 2.81172 0.987233 0
M  V30 5175 H 494.206 1.39179 0.476203 0
M  V30 5176 H 496.164 2.37675 3.4288 0
M  V30 5177 H 494.794 1.34897 2.93262 0
M  V30 5178 H 493.846 3.41587 1.67399 0
M  V30 5179 H 495.158 4.37818 2.38991 0
M  V30 5180 H 494.312 3.85311 4.68636 0
M  V30 5181 H 493.051 2.7904 3.99985 0
M  V30 5182 H 492.056 4.74464 2.77784 0
M  V30 5183 H 493.281 5.82237 3.49538 0
M  V30 5184 H 491.227 4.19654 5.04209 0
M  V30 5185 H 491.144 5.89899 4.72816 0
M  V30 5186 H 492.412 5.27407 5.73988 0
M  V30 5187 N 496.642 -0.504142 1.49319 0
M  V30 5188 C 498.058 -0.835039 1.36012 0
M  V30 5189 C 498.258 -1.97674 0.390808 0
M  V30 5190 O 497.314 -2.51867 -0.178655 0
M  V30 5191 C 498.627 -1.17821 2.76656 0
M  V30 5192 C 500.175 -1.2866 2.85334 0
M  V30 5193 C 500.65 -1.66307 4.26739 0
M  V30 5194 N 502.141 -1.73362 4.29534 0
M  V30 5195 C 502.876 -2.0393 5.35911 0
M  V30 5196 N 502.372 -2.32744 6.52535 0
M  V30 5197 N 504.165 -2.05155 5.23324 0
M  V30 5198 H 496.316 0.248764 2.10938 0
M  V30 5199 H 498.579 0.0486962 0.946748 0
M  V30 5200 H 498.285 -0.412682 3.4927 0
M  V30 5201 H 498.159 -2.12239 3.11825 0
M  V30 5202 H 500.546 -2.04285 2.1296 0
M  V30 5203 H 500.627 -0.323004 2.53752 0
M  V30 5204 H 500.271 -0.91234 4.99639 0
M  V30 5205 H 500.201 -2.63761 4.55782 0
M  V30 5206 H 502.692 -1.53268 3.45424 0
M  V30 5207 H 503.005 -2.55248 7.2943 0
M  V30 5208 H 501.35 -2.30207 6.55767 0
M  V30 5209 H 504.541 -1.82119 4.3122 0
M  V30 5210 H 504.714 -2.28644 6.06322 0
M  V30 5211 N 498.12 -1.38341 -0.754957 0
M  V30 5212 C 499.067 -1.3546 -1.86867 0
M  V30 5213 C 500.037 -0.217369 -1.64672 0
M  V30 5214 O 501.222 -0.409383 -1.86356 0
M  V30 5215 C 498.362 -1.18413 -3.24149 0
M  V30 5216 C 497.475 -2.41511 -3.58185 0
M  V30 5217 C 496.61 -2.17205 -4.84763 0
M  V30 5218 C 495.649 -3.36081 -5.11582 0
M  V30 5219 N 494.786 -3.11219 -6.29354 0
M  V30 5220 H 499.626 -2.30672 -1.88664 0
M  V30 5221 H 497.163 -1.14607 -0.922154 0
M  V30 5222 H 499.121 -1.06545 -4.03366 0
M  V30 5223 H 497.751 -0.268397 -3.21682 0
M  V30 5224 H 496.803 -2.64056 -2.73822 0
M  V30 5225 H 498.115 -3.30115 -3.73932 0
M  V30 5226 H 497.269 -2.02465 -5.7192 0
M  V30 5227 H 496.008 -1.25964 -4.71152 0
M  V30 5228 H 495.013 -3.51341 -4.22894 0
M  V30 5229 H 496.238 -4.28196 -5.27091 0
M  V30 5230 H 494.184 -2.22624 -6.17069 0
M  V30 5231 H 494.101 -3.93373 -6.45596 0
M  V30 5232 H 495.369 -3.00132 -7.19403 0
M  V30 5233 N 499.598 0.982988 -1.23187 0
M  V30 5234 C 500.847 1.71817 -1.05649 0
M  V30 5235 C 501.16 1.91315 0.407176 0
M  V30 5236 O 502.366 2.62256 0.702436 0
M  V30 5237 C 500.822 3.09188 -1.84203 0
M  V30 5238 C 500.43 2.97586 -3.34882 0
M  V30 5239 C 502.174 3.86684 -1.75146 0
M  V30 5240 C 500.081 4.30173 -4.05839 0
M  V30 5241 H 499.011 0.644258 -0.391724 0
M  V30 5242 H 501.662 1.09659 -1.4713 0
M  V30 5243 H 500.044 3.72087 -1.35527 0
M  V30 5244 H 501.218 2.43793 -3.91026 0
M  V30 5245 H 499.533 2.33567 -3.44725 0
M  V30 5246 H 502.13 4.84836 -2.25473 0
M  V30 5247 H 502.473 4.10136 -0.713737 0
M  V30 5248 H 503.006 3.30482 -2.21419 0
M  V30 5249 H 499.745 4.11918 -5.09906 0
M  V30 5250 H 499.265 4.83841 -3.54482 0
M  V30 5251 H 500.944 4.98873 -4.11989 0
M  V30 5252 N 501.076 1.04316 1.18135 0
M  V30 5253 C 502.325 0.74319 1.87509 0
M  V30 5254 C 502.638 -0.732136 1.81381 0
M  V30 5255 O 503.844 -1.14572 2.46141 0
M  V30 5256 C 502.3 1.27913 3.36402 0
M  V30 5257 C 501.908 2.78326 3.51053 0
M  V30 5258 C 503.652 1.0558 4.11161 0
M  V30 5259 C 501.559 3.25266 4.93919 0
M  V30 5260 H 500.489 0.274313 0.702331 0
M  V30 5261 H 503.14 1.25931 1.33467 0
M  V30 5262 H 501.522 0.690853 3.89927 0
M  V30 5263 H 502.696 3.42933 3.07788 0
M  V30 5264 H 501.011 2.991 2.89704 0
M  V30 5265 H 503.608 1.38161 5.16542 0
M  V30 5266 H 503.951 -0.00684729 4.16299 0
M  V30 5267 H 504.484 1.60882 3.63816 0
M  V30 5268 H 501.223 4.30922 4.9395 0
M  V30 5269 H 500.743 2.65396 5.3789 0
M  V30 5270 H 502.422 3.19433 5.62647 0
M  V30 5271 N 502.554 -1.34406 0.822964 0
M  V30 5272 C 503.802 -1.97892 0.410245 0
M  V30 5273 C 504.123 -1.65567 -1.03017 0
M  V30 5274 O 503.393 -0.94642 -1.71522 0
M  V30 5275 H 501.973 -0.732049 0.148707 0
M  V30 5276 H 504.635 -1.64043 1.05242 0
M  V30 5277 H 503.731 -3.07579 0.529284 0
M  V30 5278 N 504.032 -0.577932 -1.46621 0
M  V30 5279 C 505.309 0.00495287 -1.95599 0
M  V30 5280 C 505.689 1.46428 -1.5206 0
M  V30 5281 O 505.037 2.1517 -0.769046 0
M  V30 5282 C 505.247 -0.162114 -3.48623 0
M  V30 5283 C 506.595 -0.0274623 -4.24591 0
M  V30 5284 O 507.619 -0.0907067 -3.56084 0
M  V30 5285 O 506.478 0.1122 -5.46385 0
M  V30 5286 H 503.572 0.0525057 -0.825332 0
M  V30 5287 H 506.118 -0.645914 -1.56927 0
M  V30 5288 H 504.89 -1.17679 -3.73185 0
M  V30 5289 H 504.513 0.525407 -3.94113 0
M  V30 5290 N 505.51 1.54411 -0.315457 0
M  V30 5291 C 506.738 2.04833 0.291738 0
M  V30 5292 C 507.153 1.19203 1.46411 0
M  V30 5293 O 506.51 0.220867 1.81159 0
M  V30 5294 C 506.561 3.53969 0.73404 0
M  V30 5295 O 506.282 4.36346 -0.391682 0
M  V30 5296 C 507.783 4.2045 1.40489 0
M  V30 5297 H 505.003 0.668195 0.0612947 0
M  V30 5298 H 507.547 1.99276 -0.45929 0
M  V30 5299 H 505.702 3.5984 1.43506 0
M  V30 5300 H 506.116 5.24481 -0.0447088 0
M  V30 5301 H 507.59 5.26278 1.66539 0
M  V30 5302 H 508.067 3.71067 2.3496 0
M  V30 5303 H 508.673 4.18694 0.746662 0
M  V30 5304 N 506.988 0.0434614 1.5754 0
M  V30 5305 C 508.235 -0.632035 1.92384 0
M  V30 5306 C 508.563 -1.71304 0.921157 0
M  V30 5307 O 507.818 -1.95583 -0.067744 0
M  V30 5308 C 508.117 -1.2738 3.3393 0
M  V30 5309 C 507.783 -0.321757 4.49751 0
M  V30 5310 C 506.445 -0.0597611 4.81163 0
M  V30 5311 C 508.797 0.331158 5.20147 0
M  V30 5312 C 506.125 0.862715 5.80322 0
M  V30 5313 C 508.477 1.24178 6.20292 0
M  V30 5314 C 507.141 1.51252 6.50138 0
M  V30 5315 H 506.411 -0.231278 0.703983 0
M  V30 5316 H 509.058 0.108294 1.91194 0
M  V30 5317 H 507.363 -2.08921 3.3145 0
M  V30 5318 H 509.06 -1.80326 3.58167 0
M  V30 5319 H 505.65 -0.53614 4.25233 0
M  V30 5320 H 509.834 0.141826 4.96097 0
M  V30 5321 H 505.09 1.08003 6.01785 0
M  V30 5322 H 509.264 1.75381 6.73954 0
M  V30 5323 H 506.891 2.22897 7.26788 0
M  V30 5324 N 508.466 -1.55915 -0.229846 0
M  V30 5325 C 509.712 -1.78807 -0.956868 0
M  V30 5326 C 510.045 -0.611687 -1.84315 0
M  V30 5327 O 509.32 0.389398 -1.90562 0
M  V30 5328 C 509.603 -3.11718 -1.80288 0
M  V30 5329 C 509.456 -4.3979 -0.943649 0
M  V30 5330 C 510.775 -3.40999 -2.78222 0
M  V30 5331 H 507.894 -0.6505 -0.346437 0
M  V30 5332 H 510.536 -1.88648 -0.226252 0
M  V30 5333 H 508.686 -3.03459 -2.42579 0
M  V30 5334 H 510.358 -4.60059 -0.338121 0
M  V30 5335 H 508.601 -4.33086 -0.248705 0
M  V30 5336 H 509.272 -5.29208 -1.5698 0
M  V30 5337 H 511.748 -3.49332 -2.26067 0
M  V30 5338 H 510.624 -4.35183 -3.34526 0
M  V30 5339 H 510.885 -2.62754 -3.55546 0
M  V30 5340 N 509.944 0.496216 -1.49584 0
M  V30 5341 C 510.891 1.59722 -1.66606 0
M  V30 5342 C 511.861 1.58158 -0.507477 0
M  V30 5343 O 513.046 1.76072 -0.735076 0
M  V30 5344 C 510.186 2.97844 -1.74308 0
M  V30 5345 C 509.299 3.09388 -3.01502 0
M  V30 5346 C 508.434 4.38271 -3.00153 0
M  V30 5347 C 507.473 4.43466 -4.21906 0
M  V30 5348 N 506.61 5.63784 -4.1844 0
M  V30 5349 H 511.45 1.44515 -2.60613 0
M  V30 5350 H 508.987 0.703048 -1.29212 0
M  V30 5351 H 510.945 3.77907 -1.76754 0
M  V30 5352 H 509.575 3.11743 -0.837619 0
M  V30 5353 H 508.627 2.22357 -3.08645 0
M  V30 5354 H 509.939 3.09085 -3.91494 0
M  V30 5355 H 509.093 5.2666 -3.01188 0
M  V30 5356 H 507.832 4.41146 -2.07947 0
M  V30 5357 H 506.837 3.53478 -4.21109 0
M  V30 5358 H 508.062 4.42303 -5.1531 0
M  V30 5359 H 506.008 5.67491 -3.29074 0
M  V30 5360 H 505.925 5.65118 -5.02173 0
M  V30 5361 H 507.193 6.54367 -4.23585 0
M  V30 5362 N 511.423 1.38739 0.74761 0
M  V30 5363 C 512.672 1.3459 1.50228 0
M  V30 5364 C 512.985 -0.0595592 1.95509 0
M  V30 5365 O 514.191 -0.22361 2.70578 0
M  V30 5366 C 512.647 2.36377 2.71393 0
M  V30 5367 C 512.255 3.82573 2.33113 0
M  V30 5368 C 513.999 2.41281 3.49262 0
M  V30 5369 C 511.906 4.76032 3.50924 0
M  V30 5370 H 510.836 0.500312 0.564096 0
M  V30 5371 H 513.487 1.64324 0.8167 0
M  V30 5372 H 511.869 1.99694 3.41962 0
M  V30 5373 H 513.043 4.28227 1.70171 0
M  V30 5374 H 511.358 3.80844 1.68365 0
M  V30 5375 H 513.955 3.08301 4.36869 0
M  V30 5376 H 514.298 1.43353 3.9084 0
M  V30 5377 H 514.831 2.76793 2.85711 0
M  V30 5378 H 511.57 5.75177 3.14408 0
M  V30 5379 H 511.09 4.35066 4.12889 0
M  V30 5380 H 512.769 4.94331 4.17427 0
M  V30 5381 N 512.901 -0.976442 1.23707 0
M  V30 5382 C 513.864 -2.0511 1.02287 0
M  V30 5383 C 514.864 -1.60791 -0.0167195 0
M  V30 5384 O 516.054 -1.72761 0.223408 0
M  V30 5385 C 513.186 -3.36458 0.548507 0
M  V30 5386 H 514.379 -2.25545 1.9766 0
M  V30 5387 H 511.932 -1.15042 1.05806 0
M  V30 5388 H 512.667 -3.21713 -0.408818 0
M  V30 5389 H 512.452 -3.69967 1.29874 0
M  V30 5390 H 513.942 -4.15489 0.419406 0
M  V30 5391 N 514.379 -1.04941 -1.1758 0
M  V30 5392 C 515.327 -0.64204 -2.23563 0
M  V30 5393 C 516.321 0.335453 -1.66045 0
M  V30 5394 O 517.527 0.20179 -1.78865 0
M  V30 5395 H 513.902 -0.18944 -0.727748 0
M  V30 5396 H 515.873 -1.54609 -2.55223 0
M  V30 5397 C 514.622 -0.0301051 -3.47687 0
M  V30 5398 H 513.945 -0.773339 -3.92249 0
M  V30 5399 H 515.385 0.217592 -4.23441 0
M  V30 5400 C 513.844 1.2225 -3.13937 0
M  V30 5401 O 514.374 2.3122 -3.28482 0
M  V30 5402 N 512.58 1.11917 -2.68185 0
M  V30 5403 H 512.127 0.232403 -2.5655 0
M  V30 5404 H 512.085 1.95814 -2.45976 0
M  V30 5405 N 515.857 1.33968 -0.830081 0
M  V30 5406 C 516.767 2.33164 -0.259207 0
M  V30 5407 C 517.783 1.62951 0.610164 0
M  V30 5408 O 518.959 1.94668 0.516369 0
M  V30 5409 C 516.024 3.42088 0.563598 0
M  V30 5410 C 515.085 4.28037 -0.329014 0
M  V30 5411 C 514.318 5.3176 0.454616 0
M  V30 5412 O 514.541 5.44876 1.6872 0
M  V30 5413 O 513.475 6.01669 -0.166794 0
M  V30 5414 H 517.301 2.83832 -1.08041 0
M  V30 5415 H 514.886 1.37154 -0.59239 0
M  V30 5416 H 516.768 4.08581 1.03147 0
M  V30 5417 H 515.443 2.93651 1.36201 0
M  V30 5418 H 514.35 3.64443 -0.844538 0
M  V30 5419 H 515.683 4.79934 -1.09196 0
M  V30 5420 N 517.335 0.585699 1.46312 0
M  V30 5421 C 518.581 0.0725284 2.0267 0
M  V30 5422 C 518.914 -1.28523 1.45586 0
M  V30 5423 O 518.189 -1.84283 0.622101 0
M  V30 5424 C 518.472 0.0099788 3.60099 0
M  V30 5425 C 518.325 1.39685 4.27561 0
M  V30 5426 C 519.644 -0.689117 4.34671 0
M  V30 5427 H 516.763 0.0278307 0.736474 0
M  V30 5428 H 519.405 0.753472 1.74421 0
M  V30 5429 H 517.555 -0.56992 3.84297 0
M  V30 5430 H 519.227 2.02215 4.14617 0
M  V30 5431 H 517.47 1.96374 3.86807 0
M  V30 5432 H 518.141 1.30553 5.36339 0
M  V30 5433 H 520.617 -0.196446 4.15636 0
M  V30 5434 H 519.493 -0.701921 5.44393 0
M  V30 5435 H 519.754 -1.75101 4.05946 0
M  V30 5436 N 518.813 -1.54241 0.323641 0
M  V30 5437 C 520.062 -1.9975 -0.279806 0
M  V30 5438 C 520.375 -1.2156 -1.5324 0
M  V30 5439 O 521.581 -1.57447 -2.21185 0
M  V30 5440 C 520.037 -3.55686 -0.549115 0
M  V30 5441 C 519.645 -4.4271 0.686432 0
M  V30 5442 C 521.389 -4.09663 -1.11251 0
M  V30 5443 C 519.296 -5.90119 0.389022 0
M  V30 5444 H 518.226 -0.746177 -0.10833 0
M  V30 5445 H 520.877 -1.78248 0.435877 0
M  V30 5446 H 519.259 -3.73176 -1.32499 0
M  V30 5447 H 520.433 -4.36996 1.46188 0
M  V30 5448 H 518.748 -3.99623 1.17005 0
M  V30 5449 H 521.345 -5.17386 -1.34965 0
M  V30 5450 H 521.688 -3.61651 -2.06191 0
M  V30 5451 H 522.221 -3.95806 -0.39782 0
M  V30 5452 H 518.96 -6.42326 1.30759 0
M  V30 5453 H 518.48 -5.98785 -0.348722 0
M  V30 5454 H 520.159 -6.47 -0.0011164 0
M  V30 5455 N 520.291 -0.0518155 -1.57515 0
M  V30 5456 C 521.539 0.620595 -1.92336 0
M  V30 5457 C 521.86 1.71345 -0.930907 0
M  V30 5458 O 521.13 1.95885 0.0241341 0
M  V30 5459 H 519.71 0.232226 -0.709986 0
M  V30 5460 H 522.372 -0.104969 -1.94617 0
M  V30 5461 H 521.468 1.05879 -2.93592 0
M  V30 5462 N 521.769 1.56035 0.221574 0
M  V30 5463 C 522.679 1.95581 1.29558 0
M  V30 5464 C 523.695 0.859639 1.51282 0
M  V30 5465 O 524.871 1.16321 1.64413 0
M  V30 5466 C 521.936 2.26447 2.62531 0
M  V30 5467 C 520.997 3.49632 2.4911 0
M  V30 5468 C 520.23 3.79017 3.75742 0
M  V30 5469 O 520.453 3.10077 4.78757 0
M  V30 5470 O 519.387 4.72507 3.72855 0
M  V30 5471 H 523.213 2.8711 0.990035 0
M  V30 5472 H 520.798 1.43244 0.424434 0
M  V30 5473 H 522.68 2.47494 3.41064 0
M  V30 5474 H 521.355 1.38092 2.92766 0
M  V30 5475 H 520.262 3.33864 1.68777 0
M  V30 5476 H 521.595 4.3837 2.23814 0
M  V30 5477 N 523.247 -0.488276 1.49845 0
M  V30 5478 C 524.18 -1.60651 1.62069 0
M  V30 5479 C 525.158 -1.5568 0.469308 0
M  V30 5480 O 526.342 -1.75553 0.686551 0
M  V30 5481 C 523.469 -2.99197 1.58741 0
M  V30 5482 C 522.515 -3.22385 2.79232 0
M  V30 5483 S 523.348 -3.04133 4.40753 0
M  V30 5484 C 524.504 -4.45052 4.4009 0
M  V30 5485 H 524.737 -1.50039 2.56662 0
M  V30 5486 H 522.27 -0.674371 1.38894 0
M  V30 5487 H 524.228 -3.79081 1.57506 0
M  V30 5488 H 522.889 -3.07213 0.654136 0
M  V30 5489 H 522.082 -4.23557 2.73159 0
M  V30 5490 H 521.684 -2.50245 2.77945 0
M  V30 5491 H 523.976 -5.37375 4.12594 0
M  V30 5492 H 524.919 -4.56172 5.41583 0
M  V30 5493 H 525.327 -4.26327 3.70008 0
M  V30 5494 N 524.725 -1.39134 -0.740242 0
M  V30 5495 C 525.673 -1.3757 -1.87556 0
M  V30 5496 C 526.667 -0.259593 -1.67399 0
M  V30 5497 O 527.873 -0.429349 -1.74804 0
M  V30 5498 H 524.248 -0.42947 -0.6173 0
M  V30 5499 H 526.219 -2.33345 -1.85991 0
M  V30 5500 C 524.968 -1.23087 -3.25184 0
M  V30 5501 H 524.291 -2.08237 -3.41288 0
M  V30 5502 H 525.731 -1.26049 -4.0483 0
M  V30 5503 C 524.19 0.0611471 -3.36845 0
M  V30 5504 O 524.72 1.03328 -3.88183 0
M  V30 5505 N 522.926 0.122454 -2.90342 0
M  V30 5506 H 522.473 -0.669329 -2.48752 0
M  V30 5507 H 522.431 0.986463 -2.98523 0
M  V30 5508 N 526.204 0.969867 -1.24223 0
M  V30 5509 C 527.134 2.08191 -1.05729 0
M  V30 5510 C 528.115 1.70075 0.0290765 0
M  V30 5511 O 529.3 1.93712 -0.137583 0
M  V30 5512 C 526.43 3.40991 -0.658995 0
M  V30 5513 C 525.384 3.93054 -1.69389 0
M  V30 5514 C 524.71 5.22171 -1.15072 0
M  V30 5515 C 526.01 4.21137 -3.08935 0
M  V30 5516 H 527.704 2.23921 -1.98746 0
M  V30 5517 H 525.25 1.07602 -0.956967 0
M  V30 5518 H 527.203 4.18221 -0.51662 0
M  V30 5519 H 525.927 3.25155 0.30686 0
M  V30 5520 H 524.586 3.17977 -1.82444 0
M  V30 5521 H 524.234 5.02694 -0.175539 0
M  V30 5522 H 523.934 5.57973 -1.84229 0
M  V30 5523 H 525.458 6.02013 -1.02042 0
M  V30 5524 H 526.872 4.8908 -2.99121 0
M  V30 5525 H 525.269 4.68163 -3.75425 0
M  V30 5526 H 526.339 3.27996 -3.57137 0
M  V30 5527 N 527.682 1.05563 1.17022 0
M  V30 5528 C 528.629 0.659893 2.21165 0
M  V30 5529 C 529.599 -0.339813 1.62587 0
M  V30 5530 O 530.784 -0.230378 1.89404 0
M  V30 5531 C 527.924 0.0447297 3.45071 0
M  V30 5532 C 527.037 1.09372 4.17926 0
M  V30 5533 C 526.172 0.445481 5.29329 0
M  V30 5534 C 525.211 1.47852 5.93975 0
M  V30 5535 N 524.348 0.854172 6.96885 0
M  V30 5536 H 529.188 1.55243 2.54369 0
M  V30 5537 H 526.725 0.776336 1.24946 0
M  V30 5538 H 528.683 -0.329404 4.15898 0
M  V30 5539 H 527.313 -0.811244 3.1244 0
M  V30 5540 H 526.365 1.58564 3.45777 0
M  V30 5541 H 527.677 1.87773 4.62107 0
M  V30 5542 H 526.831 0.0179688 6.06697 0
M  V30 5543 H 525.57 -0.370481 4.86291 0
M  V30 5544 H 524.575 1.91601 5.15334 0
M  V30 5545 H 525.8 2.29645 6.39093 0
M  V30 5546 H 523.746 0.0587882 6.55974 0
M  V30 5547 H 523.663 1.57567 7.39397 0
M  V30 5548 H 524.931 0.451559 7.78191 0
M  V30 5549 N 529.16 -1.33526 0.837174 0
M  V30 5550 C 530.571 -1.80182 0.489017 0
M  V30 5551 C 530.922 -1.69285 -0.991826 0
M  V30 5552 O 530.047 -1.24113 -1.77271 0
M  V30 5553 C 530.642 -3.27149 0.880866 0
M  V30 5554 C 529.201 -3.71828 0.584872 0
M  V30 5555 C 528.348 -2.54974 1.09011 0
M  V30 5556 H 531.299 -1.21071 1.02603 0
M  V30 5557 H 531.32 -3.80024 0.190239 0
M  V30 5558 H 530.832 -3.35048 1.95869 0
M  V30 5559 H 528.933 -3.69457 -0.48295 0
M  V30 5560 H 529.046 -4.65366 1.13892 0
M  V30 5561 H 527.41 -2.4952 0.511047 0
M  V30 5562 H 528.193 -2.65637 2.17467 0
M  V30 5563 N 530.638 -0.59345 -1.46 0
M  V30 5564 C 531.548 0.135817 -2.34207 0
M  V30 5565 C 532.564 0.875008 -1.50398 0
M  V30 5566 O 533.74 0.835778 -1.83239 0
M  V30 5567 C 530.805 1.12977 -3.27776 0
M  V30 5568 C 529.866 0.394081 -4.27487 0
M  V30 5569 C 529.099 1.34068 -5.16586 0
M  V30 5570 O 529.322 2.5778 -5.08828 0
M  V30 5571 O 528.256 0.845426 -5.95933 0
M  V30 5572 H 532.082 -0.588691 -2.9794 0
M  V30 5573 H 529.667 -0.353784 -1.45151 0
M  V30 5574 H 531.549 1.70261 -3.85473 0
M  V30 5575 H 530.224 1.83556 -2.66625 0
M  V30 5576 H 529.131 -0.220869 -3.73447 0
M  V30 5577 H 530.464 -0.270939 -4.91454 0
M  V30 5578 N 532.116 1.54067 -0.331816 0
M  V30 5579 C 533.026 2.28322 0.539104 0
M  V30 5580 C 534.042 1.32985 1.1221 0
M  V30 5581 O 535.218 1.6601 1.1403 0
M  V30 5582 C 532.283 3.03277 1.68 0
M  V30 5583 C 531.344 4.14216 1.12798 0
M  V30 5584 C 530.577 4.85588 2.2145 0
M  V30 5585 O 530.8 4.56536 3.41952 0
M  V30 5586 O 529.734 5.72309 1.86404 0
M  V30 5587 H 533.56 3.03632 -0.0641692 0
M  V30 5588 H 531.145 1.49083 -0.0972365 0
M  V30 5589 H 533.027 3.50189 2.34405 0
M  V30 5590 H 531.702 2.30834 2.2693 0
M  V30 5591 H 530.609 3.71635 0.428782 0
M  V30 5592 H 531.942 4.88727 0.583698 0
M  V30 5593 N 533.594 0.0601682 1.57485 0
M  V30 5594 C 534.84 -0.612501 1.93329 0
M  V30 5595 C 535.173 -1.6996 0.939526 0
M  V30 5596 O 534.448 -1.94472 -0.0330957 0
M  V30 5597 C 534.731 -1.20025 3.39508 0
M  V30 5598 C 534.584 -0.12059 4.49638 0
M  V30 5599 C 535.903 -2.10923 3.86264 0
M  V30 5600 H 533.022 -0.221185 0.703027 0
M  V30 5601 H 535.664 0.123768 1.89596 0
M  V30 5602 H 533.814 -1.82774 3.42821 0
M  V30 5603 H 535.486 0.51185 4.58452 0
M  V30 5604 H 533.729 0.550251 4.30296 0
M  V30 5605 H 534.4 -0.572019 5.49028 0
M  V30 5606 H 536.876 -1.58124 3.84884 0
M  V30 5607 H 535.752 -2.48987 4.8918 0
M  V30 5608 H 536.013 -3.01292 3.23536 0
M  V30 5609 N 535.072 -1.5615 -0.213296 0
M  V30 5610 C 536.319 -1.79546 -0.936462 0
M  V30 5611 C 536.647 -0.630337 -1.84003 0
M  V30 5612 O 535.902 0.384883 -1.91878 0
M  V30 5613 C 536.201 -3.08772 -1.79985 0
M  V30 5614 C 535.867 -4.38532 -1.04882 0
M  V30 5615 C 534.529 -4.73787 -0.841393 0
M  V30 5616 C 536.881 -5.18609 -0.51907 0
M  V30 5617 C 534.209 -5.86627 -0.0924403 0
M  V30 5618 C 536.561 -6.32229 0.216581 0
M  V30 5619 C 535.225 -6.6608 0.435191 0
M  V30 5620 H 534.495 -0.657004 -0.342676 0
M  V30 5621 H 537.142 -1.9041 -0.204051 0
M  V30 5622 H 535.447 -2.93065 -2.60038 0
M  V30 5623 H 537.144 -3.24077 -2.36168 0
M  V30 5624 H 533.734 -4.10855 -1.22048 0
M  V30 5625 H 537.918 -4.91801 -0.666775 0
M  V30 5626 H 533.174 -6.11338 0.087081 0
M  V30 5627 H 537.348 -6.93503 0.634538 0
M  V30 5628 H 534.975 -7.5336 1.01746 0
M  V30 5629 N 536.55 0.480323 -1.50102 0
M  V30 5630 C 537.48 1.58769 -1.71215 0
M  V30 5631 C 538.461 1.60583 -0.560997 0
M  V30 5632 O 539.646 1.76996 -0.799127 0
M  V30 5633 C 536.776 2.97148 -1.79778 0
M  V30 5634 C 535.73 3.10201 -2.94888 0
M  V30 5635 C 535.056 4.50137 -2.88584 0
M  V30 5636 C 536.356 2.88283 -4.35534 0
M  V30 5637 H 538.05 1.41354 -2.6393 0
M  V30 5638 H 535.596 0.678591 -1.27008 0
M  V30 5639 H 537.549 3.74536 -1.93133 0
M  V30 5640 H 536.273 3.15699 -0.836772 0
M  V30 5641 H 534.932 2.35244 -2.81169 0
M  V30 5642 H 534.58 4.65593 -1.90349 0
M  V30 5643 H 534.28 4.59808 -3.65856 0
M  V30 5644 H 535.804 5.29558 -3.03976 0
M  V30 5645 H 537.218 3.55427 -4.49827 0
M  V30 5646 H 535.615 3.09408 -5.14186 0
M  V30 5647 H 536.685 1.84219 -4.48544 0
M  V30 5648 N 538.028 1.39524 0.732853 0
M  V30 5649 C 538.991 1.38189 1.82857 0
M  V30 5650 C 539.991 0.278624 1.58368 0
M  V30 5651 O 541.181 0.536639 1.65728 0
M  V30 5652 C 538.313 1.15661 3.2068 0
M  V30 5653 H 539.506 2.35692 1.85444 0
M  V30 5654 H 537.059 1.2512 0.936728 0
M  V30 5655 H 537.794 0.188482 3.23752 0
M  V30 5656 H 537.579 1.95559 3.39852 0
M  V30 5657 H 539.069 1.17472 4.00737 0
M  V30 5658 N 539.506 -0.963266 1.24736 0
M  V30 5659 C 540.438 -2.06162 1.0015 0
M  V30 5660 C 541.451 -1.62771 -0.0305905 0
M  V30 5661 O 542.64 -1.77296 0.206966 0
M  V30 5662 C 539.74 -3.35333 0.490385 0
M  V30 5663 C 538.913 -4.07609 1.58663 0
M  V30 5664 C 537.972 -5.15052 1.0774 0
M  V30 5665 O 536.998 -5.4098 1.77002 0
M  V30 5666 N 538.2 -5.80436 -0.0858605 0
M  V30 5667 H 540.965 -2.27825 1.94719 0
M  V30 5668 H 538.526 -1.13121 1.15825 0
M  V30 5669 H 540.518 -4.04477 0.134371 0
M  V30 5670 H 539.088 -3.10507 -0.361155 0
M  V30 5671 H 538.308 -3.32681 2.11463 0
M  V30 5672 H 539.596 -4.52656 2.32336 0
M  V30 5673 H 538.994 -5.6178 -0.664806 0
M  V30 5674 H 537.551 -6.50674 -0.382981 0
M  V30 5675 N 540.985 -1.06182 -1.16461 0
M  V30 5676 C 542.233 -0.776326 -1.86595 0
M  V30 5677 C 542.554 0.69921 -1.82033 0
M  V30 5678 O 541.824 1.50579 -1.2531 0
M  V30 5679 H 540.404 -0.284184 -0.690832 0
M  V30 5680 H 543.066 -1.34308 -1.41235 0
M  V30 5681 H 542.162 -1.10022 -2.92064 0
M  V30 5682 N 542.463 1.3308 -0.844243 0
M  V30 5683 C 543.691 2.01808 -0.456203 0
M  V30 5684 C 544.106 1.63498 0.944131 0
M  V30 5685 O 543.463 0.85102 1.61443 0
M  V30 5686 C 543.514 3.56922 -0.573513 0
M  V30 5687 O 543.235 3.93851 -1.91868 0
M  V30 5688 C 544.736 4.42922 -0.183125 0
M  V30 5689 H 541.956 0.646273 -0.180477 0
M  V30 5690 H 544.5 1.69891 -1.1383 0
M  V30 5691 H 542.655 3.87352 0.0607367 0
M  V30 5692 H 543.069 4.88564 -1.90802 0
M  V30 5693 H 544.543 5.51093 -0.316241 0
M  V30 5694 H 545.02 4.30386 0.875477 0
M  V30 5695 H 545.626 4.1786 -0.792027 0
M  V30 5696 N 543.941 0.601185 1.45683 0
M  V30 5697 C 544.871 -0.108824 2.33246 0
M  V30 5698 C 545.852 -0.865223 1.46451 0
M  V30 5699 O 547.037 -0.83704 1.75235 0
M  V30 5700 C 544.167 -1.11101 3.2905 0
M  V30 5701 C 543.121 -0.468244 4.25431 0
M  V30 5702 C 542.447 -1.57822 5.10878 0
M  V30 5703 C 543.747 0.606469 5.18767 0
M  V30 5704 H 545.441 0.622306 2.92861 0
M  V30 5705 H 542.987 0.300714 1.40825 0
M  V30 5706 H 544.94 -1.61622 3.89174 0
M  V30 5707 H 543.664 -1.87265 2.67581 0
M  V30 5708 H 542.323 0.0160484 3.66596 0
M  V30 5709 H 541.971 -2.32998 4.45781 0
M  V30 5710 H 541.671 -1.15369 5.76163 0
M  V30 5711 H 543.195 -2.08583 5.73869 0
M  V30 5712 H 544.609 0.185589 5.73 0
M  V30 5713 H 543.006 0.952381 5.92494 0
M  V30 5714 H 544.076 1.48559 4.61582 0
M  V30 5715 N 545.419 -1.53889 0.339982 0
M  V30 5716 C 546.835 -1.59595 -0.0120752 0
M  V30 5717 C 547.035 -1.35605 -1.49042 0
M  V30 5718 O 546.091 -1.14856 -2.24865 0
M  V30 5719 C 547.404 -2.9774 0.420898 0
M  V30 5720 C 548.952 -3.1077 0.37294 0
M  V30 5721 C 549.427 -4.51286 0.781327 0
M  V30 5722 N 550.918 -4.57325 0.735374 0
M  V30 5723 C 551.653 -5.64194 1.02336 0
M  V30 5724 N 551.149 -6.7893 1.37933 0
M  V30 5725 N 552.942 -5.54051 0.947838 0
M  V30 5726 H 545.093 -1.67738 1.30299 0
M  V30 5727 H 547.356 -0.785385 0.530918 0
M  V30 5728 H 547.062 -3.20349 1.45152 0
M  V30 5729 H 546.936 -3.76639 -0.205721 0
M  V30 5730 H 549.323 -2.87886 -0.648505 0
M  V30 5731 H 549.404 -2.33939 1.03472 0
M  V30 5732 H 549.048 -4.74905 1.80077 0
M  V30 5733 H 548.978 -5.26511 0.0970679 0
M  V30 5734 H 551.469 -3.74931 0.472773 0
M  V30 5735 H 551.782 -7.56392 1.58402 0
M  V30 5736 H 550.127 -6.80386 1.41774 0
M  V30 5737 H 553.318 -4.63293 0.669115 0
M  V30 5738 H 553.491 -6.37246 1.17563 0
M  V30 5739 N 546.897 -0.0685191 -1.57451 0
M  V30 5740 C 548.308 0.464634 -1.80826 0
M  V30 5741 C 548.659 1.69847 -0.982169 0
M  V30 5742 O 547.784 2.15439 -0.203734 0
M  V30 5743 C 548.379 0.849721 -3.27971 0
M  V30 5744 C 546.938 1.32776 -3.52204 0
M  V30 5745 C 546.085 0.311332 -2.75547 0
M  V30 5746 H 549.036 -0.294248 -1.55948 0
M  V30 5747 H 549.057 1.71138 -3.39841 0
M  V30 5748 H 548.569 -0.0484736 -3.8807 0
M  V30 5749 H 546.67 2.24456 -2.97406 0
M  V30 5750 H 546.783 1.30794 -4.60901 0
M  V30 5751 H 545.147 0.787915 -2.42206 0
M  V30 5752 H 545.93 -0.579078 -3.38381 0
M  V30 5753 N 548.375 1.56261 0.205012 0
M  V30 5754 C 549.652 1.70856 0.952233 0
M  V30 5755 C 550.032 0.620501 2.01775 0
M  V30 5756 O 549.38 -0.370035 2.25484 0
M  V30 5757 C 549.59 3.12807 1.54767 0
M  V30 5758 C 550.938 3.72733 2.0336 0
M  V30 5759 O 551.962 3.15873 1.64629 0
M  V30 5760 O 550.821 4.72501 2.746 0
M  V30 5761 H 547.915 0.696496 0.445895 0
M  V30 5762 H 550.461 1.6857 0.195489 0
M  V30 5763 H 549.233 3.83465 0.779132 0
M  V30 5764 H 548.856 3.1928 2.36951 0
M  V30 5765 N 549.853 -0.472356 1.50355 0
M  V30 5766 C 550.783 -1.57859 1.72055 0
M  V30 5767 C 551.764 -1.60283 0.569505 0
M  V30 5768 O 552.949 -1.7657 0.808503 0
M  V30 5769 C 550.079 -2.96191 1.81351 0
M  V30 5770 C 549.033 -3.08633 2.96529 0
M  V30 5771 C 548.359 -4.486 2.90968 0
M  V30 5772 C 549.659 -2.85969 4.37057 0
M  V30 5773 H 551.353 -1.39953 2.64676 0
M  V30 5774 H 548.899 -0.671846 1.27367 0
M  V30 5775 H 550.852 -3.73507 1.95117 0
M  V30 5776 H 549.576 -3.15251 0.853502 0
M  V30 5777 H 548.235 -2.33749 2.82413 0
M  V30 5778 H 547.883 -4.64577 1.92815 0
M  V30 5779 H 547.583 -4.57861 3.68289 0
M  V30 5780 H 549.107 -5.27938 3.0678 0
M  V30 5781 H 550.521 -3.53036 4.51706 0
M  V30 5782 H 548.918 -3.06677 5.15819 0
M  V30 5783 H 549.988 -1.81838 4.49514 0
M  V30 5784 N 551.331 -1.39911 -0.725443 0
M  V30 5785 C 552.58 -1.36963 -1.48068 0
M  V30 5786 C 552.893 0.0284478 -1.95579 0
M  V30 5787 O 554.099 0.180535 -2.70899 0
M  V30 5788 C 552.555 -2.40664 -2.67598 0
M  V30 5789 C 552.163 -3.86234 -2.26997 0
M  V30 5790 C 553.907 -2.46807 -3.45379 0
M  V30 5791 C 551.814 -4.81554 -3.43307 0
M  V30 5792 H 550.744 -0.509223 -0.556065 0
M  V30 5793 H 553.395 -1.65602 -0.790454 0
M  V30 5794 H 551.777 -2.05109 -3.38742 0
M  V30 5795 H 552.951 -4.3088 -1.63337 0
M  V30 5796 H 551.266 -3.83475 -1.62284 0
M  V30 5797 H 553.863 -3.15213 -4.31909 0
M  V30 5798 H 554.206 -1.49552 -3.8851 0
M  V30 5799 H 554.739 -2.81303 -2.81271 0
M  V30 5800 H 551.478 -5.80106 -3.05217 0
M  V30 5801 H 550.998 -4.4158 -4.05915 0
M  V30 5802 H 552.677 -5.0091 -4.0951 0
M  V30 5803 N 552.809 0.956637 -1.25245 0
M  V30 5804 C 553.719 2.0868 -1.0719 0
M  V30 5805 C 554.735 1.73997 -0.00959074 0
M  V30 5806 O 555.911 2.00301 -0.210104 0
M  V30 5807 C 552.976 3.39754 -0.690526 0
M  V30 5808 C 552.037 3.88316 -1.83055 0
M  V30 5809 C 551.27 5.13134 -1.46728 0
M  V30 5810 O 551.493 5.6925 -0.362029 0
M  V30 5811 O 550.427 5.56356 -2.29677 0
M  V30 5812 H 554.253 2.26813 -2.01965 0
M  V30 5813 H 551.838 1.07098 -1.04165 0
M  V30 5814 H 553.72 4.18543 -0.489871 0
M  V30 5815 H 552.395 3.22896 0.227981 0
M  V30 5816 H 551.302 3.1054 -2.08604 0
M  V30 5817 H 552.635 4.09669 -2.72822 0
M  V30 5818 N 554.287 1.06798 1.15896 0
M  V30 5819 C 555.512 0.808739 1.90982 0
M  V30 5820 C 555.937 -0.6316 1.77179 0
M  V30 5821 O 555.295 -1.4407 1.10061 0
M  V30 5822 C 555.343 1.21468 3.39526 0
M  V30 5823 O 554.447 0.356562 4.10856 0
M  V30 5824 H 553.788 0.29512 0.594811 0
M  V30 5825 H 556.318 1.42513 1.46804 0
M  V30 5826 H 556.328 1.18844 3.90308 0
M  V30 5827 H 555.003 2.26379 3.48891 0
M  V30 5828 H 553.58 0.444808 3.70238 0
M  V30 5829 N 555.766 -1.3263 0.851289 0
M  V30 5830 C 556.729 -2.27247 0.298541 0
M  V30 5831 C 557.729 -1.51467 -0.539847 0
M  V30 5832 O 558.919 -1.7061 -0.351843 0
M  V30 5833 C 556.051 -3.35964 -0.578004 0
M  V30 5834 H 557.244 -2.7765 1.13359 0
M  V30 5835 H 554.797 -1.43245 0.625354 0
M  V30 5836 H 555.532 -2.90823 -1.435 0
M  V30 5837 H 555.317 -3.92094 0.0220539 0
M  V30 5838 H 556.807 -4.06472 -0.957626 0
M  V30 5839 N 557.244 -0.608902 -1.45362 0
M  V30 5840 C 558.469 -0.10921 -2.07112 0
M  V30 5841 C 558.894 1.19779 -1.45033 0
M  V30 5842 O 558.252 1.72961 -0.543527 0
M  V30 5843 C 558.3 0.0155745 -3.60597 0
M  V30 5844 O 557.404 1.06546 -3.98399 0
M  V30 5845 H 556.745 -0.0746619 -0.659789 0
M  V30 5846 H 559.275 -0.839283 -1.86594 0
M  V30 5847 H 559.285 0.213364 -4.07442 0
M  V30 5848 H 557.96 -0.938765 -4.05167 0
M  V30 5849 H 556.537 0.844024 -3.63223 0
M  V30 5850 N 558.722 1.53707 -0.348139 0
M  V30 5851 C 559.652 2.28111 0.498766 0
M  V30 5852 C 560.633 1.29851 1.09876 0
M  V30 5853 O 561.818 1.587 1.11928 0
M  V30 5854 C 558.948 3.05735 1.64753 0
M  V30 5855 C 557.902 4.11537 1.17565 0
M  V30 5856 C 557.228 4.77142 2.4133 0
M  V30 5857 C 558.528 5.21587 0.272844 0
M  V30 5858 H 560.222 2.99152 -0.121934 0
M  V30 5859 H 557.768 1.43875 -0.0600842 0
M  V30 5860 H 559.721 3.56526 2.24649 0
M  V30 5861 H 558.445 2.32354 2.2952 0
M  V30 5862 H 557.104 3.61665 0.599483 0
M  V30 5863 H 556.752 4.0035 3.04514 0
M  V30 5864 H 556.452 5.48626 2.10436 0
M  V30 5865 H 557.976 5.30719 3.01943 0
M  V30 5866 H 559.39 5.67986 0.778779 0
M  V30 5867 H 557.787 6.00074 0.0555849 0
M  V30 5868 H 558.857 4.79969 -0.689785 0
M  V30 5869 N 560.2 0.0768682 1.57412 0
M  V30 5870 C 561.446 -0.591961 1.93968 0
M  V30 5871 C 561.779 -1.68954 0.9575 0
M  V30 5872 O 561.054 -1.94496 -0.0124675 0
M  V30 5873 C 561.337 -1.16418 3.40762 0
M  V30 5874 C 561.19 -0.0728933 4.49741 0
M  V30 5875 C 562.509 -2.06814 3.88479 0
M  V30 5876 H 559.628 -0.213716 0.705333 0
M  V30 5877 H 562.27 0.14387 1.89455 0
M  V30 5878 H 560.42 -1.79128 3.4474 0
M  V30 5879 H 562.092 0.560446 4.57883 0
M  V30 5880 H 560.335 0.595859 4.29688 0
M  V30 5881 H 561.006 -0.513755 5.49604 0
M  V30 5882 H 563.482 -1.54033 3.8654 0
M  V30 5883 H 562.358 -2.43785 4.91793 0
M  V30 5884 H 562.619 -2.97844 3.26713 0
M  V30 5885 N 561.678 -1.56367 -0.196722 0
M  V30 5886 C 562.641 -1.93561 -1.22746 0
M  V30 5887 C 563.641 -0.816566 -1.38524 0
M  V30 5888 O 564.831 -1.084 -1.36363 0
M  V30 5889 C 561.963 -2.20823 -2.59712 0
M  V30 5890 H 563.156 -2.85774 -0.909586 0
M  V30 5891 H 560.709 -1.50032 -0.438174 0
M  V30 5892 H 561.444 -1.31243 -2.96557 0
M  V30 5893 H 561.229 -3.02368 -2.49632 0
M  V30 5894 H 562.719 -2.50608 -3.34044 0
M  V30 5895 N 563.156 0.464375 -1.50603 0
M  V30 5896 C 564.381 1.24372 -1.65971 0
M  V30 5897 C 564.806 1.84901 -0.345453 0
M  V30 5898 O 564.164 1.67596 0.691457 0
M  V30 5899 C 564.212 2.32331 -2.7578 0
M  V30 5900 O 563.316 3.37146 -2.375 0
M  V30 5901 H 562.657 0.365604 -0.554283 0
M  V30 5902 H 565.187 0.55183 -1.97018 0
M  V30 5903 H 565.197 2.77539 -2.99059 0
M  V30 5904 H 563.872 1.87648 -3.71162 0
M  V30 5905 H 562.449 2.97602 -2.24694 0
M  V30 5906 N 564.634 1.40294 0.718013 0
M  V30 5907 C 565.882 1.38167 1.47494 0
M  V30 5908 C 566.203 -0.01607 1.94993 0
M  V30 5909 O 565.473 -0.970396 1.70177 0
M  V30 5910 H 564.053 0.508505 0.547203 0
M  V30 5911 H 566.715 1.75324 0.851322 0
M  V30 5912 H 565.811 2.05503 2.34894 0
M  V30 5913 N 566.112 -0.949982 1.2575 0
M  V30 5914 C 567.059 -2.04738 1.06541 0
M  V30 5915 C 568.029 -1.66078 -0.0268818 0
M  V30 5916 O 569.214 -1.90348 0.131196 0
M  V30 5917 C 566.354 -3.38027 0.695127 0
M  V30 5918 C 565.467 -3.89776 1.86276 0
M  V30 5919 C 564.602 -5.11411 1.4364 0
M  V30 5920 C 563.641 -5.554 2.57287 0
M  V30 5921 N 562.778 -6.68244 2.15395 0
M  V30 5922 H 567.618 -2.20502 2.00457 0
M  V30 5923 H 565.155 -1.0805 0.998178 0
M  V30 5924 H 567.113 -4.14641 0.461375 0
M  V30 5925 H 565.743 -3.22135 -0.207046 0
M  V30 5926 H 564.795 -3.0964 2.20969 0
M  V30 5927 H 566.107 -4.18368 2.71606 0
M  V30 5928 H 565.261 -5.95457 1.16257 0
M  V30 5929 H 564 -4.84545 0.553879 0
M  V30 5930 H 563.005 -4.69916 2.85409 0
M  V30 5931 H 564.23 -5.84272 3.46125 0
M  V30 5932 H 562.176 -6.43078 1.29565 0
M  V30 5933 H 562.093 -6.96377 2.94272 0
M  V30 5934 H 563.361 -7.55687 1.91201 0
M  V30 5935 N 567.59 -1.07411 -1.15328 0
M  V30 5936 C 568.553 -0.698914 -2.18284 0
M  V30 5937 C 569.553 0.261149 -1.58665 0
M  V30 5938 O 570.743 0.0420277 -1.74149 0
M  V30 5939 C 567.875 -0.0302427 -3.40887 0
M  V30 5940 H 569.068 -1.61045 -2.52991 0
M  V30 5941 H 566.621 -0.870724 -1.298 0
M  V30 5942 H 567.356 0.893505 -3.11748 0
M  V30 5943 H 567.141 -0.720759 -3.85419 0
M  V30 5944 H 568.631 0.21759 -4.17033 0
M  V30 5945 N 569.068 1.32177 -0.85831 0
M  V30 5946 C 569.978 2.32561 -0.308606 0
M  V30 5947 C 570.994 1.64209 0.575462 0
M  V30 5948 O 572.17 1.95719 0.474961 0
M  V30 5949 C 569.235 3.43207 0.490909 0
M  V30 5950 C 568.296 4.27243 -0.419733 0
M  V30 5951 C 567.529 5.32605 0.341719 0
M  V30 5952 O 567.752 5.48332 1.57125 0
M  V30 5953 O 566.686 6.0118 -0.294379 0
M  V30 5954 H 570.512 2.81477 -1.14037 0
M  V30 5955 H 568.097 1.35866 -0.621349 0
M  V30 5956 H 569.979 4.10677 0.944574 0
M  V30 5957 H 568.654 2.96474 1.29941 0
M  V30 5958 H 567.561 3.62569 -0.921652 0
M  V30 5959 H 568.894 4.7751 -1.19352 0
M  V30 5960 N 570.547 0.616602 1.45037 0
M  V30 5961 C 571.477 -0.0840787 2.33349 0
M  V30 5962 C 572.458 -0.849641 1.4736 0
M  V30 5963 O 573.643 -0.818407 1.76113 0
M  V30 5964 C 570.773 -1.07604 3.3021 0
M  V30 5965 C 569.727 -0.423096 4.25904 0
M  V30 5966 C 569.053 -1.52394 5.12523 0
M  V30 5967 C 570.353 0.661457 5.18095 0
M  V30 5968 H 572.047 0.653333 2.92185 0
M  V30 5969 H 569.593 0.315634 1.40498 0
M  V30 5970 H 571.546 -1.57485 3.90866 0
M  V30 5971 H 570.27 -1.84416 2.69552 0
M  V30 5972 H 568.929 0.05493 3.66559 0
M  V30 5973 H 568.577 -2.28257 4.48227 0
M  V30 5974 H 568.277 -1.09251 5.77354 0
M  V30 5975 H 569.801 -2.02485 5.76049 0
M  V30 5976 H 571.215 0.246353 5.7277 0
M  V30 5977 H 569.612 1.01517 5.91451 0
M  V30 5978 H 570.682 1.53446 4.59981 0
M  V30 5979 N 572.025 -1.5352 0.356285 0
M  V30 5980 C 573.274 -2.00298 -0.237373 0
M  V30 5981 C 573.587 -1.24784 -1.50627 0
M  V30 5982 O 574.793 -1.62103 -2.17795 0
M  V30 5983 C 573.249 -3.56771 -0.473545 0
M  V30 5984 C 572.857 -4.41154 0.780183 0
M  V30 5985 C 574.601 -4.1193 -1.02537 0
M  V30 5986 C 572.508 -5.89161 0.514108 0
M  V30 5987 H 571.438 -0.748307 -0.092478 0
M  V30 5988 H 574.089 -1.77283 0.473588 0
M  V30 5989 H 572.471 -3.75902 -1.24553 0
M  V30 5990 H 573.645 -4.33797 1.55425 0
M  V30 5991 H 571.96 -3.97052 1.25455 0
M  V30 5992 H 574.557 -5.20133 -1.2396 0
M  V30 5993 H 574.9 -3.65943 -1.98473 0
M  V30 5994 H 575.433 -3.96561 -0.313775 0
M  V30 5995 H 572.172 -6.39408 1.44355 0
M  V30 5996 H 571.692 -5.9939 -0.221632 0
M  V30 5997 H 573.371 -6.46857 0.136122 0
M  V30 5998 N 573.503 -0.0852151 -1.57369 0
M  V30 5999 C 574.45 0.877268 -2.13478 0
M  V30 6000 C 575.42 1.28642 -1.05073 0
M  V30 6001 O 576.605 1.36992 -1.32808 0
M  V30 6002 C 573.745 2.13464 -2.71159 0
M  V30 6003 C 572.858 1.77691 -3.93764 0
M  V30 6004 C 571.993 2.98139 -4.39643 0
M  V30 6005 C 571.032 2.58447 -5.54862 0
M  V30 6006 N 570.169 3.71698 -5.95639 0
M  V30 6007 H 575.009 0.391933 -2.95411 0
M  V30 6008 H 572.546 0.181796 -1.45972 0
M  V30 6009 H 574.504 2.87086 -3.02717 0
M  V30 6010 H 573.134 2.59514 -1.91969 0
M  V30 6011 H 572.186 0.940768 -3.68583 0
M  V30 6012 H 573.498 1.44497 -4.77412 0
M  V30 6013 H 572.652 3.80026 -4.72933 0
M  V30 6014 H 571.391 3.34536 -3.54876 0
M  V30 6015 H 570.396 1.74984 -5.21211 0
M  V30 6016 H 571.621 2.23205 -6.41371 0
M  V30 6017 H 569.567 4.07831 -5.13819 0
M  V30 6018 H 569.484 3.42317 -6.74059 0
M  V30 6019 H 570.752 4.54123 -6.33555 0
M  V30 6020 N 574.981 1.5647 0.188427 0
M  V30 6021 C 576.209 1.85131 0.923803 0
M  V30 6022 C 576.624 0.668537 1.76567 0
M  V30 6023 O 575.981 -0.362662 1.7886 0
M  V30 6024 C 576.032 3.12661 1.81453 0
M  V30 6025 O 575.753 4.26378 1.00665 0
M  V30 6026 C 577.254 3.54548 2.66103 0
M  V30 6027 H 574.474 0.614624 0.269218 0
M  V30 6028 H 577.018 2.03581 0.193671 0
M  V30 6029 H 575.173 2.96088 2.49821 0
M  V30 6030 H 575.587 4.99041 1.61425 0
M  V30 6031 H 577.061 4.4673 3.24247 0
M  V30 6032 H 577.538 2.77853 3.40139 0
M  V30 6033 H 578.144 3.73674 2.03096 0
M  V30 6034 N 576.459 -0.456382 1.50847 0
M  V30 6035 C 577.409 -1.55045 1.67168 0
M  V30 6036 C 578.393 -1.52061 0.525958 0
M  V30 6037 O 579.585 -1.58836 0.781036 0
M  V30 6038 C 576.714 -2.93386 1.78268 0
M  V30 6039 C 575.8 -3.01198 2.98564 0
M  V30 6040 N 576.191 -2.78792 4.22029 0
M  V30 6041 C 574.489 -3.32346 2.97426 0
M  V30 6042 C 575.19 -2.91953 5.03128 0
M  V30 6043 N 574.166 -3.22797 4.37382 0
M  V30 6044 H 577.968 -1.36444 2.60308 0
M  V30 6045 H 575.482 -0.663375 1.48233 0
M  V30 6046 H 577.479 -3.72071 1.88067 0
M  V30 6047 H 576.139 -3.13022 0.862965 0
M  V30 6048 H 577.15 -2.54087 4.51287 0
M  V30 6049 H 573.827 -3.57877 2.15012 0
M  V30 6050 H 575.217 -2.78745 6.11351 0
M  V30 6051 N 577.937 -1.40673 -0.710563 0
M  V30 6052 C 578.887 -1.37812 -1.81636 0
M  V30 6053 C 579.871 -0.254853 -1.58869 0
M  V30 6054 O 581.063 -0.494356 -1.69956 0
M  V30 6055 C 578.192 -1.24802 -3.19811 0
M  V30 6056 C 577.278 -2.41931 -3.48325 0
M  V30 6057 N 577.669 -3.67411 -3.47625 0
M  V30 6058 C 575.967 -2.35419 -3.78806 0
M  V30 6059 C 576.668 -4.45008 -3.74623 0
M  V30 6060 N 575.644 -3.74916 -3.93623 0
M  V30 6061 H 579.446 -2.32766 -1.79436 0
M  V30 6062 H 576.96 -1.34516 -0.909909 0
M  V30 6063 H 578.957 -1.20835 -3.99004 0
M  V30 6064 H 577.617 -0.308202 -3.23234 0
M  V30 6065 H 578.628 -4.00503 -3.28356 0
M  V30 6066 H 575.305 -1.4983 -3.89689 0
M  V30 6067 H 576.695 -5.53884 -3.80344 0
M  V30 6068 N 579.415 0.9433 -1.26252 0
M  V30 6069 C 580.363 2.06302 -1.07434 0
M  V30 6070 C 581.357 1.694 -0.00189471 0
M  V30 6071 O 582.563 1.79302 -0.158408 0
M  V30 6072 H 578.938 0.675453 -0.330556 0
M  V30 6073 H 580.909 2.19326 -2.02333 0
M  V30 6074 C 579.658 3.40125 -0.721817 0
M  V30 6075 H 578.981 3.68996 -1.5389 0
M  V30 6076 H 580.421 4.19295 -0.629922 0
M  V30 6077 C 578.88 3.31993 0.572902 0
M  V30 6078 O 579.41 3.67945 1.61182 0
M  V30 6079 N 577.616 2.85099 0.562748 0
M  V30 6080 H 577.163 2.5604 -0.283092 0
M  V30 6081 H 577.121 2.80041 1.42915 0
M  V30 6082 N 580.893 1.08022 1.14757 0
M  V30 6083 C 582.17 0.720386 1.81851 0
M  V30 6084 C 582.55 -0.796375 1.95502 0
M  V30 6085 O 581.898 -1.71339 1.51179 0
M  V30 6086 C 582.108 1.44273 3.17783 0
M  V30 6087 C 583.456 1.59925 3.93331 0
M  V30 6088 O 584.48 1.40407 3.2736 0
M  V30 6089 O 583.339 1.92096 5.11626 0
M  V30 6090 H 580.433 0.257142 0.786007 0
M  V30 6091 H 582.979 1.18155 1.21809 0
M  V30 6092 H 581.751 2.47618 3.02987 0
M  V30 6093 H 581.374 0.97279 3.85516 0
M  V30 6094 N 582.371 -1.3172 0.865308 0
M  V30 6095 C 583.599 -2.01057 0.488251 0
M  V30 6096 C 584.014 -1.64979 -0.918 0
M  V30 6097 O 583.371 -0.876597 -1.60069 0
M  V30 6098 C 583.422 -3.55964 0.630224 0
M  V30 6099 O 583.143 -3.90749 1.98109 0
M  V30 6100 C 584.644 -4.42574 0.253567 0
M  V30 6101 H 581.864 -0.64332 0.190736 0
M  V30 6102 H 584.408 -1.68058 1.16519 0
M  V30 6103 H 582.563 -3.874 0.000895422 0
M  V30 6104 H 582.977 -4.85467 1.9855 0
M  V30 6105 H 584.451 -5.50521 0.403875 0
M  V30 6106 H 584.928 -4.31724 -0.806895 0
M  V30 6107 H 585.534 -4.16547 0.858404 0
M  V30 6108 N 583.85 -0.624285 -1.44708 0
M  V30 6109 C 584.76 0.0861083 -2.34442 0
M  V30 6110 C 585.776 0.84291 -1.5222 0
M  V30 6111 O 586.952 0.796723 -1.84971 0
M  V30 6112 C 584.017 1.05999 -3.30099 0
M  V30 6113 C 583.077 0.303316 -4.28227 0
M  V30 6114 C 582.311 1.23081 -5.19314 0
M  V30 6115 O 582.534 2.46929 -5.14181 0
M  V30 6116 O 581.468 0.71883 -5.97592 0
M  V30 6117 H 585.293 -0.651756 -2.96624 0
M  V30 6118 H 582.879 -0.384493 -1.44368 0
M  V30 6119 H 584.76 1.62046 -3.88997 0
M  V30 6120 H 583.436 1.77859 -2.70459 0
M  V30 6121 H 582.343 -0.300033 -3.72895 0
M  V30 6122 H 583.676 -0.375123 -4.90768 0
M  V30 6123 N 585.328 1.53329 -0.364422 0
M  V30 6124 C 586.258 2.28627 0.474543 0
M  V30 6125 C 587.239 1.31009 1.08492 0
M  V30 6126 O 588.424 1.59878 1.10239 0
M  V30 6127 C 585.554 3.07465 1.61501 0
M  V30 6128 C 584.508 4.1276 1.13194 0
M  V30 6129 C 583.834 4.79674 2.36255 0
M  V30 6130 C 585.134 5.21847 0.217507 0
M  V30 6131 H 586.828 2.99005 -0.153656 0
M  V30 6132 H 584.374 1.43803 -0.0753406 0
M  V30 6133 H 586.327 3.58889 2.20855 0
M  V30 6134 H 585.051 2.34775 2.27042 0
M  V30 6135 H 583.71 3.62281 0.56109 0
M  V30 6136 H 583.358 4.03557 3.00251 0
M  V30 6137 H 583.058 5.50827 2.04606 0
M  V30 6138 H 584.582 5.33892 2.96297 0
M  V30 6139 H 585.996 5.6878 0.718493 0
M  V30 6140 H 584.393 6.00099 -0.00806408 0
M  V30 6141 H 585.463 4.7921 -0.740653 0
M  V30 6142 N 586.806 0.0935595 1.57322 0
M  V30 6143 C 588.055 -0.570191 1.93473 0
M  V30 6144 C 588.368 -1.69434 0.977318 0
M  V30 6145 O 589.574 -2.41914 1.23248 0
M  V30 6146 C 588.03 -1.06564 3.43762 0
M  V30 6147 C 587.638 0.0286723 4.47991 0
M  V30 6148 C 589.382 -1.70221 3.88877 0
M  V30 6149 C 587.289 -0.482046 5.89432 0
M  V30 6150 H 586.219 -0.216764 0.72217 0
M  V30 6151 H 588.87 0.169313 1.82717 0
M  V30 6152 H 587.252 -1.85878 3.49664 0
M  V30 6153 H 588.426 0.804106 4.5373 0
M  V30 6154 H 586.741 0.570336 4.12476 0
M  V30 6155 H 589.338 -2.09502 4.91948 0
M  V30 6156 H 589.681 -2.57078 3.27439 0
M  V30 6157 H 590.214 -0.974919 3.85668 0
M  V30 6158 H 586.953 0.349871 6.54566 0
M  V30 6159 H 586.473 -1.22452 5.87167 0
M  V30 6160 H 588.152 -0.951508 6.39965 0
M  V30 6161 N 588.284 -1.56567 -0.180126 0
M  V30 6162 C 589.7 -1.50488 -0.531559 0
M  V30 6163 C 589.9 -0.796267 -1.851 0
M  V30 6164 O 588.956 -0.352978 -2.50021 0
M  V30 6165 C 590.269 -2.95201 -0.572456 0
M  V30 6166 C 591.817 -3.05957 -0.660264 0
M  V30 6167 C 592.292 -4.5211 -0.732135 0
M  V30 6168 N 593.783 -4.56322 -0.795262 0
M  V30 6169 C 594.518 -5.66742 -0.871296 0
M  V30 6170 N 594.014 -6.86815 -0.908708 0
M  V30 6171 N 595.807 -5.54691 -0.909639 0
M  V30 6172 H 587.958 -2.01045 0.685165 0
M  V30 6173 H 590.221 -0.915536 0.245962 0
M  V30 6174 H 589.927 -3.50165 0.328208 0
M  V30 6175 H 589.801 -3.49369 -1.422 0
M  V30 6176 H 592.188 -2.51032 -1.55136 0
M  V30 6177 H 592.269 -2.54888 0.215783 0
M  V30 6178 H 591.913 -5.07664 0.154664 0
M  V30 6179 H 591.843 -5.00926 -1.6242 0
M  V30 6180 H 594.334 -3.69868 -0.77499 0
M  V30 6181 H 594.647 -7.66718 -0.967654 0
M  V30 6182 H 592.992 -6.89443 -0.877132 0
M  V30 6183 H 596.183 -4.59804 -0.877353 0
M  V30 6184 H 596.356 -6.40768 -0.965434 0
M  V30 6185 N 589.762 0.448376 -1.51087 0
M  V30 6186 C 590.709 1.54341 -1.71603 0
M  V30 6187 C 591.679 1.56463 -0.557536 0
M  V30 6188 O 592.864 1.73644 -0.79072 0
M  V30 6189 C 590.004 2.92148 -1.83695 0
M  V30 6190 C 589.117 2.99639 -3.11192 0
M  V30 6191 C 588.252 4.285 -3.13944 0
M  V30 6192 C 587.291 4.29819 -4.35801 0
M  V30 6193 N 586.428 5.50186 -4.36164 0
M  V30 6194 H 591.268 1.36151 -2.65079 0
M  V30 6195 H 588.805 0.661585 -1.31383 0
M  V30 6196 H 590.763 3.72093 -1.88687 0
M  V30 6197 H 589.393 3.0892 -0.936374 0
M  V30 6198 H 588.445 2.12425 -3.15562 0
M  V30 6199 H 589.757 2.96474 -4.01129 0
M  V30 6200 H 588.911 5.16811 -3.17791 0
M  V30 6201 H 587.65 4.34307 -2.21876 0
M  V30 6202 H 586.655 3.39902 -4.32142 0
M  V30 6203 H 587.88 4.25685 -5.29121 0
M  V30 6204 H 585.826 5.56735 -3.46961 0
M  V30 6205 H 585.743 5.48856 -5.19897 0
M  V30 6206 H 587.011 6.40559 -4.44189 0
M  V30 6207 N 591.24 1.41047 0.703093 0
M  V30 6208 C 592.17 1.45067 1.82969 0
M  V30 6209 C 593.151 0.31016 1.67248 0
M  V30 6210 O 594.336 0.520548 1.87093 0
M  V30 6211 C 591.466 1.32478 3.2104 0
M  V30 6212 C 590.42 2.44262 3.51454 0
M  V30 6213 C 589.746 2.16742 4.88801 0
M  V30 6214 C 591.046 3.86606 3.51189 0
M  V30 6215 H 592.74 2.39353 1.79863 0
M  V30 6216 H 590.286 1.15206 0.863919 0
M  V30 6217 H 592.239 1.33904 3.99559 0
M  V30 6218 H 590.963 0.346735 3.24754 0
M  V30 6219 H 589.622 2.42107 2.75282 0
M  V30 6220 H 589.27 1.17299 4.89132 0
M  V30 6221 H 588.97 2.91643 5.10116 0
M  V30 6222 H 590.494 2.19872 5.69639 0
M  V30 6223 H 591.908 3.90517 4.19725 0
M  V30 6224 H 590.305 4.61128 3.84033 0
M  V30 6225 H 591.375 4.15296 2.50315 0
M  V30 6226 N 592.718 -0.936591 1.26751 0
M  V30 6227 C 594.134 -1.21095 1.03963 0
M  V30 6228 C 594.334 -2.00156 -0.232372 0
M  V30 6229 O 593.39 -2.3434 -0.940274 0
M  V30 6230 C 594.703 -1.96775 2.27377 0
M  V30 6231 C 596.251 -2.09749 2.32324 0
M  V30 6232 C 596.726 -2.88832 3.55443 0
M  V30 6233 N 598.217 -2.96404 3.55948 0
M  V30 6234 C 598.952 -3.58036 4.47881 0
M  V30 6235 N 598.448 -4.21132 5.50109 0
M  V30 6236 N 600.241 -3.55353 4.35523 0
M  V30 6237 H 592.392 -0.408173 2.08441 0
M  V30 6238 H 594.655 -0.243139 0.91629 0
M  V30 6239 H 594.361 -1.46094 3.19921 0
M  V30 6240 H 594.235 -2.97424 2.31989 0
M  V30 6241 H 596.622 -2.5962 1.40291 0
M  V30 6242 H 596.703 -1.08347 2.31721 0
M  V30 6243 H 596.347 -2.39647 4.47808 0
M  V30 6244 H 596.277 -3.90499 3.53296 0
M  V30 6245 H 598.768 -2.51552 2.82011 0
M  V30 6246 H 599.081 -4.66071 6.16439 0
M  V30 6247 H 597.426 -4.19705 5.53961 0
M  V30 6248 H 600.617 -3.05256 3.54875 0
M  V30 6249 H 600.79 -4.03097 5.07363 0
M  V30 6250 N 594.196 -1.08629 -1.14182 0
M  V30 6251 C 595.106 -0.730126 -2.22949 0
M  V30 6252 C 596.122 0.26436 -1.7198 0
M  V30 6253 O 597.298 0.107742 -2.01112 0
M  V30 6254 C 594.363 -0.147227 -3.46387 0
M  V30 6255 C 593.424 -1.19662 -4.12286 0
M  V30 6256 C 592.657 -0.641437 -5.29831 0
M  V30 6257 O 592.88 0.538351 -5.67854 0
M  V30 6258 O 591.814 -1.39257 -5.85569 0
M  V30 6259 H 595.64 -1.63753 -2.55771 0
M  V30 6260 H 593.225 -0.860118 -1.22157 0
M  V30 6261 H 595.107 0.174923 -4.21037 0
M  V30 6262 H 593.782 0.733304 -3.15285 0
M  V30 6263 H 592.689 -1.57133 -3.395 0
M  V30 6264 H 594.022 -2.0495 -4.475 0
M  V30 6265 N 595.674 1.31259 -0.872281 0
M  V30 6266 C 596.584 2.32221 -0.333255 0
M  V30 6267 C 597.6 1.6481 0.558013 0
M  V30 6268 O 598.776 1.96212 0.454175 0
M  V30 6269 C 595.841 3.43708 0.454479 0
M  V30 6270 C 594.902 4.26774 -0.465024 0
M  V30 6271 C 594.135 5.32937 0.28521 0
M  V30 6272 O 594.358 5.49968 1.513 0
M  V30 6273 O 593.292 6.00834 -0.358126 0
M  V30 6274 H 597.118 2.80252 -1.17016 0
M  V30 6275 H 594.703 1.352 -0.635724 0
M  V30 6276 H 596.585 4.11656 0.900963 0
M  V30 6277 H 595.26 2.97836 1.26789 0
M  V30 6278 H 594.167 3.61571 -0.960055 0
M  V30 6279 H 595.5 4.76217 -1.2441 0
M  V30 6280 N 597.152 0.631951 1.44375 0
M  V30 6281 C 598.4 0.136497 2.01639 0
M  V30 6282 C 598.721 -1.24637 1.49969 0
M  V30 6283 O 597.991 -1.82827 0.70363 0
M  V30 6284 H 596.571 0.0474703 0.74549 0
M  V30 6285 H 599.233 0.818837 1.76865 0
M  V30 6286 H 598.329 0.104817 3.11924 0
M  V30 6287 N 598.631 -1.53133 0.372548 0
M  V30 6288 C 599.578 -2.25951 -0.470631 0
M  V30 6289 C 600.548 -1.26895 -1.07176 0
M  V30 6290 O 601.733 -1.55691 -1.10294 0
M  V30 6291 C 598.873 -3.05726 -1.6008 0
M  V30 6292 C 597.986 -4.19684 -1.02416 0
M  V30 6293 C 597.121 -4.86888 -2.124 0
M  V30 6294 C 596.16 -5.92866 -1.52238 0
M  V30 6295 N 595.297 -6.53732 -2.56084 0
M  V30 6296 H 600.137 -2.97587 0.156816 0
M  V30 6297 H 597.674 -1.4683 0.0891571 0
M  V30 6298 H 599.632 -3.50258 -2.26661 0
M  V30 6299 H 598.262 -2.36331 -2.1988 0
M  V30 6300 H 597.314 -3.79588 -0.248426 0
M  V30 6301 H 598.626 -4.95821 -0.544366 0
M  V30 6302 H 597.78 -5.34638 -2.86787 0
M  V30 6303 H 596.519 -4.10239 -2.63734 0
M  V30 6304 H 595.524 -5.4447 -0.763685 0
M  V30 6305 H 596.749 -6.71439 -1.0172 0
M  V30 6306 H 594.695 -5.79932 -3.06618 0
M  V30 6307 H 594.612 -7.25429 -2.12811 0
M  V30 6308 H 595.88 -7.0613 -3.30152 0
M  V30 6309 N 600.109 -0.101901 -1.5727 0
M  V30 6310 C 601.355 0.561027 -1.94885 0
M  V30 6311 C 601.688 1.6741 -0.984258 0
M  V30 6312 O 600.963 1.94491 -0.0184767 0
M  V30 6313 C 601.246 1.10982 -3.42571 0
M  V30 6314 C 601.099 0.00133418 -4.498 0
M  V30 6315 C 602.418 2.00608 -3.9172 0
M  V30 6316 H 599.537 0.202467 -0.708644 0
M  V30 6317 H 602.179 -0.173992 -1.89202 0
M  V30 6318 H 600.329 1.73621 -3.47546 0
M  V30 6319 H 602.001 -0.63322 -4.56933 0
M  V30 6320 H 600.244 -0.664143 -4.28686 0
M  V30 6321 H 600.915 0.426253 -5.50352 0
M  V30 6322 H 603.391 1.47864 -3.88941 0
M  V30 6323 H 602.267 2.3593 -4.95609 0
M  V30 6324 H 602.528 2.92608 -3.3141 0
M  V30 6325 N 601.587 1.56661 0.17182 0
M  V30 6326 C 602.836 1.81158 0.886831 0
M  V30 6327 C 603.149 0.679072 1.83434 0
M  V30 6328 O 604.355 0.808964 2.59168 0
M  V30 6329 C 602.811 3.20999 1.6275 0
M  V30 6330 C 602.419 4.42117 0.723652 0
M  V30 6331 C 604.163 3.5479 2.33076 0
M  V30 6332 C 602.07 5.7298 1.46452 0
M  V30 6333 H 601 0.675543 0.334899 0
M  V30 6334 H 603.651 1.82967 0.139765 0
M  V30 6335 H 602.033 3.13506 2.4193 0
M  V30 6336 H 603.207 4.60789 -0.0311485 0
M  V30 6337 H 601.522 4.16197 0.130063 0
M  V30 6338 H 604.119 4.49806 2.89099 0
M  V30 6339 H 604.462 2.79646 3.08389 0
M  V30 6340 H 604.995 3.63834 1.6084 0
M  V30 6341 H 601.734 6.51152 0.753729 0
M  V30 6342 H 601.254 5.58285 2.19266 0
M  V30 6343 H 602.933 6.14916 2.01214 0
M  V30 6344 N 603.065 -0.440357 1.51323 0
M  V30 6345 C 603.975 -1.55955 1.75258 0
M  V30 6346 C 604.991 -1.61933 0.636687 0
M  V30 6347 O 606.167 -1.79231 0.918593 0
M  V30 6348 C 603.232 -2.9196 1.86977 0
M  V30 6349 C 602.293 -2.96122 3.10822 0
M  V30 6350 C 601.526 -4.2564 3.21973 0
M  V30 6351 O 601.749 -5.17851 2.39137 0
M  V30 6352 O 600.683 -4.36025 4.14929 0
M  V30 6353 H 604.509 -1.38673 2.70191 0
M  V30 6354 H 602.094 -0.623055 1.35788 0
M  V30 6355 H 603.976 -3.72682 1.96688 0
M  V30 6356 H 602.651 -3.09375 0.952307 0
M  V30 6357 H 601.558 -2.14366 3.06591 0
M  V30 6358 H 602.891 -2.83651 4.02247 0
M  V30 6359 N 604.543 -1.41418 -0.695603 0
M  V30 6360 C 605.954 -1.36335 -1.27552 0
M  V30 6361 C 606.305 -0.0464336 -1.96145 0
M  V30 6362 O 605.43 0.855304 -1.9878 0
M  V30 6363 C 606.025 -2.46941 -2.3196 0
M  V30 6364 C 604.584 -2.45256 -2.85529 0
M  V30 6365 C 603.731 -2.2679 -1.59566 0
M  V30 6366 H 606.682 -1.50934 -0.490362 0
M  V30 6367 H 606.703 -2.15997 -3.1325 0
M  V30 6368 H 606.215 -3.42775 -1.82008 0
M  V30 6369 H 604.316 -1.53179 -3.39657 0
M  V30 6370 H 604.429 -3.41565 -3.35961 0
M  V30 6371 H 602.793 -1.74667 -1.85374 0
M  V30 6372 H 603.576 -3.24651 -1.1161 0
M  V30 6373 N 606.021 0.929856 -1.27246 0
M  V30 6374 C 606.951 2.04722 -1.12299 0
M  V30 6375 C 607.932 1.70082 -0.0250464 0
M  V30 6376 O 609.117 1.93176 -0.199141 0
M  V30 6377 C 606.247 3.38721 -0.767145 0
M  V30 6378 C 605.201 3.87466 -1.81808 0
M  V30 6379 C 604.527 5.18246 -1.31626 0
M  V30 6380 C 605.827 4.11095 -3.22177 0
M  V30 6381 H 607.521 2.17485 -2.05769 0
M  V30 6382 H 605.067 1.04503 -0.990715 0
M  V30 6383 H 607.02 4.16366 -0.649413 0
M  V30 6384 H 605.744 3.25967 0.203259 0
M  V30 6385 H 604.403 3.12012 -1.92468 0
M  V30 6386 H 604.051 5.01881 -0.335378 0
M  V30 6387 H 603.751 5.51829 -2.01887 0
M  V30 6388 H 605.275 5.98462 -1.21143 0
M  V30 6389 H 606.689 4.79316 -3.1453 0
M  V30 6390 H 605.086 4.55982 -3.90129 0
M  V30 6391 H 606.156 3.16468 -3.67391 0
M  V30 6392 N 607.499 1.09233 1.13605 0
M  V30 6393 C 608.446 0.729921 2.18954 0
M  V30 6394 C 609.416 -0.287916 1.63586 0
M  V30 6395 O 610.601 -0.170003 1.90041 0
M  V30 6396 C 607.741 0.154489 3.44754 0
M  V30 6397 C 606.854 1.22613 4.14234 0
M  V30 6398 C 605.989 0.613657 5.27644 0
M  V30 6399 C 605.028 1.66674 5.8897 0
M  V30 6400 N 604.165 1.07545 6.93814 0
M  V30 6401 H 609.005 1.63257 2.49302 0
M  V30 6402 H 606.542 0.815693 1.22413 0
M  V30 6403 H 608.5 -0.196923 4.16735 0
M  V30 6404 H 607.13 -0.711433 3.14863 0
M  V30 6405 H 606.182 1.69485 3.40557 0
M  V30 6406 H 607.494 2.0238 4.55899 0
M  V30 6407 H 606.648 0.210976 6.06333 0
M  V30 6408 H 605.387 -0.215584 4.87223 0
M  V30 6409 H 604.392 2.07899 5.08978 0
M  V30 6410 H 605.617 2.49861 6.31464 0
M  V30 6411 H 603.563 0.267451 6.55455 0
M  V30 6412 H 603.48 1.81011 7.3401 0
M  V30 6413 H 604.748 0.698906 7.7636 0
M  V30 6414 N 608.977 -1.30795 0.87923 0
M  V30 6415 C 610.254 -1.91145 0.415086 0
M  V30 6416 C 610.634 -1.7995 -1.10368 0
M  V30 6417 O 609.982 -1.21305 -1.93642 0
M  V30 6418 C 610.192 -3.37014 0.906778 0
M  V30 6419 C 611.54 -4.14101 0.938358 0
M  V30 6420 O 612.564 -3.45834 0.853053 0
M  V30 6421 O 611.423 -5.36054 1.06342 0
M  V30 6422 H 608.517 -0.81736 0.125905 0
M  V30 6423 H 611.063 -1.39401 0.967753 0
M  V30 6424 H 609.835 -3.3922 1.95053 0
M  V30 6425 H 609.458 -3.96204 0.332948 0
M  V30 6426 N 610.455 -0.639598 -1.44038 0
M  V30 6427 C 611.702 -0.14748 -2.01962 0
M  V30 6428 C 612.03 1.23372 -1.50365 0
M  V30 6429 O 611.285 1.8345 -0.681501 0
M  V30 6430 C 611.584 -0.0925348 -3.5728 0
M  V30 6431 C 611.25 -1.41365 -4.28167 0
M  V30 6432 C 609.912 -1.77545 -4.47248 0
M  V30 6433 C 612.264 -2.2853 -4.68427 0
M  V30 6434 C 609.592 -3.00583 -5.03852 0
M  V30 6435 C 611.944 -3.50846 -5.26393 0
M  V30 6436 C 610.608 -3.8724 -5.43692 0
M  V30 6437 H 609.878 -0.0539666 -0.739032 0
M  V30 6438 H 612.525 -0.827599 -1.72694 0
M  V30 6439 H 610.83 0.670987 -3.86012 0
M  V30 6440 H 612.527 0.304891 -3.99839 0
M  V30 6441 H 609.117 -1.1221 -4.13651 0
M  V30 6442 H 613.301 -2.0187 -4.5339 0
M  V30 6443 H 608.557 -3.28846 -5.15432 0
M  V30 6444 H 612.731 -4.18616 -5.56537 0
M  V30 6445 H 610.358 -4.8266 -5.87319 0
M  V30 6446 N 611.933 1.52934 -0.380664 0
M  V30 6447 C 612.883 2.22989 0.475399 0
M  V30 6448 C 613.867 1.23058 1.03661 0
M  V30 6449 O 615.059 1.48436 0.964146 0
M  V30 6450 C 612.188 3.0338 1.60671 0
M  V30 6451 C 611.274 4.107 1.05766 0
M  V30 6452 N 611.665 5.05264 0.232837 0
M  V30 6453 C 609.963 4.25676 1.33101 0
M  V30 6454 C 610.664 5.81658 -0.0695134 0
M  V30 6455 N 609.64 5.40989 0.532144 0
M  V30 6456 H 613.442 2.93456 -0.161418 0
M  V30 6457 H 610.956 1.61291 -0.189495 0
M  V30 6458 H 612.953 3.52098 2.23232 0
M  V30 6459 H 611.613 2.34446 2.24644 0
M  V30 6460 H 612.624 5.17739 -0.129204 0
M  V30 6461 H 609.301 3.6797 1.97241 0
M  V30 6462 H 610.691 6.67843 -0.737269 0
M  V30 6463 N 613.412 0.11024 1.57214 0
M  V30 6464 C 614.359 -0.843195 2.14846 0
M  V30 6465 C 615.329 -1.26954 1.07107 0
M  V30 6466 O 616.514 -1.34861 1.34971 0
M  V30 6467 C 613.654 -2.09123 2.74521 0
M  V30 6468 C 612.767 -1.71404 3.96541 0
M  V30 6469 C 611.902 -2.91107 4.44331 0
M  V30 6470 C 610.941 -2.49586 5.58903 0
M  V30 6471 N 610.078 -3.62175 6.01477 0
M  V30 6472 H 614.918 -0.344886 2.95998 0
M  V30 6473 H 612.455 -0.15855 1.46243 0
M  V30 6474 H 614.413 -2.82234 3.07246 0
M  V30 6475 H 613.043 -2.56427 1.96074 0
M  V30 6476 H 612.095 -0.88201 3.70033 0
M  V30 6477 H 613.407 -1.36884 4.7965 0
M  V30 6478 H 612.561 -3.72454 4.78919 0
M  V30 6479 H 611.3 -3.28848 3.60153 0
M  V30 6480 H 610.305 -1.6667 5.23929 0
M  V30 6481 H 611.53 -2.12973 6.4484 0
M  V30 6482 H 609.476 -3.99605 5.20242 0
M  V30 6483 H 609.393 -3.3155 6.79419 0
M  V30 6484 H 610.661 -4.43987 6.407 0
M  V30 6485 N 614.89 -1.56749 -0.16351 0
M  V30 6486 C 616.167 -1.73321 -0.906599 0
M  V30 6487 C 616.547 -0.673779 -2.00059 0
M  V30 6488 O 615.895 0.310121 -2.26386 0
M  V30 6489 C 616.105 -3.168 -1.46419 0
M  V30 6490 C 617.453 -3.77993 -1.93407 0
M  V30 6491 O 618.477 -3.20127 -1.56196 0
M  V30 6492 O 617.336 -4.79615 -2.61976 0
M  V30 6493 H 614.43 -0.708073 -0.427272 0
M  V30 6494 H 616.976 -1.69029 -0.150727 0
M  V30 6495 H 615.748 -3.85396 -0.677189 0
M  V30 6496 H 615.371 -3.2545 -2.28403 0
M  V30 6497 N 616.368 0.432326 -1.51554 0
M  V30 6498 C 617.278 1.55023 -1.76082 0
M  V30 6499 C 618.294 1.61593 -0.645265 0
M  V30 6500 O 619.47 1.78742 -0.928086 0
M  V30 6501 C 616.535 2.90964 -1.88523 0
M  V30 6502 C 615.596 2.9447 -3.12388 0
M  V30 6503 C 614.829 4.23926 -3.24225 0
M  V30 6504 O 615.052 5.16576 -2.4188 0
M  V30 6505 O 613.986 4.33818 -4.17235 0
M  V30 6506 H 617.812 1.37238 -2.70923 0
M  V30 6507 H 615.397 0.615845 -1.36117 0
M  V30 6508 H 617.279 3.71633 -1.98662 0
M  V30 6509 H 615.954 3.08865 -0.9687 0
M  V30 6510 H 614.861 2.12737 -3.07723 0
M  V30 6511 H 616.194 2.81514 -4.03746 0
M  V30 6512 N 617.846 1.41785 0.688094 0
M  V30 6513 C 619.092 1.41753 1.4503 0
M  V30 6514 C 619.425 0.0290745 1.94178 0
M  V30 6515 O 618.7 -0.944456 1.7003 0
M  V30 6516 C 618.983 2.43069 2.65686 0
M  V30 6517 C 618.836 3.91053 2.22256 0
M  V30 6518 C 620.155 2.41543 3.67893 0
M  V30 6519 H 617.274 0.516202 0.526027 0
M  V30 6520 H 619.916 1.73111 0.783105 0
M  V30 6521 H 618.066 2.1646 3.2261 0
M  V30 6522 H 619.738 4.28594 1.70602 0
M  V30 6523 H 617.981 4.05559 1.53963 0
M  V30 6524 H 618.652 4.57501 3.08863 0
M  V30 6525 H 621.128 2.65175 3.20658 0
M  V30 6526 H 620.004 3.14434 4.49914 0
M  V30 6527 H 620.265 1.43666 4.18106 0
M  V30 6528 N 619.324 -0.923095 1.27737 0
M  V30 6529 C 620.74 -1.19985 1.05241 0
M  V30 6530 C 620.94 -2.00391 -0.21113 0
M  V30 6531 O 619.996 -2.35324 -0.915366 0
M  V30 6532 C 621.309 -1.94352 2.29451 0
M  V30 6533 C 622.857 -2.07273 2.34536 0
M  V30 6534 C 623.332 -2.85046 3.58487 0
M  V30 6535 N 624.823 -2.92612 3.59072 0
M  V30 6536 C 625.558 -3.53266 4.51654 0
M  V30 6537 N 625.054 -4.15274 5.54545 0
M  V30 6538 N 626.847 -3.50714 4.39268 0
M  V30 6539 H 618.998 -0.386042 2.08862 0
M  V30 6540 H 621.261 -0.233407 0.918817 0
M  V30 6541 H 620.967 -1.42692 3.21453 0
M  V30 6542 H 620.841 -2.94947 2.3513 0
M  V30 6543 H 623.228 -2.58117 1.43037 0
M  V30 6544 H 623.309 -1.05884 2.32857 0
M  V30 6545 H 622.953 -2.34884 4.50324 0
M  V30 6546 H 622.883 -3.8673 3.57418 0
M  V30 6547 H 625.374 -2.48547 2.84663 0
M  V30 6548 H 625.687 -4.59507 6.21348 0
M  V30 6549 H 624.032 -4.13806 5.58382 0
M  V30 6550 H 627.223 -3.01475 3.58093 0
M  V30 6551 H 627.396 -3.97693 5.1161 0
M  V30 6552 N 620.802 -1.09834 -1.13024 0
M  V30 6553 C 622.051 -0.831806 -1.83749 0
M  V30 6554 C 622.364 0.644763 -1.84668 0
M  V30 6555 O 623.57 1.02697 -2.51327 0
M  V30 6556 C 622.026 -1.43817 -3.29916 0
M  V30 6557 C 621.634 -2.94759 -3.37374 0
M  V30 6558 C 623.378 -1.25077 -4.05655 0
M  V30 6559 C 621.285 -3.48461 -4.77838 0
M  V30 6560 H 620.215 -0.30751 -0.688443 0
M  V30 6561 H 622.866 -1.32156 -1.27307 0
M  V30 6562 H 621.248 -0.876106 -3.86187 0
M  V30 6563 H 622.422 -3.57228 -2.91076 0
M  V30 6564 H 620.737 -3.12581 -2.75103 0
M  V30 6565 H 623.334 -1.62649 -5.09362 0
M  V30 6566 H 623.677 -0.191782 -4.15858 0
M  V30 6567 H 624.21 -1.78057 -3.55725 0
M  V30 6568 H 620.949 -4.53998 -4.72828 0
M  V30 6569 H 620.469 -2.90757 -5.24615 0
M  V30 6570 H 622.148 -3.45914 -5.46766 0
M  V30 6571 N 622.28 1.30327 -0.886154 0
M  V30 6572 C 623.21 2.30549 -0.370028 0
M  V30 6573 C 624.191 1.61039 0.547751 0
M  V30 6574 O 625.376 1.8864 0.461353 0
M  V30 6575 C 622.506 3.44808 0.415275 0
M  V30 6576 C 621.46 4.26024 -0.41085 0
M  V30 6577 C 620.786 5.32347 0.501128 0
M  V30 6578 C 622.086 4.95433 -1.65359 0
M  V30 6579 H 623.78 2.73969 -1.20754 0
M  V30 6580 H 621.326 1.3171 -0.582097 0
M  V30 6581 H 623.279 4.13986 0.78699 0
M  V30 6582 H 622.003 3.00197 1.28644 0
M  V30 6583 H 620.662 3.58535 -0.764719 0
M  V30 6584 H 620.31 4.83982 1.37004 0
M  V30 6585 H 620.01 5.87581 -0.0478356 0
M  V30 6586 H 621.534 6.0438 0.869333 0
M  V30 6587 H 622.948 5.5712 -1.35239 0
M  V30 6588 H 621.345 5.60537 -2.14284 0
M  V30 6589 H 622.415 4.21493 -2.39733 0
M  V30 6590 N 623.758 0.647228 1.43697 0
M  V30 6591 C 625.006 0.157876 2.01482 0
M  V30 6592 C 625.327 -1.23039 1.51282 0
M  V30 6593 O 624.597 -1.82071 0.722982 0
M  V30 6594 H 623.177 0.0553745 0.744945 0
M  V30 6595 H 625.839 0.83755 1.75986 0
M  V30 6596 H 624.935 0.137895 3.11795 0
M  V30 6597 N 625.236 -1.5273 0.388769 0
M  V30 6598 C 626.652 -1.59553 0.0387049 0
M  V30 6599 C 626.852 -1.40278 -1.44652 0
M  V30 6600 O 625.908 -1.21951 -2.21098 0
M  V30 6601 C 627.221 -2.9625 0.515409 0
M  V30 6602 C 628.769 -3.09426 0.471621 0
M  V30 6603 C 629.244 -4.48572 0.924505 0
M  V30 6604 N 630.735 -4.54754 0.880496 0
M  V30 6605 C 631.47 -5.60653 1.20234 0
M  V30 6606 N 630.966 -6.74198 1.59463 0
M  V30 6607 N 632.759 -5.50755 1.12363 0
M  V30 6608 H 624.91 -1.63508 1.35569 0
M  V30 6609 H 627.173 -0.768097 0.555636 0
M  V30 6610 H 626.879 -3.15569 1.5527 0
M  V30 6611 H 626.753 -3.77102 -0.085792 0
M  V30 6612 H 629.14 -2.89804 -0.556588 0
M  V30 6613 H 629.221 -2.30528 1.10862 0
M  V30 6614 H 628.865 -4.68936 1.95094 0
M  V30 6615 H 628.795 -5.25935 0.264524 0
M  V30 6616 H 631.286 -3.73237 0.591815 0
M  V30 6617 H 631.599 -7.5097 1.82385 0
M  V30 6618 H 629.944 -6.75531 1.63349 0
M  V30 6619 H 633.135 -4.6093 0.816169 0
M  V30 6620 H 633.308 -6.33184 1.37777 0
M  V30 6621 N 626.714 -0.118576 -1.57153 0
M  V30 6622 C 627.624 0.845484 -2.18835 0
M  V30 6623 C 628.64 1.29299 -1.16438 0
M  V30 6624 O 629.816 1.35607 -1.48905 0
M  V30 6625 C 626.881 2.07795 -2.77529 0
M  V30 6626 C 625.942 1.6824 -3.9496 0
M  V30 6627 C 625.175 2.85612 -4.50845 0
M  V30 6628 O 625.398 4.01025 -4.05629 0
M  V30 6629 O 624.332 2.62721 -5.41536 0
M  V30 6630 H 628.158 0.350568 -3.0167 0
M  V30 6631 H 625.743 0.107013 -1.49016 0
M  V30 6632 H 627.625 2.79978 -3.14945 0
M  V30 6633 H 626.3 2.56294 -1.97725 0
M  V30 6634 H 625.207 0.931663 -3.62313 0
M  V30 6635 H 626.54 1.24484 -4.76198 0
M  V30 6636 N 628.193 1.56834 0.155195 0
M  V30 6637 C 629.123 2.00678 1.19376 0
M  V30 6638 C 630.104 0.884973 1.45266 0
M  V30 6639 O 631.289 1.1522 1.56326 0
M  V30 6640 C 628.419 2.38042 2.5289 0
M  V30 6641 C 627.373 3.53332 2.41538 0
M  V30 6642 C 626.699 3.76485 3.79688 0
M  V30 6643 C 627.999 4.86265 1.9064 0
M  V30 6644 H 629.693 2.87688 0.829232 0
M  V30 6645 H 627.239 1.38407 0.397445 0
M  V30 6646 H 629.192 2.67314 3.25763 0
M  V30 6647 H 627.916 1.4796 2.91162 0
M  V30 6648 H 626.575 3.24213 1.71117 0
M  V30 6649 H 626.223 2.83667 4.15382 0
M  V30 6650 H 625.923 4.54068 3.72956 0
M  V30 6651 H 627.447 4.08174 4.54122 0
M  V30 6652 H 628.861 5.14308 2.53299 0
M  V30 6653 H 627.258 5.67597 1.94818 0
M  V30 6654 H 628.328 4.77184 0.861596 0
M  V30 6655 N 629.671 -0.424282 1.51781 0
M  V30 6656 C 630.919 -1.17028 1.64769 0
M  V30 6657 C 631.24 -1.91409 0.372523 0
M  V30 6658 O 630.51 -1.86091 -0.612108 0
M  V30 6659 H 629.09 -0.434992 0.607282 0
M  V30 6660 H 631.752 -0.485169 1.88765 0
M  V30 6661 H 630.848 -1.8927 2.4816 0
M  V30 6662 N 631.149 -1.42148 -0.680565 0
M  V30 6663 C 632.079 -1.4796 -1.80638 0
M  V30 6664 C 633.06 -0.336728 -1.66734 0
M  V30 6665 O 634.245 -0.550247 -1.86242 0
M  V30 6666 C 631.375 -1.37569 -3.18892 0
M  V30 6667 C 630.329 -2.49823 -3.47524 0
M  V30 6668 C 629.655 -2.24491 -4.85291 0
M  V30 6669 C 630.955 -3.92144 -3.44994 0
M  V30 6670 H 632.649 -2.42184 -1.76032 0
M  V30 6671 H 630.195 -1.16566 -0.845481 0
M  V30 6672 H 632.148 -1.40243 -3.97379 0
M  V30 6673 H 630.872 -0.398357 -3.24162 0
M  V30 6674 H 629.531 -2.46455 -2.71395 0
M  V30 6675 H 629.179 -1.25066 -4.87204 0
M  V30 6676 H 628.879 -2.99722 -5.05411 0
M  V30 6677 H 630.403 -2.28906 -5.66069 0
M  V30 6678 H 631.817 -3.97145 -4.13459 0
M  V30 6679 H 630.214 -4.67179 -3.76648 0
M  V30 6680 H 631.284 -4.19225 -2.43676 0
M  V30 6681 N 632.627 0.916307 -1.28225 0
M  V30 6682 C 634.038 1.48024 -1.13779 0
M  V30 6683 C 634.389 1.94289 0.273139 0
M  V30 6684 O 633.514 1.82226 1.16716 0
M  V30 6685 C 634.109 2.69029 -2.05935 0
M  V30 6686 C 632.668 3.2161 -1.95561 0
M  V30 6687 C 631.815 1.94321 -1.97825 0
M  V30 6688 H 634.766 0.729272 -1.40951 0
M  V30 6689 H 634.787 3.44204 -1.62184 0
M  V30 6690 H 634.299 2.35325 -3.08616 0
M  V30 6691 H 632.4 3.60045 -0.959076 0
M  V30 6692 H 632.513 3.87032 -2.82388 0
M  V30 6693 H 630.877 2.1131 -1.42198 0
M  V30 6694 H 631.66 1.62917 -3.0218 0
M  V30 6695 N 634.105 1.10431 1.1244 0
M  V30 6696 C 635.015 0.765502 2.21759 0
M  V30 6697 C 636.031 -0.236966 1.72379 0
M  V30 6698 O 637.207 -0.0757329 2.01258 0
M  V30 6699 C 634.272 0.202316 3.46109 0
M  V30 6700 C 633.333 1.26205 4.1033 0
M  V30 6701 C 632.566 0.725648 5.28744 0
M  V30 6702 O 632.789 -0.447942 5.68638 0
M  V30 6703 O 631.723 1.48555 5.83279 0
M  V30 6704 H 635.549 1.67801 2.53133 0
M  V30 6705 H 633.134 0.879443 1.20773 0
M  V30 6706 H 635.016 -0.107918 4.21262 0
M  V30 6707 H 633.691 -0.683052 3.16411 0
M  V30 6708 H 632.598 1.62514 3.36957 0
M  V30 6709 H 633.931 2.12044 4.44183 0
M  V30 6710 N 635.583 -1.29855 0.893053 0
M  V30 6711 C 636.493 -2.31661 0.370157 0
M  V30 6712 C 637.509 -1.65677 -0.531723 0
M  V30 6713 O 638.685 -1.9691 -0.422902 0
M  V30 6714 C 635.75 -3.44388 -0.399741 0
M  V30 6715 C 634.811 -4.2598 0.532861 0
M  V30 6716 C 634.044 -5.33324 -0.200388 0
M  V30 6717 O 634.267 -5.52305 -1.42531 0
M  V30 6718 O 633.201 -6.00188 0.453668 0
M  V30 6719 H 637.027 -2.78354 1.2146 0
M  V30 6720 H 634.612 -1.34171 0.657153 0
M  V30 6721 H 636.494 -4.13037 -0.835358 0
M  V30 6722 H 635.169 -2.99815 -1.22035 0
M  V30 6723 H 634.076 -3.59998 1.01746 0
M  V30 6724 H 635.409 -4.74178 1.3197 0
M  V30 6725 N 637.061 -0.65484 -1.43351 0
M  V30 6726 C 637.991 0.0221809 -2.33489 0
M  V30 6727 C 638.972 0.810272 -1.49561 0
M  V30 6728 O 640.157 0.771426 -1.78221 0
M  V30 6729 C 637.287 0.988117 -3.32947 0
M  V30 6730 C 636.241 0.310026 -4.26876 0
M  V30 6731 C 635.567 1.38752 -5.16384 0
M  V30 6732 C 636.867 -0.798589 -5.16159 0
M  V30 6733 H 638.561 -0.730571 -2.9035 0
M  V30 6734 H 636.107 -0.352773 -1.39612 0
M  V30 6735 H 638.06 1.47067 -3.94904 0
M  V30 6736 H 636.784 1.77205 -2.74346 0
M  V30 6737 H 635.443 -0.152097 -3.66284 0
M  V30 6738 H 635.091 2.16293 -4.54121 0
M  V30 6739 H 634.791 0.939051 -5.80048 0
M  V30 6740 H 636.315 1.87141 -5.81215 0
M  V30 6741 H 637.729 -0.398126 -5.71916 0
M  V30 6742 H 636.126 -1.17163 -5.88552 0
M  V30 6743 H 637.196 -1.65588 -4.55751 0
M  V30 6744 N 638.539 1.52521 -0.396863 0
M  V30 6745 C 639.785 2.01971 0.183169 0
M  V30 6746 C 640.118 1.2825 1.45827 0
M  V30 6747 O 639.393 0.385179 1.90648 0
M  V30 6748 C 639.676 3.5736 0.443391 0
M  V30 6749 C 639.529 4.41743 -0.84753 0
M  V30 6750 C 640.848 4.22539 1.2308 0
M  V30 6751 H 637.967 0.734119 0.0650976 0
M  V30 6752 H 640.609 1.82519 -0.527918 0
M  V30 6753 H 638.759 3.74066 1.04914 0
M  V30 6754 H 640.431 4.36773 -1.48414 0
M  V30 6755 H 638.674 4.0845 -1.4612 0
M  V30 6756 H 639.345 5.48507 -0.620003 0
M  V30 6757 H 641.821 4.09857 0.718084 0
M  V30 6758 H 640.697 5.31227 1.38162 0
M  V30 6759 H 640.958 3.80675 2.24808 0
M  V30 6760 N 640.017 0.126909 1.57088 0
M  V30 6761 C 641.242 -0.53997 2.00248 0
M  V30 6762 C 641.667 -1.58927 1.00618 0
M  V30 6763 O 641.025 -1.81288 -0.0210131 0
M  V30 6764 C 641.073 -1.13565 3.4225 0
M  V30 6765 O 640.177 -2.25103 3.45547 0
M  V30 6766 H 639.518 -0.13412 0.650314 0
M  V30 6767 H 642.048 0.217718 2.03438 0
M  V30 6768 H 642.058 -1.46925 3.80627 0
M  V30 6769 H 640.733 -0.367122 4.14277 0
M  V30 6770 H 639.31 -1.93123 3.18995 0
M  V30 6771 N 641.495 -1.56914 -0.146875 0
M  V30 6772 C 642.911 -1.51582 -0.499518 0
M  V30 6773 C 643.111 -0.83535 -1.83369 0
M  V30 6774 O 642.167 -0.405932 -2.49216 0
M  V30 6775 C 643.48 -2.96349 -0.509711 0
M  V30 6776 C 645.028 -3.07288 -0.595217 0
M  V30 6777 C 645.503 -4.53562 -0.636071 0
M  V30 6778 N 646.994 -4.57906 -0.69829 0
M  V30 6779 C 647.729 -5.68462 -0.750886 0
M  V30 6780 N 647.225 -6.88588 -0.76282 0
M  V30 6781 N 649.018 -5.56496 -0.791777 0
M  V30 6782 H 641.169 -1.99547 0.727656 0
M  V30 6783 H 643.432 -0.910113 0.265327 0
M  V30 6784 H 643.138 -3.4939 0.402409 0
M  V30 6785 H 643.012 -3.52307 -1.34758 0
M  V30 6786 H 645.399 -2.54266 -1.49776 0
M  V30 6787 H 645.48 -2.54373 0.2698 0
M  V30 6788 H 645.124 -5.07222 0.262313 0
M  V30 6789 H 645.054 -5.04259 -1.51758 0
M  V30 6790 H 647.545 -3.71429 -0.696362 0
M  V30 6791 H 647.858 -7.68598 -0.804804 0
M  V30 6792 H 646.203 -6.91148 -0.730694 0
M  V30 6793 H 649.394 -4.61562 -0.779624 0
M  V30 6794 H 649.567 -6.42671 -0.829301 0
M  V30 6795 N 642.974 0.416227 -1.52004 0
M  V30 6796 C 643.924 1.50558 -1.7122 0
M  V30 6797 C 644.908 1.50613 -0.56609 0
M  V30 6798 O 646.1 1.56709 -0.822874 0
M  V30 6799 C 643.229 2.88556 -1.85984 0
M  V30 6800 C 642.315 2.93177 -3.06445 0
M  V30 6801 N 642.706 2.67505 -4.29272 0
M  V30 6802 C 641.004 3.24343 -3.06133 0
M  V30 6803 C 641.705 2.78511 -5.10692 0
M  V30 6804 N 640.681 3.11087 -4.45787 0
M  V30 6805 H 644.483 1.29494 -2.63834 0
M  V30 6806 H 641.997 0.62384 -1.4994 0
M  V30 6807 H 643.994 3.66954 -1.97865 0
M  V30 6808 H 642.654 3.10624 -0.945654 0
M  V30 6809 H 643.665 2.42033 -4.57865 0
M  V30 6810 H 640.342 3.52051 -2.24425 0
M  V30 6811 H 641.732 2.62438 -6.18527 0
M  V30 6812 N 644.452 1.42507 0.673017 0
M  V30 6813 C 645.863 1.38347 1.25367 0
M  V30 6814 C 646.214 0.0776327 1.96046 0
M  V30 6815 O 645.339 -0.823571 2.00116 0
M  V30 6816 C 645.934 2.506 2.28002 0
M  V30 6817 C 644.493 2.49767 2.81591 0
M  V30 6818 C 643.64 2.293 1.55938 0
M  V30 6819 H 646.591 1.51695 0.466288 0
M  V30 6820 H 646.612 2.20953 3.09774 0
M  V30 6821 H 646.124 3.45627 1.76532 0
M  V30 6822 H 644.225 1.58563 3.37177 0
M  V30 6823 H 644.338 3.46867 3.30485 0
M  V30 6824 H 642.702 1.77594 1.82572 0
M  V30 6825 H 643.485 3.26385 1.06431 0
M  V30 6826 N 645.93 -0.909495 1.28709 0
M  V30 6827 C 647.177 -1.65905 1.16111 0
M  V30 6828 C 647.505 -1.92334 -0.289436 0
M  V30 6829 O 646.76 -1.52495 -1.22653 0
M  V30 6830 C 647.059 -3.02117 1.90945 0
M  V30 6831 C 646.725 -2.95332 3.40719 0
M  V30 6832 C 645.387 -2.93189 3.81567 0
M  V30 6833 C 647.739 -2.85264 4.36204 0
M  V30 6834 C 645.067 -2.78784 5.16233 0
M  V30 6835 C 647.419 -2.724 5.70948 0
M  V30 6836 C 646.083 -2.68617 6.11066 0
M  V30 6837 H 645.353 -0.60709 0.42488 0
M  V30 6838 H 648 -1.05932 1.59533 0
M  V30 6839 H 646.305 -3.65901 1.40085 0
M  V30 6840 H 648.002 -3.59026 1.7861 0
M  V30 6841 H 644.592 -2.97797 3.08245 0
M  V30 6842 H 648.776 -2.86005 4.05605 0
M  V30 6843 H 644.032 -2.74254 5.46438 0
M  V30 6844 H 648.206 -2.63579 6.44592 0
M  V30 6845 H 645.833 -2.57213 7.15364 0
M  V30 6846 N 647.408 -1.11026 -1.11852 0
M  V30 6847 C 648.819 -0.873203 -1.65021 0
M  V30 6848 C 649.17 0.595364 -1.86949 0
M  V30 6849 O 648.295 1.45645 -1.60051 0
M  V30 6850 C 648.89 -1.57859 -2.99777 0
M  V30 6851 C 647.449 -1.38807 -3.49871 0
M  V30 6852 C 646.596 -1.62403 -2.24768 0
M  V30 6853 H 649.547 -1.26712 -0.955503 0
M  V30 6854 H 649.568 -1.02111 -3.66543 0
M  V30 6855 H 649.08 -2.6474 -2.83786 0
M  V30 6856 H 647.181 -0.341163 -3.71035 0
M  V30 6857 H 647.294 -2.13421 -4.28938 0
M  V30 6858 H 645.658 -1.04714 -2.32179 0
M  V30 6859 H 646.441 -2.70549 -2.11324 0
M  V30 6860 N 648.886 1.2938 -0.899927 0
M  V30 6861 C 650.134 1.95164 -0.524924 0
M  V30 6862 C 650.455 1.71292 0.931888 0
M  V30 6863 O 649.725 1.04481 1.65712 0
M  V30 6864 H 648.305 0.722133 -0.191135 0
M  V30 6865 H 650.967 1.57628 -1.14627 0
M  V30 6866 H 650.063 3.0397 -0.707711 0
M  V30 6867 N 650.364 0.662433 1.43002 0
M  V30 6868 C 651.775 0.258315 1.84904 0
M  V30 6869 C 652.126 -1.19703 1.55453 0
M  V30 6870 O 651.251 -1.91484 1.00811 0
M  V30 6871 C 651.846 0.462047 3.35635 0
M  V30 6872 C 650.405 0.112165 3.76233 0
M  V30 6873 C 649.552 0.760479 2.66668 0
M  V30 6874 H 652.503 0.865467 1.33024 0
M  V30 6875 H 652.524 -0.289646 3.79396 0
M  V30 6876 H 652.036 1.52135 3.57039 0
M  V30 6877 H 650.137 -0.944179 3.60439 0
M  V30 6878 H 650.25 0.544058 4.76001 0
M  V30 6879 H 648.614 0.192887 2.53969 0
M  V30 6880 H 649.397 1.82299 2.90898 0
M  V30 6881 N 651.842 -1.52309 0.404946 0
M  V30 6882 C 653.09 -2.01368 -0.17186 0
M  V30 6883 C 653.411 -1.29261 -1.46002 0
M  V30 6884 O 652.681 -0.41729 -1.91404 0
M  V30 6885 H 651.261 -0.744034 -0.0664993 0
M  V30 6886 H 653.923 -1.87263 0.540228 0
M  V30 6887 H 653.019 -3.09888 -0.370957 0
M  V30 6888 N 653.32 -0.135238 -1.57019 0
M  V30 6889 C 654.25 0.805235 -2.19176 0
M  V30 6890 C 655.231 1.2656 -1.13651 0
M  V30 6891 O 656.416 1.32528 -1.4195 0
M  V30 6892 C 653.546 2.04914 -2.80406 0
M  V30 6893 C 652.5 1.72598 -3.91655 0
M  V30 6894 C 651.826 3.04154 -4.39766 0
M  V30 6895 C 653.126 0.981709 -5.12991 0
M  V30 6896 H 654.82 0.287232 -2.98019 0
M  V30 6897 H 652.366 0.136714 -1.4335 0
M  V30 6898 H 654.319 2.71178 -3.22553 0
M  V30 6899 H 653.043 2.59067 -1.98877 0
M  V30 6900 H 651.702 1.08717 -3.50109 0
M  V30 6901 H 651.35 3.56274 -3.55075 0
M  V30 6902 H 651.05 2.83299 -5.14796 0
M  V30 6903 H 652.574 3.71509 -4.84576 0
M  V30 6904 H 653.988 1.5462 -5.52056 0
M  V30 6905 H 652.385 0.873533 -5.93708 0
M  V30 6906 H 653.455 -0.0286887 -4.84892 0
M  V30 6907 N 654.798 1.5699 0.138552 0
M  V30 6908 C 655.761 1.97984 1.15478 0
M  V30 6909 C 656.761 0.867416 1.35398 0
M  V30 6910 O 657.951 1.13387 1.32246 0
M  V30 6911 C 655.083 2.3031 2.51337 0
M  V30 6912 H 656.276 2.88953 0.802896 0
M  V30 6913 H 653.829 1.51555 0.382189 0
M  V30 6914 H 654.564 1.42159 2.91481 0
M  V30 6915 H 654.349 3.11425 2.38237 0
M  V30 6916 H 655.839 2.62834 3.24512 0
M  V30 6917 N 656.276 -0.40816 1.52223 0
M  V30 6918 C 657.525 -1.15212 1.65557 0
M  V30 6919 C 657.838 -1.9163 0.392096 0
M  V30 6920 O 659.044 -2.68458 0.405256 0
M  V30 6921 C 657.5 -2.09691 2.92502 0
M  V30 6922 C 657.108 -1.38785 4.25961 0
M  V30 6923 C 658.852 -2.8434 3.152 0
M  V30 6924 C 656.759 -2.31919 5.44029 0
M  V30 6925 H 655.689 -0.433776 0.616729 0
M  V30 6926 H 658.34 -0.4165 1.78711 0
M  V30 6927 H 656.722 -2.8681 2.7305 0
M  V30 6928 H 657.896 -0.670248 4.55899 0
M  V30 6929 H 656.211 -0.761741 4.09373 0
M  V30 6930 H 658.808 -3.54166 4.00587 0
M  V30 6931 H 659.151 -3.47344 2.29473 0
M  V30 6932 H 659.684 -2.14321 3.35129 0
M  V30 6933 H 656.423 -1.7356 6.32105 0
M  V30 6934 H 655.943 -3.0165 5.18428 0
M  V30 6935 H 657.622 -2.92424 5.77146 0
M  V30 6936 N 657.755 -1.42862 -0.66545 0
M  V30 6937 C 659.171 -1.25993 -0.979687 0
M  V30 6938 C 659.371 -0.170831 -2.00775 0
M  V30 6939 O 658.427 0.454827 -2.4837 0
M  V30 6940 C 659.74 -2.62005 -1.47559 0
M  V30 6941 C 661.288 -2.69437 -1.59288 0
M  V30 6942 C 661.763 -4.05838 -2.12272 0
M  V30 6943 N 663.254 -4.0784 -2.19592 0
M  V30 6944 C 663.989 -5.10205 -2.61684 0
M  V30 6945 N 663.485 -6.22949 -3.03161 0
M  V30 6946 N 665.278 -4.9756 -2.61516 0
M  V30 6947 H 657.429 -2.12395 0.0150493 0
M  V30 6948 H 659.692 -0.946355 -0.0558187 0
M  V30 6949 H 659.398 -3.42605 -0.794654 0
M  V30 6950 H 659.272 -2.86566 -2.45275 0
M  V30 6951 H 661.659 -1.89178 -2.26486 0
M  V30 6952 H 661.74 -2.48655 -0.600374 0
M  V30 6953 H 661.384 -4.86559 -1.4568 0
M  V30 6954 H 661.314 -4.23977 -3.12331 0
M  V30 6955 H 663.805 -3.26452 -1.90361 0
M  V30 6956 H 664.118 -6.96899 -3.33993 0
M  V30 6957 H 662.463 -6.2644 -3.00995 0
M  V30 6958 H 665.654 -4.08551 -2.28481 0
M  V30 6959 H 665.827 -5.77468 -2.93999 0
M  V30 6960 N 659.233 0.902656 -1.29189 0
M  V30 6961 C 660.479 1.65532 -1.17163 0
M  V30 6962 C 660.812 1.92216 0.276879 0
M  V30 6963 O 660.087 1.53048 1.20027 0
M  V30 6964 C 660.37 3.00629 -1.98228 0
M  V30 6965 C 660.223 2.81029 -3.51202 0
M  V30 6966 C 661.542 4.01321 -1.80635 0
M  V30 6967 H 658.661 0.60071 -0.426985 0
M  V30 6968 H 661.303 1.04578 -1.5863 0
M  V30 6969 H 659.453 3.52656 -1.62991 0
M  V30 6970 H 661.125 2.35927 -3.96404 0
M  V30 6971 H 659.368 2.1587 -3.76275 0
M  V30 6972 H 660.039 3.77014 -4.03192 0
M  V30 6973 H 662.515 3.58394 -2.11406 0
M  V30 6974 H 661.391 4.93792 -2.3971 0
M  V30 6975 H 661.652 4.35505 -0.760754 0
M  V30 6976 N 660.711 1.11618 1.11262 0
M  V30 6977 C 661.96 0.860934 1.82403 0
M  V30 6978 C 662.273 -0.615303 1.8567 0
M  V30 6979 O 663.479 -0.986861 2.52929 0
M  V30 6980 C 661.935 1.49048 3.27586 0
M  V30 6981 C 661.543 3.00089 3.32642 0
M  V30 6982 C 663.287 1.31515 4.03614 0
M  V30 6983 C 661.194 3.56019 4.72234 0
M  V30 6984 H 660.124 0.318423 0.683464 0
M  V30 6985 H 662.775 1.34165 1.25188 0
M  V30 6986 H 661.157 0.937434 3.84744 0
M  V30 6987 H 662.331 3.61813 2.85356 0
M  V30 6988 H 660.646 3.16919 2.70096 0
M  V30 6989 H 663.243 1.70732 5.0671 0
M  V30 6990 H 663.586 0.257917 4.155 0
M  V30 6991 H 664.119 1.83694 3.52848 0
M  V30 6992 H 660.858 4.61463 4.65545 0
M  V30 6993 H 660.378 2.99066 5.19923 0
M  V30 6994 H 662.057 3.54568 5.41193 0
M  V30 6995 N 662.189 -1.289 0.906776 0
M  V30 6996 C 663.429 -1.97046 0.543329 0
M  V30 6997 C 663.793 -1.69862 -0.895034 0
M  V30 6998 O 664.994 -2.31521 -1.36571 0
M  V30 6999 C 663.265 -3.47489 0.835833 0
M  V30 7000 S 664.824 -4.3498 0.577756 0
M  V30 7001 H 661.642 -0.681908 0.201302 0
M  V30 7002 H 664.244 -1.5657 1.17073 0
M  V30 7003 H 662.948 -3.64768 1.88075 0
M  V30 7004 H 662.479 -3.92907 0.196817 0
M  V30 7005 H 664.494 -4.92868 -0.574052 0
M  V30 7006 N 663.667 -0.670007 -1.42649 0
M  V30 7007 C 664.63 0.00204659 -2.292 0
M  V30 7008 C 665.63 0.733817 -1.4308 0
M  V30 7009 O 666.82 0.57254 -1.64522 0
M  V30 7010 C 663.952 1.01359 -3.25483 0
M  V30 7011 H 665.145 -0.759696 -2.90118 0
M  V30 7012 H 662.698 -0.432105 -1.50208 0
M  V30 7013 H 663.433 1.80399 -2.69493 0
M  V30 7014 H 663.218 0.492323 -3.88997 0
M  V30 7015 H 664.708 1.4824 -3.90403 0
M  V30 7016 N 665.145 1.52092 -0.413018 0
M  V30 7017 C 666.055 2.30858 0.417318 0
M  V30 7018 C 667.071 1.38746 1.05003 0
M  V30 7019 O 668.247 1.71821 1.05069 0
M  V30 7020 C 665.312 3.11756 1.51687 0
M  V30 7021 C 664.373 4.19613 0.906825 0
M  V30 7022 C 663.606 4.96644 1.95399 0
M  V30 7023 O 663.829 4.7402 3.17271 0
M  V30 7024 O 662.763 5.81385 1.55805 0
M  V30 7025 H 666.589 3.02865 -0.225028 0
M  V30 7026 H 664.174 1.48358 -0.176126 0
M  V30 7027 H 666.056 3.62122 2.15512 0
M  V30 7028 H 664.731 2.42539 2.14375 0
M  V30 7029 H 663.638 3.73385 0.231183 0
M  V30 7030 H 664.971 4.91134 0.323814 0
M  V30 7031 N 666.623 0.143563 1.56945 0
M  V30 7032 C 667.533 -0.810562 2.20152 0
M  V30 7033 C 668.549 -1.27431 1.1848 0
M  V30 7034 O 669.725 -1.33221 1.51044 0
M  V30 7035 C 666.79 -2.03353 2.80799 0
M  V30 7036 C 665.851 -1.61936 3.97587 0
M  V30 7037 C 665.084 -2.78403 4.55332 0
M  V30 7038 O 665.307 -3.94521 4.11958 0
M  V30 7039 O 664.241 -2.54073 5.45647 0
M  V30 7040 H 668.067 -0.30253 3.02189 0
M  V30 7041 H 665.652 -0.0832925 1.49168 0
M  V30 7042 H 667.534 -2.74932 3.19359 0
M  V30 7043 H 666.209 -2.53116 2.01777 0
M  V30 7044 H 665.116 -0.873904 3.6375 0
M  V30 7045 H 666.449 -1.16892 4.78118 0
M  V30 7046 N 668.101 -1.57061 -0.130224 0
M  V30 7047 C 669.512 -1.73539 -0.68856 0
M  V30 7048 C 669.863 -0.760554 -1.80859 0
M  V30 7049 O 668.988 0.0690796 -2.1629 0
M  V30 7050 C 669.583 -3.14666 -1.25581 0
M  V30 7051 C 668.142 -3.32689 -1.76055 0
M  V30 7052 C 667.289 -2.69436 -0.655712 0
M  V30 7053 H 670.24 -1.58412 0.0956002 0
M  V30 7054 H 670.261 -3.15595 -2.12556 0
M  V30 7055 H 669.773 -3.85593 -0.440412 0
M  V30 7056 H 667.874 -2.66786 -2.60108 0
M  V30 7057 H 667.987 -4.4077 -1.87772 0
M  V30 7058 H 666.351 -2.30362 -1.08654 0
M  V30 7059 H 667.134 -3.42979 0.14852 0
M  V30 7060 N 669.579 0.400081 -1.52437 0
M  V30 7061 C 670.809 1.16598 -1.70553 0
M  V30 7062 C 671.217 1.8451 -0.418665 0
M  V30 7063 O 670.56 1.73069 0.615855 0
M  V30 7064 C 670.622 2.26517 -2.7916 0
M  V30 7065 C 670.286 1.78666 -4.20628 0
M  V30 7066 C 671.283 1.26946 -5.04163 0
M  V30 7067 C 668.968 1.85225 -4.66902 0
M  V30 7068 C 670.962 0.824187 -6.32049 0
M  V30 7069 C 668.649 1.40309 -5.94774 0
M  V30 7070 C 669.647 0.889922 -6.77178 0
M  V30 7071 O 669.335 0.447281 -8.02655 0
M  V30 7072 H 669.067 0.356023 -0.574651 0
M  V30 7073 H 671.621 0.475598 -1.99818 0
M  V30 7074 H 669.851 2.98946 -2.45292 0
M  V30 7075 H 671.54 2.88237 -2.85787 0
M  V30 7076 H 672.306 1.21244 -4.69601 0
M  V30 7077 H 668.185 2.24111 -4.02859 0
M  V30 7078 H 671.729 0.422958 -6.96317 0
M  V30 7079 H 667.626 1.45693 -6.28843 0
M  V30 7080 H 668.394 0.569768 -8.16514 0
M  V30 7081 N 671.057 1.43213 0.657864 0
M  V30 7082 C 672.306 1.43871 1.41365 0
M  V30 7083 C 672.619 0.064898 1.95492 0
M  V30 7084 O 673.825 -0.0510796 2.71452 0
M  V30 7085 C 672.281 2.53158 2.55811 0
M  V30 7086 C 671.889 3.96624 2.08311 0
M  V30 7087 C 673.633 2.63004 3.3321 0
M  V30 7088 C 671.54 4.97385 3.1994 0
M  V30 7089 H 670.47 0.535174 0.531136 0
M  V30 7090 H 673.121 1.69185 0.710543 0
M  V30 7091 H 671.503 2.21037 3.2857 0
M  V30 7092 H 672.677 4.38182 1.42593 0
M  V30 7093 H 670.992 3.90781 1.43804 0
M  V30 7094 H 673.589 3.3546 4.16378 0
M  V30 7095 H 673.932 1.67918 3.80932 0
M  V30 7096 H 674.465 2.94403 2.67529 0
M  V30 7097 H 671.204 5.94007 2.77192 0
M  V30 7098 H 670.724 4.60444 3.84385 0
M  V30 7099 H 672.403 5.19877 3.85145 0
M  V30 7100 N 672.536 -0.895792 1.29666 0
M  V30 7101 C 673.776 -1.6609 1.19136 0
M  V30 7102 C 674.14 -1.90336 -0.252245 0
M  V30 7103 O 675.341 -2.64469 -0.480593 0
M  V30 7104 C 673.612 -2.97129 1.98618 0
M  V30 7105 S 675.171 -3.88146 2.04666 0
M  V30 7106 H 671.989 -0.570188 0.424744 0
M  V30 7107 H 674.591 -1.06411 1.64003 0
M  V30 7108 H 673.295 -2.77199 3.02637 0
M  V30 7109 H 672.826 -3.61847 1.54371 0
M  V30 7110 H 674.841 -4.82301 1.16618 0
M  V30 7111 N 674.014 -1.12206 -1.10668 0
M  V30 7112 C 674.961 -0.787716 -2.16942 0
M  V30 7113 C 675.931 0.244442 -1.64291 0
M  V30 7114 O 677.116 0.119558 -1.90425 0
M  V30 7115 C 674.256 -0.24584 -3.44223 0
M  V30 7116 C 673.369 -1.33552 -4.10838 0
M  V30 7117 C 672.504 -0.753337 -5.25831 0
M  V30 7118 C 671.543 -1.82231 -5.84344 0
M  V30 7119 N 670.68 -1.25902 -6.90719 0
M  V30 7120 H 675.52 -1.69809 -2.44885 0
M  V30 7121 H 673.057 -0.847862 -1.20207 0
M  V30 7122 H 675.015 0.0863639 -4.17111 0
M  V30 7123 H 673.645 0.627702 -3.16638 0
M  V30 7124 H 672.697 -1.78454 -3.35944 0
M  V30 7125 H 674.009 -2.14396 -4.50373 0
M  V30 7126 H 673.163 -0.37166 -6.05561 0
M  V30 7127 H 671.902 0.0863297 -4.87624 0
M  V30 7128 H 670.907 -2.2132 -5.03287 0
M  V30 7129 H 672.132 -2.66515 -6.24617 0
M  V30 7130 H 670.078 -0.44114 -6.54515 0
M  V30 7131 H 669.995 -2.00408 -7.28953 0
M  V30 7132 H 671.263 -0.904498 -7.74235 0
M  V30 7133 N 675.492 1.28418 -0.913599 0
M  V30 7134 C 676.769 1.89977 -0.465619 0
M  V30 7135 C 677.149 1.82813 1.05559 0
M  V30 7136 O 676.497 1.26397 1.90358 0
M  V30 7137 C 676.707 3.34492 -0.995813 0
M  V30 7138 C 678.055 4.11468 -1.04782 0
M  V30 7139 O 679.079 3.43451 -0.944445 0
M  V30 7140 O 677.938 5.33046 -1.20518 0
M  V30 7141 H 675.032 0.813734 -0.147532 0
M  V30 7142 H 677.578 1.36786 -1.00437 0
M  V30 7143 H 676.35 3.33929 -2.03978 0
M  V30 7144 H 675.973 3.95181 -0.437878 0
M  V30 7145 N 676.97 0.677563 1.42291 0
M  V30 7146 C 678.217 0.200975 2.015 0
M  V30 7147 C 678.545 -1.19342 1.53583 0
M  V30 7148 O 677.8 -1.81579 0.7299 0
M  V30 7149 C 678.099 0.187229 3.56909 0
M  V30 7150 C 677.765 1.52667 4.24268 0
M  V30 7151 C 676.427 1.89341 4.42384 0
M  V30 7152 C 678.779 2.40869 4.62203 0
M  V30 7153 C 676.107 3.13836 4.95705 0
M  V30 7154 C 678.459 3.64679 5.16906 0
M  V30 7155 C 677.123 4.01519 5.33234 0
M  V30 7156 H 676.393 0.0735418 0.737342 0
M  V30 7157 H 679.04 0.873095 1.70439 0
M  V30 7158 H 677.345 -0.568407 3.87655 0
M  V30 7159 H 679.042 -0.198773 4.00507 0
M  V30 7160 H 675.632 1.23138 4.1053 0
M  V30 7161 H 679.816 2.1382 4.47878 0
M  V30 7162 H 675.072 3.42396 5.06532 0
M  V30 7163 H 679.246 4.33224 5.45243 0
M  V30 7164 H 676.873 4.98062 5.74316 0
M  V30 7165 N 678.448 -1.51871 0.421078 0
M  V30 7166 C 679.859 -1.86644 -0.0457991 0
M  V30 7167 C 680.21 -1.33919 -1.43388 0
M  V30 7168 O 679.335 -0.683316 -2.05328 0
M  V30 7169 C 679.93 -3.38681 -0.0898844 0
M  V30 7170 C 678.489 -3.73049 -0.501127 0
M  V30 7171 C 677.636 -2.75485 0.316723 0
M  V30 7172 H 680.587 -1.45327 0.637635 0
M  V30 7173 H 680.608 -3.69636 -0.902734 0
M  V30 7174 H 680.12 -3.77025 0.920513 0
M  V30 7175 H 678.221 -3.40288 -1.51773 0
M  V30 7176 H 678.334 -4.78512 -0.237217 0
M  V30 7177 H 676.698 -2.53725 -0.222663 0
M  V30 7178 H 677.481 -3.16671 1.32569 0
M  V30 7179 N 679.926 -0.151884 -1.56866 0
M  V30 7180 C 680.836 0.798876 -2.20579 0
M  V30 7181 C 681.852 1.268 -1.19154 0
M  V30 7182 O 683.028 1.32418 -1.51748 0
M  V30 7183 C 680.093 2.01861 -2.81874 0
M  V30 7184 C 679.154 1.59825 -3.9844 0
M  V30 7185 C 678.387 2.75984 -4.56802 0
M  V30 7186 O 678.61 3.92331 -4.14044 0
M  V30 7187 O 677.544 2.51175 -5.46987 0
M  V30 7188 H 681.37 0.2865 -3.02346 0
M  V30 7189 H 678.955 0.0753806 -1.4921 0
M  V30 7190 H 680.837 2.73235 -3.20813 0
M  V30 7191 H 679.512 2.52042 -2.03117 0
M  V30 7192 H 678.419 0.854601 -3.64208 0
M  V30 7193 H 679.752 1.14355 -4.78731 0
M  V30 7194 N 681.404 1.57128 0.121893 0
M  V30 7195 C 682.632 1.88883 0.844451 0
M  V30 7196 C 683.047 0.742824 1.73573 0
M  V30 7197 O 682.404 -0.286475 1.80238 0
M  V30 7198 C 682.455 3.20076 1.68029 0
M  V30 7199 O 682.176 4.30264 0.824898 0
M  V30 7200 C 683.677 3.65515 2.50826 0
M  V30 7201 H 680.897 0.62549 0.242907 0
M  V30 7202 H 683.441 2.04219 0.107151 0
M  V30 7203 H 681.596 3.06418 2.37038 0
M  V30 7204 H 682.01 5.05439 1.40113 0
M  V30 7205 H 683.484 4.60081 3.05008 0
M  V30 7206 H 683.961 2.92029 3.28048 0
M  V30 7207 H 684.567 3.81952 1.87064 0
M  V30 7208 N 682.882 -0.391992 1.52647 0
M  V30 7209 C 683.83 -1.4991 1.77848 0
M  V30 7210 C 684.824 -1.56587 0.646282 0
M  V30 7211 O 686.03 -1.59789 0.828698 0
M  V30 7212 H 682.405 -0.498883 0.56269 0
M  V30 7213 H 684.376 -1.25847 2.70564 0
M  V30 7214 C 683.125 -2.87081 1.96163 0
M  V30 7215 H 682.448 -2.82692 2.82711 0
M  V30 7216 H 683.888 -3.63792 2.17787 0
M  V30 7217 C 682.347 -3.28822 0.733348 0
M  V30 7218 O 682.877 -4.01598 -0.0906481 0
M  V30 7219 N 681.083 -2.85068 0.564317 0
M  V30 7220 H 680.63 -2.26012 1.23598 0
M  V30 7221 H 680.588 -3.13355 -0.256166 0
M  V30 7222 N 684.36 -1.4356 -0.65026 0
M  V30 7223 C 685.308 -1.49219 -1.78427 0
M  V30 7224 C 686.302 -0.365528 -1.65409 0
M  V30 7225 O 687.508 -0.539649 -1.7172 0
M  V30 7226 H 683.883 -0.467858 -0.588738 0
M  V30 7227 H 685.854 -2.44701 -1.70774 0
M  V30 7228 C 684.603 -1.43519 -3.16698 0
M  V30 7229 H 683.926 -2.2952 -3.27354 0
M  V30 7230 H 685.366 -1.5154 -3.95995 0
M  V30 7231 C 683.825 -0.153197 -3.36552 0
M  V30 7232 O 684.355 0.784317 -3.93969 0
M  V30 7233 N 682.561 -0.0624402 -2.90533 0
M  V30 7234 H 682.108 -0.826172 -2.43992 0
M  V30 7235 H 682.066 0.794616 -3.04193 0
M  V30 7236 N 685.838 0.888903 -1.30139 0
M  V30 7237 C 687.087 1.63507 -1.18103 0
M  V30 7238 C 687.4 1.93808 0.264141 0
M  V30 7239 O 688.606 2.66744 0.505966 0
M  V30 7240 C 687.062 2.94673 -2.0663 0
M  V30 7241 C 686.67 2.71926 -3.56034 0
M  V30 7242 C 688.414 3.72626 -2.03346 0
M  V30 7243 C 686.321 3.98884 -4.3663 0
M  V30 7244 H 685.251 0.613426 -0.438435 0
M  V30 7245 H 687.902 0.984427 -1.54859 0
M  V30 7246 H 686.284 3.61009 -1.62754 0
M  V30 7247 H 687.458 2.14116 -4.08033 0
M  V30 7248 H 685.773 2.07353 -3.61101 0
M  V30 7249 H 688.37 4.66775 -2.60816 0
M  V30 7250 H 688.713 4.03712 -1.016 0
M  V30 7251 H 689.246 3.13147 -2.45324 0
M  V30 7252 H 685.985 3.72959 -5.39056 0
M  V30 7253 H 685.505 4.56214 -3.89396 0
M  V30 7254 H 687.184 4.66938 -4.47859 0
M  V30 7255 N 687.317 1.12792 1.10072 0
M  V30 7256 C 688.247 0.821688 2.18565 0
M  V30 7257 C 689.228 -0.21612 1.68721 0
M  V30 7258 O 690.413 -0.0764932 1.94049 0
M  V30 7259 C 687.543 0.279624 3.46172 0
M  V30 7260 C 686.497 1.25092 4.09312 0
M  V30 7261 C 685.823 0.568916 5.31665 0
M  V30 7262 C 687.123 2.60699 4.52585 0
M  V30 7263 H 688.817 1.72888 2.44438 0
M  V30 7264 H 686.363 0.832702 1.17482 0
M  V30 7265 H 688.316 0.053099 4.21367 0
M  V30 7266 H 687.04 -0.662929 3.19801 0
M  V30 7267 H 685.699 1.46332 3.36129 0
M  V30 7268 H 685.347 -0.378898 5.01571 0
M  V30 7269 H 685.047 1.21687 5.74862 0
M  V30 7270 H 686.571 0.351517 6.09587 0
M  V30 7271 H 687.985 2.43465 5.19035 0
M  V30 7272 H 686.382 3.21608 5.06644 0
M  V30 7273 H 687.452 3.1886 3.65317 0
M  V30 7274 N 688.795 -1.27931 0.920396 0
M  V30 7275 C 689.742 -2.27085 0.412422 0
M  V30 7276 C 690.712 -1.57858 -0.516725 0
M  V30 7277 O 691.897 -1.85717 -0.437475 0
M  V30 7278 C 689.037 -3.43466 -0.335399 0
M  V30 7279 C 688.15 -4.27425 0.627017 0
M  V30 7280 C 687.285 -5.31016 -0.139916 0
M  V30 7281 C 686.324 -6.06641 0.815683 0
M  V30 7282 N 685.461 -7.02052 0.0818439 0
M  V30 7283 H 690.301 -2.69913 1.26298 0
M  V30 7284 H 687.838 -1.32732 0.634076 0
M  V30 7285 H 689.796 -4.09744 -0.785226 0
M  V30 7286 H 688.426 -3.01611 -1.15025 0
M  V30 7287 H 687.478 -3.6113 1.19537 0
M  V30 7288 H 688.79 -4.79969 1.35763 0
M  V30 7289 H 687.944 -6.03208 -0.649998 0
M  V30 7290 H 686.683 -4.79257 -0.903543 0
M  V30 7291 H 685.688 -5.33294 1.33708 0
M  V30 7292 H 686.913 -6.60489 1.57897 0
M  V30 7293 H 684.859 -6.52634 -0.663671 0
M  V30 7294 H 684.776 -7.52249 0.752163 0
M  V30 7295 H 686.044 -7.78432 -0.407825 0
M  V30 7296 N 690.273 -0.685099 -1.4193 0
M  V30 7297 C 691.522 -0.208816 -2.00616 0
M  V30 7298 C 691.835 1.19506 -1.54847 0
M  V30 7299 O 693.041 1.76826 -2.06021 0
M  V30 7300 C 691.497 -0.322446 -3.58453 0
M  V30 7301 C 691.105 -1.73102 -4.13206 0
M  V30 7302 C 692.849 0.0945979 -4.24395 0
M  V30 7303 C 690.756 -1.79687 -5.63442 0
M  V30 7304 H 689.686 -0.0743092 -0.750329 0
M  V30 7305 H 692.337 -0.851778 -1.62533 0
M  V30 7306 H 690.719 0.388588 -3.94089 0
M  V30 7307 H 691.893 -2.46997 -3.8901 0
M  V30 7308 H 690.208 -2.09682 -3.59753 0
M  V30 7309 H 692.805 0.0656937 -5.3466 0
M  V30 7310 H 693.148 1.1316 -4.00625 0
M  V30 7311 H 693.681 -0.56579 -3.93756 0
M  V30 7312 H 690.42 -2.81404 -5.92024 0
M  V30 7313 H 689.94 -1.10162 -5.89597 0
M  V30 7314 H 691.619 -1.55498 -6.28036 0
M  V30 7315 N 691.751 1.51645 -0.429126 0
M  V30 7316 C 692.997 2.02314 0.140286 0
M  V30 7317 C 693.33 1.31314 1.43074 0
M  V30 7318 O 692.605 0.425531 1.89788 0
M  V30 7319 C 692.888 3.5822 0.36749 0
M  V30 7320 C 692.741 4.39846 -0.941039 0
M  V30 7321 C 694.06 4.25055 1.14089 0
M  V30 7322 H 691.179 0.735335 0.0495112 0
M  V30 7323 H 693.821 1.81358 -0.566514 0
M  V30 7324 H 691.971 3.76207 0.969556 0
M  V30 7325 H 693.643 4.33527 -1.57646 0
M  V30 7326 H 691.886 4.05259 -1.54751 0
M  V30 7327 H 692.557 5.47069 -0.73621 0
M  V30 7328 H 695.033 4.11288 0.630986 0
M  V30 7329 H 693.909 5.34038 1.26863 0
M  V30 7330 H 694.17 3.85358 2.16683 0
M  V30 7331 N 693.229 0.160201 1.56784 0
M  V30 7332 C 694.192 -0.760405 2.16219 0
M  V30 7333 C 695.192 -1.16595 1.10735 0
M  V30 7334 O 696.382 -1.08472 1.36306 0
M  V30 7335 C 693.514 -2.03358 2.73603 0
M  V30 7336 H 694.707 -0.243173 2.98912 0
M  V30 7337 H 692.26 -0.0893139 1.56045 0
M  V30 7338 H 692.995 -2.59416 1.94612 0
M  V30 7339 H 692.78 -1.75186 3.50788 0
M  V30 7340 H 694.27 -2.69081 3.19351 0
M  V30 7341 N 694.707 -1.5719 -0.113559 0
M  V30 7342 C 695.984 -1.76117 -0.850999 0
M  V30 7343 C 696.364 -0.737085 -1.97814 0
M  V30 7344 O 695.712 0.237942 -2.27258 0
M  V30 7345 C 695.922 -3.21298 -1.36266 0
M  V30 7346 C 697.27 -3.83955 -1.81283 0
M  V30 7347 O 698.294 -3.24934 -1.45933 0
M  V30 7348 O 697.153 -4.87707 -2.46585 0
M  V30 7349 H 694.247 -0.721308 -0.404529 0
M  V30 7350 H 696.793 -1.69423 -0.0968756 0
M  V30 7351 H 695.565 -3.87355 -0.554235 0
M  V30 7352 H 695.188 -3.32552 -2.17933 0
M  V30 7353 N 696.185 0.383891 -1.52853 0
M  V30 7354 C 697.432 1.12842 -1.68146 0
M  V30 7355 C 697.76 1.89823 -0.423954 0
M  V30 7356 O 697.015 1.86475 0.593765 0
M  V30 7357 C 697.314 2.12881 -2.87082 0
M  V30 7358 C 696.98 1.52519 -4.24322 0
M  V30 7359 C 695.642 1.35783 -4.61645 0
M  V30 7360 C 697.994 1.0868 -5.09743 0
M  V30 7361 C 695.322 0.737643 -5.82044 0
M  V30 7362 C 697.674 0.480699 -6.30771 0
M  V30 7363 C 696.338 0.300681 -6.66822 0
M  V30 7364 H 695.608 0.412917 -0.615289 0
M  V30 7365 H 698.255 0.412416 -1.87006 0
M  V30 7366 H 696.56 2.90719 -2.62659 0
M  V30 7367 H 698.257 2.70408 -2.96109 0
M  V30 7368 H 694.847 1.66534 -3.94923 0
M  V30 7369 H 699.031 1.2041 -4.81472 0
M  V30 7370 H 694.287 0.586415 -6.08581 0
M  V30 7371 H 698.461 0.132733 -6.96273 0
M  V30 7372 H 696.088 -0.181966 -7.59982 0
M  V30 7373 N 697.663 1.43903 0.642637 0
M  V30 7374 C 698.888 1.49758 1.43483 0
M  V30 7375 C 699.313 0.119911 1.87717 0
M  V30 7376 O 698.671 -0.888558 1.58033 0
M  V30 7377 C 698.719 2.45744 2.63898 0
M  V30 7378 O 697.823 1.95101 3.63331 0
M  V30 7379 H 697.164 0.506138 0.429791 0
M  V30 7380 H 699.694 1.88923 0.785438 0
M  V30 7381 H 699.704 2.63399 3.11584 0
M  V30 7382 H 698.379 3.45818 2.31046 0
M  V30 7383 H 696.956 1.87158 3.22531 0
M  V30 7384 N 699.141 -0.881989 1.30609 0
M  V30 7385 C 700.104 -1.96957 1.1722 0
M  V30 7386 C 701.104 -1.60472 0.102598 0
M  V30 7387 O 702.294 -1.70628 0.350943 0
M  V30 7388 C 699.426 -3.31463 0.796572 0
M  V30 7389 H 700.619 -2.10262 2.13846 0
M  V30 7390 H 698.172 -1.06877 1.14048 0
M  V30 7391 H 698.907 -3.23859 -0.169053 0
M  V30 7392 H 698.692 -3.59314 1.56959 0
M  V30 7393 H 700.182 -4.11233 0.72645 0
M  V30 7394 N 700.619 -1.13374 -1.09472 0
M  V30 7395 C 701.844 -0.918711 -1.85942 0
M  V30 7396 C 702.269 0.527225 -1.8056 0
M  V30 7397 O 701.627 1.37408 -1.18274 0
M  V30 7398 C 701.675 -1.41056 -3.31867 0
M  V30 7399 O 700.779 -0.595496 -4.08078 0
M  V30 7400 H 700.12 -0.329297 -0.576593 0
M  V30 7401 H 702.65 -1.50829 -1.38245 0
M  V30 7402 H 702.66 -1.41398 -3.82715 0
M  V30 7403 H 701.335 -2.46335 -3.35099 0
M  V30 7404 H 699.912 -0.659911 -3.67014 0
M  V30 7405 N 702.098 1.27442 -0.927168 0
M  V30 7406 C 703.344 1.94679 -0.568164 0
M  V30 7407 C 703.677 1.72697 0.888219 0
M  V30 7408 O 702.952 1.05573 1.63354 0
M  V30 7409 C 703.235 3.4882 -0.894253 0
M  V30 7410 C 703.088 3.80146 -2.40435 0
M  V30 7411 C 704.407 4.38281 -0.399766 0
M  V30 7412 H 701.526 0.707071 -0.207892 0
M  V30 7413 H 704.168 1.50568 -1.15885 0
M  V30 7414 H 702.318 3.86522 -0.391566 0
M  V30 7415 H 703.99 3.52238 -2.97869 0
M  V30 7416 H 702.233 3.26716 -2.85375 0
M  V30 7417 H 702.904 4.87835 -2.58304 0
M  V30 7418 H 705.38 4.07726 -0.83058 0
M  V30 7419 H 704.256 5.44955 -0.656885 0
M  V30 7420 H 704.517 4.36521 0.700153 0
M  V30 7421 N 703.576 0.692616 1.41565 0
M  V30 7422 C 704.523 0.0254264 2.30786 0
M  V30 7423 C 705.493 -0.774347 1.46946 0
M  V30 7424 O 706.678 -0.742981 1.7574 0
M  V30 7425 C 703.818 -0.907123 3.32964 0
M  V30 7426 C 702.931 -0.0992784 4.31886 0
M  V30 7427 C 702.066 -1.0292 5.21134 0
M  V30 7428 C 701.105 -0.214088 6.11725 0
M  V30 7429 N 700.242 -1.09766 6.93467 0
M  V30 7430 H 705.082 0.792036 2.87282 0
M  V30 7431 H 702.619 0.4023 1.41492 0
M  V30 7432 H 704.577 -1.46181 3.90752 0
M  V30 7433 H 703.207 -1.64016 2.78026 0
M  V30 7434 H 702.259 0.572287 3.76071 0
M  V30 7435 H 703.571 0.532782 4.95946 0
M  V30 7436 H 702.725 -1.65321 5.83741 0
M  V30 7437 H 701.464 -1.69512 4.57293 0
M  V30 7438 H 700.469 0.42302 5.4817 0
M  V30 7439 H 701.694 0.447995 6.77621 0
M  V30 7440 H 699.64 -1.74965 6.32237 0
M  V30 7441 H 699.557 -0.521099 7.54202 0
M  V30 7442 H 700.825 -1.70858 7.60544 0
M  V30 7443 N 705.054 -1.51416 0.437162 0
M  V30 7444 C 706.001 -2.27743 -0.374374 0
M  V30 7445 C 706.971 -1.31327 -1.01698 0
M  V30 7446 O 708.156 -1.60229 -1.03592 0
M  V30 7447 C 705.296 -3.12241 -1.46969 0
M  V30 7448 C 704.409 -4.23651 -0.845236 0
M  V30 7449 C 703.544 -4.95458 -1.91559 0
M  V30 7450 C 702.583 -5.98789 -1.26956 0
M  V30 7451 N 701.72 -6.64005 -2.28126 0
M  V30 7452 H 706.56 -2.96654 0.282892 0
M  V30 7453 H 704.097 -1.46319 0.151352 0
M  V30 7454 H 706.055 -3.59556 -2.11602 0
M  V30 7455 H 704.685 -2.45445 -2.09659 0
M  V30 7456 H 703.737 -3.803 -0.0872059 0
M  V30 7457 H 705.049 -4.97683 -0.333582 0
M  V30 7458 H 704.203 -5.46321 -2.63854 0
M  V30 7459 H 702.942 -4.21055 -2.46097 0
M  V30 7460 H 701.947 -5.47219 -0.53207 0
M  V30 7461 H 703.172 -6.75149 -0.731509 0
M  V30 7462 H 701.118 -5.92415 -2.81745 0
M  V30 7463 H 701.035 -7.33802 -1.81852 0
M  V30 7464 H 702.303 -7.19498 -2.99905 0
M  V30 7465 N 706.532 -0.168513 -1.56696 0
M  V30 7466 C 707.943 0.348694 -1.83415 0
M  V30 7467 C 708.294 1.63257 -1.0882 0
M  V30 7468 O 707.419 2.13707 -0.340333 0
M  V30 7469 C 708.014 0.639423 -3.32711 0
M  V30 7470 C 706.573 1.10108 -3.59935 0
M  V30 7471 C 705.72 0.135464 -2.76969 0
M  V30 7472 H 708.671 -0.392829 -1.53761 0
M  V30 7473 H 708.692 1.49179 -3.50037 0
M  V30 7474 H 708.204 -0.295173 -3.86976 0
M  V30 7475 H 706.305 2.05088 -3.11079 0
M  V30 7476 H 706.418 1.01218 -4.68286 0
M  V30 7477 H 704.782 0.632286 -2.46727 0
M  V30 7478 H 705.565 -0.793104 -3.34013 0
M  V30 7479 N 708.01 1.57248 0.105221 0
M  V30 7480 C 708.96 1.9777 1.1345 0
M  V30 7481 C 709.944 0.854654 1.36325 0
M  V30 7482 O 711.136 1.11844 1.37186 0
M  V30 7483 C 708.265 2.39717 2.45745 0
M  V30 7484 C 707.351 3.58686 2.26286 0
M  V30 7485 N 707.742 4.73942 1.76671 0
M  V30 7486 C 706.04 3.64586 2.56891 0
M  V30 7487 C 706.741 5.55923 1.71245 0
M  V30 7488 N 705.717 4.98803 2.16093 0
M  V30 7489 H 709.519 2.84336 0.743664 0
M  V30 7490 H 707.033 1.59359 0.312787 0
M  V30 7491 H 709.03 2.66971 3.20206 0
M  V30 7492 H 707.69 1.54523 2.85574 0
M  V30 7493 H 708.701 4.9689 1.46016 0
M  V30 7494 H 705.378 2.90031 3.00314 0
M  V30 7495 H 706.768 6.58398 1.34022 0
M  V30 7496 N 709.488 -0.375779 1.53054 0
M  V30 7497 C 710.716 -1.14036 1.72637 0
M  V30 7498 C 711.131 -1.83342 0.450687 0
M  V30 7499 O 710.488 -1.7318 -0.575749 0
M  V30 7500 C 710.539 -2.17841 2.88492 0
M  V30 7501 O 710.26 -1.51358 4.11123 0
M  V30 7502 C 711.761 -3.06924 3.19863 0
M  V30 7503 H 708.981 -0.341386 0.577665 0
M  V30 7504 H 711.525 -0.437809 1.99759 0
M  V30 7505 H 709.68 -2.8371 2.63794 0
M  V30 7506 H 710.094 -2.20439 4.75928 0
M  V30 7507 H 711.568 -3.75763 4.04359 0
M  V30 7508 H 712.045 -3.71169 2.34798 0
M  V30 7509 H 712.651 -2.46684 3.46449 0
M  V30 7510 N 710.966 -1.44241 -0.634997 0
M  V30 7511 C 711.896 -1.53632 -1.7584 0
M  V30 7512 C 712.877 -0.389603 -1.65578 0
M  V30 7513 O 714.062 -0.609219 -1.84397 0
M  V30 7514 C 711.192 -1.47644 -3.14354 0
M  V30 7515 C 710.146 -2.60752 -3.394 0
M  V30 7516 C 709.472 -2.39817 -4.77904 0
M  V30 7517 C 710.772 -4.02921 -3.32343 0
M  V30 7518 H 712.466 -2.47662 -1.68238 0
M  V30 7519 H 710.012 -1.19197 -0.807969 0
M  V30 7520 H 711.965 -1.52815 -3.92716 0
M  V30 7521 H 710.689 -0.501284 -3.2273 0
M  V30 7522 H 709.348 -2.54965 -2.63417 0
M  V30 7523 H 708.996 -1.40502 -4.82978 0
M  V30 7524 H 708.696 -3.15649 -4.9562 0
M  V30 7525 H 710.22 -2.46799 -5.585 0
M  V30 7526 H 711.634 -4.10098 -4.00615 0
M  V30 7527 H 710.031 -4.78925 -3.61595 0
M  V30 7528 H 711.101 -4.26766 -2.30215 0
M  V30 7529 N 712.444 0.87505 -1.31075 0
M  V30 7530 C 713.374 1.99775 -1.20881 0
M  V30 7531 C 714.355 1.69822 -0.0971612 0
M  V30 7532 O 715.54 1.92158 -0.280895 0
M  V30 7533 C 712.67 3.35163 -0.910118 0
M  V30 7534 C 711.624 3.79406 -1.98078 0
M  V30 7535 C 710.95 5.12197 -1.53488 0
M  V30 7536 C 712.25 3.97061 -3.39323 0
M  V30 7537 H 713.944 2.08562 -2.14808 0
M  V30 7538 H 711.49 1.00207 -1.03415 0
M  V30 7539 H 713.443 4.13237 -0.825423 0
M  V30 7540 H 712.167 3.26536 0.064822 0
M  V30 7541 H 710.826 3.03568 -2.05528 0
M  V30 7542 H 710.474 5.00007 -0.547941 0
M  V30 7543 H 710.174 5.4277 -2.2511 0
M  V30 7544 H 711.698 5.92785 -1.46417 0
M  V30 7545 H 713.112 4.65545 -3.34576 0
M  V30 7546 H 711.509 4.39025 -4.09118 0
M  V30 7547 H 712.579 3.00601 -3.80483 0
M  V30 7548 N 713.922 1.13953 1.08869 0
M  V30 7549 C 714.854 0.779906 2.15523 0
M  V30 7550 C 715.867 -0.20102 1.61554 0
M  V30 7551 O 717.056 0.0200049 1.78489 0
M  V30 7552 C 714.156 0.136226 3.38626 0
M  V30 7553 C 713.329 1.15069 4.21993 0
M  V30 7554 C 712.388 0.531645 5.23507 0
M  V30 7555 O 711.414 1.19327 5.56552 0
M  V30 7556 N 712.616 -0.693734 5.7634 0
M  V30 7557 H 715.381 1.69769 2.46979 0
M  V30 7558 H 712.942 1.03331 1.24637 0
M  V30 7559 H 714.934 -0.290295 4.03658 0
M  V30 7560 H 713.504 -0.684603 3.05011 0
M  V30 7561 H 712.724 1.75431 3.53012 0
M  V30 7562 H 714.012 1.83614 4.74514 0
M  V30 7563 H 713.41 -1.24994 5.51718 0
M  V30 7564 H 711.967 -1.06283 6.43076 0
M  V30 7565 N 715.4 -1.26948 0.933913 0
M  V30 7566 C 716.816 -1.46419 0.635103 0
M  V30 7567 C 717.016 -1.84336 -0.813785 0
M  V30 7568 O 716.072 -1.96061 -1.59111 0
M  V30 7569 C 717.385 -2.55206 1.5903 0
M  V30 7570 C 718.933 -2.69062 1.5992 0
M  V30 7571 C 719.408 -3.81013 2.54152 0
M  V30 7572 N 720.899 -3.88395 2.52395 0
M  V30 7573 C 721.634 -4.74454 3.21996 0
M  V30 7574 N 721.13 -5.64954 4.00997 0
M  V30 7575 N 722.923 -4.68237 3.10983 0
M  V30 7576 H 715.074 -1.00622 1.87053 0
M  V30 7577 H 717.337 -0.503189 0.803433 0
M  V30 7578 H 717.043 -2.34153 2.62422 0
M  V30 7579 H 716.917 -3.52719 1.33677 0
M  V30 7580 H 719.304 -2.89492 0.572569 0
M  V30 7581 H 719.385 -1.72016 1.89325 0
M  V30 7582 H 719.029 -3.61336 3.5693 0
M  V30 7583 H 718.959 -4.77499 2.22041 0
M  V30 7584 H 721.45 -3.23687 1.95025 0
M  V30 7585 H 721.763 -6.27496 4.51074 0
M  V30 7586 H 720.108 -5.6473 4.05099 0
M  V30 7587 H 723.299 -3.96535 2.48753 0
M  V30 7588 H 723.472 -5.35087 3.65494 0
M  V30 7589 N 716.879 -0.700114 -1.41195 0
M  V30 7590 C 718.125 -0.233351 -2.01453 0
M  V30 7591 C 718.458 1.16548 -1.55339 0
M  V30 7592 O 717.733 1.78756 -0.766575 0
M  V30 7593 C 718.016 -0.2961 -3.58881 0
M  V30 7594 C 717.869 -1.7322 -4.15108 0
M  V30 7595 C 719.188 0.341525 -4.38773 0
M  V30 7596 H 716.307 -0.0862667 -0.731934 0
M  V30 7597 H 718.949 -0.889693 -1.67882 0
M  V30 7598 H 717.099 0.262736 -3.87611 0
M  V30 7599 H 718.771 -2.34523 -3.97236 0
M  V30 7600 H 717.014 -2.2649 -3.69979 0
M  V30 7601 H 717.685 -1.7276 -5.24269 0
M  V30 7602 H 720.161 -0.134461 -4.15883 0
M  V30 7603 H 719.037 0.267098 -5.4825 0
M  V30 7604 H 719.298 1.42289 -4.18577 0
M  V30 7605 N 718.357 1.51182 -0.445186 0
M  V30 7606 C 719.304 2.27939 0.362291 0
M  V30 7607 C 720.274 1.31864 1.01 0
M  V30 7608 O 721.459 1.60776 1.02741 0
M  V30 7609 C 718.599 3.13016 1.45311 0
M  V30 7610 C 717.712 4.24093 0.822757 0
M  V30 7611 C 716.847 4.96467 1.88928 0
M  V30 7612 C 715.886 5.99454 1.23778 0
M  V30 7613 N 715.023 6.65206 2.24602 0
M  V30 7614 H 719.863 2.965 -0.29862 0
M  V30 7615 H 717.4 1.46237 -0.15911 0
M  V30 7616 H 719.358 3.60673 2.09692 0
M  V30 7617 H 717.988 2.46553 2.08354 0
M  V30 7618 H 717.04 3.80341 0.0670364 0
M  V30 7619 H 718.352 4.97853 0.307184 0
M  V30 7620 H 717.506 5.47712 2.60953 0
M  V30 7621 H 716.245 4.22355 2.4386 0
M  V30 7622 H 715.25 5.47494 0.503042 0
M  V30 7623 H 716.475 6.75527 0.695694 0
M  V30 7624 H 714.421 5.93901 2.78599 0
M  V30 7625 H 714.338 7.34756 1.77958 0
M  V30 7626 H 715.606 7.21078 2.96085 0
M  V30 7627 N 719.835 0.176821 1.56605 0
M  V30 7628 C 720.798 -0.737429 2.17013 0
M  V30 7629 C 721.798 -1.15414 1.11965 0
M  V30 7630 O 722.988 -1.0702 1.37449 0
M  V30 7631 C 720.12 -2.00445 2.75744 0
M  V30 7632 H 721.313 -0.211455 2.99154 0
M  V30 7633 H 718.866 -0.0727582 1.56131 0
M  V30 7634 H 719.601 -2.57338 1.97352 0
M  V30 7635 H 719.386 -1.71456 3.52626 0
M  V30 7636 H 720.876 -2.65679 3.22187 0
M  V30 7637 N 721.313 -1.57302 -0.09688 0
M  V30 7638 C 722.553 -1.87823 -0.806334 0
M  V30 7639 C 722.917 -0.767593 -1.75989 0
M  V30 7640 O 724.118 -0.955173 -2.51257 0
M  V30 7641 C 722.389 -3.23585 -1.51749 0
M  V30 7642 S 723.948 -3.75795 -2.26547 0
M  V30 7643 H 720.766 -0.658281 -0.268676 0
M  V30 7644 H 723.368 -1.95397 -0.0635476 0
M  V30 7645 H 722.072 -4.0234 -0.809348 0
M  V30 7646 H 721.603 -3.19145 -2.30021 0
M  V30 7647 H 723.618 -3.49068 -3.52656 0
M  V30 7648 N 722.791 0.367657 -1.53252 0
M  V30 7649 C 724.019 1.13119 -1.73239 0
M  V30 7650 C 724.434 1.831 -0.460404 0
M  V30 7651 O 723.791 1.73483 0.566557 0
M  V30 7652 C 723.842 2.16308 -2.89643 0
M  V30 7653 O 723.563 1.49175 -4.1192 0
M  V30 7654 C 725.064 3.05224 -3.21486 0
M  V30 7655 H 722.284 0.338318 -0.579467 0
M  V30 7656 H 724.828 0.42721 -1.99988 0
M  V30 7657 H 722.983 2.82307 -2.65295 0
M  V30 7658 H 723.397 2.17912 -4.7709 0
M  V30 7659 H 724.871 3.73613 -4.06346 0
M  V30 7660 H 725.348 3.69919 -2.36763 0
M  V30 7661 H 725.954 2.44843 -3.47753 0
M  V30 7662 N 724.269 1.44576 0.627338 0
M  V30 7663 C 725.497 1.51048 1.41394 0
M  V30 7664 C 725.912 0.136568 1.88305 0
M  V30 7665 O 725.269 -0.858251 1.6106 0
M  V30 7666 C 725.32 2.47837 2.63172 0
M  V30 7667 O 725.041 3.79887 2.18215 0
M  V30 7668 C 726.542 2.63811 3.56257 0
M  V30 7669 H 723.762 0.512171 0.4335 0
M  V30 7670 H 726.306 1.89576 0.766878 0
M  V30 7671 H 724.461 2.12433 3.23961 0
M  V30 7672 H 724.875 4.32177 2.97192 0
M  V30 7673 H 726.349 3.35554 4.38301 0
M  V30 7674 H 726.826 1.69169 4.05313 0
M  V30 7675 H 727.432 3.0013 3.01333 0
M  V30 7676 N 725.747 -0.868086 1.31537 0
M  V30 7677 C 726.657 -2.00801 1.21311 0
M  V30 7678 C 727.673 -1.73518 0.129431 0
M  V30 7679 O 728.849 -1.98378 0.347588 0
M  V30 7680 C 725.914 -3.3419 0.922935 0
M  V30 7681 C 724.975 -3.74783 2.0937 0
M  V30 7682 C 724.208 -5.01807 1.81728 0
M  V30 7683 O 724.431 -5.65404 0.753313 0
M  V30 7684 O 723.365 -5.39213 2.67457 0
M  V30 7685 H 727.191 -2.12361 2.17109 0
M  V30 7686 H 724.776 -0.996684 1.11295 0
M  V30 7687 H 726.658 -4.14174 0.777033 0
M  V30 7688 H 725.333 -3.237 -0.00500301 0
M  V30 7689 H 724.24 -2.95432 2.29501 0
M  V30 7690 H 725.573 -3.89902 3.00396 0
M  V30 7691 N 727.225 -1.14528 -1.08264 0
M  V30 7692 C 728.135 -0.84728 -2.18765 0
M  V30 7693 C 729.151 0.172826 -1.7314 0
M  V30 7694 O 730.327 0.000985336 -2.014 0
M  V30 7695 C 727.392 -0.330633 -3.4512 0
M  V30 7696 C 726.453 -1.41348 -4.05363 0
M  V30 7697 C 725.686 -0.921387 -5.25686 0
M  V30 7698 O 725.909 0.236587 -5.69909 0
M  V30 7699 O 724.843 -1.70101 -5.77364 0
M  V30 7700 H 728.669 -1.7708 -2.46731 0
M  V30 7701 H 726.254 -0.923661 -1.17426 0
M  V30 7702 H 728.136 -0.0485053 -4.21372 0
M  V30 7703 H 726.811 0.565147 -3.18728 0
M  V30 7704 H 725.718 -1.74908 -3.30693 0
M  V30 7705 H 727.051 -2.28383 -4.36007 0
M  V30 7706 N 728.703 1.26451 -0.940633 0
M  V30 7707 C 729.98 1.88947 -0.505811 0
M  V30 7708 C 730.36 1.85011 1.01657 0
M  V30 7709 O 729.708 1.30406 1.87634 0
M  V30 7710 C 729.918 3.32304 -1.06654 0
M  V30 7711 C 731.266 4.09153 -1.13486 0
M  V30 7712 O 732.29 3.41371 -1.01708 0
M  V30 7713 O 731.149 5.30369 -1.31797 0
M  V30 7714 H 728.243 0.810422 -0.164759 0
M  V30 7715 H 730.789 1.34625 -1.03316 0
M  V30 7716 H 729.561 3.29527 -2.11015 0
M  V30 7717 H 729.184 3.94164 -0.521603 0
M  V30 7718 N 730.181 0.707592 1.40822 0
M  V30 7719 C 731.113 0.0105968 2.29198 0
M  V30 7720 C 732.126 -0.732035 1.45414 0
M  V30 7721 O 733.315 -0.580741 1.68789 0
M  V30 7722 C 730.415 -1.00921 3.23525 0
M  V30 7723 C 729.588 -0.333747 4.36125 0
M  V30 7724 C 728.647 -1.25783 5.10945 0
M  V30 7725 O 727.673 -0.745646 5.64295 0
M  V30 7726 N 728.875 -2.58947 5.19545 0
M  V30 7727 H 731.64 0.76938 2.89656 0
M  V30 7728 H 729.201 0.554579 1.52105 0
M  V30 7729 H 731.193 -1.6294 3.70449 0
M  V30 7730 H 729.763 -1.66942 2.6429 0
M  V30 7731 H 728.983 0.466518 3.9143 0
M  V30 7732 H 730.271 0.135444 5.0862 0
M  V30 7733 H 729.669 -3.03065 4.7767 0
M  V30 7734 H 728.226 -3.16131 5.70004 0
M  V30 7735 N 731.66 -1.50943 0.453197 0
M  V30 7736 C 732.57 -2.31884 -0.355963 0
M  V30 7737 C 733.586 -1.41481 -1.01287 0
M  V30 7738 O 734.762 -1.74546 -1.00477 0
M  V30 7739 C 731.827 -3.15668 -1.43369 0
M  V30 7740 C 730.888 -4.2187 -0.795253 0
M  V30 7741 C 730.121 -5.0165 -1.82162 0
M  V30 7742 O 730.344 -4.82266 -3.04592 0
M  V30 7743 O 729.278 -5.85311 -1.40336 0
M  V30 7744 H 733.104 -3.02162 0.305248 0
M  V30 7745 H 730.689 -1.47839 0.215398 0
M  V30 7746 H 732.571 -3.67709 -2.05836 0
M  V30 7747 H 731.246 -2.48137 -2.07869 0
M  V30 7748 H 730.153 -3.73867 -0.132106 0
M  V30 7749 H 731.486 -4.9182 -0.193484 0
M  V30 7750 N 733.138 -0.185124 -1.56509 0
M  V30 7751 C 734.085 0.739729 -2.18624 0
M  V30 7752 C 735.055 1.217 -1.13042 0
M  V30 7753 O 736.24 1.28268 -1.41251 0
M  V30 7754 C 733.38 1.95787 -2.84186 0
M  V30 7755 C 732.493 1.52289 -4.04267 0
M  V30 7756 C 731.628 2.69576 -4.57714 0
M  V30 7757 C 730.667 2.22636 -5.70175 0
M  V30 7758 N 729.804 3.33065 -6.18071 0
M  V30 7759 H 734.644 0.203269 -2.97306 0
M  V30 7760 H 732.181 0.0885946 -1.46833 0
M  V30 7761 H 734.139 2.67253 -3.20361 0
M  V30 7762 H 732.769 2.4678 -2.08085 0
M  V30 7763 H 731.821 0.704458 -3.7382 0
M  V30 7764 H 733.133 1.13843 -4.85635 0
M  V30 7765 H 732.287 3.4918 -4.96143 0
M  V30 7766 H 731.026 3.1129 -3.75433 0
M  V30 7767 H 730.031 1.41483 -5.31284 0
M  V30 7768 H 731.256 1.81964 -6.54267 0
M  V30 7769 H 729.202 3.74328 -5.38715 0
M  V30 7770 H 729.119 2.98756 -6.94464 0
M  V30 7771 H 730.387 4.12912 -6.61153 0
M  V30 7772 N 734.616 1.57351 0.0885366 0
M  V30 7773 C 735.546 2.05561 1.10757 0
M  V30 7774 C 736.527 0.945789 1.41382 0
M  V30 7775 O 737.712 1.21747 1.51299 0
M  V30 7776 C 734.842 2.48554 2.42566 0
M  V30 7777 C 733.796 3.63259 2.26334 0
M  V30 7778 C 733.122 3.9225 3.63378 0
M  V30 7779 C 734.422 4.93913 1.69844 0
M  V30 7780 H 736.116 2.90946 0.706468 0
M  V30 7781 H 733.662 1.39968 0.338385 0
M  V30 7782 H 735.615 2.8089 3.14132 0
M  V30 7783 H 734.339 1.60176 2.84625 0
M  V30 7784 H 732.998 3.31179 1.57213 0
M  V30 7785 H 732.646 3.0103 4.02976 0
M  V30 7786 H 732.346 4.69478 3.53362 0
M  V30 7787 H 733.87 4.27067 4.36401 0
M  V30 7788 H 735.284 5.24588 2.31258 0
M  V30 7789 H 733.681 5.75349 1.70569 0
M  V30 7790 H 734.751 4.80409 0.65843 0
M  V30 7791 N 736.094 -0.359525 1.53444 0
M  V30 7792 C 737.027 -1.46338 1.75101 0
M  V30 7793 C 738.005 -1.51142 0.599559 0
M  V30 7794 O 739.189 -1.69102 0.832862 0
M  V30 7795 C 736.316 -2.84667 1.83527 0
M  V30 7796 C 735.362 -2.9756 3.05549 0
M  V30 7797 S 736.195 -2.65685 4.64943 0
M  V30 7798 C 737.351 -4.06153 4.76225 0
M  V30 7799 H 737.584 -1.27747 2.68455 0
M  V30 7800 H 735.117 -0.554231 1.4411 0
M  V30 7801 H 737.075 -3.64368 1.89067 0
M  V30 7802 H 735.736 -3.00564 0.912147 0
M  V30 7803 H 734.929 -3.98883 3.08072 0
M  V30 7804 H 734.531 -2.25789 2.98153 0
M  V30 7805 H 736.823 -5.00475 4.56652 0
M  V30 7806 H 737.766 -4.08632 5.78295 0
M  V30 7807 H 738.174 -3.93435 4.04808 0
M  V30 7808 N 737.572 -1.44907 -0.619662 0
M  V30 7809 C 738.504 -1.48652 -1.74457 0
M  V30 7810 C 739.517 -0.378596 -1.58337 0
M  V30 7811 O 740.706 -0.644987 -1.6644 0
M  V30 7812 C 737.806 -1.31568 -3.12319 0
M  V30 7813 C 736.979 -2.55816 -3.54792 0
M  V30 7814 C 736.038 -2.33465 -4.71573 0
M  V30 7815 O 735.064 -3.07015 -4.79302 0
M  V30 7816 N 736.266 -1.37254 -5.6404 0
M  V30 7817 H 739.031 -2.45632 -1.71712 0
M  V30 7818 H 736.592 -1.40492 -0.804582 0
M  V30 7819 H 738.584 -1.14445 -3.88181 0
M  V30 7820 H 737.154 -0.429095 -3.09641 0
M  V30 7821 H 736.374 -2.88137 -2.69018 0
M  V30 7822 H 737.662 -3.38431 -3.79924 0
M  V30 7823 H 737.06 -0.765309 -5.60499 0
M  V30 7824 H 735.617 -1.26106 -6.39485 0
M  V30 7825 N 739.05 0.861098 -1.31996 0
M  V30 7826 C 740.299 1.60965 -1.21545 0
M  V30 7827 C 740.612 1.94325 0.222972 0
M  V30 7828 O 741.818 2.67757 0.449272 0
M  V30 7829 C 740.274 2.90223 -2.12834 0
M  V30 7830 C 739.882 2.64313 -3.61722 0
M  V30 7831 C 741.626 3.68229 -2.11205 0
M  V30 7832 C 739.533 3.89532 -4.44993 0
M  V30 7833 H 738.463 0.603988 -0.451348 0
M  V30 7834 H 741.114 0.951358 -1.56912 0
M  V30 7835 H 739.496 3.57475 -1.70375 0
M  V30 7836 H 740.67 2.05413 -4.12483 0
M  V30 7837 H 738.985 1.99647 -3.65418 0
M  V30 7838 H 741.582 4.61138 -2.70658 0
M  V30 7839 H 741.925 4.01466 -1.1014 0
M  V30 7840 H 742.458 3.07873 -2.51911 0
M  V30 7841 H 739.197 3.61441 -5.46846 0
M  V30 7842 H 738.717 4.47851 -3.98985 0
M  V30 7843 H 740.396 4.57334 -4.57663 0
M  V30 7844 N 740.528 1.15101 1.07655 0
M  V30 7845 C 741.756 0.947731 1.83918 0
M  V30 7846 C 742.171 -0.503927 1.81951 0
M  V30 7847 O 741.528 -1.34941 1.2287 0
M  V30 7848 C 741.579 1.4503 3.31132 0
M  V30 7849 O 741.3 2.84508 3.33146 0
M  V30 7850 C 742.801 1.28806 4.24174 0
M  V30 7851 H 740.021 0.336786 0.580358 0
M  V30 7852 H 742.565 1.52799 1.35914 0
M  V30 7853 H 740.72 0.912632 3.76497 0
M  V30 7854 H 741.134 3.0723 4.251 0
M  V30 7855 H 742.608 1.6882 5.25551 0
M  V30 7856 H 743.085 0.231851 4.38588 0
M  V30 7857 H 743.691 1.81465 3.84643 0
M  V30 7858 N 742.006 -1.2595 0.947325 0
M  V30 7859 C 743.231 -1.98083 0.614633 0
M  V30 7860 C 743.656 -1.70013 -0.804815 0
M  V30 7861 O 743.014 -0.95175 -1.54309 0
M  V30 7862 C 743.062 -3.4993 0.870706 0
M  V30 7863 O 742.166 -4.12364 -0.0541451 0
M  V30 7864 H 741.507 -0.621232 0.234451 0
M  V30 7865 H 744.037 -1.60259 1.27193 0
M  V30 7866 H 744.047 -4.00198 0.794051 0
M  V30 7867 H 742.722 -3.69691 1.90529 0
M  V30 7868 H 741.299 -3.72826 0.0740917 0
M  V30 7869 N 743.484 -0.715051 -1.40445 0
M  V30 7870 C 744.414 -0.0768699 -2.33373 0
M  V30 7871 C 745.395 0.746109 -1.52863 0
M  V30 7872 O 746.58 0.695142 -1.81332 0
M  V30 7873 C 743.71 0.846014 -3.36838 0
M  V30 7874 C 742.664 0.128694 -4.27806 0
M  V30 7875 C 741.99 1.16726 -5.21804 0
M  V30 7876 C 743.29 -1.01679 -5.12307 0
M  V30 7877 H 744.984 -0.853061 -2.8699 0
M  V30 7878 H 742.53 -0.41167 -1.3799 0
M  V30 7879 H 744.483 1.30185 -4.00786 0
M  V30 7880 H 743.207 1.6541 -2.81615 0
M  V30 7881 H 741.866 -0.307314 -3.6531 0
M  V30 7882 H 741.514 1.96838 -4.62887 0
M  V30 7883 H 741.214 0.692188 -5.83509 0
M  V30 7884 H 742.738 1.62321 -5.88629 0
M  V30 7885 H 744.152 -0.640337 -5.69713 0
M  V30 7886 H 742.549 -1.4202 -5.83053 0
M  V30 7887 H 743.619 -1.84769 -4.48317 0
M  V30 7888 N 744.962 1.50701 -0.461195 0
M  V30 7889 C 745.912 2.25195 0.35653 0
M  V30 7890 C 746.896 1.2838 0.96992 0
M  V30 7891 O 748.088 1.53338 0.884108 0
M  V30 7892 C 745.217 3.11471 1.44364 0
M  V30 7893 C 744.303 4.15729 0.83847 0
M  V30 7894 N 744.694 5.05788 -0.0353198 0
M  V30 7895 C 742.992 4.32133 1.1035 0
M  V30 7896 C 743.693 5.80472 -0.37774 0
M  V30 7897 N 742.669 5.43049 0.24463 0
M  V30 7898 H 746.471 2.92188 -0.316746 0
M  V30 7899 H 743.985 1.60059 -0.274725 0
M  V30 7900 H 745.982 3.63436 2.04255 0
M  V30 7901 H 744.642 2.46025 2.11901 0
M  V30 7902 H 745.653 5.16326 -0.403465 0
M  V30 7903 H 742.33 3.77908 1.77458 0
M  V30 7904 H 743.72 6.62996 -1.09024 0
M  V30 7905 N 746.441 0.193421 1.56409 0
M  V30 7906 C 747.666 -0.454552 2.02358 0
M  V30 7907 C 748.091 -1.54516 1.07268 0
M  V30 7908 O 747.449 -1.81214 0.0558962 0
M  V30 7909 C 747.497 -0.989469 3.46759 0
M  V30 7910 O 746.601 -2.10244 3.54783 0
M  V30 7911 H 745.942 -0.106417 0.655417 0
M  V30 7912 H 748.472 0.303807 2.02332 0
M  V30 7913 H 748.482 -1.30649 3.86516 0
M  V30 7914 H 747.157 -0.191083 4.15461 0
M  V30 7915 H 745.734 -1.79419 3.26899 0
M  V30 7916 N 747.919 -1.57396 -0.0801906 0
M  V30 7917 C 748.849 -2.06145 -1.09665 0
M  V30 7918 C 749.83 -0.953273 -1.40878 0
M  V30 7919 O 751.015 -1.22548 -1.50651 0
M  V30 7920 C 748.145 -2.49836 -2.41245 0
M  V30 7921 C 747.099 -3.64454 -2.24405 0
M  V30 7922 C 746.425 -3.94172 -3.61293 0
M  V30 7923 C 747.725 -4.94807 -1.67223 0
M  V30 7924 H 749.419 -2.91316 -0.691028 0
M  V30 7925 H 746.965 -1.40145 -0.330957 0
M  V30 7926 H 748.918 -2.82552 -3.12638 0
M  V30 7927 H 747.642 -1.61683 -2.83771 0
M  V30 7928 H 746.301 -3.32008 -1.55454 0
M  V30 7929 H 745.949 -3.03163 -4.01374 0
M  V30 7930 H 745.649 -4.71345 -3.50867 0
M  V30 7931 H 747.173 -4.29376 -4.3413 0
M  V30 7932 H 748.587 -5.25807 -2.28472 0
M  V30 7933 H 746.984 -5.76245 -1.67515 0
M  V30 7934 H 748.054 -4.80751 -0.632944 0
M  V30 7935 N 749.397 0.351382 -1.53633 0
M  V30 7936 C 750.345 1.45142 -1.8176 0
M  V30 7937 C 751.339 1.54819 -0.687571 0
M  V30 7938 O 752.545 1.57536 -0.870772 0
M  V30 7939 H 748.92 0.483789 -0.575719 0
M  V30 7940 H 750.891 1.1863 -2.73806 0
M  V30 7941 C 749.64 2.81779 -2.03706 0
M  V30 7942 H 748.963 2.75097 -2.90107 0
M  V30 7943 H 750.403 3.5789 -2.27356 0
M  V30 7944 C 748.862 3.26762 -0.820271 0
M  V30 7945 O 749.392 4.01697 -0.0158603 0
M  V30 7946 N 747.598 2.83472 -0.639699 0
M  V30 7947 H 747.145 2.22655 -1.29547 0
M  V30 7948 H 747.103 3.13924 0.172995 0
M  V30 7949 N 750.875 1.45233 0.611969 0
M  V30 7950 C 751.838 1.53189 1.70487 0
M  V30 7951 C 752.838 0.411839 1.55437 0
M  V30 7952 O 754.028 0.675164 1.60584 0
M  V30 7953 C 751.16 1.42422 3.09723 0
M  V30 7954 H 752.353 2.5056 1.64802 0
M  V30 7955 H 749.906 1.32609 0.827318 0
M  V30 7956 H 750.641 0.462185 3.2099 0
M  V30 7957 H 750.426 2.23658 3.22055 0
M  V30 7958 H 751.916 1.51012 3.89339 0
M  V30 7959 N 752.353 -0.854086 1.3245 0
M  V30 7960 C 753.6 -1.60831 1.23043 0
M  V30 7961 C 753.928 -1.93389 -0.2076 0
M  V30 7962 O 753.183 -1.5756 -1.16075 0
M  V30 7963 C 753.482 -2.93746 2.03587 0
M  V30 7964 C 753.148 -2.80615 3.52939 0
M  V30 7965 C 751.81 -2.76742 3.93659 0
M  V30 7966 C 754.162 -2.66507 4.4791 0
M  V30 7967 C 751.49 -2.56638 5.27592 0
M  V30 7968 C 753.842 -2.47939 5.81987 0
M  V30 7969 C 752.506 -2.42458 6.21909 0
M  V30 7970 H 751.776 -0.588523 0.450247 0
M  V30 7971 H 754.423 -0.990699 1.63882 0
M  V30 7972 H 752.728 -3.5963 1.55478 0
M  V30 7973 H 754.425 -3.51127 1.93677 0
M  V30 7974 H 751.015 -2.84456 3.20598 0
M  V30 7975 H 755.199 -2.68544 4.1737 0
M  V30 7976 H 750.455 -2.50831 5.57579 0
M  V30 7977 H 754.629 -2.36002 6.55192 0
M  V30 7978 H 752.256 -2.2664 7.2563 0
M  V30 7979 N 753.831 -1.1567 -1.07043 0
M  V30 7980 C 754.761 -0.879348 -2.16309 0
M  V30 7981 C 755.742 0.171311 -1.69235 0
M  V30 7982 O 756.927 0.0250175 -1.94184 0
M  V30 7983 C 754.057 -0.371307 -3.45309 0
M  V30 7984 C 753.011 -1.359 -4.05851 0
M  V30 7985 C 752.337 -0.709678 -5.29969 0
M  V30 7986 C 753.637 -2.72606 -4.45514 0
M  V30 7987 H 755.331 -1.79308 -2.39768 0
M  V30 7988 H 752.877 -0.863558 -1.15233 0
M  V30 7989 H 754.83 -0.164798 -4.21078 0
M  V30 7990 H 753.554 0.577906 -3.21446 0
M  V30 7991 H 752.213 -1.55193 -3.32131 0
M  V30 7992 H 751.861 0.245782 -5.02399 0
M  V30 7993 H 751.561 -1.36886 -5.71433 0
M  V30 7994 H 753.085 -0.513015 -6.08441 0
M  V30 7995 H 754.499 -2.57141 -5.12398 0
M  V30 7996 H 752.896 -3.34927 -4.97939 0
M  V30 7997 H 753.966 -3.28434 -3.56734 0
M  V30 7998 N 755.309 1.25446 -0.953992 0
M  V30 7999 C 756.239 2.28264 -0.491717 0
M  V30 8000 C 757.22 1.63717 0.461617 0
M  V30 8001 O 758.405 1.90821 0.36071 0
M  V30 8002 C 755.535 3.46525 0.231915 0
M  V30 8003 C 754.489 4.23247 -0.636098 0
M  V30 8004 C 753.815 5.34254 0.218238 0
M  V30 8005 C 755.115 4.85971 -1.91389 0
M  V30 8006 H 756.809 2.67183 -1.35106 0
M  V30 8007 H 754.355 1.2844 -0.651095 0
M  V30 8008 H 756.308 4.17576 0.566439 0
M  V30 8009 H 755.032 3.06594 1.12551 0
M  V30 8010 H 753.691 3.53978 -0.953696 0
M  V30 8011 H 753.339 4.90564 1.11156 0
M  V30 8012 H 753.039 5.86501 -0.359232 0
M  V30 8013 H 754.563 6.08138 0.547743 0
M  V30 8014 H 755.977 5.49168 -1.64581 0
M  V30 8015 H 754.374 5.48391 -2.43696 0
M  V30 8016 H 755.444 4.08192 -2.61738 0
M  V30 8017 N 756.787 0.722489 1.40064 0
M  V30 8018 C 758.198 0.336507 1.83642 0
M  V30 8019 C 758.549 -1.13002 1.6039 0
M  V30 8020 O 757.674 -1.87036 1.08842 0
M  V30 8021 C 758.269 0.603985 3.33373 0
M  V30 8022 C 756.828 0.271637 3.75419 0
M  V30 8023 C 755.975 0.872898 2.63203 0
M  V30 8024 H 758.926 0.921108 1.29233 0
M  V30 8025 H 758.947 -0.128471 3.80283 0
M  V30 8026 H 758.459 1.67141 3.50265 0
M  V30 8027 H 756.56 -0.790455 3.64119 0
M  V30 8028 H 756.673 0.745457 4.73265 0
M  V30 8029 H 755.037 0.300431 2.52922 0
M  V30 8030 H 755.82 1.94473 2.82905 0
M  V30 8031 N 758.265 -1.50454 0.469181 0
M  V30 8032 C 759.514 -2.01507 -0.0881425 0
M  V30 8033 C 759.827 -1.35613 -1.40956 0
M  V30 8034 O 761.033 -1.77812 -2.05171 0
M  V30 8035 C 759.489 -3.59301 -0.207596 0
M  V30 8036 C 759.097 -4.34152 1.10527 0
M  V30 8037 C 760.841 -4.18401 -0.716981 0
M  V30 8038 C 758.748 -5.83725 0.949717 0
M  V30 8039 H 757.678 -0.753106 -0.0367156 0
M  V30 8040 H 760.329 -1.73282 0.603788 0
M  V30 8041 H 758.711 -3.84106 -0.963265 0
M  V30 8042 H 759.885 -4.21073 1.87175 0
M  V30 8043 H 758.2 -3.86652 1.54562 0
M  V30 8044 H 760.797 -5.27895 -0.850363 0
M  V30 8045 H 761.14 -3.79657 -1.70782 0
M  V30 8046 H 761.673 -3.97796 -0.0187511 0
M  V30 8047 H 758.412 -6.26938 1.91387 0
M  V30 8048 H 757.932 -5.99383 0.223591 0
M  V30 8049 H 759.611 -6.44065 0.61557 0
M  V30 8050 N 759.743 -0.201713 -1.56304 0
M  V30 8051 C 760.69 0.716499 -2.19397 0
M  V30 8052 C 761.66 1.20494 -1.14326 0
M  V30 8053 O 762.845 1.26763 -1.42604 0
M  V30 8054 C 759.985 1.92762 -2.86246 0
M  V30 8055 C 759.098 1.47993 -4.0586 0
M  V30 8056 C 758.233 2.64706 -4.60547 0
M  V30 8057 C 757.272 2.16576 -5.72504 0
M  V30 8058 N 756.409 3.26491 -6.21569 0
M  V30 8059 H 761.249 0.171724 -2.97505 0
M  V30 8060 H 758.786 0.073016 -1.46919 0
M  V30 8061 H 760.744 2.6384 -3.23178 0
M  V30 8062 H 759.374 2.44559 -2.10691 0
M  V30 8063 H 758.426 0.66477 -3.74546 0
M  V30 8064 H 759.738 1.08686 -4.86815 0
M  V30 8065 H 758.892 3.43898 -4.99819 0
M  V30 8066 H 757.631 3.0729 -3.78713 0
M  V30 8067 H 756.636 1.3584 -5.32755 0
M  V30 8068 H 757.861 1.75015 -6.56161 0
M  V30 8069 H 755.807 3.68594 -5.42655 0
M  V30 8070 H 755.724 2.91374 -6.97594 0
M  V30 8071 H 756.992 4.05877 -6.65495 0
M  V30 8072 N 761.222 1.57436 0.0718424 0
M  V30 8073 C 762.45 1.91474 0.783932 0
M  V30 8074 C 762.865 0.797669 1.71122 0
M  V30 8075 O 762.222 -0.228989 1.81058 0
M  V30 8076 C 762.273 3.25259 1.57761 0
M  V30 8077 O 761.994 4.3267 0.687596 0
M  V30 8078 C 763.495 3.7331 2.3907 0
M  V30 8079 H 760.715 0.632901 0.222885 0
M  V30 8080 H 763.259 2.04457 0.0421262 0
M  V30 8081 H 761.414 3.13804 2.27169 0
M  V30 8082 H 761.828 5.09641 1.23962 0
M  V30 8083 H 763.302 4.69551 2.90216 0
M  V30 8084 H 763.779 3.02318 3.18591 0
M  V30 8085 H 764.385 3.8771 1.74818 0
M  V30 8086 N 762.7 -0.34323 1.53817 0
M  V30 8087 C 763.946 -1.08504 1.71332 0
M  V30 8088 C 764.279 -1.88294 0.475285 0
M  V30 8089 O 763.554 -1.87205 -0.527688 0
M  V30 8090 C 763.837 -2.02597 2.97702 0
M  V30 8091 C 763.69 -1.26268 4.31713 0
M  V30 8092 C 765.009 -3.0241 3.19744 0
M  V30 8093 H 762.128 -0.393072 0.623429 0
M  V30 8094 H 764.77 -0.363579 1.86489 0
M  V30 8095 H 762.92 -2.64118 2.8491 0
M  V30 8096 H 764.592 -0.673594 4.56356 0
M  V30 8097 H 762.835 -0.564696 4.30109 0
M  V30 8098 H 763.506 -1.95253 5.16314 0
M  V30 8099 H 765.982 -2.51004 3.31868 0
M  V30 8100 H 764.858 -3.65449 4.09558 0
M  V30 8101 H 765.119 -3.73806 2.36054 0
M  V30 8102 N 764.178 -1.45556 -0.604258 0
M  V30 8103 C 765.426 -1.4945 -1.36048 0
M  V30 8104 C 765.747 -0.138933 -1.94504 0
M  V30 8105 O 765.017 0.832097 -1.7735 0
M  V30 8106 H 763.597 -0.550381 -0.505064 0
M  V30 8107 H 766.259 -1.81535 -0.709308 0
M  V30 8108 H 765.355 -2.23519 -2.17821 0
M  V30 8109 N 765.656 0.84705 -1.32902 0
M  V30 8110 C 766.902 1.60414 -1.24078 0
M  V30 8111 C 767.235 1.93217 0.195105 0
M  V30 8112 O 766.51 1.58001 1.13428 0
M  V30 8113 C 766.793 2.91951 -2.108 0
M  V30 8114 C 766.646 2.6588 -3.62805 0
M  V30 8115 C 767.965 3.93299 -1.97494 0
M  V30 8116 H 765.084 0.58206 -0.452079 0
M  V30 8117 H 767.726 0.977562 -1.62922 0
M  V30 8118 H 765.876 3.45425 -1.77802 0
M  V30 8119 H 767.548 2.18902 -4.06054 0
M  V30 8120 H 765.791 1.99716 -3.85092 0
M  V30 8121 H 766.462 3.59574 -4.1882 0
M  V30 8122 H 768.938 3.49105 -2.26417 0
M  V30 8123 H 767.814 4.8318 -2.60438 0
M  V30 8124 H 768.075 4.31887 -0.944782 0
M  V30 8125 N 767.134 1.16236 1.06428 0
M  V30 8126 C 768.066 0.825446 2.1382 0
M  V30 8127 C 769.079 -0.166707 1.61944 0
M  V30 8128 O 770.268 0.0578606 1.78406 0
M  V30 8129 C 767.368 0.208023 3.38261 0
M  V30 8130 C 766.541 1.23994 4.19457 0
M  V30 8131 C 765.6 0.642569 5.22262 0
M  V30 8132 O 764.626 1.31106 5.53895 0
M  V30 8133 N 765.828 -0.571327 5.77682 0
M  V30 8134 H 768.593 1.7497 2.43322 0
M  V30 8135 H 766.154 1.05951 1.22417 0
M  V30 8136 H 768.146 -0.204608 4.04182 0
M  V30 8137 H 766.716 -0.619752 3.06395 0
M  V30 8138 H 765.936 1.82879 3.49212 0
M  V30 8139 H 767.224 1.93638 4.70512 0
M  V30 8140 H 766.622 -1.13263 5.54245 0
M  V30 8141 H 765.179 -0.926187 6.45186 0
M  V30 8142 N 768.612 -1.24939 0.960631 0
M  V30 8143 C 769.86 -1.92437 0.617441 0
M  V30 8144 C 770.181 -1.75543 -0.849101 0
M  V30 8145 O 769.451 -1.12269 -1.60538 0
M  V30 8146 H 768.031 -0.712192 0.225371 0
M  V30 8147 H 770.693 -1.5198 1.22017 0
M  V30 8148 H 769.789 -3.00247 0.851933 0
M  V30 8149 N 770.09 -0.729906 -1.39679 0
M  V30 8150 C 771.367 -0.202149 -1.94553 0
M  V30 8151 C 771.747 1.29507 -1.66707 0
M  V30 8152 O 771.095 2.05819 -0.992517 0
M  V30 8153 C 771.305 -0.530279 -3.44948 0
M  V30 8154 C 772.653 -0.476808 -4.21914 0
M  V30 8155 O 773.677 -0.467171 -3.53123 0
M  V30 8156 O 772.536 -0.466869 -5.44502 0
M  V30 8157 H 769.63 -0.0351644 -0.826252 0
M  V30 8158 H 772.176 -0.808417 -1.49207 0
M  V30 8159 H 770.948 -1.56526 -3.5863 0
M  V30 8160 H 770.571 0.10522 -3.97461 0
M  V30 8161 N 771.568 1.50203 -0.477153 0
M  V30 8162 C 772.808 2.04265 0.0744065 0
M  V30 8163 C 773.172 1.35082 1.36443 0
M  V30 8164 O 774.373 1.79732 1.99875 0
M  V30 8165 C 772.644 3.56539 0.247874 0
M  V30 8166 S 774.203 4.32219 0.757117 0
M  V30 8167 H 771.021 0.71088 0.0130891 0
M  V30 8168 H 773.623 1.8453 -0.645678 0
M  V30 8169 H 772.327 4.04443 -0.696709 0
M  V30 8170 H 771.858 3.80638 0.993896 0
M  V30 8171 H 773.873 4.52789 2.0297 0
M  V30 8172 N 773.046 0.209999 1.56195 0
M  V30 8173 C 774.462 -0.145598 1.58934 0
M  V30 8174 C 774.662 -1.59868 1.22656 0
M  V30 8175 O 773.718 -2.33689 0.956336 0
M  V30 8176 C 775.031 0.170243 3.00218 0
M  V30 8177 C 776.579 0.111548 3.12801 0
M  V30 8178 C 777.054 0.400904 4.56242 0
M  V30 8179 N 778.545 0.350058 4.61875 0
M  V30 8180 C 779.28 0.547598 5.70779 0
M  V30 8181 N 778.776 0.806291 6.88092 0
M  V30 8182 N 780.569 0.480827 5.6004 0
M  V30 8183 H 772.72 1.15804 1.78054 0
M  V30 8184 H 774.983 0.463326 0.827063 0
M  V30 8185 H 774.689 1.17833 3.31373 0
M  V30 8186 H 774.563 -0.520208 3.73596 0
M  V30 8187 H 776.95 -0.887162 2.81449 0
M  V30 8188 H 777.031 0.835302 2.41777 0
M  V30 8189 H 776.675 1.397 4.8831 0
M  V30 8190 H 776.605 -0.34391 5.25476 0
M  V30 8191 H 779.096 0.157334 3.77572 0
M  V30 8192 H 779.409 0.945433 7.66995 0
M  V30 8193 H 777.754 0.843355 6.89864 0
M  V30 8194 H 780.945 0.279037 4.67268 0
M  V30 8195 H 781.118 0.638189 6.4485 0
M  V30 8196 N 774.524 -1.57472 -0.0634922 0
M  V30 8197 C 775.749 -1.92273 -0.77756 0
M  V30 8198 C 776.174 -0.807141 -1.69902 0
M  V30 8199 O 775.532 0.239523 -1.79711 0
M  V30 8200 C 775.58 -3.26054 -1.54017 0
M  V30 8201 O 774.684 -3.15873 -2.65138 0
M  V30 8202 H 774.025 -0.629389 -0.211579 0
M  V30 8203 H 776.555 -2.04579 -0.0292523 0
M  V30 8204 H 776.565 -3.60127 -1.91763 0
M  V30 8205 H 775.24 -4.06824 -0.864128 0
M  V30 8206 H 773.817 -2.93373 -2.30189 0
M  V30 8207 N 776.003 0.335068 -1.53997 0
M  V30 8208 C 777.233 1.0926 -1.75345 0
M  V30 8209 C 777.641 1.82568 -0.496545 0
M  V30 8210 O 776.984 1.75525 0.541897 0
M  V30 8211 C 777.046 2.14473 -2.88516 0
M  V30 8212 C 776.71 1.60665 -4.27827 0
M  V30 8213 C 777.707 1.05448 -5.09094 0
M  V30 8214 C 775.392 1.65255 -4.74337 0
M  V30 8215 C 777.386 0.555372 -6.34976 0
M  V30 8216 C 775.073 1.14956 -6.0019 0
M  V30 8217 C 776.071 0.601907 -6.80343 0
M  V30 8218 O 775.759 0.106445 -8.0383 0
M  V30 8219 H 775.491 0.331329 -0.589234 0
M  V30 8220 H 778.045 0.39042 -2.01655 0
M  V30 8221 H 776.275 2.88274 -2.5775 0
M  V30 8222 H 777.964 2.75857 -2.97755 0
M  V30 8223 H 778.73 1.01218 -4.74321 0
M  V30 8224 H 774.609 2.06822 -4.12002 0
M  V30 8225 H 778.153 0.127245 -6.97484 0
M  V30 8226 H 774.05 1.18891 -6.34457 0
M  V30 8227 H 774.818 0.222944 -8.18196 0
M  V30 8228 N 777.481 1.45874 0.596531 0
M  V30 8229 C 778.706 1.54247 1.38646 0
M  V30 8230 C 779.131 0.179571 1.87241 0
M  V30 8231 O 778.489 -0.837831 1.6078 0
M  V30 8232 C 778.537 2.54015 2.55946 0
M  V30 8233 O 777.641 2.06561 3.5694 0
M  V30 8234 H 776.982 0.519555 0.413471 0
M  V30 8235 H 779.512 1.91327 0.724936 0
M  V30 8236 H 779.522 2.73179 3.03047 0
M  V30 8237 H 778.197 3.52994 2.19928 0
M  V30 8238 H 776.774 1.97324 3.16414 0
M  V30 8239 N 778.959 -0.83999 1.33349 0
M  V30 8240 C 780.189 -1.62492 1.27593 0
M  V30 8241 C 780.597 -1.88559 -0.155597 0
M  V30 8242 O 779.94 -1.46537 -1.10782 0
M  V30 8243 C 780.002 -2.99984 1.98116 0
M  V30 8244 C 779.666 -2.96892 3.47425 0
M  V30 8245 C 780.663 -2.72688 4.42648 0
M  V30 8246 C 778.348 -3.17063 3.89585 0
M  V30 8247 C 780.342 -2.68681 5.78004 0
M  V30 8248 C 778.029 -3.12682 5.25046 0
M  V30 8249 C 779.027 -2.88522 6.19067 0
M  V30 8250 O 778.715 -2.84042 7.52047 0
M  V30 8251 H 778.447 -0.512358 0.440982 0
M  V30 8252 H 781.001 -1.0545 1.76265 0
M  V30 8253 H 779.231 -3.58875 1.44034 0
M  V30 8254 H 780.92 -3.6084 1.85875 0
M  V30 8255 H 781.686 -2.56856 4.114 0
M  V30 8256 H 777.565 -3.34889 3.16813 0
M  V30 8257 H 781.109 -2.49743 6.51363 0
M  V30 8258 H 777.006 -3.28063 5.55918 0
M  V30 8259 H 777.774 -2.99892 7.61582 0
M  V30 8260 N 780.437 -1.16799 -1.0581 0
M  V30 8261 C 781.683 -0.953935 -1.78963 0
M  V30 8262 C 782.016 0.516638 -1.87202 0
M  V30 8263 O 781.291 1.38338 -1.36721 0
M  V30 8264 C 781.574 -1.58808 -3.23191 0
M  V30 8265 C 781.427 -3.13032 -3.23003 0
M  V30 8266 C 782.746 -1.2868 -4.20867 0
M  V30 8267 H 779.865 -0.347972 -0.64968 0
M  V30 8268 H 782.507 -1.44204 -1.23715 0
M  V30 8269 H 780.657 -1.17303 -3.70368 0
M  V30 8270 H 782.329 -3.63553 -2.83949 0
M  V30 8271 H 780.572 -3.46108 -2.61518 0
M  V30 8272 H 781.243 -3.52527 -4.24769 0
M  V30 8273 H 783.719 -1.6461 -3.82155 0
M  V30 8274 H 782.595 -1.75645 -5.20038 0
M  V30 8275 H 782.856 -0.206491 -4.41618 0
M  V30 8276 N 781.915 1.24427 -0.967243 0
M  V30 8277 C 783.155 1.9423 -0.636723 0
M  V30 8278 C 783.519 1.73939 0.812971 0
M  V30 8279 O 784.72 2.37773 1.25369 0
M  V30 8280 C 782.991 3.43105 -1.00067 0
M  V30 8281 S 784.55 4.31728 -0.784633 0
M  V30 8282 H 781.368 0.671527 -0.233607 0
M  V30 8283 H 783.97 1.50806 -1.2441 0
M  V30 8284 H 782.674 3.5538 -2.05264 0
M  V30 8285 H 782.205 3.91521 -0.384054 0
M  V30 8286 H 784.22 4.95046 0.338244 0
M  V30 8287 N 783.393 0.737304 1.3929 0
M  V30 8288 C 784.641 0.285691 2.00071 0
M  V30 8289 C 784.962 -1.13169 1.58801 0
M  V30 8290 O 784.232 -1.77104 0.837308 0
M  V30 8291 H 782.812 0.102638 0.739915 0
M  V30 8292 H 785.474 0.947775 1.70303 0
M  V30 8293 H 784.57 0.335906 3.10287 0
M  V30 8294 N 784.871 -1.49948 0.485112 0
M  V30 8295 C 786.12 -2.01589 -0.066765 0
M  V30 8296 C 786.433 -1.371 -1.39509 0
M  V30 8297 O 787.639 -1.79978 -2.03274 0
M  V30 8298 C 786.095 -3.59501 -0.169476 0
M  V30 8299 C 785.703 -4.32955 1.15126 0
M  V30 8300 C 787.447 -4.19138 -0.672564 0
M  V30 8301 C 785.354 -5.82684 1.01158 0
M  V30 8302 H 784.284 -0.753453 -0.0287259 0
M  V30 8303 H 786.935 -1.72632 0.622132 0
M  V30 8304 H 785.317 -3.85106 -0.922471 0
M  V30 8305 H 786.491 -4.19064 1.9163 0
M  V30 8306 H 784.806 -3.84991 1.58654 0
M  V30 8307 H 787.403 -5.28767 -0.794325 0
M  V30 8308 H 787.746 -3.81447 -1.66745 0
M  V30 8309 H 788.279 -3.97793 0.0234415 0
M  V30 8310 H 785.018 -6.24873 1.98025 0
M  V30 8311 H 784.538 -5.99112 0.287151 0
M  V30 8312 H 786.217 -6.43376 0.683847 0
M  V30 8313 N 786.349 -0.21828 -1.56081 0
M  V30 8314 C 787.574 0.422302 -2.03055 0
M  V30 8315 C 787.999 1.5279 -1.09713 0
M  V30 8316 O 787.357 1.81102 -0.0847187 0
M  V30 8317 C 787.405 0.934177 -3.48289 0
M  V30 8318 O 786.509 2.04574 -3.58083 0
M  V30 8319 H 785.85 0.0959764 -0.657027 0
M  V30 8320 H 788.38 -0.335958 -2.01823 0
M  V30 8321 H 788.39 1.24484 -3.88546 0
M  V30 8322 H 787.065 0.124963 -4.15712 0
M  V30 8323 H 785.642 1.74196 -3.29712 0
M  V30 8324 N 787.827 1.57504 0.0551401 0
M  V30 8325 C 789.052 1.92682 0.767352 0
M  V30 8326 C 789.477 0.81614 1.69472 0
M  V30 8327 O 788.835 -0.229989 1.79835 0
M  V30 8328 C 788.883 3.26866 1.52286 0
M  V30 8329 O 787.987 3.17274 2.63459 0
M  V30 8330 H 787.328 0.630502 0.208238 0
M  V30 8331 H 789.858 2.04592 0.0184026 0
M  V30 8332 H 789.868 3.61138 1.8985 0
M  V30 8333 H 788.543 4.07276 0.842541 0
M  V30 8334 H 787.12 2.94589 2.2863 0
M  V30 8335 N 789.305 -0.326896 1.54172 0
M  V30 8336 C 790.252 -1.40216 1.83325 0
M  V30 8337 C 791.222 -1.51538 0.680107 0
M  V30 8338 O 792.407 -1.66811 0.926206 0
M  V30 8339 C 789.547 -2.76626 2.0633 0
M  V30 8340 C 788.66 -2.73963 3.34019 0
M  V30 8341 C 787.795 -4.02198 3.47002 0
M  V30 8342 C 786.834 -3.93828 4.68578 0
M  V30 8343 N 785.971 -5.13787 4.78506 0
M  V30 8344 H 790.811 -1.14656 2.7506 0
M  V30 8345 H 788.348 -0.555089 1.36225 0
M  V30 8346 H 790.306 -3.55922 2.17659 0
M  V30 8347 H 788.936 -3.00503 1.1789 0
M  V30 8348 H 787.988 -1.86677 3.31445 0
M  V30 8349 H 789.3 -2.6366 4.2342 0
M  V30 8350 H 788.454 -4.89923 3.57855 0
M  V30 8351 H 787.193 -4.15302 2.55687 0
M  V30 8352 H 786.198 -3.04487 4.57786 0
M  V30 8353 H 787.423 -3.82292 5.61275 0
M  V30 8354 H 785.369 -5.27403 3.90105 0
M  V30 8355 H 785.286 -5.05807 5.61868 0
M  V30 8356 H 786.554 -6.03236 4.93686 0
M  V30 8357 N 790.784 -1.46188 -0.588786 0
M  V30 8358 C 792.061 -1.41659 -1.34878 0
M  V30 8359 C 792.441 -0.0968913 -2.10878 0
M  V30 8360 O 791.789 0.921468 -2.09096 0
M  V30 8361 C 791.999 -2.6424 -2.27988 0
M  V30 8362 C 793.347 -3.1013 -2.90008 0
M  V30 8363 O 794.371 -2.64745 -2.38303 0
M  V30 8364 O 793.23 -3.88944 -3.83908 0
M  V30 8365 H 790.324 -0.563058 -0.605718 0
M  V30 8366 H 792.87 -1.58346 -0.610309 0
M  V30 8367 H 791.642 -3.51853 -1.71217 0
M  V30 8368 H 791.265 -2.49982 -3.09184 0
M  V30 8369 N 792.262 0.832906 -1.33792 0
M  V30 8370 C 793.172 1.97514 -1.26592 0
M  V30 8371 C 794.188 1.73114 -0.175391 0
M  V30 8372 O 795.364 1.97387 -0.400062 0
M  V30 8373 C 792.429 3.31625 -1.01121 0
M  V30 8374 C 791.49 3.69101 -2.19233 0
M  V30 8375 C 790.723 4.96813 -1.94968 0
M  V30 8376 O 790.946 5.63208 -0.902955 0
M  V30 8377 O 789.88 5.31932 -2.8166 0
M  V30 8378 H 793.706 2.0653 -2.22664 0
M  V30 8379 H 791.291 0.966826 -1.13898 0
M  V30 8380 H 793.173 4.11968 -0.886571 0
M  V30 8381 H 791.848 3.23599 -0.080822 0
M  V30 8382 H 790.755 2.89243 -2.37253 0
M  V30 8383 H 792.088 3.818 -3.10628 0
M  V30 8384 N 793.74 1.17359 1.05189 0
M  V30 8385 C 795.151 0.96793 1.5965 0
M  V30 8386 C 795.502 -0.485355 1.90102 0
M  V30 8387 O 794.627 -1.36066 1.6827 0
M  V30 8388 C 795.222 1.75068 2.90063 0
M  V30 8389 C 793.781 1.58969 3.41183 0
M  V30 8390 C 792.928 1.75231 2.14917 0
M  V30 8391 H 795.879 1.32067 0.880001 0
M  V30 8392 H 795.9 1.23308 3.59966 0
M  V30 8393 H 795.412 2.80835 2.67868 0
M  V30 8394 H 793.513 0.556906 3.68415 0
M  V30 8395 H 793.626 2.38067 4.15766 0
M  V30 8396 H 791.99 1.18073 2.25679 0
M  V30 8397 H 792.773 2.8241 1.95191 0
M  V30 8398 N 795.218 -1.23913 0.973828 0
M  V30 8399 C 796.495 -1.87539 0.555729 0
M  V30 8400 C 796.875 -1.87641 -0.967162 0
M  V30 8401 O 796.223 -1.35335 -1.84111 0
M  V30 8402 C 796.433 -3.29359 1.15427 0
M  V30 8403 C 797.781 -4.06 1.24294 0
M  V30 8404 O 798.805 -3.38554 1.10723 0
M  V30 8405 O 797.664 -5.26689 1.45813 0
M  V30 8406 H 794.758 -0.805769 0.186188 0
M  V30 8407 H 797.304 -1.31838 1.06849 0
M  V30 8408 H 796.076 -3.23817 2.19678 0
M  V30 8409 H 795.699 -3.92642 0.625925 0
M  V30 8410 N 796.696 -0.74468 -1.38897 0
M  V30 8411 C 797.942 -0.306249 -2.01081 0
M  V30 8412 C 798.297 1.09724 -1.58046 0
M  V30 8413 O 797.59 1.73923 -0.803834 0
M  V30 8414 C 797.784 -0.357302 -3.55609 0
M  V30 8415 C 797.613 -1.76421 -4.13649 0
M  V30 8416 C 796.383 -2.3787 -4.4581 0
M  V30 8417 C 798.581 -2.71942 -4.36523 0
M  V30 8418 N 796.563 -3.70614 -4.89406 0
M  V30 8419 C 797.934 -3.89437 -4.8243 0
M  V30 8420 C 799.989 -2.69579 -4.18607 0
M  V30 8421 C 798.692 -5.04917 -5.123 0
M  V30 8422 C 800.718 -3.8421 -4.49596 0
M  V30 8423 C 800.08 -5.00442 -4.95719 0
M  V30 8424 H 796.179 -0.158531 -0.765762 0
M  V30 8425 H 798.763 -0.972726 -1.6866 0
M  V30 8426 H 796.934 0.278865 -3.87398 0
M  V30 8427 H 798.666 0.100599 -4.04575 0
M  V30 8428 H 795.421 -1.8971 -4.33943 0
M  V30 8429 H 795.845 -4.38791 -5.1555 0
M  V30 8430 H 800.487 -1.80905 -3.82143 0
M  V30 8431 H 798.205 -5.94213 -5.47665 0
M  V30 8432 H 801.791 -3.83691 -4.37347 0
M  V30 8433 H 800.671 -5.87671 -5.19242 0
M  V30 8434 N 798.174 1.49689 -0.493057 0
M  V30 8435 C 799.084 2.32746 0.294358 0
M  V30 8436 C 800.1 1.44117 0.975003 0
M  V30 8437 O 801.276 1.77149 0.958138 0
M  V30 8438 C 798.341 3.19358 1.34949 0
M  V30 8439 C 797.402 4.2383 0.683122 0
M  V30 8440 C 796.635 5.06303 1.68798 0
M  V30 8441 O 796.858 4.90172 2.91698 0
M  V30 8442 O 795.792 5.88826 1.24768 0
M  V30 8443 H 799.618 3.01247 -0.385254 0
M  V30 8444 H 797.203 1.47216 -0.254519 0
M  V30 8445 H 799.085 3.73037 1.96014 0
M  V30 8446 H 797.76 2.53561 2.01217 0
M  V30 8447 H 796.667 3.74086 0.0329351 0
M  V30 8448 H 798 4.9216 0.0630192 0
M  V30 8449 N 799.652 0.226554 1.55963 0
M  V30 8450 C 800.877 -0.411527 2.03276 0
M  V30 8451 C 801.302 -1.52206 1.10521 0
M  V30 8452 O 800.66 -1.81054 0.0943217 0
M  V30 8453 C 800.708 -0.915694 3.4878 0
M  V30 8454 O 799.812 -2.02672 3.59163 0
M  V30 8455 H 799.153 -0.0924907 0.657527 0
M  V30 8456 H 801.683 0.346656 2.01642 0
M  V30 8457 H 801.693 -1.22421 3.892 0
M  V30 8458 H 800.368 -0.102915 4.15773 0
M  V30 8459 H 798.945 -1.72445 3.30632 0
M  V30 8460 N 801.13 -1.57531 -0.0467866 0
M  V30 8461 C 802.06 -2.08425 -1.05268 0
M  V30 8462 C 803.041 -0.982941 -1.38825 0
M  V30 8463 O 804.226 -1.25716 -1.48018 0
M  V30 8464 C 801.356 -2.54897 -2.35891 0
M  V30 8465 C 800.31 -3.69132 -2.16623 0
M  V30 8466 C 799.636 -4.01747 -3.52851 0
M  V30 8467 C 800.936 -4.98243 -1.56689 0
M  V30 8468 H 802.63 -2.92716 -0.62908 0
M  V30 8469 H 800.176 -1.40816 -0.301156 0
M  V30 8470 H 802.129 -2.8912 -3.06574 0
M  V30 8471 H 800.853 -1.67666 -2.80278 0
M  V30 8472 H 799.512 -3.35231 -1.48377 0
M  V30 8473 H 799.16 -3.11608 -3.94853 0
M  V30 8474 H 798.86 -4.78681 -3.4079 0
M  V30 8475 H 800.384 -4.38487 -4.24925 0
M  V30 8476 H 801.798 -5.30535 -2.17268 0
M  V30 8477 H 800.195 -5.79669 -1.55255 0
M  V30 8478 H 801.265 -4.81986 -0.530827 0
M  V30 8479 N 802.608 0.318715 -1.54344 0
M  V30 8480 C 803.857 1.05363 -1.71993 0
M  V30 8481 C 804.17 1.89018 -0.503155 0
M  V30 8482 O 805.376 2.65639 -0.561085 0
M  V30 8483 C 803.832 1.92281 -3.0423 0
M  V30 8484 C 803.44 1.13715 -4.33328 0
M  V30 8485 C 805.184 2.65479 -3.31242 0
M  V30 8486 C 803.091 1.99806 -5.56625 0
M  V30 8487 H 802.021 0.397081 -0.64097 0
M  V30 8488 H 804.672 0.311598 -1.80835 0
M  V30 8489 H 803.054 2.70402 -2.89307 0
M  V30 8490 H 804.228 0.403305 -4.59032 0
M  V30 8491 H 802.543 0.521769 -4.13118 0
M  V30 8492 H 805.14 3.30209 -4.20555 0
M  V30 8493 H 805.483 3.33374 -2.49334 0
M  V30 8494 H 806.016 1.94417 -3.47054 0
M  V30 8495 H 802.755 1.36411 -6.41149 0
M  V30 8496 H 802.275 2.70911 -5.35133 0
M  V30 8497 H 803.954 2.58277 -5.93213 0
M  V30 8498 N 804.086 1.46499 0.581025 0
M  V30 8499 C 805.333 1.51896 1.33918 0
M  V30 8500 C 805.661 0.171361 1.93744 0
M  V30 8501 O 804.916 -0.833178 1.77078 0
M  V30 8502 C 805.215 2.56686 2.48691 0
M  V30 8503 C 804.881 4.00656 2.06847 0
M  V30 8504 C 803.543 4.39852 1.9515 0
M  V30 8505 C 805.895 4.91089 1.74589 0
M  V30 8506 C 803.223 5.67345 1.49456 0
M  V30 8507 C 805.575 6.1902 1.30373 0
M  V30 8508 C 804.239 6.57121 1.17255 0
M  V30 8509 H 803.509 0.555826 0.490039 0
M  V30 8510 H 806.156 1.79983 0.654092 0
M  V30 8511 H 804.461 2.22266 3.22653 0
M  V30 8512 H 806.158 2.58091 3.06904 0
M  V30 8513 H 802.748 3.69674 2.16886 0
M  V30 8514 H 806.932 4.61523 1.8251 0
M  V30 8515 H 802.188 5.95635 1.37944 0
M  V30 8516 H 806.362 6.8852 1.04467 0
M  V30 8517 H 803.989 7.55805 0.816236 0
M  V30 8518 N 805.565 -0.825799 1.34232 0
M  V30 8519 C 806.495 -1.95151 1.28212 0
M  V30 8520 C 807.476 -1.69345 0.160123 0
M  V30 8521 O 808.661 -1.90983 0.352019 0
M  V30 8522 C 805.791 -3.31554 1.03388 0
M  V30 8523 C 804.745 -3.71793 2.12023 0
M  V30 8524 C 804.071 -5.06147 1.72392 0
M  V30 8525 C 805.371 -3.84193 3.53826 0
M  V30 8526 H 807.065 -2.00445 2.22401 0
M  V30 8527 H 804.611 -0.962996 1.07063 0
M  V30 8528 H 806.564 -4.09889 0.978225 0
M  V30 8529 H 805.288 -3.26551 0.0564142 0
M  V30 8530 H 803.947 -2.95731 2.16654 0
M  V30 8531 H 803.595 -4.97628 0.733137 0
M  V30 8532 H 803.295 -5.34041 2.451 0
M  V30 8533 H 804.819 -5.86943 1.68317 0
M  V30 8534 H 806.233 -4.52806 3.51624 0
M  V30 8535 H 804.63 -4.23538 4.2513 0
M  V30 8536 H 805.7 -2.86272 3.91377 0
M  V30 8537 N 807.043 -1.17915 -1.04565 0
M  V30 8538 C 808.006 -0.903787 -2.10628 0
M  V30 8539 C 809.006 0.10873 -1.60432 0
M  V30 8540 O 810.196 -0.124152 -1.73757 0
M  V30 8541 C 807.328 -0.355017 -3.39046 0
M  V30 8542 H 808.521 -1.84425 -2.3649 0
M  V30 8543 H 806.074 -0.990477 -1.2091 0
M  V30 8544 H 806.809 0.592297 -3.18845 0
M  V30 8545 H 806.594 -1.08484 -3.76794 0
M  V30 8546 H 808.084 -0.180891 -4.17208 0
M  V30 8547 N 808.521 1.23394 -0.980386 0
M  V30 8548 C 809.937 1.43961 -0.689008 0
M  V30 8549 C 810.137 1.87229 0.744809 0
M  V30 8550 O 809.193 2.01831 1.51725 0
M  V30 8551 C 810.506 2.49128 -1.68392 0
M  V30 8552 C 812.054 2.62941 -1.69796 0
M  V30 8553 C 812.529 3.71317 -2.68118 0
M  V30 8554 N 814.02 3.7876 -2.66636 0
M  V30 8555 C 814.755 4.62176 -3.39383 0
M  V30 8556 N 814.251 5.49682 -4.21688 0
M  V30 8557 N 816.044 4.56372 -3.28147 0
M  V30 8558 H 808.195 0.936106 -1.90659 0
M  V30 8559 H 810.458 0.473023 -0.821555 0
M  V30 8560 H 810.164 2.24252 -2.70931 0
M  V30 8561 H 810.038 3.47514 -1.46675 0
M  V30 8562 H 812.425 2.87168 -0.679617 0
M  V30 8563 H 812.506 1.64871 -1.95579 0
M  V30 8564 H 812.15 3.4784 -3.70095 0
M  V30 8565 H 812.08 4.68929 -2.3961 0
M  V30 8566 H 814.571 3.16226 -2.06904 0
M  V30 8567 H 814.884 6.10323 -4.74053 0
M  V30 8568 H 813.229 5.49306 -4.25779 0
M  V30 8569 H 816.42 3.87029 -2.63299 0
M  V30 8570 H 816.593 5.21153 -3.85102 0
M  V30 8571 N 809.999 0.752036 1.385 0
M  V30 8572 C 810.929 0.138718 2.33088 0
M  V30 8573 C 811.91 -0.705318 1.54788 0
M  V30 8574 O 813.095 -0.646821 1.83112 0
M  V30 8575 C 810.225 -0.75641 3.38963 0
M  V30 8576 C 809.179 -0.0152239 4.27997 0
M  V30 8577 C 808.505 -1.0285 5.24715 0
M  V30 8578 C 809.805 1.15226 5.09431 0
M  V30 8579 H 811.499 0.928852 2.84627 0
M  V30 8580 H 809.045 0.448111 1.3685 0
M  V30 8581 H 810.998 -1.19513 4.04097 0
M  V30 8582 H 809.722 -1.57885 2.85902 0
M  V30 8583 H 808.381 0.404061 3.64366 0
M  V30 8584 H 808.029 -1.84496 4.67943 0
M  V30 8585 H 807.729 -0.537238 5.85139 0
M  V30 8586 H 809.253 -1.46657 5.92726 0
M  V30 8587 H 810.667 0.791161 5.67815 0
M  V30 8588 H 809.064 1.57428 5.79082 0
M  V30 8589 H 810.134 1.9659 4.43261 0
M  V30 8590 N 811.477 -1.49425 0.500989 0
M  V30 8591 C 812.726 -2.01649 -0.04538 0
M  V30 8592 C 813.039 -1.38572 -1.38047 0
M  V30 8593 O 814.245 -1.82124 -2.01353 0
M  V30 8594 C 812.701 -3.5966 -0.131337 0
M  V30 8595 C 812.309 -4.3171 1.19711 0
M  V30 8596 C 814.053 -4.19828 -0.628071 0
M  V30 8597 C 811.96 -5.81579 1.07332 0
M  V30 8598 H 810.89 -0.753715 -0.0207329 0
M  V30 8599 H 813.541 -1.71962 0.640407 0
M  V30 8600 H 811.923 -3.86063 -0.881574 0
M  V30 8601 H 813.097 -4.17008 1.96064 0
M  V30 8602 H 811.412 -3.83286 1.62729 0
M  V30 8603 H 814.009 -5.2958 -0.738198 0
M  V30 8604 H 814.352 -3.83194 -1.6269 0
M  V30 8605 H 814.885 -3.97746 0.0656314 0
M  V30 8606 H 811.624 -6.22738 2.04642 0
M  V30 8607 H 811.144 -5.98774 0.350679 0
M  V30 8608 H 812.823 -6.42614 0.752047 0
M  V30 8609 N 812.955 -0.234822 -1.55841 0
M  V30 8610 C 814.366 0.270588 -1.84729 0
M  V30 8611 C 814.717 1.58494 -1.15646 0
M  V30 8612 O 813.842 2.12071 -0.430667 0
M  V30 8613 C 814.437 0.497733 -3.35124 0
M  V30 8614 C 812.996 0.947428 -3.64281 0
M  V30 8615 C 812.143 0.01787 -2.77294 0
M  V30 8616 H 815.094 -0.457691 -1.51957 0
M  V30 8617 H 815.115 1.34199 -3.56049 0
M  V30 8618 H 814.627 -0.459037 -3.85376 0
M  V30 8619 H 812.728 1.91709 -3.19497 0
M  V30 8620 H 812.841 0.812651 -4.72158 0
M  V30 8621 H 811.205 0.527071 -2.49187 0
M  V30 8622 H 811.988 -0.934056 -3.30349 0
M  V30 8623 N 814.433 1.57553 0.0384317 0
M  V30 8624 C 815.849 1.54663 0.39391 0
M  V30 8625 C 816.049 0.959685 1.77179 0
M  V30 8626 O 815.105 0.576647 2.45827 0
M  V30 8627 C 816.418 2.99156 0.304352 0
M  V30 8628 C 817.966 3.10659 0.382119 0
M  V30 8629 C 818.441 4.56866 0.322111 0
M  V30 8630 N 819.932 4.61629 0.38119 0
M  V30 8631 C 820.667 5.72284 0.357501 0
M  V30 8632 N 820.163 6.92207 0.286654 0
M  V30 8633 N 821.956 5.60628 0.406538 0
M  V30 8634 H 814.107 1.9406 -0.86339 0
M  V30 8635 H 816.37 0.889673 -0.327392 0
M  V30 8636 H 816.076 3.45788 -0.642141 0
M  V30 8637 H 815.95 3.60753 1.10168 0
M  V30 8638 H 818.337 2.6398 1.31904 0
M  V30 8639 H 818.418 2.5191 -0.444391 0
M  V30 8640 H 818.062 5.0421 -0.611104 0
M  V30 8641 H 817.992 5.13515 1.1666 0
M  V30 8642 H 820.483 3.75343 0.438838 0
M  V30 8643 H 820.796 7.72316 0.273421 0
M  V30 8644 H 819.141 6.9454 0.252841 0
M  V30 8645 H 822.332 4.65836 0.459812 0
M  V30 8646 H 822.505 6.46858 0.384608 0
M  V30 8647 N 815.911 -0.310526 1.54511 0
M  V30 8648 C 816.844 -1.40693 1.79668 0
M  V30 8649 C 817.822 -1.49159 0.64734 0
M  V30 8650 O 819.006 -1.66367 0.886239 0
M  V30 8651 C 816.133 -2.78685 1.92491 0
M  V30 8652 C 815.179 -2.87688 3.14861 0
M  V30 8653 S 816.012 -2.50759 4.7316 0
M  V30 8654 C 817.168 -3.90797 4.88906 0
M  V30 8655 H 817.401 -1.19142 2.72383 0
M  V30 8656 H 814.934 -0.508103 1.458 0
M  V30 8657 H 816.892 -3.58168 2.00563 0
M  V30 8658 H 815.553 -2.9751 1.00731 0
M  V30 8659 H 814.746 -3.8888 3.20607 0
M  V30 8660 H 814.348 -2.16189 3.05186 0
M  V30 8661 H 816.64 -4.85693 4.72344 0
M  V30 8662 H 817.583 -3.90027 5.91003 0
M  V30 8663 H 817.991 -3.80357 4.1712 0
M  V30 8664 N 817.389 -1.46805 -0.573248 0
M  V30 8665 C 818.629 -1.5417 -1.34205 0
M  V30 8666 C 818.993 -0.192675 -1.91031 0
M  V30 8667 O 820.194 -0.141111 -2.68429 0
M  V30 8668 C 818.465 -2.61682 -2.43428 0
M  V30 8669 S 820.024 -2.88519 -3.30609 0
M  V30 8670 H 816.842 -0.544592 -0.4571 0
M  V30 8671 H 819.444 -1.84094 -0.658001 0
M  V30 8672 H 818.148 -3.58319 -2.00088 0
M  V30 8673 H 817.679 -2.33521 -3.16594 0
M  V30 8674 H 819.694 -2.2451 -4.42504 0
M  V30 8675 N 818.867 0.818669 -1.34668 0
M  V30 8676 C 819.817 1.91882 -1.23147 0
M  V30 8677 C 820.801 1.60378 -0.129509 0
M  V30 8678 O 821.993 1.73309 -0.359581 0
M  V30 8679 C 819.122 3.28612 -0.993436 0
M  V30 8680 C 818.208 3.66221 -2.13876 0
M  V30 8681 N 818.599 3.75361 -3.39024 0
M  V30 8682 C 816.897 3.96098 -2.04994 0
M  V30 8683 C 817.598 4.0836 -4.14266 0
M  V30 8684 N 816.574 4.21806 -3.429 0
M  V30 8685 H 820.376 1.97133 -2.17981 0
M  V30 8686 H 817.89 1.01257 -1.26967 0
M  V30 8687 H 819.887 4.0725 -0.891797 0
M  V30 8688 H 818.547 3.24655 -0.053824 0
M  V30 8689 H 819.558 3.58747 -3.73525 0
M  V30 8690 H 816.235 4.00236 -1.18816 0
M  V30 8691 H 817.625 4.226 -5.22359 0
M  V30 8692 N 820.346 1.18468 1.03938 0
M  V30 8693 C 821.294 0.909286 2.14091 0
M  V30 8694 C 822.288 -0.130928 1.68893 0
M  V30 8695 O 823.494 0.0173403 1.79992 0
M  V30 8696 H 819.869 0.27658 0.699291 0
M  V30 8697 H 821.84 1.84514 2.34515 0
M  V30 8698 C 820.589 0.452922 3.44737 0
M  V30 8699 H 819.912 1.24485 3.79926 0
M  V30 8700 H 821.352 0.299238 4.22943 0
M  V30 8701 C 819.811 -0.831435 3.26479 0
M  V30 8702 O 820.341 -1.89535 3.54174 0
M  V30 8703 N 818.547 -0.784545 2.79809 0
M  V30 8704 H 818.094 0.0814746 2.57471 0
M  V30 8705 H 818.052 -1.64431 2.67973 0
M  V30 8706 N 821.824 -1.22873 0.986916 0
M  V30 8707 C 823.07 -1.91746 0.660401 0
M  V30 8708 C 823.403 -1.76738 -0.804812 0
M  V30 8709 O 822.678 -1.13246 -1.58131 0
M  V30 8710 C 822.961 -3.44156 1.05966 0
M  V30 8711 C 822.814 -3.68242 2.58298 0
M  V30 8712 C 824.133 -4.35874 0.60842 0
M  V30 8713 H 821.252 -0.696347 0.241391 0
M  V30 8714 H 823.894 -1.44867 1.22937 0
M  V30 8715 H 822.044 -3.84213 0.575534 0
M  V30 8716 H 823.716 -3.37626 3.14335 0
M  V30 8717 H 821.959 -3.12728 3.00638 0
M  V30 8718 H 822.63 -4.74956 2.81285 0
M  V30 8719 H 825.106 -4.03299 1.02417 0
M  V30 8720 H 823.982 -5.41201 0.916142 0
M  V30 8721 H 824.243 -4.39364 -0.491086 0
M  V30 8722 N 823.302 -0.75937 -1.38099 0
M  V30 8723 C 824.25 -0.124954 -2.32264 0
M  V30 8724 C 825.244 0.698863 -1.54312 0
M  V30 8725 O 826.45 0.597312 -1.698 0
M  V30 8726 H 822.825 -0.0216142 -0.751689 0
M  V30 8727 H 824.796 -0.935115 -2.83369 0
M  V30 8728 C 823.545 0.749463 -3.39527 0
M  V30 8729 H 822.868 0.124932 -3.99605 0
M  V30 8730 H 824.308 1.16055 -4.07808 0
M  V30 8731 C 822.767 1.89464 -2.78577 0
M  V30 8732 O 823.297 2.98923 -2.68343 0
M  V30 8733 N 821.503 1.69145 -2.36301 0
M  V30 8734 H 821.05 0.801157 -2.44825 0
M  V30 8735 H 821.008 2.45936 -1.95864 0
M  V30 8736 N 824.78 1.49157 -0.508906 0
M  V30 8737 C 826.196 1.58741 -0.165372 0
M  V30 8738 C 826.396 1.5133 1.33047 0
M  V30 8739 O 825.452 1.39135 2.10707 0
M  V30 8740 C 826.765 2.91217 -0.749194 0
M  V30 8741 C 828.313 3.047 -0.716015 0
M  V30 8742 C 828.788 4.39807 -1.27804 0
M  V30 8743 N 830.279 4.46319 -1.23908 0
M  V30 8744 C 831.014 5.49325 -1.64406 0
M  V30 8745 N 830.51 6.59395 -2.12534 0
M  V30 8746 N 832.303 5.40084 -1.55773 0
M  V30 8747 H 824.454 1.52217 -1.48134 0
M  V30 8748 H 826.717 0.721514 -0.614915 0
M  V30 8749 H 826.423 3.02233 -1.79856 0
M  V30 8750 H 826.297 3.76592 -0.214144 0
M  V30 8751 H 828.684 2.9331 0.324535 0
M  V30 8752 H 828.765 2.2099 -1.2883 0
M  V30 8753 H 828.409 4.5195 -2.31741 0
M  V30 8754 H 828.339 5.2217 -0.681623 0
M  V30 8755 H 830.83 3.67354 -0.886537 0
M  V30 8756 H 831.143 7.34102 -2.41485 0
M  V30 8757 H 829.488 6.60414 -2.16513 0
M  V30 8758 H 832.679 4.52986 -1.17987 0
M  V30 8759 H 832.852 6.20233 -1.87657 0
M  V30 8760 N 826.258 0.243083 1.55714 0
M  V30 8761 C 827.504 -0.383287 1.99145 0
M  V30 8762 C 827.837 -1.57868 1.13098 0
M  V30 8763 O 827.112 -1.93535 0.193509 0
M  V30 8764 C 827.395 -0.796879 3.51172 0
M  V30 8765 C 827.248 0.403642 4.47985 0
M  V30 8766 C 828.567 -1.64525 4.08191 0
M  V30 8767 H 825.686 -0.137843 0.723995 0
M  V30 8768 H 828.328 0.343631 1.86867 0
M  V30 8769 H 826.478 -1.41625 3.61766 0
M  V30 8770 H 828.15 1.04204 4.49376 0
M  V30 8771 H 826.393 1.04741 4.20965 0
M  V30 8772 H 827.064 0.0709794 5.51954 0
M  V30 8773 H 829.54 -1.12246 4.00674 0
M  V30 8774 H 828.416 -1.9035 5.14838 0
M  V30 8775 H 828.677 -2.61582 3.56409 0
M  V30 8776 N 827.736 -1.57571 -0.0300757 0
M  V30 8777 C 828.982 -1.89506 -0.722159 0
M  V30 8778 C 829.315 -0.840699 -1.7506 0
M  V30 8779 O 828.59 0.144358 -1.93964 0
M  V30 8780 C 828.873 -3.32081 -1.39262 0
M  V30 8781 C 828.726 -4.48211 -0.377768 0
M  V30 8782 C 830.045 -3.73557 -2.32687 0
M  V30 8783 H 827.164 -0.689213 -0.261064 0
M  V30 8784 H 829.806 -1.89994 0.0150388 0
M  V30 8785 H 827.956 -3.31796 -2.02098 0
M  V30 8786 H 829.628 -4.6063 0.248591 0
M  V30 8787 H 827.871 -4.3274 0.303045 0
M  V30 8788 H 828.542 -5.44854 -0.885347 0
M  V30 8789 H 831.018 -3.75202 -1.79896 0
M  V30 8790 H 829.894 -4.74125 -2.7658 0
M  V30 8791 H 830.155 -3.05759 -3.19317 0
M  V30 8792 N 829.214 0.302327 -1.54673 0
M  V30 8793 C 830.444 1.05516 -1.77623 0
M  V30 8794 C 830.852 1.81474 -0.535159 0
M  V30 8795 O 830.195 1.76635 0.504543 0
M  V30 8796 C 830.257 2.08305 -2.93001 0
M  V30 8797 C 829.921 1.51554 -4.31139 0
M  V30 8798 C 830.918 0.946261 -5.11216 0
M  V30 8799 C 828.603 1.55157 -4.77736 0
M  V30 8800 C 830.597 0.420559 -6.36011 0
M  V30 8801 C 828.284 1.022 -6.02494 0
M  V30 8802 C 829.282 0.457461 -6.81466 0
M  V30 8803 O 828.97 -0.064083 -8.03874 0
M  V30 8804 H 828.702 0.318756 -0.59613 0
M  V30 8805 H 831.256 0.347558 -2.02438 0
M  V30 8806 H 829.486 2.82742 -2.63807 0
M  V30 8807 H 831.175 2.69479 -3.03539 0
M  V30 8808 H 831.941 0.911338 -4.76361 0
M  V30 8809 H 827.82 1.98037 -4.16296 0
M  V30 8810 H 831.364 -0.0207298 -6.97597 0
M  V30 8811 H 827.261 1.05406 -6.36836 0
M  V30 8812 H 828.029 0.0493422 -8.18485 0
M  V30 8813 N 830.692 1.47107 0.565454 0
M  V30 8814 C 831.941 1.5257 1.31929 0
M  V30 8815 C 832.254 0.189092 1.94684 0
M  V30 8816 O 833.46 0.121657 2.71227 0
M  V30 8817 C 831.916 2.68914 2.39193 0
M  V30 8818 C 831.524 4.09069 1.82665 0
M  V30 8819 C 833.268 2.83663 3.1581 0
M  V30 8820 C 831.175 5.16726 2.87661 0
M  V30 8821 H 830.105 0.567869 0.496025 0
M  V30 8822 H 832.756 1.73361 0.60151 0
M  V30 8823 H 831.138 2.41486 3.13848 0
M  V30 8824 H 832.312 4.46364 1.14438 0
M  V30 8825 H 830.627 3.99135 1.1866 0
M  V30 8826 H 833.224 3.61261 3.94201 0
M  V30 8827 H 833.567 1.91804 3.69482 0
M  V30 8828 H 834.1 3.10821 2.48265 0
M  V30 8829 H 830.839 6.10433 2.38854 0
M  V30 8830 H 830.359 4.83957 3.54324 0
M  V30 8831 H 832.038 5.43319 3.51303 0
M  V30 8832 N 832.17 -0.811516 1.35101 0
M  V30 8833 C 833.417 -1.56835 1.28098 0
M  V30 8834 C 833.745 -1.93951 -0.14597 0
M  V30 8835 O 833 -1.61173 -1.11004 0
M  V30 8836 C 833.299 -2.87121 2.1283 0
M  V30 8837 C 832.965 -2.69245 3.61688 0
M  V30 8838 C 831.627 -2.64078 4.02264 0
M  V30 8839 C 833.979 -2.52122 4.56162 0
M  V30 8840 C 831.307 -2.39724 5.3549 0
M  V30 8841 C 833.659 -2.29298 5.89581 0
M  V30 8842 C 832.323 -2.2255 6.29307 0
M  V30 8843 H 831.593 -0.5739 0.468742 0
M  V30 8844 H 834.24 -0.93806 1.66951 0
M  V30 8845 H 832.545 -3.54502 1.66841 0
M  V30 8846 H 834.242 -3.44788 2.0475 0
M  V30 8847 H 830.832 -2.74112 3.29485 0
M  V30 8848 H 835.016 -2.5513 4.25702 0
M  V30 8849 H 830.272 -2.32965 5.65276 0
M  V30 8850 H 834.446 -2.15038 6.62368 0
M  V30 8851 H 832.073 -2.0344 7.32473 0
M  V30 8852 N 833.648 -1.19017 -1.03309 0
M  V30 8853 C 834.896 -0.988258 -1.76289 0
M  V30 8854 C 835.217 0.482557 -1.88935 0
M  V30 8855 O 834.487 1.34969 -1.41987 0
M  V30 8856 H 833.067 -0.36267 -0.653054 0
M  V30 8857 H 835.729 -1.49836 -1.2464 0
M  V30 8858 H 834.825 -1.43273 -2.77271 0
M  V30 8859 N 835.127 1.22348 -0.993418 0
M  V30 8860 C 836.538 1.72893 -0.704616 0
M  V30 8861 C 836.889 1.80095 0.778483 0
M  V30 8862 O 836.014 1.4476 1.60853 0
M  V30 8863 C 836.609 3.14 -1.27237 0
M  V30 8864 C 835.168 3.61949 -1.03294 0
M  V30 8865 C 834.315 2.39816 -1.39225 0
M  V30 8866 H 837.266 1.07688 -1.16572 0
M  V30 8867 H 837.287 3.74886 -0.651212 0
M  V30 8868 H 836.799 3.08727 -2.3518 0
M  V30 8869 H 834.9 3.72588 0.0298329 0
M  V30 8870 H 835.013 4.48051 -1.69668 0
M  V30 8871 H 833.377 2.41448 -0.810849 0
M  V30 8872 H 834.16 2.37203 -2.48172 0
M  V30 8873 N 836.605 0.766683 1.37694 0
M  V30 8874 C 838.016 0.394761 1.82479 0
M  V30 8875 C 838.367 -1.07842 1.63904 0
M  V30 8876 O 837.492 -1.83479 1.14737 0
M  V30 8877 C 838.087 0.70974 3.31283 0
M  V30 8878 C 836.646 0.390936 3.74364 0
M  V30 8879 C 835.793 0.956192 2.60293 0
M  V30 8880 H 838.744 0.961756 1.26238 0
M  V30 8881 H 838.765 -0.00742144 3.80499 0
M  V30 8882 H 838.277 1.782 3.4477 0
M  V30 8883 H 836.378 -0.674213 3.66449 0
M  V30 8884 H 836.491 0.895645 4.70654 0
M  V30 8885 H 834.855 0.380744 2.51838 0
M  V30 8886 H 835.638 2.03375 2.76575 0
M  V30 8887 N 838.083 -1.48885 0.516809 0
M  V30 8888 C 839.329 -2.02788 -0.0220928 0
M  V30 8889 C 839.662 -1.39433 -1.35175 0
M  V30 8890 O 838.937 -0.535459 -1.86984 0
M  V30 8891 C 839.22 -3.59753 -0.158012 0
M  V30 8892 C 839.073 -4.33611 1.19588 0
M  V30 8893 C 840.392 -4.30984 -0.891133 0
M  V30 8894 H 837.511 -0.736971 -0.00655488 0
M  V30 8895 H 840.153 -1.77746 0.671287 0
M  V30 8896 H 838.303 -3.8122 -0.748568 0
M  V30 8897 H 839.975 -4.23598 1.82653 0
M  V30 8898 H 838.218 -3.95547 1.78116 0
M  V30 8899 H 838.889 -5.41846 1.05391 0
M  V30 8900 H 841.365 -4.14267 -0.39012 0
M  V30 8901 H 840.241 -5.40527 -0.955107 0
M  V30 8902 H 840.502 -3.97336 -1.93847 0
M  V30 8903 N 839.561 -0.251338 -1.55583 0
M  V30 8904 C 840.508 0.646337 -2.21565 0
M  V30 8905 C 841.478 1.16796 -1.18102 0
M  V30 8906 O 842.663 1.22162 -1.46564 0
M  V30 8907 C 839.803 1.83557 -2.92234 0
M  V30 8908 C 838.916 1.35006 -4.10363 0
M  V30 8909 C 838.051 2.4992 -4.68736 0
M  V30 8910 C 837.09 1.98253 -5.79105 0
M  V30 8911 N 836.227 3.06551 -6.31642 0
M  V30 8912 H 841.067 0.0769881 -2.97901 0
M  V30 8913 H 838.604 0.026238 -1.47077 0
M  V30 8914 H 840.562 2.53425 -3.31408 0
M  V30 8915 H 839.192 2.37733 -2.18364 0
M  V30 8916 H 838.244 0.545274 -3.76472 0
M  V30 8917 H 839.556 0.931435 -4.90026 0
M  V30 8918 H 838.71 3.27823 -5.10507 0
M  V30 8919 H 837.449 2.95086 -3.88298 0
M  V30 8920 H 836.454 1.18822 -5.36807 0
M  V30 8921 H 837.679 1.54051 -6.61396 0
M  V30 8922 H 835.625 3.51143 -5.54107 0
M  V30 8923 H 835.542 2.69033 -7.06511 0
M  V30 8924 H 836.81 3.84499 -6.78071 0
M  V30 8925 N 841.039 1.57585 0.0217189 0
M  V30 8926 C 841.949 2.10444 1.03684 0
M  V30 8927 C 842.965 1.04472 1.39146 0
M  V30 8928 O 844.141 1.36249 1.48317 0
M  V30 8929 C 841.206 2.5794 2.31664 0
M  V30 8930 C 840.267 3.78425 2.02714 0
M  V30 8931 C 839.5 4.23646 3.24592 0
M  V30 8932 O 839.723 3.6834 4.35525 0
M  V30 8933 O 838.657 5.16013 3.09862 0
M  V30 8934 H 842.483 2.97354 0.617584 0
M  V30 8935 H 840.068 1.47473 0.239174 0
M  V30 8936 H 841.95 2.88785 3.06889 0
M  V30 8937 H 840.625 1.74138 2.7287 0
M  V30 8938 H 839.532 3.52587 1.25033 0
M  V30 8939 H 840.865 4.63234 1.66359 0
M  V30 8940 N 842.517 -0.29412 1.54831 0
M  V30 8941 C 843.928 -0.866651 1.65366 0
M  V30 8942 C 844.279 -1.87834 0.56681 0
M  V30 8943 O 843.404 -2.14374 -0.295389 0
M  V30 8944 C 843.999 -1.57869 2.99771 0
M  V30 8945 C 842.558 -2.09954 3.12404 0
M  V30 8946 C 841.705 -0.934492 2.6108 0
M  V30 8947 H 844.656 -0.0709551 1.58541 0
M  V30 8948 H 844.677 -2.44462 2.91579 0
M  V30 8949 H 844.189 -0.84212 3.78853 0
M  V30 8950 H 842.29 -2.86637 2.38055 0
M  V30 8951 H 842.403 -2.32934 4.18663 0
M  V30 8952 H 840.767 -1.32199 2.17705 0
M  V30 8953 H 841.55 -0.211768 3.42646 0
M  V30 8954 N 843.995 -1.47404 -0.557645 0
M  V30 8955 C 845.406 -1.47872 -1.13977 0
M  V30 8956 C 845.757 -0.233176 -1.94809 0
M  V30 8957 O 844.882 0.661945 -2.06027 0
M  V30 8958 C 845.477 -2.67926 -2.07368 0
M  V30 8959 C 844.036 -2.71354 -2.60852 0
M  V30 8960 C 843.183 -2.40967 -1.37223 0
M  V30 8961 H 846.134 -1.54921 -0.344268 0
M  V30 8962 H 846.155 -2.44871 -2.91236 0
M  V30 8963 H 845.667 -3.58562 -1.48509 0
M  V30 8964 H 843.768 -1.84855 -3.23511 0
M  V30 8965 H 843.881 -3.72032 -3.01876 0
M  V30 8966 H 842.245 -1.91541 -1.67882 0
M  V30 8967 H 843.028 -3.33811 -0.801583 0
M  V30 8968 N 845.473 0.80434 -1.35529 0
M  V30 8969 C 846.701 1.59283 -1.32048 0
M  V30 8970 C 847.116 1.88527 0.101556 0
M  V30 8971 O 846.473 1.48975 1.05417 0
M  V30 8972 C 846.524 2.92276 -2.12737 0
M  V30 8973 O 846.245 2.64299 -3.49396 0
M  V30 8974 C 847.746 3.86631 -2.16867 0
M  V30 8975 H 844.966 0.494523 -0.453528 0
M  V30 8976 H 847.51 0.999415 -1.78415 0
M  V30 8977 H 845.665 3.48125 -1.69964 0
M  V30 8978 H 846.079 3.4923 -3.91329 0
M  V30 8979 H 847.553 4.77053 -2.77712 0
M  V30 8980 H 848.03 4.23384 -1.16803 0
M  V30 8981 H 848.636 3.36717 -2.59811 0
M  V30 8982 N 846.951 1.19563 1.02676 0
M  V30 8983 C 848.228 0.908857 1.73203 0
M  V30 8984 C 848.608 -0.584928 2.02834 0
M  V30 8985 O 847.956 -1.54372 1.68469 0
M  V30 8986 C 848.166 1.77105 3.00724 0
M  V30 8987 C 849.514 2.00667 3.7419 0
M  V30 8988 O 850.538 1.74274 3.10656 0
M  V30 8989 O 849.397 2.4518 4.88415 0
M  V30 8990 H 846.491 0.338909 0.754367 0
M  V30 8991 H 849.037 1.30387 1.08616 0
M  V30 8992 H 847.809 2.78303 2.7507 0
M  V30 8993 H 847.432 1.37546 3.73051 0
M  V30 8994 N 848.429 -1.21819 0.999893 0
M  V30 8995 C 849.675 -1.91035 0.680701 0
M  V30 8996 C 850.008 -1.77582 -0.786021 0
M  V30 8997 O 849.283 -1.14917 -1.56921 0
M  V30 8998 C 849.566 -3.43013 1.0961 0
M  V30 8999 C 849.419 -3.65481 2.6219 0
M  V30 9000 C 850.738 -4.35204 0.654616 0
M  V30 9001 H 847.857 -0.693748 0.248763 0
M  V30 9002 H 850.499 -1.43555 1.24466 0
M  V30 9003 H 848.649 -3.83581 0.616253 0
M  V30 9004 H 850.321 -3.34273 3.17899 0
M  V30 9005 H 848.564 -3.09522 3.03938 0
M  V30 9006 H 849.235 -4.71945 2.86307 0
M  V30 9007 H 851.711 -4.0219 1.06688 0
M  V30 9008 H 850.587 -5.40198 0.973492 0
M  V30 9009 H 850.848 -4.3986 -0.444458 0
M  V30 9010 N 849.908 -0.773975 -1.37286 0
M  V30 9011 C 851.136 -0.350758 -2.03905 0
M  V30 9012 C 851.551 1.02779 -1.58373 0
M  V30 9013 O 850.908 1.65646 -0.766009 0
M  V30 9014 C 850.959 -0.387335 -3.59419 0
M  V30 9015 O 850.68 -1.7115 -4.03286 0
M  V30 9016 C 852.181 0.047198 -4.43275 0
M  V30 9017 H 849.401 -0.146663 -0.654775 0
M  V30 9018 H 851.945 -1.04852 -1.75574 0
M  V30 9019 H 850.1 0.261865 -3.86514 0
M  V30 9020 H 850.514 -1.65166 -4.97816 0
M  V30 9021 H 851.988 -0.0295474 -5.51992 0
M  V30 9022 H 852.465 1.09786 -4.25257 0
M  V30 9023 H 853.071 -0.573899 -4.2141 0
M  V30 9024 N 851.386 1.48609 -0.524698 0
M  V30 9025 C 852.797 1.86516 -0.0828846 0
M  V30 9026 C 853.148 1.43478 1.33822 0
M  V30 9027 O 852.273 0.823139 2.00133 0
M  V30 9028 C 852.868 3.38495 -0.143639 0
M  V30 9029 C 851.427 3.75615 0.242951 0
M  V30 9030 C 850.574 2.72649 -0.505747 0
M  V30 9031 H 853.525 1.40589 -0.736233 0
M  V30 9032 H 853.546 3.74977 0.645955 0
M  V30 9033 H 853.058 3.69789 -1.17805 0
M  V30 9034 H 851.159 3.49935 1.27971 0
M  V30 9035 H 851.272 4.7901 -0.0929834 0
M  V30 9036 H 849.636 2.54656 0.0473482 0
M  V30 9037 H 850.419 3.06786 -1.54069 0
M  V30 9038 N 852.864 0.259585 1.55447 0
M  V30 9039 C 854.092 -0.365392 2.03648 0
M  V30 9040 C 854.507 -1.50613 1.13847 0
M  V30 9041 O 853.864 -1.81837 0.155414 0
M  V30 9042 C 853.915 -0.861172 3.51093 0
M  V30 9043 O 853.636 0.234121 4.37474 0
M  V30 9044 C 855.137 -1.55555 4.15111 0
M  V30 9045 H 852.357 -0.0853439 0.66555 0
M  V30 9046 H 854.901 0.387151 2.00802 0
M  V30 9047 H 853.056 -1.56385 3.54433 0
M  V30 9048 H 853.47 -0.1444 5.24301 0
M  V30 9049 H 854.944 -1.85403 5.19932 0
M  V30 9050 H 855.421 -2.48185 3.62355 0
M  V30 9051 H 856.027 -0.89712 4.15731 0
M  V30 9052 N 854.342 -1.57594 -0.0133615 0
M  V30 9053 C 855.589 -1.8998 -0.70098 0
M  V30 9054 C 855.917 -0.858802 -1.74513 0
M  V30 9055 O 855.172 0.138209 -1.95211 0
M  V30 9056 C 855.471 -3.29121 -1.39336 0
M  V30 9057 C 855.137 -4.48298 -0.483687 0
M  V30 9058 C 853.799 -4.80635 -0.233186 0
M  V30 9059 C 856.151 -5.21003 0.143426 0
M  V30 9060 C 853.479 -5.83055 0.652943 0
M  V30 9061 C 855.831 -6.24366 1.01735 0
M  V30 9062 C 854.495 -6.55168 1.27716 0
M  V30 9063 H 853.765 -0.695187 -0.256507 0
M  V30 9064 H 856.412 -1.9146 0.0392965 0
M  V30 9065 H 854.717 -3.23703 -2.20735 0
M  V30 9066 H 856.414 -3.51433 -1.93121 0
M  V30 9067 H 853.004 -4.23024 -0.689092 0
M  V30 9068 H 857.188 -4.96286 -0.0371139 0
M  V30 9069 H 852.444 -6.05288 0.862379 0
M  V30 9070 H 856.618 -6.79839 1.5097 0
M  V30 9071 H 854.245 -7.34351 1.9655 0
M  V30 9072 N 855.82 0.285905 -1.54985 0
M  V30 9073 C 856.75 1.35752 -1.89983 0
M  V30 9074 C 857.731 1.52163 -0.760295 0
M  V30 9075 O 858.916 1.65421 -1.01733 0
M  V30 9076 C 856.046 2.71925 -2.16042 0
M  V30 9077 C 855 2.70261 -3.31878 0
M  V30 9078 C 854.326 4.09864 -3.43388 0
M  V30 9079 C 855.626 2.30667 -4.68604 0
M  V30 9080 H 857.32 1.06709 -2.79738 0
M  V30 9081 H 854.866 0.511884 -1.34595 0
M  V30 9082 H 856.819 3.46992 -2.39113 0
M  V30 9083 H 855.543 3.02523 -1.23074 0
M  V30 9084 H 854.202 1.97651 -3.08755 0
M  V30 9085 H 853.85 4.37664 -2.47909 0
M  V30 9086 H 853.55 4.09648 -4.21262 0
M  V30 9087 H 855.074 4.86689 -3.68736 0
M  V30 9088 H 856.488 2.95453 -4.91305 0
M  V30 9089 H 854.885 2.41637 -5.49301 0
M  V30 9090 H 855.955 1.25793 -4.68299 0
M  V30 9091 N 857.298 1.47698 0.54982 0
M  V30 9092 C 858.526 1.5833 1.33188 0
M  V30 9093 C 858.941 0.236193 1.87317 0
M  V30 9094 O 858.298 -0.77167 1.65383 0
M  V30 9095 C 858.349 2.61438 2.49664 0
M  V30 9096 O 858.07 3.9092 1.97771 0
M  V30 9097 C 859.571 2.82324 3.41772 0
M  V30 9098 H 856.791 0.53443 0.405741 0
M  V30 9099 H 859.335 1.93375 0.665309 0
M  V30 9100 H 857.49 2.29307 3.12245 0
M  V30 9101 H 857.904 4.47323 2.73866 0
M  V30 9102 H 859.378 3.58316 4.19897 0
M  V30 9103 H 859.855 1.90416 3.95776 0
M  V30 9104 H 860.461 3.15682 2.85 0
M  V30 9105 N 858.776 -0.797141 1.35954 0
M  V30 9106 C 860.004 -1.5858 1.32891 0
M  V30 9107 C 860.419 -1.88578 -0.0915564 0
M  V30 9108 O 859.776 -1.49532 -1.04625 0
M  V30 9109 C 859.827 -2.91143 2.14284 0
M  V30 9110 O 859.548 -2.62442 3.50793 0
M  V30 9111 C 861.049 -3.85476 2.18914 0
M  V30 9112 H 858.269 -0.492111 0.456144 0
M  V30 9113 H 860.813 -0.98994 1.78943 0
M  V30 9114 H 858.968 -3.47219 1.71807 0
M  V30 9115 H 859.382 -3.4715 3.93175 0
M  V30 9116 H 860.856 -4.75574 2.80238 0
M  V30 9117 H 861.333 -4.22758 1.19047 0
M  V30 9118 H 861.939 -3.35334 2.61593 0
M  V30 9119 N 860.254 -1.20106 -1.0204 0
M  V30 9120 C 861.502 -1.0069 -1.75231 0
M  V30 9121 C 861.823 0.462491 -1.89436 0
M  V30 9122 O 861.093 1.33455 -1.4341 0
M  V30 9123 H 859.673 -0.369576 -0.649171 0
M  V30 9124 H 862.335 -1.51149 -1.23044 0
M  V30 9125 H 861.431 -1.46205 -2.75736 0
M  V30 9126 N 861.732 1.21287 -1.00634 0
M  V30 9127 C 862.978 1.90671 -0.690822 0
M  V30 9128 C 863.311 1.77996 0.776592 0
M  V30 9129 O 862.586 1.15748 1.5631 0
M  V30 9130 C 862.869 3.42426 -1.11428 0
M  V30 9131 C 862.722 3.64086 -2.64124 0
M  V30 9132 C 864.041 4.34851 -0.677686 0
M  V30 9133 H 861.16 0.692419 -0.252439 0
M  V30 9134 H 863.802 1.42893 -1.25226 0
M  V30 9135 H 861.952 3.83249 -0.636586 0
M  V30 9136 H 863.624 3.32582 -3.19667 0
M  V30 9137 H 861.867 3.07906 -3.05576 0
M  V30 9138 H 862.538 4.7042 -2.88806 0
M  V30 9139 H 865.014 4.01619 -1.0882 0
M  V30 9140 H 863.89 5.39675 -1.00213 0
M  V30 9141 H 864.151 4.4009 0.421125 0
M  V30 9142 N 863.21 0.781244 1.36873 0
M  V30 9143 C 864.14 0.188128 2.32741 0
M  V30 9144 C 865.121 -0.672326 1.56249 0
M  V30 9145 O 866.306 -0.607835 1.84442 0
M  V30 9146 C 863.436 -0.684341 3.40491 0
M  V30 9147 C 862.39 0.0755641 4.27933 0
M  V30 9148 C 861.716 -0.916968 5.26779 0
M  V30 9149 C 863.016 1.26006 5.06873 0
M  V30 9150 H 864.71 0.989016 2.82593 0
M  V30 9151 H 862.256 0.477038 1.35869 0
M  V30 9152 H 864.209 -1.10915 4.06541 0
M  V30 9153 H 862.933 -1.51785 2.89187 0
M  V30 9154 H 861.592 0.481258 3.63427 0
M  V30 9155 H 861.24 -1.74528 4.71751 0
M  V30 9156 H 860.94 -0.413 5.86147 0
M  V30 9157 H 862.464 -1.34052 5.95703 0
M  V30 9158 H 863.878 0.911425 5.66009 0
M  V30 9159 H 862.275 1.69676 5.75613 0
M  V30 9160 H 863.345 2.05948 4.38991 0
M  V30 9161 N 864.689 -1.48329 0.532571 0
M  V30 9162 C 865.914 -2.074 0.00147755 0
M  V30 9163 C 866.339 -1.38615 -1.27151 0
M  V30 9164 O 865.697 -0.452949 -1.75551 0
M  V30 9165 C 865.745 -3.60029 -0.202866 0
M  V30 9166 O 864.849 -3.92327 -1.27097 0
M  V30 9167 H 864.19 -0.662777 0.0402883 0
M  V30 9168 H 866.72 -1.90701 0.741224 0
M  V30 9169 H 866.73 -4.05783 -0.424722 0
M  V30 9170 H 865.405 -4.09496 0.727033 0
M  V30 9171 H 863.982 -3.58348 -1.03156 0
M  V30 9172 N 866.167 -0.267825 -1.55308 0
M  V30 9173 C 867.395 0.354587 -2.03839 0
M  V30 9174 C 867.81 1.50007 -1.14644 0
M  V30 9175 O 867.167 1.81752 -0.165055 0
M  V30 9176 C 867.218 0.84254 -3.51544 0
M  V30 9177 O 866.939 -0.257318 -4.37344 0
M  V30 9178 C 868.44 1.53351 -4.15931 0
M  V30 9179 H 865.66 0.0818131 -0.665994 0
M  V30 9180 H 868.204 -0.397795 -2.00594 0
M  V30 9181 H 866.359 1.54503 -3.55257 0
M  V30 9182 H 866.773 0.116593 -5.2437 0
M  V30 9183 H 868.247 1.82643 -5.20908 0
M  V30 9184 H 868.724 2.4626 -3.63666 0
M  V30 9185 H 869.33 0.87506 -4.162 0
M  V30 9186 N 867.645 1.57599 0.00500368 0
M  V30 9187 C 868.575 2.11143 0.99705 0
M  V30 9188 C 869.556 1.0194 1.3617 0
M  V30 9189 O 870.741 1.29596 1.44632 0
M  V30 9190 C 867.871 2.61062 2.2905 0
M  V30 9191 C 866.825 3.74745 2.0676 0
M  V30 9192 C 866.151 4.10961 3.42075 0
M  V30 9193 C 867.451 5.02222 1.43424 0
M  V30 9194 H 869.145 2.94281 0.551251 0
M  V30 9195 H 866.691 1.41565 0.263715 0
M  V30 9196 H 868.644 2.97146 2.98801 0
M  V30 9197 H 867.368 1.75038 2.75734 0
M  V30 9198 H 866.027 3.39047 1.39436 0
M  V30 9199 H 865.675 3.21968 3.86453 0
M  V30 9200 H 865.375 4.87549 3.27979 0
M  V30 9201 H 866.899 4.49599 4.1315 0
M  V30 9202 H 868.313 5.36109 2.03125 0
M  V30 9203 H 866.71 5.83581 1.39831 0
M  V30 9204 H 867.78 4.83224 0.40285 0
M  V30 9205 N 869.123 -0.277682 1.55134 0
M  V30 9206 C 870.539 -0.624625 1.46869 0
M  V30 9207 C 870.739 -1.89717 0.678958 0
M  V30 9208 O 869.795 -2.51739 0.195939 0
M  V30 9209 C 871.108 -0.755937 2.91043 0
M  V30 9210 C 872.656 -0.850299 3.01229 0
M  V30 9211 C 873.131 -1.01343 4.46647 0
M  V30 9212 N 874.622 -1.07906 4.50456 0
M  V30 9213 C 875.357 -1.224 5.60184 0
M  V30 9214 N 874.853 -1.33642 6.79788 0
M  V30 9215 N 876.646 -1.25473 5.47917 0
M  V30 9216 H 868.797 0.558102 2.04937 0
M  V30 9217 H 871.06 0.188228 0.929125 0
M  V30 9218 H 870.766 0.108593 3.51532 0
M  V30 9219 H 870.64 -1.6377 3.39793 0
M  V30 9220 H 873.027 -1.7053 2.40839 0
M  V30 9221 H 873.108 0.0559681 2.55739 0
M  V30 9222 H 872.752 -0.163102 5.07638 0
M  V30 9223 H 872.682 -1.93427 4.89789 0
M  V30 9224 H 875.173 -1.00477 3.64298 0
M  V30 9225 H 875.486 -1.44522 7.59166 0
M  V30 9226 H 873.831 -1.30655 6.82608 0
M  V30 9227 H 877.022 -1.16317 4.53418 0
M  V30 9228 H 877.195 -1.36424 6.33476 0
M  V30 9229 N 870.601 -1.47988 -0.541979 0
M  V30 9230 C 871.533 -1.5769 -1.66332 0
M  V30 9231 C 872.546 -0.461994 -1.56107 0
M  V30 9232 O 873.735 -0.732306 -1.62787 0
M  V30 9233 C 870.835 -1.47939 -3.04905 0
M  V30 9234 C 870.008 -2.74263 -3.40733 0
M  V30 9235 C 869.067 -2.58133 -4.58534 0
M  V30 9236 O 868.093 -3.31991 -4.62354 0
M  V30 9237 N 869.295 -1.6696 -5.55972 0
M  V30 9238 H 872.06 -2.54389 -1.5845 0
M  V30 9239 H 869.621 -1.4456 -0.728979 0
M  V30 9240 H 871.613 -1.34861 -3.81569 0
M  V30 9241 H 870.183 -0.592626 -3.06931 0
M  V30 9242 H 869.403 -3.01992 -2.53366 0
M  V30 9243 H 870.691 -3.58094 -3.6145 0
M  V30 9244 H 870.089 -1.06134 -5.55655 0
M  V30 9245 H 868.646 -1.59826 -6.31901 0
M  V30 9246 N 872.079 0.78992 -1.36375 0
M  V30 9247 C 873.042 1.88414 -1.30509 0
M  V30 9248 C 874.042 1.59384 -0.2129 0
M  V30 9249 O 875.232 1.67805 -0.467651 0
M  V30 9250 C 872.364 3.25188 -1.02302 0
M  V30 9251 H 873.557 1.95031 -2.27822 0
M  V30 9252 H 871.11 0.987664 -1.2114 0
M  V30 9253 H 871.845 3.24254 -0.0544486 0
M  V30 9254 H 871.63 3.47647 -1.81338 0
M  V30 9255 H 873.12 4.05252 -1.00801 0
M  V30 9256 N 873.557 1.20646 1.01402 0
M  V30 9257 C 874.834 0.927176 1.72229 0
M  V30 9258 C 875.214 -0.563382 2.03443 0
M  V30 9259 O 874.562 -1.52576 1.70096 0
M  V30 9260 C 874.772 1.80285 2.98828 0
M  V30 9261 C 876.12 2.04624 3.72041 0
M  V30 9262 O 877.144 1.77559 3.0879 0
M  V30 9263 O 876.003 2.50347 4.85787 0
M  V30 9264 H 873.097 0.346891 0.75073 0
M  V30 9265 H 875.643 1.31532 1.07227 0
M  V30 9266 H 874.415 2.81204 2.72102 0
M  V30 9267 H 874.038 1.41495 3.71571 0
M  V30 9268 N 875.035 -1.20752 1.01276 0
M  V30 9269 C 876.282 -1.90021 0.699887 0
M  V30 9270 C 876.61 -1.78604 -0.770113 0
M  V30 9271 O 875.865 -1.16195 -1.57471 0
M  V30 9272 C 876.164 -3.40808 1.07633 0
M  V30 9273 C 875.83 -3.72423 2.54189 0
M  V30 9274 C 874.492 -3.80762 2.94234 0
M  V30 9275 C 876.844 -3.87025 3.49086 0
M  V30 9276 C 874.172 -4.01158 4.28123 0
M  V30 9277 C 876.524 -4.0893 4.82658 0
M  V30 9278 C 875.188 -4.15498 5.22415 0
M  V30 9279 H 874.458 -0.695335 0.256107 0
M  V30 9280 H 877.105 -1.43096 1.27263 0
M  V30 9281 H 875.41 -3.89521 0.421944 0
M  V30 9282 H 877.107 -3.92693 0.811997 0
M  V30 9283 H 873.697 -3.66529 2.22158 0
M  V30 9284 H 877.881 -3.79942 3.19309 0
M  V30 9285 H 873.137 -4.04476 4.58486 0
M  V30 9286 H 877.311 -4.19172 5.56119 0
M  V30 9287 H 874.938 -4.31055 6.26176 0
M  V30 9288 N 876.513 -0.788492 -1.36457 0
M  V30 9289 C 877.423 -0.187385 -2.3385 0
M  V30 9290 C 878.439 0.659984 -1.60998 0
M  V30 9291 O 879.615 0.575986 -1.92988 0
M  V30 9292 C 876.68 0.668525 -3.40194 0
M  V30 9293 C 875.741 -0.197234 -4.28847 0
M  V30 9294 C 874.974 0.61792 -5.30111 0
M  V30 9295 O 875.197 1.85396 -5.3943 0
M  V30 9296 O 874.131 0.0183016 -6.01897 0
M  V30 9297 H 877.957 -0.992617 -2.87021 0
M  V30 9298 H 875.542 -0.549934 -1.3891 0
M  V30 9299 H 877.424 1.15663 -4.05216 0
M  V30 9300 H 876.099 1.45166 -2.89324 0
M  V30 9301 H 875.006 -0.73207 -3.66867 0
M  V30 9302 H 876.339 -0.943863 -4.83065 0
M  V30 9303 N 877.991 1.48044 -0.54043 0
M  V30 9304 C 878.954 2.28273 0.205966 0
M  V30 9305 C 879.954 1.35983 0.858209 0
M  V30 9306 O 881.144 1.58776 0.716651 0
M  V30 9307 C 878.276 3.15174 1.29917 0
M  V30 9308 H 879.469 2.95727 -0.498555 0
M  V30 9309 H 877.022 1.53457 -0.296745 0
M  V30 9310 H 877.757 2.52374 2.03661 0
M  V30 9311 H 877.542 3.83074 0.836475 0
M  V30 9312 H 879.032 3.75666 1.82387 0
M  V30 9313 N 879.47 0.276058 1.55163 0
M  V30 9314 C 880.42 -0.625549 2.19251 0
M  V30 9315 C 881.404 -1.11769 1.15744 0
M  V30 9316 O 882.596 -1.0626 1.41555 0
M  V30 9317 C 879.725 -1.80879 2.91784 0
M  V30 9318 C 878.811 -1.33379 4.0258 0
M  V30 9319 N 879.202 -0.575002 5.02521 0
M  V30 9320 C 877.5 -1.61666 4.15668 0
M  V30 9321 C 878.201 -0.325164 5.8079 0
M  V30 9322 N 877.177 -0.897851 5.36134 0
M  V30 9323 H 880.979 -0.0379943 2.93875 0
M  V30 9324 H 878.493 0.079661 1.62205 0
M  V30 9325 H 880.49 -2.466 3.36146 0
M  V30 9326 H 879.15 -2.40028 2.1867 0
M  V30 9327 H 880.161 -0.222256 5.17423 0
M  V30 9328 H 876.838 -2.21745 3.53745 0
M  V30 9329 H 878.228 0.282598 6.71305 0
M  V30 9330 N 880.948 -1.576 0.00335426 0
M  V30 9331 C 881.896 -2.09759 -1.00517 0
M  V30 9332 C 882.89 -1.01833 -1.35375 0
M  V30 9333 O 884.096 -1.20294 -1.339 0
M  V30 9334 H 880.471 -0.669821 -0.341825 0
M  V30 9335 H 882.442 -2.93478 -0.539718 0
M  V30 9336 C 881.191 -2.6189 -2.28711 0
M  V30 9337 H 880.514 -3.44571 -2.02758 0
M  V30 9338 H 881.954 -3.02061 -2.97548 0
M  V30 9339 C 880.413 -1.53455 -2.99922 0
M  V30 9340 O 880.943 -0.919402 -3.91037 0
M  V30 9341 N 879.149 -1.2612 -2.61806 0
M  V30 9342 H 878.696 -1.76329 -1.87792 0
M  V30 9343 H 878.654 -0.537872 -3.09765 0
M  V30 9344 N 882.426 0.269451 -1.5528 0
M  V30 9345 C 883.675 0.998381 -1.75258 0
M  V30 9346 C 883.988 1.87321 -0.563034 0
M  V30 9347 O 885.194 2.63719 -0.645313 0
M  V30 9348 C 883.65 1.82505 -3.10193 0
M  V30 9349 C 883.258 0.99871 -4.36726 0
M  V30 9350 C 885.002 2.54807 -3.3952 0
M  V30 9351 C 882.909 1.81997 -5.627 0
M  V30 9352 H 881.839 0.376488 -0.653278 0
M  V30 9353 H 884.49 0.253909 -1.81735 0
M  V30 9354 H 882.872 2.61061 -2.97763 0
M  V30 9355 H 884.046 0.257064 -4.60082 0
M  V30 9356 H 882.361 0.390074 -4.14569 0
M  V30 9357 H 884.958 3.16662 -4.30847 0
M  V30 9358 H 885.301 3.25273 -2.59813 0
M  V30 9359 H 885.834 1.83278 -3.53064 0
M  V30 9360 H 882.573 1.15945 -6.45164 0
M  V30 9361 H 882.093 2.53749 -5.43481 0
M  V30 9362 H 883.772 2.39274 -6.0113 0
M  V30 9363 N 883.904 1.48273 0.534124 0
M  V30 9364 C 884.834 1.6538 1.64839 0
M  V30 9365 C 885.815 0.502741 1.62501 0
M  V30 9366 O 887 0.734799 1.79762 0
M  V30 9367 C 884.13 1.68949 3.03436 0
M  V30 9368 C 883.084 2.83513 3.20631 0
M  V30 9369 C 882.41 2.72169 4.60248 0
M  V30 9370 C 883.71 4.24858 3.03797 0
M  V30 9371 H 885.404 2.58663 1.50777 0
M  V30 9372 H 882.95 1.24479 0.723937 0
M  V30 9373 H 884.903 1.79505 3.81256 0
M  V30 9374 H 883.627 0.722415 3.1851 0
M  V30 9375 H 882.286 2.72505 2.45227 0
M  V30 9376 H 881.934 1.7344 4.72152 0
M  V30 9377 H 881.634 3.49042 4.72698 0
M  V30 9378 H 883.158 2.84687 5.40172 0
M  V30 9379 H 884.572 4.36721 3.71413 0
M  V30 9380 H 882.969 5.02697 3.27743 0
M  V30 9381 H 884.039 4.41611 2.0027 0
M  V30 9382 N 885.382 -0.782676 1.36792 0
M  V30 9383 C 886.798 -1.08169 1.17352 0
M  V30 9384 C 886.998 -2.015 0.0022037 0
M  V30 9385 O 886.054 -2.43692 -0.661093 0
M  V30 9386 C 887.367 -1.68969 2.48737 0
M  V30 9387 C 888.915 -1.81278 2.55161 0
M  V30 9388 C 889.39 -2.45492 3.86649 0
M  V30 9389 N 890.881 -2.52954 3.88032 0
M  V30 9390 C 891.616 -3.03465 4.86515 0
M  V30 9391 N 891.112 -3.54232 5.95392 0
M  V30 9392 N 892.905 -3.02239 4.73928 0
M  V30 9393 H 885.056 -0.162757 2.11775 0
M  V30 9394 H 887.319 -0.134823 0.938364 0
M  V30 9395 H 887.025 -1.07859 3.34753 0
M  V30 9396 H 886.899 -2.68397 2.65034 0
M  V30 9397 H 889.286 -2.41524 1.69559 0
M  V30 9398 H 889.367 -0.806367 2.42758 0
M  V30 9399 H 889.011 -1.85889 4.7266 0
M  V30 9400 H 888.941 -3.46718 3.96351 0
M  V30 9401 H 891.432 -2.17014 3.09376 0
M  V30 9402 H 891.745 -3.91145 6.66503 0
M  V30 9403 H 890.09 -3.52366 5.99052 0
M  V30 9404 H 893.281 -2.61871 3.87996 0
M  V30 9405 H 893.454 -3.41295 5.50837 0
M  V30 9406 N 886.86 -1.21182 -1.00761 0
M  V30 9407 C 887.77 -0.984691 -2.12934 0
M  V30 9408 C 888.786 0.0623657 -1.73888 0
M  V30 9409 O 889.962 -0.1271 -2.00999 0
M  V30 9410 C 887.027 -0.549447 -3.42319 0
M  V30 9411 C 886.088 -1.66841 -3.95553 0
M  V30 9412 C 885.321 -1.25384 -5.18763 0
M  V30 9413 O 885.544 -0.126333 -5.7026 0
M  V30 9414 O 884.478 -2.06475 -5.65377 0
M  V30 9415 H 888.304 -1.92413 -2.3497 0
M  V30 9416 H 885.889 -0.99647 -1.11314 0
M  V30 9417 H 887.771 -0.316384 -4.20211 0
M  V30 9418 H 886.446 0.361304 -3.21677 0
M  V30 9419 H 885.353 -1.95585 -3.189 0
M  V30 9420 H 886.686 -2.55649 -4.206 0
M  V30 9421 N 888.338 1.20213 -1.01915 0
M  V30 9422 C 889.563 1.94163 -0.729076 0
M  V30 9423 C 889.988 1.74416 0.704323 0
M  V30 9424 O 889.346 1.0401 1.48498 0
M  V30 9425 C 889.394 3.44258 -1.07324 0
M  V30 9426 O 888.498 4.11979 -0.186367 0
M  V30 9427 H 887.839 0.606506 -0.270272 0
M  V30 9428 H 890.369 1.52571 -1.3632 0
M  V30 9429 H 890.379 3.94888 -1.02603 0
M  V30 9430 H 889.054 3.57954 -2.11759 0
M  V30 9431 H 887.631 3.7176 -0.291334 0
M  V30 9432 N 889.816 0.795718 1.36037 0
M  V30 9433 C 891.064 0.370291 1.98679 0
M  V30 9434 C 891.385 -1.06332 1.63458 0
M  V30 9435 O 890.655 -1.73394 0.911671 0
M  V30 9436 H 889.235 0.133928 0.734896 0
M  V30 9437 H 891.897 1.01915 1.6613 0
M  V30 9438 H 890.993 0.467207 3.08583 0
M  V30 9439 N 891.294 -1.47756 0.548274 0
M  V30 9440 C 892.524 -2.06584 0.0254503 0
M  V30 9441 C 892.932 -1.40268 -1.26971 0
M  V30 9442 O 892.275 -0.49019 -1.77039 0
M  V30 9443 C 892.337 -3.58628 -0.250301 0
M  V30 9444 C 892.001 -4.4693 0.954087 0
M  V30 9445 C 892.998 -4.85592 1.85733 0
M  V30 9446 C 890.683 -4.88573 1.16624 0
M  V30 9447 C 892.677 -5.64686 2.95648 0
M  V30 9448 C 890.364 -5.67435 2.2685 0
M  V30 9449 C 891.362 -6.05401 3.16194 0
M  V30 9450 O 891.05 -6.82676 4.24511 0
M  V30 9451 H 890.782 -0.67489 0.0387264 0
M  V30 9452 H 893.336 -1.90876 0.758663 0
M  V30 9453 H 891.566 -3.72516 -1.03771 0
M  V30 9454 H 893.255 -3.9951 -0.717419 0
M  V30 9455 H 894.021 -4.54026 1.70544 0
M  V30 9456 H 889.9 -4.58494 0.480039 0
M  V30 9457 H 893.444 -5.9424 3.65411 0
M  V30 9458 H 889.341 -5.98413 2.42016 0
M  V30 9459 H 890.109 -7.01057 4.22447 0
M  V30 9460 N 892.772 -0.284283 -1.55015 0
M  V30 9461 C 893.735 0.586182 -2.21577 0
M  V30 9462 C 894.735 1.07427 -1.1965 0
M  V30 9463 O 895.925 0.972977 -1.44495 0
M  V30 9464 C 893.057 1.80973 -2.88897 0
M  V30 9465 H 894.25 0.00487253 -2.999 0
M  V30 9466 H 891.803 -0.0349696 -1.56261 0
M  V30 9467 H 892.538 2.43131 -2.14611 0
M  V30 9468 H 892.323 1.46757 -3.636 0
M  V30 9469 H 893.813 2.42853 -3.39724 0
M  V30 9470 N 894.251 1.57596 -0.0117121 0
M  V30 9471 C 895.499 1.90694 0.669342 0
M  V30 9472 C 895.82 0.886999 1.73659 0
M  V30 9473 O 895.09 -0.0739779 1.9576 0
M  V30 9474 H 893.67 0.703846 0.250219 0
M  V30 9475 H 896.332 1.94821 -0.0554057 0
M  V30 9476 H 895.428 2.90802 1.13316 0
M  V30 9477 N 895.729 -0.261212 1.5542 0
M  V30 9478 C 896.676 -1.32315 1.89107 0
M  V30 9479 C 897.646 -1.48517 0.743767 0
M  V30 9480 O 898.831 -1.62733 0.996123 0
M  V30 9481 C 895.971 -2.67626 2.17877 0
M  V30 9482 C 895.084 -2.59549 3.45338 0
M  V30 9483 C 894.219 -3.87118 3.63748 0
M  V30 9484 C 893.258 -3.736 4.8486 0
M  V30 9485 N 892.395 -4.93029 4.99867 0
M  V30 9486 H 897.235 -1.02886 2.79675 0
M  V30 9487 H 894.772 -0.496812 1.38456 0
M  V30 9488 H 896.73 -3.4637 2.32559 0
M  V30 9489 H 895.36 -2.95232 1.30529 0
M  V30 9490 H 894.412 -1.72452 3.39064 0
M  V30 9491 H 895.724 -2.45465 4.34222 0
M  V30 9492 H 894.878 -4.74305 3.78312 0
M  V30 9493 H 893.617 -4.04084 2.73071 0
M  V30 9494 H 892.622 -2.84797 4.70288 0
M  V30 9495 H 893.847 -3.58143 5.76984 0
M  V30 9496 H 891.793 -5.10383 4.12123 0
M  V30 9497 H 891.71 -4.81521 5.82815 0
M  V30 9498 H 892.978 -5.81754 5.18828 0
M  V30 9499 N 897.207 -1.48554 -0.526253 0
M  V30 9500 C 898.456 -1.56014 -1.27837 0
M  V30 9501 C 898.769 -0.240643 -1.94114 0
M  V30 9502 O 899.975 -0.193525 -2.70809 0
M  V30 9503 C 898.431 -2.75161 -2.31979 0
M  V30 9504 C 898.039 -4.13768 -1.71755 0
M  V30 9505 C 899.783 -2.91936 -3.08178 0
M  V30 9506 C 897.69 -5.24171 -2.7386 0
M  V30 9507 H 896.62 -0.58082 -0.480795 0
M  V30 9508 H 899.271 -1.74895 -0.555335 0
M  V30 9509 H 897.653 -2.49722 -3.07335 0
M  V30 9510 H 898.827 -4.49241 -1.02563 0
M  V30 9511 H 897.142 -4.02141 -1.08036 0
M  V30 9512 H 899.739 -3.71586 -3.84484 0
M  V30 9513 H 900.082 -2.01533 -3.64267 0
M  V30 9514 H 900.615 -3.17294 -2.39937 0
M  V30 9515 H 897.354 -6.16552 -2.22586 0
M  V30 9516 H 896.874 -4.93181 -3.41368 0
M  V30 9517 H 898.553 -5.52442 -3.36774 0
M  V30 9518 N 898.685 0.775411 -1.37205 0
M  V30 9519 C 899.91 1.5696 -1.35567 0
M  V30 9520 C 900.335 1.88012 0.0575554 0
M  V30 9521 O 899.693 1.48954 1.03355 0
M  V30 9522 C 899.741 2.85886 -2.19776 0
M  V30 9523 O 898.845 3.80103 -1.59987 0
M  V30 9524 H 898.186 0.475583 -0.463375 0
M  V30 9525 H 900.716 0.96001 -1.80679 0
M  V30 9526 H 900.726 3.35024 -2.32859 0
M  V30 9527 H 899.401 2.62613 -3.22502 0
M  V30 9528 H 897.978 3.38736 -1.55924 0
M  V30 9529 N 900.163 1.21714 1.00117 0
M  V30 9530 C 901.095 0.937627 2.09144 0
M  V30 9531 C 902.108 -0.0806291 1.626 0
M  V30 9532 O 903.297 0.152348 1.77849 0
M  V30 9533 C 900.397 0.387036 3.36683 0
M  V30 9534 C 899.57 1.46054 4.12295 0
M  V30 9535 C 898.629 0.918505 5.18122 0
M  V30 9536 O 897.655 1.60282 5.46167 0
M  V30 9537 N 898.857 -0.264308 5.79898 0
M  V30 9538 H 901.622 1.87622 2.33705 0
M  V30 9539 H 899.183 1.12291 1.16629 0
M  V30 9540 H 901.175 0.00992825 4.04699 0
M  V30 9541 H 899.745 -0.456467 3.09249 0
M  V30 9542 H 898.965 2.01133 3.39027 0
M  V30 9543 H 900.253 2.18306 4.59587 0
M  V30 9544 H 899.651 -0.837242 5.5947 0
M  V30 9545 H 898.208 -0.582886 6.49188 0
M  V30 9546 N 901.641 -1.19671 1.02551 0
M  V30 9547 C 902.574 -2.21522 0.547998 0
M  V30 9548 C 903.552 -1.57363 -0.409349 0
M  V30 9549 O 904.736 -1.85638 -0.327248 0
M  V30 9550 C 901.863 -3.38101 -0.201375 0
M  V30 9551 C 900.909 -4.20601 0.706886 0
M  V30 9552 S 901.742 -4.89066 2.18116 0
M  V30 9553 C 902.898 -6.09058 1.4422 0
M  V30 9554 H 903.131 -2.61684 1.41099 0
M  V30 9555 H 900.664 -1.29864 0.835153 0
M  V30 9556 H 902.622 -4.05674 -0.627607 0
M  V30 9557 H 901.283 -2.96381 -1.04005 0
M  V30 9558 H 900.476 -5.03836 0.128554 0
M  V30 9559 H 900.078 -3.58329 1.07129 0
M  V30 9560 H 902.37 -6.73588 0.726975 0
M  V30 9561 H 903.313 -6.71368 2.25102 0
M  V30 9562 H 903.721 -5.56599 0.941176 0
M  V30 9563 N 903.119 -0.802921 -1.35613 0
M  V30 9564 C 904.53 -0.443004 -1.81368 0
M  V30 9565 C 904.881 1.03459 -1.66706 0
M  V30 9566 O 904.006 1.80372 -1.19561 0
M  V30 9567 C 904.601 -0.797324 -3.29284 0
M  V30 9568 C 903.16 -0.490055 -3.73196 0
M  V30 9569 C 902.307 -1.02487 -2.57666 0
M  V30 9570 H 905.258 -0.994888 -1.23643 0
M  V30 9571 H 905.279 -0.0934638 -3.80385 0
M  V30 9572 H 904.791 -1.87278 -3.39924 0
M  V30 9573 H 902.892 0.576818 -3.68108 0
M  V30 9574 H 903.005 -1.02012 -4.68114 0
M  V30 9575 H 901.369 -0.44738 -2.5074 0
M  V30 9576 H 902.152 -2.10636 -2.71085 0
M  V30 9577 N 904.597 1.47463 -0.556102 0
M  V30 9578 C 905.843 2.02775 -0.0316806 0
M  V30 9579 C 906.176 1.42967 1.3143 0
M  V30 9580 O 905.451 0.584847 1.85499 0
M  V30 9581 C 905.734 3.60046 0.0625742 0
M  V30 9582 C 905.587 4.30288 -1.31043 0
M  V30 9583 C 906.906 4.33195 0.776553 0
M  V30 9584 H 904.025 0.736886 -0.0129869 0
M  V30 9585 H 906.667 1.75904 -0.718177 0
M  V30 9586 H 904.817 3.83071 0.647231 0
M  V30 9587 H 906.489 4.18607 -1.9382 0
M  V30 9588 H 904.732 3.90685 -1.8854 0
M  V30 9589 H 905.403 5.38861 -1.1972 0
M  V30 9590 H 907.879 4.15156 0.280147 0
M  V30 9591 H 906.755 5.42869 0.81146 0
M  V30 9592 H 907.016 4.02336 1.83244 0
M  V30 9593 N 906.075 0.2925 1.54862 0
M  V30 9594 C 907.324 -0.319994 1.99146 0
M  V30 9595 C 907.637 -1.55658 1.18448 0
M  V30 9596 O 908.843 -2.24312 1.52959 0
M  V30 9597 C 907.299 -0.620665 3.54508 0
M  V30 9598 C 906.907 0.597098 4.44003 0
M  V30 9599 C 908.651 -1.19482 4.07338 0
M  V30 9600 C 906.558 0.270049 5.90783 0
M  V30 9601 H 905.488 -0.123342 0.743843 0
M  V30 9602 H 908.139 0.399876 1.7909 0
M  V30 9603 H 906.521 -1.3999 3.7043 0
M  V30 9604 H 907.695 1.37354 4.39853 0
M  V30 9605 H 906.01 1.0893 4.019 0
M  V30 9606 H 908.607 -1.45362 5.14562 0
M  V30 9607 H 908.95 -2.13435 3.57423 0
M  V30 9608 H 909.483 -0.477485 3.94924 0
M  V30 9609 H 906.222 1.17791 6.4483 0
M  V30 9610 H 905.742 -0.469292 5.97961 0
M  V30 9611 H 907.421 -0.131471 6.46866 0
M  V30 9612 N 907.553 -1.57587 0.0200696 0
M  V30 9613 C 908.483 -2.12702 -0.963333 0
M  V30 9614 C 909.464 -1.04094 -1.34531 0
M  V30 9615 O 910.649 -1.31881 -1.42552 0
M  V30 9616 C 907.779 -2.64673 -2.24868 0
M  V30 9617 C 906.733 -3.77987 -2.00772 0
M  V30 9618 C 906.059 -4.16351 -3.35494 0
M  V30 9619 C 907.359 -5.0444 -1.35416 0
M  V30 9620 H 909.053 -2.95121 -0.504363 0
M  V30 9621 H 906.599 -1.41966 -0.24116 0
M  V30 9622 H 908.552 -3.01862 -2.94036 0
M  V30 9623 H 907.276 -1.79403 -2.72914 0
M  V30 9624 H 905.935 -3.41223 -1.34025 0
M  V30 9625 H 905.583 -3.28075 -3.81282 0
M  V30 9626 H 905.283 -4.92705 -3.20181 0
M  V30 9627 H 906.807 -4.56115 -4.05945 0
M  V30 9628 H 908.221 -5.39273 -1.94571 0
M  V30 9629 H 906.618 -5.85732 -1.30529 0
M  V30 9630 H 907.688 -4.83803 -0.325923 0
M  V30 9631 N 909.032 0.252966 -1.55557 0
M  V30 9632 C 910.26 0.999565 -1.81153 0
M  V30 9633 C 910.675 1.79181 -0.594955 0
M  V30 9634 O 910.032 1.77208 0.436311 0
M  V30 9635 C 910.083 1.94227 -3.04891 0
M  V30 9636 O 909.804 1.18209 -4.21851 0
M  V30 9637 C 911.305 2.80536 -3.43241 0
M  V30 9638 H 908.525 0.294402 -0.602966 0
M  V30 9639 H 911.069 0.277686 -2.02606 0
M  V30 9640 H 909.224 2.6185 -2.85505 0
M  V30 9641 H 909.638 1.81922 -4.9194 0
M  V30 9642 H 911.112 3.42442 -4.32941 0
M  V30 9643 H 911.589 3.51337 -2.6355 0
M  V30 9644 H 912.195 2.18373 -3.64956 0
M  V30 9645 N 910.51 1.48831 0.518367 0
M  V30 9646 C 911.921 1.50842 1.10016 0
M  V30 9647 C 912.272 0.284744 1.94123 0
M  V30 9648 O 911.397 -0.607088 2.0771 0
M  V30 9649 C 911.992 2.73329 2.00191 0
M  V30 9650 C 910.551 2.78175 2.53566 0
M  V30 9651 C 909.698 2.4452 1.30786 0
M  V30 9652 H 912.649 1.55779 0.303073 0
M  V30 9653 H 912.67 2.52506 2.84642 0
M  V30 9654 H 912.182 3.62374 1.3895 0
M  V30 9655 H 910.283 1.93368 3.18496 0
M  V30 9656 H 910.396 3.79905 2.91906 0
M  V30 9657 H 908.76 1.95924 1.62744 0
M  V30 9658 H 909.543 3.35819 0.712797 0
M  V30 9659 N 911.988 -0.768124 1.37614 0
M  V30 9660 C 912.918 -1.89537 1.36374 0
M  V30 9661 C 913.899 -1.68513 0.231803 0
M  V30 9662 O 915.084 -1.89318 0.432705 0
M  V30 9663 C 912.214 -3.26871 1.17358 0
M  V30 9664 C 911.168 -3.62466 2.27602 0
M  V30 9665 C 910.494 -4.9838 1.93705 0
M  V30 9666 C 911.794 -3.68841 3.69802 0
M  V30 9667 H 913.488 -1.90832 2.30702 0
M  V30 9668 H 911.034 -0.91672 1.11051 0
M  V30 9669 H 912.987 -4.05371 1.15119 0
M  V30 9670 H 911.711 -3.26018 0.194865 0
M  V30 9671 H 910.37 -2.86276 2.29002 0
M  V30 9672 H 910.018 -4.94071 0.943539 0
M  V30 9673 H 909.718 -5.23165 2.6753 0
M  V30 9674 H 911.242 -5.79276 1.93059 0
M  V30 9675 H 912.656 -4.37485 3.70513 0
M  V30 9676 H 911.053 -4.05126 4.42711 0
M  V30 9677 H 912.123 -2.69415 4.03167 0
M  V30 9678 N 913.466 -1.22244 -0.994698 0
M  V30 9679 C 914.416 -0.958244 -2.06886 0
M  V30 9680 C 915.4 0.0904481 -1.60646 0
M  V30 9681 O 916.592 -0.119837 -1.76594 0
M  V30 9682 C 913.721 -0.535944 -3.39091 0
M  V30 9683 C 912.807 -1.61927 -3.9197 0
M  V30 9684 N 913.198 -2.84659 -4.18094 0
M  V30 9685 C 911.496 -1.49053 -4.20356 0
M  V30 9686 C 912.197 -3.54697 -4.61048 0
M  V30 9687 N 911.173 -2.82164 -4.64634 0
M  V30 9688 H 914.975 -1.89056 -2.25022 0
M  V30 9689 H 912.489 -1.1197 -1.17629 0
M  V30 9690 H 914.486 -0.327997 -4.15608 0
M  V30 9691 H 913.146 0.38949 -3.22355 0
M  V30 9692 H 914.157 -3.21104 -4.06341 0
M  V30 9693 H 910.834 -0.631154 -4.12702 0
M  V30 9694 H 912.224 -4.59837 -4.89898 0
M  V30 9695 N 914.944 1.19125 -1.03184 0
M  V30 9696 C 916.191 1.88883 -0.730029 0
M  V30 9697 C 916.519 1.79807 0.741602 0
M  V30 9698 O 915.774 1.18686 1.55603 0
M  V30 9699 C 916.073 3.39052 -1.13041 0
M  V30 9700 C 915.739 3.68332 -2.60082 0
M  V30 9701 C 914.401 3.76033 -3.00254 0
M  V30 9702 C 916.753 3.81423 -3.55199 0
M  V30 9703 C 914.081 3.94296 -4.34451 0
M  V30 9704 C 916.433 4.012 -4.89103 0
M  V30 9705 C 915.097 4.07134 -5.28959 0
M  V30 9706 H 914.367 0.691172 -0.267137 0
M  V30 9707 H 917.014 1.41053 -1.29523 0
M  V30 9708 H 915.319 3.88801 -0.48386 0
M  V30 9709 H 917.016 3.91351 -0.874368 0
M  V30 9710 H 913.606 3.62948 -2.27961 0
M  V30 9711 H 917.79 3.74814 -3.25313 0
M  V30 9712 H 913.046 3.97131 -4.64863 0
M  V30 9713 H 917.22 4.10271 -5.62717 0
M  V30 9714 H 914.847 4.21038 -6.32954 0
M  V30 9715 N 916.422 0.810101 1.35185 0
M  V30 9716 C 917.699 0.315235 1.93043 0
M  V30 9717 C 918.079 -1.19567 1.73974 0
M  V30 9718 O 917.427 -1.99682 1.11083 0
M  V30 9719 C 917.637 0.730492 3.41269 0
M  V30 9720 C 918.985 0.721985 4.18417 0
M  V30 9721 O 920.009 0.672258 3.49799 0
M  V30 9722 O 918.868 0.783535 5.40854 0
M  V30 9723 H 915.962 0.0832774 0.822796 0
M  V30 9724 H 918.508 0.894034 1.4424 0
M  V30 9725 H 917.28 1.77169 3.48894 0
M  V30 9726 H 916.903 0.12669 3.97398 0
M  V30 9727 N 917.9 -1.47166 0.563914 0
M  V30 9728 C 919.316 -1.58018 0.224173 0
M  V30 9729 C 919.516 -1.56163 -1.27339 0
M  V30 9730 O 918.572 -1.4686 -2.05398 0
M  V30 9731 C 919.885 -2.88236 0.856762 0
M  V30 9732 C 921.433 -3.01833 0.82861 0
M  V30 9733 C 921.908 -4.34761 1.44039 0
M  V30 9734 N 923.399 -4.41413 1.40388 0
M  V30 9735 C 924.134 -5.42845 1.84681 0
M  V30 9736 N 923.63 -6.51052 2.3686 0
M  V30 9737 N 925.423 -5.33931 1.75711 0
M  V30 9738 H 917.574 -1.46615 1.53681 0
M  V30 9739 H 919.837 -0.698195 0.64127 0
M  V30 9740 H 919.543 -2.95349 1.90949 0
M  V30 9741 H 919.417 -3.75537 0.353766 0
M  V30 9742 H 921.804 -2.94312 -0.215451 0
M  V30 9743 H 921.885 -2.16056 1.36943 0
M  V30 9744 H 921.529 -4.43037 2.48355 0
M  V30 9745 H 921.459 -5.1928 0.874953 0
M  V30 9746 H 923.95 -3.63811 1.02227 0
M  V30 9747 H 924.263 -7.24633 2.68564 0
M  V30 9748 H 922.608 -6.51924 2.40875 0
M  V30 9749 H 925.799 -4.48295 1.34718 0
M  V30 9750 H 925.972 -6.12841 2.10547 0
M  V30 9751 N 919.378 -0.300708 -1.54705 0
M  V30 9752 C 920.655 0.361757 -1.92226 0
M  V30 9753 C 921.035 1.71714 -1.2279 0
M  V30 9754 O 920.383 2.2559 -0.363542 0
M  V30 9755 C 920.593 0.476699 -3.45729 0
M  V30 9756 C 921.941 0.7477 -4.17965 0
M  V30 9757 O 922.965 0.560521 -3.51762 0
M  V30 9758 O 921.824 1.10724 -5.35166 0
M  V30 9759 H 918.918 0.202213 -0.801897 0
M  V30 9760 H 921.464 -0.348746 -1.66078 0
M  V30 9761 H 920.236 -0.476132 -3.88392 0
M  V30 9762 H 919.859 1.23568 -3.77911 0
M  V30 9763 N 920.856 1.57574 -0.0284266 0
M  V30 9764 C 922.267 1.79585 0.510502 0
M  V30 9765 C 922.618 0.938625 1.72291 0
M  V30 9766 O 921.743 0.14884 2.15888 0
M  V30 9767 C 922.338 3.25703 0.932912 0
M  V30 9768 C 920.897 3.48711 1.41696 0
M  V30 9769 C 920.044 2.74665 0.381356 0
M  V30 9770 H 922.995 1.56647 -0.254464 0
M  V30 9771 H 923.016 3.35376 1.79731 0
M  V30 9772 H 922.528 3.88067 0.0503036 0
M  V30 9773 H 920.629 2.91597 2.31952 0
M  V30 9774 H 920.742 4.57423 1.42481 0
M  V30 9775 H 919.106 2.40123 0.8493 0
M  V30 9776 H 919.889 3.39745 -0.492775 0
M  V30 9777 N 922.334 -0.244713 1.55689 0
M  V30 9778 C 923.264 -1.30667 1.93516 0
M  V30 9779 C 924.245 -1.50094 0.800371 0
M  V30 9780 O 925.43 -1.62665 1.06083 0
M  V30 9781 C 922.56 -2.66101 2.23176 0
M  V30 9782 C 921.514 -2.61366 3.38927 0
M  V30 9783 C 920.84 -4.00616 3.54134 0
M  V30 9784 C 922.14 -2.18161 4.74555 0
M  V30 9785 H 923.834 -0.992546 2.82469 0
M  V30 9786 H 921.38 -0.476018 1.35905 0
M  V30 9787 H 923.333 -3.4053 2.48228 0
M  V30 9788 H 922.057 -2.99154 1.31051 0
M  V30 9789 H 920.716 -1.89395 3.13887 0
M  V30 9790 H 920.364 -4.30938 2.59426 0
M  V30 9791 H 920.064 -3.98335 4.31975 0
M  V30 9792 H 921.588 -4.76741 3.8151 0
M  V30 9793 H 923.002 -2.82323 4.98965 0
M  V30 9794 H 921.399 -2.26988 5.55515 0
M  V30 9795 H 922.469 -1.13333 4.7147 0
M  V30 9796 N 923.813 -1.49104 -0.510467 0
M  V30 9797 C 924.745 -1.61183 -1.6295 0
M  V30 9798 C 925.758 -0.495003 -1.55092 0
M  V30 9799 O 926.947 -0.766671 -1.61197 0
M  V30 9800 C 924.047 -1.54373 -3.01699 0
M  V30 9801 C 923.22 -2.81428 -3.34838 0
M  V30 9802 C 922.279 -2.67802 -4.52956 0
M  V30 9803 O 921.305 -3.41723 -4.55208 0
M  V30 9804 N 922.507 -1.78715 -5.52305 0
M  V30 9805 H 925.272 -2.57693 -1.53018 0
M  V30 9806 H 922.833 -1.46073 -0.698152 0
M  V30 9807 H 924.825 -1.42924 -3.78622 0
M  V30 9808 H 923.395 -0.657597 -3.05605 0
M  V30 9809 H 922.615 -3.07299 -2.46903 0
M  V30 9810 H 923.903 -3.6568 -3.53773 0
M  V30 9811 H 923.301 -1.17897 -5.53278 0
M  V30 9812 H 921.858 -1.73194 -6.28369 0
M  V30 9813 N 925.291 0.760815 -1.38019 0
M  V30 9814 C 926.238 1.8744 -1.34666 0
M  V30 9815 C 927.208 1.64762 -0.210386 0
M  V30 9816 O 928.393 1.86528 -0.401479 0
M  V30 9817 C 925.533 3.24648 -1.17037 0
M  V30 9818 C 924.646 3.59206 -2.3999 0
M  V30 9819 C 923.781 4.8568 -2.15148 0
M  V30 9820 C 922.82 5.13002 -3.3391 0
M  V30 9821 N 921.957 6.30668 -3.08549 0
M  V30 9822 H 926.797 1.8964 -2.29871 0
M  V30 9823 H 924.334 0.927004 -1.14215 0
M  V30 9824 H 926.292 4.03814 -1.04834 0
M  V30 9825 H 924.922 3.21793 -0.254758 0
M  V30 9826 H 923.974 2.74939 -2.62893 0
M  V30 9827 H 925.286 3.75328 -3.28527 0
M  V30 9828 H 924.44 5.72773 -2.00039 0
M  V30 9829 H 923.179 4.71682 -1.23965 0
M  V30 9830 H 922.184 4.2438 -3.49545 0
M  V30 9831 H 923.409 5.28901 -4.25958 0
M  V30 9832 H 921.355 6.18008 -2.20006 0
M  V30 9833 H 921.272 6.47257 -3.90633 0
M  V30 9834 H 922.54 7.20669 -2.9708 0
M  V30 9835 N 926.769 1.22769 0.988202 0
M  V30 9836 C 927.701 0.959757 2.08138 0
M  V30 9837 C 928.714 -0.0633787 1.62677 0
M  V30 9838 O 929.903 0.171203 1.77677 0
M  V30 9839 C 927.003 0.422724 3.36253 0
M  V30 9840 C 926.176 1.50419 4.10722 0
M  V30 9841 C 925.235 0.973407 5.17118 0
M  V30 9842 O 924.261 1.66066 5.44436 0
M  V30 9843 N 925.463 -0.202787 5.80146 0
M  V30 9844 H 928.228 1.9009 2.31702 0
M  V30 9845 H 925.789 1.13522 1.15431 0
M  V30 9846 H 927.781 0.0528514 4.04665 0
M  V30 9847 H 926.351 -0.423642 3.09716 0
M  V30 9848 H 925.571 2.04718 3.36874 0
M  V30 9849 H 926.859 2.23169 4.57245 0
M  V30 9850 H 926.257 -0.777856 5.60327 0
M  V30 9851 H 924.814 -0.513998 6.4977 0
M  V30 9852 N 928.247 -1.18576 1.03814 0
M  V30 9853 C 929.658 -1.70159 0.768299 0
M  V30 9854 C 930.009 -1.8286 -0.711106 0
M  V30 9855 O 929.134 -1.5063 -1.55369 0
M  V30 9856 C 929.729 -3.09062 1.38804 0
M  V30 9857 C 928.288 -3.57866 1.16656 0
M  V30 9858 C 927.435 -2.34484 1.48029 0
M  V30 9859 H 930.386 -1.03287 1.20488 0
M  V30 9860 H 930.407 -3.72211 0.7899 0
M  V30 9861 H 929.919 -2.99785 2.46476 0
M  V30 9862 H 928.02 -3.72442 0.108471 0
M  V30 9863 H 928.133 -4.41445 1.8618 0
M  V30 9864 H 926.497 -2.38273 0.899902 0
M  V30 9865 H 927.28 -2.27829 2.56805 0
M  V30 9866 N 929.725 -0.817259 -1.34754 0
M  V30 9867 C 930.95 -0.414423 -2.03217 0
M  V30 9868 C 931.375 0.970037 -1.61158 0
M  V30 9869 O 930.733 1.63016 -0.793436 0
M  V30 9870 C 930.781 -0.518087 -3.56859 0
M  V30 9871 O 929.885 0.464314 -4.09778 0
M  V30 9872 H 929.226 -0.171454 -0.641482 0
M  V30 9873 H 931.756 -1.10611 -1.72123 0
M  V30 9874 H 931.766 -0.391779 -4.06115 0
M  V30 9875 H 930.441 -1.52786 -3.86819 0
M  V30 9876 H 929.018 0.297361 -3.71712 0
M  V30 9877 N 931.203 1.46865 -0.571711 0
M  V30 9878 C 932.443 2.04324 -0.0556487 0
M  V30 9879 C 932.807 1.43486 1.27576 0
M  V30 9880 O 934.008 1.92079 1.8804 0
M  V30 9881 C 932.279 3.57394 0.0206263 0
M  V30 9882 S 933.838 4.36159 0.480709 0
M  V30 9883 H 930.656 0.710273 -0.0321467 0
M  V30 9884 H 933.258 1.8005 -0.761725 0
M  V30 9885 H 931.962 3.99193 -0.952509 0
M  V30 9886 H 931.493 3.86188 0.749812 0
M  V30 9887 H 933.508 4.6478 1.73763 0
M  V30 9888 N 932.681 0.308908 1.54543 0
M  V30 9889 C 933.613 -0.597453 2.21276 0
M  V30 9890 C 934.626 -1.09137 1.20801 0
M  V30 9891 O 935.815 -1.00747 1.47351 0
M  V30 9892 C 932.915 -1.83085 2.85189 0
M  V30 9893 C 932.088 -1.4781 4.11669 0
M  V30 9894 C 931.147 -2.56748 4.59311 0
M  V30 9895 O 930.173 -2.21507 5.24331 0
M  V30 9896 N 931.375 -3.87427 4.32297 0
M  V30 9897 H 934.14 -0.0261183 2.99689 0
M  V30 9898 H 931.701 0.131456 1.61365 0
M  V30 9899 H 933.693 -2.55326 3.13992 0
M  V30 9900 H 932.263 -2.31039 2.1057 0
M  V30 9901 H 931.483 -0.587974 3.8979 0
M  V30 9902 H 932.771 -1.2179 4.94009 0
M  V30 9903 H 932.169 -4.18863 3.80224 0
M  V30 9904 H 930.726 -4.55942 4.6579 0
M  V30 9905 N 934.159 -1.57557 0.0367827 0
M  V30 9906 C 935.575 -1.56366 -0.31967 0
M  V30 9907 C 935.775 -1.04313 -1.72398 0
M  V30 9908 O 934.831 -0.693278 -2.42796 0
M  V30 9909 C 936.144 -3.00267 -0.161274 0
M  V30 9910 C 937.692 -3.12128 -0.233464 0
M  V30 9911 C 938.167 -4.57882 -0.103767 0
M  V30 9912 N 939.658 -4.62922 -0.160506 0
M  V30 9913 C 940.393 -5.73338 -0.0840493 0
M  V30 9914 N 939.889 -6.92786 0.043933 0
M  V30 9915 N 941.682 -5.61929 -0.138592 0
M  V30 9916 H 933.833 -1.8972 0.954996 0
M  V30 9917 H 936.096 -0.87304 0.369467 0
M  V30 9918 H 935.802 -3.42331 0.80639 0
M  V30 9919 H 935.676 -3.65599 -0.928304 0
M  V30 9920 H 938.063 -2.69972 -1.19159 0
M  V30 9921 H 938.144 -2.49503 0.564075 0
M  V30 9922 H 937.788 -5.0072 0.850973 0
M  V30 9923 H 937.718 -5.18496 -0.920268 0
M  V30 9924 H 940.209 -3.7701 -0.259257 0
M  V30 9925 H 940.522 -7.72741 0.095372 0
M  V30 9926 H 938.867 -6.94955 0.0788211 0
M  V30 9927 H 942.058 -4.67499 -0.237031 0
M  V30 9928 H 942.231 -6.47956 -0.075546 0
M  V30 9929 N 935.637 0.236453 -1.55816 0
M  V30 9930 C 936.862 0.98449 -1.82545 0
M  V30 9931 C 937.287 1.77755 -0.615206 0
M  V30 9932 O 936.645 1.75982 0.435895 0
M  V30 9933 C 936.693 1.88973 -3.07118 0
M  V30 9934 O 935.797 2.98298 -2.84766 0
M  V30 9935 H 935.138 0.279577 -0.602273 0
M  V30 9936 H 937.668 0.254277 -2.03014 0
M  V30 9937 H 937.678 2.3024 -3.36829 0
M  V30 9938 H 936.353 1.30671 -3.94839 0
M  V30 9939 H 934.93 2.61085 -2.6625 0
M  V30 9940 N 937.115 1.49373 0.502552 0
M  V30 9941 C 938.361 1.59016 1.25864 0
M  V30 9942 C 938.694 0.27532 1.92238 0
M  V30 9943 O 937.969 -0.720988 1.80643 0
M  V30 9944 C 938.252 2.74828 2.32683 0
M  V30 9945 C 938.105 4.16102 1.7082 0
M  V30 9946 C 939.424 2.86288 3.34256 0
M  V30 9947 H 936.543 0.578798 0.456248 0
M  V30 9948 H 939.185 1.81651 0.557032 0
M  V30 9949 H 937.335 2.5566 2.92524 0
M  V30 9950 H 939.007 4.46782 1.14818 0
M  V30 9951 H 937.25 4.21822 1.01238 0
M  V30 9952 H 937.921 4.93006 2.48292 0
M  V30 9953 H 940.397 3.03733 2.84404 0
M  V30 9954 H 939.273 3.69001 4.06362 0
M  V30 9955 H 939.534 1.95576 3.96488 0
M  V30 9956 N 938.594 -0.753485 1.38421 0
M  V30 9957 C 939.84 -1.51485 1.34834 0
M  V30 9958 C 940.173 -1.94102 -0.0615381 0
M  V30 9959 O 939.448 -1.65439 -1.02274 0
M  V30 9960 C 939.731 -2.76736 2.30411 0
M  V30 9961 C 939.584 -2.40256 3.80259 0
M  V30 9962 C 940.903 -3.7876 2.24119 0
M  V30 9963 H 938.022 -0.549534 0.491102 0
M  V30 9964 H 940.664 -0.863006 1.6927 0
M  V30 9965 H 938.814 -3.32357 2.01175 0
M  V30 9966 H 940.486 -1.90409 4.20169 0
M  V30 9967 H 938.729 -1.72714 3.97935 0
M  V30 9968 H 939.4 -3.29869 4.42595 0
M  V30 9969 H 941.876 -3.32679 2.49928 0
M  V30 9970 H 940.752 -4.64092 2.93104 0
M  V30 9971 H 941.013 -4.24352 1.24006 0
M  V30 9972 N 940.072 -1.23292 -0.981677 0
M  V30 9973 C 941.321 -1.05832 -1.71705 0
M  V30 9974 C 941.634 0.40514 -1.91358 0
M  V30 9975 O 942.84 0.699645 -2.6233 0
M  V30 9976 C 941.296 -1.84532 -3.08992 0
M  V30 9977 C 940.904 -3.35199 -2.9723 0
M  V30 9978 C 942.648 -1.75557 -3.86497 0
M  V30 9979 C 940.555 -4.06296 -4.29741 0
M  V30 9980 H 939.485 -0.39241 -0.64384 0
M  V30 9981 H 942.136 -1.47247 -1.09502 0
M  V30 9982 H 940.518 -1.35923 -3.71942 0
M  V30 9983 H 941.692 -3.91286 -2.43377 0
M  V30 9984 H 940.007 -3.44973 -2.332 0
M  V30 9985 H 942.604 -2.25989 -4.84596 0
M  V30 9986 H 942.947 -0.718101 -4.1006 0
M  V30 9987 H 943.48 -2.21771 -3.30246 0
M  V30 9988 H 940.219 -5.10344 -4.11375 0
M  V30 9989 H 939.739 -3.54997 -4.83464 0
M  V30 9990 H 941.418 -4.12519 -4.98434 0
M  V30 9991 N 941.55 1.18024 -1.04442 0
M  V30 9992 C 942.966 1.40107 -0.76435 0
M  V30 9993 C 943.166 1.90914 0.644516 0
M  V30 9994 O 942.222 2.0959 1.40813 0
M  V30 9995 C 943.535 2.39851 -1.81361 0
M  V30 9996 C 945.083 2.53571 -1.83496 0
M  V30 9997 C 945.558 3.56583 -2.87424 0
M  V30 9998 N 947.049 3.64094 -2.86339 0
M  V30 9999 C 947.784 4.43537 -3.63405 0
M  V30 10000 N 947.28 5.26557 -4.50233 0
M  V30 10001 N 949.073 4.38336 -3.51877 0
M  V30 10002 H 941.224 0.833726 -1.95353 0
M  V30 10003 H 943.487 0.42881 -0.845474 0
M  V30 10004 H 943.193 2.09576 -2.82438 0
M  V30 10005 H 943.067 3.39251 -1.6489 0
M  V30 10006 H 945.454 2.83161 -0.830883 0
M  V30 10007 H 945.535 1.54272 -2.04044 0
M  V30 10008 H 945.179 3.27733 -3.88012 0
M  V30 10009 H 945.109 4.55569 -2.6413 0
M  V30 10010 H 947.6 3.04814 -2.23376 0
M  V30 10011 H 947.913 5.84336 -5.05738 0
M  V30 10012 H 946.258 5.25964 -4.54298 0
M  V30 10013 H 949.449 3.72528 -2.83444 0
M  V30 10014 H 949.622 5.00007 -4.12186 0
M  V30 10015 N 943.028 0.824394 1.34319 0
M  V30 10016 C 944.256 0.426194 2.02463 0
M  V30 10017 C 944.671 -0.968298 1.62078 0
M  V30 10018 O 944.028 -1.62689 0.82696 0
M  V30 10019 C 944.079 0.520465 3.57734 0
M  V30 10020 O 943.8 1.86 3.96656 0
M  V30 10021 C 945.301 0.117353 4.43145 0
M  V30 10022 H 942.521 0.170864 0.648881 0
M  V30 10023 H 945.065 1.11296 1.71562 0
M  V30 10024 H 943.22 -0.118233 3.8722 0
M  V30 10025 H 943.634 1.83528 4.91343 0
M  V30 10026 H 945.108 0.234395 5.51502 0
M  V30 10027 H 945.585 -0.939271 4.29039 0
M  V30 10028 H 946.191 0.729908 4.1899 0
M  V30 10029 N 944.506 -1.46559 0.579492 0
M  V30 10030 C 945.753 -2.02399 0.0638418 0
M  V30 10031 C 946.081 -1.45135 -1.29484 0
M  V30 10032 O 945.336 -0.605061 -1.86112 0
M  V30 10033 C 945.635 -3.57357 -0.0552803 0
M  V30 10034 C 945.301 -4.33646 1.23539 0
M  V30 10035 C 943.963 -4.54207 1.589 0
M  V30 10036 C 946.315 -4.77476 2.08965 0
M  V30 10037 C 943.643 -5.1585 2.79492 0
M  V30 10038 C 945.995 -5.4045 3.2878 0
M  V30 10039 C 944.659 -5.5924 3.64427 0
M  V30 10040 H 943.929 -0.740632 0.0233614 0
M  V30 10041 H 946.576 -1.75968 0.755482 0
M  V30 10042 H 944.881 -3.82907 -0.83003 0
M  V30 10043 H 946.578 -3.98237 -0.469964 0
M  V30 10044 H 943.168 -4.17937 0.9501 0
M  V30 10045 H 947.352 -4.61349 1.8295 0
M  V30 10046 H 942.608 -5.28589 3.07252 0
M  V30 10047 H 946.782 -5.73371 3.95245 0
M  V30 10048 H 944.409 -6.06775 4.57961 0
M  V30 10049 N 945.984 -0.3171 -1.54377 0
M  V30 10050 C 947.233 0.288271 -1.99629 0
M  V30 10051 C 947.546 1.53754 -1.2091 0
M  V30 10052 O 948.752 2.2185 -1.56508 0
M  V30 10053 C 947.208 0.564188 -3.5545 0
M  V30 10054 C 946.816 -0.667659 -4.42997 0
M  V30 10055 C 948.56 1.12987 -4.09187 0
M  V30 10056 C 946.467 -0.364003 -5.90279 0
M  V30 10057 H 945.397 0.111492 -0.745711 0
M  V30 10058 H 948.048 -0.428317 -1.78431 0
M  V30 10059 H 946.43 1.34079 -3.72611 0
M  V30 10060 H 947.604 -1.44335 -4.37612 0
M  V30 10061 H 945.919 -1.1531 -4.00116 0
M  V30 10062 H 948.516 1.37157 -5.1681 0
M  V30 10063 H 948.859 2.07722 -3.60773 0
M  V30 10064 H 949.392 0.414595 -3.95634 0
M  V30 10065 H 946.131 -1.28035 -6.42874 0
M  V30 10066 H 945.651 0.374102 -5.98632 0
M  V30 10067 H 947.33 0.0285433 -6.46994 0
M  V30 10068 N 947.462 1.57535 -0.0451378 0
M  V30 10069 C 948.69 1.96761 0.639742 0
M  V30 10070 C 949.105 0.922405 1.64734 0
M  V30 10071 O 948.462 -0.0940535 1.82257 0
M  V30 10072 C 948.513 3.36066 1.33199 0
M  V30 10073 O 948.234 4.36579 0.364757 0
M  V30 10074 C 949.735 3.90015 2.1072 0
M  V30 10075 H 946.955 0.64769 0.175324 0
M  V30 10076 H 949.499 2.04206 -0.109651 0
M  V30 10077 H 947.654 3.2979 2.03266 0
M  V30 10078 H 948.068 5.17432 0.858168 0
M  V30 10079 H 949.542 4.89785 2.54586 0
M  V30 10080 H 950.019 3.25117 2.95288 0
M  V30 10081 H 950.625 3.99609 1.45577 0
M  V30 10082 N 948.94 -0.228186 1.55939 0
M  V30 10083 C 950.165 -0.974795 1.83064 0
M  V30 10084 C 950.59 -1.77426 0.624624 0
M  V30 10085 O 949.948 -1.76211 -0.426556 0
M  V30 10086 C 949.996 -1.87342 3.08116 0
M  V30 10087 O 949.1 -2.96784 2.86344 0
M  V30 10088 H 948.441 -0.276379 0.603747 0
M  V30 10089 H 950.971 -0.243507 2.03146 0
M  V30 10090 H 950.981 -2.28451 3.38045 0
M  V30 10091 H 949.656 -1.28575 3.95526 0
M  V30 10092 H 948.233 -2.59669 2.67631 0
M  V30 10093 N 950.418 -1.49637 -0.494624 0
M  V30 10094 C 951.695 -1.4995 -1.25596 0
M  V30 10095 C 952.075 -0.230805 -2.09834 0
M  V30 10096 O 951.423 0.786625 -2.14533 0
M  V30 10097 C 951.633 -2.78204 -2.10721 0
M  V30 10098 C 952.981 -3.27946 -2.69698 0
M  V30 10099 O 954.005 -2.79365 -2.20984 0
M  V30 10100 O 952.864 -4.12571 -3.58395 0
M  V30 10101 H 949.958 -0.60044 -0.568684 0
M  V30 10102 H 952.504 -1.61906 -0.508371 0
M  V30 10103 H 951.276 -3.62029 -1.48494 0
M  V30 10104 H 950.899 -2.69139 -2.92661 0
M  V30 10105 N 951.896 0.746133 -1.38819 0
M  V30 10106 C 953.143 1.50545 -1.35434 0
M  V30 10107 C 953.471 1.94427 0.0532669 0
M  V30 10108 O 952.726 1.66285 1.03188 0
M  V30 10109 C 953.025 2.76639 -2.26286 0
M  V30 10110 C 952.691 2.51682 -3.74122 0
M  V30 10111 C 951.353 2.44584 -4.14406 0
M  V30 10112 C 953.705 2.30071 -4.67672 0
M  V30 10113 C 951.033 2.13902 -5.46318 0
M  V30 10114 C 953.385 2.00907 -5.99849 0
M  V30 10115 C 952.049 1.92271 -6.39209 0
M  V30 10116 H 951.319 0.550883 -0.49559 0
M  V30 10117 H 953.966 0.857337 -1.71237 0
M  V30 10118 H 952.271 3.46138 -1.83564 0
M  V30 10119 H 953.968 3.34626 -2.20967 0
M  V30 10120 H 950.558 2.5808 -3.42188 0
M  V30 10121 H 954.742 2.34528 -4.3739 0
M  V30 10122 H 949.998 2.0573 -5.75748 0
M  V30 10123 H 954.172 1.83191 -6.71874 0
M  V30 10124 H 951.799 1.68261 -7.41345 0
M  V30 10125 N 953.375 1.23811 0.975125 0
M  V30 10126 C 954.308 0.967173 2.06691 0
M  V30 10127 C 955.286 -0.09642 1.62314 0
M  V30 10128 O 956.47 0.0389532 1.8846 0
M  V30 10129 C 953.597 0.458094 3.35588 0
M  V30 10130 C 952.643 1.5091 3.98909 0
M  V30 10131 S 953.476 3.08815 4.37485 0
M  V30 10132 C 954.632 2.59591 5.69529 0
M  V30 10133 H 954.865 1.89166 2.29355 0
M  V30 10134 H 952.398 1.07113 1.11203 0
M  V30 10135 H 954.356 0.170991 4.10144 0
M  V30 10136 H 953.017 -0.445562 3.10924 0
M  V30 10137 H 952.21 1.10315 4.91779 0
M  V30 10138 H 951.812 1.74582 3.30752 0
M  V30 10139 H 954.104 2.0194 6.46704 0
M  V30 10140 H 955.047 3.51021 6.14971 0
M  V30 10141 H 955.455 2.00267 5.27782 0
M  V30 10142 N 954.853 -1.17469 1.05066 0
M  V30 10143 C 956.081 -1.9162 0.780334 0
M  V30 10144 C 956.496 -1.76745 -0.663817 0
M  V30 10145 O 955.853 -1.10377 -1.45338 0
M  V30 10146 C 955.904 -3.42723 1.14992 0
M  V30 10147 O 955.625 -3.57139 2.53739 0
M  V30 10148 C 957.126 -4.33952 0.905549 0
M  V30 10149 H 954.346 -0.608022 0.283814 0
M  V30 10150 H 956.89 -1.4897 1.401 0
M  V30 10151 H 955.045 -3.83124 0.57403 0
M  V30 10152 H 955.459 -4.5075 2.68189 0
M  V30 10153 H 956.933 -5.38487 1.21391 0
M  V30 10154 H 957.41 -4.38911 -0.159295 0
M  V30 10155 H 958.016 -3.99263 1.46522 0
M  V30 10156 N 956.331 -0.831506 -1.3388 0
M  V30 10157 C 957.579 -0.422837 -1.97627 0
M  V30 10158 C 957.9 1.01961 -1.6622 0
M  V30 10159 O 957.17 1.70916 -0.957323 0
M  V30 10160 H 955.75 -0.153365 -0.731087 0
M  V30 10161 H 958.412 -1.06284 -1.6337 0
M  V30 10162 H 957.508 -0.548858 -3.07236 0
M  V30 10163 N 957.809 1.4625 -0.587256 0
M  V30 10164 C 959.058 2.01571 -0.0722643 0
M  V30 10165 C 959.371 1.46385 1.29733 0
M  V30 10166 O 960.577 1.93554 1.90392 0
M  V30 10167 C 959.033 3.59814 -0.078579 0
M  V30 10168 C 958.641 4.23996 -1.44678 0
M  V30 10169 C 960.385 4.22776 0.382231 0
M  V30 10170 C 958.292 5.74332 -1.41057 0
M  V30 10171 H 957.222 0.753642 -0.0232461 0
M  V30 10172 H 959.873 1.67936 -0.739577 0
M  V30 10173 H 958.255 3.90546 0.654988 0
M  V30 10174 H 959.429 4.04867 -2.20043 0
M  V30 10175 H 957.744 3.73147 -1.84799 0
M  V30 10176 H 960.341 5.32983 0.428182 0
M  V30 10177 H 960.684 3.92027 1.40072 0
M  V30 10178 H 961.217 3.96687 -0.297417 0
M  V30 10179 H 957.956 6.09747 -2.40601 0
M  V30 10180 H 957.476 5.95711 -0.699185 0
M  V30 10181 H 959.155 6.37137 -1.12543 0
M  V30 10182 N 959.287 0.325282 1.54207 0
M  V30 10183 C 960.698 -0.162426 1.85992 0
M  V30 10184 C 961.049 -1.51482 1.2469 0
M  V30 10185 O 960.174 -2.092 0.553578 0
M  V30 10186 C 960.769 -0.3015 3.37456 0
M  V30 10187 C 959.328 -0.73343 3.69185 0
M  V30 10188 C 958.475 0.143831 2.76927 0
M  V30 10189 H 961.426 0.545508 1.4903 0
M  V30 10190 H 961.447 -1.13212 3.63268 0
M  V30 10191 H 960.959 0.682942 3.82044 0
M  V30 10192 H 959.06 -1.72755 3.30131 0
M  V30 10193 H 959.173 -0.535987 4.76092 0
M  V30 10194 H 957.537 -0.380892 2.51836 0
M  V30 10195 H 958.32 1.12507 3.24341 0
M  V30 10196 N 960.765 -1.57509 0.0534917 0
M  V30 10197 C 961.728 -2.10563 -0.905307 0
M  V30 10198 C 962.728 -1.02571 -1.23838 0
M  V30 10199 O 963.918 -1.28635 -1.17468 0
M  V30 10200 C 961.05 -2.5918 -2.21447 0
M  V30 10201 H 962.243 -2.96575 -0.445354 0
M  V30 10202 H 959.796 -1.55079 -0.194947 0
M  V30 10203 H 960.531 -1.76568 -2.72019 0
M  V30 10204 H 960.316 -3.38098 -1.98575 0
M  V30 10205 H 961.806 -3.00365 -2.90122 0
M  V30 10206 N 962.243 0.219913 -1.56058 0
M  V30 10207 C 963.471 0.960915 -1.83232 0
M  V30 10208 C 963.886 1.77878 -0.632828 0
M  V30 10209 O 963.243 1.78093 0.398624 0
M  V30 10210 C 963.294 1.87716 -3.08942 0
M  V30 10211 O 963.015 1.09235 -4.24263 0
M  V30 10212 C 964.516 2.73192 -3.49115 0
M  V30 10213 H 961.736 0.281546 -0.609075 0
M  V30 10214 H 964.28 0.234648 -2.03149 0
M  V30 10215 H 962.435 2.55736 -2.90995 0
M  V30 10216 H 962.849 1.71446 -4.95688 0
M  V30 10217 H 964.323 3.33181 -4.40107 0
M  V30 10218 H 964.8 3.45668 -2.70943 0
M  V30 10219 H 965.406 2.10583 -3.69506 0
M  V30 10220 N 963.721 1.49897 0.486681 0
M  V30 10221 C 965.132 1.53142 1.06792 0
M  V30 10222 C 965.483 0.325856 1.93475 0
M  V30 10223 O 964.608 -0.562893 2.08951 0
M  V30 10224 C 965.203 2.77514 1.94348 0
M  V30 10225 C 963.762 2.83491 2.47609 0
M  V30 10226 C 962.909 2.47239 1.2557 0
M  V30 10227 H 965.86 1.56387 0.269962 0
M  V30 10228 H 965.881 2.58487 2.79221 0
M  V30 10229 H 965.393 3.65239 1.31232 0
M  V30 10230 H 963.494 2.0008 3.14323 0
M  V30 10231 H 963.607 3.86011 2.83782 0
M  V30 10232 H 961.971 1.99332 1.58552 0
M  V30 10233 H 962.754 3.37255 0.641404 0
M  V30 10234 N 965.199 -0.738761 1.39212 0
M  V30 10235 C 966.447 -1.49529 1.35962 0
M  V30 10236 C 966.768 -1.94948 -0.0450152 0
M  V30 10237 O 966.038 -1.68717 -0.995552 0
M  V30 10238 H 964.618 -0.554692 0.500326 0
M  V30 10239 H 967.28 -0.877255 1.74041 0
M  V30 10240 H 966.376 -2.37919 2.01993 0
M  V30 10241 N 966.677 -1.24326 -0.968545 0
M  V30 10242 C 967.625 -1.03256 -2.08425 0
M  V30 10243 C 968.619 0.0322356 -1.69369 0
M  V30 10244 O 969.825 -0.122251 -1.79584 0
M  V30 10245 H 966.2 -0.31688 -0.681976 0
M  V30 10246 H 968.171 -1.97873 -2.23358 0
M  V30 10247 C 966.92 -0.653144 -3.4151 0
M  V30 10248 H 966.243 -1.46424 -3.72021 0
M  V30 10249 H 967.683 -0.545316 -4.20479 0
M  V30 10250 C 966.142 0.639674 -3.30771 0
M  V30 10251 O 966.672 1.68563 -3.64622 0
M  V30 10252 N 964.878 0.620074 -2.83907 0
M  V30 10253 H 964.425 -0.231449 -2.56558 0
M  V30 10254 H 964.383 1.48528 -2.77104 0
M  V30 10255 N 968.156 1.1691 -1.05688 0
M  V30 10256 C 969.066 2.24735 -0.67315 0
M  V30 10257 C 970.082 1.71252 0.308043 0
M  V30 10258 O 971.258 2.00772 0.158889 0
M  V30 10259 C 968.323 3.4665 -0.059026 0
M  V30 10260 C 967.384 4.15198 -1.0913 0
M  V30 10261 C 966.617 5.31292 -0.50639 0
M  V30 10262 O 966.84 5.663 0.682692 0
M  V30 10263 O 965.774 5.88923 -1.2431 0
M  V30 10264 H 969.6 2.59855 -1.57191 0
M  V30 10265 H 967.185 1.24306 -0.828751 0
M  V30 10266 H 969.067 4.20455 0.282018 0
M  V30 10267 H 967.742 3.13316 0.813304 0
M  V30 10268 H 966.649 3.43389 -1.48442 0
M  V30 10269 H 967.982 4.52571 -1.93495 0
M  V30 10270 N 969.634 0.838594 1.33437 0
M  V30 10271 C 970.883 0.430484 1.97053 0
M  V30 10272 C 971.196 -1.01556 1.6717 0
M  V30 10273 O 972.402 -1.52834 2.24397 0
M  V30 10274 C 970.858 0.718828 3.52648 0
M  V30 10275 C 970.466 2.17953 3.91408 0
M  V30 10276 C 972.21 0.377654 4.22817 0
M  V30 10277 C 970.117 2.41194 5.39981 0
M  V30 10278 H 969.047 0.157239 0.737422 0
M  V30 10279 H 971.698 1.02714 1.5206 0
M  V30 10280 H 970.08 0.0518042 3.95966 0
M  V30 10281 H 971.254 2.88701 3.59149 0
M  V30 10282 H 969.569 2.48366 3.34221 0
M  V30 10283 H 972.166 0.528926 5.32077 0
M  V30 10284 H 972.509 -0.679338 4.1072 0
M  V30 10285 H 973.042 0.999899 3.85028 0
M  V30 10286 H 969.781 3.45457 5.57081 0
M  V30 10287 H 969.301 1.75007 5.73701 0
M  V30 10288 H 970.98 2.24334 6.06863 0
M  V30 10289 N 971.112 -1.45937 0.595003 0
M  V30 10290 C 972.523 -1.85908 0.171779 0
M  V30 10291 C 972.874 -1.497 -1.26824 0
M  V30 10292 O 971.999 -0.917688 -1.95978 0
M  V30 10293 C 972.594 -3.37425 0.304976 0
M  V30 10294 C 971.153 -3.76346 -0.0634635 0
M  V30 10295 C 970.3 -2.69926 0.635255 0
M  V30 10296 H 973.251 -1.36916 0.802471 0
M  V30 10297 H 973.272 -3.77632 -0.466313 0
M  V30 10298 H 972.784 -3.63747 1.35314 0
M  V30 10299 H 970.885 -3.55642 -1.11129 0
M  V30 10300 H 970.998 -4.78021 0.321419 0
M  V30 10301 H 969.362 -2.54592 0.0742054 0
M  V30 10302 H 970.145 -2.99086 1.68531 0
M  V30 10303 N 972.59 -0.333456 -1.54032 0
M  V30 10304 C 973.836 0.266527 -2.01041 0
M  V30 10305 C 974.169 1.51006 -1.2211 0
M  V30 10306 O 973.444 1.92078 -0.306016 0
M  V30 10307 C 973.727 0.59078 -3.55221 0
M  V30 10308 C 973.58 -0.664143 -4.4487 0
M  V30 10309 C 974.899 1.40447 -4.17088 0
M  V30 10310 H 972.018 0.0953979 -0.7308 0
M  V30 10311 H 974.66 -0.451995 -1.84545 0
M  V30 10312 H 972.81 1.20292 -3.69408 0
M  V30 10313 H 974.482 -1.30227 -4.42537 0
M  V30 10314 H 972.725 -1.29106 -4.14143 0
M  V30 10315 H 973.396 -0.392664 -5.50602 0
M  V30 10316 H 975.872 0.886946 -4.06537 0
M  V30 10317 H 974.748 1.6001 -5.2506 0
M  V30 10318 H 975.009 2.40357 -3.71054 0
M  V30 10319 N 974.068 1.57479 -0.061844 0
M  V30 10320 C 974.978 2.15645 0.923826 0
M  V30 10321 C 975.994 1.117 1.33413 0
M  V30 10322 O 977.17 1.4392 1.40887 0
M  V30 10323 C 974.235 2.69857 2.17665 0
M  V30 10324 C 973.296 3.88638 1.8237 0
M  V30 10325 C 972.529 4.40256 3.01679 0
M  V30 10326 O 972.752 3.90908 4.15388 0
M  V30 10327 O 971.686 5.31713 2.82073 0
M  V30 10328 H 975.512 3.0021 0.459094 0
M  V30 10329 H 973.097 1.48534 0.160665 0
M  V30 10330 H 974.979 3.04647 2.9115 0
M  V30 10331 H 973.654 1.88357 2.63255 0
M  V30 10332 H 972.561 3.58719 1.06167 0
M  V30 10333 H 973.894 4.71401 1.4157 0
M  V30 10334 N 975.546 -0.211634 1.56173 0
M  V30 10335 C 976.792 -0.935935 1.79911 0
M  V30 10336 C 977.125 -1.83589 0.633155 0
M  V30 10337 O 976.4 -1.91004 -0.367132 0
M  V30 10338 C 976.683 -1.76638 3.13801 0
M  V30 10339 C 976.536 -0.892259 4.40861 0
M  V30 10340 C 977.855 -2.74224 3.44223 0
M  V30 10341 H 974.974 -0.338822 0.654499 0
M  V30 10342 H 977.616 -0.20422 1.88899 0
M  V30 10343 H 975.766 -2.39021 3.0627 0
M  V30 10344 H 977.438 -0.284407 4.60422 0
M  V30 10345 H 975.681 -0.198145 4.33347 0
M  V30 10346 H 976.352 -1.50793 5.31004 0
M  V30 10347 H 978.828 -2.21975 3.51946 0
M  V30 10348 H 977.704 -3.29424 4.39057 0
M  V30 10349 H 977.965 -3.52455 2.66885 0
M  V30 10350 N 977.024 -1.50153 -0.478725 0
M  V30 10351 C 978.27 -1.60998 -1.23318 0
M  V30 10352 C 978.603 -0.305868 -1.91776 0
M  V30 10353 O 977.878 0.692158 -1.81767 0
M  V30 10354 C 978.161 -2.78495 -2.28282 0
M  V30 10355 C 978.014 -4.18767 -1.64178 0
M  V30 10356 C 979.333 -2.91569 -3.2966 0
M  V30 10357 H 976.452 -0.585983 -0.446982 0
M  V30 10358 H 979.094 -1.82514 -0.528063 0
M  V30 10359 H 977.244 -2.60281 -2.8842 0
M  V30 10360 H 978.916 -4.48552 -1.07696 0
M  V30 10361 H 977.159 -4.23379 -0.94514 0
M  V30 10362 H 977.83 -4.96894 -2.40417 0
M  V30 10363 H 980.306 -3.08219 -2.79536 0
M  V30 10364 H 979.182 -3.75419 -4.0044 0
M  V30 10365 H 979.443 -2.01859 -3.93326 0
M  V30 10366 N 978.502 0.731368 -1.39602 0
M  V30 10367 C 979.432 1.85855 -1.41351 0
M  V30 10368 C 980.413 1.67839 -0.2764 0
M  V30 10369 O 981.598 1.88104 -0.482747 0
M  V30 10370 C 978.728 3.23644 -1.25983 0
M  V30 10371 C 977.682 3.56304 -2.37132 0
M  V30 10372 C 977.008 4.93069 -2.0685 0
M  V30 10373 C 978.308 3.58906 -3.79452 0
M  V30 10374 H 980.002 1.84648 -2.3568 0
M  V30 10375 H 977.548 0.886955 -1.13442 0
M  V30 10376 H 979.501 4.02176 -1.25826 0
M  V30 10377 H 978.225 3.25387 -0.281234 0
M  V30 10378 H 976.884 2.80104 -2.36511 0
M  V30 10379 H 976.532 4.91396 -1.0742 0
M  V30 10380 H 976.232 5.15888 -2.81306 0
M  V30 10381 H 977.756 5.73953 -2.0835 0
M  V30 10382 H 979.17 4.27508 -3.81982 0
M  V30 10383 H 977.567 3.93246 -4.53297 0
M  V30 10384 H 978.637 2.58631 -4.10168 0
M  V30 10385 N 979.98 1.24838 0.961938 0
M  V30 10386 C 980.927 1.04582 2.05745 0
M  V30 10387 C 981.897 -0.0427281 1.66045 0
M  V30 10388 O 983.082 0.113026 1.90465 0
M  V30 10389 C 980.222 0.66284 3.38675 0
M  V30 10390 C 979.335 1.82548 3.91536 0
M  V30 10391 C 978.47 1.38753 5.12758 0
M  V30 10392 C 977.509 2.51976 5.5783 0
M  V30 10393 N 976.646 2.09009 6.70268 0
M  V30 10394 H 981.486 1.98343 2.22405 0
M  V30 10395 H 979.023 0.987822 1.08998 0
M  V30 10396 H 980.981 0.421788 4.15062 0
M  V30 10397 H 979.611 -0.237776 3.21923 0
M  V30 10398 H 978.663 2.18004 3.11735 0
M  V30 10399 H 979.975 2.67601 4.20941 0
M  V30 10400 H 979.129 1.1057 5.96539 0
M  V30 10401 H 977.868 0.507618 4.85051 0
M  V30 10402 H 976.873 2.80912 4.72619 0
M  V30 10403 H 978.098 3.40534 5.87549 0
M  V30 10404 H 976.044 1.23423 6.44285 0
M  V30 10405 H 975.961 2.87613 6.99153 0
M  V30 10406 H 977.229 1.83981 7.57477 0
M  V30 10407 N 981.458 -1.16348 1.06306 0
M  V30 10408 C 982.391 -2.19667 0.618197 0
M  V30 10409 C 983.369 -1.58586 -0.359078 0
M  V30 10410 O 984.553 -1.86585 -0.268023 0
M  V30 10411 C 981.68 -3.3857 -0.0937091 0
M  V30 10412 C 980.726 -4.18139 0.840339 0
M  V30 10413 S 981.559 -4.81879 2.33565 0
M  V30 10414 C 982.715 -6.04161 1.63524 0
M  V30 10415 H 982.948 -2.57063 1.49352 0
M  V30 10416 H 980.481 -1.27141 0.876046 0
M  V30 10417 H 982.439 -4.07465 -0.498227 0
M  V30 10418 H 981.1 -2.9954 -0.94523 0
M  V30 10419 H 980.293 -5.03172 0.288781 0
M  V30 10420 H 979.895 -3.54739 1.18474 0
M  V30 10421 H 982.187 -6.70935 0.940904 0
M  V30 10422 H 983.13 -6.63866 2.46347 0
M  V30 10423 H 983.538 -5.53323 1.11778 0
M  V30 10424 N 982.937 -0.845659 -1.3299 0
M  V30 10425 C 984.183 -0.445311 -1.9785 0
M  V30 10426 C 984.516 0.994476 -1.66805 0
M  V30 10427 O 983.791 1.69636 -0.95151 0
M  V30 10428 C 984.074 -0.674371 -3.53729 0
M  V30 10429 C 983.927 -2.16192 -3.94437 0
M  V30 10430 C 985.246 -0.124908 -4.39923 0
M  V30 10431 H 982.365 -0.163269 -0.718688 0
M  V30 10432 H 985.007 -1.06242 -1.5752 0
M  V30 10433 H 983.157 -0.149091 -3.88214 0
M  V30 10434 H 984.829 -2.75259 -3.70176 0
M  V30 10435 H 983.072 -2.64386 -3.43922 0
M  V30 10436 H 983.743 -2.27292 -5.03033 0
M  V30 10437 H 986.219 -0.573986 -4.12122 0
M  V30 10438 H 985.095 -0.314816 -5.47996 0
M  V30 10439 H 985.356 0.971758 -4.31288 0
M  V30 10440 N 984.415 1.45619 -0.602734 0
M  V30 10441 C 985.643 2.06647 -0.102253 0
M  V30 10442 C 986.058 1.4482 1.21131 0
M  V30 10443 O 985.415 0.560621 1.73676 0
M  V30 10444 C 985.466 3.61467 0.0490113 0
M  V30 10445 O 985.187 4.20985 -1.21257 0
M  V30 10446 C 986.688 4.39469 0.581517 0
M  V30 10447 H 983.908 0.667685 -0.0666155 0
M  V30 10448 H 986.452 1.86939 -0.829091 0
M  V30 10449 H 984.607 3.80534 0.726153 0
M  V30 10450 H 985.021 5.14103 -1.03915 0
M  V30 10451 H 986.495 5.48318 0.636462 0
M  V30 10452 H 986.972 4.0891 1.60277 0
M  V30 10453 H 987.578 4.25256 -0.061419 0
M  V30 10454 N 985.893 0.34162 1.53853 0
M  V30 10455 C 986.803 -0.524555 2.2866 0
M  V30 10456 C 987.819 -1.1136 1.33697 0
M  V30 10457 O 988.995 -1.1297 1.66732 0
M  V30 10458 C 986.06 -1.66065 3.04341 0
M  V30 10459 C 985.121 -1.10158 4.14926 0
M  V30 10460 C 984.354 -2.18353 4.86988 0
M  V30 10461 O 984.577 -3.39038 4.58704 0
M  V30 10462 O 983.511 -1.82756 5.73484 0
M  V30 10463 H 987.337 0.0835014 3.03585 0
M  V30 10464 H 984.922 0.106727 1.49018 0
M  V30 10465 H 986.804 -2.3217 3.51674 0
M  V30 10466 H 985.479 -2.25456 2.32275 0
M  V30 10467 H 984.386 -0.405109 3.719 0
M  V30 10468 H 985.719 -0.552567 4.89088 0
M  V30 10469 N 987.371 -1.57444 0.0701946 0
M  V30 10470 C 988.62 -1.92605 -0.598849 0
M  V30 10471 C 988.933 -0.952058 -1.70866 0
M  V30 10472 O 990.139 -1.19643 -2.43716 0
M  V30 10473 C 988.595 -3.42142 -1.11655 0
M  V30 10474 C 988.203 -4.47984 -0.0378355 0
M  V30 10475 C 989.947 -3.86307 -1.75975 0
M  V30 10476 C 987.854 -5.88652 -0.569495 0
M  V30 10477 H 986.784 -0.718873 -0.22746 0
M  V30 10478 H 989.435 -1.82948 0.14217 0
M  V30 10479 H 987.817 -3.46866 -1.91049 0
M  V30 10480 H 988.991 -4.54874 0.736661 0
M  V30 10481 H 987.306 -4.13277 0.50904 0
M  V30 10482 H 989.903 -4.88784 -2.16782 0
M  V30 10483 H 990.246 -3.23587 -2.61911 0
M  V30 10484 H 990.779 -3.84179 -1.03206 0
M  V30 10485 H 987.518 -6.55013 0.252662 0
M  V30 10486 H 987.038 -5.85285 -1.31155 0
M  V30 10487 H 988.717 -6.38482 -1.04641 0
M  V30 10488 N 988.849 0.203349 -1.56283 0
M  V30 10489 C 989.796 1.25205 -1.93888 0
M  V30 10490 C 990.766 1.45654 -0.798376 0
M  V30 10491 O 991.951 1.58924 -1.05583 0
M  V30 10492 C 989.091 2.59355 -2.27659 0
M  V30 10493 C 988.204 2.46553 -3.54733 0
M  V30 10494 C 987.339 3.73351 -3.77865 0
M  V30 10495 C 986.378 3.55347 -4.98392 0
M  V30 10496 N 985.515 4.74137 -5.17821 0
M  V30 10497 H 990.355 0.924356 -2.83301 0
M  V30 10498 H 987.892 0.445082 -1.40205 0
M  V30 10499 H 989.85 3.375 -2.45254 0
M  V30 10500 H 988.48 2.90184 -1.41396 0
M  V30 10501 H 987.532 1.59749 -3.45231 0
M  V30 10502 H 988.844 2.2918 -4.43033 0
M  V30 10503 H 987.998 4.59937 -3.95655 0
M  V30 10504 H 986.737 3.9367 -2.8788 0
M  V30 10505 H 985.742 2.67146 -4.80534 0
M  V30 10506 H 986.967 3.36482 -5.89879 0
M  V30 10507 H 984.913 4.94735 -4.30782 0
M  V30 10508 H 984.83 4.59558 -6.00285 0
M  V30 10509 H 986.098 5.62098 -5.40061 0
M  V30 10510 N 990.327 1.50405 0.470755 0
M  V30 10511 C 991.274 1.69293 1.56871 0
M  V30 10512 C 992.244 0.534248 1.57274 0
M  V30 10513 O 993.429 0.764855 1.74799 0
M  V30 10514 C 990.569 1.79338 2.94842 0
M  V30 10515 C 989.682 3.06709 3.04226 0
M  V30 10516 C 988.817 3.07548 4.33114 0
M  V30 10517 C 987.856 4.29372 4.36241 0
M  V30 10518 N 986.993 4.27949 5.56601 0
M  V30 10519 H 991.833 2.63029 1.40071 0
M  V30 10520 H 989.37 1.30386 0.681016 0
M  V30 10521 H 991.328 1.83143 3.74853 0
M  V30 10522 H 989.958 0.890411 3.10277 0
M  V30 10523 H 989.01 3.12374 2.17086 0
M  V30 10524 H 990.322 3.96684 3.02396 0
M  V30 10525 H 989.476 3.10084 5.21472 0
M  V30 10526 H 988.215 2.15404 4.37553 0
M  V30 10527 H 987.22 4.27048 3.4628 0
M  V30 10528 H 988.445 5.22743 4.33493 0
M  V30 10529 H 986.391 3.38658 5.61824 0
M  V30 10530 H 986.308 5.11692 5.56513 0
M  V30 10531 H 987.576 4.34631 6.47083 0
M  V30 10532 N 991.805 -0.723954 1.39988 0
M  V30 10533 C 993.054 -1.47922 1.3712 0
M  V30 10534 C 993.367 -1.95582 -0.0263665 0
M  V30 10535 O 994.573 -2.70918 -0.177652 0
M  V30 10536 C 993.029 -2.67342 2.40949 0
M  V30 10537 C 992.637 -2.26586 3.86475 0
M  V30 10538 C 994.381 -3.45116 2.47174 0
M  V30 10539 C 992.288 -3.42794 4.81919 0
M  V30 10540 H 991.218 -0.555522 0.509815 0
M  V30 10541 H 993.869 -0.788692 1.65686 0
M  V30 10542 H 992.251 -3.38524 2.0547 0
M  V30 10543 H 993.425 -1.62878 4.31054 0
M  V30 10544 H 991.74 -1.61876 3.83647 0
M  V30 10545 H 994.337 -4.31573 3.15672 0
M  V30 10546 H 994.68 -3.8835 1.49966 0
M  V30 10547 H 995.213 -2.80971 2.81602 0
M  V30 10548 H 991.952 -3.046 5.8043 0
M  V30 10549 H 991.472 -4.05445 4.42012 0
M  V30 10550 H 993.151 -4.08977 5.01345 0
M  V30 10551 N 993.283 -1.25346 -0.955304 0
M  V30 10552 C 994.694 -1.09173 -1.51453 0
M  V30 10553 C 995.045 0.332755 -1.93358 0
M  V30 10554 O 994.17 1.22264 -1.78551 0
M  V30 10555 C 994.765 -1.97564 -2.75234 0
M  V30 10556 C 993.324 -1.85579 -3.27471 0
M  V30 10557 C 992.471 -1.91755 -2.00313 0
M  V30 10558 H 995.422 -1.38642 -0.772271 0
M  V30 10559 H 995.443 -1.51523 -3.49029 0
M  V30 10560 H 994.955 -3.01233 -2.44704 0
M  V30 10561 H 993.056 -0.847906 -3.62824 0
M  V30 10562 H 993.169 -2.70353 -3.95533 0
M  V30 10563 H 991.533 -1.35633 -2.15582 0
M  V30 10564 H 992.316 -2.97028 -1.72132 0
M  V30 10565 N 994.761 1.15782 -1.06922 0
M  V30 10566 C 996.009 1.86097 -0.788192 0
M  V30 10567 C 996.33 1.82475 0.687606 0
M  V30 10568 O 995.6 1.26266 1.49778 0
M  V30 10569 H 994.18 0.689008 -0.288577 0
M  V30 10570 H 996.842 1.40377 -1.35205 0
M  V30 10571 H 995.938 2.91358 -1.1188 0
M  V30 10572 N 996.239 0.8527 1.3254 0
M  V30 10573 C 997.488 0.45136 1.96585 0
M  V30 10574 C 997.801 -0.997773 1.68237 0
M  V30 10575 O 999.007 -1.50445 2.26006 0
M  V30 10576 C 997.463 0.75619 3.51866 0
M  V30 10577 C 997.071 2.22092 3.89075 0
M  V30 10578 C 998.815 0.422478 4.22392 0
M  V30 10579 C 996.722 2.46908 5.37392 0
M  V30 10580 H 995.652 0.165052 0.735713 0
M  V30 10581 H 998.303 1.04321 1.50962 0
M  V30 10582 H 996.685 0.0937988 3.95889 0
M  V30 10583 H 997.859 2.92494 3.56067 0
M  V30 10584 H 996.174 2.51896 3.31568 0
M  V30 10585 H 998.771 0.58533 5.31487 0
M  V30 10586 H 999.114 -0.635737 4.11417 0
M  V30 10587 H 999.647 1.04068 3.83946 0
M  V30 10588 H 996.386 3.51346 5.53386 0
M  V30 10589 H 995.906 1.81082 5.71812 0
M  V30 10590 H 997.585 2.30758 6.0445 0
M  V30 10591 N 997.718 -1.45297 0.610449 0
M  V30 10592 C 998.943 -2.07101 0.111414 0
M  V30 10593 C 999.368 -1.45161 -1.19625 0
M  V30 10594 O 998.726 -0.545368 -1.72903 0
M  V30 10595 C 998.774 -3.60598 -0.0117372 0
M  V30 10596 O 997.878 -3.98512 -1.06122 0
M  V30 10597 H 997.219 -0.659709 0.075364 0
M  V30 10598 H 999.749 -1.86504 0.841269 0
M  V30 10599 H 999.759 -4.07464 -0.209028 0
M  V30 10600 H 998.434 -4.05067 0.943076 0
M  V30 10601 H 997.011 -3.63312 -0.840158 0
M  V30 10602 N 999.196 -0.349774 -1.5367 0
M  V30 10603 C 1000.61 0.00191293 -1.596 0
M  V30 10604 C 1000.81 1.48175 -1.36552 0
M  V30 10605 O 999.868 2.24129 -1.16285 0
M  V30 10606 C 1001.18 -0.439848 -2.97466 0
M  V30 10607 C 1002.73 -0.392721 -3.10526 0
M  V30 10608 C 1003.2 -0.810047 -4.5078 0
M  V30 10609 N 1004.69 -0.764478 -4.56848 0
M  V30 10610 C 1005.43 -1.05927 -5.63531 0
M  V30 10611 N 1004.93 -1.42253 -6.78038 0
M  V30 10612 N 1006.72 -0.983098 -5.53436 0
M  V30 10613 H 998.87 -1.31364 -1.66905 0
M  V30 10614 H 1001.13 -0.535908 -0.781989 0
M  V30 10615 H 1000.84 -1.47189 -3.19419 0
M  V30 10616 H 1000.71 0.181735 -3.76762 0
M  V30 10617 H 1003.1 0.630161 -2.88293 0
M  V30 10618 H 1003.18 -1.04959 -2.33275 0
M  V30 10619 H 1002.82 -1.83097 -4.73749 0
M  V30 10620 H 1002.75 -0.130591 -5.26438 0
M  V30 10621 H 1005.25 -0.496637 -3.74622 0
M  V30 10622 H 1005.56 -1.63215 -7.55368 0
M  V30 10623 H 1003.9 -1.46104 -6.79469 0
M  V30 10624 H 1007.09 -0.698601 -4.62858 0
M  V30 10625 H 1007.27 -1.21618 -6.36485 0
M  V30 10626 N 1000.67 1.57404 -0.0785433 0
M  V30 10627 C 1001.92 1.9292 0.588626 0
M  V30 10628 C 1002.24 0.961106 1.70359 0
M  V30 10629 O 1003.44 1.20934 2.43079 0
M  V30 10630 C 1001.9 3.42729 1.09839 0
M  V30 10631 C 1001.51 4.47998 0.0140773 0
M  V30 10632 C 1003.25 3.87235 1.73924 0
M  V30 10633 C 1001.16 5.88945 0.538269 0
M  V30 10634 H 1000.09 0.720069 0.223645 0
M  V30 10635 H 1002.74 1.8287 -0.15187 0
M  V30 10636 H 1001.12 3.47875 1.89207 0
M  V30 10637 H 1002.29 4.54476 -0.760773 0
M  V30 10638 H 1000.61 4.13001 -0.53095 0
M  V30 10639 H 1003.21 4.89927 2.14186 0
M  V30 10640 H 1003.55 3.24971 2.60191 0
M  V30 10641 H 1004.08 3.84721 1.01168 0
M  V30 10642 H 1000.82 6.5487 -0.287395 0
M  V30 10643 H 1000.34 5.85972 1.28049 0
M  V30 10644 H 1002.02 6.39028 1.01253 0
M  V30 10645 N 1002.15 -0.195058 1.56388 0
M  V30 10646 C 1003.08 -1.26978 1.8961 0
M  V30 10647 C 1004.06 -1.43946 0.756199 0
M  V30 10648 O 1005.25 -1.59335 1.0072 0
M  V30 10649 C 1002.37 -2.63638 2.12632 0
M  V30 10650 C 1001.42 -2.6354 3.35334 0
M  V30 10651 S 1002.25 -2.1497 4.90457 0
M  V30 10652 C 1003.41 -3.53454 5.16547 0
M  V30 10653 H 1003.64 -0.986091 2.8047 0
M  V30 10654 H 1001.17 -0.398552 1.49167 0
M  V30 10655 H 1003.13 -3.42304 2.26579 0
M  V30 10656 H 1001.79 -2.89218 1.22522 0
M  V30 10657 H 1000.99 -3.64027 3.48569 0
M  V30 10658 H 1000.59 -1.92956 3.20381 0
M  V30 10659 H 1002.88 -4.49318 5.0707 0
M  V30 10660 H 1003.82 -3.45113 6.18306 0
M  V30 10661 H 1004.23 -3.48368 4.44185 0
M  V30 10662 N 1003.63 -1.50653 -0.462772 0
M  V30 10663 C 1004.86 -1.65586 -1.23551 0
M  V30 10664 C 1005.27 -0.342012 -1.86083 0
M  V30 10665 O 1004.61 0.686893 -1.70374 0
M  V30 10666 C 1004.67 -2.69555 -2.37867 0
M  V30 10667 C 1004.34 -4.1288 -1.95906 0
M  V30 10668 C 1005.33 -4.98483 -1.47685 0
M  V30 10669 C 1003.02 -4.58843 -2.04373 0
M  V30 10670 C 1005.01 -6.281 -1.08484 0
M  V30 10671 C 1002.7 -5.88464 -1.64783 0
M  V30 10672 C 1003.7 -6.72918 -1.16918 0
M  V30 10673 O 1003.39 -8.00119 -0.778798 0
M  V30 10674 H 1003.12 -0.559438 -0.37948 0
M  V30 10675 H 1005.67 -1.9768 -0.557816 0
M  V30 10676 H 1003.9 -2.3272 -3.08834 0
M  V30 10677 H 1005.59 -2.73624 -2.99808 0
M  V30 10678 H 1006.36 -4.64186 -1.40558 0
M  V30 10679 H 1002.24 -3.93247 -2.40577 0
M  V30 10680 H 1005.78 -6.93972 -0.710524 0
M  V30 10681 H 1001.68 -6.22281 -1.71571 0
M  V30 10682 H 1002.44 -8.1346 -0.906911 0
M  V30 10683 N 1005.11 0.71652 -1.4037 0
M  V30 10684 C 1006.39 1.46947 -1.29097 0
M  V30 10685 C 1006.77 2.10903 0.0911182 0
M  V30 10686 O 1006.11 2.00068 1.10385 0
M  V30 10687 C 1006.32 2.50594 -2.42907 0
M  V30 10688 C 1007.67 3.16451 -2.83097 0
M  V30 10689 O 1008.7 2.60913 -2.42493 0
M  V30 10690 O 1007.55 4.16991 -3.53244 0
M  V30 10691 H 1004.65 0.653413 -0.506932 0
M  V30 10692 H 1007.19 0.748774 -1.52287 0
M  V30 10693 H 1005.97 2.01843 -3.35224 0
M  V30 10694 H 1005.59 3.302 -2.21481 0
M  V30 10695 N 1006.59 1.25851 0.948643 0
M  V30 10696 C 1007.52 1.09248 2.06367 0
M  V30 10697 C 1008.5 -0.000205168 1.701 0
M  V30 10698 O 1009.68 0.170442 1.93451 0
M  V30 10699 C 1006.81 0.716777 3.39823 0
M  V30 10700 C 1005.77 1.76036 3.90122 0
M  V30 10701 C 1005.09 1.23918 5.20143 0
M  V30 10702 C 1006.39 3.16039 4.15833 0
M  V30 10703 H 1008.09 2.02518 2.20515 0
M  V30 10704 H 1005.63 0.975093 1.05962 0
M  V30 10705 H 1007.59 0.587531 4.17284 0
M  V30 10706 H 1006.31 -0.251626 3.25629 0
M  V30 10707 H 1004.97 1.87815 3.14835 0
M  V30 10708 H 1004.62 0.260836 5.02323 0
M  V30 10709 H 1004.32 1.93673 5.54765 0
M  V30 10710 H 1005.84 1.12245 6.00194 0
M  V30 10711 H 1007.25 3.0738 4.83933 0
M  V30 10712 H 1005.65 3.83317 4.61723 0
M  V30 10713 H 1006.72 3.62652 3.21887 0
M  V30 10714 N 1008.06 -1.15214 1.07534 0
M  V30 10715 C 1009.29 -1.89922 0.820804 0
M  V30 10716 C 1009.71 -1.78114 -0.626177 0
M  V30 10717 O 1009.06 -1.13435 -1.42964 0
M  V30 10718 C 1009.12 -3.40207 1.22236 0
M  V30 10719 O 1008.84 -3.51676 2.61257 0
M  V30 10720 C 1010.34 -4.31934 0.997393 0
M  V30 10721 H 1007.56 -0.601865 0.296647 0
M  V30 10722 H 1010.1 -1.45965 1.43229 0
M  V30 10723 H 1008.26 -3.8182 0.655167 0
M  V30 10724 H 1008.67 -4.44959 2.77689 0
M  V30 10725 H 1010.14 -5.35791 1.32785 0
M  V30 10726 H 1010.62 -4.3915 -0.0661599 0
M  V30 10727 H 1011.23 -3.96066 1.54958 0
M  V30 10728 N 1009.54 -0.859717 -1.32086 0
M  V30 10729 C 1010.77 -0.478865 -2.01796 0
M  V30 10730 C 1011.19 0.918274 -1.64163 0
M  V30 10731 O 1010.55 1.60409 -0.844896 0
M  V30 10732 C 1010.6 -0.631356 -3.5503 0
M  V30 10733 O 1009.7 0.333712 -4.11048 0
M  V30 10734 H 1009.04 -0.191775 -0.635703 0
M  V30 10735 H 1011.57 -1.16031 -1.68517 0
M  V30 10736 H 1011.58 -0.520783 -4.04663 0
M  V30 10737 H 1010.26 -1.65015 -3.81763 0
M  V30 10738 H 1008.84 0.178953 -3.7247 0
M  V30 10739 N 1011.02 1.44971 -0.618145 0
M  V30 10740 C 1011.97 2.30606 0.09449 0
M  V30 10741 C 1012.94 1.42725 0.849633 0
M  V30 10742 O 1014.12 1.71643 0.833266 0
M  V30 10743 C 1011.26 3.27803 1.07886 0
M  V30 10744 C 1010.38 4.30787 0.323488 0
M  V30 10745 C 1009.51 5.15085 1.29851 0
M  V30 10746 C 1008.55 6.09788 0.531561 0
M  V30 10747 N 1007.69 6.86829 1.4564 0
M  V30 10748 H 1012.53 2.91008 -0.641738 0
M  V30 10749 H 1010.06 1.43391 -0.328259 0
M  V30 10750 H 1012.02 3.82631 1.66281 0
M  V30 10751 H 1010.65 2.69131 1.78237 0
M  V30 10752 H 1009.7 3.78536 -0.376164 0
M  V30 10753 H 1011.02 4.98044 -0.274443 0
M  V30 10754 H 1010.17 5.74365 1.95421 0
M  V30 10755 H 1008.91 4.4787 1.93037 0
M  V30 10756 H 1007.91 5.49628 -0.137702 0
M  V30 10757 H 1009.14 6.79033 -0.0953993 0
M  V30 10758 H 1007.08 6.22295 2.07571 0
M  V30 10759 H 1007 7.50477 0.912167 0
M  V30 10760 H 1008.27 7.50642 2.10134 0
M  V30 10761 N 1012.5 0.357919 1.53482 0
M  V30 10762 C 1013.91 -0.122938 1.86295 0
M  V30 10763 C 1014.26 -1.48803 1.27875 0
M  V30 10764 O 1013.39 -2.07978 0.597828 0
M  V30 10765 C 1013.98 -0.229853 3.38019 0
M  V30 10766 C 1012.54 -0.654955 3.70658 0
M  V30 10767 C 1011.69 0.202539 2.76559 0
M  V30 10768 H 1014.64 0.576997 1.47839 0
M  V30 10769 H 1014.66 -1.05481 3.65587 0
M  V30 10770 H 1014.17 0.763825 3.80509 0
M  V30 10771 H 1012.27 -1.65714 3.33721 0
M  V30 10772 H 1012.38 -0.43488 4.77122 0
M  V30 10773 H 1010.75 -0.327388 2.52587 0
M  V30 10774 H 1011.53 1.19361 3.21882 0
M  V30 10775 N 1013.98 -1.5736 0.0868897 0
M  V30 10776 C 1015.39 -1.81356 -0.443499 0
M  V30 10777 C 1015.74 -1.00192 -1.68689 0
M  V30 10778 O 1014.86 -0.228863 -2.15186 0
M  V30 10779 C 1015.46 -3.28941 -0.811387 0
M  V30 10780 C 1014.02 -3.53729 -1.28656 0
M  V30 10781 C 1013.16 -2.75891 -0.279153 0
M  V30 10782 H 1016.12 -1.55594 0.312427 0
M  V30 10783 H 1016.14 -3.41815 -1.6716 0
M  V30 10784 H 1015.65 -3.87987 0.0937598 0
M  V30 10785 H 1013.75 -3.00005 -2.2097 0
M  V30 10786 H 1013.86 -4.62396 -1.25406 0
M  V30 10787 H 1012.23 -2.4311 -0.759595 0
M  V30 10788 H 1013.01 -3.37682 0.618529 0
M  V30 10789 N 1015.45 0.186762 -1.56489 0
M  V30 10790 C 1016.7 0.904063 -1.80752 0
M  V30 10791 C 1017.02 1.83443 -0.661343 0
M  V30 10792 O 1016.29 1.93272 0.319811 0
M  V30 10793 H 1014.87 0.336828 -0.66675 0
M  V30 10794 H 1017.54 0.190275 -1.93969 0
M  V30 10795 H 1016.63 1.49021 -2.74225 0
M  V30 10796 N 1016.93 1.50896 0.454776 0
M  V30 10797 C 1018.16 1.6648 1.22849 0
M  V30 10798 C 1018.58 0.354841 1.85435 0
M  V30 10799 O 1017.93 -0.664931 1.69956 0
M  V30 10800 C 1017.98 2.76787 2.32532 0
M  V30 10801 O 1017.7 4.02706 1.72509 0
M  V30 10802 C 1019.21 3.03488 3.23125 0
M  V30 10803 H 1016.43 0.559152 0.370932 0
M  V30 10804 H 1018.97 1.97215 0.540983 0
M  V30 10805 H 1017.12 2.48701 2.9703 0
M  V30 10806 H 1017.54 4.63834 2.44863 0
M  V30 10807 H 1019.01 3.84294 3.9626 0
M  V30 10808 H 1019.49 2.152 3.82865 0
M  V30 10809 H 1020.1 3.33167 2.64347 0
M  V30 10810 N 1018.41 -0.709066 1.40748 0
M  V30 10811 C 1019.64 -1.49808 1.42707 0
M  V30 10812 C 1020.05 -1.88778 0.0285574 0
M  V30 10813 O 1019.41 -1.55883 -0.949035 0
M  V30 10814 C 1019.46 -2.76926 2.32366 0
M  V30 10815 O 1019.18 -2.39602 3.66773 0
M  V30 10816 C 1020.68 -3.70773 2.42986 0
M  V30 10817 H 1017.9 -0.462106 0.486517 0
M  V30 10818 H 1020.45 -0.874135 1.84876 0
M  V30 10819 H 1018.6 -3.3559 1.93541 0
M  V30 10820 H 1019.02 -3.21443 4.14457 0
M  V30 10821 H 1020.49 -4.56789 3.09916 0
M  V30 10822 H 1020.97 -4.14332 1.45691 0
M  V30 10823 H 1021.57 -3.18019 2.8239 0
M  V30 10824 N 1019.89 -1.26353 -0.941956 0
M  V30 10825 C 1020.8 -1.09618 -2.07415 0
M  V30 10826 C 1021.82 -0.0298963 -1.73974 0
M  V30 10827 O 1022.99 -0.233466 -2.00042 0
M  V30 10828 C 1020.06 -0.73013 -3.38925 0
M  V30 10829 C 1019.12 -1.87574 -3.86153 0
M  V30 10830 C 1018.35 -1.52706 -5.11387 0
M  V30 10831 O 1018.57 -0.428438 -5.68789 0
M  V30 10832 O 1017.51 -2.36154 -5.53638 0
M  V30 10833 H 1021.33 -2.04598 -2.2444 0
M  V30 10834 H 1018.92 -1.05407 -1.05876 0
M  V30 10835 H 1020.8 -0.538684 -4.17943 0
M  V30 10836 H 1019.48 0.190282 -3.2314 0
M  V30 10837 H 1018.38 -2.12214 -3.08084 0
M  V30 10838 H 1019.72 -2.77585 -4.06457 0
M  V30 10839 N 1021.37 1.14642 -1.08144 0
M  V30 10840 C 1022.61 1.86115 -0.820533 0
M  V30 10841 C 1022.97 1.81208 0.646635 0
M  V30 10842 O 1022.26 1.22997 1.46909 0
M  V30 10843 C 1022.46 3.33953 -1.2732 0
M  V30 10844 C 1022.28 3.53254 -2.78283 0
M  V30 10845 C 1021.05 3.68259 -3.45996 0
M  V30 10846 C 1023.25 3.504 -3.76463 0
M  V30 10847 N 1021.23 3.75692 -4.85519 0
M  V30 10848 C 1022.61 3.64045 -5.01868 0
M  V30 10849 C 1024.66 3.33722 -3.69505 0
M  V30 10850 C 1023.36 3.62734 -6.21141 0
M  V30 10851 C 1025.39 3.33713 -4.88251 0
M  V30 10852 C 1024.75 3.47896 -6.12493 0
M  V30 10853 H 1020.85 0.697829 -0.352929 0
M  V30 10854 H 1023.43 1.3742 -1.37927 0
M  V30 10855 H 1021.61 3.81245 -0.742066 0
M  V30 10856 H 1023.34 3.93174 -0.958991 0
M  V30 10857 H 1020.09 3.69376 -2.96409 0
M  V30 10858 H 1020.52 3.83133 -5.58156 0
M  V30 10859 H 1025.16 3.2167 -2.74387 0
M  V30 10860 H 1022.88 3.73563 -7.16573 0
M  V30 10861 H 1026.46 3.22025 -4.84553 0
M  V30 10862 H 1025.34 3.47833 -7.02838 0
M  V30 10863 N 1022.85 0.866709 1.31628 0
M  V30 10864 C 1023.76 0.323408 2.3236 0
M  V30 10865 C 1024.77 -0.564995 1.64572 0
M  V30 10866 O 1025.95 -0.462489 1.96018 0
M  V30 10867 C 1023.01 -0.469045 3.43513 0
M  V30 10868 C 1022.07 0.446928 4.26967 0
M  V30 10869 C 1021.31 -0.307799 5.32812 0
M  V30 10870 O 1021.53 -1.5363 5.49321 0
M  V30 10871 O 1020.46 0.332653 6.0098 0
M  V30 10872 H 1024.29 1.15827 2.80745 0
M  V30 10873 H 1021.87 0.629987 1.35468 0
M  V30 10874 H 1023.76 -0.918405 4.1127 0
M  V30 10875 H 1022.43 -1.28051 2.97296 0
M  V30 10876 H 1021.34 0.944719 3.61975 0
M  V30 10877 H 1022.67 1.2239 4.76741 0
M  V30 10878 O 1024.36 -1.42185 0.765885 0
M  V30 10879 H 1025.05 -1.90905 0.327881 0
M  V30 END ATOM
M  V30 BEGIN BOND
M  V30 END BOND
M  V30 END CTAB
M  END
$$$$
