drugbank_target|P06239 Tyrosine-protein kinase Lck (DB01254; DB01830; DB02010; DB03023; DB04003; DB04395; DB06925; DB07146; DB07297; DB08055; DB08056; DB08057; DB08901; DB09079; DB12010; DB15035)
 OpenBabel12092119413D

  0  0  0     0  0            999 V3000
M  V30 BEGIN CTAB
M  V30 COUNTS 8055 8161 0 0 0
M  V30 BEGIN ATOM
M  V30 1 H -0.908 1.98254 -0.117106 0
M  V30 2 N 0 1.576 0 0
M  V30 3 C 0.933 2.03868 1.02534 0
M  V30 4 C 1.911 0.928543 1.3348 0
M  V30 5 O 3.095 1.19667 1.45644 0
M  V30 6 C 0.222 2.43627 2.35294 0
M  V30 7 C -0.732 3.65373 2.2001 0
M  V30 8 S 0.101 5.13292 1.52614 0
M  V30 9 C 1.257 5.56322 2.86805 0
M  V30 10 H 1.49 2.90518 0.631377 0
M  V30 11 H -0.977 1.52953 0.210867 0
M  V30 12 H 0.981 2.67203 3.11629 0
M  V30 13 H -0.358 1.57376 2.7183 0
M  V30 14 H -1.165 3.90944 3.18086 0
M  V30 15 H -1.563 3.418 1.51819 0
M  V30 16 H 0.729 5.58782 3.83104 0
M  V30 17 H 1.672 6.56266 2.65933 0
M  V30 18 H 2.08 4.83886 2.90714 0
M  V30 19 N 1.4781 -0.272755 1.55222 0
M  V30 20 C 2.7261 -1.00234 1.75492 0
M  V30 21 C 3.0471 -1.8681 0.5592 0
M  V30 22 O 2.3171 -1.91215 -0.425882 0
M  V30 23 H 0.8971 -0.373076 0.647166 0
M  V30 24 H 3.5591 -0.296926 1.92625 0
M  V30 25 H 2.6551 -1.63913 2.65592 0
M  V30 26 N 2.9562 -1.48159 -0.537278 0
M  V30 27 C 4.1962 -1.57397 -1.30405 0
M  V30 28 C 4.5602 -0.239202 -1.90504 0
M  V30 29 O 5.7612 -0.206528 -2.68005 0
M  V30 30 C 4.0322 -2.6754 -2.36974 0
M  V30 31 S 5.5912 -2.96496 -3.23475 0
M  V30 32 H 2.4092 -0.555577 -0.443684 0
M  V30 33 H 5.0112 -1.85644 -0.612912 0
M  V30 34 H 3.7152 -3.63092 -1.91291 0
M  V30 35 H 3.2462 -2.41172 -3.10805 0
M  V30 36 H 5.2612 -2.35234 -4.36897 0
M  V30 37 N 4.4343 0.785586 -1.36625 0
M  V30 38 C 5.6823 1.54057 -1.30808 0
M  V30 39 C 6.0033 1.94683 0.111157 0
M  V30 40 O 5.2733 1.65241 1.05224 0
M  V30 41 H 3.8533 0.571354 -0.481211 0
M  V30 42 H 6.5153 0.935821 -1.70963 0
M  V30 43 H 5.6113 2.44637 -1.93801 0
M  V30 44 N 5.9124 1.20967 1.01018 0
M  V30 45 C 7.1524 1.03511 1.76252 0
M  V30 46 C 7.5164 -0.42458 1.87247 0
M  V30 47 O 8.7174 -0.719508 2.58991 0
M  V30 48 C 6.9884 1.70726 3.13986 0
M  V30 49 S 8.5474 1.68458 4.05176 0
M  V30 50 H 5.3654 0.371037 0.606508 0
M  V30 51 H 7.9674 1.53628 1.20908 0
M  V30 52 H 6.6714 2.76128 3.03614 0
M  V30 53 H 6.2024 1.20767 3.74405 0
M  V30 54 H 8.2174 0.721987 4.90919 0
M  V30 55 N 7.3905 -1.2043 1.01659 0
M  V30 56 C 8.6155 -1.94318 0.724942 0
M  V30 57 C 9.0405 -1.74266 -0.708034 0
M  V30 58 O 8.3985 -1.03694 -1.48719 0
M  V30 59 C 8.4465 -3.44486 1.06591 0
M  V30 60 O 7.5505 -4.12017 0.177599 0
M  V30 61 H 6.8915 -0.60708 0.26898 0
M  V30 62 H 9.4215 -1.52861 1.35995 0
M  V30 63 H 9.4315 -3.95106 1.01762 0
M  V30 64 H 8.1065 -3.58404 2.10997 0
M  V30 65 H 6.6835 -3.71821 0.283421 0
M  V30 66 N 8.8686 -0.792821 -1.36206 0
M  V30 67 C 10.0936 -0.377701 -2.03932 0
M  V30 68 C 10.5186 0.998947 -1.59382 0
M  V30 69 O 9.8766 1.64421 -0.763903 0
M  V30 70 C 9.9246 -0.453635 -3.57735 0
M  V30 71 O 9.0286 0.538151 -4.08874 0
M  V30 72 H 8.3696 -0.159855 -0.644471 0
M  V30 73 H 10.8996 -1.07488 -1.7409 0
M  V30 74 H 10.9096 -0.318464 -4.06755 0
M  V30 75 H 9.5846 -1.45784 -3.89512 0
M  V30 76 H 8.1616 0.364359 -3.71116 0
M  V30 77 N 10.3467 1.47872 -0.545128 0
M  V30 78 C 11.2967 2.26842 0.229456 0
M  V30 79 C 12.2807 1.33626 0.896267 0
M  V30 80 O 13.4727 1.58063 0.79657 0
M  V30 81 C 10.6017 3.19089 1.26638 0
M  V30 82 C 9.6877 4.19783 0.603598 0
M  V30 83 N 10.0787 5.0479 -0.319405 0
M  V30 84 C 8.3767 4.3765 0.858989 0
M  V30 85 C 9.0777 5.77433 -0.703241 0
M  V30 86 N 8.0537 5.43566 -0.0608309 0
M  V30 87 H 11.8557 2.89947 -0.480391 0
M  V30 88 H 9.3697 1.58263 -0.364209 0
M  V30 89 H 11.3667 3.74337 1.83515 0
M  V30 90 H 10.0267 2.5754 1.97745 0
M  V30 91 H 11.0377 5.13244 -0.692889 0
M  V30 92 H 7.7147 3.87281 1.55948 0
M  V30 93 H 9.1047 6.55824 -1.46098 0
M  V30 94 N 11.8248 0.280983 1.55075 0
M  V30 95 C 13.2358 -0.215629 1.85451 0
M  V30 96 C 13.5868 -1.54991 1.203 0
M  V30 97 O 12.7118 -2.10699 0.493435 0
M  V30 98 C 13.3068 -0.398026 3.36454 0
M  V30 99 C 11.8658 -0.838866 3.66933 0
M  V30 100 C 11.0128 0.064458 2.77225 0
M  V30 101 H 13.9638 0.502601 1.50531 0
M  V30 102 H 13.9848 -1.23569 3.59876 0
M  V30 103 H 13.4968 0.573241 3.83843 0
M  V30 104 H 11.5978 -1.8214 3.25048 0
M  V30 105 H 11.7108 -0.672123 4.74362 0
M  V30 106 H 10.0748 -0.452863 2.50642 0
M  V30 107 H 10.8578 1.03172 3.2743 0
M  V30 108 N 13.3029 -1.57598 0.00835791 0
M  V30 109 C 14.2129 -2.12385 -0.996487 0
M  V30 110 C 15.2289 -1.07108 -1.37127 0
M  V30 111 O 16.4049 -1.39055 -1.4569 0
M  V30 112 C 13.4699 -2.62314 -2.26699 0
M  V30 113 C 12.5309 -3.82225 -1.95456 0
M  V30 114 C 11.7639 -4.29763 -3.16449 0
M  V30 115 O 11.9869 -3.76584 -4.28416 0
M  V30 116 O 10.9209 -5.21832 -2.99958 0
M  V30 117 H 14.7469 -2.98479 -0.560725 0
M  V30 118 H 12.3319 -1.47903 -0.210987 0
M  V30 119 H 14.2139 -2.94589 -3.01322 0
M  V30 120 H 12.8889 -1.79313 -2.69497 0
M  V30 121 H 11.7959 -3.54909 -1.18282 0
M  V30 122 H 13.1289 -4.66324 -1.57489 0
M  V30 123 N 14.781 0.264519 -1.55364 0
M  V30 124 C 16.058 1.01677 -1.67096 0
M  V30 125 C 16.438 2.03996 -0.543015 0
M  V30 126 O 15.786 2.23907 0.45585 0
M  V30 127 C 15.996 1.66596 -3.0667 0
M  V30 128 C 17.344 2.17442 -3.64697 0
M  V30 129 O 18.368 1.76568 -3.09358 0
M  V30 130 O 17.227 2.92439 -4.61673 0
M  V30 131 H 14.321 0.472161 -0.678965 0
M  V30 132 H 16.867 0.259703 -1.67701 0
M  V30 133 H 15.639 0.924962 -3.80211 0
M  V30 134 H 15.262 2.48968 -3.10001 0
M  V30 135 N 16.2591 1.48442 0.529413 0
M  V30 136 C 17.5361 1.46978 1.29062 0
M  V30 137 C 17.9161 0.181769 2.10316 0
M  V30 138 O 17.2641 -0.836481 2.12639 0
M  V30 139 C 17.4741 2.7321 2.17157 0
M  V30 140 C 18.8221 3.21562 2.77278 0
M  V30 141 O 19.8461 2.74131 2.27444 0
M  V30 142 O 18.7051 4.04094 3.67927 0
M  V30 143 H 15.7991 0.587003 0.582543 0
M  V30 144 H 18.3451 1.60676 0.546021 0
M  V30 145 H 17.1171 3.58465 1.56903 0
M  V30 146 H 16.7401 2.62235 2.98862 0
M  V30 147 N 17.7372 -0.778329 1.37039 0
M  V30 148 C 18.9832 -1.53817 1.33086 0
M  V30 149 C 19.3382 -1.92208 -0.0860346 0
M  V30 150 O 18.6312 -1.60713 -1.04316 0
M  V30 151 C 18.8252 -2.81845 2.19768 0
M  V30 152 C 18.6542 -2.55967 3.69744 0
M  V30 153 C 17.4242 -2.50428 4.38878 0
M  V30 154 C 19.6222 -2.2441 4.62758 0
M  V30 155 N 17.6042 -2.16564 5.74433 0
M  V30 156 C 18.9752 -2.0063 5.86641 0
M  V30 157 C 21.0302 -2.1051 4.5121 0
M  V30 158 C 19.7332 -1.64354 7.00272 0
M  V30 159 C 21.7592 -1.75634 5.64718 0
M  V30 160 C 21.1212 -1.52709 6.87648 0
M  V30 161 H 17.2202 -0.563434 0.542279 0
M  V30 162 H 19.8042 -0.908617 1.72198 0
M  V30 163 H 17.9752 -3.42649 1.82883 0
M  V30 164 H 19.7072 -3.47682 2.07122 0
M  V30 165 H 16.4622 -2.66056 3.91805 0
M  V30 166 H 16.8862 -2.02348 6.46053 0
M  V30 167 H 21.5282 -2.26919 3.56746 0
M  V30 168 H 19.2462 -1.46683 7.94676 0
M  V30 169 H 22.8322 -1.65546 5.57751 0
M  V30 170 H 21.7122 -1.2612 7.73992 0
M  V30 171 N 19.2153 -1.21501 -1.00376 0
M  V30 172 C 20.1483 -0.918669 -2.08892 0
M  V30 173 C 21.1263 0.134277 -1.62045 0
M  V30 174 O 22.3103 0.00504255 -1.88499 0
M  V30 175 C 19.4373 -0.379645 -3.36566 0
M  V30 176 C 18.4833 -1.41559 -4.02323 0
M  V30 177 S 19.3163 -2.98521 -4.44574 0
M  V30 178 C 20.4723 -2.46228 -5.75433 0
M  V30 179 H 20.7053 -1.83761 -2.33707 0
M  V30 180 H 18.2383 -1.04489 -1.13673 0
M  V30 181 H 20.1963 -0.0752195 -4.10431 0
M  V30 182 H 18.8573 0.518008 -3.09799 0
M  V30 183 H 18.0503 -0.988076 -4.9422 0
M  V30 184 H 17.6523 -1.66815 -3.34737 0
M  V30 185 H 19.9443 -1.86791 -6.51241 0
M  V30 186 H 20.8873 -3.36572 -6.22997 0
M  V30 187 H 21.2953 -1.87894 -5.32312 0
M  V30 188 N 20.6934 1.19889 -1.02296 0
M  V30 189 C 21.6034 2.26571 -0.608508 0
M  V30 190 C 22.6194 1.70299 0.356964 0
M  V30 191 O 23.7954 2.00235 0.216326 0
M  V30 192 C 20.8604 3.46677 0.0402814 0
M  V30 193 C 19.9214 4.18153 -0.97194 0
M  V30 194 C 19.1544 5.32525 -0.354016 0
M  V30 195 O 19.3774 5.64112 0.844604 0
M  V30 196 O 18.3114 5.92242 -1.07391 0
M  V30 197 H 22.1374 2.64251 -1.49684 0
M  V30 198 H 19.7224 1.26629 -0.792809 0
M  V30 199 H 21.6044 4.19475 0.402324 0
M  V30 200 H 20.2794 3.10858 0.902707 0
M  V30 201 H 19.1864 3.47499 -1.38546 0
M  V30 202 H 20.5194 4.57927 -1.80454 0
M  V30 203 N 22.1715 0.800033 1.35784 0
M  V30 204 C 23.1195 0.193851 2.31791 0
M  V30 205 C 24.1135 -0.652744 1.56319 0
M  V30 206 O 25.3195 -0.546641 1.71499 0
M  V30 207 H 21.6945 0.04392 0.750716 0
M  V30 208 H 23.6655 1.01883 2.80468 0
M  V30 209 C 22.4145 -0.648338 3.41602 0
M  V30 210 H 21.7375 -0.00624665 3.998 0
M  V30 211 H 23.1775 -1.03898 4.11073 0
M  V30 212 C 21.6365 -1.8111 2.84079 0
M  V30 213 O 22.1665 -2.90825 2.77099 0
M  V30 214 N 20.3725 -1.62056 2.41218 0
M  V30 215 H 19.9195 -0.728123 2.47095 0
M  V30 216 H 19.8775 -2.40013 2.03079 0
M  V30 217 N 23.6496 -1.47581 0.552962 0
M  V30 218 C 24.8986 -2.01684 0.0251995 0
M  V30 219 C 25.2116 -1.43317 -1.33115 0
M  V30 220 O 26.4176 -1.89057 -1.94858 0
M  V30 221 C 24.8736 -3.599 -0.00542052 0
M  V30 222 C 24.4816 -4.27257 1.34742 0
M  V30 223 C 26.2256 -4.21768 -0.4808 0
M  V30 224 C 24.1326 -5.77467 1.27614 0
M  V30 225 H 23.0626 -0.753979 0.00565033 0
M  V30 226 H 25.7136 -1.69616 0.70018 0
M  V30 227 H 24.0956 -3.88911 -0.745961 0
M  V30 228 H 25.2696 -4.09893 2.10534 0
M  V30 229 H 23.5846 -3.77358 1.76039 0
M  V30 230 H 26.1816 -5.31838 -0.55246 0
M  V30 231 H 26.5246 -3.88651 -1.49184 0
M  V30 232 H 27.0576 -3.97273 0.204752 0
M  V30 233 H 23.7966 -6.15196 2.26304 0
M  V30 234 H 23.3166 -5.9718 0.55996 0
M  V30 235 H 24.9956 -6.3959 0.976421 0
M  V30 236 N 25.1277 -0.289203 -1.54924 0
M  V30 237 C 26.4047 0.376032 -1.91951 0
M  V30 238 C 26.7847 1.72622 -1.21511 0
M  V30 239 O 26.1327 2.25853 -0.346767 0
M  V30 240 C 26.3427 0.502378 -3.45365 0
M  V30 241 C 27.6907 0.778741 -4.17398 0
M  V30 242 O 28.7147 0.586647 -3.51336 0
M  V30 243 O 27.5737 1.14698 -5.34328 0
M  V30 244 H 24.6677 0.208167 -0.800372 0
M  V30 245 H 27.2137 -0.336394 -1.66332 0
M  V30 246 H 25.9857 -0.447255 -3.88736 0
M  V30 247 H 25.6087 1.26373 -3.76982 0
M  V30 248 N 26.6058 1.57591 -0.0167156 0
M  V30 249 C 27.8518 1.91567 0.665582 0
M  V30 250 C 28.1848 0.892298 1.72487 0
M  V30 251 O 27.4598 -0.0867127 1.94307 0
M  V30 252 C 27.7428 3.36069 1.29342 0
M  V30 253 C 27.5958 4.49135 0.244541 0
M  V30 254 C 28.9148 3.803 2.21495 0
M  V30 255 H 26.0338 0.69666 0.240488 0
M  V30 256 H 28.6758 1.89866 -0.0714356 0
M  V30 257 H 26.8258 3.3765 1.92158 0
M  V30 258 H 28.4978 4.59689 -0.385228 0
M  V30 259 H 26.7408 4.3165 -0.431379 0
M  V30 260 H 27.4118 5.47242 0.723207 0
M  V30 261 H 29.8878 3.80377 1.68678 0
M  V30 262 H 28.7638 4.82127 2.62382 0
M  V30 263 H 29.0248 3.15104 3.101 0
M  V30 264 N 28.0839 -0.256276 1.55502 0
M  V30 265 C 29.3239 -0.993081 1.78654 0
M  V30 266 C 29.6879 -1.8288 0.584724 0
M  V30 267 O 30.8889 -2.59665 0.694822 0
M  V30 268 C 29.1599 -1.83856 3.06483 0
M  V30 269 S 30.7189 -2.63573 3.5082 0
M  V30 270 H 27.5369 -0.334199 0.62756 0
M  V30 271 H 30.1389 -0.26184 1.93739 0
M  V30 272 H 28.8429 -1.21414 3.92029 0
M  V30 273 H 28.3739 -2.61271 2.94111 0
M  V30 274 H 30.3889 -3.86312 3.11412 0
M  V30 275 N 29.562 -1.4872 -0.521534 0
M  V30 276 C 30.472 -1.66569 -1.65203 0
M  V30 277 C 31.488 -0.548197 -1.65139 0
M  V30 278 O 32.664 -0.820339 -1.83936 0
M  V30 279 C 29.729 -1.70917 -3.01642 0
M  V30 280 C 28.79 -2.94356 -3.12495 0
M  V30 281 C 28.023 -2.98487 -4.42426 0
M  V30 282 O 28.246 -2.10786 -5.30024 0
M  V30 283 O 27.18 -3.90746 -4.57822 0
M  V30 284 H 31.006 -2.62298 -1.5308 0
M  V30 285 H 28.591 -1.3222 -0.695565 0
M  V30 286 H 30.473 -1.7625 -3.82771 0
M  V30 287 H 29.148 -0.783633 -3.14071 0
M  V30 288 H 28.055 -2.94552 -2.3063 0
M  V30 289 H 29.388 -3.86322 -3.04986 0
M  V30 290 N 31.0401 0.771051 -1.3745 0
M  V30 291 C 31.9881 1.90574 -1.33358 0
M  V30 292 C 32.9821 1.67936 -0.22224 0
M  V30 293 O 34.1881 1.75717 -0.390304 0
M  V30 294 H 30.5631 0.626714 -0.415612 0
M  V30 295 H 32.5341 1.91142 -2.29144 0
M  V30 296 C 31.2831 3.27845 -1.15813 0
M  V30 297 H 30.6061 3.45842 -2.00583 0
M  V30 298 H 32.0461 4.07538 -1.17 0
M  V30 299 C 30.5051 3.36625 0.136165 0
M  V30 300 O 31.0351 3.85785 1.11949 0
M  V30 301 N 29.2411 2.89997 0.187099 0
M  V30 302 H 28.7881 2.50182 -0.613753 0
M  V30 303 H 28.7461 2.96252 1.05272 0
M  V30 304 N 32.5182 1.22032 0.997298 0
M  V30 305 C 33.7582 1.05375 1.75144 0
M  V30 306 C 34.1222 -0.404696 1.87686 0
M  V30 307 O 35.3232 -0.691998 2.5974 0
M  V30 308 C 33.5942 1.74046 3.12158 0
M  V30 309 S 35.1532 1.72745 4.03366 0
M  V30 310 H 31.9712 0.377449 0.602539 0
M  V30 311 H 34.5732 1.54902 1.19272 0
M  V30 312 H 33.2772 2.79332 3.00669 0
M  V30 313 H 32.8082 1.24731 3.73103 0
M  V30 314 H 34.8232 0.774015 4.90126 0
M  V30 315 N 33.9963 -1.19345 1.0293 0
M  V30 316 C 34.9463 -2.20472 0.58104 0
M  V30 317 C 35.9303 -1.56578 -0.370442 0
M  V30 318 O 37.1223 -1.75963 -0.191344 0
M  V30 319 C 34.2513 -3.43236 -0.066306 0
M  V30 320 C 33.3373 -4.14274 0.907642 0
M  V30 321 N 33.7283 -4.61492 2.07023 0
M  V30 322 C 32.0263 -4.39966 0.731177 0
M  V30 323 C 32.7273 -5.1605 2.68454 0
M  V30 324 N 31.7033 -5.06875 1.96414 0
M  V30 325 H 35.5053 -2.54659 1.46717 0
M  V30 326 H 33.0193 -1.35423 0.896345 0
M  V30 327 H 35.0163 -4.14927 -0.405068 0
M  V30 328 H 33.6763 -3.10549 -0.948118 0
M  V30 329 H 34.6873 -4.56304 2.44963 0
M  V30 330 H 31.3643 -4.17377 -0.101507 0
M  V30 331 H 32.7543 -5.6287 3.66915 0
M  V30 332 N 35.4744 -0.807222 -1.35358 0
M  V30 333 C 36.7044 -0.399796 -2.02695 0
M  V30 334 C 37.1124 0.994176 -1.60974 0
M  V30 335 O 36.4554 1.65209 -0.803226 0
M  V30 336 C 36.5174 -0.404445 -3.57218 0
M  V30 337 C 36.1814 -1.74904 -4.22206 0
M  V30 338 C 37.1784 -2.70743 -4.4384 0
M  V30 339 C 34.8634 -2.03322 -4.5931 0
M  V30 340 C 36.8574 -3.93183 -5.01683 0
M  V30 341 C 34.5444 -3.26026 -5.16866 0
M  V30 342 C 35.5424 -4.20774 -5.37994 0
M  V30 343 O 35.2304 -5.41312 -5.94337 0
M  V30 344 H 34.9624 -0.160517 -0.656666 0
M  V30 345 H 37.5164 -1.09235 -1.73945 0
M  V30 346 H 35.7464 0.344707 -3.85161 0
M  V30 347 H 37.4354 -0.0192429 -4.05895 0
M  V30 348 H 38.2014 -2.5008 -4.15554 0
M  V30 349 H 34.0804 -1.30384 -4.42178 0
M  V30 350 H 37.6244 -4.6715 -5.1809 0
M  V30 351 H 33.5214 -3.46559 -5.44579 0
M  V30 352 H 34.2894 -5.42618 -6.12787 0
M  V30 353 N 36.9525 1.47285 -0.560781 0
M  V30 354 C 38.3635 1.86258 -0.128343 0
M  V30 355 C 38.7145 1.46699 1.30284 0
M  V30 356 O 37.8395 0.871698 1.98067 0
M  V30 357 C 38.4345 3.38044 -0.22614 0
M  V30 358 C 36.9935 3.76096 0.151283 0
M  V30 359 C 36.1405 2.71335 -0.572084 0
M  V30 360 H 39.0915 1.38752 -0.770297 0
M  V30 361 H 39.1125 3.76441 0.554322 0
M  V30 362 H 38.6245 3.66806 -1.26788 0
M  V30 363 H 36.7255 3.52951 1.19399 0
M  V30 364 H 36.8385 4.78641 -0.209765 0
M  V30 365 H 35.2025 2.54696 -0.0147653 0
M  V30 366 H 35.9855 3.02938 -1.61504 0
M  V30 367 N 38.4306 0.297415 1.54768 0
M  V30 368 C 39.6796 -0.313669 1.99246 0
M  V30 369 C 39.9926 -1.55281 1.18942 0
M  V30 370 O 41.1986 -2.23825 1.5367 0
M  V30 371 C 39.6546 -0.609407 3.54703 0
M  V30 372 C 39.2626 0.611192 4.43811 0
M  V30 373 C 41.0066 -1.18188 4.07715 0
M  V30 374 C 38.9136 0.288805 5.90694 0
M  V30 375 H 37.8436 -0.120979 0.744231 0
M  V30 376 H 40.4946 0.40556 1.78962 0
M  V30 377 H 38.8766 -1.38813 3.70873 0
M  V30 378 H 40.0506 1.3875 4.39414 0
M  V30 379 H 38.3656 1.10205 4.01552 0
M  V30 380 H 40.9626 -1.43727 5.15021 0
M  V30 381 H 41.3056 -2.12299 3.58099 0
M  V30 382 H 41.8386 -0.464944 3.95074 0
M  V30 383 H 38.5776 1.19838 6.44453 0
M  V30 384 H 38.0976 -0.450305 5.98107 0
M  V30 385 H 39.7766 -0.110933 6.46905 0
M  V30 386 N 39.9087 -1.5758 0.0250728 0
M  V30 387 C 41.1547 -1.91917 -0.655413 0
M  V30 388 C 41.4877 -0.901433 -1.72011 0
M  V30 389 O 40.7627 0.0764069 -1.9435 0
M  V30 390 C 41.0457 -3.36751 -1.27558 0
M  V30 391 C 40.8987 -4.49258 -0.220719 0
M  V30 392 C 42.2177 -3.81469 -2.19475 0
M  V30 393 H 39.3367 -0.697925 -0.23679 0
M  V30 394 H 41.9787 -1.89825 0.0815036 0
M  V30 395 H 40.1287 -3.38664 -1.90365 0
M  V30 396 H 41.8007 -4.59478 0.409601 0
M  V30 397 H 40.0437 -4.31415 0.454264 0
M  V30 398 H 40.7147 -5.47618 -0.694175 0
M  V30 399 H 43.1907 -3.81266 -1.66659 0
M  V30 400 H 42.0667 -4.83512 -2.59822 0
M  V30 401 H 42.3277 -3.16744 -3.08424 0
M  V30 402 N 41.3868 0.248026 -1.55636 0
M  V30 403 C 42.7978 0.817177 -1.67866 0
M  V30 404 C 43.1488 1.86069 -0.622322 0
M  V30 405 O 42.2738 2.15157 0.231618 0
M  V30 406 C 42.8688 1.489 -3.04326 0
M  V30 407 C 41.4278 2.00587 -3.185 0
M  V30 408 C 40.5748 0.856573 -2.63739 0
M  V30 409 H 43.5258 0.0238579 -1.58682 0
M  V30 410 H 43.5468 2.35698 -2.98708 0
M  V30 411 H 43.0588 0.729279 -3.81186 0
M  V30 412 H 41.1598 2.79443 -2.4646 0
M  V30 413 H 41.2728 2.20402 -4.25393 0
M  V30 414 H 39.6368 1.25678 -2.21534 0
M  V30 415 H 40.4198 0.109953 -3.43124 0
M  V30 416 N 42.8649 1.48995 0.513639 0
M  V30 417 C 43.7949 1.67636 1.62544 0
M  V30 418 C 44.7759 0.525087 1.61793 0
M  V30 419 O 45.9609 0.759502 1.78732 0
M  V30 420 C 43.0909 1.73114 3.01079 0
M  V30 421 C 42.0449 2.87905 3.16693 0
M  V30 422 C 41.3709 2.78486 4.56453 0
M  V30 423 C 42.6709 4.29005 2.97913 0
M  V30 424 H 44.3649 2.60716 1.47198 0
M  V30 425 H 41.9109 1.25465 0.706714 0
M  V30 426 H 43.8639 1.84742 3.78746 0
M  V30 427 H 42.5879 0.766241 3.17484 0
M  V30 428 H 41.2469 2.75859 2.41448 0
M  V30 429 H 40.8949 1.7993 4.69717 0
M  V30 430 H 40.5949 3.55523 4.67843 0
M  V30 431 H 42.1189 2.92104 5.36197 0
M  V30 432 H 43.5329 4.41798 3.65359 0
M  V30 433 H 41.9299 5.07166 3.20785 0
M  V30 434 H 42.9999 4.44329 1.94165 0
M  V30 435 N 44.343 -0.763751 1.37857 0
M  V30 436 C 45.62 -1.51244 1.24035 0
M  V30 437 C 46 -2.10472 -0.162649 0
M  V30 438 O 45.348 -1.96206 -1.17112 0
M  V30 439 C 45.558 -2.58694 2.34261 0
M  V30 440 C 46.906 -3.25878 2.72193 0
M  V30 441 O 47.93 -2.68993 2.33497 0
M  V30 442 O 46.789 -4.2874 3.38887 0
M  V30 443 H 43.883 -0.670243 0.484462 0
M  V30 444 H 46.429 -0.800031 1.49658 0
M  V30 445 H 45.201 -2.13105 3.2818 0
M  V30 446 H 44.824 -3.37527 2.10146 0
M  V30 447 N 45.8211 -1.22559 -0.990812 0
M  V30 448 C 47.0691 -1.04933 -1.72724 0
M  V30 449 C 47.3901 0.416158 -1.90508 0
M  V30 450 O 46.6601 1.29918 -1.46622 0
M  V30 451 H 45.2401 -0.385296 -0.639965 0
M  V30 452 H 47.9021 -1.54105 -1.19322 0
M  V30 453 H 46.9981 -1.52886 -2.72089 0
M  V30 454 N 47.2992 1.18797 -1.03562 0
M  V30 455 C 48.2462 2.22253 -0.622259 0
M  V30 456 C 49.2162 1.61987 0.36736 0
M  V30 457 O 50.4012 1.88986 0.262492 0
M  V30 458 C 47.5412 3.45097 0.0138462 0
M  V30 459 C 46.6542 4.19722 -1.02263 0
M  V30 460 C 45.7892 5.30009 -0.355573 0
M  V30 461 C 44.8282 5.96399 -1.37749 0
M  V30 462 N 43.9652 6.98234 -0.735766 0
M  V30 463 H 48.8052 2.56968 -1.50903 0
M  V30 464 H 46.3422 1.26245 -0.755017 0
M  V30 465 H 48.3002 4.15279 0.399948 0
M  V30 466 H 46.9302 3.11018 0.864158 0
M  V30 467 H 45.9822 3.48418 -1.52673 0
M  V30 468 H 47.2942 4.65227 -1.79903 0
M  V30 469 H 46.4482 6.0664 0.0850095 0
M  V30 470 H 45.1872 4.85592 0.452967 0
M  V30 471 H 44.1922 5.18512 -1.82826 0
M  V30 472 H 45.4172 6.42899 -2.18764 0
M  V30 473 H 43.3632 6.55979 0.0525597 0
M  V30 474 H 43.2802 7.41965 -1.44995 0
M  V30 475 H 44.5482 7.78845 -0.31941 0
M  V30 476 N 48.7773 0.814389 1.34928 0
M  V30 477 C 50.0253 0.397636 1.9815 0
M  V30 478 C 50.3463 -1.04069 1.64908 0
M  V30 479 O 49.6163 -1.72121 0.93548 0
M  V30 480 H 48.1963 0.144043 0.732981 0
M  V30 481 H 50.8583 1.04195 1.6471 0
M  V30 482 H 49.9543 0.509688 3.0791 0
M  V30 483 N 50.2554 -1.46986 0.568584 0
M  V30 484 C 51.4834 -2.0683 0.0539956 0
M  V30 485 C 51.8984 -1.41953 -1.24478 0
M  V30 486 O 51.2554 -0.519933 -1.74937 0
M  V30 487 C 51.3064 -3.61254 -0.133362 0
M  V30 488 O 51.0274 -4.237 1.11399 0
M  V30 489 C 52.5284 -4.37992 -0.683927 0
M  V30 490 H 49.7484 -0.669058 0.0510141 0
M  V30 491 H 52.2924 -1.88824 0.785234 0
M  V30 492 H 50.4474 -3.78735 -0.81477 0
M  V30 493 H 50.8614 -5.16388 0.91888 0
M  V30 494 H 52.3354 -5.46684 -0.764263 0
M  V30 495 H 52.8124 -4.05058 -1.69778 0
M  V30 496 H 53.4184 -4.25283 -0.0378494 0
M  V30 497 N 51.7335 -0.305618 -1.54608 0
M  V30 498 C 52.6635 0.561482 -2.26649 0
M  V30 499 C 53.6445 1.13415 -1.26772 0
M  V30 500 O 54.8295 1.16262 -1.55553 0
M  V30 501 C 51.9595 1.73122 -3.01075 0
M  V30 502 C 50.9135 1.2887 -4.08138 0
M  V30 503 C 50.2395 2.54396 -4.70305 0
M  V30 504 C 51.5395 0.416578 -5.20636 0
M  V30 505 H 53.2335 -0.0393902 -2.99374 0
M  V30 506 H 50.7795 -0.020385 -1.43986 0
M  V30 507 H 52.7325 2.34396 -3.50195 0
M  V30 508 H 51.4565 2.3584 -2.25936 0
M  V30 509 H 50.1155 0.698991 -3.59875 0
M  V30 510 H 49.7635 3.15439 -3.918 0
M  V30 511 H 49.4635 2.25486 -5.42614 0
M  V30 512 H 50.9875 3.16464 -5.2219 0
M  V30 513 H 52.4015 0.935116 -5.65622 0
M  V30 514 H 50.7985 0.221046 -5.99693 0
M  V30 515 H 51.8685 -0.557162 -4.81688 0
M  V30 516 N 53.2116 1.57565 -0.0334293 0
M  V30 517 C 54.1416 2.13511 0.945265 0
M  V30 518 C 55.1226 1.05231 1.33643 0
M  V30 519 O 56.3076 1.33084 1.41429 0
M  V30 520 C 53.4376 2.6657 2.22616 0
M  V30 521 C 52.3916 3.79676 1.97561 0
M  V30 522 C 51.7176 4.1918 3.31952 0
M  V30 523 C 53.0176 5.0557 1.31135 0
M  V30 524 H 54.7116 2.95538 0.479325 0
M  V30 525 H 52.2576 1.42166 0.229115 0
M  V30 526 H 54.2106 3.04344 2.91466 0
M  V30 527 H 52.9346 1.8171 2.71384 0
M  V30 528 H 51.5936 3.42347 1.31127 0
M  V30 529 H 51.2416 3.31296 3.78487 0
M  V30 530 H 50.9416 4.95402 3.15992 0
M  V30 531 H 52.4656 4.59541 4.02063 0
M  V30 532 H 53.8796 5.40903 1.89992 0
M  V30 533 H 52.2766 5.86818 1.25559 0
M  V30 534 H 53.3466 4.84062 0.284894 0
M  V30 535 N 54.6897 -0.239769 1.55765 0
M  V30 536 C 55.9387 -0.964754 1.77131 0
M  V30 537 C 56.2517 -1.86213 0.59868 0
M  V30 538 O 57.4577 -2.6244 0.695522 0
M  V30 539 C 55.9137 -1.76552 3.1362 0
M  V30 540 C 55.5217 -0.915185 4.38553 0
M  V30 541 C 57.2657 -2.48281 3.44321 0
M  V30 542 C 55.1727 -1.71225 5.66071 0
M  V30 543 H 54.1027 -0.363953 0.660344 0
M  V30 544 H 56.7537 -0.219181 1.82186 0
M  V30 545 H 55.1357 -2.55331 3.02691 0
M  V30 546 H 56.3097 -0.169217 4.60489 0
M  V30 547 H 54.6247 -0.310889 4.15238 0
M  V30 548 H 57.2217 -3.08382 4.36812 0
M  V30 549 H 57.5647 -3.20256 2.65973 0
M  V30 550 H 58.0977 -1.76507 3.56497 0
M  V30 551 H 54.8367 -1.03612 6.4726 0
M  V30 552 H 54.3567 -2.43331 5.48224 0
M  V30 553 H 56.0357 -2.27758 6.05587 0
M  V30 554 N 56.1678 -1.49265 -0.50573 0
M  V30 555 C 57.5838 -1.35923 -0.836486 0
M  V30 556 C 57.7838 -0.388704 -1.97715 0
M  V30 557 O 56.8398 0.181336 -2.51848 0
M  V30 558 C 58.1528 -2.76531 -1.18115 0
M  V30 559 C 59.7008 -2.85197 -1.28964 0
M  V30 560 C 60.1758 -4.26561 -1.66761 0
M  V30 561 N 61.6668 -4.2935 -1.73819 0
M  V30 562 C 62.4018 -5.35693 -2.045 0
M  V30 563 N 61.8978 -6.52287 -2.33438 0
M  V30 564 N 63.6908 -5.23105 -2.05711 0
M  V30 565 H 55.8418 -2.10965 0.246519 0
M  V30 566 H 58.1048 -0.9468 0.0476887 0
M  V30 567 H 57.8108 -3.49226 -0.416398 0
M  V30 568 H 57.6848 -3.11599 -2.1257 0
M  V30 569 H 60.0718 -2.12742 -2.04511 0
M  V30 570 H 60.1528 -2.53718 -0.325704 0
M  V30 571 H 59.7968 -4.99541 -0.917656 0
M  V30 572 H 59.7268 -4.55502 -2.64246 0
M  V30 573 H 62.2178 -3.4526 -1.53635 0
M  V30 574 H 62.5308 -7.29158 -2.56024 0
M  V30 575 H 60.8758 -6.55521 -2.30905 0
M  V30 576 H 64.0668 -4.31026 -1.82577 0
M  V30 577 H 64.2398 -6.06078 -2.29289 0
M  V30 578 N 57.6459 0.756429 -1.3826 0
M  V30 579 C 58.5939 1.89149 -1.35372 0
M  V30 580 C 59.5879 1.67691 -0.24004 0
M  V30 581 O 60.7939 1.75294 -0.408919 0
M  V30 582 H 57.1689 0.622271 -0.422236 0
M  V30 583 H 59.1399 1.88701 -2.31159 0
M  V30 584 C 57.8889 3.26599 -1.19284 0
M  V30 585 H 57.2119 3.43695 -2.0424 0
M  V30 586 H 58.6519 4.06274 -1.21316 0
M  V30 587 C 57.1109 3.3675 0.100454 0
M  V30 588 O 57.6409 3.86951 1.07851 0
M  V30 589 N 55.8469 2.90179 0.15633 0
M  V30 590 H 55.3939 2.49517 -0.640253 0
M  V30 591 H 55.3519 2.97352 1.02123 0
M  V30 592 N 59.124 1.23083 0.984299 0
M  V30 593 C 60.372 1.05848 1.72165 0
M  V30 594 C 60.693 -0.406049 1.90726 0
M  V30 595 O 59.963 -1.29139 1.47309 0
M  V30 596 H 58.543 0.388685 0.637913 0
M  V30 597 H 61.205 1.54736 1.18503 0
M  V30 598 H 60.301 1.54327 2.71274 0
M  V30 599 N 60.6021 -1.18246 1.0419 0
M  V30 600 C 61.8271 -1.92736 0.765996 0
M  V30 601 C 62.2521 -1.75728 -0.67091 0
M  V30 602 O 61.6101 -1.06825 -1.46486 0
M  V30 603 C 61.6581 -3.42148 1.13875 0
M  V30 604 O 60.7621 -4.11548 0.264954 0
M  V30 605 H 60.1031 -0.601238 0.281797 0
M  V30 606 H 62.6331 -1.49942 1.39207 0
M  V30 607 H 62.6431 -3.92858 1.1012 0
M  V30 608 H 61.3181 -3.53848 2.18551 0
M  V30 609 H 59.8951 -3.71137 0.362226 0
M  V30 610 N 62.0802 -0.821533 -1.34494 0
M  V30 611 C 62.9902 -0.244355 -2.33324 0
M  V30 612 C 64.0062 0.620527 -1.62559 0
M  V30 613 O 65.1822 0.528754 -1.94335 0
M  V30 614 C 62.2472 0.585368 -3.41723 0
M  V30 615 C 61.3082 -0.301752 -4.28238 0
M  V30 616 C 60.5412 0.488466 -5.3146 0
M  V30 617 O 60.7642 1.72186 -5.4379 0
M  V30 618 O 59.6982 -0.12848 -6.01763 0
M  V30 619 H 63.5242 -1.06231 -2.84515 0
M  V30 620 H 61.1092 -0.583645 -1.37528 0
M  V30 621 H 62.9912 1.05747 -4.07916 0
M  V30 622 H 61.6662 1.38068 -2.92778 0
M  V30 623 H 60.5732 -0.821315 -3.64973 0
M  V30 624 H 61.9062 -1.06138 -4.8062 0
M  V30 625 N 63.5583 1.46682 -0.576371 0
M  V30 626 C 64.8043 2.02712 -0.0596221 0
M  V30 627 C 65.1373 1.44765 1.29448 0
M  V30 628 O 64.4123 0.610355 1.84675 0
M  V30 629 C 64.6953 3.60098 0.0129503 0
M  V30 630 C 64.5483 4.28441 -1.3696 0
M  V30 631 C 65.8673 4.34224 0.71678 0
M  V30 632 H 62.9863 0.736637 -0.0231407 0
M  V30 633 H 65.6283 1.74898 -0.742351 0
M  V30 634 H 63.7783 3.83926 0.594378 0
M  V30 635 H 65.4503 4.15896 -1.9957 0
M  V30 636 H 63.6933 3.8805 -1.93907 0
M  V30 637 H 64.3643 5.3716 -1.27135 0
M  V30 638 H 66.8403 4.15503 0.222908 0
M  V30 639 H 65.7163 5.43936 0.73657 0
M  V30 640 H 65.9773 4.04823 1.77682 0
M  V30 641 N 65.0364 0.313813 1.54444 0
M  V30 642 C 66.4524 -0.0391619 1.59552 0
M  V30 643 C 66.6524 -1.51322 1.33056 0
M  V30 644 O 65.7084 -2.26782 1.11022 0
M  V30 645 C 67.0214 0.370302 2.98411 0
M  V30 646 C 68.5694 0.320139 3.11358 0
M  V30 647 C 69.0444 0.704617 4.52547 0
M  V30 648 N 70.5354 0.657645 4.58508 0
M  V30 649 C 71.2704 0.927453 5.6585 0
M  V30 650 N 70.7664 1.26389 6.81174 0
M  V30 651 N 72.5594 0.853662 5.5558 0
M  V30 652 H 64.7104 1.27433 1.69925 0
M  V30 653 H 66.9734 0.517511 0.794284 0
M  V30 654 H 66.6794 1.39694 3.22767 0
M  V30 655 H 66.5534 -0.269619 3.76235 0
M  V30 656 H 68.9404 -0.697275 2.86744 0
M  V30 657 H 69.0214 0.99486 2.35661 0
M  V30 658 H 68.6654 1.7199 4.77893 0
M  V30 659 H 68.5954 0.00768843 5.26599 0
M  V30 660 H 71.0864 0.409067 3.75679 0
M  V30 661 H 71.3994 1.4554 7.58972 0
M  V30 662 H 69.7444 1.30206 6.82694 0
M  V30 663 H 72.9354 0.590383 4.64362 0
M  V30 664 H 73.1084 1.0673 6.3915 0
M  V30 665 N 66.5145 -1.57545 0.0417849 0
M  V30 666 C 67.7915 -1.83642 -0.673433 0
M  V30 667 C 68.1715 -0.928298 -1.89594 0
M  V30 668 O 67.5195 0.0129955 -2.28496 0
M  V30 669 C 67.7295 -3.33155 -1.03964 0
M  V30 670 C 69.0775 -3.99941 -1.42592 0
M  V30 671 O 70.1015 -3.37725 -1.13226 0
M  V30 672 O 68.9605 -5.09619 -1.9736 0
M  V30 673 H 66.0545 -0.757638 -0.331533 0
M  V30 674 H 68.6005 -1.69554 0.070433 0
M  V30 675 H 67.3725 -3.9093 -0.170098 0
M  V30 676 H 66.9955 -3.52396 -1.84126 0
M  V30 677 N 67.9926 0.231505 -1.5589 0
M  V30 678 C 69.4036 0.799327 -1.68724 0
M  V30 679 C 69.7546 1.85398 -0.642022 0
M  V30 680 O 68.8796 2.1539 0.208784 0
M  V30 681 C 69.4746 1.45664 -3.05888 0
M  V30 682 C 68.0336 1.97197 -3.20609 0
M  V30 683 C 67.1806 0.828552 -2.64632 0
M  V30 684 H 70.1316 0.00702616 -1.58698 0
M  V30 685 H 70.1526 2.32517 -3.01191 0
M  V30 686 H 69.6646 0.688808 -3.81939 0
M  V30 687 H 67.7656 2.76813 -2.4941 0
M  V30 688 H 67.8786 2.15878 -4.27707 0
M  V30 689 H 66.2426 1.23321 -2.22854 0
M  V30 690 H 67.0256 0.0735544 -3.43221 0
M  V30 691 N 69.4707 1.49531 0.497807 0
M  V30 692 C 70.4007 1.6935 1.60757 0
M  V30 693 C 71.3817 0.542218 1.61227 0
M  V30 694 O 72.5667 0.778417 1.77917 0
M  V30 695 C 69.6967 1.76298 2.99226 0
M  V30 696 C 68.6507 2.91248 3.13622 0
M  V30 697 C 67.9767 2.83312 4.53474 0
M  V30 698 C 69.2767 4.3214 2.93346 0
M  V30 699 H 70.9707 2.62263 1.44425 0
M  V30 700 H 68.5167 1.26208 0.693367 0
M  V30 701 H 70.4697 1.88749 3.76765 0
M  V30 702 H 69.1937 0.799871 3.16654 0
M  V30 703 H 67.8527 2.78404 2.38509 0
M  V30 704 H 67.5007 1.84902 4.67782 0
M  V30 705 H 67.2007 3.60465 4.64046 0
M  V30 706 H 68.7247 2.97775 5.33069 0
M  V30 707 H 70.1387 4.45649 3.60652 0
M  V30 708 H 68.5357 5.1054 3.15387 0
M  V30 709 H 69.6057 4.46363 1.89441 0
M  V30 710 N 70.9488 -0.749086 1.3866 0
M  V30 711 C 72.1948 -1.51056 1.35314 0
M  V30 712 C 72.5278 -1.94121 -0.0553751 0
M  V30 713 O 71.8028 -1.65763 -1.01749 0
M  V30 714 C 72.0858 -2.76003 2.31288 0
M  V30 715 C 71.9388 -2.39047 3.8102 0
M  V30 716 C 73.2578 -3.78046 2.2532 0
M  V30 717 H 70.3768 -0.547972 0.492844 0
M  V30 718 H 73.0188 -0.857628 1.69543 0
M  V30 719 H 71.1688 -3.31716 2.02229 0
M  V30 720 H 72.8408 -1.89074 4.20771 0
M  V30 721 H 71.0838 -1.71449 3.98482 0
M  V30 722 H 71.7548 -3.28462 4.4364 0
M  V30 723 H 74.2308 -3.31884 2.50983 0
M  V30 724 H 73.1068 -4.63159 2.94576 0
M  V30 725 H 73.3678 -4.23957 1.25352 0
M  V30 726 N 72.4269 -1.23603 -0.977757 0
M  V30 727 C 73.6549 -1.09646 -1.75458 0
M  V30 728 C 74.0699 0.351859 -1.85492 0
M  V30 729 O 73.4269 1.24327 -1.336 0
M  V30 730 C 73.4779 -1.71895 -3.18016 0
M  V30 731 O 73.1989 -3.11063 -3.08498 0
M  V30 732 C 74.6999 -1.63415 -4.12081 0
M  V30 733 H 71.9199 -0.38359 -0.550545 0
M  V30 734 H 74.4639 -1.63507 -1.22824 0
M  V30 735 H 72.6189 -1.22061 -3.67668 0
M  V30 736 H 73.0329 -3.41305 -3.9826 0
M  V30 737 H 74.5069 -2.11669 -5.09804 0
M  V30 738 H 74.9839 -0.593462 -4.35172 0
M  V30 739 H 75.5899 -2.12628 -3.68334 0
M  V30 740 N 73.905 1.17692 -1.04816 0
M  V30 741 C 75.135 1.91508 -0.775128 0
M  V30 742 C 75.543 1.76844 0.67253 0
M  V30 743 O 74.886 1.10057 1.47082 0
M  V30 744 C 74.948 3.43167 -1.0713 0
M  V30 745 C 74.612 3.81612 -2.51438 0
M  V30 746 C 75.609 3.84772 -3.49638 0
M  V30 747 C 73.294 4.12687 -2.86348 0
M  V30 748 C 75.288 4.18469 -4.80794 0
M  V30 749 C 72.975 4.46053 -4.17708 0
M  V30 750 C 73.973 4.48921 -5.14741 0
M  V30 751 O 73.661 4.81504 -6.43746 0
M  V30 752 H 73.393 0.614575 -0.281555 0
M  V30 753 H 75.947 1.50206 -1.40098 0
M  V30 754 H 74.177 3.84745 -0.388342 0
M  V30 755 H 75.866 3.98239 -0.784883 0
M  V30 756 H 76.632 3.60893 -3.24008 0
M  V30 757 H 72.511 4.09627 -2.11486 0
M  V30 758 H 76.055 4.20623 -5.56527 0
M  V30 759 H 71.952 4.69393 -4.43103 0
M  V30 760 H 72.72 4.99377 -6.4851 0
M  V30 761 N 75.3831 0.828654 1.34056 0
M  V30 762 C 76.2931 0.256725 2.33191 0
M  V30 763 C 77.3091 -0.611898 1.62886 0
M  V30 764 O 78.4851 -0.51844 1.94613 0
M  V30 765 C 75.5501 -0.567238 3.42028 0
M  V30 766 C 74.6111 0.324458 4.28072 0
M  V30 767 C 73.8441 -0.460274 5.31712 0
M  V30 768 O 74.0671 -1.693 5.44696 0
M  V30 769 O 73.0011 0.160391 6.01686 0
M  V30 770 H 76.8271 1.07739 2.83947 0
M  V30 771 H 74.4121 0.59093 1.37217 0
M  V30 772 H 76.2941 -1.03582 4.08471 0
M  V30 773 H 74.9691 -1.36513 2.93506 0
M  V30 774 H 73.8761 0.840659 3.64532 0
M  V30 775 H 75.2091 1.08685 4.8005 0
M  V30 776 N 76.8612 -1.46375 0.584142 0
M  V30 777 C 78.1092 -2.01978 0.0701287 0
M  V30 778 C 78.4302 -1.4579 -1.295 0
M  V30 779 O 77.7002 -0.64314 -1.85042 0
M  V30 780 H 76.2802 -0.746648 0.0229345 0
M  V30 781 H 78.9422 -1.79461 0.760245 0
M  V30 782 H 78.0382 -3.121 0.0022064 0
M  V30 783 N 78.3393 -0.321999 -1.54275 0
M  V30 784 C 79.5643 0.285791 -2.05422 0
M  V30 785 C 79.9893 1.45124 -1.19669 0
M  V30 786 O 79.3473 1.80132 -0.205441 0
M  V30 787 C 79.3953 0.69956 -3.53749 0
M  V30 788 O 78.4993 1.8021 -3.70942 0
M  V30 789 H 77.8403 0.0518962 -0.661969 0
M  V30 790 H 80.3703 -0.469954 -1.9913 0
M  V30 791 H 80.3803 0.982649 -3.9599 0
M  V30 792 H 79.0553 -0.152864 -4.15619 0
M  V30 793 H 77.6323 1.51794 -3.40607 0
M  V30 794 N 79.8174 1.5752 -0.0501392 0
M  V30 795 C 80.7654 2.12651 0.942459 0
M  V30 796 C 81.7594 1.05807 1.32292 0
M  V30 797 O 82.9654 1.24217 1.3027 0
M  V30 798 H 79.3404 0.679673 0.321789 0
M  V30 799 H 81.3114 2.94951 0.452356 0
M  V30 800 C 80.0604 2.68565 2.20836 0
M  V30 801 H 79.3834 3.50439 1.92439 0
M  V30 802 H 80.8234 3.10761 2.8845 0
M  V30 803 C 79.2824 1.62291 2.95234 0
M  V30 804 O 79.8124 1.03508 3.88135 0
M  V30 805 N 78.0184 1.33836 2.57946 0
M  V30 806 H 77.5654 1.81826 1.82475 0
M  V30 807 H 77.5234 0.629595 3.08032 0
M  V30 808 N 81.2955 -0.223234 1.56011 0
M  V30 809 C 82.7065 -0.790368 1.69145 0
M  V30 810 C 83.0575 -1.85055 0.651845 0
M  V30 811 O 82.1825 -2.15498 -0.197359 0
M  V30 812 C 82.7775 -1.4404 3.06656 0
M  V30 813 C 81.3365 -1.95494 3.2165 0
M  V30 814 C 80.4835 -0.814506 2.65068 0
M  V30 815 H 83.4345 0.00139011 1.587 0
M  V30 816 H 83.4555 -2.30916 3.0242 0
M  V30 817 H 82.9675 -0.668543 3.82298 0
M  V30 818 H 81.0685 -2.75487 2.50874 0
M  V30 819 H 81.1815 -2.13607 4.28846 0
M  V30 820 H 79.5455 -1.22137 2.23505 0
M  V30 821 H 80.3285 -0.0553515 3.43255 0
M  V30 822 N 82.7736 -1.49793 -0.48987 0
M  V30 823 C 84.1846 -1.52914 -1.07118 0
M  V30 824 C 84.5356 -0.321738 -1.93544 0
M  V30 825 O 83.6606 0.567338 -2.08831 0
M  V30 826 C 84.2556 -2.771 -1.94938 0
M  V30 827 C 82.8146 -2.82963 -2.48212 0
M  V30 828 C 81.9616 -2.46972 -1.26096 0
M  V30 829 H 84.9126 -1.56329 -0.273289 0
M  V30 830 H 84.9336 -2.57892 -2.79771 0
M  V30 831 H 84.4456 -3.64959 -1.32009 0
M  V30 832 H 82.5466 -1.99411 -3.14748 0
M  V30 833 H 82.6596 -3.85406 -2.84603 0
M  V30 834 H 81.0236 -1.98994 -1.58976 0
M  V30 835 H 81.8066 -3.37118 -0.648581 0
M  V30 836 N 84.2517 0.741722 -1.39055 0
M  V30 837 C 85.2147 1.83733 -1.37021 0
M  V30 838 C 86.2147 1.58542 -0.268534 0
M  V30 839 O 87.4047 1.66067 -0.526076 0
M  V30 840 C 84.5367 3.2141 -1.13617 0
M  V30 841 H 85.7297 1.86941 -2.34506 0
M  V30 842 H 83.2827 0.944676 -1.24521 0
M  V30 843 H 84.0177 3.23865 -0.167863 0
M  V30 844 H 83.8027 3.4109 -1.93391 0
M  V30 845 H 85.2927 4.01477 -1.14918 0
M  V30 846 N 85.7298 1.2412 0.971189 0
M  V30 847 C 86.9548 1.10667 1.75407 0
M  V30 848 C 87.3798 -0.337048 1.85056 0
M  V30 849 O 86.7378 -1.24396 1.31892 0
M  V30 850 C 86.7858 1.74726 3.15441 0
M  V30 851 O 85.8898 1.01566 3.99697 0
M  V30 852 H 85.2308 0.387341 0.539317 0
M  V30 853 H 87.7608 1.64358 1.2185 0
M  V30 854 H 87.7708 1.80341 3.6598 0
M  V30 855 H 86.4458 2.79773 3.07734 0
M  V30 856 H 85.0228 1.03713 3.58187 0
M  V30 857 N 87.2079 -1.17134 1.05439 0
M  V30 858 C 88.6189 -1.69084 0.791676 0
M  V30 859 C 88.9699 -1.83822 -0.685839 0
M  V30 860 O 88.0949 -1.52757 -1.53278 0
M  V30 861 C 88.6899 -3.07119 1.4305 0
M  V30 862 C 87.2489 -3.56225 1.21577 0
M  V30 863 C 86.3959 -2.32421 1.51247 0
M  V30 864 H 89.3469 -1.01617 1.219 0
M  V30 865 H 89.3679 -3.71087 0.84112 0
M  V30 866 H 88.8799 -2.9636 2.50584 0
M  V30 867 H 86.9809 -3.72257 0.159787 0
M  V30 868 H 87.0939 -4.38837 1.92246 0
M  V30 869 H 85.4579 -2.3701 0.932653 0
M  V30 870 H 86.2409 -2.24268 2.5992 0
M  V30 871 N 88.686 -0.835752 -1.33615 0
M  V30 872 C 89.616 -0.281739 -2.31794 0
M  V30 873 C 90.597 0.608833 -1.58831 0
M  V30 874 O 91.782 0.533035 -1.86741 0
M  V30 875 C 88.912 0.546612 -3.42971 0
M  V30 876 C 87.866 -0.247904 -4.27281 0
M  V30 877 C 87.192 0.704001 -5.30045 0
M  V30 878 C 88.492 -1.46324 -5.01385 0
M  V30 879 H 90.186 -1.10206 -2.78379 0
M  V30 880 H 87.732 -0.531388 -1.33837 0
M  V30 881 H 89.685 0.944467 -4.1068 0
M  V30 882 H 88.409 1.40011 -2.95067 0
M  V30 883 H 87.068 -0.627281 -3.61194 0
M  V30 884 H 86.716 1.55381 -4.78399 0
M  V30 885 H 86.416 0.176524 -5.87335 0
M  V30 886 H 87.94 1.09944 -6.0062 0
M  V30 887 H 89.354 -1.13871 -5.61877 0
M  V30 888 H 87.751 -1.92728 -5.6831 0
M  V30 889 H 88.821 -2.23467 -4.30338 0
M  V30 890 N 90.1641 1.46063 -0.591896 0
M  V30 891 C 91.0961 2.28539 0.174001 0
M  V30 892 C 92.1091 1.39047 0.846753 0
M  V30 893 O 93.2981 1.63564 0.714774 0
M  V30 894 C 90.3981 3.14347 1.26645 0
M  V30 895 C 89.5711 4.32021 0.683856 0
M  V30 896 C 88.6301 4.99157 1.66518 0
M  V30 897 O 87.6561 5.56458 1.19763 0
M  V30 898 N 88.8581 4.97005 2.99943 0
M  V30 899 H 91.6231 2.94911 -0.533633 0
M  V30 900 H 89.1841 1.56077 -0.430294 0
M  V30 901 H 91.1761 3.56125 1.92242 0
M  V30 902 H 89.7461 2.49988 1.87682 0
M  V30 903 H 88.9661 3.93915 -0.1498 0
M  V30 904 H 90.2541 5.08059 0.274567 0
M  V30 905 H 89.6521 4.51714 3.40545 0
M  V30 906 H 88.2091 5.42696 3.61004 0
M  V30 907 N 91.6422 0.330177 1.54103 0
M  V30 908 C 92.9192 -0.325007 1.92881 0
M  V30 909 C 93.2992 -1.6934 1.26045 0
M  V30 910 O 92.6472 -2.24855 0.406526 0
M  V30 911 C 92.8572 -0.410634 3.46576 0
M  V30 912 C 94.2052 -0.667801 4.19316 0
M  V30 913 O 95.2292 -0.49329 3.52768 0
M  V30 914 O 94.0882 -1.00491 5.37181 0
M  V30 915 H 91.1822 -0.186873 0.80561 0
M  V30 916 H 93.7282 0.380376 1.65382 0
M  V30 917 H 92.5002 0.550164 3.87413 0
M  V30 918 H 92.1232 -1.16333 3.802 0
M  V30 919 N 93.1203 -1.57491 0.0584922 0
M  V30 920 C 94.0683 -2.13148 -0.931168 0
M  V30 921 C 95.0623 -1.06507 -1.31729 0
M  V30 922 O 96.2683 -1.24906 -1.29609 0
M  V30 923 H 92.6433 -0.68137 -0.31818 0
M  V30 924 H 94.6143 -2.95187 -0.436707 0
M  V30 925 C 93.3633 -2.69732 -2.19408 0
M  V30 926 H 92.6863 -3.51454 -1.90578 0
M  V30 927 H 94.1263 -3.12287 -2.86798 0
M  V30 928 C 92.5853 -1.63855 -2.94369 0
M  V30 929 O 93.1153 -1.05565 -3.87581 0
M  V30 930 N 91.3213 -1.35202 -2.57233 0
M  V30 931 H 90.8683 -1.82791 -1.81508 0
M  V30 932 H 90.8263 -0.645922 -3.07693 0
M  V30 933 N 94.5984 0.214957 -1.56127 0
M  V30 934 C 95.5284 1.2695 -1.95974 0
M  V30 935 C 96.5094 1.48539 -0.828868 0
M  V30 936 O 97.6944 1.60611 -1.09168 0
M  V30 937 C 94.8244 2.61794 -2.28214 0
M  V30 938 C 93.7784 2.54851 -3.43853 0
M  V30 939 C 93.1044 3.93785 -3.61715 0
M  V30 940 C 94.4044 2.09065 -4.78632 0
M  V30 941 H 96.0984 0.93846 -2.84312 0
M  V30 942 H 93.6444 0.449996 -1.36788 0
M  V30 943 H 95.5974 3.35731 -2.54682 0
M  V30 944 H 94.3214 2.96599 -1.36736 0
M  V30 945 H 92.9804 1.8337 -3.17444 0
M  V30 946 H 92.6284 4.25908 -2.67602 0
M  V30 947 H 92.3284 3.90019 -4.39498 0
M  V30 948 H 93.8524 4.69374 -3.90539 0
M  V30 949 H 95.2664 2.7275 -5.04262 0
M  V30 950 H 93.6634 2.16346 -5.59745 0
M  V30 951 H 94.7334 1.04315 -4.73547 0
M  V30 952 N 96.0765 1.50051 0.48192 0
M  V30 953 C 97.3225 1.60736 1.2366 0
M  V30 954 C 97.6555 0.301786 1.91841 0
M  V30 955 O 96.9305 -0.696025 1.8162 0
M  V30 956 C 97.2135 2.78009 2.28874 0
M  V30 957 C 97.0665 4.18416 1.65069 0
M  V30 958 C 98.3855 2.90867 3.30279 0
M  V30 959 H 95.5045 0.585031 0.448228 0
M  V30 960 H 98.1465 1.82402 0.531946 0
M  V30 961 H 96.2965 2.59667 2.88973 0
M  V30 962 H 97.9685 4.48322 1.0865 0
M  V30 963 H 96.2115 4.23177 0.954148 0
M  V30 964 H 96.8825 4.96381 2.41474 0
M  V30 965 H 99.3585 3.07623 2.80191 0
M  V30 966 H 98.2345 3.74566 4.01238 0
M  V30 967 H 98.4955 2.01021 3.93755 0
M  V30 968 N 97.5546 -0.734337 1.39446 0
M  V30 969 C 98.8036 -1.48937 1.36017 0
M  V30 970 C 99.1166 -1.95557 -0.0409005 0
M  V30 971 O 100.323 -2.70779 -0.19778 0
M  V30 972 C 98.7786 -2.69125 2.38955 0
M  V30 973 C 98.3866 -2.29452 3.8478 0
M  V30 974 C 100.131 -3.46944 2.44603 0
M  V30 975 C 98.0376 -3.46366 4.79358 0
M  V30 976 H 96.9676 -0.559296 0.505672 0
M  V30 977 H 99.6186 -0.800983 1.65095 0
M  V30 978 H 98.0006 -3.40041 2.02948 0
M  V30 979 H 99.1746 -1.66077 4.29831 0
M  V30 980 H 97.4896 -1.64723 3.82433 0
M  V30 981 H 100.087 -4.33907 3.12456 0
M  V30 982 H 100.43 -3.89454 1.47076 0
M  V30 983 H 100.963 -2.83056 2.79507 0
M  V30 984 H 97.7016 -3.08905 5.78151 0
M  V30 985 H 97.2216 -4.08719 4.38986 0
M  V30 986 H 98.9006 -4.12691 4.98292 0
M  V30 987 N 99.0327 -1.24633 -0.964593 0
M  V30 988 C 99.9957 -1.0424 -2.04124 0
M  V30 989 C 100.996 0.00137563 -1.608 0
M  V30 990 O 102.186 -0.239883 -1.7254 0
M  V30 991 C 99.3177 -0.580588 -3.3592 0
M  V30 992 H 100.511 -1.99803 -2.23649 0
M  V30 993 H 98.0637 -1.06899 -1.14027 0
M  V30 994 H 98.7987 0.3781 -3.22088 0
M  V30 995 H 98.5837 -1.33398 -3.6871 0
M  V30 996 H 100.074 -0.459034 -4.15069 0
M  V30 997 N 100.511 1.16574 -1.06058 0
M  V30 998 C 101.441 2.23057 -0.690488 0
M  V30 999 C 102.422 1.67141 0.315901 0
M  V30 1000 O 103.607 1.93253 0.191556 0
M  V30 1001 C 100.737 3.47222 -0.073625 0
M  V30 1002 C 99.6908 4.16016 -1.00573 0
M  V30 1003 C 99.0168 5.34104 -0.252289 0
M  V30 1004 C 100.317 4.67264 -2.33371 0
M  V30 1005 H 102.011 2.54271 -1.58072 0
M  V30 1006 H 99.5568 1.22218 -0.76149 0
M  V30 1007 H 101.51 4.20939 0.19714 0
M  V30 1008 H 100.234 3.15302 0.85161 0
M  V30 1009 H 98.8928 3.44223 -1.2612 0
M  V30 1010 H 98.5408 4.98437 0.675988 0
M  V30 1011 H 98.2408 5.81072 -0.873455 0
M  V30 1012 H 99.7648 6.10599 0.0109857 0
M  V30 1013 H 101.179 5.32573 -2.12223 0
M  V30 1014 H 99.5758 5.24843 -2.90963 0
M  V30 1015 H 100.646 3.83602 -2.96611 0
M  V30 1016 N 101.989 0.842826 1.3317 0
M  V30 1017 C 102.939 0.250877 2.26616 0
M  V30 1018 C 103.923 -0.596427 1.49437 0
M  V30 1019 O 105.115 -0.447747 1.71243 0
M  V30 1020 C 102.244 -0.569779 3.38539 0
M  V30 1021 C 101.33 0.289254 4.23112 0
M  V30 1022 N 101.721 1.36987 4.86897 0
M  V30 1023 C 100.019 0.0769631 4.45934 0
M  V30 1024 C 100.72 1.89737 5.49886 0
M  V30 1025 N 99.6959 1.19827 5.30229 0
M  V30 1026 H 103.498 1.07718 2.73448 0
M  V30 1027 H 101.012 0.687693 1.47121 0
M  V30 1028 H 103.009 -1.01018 4.04476 0
M  V30 1029 H 101.669 -1.39401 2.93253 0
M  V30 1030 H 102.68 1.75277 4.87338 0
M  V30 1031 H 99.3569 -0.713507 4.11358 0
M  V30 1032 H 100.747 2.80253 6.10662 0
M  V30 1033 N 103.467 -1.45747 0.599634 0
M  V30 1034 C 104.692 -2.07178 0.0960198 0
M  V30 1035 C 105.117 -1.44268 -1.207 0
M  V30 1036 O 104.475 -0.532503 -1.73303 0
M  V30 1037 C 104.523 -3.60579 -0.0385348 0
M  V30 1038 O 103.627 -3.97713 -1.0908 0
M  V30 1039 H 102.968 -0.660251 0.0704593 0
M  V30 1040 H 105.498 -1.87124 0.827385 0
M  V30 1041 H 105.508 -4.07298 -0.239304 0
M  V30 1042 H 104.183 -4.05756 0.912947 0
M  V30 1043 H 102.76 -3.62678 -0.867135 0
M  V30 1044 N 104.945 -0.338344 -1.53925 0
M  V30 1045 C 106.175 0.260919 -2.04946 0
M  V30 1046 C 106.583 1.45174 -1.2133 0
M  V30 1047 O 105.926 1.82122 -0.240262 0
M  V30 1048 C 105.988 0.744596 -3.51704 0
M  V30 1049 C 105.652 -0.325883 -4.55837 0
M  V30 1050 C 106.649 -1.16687 -5.06636 0
M  V30 1051 C 104.334 -0.478317 -5.00017 0
M  V30 1052 C 106.328 -2.14588 -6.00192 0
M  V30 1053 C 104.015 -1.46073 -5.93385 0
M  V30 1054 C 105.013 -2.29297 -6.4336 0
M  V30 1055 O 104.701 -3.25867 -7.34892 0
M  V30 1056 H 104.433 0.0551207 -0.673749 0
M  V30 1057 H 106.987 -0.486984 -1.99544 0
M  V30 1058 H 105.217 1.54366 -3.54553 0
M  V30 1059 H 106.906 1.26383 -3.85723 0
M  V30 1060 H 107.672 -1.06016 -4.73271 0
M  V30 1061 H 103.551 0.159613 -4.60724 0
M  V30 1062 H 107.095 -2.79585 -6.39123 0
M  V30 1063 H 102.992 -1.56802 -6.26166 0
M  V30 1064 H 103.76 -3.21278 -7.5281 0
M  V30 1065 N 106.423 1.57458 -0.0668435 0
M  V30 1066 C 107.333 2.15937 0.916975 0
M  V30 1067 C 108.349 1.12123 1.33058 0
M  V30 1068 O 109.525 1.44366 1.40429 0
M  V30 1069 C 106.59 2.70547 2.16807 0
M  V30 1070 C 105.651 3.89215 1.81135 0
M  V30 1071 C 104.884 4.41211 3.0028 0
M  V30 1072 O 105.107 3.92225 4.14144 0
M  V30 1073 O 104.041 5.32605 2.80384 0
M  V30 1074 H 107.867 3.00354 0.449561 0
M  V30 1075 H 105.452 1.48584 0.155949 0
M  V30 1076 H 107.334 3.0557 2.90181 0
M  V30 1077 H 106.009 1.89192 2.62656 0
M  V30 1078 H 104.916 3.59054 1.05028 0
M  V30 1079 H 106.249 4.71848 1.40073 0
M  V30 1080 N 107.901 -0.206675 1.56239 0
M  V30 1081 C 109.312 -0.772383 1.69974 0
M  V30 1082 C 109.663 -1.84353 0.671436 0
M  V30 1083 O 108.788 -2.15695 -0.174491 0
M  V30 1084 C 109.383 -1.40779 3.08167 0
M  V30 1085 C 107.942 -1.92072 3.23706 0
M  V30 1086 C 107.089 -0.786347 2.65917 0
M  V30 1087 H 110.04 0.0182223 1.5869 0
M  V30 1088 H 110.061 -2.27696 3.04852 0
M  V30 1089 H 109.573 -0.627958 3.82986 0
M  V30 1090 H 107.674 -2.7281 2.53782 0
M  V30 1091 H 107.787 -2.09046 4.31087 0
M  V30 1092 H 106.151 -1.1976 2.24788 0
M  V30 1093 H 106.934 -0.0189416 3.43295 0
M  V30 1094 N 109.379 -1.50304 -0.473955 0
M  V30 1095 C 110.604 -1.65175 -1.25427 0
M  V30 1096 C 111.029 -0.333673 -1.85117 0
M  V30 1097 O 110.387 0.702114 -1.67153 0
M  V30 1098 C 110.435 -2.74295 -2.34082 0
M  V30 1099 O 109.539 -2.35349 -3.38651 0
M  V30 1100 H 108.88 -0.551944 -0.369126 0
M  V30 1101 H 111.41 -1.96662 -0.564364 0
M  V30 1102 H 111.42 -2.97285 -2.79438 0
M  V30 1103 H 110.095 -3.69959 -1.90008 0
M  V30 1104 H 108.672 -2.22794 -2.99027 0
M  V30 1105 N 110.857 0.726932 -1.39834 0
M  V30 1106 C 111.807 1.83232 -1.35683 0
M  V30 1107 C 112.791 1.59155 -0.236295 0
M  V30 1108 O 113.983 1.70522 -0.474488 0
M  V30 1109 C 111.112 3.21246 -1.21062 0
M  V30 1110 C 110.198 3.51125 -2.37849 0
M  V30 1111 N 110.589 3.51889 -3.63329 0
M  V30 1112 C 108.887 3.81527 -2.30982 0
M  V30 1113 C 109.588 3.79791 -4.40606 0
M  V30 1114 N 108.564 3.97971 -3.70297 0
M  V30 1115 H 112.366 1.8214 -2.30656 0
M  V30 1116 H 109.88 0.925545 -1.33444 0
M  V30 1117 H 111.877 4.00387 -1.16171 0
M  V30 1118 H 110.537 3.23572 -0.270458 0
M  V30 1119 H 111.548 3.33008 -3.96643 0
M  V30 1120 H 108.225 3.91411 -1.45272 0
M  V30 1121 H 109.615 3.86783 -5.49408 0
M  V30 1122 N 112.336 1.25143 0.95797 0
M  V30 1123 C 113.613 1.00472 1.67823 0
M  V30 1124 C 113.993 -0.470056 2.058 0
M  V30 1125 O 113.341 -1.44663 1.76875 0
M  V30 1126 C 113.551 1.9372 2.90299 0
M  V30 1127 C 114.899 2.21371 3.62326 0
M  V30 1128 O 115.923 1.91451 3.00375 0
M  V30 1129 O 114.782 2.72231 4.7387 0
M  V30 1130 H 111.876 0.380752 0.734137 0
M  V30 1131 H 114.422 1.36283 1.01119 0
M  V30 1132 H 113.194 2.93316 2.59001 0
M  V30 1133 H 112.817 1.58286 3.64735 0
M  V30 1134 N 113.814 -1.1601 1.06675 0
M  V30 1135 C 115.062 -1.86264 0.784229 0
M  V30 1136 C 115.383 -1.82328 -0.691488 0
M  V30 1137 O 114.653 -1.25947 -1.50047 0
M  V30 1138 H 113.233 -0.689621 0.28711 0
M  V30 1139 H 115.895 -1.40664 1.34906 0
M  V30 1140 H 114.991 -2.91595 1.11259 0
M  V30 1141 N 115.292 -0.849877 -1.32721 0
M  V30 1142 C 116.569 -0.372405 -1.92022 0
M  V30 1143 C 116.949 1.1435 -1.77447 0
M  V30 1144 O 116.297 1.96296 -1.16962 0
M  V30 1145 C 116.507 -0.831482 -3.3895 0
M  V30 1146 C 117.855 -0.845882 -4.16089 0
M  V30 1147 O 118.879 -0.775806 -3.47649 0
M  V30 1148 O 117.738 -0.943753 -5.38289 0
M  V30 1149 H 114.832 -0.107667 -0.819961 0
M  V30 1150 H 117.378 -0.93646 -1.41522 0
M  V30 1151 H 116.15 -1.87448 -3.4348 0
M  V30 1152 H 115.773 -0.24461 -3.96847 0
M  V30 1153 N 116.77 1.45427 -0.607355 0
M  V30 1154 C 117.7 2.3329 0.0989352 0
M  V30 1155 C 118.681 1.46816 0.859007 0
M  V30 1156 O 119.866 1.75588 0.829604 0
M  V30 1157 C 116.996 3.29518 1.09705 0
M  V30 1158 C 115.95 4.25626 0.450206 0
M  V30 1159 C 115.276 5.11542 1.55655 0
M  V30 1160 C 116.576 5.18505 -0.628455 0
M  V30 1161 H 118.27 2.92595 -0.634716 0
M  V30 1162 H 115.816 1.40696 -0.306681 0
M  V30 1163 H 117.769 3.89855 1.59971 0
M  V30 1164 H 116.493 2.68372 1.86129 0
M  V30 1165 H 115.152 3.66586 -0.0315886 0
M  V30 1166 H 114.8 4.46765 2.31107 0
M  V30 1167 H 114.5 5.76647 1.12925 0
M  V30 1168 H 116.024 5.74748 2.06148 0
M  V30 1169 H 117.438 5.72916 -0.209877 0
M  V30 1170 H 115.835 5.92085 -0.977489 0
M  V30 1171 H 116.905 4.60948 -1.50514 0
M  V30 1172 N 118.248 0.346503 1.53744 0
M  V30 1173 C 119.496 -0.248612 2.00565 0
M  V30 1174 C 119.817 -1.5083 1.23593 0
M  V30 1175 O 119.087 -1.92858 0.343912 0
M  V30 1176 H 117.667 -0.0948564 0.740953 0
M  V30 1177 H 120.329 0.468341 1.89189 0
M  V30 1178 H 119.425 -0.488994 3.08245 0
M  V30 1179 N 119.726 -1.57421 0.075193 0
M  V30 1180 C 120.973 -1.93618 -0.593146 0
M  V30 1181 C 121.301 -0.955484 -1.69413 0
M  V30 1182 O 120.556 0.0283251 -1.9568 0
M  V30 1183 C 120.855 -3.36428 -1.20626 0
M  V30 1184 C 120.521 -4.50307 -0.231078 0
M  V30 1185 C 119.183 -4.81186 0.0371936 0
M  V30 1186 C 121.535 -5.19374 0.435888 0
M  V30 1187 C 118.863 -5.78466 0.979461 0
M  V30 1188 C 121.215 -6.17665 1.3665 0
M  V30 1189 C 119.879 -6.46958 1.6432 0
M  V30 1190 H 119.149 -0.708499 -0.217047 0
M  V30 1191 H 121.796 -1.90937 0.146793 0
M  V30 1192 H 120.101 -3.35592 -2.02201 0
M  V30 1193 H 121.798 -3.61727 -1.73073 0
M  V30 1194 H 118.388 -4.26227 -0.450357 0
M  V30 1195 H 122.572 -4.95711 0.241748 0
M  V30 1196 H 117.828 -5.99487 1.20106 0
M  V30 1197 H 122.002 -6.70284 1.88924 0
M  V30 1198 H 119.629 -7.2215 2.37494 0
M  V30 1199 N 121.204 0.198386 -1.56346 0
M  V30 1200 C 122.114 1.2664 -1.97483 0
M  V30 1201 C 123.13 1.49989 -0.882002 0
M  V30 1202 O 124.306 1.62668 -1.18748 0
M  V30 1203 C 121.371 2.59141 -2.30319 0
M  V30 1204 C 120.432 2.43892 -3.53292 0
M  V30 1205 C 119.665 3.70074 -3.84553 0
M  V30 1206 O 119.888 4.74101 -3.1715 0
M  V30 1207 O 118.822 3.658 -4.7799 0
M  V30 1208 H 122.648 0.947304 -2.88548 0
M  V30 1209 H 120.233 0.403123 -1.43859 0
M  V30 1210 H 122.115 3.37352 -2.5253 0
M  V30 1211 H 120.79 2.90684 -1.42423 0
M  V30 1212 H 119.697 1.63803 -3.36332 0
M  V30 1213 H 121.03 2.17282 -4.41644 0
M  V30 1214 N 122.682 1.50554 0.465978 0
M  V30 1215 C 123.629 1.6979 1.56333 0
M  V30 1216 C 124.599 0.539239 1.57103 0
M  V30 1217 O 125.784 0.770401 1.74555 0
M  V30 1218 C 122.924 1.80273 2.94271 0
M  V30 1219 C 122.037 3.07674 3.0325 0
M  V30 1220 C 121.172 3.08922 4.32135 0
M  V30 1221 C 120.211 4.30755 4.34875 0
M  V30 1222 N 119.348 4.29714 5.55239 0
M  V30 1223 H 124.188 2.63472 1.39235 0
M  V30 1224 H 121.725 1.30602 0.676873 0
M  V30 1225 H 123.683 1.84332 3.74269 0
M  V30 1226 H 122.313 0.900258 3.09992 0
M  V30 1227 H 121.365 3.13062 2.16094 0
M  V30 1228 H 122.677 3.97642 3.01135 0
M  V30 1229 H 121.831 3.11738 5.20485 0
M  V30 1230 H 120.57 2.16792 4.36866 0
M  V30 1231 H 119.575 4.28146 3.44922 0
M  V30 1232 H 120.8 5.24117 4.31831 0
M  V30 1233 H 118.746 3.4044 5.60746 0
M  V30 1234 H 118.663 5.13456 5.54886 0
M  V30 1235 H 119.931 4.36683 6.457 0
M  V30 1236 N 124.16 -0.719506 1.40217 0
M  V30 1237 C 125.408 -1.47641 1.3801 0
M  V30 1238 C 125.729 -1.94992 -0.018145 0
M  V30 1239 O 124.999 -1.70073 -0.972207 0
M  V30 1240 H 123.579 -0.547744 0.507923 0
M  V30 1241 H 126.241 -0.853187 1.75233 0
M  V30 1242 H 125.337 -2.35112 2.05253 0
M  V30 1243 N 125.638 -1.25649 -0.95132 0
M  V30 1244 C 126.548 -1.08073 -2.08224 0
M  V30 1245 C 127.564 -0.0169666 -1.73992 0
M  V30 1246 O 128.74 -0.218593 -2.0021 0
M  V30 1247 C 125.805 -0.704922 -3.39458 0
M  V30 1248 C 124.866 -1.84699 -3.87537 0
M  V30 1249 C 124.099 -1.48902 -5.12508 0
M  V30 1250 O 124.322 -0.386156 -5.69091 0
M  V30 1251 O 123.256 -2.32033 -5.55378 0
M  V30 1252 H 127.082 -2.02924 -2.25954 0
M  V30 1253 H 124.667 -1.04618 -1.06656 0
M  V30 1254 H 126.549 -0.507609 -4.18332 0
M  V30 1255 H 125.224 0.214291 -3.2299 0
M  V30 1256 H 124.131 -2.09919 -3.09653 0
M  V30 1257 H 125.464 -2.74557 -4.08509 0
M  V30 1258 N 127.117 1.15442 -1.07289 0
M  V30 1259 C 128.049 2.19773 -0.650585 0
M  V30 1260 C 129.062 1.60076 0.296572 0
M  V30 1261 O 130.251 1.78293 0.0859905 0
M  V30 1262 C 127.351 3.38838 0.0650398 0
M  V30 1263 C 126.524 4.2808 -0.898141 0
M  V30 1264 C 125.583 5.2574 -0.219926 0
M  V30 1265 O 124.609 5.62654 -0.860773 0
M  V30 1266 N 125.811 5.71205 1.03466 0
M  V30 1267 H 128.576 2.56622 -1.54808 0
M  V30 1268 H 126.137 1.30551 -0.957494 0
M  V30 1269 H 128.129 4.01222 0.529415 0
M  V30 1270 H 126.699 3.00409 0.864466 0
M  V30 1271 H 125.919 3.62804 -1.54165 0
M  V30 1272 H 127.207 4.84577 -1.5512 0
M  V30 1273 H 126.605 5.43325 1.57526 0
M  V30 1274 H 125.162 6.35633 1.44272 0
M  V30 1275 N 128.595 0.856903 1.32268 0
M  V30 1276 C 129.525 0.31858 2.31316 0
M  V30 1277 C 130.506 -0.583487 1.59779 0
M  V30 1278 O 131.691 -0.503259 1.87566 0
M  V30 1279 C 128.821 -0.491979 3.43798 0
M  V30 1280 C 127.775 0.315849 4.26833 0
M  V30 1281 C 127.101 -0.619586 5.31098 0
M  V30 1282 C 128.401 1.54282 4.98993 0
M  V30 1283 H 130.095 1.14621 2.76591 0
M  V30 1284 H 127.641 0.552613 1.32974 0
M  V30 1285 H 129.594 -0.879012 4.1213 0
M  V30 1286 H 128.318 -1.35299 2.97257 0
M  V30 1287 H 126.977 0.684664 3.6015 0
M  V30 1288 H 126.625 -1.47751 4.8081 0
M  V30 1289 H 126.325 -0.0830621 5.87541 0
M  V30 1290 H 127.849 -1.00375 6.02293 0
M  V30 1291 H 129.263 1.22796 5.59995 0
M  V30 1292 H 127.66 2.01745 5.65172 0
M  V30 1293 H 128.73 2.30285 4.26728 0
M  V30 1294 N 130.073 -1.45103 0.615059 0
M  V30 1295 C 131.489 -1.57137 0.279322 0
M  V30 1296 C 131.689 -1.60523 -1.21797 0
M  V30 1297 O 130.745 -1.53956 -2.00134 0
M  V30 1298 C 132.058 -2.85062 0.957083 0
M  V30 1299 C 133.606 -2.98749 0.933706 0
M  V30 1300 C 134.081 -4.29455 1.59162 0
M  V30 1301 N 135.572 -4.36231 1.55746 0
M  V30 1302 C 136.307 -5.36051 2.0356 0
M  V30 1303 N 135.803 -6.42367 2.59494 0
M  V30 1304 N 137.596 -5.27456 1.94284 0
M  V30 1305 H 129.747 -1.41148 1.58717 0
M  V30 1306 H 132.01 -0.675331 0.665306 0
M  V30 1307 H 131.716 -2.88488 2.01166 0
M  V30 1308 H 131.59 -3.7407 0.48494 0
M  V30 1309 H 133.977 -2.94886 -0.112347 0
M  V30 1310 H 134.058 -2.11132 1.44419 0
M  V30 1311 H 133.702 -4.34077 2.63704 0
M  V30 1312 H 133.632 -5.15901 1.0561 0
M  V30 1313 H 136.123 -3.60011 1.14893 0
M  V30 1314 H 136.436 -7.14793 2.93752 0
M  V30 1315 H 134.781 -6.43097 2.63537 0
M  V30 1316 H 137.972 -4.43308 1.5032 0
M  V30 1317 H 138.145 -6.05099 2.3186 0
M  V30 1318 N 131.551 -0.354651 -1.53558 0
M  V30 1319 C 132.8 0.239504 -2.00273 0
M  V30 1320 C 133.113 1.50759 -1.24623 0
M  V30 1321 O 134.319 2.17968 -1.61871 0
M  V30 1322 C 132.775 0.477341 -3.5672 0
M  V30 1323 C 132.383 -0.775488 -4.41237 0
M  V30 1324 C 134.127 1.02975 -4.11821 0
M  V30 1325 C 132.034 -0.507838 -5.89216 0
M  V30 1326 H 130.964 0.0932743 -0.748208 0
M  V30 1327 H 133.615 -0.471701 -1.77334 0
M  V30 1328 H 131.997 1.24953 -3.7577 0
M  V30 1329 H 133.171 -1.54963 -4.33962 0
M  V30 1330 H 131.486 -1.25033 -3.97185 0
M  V30 1331 H 134.083 1.24513 -5.2 0
M  V30 1332 H 134.426 1.98862 -3.65731 0
M  V30 1333 H 134.959 0.317994 -3.96527 0
M  V30 1334 H 131.698 -1.43674 -6.39561 0
M  V30 1335 H 131.218 0.228011 -5.99366 0
M  V30 1336 H 132.897 -0.129238 -6.46871 0
M  V30 1337 N 133.029 1.57378 -0.0835403 0
M  V30 1338 C 133.959 2.1641 0.87686 0
M  V30 1339 C 134.94 1.09429 1.30228 0
M  V30 1340 O 136.125 1.37516 1.37124 0
M  V30 1341 C 133.255 2.73517 2.14022 0
M  V30 1342 C 132.209 3.85769 1.85381 0
M  V30 1343 C 131.535 4.29529 3.18448 0
M  V30 1344 C 132.835 5.09486 1.14984 0
M  V30 1345 H 134.529 2.96914 0.385059 0
M  V30 1346 H 132.075 1.42823 0.18377 0
M  V30 1347 H 134.028 3.13463 2.81636 0
M  V30 1348 H 132.752 1.90252 2.65465 0
M  V30 1349 H 131.411 3.46345 1.20169 0
M  V30 1350 H 131.059 3.43169 3.67755 0
M  V30 1351 H 130.759 5.05204 3.00071 0
M  V30 1352 H 132.283 4.72099 3.8724 0
M  V30 1353 H 133.697 5.46674 1.72687 0
M  V30 1354 H 132.094 5.90515 1.06826 0
M  V30 1355 H 133.164 4.84724 0.130749 0
M  V30 1356 N 134.507 -0.190092 1.56449 0
M  V30 1357 C 135.417 -1.25591 1.98152 0
M  V30 1358 C 136.433 -1.49519 0.889944 0
M  V30 1359 O 137.609 -1.62036 1.19609 0
M  V30 1360 C 134.674 -2.57916 2.3169 0
M  V30 1361 C 133.735 -2.42015 3.5458 0
M  V30 1362 C 132.968 -3.6803 3.8651 0
M  V30 1363 O 133.191 -4.72413 3.1966 0
M  V30 1364 O 132.125 -3.6326 4.79923 0
M  V30 1365 H 135.951 -0.931988 2.89046 0
M  V30 1366 H 133.536 -0.395488 1.4407 0
M  V30 1367 H 135.418 -3.36008 2.54316 0
M  V30 1368 H 134.093 -2.89925 1.43963 0
M  V30 1369 H 133 -1.62017 3.37196 0
M  V30 1370 H 134.333 -2.14937 4.4279 0
M  V30 1371 N 135.985 -1.50799 -0.457987 0
M  V30 1372 C 136.917 -1.66786 -1.57211 0
M  V30 1373 C 137.93 -0.548962 -1.53265 0
M  V30 1374 O 139.119 -0.8226 -1.58416 0
M  V30 1375 C 136.219 -1.64834 -2.96113 0
M  V30 1376 C 135.392 -2.92971 -3.24787 0
M  V30 1377 C 134.451 -2.83485 -4.43309 0
M  V30 1378 O 133.477 -3.5744 -4.42973 0
M  V30 1379 N 134.679 -1.97929 -5.45714 0
M  V30 1380 H 137.444 -2.62889 -1.43909 0
M  V30 1381 H 135.005 -1.48427 -0.646617 0
M  V30 1382 H 136.997 -1.56084 -3.7339 0
M  V30 1383 H 135.567 -0.764118 -3.03117 0
M  V30 1384 H 134.787 -3.15749 -2.36 0
M  V30 1385 H 136.075 -3.77834 -3.40762 0
M  V30 1386 H 135.473 -1.37182 -5.48815 0
M  V30 1387 H 134.03 -1.95073 -6.21924 0
M  V30 1388 N 137.463 0.71206 -1.40597 0
M  V30 1389 C 138.688 1.50617 -1.42581 0
M  V30 1390 C 139.113 1.88079 -0.0282102 0
M  V30 1391 O 138.471 1.53511 0.964579 0
M  V30 1392 C 138.519 2.7557 -2.3258 0
M  V30 1393 O 137.623 3.72414 -1.77148 0
M  V30 1394 H 136.964 0.453966 -0.484573 0
M  V30 1395 H 139.494 0.876649 -1.84868 0
M  V30 1396 H 139.504 3.2406 -2.47889 0
M  V30 1397 H 138.179 2.47639 -3.34138 0
M  V30 1398 H 136.756 3.31276 -1.71204 0
M  V30 1399 N 138.941 1.26152 0.944643 0
M  V30 1400 C 140.189 1.11271 1.6871 0
M  V30 1401 C 140.51 -0.345166 1.91921 0
M  V30 1402 O 139.78 -1.24387 1.51343 0
M  V30 1403 H 138.36 0.408783 0.625224 0
M  V30 1404 H 141.022 1.58427 1.1352 0
M  V30 1405 H 140.118 1.62879 2.66227 0
M  V30 1406 N 140.419 -1.14872 1.07899 0
M  V30 1407 C 141.329 -2.2341 0.715915 0
M  V30 1408 C 142.345 -1.71808 -0.275306 0
M  V30 1409 O 143.521 -2.01039 -0.120545 0
M  V30 1410 C 140.586 -3.46474 0.125168 0
M  V30 1411 C 139.647 -4.13039 1.17034 0
M  V30 1412 C 138.88 -5.30229 0.607688 0
M  V30 1413 O 139.103 -5.675 -0.574497 0
M  V30 1414 O 138.037 -5.86444 1.35526 0
M  V30 1415 H 141.863 -2.56808 1.62121 0
M  V30 1416 H 139.448 -1.22702 0.852322 0
M  V30 1417 H 141.33 -4.20917 -0.201729 0
M  V30 1418 H 140.005 -3.14811 -0.753364 0
M  V30 1419 H 138.912 -3.40493 1.54968 0
M  V30 1420 H 140.245 -4.48796 2.02097 0
M  V30 1421 N 141.898 -0.863906 -1.31812 0
M  V30 1422 C 143.144 -0.481841 -1.9761 0
M  V30 1423 C 143.499 0.954048 -1.6708 0
M  V30 1424 O 142.792 1.66182 -0.953624 0
M  V30 1425 C 142.986 -0.668547 -3.51091 0
M  V30 1426 C 142.815 -2.12103 -3.96538 0
M  V30 1427 C 141.585 -2.76141 -4.23171 0
M  V30 1428 C 143.783 -3.09265 -4.10925 0
M  V30 1429 N 141.765 -4.12205 -4.54929 0
M  V30 1430 C 143.136 -4.30341 -4.46326 0
M  V30 1431 C 145.191 -3.05337 -3.93286 0
M  V30 1432 C 143.894 -5.48 -4.65928 0
M  V30 1433 C 145.92 -4.22248 -4.14078 0
M  V30 1434 C 145.282 -5.42085 -4.49804 0
M  V30 1435 H 141.381 -0.225238 -0.74886 0
M  V30 1436 H 143.965 -1.11723 -1.59455 0
M  V30 1437 H 142.136 -0.0627898 -3.88349 0
M  V30 1438 H 143.868 -0.255467 -4.03893 0
M  V30 1439 H 140.623 -2.27125 -4.15585 0
M  V30 1440 H 141.047 -4.82416 -4.74978 0
M  V30 1441 H 145.689 -2.138 -3.64759 0
M  V30 1442 H 143.407 -6.40059 -4.93305 0
M  V30 1443 H 146.993 -4.20654 -4.01922 0
M  V30 1444 H 145.873 -6.31044 -4.65567 0
M  V30 1445 N 143.376 1.44774 -0.622745 0
M  V30 1446 C 144.622 2.02968 -0.13257 0
M  V30 1447 C 144.977 1.48047 1.22881 0
M  V30 1448 O 144.27 0.651625 1.80179 0
M  V30 1449 C 144.464 3.57364 -0.0508323 0
M  V30 1450 C 144.293 4.27262 -1.40275 0
M  V30 1451 C 143.063 4.64577 -1.98737 0
M  V30 1452 C 145.261 4.58248 -2.3348 0
M  V30 1453 N 143.243 5.19404 -3.27251 0
M  V30 1454 C 144.614 5.14069 -3.46603 0
M  V30 1455 C 146.669 4.40195 -2.32664 0
M  V30 1456 C 145.372 5.53738 -4.59093 0
M  V30 1457 C 147.398 4.80907 -3.44213 0
M  V30 1458 C 146.76 5.36834 -4.56058 0
M  V30 1459 H 142.859 0.776541 -0.0922354 0
M  V30 1460 H 145.443 1.76385 -0.82441 0
M  V30 1461 H 143.614 3.83576 0.610265 0
M  V30 1462 H 145.346 4.02219 0.447397 0
M  V30 1463 H 142.101 4.48622 -1.51774 0
M  V30 1464 H 142.525 5.51301 -3.92933 0
M  V30 1465 H 147.167 3.96257 -1.47446 0
M  V30 1466 H 144.885 5.96635 -5.45025 0
M  V30 1467 H 148.471 4.68659 -3.44747 0
M  V30 1468 H 147.351 5.67755 -5.40947 0
M  V30 1469 N 144.854 0.36279 1.53368 0
M  V30 1470 C 145.801 -0.485008 2.25646 0
M  V30 1471 C 146.771 -1.07982 1.2621 0
M  V30 1472 O 147.956 -1.11284 1.54986 0
M  V30 1473 C 145.096 -1.62023 3.04701 0
M  V30 1474 C 144.209 -1.05086 4.19024 0
M  V30 1475 C 143.344 -2.15496 4.85525 0
M  V30 1476 C 142.383 -1.5601 5.91884 0
M  V30 1477 N 141.52 -2.60241 6.52088 0
M  V30 1478 H 146.36 0.137864 2.97681 0
M  V30 1479 H 143.897 0.0798061 1.46883 0
M  V30 1480 H 145.855 -2.28887 3.48807 0
M  V30 1481 H 144.485 -2.2138 2.34927 0
M  V30 1482 H 143.537 -0.27259 3.79422 0
M  V30 1483 H 144.849 -0.575926 4.95464 0
M  V30 1484 H 144.003 -2.90186 5.32801 0
M  V30 1485 H 142.742 -2.66341 4.08551 0
M  V30 1486 H 141.747 -0.798338 5.43973 0
M  V30 1487 H 142.972 -1.05994 6.70777 0
M  V30 1488 H 140.918 -3.10304 5.77968 0
M  V30 1489 H 140.835 -2.17426 7.24059 0
M  V30 1490 H 142.103 -3.34641 7.04014 0
M  V30 1491 N 146.332 -1.57332 0.0918853 0
M  V30 1492 C 147.295 -2.12708 -0.85369 0
M  V30 1493 C 148.295 -1.05561 -1.213 0
M  V30 1494 O 149.485 -1.31461 -1.14296 0
M  V30 1495 C 146.617 -2.64503 -2.15061 0
M  V30 1496 H 147.81 -2.97573 -0.3729 0
M  V30 1497 H 145.363 -1.55509 -0.157072 0
M  V30 1498 H 146.098 -1.83149 -2.67632 0
M  V30 1499 H 145.883 -3.4284 -1.90272 0
M  V30 1500 H 147.373 -3.07351 -2.82711 0
M  V30 1501 N 147.81 0.181792 -1.56548 0
M  V30 1502 C 148.742 1.24956 -1.92142 0
M  V30 1503 C 149.755 1.41022 -0.813422 0
M  V30 1504 O 150.944 1.41212 -1.09186 0
M  V30 1505 C 148.044 2.61981 -2.14987 0
M  V30 1506 C 147.217 2.6735 -3.46183 0
M  V30 1507 C 146.276 3.85664 -3.5798 0
M  V30 1508 O 145.302 3.72148 -4.30691 0
M  V30 1509 N 146.504 5.01683 -2.92053 0
M  V30 1510 H 149.269 0.947329 -2.84334 0
M  V30 1511 H 146.83 0.371629 -1.57577 0
M  V30 1512 H 148.822 3.3958 -2.20154 0
M  V30 1513 H 147.392 2.84637 -1.2923 0
M  V30 1514 H 146.612 1.75925 -3.52766 0
M  V30 1515 H 147.9 2.67939 -4.32534 0
M  V30 1516 H 147.298 5.15564 -2.32832 0
M  V30 1517 H 145.855 5.77181 -3.0283 0
M  V30 1518 N 149.288 1.51039 0.449983 0
M  V30 1519 C 150.513 1.6715 1.22783 0
M  V30 1520 C 150.938 0.363081 1.84563 0
M  V30 1521 O 150.296 -0.675433 1.68249 0
M  V30 1522 C 150.344 2.77985 2.29689 0
M  V30 1523 O 149.448 2.40707 3.34864 0
M  V30 1524 H 148.789 0.557746 0.360299 0
M  V30 1525 H 151.319 1.97535 0.533005 0
M  V30 1526 H 151.329 3.01693 2.74673 0
M  V30 1527 H 150.004 3.72935 1.84098 0
M  V30 1528 H 148.581 2.27523 2.95445 0
M  V30 1529 N 150.766 -0.704594 1.40972 0
M  V30 1530 C 151.696 -1.83124 1.44872 0
M  V30 1531 C 152.677 -1.67281 0.30838 0
M  V30 1532 O 153.862 -1.87149 0.518556 0
M  V30 1533 C 150.992 -3.21181 1.32136 0
M  V30 1534 C 149.946 -3.51714 2.43888 0
M  V30 1535 C 149.272 -4.89032 2.16222 0
M  V30 1536 C 150.572 -3.516 3.86232 0
M  V30 1537 H 152.266 -1.80117 2.39161 0
M  V30 1538 H 149.812 -0.865145 1.15114 0
M  V30 1539 H 151.765 -3.99702 1.33479 0
M  V30 1540 H 150.489 -3.24791 0.343279 0
M  V30 1541 H 149.148 -2.75539 2.41813 0
M  V30 1542 H 148.796 -4.89256 1.16778 0
M  V30 1543 H 148.496 -5.10426 2.911 0
M  V30 1544 H 150.02 -5.69873 2.19265 0
M  V30 1545 H 151.434 -4.2014 3.9007 0
M  V30 1546 H 149.831 -3.84523 4.60719 0
M  V30 1547 H 150.901 -2.50757 4.15029 0
M  V30 1548 N 152.244 -1.26651 -0.937939 0
M  V30 1549 C 153.472 -1.15173 -1.7188 0
M  V30 1550 C 153.887 0.292668 -1.86518 0
M  V30 1551 O 153.244 1.20014 -1.37488 0
M  V30 1552 C 153.295 -1.81925 -3.12387 0
M  V30 1553 O 153.016 -3.2072 -2.98446 0
M  V30 1554 C 154.517 -1.76442 -4.06673 0
M  V30 1555 H 151.737 -0.400911 -0.538063 0
M  V30 1556 H 154.281 -1.67332 -1.1756 0
M  V30 1557 H 152.436 -1.33696 -3.63599 0
M  V30 1558 H 152.85 -3.53802 -3.872 0
M  V30 1559 H 154.324 -2.27781 -5.02812 0
M  V30 1560 H 154.801 -0.731608 -4.33064 0
M  V30 1561 H 155.407 -2.24238 -3.61382 0
M  V30 1562 N 153.722 1.14298 -1.08507 0
M  V30 1563 C 154.95 1.89219 -0.836876 0
M  V30 1564 C 155.365 1.78638 0.611054 0
M  V30 1565 O 154.722 1.14643 1.41998 0
M  V30 1566 C 154.773 3.39158 -1.25116 0
M  V30 1567 O 154.494 3.49449 -2.64229 0
M  V30 1568 C 155.995 4.31073 -1.03398 0
M  V30 1569 H 153.215 0.599328 -0.301739 0
M  V30 1570 H 155.759 1.44746 -1.44461 0
M  V30 1571 H 153.914 3.81251 -0.687514 0
M  V30 1572 H 154.328 4.42589 -2.81452 0
M  V30 1573 H 155.802 5.34646 -1.37323 0
M  V30 1574 H 156.279 4.3919 0.0289259 0
M  V30 1575 H 156.885 3.94738 -1.58311 0
M  V30 1576 N 155.201 0.870884 1.31352 0
M  V30 1577 C 156.449 0.48132 1.96285 0
M  V30 1578 C 156.77 -0.969813 1.69173 0
M  V30 1579 O 156.04 -1.67998 1.00764 0
M  V30 1580 H 154.62 0.175002 0.726212 0
M  V30 1581 H 157.282 1.11087 1.60143 0
M  V30 1582 H 156.378 0.639825 3.05471 0
M  V30 1583 N 156.679 -1.44442 0.630414 0
M  V30 1584 C 157.611 -2.2892 -0.113347 0
M  V30 1585 C 158.624 -1.41243 -0.80959 0
M  V30 1586 O 159.813 -1.65402 -0.671156 0
M  V30 1587 C 156.913 -3.17594 -1.18266 0
M  V30 1588 C 156.086 -4.33682 -0.569073 0
M  V30 1589 C 155.145 -5.03397 -1.53226 0
M  V30 1590 O 154.171 -5.59438 -1.04967 0
M  V30 1591 N 155.373 -5.04783 -2.86661 0
M  V30 1592 H 158.138 -2.93392 0.611636 0
M  V30 1593 H 155.699 -1.54881 0.471523 0
M  V30 1594 H 157.691 -3.61097 -1.82732 0
M  V30 1595 H 156.261 -2.54876 -1.80988 0
M  V30 1596 H 155.481 -3.9338 0.254187 0
M  V30 1597 H 156.769 -5.08608 -0.139767 0
M  V30 1598 H 156.167 -4.60584 -3.28449 0
M  V30 1599 H 154.724 -5.52077 -3.46489 0
M  V30 1600 N 158.157 -0.370918 -1.53173 0
M  V30 1601 C 159.067 0.480823 -2.2962 0
M  V30 1602 C 160.083 1.08789 -1.35798 0
M  V30 1603 O 161.259 1.09768 -1.68858 0
M  V30 1604 C 158.324 1.60227 -3.07454 0
M  V30 1605 C 157.385 1.0222 -4.16953 0
M  V30 1606 C 156.618 2.0902 -4.91066 0
M  V30 1607 O 156.841 3.30222 -4.65091 0
M  V30 1608 O 155.775 1.71778 -5.76867 0
M  V30 1609 H 159.601 -0.141421 -3.03371 0
M  V30 1610 H 157.186 -0.135146 -1.48787 0
M  V30 1611 H 159.068 2.25417 -3.56041 0
M  V30 1612 H 157.743 2.20982 -2.36535 0
M  V30 1613 H 156.65 0.334064 -3.72605 0
M  V30 1614 H 157.983 0.459131 -4.90054 0
M  V30 1615 N 159.635 1.57281 -0.100228 0
M  V30 1616 C 160.883 1.94153 0.561157 0
M  V30 1617 C 161.204 0.983157 1.68401 0
M  V30 1618 O 160.474 0.0361132 1.95867 0
M  V30 1619 H 159.054 0.716791 0.210283 0
M  V30 1620 H 161.716 1.94202 -0.164765 0
M  V30 1621 H 160.812 2.96709 0.968008 0
M  V30 1622 N 161.113 -0.173488 1.56642 0
M  V30 1623 C 162.36 -0.890465 1.81871 0
M  V30 1624 C 162.688 -1.82339 0.67696 0
M  V30 1625 O 161.943 -1.92795 -0.335926 0
M  V30 1626 C 162.242 -1.72069 3.13252 0
M  V30 1627 C 161.908 -0.936878 4.41059 0
M  V30 1628 C 160.57 -0.720545 4.75775 0
M  V30 1629 C 162.922 -0.386919 5.19762 0
M  V30 1630 C 160.25 0.0568829 5.86672 0
M  V30 1631 C 162.602 0.37741 6.31473 0
M  V30 1632 C 161.266 0.604563 6.64757 0
M  V30 1633 H 160.536 -0.325844 0.665512 0
M  V30 1634 H 163.183 -0.155527 1.90867 0
M  V30 1635 H 161.488 -2.52496 2.99588 0
M  V30 1636 H 163.185 -2.27844 3.29982 0
M  V30 1637 H 159.775 -1.11553 4.13828 0
M  V30 1638 H 163.959 -0.541398 4.93338 0
M  V30 1639 H 159.215 0.242635 6.10918 0
M  V30 1640 H 163.389 0.810825 6.91664 0
M  V30 1641 H 161.016 1.20885 7.50527 0
M  V30 1642 N 162.591 -1.51276 -0.441967 0
M  V30 1643 C 163.84 -1.6295 -1.18871 0
M  V30 1644 C 164.153 -0.349312 -1.92456 0
M  V30 1645 O 165.359 -0.345355 -2.69295 0
M  V30 1646 C 163.815 -2.87759 -2.16155 0
M  V30 1647 C 163.423 -4.22764 -1.48239 0
M  V30 1648 C 165.167 -3.08788 -2.91291 0
M  V30 1649 C 163.074 -5.38728 -2.4398 0
M  V30 1650 H 162.004 -0.606913 -0.447406 0
M  V30 1651 H 164.655 -1.77739 -0.456205 0
M  V30 1652 H 163.037 -2.66593 -2.92821 0
M  V30 1653 H 164.211 -4.54293 -0.771635 0
M  V30 1654 H 162.526 -4.07575 -0.852741 0
M  V30 1655 H 165.123 -3.92599 -3.63002 0
M  V30 1656 H 165.466 -2.21679 -3.5237 0
M  V30 1657 H 165.999 -3.30272 -2.21733 0
M  V30 1658 H 162.738 -6.28082 -1.87598 0
M  V30 1659 H 162.258 -5.1158 -3.13123 0
M  V30 1660 H 163.937 -5.70489 -3.05207 0
M  V30 1661 N 164.069 0.697108 -1.41344 0
M  V30 1662 C 165.48 1.27697 -1.36199 0
M  V30 1663 C 165.831 1.9615 -0.0443463 0
M  V30 1664 O 164.956 1.98689 0.857419 0
M  V30 1665 C 165.551 2.32223 -2.46694 0
M  V30 1666 C 164.11 2.8579 -2.44952 0
M  V30 1667 C 163.257 1.59807 -2.26621 0
M  V30 1668 H 166.208 0.491968 -1.50882 0
M  V30 1669 H 166.229 3.1348 -2.15664 0
M  V30 1670 H 165.741 1.82373 -3.42581 0
M  V30 1671 H 163.842 3.3982 -1.52817 0
M  V30 1672 H 163.955 3.36325 -3.41207 0
M  V30 1673 H 162.319 1.8556 -1.7447 0
M  V30 1674 H 163.102 1.11956 -3.24532 0
M  V30 1675 N 165.547 1.27147 0.931209 0
M  V30 1676 C 166.794 1.13278 1.67852 0
M  V30 1677 C 167.122 -0.32204 1.91815 0
M  V30 1678 O 166.377 -1.25224 1.50391 0
M  V30 1679 C 166.676 1.8579 3.05314 0
M  V30 1680 C 166.342 3.35657 3.01073 0
M  V30 1681 C 165.004 3.76536 2.99623 0
M  V30 1682 C 167.356 4.31299 2.92627 0
M  V30 1683 C 164.684 5.11426 2.87506 0
M  V30 1684 C 167.036 5.66242 2.82051 0
M  V30 1685 C 165.7 6.06418 2.7895 0
M  V30 1686 H 164.97 0.414515 0.614214 0
M  V30 1687 H 167.617 1.57712 1.08624 0
M  V30 1688 H 165.922 1.33854 3.68226 0
M  V30 1689 H 167.619 1.72491 3.62005 0
M  V30 1690 H 164.209 3.03146 3.02986 0
M  V30 1691 H 168.393 4.00692 2.92848 0
M  V30 1692 H 163.649 5.41705 2.83489 0
M  V30 1693 H 167.823 6.40026 2.74481 0
M  V30 1694 H 165.45 7.10895 2.69318 0
M  V30 1695 N 167.025 -1.13721 1.09112 0
M  V30 1696 C 167.973 -2.21103 0.722219 0
M  V30 1697 C 168.967 -1.67147 -0.275374 0
M  V30 1698 O 170.173 -1.79477 -0.137176 0
M  V30 1699 H 166.548 -0.720445 0.215553 0
M  V30 1700 H 168.519 -2.49483 1.63709 0
M  V30 1701 C 167.268 -3.47352 0.15543 0
M  V30 1702 H 166.591 -3.89206 0.914246 0
M  V30 1703 H 168.031 -4.2395 -0.0647967 0
M  V30 1704 C 166.49 -3.1814 -1.10852 0
M  V30 1705 O 167.02 -3.36604 -2.19227 0
M  V30 1706 N 165.226 -2.72045 -1.02176 0
M  V30 1707 H 164.773 -2.57221 -0.139764 0
M  V30 1708 H 164.731 -2.52875 -1.8682 0
M  V30 1709 N 168.503 -0.877838 -1.30888 0
M  V30 1710 C 169.75 -0.492696 -1.96415 0
M  V30 1711 C 170.078 0.956671 -1.69346 0
M  V30 1712 O 169.333 1.68993 -0.986913 0
M  V30 1713 C 169.632 -0.705748 -3.50363 0
M  V30 1714 C 169.298 -2.1291 -3.97467 0
M  V30 1715 C 167.96 -2.51834 -4.1004 0
M  V30 1716 C 170.312 -3.05702 -4.22132 0
M  V30 1717 C 167.64 -3.82775 -4.44635 0
M  V30 1718 C 169.992 -4.36166 -4.58194 0
M  V30 1719 C 168.656 -4.74993 -4.68975 0
M  V30 1720 H 167.926 -0.18029 -0.718733 0
M  V30 1721 H 170.573 -1.11233 -1.55883 0
M  V30 1722 H 168.878 -0.00303058 -3.918 0
M  V30 1723 H 170.575 -0.387456 -3.99124 0
M  V30 1724 H 167.165 -1.81694 -3.88182 0
M  V30 1725 H 171.349 -2.76853 -4.11906 0
M  V30 1726 H 166.605 -4.12609 -4.51181 0
M  V30 1727 H 170.779 -5.08111 -4.76231 0
M  V30 1728 H 168.406 -5.76495 -4.95537 0
M  V30 1729 N 169.982 1.44106 -0.638065 0
M  V30 1730 C 171.228 2.02277 -0.145546 0
M  V30 1731 C 171.561 1.50125 1.23191 0
M  V30 1732 O 170.836 0.688133 1.8192 0
M  V30 1733 C 171.119 3.59829 -0.139791 0
M  V30 1734 C 170.972 4.22247 -1.55008 0
M  V30 1735 C 172.291 4.36873 0.531966 0
M  V30 1736 H 169.41 0.734992 -0.0543632 0
M  V30 1737 H 172.052 1.71592 -0.815863 0
M  V30 1738 H 170.202 3.86102 0.431007 0
M  V30 1739 H 171.874 4.07057 -2.1703 0
M  V30 1740 H 170.117 3.79476 -2.10191 0
M  V30 1741 H 170.788 5.31284 -1.49804 0
M  V30 1742 H 173.264 4.16074 0.0464781 0
M  V30 1743 H 172.14 5.4657 0.505206 0
M  V30 1744 H 172.401 4.11995 1.60352 0
M  V30 1745 N 171.46 0.379036 1.52974 0
M  V30 1746 C 172.423 -0.448865 2.24762 0
M  V30 1747 C 173.423 -0.998689 1.26027 0
M  V30 1748 O 174.613 -0.882313 1.50203 0
M  V30 1749 C 171.745 -1.62872 2.99476 0
M  V30 1750 H 172.938 0.179491 2.99362 0
M  V30 1751 H 170.491 0.13096 1.5575 0
M  V30 1752 H 171.226 -2.29479 2.29151 0
M  V30 1753 H 171.011 -1.24128 3.71934 0
M  V30 1754 H 172.501 -2.2151 3.5401 0
M  V30 1755 N 172.938 -1.57226 0.108567 0
M  V30 1756 C 173.885 -2.14756 -0.845481 0
M  V30 1757 C 174.855 -1.06971 -1.27068 0
M  V30 1758 O 176.04 -1.34827 -1.35005 0
M  V30 1759 C 173.18 -2.74298 -2.09415 0
M  V30 1760 C 172.293 -3.96358 -1.71826 0
M  V30 1761 C 171.428 -4.44021 -2.9158 0
M  V30 1762 C 170.467 -5.58637 -2.50181 0
M  V30 1763 N 169.604 -6.01091 -3.62814 0
M  V30 1764 H 174.444 -2.95961 -0.348035 0
M  V30 1765 H 171.981 -1.46226 -0.160106 0
M  V30 1766 H 173.939 -3.06945 -2.82561 0
M  V30 1767 H 172.569 -1.95801 -2.56636 0
M  V30 1768 H 171.621 -3.69939 -0.885947 0
M  V30 1769 H 172.933 -4.79504 -1.37394 0
M  V30 1770 H 172.087 -4.78522 -3.72963 0
M  V30 1771 H 170.826 -3.59803 -3.29231 0
M  V30 1772 H 169.831 -5.23751 -1.67228 0
M  V30 1773 H 171.056 -6.44613 -2.13659 0
M  V30 1774 H 169.002 -5.19817 -4.00158 0
M  V30 1775 H 168.919 -6.79066 -3.32273 0
M  V30 1776 H 170.187 -6.40227 -4.44668 0
M  V30 1777 N 174.416 0.165178 -1.56732 0
M  V30 1778 C 175.379 1.18822 -1.95995 0
M  V30 1779 C 176.379 1.3685 -0.84431 0
M  V30 1780 O 177.569 1.34152 -1.11126 0
M  V30 1781 C 174.701 2.5521 -2.26011 0
M  V30 1782 H 175.894 0.851825 -2.87548 0
M  V30 1783 H 173.447 0.407857 -1.50885 0
M  V30 1784 H 174.182 2.93852 -1.37191 0
M  V30 1785 H 173.967 2.43489 -3.07336 0
M  V30 1786 H 175.457 3.28927 -2.57288 0
M  V30 1787 N 175.894 1.51508 0.433938 0
M  V30 1788 C 176.842 1.73646 1.54757 0
M  V30 1789 C 177.836 0.602854 1.5831 0
M  V30 1790 O 179.042 0.784318 1.62014 0
M  V30 1791 H 175.417 0.548718 0.51421 0
M  V30 1792 H 177.388 2.66991 1.33261 0
M  V30 1793 C 176.137 1.88172 2.92381 0
M  V30 1794 H 175.46 2.74808 2.90381 0
M  V30 1795 H 176.9 2.07672 3.6966 0
M  V30 1796 C 175.359 0.64239 3.30719 0
M  V30 1797 O 175.889 -0.201362 4.01195 0
M  V30 1798 N 174.095 0.485489 2.86516 0
M  V30 1799 H 173.642 1.17318 2.29334 0
M  V30 1800 H 173.6 -0.342482 3.12529 0
M  V30 1801 N 177.372 -0.689602 1.41712 0
M  V30 1802 C 178.597 -1.48329 1.44959 0
M  V30 1803 C 179.022 -1.8801 0.0581283 0
M  V30 1804 O 178.38 -1.55026 -0.940035 0
M  V30 1805 C 178.428 -2.71835 2.36935 0
M  V30 1806 O 177.532 -3.69549 1.8305 0
M  V30 1807 H 176.873 -0.446199 0.491734 0
M  V30 1808 H 179.403 -0.847127 1.86239 0
M  V30 1809 H 179.413 -3.20076 2.53013 0
M  V30 1810 H 178.088 -2.42291 3.38035 0
M  V30 1811 H 176.665 -3.2851 1.76452 0
M  V30 1812 N 178.85 -1.27639 -0.924453 0
M  V30 1813 C 179.78 -1.13166 -2.04244 0
M  V30 1814 C 180.761 -0.032256 -1.70069 0
M  V30 1815 O 181.946 -0.207328 -1.9309 0
M  V30 1816 C 179.076 -0.781496 -3.38393 0
M  V30 1817 C 178.03 -1.83449 -3.86692 0
M  V30 1818 C 177.356 -1.33822 -5.17683 0
M  V30 1819 C 178.656 -3.23917 -4.09726 0
M  V30 1820 H 180.35 -2.06689 -2.1661 0
M  V30 1821 H 177.896 -0.995136 -1.04082 0
M  V30 1822 H 179.849 -0.667057 -4.16087 0
M  V30 1823 H 178.573 0.189439 -3.2605 0
M  V30 1824 H 177.232 -1.93789 -3.11193 0
M  V30 1825 H 176.88 -0.35665 -5.01734 0
M  V30 1826 H 176.58 -2.04224 -5.50968 0
M  V30 1827 H 178.104 -1.23679 -5.97943 0
M  V30 1828 H 179.518 -3.16559 -4.77978 0
M  V30 1829 H 177.915 -3.92059 -4.54324 0
M  V30 1830 H 178.985 -3.68729 -3.14908 0
M  V30 1831 N 180.328 1.1314 -1.09713 0
M  V30 1832 C 181.238 2.22242 -0.751367 0
M  V30 1833 C 182.254 1.72224 0.247938 0
M  V30 1834 O 183.43 2.01205 0.0885463 0
M  V30 1835 C 180.495 3.46231 -0.180274 0
M  V30 1836 C 179.556 4.11125 -1.2359 0
M  V30 1837 C 178.789 5.29195 -0.691966 0
M  V30 1838 O 179.012 5.68342 0.48414 0
M  V30 1839 O 177.946 5.84214 -1.44838 0
M  V30 1840 H 181.772 2.54197 -1.66186 0
M  V30 1841 H 179.357 1.21331 -0.871735 0
M  V30 1842 H 181.239 4.21185 0.134739 0
M  V30 1843 H 179.914 3.1597 0.703185 0
M  V30 1844 H 178.821 3.37985 -1.60366 0
M  V30 1845 H 180.154 4.45524 -2.09211 0
M  V30 1846 N 181.806 0.884767 1.30421 0
M  V30 1847 C 183.217 0.553656 1.78302 0
M  V30 1848 C 183.568 -0.930153 1.7275 0
M  V30 1849 O 182.693 -1.72681 1.30423 0
M  V30 1850 C 183.288 0.998234 3.2376 0
M  V30 1851 C 181.847 0.71854 3.69478 0
M  V30 1852 C 180.994 1.18132 2.50879 0
M  V30 1853 H 183.945 1.06901 1.17294 0
M  V30 1854 H 183.966 0.327118 3.79091 0
M  V30 1855 H 183.478 2.0782 3.27769 0
M  V30 1856 H 181.579 -0.349444 3.70958 0
M  V30 1857 H 181.692 1.30595 4.60958 0
M  V30 1858 H 180.056 0.600669 2.47516 0
M  V30 1859 H 180.839 2.26902 2.57624 0
M  V30 1860 N 183.284 -1.43765 0.645699 0
M  V30 1861 C 184.194 -2.34544 -0.0512957 0
M  V30 1862 C 185.21 -1.53455 -0.82022 0
M  V30 1863 O 186.386 -1.86133 -0.769176 0
M  V30 1864 C 183.451 -3.31636 -1.01087 0
M  V30 1865 C 182.512 -4.2863 -0.239712 0
M  V30 1866 C 181.745 -5.21084 -1.15358 0
M  V30 1867 O 181.968 -5.1779 -2.39269 0
M  V30 1868 O 180.902 -5.98593 -0.630038 0
M  V30 1869 H 184.728 -2.95624 0.695718 0
M  V30 1870 H 182.313 -1.43781 0.405882 0
M  V30 1871 H 184.195 -3.9136 -1.56254 0
M  V30 1872 H 182.87 -2.73069 -1.73824 0
M  V30 1873 H 181.777 -3.72408 0.355356 0
M  V30 1874 H 183.11 -4.90157 0.447936 0
M  V30 1875 N 184.763 -0.387143 -1.52771 0
M  V30 1876 C 186.174 0.0873634 -1.86495 0
M  V30 1877 C 186.525 1.46336 -1.30691 0
M  V30 1878 O 185.65 2.068 -0.637409 0
M  V30 1879 C 186.245 0.165305 -3.38396 0
M  V30 1880 C 184.804 0.584101 -3.7184 0
M  V30 1881 C 183.951 -0.255279 -2.76122 0
M  V30 1882 H 186.902 -0.605104 -1.46711 0
M  V30 1883 H 186.923 0.984848 -3.67534 0
M  V30 1884 H 186.435 -0.836301 -3.78982 0
M  V30 1885 H 184.536 1.59315 -3.36823 0
M  V30 1886 H 184.649 0.343749 -4.77865 0
M  V30 1887 H 183.013 0.279126 -2.53166 0
M  V30 1888 H 183.796 -1.25482 -3.19545 0
M  V30 1889 N 186.241 1.57166 -0.116904 0
M  V30 1890 C 187.487 1.96206 0.536166 0
M  V30 1891 C 187.842 0.99915 1.64422 0
M  V30 1892 O 187.135 0.0288195 1.91578 0
M  V30 1893 C 187.329 3.39508 1.11664 0
M  V30 1894 C 187.158 4.49651 0.0663474 0
M  V30 1895 C 185.928 5.03982 -0.36474 0
M  V30 1896 C 188.126 5.09322 -0.713829 0
M  V30 1897 N 186.108 5.97699 -1.40102 0
M  V30 1898 C 187.479 5.98963 -1.60136 0
M  V30 1899 C 189.534 4.91989 -0.764948 0
M  V30 1900 C 188.237 6.73128 -2.53556 0
M  V30 1901 C 190.263 5.66833 -1.68685 0
M  V30 1902 C 189.625 6.56158 -2.56196 0
M  V30 1903 H 185.724 0.764203 0.165886 0
M  V30 1904 H 188.308 1.93623 -0.204535 0
M  V30 1905 H 186.479 3.42743 1.82707 0
M  V30 1906 H 188.211 3.65677 1.73386 0
M  V30 1907 H 184.966 4.73592 0.027252 0
M  V30 1908 H 185.39 6.49262 -1.91802 0
M  V30 1909 H 190.032 4.22676 -0.102501 0
M  V30 1910 H 187.75 7.41689 -3.20816 0
M  V30 1911 H 191.336 5.55427 -1.73181 0
M  V30 1912 H 190.216 7.13057 -3.26372 0
M  V30 1913 N 187.719 -0.156864 1.56817 0
M  V30 1914 C 188.966 -0.871125 1.82805 0
M  V30 1915 C 189.294 -1.81611 0.696262 0
M  V30 1916 O 188.549 -1.93141 -0.315459 0
M  V30 1917 C 188.848 -1.68737 3.1506 0
M  V30 1918 C 188.514 -0.890045 4.42028 0
M  V30 1919 C 187.176 -0.670042 4.76512 0
M  V30 1920 C 189.528 -0.331769 5.20143 0
M  V30 1921 C 186.856 0.119104 5.86579 0
M  V30 1922 C 189.208 0.444365 6.31037 0
M  V30 1923 C 187.872 0.675035 6.64078 0
M  V30 1924 H 187.142 -0.318767 0.668931 0
M  V30 1925 H 189.789 -0.135274 1.91022 0
M  V30 1926 H 188.094 -2.49304 3.0225 0
M  V30 1927 H 189.791 -2.24331 3.3238 0
M  V30 1928 H 186.381 -1.07157 4.14988 0
M  V30 1929 H 190.565 -0.489043 4.93885 0
M  V30 1930 H 185.821 0.307417 6.10627 0
M  V30 1931 H 189.995 0.884139 6.90765 0
M  V30 1932 H 187.622 1.28839 7.49203 0
M  V30 1933 N 189.197 -1.51736 -0.425897 0
M  V30 1934 C 190.444 -1.6497 -1.17436 0
M  V30 1935 C 190.772 -0.371445 -1.9092 0
M  V30 1936 O 190.027 0.644963 -1.84767 0
M  V30 1937 C 190.326 -2.81103 -2.20717 0
M  V30 1938 C 189.992 -4.19954 -1.64162 0
M  V30 1939 C 188.654 -4.57725 -1.48462 0
M  V30 1940 C 191.006 -5.06552 -1.22696 0
M  V30 1941 C 188.334 -5.79789 -0.897873 0
M  V30 1942 C 190.686 -6.29205 -0.654464 0
M  V30 1943 C 189.35 -6.6574 -0.484456 0
M  V30 1944 H 188.62 -0.603668 -0.429727 0
M  V30 1945 H 191.267 -1.85798 -0.463829 0
M  V30 1946 H 189.572 -2.54542 -2.97852 0
M  V30 1947 H 191.269 -2.8854 -2.78471 0
M  V30 1948 H 187.859 -3.90181 -1.77361 0
M  V30 1949 H 192.043 -4.77968 -1.33642 0
M  V30 1950 H 187.299 -6.06733 -0.75402 0
M  V30 1951 H 191.473 -6.95643 -0.324694 0
M  V30 1952 H 189.1 -7.60195 -0.0276833 0
M  V30 1953 N 190.675 0.682077 -1.42076 0
M  V30 1954 C 191.622 1.79578 -1.44984 0
M  V30 1955 C 192.592 1.6332 -0.302614 0
M  V30 1956 O 193.777 1.83978 -0.505633 0
M  V30 1957 C 190.917 3.1756 -1.35091 0
M  V30 1958 C 190.03 3.45156 -2.59791 0
M  V30 1959 C 189.165 4.72826 -2.42093 0
M  V30 1960 C 188.204 4.93433 -3.62202 0
M  V30 1961 N 187.341 6.12338 -3.43491 0
M  V30 1962 H 192.181 1.76427 -2.40161 0
M  V30 1963 H 189.718 0.861376 -1.19242 0
M  V30 1964 H 191.676 3.97287 -1.27354 0
M  V30 1965 H 190.306 3.19854 -0.435133 0
M  V30 1966 H 189.358 2.59736 -2.77923 0
M  V30 1967 H 190.67 3.5628 -3.49094 0
M  V30 1968 H 189.824 5.60631 -2.319 0
M  V30 1969 H 188.563 4.63973 -1.50268 0
M  V30 1970 H 187.568 4.04073 -3.72834 0
M  V30 1971 H 188.793 5.04136 -4.54998 0
M  V30 1972 H 186.739 6.04672 -2.54377 0
M  V30 1973 H 186.656 6.2429 -4.26377 0
M  V30 1974 H 187.924 7.02841 -3.37097 0
M  V30 1975 N 192.153 1.28127 0.917671 0
M  V30 1976 C 193.101 1.11569 2.04096 0
M  V30 1977 C 194.095 0.0360242 1.69362 0
M  V30 1978 O 195.301 0.194501 1.78946 0
M  V30 1979 H 191.676 0.344097 0.668656 0
M  V30 1980 H 193.647 2.06711 2.15205 0
M  V30 1981 C 192.396 0.790197 3.38602 0
M  V30 1982 H 191.719 1.61293 3.6582 0
M  V30 1983 H 193.159 0.714271 4.1794 0
M  V30 1984 C 191.618 -0.505897 3.3308 0
M  V30 1985 O 192.148 -1.53736 3.71117 0
M  V30 1986 N 190.354 -0.505193 2.86175 0
M  V30 1987 H 189.901 0.334621 2.55417 0
M  V30 1988 H 189.859 -1.37243 2.82863 0
M  V30 1989 N 193.631 -1.12557 1.10312 0
M  V30 1990 C 194.561 -2.20341 0.772798 0
M  V30 1991 C 195.542 -1.68198 -0.25365 0
M  V30 1992 O 196.727 -1.93831 -0.119699 0
M  V30 1993 C 193.857 -3.46709 0.202443 0
M  V30 1994 C 192.811 -4.11996 1.15943 0
M  V30 1995 C 192.137 -5.328 0.450345 0
M  V30 1996 C 193.437 -4.5828 2.50552 0
M  V30 1997 H 195.131 -2.48229 1.674 0
M  V30 1998 H 192.677 -1.19308 0.806326 0
M  V30 1999 H 194.63 -4.2138 -0.0407752 0
M  V30 2000 H 193.354 -3.18245 -0.734001 0
M  V30 2001 H 192.013 -3.39305 1.38808 0
M  V30 2002 H 191.661 -5.00602 -0.490531 0
M  V30 2003 H 191.361 -5.7743 1.08851 0
M  V30 2004 H 192.885 -6.10219 0.215642 0
M  V30 2005 H 194.299 -5.2433 2.31843 0
M  V30 2006 H 192.696 -5.13683 3.10242 0
M  V30 2007 H 193.766 -3.72329 3.10643 0
M  V30 2008 N 195.109 -0.891671 -1.2995 0
M  V30 2009 C 196.334 -0.527932 -2.00568 0
M  V30 2010 C 196.759 0.877969 -1.66353 0
M  V30 2011 O 196.117 1.58301 -0.883762 0
M  V30 2012 C 196.165 -0.717745 -3.53385 0
M  V30 2013 O 195.269 0.233376 -4.11739 0
M  V30 2014 H 194.61 -0.20722 -0.630837 0
M  V30 2015 H 197.14 -1.20105 -1.65638 0
M  V30 2016 H 197.15 -0.619307 -4.03272 0
M  V30 2017 H 195.825 -1.74276 -3.77625 0
M  V30 2018 H 194.402 0.0880706 -3.72796 0
M  V30 2019 N 196.587 1.43421 -0.653314 0
M  V30 2020 C 198.003 1.56341 -0.320886 0
M  V30 2021 C 198.203 1.63696 1.17499 0
M  V30 2022 O 197.259 1.59208 1.95982 0
M  V30 2023 C 198.572 2.82424 -1.03233 0
M  V30 2024 C 200.12 2.96168 -1.01259 0
M  V30 2025 C 200.595 4.25084 -1.70492 0
M  V30 2026 N 202.086 4.31948 -1.67257 0
M  V30 2027 C 202.821 5.30466 -2.17701 0
M  V30 2028 N 202.317 6.35261 -2.76434 0
M  V30 2029 N 204.11 5.2212 -2.082 0
M  V30 2030 H 196.261 1.3689 -1.62403 0
M  V30 2031 H 198.524 0.657455 -0.682977 0
M  V30 2032 H 198.23 2.83053 -2.08744 0
M  V30 2033 H 198.104 3.72653 -0.583948 0
M  V30 2034 H 200.491 2.9508 0.0341235 0
M  V30 2035 H 200.572 2.07229 -1.49966 0
M  V30 2036 H 200.216 4.26932 -2.7512 0
M  V30 2037 H 200.146 5.1292 -1.19251 0
M  V30 2038 H 202.637 3.56838 -1.24398 0
M  V30 2039 H 202.95 7.06754 -3.12601 0
M  V30 2040 H 201.295 6.35884 -2.80495 0
M  V30 2041 H 204.486 4.39166 -1.62021 0
M  V30 2042 H 204.659 5.98739 -2.47822 0
M  V30 2043 N 198.065 0.39524 1.52563 0
M  V30 2044 C 199.012 -0.437036 2.26624 0
M  V30 2045 C 199.982 -1.05281 1.28472 0
M  V30 2046 O 201.167 -1.07971 1.57311 0
M  V30 2047 C 198.307 -1.55524 3.08069 0
M  V30 2048 C 197.42 -0.961745 4.21158 0
M  V30 2049 C 196.555 -2.05149 4.89987 0
M  V30 2050 C 195.594 -1.4342 5.95061 0
M  V30 2051 N 194.731 -2.46351 6.57462 0
M  V30 2052 H 199.571 0.200976 2.97322 0
M  V30 2053 H 197.108 0.110944 1.46681 0
M  V30 2054 H 199.066 -2.21437 3.53584 0
M  V30 2055 H 197.696 -2.16348 2.3957 0
M  V30 2056 H 196.748 -0.192048 3.79915 0
M  V30 2057 H 198.06 -0.470701 4.96574 0
M  V30 2058 H 197.214 -2.78819 5.38837 0
M  V30 2059 H 195.953 -2.57615 4.14109 0
M  V30 2060 H 194.958 -0.682774 5.45544 0
M  V30 2061 H 196.183 -0.917416 6.72875 0
M  V30 2062 H 194.129 -2.97975 5.8442 0
M  V30 2063 H 194.046 -2.02019 7.28508 0
M  V30 2064 H 195.314 -3.19633 7.10954 0
M  V30 2065 N 199.544 -1.57102 0.125237 0
M  V30 2066 C 200.821 -1.86953 -0.575142 0
M  V30 2067 C 201.201 -1.02749 -1.84407 0
M  V30 2068 O 200.549 -0.108144 -2.28244 0
M  V30 2069 C 200.759 -3.38198 -0.861583 0
M  V30 2070 C 202.107 -4.06937 -1.21192 0
M  V30 2071 O 203.131 -3.43252 -0.951645 0
M  V30 2072 O 201.99 -5.19364 -1.70068 0
M  V30 2073 H 199.084 -0.774147 -0.290906 0
M  V30 2074 H 201.63 -1.68942 0.160211 0
M  V30 2075 H 200.402 -3.91282 0.0373647 0
M  V30 2076 H 200.025 -3.61661 -1.65188 0
M  V30 2077 N 201.022 0.148545 -1.56898 0
M  V30 2078 C 201.985 1.16736 -1.97244 0
M  V30 2079 C 202.985 1.35947 -0.858777 0
M  V30 2080 O 204.175 1.32966 -1.12542 0
M  V30 2081 C 201.307 2.52798 -2.28705 0
M  V30 2082 H 202.5 0.821279 -2.88435 0
M  V30 2083 H 200.053 0.391831 -1.51309 0
M  V30 2084 H 200.788 2.92381 -1.403 0
M  V30 2085 H 200.573 2.40216 -3.09901 0
M  V30 2086 H 202.063 3.26179 -2.60762 0
M  V30 2087 N 202.5 1.5196 0.417844 0
M  V30 2088 C 203.41 1.77554 1.53336 0
M  V30 2089 C 204.426 0.660655 1.6097 0
M  V30 2090 O 205.602 0.945099 1.77848 0
M  V30 2091 C 202.667 1.91291 2.89152 0
M  V30 2092 C 201.728 3.15183 2.91475 0
M  V30 2093 C 200.961 3.28256 4.20813 0
M  V30 2094 O 201.184 2.46798 5.14244 0
M  V30 2095 O 200.118 4.21356 4.29817 0
M  V30 2096 H 203.944 2.7222 1.34647 0
M  V30 2097 H 201.529 1.36698 0.602828 0
M  V30 2098 H 203.411 2.02199 3.69721 0
M  V30 2099 H 202.086 0.998129 3.07927 0
M  V30 2100 H 200.993 3.09739 2.09791 0
M  V30 2101 H 202.326 4.06414 2.77648 0
M  V30 2102 N 203.978 -0.674533 1.42435 0
M  V30 2103 C 205.394 -0.98769 1.25367 0
M  V30 2104 C 205.594 -2.00879 0.158044 0
M  V30 2105 O 204.65 -2.48075 -0.470633 0
M  V30 2106 C 205.963 -1.49224 2.6106 0
M  V30 2107 C 207.511 -1.61 2.68417 0
M  V30 2108 C 207.986 -2.14852 4.04478 0
M  V30 2109 N 209.477 -2.22185 4.06434 0
M  V30 2110 C 210.212 -2.64928 5.08528 0
M  V30 2111 N 209.708 -3.07121 6.21006 0
M  V30 2112 N 211.501 -2.64679 4.95885 0
M  V30 2113 H 203.652 0.00152503 2.124 0
M  V30 2114 H 205.915 -0.0618434 0.945981 0
M  V30 2115 H 205.621 -0.816453 3.42092 0
M  V30 2116 H 205.495 -2.47094 2.84999 0
M  V30 2117 H 207.882 -2.27686 1.87732 0
M  V30 2118 H 207.963 -0.616195 2.48267 0
M  V30 2119 H 207.607 -1.48775 4.85622 0
M  V30 2120 H 207.537 -3.15024 4.2198 0
M  V30 2121 H 210.028 -1.92435 3.25234 0
M  V30 2122 H 210.341 -3.38423 6.94759 0
M  V30 2123 H 208.686 -3.04978 6.24511 0
M  V30 2124 H 211.877 -2.31078 4.07088 0
M  V30 2125 H 212.05 -2.9767 5.75584 0
M  V30 2126 N 205.456 -1.28612 -0.910864 0
M  V30 2127 C 206.388 -1.08589 -2.01844 0
M  V30 2128 C 207.401 -0.0367419 -1.62759 0
M  V30 2129 O 208.59 -0.280101 -1.76289 0
M  V30 2130 C 205.69 -0.628626 -3.33019 0
M  V30 2131 C 204.863 -1.75382 -4.00699 0
M  V30 2132 C 203.922 -1.28945 -5.10156 0
M  V30 2133 O 202.948 -1.9922 -5.33198 0
M  V30 2134 N 204.15 -0.154224 -5.80295 0
M  V30 2135 H 206.915 -2.03973 -2.19579 0
M  V30 2136 H 204.476 -1.20403 -1.08234 0
M  V30 2137 H 206.468 -0.301508 -4.03575 0
M  V30 2138 H 205.038 0.232451 -3.11735 0
M  V30 2139 H 204.258 -2.25039 -3.23653 0
M  V30 2140 H 205.546 -2.50854 -4.42662 0
M  V30 2141 H 204.944 0.43194 -5.64049 0
M  V30 2142 H 203.501 0.113599 -6.51701 0
M  V30 2143 N 206.934 1.1197 -1.10907 0
M  V30 2144 C 207.864 2.19928 -0.784473 0
M  V30 2145 C 208.845 1.6833 0.244726 0
M  V30 2146 O 210.03 1.93892 0.109418 0
M  V30 2147 C 207.16 3.46597 -0.220827 0
M  V30 2148 C 206.114 4.11376 -1.18127 0
M  V30 2149 C 205.44 5.32554 -0.478594 0
M  V30 2150 C 206.74 4.56945 -2.52979 0
M  V30 2151 H 208.434 2.47337 -1.68715 0
M  V30 2152 H 205.98 1.18879 -0.812642 0
M  V30 2153 H 207.933 4.21396 0.0184278 0
M  V30 2154 H 206.657 3.1863 0.717113 0
M  V30 2155 H 205.316 3.38564 -1.40606 0
M  V30 2156 H 204.964 5.00856 0.463976 0
M  V30 2157 H 204.664 5.76844 -1.11912 0
M  V30 2158 H 206.188 6.10096 -0.248 0
M  V30 2159 H 207.602 5.23093 -2.3462 0
M  V30 2160 H 205.999 5.1203 -3.12962 0
M  V30 2161 H 207.069 3.70676 -3.12614 0
M  V30 2162 N 208.412 0.89855 1.29475 0
M  V30 2163 C 209.342 0.39201 2.30186 0
M  V30 2164 C 210.323 -0.532359 1.61555 0
M  V30 2165 O 211.508 -0.443331 1.89072 0
M  V30 2166 C 208.638 -0.382353 3.45189 0
M  V30 2167 C 207.592 0.451483 4.25612 0
M  V30 2168 C 206.918 -0.450307 5.328 0
M  V30 2169 C 208.218 1.70079 4.93832 0
M  V30 2170 H 209.912 1.23362 2.72804 0
M  V30 2171 H 207.458 0.594638 1.31149 0
M  V30 2172 H 209.411 -0.747451 4.14718 0
M  V30 2173 H 208.135 -1.25774 3.01411 0
M  V30 2174 H 206.794 0.798897 3.57789 0
M  V30 2175 H 206.442 -1.32379 4.85268 0
M  V30 2176 H 206.142 0.103902 5.87508 0
M  V30 2177 H 207.666 -0.811623 6.05182 0
M  V30 2178 H 209.08 1.40549 5.55805 0
M  V30 2179 H 207.477 2.19623 5.58467 0
M  V30 2180 H 208.547 2.43744 4.19186 0
M  V30 2181 N 209.89 -1.43072 0.660911 0
M  V30 2182 C 210.853 -2.29194 -0.0166406 0
M  V30 2183 C 211.853 -1.42609 -0.742912 0
M  V30 2184 O 213.043 -1.64155 -0.583004 0
M  V30 2185 C 210.175 -3.24831 -1.0343 0
M  V30 2186 H 211.368 -2.90596 0.741208 0
M  V30 2187 H 208.921 -1.5048 0.422532 0
M  V30 2188 H 209.656 -2.68339 -1.82111 0
M  V30 2189 H 209.441 -3.88676 -0.517082 0
M  V30 2190 H 210.931 -3.89451 -1.50723 0
M  V30 2191 N 211.368 -0.403325 -1.52352 0
M  V30 2192 C 212.779 0.0675782 -1.86578 0
M  V30 2193 C 213.13 1.44941 -1.32236 0
M  V30 2194 O 212.255 2.06112 -0.659307 0
M  V30 2195 C 212.85 0.129404 -3.38553 0
M  V30 2196 C 211.409 0.544629 -3.72439 0
M  V30 2197 C 210.556 -0.284551 -2.75836 0
M  V30 2198 H 213.507 -0.620631 -1.46061 0
M  V30 2199 H 213.528 0.94581 -3.68558 0
M  V30 2200 H 213.04 -0.87645 -3.78074 0
M  V30 2201 H 211.141 1.55734 -3.38493 0
M  V30 2202 H 211.254 0.293046 -4.78203 0
M  V30 2203 H 209.618 0.252258 -2.53448 0
M  V30 2204 H 210.401 -1.28865 -3.18196 0
M  V30 2205 N 212.846 1.57033 -0.133567 0
M  V30 2206 C 214.094 1.953 0.519848 0
M  V30 2207 C 214.415 1.01866 1.66278 0
M  V30 2208 O 213.685 0.0776513 1.95746 0
M  V30 2209 H 212.265 0.721091 0.195032 0
M  V30 2210 H 214.927 1.93809 -0.205921 0
M  V30 2211 H 214.023 2.98695 0.904854 0
M  V30 2212 N 214.325 -0.140222 1.56975 0
M  V30 2213 C 215.273 -1.19207 1.99731 0
M  V30 2214 C 216.267 -1.44089 0.890777 0
M  V30 2215 O 217.473 -1.44301 1.07597 0
M  V30 2216 H 213.848 -0.40142 0.635898 0
M  V30 2217 H 215.819 -0.804813 2.87342 0
M  V30 2218 C 214.568 -2.51617 2.39967 0
M  V30 2219 H 213.891 -2.33303 3.24669 0
M  V30 2220 H 215.331 -3.23827 2.73701 0
M  V30 2221 C 213.79 -3.12654 1.25496 0
M  V30 2222 O 214.32 -3.97786 0.559371 0
M  V30 2223 N 212.526 -2.72206 1.01746 0
M  V30 2224 H 212.073 -2.03074 1.58489 0
M  V30 2225 H 212.031 -3.13377 0.253461 0
M  V30 2226 N 215.803 -1.52179 -0.40978 0
M  V30 2227 C 217.031 -1.70054 -1.17853 0
M  V30 2228 C 217.446 -0.409735 -1.843 0
M  V30 2229 O 216.803 0.614183 -1.71855 0
M  V30 2230 C 216.854 -2.83568 -2.24213 0
M  V30 2231 O 216.575 -4.0765 -1.60478 0
M  V30 2232 C 218.076 -3.12947 -3.13973 0
M  V30 2233 H 215.296 -0.569917 -0.354169 0
M  V30 2234 H 217.84 -1.98734 -0.482198 0
M  V30 2235 H 215.995 -2.57409 -2.89516 0
M  V30 2236 H 216.409 -4.70899 -2.30986 0
M  V30 2237 H 217.883 -3.95889 -3.84677 0
M  V30 2238 H 218.36 -2.26472 -3.76307 0
M  V30 2239 H 218.966 -3.40868 -2.5434 0
M  V30 2240 N 217.281 0.66697 -1.42791 0
M  V30 2241 C 218.231 1.77313 -1.43332 0
M  V30 2242 C 219.215 1.5801 -0.303586 0
M  V30 2243 O 220.407 1.68356 -0.546385 0
M  V30 2244 C 217.536 3.15822 -1.34578 0
M  V30 2245 C 216.622 3.40721 -2.52528 0
M  V30 2246 N 217.013 3.36162 -3.77927 0
M  V30 2247 C 215.311 3.71387 -2.46956 0
M  V30 2248 C 216.012 3.60762 -4.56318 0
M  V30 2249 N 214.988 3.81908 -3.86843 0
M  V30 2250 H 218.79 1.72193 -2.38174 0
M  V30 2251 H 216.304 0.868114 -1.3725 0
M  V30 2252 H 218.301 3.951 -1.33048 0
M  V30 2253 H 216.961 3.22133 -0.407453 0
M  V30 2254 H 217.972 3.15885 -4.10411 0
M  V30 2255 H 214.649 3.84897 -1.61743 0
M  V30 2256 H 216.039 3.63132 -5.65318 0
M  V30 2257 N 218.759 1.29093 0.90403 0
M  V30 2258 C 220.007 1.16583 1.65085 0
M  V30 2259 C 220.328 -0.283933 1.92922 0
M  V30 2260 O 219.598 -1.19509 1.55224 0
M  V30 2261 H 218.178 0.428467 0.611903 0
M  V30 2262 H 220.84 1.61959 1.08422 0
M  V30 2263 H 219.936 1.71266 2.6091 0
M  V30 2264 N 220.237 -1.11381 1.11499 0
M  V30 2265 C 221.462 -1.87475 0.887019 0
M  V30 2266 C 221.887 -1.79639 -0.557796 0
M  V30 2267 O 221.245 -1.15924 -1.39396 0
M  V30 2268 C 221.293 -3.34213 1.35403 0
M  V30 2269 O 220.397 -4.0903 0.526146 0
M  V30 2270 H 219.738 -0.582099 0.319463 0
M  V30 2271 H 222.268 -1.40785 1.48461 0
M  V30 2272 H 222.278 -3.8506 1.34881 0
M  V30 2273 H 220.953 -3.39232 2.40612 0
M  V30 2274 H 219.53 -3.68082 0.597522 0
M  V30 2275 N 221.715 -0.905404 -1.28997 0
M  V30 2276 C 222.962 -0.534248 -1.95325 0
M  V30 2277 C 223.29 0.920535 -1.71337 0
M  V30 2278 O 222.545 1.66861 -1.02254 0
M  V30 2279 C 222.844 -0.779906 -3.48787 0
M  V30 2280 C 222.51 -2.21293 -3.92861 0
M  V30 2281 C 221.172 -2.60475 -4.04606 0
M  V30 2282 C 223.524 -3.14587 -4.15553 0
M  V30 2283 C 220.852 -3.9212 -4.36416 0
M  V30 2284 C 223.204 -4.45787 -4.48839 0
M  V30 2285 C 221.868 -4.84834 -4.58794 0
M  V30 2286 H 221.138 -0.195495 -0.714747 0
M  V30 2287 H 223.785 -1.14514 -1.53488 0
M  V30 2288 H 222.09 -0.0861365 -3.91705 0
M  V30 2289 H 223.787 -0.472029 -3.98212 0
M  V30 2290 H 220.377 -1.89887 -3.84241 0
M  V30 2291 H 224.561 -2.85528 -4.0594 0
M  V30 2292 H 219.817 -4.22086 -4.42327 0
M  V30 2293 H 223.991 -5.18098 -4.65346 0
M  V30 2294 H 221.618 -5.86877 -4.83197 0
M  V30 2295 N 223.193 1.4272 -0.668489 0
M  V30 2296 C 224.123 2.335 -0.000100175 0
M  V30 2297 C 225.104 1.50328 0.795964 0
M  V30 2298 O 226.289 1.78949 0.754385 0
M  V30 2299 C 223.419 3.33874 0.956302 0
M  V30 2300 C 222.373 4.27152 0.269278 0
M  V30 2301 C 221.699 5.17684 1.33818 0
M  V30 2302 C 222.999 5.15373 -0.847805 0
M  V30 2303 H 224.693 2.89639 -0.758244 0
M  V30 2304 H 222.239 1.39269 -0.366079 0
M  V30 2305 H 224.192 3.9629 1.43292 0
M  V30 2306 H 222.916 2.76025 1.74579 0
M  V30 2307 H 221.575 3.66123 -0.187042 0
M  V30 2308 H 221.223 4.56165 2.1195 0
M  V30 2309 H 220.923 5.80918 0.883659 0
M  V30 2310 H 222.447 5.82974 1.81586 0
M  V30 2311 H 223.861 5.7151 -0.452681 0
M  V30 2312 H 222.258 5.87407 -1.22773 0
M  V30 2313 H 223.328 4.5415 -1.69929 0
M  V30 2314 N 224.671 0.411399 1.52136 0
M  V30 2315 C 225.92 -0.165009 2.01024 0
M  V30 2316 C 226.233 -1.4603 1.30133 0
M  V30 2317 O 227.439 -2.1181 1.69849 0
M  V30 2318 C 225.895 -0.344618 3.58246 0
M  V30 2319 C 225.503 0.938716 4.38055 0
M  V30 2320 C 227.247 -0.876195 4.15359 0
M  V30 2321 C 225.154 0.726172 5.86925 0
M  V30 2322 H 224.084 -0.0654407 0.751155 0
M  V30 2323 H 226.735 0.537192 1.75461 0
M  V30 2324 H 225.117 -1.10921 3.80148 0
M  V30 2325 H 226.291 1.70963 4.27912 0
M  V30 2326 H 224.606 1.39688 3.92271 0
M  V30 2327 H 227.203 -1.05128 5.24263 0
M  V30 2328 H 227.546 -1.85152 3.7286 0
M  V30 2329 H 228.079 -0.170607 3.97434 0
M  V30 2330 H 224.818 1.67312 6.33788 0
M  V30 2331 H 224.338 -0.00540283 5.998 0
M  V30 2332 H 226.017 0.369231 6.45946 0
M  V30 2333 N 226.149 -1.5696 0.141893 0
M  V30 2334 C 227.565 -1.58151 -0.21456 0
M  V30 2335 C 227.765 -1.1559 -1.65049 0
M  V30 2336 O 226.821 -0.853832 -2.37626 0
M  V30 2337 C 228.134 -3.00674 0.0395576 0
M  V30 2338 C 229.682 -3.1299 -0.0245529 0
M  V30 2339 C 230.157 -4.57554 0.202167 0
M  V30 2340 N 231.648 -4.62961 0.148919 0
M  V30 2341 C 232.383 -5.7262 0.298924 0
M  V30 2342 N 231.879 -6.90947 0.50637 0
M  V30 2343 N 233.672 -5.61601 0.236886 0
M  V30 2344 H 225.823 -1.8292 1.07953 0
M  V30 2345 H 228.086 -0.846425 0.42693 0
M  V30 2346 H 227.792 -3.36183 1.03315 0
M  V30 2347 H 227.666 -3.70981 -0.682143 0
M  V30 2348 H 230.053 -2.77326 -1.00869 0
M  V30 2349 H 230.134 -2.4518 0.729396 0
M  V30 2350 H 229.778 -4.93922 1.18338 0
M  V30 2351 H 229.708 -5.23484 -0.572044 0
M  V30 2352 H 232.199 -3.77899 -0.00697015 0
M  V30 2353 H 232.512 -7.7038 0.611076 0
M  V30 2354 H 230.857 -6.92878 0.542628 0
M  V30 2355 H 234.048 -4.68039 0.0756209 0
M  V30 2356 H 234.221 -6.47015 0.357227 0
M  V30 2357 N 227.627 0.131896 -1.57047 0
M  V30 2358 C 228.537 1.1815 -2.02676 0
M  V30 2359 C 229.553 1.46113 -0.944824 0
M  V30 2360 O 230.729 1.57485 -1.25541 0
M  V30 2361 C 227.794 2.49139 -2.41103 0
M  V30 2362 C 226.855 2.28688 -3.63318 0
M  V30 2363 C 226.088 3.53431 -3.99903 0
M  V30 2364 O 226.311 4.60223 -3.36973 0
M  V30 2365 O 225.245 3.45198 -4.93074 0
M  V30 2366 H 229.071 0.824069 -2.92306 0
M  V30 2367 H 226.656 0.341745 -1.45439 0
M  V30 2368 H 228.538 3.26338 -2.66611 0
M  V30 2369 H 227.213 2.84382 -1.54624 0
M  V30 2370 H 226.12 1.4939 -3.42977 0
M  V30 2371 H 227.453 1.98355 -4.50462 0
M  V30 2372 N 229.106 1.52395 0.401703 0
M  V30 2373 C 230.331 1.70972 1.17403 0
M  V30 2374 C 230.756 0.421615 1.83314 0
M  V30 2375 O 230.114 -0.621564 1.70312 0
M  V30 2376 C 230.162 2.85151 2.20728 0
M  V30 2377 O 229.266 2.51238 3.27037 0
M  V30 2378 H 228.607 0.568927 0.342372 0
M  V30 2379 H 231.137 1.99131 0.469891 0
M  V30 2380 H 231.147 3.10279 2.64936 0
M  V30 2381 H 229.822 3.78603 1.7214 0
M  V30 2382 H 228.399 2.36808 2.88057 0
M  V30 2383 N 230.584 -0.659388 1.43143 0
M  V30 2384 C 231.494 -1.80167 1.50256 0
M  V30 2385 C 232.51 -1.69571 0.390106 0
M  V30 2386 O 233.686 -1.90849 0.643319 0
M  V30 2387 C 230.751 -3.16409 1.41725 0
M  V30 2388 C 229.812 -3.38848 2.63591 0
M  V30 2389 C 229.045 -4.68591 2.55458 0
M  V30 2390 O 229.268 -5.47532 1.59891 0
M  V30 2391 O 228.202 -4.92614 3.45854 0
M  V30 2392 H 232.028 -1.77121 2.46702 0
M  V30 2393 H 229.613 -0.817092 1.25076 0
M  V30 2394 H 231.495 -3.9768 1.39387 0
M  V30 2395 H 230.17 -3.20059 0.484118 0
M  V30 2396 H 229.077 -2.57366 2.71502 0
M  V30 2397 H 230.41 -3.4004 3.55856 0
M  V30 2398 N 232.062 -1.29571 -0.897171 0
M  V30 2399 C 233.287 -1.20705 -1.68656 0
M  V30 2400 C 233.712 0.228582 -1.86706 0
M  V30 2401 O 233.07 1.16494 -1.3892 0
M  V30 2402 C 233.118 -1.9282 -3.04717 0
M  V30 2403 O 232.222 -1.24697 -3.93096 0
M  V30 2404 H 231.563 -0.418126 -0.515816 0
M  V30 2405 H 234.093 -1.71183 -1.12061 0
M  V30 2406 H 234.103 -2.01372 -3.54843 0
M  V30 2407 H 232.778 -2.97239 -2.90899 0
M  V30 2408 H 231.355 -1.2442 -3.51531 0
M  V30 2409 N 233.54 1.10788 -1.12088 0
M  V30 2410 C 234.768 1.86461 -0.896651 0
M  V30 2411 C 235.183 1.80492 0.553912 0
M  V30 2412 O 234.54 1.19102 1.38278 0
M  V30 2413 C 234.591 3.35006 -1.35843 0
M  V30 2414 O 234.312 3.40866 -2.75213 0
M  V30 2415 C 235.813 4.27565 -1.1706 0
M  V30 2416 H 233.033 0.589425 -0.320654 0
M  V30 2417 H 235.577 1.40076 -1.48993 0
M  V30 2418 H 233.732 3.7887 -0.808458 0
M  V30 2419 H 234.146 4.33411 -2.9539 0
M  V30 2420 H 235.62 5.30007 -1.54263 0
M  V30 2421 H 236.097 4.3906 -0.110814 0
M  V30 2422 H 236.703 3.89501 -1.70789 0
M  V30 2423 N 235.018 0.912232 1.28515 0
M  V30 2424 C 235.981 0.404223 2.25607 0
M  V30 2425 C 236.981 -0.468602 1.53821 0
M  V30 2426 O 238.171 -0.271873 1.72065 0
M  V30 2427 C 235.303 -0.420653 3.38295 0
M  V30 2428 H 236.496 1.26188 2.7206 0
M  V30 2429 H 234.049 0.691495 1.40171 0
M  V30 2430 H 234.784 -1.29777 2.97201 0
M  V30 2431 H 234.569 0.204935 3.91564 0
M  V30 2432 H 236.059 -0.766971 4.10496 0
M  V30 2433 N 236.496 -1.42363 0.676048 0
M  V30 2434 C 237.744 -2.01123 0.198437 0
M  V30 2435 C 238.065 -1.53731 -1.19966 0
M  V30 2436 O 237.335 -0.759518 -1.80577 0
M  V30 2437 H 235.915 -0.743678 0.0703721 0
M  V30 2438 H 238.577 -1.74263 0.872837 0
M  V30 2439 H 237.673 -3.11454 0.200686 0
M  V30 2440 N 237.974 -0.419461 -1.51915 0
M  V30 2441 C 239.199 0.154572 -2.06823 0
M  V30 2442 C 239.624 1.3722 -1.28656 0
M  V30 2443 O 238.982 1.78461 -0.319583 0
M  V30 2444 C 239.03 0.473172 -3.57482 0
M  V30 2445 O 238.134 1.56255 -3.81652 0
M  V30 2446 H 237.475 0.0096924 -0.663929 0
M  V30 2447 H 240.005 -0.595642 -1.95738 0
M  V30 2448 H 240.015 0.728825 -4.01438 0
M  V30 2449 H 238.69 -0.416873 -4.13805 0
M  V30 2450 H 237.267 1.29825 -3.49571 0
M  V30 2451 N 239.452 1.56882 -0.150215 0
M  V30 2452 C 240.699 1.96228 0.500093 0
M  V30 2453 C 241.027 1.03522 1.64661 0
M  V30 2454 O 240.282 0.0650683 1.95592 0
M  V30 2455 C 240.581 3.41801 1.04437 0
M  V30 2456 C 240.247 4.50897 0.0159671 0
M  V30 2457 C 238.909 4.8046 -0.266731 0
M  V30 2458 C 241.261 5.16703 -0.683192 0
M  V30 2459 C 238.589 5.73135 -1.25434 0
M  V30 2460 C 240.941 6.10441 -1.65964 0
M  V30 2461 C 239.605 6.38382 -1.95 0
M  V30 2462 H 238.875 0.718048 0.182997 0
M  V30 2463 H 241.522 1.90019 -0.237724 0
M  V30 2464 H 239.827 3.44857 1.85959 0
M  V30 2465 H 241.524 3.69573 1.55618 0
M  V30 2466 H 238.114 4.27891 0.246485 0
M  V30 2467 H 242.298 4.93993 -0.477983 0
M  V30 2468 H 237.554 5.93074 -1.48571 0
M  V30 2469 H 241.728 6.60507 -2.20689 0
M  V30 2470 H 239.355 7.09996 -2.71679 0
M  V30 2471 N 240.93 -0.123565 1.57115 0
M  V30 2472 C 242.155 -0.850398 1.89164 0
M  V30 2473 C 242.58 -1.7286 0.741688 0
M  V30 2474 O 241.938 -1.78665 -0.307958 0
M  V30 2475 C 241.986 -1.66353 3.19936 0
M  V30 2476 O 241.09 -2.77004 3.0552 0
M  V30 2477 H 240.431 -0.235454 0.620852 0
M  V30 2478 H 242.961 -0.107335 2.04318 0
M  V30 2479 H 242.971 -2.05372 3.52543 0
M  V30 2480 H 241.646 -1.01881 4.03228 0
M  V30 2481 H 240.223 -2.41221 2.84371 0
M  V30 2482 N 242.408 -1.52605 -0.393616 0
M  V30 2483 C 243.338 -1.80022 -1.48709 0
M  V30 2484 C 244.319 -0.651995 -1.57108 0
M  V30 2485 O 245.504 -0.89913 -1.72132 0
M  V30 2486 C 242.634 -1.96492 -2.86371 0
M  V30 2487 C 241.588 -3.12161 -2.92813 0
M  V30 2488 C 240.914 -3.13877 -4.3288 0
M  V30 2489 C 242.214 -4.51322 -2.6288 0
M  V30 2490 H 243.908 -2.71589 -1.26015 0
M  V30 2491 H 241.454 -1.30684 -0.604778 0
M  V30 2492 H 243.407 -2.14255 -3.62867 0
M  V30 2493 H 242.131 -1.01611 -3.10391 0
M  V30 2494 H 240.79 -2.94173 -2.18764 0
M  V30 2495 H 240.438 -2.16687 -4.53933 0
M  V30 2496 H 240.138 -3.91576 -4.38112 0
M  V30 2497 H 241.662 -3.33789 -5.1129 0
M  V30 2498 H 243.076 -4.69435 -3.29096 0
M  V30 2499 H 241.473 -5.31053 -2.79468 0
M  V30 2500 H 242.543 -4.58353 -1.58242 0
M  V30 2501 N 243.887 0.651787 -1.4349 0
M  V30 2502 C 245.112 1.44434 -1.48841 0
M  V30 2503 C 245.537 1.8779 -0.107955 0
M  V30 2504 O 244.895 1.57464 0.898602 0
M  V30 2505 C 244.943 2.65458 -2.44059 0
M  V30 2506 O 244.047 3.64566 -1.92784 0
M  V30 2507 H 243.388 0.433005 -0.503391 0
M  V30 2508 H 245.918 0.797451 -1.88419 0
M  V30 2509 H 245.928 3.13255 -2.6141 0
M  V30 2510 H 244.603 2.33244 -3.4434 0
M  V30 2511 H 243.18 3.23716 -1.851 0
M  V30 2512 N 245.365 1.30045 0.890287 0
M  V30 2513 C 246.611 1.18737 1.64406 0
M  V30 2514 C 246.944 -0.258525 1.92472 0
M  V30 2515 O 246.219 -1.18562 1.54186 0
M  V30 2516 C 246.502 2.01087 2.98724 0
M  V30 2517 C 246.355 3.53867 2.77665 0
M  V30 2518 C 247.674 1.84457 3.9958 0
M  V30 2519 H 244.793 0.432698 0.596608 0
M  V30 2520 H 247.435 1.5962 1.0306 0
M  V30 2521 H 245.585 1.66349 3.51084 0
M  V30 2522 H 247.257 3.98637 2.32133 0
M  V30 2523 H 245.5 3.78318 2.12269 0
M  V30 2524 H 246.171 4.06772 3.7315 0
M  V30 2525 H 248.647 2.14817 3.56361 0
M  V30 2526 H 247.523 2.44411 4.91482 0
M  V30 2527 H 247.784 0.802276 4.3476 0
M  V30 2528 N 246.843 -1.10192 1.12674 0
M  V30 2529 C 248.259 -1.34235 0.863317 0
M  V30 2530 C 248.459 -1.95062 -0.505277 0
M  V30 2531 O 247.515 -2.19192 -1.25345 0
M  V30 2532 C 248.828 -2.2616 1.98172 0
M  V30 2533 C 250.376 -2.3969 2.0129 0
M  V30 2534 C 250.851 -3.34946 3.1237 0
M  V30 2535 N 252.342 -3.42515 3.11829 0
M  V30 2536 C 253.077 -4.16199 3.94419 0
M  V30 2537 N 252.573 -4.92747 4.87004 0
M  V30 2538 N 254.366 -4.11843 3.82547 0
M  V30 2539 H 246.517 -0.690798 2.00853 0
M  V30 2540 H 248.78 -0.366774 0.874174 0
M  V30 2541 H 248.486 -1.8868 2.96804 0
M  V30 2542 H 248.36 -3.26488 1.88906 0
M  V30 2543 H 250.747 -2.76438 1.03276 0
M  V30 2544 H 250.828 -1.39169 2.14629 0
M  V30 2545 H 250.472 -2.98923 4.10619 0
M  V30 2546 H 250.402 -4.35353 2.96269 0
M  V30 2547 H 252.893 -2.87926 2.44759 0
M  V30 2548 H 253.206 -5.46376 5.46528 0
M  V30 2549 H 251.551 -4.91862 4.91016 0
M  V30 2550 H 254.742 -3.51136 3.0955 0
M  V30 2551 H 254.915 -4.69007 4.47142 0
M  V30 2552 N 248.321 -0.919034 -1.28029 0
M  V30 2553 C 249.598 -0.473668 -1.89778 0
M  V30 2554 C 249.978 1.04783 -1.83259 0
M  V30 2555 O 249.326 1.8982 -1.27202 0
M  V30 2556 C 249.536 -1.00998 -3.34066 0
M  V30 2557 C 250.884 -1.06525 -4.1102 0
M  V30 2558 O 251.908 -0.958996 -3.43048 0
M  V30 2559 O 250.767 -1.22776 -5.3253 0
M  V30 2560 H 247.861 -0.15098 -0.813101 0
M  V30 2561 H 250.407 -1.01016 -1.36359 0
M  V30 2562 H 249.179 -2.05392 -3.33061 0
M  V30 2563 H 248.802 -0.454626 -3.94992 0
M  V30 2564 N 249.799 1.42003 -0.683588 0
M  V30 2565 C 251.046 2.01413 -0.209514 0
M  V30 2566 C 251.374 1.54088 1.1869 0
M  V30 2567 O 250.629 0.737591 1.81268 0
M  V30 2568 C 250.928 3.56827 -0.202357 0
M  V30 2569 C 250.594 4.23617 -1.54464 0
M  V30 2570 C 249.256 4.41577 -1.91215 0
M  V30 2571 C 251.608 4.61178 -2.42826 0
M  V30 2572 C 248.936 4.9437 -3.15935 0
M  V30 2573 C 251.288 5.15355 -3.66867 0
M  V30 2574 C 249.952 5.31528 -4.03776 0
M  V30 2575 H 249.222 0.737023 -0.0766668 0
M  V30 2576 H 251.869 1.70067 -0.880312 0
M  V30 2577 H 250.174 3.87892 0.551969 0
M  V30 2578 H 251.871 4.00588 0.181793 0
M  V30 2579 H 248.461 4.10004 -1.24877 0
M  V30 2580 H 252.645 4.46968 -2.15717 0
M  V30 2581 H 247.901 5.05076 -3.44541 0
M  V30 2582 H 252.075 5.43402 -4.35531 0
M  V30 2583 H 249.702 5.72199 -5.00492 0
M  V30 2584 N 251.277 0.427512 1.51691 0
M  V30 2585 C 252.554 -0.201684 1.94557 0
M  V30 2586 C 252.934 -1.60981 1.36559 0
M  V30 2587 O 252.282 -2.21814 0.548702 0
M  V30 2588 C 252.492 -0.189394 3.48486 0
M  V30 2589 C 253.84 -0.39978 4.22714 0
M  V30 2590 O 254.864 -0.267945 3.55191 0
M  V30 2591 O 253.723 -0.661249 5.42485 0
M  V30 2592 H 250.817 -0.135261 0.815864 0
M  V30 2593 H 253.363 0.484782 1.62628 0
M  V30 2594 H 252.135 0.795431 3.8313 0
M  V30 2595 H 251.758 -0.919187 3.86829 0
M  V30 2596 N 252.755 -1.56801 0.158532 0
M  V30 2597 C 253.687 -2.14488 -0.807923 0
M  V30 2598 C 254.7 -1.09721 -1.20271 0
M  V30 2599 O 255.889 -1.36956 -1.14478 0
M  V30 2600 C 252.989 -2.66217 -2.09718 0
M  V30 2601 C 252.162 -3.95507 -1.86796 0
M  V30 2602 C 251.221 -4.3243 -2.99818 0
M  V30 2603 O 250.247 -5.00543 -2.71008 0
M  V30 2604 N 251.449 -3.92947 -4.27285 0
M  V30 2605 H 254.214 -2.98042 -0.314816 0
M  V30 2606 H 251.775 -1.61881 -0.0246692 0
M  V30 2607 H 253.767 -2.87924 -2.84398 0
M  V30 2608 H 252.337 -1.87324 -2.50257 0
M  V30 2609 H 251.557 -3.82309 -0.96089 0
M  V30 2610 H 252.845 -4.79972 -1.68833 0
M  V30 2611 H 252.243 -3.38087 -4.53557 0
M  V30 2612 H 250.8 -4.19681 -4.9871 0
M  V30 2613 N 254.233 0.115231 -1.57178 0
M  V30 2614 C 255.181 1.16014 -2.01602 0
M  V30 2615 C 256.175 1.42653 -0.913587 0
M  V30 2616 O 257.381 1.42571 -1.09879 0
M  V30 2617 H 253.756 0.391252 -0.642204 0
M  V30 2618 H 255.727 0.758998 -2.88586 0
M  V30 2619 C 254.476 2.47767 -2.4394 0
M  V30 2620 H 253.799 2.28108 -3.28339 0
M  V30 2621 H 255.239 3.19432 -2.78818 0
M  V30 2622 C 253.698 3.10617 -1.30455 0
M  V30 2623 O 254.228 3.96846 -0.622585 0
M  V30 2624 N 252.434 2.70553 -1.06064 0
M  V30 2625 H 251.981 2.00527 -1.61699 0
M  V30 2626 H 251.939 3.12934 -0.303284 0
M  V30 2627 N 255.711 1.52812 0.385517 0
M  V30 2628 C 256.643 1.74096 1.49074 0
M  V30 2629 C 257.656 0.621462 1.50472 0
M  V30 2630 O 258.845 0.897245 1.54311 0
M  V30 2631 C 255.945 1.78774 2.87911 0
M  V30 2632 C 255.118 3.08134 3.10439 0
M  V30 2633 C 254.177 3.04313 4.29278 0
M  V30 2634 O 253.203 3.78168 4.25415 0
M  V30 2635 N 254.405 2.23741 5.35649 0
M  V30 2636 H 257.17 2.69455 1.31202 0
M  V30 2637 H 254.731 1.51343 0.575065 0
M  V30 2638 H 256.723 1.73721 3.65518 0
M  V30 2639 H 255.293 0.907869 2.99126 0
M  V30 2640 H 254.513 3.26649 2.20667 0
M  V30 2641 H 255.801 3.93662 3.22347 0
M  V30 2642 H 255.199 1.63211 5.41645 0
M  V30 2643 H 253.756 2.24524 6.11909 0
M  V30 2644 N 257.189 -0.644168 1.43834 0
M  V30 2645 C 258.437 -1.40117 1.45642 0
M  V30 2646 C 258.758 -1.94814 0.0852413 0
M  V30 2647 O 258.028 -1.74988 -0.880688 0
M  V30 2648 H 256.608 -0.52005 0.536243 0
M  V30 2649 H 259.27 -0.7591 1.7951 0
M  V30 2650 H 258.366 -2.23902 2.17427 0
M  V30 2651 N 258.668 -1.30515 -0.883378 0
M  V30 2652 C 259.578 -1.18959 -2.02203 0
M  V30 2653 C 260.594 -0.109172 -1.73657 0
M  V30 2654 O 261.77 -0.324413 -1.9877 0
M  V30 2655 C 258.835 -0.883871 -3.35244 0
M  V30 2656 C 257.896 -2.04982 -3.77201 0
M  V30 2657 C 257.129 -1.75859 -5.03894 0
M  V30 2658 O 257.352 -0.687276 -5.66244 0
M  V30 2659 O 256.286 -2.61146 -5.42297 0
M  V30 2660 H 260.112 -2.14616 -2.1488 0
M  V30 2661 H 257.697 -1.10124 -1.0096 0
M  V30 2662 H 259.579 -0.728644 -4.15053 0
M  V30 2663 H 258.254 0.0427798 -3.23672 0
M  V30 2664 H 257.161 -2.26038 -2.9809 0
M  V30 2665 H 258.494 -2.95825 -3.93381 0
M  V30 2666 N 260.146 1.09593 -1.13257 0
M  V30 2667 C 261.392 1.82003 -0.89458 0
M  V30 2668 C 261.725 1.85402 0.577906 0
M  V30 2669 O 261 1.32099 1.42759 0
M  V30 2670 C 261.283 3.28237 -1.48096 0
M  V30 2671 C 261.136 3.3312 -3.02244 0
M  V30 2672 C 262.455 4.24871 -1.14774 0
M  V30 2673 H 259.574 0.66077 -0.326424 0
M  V30 2674 H 262.216 1.28389 -1.40058 0
M  V30 2675 H 260.366 3.74024 -1.05062 0
M  V30 2676 H 262.038 2.95748 -3.54021 0
M  V30 2677 H 260.281 2.72756 -3.37323 0
M  V30 2678 H 260.952 4.3613 -3.38371 0
M  V30 2679 H 263.428 3.87361 -1.51957 0
M  V30 2680 H 262.304 5.25532 -1.58452 0
M  V30 2681 H 262.565 4.42058 -0.0611849 0
M  V30 2682 N 261.624 0.925811 1.2754 0
M  V30 2683 C 262.87 0.566092 1.94739 0
M  V30 2684 C 263.203 -0.890057 1.72603 0
M  V30 2685 O 262.478 -1.63467 1.05399 0
M  V30 2686 C 262.761 0.89054 3.48915 0
M  V30 2687 C 262.614 2.4003 3.80402 0
M  V30 2688 C 263.933 0.395101 4.38323 0
M  V30 2689 H 261.052 0.20714 0.707292 0
M  V30 2690 H 263.694 1.15725 1.50691 0
M  V30 2691 H 261.844 0.387452 3.86563 0
M  V30 2692 H 263.516 2.97494 3.52555 0
M  V30 2693 H 261.759 2.85028 3.2702 0
M  V30 2694 H 262.43 2.57785 4.8811 0
M  V30 2695 H 264.906 0.826241 4.07814 0
M  V30 2696 H 263.782 0.651086 5.45025 0
M  V30 2697 H 264.043 -0.704798 4.36446 0
M  V30 2698 N 263.102 -1.41638 0.69111 0
M  V30 2699 C 264.049 -2.30789 0.0229705 0
M  V30 2700 C 265.019 -1.46863 -0.775911 0
M  V30 2701 O 266.204 -1.75661 -0.74485 0
M  V30 2702 C 263.344 -3.32868 -0.910666 0
M  V30 2703 C 262.457 -4.31875 -0.103874 0
M  V30 2704 C 261.592 -5.21024 -1.03475 0
M  V30 2705 C 260.631 -6.11702 -0.220598 0
M  V30 2706 N 259.768 -6.93349 -1.10504 0
M  V30 2707 H 264.608 -2.87366 0.788978 0
M  V30 2708 H 262.145 -1.41535 0.400794 0
M  V30 2709 H 264.103 -3.90596 -1.46597 0
M  V30 2710 H 262.733 -2.77851 -1.64312 0
M  V30 2711 H 261.785 -3.76131 0.568285 0
M  V30 2712 H 263.097 -4.96003 0.527504 0
M  V30 2713 H 262.251 -5.83565 -1.65943 0
M  V30 2714 H 260.99 -4.57112 -1.69999 0
M  V30 2715 H 259.995 -5.48215 0.417187 0
M  V30 2716 H 261.22 -6.77668 0.440784 0
M  V30 2717 H 259.166 -6.3205 -1.75638 0
M  V30 2718 H 259.083 -7.54146 -0.529125 0
M  V30 2719 H 260.351 -7.60362 -1.71667 0
M  V30 2720 N 264.58 -0.43555 -1.51462 0
M  V30 2721 C 265.53 0.394701 -2.24558 0
M  V30 2722 C 266.514 0.99157 -1.26715 0
M  V30 2723 O 267.706 0.910007 -1.51815 0
M  V30 2724 C 264.835 1.4963 -3.08975 0
M  V30 2725 C 263.921 0.908912 -4.14246 0
M  V30 2726 N 264.312 0.0505335 -5.05775 0
M  V30 2727 C 262.61 1.17668 -4.30198 0
M  V30 2728 C 263.311 -0.279161 -5.8103 0
M  V30 2729 N 262.287 0.336767 -5.42556 0
M  V30 2730 H 266.089 -0.267106 -2.92684 0
M  V30 2731 H 263.603 -0.247518 -1.60503 0
M  V30 2732 H 265.6 2.10394 -3.59917 0
M  V30 2733 H 264.26 2.16046 -2.42393 0
M  V30 2734 H 265.271 -0.31577 -5.16936 0
M  V30 2735 H 261.948 1.83847 -3.74842 0
M  V30 2736 H 263.338 -0.977553 -6.64751 0
M  V30 2737 N 266.058 1.56714 -0.166846 0
M  V30 2738 C 267.288 2.00828 0.48494 0
M  V30 2739 C 267.696 1.04612 1.57648 0
M  V30 2740 O 267.039 0.0383201 1.8366 0
M  V30 2741 C 267.101 3.4137 1.12723 0
M  V30 2742 C 266.765 4.56654 0.177886 0
M  V30 2743 C 267.762 5.16402 -0.60207 0
M  V30 2744 C 265.447 5.02244 0.0750139 0
M  V30 2745 C 267.441 6.20167 -1.47215 0
M  V30 2746 C 265.128 6.05859 -0.798649 0
M  V30 2747 C 266.126 6.64691 -1.57082 0
M  V30 2748 O 265.814 7.66297 -2.42989 0
M  V30 2749 H 265.546 0.663587 0.128953 0
M  V30 2750 H 268.1 2.03692 -0.264365 0
M  V30 2751 H 266.33 3.35406 1.92457 0
M  V30 2752 H 268.019 3.69466 1.68076 0
M  V30 2753 H 268.785 4.82065 -0.53274 0
M  V30 2754 H 264.664 4.56167 0.665812 0
M  V30 2755 H 268.208 6.66016 -2.07531 0
M  V30 2756 H 264.105 6.39621 -0.869199 0
M  V30 2757 H 264.873 7.83601 -2.36455 0
M  V30 2758 N 267.536 -0.106894 1.57237 0
M  V30 2759 C 268.483 -1.13049 2.01217 0
M  V30 2760 C 269.453 -1.40471 0.886403 0
M  V30 2761 O 270.638 -1.52133 1.15153 0
M  V30 2762 C 267.778 -2.4487 2.43172 0
M  V30 2763 C 266.891 -2.24281 3.69218 0
M  V30 2764 C 266.026 -3.49417 4.00101 0
M  V30 2765 C 265.065 -3.24038 5.19294 0
M  V30 2766 N 264.202 -4.41409 5.45988 0
M  V30 2767 H 269.042 -0.748456 2.88448 0
M  V30 2768 H 266.579 -0.358054 1.42676 0
M  V30 2769 H 268.537 -3.21786 2.65537 0
M  V30 2770 H 267.167 -2.80944 1.58967 0
M  V30 2771 H 266.219 -1.38224 3.54398 0
M  V30 2772 H 267.531 -2.01512 4.56283 0
M  V30 2773 H 266.685 -4.34746 4.2318 0
M  V30 2774 H 265.424 -3.75229 3.11535 0
M  V30 2775 H 264.429 -2.37102 4.96047 0
M  V30 2776 H 265.654 -2.99584 6.09447 0
M  V30 2777 H 263.6 -4.67319 4.60379 0
M  V30 2778 H 263.517 -4.21788 6.274 0
M  V30 2779 H 264.785 -5.27836 5.73593 0
M  V30 2780 N 269.014 -1.53014 -0.377408 0
M  V30 2781 C 270.263 -1.67845 -1.11853 0
M  V30 2782 C 270.576 -0.430625 -1.90801 0
M  V30 2783 O 271.782 -0.459261 -2.67587 0
M  V30 2784 C 270.238 -2.96668 -2.03756 0
M  V30 2785 C 269.846 -4.28671 -1.30175 0
M  V30 2786 C 271.59 -3.20865 -2.77932 0
M  V30 2787 C 269.497 -5.48591 -2.20911 0
M  V30 2788 H 268.427 -0.625343 -0.421263 0
M  V30 2789 H 271.078 -1.79514 -0.380409 0
M  V30 2790 H 269.46 -2.78773 -2.8125 0
M  V30 2791 H 270.634 -4.57157 -0.578259 0
M  V30 2792 H 268.949 -4.10825 -0.679108 0
M  V30 2793 H 271.546 -4.07642 -3.46024 0
M  V30 2794 H 271.889 -2.36424 -3.4265 0
M  V30 2795 H 272.422 -3.39379 -2.07525 0
M  V30 2796 H 269.161 -6.35474 -1.6079 0
M  V30 2797 H 268.681 -5.244 -2.91144 0
M  V30 2798 H 270.36 -5.8292 -2.80736 0
M  V30 2799 N 270.492 0.636531 -1.44174 0
M  V30 2800 C 271.908 0.954104 -1.27941 0
M  V30 2801 C 272.108 2.0039 -0.211248 0
M  V30 2802 O 271.164 2.49236 0.404695 0
M  V30 2803 C 272.477 1.4225 -2.64925 0
M  V30 2804 C 274.025 1.53827 -2.72592 0
M  V30 2805 C 274.5 2.04053 -4.10032 0
M  V30 2806 N 275.991 2.11331 -4.12182 0
M  V30 2807 C 276.726 2.51352 -5.15374 0
M  V30 2808 N 276.222 2.90549 -6.2893 0
M  V30 2809 N 278.015 2.51438 -5.02728 0
M  V30 2810 H 270.166 -0.0578386 -2.12321 0
M  V30 2811 H 272.429 0.0367406 -0.947288 0
M  V30 2812 H 272.135 0.725466 -3.44136 0
M  V30 2813 H 272.009 2.39451 -2.9145 0
M  V30 2814 H 274.396 2.22628 -1.93702 0
M  V30 2815 H 274.477 0.550154 -2.49814 0
M  V30 2816 H 274.121 1.35848 -4.89395 0
M  V30 2817 H 274.051 3.03726 -4.30184 0
M  V30 2818 H 276.542 1.83745 -3.30222 0
M  V30 2819 H 276.855 3.19884 -7.03487 0
M  V30 2820 H 275.2 2.88313 -6.32377 0
M  V30 2821 H 278.391 2.20203 -4.13072 0
M  V30 2822 H 278.564 2.82304 -5.83274 0
M  V30 2823 N 271.97 1.30982 0.876444 0
M  V30 2824 C 272.918 1.18006 2.00443 0
M  V30 2825 C 273.912 0.0898871 1.69161 0
M  V30 2826 O 275.118 0.251333 1.78237 0
M  V30 2827 H 271.493 0.365196 0.65737 0
M  V30 2828 H 273.464 2.13453 2.0852 0
M  V30 2829 C 272.213 0.897521 3.35916 0
M  V30 2830 H 271.536 1.7285 3.60504 0
M  V30 2831 H 272.976 0.846874 4.15456 0
M  V30 2832 C 271.435 -0.399674 3.34521 0
M  V30 2833 O 271.965 -1.41852 3.7582 0
M  V30 2834 N 270.171 -0.413893 2.87637 0
M  V30 2835 H 269.718 0.41571 2.54224 0
M  V30 2836 H 269.676 -1.28175 2.87086 0
M  V30 2837 N 273.449 -1.08991 1.13837 0
M  V30 2838 C 274.379 -2.17771 0.842507 0
M  V30 2839 C 275.36 -1.6892 -0.20001 0
M  V30 2840 O 276.545 -1.94113 -0.0579731 0
M  V30 2841 C 273.675 -3.4589 0.312644 0
M  V30 2842 C 272.629 -4.08099 1.28992 0
M  V30 2843 C 271.955 -5.31098 0.619623 0
M  V30 2844 C 273.255 -4.50077 2.65005 0
M  V30 2845 H 274.949 -2.42777 1.75213 0
M  V30 2846 H 272.495 -1.16682 0.843875 0
M  V30 2847 H 274.448 -4.21297 0.0933043 0
M  V30 2848 H 273.172 -3.20419 -0.632382 0
M  V30 2849 H 271.831 -3.34717 1.49533 0
M  V30 2850 H 271.479 -5.0191 -0.33102 0
M  V30 2851 H 271.179 -5.73674 1.27167 0
M  V30 2852 H 272.703 -6.09224 0.409669 0
M  V30 2853 H 274.117 -5.16688 2.48407 0
M  V30 2854 H 272.514 -5.03553 3.26427 0
M  V30 2855 H 273.584 -3.62257 3.22332 0
M  V30 2856 N 274.927 -0.932562 -1.27047 0
M  V30 2857 C 276.204 -0.49377 -1.89265 0
M  V30 2858 C 276.584 1.02833 -1.8436 0
M  V30 2859 O 275.932 1.88461 -1.29209 0
M  V30 2860 C 276.142 -1.04536 -3.32976 0
M  V30 2861 C 277.49 -1.10879 -4.09867 0
M  V30 2862 O 278.514 -0.995327 -3.42011 0
M  V30 2863 O 277.373 -1.28417 -5.31198 0
M  V30 2864 H 274.467 -0.159596 -0.811454 0
M  V30 2865 H 277.013 -1.02457 -1.3528 0
M  V30 2866 H 275.785 -2.08913 -3.30864 0
M  V30 2867 H 275.408 -0.496494 -3.94488 0
M  V30 2868 N 276.405 1.4127 -0.698611 0
M  V30 2869 C 277.353 2.32588 -0.023855 0
M  V30 2870 C 278.347 1.51128 0.765292 0
M  V30 2871 O 279.553 1.67043 0.670571 0
M  V30 2872 H 275.928 0.751918 0.0110871 0
M  V30 2873 H 277.899 2.87167 -0.811031 0
M  V30 2874 C 276.648 3.35947 0.896369 0
M  V30 2875 H 275.971 3.98684 0.298548 0
M  V30 2876 H 277.411 4.02376 1.33676 0
M  V30 2877 C 275.87 2.70076 2.01396 0
M  V30 2878 O 276.4 2.55093 3.10307 0
M  V30 2879 N 274.606 2.28724 1.79259 0
M  V30 2880 H 274.153 2.4111 0.906841 0
M  V30 2881 H 274.111 1.84986 2.54219 0
M  V30 2882 N 277.883 0.443576 1.51229 0
M  V30 2883 C 279.131 -0.120557 2.0174 0
M  V30 2884 C 279.452 -1.42665 1.32935 0
M  V30 2885 O 278.722 -1.9028 0.465866 0
M  V30 2886 H 277.302 -0.0475426 0.745486 0
M  V30 2887 H 279.964 0.587711 1.85828 0
M  V30 2888 H 279.06 -0.291972 3.10731 0
M  V30 2889 N 279.361 -1.56624 0.175154 0
M  V30 2890 C 280.609 -1.96609 -0.467885 0
M  V30 2891 C 280.93 -1.06238 -1.63519 0
M  V30 2892 O 280.2 -0.129523 -1.95471 0
M  V30 2893 H 278.78 -0.726008 -0.175845 0
M  V30 2894 H 281.442 -1.93195 0.257234 0
M  V30 2895 H 280.538 -3.00989 -0.825342 0
M  V30 2896 N 280.839 0.0985539 -1.57292 0
M  V30 2897 C 282.086 0.802678 -1.85912 0
M  V30 2898 C 282.414 1.78901 -0.763186 0
M  V30 2899 O 281.669 1.94178 0.243559 0
M  V30 2900 C 281.968 1.56927 -3.21105 0
M  V30 2901 C 281.634 0.725376 -4.45027 0
M  V30 2902 C 280.296 0.492726 -4.78671 0
M  V30 2903 C 282.648 0.138493 -5.21016 0
M  V30 2904 C 279.976 -0.336727 -5.85733 0
M  V30 2905 C 282.328 -0.678264 -6.28953 0
M  V30 2906 C 280.992 -0.921039 -6.61115 0
M  V30 2907 H 280.262 0.293721 -0.680301 0
M  V30 2908 H 282.909 0.0642841 -1.91392 0
M  V30 2909 H 281.214 2.37914 -3.11294 0
M  V30 2910 H 282.911 2.11841 -3.40477 0
M  V30 2911 H 279.501 0.916815 -4.18679 0
M  V30 2912 H 283.685 0.305404 -4.95359 0
M  V30 2913 H 278.941 -0.533836 -6.09065 0
M  V30 2914 H 283.115 -1.1399 -6.87007 0
M  V30 2915 H 280.742 -1.56556 -7.43905 0
M  V30 2916 N 282.317 1.53212 0.369288 0
M  V30 2917 C 283.547 1.72868 1.13139 0
M  V30 2918 C 283.955 0.455754 1.83629 0
M  V30 2919 O 283.298 -0.580861 1.74275 0
M  V30 2920 C 283.36 2.83667 2.20847 0
M  V30 2921 C 283.024 4.24142 1.70155 0
M  V30 2922 C 284.021 5.06619 1.16763 0
M  V30 2923 C 281.706 4.70539 1.7578 0
M  V30 2924 C 283.7 6.33581 0.696678 0
M  V30 2925 C 281.387 5.97481 1.28297 0
M  V30 2926 C 282.385 6.78833 0.753307 0
M  V30 2927 O 282.073 8.03393 0.285475 0
M  V30 2928 H 281.805 0.581707 0.344373 0
M  V30 2929 H 284.359 2.00736 0.435243 0
M  V30 2930 H 282.589 2.51265 2.93944 0
M  V30 2931 H 284.278 2.91536 2.82421 0
M  V30 2932 H 285.044 4.71948 1.11758 0
M  V30 2933 H 280.923 4.07293 2.15949 0
M  V30 2934 H 284.467 6.97027 0.282581 0
M  V30 2935 H 280.364 6.31651 1.32994 0
M  V30 2936 H 281.132 8.17497 0.405145 0
M  V30 2937 N 283.795 -0.628877 1.44509 0
M  V30 2938 C 285.044 -1.38437 1.4669 0
M  V30 2939 C 285.357 -1.95322 0.104272 0
M  V30 2940 O 286.563 -2.715 0.00362163 0
M  V30 2941 C 285.019 -2.50659 2.5826 0
M  V30 2942 C 284.627 -2.00277 4.0074 0
M  V30 2943 C 286.371 -3.27844 2.69664 0
M  V30 2944 C 284.278 -3.09854 5.0373 0
M  V30 2945 H 283.208 -0.520245 0.545766 0
M  V30 2946 H 285.859 -0.676313 1.70582 0
M  V30 2947 H 284.241 -3.2405 2.27612 0
M  V30 2948 H 285.415 -1.33736 4.40966 0
M  V30 2949 H 283.73 -1.35901 3.93599 0
M  V30 2950 H 286.327 -4.09534 3.43781 0
M  V30 2951 H 286.67 -3.77471 1.75559 0
M  V30 2952 H 287.203 -2.61543 2.99733 0
M  V30 2953 H 283.942 -2.65168 5.99472 0
M  V30 2954 H 283.462 -3.7503 4.68095 0
M  V30 2955 H 285.141 -3.74592 5.27532 0
M  V30 2956 N 285.273 -1.31445 -0.869486 0
M  V30 2957 C 286.498 -1.24256 -1.66058 0
M  V30 2958 C 286.923 0.188928 -1.87149 0
M  V30 2959 O 286.281 1.13522 -1.4136 0
M  V30 2960 C 286.329 -1.9924 -3.00559 0
M  V30 2961 O 285.433 -1.33007 -3.90362 0
M  V30 2962 H 284.774 -0.428973 -0.506831 0
M  V30 2963 H 287.304 -1.73521 -1.08404 0
M  V30 2964 H 287.314 -2.08854 -3.50491 0
M  V30 2965 H 285.989 -3.03342 -2.84528 0
M  V30 2966 H 284.566 -1.31848 -3.48813 0
M  V30 2967 N 286.751 1.08385 -1.14413 0
M  V30 2968 C 288.162 1.62258 -0.923535 0
M  V30 2969 C 288.513 1.88691 0.537595 0
M  V30 2970 O 287.638 1.64454 1.40655 0
M  V30 2971 C 288.233 2.94781 -1.67002 0
M  V30 2972 C 286.792 3.45437 -1.495 0
M  V30 2973 C 285.939 2.19668 -1.69238 0
M  V30 2974 H 288.89 0.916086 -1.2959 0
M  V30 2975 H 288.911 3.63229 -1.13334 0
M  V30 2976 H 288.423 2.7551 -2.73342 0
M  V30 2977 H 286.524 3.6981 -0.455097 0
M  V30 2978 H 286.637 4.22173 -2.2651 0
M  V30 2979 H 285.001 2.28849 -1.11804 0
M  V30 2980 H 285.784 2.02905 -2.7692 0
M  V30 2981 N 288.23 0.939286 1.26551 0
M  V30 2982 C 289.646 0.641304 1.46149 0
M  V30 2983 C 289.846 -0.805964 1.84679 0
M  V30 2984 O 288.902 -1.58278 1.96734 0
M  V30 2985 C 290.215 1.6011 2.54529 0
M  V30 2986 C 291.763 1.6106 2.68382 0
M  V30 2987 C 292.238 2.55765 3.79932 0
M  V30 2988 N 293.729 2.5404 3.87322 0
M  V30 2989 C 294.464 3.24004 4.73085 0
M  V30 2990 N 293.96 4.03388 5.63249 0
M  V30 2991 N 295.753 3.12965 4.66914 0
M  V30 2992 H 287.904 1.87478 0.998285 0
M  V30 2993 H 290.167 0.805559 0.499779 0
M  V30 2994 H 289.873 2.63412 2.33039 0
M  V30 2995 H 289.747 1.35171 3.52149 0
M  V30 2996 H 292.134 0.584835 2.89247 0
M  V30 2997 H 292.215 1.90053 1.71212 0
M  V30 2998 H 291.859 3.58458 3.5982 0
M  V30 2999 H 291.789 2.24063 4.76554 0
M  V30 3000 H 294.28 1.96396 3.22858 0
M  V30 3001 H 294.593 4.5373 6.25579 0
M  V30 3002 H 292.938 4.07489 5.63008 0
M  V30 3003 H 296.129 2.50432 3.95476 0
M  V30 3004 H 296.302 3.67759 5.33533 0
M  V30 3005 N 289.708 -1.40897 0.706093 0
M  V30 3006 C 290.957 -2.00284 0.238574 0
M  V30 3007 C 291.27 -1.56604 -1.17194 0
M  V30 3008 O 292.476 -2.08624 -1.73748 0
M  V30 3009 C 290.932 -3.57934 0.375623 0
M  V30 3010 C 290.54 -4.10591 1.79217 0
M  V30 3011 C 292.284 -4.24488 -0.0315857 0
M  V30 3012 C 290.191 -5.60712 1.88032 0
M  V30 3013 H 289.121 -0.749144 0.0854398 0
M  V30 3014 H 291.772 -1.61251 0.875813 0
M  V30 3015 H 290.154 -3.94622 -0.330042 0
M  V30 3016 H 291.328 -3.85301 2.52745 0
M  V30 3017 H 289.643 -3.56601 2.15 0
M  V30 3018 H 292.24 -5.34698 0.0136842 0
M  V30 3019 H 292.583 -4.02261 -1.072 0
M  V30 3020 H 293.116 -3.92873 0.624181 0
M  V30 3021 H 289.855 -5.87781 2.90161 0
M  V30 3022 H 289.375 -5.87896 1.18903 0
M  V30 3023 H 291.054 -6.25658 1.64805 0
M  V30 3024 N 291.186 -0.45159 -1.50991 0
M  V30 3025 C 292.414 0.108334 -2.06616 0
M  V30 3026 C 292.829 1.35224 -1.31757 0
M  V30 3027 O 292.186 1.78475 -0.381174 0
M  V30 3028 C 292.237 0.41619 -3.59096 0
M  V30 3029 O 291.958 -0.778361 -4.3113 0
M  V30 3030 C 293.459 1.02523 -4.31282 0
M  V30 3031 H 290.679 0.00159995 -0.670998 0
M  V30 3032 H 293.223 -0.634771 -1.94399 0
M  V30 3033 H 291.378 1.10921 -3.71181 0
M  V30 3034 H 291.792 -0.511181 -5.22003 0
M  V30 3035 H 293.266 1.19053 -5.39009 0
M  V30 3036 H 293.743 2.01013 -3.905 0
M  V30 3037 H 294.349 0.371173 -4.23677 0
M  V30 3038 N 292.664 1.56529 -0.183458 0
M  V30 3039 C 293.911 1.97244 0.458357 0
M  V30 3040 C 294.239 1.06992 1.62428 0
M  V30 3041 O 293.494 0.106542 1.9541 0
M  V30 3042 C 293.793 3.43939 0.971637 0
M  V30 3043 C 293.459 4.5083 -0.0796784 0
M  V30 3044 C 292.121 4.79786 -0.368584 0
M  V30 3045 C 294.473 5.15138 -0.792638 0
M  V30 3046 C 291.801 5.70345 -1.37563 0
M  V30 3047 C 294.153 6.06784 -1.78875 0
M  V30 3048 C 292.817 6.34102 -2.08497 0
M  V30 3049 H 292.087 0.721768 0.167725 0
M  V30 3050 H 294.734 1.89472 -0.277976 0
M  V30 3051 H 293.039 3.48724 1.78602 0
M  V30 3052 H 294.736 3.72791 1.47744 0
M  V30 3053 H 291.326 4.28317 0.155668 0
M  V30 3054 H 295.51 4.92868 -0.582659 0
M  V30 3055 H 290.766 5.89789 -1.61118 0
M  V30 3056 H 294.94 6.55677 -2.3465 0
M  V30 3057 H 292.567 7.04074 -2.86678 0
M  V30 3058 N 294.142 -0.090211 1.57342 0
M  V30 3059 C 295.553 -0.644173 1.75235 0
M  V30 3060 C 295.904 -1.78865 0.806335 0
M  V30 3061 O 295.029 -2.16395 -0.0140128 0
M  V30 3062 C 295.624 -1.17532 3.1776 0
M  V30 3063 C 294.183 -1.67531 3.37061 0
M  V30 3064 C 293.33 -0.58693 2.71017 0
M  V30 3065 H 296.281 0.135884 1.58117 0
M  V30 3066 H 296.302 -2.04455 3.20902 0
M  V30 3067 H 295.814 -0.342138 3.86589 0
M  V30 3068 H 293.915 -2.53234 2.73319 0
M  V30 3069 H 294.028 -1.76493 4.45406 0
M  V30 3070 H 292.392 -1.02756 2.33052 0
M  V30 3071 H 293.175 0.235758 3.4249 0
M  V30 3072 N 295.62 -1.53406 -0.361157 0
M  V30 3073 C 296.868 -1.69467 -1.10115 0
M  V30 3074 C 297.189 -0.451352 -1.89705 0
M  V30 3075 O 296.459 0.534636 -1.88463 0
M  V30 3076 H 295.039 -0.624749 -0.409508 0
M  V30 3077 H 297.701 -1.90609 -0.406699 0
M  V30 3078 H 296.797 -2.55774 -1.78847 0
M  V30 3079 N 297.098 0.621204 -1.44841 0
M  V30 3080 C 298.028 1.74366 -1.55303 0
M  V30 3081 C 299.009 1.65199 -0.405385 0
M  V30 3082 O 300.194 1.83807 -0.626787 0
M  V30 3083 C 297.324 3.12931 -1.50637 0
M  V30 3084 C 296.278 3.36896 -2.63979 0
M  V30 3085 C 295.604 4.75594 -2.44366 0
M  V30 3086 C 296.904 3.28483 -4.06074 0
M  V30 3087 H 298.598 1.65867 -2.49256 0
M  V30 3088 H 296.144 0.796558 -1.19962 0
M  V30 3089 H 298.097 3.9124 -1.56555 0
M  V30 3090 H 296.821 3.22237 -0.532057 0
M  V30 3091 H 295.48 2.60972 -2.57467 0
M  V30 3092 H 295.128 4.81616 -1.45105 0
M  V30 3093 H 294.828 4.92586 -3.20364 0
M  V30 3094 H 296.352 5.5612 -2.52117 0
M  V30 3095 H 297.766 3.96684 -4.13902 0
M  V30 3096 H 296.163 3.57008 -4.82354 0
M  V30 3097 H 297.233 2.26133 -4.28943 0
M  V30 3098 N 298.576 1.31904 0.862503 0
M  V30 3099 C 299.526 1.16772 1.95827 0
M  V30 3100 C 300.51 0.0767098 1.60717 0
M  V30 3101 O 301.702 0.302407 1.74398 0
M  V30 3102 C 298.831 0.884858 3.317 0
M  V30 3103 C 297.917 2.0172 3.73055 0
M  V30 3104 N 298.308 3.265 3.86305 0
M  V30 3105 C 296.606 1.91861 4.02623 0
M  V30 3106 C 297.307 4.00616 4.2176 0
M  V30 3107 N 296.283 3.28847 4.32852 0
M  V30 3108 H 300.085 2.11382 2.04193 0
M  V30 3109 H 297.599 1.2357 1.05377 0
M  V30 3110 H 299.596 0.757419 4.09962 0
M  V30 3111 H 298.256 -0.0529448 3.24657 0
M  V30 3112 H 299.267 3.61529 3.70833 0
M  V30 3113 H 295.944 1.05593 4.03926 0
M  V30 3114 H 297.334 5.08182 4.39546 0
M  V30 3115 N 300.054 -1.07777 1.14986 0
M  V30 3116 C 300.964 -2.18404 0.856546 0
M  V30 3117 C 301.98 -1.73211 -0.165485 0
M  V30 3118 O 303.156 -2.01399 0.00755219 0
M  V30 3119 C 300.221 -3.44977 0.34526 0
M  V30 3120 C 299.282 -4.0476 1.43065 0
M  V30 3121 C 298.515 -5.25291 0.943663 0
M  V30 3122 O 298.738 -5.70004 -0.212426 0
M  V30 3123 O 297.672 -5.76638 1.72547 0
M  V30 3124 H 301.498 -2.45978 1.78125 0
M  V30 3125 H 299.083 -1.17033 0.928631 0
M  V30 3126 H 300.965 -4.21348 0.0663671 0
M  V30 3127 H 299.64 -3.18965 -0.551631 0
M  V30 3128 H 298.547 -3.29949 1.76309 0
M  V30 3129 H 299.88 -4.35035 2.30229 0
M  V30 3130 N 301.532 -0.945985 -1.26051 0
M  V30 3131 C 302.462 -0.477172 -2.28572 0
M  V30 3132 C 303.443 0.472032 -1.63419 0
M  V30 3133 O 304.628 0.372853 -1.90587 0
M  V30 3134 C 301.758 0.253975 -3.4637 0
M  V30 3135 C 300.712 -0.609135 -4.23643 0
M  V30 3136 C 300.038 0.252252 -5.34105 0
M  V30 3137 C 301.338 -1.8829 -4.8718 0
M  V30 3138 H 303.032 -1.33402 -2.68038 0
M  V30 3139 H 300.578 -0.642904 -1.28852 0
M  V30 3140 H 302.531 0.593016 -4.17207 0
M  V30 3141 H 301.255 1.145 -3.05871 0
M  V30 3142 H 299.914 -0.931138 -3.54578 0
M  V30 3143 H 299.562 1.14278 -4.89846 0
M  V30 3144 H 299.262 -0.32188 -5.86718 0
M  V30 3145 H 300.786 0.586454 -6.07777 0
M  V30 3146 H 302.2 -1.61081 -5.50205 0
M  V30 3147 H 300.597 -2.40199 -5.49931 0
M  V30 3148 H 301.667 -2.59134 -4.09851 0
M  V30 3149 N 303.011 1.40521 -0.713556 0
M  V30 3150 C 304.257 2.01221 -0.252564 0
M  V30 3151 C 304.59 1.56444 1.1506 0
M  V30 3152 O 303.865 0.783597 1.78017 0
M  V30 3153 C 304.148 3.58582 -0.330332 0
M  V30 3154 C 304.001 4.13437 -1.77173 0
M  V30 3155 C 305.32 4.39079 0.299641 0
M  V30 3156 H 302.439 0.731077 -0.0932471 0
M  V30 3157 H 305.081 1.67026 -0.905673 0
M  V30 3158 H 303.231 3.87844 0.225737 0
M  V30 3159 H 304.903 3.9498 -2.38303 0
M  V30 3160 H 303.146 3.67801 -2.3001 0
M  V30 3161 H 303.817 5.22597 -1.77755 0
M  V30 3162 H 306.293 4.15735 -0.174139 0
M  V30 3163 H 305.169 5.4848 0.214771 0
M  V30 3164 H 305.43 4.19915 1.38288 0
M  V30 3165 N 304.489 0.459591 1.5075 0
M  V30 3166 C 305.905 0.113092 1.59199 0
M  V30 3167 C 306.105 -1.37951 1.46874 0
M  V30 3168 O 305.161 -2.15168 1.32132 0
M  V30 3169 C 306.474 0.653043 2.93523 0
M  V30 3170 C 308.022 0.615449 3.0689 0
M  V30 3171 C 308.497 1.13275 4.43771 0
M  V30 3172 N 309.988 1.09167 4.50152 0
M  V30 3173 C 310.723 1.46256 5.54434 0
M  V30 3174 N 310.219 1.90739 6.66026 0
M  V30 3175 N 312.012 1.37932 5.44914 0
M  V30 3176 H 304.163 1.43049 1.57005 0
M  V30 3177 H 306.426 0.590861 0.741341 0
M  V30 3178 H 306.132 1.69822 3.07983 0
M  V30 3179 H 306.006 0.0902132 3.77092 0
M  V30 3180 H 308.393 -0.420793 2.92084 0
M  V30 3181 H 308.474 1.21495 2.25106 0
M  V30 3182 H 308.118 2.16757 4.59324 0
M  V30 3183 H 308.048 0.509576 5.24129 0
M  V30 3184 H 310.539 0.76528 3.7007 0
M  V30 3185 H 310.852 2.17218 7.41644 0
M  V30 3186 H 309.197 1.94683 6.67176 0
M  V30 3187 H 312.388 1.0303 4.56621 0
M  V30 3188 H 312.561 1.67164 6.26067 0
M  V30 3189 N 305.967 -1.56429 0.191757 0
M  V30 3190 C 306.917 -2.15548 -0.743184 0
M  V30 3191 C 307.901 -1.09531 -1.17863 0
M  V30 3192 O 309.093 -1.35602 -1.13759 0
M  V30 3193 C 306.222 -2.81577 -1.96391 0
M  V30 3194 C 305.308 -3.9478 -1.54951 0
M  V30 3195 N 305.699 -4.98677 -0.845876 0
M  V30 3196 C 303.997 -4.06319 -1.83905 0
M  V30 3197 C 304.698 -5.78183 -0.638724 0
M  V30 3198 N 303.674 -5.30495 -1.18643 0
M  V30 3199 H 307.476 -2.9324 -0.196839 0
M  V30 3200 H 304.99 -1.62398 -0.0081603 0
M  V30 3201 H 306.987 -3.22321 -2.64415 0
M  V30 3202 H 305.647 -2.05371 -2.51501 0
M  V30 3203 H 306.658 -5.15464 -0.501704 0
M  V30 3204 H 303.335 -3.41238 -2.40548 0
M  V30 3205 H 304.725 -6.71851 -0.0807929 0
M  V30 3206 N 307.445 0.0818655 -1.57387 0
M  V30 3207 C 308.675 0.794954 -1.90694 0
M  V30 3208 C 309.083 1.72147 -0.784982 0
M  V30 3209 O 308.426 1.81974 0.251196 0
M  V30 3210 C 308.488 1.65042 -3.19376 0
M  V30 3211 C 308.152 0.894337 -4.48164 0
M  V30 3212 C 309.149 0.21813 -5.19442 0
M  V30 3213 C 306.834 0.864495 -4.94805 0
M  V30 3214 C 308.828 -0.477802 -6.35607 0
M  V30 3215 C 306.515 0.164785 -6.10878 0
M  V30 3216 C 307.513 -0.505173 -6.81129 0
M  V30 3217 O 307.201 -1.19363 -7.94989 0
M  V30 3218 H 306.933 0.231779 -0.635023 0
M  V30 3219 H 309.487 0.059493 -2.05314 0
M  V30 3220 H 307.717 2.42844 -3.00938 0
M  V30 3221 H 309.406 2.24127 -3.38411 0
M  V30 3222 H 310.172 0.232558 -4.84442 0
M  V30 3223 H 306.051 1.37542 -4.40004 0
M  V30 3224 H 309.595 -1.00129 -6.90377 0
M  V30 3225 H 305.492 0.148249 -6.4533 0
M  V30 3226 H 306.26 -1.10188 -8.11049 0
M  V30 3227 N 308.923 1.53595 0.353017 0
M  V30 3228 C 310.151 1.74311 1.1146 0
M  V30 3229 C 310.566 0.477854 1.82653 0
M  V30 3230 O 309.923 -0.549977 1.74016 0
M  V30 3231 C 309.974 2.91694 2.13534 0
M  V30 3232 O 309.695 4.13325 1.45238 0
M  V30 3233 C 311.196 3.24384 3.02142 0
M  V30 3234 H 308.416 0.582669 0.332773 0
M  V30 3235 H 310.96 2.00386 0.408107 0
M  V30 3236 H 309.115 2.67977 2.79763 0
M  V30 3237 H 309.529 4.79148 2.13349 0
M  V30 3238 H 311.003 4.09893 3.69718 0
M  V30 3239 H 311.48 2.40282 3.67643 0
M  V30 3240 H 312.086 3.50073 2.41514 0
M  V30 3241 N 310.401 -0.613514 1.45168 0
M  V30 3242 C 311.349 -1.74572 1.53712 0
M  V30 3243 C 312.343 -1.64426 0.407505 0
M  V30 3244 O 313.549 -1.70291 0.583176 0
M  V30 3245 H 309.924 -0.576641 0.48269 0
M  V30 3246 H 311.895 -1.64492 2.48968 0
M  V30 3247 C 310.644 -3.12943 1.51532 0
M  V30 3248 H 309.967 -3.21407 2.37776 0
M  V30 3249 H 311.407 -3.9201 1.61569 0
M  V30 3250 C 309.866 -3.36053 0.238798 0
M  V30 3251 O 310.396 -3.95837 -0.6838 0
M  V30 3252 N 308.602 -2.9028 0.136359 0
M  V30 3253 H 308.149 -2.41811 0.887999 0
M  V30 3254 H 308.107 -3.06116 -0.716944 0
M  V30 3255 N 311.879 -1.3236 -0.855495 0
M  V30 3256 C 312.842 -1.21164 -1.94556 0
M  V30 3257 C 313.842 -0.134908 -1.60233 0
M  V30 3258 O 315.032 -0.385249 -1.69887 0
M  V30 3259 C 312.164 -0.863192 -3.29791 0
M  V30 3260 H 313.357 -2.18038 -2.05911 0
M  V30 3261 H 310.91 -1.16179 -1.04557 0
M  V30 3262 H 311.645 0.103769 -3.24134 0
M  V30 3263 H 311.43 -1.64166 -3.56078 0
M  V30 3264 H 312.92 -0.809156 -4.09686 0
M  V30 3265 N 313.357 1.07166 -1.15556 0
M  V30 3266 C 314.582 1.84053 -0.955988 0
M  V30 3267 C 315.007 1.81586 0.490739 0
M  V30 3268 O 314.365 1.21018 1.34997 0
M  V30 3269 C 314.413 3.28957 -1.47714 0
M  V30 3270 O 313.517 4.06795 -0.677593 0
M  V30 3271 H 312.858 0.569842 -0.340847 0
M  V30 3272 H 315.388 1.35178 -1.53584 0
M  V30 3273 H 315.398 3.79788 -1.4908 0
M  V30 3274 H 314.073 3.30068 -2.53037 0
M  V30 3275 H 312.65 3.6561 -0.733721 0
M  V30 3276 N 314.835 0.952656 1.25548 0
M  V30 3277 C 316.112 0.523818 1.88456 0
M  V30 3278 C 316.492 -0.998871 1.85973 0
M  V30 3279 O 315.84 -1.86381 1.3219 0
M  V30 3280 C 316.05 1.0982 3.31271 0
M  V30 3281 C 317.398 1.17385 4.08051 0
M  V30 3282 O 318.422 1.04961 3.40384 0
M  V30 3283 O 317.281 1.36852 5.29088 0
M  V30 3284 H 314.375 0.172485 0.808813 0
M  V30 3285 H 316.921 1.04596 1.33633 0
M  V30 3286 H 315.693 2.1415 3.27499 0
M  V30 3287 H 315.316 0.559191 3.93648 0
M  V30 3288 N 316.313 -1.40141 0.720998 0
M  V30 3289 C 317.561 -2.0039 0.262323 0
M  V30 3290 C 317.882 -1.57469 -1.15015 0
M  V30 3291 O 317.152 -0.816582 -1.78069 0
M  V30 3292 H 315.732 -0.741063 0.093996 0
M  V30 3293 H 318.394 -1.71398 0.927835 0
M  V30 3294 H 317.49 -3.10658 0.299671 0
M  V30 3295 N 317.792 -0.46758 -1.50504 0
M  V30 3296 C 318.722 0.318381 -2.31319 0
M  V30 3297 C 319.703 0.993564 -1.38066 0
M  V30 3298 O 320.888 0.991411 -1.66987 0
M  V30 3299 C 318.018 1.40275 -3.17711 0
M  V30 3300 C 316.972 0.849373 -4.19487 0
M  V30 3301 C 316.298 2.03177 -4.94594 0
M  V30 3302 C 317.598 -0.136942 -5.2212 0
M  V30 3303 H 319.292 -0.356106 -2.97275 0
M  V30 3304 H 316.838 -0.172703 -1.42961 0
M  V30 3305 H 318.791 1.96004 -3.73042 0
M  V30 3306 H 317.515 2.10596 -2.49634 0
M  V30 3307 H 316.174 0.314076 -3.65252 0
M  V30 3308 H 315.822 2.72187 -4.22993 0
M  V30 3309 H 315.522 1.66774 -5.63436 0
M  V30 3310 H 317.046 2.59403 -5.52759 0
M  V30 3311 H 318.46 0.331056 -5.72343 0
M  V30 3312 H 316.857 -0.41507 -5.98663 0
M  V30 3313 H 317.927 -1.06398 -4.73083 0
M  V30 3314 N 319.27 1.56325 -0.20005 0
M  V30 3315 C 320.51 1.99619 0.439519 0
M  V30 3316 C 320.874 1.08423 1.58456 0
M  V30 3317 O 322.075 1.40973 2.28867 0
M  V30 3318 C 320.346 3.46314 0.883258 0
M  V30 3319 S 321.905 4.11634 1.51997 0
M  V30 3320 H 318.723 0.697007 0.140363 0
M  V30 3321 H 321.325 1.93118 -0.304282 0
M  V30 3322 H 320.029 4.10381 0.0398967 0
M  V30 3323 H 319.56 3.56643 1.6604 0
M  V30 3324 H 321.575 4.09049 2.8088 0
M  V30 3325 N 320.748 -0.0735177 1.57428 0
M  V30 3326 C 321.976 -0.785969 1.9139 0
M  V30 3327 C 322.391 -1.71207 0.795847 0
M  V30 3328 O 321.748 -1.81033 -0.230915 0
M  V30 3329 C 321.799 -1.58107 3.25091 0
M  V30 3330 O 321.52 -0.6922 4.32597 0
M  V30 3331 C 323.021 -2.39467 3.73055 0
M  V30 3332 H 320.241 -0.223558 0.632663 0
M  V30 3333 H 322.785 -0.044302 2.04452 0
M  V30 3334 H 320.94 -2.27503 3.13562 0
M  V30 3335 H 321.354 -1.24504 5.09508 0
M  V30 3336 H 322.828 -2.90716 4.69242 0
M  V30 3337 H 323.305 -3.18913 3.01979 0
M  V30 3338 H 323.911 -1.7523 3.87523 0
M  V30 3339 N 322.226 -1.5378 -0.344866 0
M  V30 3340 C 323.642 -1.44015 -0.687888 0
M  V30 3341 C 323.842 -0.595834 -1.92489 0
M  V30 3342 O 322.898 -0.0863064 -2.52352 0
M  V30 3343 C 324.211 -2.87481 -0.881758 0
M  V30 3344 C 325.759 -2.97247 -0.980459 0
M  V30 3345 C 326.234 -4.41819 -1.20665 0
M  V30 3346 N 327.725 -4.45339 -1.27389 0
M  V30 3347 C 328.46 -5.54333 -1.46639 0
M  V30 3348 N 327.956 -6.73335 -1.63071 0
M  V30 3349 N 329.749 -5.41944 -1.49176 0
M  V30 3350 H 321.9 -2.07169 0.468475 0
M  V30 3351 H 324.163 -0.93643 0.147655 0
M  V30 3352 H 323.869 -3.51672 -0.0443444 0
M  V30 3353 H 323.743 -3.32352 -1.78388 0
M  V30 3354 H 326.13 -2.33197 -1.8084 0
M  V30 3355 H 326.211 -2.5574 -0.0552713 0
M  V30 3356 H 325.855 -5.06449 -0.383652 0
M  V30 3357 H 325.785 -4.80917 -2.14539 0
M  V30 3358 H 328.276 -3.59585 -1.1622 0
M  V30 3359 H 328.589 -7.52165 -1.77391 0
M  V30 3360 H 326.934 -6.76282 -1.60209 0
M  V30 3361 H 330.125 -4.47932 -1.3592 0
M  V30 3362 H 330.298 -6.26946 -1.63837 0
M  V30 3363 N 323.704 0.605807 -1.45491 0
M  V30 3364 C 324.634 1.72709 -1.57143 0
M  V30 3365 C 325.615 1.6476 -0.422884 0
M  V30 3366 O 326.8 1.83132 -0.646247 0
M  V30 3367 C 323.93 3.11316 -1.53948 0
M  V30 3368 C 322.884 3.34077 -2.67537 0
M  V30 3369 C 322.21 4.72975 -2.49397 0
M  V30 3370 C 323.51 3.24158 -4.09535 0
M  V30 3371 H 325.204 1.63214 -2.51001 0
M  V30 3372 H 322.75 0.78379 -1.208 0
M  V30 3373 H 324.703 3.89557 -1.60696 0
M  V30 3374 H 323.427 3.21655 -0.566205 0
M  V30 3375 H 322.086 2.58227 -2.6022 0
M  V30 3376 H 321.734 4.8005 -1.50205 0
M  V30 3377 H 321.434 4.8916 -3.25571 0
M  V30 3378 H 322.958 5.53414 -2.58002 0
M  V30 3379 H 324.372 3.92271 -4.18086 0
M  V30 3380 H 322.769 3.51872 -4.86113 0
M  V30 3381 H 323.839 2.2157 -4.31317 0
M  V30 3382 N 325.182 1.32811 0.848464 0
M  V30 3383 C 326.407 1.26882 1.6406 0
M  V30 3384 C 326.832 -0.15913 1.87426 0
M  V30 3385 O 326.19 -1.11258 1.43148 0
M  V30 3386 C 326.238 2.03997 2.97351 0
M  V30 3387 O 325.342 1.39201 3.88197 0
M  V30 3388 H 324.683 0.436982 0.499943 0
M  V30 3389 H 327.213 1.75224 1.0563 0
M  V30 3390 H 327.223 2.14403 3.47124 0
M  V30 3391 H 325.898 3.0783 2.79666 0
M  V30 3392 H 324.475 1.37381 3.46671 0
M  V30 3393 N 326.66 -1.06551 1.16123 0
M  V30 3394 C 328.076 -1.3142 0.905585 0
M  V30 3395 C 328.276 -1.96571 -0.442964 0
M  V30 3396 O 327.332 -2.23068 -1.18308 0
M  V30 3397 C 328.645 -2.19741 2.05267 0
M  V30 3398 C 330.193 -2.33165 2.08813 0
M  V30 3399 C 330.668 -3.24838 3.22868 0
M  V30 3400 N 332.159 -3.32421 3.22568 0
M  V30 3401 C 332.894 -4.0344 4.0746 0
M  V30 3402 N 332.39 -4.77003 5.02434 0
M  V30 3403 N 334.183 -3.99464 3.95456 0
M  V30 3404 H 326.334 -0.626548 2.02949 0
M  V30 3405 H 328.597 -0.338777 0.8854 0
M  V30 3406 H 328.303 -1.79142 3.02657 0
M  V30 3407 H 328.177 -3.20313 1.99198 0
M  V30 3408 H 330.564 -2.73013 1.12018 0
M  V30 3409 H 330.645 -1.3227 2.18948 0
M  V30 3410 H 330.289 -2.85708 4.19921 0
M  V30 3411 H 330.219 -4.25707 3.0997 0
M  V30 3412 H 332.71 -2.79994 2.53795 0
M  V30 3413 H 333.023 -5.28712 5.63634 0
M  V30 3414 H 331.368 -4.75992 5.06415 0
M  V30 3415 H 334.559 -3.4111 3.20564 0
M  V30 3416 H 334.732 -4.54544 4.61837 0
M  V30 3417 N 328.138 -0.959301 -1.25041 0
M  V30 3418 C 329.549 -0.65667 -1.74771 0
M  V30 3419 C 329.9 0.827852 -1.77879 0
M  V30 3420 O 329.025 1.64783 -1.40269 0
M  V30 3421 C 329.62 -1.1853 -3.1739 0
M  V30 3422 C 328.179 -0.932734 -3.6466 0
M  V30 3423 C 327.326 -1.32558 -2.43564 0
M  V30 3424 H 330.277 -1.13558 -1.10862 0
M  V30 3425 H 330.298 -0.547582 -3.76539 0
M  V30 3426 H 329.81 -2.26576 -3.15095 0
M  V30 3427 H 327.911 0.13257 -3.72364 0
M  V30 3428 H 328.024 -1.57248 -4.52559 0
M  V30 3429 H 326.388 -0.743956 -2.43593 0
M  V30 3430 H 327.171 -2.41537 -2.43957 0
M  V30 3431 N 329.616 1.39756 -0.72842 0
M  V30 3432 C 330.856 2.025 -0.278078 0
M  V30 3433 C 331.22 1.5654 1.11173 0
M  V30 3434 O 332.421 2.11435 1.65978 0
M  V30 3435 C 330.692 3.55489 -0.369139 0
M  V30 3436 S 332.251 4.388 0.00232983 0
M  V30 3437 H 329.069 0.702534 -0.109391 0
M  V30 3438 H 331.671 1.70672 -0.95348 0
M  V30 3439 H 330.375 3.86429 -1.38204 0
M  V30 3440 H 329.906 3.92061 0.324308 0
M  V30 3441 H 331.921 4.80954 1.22055 0
M  V30 3442 N 331.094 0.475555 1.50254 0
M  V30 3443 C 332.026 -0.352649 2.26471 0
M  V30 3444 C 333.039 -0.953165 1.3198 0
M  V30 3445 O 334.228 -0.840815 1.57457 0
M  V30 3446 C 331.328 -1.50902 3.0345 0
M  V30 3447 C 330.501 -1.02047 4.25329 0
M  V30 3448 C 329.56 -2.05142 4.84565 0
M  V30 3449 O 328.586 -1.63023 5.45355 0
M  V30 3450 N 329.788 -3.37987 4.71959 0
M  V30 3451 H 332.553 0.300767 2.98187 0
M  V30 3452 H 330.114 0.306598 1.5897 0
M  V30 3453 H 332.106 -2.19572 3.39956 0
M  V30 3454 H 330.676 -2.06705 2.34504 0
M  V30 3455 H 329.896 -0.159507 3.93877 0
M  V30 3456 H 331.184 -0.672061 5.04342 0
M  V30 3457 H 330.582 -3.74913 4.23623 0
M  V30 3458 H 329.139 -4.02443 5.12721 0
M  V30 3459 N 332.573 -1.56217 0.208337 0
M  V30 3460 C 333.801 -2.02337 -0.43215 0
M  V30 3461 C 334.216 -1.08834 -1.54275 0
M  V30 3462 O 333.573 -0.0955462 -1.8225 0
M  V30 3463 C 333.624 -3.48072 -0.976138 0
M  V30 3464 O 333.345 -4.38007 0.0901621 0
M  V30 3465 C 334.846 -4.09773 -1.69119 0
M  V30 3466 H 332.066 -0.662385 -0.10718 0
M  V30 3467 H 334.61 -2.01966 0.320923 0
M  V30 3468 H 332.765 -3.49099 -1.67954 0
M  V30 3469 H 333.179 -5.23543 -0.316701 0
M  V30 3470 H 334.653 -5.13556 -2.02397 0
M  V30 3471 H 335.13 -3.53999 -2.59964 0
M  V30 3472 H 335.736 -4.12556 -1.03332 0
M  V30 3473 N 334.051 0.0651679 -1.57465 0
M  V30 3474 C 334.983 1.10359 -2.00882 0
M  V30 3475 C 335.996 1.346 -0.915788 0
M  V30 3476 O 337.185 1.32723 -1.1936 0
M  V30 3477 C 334.285 2.45312 -2.33828 0
M  V30 3478 C 333.458 2.40934 -3.65061 0
M  V30 3479 C 332.517 3.58047 -3.85602 0
M  V30 3480 O 331.543 3.39175 -4.57109 0
M  V30 3481 N 332.745 4.78637 -3.28462 0
M  V30 3482 H 335.51 0.733807 -2.90578 0
M  V30 3483 H 333.071 0.253719 -1.599 0
M  V30 3484 H 335.063 3.22314 -2.44737 0
M  V30 3485 H 333.633 2.74267 -1.49988 0
M  V30 3486 H 332.853 1.49273 -3.64844 0
M  V30 3487 H 334.141 2.35117 -4.51218 0
M  V30 3488 H 333.539 4.96872 -2.70433 0
M  V30 3489 H 332.096 5.53127 -3.44809 0
M  V30 3490 N 335.529 1.53961 0.336706 0
M  V30 3491 C 336.476 1.82428 1.41381 0
M  V30 3492 C 337.446 0.670444 1.51968 0
M  V30 3493 O 338.631 0.915565 1.67398 0
M  V30 3494 C 335.771 2.04564 2.77934 0
M  V30 3495 C 334.884 3.32267 2.76084 0
M  V30 3496 C 334.019 3.44434 4.04399 0
M  V30 3497 C 333.058 4.66061 3.96804 0
M  V30 3498 N 332.195 4.75224 5.16823 0
M  V30 3499 H 337.035 2.74324 1.16405 0
M  V30 3500 H 334.572 1.35869 0.563752 0
M  V30 3501 H 336.53 2.15388 3.57301 0
M  V30 3502 H 335.16 1.15974 3.01247 0
M  V30 3503 H 334.212 3.3025 1.88784 0
M  V30 3504 H 335.524 4.21733 2.66351 0
M  V30 3505 H 334.678 3.54728 4.92192 0
M  V30 3506 H 333.417 2.53037 4.16921 0
M  V30 3507 H 332.422 4.55838 3.07396 0
M  V30 3508 H 333.647 5.58829 3.85858 0
M  V30 3509 H 331.593 3.86739 5.29876 0
M  V30 3510 H 331.51 5.58636 5.09374 0
M  V30 3511 H 332.778 4.89835 6.06367 0
M  V30 3512 N 337.007 -0.598083 1.45811 0
M  V30 3513 C 338.418 -1.18011 1.44673 0
M  V30 3514 C 338.769 -1.95378 0.179364 0
M  V30 3515 O 337.894 -2.04124 -0.718509 0
M  V30 3516 C 338.489 -2.14677 2.62105 0
M  V30 3517 C 337.048 -2.68236 2.64057 0
M  V30 3518 C 336.195 -1.43816 2.37091 0
M  V30 3519 H 339.146 -0.38686 1.53913 0
M  V30 3520 H 339.167 -2.97878 2.36746 0
M  V30 3521 H 338.679 -1.5834 3.5433 0
M  V30 3522 H 336.78 -3.28486 1.75864 0
M  V30 3523 H 336.893 -3.12021 3.63566 0
M  V30 3524 H 335.257 -1.731 1.86838 0
M  V30 3525 H 336.04 -0.893333 3.31473 0
M  V30 3526 N 338.485 -1.33259 -0.841409 0
M  V30 3527 C 339.417 -1.19136 -1.95804 0
M  V30 3528 C 340.43 -0.122965 -1.62335 0
M  V30 3529 O 341.619 -0.373154 -1.74556 0
M  V30 3530 C 338.719 -0.804268 -3.29218 0
M  V30 3531 C 337.892 -1.96376 -3.90839 0
M  V30 3532 C 336.951 -1.55806 -5.02604 0
M  V30 3533 O 335.977 -2.27203 -5.21888 0
M  V30 3534 N 337.179 -0.461609 -5.78662 0
M  V30 3535 H 339.944 -2.15326 -2.08458 0
M  V30 3536 H 337.505 -1.25971 -1.017 0
M  V30 3537 H 339.497 -0.51501 -4.0141 0
M  V30 3538 H 338.067 0.0668809 -3.12528 0
M  V30 3539 H 337.287 -2.41879 -3.11269 0
M  V30 3540 H 338.575 -2.73966 -4.28742 0
M  V30 3541 H 337.973 0.132343 -5.65545 0
M  V30 3542 H 336.53 -0.232013 -6.51387 0
M  V30 3543 N 339.963 1.05934 -1.16686 0
M  V30 3544 C 340.91 2.13499 -0.876748 0
M  V30 3545 C 341.88 1.65162 0.176299 0
M  V30 3546 O 343.065 1.90757 0.0407143 0
M  V30 3547 C 340.205 3.42912 -0.387967 0
M  V30 3548 C 339.318 4.04964 -1.50426 0
M  V30 3549 C 338.453 5.22266 -0.970125 0
M  V30 3550 C 337.492 5.76309 -2.06238 0
M  V30 3551 N 336.629 6.84922 -1.54356 0
M  V30 3552 H 341.469 2.37654 -1.7979 0
M  V30 3553 H 339.006 1.16598 -0.896843 0
M  V30 3554 H 340.964 4.17111 -0.086186 0
M  V30 3555 H 339.594 3.18963 0.496235 0
M  V30 3556 H 338.646 3.28277 -1.92193 0
M  V30 3557 H 339.958 4.41122 -2.32836 0
M  V30 3558 H 339.112 6.03506 -0.621743 0
M  V30 3559 H 337.851 4.87564 -0.115377 0
M  V30 3560 H 336.856 4.93704 -2.41942 0
M  V30 3561 H 338.081 6.13062 -2.92115 0
M  V30 3562 H 336.027 6.52131 -0.711406 0
M  V30 3563 H 335.944 7.20043 -2.30379 0
M  V30 3564 H 337.212 7.69832 -1.22387 0
M  V30 3565 N 341.441 0.965919 1.2453 0
M  V30 3566 C 342.852 0.665929 1.7442 0
M  V30 3567 C 343.203 -0.818407 1.78316 0
M  V30 3568 O 342.328 -1.64037 1.41141 0
M  V30 3569 C 342.923 1.20211 3.16757 0
M  V30 3570 C 341.482 0.952059 3.6416 0
M  V30 3571 C 340.629 1.33848 2.42858 0
M  V30 3572 H 343.58 1.14144 1.10258 0
M  V30 3573 H 343.601 0.567544 3.76244 0
M  V30 3574 H 343.113 2.28244 3.13889 0
M  V30 3575 H 341.214 -0.112821 3.72429 0
M  V30 3576 H 341.327 1.59645 4.51719 0
M  V30 3577 H 339.691 0.756864 2.43195 0
M  V30 3578 H 340.474 2.42827 2.42673 0
M  V30 3579 N 342.919 -1.39368 0.735821 0
M  V30 3580 C 344.165 -2.01272 0.293439 0
M  V30 3581 C 344.52 -1.57344 -1.10728 0
M  V30 3582 O 343.813 -0.792744 -1.74431 0
M  V30 3583 C 344.007 -3.5583 0.334651 0
M  V30 3584 C 343.836 -4.14764 1.73784 0
M  V30 3585 C 342.606 -4.47315 2.35026 0
M  V30 3586 C 344.804 -4.38246 2.69157 0
M  V30 3587 N 342.786 -4.91756 3.6749 0
M  V30 3588 C 344.157 -4.849 3.86357 0
M  V30 3589 C 346.212 -4.20315 2.66908 0
M  V30 3590 C 344.915 -5.15505 5.01645 0
M  V30 3591 C 346.941 -4.52033 3.8134 0
M  V30 3592 C 346.303 -4.98895 4.97276 0
M  V30 3593 H 342.402 -0.766756 0.153652 0
M  V30 3594 H 344.986 -1.69276 0.961967 0
M  V30 3595 H 343.157 -3.87212 -0.303527 0
M  V30 3596 H 344.889 -4.04503 -0.126358 0
M  V30 3597 H 341.644 -4.35143 1.86943 0
M  V30 3598 H 342.068 -5.18333 4.35499 0
M  V30 3599 H 346.71 -3.83287 1.78468 0
M  V30 3600 H 344.428 -5.51437 5.90713 0
M  V30 3601 H 348.014 -4.39781 3.80899 0
M  V30 3602 H 346.894 -5.22973 5.84353 0
M  V30 3603 N 344.397 -0.483516 -1.5 0
M  V30 3604 C 345.643 0.0593261 -2.03313 0
M  V30 3605 C 345.998 1.36288 -1.35806 0
M  V30 3606 O 345.291 1.85519 -0.478897 0
M  V30 3607 C 345.485 0.286226 -3.56252 0
M  V30 3608 C 345.314 -0.993788 -4.38582 0
M  V30 3609 C 344.084 -1.54064 -4.81241 0
M  V30 3610 C 346.282 -1.89249 -4.78215 0
M  V30 3611 N 344.264 -2.76838 -5.47936 0
M  V30 3612 C 345.635 -2.96606 -5.44449 0
M  V30 3613 C 347.69 -1.90138 -4.60165 0
M  V30 3614 C 346.393 -4.04857 -5.94544 0
M  V30 3615 C 348.419 -2.97353 -5.1121 0
M  V30 3616 C 347.781 -4.03429 -5.77429 0
M  V30 3617 H 343.88 -0.0186322 -0.781778 0
M  V30 3618 H 346.464 -0.654489 -1.8337 0
M  V30 3619 H 344.635 0.969086 -3.76116 0
M  V30 3620 H 346.367 0.824515 -3.96212 0
M  V30 3621 H 343.122 -1.08813 -4.6093 0
M  V30 3622 H 343.546 -3.39221 -5.85882 0
M  V30 3623 H 348.188 -1.09441 -4.0839 0
M  V30 3624 H 345.906 -4.86363 -6.4535 0
M  V30 3625 H 349.492 -2.99039 -4.99066 0
M  V30 3626 H 348.372 -4.85025 -6.16214 0
M  V30 3627 N 345.875 1.56104 -0.216619 0
M  V30 3628 C 346.785 2.23694 0.706982 0
M  V30 3629 C 347.801 1.24295 1.21765 0
M  V30 3630 O 348.977 1.57094 1.2603 0
M  V30 3631 C 346.042 2.8998 1.90033 0
M  V30 3632 C 345.103 4.04708 1.43213 0
M  V30 3633 C 344.336 4.67824 2.56859 0
M  V30 3634 O 344.559 4.29913 3.74874 0
M  V30 3635 O 343.493 5.56905 2.28343 0
M  V30 3636 H 347.319 3.03272 0.161235 0
M  V30 3637 H 344.904 1.49394 0.0136177 0
M  V30 3638 H 346.786 3.31837 2.59735 0
M  V30 3639 H 345.461 2.13365 2.43428 0
M  V30 3640 H 344.368 3.6743 0.70327 0
M  V30 3641 H 345.701 4.83051 0.944615 0
M  V30 3642 N 347.353 -0.0568162 1.57498 0
M  V30 3643 C 348.63 -0.786954 1.79071 0
M  V30 3644 C 349.01 -1.95028 0.80792 0
M  V30 3645 O 348.358 -2.27968 -0.155858 0
M  V30 3646 C 348.568 -1.24594 3.26002 0
M  V30 3647 C 349.916 -1.67323 3.90241 0
M  V30 3648 O 350.94 -1.34124 3.29984 0
M  V30 3649 O 349.799 -2.28842 4.9628 0
M  V30 3650 H 346.893 -0.378262 0.735423 0
M  V30 3651 H 349.439 -0.035734 1.69662 0
M  V30 3652 H 348.211 -0.41423 3.89101 0
M  V30 3653 H 347.834 -2.05803 3.40192 0
M  V30 3654 N 348.832 -1.54138 -0.328536 0
M  V30 3655 C 349.742 -1.86192 -1.42723 0
M  V30 3656 C 350.758 -0.753382 -1.56844 0
M  V30 3657 O 351.934 -1.04718 -1.72035 0
M  V30 3658 C 348.999 -2.07824 -2.77507 0
M  V30 3659 C 348.06 -3.31641 -2.72603 0
M  V30 3660 C 347.293 -3.52232 -4.00959 0
M  V30 3661 O 347.516 -2.7636 -4.9898 0
M  V30 3662 O 346.45 -4.45699 -4.0452 0
M  V30 3663 H 350.276 -2.79608 -1.18547 0
M  V30 3664 H 347.861 -1.3998 -0.522104 0
M  V30 3665 H 349.743 -2.23411 -3.57303 0
M  V30 3666 H 348.418 -1.17596 -3.01584 0
M  V30 3667 H 347.325 -3.21444 -1.91376 0
M  V30 3668 H 348.658 -4.2191 -2.53481 0
M  V30 3669 N 350.31 0.590341 -1.46126 0
M  V30 3670 C 351.556 1.34874 -1.52252 0
M  V30 3671 C 351.911 1.91658 -0.168807 0
M  V30 3672 O 351.204 1.73093 0.821556 0
M  V30 3673 C 351.398 2.5032 -2.55097 0
M  V30 3674 C 351.227 2.04843 -4.00337 0
M  V30 3675 C 349.997 1.90213 -4.68132 0
M  V30 3676 C 352.195 1.61267 -4.88362 0
M  V30 3677 N 350.177 1.38727 -5.9802 0
M  V30 3678 C 351.548 1.21319 -6.08015 0
M  V30 3679 C 353.603 1.49015 -4.75078 0
M  V30 3680 C 352.306 0.7034 -7.15852 0
M  V30 3681 C 354.332 0.994401 -5.8298 0
M  V30 3682 C 353.694 0.604659 -7.018 0
M  V30 3683 H 349.793 0.486803 -0.612002 0
M  V30 3684 H 352.377 0.673007 -1.82698 0
M  V30 3685 H 350.548 3.15466 -2.26574 0
M  V30 3686 H 352.28 3.1725 -2.51266 0
M  V30 3687 H 349.035 2.11927 -4.23537 0
M  V30 3688 H 349.459 1.15168 -6.67132 0
M  V30 3689 H 354.101 1.77768 -3.83612 0
M  V30 3690 H 351.819 0.403446 -8.07092 0
M  V30 3691 H 355.405 0.903621 -5.7474 0
M  V30 3692 H 354.285 0.226963 -7.83871 0
M  V30 3693 N 351.788 1.33704 0.83433 0
M  V30 3694 C 352.698 1.26382 1.97648 0
M  V30 3695 C 353.714 0.173548 1.73132 0
M  V30 3696 O 354.89 0.397962 1.97429 0
M  V30 3697 C 351.955 1.00769 3.31733 0
M  V30 3698 C 351.016 2.1884 3.69334 0
M  V30 3699 C 350.249 1.9444 4.9702 0
M  V30 3700 O 350.472 0.896961 5.63303 0
M  V30 3701 O 349.406 2.81093 5.32231 0
M  V30 3702 H 353.232 2.22444 2.06767 0
M  V30 3703 H 350.817 1.13795 0.968037 0
M  V30 3704 H 352.699 0.882186 4.12062 0
M  V30 3705 H 351.374 0.0773783 3.23608 0
M  V30 3706 H 350.281 2.36946 2.89495 0
M  V30 3707 H 351.614 3.10221 3.82131 0
M  V30 3708 N 353.266 -1.05314 1.17247 0
M  V30 3709 C 354.512 -1.78557 0.961513 0
M  V30 3710 C 354.845 -1.87419 -0.508697 0
M  V30 3711 O 354.12 -1.37307 -1.37757 0
M  V30 3712 C 354.403 -3.22514 1.60176 0
M  V30 3713 C 354.256 -3.21673 3.14399 0
M  V30 3714 C 355.575 -4.20318 1.30463 0
M  V30 3715 H 352.694 -0.6482 0.350723 0
M  V30 3716 H 355.336 -1.23102 1.44727 0
M  V30 3717 H 353.486 -3.69867 1.18871 0
M  V30 3718 H 355.158 -2.82405 3.64753 0
M  V30 3719 H 353.401 -2.60048 3.47214 0
M  V30 3720 H 354.072 -4.23271 3.54324 0
M  V30 3721 H 356.548 -3.81454 1.66229 0
M  V30 3722 H 355.424 -5.19289 1.77848 0
M  V30 3723 H 355.685 -4.41526 0.22521 0
M  V30 3724 N 354.744 -0.972509 -1.24016 0
M  V30 3725 C 356.155 -0.67517 -1.74064 0
M  V30 3726 C 356.506 0.808939 -1.78747 0
M  V30 3727 O 355.631 1.63286 -1.42009 0
M  V30 3728 C 356.226 -1.21889 -3.16115 0
M  V30 3729 C 354.785 -0.971358 -3.6365 0
M  V30 3730 C 353.932 -1.35134 -2.42145 0
M  V30 3731 H 356.883 -1.14727 -1.09651 0
M  V30 3732 H 356.904 -0.587489 -3.75937 0
M  V30 3733 H 356.416 -2.29906 -3.12674 0
M  V30 3734 H 354.517 0.0930686 -3.72484 0
M  V30 3735 H 354.63 -1.62039 -4.50866 0
M  V30 3736 H 352.994 -0.769751 -2.4279 0
M  V30 3737 H 353.777 -2.4411 -2.41381 0
M  V30 3738 N 356.222 1.38976 -0.743202 0
M  V30 3739 C 357.638 1.53984 -0.419664 0
M  V30 3740 C 357.838 1.70837 1.0685 0
M  V30 3741 O 356.894 1.7135 1.8546 0
M  V30 3742 C 358.207 2.75287 -1.20985 0
M  V30 3743 C 359.755 2.89129 -1.19889 0
M  V30 3744 C 360.23 4.13381 -1.97181 0
M  V30 3745 N 361.721 4.20437 -1.94389 0
M  V30 3746 C 362.456 5.15547 -2.50996 0
M  V30 3747 N 361.952 6.16395 -3.16274 0
M  V30 3748 N 363.745 5.07822 -2.40984 0
M  V30 3749 H 355.896 1.26285 -1.7078 0
M  V30 3750 H 358.159 0.612689 -0.723406 0
M  V30 3751 H 357.865 2.69204 -2.26323 0
M  V30 3752 H 357.739 3.68184 -0.819759 0
M  V30 3753 H 360.126 2.947 -0.153606 0
M  V30 3754 H 360.207 1.97272 -1.62841 0
M  V30 3755 H 359.851 4.08572 -3.01714 0
M  V30 3756 H 359.781 5.04298 -1.51629 0
M  V30 3757 H 362.272 3.48205 -1.46839 0
M  V30 3758 H 362.585 6.85443 -3.56915 0
M  V30 3759 H 360.93 6.16758 -3.20367 0
M  V30 3760 H 364.121 4.27973 -1.89622 0
M  V30 3761 H 364.294 5.81767 -2.85397 0
M  V30 3762 N 357.7 0.491464 1.49741 0
M  V30 3763 C 358.61 -0.296835 2.32715 0
M  V30 3764 C 359.626 -0.976536 1.44013 0
M  V30 3765 O 360.802 -0.960023 1.77047 0
M  V30 3766 C 357.867 -1.35288 3.19215 0
M  V30 3767 C 356.928 -0.687632 4.23757 0
M  V30 3768 C 356.161 -1.69336 5.06123 0
M  V30 3769 O 356.384 -2.92219 4.89861 0
M  V30 3770 O 355.318 -1.25394 5.88693 0
M  V30 3771 H 359.144 0.382048 3.01287 0
M  V30 3772 H 356.729 0.252953 1.47243 0
M  V30 3773 H 358.611 -1.96411 3.72828 0
M  V30 3774 H 357.286 -2.01487 2.53347 0
M  V30 3775 H 356.193 -0.0369159 3.74082 0
M  V30 3776 H 357.526 -0.0682566 4.92153 0
M  V30 3777 N 359.178 -1.55987 0.224894 0
M  V30 3778 C 360.406 -2.02784 -0.410665 0
M  V30 3779 C 360.821 -1.10464 -1.53112 0
M  V30 3780 O 360.178 -0.114871 -1.82138 0
M  V30 3781 C 360.229 -3.49087 -0.939165 0
M  V30 3782 O 359.95 -4.37887 0.136614 0
M  V30 3783 C 361.451 -4.11543 -1.64763 0
M  V30 3784 H 358.671 -0.663484 -0.100148 0
M  V30 3785 H 361.215 -2.01614 0.342326 0
M  V30 3786 H 359.37 -3.50861 -1.64242 0
M  V30 3787 H 359.784 -5.23849 -0.261155 0
M  V30 3788 H 361.258 -5.15673 -1.96939 0
M  V30 3789 H 361.735 -3.56736 -2.56195 0
M  V30 3790 H 362.341 -4.13629 -0.989503 0
M  V30 3791 N 360.656 0.0484629 -1.57525 0
M  V30 3792 C 361.586 1.0549 -2.08313 0
M  V30 3793 C 362.567 1.38929 -0.981463 0
M  V30 3794 O 363.752 1.48151 -1.25558 0
M  V30 3795 C 360.882 2.36162 -2.54646 0
M  V30 3796 C 359.836 2.17016 -3.68901 0
M  V30 3797 C 359.162 3.53278 -4.01371 0
M  V30 3798 C 360.462 1.57219 -4.98076 0
M  V30 3799 H 362.156 0.632195 -2.92649 0
M  V30 3800 H 359.702 0.302654 -1.40784 0
M  V30 3801 H 361.655 3.06882 -2.88793 0
M  V30 3802 H 360.379 2.80456 -1.67368 0
M  V30 3803 H 359.038 1.48733 -3.35073 0
M  V30 3804 H 358.686 3.95185 -3.11188 0
M  V30 3805 H 358.386 3.41299 -4.78318 0
M  V30 3806 H 359.91 4.25391 -4.38035 0
M  V30 3807 H 361.324 2.17832 -5.30304 0
M  V30 3808 H 359.721 1.55871 -5.79503 0
M  V30 3809 H 360.791 0.535956 -4.81929 0
M  V30 3810 N 362.134 1.5431 0.320358 0
M  V30 3811 C 363.081 1.83918 1.39438 0
M  V30 3812 C 364.051 0.686525 1.51248 0
M  V30 3813 O 365.236 0.933269 1.66417 0
M  V30 3814 C 362.376 2.075 2.75749 0
M  V30 3815 C 361.489 3.35177 2.72544 0
M  V30 3816 C 360.624 3.48704 4.00723 0
M  V30 3817 C 359.663 4.70244 3.91838 0
M  V30 3818 N 358.8 4.80679 5.11754 0
M  V30 3819 H 363.64 2.75544 1.13489 0
M  V30 3820 H 361.177 1.36459 0.549309 0
M  V30 3821 H 363.135 2.19166 3.54996 0
M  V30 3822 H 361.765 1.19163 3 0
M  V30 3823 H 360.817 3.32233 1.85271 0
M  V30 3824 H 362.129 4.24534 2.61863 0
M  V30 3825 H 361.283 3.59928 4.88402 0
M  V30 3826 H 360.022 2.57445 4.14214 0
M  V30 3827 H 359.027 4.59072 3.02544 0
M  V30 3828 H 360.252 5.6289 3.7991 0
M  V30 3829 H 358.198 3.92337 5.25745 0
M  V30 3830 H 358.115 5.64007 5.0342 0
M  V30 3831 H 359.383 4.96239 6.01138 0
M  V30 3832 N 363.613 -0.582584 1.46437 0
M  V30 3833 C 364.543 -1.70187 1.59871 0
M  V30 3834 C 365.524 -1.64066 0.449042 0
M  V30 3835 O 366.709 -1.82081 0.6753 0
M  V30 3836 C 363.839 -3.08827 1.58881 0
M  V30 3837 C 362.793 -3.29779 2.72819 0
M  V30 3838 C 362.119 -4.68947 2.5689 0
M  V30 3839 C 363.419 -3.17601 4.1464 0
M  V30 3840 H 365.113 -1.592 2.53566 0
M  V30 3841 H 362.659 -0.764472 1.22032 0
M  V30 3842 H 364.612 -3.86951 1.66873 0
M  V30 3843 H 363.336 -3.20713 0.617306 0
M  V30 3844 H 361.995 -2.54054 2.64296 0
M  V30 3845 H 361.643 -4.77599 1.57823 0
M  V30 3846 H 361.343 -4.83919 3.33312 0
M  V30 3847 H 362.867 -5.4924 2.66773 0
M  V30 3848 H 364.281 -3.8557 4.24274 0
M  V30 3849 H 362.678 -3.44094 4.9165 0
M  V30 3850 H 363.748 -2.14681 4.34788 0
M  V30 3851 N 365.091 -1.34144 -0.827227 0
M  V30 3852 C 366.337 -1.26446 -1.58554 0
M  V30 3853 C 366.67 0.1664 -1.93486 0
M  V30 3854 O 365.945 1.1107 -1.59667 0
M  V30 3855 C 366.228 -2.15111 -2.8879 0
M  V30 3856 C 366.081 -3.66712 -2.60465 0
M  V30 3857 C 367.4 -2.03311 -3.90324 0
M  V30 3858 H 364.519 -0.46067 -0.575284 0
M  V30 3859 H 367.161 -1.64356 -0.953269 0
M  V30 3860 H 365.311 -1.8291 -3.42748 0
M  V30 3861 H 366.983 -4.09259 -2.1285 0
M  V30 3862 H 365.226 -3.88014 -1.93978 0
M  V30 3863 H 365.897 -4.24112 -3.53317 0
M  V30 3864 H 368.373 -2.31574 -3.45706 0
M  V30 3865 H 367.249 -2.67582 -4.79261 0
M  V30 3866 H 367.51 -1.00879 -4.30437 0
M  V30 3867 N 366.569 1.04691 -1.17803 0
M  V30 3868 C 367.479 2.16057 -0.914151 0
M  V30 3869 C 368.495 1.73589 0.119503 0
M  V30 3870 O 369.671 2.01308 -0.0609468 0
M  V30 3871 C 366.736 3.4394 -0.436603 0
M  V30 3872 C 365.797 4.00825 -1.53746 0
M  V30 3873 C 365.03 5.22604 -1.0826 0
M  V30 3874 O 365.253 5.70367 0.0612244 0
M  V30 3875 O 364.187 5.7186 -1.87775 0
M  V30 3876 H 368.013 2.41169 -1.84584 0
M  V30 3877 H 365.598 1.1453 -0.959334 0
M  V30 3878 H 367.48 4.21024 -0.178057 0
M  V30 3879 H 366.155 3.20316 0.466869 0
M  V30 3880 H 365.062 3.25158 -1.84995 0
M  V30 3881 H 366.395 4.28778 -2.41683 0
M  V30 3882 N 368.047 0.979072 1.23499 0
M  V30 3883 C 369.463 0.687475 1.44034 0
M  V30 3884 C 369.663 -0.746801 1.8715 0
M  V30 3885 O 368.719 -1.51939 2.0167 0
M  V30 3886 C 370.032 1.68127 2.49307 0
M  V30 3887 C 371.58 1.69516 2.63122 0
M  V30 3888 C 372.055 2.67723 3.71603 0
M  V30 3889 N 373.546 2.66233 3.79044 0
M  V30 3890 C 374.281 3.38891 4.62537 0
M  V30 3891 N 373.777 4.21103 5.50131 0
M  V30 3892 N 375.57 3.27661 4.56721 0
M  V30 3893 H 367.721 1.90559 0.938135 0
M  V30 3894 H 369.984 0.821051 0.473897 0
M  V30 3895 H 369.69 2.70693 2.2454 0
M  V30 3896 H 369.564 1.46306 3.4767 0
M  V30 3897 H 371.951 0.676561 2.8724 0
M  V30 3898 H 372.032 1.95404 1.65079 0
M  V30 3899 H 371.676 3.69724 3.48233 0
M  V30 3900 H 371.606 2.39111 4.69184 0
M  V30 3901 H 374.097 2.06568 3.16446 0
M  V30 3902 H 374.41 4.73403 6.10827 0
M  V30 3903 H 372.755 4.25195 5.49759 0
M  V30 3904 H 375.946 2.62887 3.87309 0
M  V30 3905 H 376.119 3.84547 5.21562 0
M  V30 3906 N 369.525 -1.3858 0.750561 0
M  V30 3907 C 370.455 -2.33102 0.136237 0
M  V30 3908 C 371.436 -1.54713 -0.706965 0
M  V30 3909 O 372.621 -1.83043 -0.648769 0
M  V30 3910 C 369.751 -3.38882 -0.760017 0
M  V30 3911 C 368.705 -4.27995 -0.0197785 0
M  V30 3912 C 368.031 -5.24605 -1.03408 0
M  V30 3913 C 369.331 -5.09554 1.14684 0
M  V30 3914 H 371.025 -2.84726 0.925822 0
M  V30 3915 H 368.571 -1.36898 0.446654 0
M  V30 3916 H 370.524 -4.0397 -1.19943 0
M  V30 3917 H 369.248 -2.85734 -1.58189 0
M  V30 3918 H 367.907 -3.64409 0.400184 0
M  V30 3919 H 367.555 -4.67746 -1.84994 0
M  V30 3920 H 367.255 -5.85081 -0.543464 0
M  V30 3921 H 368.779 -5.9257 -1.47288 0
M  V30 3922 H 370.193 -5.67899 0.785118 0
M  V30 3923 H 368.59 -5.7925 1.56812 0
M  V30 3924 H 369.66 -4.4347 1.96118 0
M  V30 3925 N 371.003 -0.499398 -1.49478 0
M  V30 3926 C 372.251 0.0455996 -2.02049 0
M  V30 3927 C 372.572 1.37633 -1.38138 0
M  V30 3928 O 371.842 1.8842 -0.536166 0
M  V30 3929 H 370.422 0.0198416 -0.746736 0
M  V30 3930 H 373.084 -0.656274 -1.83519 0
M  V30 3931 H 372.18 0.176445 -3.11601 0
M  V30 3932 N 372.481 1.55866 -0.233164 0
M  V30 3933 C 373.444 2.1953 0.658715 0
M  V30 3934 C 374.444 1.16053 1.11303 0
M  V30 3935 O 375.634 1.41218 1.01996 0
M  V30 3936 C 372.766 2.82791 1.90373 0
M  V30 3937 H 373.959 2.99721 0.10347 0
M  V30 3938 H 371.512 1.56291 0.0164245 0
M  V30 3939 H 372.247 2.06501 2.50056 0
M  V30 3940 H 372.032 3.58578 1.58632 0
M  V30 3941 H 373.522 3.31556 2.53891 0
M  V30 3942 N 373.959 -0.0401083 1.57549 0
M  V30 3943 C 375.207 -0.731677 1.8839 0
M  V30 3944 C 375.528 -1.76481 0.829425 0
M  V30 3945 O 374.798 -1.95411 -0.1383 0
M  V30 3946 H 373.378 -0.273225 0.695239 0
M  V30 3947 H 376.04 -0.00867725 1.94898 0
M  V30 3948 H 375.136 -1.22816 2.86919 0
M  V30 3949 N 375.437 -1.54477 -0.31217 0
M  V30 3950 C 376.369 -1.81011 -1.40598 0
M  V30 3951 C 377.382 -0.692546 -1.47335 0
M  V30 3952 O 378.571 -0.969847 -1.49854 0
M  V30 3953 C 375.671 -1.92307 -2.79054 0
M  V30 3954 C 374.844 -3.22594 -2.95384 0
M  V30 3955 C 373.903 -3.24448 -4.1427 0
M  V30 3956 O 372.929 -3.98035 -4.06887 0
M  V30 3957 N 374.131 -2.49042 -5.24365 0
M  V30 3958 H 376.896 -2.75408 -1.18196 0
M  V30 3959 H 374.457 -1.53914 -0.502202 0
M  V30 3960 H 376.449 -1.90962 -3.56813 0
M  V30 3961 H 375.019 -1.04955 -2.94454 0
M  V30 3962 H 374.239 -3.36806 -2.04831 0
M  V30 3963 H 375.527 -4.08593 -3.03198 0
M  V30 3964 H 374.925 -1.88867 -5.33241 0
M  V30 3965 H 373.482 -2.53463 -6.005 0
M  V30 3966 N 376.915 0.57481 -1.46744 0
M  V30 3967 C 378.162 1.33272 -1.52462 0
M  V30 3968 C 378.49 1.93669 -0.179572 0
M  V30 3969 O 377.745 1.7743 0.825664 0
M  V30 3970 C 378.044 2.476 -2.57738 0
M  V30 3971 C 377.71 2.05146 -4.01529 0
M  V30 3972 C 376.372 1.93284 -4.40676 0
M  V30 3973 C 378.724 1.72506 -4.91824 0
M  V30 3974 C 376.052 1.47049 -5.67973 0
M  V30 3975 C 378.404 1.27748 -6.19567 0
M  V30 3976 C 377.068 1.14468 -6.57612 0
M  V30 3977 H 376.338 0.487678 -0.557899 0
M  V30 3978 H 378.985 0.646456 -1.80259 0
M  V30 3979 H 377.29 3.21708 -2.23632 0
M  V30 3980 H 378.987 3.05807 -2.5939 0
M  V30 3981 H 375.577 2.15316 -3.7059 0
M  V30 3982 H 379.761 1.80552 -4.62293 0
M  V30 3983 H 375.017 1.35417 -5.96215 0
M  V30 3984 H 379.191 1.01547 -6.88957 0
M  V30 3985 H 376.818 0.78419 -7.56145 0
M  V30 3986 N 378.394 1.34581 0.820102 0
M  V30 3987 C 379.642 1.26845 1.57336 0
M  V30 3988 C 379.963 -0.160667 1.94337 0
M  V30 3989 O 379.233 -1.09396 1.6251 0
M  V30 3990 H 377.813 0.466514 0.583415 0
M  V30 3991 H 380.475 1.68526 0.979027 0
M  V30 3992 H 379.571 1.87513 2.4949 0
M  V30 3993 N 379.872 -1.04064 1.18357 0
M  V30 3994 C 380.782 -2.15569 0.925596 0
M  V30 3995 C 381.798 -1.7365 -0.110295 0
M  V30 3996 O 382.974 -2.01273 0.0716218 0
M  V30 3997 C 380.039 -3.43704 0.454836 0
M  V30 3998 C 379.1 -4.00004 1.55869 0
M  V30 3999 C 378.333 -5.22023 1.1103 0
M  V30 4000 O 378.556 -5.70392 -0.0309756 0
M  V30 4001 O 377.49 -5.70856 1.90805 0
M  V30 4002 H 381.316 -2.40187 1.8586 0
M  V30 4003 H 378.901 -1.1402 0.965394 0
M  V30 4004 H 380.783 -4.20923 0.200382 0
M  V30 4005 H 379.458 -3.20559 -0.449876 0
M  V30 4006 H 378.365 -3.24172 1.86716 0
M  V30 4007 H 379.698 -4.2749 2.43953 0
M  V30 4008 N 381.35 -0.985608 -1.22978 0
M  V30 4009 C 382.596 -0.65836 -1.91816 0
M  V30 4010 C 382.929 0.806692 -1.76653 0
M  V30 4011 O 382.204 1.58252 -1.13078 0
M  V30 4012 C 382.487 -1.056 -3.44268 0
M  V30 4013 C 382.34 -2.57906 -3.68516 0
M  V30 4014 C 383.659 -0.603781 -4.35939 0
M  V30 4015 H 380.778 -0.24065 -0.696604 0
M  V30 4016 H 383.42 -1.22783 -1.44998 0
M  V30 4017 H 381.57 -0.571445 -3.84274 0
M  V30 4018 H 383.242 -3.13976 -3.3796 0
M  V30 4019 H 381.485 -3.00305 -3.13048 0
M  V30 4020 H 382.156 -2.80779 -4.75255 0
M  V30 4021 H 384.632 -1.01987 -4.03408 0
M  V30 4022 H 383.508 -0.910383 -5.41298 0
M  V30 4023 H 383.769 0.495761 -4.39312 0
M  V30 4024 N 382.828 1.3818 -0.7579 0
M  V30 4025 C 384.074 2.0078 -0.325423 0
M  V30 4026 C 384.429 1.59085 1.08211 0
M  V30 4027 O 383.722 0.820394 1.73148 0
M  V30 4028 C 383.916 3.55252 -0.391218 0
M  V30 4029 C 383.745 4.11947 -1.8036 0
M  V30 4030 C 382.515 4.43519 -2.42113 0
M  V30 4031 C 384.713 4.33908 -2.76095 0
M  V30 4032 N 382.695 4.85847 -3.75267 0
M  V30 4033 C 384.066 4.78692 -3.94023 0
M  V30 4034 C 386.121 4.16015 -2.73561 0
M  V30 4035 C 384.824 5.07459 -5.09782 0
M  V30 4036 C 386.85 4.45909 -3.88483 0
M  V30 4037 C 386.212 4.90921 -5.0515 0
M  V30 4038 H 382.311 0.764215 -0.165831 0
M  V30 4039 H 384.895 1.67724 -0.988776 0
M  V30 4040 H 383.066 3.87646 0.241886 0
M  V30 4041 H 384.798 4.04653 0.061989 0
M  V30 4042 H 381.553 4.32113 -1.93842 0
M  V30 4043 H 381.977 5.11339 -4.4369 0
M  V30 4044 H 386.619 3.80399 -1.84544 0
M  V30 4045 H 384.337 5.4197 -5.99412 0
M  V30 4046 H 387.923 4.33666 -3.87847 0
M  V30 4047 H 386.803 5.1361 -5.92599 0
M  V30 4048 N 384.306 0.507319 1.49211 0
M  V30 4049 C 385.239 -0.314509 2.26022 0
M  V30 4050 C 386.217 -0.964849 1.30879 0
M  V30 4051 O 387.401 -0.993707 1.6018 0
M  V30 4052 C 384.528 -1.44346 3.06402 0
M  V30 4053 C 383.574 -0.90685 4.16748 0
M  V30 4054 S 384.407 0.207392 5.35098 0
M  V30 4055 C 385.563 -0.924573 6.19033 0
M  V30 4056 H 385.796 0.337416 2.95379 0
M  V30 4057 H 383.329 0.292718 1.516 0
M  V30 4058 H 385.287 -2.09029 3.53295 0
M  V30 4059 H 383.948 -2.06702 2.36502 0
M  V30 4060 H 383.141 -1.75309 4.72528 0
M  V30 4061 H 382.743 -0.33712 3.72478 0
M  V30 4062 H 385.035 -1.82839 6.52362 0
M  V30 4063 H 385.978 -0.405248 7.06939 0
M  V30 4064 H 386.386 -1.19476 5.51712 0
M  V30 4065 N 385.784 -1.5574 0.241426 0
M  V30 4066 C 387.032 -1.98417 -0.384075 0
M  V30 4067 C 387.353 -1.13078 -1.58866 0
M  V30 4068 O 386.623 -0.212312 -1.94746 0
M  V30 4069 H 385.203 -0.732813 -0.144894 0
M  V30 4070 H 387.865 -1.9193 0.338943 0
M  V30 4071 H 386.961 -3.04219 -0.696939 0
M  V30 4072 N 387.262 0.0317525 -1.57568 0
M  V30 4073 C 388.492 0.733884 -1.93126 0
M  V30 4074 C 388.9 1.69563 -0.839352 0
M  V30 4075 O 388.243 1.82681 0.193175 0
M  V30 4076 C 388.305 1.54798 -3.24465 0
M  V30 4077 C 387.969 0.751304 -4.50782 0
M  V30 4078 C 388.966 0.0527632 -5.19873 0
M  V30 4079 C 386.651 0.706639 -4.97305 0
M  V30 4080 C 388.645 -0.679774 -6.33765 0
M  V30 4081 C 386.332 -0.0296449 -6.11093 0
M  V30 4082 C 387.33 -0.721614 -6.79177 0
M  V30 4083 O 387.018 -1.44595 -7.90789 0
M  V30 4084 H 386.75 0.211459 -0.642076 0
M  V30 4085 H 389.304 -0.00585615 -2.05399 0
M  V30 4086 H 387.534 2.33147 -3.08512 0
M  V30 4087 H 389.223 2.13247 -3.4537 0
M  V30 4088 H 389.989 0.0783188 -4.84937 0
M  V30 4089 H 385.868 1.23474 -4.44157 0
M  V30 4090 H 389.412 -1.22042 -6.86842 0
M  V30 4091 H 385.309 -0.0571331 -6.45475 0
M  V30 4092 H 386.077 -1.35935 -8.07133 0
M  V30 4093 N 388.74 1.54641 0.303973 0
M  V30 4094 C 389.97 1.77511 1.05705 0
M  V30 4095 C 390.378 0.533228 1.81531 0
M  V30 4096 O 389.721 -0.506423 1.76582 0
M  V30 4097 C 389.783 2.92779 2.08617 0
M  V30 4098 C 389.447 4.30977 1.52013 0
M  V30 4099 C 390.444 5.11115 0.9517 0
M  V30 4100 C 388.129 4.77571 1.55665 0
M  V30 4101 C 390.123 6.35966 0.427327 0
M  V30 4102 C 387.81 6.02384 1.02841 0
M  V30 4103 C 388.808 6.81417 0.464713 0
M  V30 4104 O 388.496 8.03881 -0.0555283 0
M  V30 4105 H 388.228 0.59579 0.319391 0
M  V30 4106 H 390.782 2.02401 0.349712 0
M  V30 4107 H 389.012 2.63506 2.83022 0
M  V30 4108 H 390.701 3.03252 2.69802 0
M  V30 4109 H 391.467 4.76264 0.916407 0
M  V30 4110 H 387.346 4.16085 1.9848 0
M  V30 4111 H 390.89 6.97599 -0.0133062 0
M  V30 4112 H 386.787 6.36723 1.06084 0
M  V30 4113 H 387.555 8.18479 0.0580522 0
M  V30 4114 N 390.218 -0.567019 1.47046 0
M  V30 4115 C 391.166 -1.69593 1.59188 0
M  V30 4116 C 392.16 -1.63046 0.459609 0
M  V30 4117 O 393.366 -1.6835 0.637058 0
M  V30 4118 H 389.741 -0.560993 0.500791 0
M  V30 4119 H 391.712 -1.56488 2.54075 0
M  V30 4120 C 390.461 -3.07964 1.61411 0
M  V30 4121 H 389.784 -3.13679 2.47881 0
M  V30 4122 H 391.224 -3.86671 1.73958 0
M  V30 4123 C 389.683 -3.35123 0.34559 0
M  V30 4124 O 390.213 -3.97812 -0.557521 0
M  V30 4125 N 388.419 -2.89699 0.22864 0
M  V30 4126 H 387.966 -2.38863 0.964479 0
M  V30 4127 H 387.924 -3.08242 -0.619192 0
M  V30 4128 N 391.696 -1.35014 -0.812953 0
M  V30 4129 C 392.944 -1.27678 -1.56661 0
M  V30 4130 C 393.265 0.150359 -1.94419 0
M  V30 4131 O 392.535 1.08532 -1.63088 0
M  V30 4132 H 391.115 -0.469602 -0.580933 0
M  V30 4133 H 393.777 -1.69043 -0.970076 0
M  V30 4134 H 392.873 -1.88833 -2.48492 0
M  V30 4135 N 393.175 1.03435 -1.18907 0
M  V30 4136 C 394.125 2.09924 -0.889706 0
M  V30 4137 C 395.109 1.60261 0.143216 0
M  V30 4138 O 396.301 1.76892 -0.0617122 0
M  V30 4139 C 393.43 3.40669 -0.424168 0
M  V30 4140 C 392.516 3.97082 -1.48952 0
M  V30 4141 N 392.907 4.27227 -2.70759 0
M  V30 4142 C 391.205 4.25029 -1.35152 0
M  V30 4143 C 391.906 4.7246 -3.39347 0
M  V30 4144 N 390.882 4.7366 -2.66735 0
M  V30 4145 H 394.684 2.31116 -1.81555 0
M  V30 4146 H 392.198 1.21246 -1.08042 0
M  V30 4147 H 394.195 4.16461 -0.191176 0
M  V30 4148 H 392.855 3.20901 0.495263 0
M  V30 4149 H 393.866 4.16678 -3.0757 0
M  V30 4150 H 390.543 4.14554 -0.495126 0
M  V30 4151 H 391.933 5.04751 -4.43481 0
M  V30 4152 N 394.653 0.992116 1.22453 0
M  V30 4153 C 395.881 0.685944 1.95198 0
M  V30 4154 C 396.296 -0.749233 1.73297 0
M  V30 4155 O 395.653 -1.50549 1.03156 0
M  V30 4156 C 395.704 0.981395 3.47924 0
M  V30 4157 O 395.425 2.36018 3.6909 0
M  V30 4158 C 396.926 0.692815 4.37853 0
M  V30 4159 H 394.146 0.253821 0.621141 0
M  V30 4160 H 396.69 1.32668 1.55626 0
M  V30 4161 H 394.845 0.386481 3.85467 0
M  V30 4162 H 395.259 2.45884 4.63294 0
M  V30 4163 H 396.733 0.949818 5.43767 0
M  V30 4164 H 397.21 -0.373181 4.37612 0
M  V30 4165 H 397.816 1.26874 4.05935 0
M  V30 4166 N 396.131 -1.37776 0.765217 0
M  V30 4167 C 397.078 -2.30342 0.145274 0
M  V30 4168 C 398.048 -1.5077 -0.696971 0
M  V30 4169 O 399.233 -1.79362 -0.650689 0
M  V30 4170 C 396.373 -3.37227 -0.732939 0
M  V30 4171 C 395.486 -4.31819 0.125199 0
M  V30 4172 C 394.621 -5.25777 -0.757107 0
M  V30 4173 C 393.66 -6.12012 0.103963 0
M  V30 4174 N 392.797 -6.98232 -0.735953 0
M  V30 4175 H 397.637 -2.8278 0.940195 0
M  V30 4176 H 395.174 -1.39211 0.475255 0
M  V30 4177 H 397.132 -3.97818 -1.25686 0
M  V30 4178 H 395.762 -2.86171 -1.49353 0
M  V30 4179 H 394.814 -3.7259 0.766865 0
M  V30 4180 H 396.126 -4.92509 0.789683 0
M  V30 4181 H 395.28 -5.91541 -1.34776 0
M  V30 4182 H 394.019 -4.65481 -1.45529 0
M  V30 4183 H 393.024 -5.45233 0.707197 0
M  V30 4184 H 394.249 -6.74379 0.799381 0
M  V30 4185 H 392.195 -6.40472 -1.41887 0
M  V30 4186 H 392.112 -7.55891 -0.128624 0
M  V30 4187 H 393.38 -7.68393 -1.31121 0
M  V30 4188 N 397.609 -0.515225 -1.4894 0
M  V30 4189 C 398.855 0.0242508 -2.02785 0
M  V30 4190 C 399.188 1.35323 -1.39289 0
M  V30 4191 O 398.463 1.87041 -0.533469 0
M  V30 4192 C 398.746 0.16184 -3.59736 0
M  V30 4193 C 398.599 -1.19127 -4.33738 0
M  V30 4194 C 399.918 0.895719 -4.30888 0
M  V30 4195 H 397.037 0.00733914 -0.736963 0
M  V30 4196 H 399.679 -0.669395 -1.77818 0
M  V30 4197 H 397.829 0.752624 -3.8114 0
M  V30 4198 H 399.501 -1.82202 -4.23792 0
M  V30 4199 H 397.744 -1.77695 -3.95736 0
M  V30 4200 H 398.415 -1.04815 -5.41957 0
M  V30 4201 H 400.891 0.394528 -4.14225 0
M  V30 4202 H 399.767 0.960859 -5.40425 0
M  V30 4203 H 400.028 1.9427 -3.97129 0
M  V30 4204 N 399.087 1.5561 -0.249682 0
M  V30 4205 C 400.05 2.20217 0.635394 0
M  V30 4206 C 401.05 1.17227 1.10066 0
M  V30 4207 O 402.24 1.42292 1.00492 0
M  V30 4208 C 399.372 2.84794 1.87363 0
M  V30 4209 H 400.565 2.99814 0.0716752 0
M  V30 4210 H 398.118 1.563 -0.000153234 0
M  V30 4211 H 398.853 2.09142 2.47851 0
M  V30 4212 H 398.638 3.60241 1.5482 0
M  V30 4213 H 400.128 3.3423 2.5036 0
M  V30 4214 N 400.565 -0.0233959 1.57583 0
M  V30 4215 C 401.811 -0.714119 1.89811 0
M  V30 4216 C 402.144 -1.74702 0.848113 0
M  V30 4217 O 401.419 -1.94023 -0.136135 0
M  V30 4218 C 401.702 -1.37853 3.32669 0
M  V30 4219 C 401.555 -0.358764 4.48367 0
M  V30 4220 C 402.874 -2.31101 3.7454 0
M  V30 4221 H 399.993 -0.25814 0.690314 0
M  V30 4222 H 402.635 0.0230927 1.89986 0
M  V30 4223 H 400.785 -2.00689 3.3265 0
M  V30 4224 H 402.457 0.268115 4.6052 0
M  V30 4225 H 400.7 0.321387 4.32608 0
M  V30 4226 H 401.371 -0.862242 5.45224 0
M  V30 4227 H 403.847 -1.78304 3.75961 0
M  V30 4228 H 402.723 -2.74567 4.75294 0
M  V30 4229 H 402.984 -3.18018 3.0711 0
M  V30 4230 N 402.043 -1.548 -0.295768 0
M  V30 4231 C 402.99 -1.86113 -1.36494 0
M  V30 4232 C 403.96 -0.7105 -1.50137 0
M  V30 4233 O 405.145 -0.959626 -1.64912 0
M  V30 4234 C 402.285 -2.11861 -2.72413 0
M  V30 4235 C 401.398 -3.39471 -2.67177 0
M  V30 4236 C 400.533 -3.55035 -3.95125 0
M  V30 4237 C 399.572 -4.76418 -3.84308 0
M  V30 4238 N 398.709 -4.8876 -5.04042 0
M  V30 4239 H 403.549 -2.77314 -1.09091 0
M  V30 4240 H 401.086 -1.37315 -0.52753 0
M  V30 4241 H 403.044 -2.24786 -3.51464 0
M  V30 4242 H 401.674 -1.2392 -2.98066 0
M  V30 4243 H 400.726 -3.35139 -1.79962 0
M  V30 4244 H 402.038 -4.28646 -2.55076 0
M  V30 4245 H 401.192 -3.67653 -4.82614 0
M  V30 4246 H 399.931 -2.64002 -4.10066 0
M  V30 4247 H 398.936 -4.63827 -2.95202 0
M  V30 4248 H 400.161 -5.68863 -3.70906 0
M  V30 4249 H 398.107 -4.00652 -5.19436 0
M  V30 4250 H 398.024 -5.71945 -4.94384 0
M  V30 4251 H 399.292 -5.0574 -5.93167 0
M  V30 4252 N 403.521 0.559213 -1.47345 0
M  V30 4253 C 404.746 1.34676 -1.57725 0
M  V30 4254 C 405.171 1.86723 -0.227164 0
M  V30 4255 O 404.529 1.6286 0.796642 0
M  V30 4256 C 404.577 2.49399 -2.60447 0
M  V30 4257 O 403.681 3.51567 -2.15578 0
M  V30 4258 H 403.022 0.400115 -0.52991 0
M  V30 4259 H 405.552 0.676009 -1.93109 0
M  V30 4260 H 405.562 2.95996 -2.80803 0
M  V30 4261 H 404.237 2.10873 -3.58477 0
M  V30 4262 H 402.814 3.11289 -2.05313 0
M  V30 4263 N 404.999 1.35443 0.805782 0
M  V30 4264 C 405.929 1.31095 1.93226 0
M  V30 4265 C 406.91 0.185244 1.69088 0
M  V30 4266 O 408.095 0.380332 1.90439 0
M  V30 4267 C 405.225 1.08299 3.29983 0
M  V30 4268 C 404.179 2.17519 3.68605 0
M  V30 4269 C 403.505 1.79887 5.03532 0
M  V30 4270 C 404.805 3.5949 3.78898 0
M  V30 4271 H 406.499 2.25352 1.97122 0
M  V30 4272 H 404.045 1.0848 0.946996 0
M  V30 4273 H 405.998 1.03897 4.08391 0
M  V30 4274 H 404.722 0.104885 3.26432 0
M  V30 4275 H 403.381 2.2102 2.92482 0
M  V30 4276 H 403.029 0.80693 4.96485 0
M  V30 4277 H 402.729 2.53001 5.30344 0
M  V30 4278 H 404.253 1.77011 5.84379 0
M  V30 4279 H 405.667 3.58307 4.47536 0
M  V30 4280 H 404.064 4.31371 4.1718 0
M  V30 4281 H 405.134 3.95584 2.80431 0
M  V30 4282 N 406.477 -1.02803 1.19454 0
M  V30 4283 C 407.424 -2.11099 0.933046 0
M  V30 4284 C 408.394 -1.65571 -0.132447 0
M  V30 4285 O 409.579 -1.90797 0.00987576 0
M  V30 4286 C 406.719 -3.41763 0.478747 0
M  V30 4287 C 405.832 -4.00833 1.6111 0
M  V30 4288 C 404.967 -5.19511 1.10825 0
M  V30 4289 C 404.006 -5.70639 2.21445 0
M  V30 4290 N 403.143 -6.80589 1.72461 0
M  V30 4291 H 407.983 -2.32804 1.86028 0
M  V30 4292 H 405.52 -1.14179 0.927441 0
M  V30 4293 H 407.478 -4.16736 0.196745 0
M  V30 4294 H 406.108 -3.20166 -0.411493 0
M  V30 4295 H 405.16 -3.23066 2.00829 0
M  V30 4296 H 406.472 -4.34794 2.4445 0
M  V30 4297 H 405.626 -6.01645 0.781533 0
M  V30 4298 H 404.365 -4.87086 0.244606 0
M  V30 4299 H 403.37 -4.87116 2.54947 0
M  V30 4300 H 404.595 -6.05102 3.08267 0
M  V30 4301 H 402.541 -6.50016 0.884056 0
M  V30 4302 H 402.458 -7.13681 2.49389 0
M  V30 4303 H 403.726 -7.66317 1.42755 0
M  V30 4304 N 407.956 -0.998596 -1.21925 0
M  V30 4305 C 408.888 -0.511879 -2.23411 0
M  V30 4306 C 409.901 0.396094 -1.57908 0
M  V30 4307 O 411.09 0.197316 -1.77406 0
M  V30 4308 C 408.19 0.276802 -3.37768 0
M  V30 4309 C 407.363 -0.628687 -4.32858 0
M  V30 4310 C 406.422 0.109272 -5.26087 0
M  V30 4311 O 405.448 -0.507237 -5.66935 0
M  V30 4312 N 406.65 1.38983 -5.63617 0
M  V30 4313 H 409.415 -1.38457 -2.658 0
M  V30 4314 H 406.976 -0.873981 -1.36283 0
M  V30 4315 H 408.968 0.77928 -3.97126 0
M  V30 4316 H 407.538 1.05063 -2.94415 0
M  V30 4317 H 406.758 -1.31175 -3.71735 0
M  V30 4318 H 408.046 -1.24514 -4.93329 0
M  V30 4319 H 407.444 1.91194 -5.32411 0
M  V30 4320 H 406.001 1.83739 -6.25367 0
M  V30 4321 N 409.434 1.37368 -0.772513 0
M  V30 4322 C 410.682 1.99279 -0.336516 0
M  V30 4323 C 411.003 1.6163 1.09091 0
M  V30 4324 O 410.273 0.882109 1.74916 0
M  V30 4325 H 408.853 0.737063 -0.121435 0
M  V30 4326 H 411.515 1.67836 -0.990809 0
M  V30 4327 H 410.611 3.09332 -0.414763 0
M  V30 4328 N 410.912 0.523116 1.48665 0
M  V30 4329 C 412.137 -0.0117284 2.07397 0
M  V30 4330 C 412.562 -1.28031 1.37803 0
M  V30 4331 O 411.92 -1.75836 0.441762 0
M  V30 4332 C 411.968 -0.225786 3.59892 0
M  V30 4333 O 411.072 -1.29592 3.91509 0
M  V30 4334 H 410.413 0.0360673 0.66302 0
M  V30 4335 H 412.943 0.729066 1.9117 0
M  V30 4336 H 412.953 -0.450552 4.05505 0
M  V30 4337 H 411.628 0.700944 4.09951 0
M  V30 4338 H 410.205 -1.05436 3.57684 0
M  V30 4339 N 412.39 -1.55475 0.257931 0
M  V30 4340 C 413.323 -2.179 -0.677862 0
M  V30 4341 C 414.301 -1.13448 -1.16483 0
M  V30 4342 O 415.485 -1.41889 -1.24095 0
M  V30 4343 C 412.612 -2.78851 -1.92249 0
M  V30 4344 C 411.658 -3.96454 -1.57246 0
M  V30 4345 S 412.491 -5.31349 -0.665501 0
M  V30 4346 C 413.647 -5.9576 -1.91889 0
M  V30 4347 H 413.88 -2.96934 -0.147396 0
M  V30 4348 H 411.413 -1.54342 0.0423023 0
M  V30 4349 H 413.371 -3.14602 -2.63697 0
M  V30 4350 H 412.032 -1.99742 -2.42409 0
M  V30 4351 H 411.225 -4.37731 -2.49814 0
M  V30 4352 H 410.827 -3.62038 -0.938325 0
M  V30 4353 H 413.119 -6.13947 -2.86487 0
M  V30 4354 H 414.062 -6.9094 -1.54942 0
M  V30 4355 H 414.47 -5.2494 -2.076 0
M  V30 4356 N 413.868 0.0150385 -1.57593 0
M  V30 4357 C 415.093 0.718067 -1.94573 0
M  V30 4358 C 415.518 1.6734 -0.859005 0
M  V30 4359 O 414.876 1.80362 0.184147 0
M  V30 4360 C 414.924 1.43918 -3.30636 0
M  V30 4361 O 414.028 2.55299 -3.23876 0
M  V30 4362 H 413.369 0.192125 -0.635597 0
M  V30 4363 H 415.899 -0.0336708 -2.04572 0
M  V30 4364 H 415.909 1.80598 -3.65853 0
M  V30 4365 H 414.584 0.738619 -4.09289 0
M  V30 4366 H 413.161 2.21058 -3.00312 0
M  V30 4367 N 415.346 1.54954 0.287554 0
M  V30 4368 C 416.757 1.65732 0.859634 0
M  V30 4369 C 417.108 0.574767 1.87592 0
M  V30 4370 O 416.233 -0.286299 2.14498 0
M  V30 4371 C 416.828 3.00438 1.56597 0
M  V30 4372 C 415.387 3.13292 2.08627 0
M  V30 4373 C 414.534 2.61473 0.923416 0
M  V30 4374 H 417.485 1.5857 0.0642338 0
M  V30 4375 H 417.506 2.92613 2.43224 0
M  V30 4376 H 417.018 3.79207 0.826053 0
M  V30 4377 H 415.119 2.39268 2.85625 0
M  V30 4378 H 415.232 4.19647 2.31157 0
M  V30 4379 H 413.596 2.18264 1.31275 0
M  V30 4380 H 414.379 3.42733 0.197241 0
M  V30 4381 N 416.824 -0.551391 1.4764 0
M  V30 4382 C 418.101 -1.31229 1.45046 0
M  V30 4383 C 418.481 -2.10563 0.150527 0
M  V30 4384 O 417.829 -2.11374 -0.867956 0
M  V30 4385 C 418.039 -2.21189 2.69956 0
M  V30 4386 C 419.387 -2.82021 3.1741 0
M  V30 4387 O 420.411 -2.31488 2.70724 0
M  V30 4388 O 419.27 -3.73885 3.98588 0
M  V30 4389 H 416.364 -0.591193 0.578291 0
M  V30 4390 H 418.91 -0.569813 1.59847 0
M  V30 4391 H 417.682 -1.62207 3.56096 0
M  V30 4392 H 417.305 -3.02722 2.57769 0
M  V30 4393 N 418.302 -1.35869 -0.798587 0
M  V30 4394 C 419.265 -1.29307 -1.89242 0
M  V30 4395 C 420.265 -0.202747 -1.59517 0
M  V30 4396 O 421.455 -0.456957 -1.681 0
M  V30 4397 C 418.587 -1.00229 -3.25833 0
M  V30 4398 H 419.78 -2.26576 -1.96478 0
M  V30 4399 H 417.333 -1.20509 -0.995358 0
M  V30 4400 H 418.068 -0.033801 -3.24282 0
M  V30 4401 H 417.853 -1.79121 -3.48795 0
M  V30 4402 H 419.343 -0.98219 -4.05885 0
M  V30 4403 N 419.78 1.02168 -1.19998 0
M  V30 4404 C 421.027 1.75685 -1.00702 0
M  V30 4405 C 421.355 1.88947 0.461426 0
M  V30 4406 O 420.61 1.40832 1.35885 0
M  V30 4407 C 420.909 3.18081 -1.62969 0
M  V30 4408 C 420.575 3.24809 -3.12746 0
M  V30 4409 C 419.237 3.26352 -3.53621 0
M  V30 4410 C 421.589 3.23379 -4.08749 0
M  V30 4411 C 418.917 3.2413 -4.89036 0
M  V30 4412 C 421.269 3.22698 -5.44104 0
M  V30 4413 C 419.933 3.22542 -5.84399 0
M  V30 4414 H 419.203 0.642877 -0.368496 0
M  V30 4415 H 421.85 1.19865 -1.49348 0
M  V30 4416 H 420.155 3.77027 -1.06573 0
M  V30 4417 H 421.852 3.73648 -1.45561 0
M  V30 4418 H 418.442 3.2434 -2.80181 0
M  V30 4419 H 422.626 3.21361 -3.78207 0
M  V30 4420 H 417.882 3.22338 -5.19527 0
M  V30 4421 H 422.056 3.20543 -6.18244 0
M  V30 4422 H 419.683 3.20575 -6.89301 0
M  V30 4423 N 421.258 1.00505 1.21394 0
M  V30 4424 C 422.188 0.585684 2.26035 0
M  V30 4425 C 423.169 -0.393525 1.65485 0
M  V30 4426 O 424.354 -0.281497 1.92149 0
M  V30 4427 C 421.484 -0.0884283 3.47187 0
M  V30 4428 C 420.438 0.810567 4.20254 0
M  V30 4429 C 419.764 0.00286382 5.347 0
M  V30 4430 C 421.064 2.1132 4.77641 0
M  V30 4431 H 422.758 1.46039 2.61368 0
M  V30 4432 H 420.304 0.703648 1.25638 0
M  V30 4433 H 422.257 -0.393286 4.19561 0
M  V30 4434 H 420.981 -0.997766 3.10986 0
M  V30 4435 H 419.64 1.09925 3.49731 0
M  V30 4436 H 419.288 -0.907765 4.94741 0
M  V30 4437 H 418.988 0.601444 5.84514 0
M  V30 4438 H 420.512 -0.295808 6.09883 0
M  V30 4439 H 421.926 1.87148 5.41893 0
M  V30 4440 H 420.323 2.66164 5.37845 0
M  V30 4441 H 421.393 2.78393 3.9702 0
M  V30 4442 N 422.737 -1.36956 0.779787 0
M  V30 4443 C 423.7 -2.2851 0.177662 0
M  V30 4444 C 424.7 -1.48393 -0.619377 0
M  V30 4445 O 425.89 -1.68505 -0.441785 0
M  V30 4446 C 423.022 -3.32428 -0.755279 0
M  V30 4447 H 424.215 -2.83269 0.984823 0
M  V30 4448 H 421.768 -1.46358 0.548544 0
M  V30 4449 H 422.503 -2.82808 -1.58714 0
M  V30 4450 H 422.288 -3.91659 -0.185817 0
M  V30 4451 H 423.778 -4.00824 -1.17174 0
M  V30 4452 N 424.215 -0.530993 -1.48385 0
M  V30 4453 C 425.125 0.23503 -2.3342 0
M  V30 4454 C 426.141 0.93801 -1.46552 0
M  V30 4455 O 427.317 0.912745 -1.7953 0
M  V30 4456 C 424.382 1.26778 -3.22689 0
M  V30 4457 C 423.443 0.575038 -4.25431 0
M  V30 4458 C 422.676 1.55858 -5.10435 0
M  V30 4459 O 422.899 2.79129 -4.97437 0
M  V30 4460 O 421.833 1.09742 -5.91811 0
M  V30 4461 H 425.659 -0.461794 -3.00169 0
M  V30 4462 H 423.244 -0.291903 -1.46521 0
M  V30 4463 H 425.126 1.86457 -3.77904 0
M  V30 4464 H 423.801 1.94699 -2.586 0
M  V30 4465 H 422.708 -0.0622782 -3.74048 0
M  V30 4466 H 424.041 -0.062253 -4.92161 0
M  V30 4467 N 425.693 1.55336 -0.266172 0
M  V30 4468 C 426.656 2.20878 0.612001 0
M  V30 4469 C 427.656 1.18388 1.08816 0
M  V30 4470 O 428.846 1.4335 0.989774 0
M  V30 4471 C 425.978 2.86765 1.84332 0
M  V30 4472 H 427.171 2.99873 0.0398718 0
M  V30 4473 H 424.724 1.56291 -0.0167309 0
M  V30 4474 H 425.459 2.11759 2.45619 0
M  V30 4475 H 425.244 3.61862 1.5099 0
M  V30 4476 H 426.734 3.36867 2.46801 0
M  V30 4477 N 427.171 -0.0066808 1.57599 0
M  V30 4478 C 428.119 -1.01851 2.09115 0
M  V30 4479 C 429.113 -1.36021 1.00969 0
M  V30 4480 O 430.319 -1.34663 1.19439 0
M  V30 4481 H 426.694 -0.346083 0.667631 0
M  V30 4482 H 428.665 -0.558394 2.93129 0
M  V30 4483 C 427.414 -2.30374 2.60429 0
M  V30 4484 H 426.737 -2.04947 3.43273 0
M  V30 4485 H 428.177 -2.99466 3.00161 0
M  V30 4486 C 426.636 -3.00893 1.51542 0
M  V30 4487 O 427.166 -3.91614 0.894484 0
M  V30 4488 N 425.372 -2.62603 1.2445 0
M  V30 4489 H 424.919 -1.88911 1.75129 0
M  V30 4490 H 424.877 -3.10101 0.518137 0
M  V30 4491 N 428.649 -1.55105 -0.279332 0
M  V30 4492 C 429.579 -1.90557 -1.34945 0
M  V30 4493 C 430.56 -0.766738 -1.51839 0
M  V30 4494 O 431.745 -1.02434 -1.64988 0
M  V30 4495 C 428.875 -2.17193 -2.71006 0
M  V30 4496 C 427.829 -3.33021 -2.68851 0
M  V30 4497 C 427.155 -3.45123 -4.08405 0
M  V30 4498 C 428.455 -4.69578 -2.28678 0
M  V30 4499 H 430.149 -2.80188 -1.05522 0
M  V30 4500 H 427.695 -1.34811 -0.506173 0
M  V30 4501 H 429.648 -2.40581 -3.45975 0
M  V30 4502 H 428.372 -1.24355 -3.01999 0
M  V30 4503 H 427.031 -3.0959 -1.9634 0
M  V30 4504 H 426.679 -2.49762 -4.3661 0
M  V30 4505 H 426.379 -4.22995 -4.07859 0
M  V30 4506 H 427.903 -3.70796 -4.85121 0
M  V30 4507 H 429.317 -4.92553 -2.93368 0
M  V30 4508 H 427.714 -5.5032 -2.39306 0
M  V30 4509 H 428.784 -4.68828 -1.23807 0
M  V30 4510 N 430.127 0.543554 -1.4793 0
M  V30 4511 C 431.06 1.66556 -1.55995 0
M  V30 4512 C 432.038 1.57315 -0.411205 0
M  V30 4513 O 433.222 1.7798 -0.620922 0
M  V30 4514 C 430.349 3.04883 -1.47527 0
M  V30 4515 C 429.395 3.32526 -2.67074 0
M  V30 4516 S 430.228 3.20282 -4.29162 0
M  V30 4517 C 431.384 4.61079 -4.23269 0
M  V30 4518 H 431.617 1.59462 -2.50917 0
M  V30 4519 H 429.15 0.725456 -1.36296 0
M  V30 4520 H 431.108 3.84665 -1.43328 0
M  V30 4521 H 429.769 3.09429 -0.539665 0
M  V30 4522 H 428.962 4.33403 -2.5725 0
M  V30 4523 H 428.564 2.60389 -2.68466 0
M  V30 4524 H 430.856 5.52318 -3.92365 0
M  V30 4525 H 431.799 4.75959 -5.24279 0
M  V30 4526 H 432.207 4.39766 -3.5393 0
M  V30 4527 N 431.605 1.3629 0.791371 0
M  V30 4528 C 432.552 1.30458 1.90393 0
M  V30 4529 C 433.522 0.173632 1.6519 0
M  V30 4530 O 434.707 0.35983 1.87376 0
M  V30 4531 C 431.847 1.09777 3.27174 0
M  V30 4532 C 430.96 2.31929 3.64462 0
M  V30 4533 C 430.095 2.04276 4.90352 0
M  V30 4534 C 429.134 3.224 5.20312 0
M  V30 4535 N 428.271 2.94424 6.37385 0
M  V30 4536 H 433.111 2.25589 1.94714 0
M  V30 4537 H 430.648 1.12122 0.952216 0
M  V30 4538 H 432.606 0.958133 4.06049 0
M  V30 4539 H 431.236 0.183014 3.22281 0
M  V30 4540 H 430.288 2.56703 2.80727 0
M  V30 4541 H 431.6 3.20085 3.82553 0
M  V30 4542 H 430.754 1.87231 5.77087 0
M  V30 4543 H 429.493 1.13428 4.74326 0
M  V30 4544 H 428.498 3.40005 4.32061 0
M  V30 4545 H 429.723 4.14071 5.38258 0
M  V30 4546 H 427.669 2.06185 6.22755 0
M  V30 4547 H 427.586 3.76118 6.55798 0
M  V30 4548 H 428.854 2.80953 7.27108 0
M  V30 4549 N 433.083 -1.0153 1.20538 0
M  V30 4550 C 434.015 -2.10224 0.913155 0
M  V30 4551 C 435.028 -1.62495 -0.0995998 0
M  V30 4552 O 436.217 -1.78014 0.131582 0
M  V30 4553 C 433.317 -3.37111 0.347717 0
M  V30 4554 C 432.49 -4.13971 1.41233 0
M  V30 4555 C 431.549 -5.19158 0.857976 0
M  V30 4556 O 430.575 -5.48 1.53897 0
M  V30 4557 N 431.777 -5.7955 -0.331966 0
M  V30 4558 H 434.542 -2.35879 1.84881 0
M  V30 4559 H 432.103 -1.17931 1.10923 0
M  V30 4560 H 434.095 -4.04683 -0.0373026 0
M  V30 4561 H 432.665 -3.08696 -0.492527 0
M  V30 4562 H 431.885 -3.41351 1.97163 0
M  V30 4563 H 433.173 -4.62103 2.12928 0
M  V30 4564 H 432.571 -5.58455 -0.902478 0
M  V30 4565 H 431.128 -6.48464 -0.65861 0
M  V30 4566 N 434.561 -1.01147 -1.20859 0
M  V30 4567 C 435.491 -0.597663 -2.25722 0
M  V30 4568 C 436.472 0.384744 -1.65692 0
M  V30 4569 O 437.657 0.271303 -1.92296 0
M  V30 4570 C 434.787 0.0700149 -3.47229 0
M  V30 4571 C 433.741 -0.832843 -4.19819 0
M  V30 4572 C 433.067 -0.0312202 -5.34691 0
M  V30 4573 C 434.367 -2.1385 -4.76514 0
M  V30 4574 H 436.061 -1.47423 -2.60589 0
M  V30 4575 H 433.607 -0.710301 -1.25263 0
M  V30 4576 H 435.56 0.37103 -4.19763 0
M  V30 4577 H 434.284 0.981259 -3.11511 0
M  V30 4578 H 432.943 -1.11778 -3.49144 0
M  V30 4579 H 432.591 0.881515 -4.95215 0
M  V30 4580 H 432.291 -0.632434 -5.84187 0
M  V30 4581 H 433.815 0.26346 -6.10031 0
M  V30 4582 H 435.229 -1.9002 -5.40893 0
M  V30 4583 H 433.626 -2.69012 -5.36426 0
M  V30 4584 H 434.696 -2.80495 -3.95538 0
M  V30 4585 N 436.039 1.36541 -0.78704 0
M  V30 4586 C 436.971 2.28761 -0.141773 0
M  V30 4587 C 437.984 1.49365 0.647599 0
M  V30 4588 O 439.173 1.71836 0.483173 0
M  V30 4589 C 436.273 3.28771 0.822368 0
M  V30 4590 C 435.446 4.3732 0.0835594 0
M  V30 4591 C 434.505 5.17307 0.963296 0
M  V30 4592 O 433.531 5.67638 0.421419 0
M  V30 4593 N 434.733 5.33515 2.28784 0
M  V30 4594 H 437.498 2.84777 -0.933919 0
M  V30 4595 H 435.059 1.48682 -0.640735 0
M  V30 4596 H 437.051 3.79169 1.41468 0
M  V30 4597 H 435.621 2.73412 1.5154 0
M  V30 4598 H 434.841 3.88118 -0.689809 0
M  V30 4599 H 436.129 5.0701 -0.426358 0
M  V30 4600 H 435.527 4.94234 2.75226 0
M  V30 4601 H 434.084 5.87165 2.82985 0
M  V30 4602 N 437.518 0.538854 1.48102 0
M  V30 4603 C 438.468 -0.23907 2.26743 0
M  V30 4604 C 439.452 -0.901923 1.33245 0
M  V30 4605 O 440.644 -0.803263 1.57723 0
M  V30 4606 C 437.773 -1.2799 3.18549 0
M  V30 4607 C 436.859 -0.621388 4.19523 0
M  V30 4608 N 437.25 0.298004 5.04921 0
M  V30 4609 C 435.548 -0.877533 4.37282 0
M  V30 4610 C 436.249 0.678757 5.77726 0
M  V30 4611 N 435.225 0.0377881 5.43587 0
M  V30 4612 H 439.027 0.468096 2.90148 0
M  V30 4613 H 436.541 0.357497 1.58416 0
M  V30 4614 H 438.538 -1.851 3.73555 0
M  V30 4615 H 437.198 -1.98835 2.567 0
M  V30 4616 H 438.209 0.671126 5.13533 0
M  V30 4617 H 434.886 -1.57588 3.86616 0
M  V30 4618 H 436.276 1.43316 6.56437 0
M  V30 4619 N 438.996 -1.55193 0.274407 0
M  V30 4620 C 439.928 -2.1989 -0.646595 0
M  V30 4621 C 440.941 -1.1834 -1.11801 0
M  V30 4622 O 442.13 -1.4507 -1.04004 0
M  V30 4623 C 439.23 -2.8104 -1.89393 0
M  V30 4624 C 438.403 -4.08274 -1.56943 0
M  V30 4625 C 437.462 -4.53478 -2.66916 0
M  V30 4626 O 436.488 -5.19267 -2.33132 0
M  V30 4627 N 437.69 -4.2356 -3.9696 0
M  V30 4628 H 440.455 -2.99556 -0.0928686 0
M  V30 4629 H 438.016 -1.61618 0.0954783 0
M  V30 4630 H 440.008 -3.08226 -2.62257 0
M  V30 4631 H 438.578 -2.05372 -2.35672 0
M  V30 4632 H 437.798 -3.88384 -0.674655 0
M  V30 4633 H 439.086 -4.91173 -1.32764 0
M  V30 4634 H 438.484 -3.70799 -4.27229 0
M  V30 4635 H 437.041 -4.55518 -4.66205 0
M  V30 4636 N 440.474 -0.00167713 -1.576 0
M  V30 4637 C 441.89 0.354422 -1.55615 0
M  V30 4638 C 442.09 1.74679 -1.00447 0
M  V30 4639 O 441.146 2.4428 -0.639022 0
M  V30 4640 C 442.459 0.22812 -2.99833 0
M  V30 4641 C 444.007 0.302934 -3.11531 0
M  V30 4642 C 444.482 0.205737 -4.57538 0
M  V30 4643 N 445.973 0.263584 -4.62449 0
M  V30 4644 C 446.708 0.211742 -5.73009 0
M  V30 4645 N 446.204 0.110399 -6.92712 0
M  V30 4646 N 447.997 0.263729 -5.61481 0
M  V30 4647 H 440.148 -0.912498 -1.918 0
M  V30 4648 H 442.411 -0.349928 -0.881053 0
M  V30 4649 H 442.117 -0.729934 -3.44042 0
M  V30 4650 H 441.991 1.00951 -3.6344 0
M  V30 4651 H 444.378 1.25143 -2.67251 0
M  V30 4652 H 444.459 -0.508357 -2.50698 0
M  V30 4653 H 444.103 -0.739225 -5.02492 0
M  V30 4654 H 444.033 1.03554 -5.16318 0
M  V30 4655 H 446.524 0.343173 -3.76339 0
M  V30 4656 H 446.837 0.0767828 -7.72762 0
M  V30 4657 H 445.182 0.0760025 -6.94958 0
M  V30 4658 H 448.373 0.34111 -4.66855 0
M  V30 4659 H 448.546 0.219862 -6.47627 0
M  V30 4660 N 441.952 1.55251 0.271103 0
M  V30 4661 C 442.882 1.9127 1.33933 0
M  V30 4662 C 443.863 0.77478 1.5143 0
M  V30 4663 O 445.048 1.03307 1.64442 0
M  V30 4664 C 442.178 2.18627 2.69851 0
M  V30 4665 C 441.132 3.34442 2.67081 0
M  V30 4666 C 440.458 3.47284 4.06569 0
M  V30 4667 C 441.758 4.70784 2.26185 0
M  V30 4668 H 443.452 2.80744 1.04035 0
M  V30 4669 H 440.998 1.35077 0.499017 0
M  V30 4670 H 442.951 2.42413 3.44694 0
M  V30 4671 H 441.675 1.25955 3.01335 0
M  V30 4672 H 440.334 3.10627 1.94695 0
M  V30 4673 H 439.982 2.52074 4.35279 0
M  V30 4674 H 439.682 4.25152 4.0561 0
M  V30 4675 H 441.206 3.73363 4.83148 0
M  V30 4676 H 442.62 4.94102 2.90751 0
M  V30 4677 H 441.017 5.51582 2.36384 0
M  V30 4678 H 442.087 4.69478 1.21319 0
M  V30 4679 N 443.43 -0.535701 1.48216 0
M  V30 4680 C 444.676 -1.29375 1.56173 0
M  V30 4681 C 445.009 -1.92804 0.232429 0
M  V30 4682 O 444.284 -1.78992 -0.761048 0
M  V30 4683 C 444.567 -2.38747 2.69577 0
M  V30 4684 C 444.42 -1.80046 4.12193 0
M  V30 4685 C 445.739 -3.40551 2.78771 0
M  V30 4686 H 442.858 -0.469027 0.568491 0
M  V30 4687 H 445.5 -0.597358 1.80365 0
M  V30 4688 H 443.65 -2.98147 2.4908 0
M  V30 4689 H 445.322 -1.24742 4.44114 0
M  V30 4690 H 443.565 -1.10609 4.19462 0
M  V30 4691 H 444.236 -2.59212 4.87353 0
M  V30 4692 H 446.712 -2.91099 2.97322 0
M  V30 4693 H 445.588 -4.1448 3.59857 0
M  V30 4694 H 445.849 -4.00746 1.86696 0
M  V30 4695 N 444.908 -1.36708 -0.784132 0
M  V30 4696 C 446.324 -1.17237 -1.08294 0
M  V30 4697 C 446.524 -5.93947e-05 -2.015 0
M  V30 4698 O 445.58 0.663686 -2.43622 0
M  V30 4699 C 446.893 -2.48557 -1.69233 0
M  V30 4700 C 448.441 -2.54968 -1.8155 0
M  V30 4701 C 448.916 -3.86388 -2.45904 0
M  V30 4702 N 450.407 -3.87762 -2.53367 0
M  V30 4703 C 451.142 -4.86191 -3.03983 0
M  V30 4704 N 450.638 -5.95015 -3.54866 0
M  V30 4705 N 452.431 -4.73606 -3.02743 0
M  V30 4706 H 444.582 -2.11758 -0.16501 0
M  V30 4707 H 446.845 -0.93822 -0.135822 0
M  V30 4708 H 446.551 -3.34638 -1.08215 0
M  V30 4709 H 446.425 -2.64748 -2.68679 0
M  V30 4710 H 448.812 -1.69302 -2.41704 0
M  V30 4711 H 448.893 -2.42672 -0.80895 0
M  V30 4712 H 448.537 -4.72462 -1.86392 0
M  V30 4713 H 448.467 -3.95982 -3.4714 0
M  V30 4714 H 450.958 -3.09145 -2.17343 0
M  V30 4715 H 451.271 -6.66086 -3.91854 0
M  V30 4716 H 449.616 -5.98676 -3.53003 0
M  V30 4717 H 452.807 -3.87717 -2.62284 0
M  V30 4718 H 452.98 -5.50473 -3.41881 0
M  V30 4719 N 446.386 1.0089 -1.21074 0
M  V30 4720 C 447.316 2.1145 -0.990523 0
M  V30 4721 C 448.297 1.69897 0.0831699 0
M  V30 4722 O 449.482 1.94052 -0.0758853 0
M  V30 4723 C 446.612 3.42914 -0.550177 0
M  V30 4724 C 445.566 3.98244 -1.56799 0
M  V30 4725 C 444.892 5.25568 -0.984013 0
M  V30 4726 C 446.192 4.30752 -2.95381 0
M  V30 4727 H 447.886 2.3013 -1.91521 0
M  V30 4728 H 445.432 1.10592 -0.92225 0
M  V30 4729 H 447.385 4.19653 -0.383305 0
M  V30 4730 H 446.109 3.24014 0.41015 0
M  V30 4731 H 444.768 3.23621 -1.72236 0
M  V30 4732 H 444.416 5.02998 -0.0155216 0
M  V30 4733 H 444.116 5.63551 -1.66384 0
M  V30 4734 H 445.64 6.04955 -0.828378 0
M  V30 4735 H 447.054 4.98349 -2.8341 0
M  V30 4736 H 445.451 4.79869 -3.60341 0
M  V30 4737 H 446.521 3.39192 -3.46521 0
M  V30 4738 N 447.864 1.01787 1.20321 0
M  V30 4739 C 449.094 0.72614 1.93419 0
M  V30 4740 C 449.502 -0.717317 1.75075 0
M  V30 4741 O 448.845 -1.49836 1.06278 0
M  V30 4742 C 448.907 0.983621 3.45782 0
M  V30 4743 C 448.571 2.41645 3.87888 0
M  V30 4744 C 449.568 3.39732 3.93545 0
M  V30 4745 C 447.253 2.75752 4.19841 0
M  V30 4746 C 449.247 4.69988 4.30569 0
M  V30 4747 C 446.934 4.06221 4.56539 0
M  V30 4748 C 447.932 5.0315 4.61876 0
M  V30 4749 O 447.62 6.31284 4.97731 0
M  V30 4750 H 447.352 0.265824 0.621541 0
M  V30 4751 H 449.906 1.3623 1.53722 0
M  V30 4752 H 448.136 0.290301 3.85609 0
M  V30 4753 H 449.825 0.683279 4.00108 0
M  V30 4754 H 450.591 3.14718 3.69022 0
M  V30 4755 H 446.47 2.00993 4.14877 0
M  V30 4756 H 450.014 5.45642 4.3465 0
M  V30 4757 H 445.911 4.31013 4.80518 0
M  V30 4758 H 446.679 6.35591 5.15719 0
M  V30 4759 N 449.342 -1.36122 0.79427 0
M  V30 4760 C 450.305 -2.28309 0.201889 0
M  V30 4761 C 451.305 -1.49041 -0.603603 0
M  V30 4762 O 452.495 -1.68964 -0.423888 0
M  V30 4763 C 449.627 -3.3321 -0.719978 0
M  V30 4764 H 450.82 -2.82208 1.01481 0
M  V30 4765 H 448.373 -1.45768 0.564037 0
M  V30 4766 H 449.108 -2.84475 -1.55706 0
M  V30 4767 H 448.893 -3.91835 -0.144266 0
M  V30 4768 H 450.383 -4.02044 -1.12916 0
M  V30 4769 N 450.82 -0.546701 -1.47814 0
M  V30 4770 C 452.066 -0.0187684 -2.02791 0
M  V30 4771 C 452.399 1.32338 -1.42128 0
M  V30 4772 O 451.674 1.85867 -0.573023 0
M  V30 4773 C 451.957 0.0854985 -3.59998 0
M  V30 4774 C 451.81 -1.283 -4.31114 0
M  V30 4775 C 453.129 0.80412 -4.32691 0
M  V30 4776 H 450.248 -0.0082946 -0.736953 0
M  V30 4777 H 452.89 -0.706962 -1.76358 0
M  V30 4778 H 451.04 0.671609 -3.82651 0
M  V30 4779 H 452.712 -1.91151 -4.19832 0
M  V30 4780 H 450.955 -1.86049 -3.91878 0
M  V30 4781 H 451.626 -1.16287 -5.39612 0
M  V30 4782 H 454.102 0.306576 -4.14969 0
M  V30 4783 H 452.978 0.846011 -5.42341 0
M  V30 4784 H 453.239 1.85802 -4.01161 0
M  V30 4785 N 452.299 1.55045 -0.282633 0
M  V30 4786 C 453.545 2.00056 0.332481 0
M  V30 4787 C 453.878 1.1708 1.54939 0
M  V30 4788 O 453.153 0.2427 1.9298 0
M  V30 4789 C 453.436 3.53086 0.70725 0
M  V30 4790 C 453.289 4.46813 -0.517521 0
M  V30 4791 C 454.608 4.12245 1.54084 0
M  V30 4792 H 451.727 0.727268 0.119373 0
M  V30 4793 H 454.369 1.85932 -0.391076 0
M  V30 4794 H 452.519 3.65253 1.32372 0
M  V30 4795 H 454.191 4.46579 -1.15607 0
M  V30 4796 H 452.434 4.18163 -1.1542 0
M  V30 4797 H 453.105 5.51595 -0.211426 0
M  V30 4798 H 455.581 4.03401 1.02013 0
M  V30 4799 H 454.457 5.19515 1.77186 0
M  V30 4800 H 454.718 3.62951 2.52427 0
M  V30 4801 N 453.777 0.010035 1.57597 0
M  V30 4802 C 455.005 -0.683413 1.95287 0
M  V30 4803 C 455.42 -1.66747 0.885481 0
M  V30 4804 O 454.777 -1.82003 -0.134629 0
M  V30 4805 C 454.828 -1.40652 3.33015 0
M  V30 4806 O 454.549 -0.461916 4.35658 0
M  V30 4807 C 456.05 -2.19356 3.85225 0
M  V30 4808 H 453.27 -0.189708 0.643624 0
M  V30 4809 H 455.814 0.0641359 2.04399 0
M  V30 4810 H 453.969 -2.10562 3.2518 0
M  V30 4811 H 454.383 -0.973215 5.15392 0
M  V30 4812 H 455.857 -2.65433 4.83993 0
M  V30 4813 H 456.334 -3.02457 3.18459 0
M  V30 4814 H 456.94 -1.54442 3.96267 0
M  V30 4815 N 455.255 -1.55392 -0.262866 0
M  V30 4816 C 456.187 -1.85392 -1.34768 0
M  V30 4817 C 457.2 -0.739069 -1.45057 0
M  V30 4818 O 458.389 -1.01703 -1.46693 0
M  V30 4819 C 455.489 -2.01088 -2.72795 0
M  V30 4820 C 454.662 -3.31828 -2.84972 0
M  V30 4821 C 453.721 -3.37464 -4.03738 0
M  V30 4822 O 452.747 -4.10778 -3.94018 0
M  V30 4823 N 453.949 -2.65599 -5.16176 0
M  V30 4824 H 456.714 -2.79029 -1.09375 0
M  V30 4825 H 454.275 -1.55434 -0.452981 0
M  V30 4826 H 456.267 -2.02217 -3.50557 0
M  V30 4827 H 454.837 -1.1427 -2.90966 0
M  V30 4828 H 454.057 -3.43152 -1.94012 0
M  V30 4829 H 455.345 -4.18032 -2.90045 0
M  V30 4830 H 454.743 -2.05736 -5.26962 0
M  V30 4831 H 453.3 -2.72439 -5.92132 0
M  V30 4832 N 456.733 0.527833 -1.48498 0
M  V30 4833 C 457.643 1.65907 -1.65867 0
M  V30 4834 C 458.659 1.6537 -0.541192 0
M  V30 4835 O 459.835 1.84282 -0.812534 0
M  V30 4836 C 456.9 3.02364 -1.69637 0
M  V30 4837 C 455.961 3.1374 -2.93028 0
M  V30 4838 C 455.194 4.43688 -2.96609 0
M  V30 4839 O 455.417 5.30913 -2.08538 0
M  V30 4840 O 454.351 4.59475 -3.88802 0
M  V30 4841 H 458.177 1.5419 -2.61647 0
M  V30 4842 H 455.762 0.701163 -1.31924 0
M  V30 4843 H 457.644 3.83515 -1.74625 0
M  V30 4844 H 456.319 3.14401 -0.770312 0
M  V30 4845 H 455.226 2.31877 -2.93571 0
M  V30 4846 H 456.559 3.06621 -3.85026 0
M  V30 4847 N 458.211 1.37122 0.776871 0
M  V30 4848 C 459.622 1.28667 1.35284 0
M  V30 4849 C 459.973 -0.0680035 1.96082 0
M  V30 4850 O 459.098 -0.969743 1.93455 0
M  V30 4851 C 459.693 2.32997 2.45963 0
M  V30 4852 C 458.252 2.28191 2.99342 0
M  V30 4853 C 457.399 2.17101 1.72517 0
M  V30 4854 H 460.35 1.47819 0.577527 0
M  V30 4855 H 460.371 1.97366 3.2531 0
M  V30 4856 H 459.883 3.3158 2.01684 0
M  V30 4857 H 457.984 1.33115 3.4801 0
M  V30 4858 H 458.097 3.21397 3.55304 0
M  V30 4859 H 456.461 1.63562 1.95242 0
M  V30 4860 H 457.244 3.17591 1.30348 0
M  V30 4861 N 459.689 -1.00246 1.21608 0
M  V30 4862 C 460.938 -1.73476 1.02902 0
M  V30 4863 C 461.251 -1.90643 -0.437561 0
M  V30 4864 O 462.457 -2.61105 -0.74407 0
M  V30 4865 C 460.913 -3.12079 1.79261 0
M  V30 4866 C 460.521 -3.02877 3.30106 0
M  V30 4867 C 462.265 -3.89421 1.68972 0
M  V30 4868 C 460.172 -4.36575 3.98944 0
M  V30 4869 H 459.102 -0.650408 0.381425 0
M  V30 4870 H 461.753 -1.11985 1.45367 0
M  V30 4871 H 460.135 -3.74196 1.2959 0
M  V30 4872 H 461.309 -2.49983 3.87098 0
M  V30 4873 H 459.624 -2.39022 3.40965 0
M  V30 4874 H 462.221 -4.88362 2.17731 0
M  V30 4875 H 462.564 -4.1122 0.648397 0
M  V30 4876 H 463.097 -3.33963 2.16133 0
M  V30 4877 H 459.836 -4.19978 5.03288 0
M  V30 4878 H 459.356 -4.8942 3.4674 0
M  V30 4879 H 461.035 -5.05364 4.04 0
M  V30 4880 N 461.167 -1.02423 -1.1978 0
M  V30 4881 C 462.397 -0.736387 -1.93031 0
M  V30 4882 C 462.805 0.708023 -1.75453 0
M  V30 4883 O 462.148 1.4927 -1.07071 0
M  V30 4884 C 462.21 -1.00194 -3.45255 0
M  V30 4885 C 461.874 -2.43698 -3.86601 0
M  V30 4886 C 462.871 -3.41814 -3.91738 0
M  V30 4887 C 460.556 -2.77975 -4.18372 0
M  V30 4888 C 462.55 -4.72265 -4.28071 0
M  V30 4889 C 460.237 -4.08636 -4.54378 0
M  V30 4890 C 461.235 -5.05592 -4.59201 0
M  V30 4891 O 460.923 -6.33914 -4.94376 0
M  V30 4892 H 460.655 -0.269116 -0.620123 0
M  V30 4893 H 463.209 -1.37043 -1.52998 0
M  V30 4894 H 461.439 -0.310747 -3.85449 0
M  V30 4895 H 463.128 -0.704488 -3.9974 0
M  V30 4896 H 463.894 -3.16671 -3.67348 0
M  V30 4897 H 459.773 -2.0319 -4.13805 0
M  V30 4898 H 463.317 -5.4794 -4.3175 0
M  V30 4899 H 459.214 -4.33556 -4.78226 0
M  V30 4900 H 459.982 -6.38317 -5.12341 0
M  V30 4901 N 462.645 1.35699 -0.801477 0
M  V30 4902 C 463.894 1.98165 -0.375979 0
M  V30 4903 C 464.207 1.64306 1.06127 0
M  V30 4904 O 465.413 2.20097 1.58964 0
M  V30 4905 C 463.869 3.54497 -0.621305 0
M  V30 4906 C 463.477 3.9727 -2.07076 0
M  V30 4907 C 465.221 4.23697 -0.26091 0
M  V30 4908 C 463.128 5.46427 -2.26211 0
M  V30 4909 H 462.058 0.741478 -0.136844 0
M  V30 4910 H 464.709 1.54834 -0.984814 0
M  V30 4911 H 463.091 3.95958 0.0574112 0
M  V30 4912 H 464.265 3.66974 -2.78687 0
M  V30 4913 H 462.58 3.40943 -2.39054 0
M  V30 4914 H 465.177 5.33334 -0.381994 0
M  V30 4915 H 465.52 4.0869 0.792344 0
M  V30 4916 H 466.053 3.87639 -0.893339 0
M  V30 4917 H 462.792 5.66396 -3.29963 0
M  V30 4918 H 462.312 5.78309 -1.59119 0
M  V30 4919 H 463.991 6.12819 -2.07513 0
M  V30 4920 N 464.123 0.554532 1.47522 0
M  V30 4921 C 465.372 0.0273458 2.01681 0
M  V30 4922 C 465.685 -1.32962 1.43459 0
M  V30 4923 O 466.891 -1.94657 1.89265 0
M  V30 4924 C 465.347 -0.00159057 3.599 0
M  V30 4925 C 464.955 1.35197 4.27113 0
M  V30 4926 C 466.699 -0.476311 4.21819 0
M  V30 4927 C 464.606 1.28229 5.77331 0
M  V30 4928 H 463.536 0.00645269 0.753972 0
M  V30 4929 H 466.187 0.701985 1.69542 0
M  V30 4930 H 464.569 -0.741821 3.8899 0
M  V30 4931 H 465.743 2.1097 4.09668 0
M  V30 4932 H 464.058 1.76441 3.77171 0
M  V30 4933 H 466.655 -0.5468 5.31897 0
M  V30 4934 H 466.998 -1.4877 3.8881 0
M  V30 4935 H 467.531 0.20898 3.97251 0
M  V30 4936 H 464.27 2.26959 6.14955 0
M  V30 4937 H 463.79 0.566314 5.97121 0
M  V30 4938 H 465.469 0.983226 6.39485 0
M  V30 4939 N 465.601 -1.54893 0.290851 0
M  V30 4940 C 466.829 -2.04343 -0.324288 0
M  V30 4941 C 467.244 -1.16859 -1.48289 0
M  V30 4942 O 466.601 -0.192018 -1.81487 0
M  V30 4943 C 466.652 -3.52756 -0.79026 0
M  V30 4944 O 466.373 -4.36913 0.322213 0
M  V30 4945 C 467.874 -4.18161 -1.4716 0
M  V30 4946 H 465.094 -0.667135 -0.0719173 0
M  V30 4947 H 467.638 -1.99981 0.427529 0
M  V30 4948 H 465.793 -3.57511 -1.49213 0
M  V30 4949 H 466.207 -5.24486 -0.0387372 0
M  V30 4950 H 467.681 -5.23562 -1.7489 0
M  V30 4951 H 468.158 -3.67282 -2.40834 0
M  V30 4952 H 468.764 -4.17454 -0.813178 0
M  V30 4953 N 467.08 -0.0183926 -1.57589 0
M  V30 4954 C 467.99 0.982943 -2.13015 0
M  V30 4955 C 469.006 1.36443 -1.07979 0
M  V30 4956 O 470.182 1.44802 -1.3998 0
M  V30 4957 C 467.247 2.25024 -2.63752 0
M  V30 4958 C 466.308 1.93018 -3.83461 0
M  V30 4959 C 465.541 3.13706 -4.31769 0
M  V30 4960 O 465.764 4.2601 -3.79305 0
M  V30 4961 O 464.698 2.96629 -5.23732 0
M  V30 4962 H 468.524 0.541709 -2.9883 0
M  V30 4963 H 466.109 0.201565 -1.48034 0
M  V30 4964 H 467.991 2.99441 -2.96502 0
M  V30 4965 H 466.666 2.68349 -1.81026 0
M  V30 4966 H 465.573 1.16019 -3.55655 0
M  V30 4967 H 466.906 1.54516 -4.67317 0
M  V30 4968 N 468.558 1.5553 0.254621 0
M  V30 4969 C 469.788 1.80784 1.00004 0
M  V30 4970 C 470.196 0.59071 1.79742 0
M  V30 4971 O 469.539 -0.449988 1.78103 0
M  V30 4972 C 469.601 2.99268 1.99196 0
M  V30 4973 C 469.265 4.35595 1.38224 0
M  V30 4974 C 470.262 5.13884 0.788611 0
M  V30 4975 C 467.947 4.82281 1.40393 0
M  V30 4976 C 469.941 6.37004 0.224783 0
M  V30 4977 C 467.628 6.05351 0.836243 0
M  V30 4978 C 468.626 6.82551 0.24769 0
M  V30 4979 O 468.314 8.03297 -0.311249 0
M  V30 4980 H 468.046 0.60565 0.300274 0
M  V30 4981 H 470.6 2.03411 0.285143 0
M  V30 4982 H 468.83 2.72377 2.74496 0
M  V30 4983 H 470.519 3.11682 2.60018 0
M  V30 4984 H 471.285 4.78938 0.764423 0
M  V30 4985 H 467.164 4.22189 1.85142 0
M  V30 4986 H 470.708 6.97203 -0.235235 0
M  V30 4987 H 466.605 6.39776 0.857733 0
M  V30 4988 H 467.373 8.1825 -0.20237 0
M  V30 4989 N 470.036 -0.519951 1.48776 0
M  V30 4990 C 470.969 -1.64053 1.58625 0
M  V30 4991 C 471.947 -1.5664 0.43618 0
M  V30 4992 O 473.131 -1.76969 0.649159 0
M  V30 4993 C 470.258 -3.02497 1.52359 0
M  V30 4994 C 469.304 -3.28235 2.72331 0
M  V30 4995 S 470.137 -3.13414 4.34203 0
M  V30 4996 C 471.293 -4.54287 4.30551 0
M  V30 4997 H 471.526 -1.5545 2.53422 0
M  V30 4998 H 469.059 -0.703681 1.37433 0
M  V30 4999 H 471.017 -3.82336 1.4943 0
M  V30 5000 H 469.678 -3.08531 0.588824 0
M  V30 5001 H 468.871 -4.29256 2.64113 0
M  V30 5002 H 468.473 -2.56085 2.72574 0
M  V30 5003 H 470.765 -5.46006 4.01103 0
M  V30 5004 H 471.708 -4.67558 5.31785 0
M  V30 5005 H 472.116 -4.34079 3.60881 0
M  V30 5006 N 471.514 -1.37532 -0.769588 0
M  V30 5007 C 472.424 -1.35668 -1.91393 0
M  V30 5008 C 473.44 -0.255954 -1.72107 0
M  V30 5009 O 474.616 -0.491704 -1.95305 0
M  V30 5010 C 471.681 -1.16481 -3.26547 0
M  V30 5011 C 470.742 -2.36212 -3.58472 0
M  V30 5012 C 469.975 -2.17932 -4.87177 0
M  V30 5013 O 470.198 -1.1647 -5.58382 0
M  V30 5014 O 469.132 -3.06167 -5.18214 0
M  V30 5015 H 472.958 -2.32055 -1.95918 0
M  V30 5016 H 470.543 -1.18284 -0.912641 0
M  V30 5017 H 472.425 -1.07778 -4.07384 0
M  V30 5018 H 471.1 -0.231687 -3.2287 0
M  V30 5019 H 470.007 -2.50488 -2.77861 0
M  V30 5020 H 471.34 -3.281 -3.66894 0
M  V30 5021 N 472.992 0.995999 -1.22138 0
M  V30 5022 C 473.94 2.10673 -0.985876 0
M  V30 5023 C 474.934 1.69255 0.0699553 0
M  V30 5024 O 476.14 1.79812 -0.0822176 0
M  V30 5025 H 472.515 0.688865 -0.30161 0
M  V30 5026 H 474.486 2.27711 -1.92848 0
M  V30 5027 C 473.235 3.42881 -0.576909 0
M  V30 5028 H 472.558 3.75191 -1.38101 0
M  V30 5029 H 473.998 4.21589 -0.451518 0
M  V30 5030 C 472.457 3.29265 0.713196 0
M  V30 5031 O 472.987 3.60777 1.76643 0
M  V30 5032 N 471.193 2.82456 0.683162 0
M  V30 5033 H 470.74 2.5701 -0.174242 0
M  V30 5034 H 470.698 2.73727 1.54663 0
M  V30 5035 N 474.47 1.03057 1.19235 0
M  V30 5036 C 475.718 0.726581 1.88587 0
M  V30 5037 C 476.039 -0.747227 1.80115 0
M  V30 5038 O 475.309 -1.53849 1.21274 0
M  V30 5039 H 473.889 0.265768 0.698124 0
M  V30 5040 H 476.551 1.30516 1.44746 0
M  V30 5041 H 475.647 1.0224 2.94879 0
M  V30 5042 N 475.948 -1.35272 0.808662 0
M  V30 5043 C 477.173 -2.03477 0.401475 0
M  V30 5044 C 477.598 -1.60537 -0.980279 0
M  V30 5045 O 476.956 -0.78304 -1.63518 0
M  V30 5046 C 477.004 -3.57181 0.495354 0
M  V30 5047 O 476.108 -4.09474 -0.490397 0
M  V30 5048 H 475.449 -0.642561 0.167366 0
M  V30 5049 H 477.979 -1.72824 1.09512 0
M  V30 5050 H 477.989 -4.06356 0.365912 0
M  V30 5051 H 476.664 -3.87784 1.5032 0
M  V30 5052 H 475.241 -3.71516 -0.321023 0
M  V30 5053 N 477.426 -0.562348 -1.47226 0
M  V30 5054 C 478.356 0.170627 -2.32876 0
M  V30 5055 C 479.337 0.903748 -1.44106 0
M  V30 5056 O 480.522 0.883206 -1.72954 0
M  V30 5057 C 477.652 1.19786 -3.25989 0
M  V30 5058 C 476.606 0.580875 -4.2404 0
M  V30 5059 C 475.932 1.71311 -5.06514 0
M  V30 5060 C 477.232 -0.468714 -5.20193 0
M  V30 5061 H 478.926 -0.544441 -2.94408 0
M  V30 5062 H 476.472 -0.263271 -1.41573 0
M  V30 5063 H 478.425 1.71884 -3.84752 0
M  V30 5064 H 477.149 1.94294 -2.62521 0
M  V30 5065 H 475.808 0.0811538 -3.6651 0
M  V30 5066 H 475.456 2.44736 -4.39447 0
M  V30 5067 H 475.156 1.30604 -5.72902 0
M  V30 5068 H 476.68 2.23725 -5.68137 0
M  V30 5069 H 478.094 -0.0336028 -5.7329 0
M  V30 5070 H 476.491 -0.794957 -5.94811 0
M  V30 5071 H 477.561 -1.36269 -4.65359 0
M  V30 5072 N 478.904 1.54736 -0.299062 0
M  V30 5073 C 480.15 2.00397 0.311244 0
M  V30 5074 C 480.483 1.18716 1.53688 0
M  V30 5075 O 479.758 0.263154 1.92712 0
M  V30 5076 C 480.041 3.53817 0.669761 0
M  V30 5077 C 479.894 4.46239 -0.564882 0
M  V30 5078 C 481.213 4.13856 1.49702 0
M  V30 5079 H 478.332 0.728493 0.111653 0
M  V30 5080 H 480.974 1.85506 -0.410774 0
M  V30 5081 H 479.124 3.66637 1.28491 0
M  V30 5082 H 480.796 4.45328 -1.20337 0
M  V30 5083 H 479.039 4.16916 -1.19849 0
M  V30 5084 H 479.71 5.5134 -0.269918 0
M  V30 5085 H 482.186 4.04461 0.977284 0
M  V30 5086 H 481.062 5.21365 1.71666 0
M  V30 5087 H 481.323 3.65608 2.48563 0
M  V30 5088 N 480.382 0.0267497 1.57577 0
M  V30 5089 C 481.659 -0.690926 1.82991 0
M  V30 5090 C 482.039 -1.90471 0.910164 0
M  V30 5091 O 481.387 -2.28474 -0.0347985 0
M  V30 5092 C 481.597 -1.07139 3.32148 0
M  V30 5093 C 482.945 -1.46402 3.98562 0
M  V30 5094 O 483.969 -1.16443 3.36629 0
M  V30 5095 O 482.828 -2.02214 5.07712 0
M  V30 5096 H 479.922 -0.338747 0.75444 0
M  V30 5097 H 482.468 0.0542506 1.69613 0
M  V30 5098 H 481.24 -0.207394 3.9075 0
M  V30 5099 H 480.863 -1.87481 3.50623 0
M  V30 5100 N 481.861 -1.55662 -0.24637 0
M  V30 5101 C 483.108 -1.77519 -0.974335 0
M  V30 5102 C 483.436 -0.591165 -1.85298 0
M  V30 5103 O 482.691 0.425497 -1.91018 0
M  V30 5104 C 482.99 -3.04885 -1.86494 0
M  V30 5105 C 482.656 -4.36209 -1.14161 0
M  V30 5106 C 481.318 -4.71896 -0.941701 0
M  V30 5107 C 483.67 -5.17391 -0.628957 0
M  V30 5108 C 480.998 -5.86299 -0.216852 0
M  V30 5109 C 483.35 -6.32546 0.0824273 0
M  V30 5110 C 482.014 -6.66853 0.293807 0
M  V30 5111 H 481.284 -0.649588 -0.356535 0
M  V30 5112 H 483.931 -1.89934 -0.244394 0
M  V30 5113 H 482.236 -2.87484 -2.66196 0
M  V30 5114 H 483.933 -3.18994 -2.42989 0
M  V30 5115 H 480.523 -4.08174 -1.30736 0
M  V30 5116 H 484.707 -4.90276 -0.770943 0
M  V30 5117 H 479.963 -6.11385 -0.0426124 0
M  V30 5118 H 484.137 -6.94693 0.487292 0
M  V30 5119 H 481.764 -7.55349 0.857428 0
M  V30 5120 N 483.339 0.512053 -1.4905 0
M  V30 5121 C 484.269 1.62365 -1.67809 0
M  V30 5122 C 485.25 1.61737 -0.526809 0
M  V30 5123 O 486.435 1.78651 -0.761404 0
M  V30 5124 C 483.565 3.00895 -1.73435 0
M  V30 5125 C 482.519 3.16387 -2.88242 0
M  V30 5126 C 481.845 4.56157 -2.78971 0
M  V30 5127 C 483.145 2.97457 -4.29321 0
M  V30 5128 H 484.839 1.46921 -2.60873 0
M  V30 5129 H 482.385 0.705379 -1.2554 0
M  V30 5130 H 484.338 3.78549 -1.85145 0
M  V30 5131 H 483.062 3.17403 -0.769619 0
M  V30 5132 H 481.721 2.41155 -2.76116 0
M  V30 5133 H 481.369 4.69525 -1.8043 0
M  V30 5134 H 481.069 4.67465 -3.5602 0
M  V30 5135 H 482.593 5.35886 -2.92675 0
M  V30 5136 H 484.007 3.64888 -4.42187 0
M  V30 5137 H 482.404 3.20245 -5.07507 0
M  V30 5138 H 483.474 1.93692 -4.44535 0
M  V30 5139 N 484.817 1.37938 0.762283 0
M  V30 5140 C 485.764 1.34467 1.87583 0
M  V30 5141 C 486.734 0.208633 1.64785 0
M  V30 5142 O 487.919 0.399494 1.86571 0
M  V30 5143 C 485.059 1.16692 3.24772 0
M  V30 5144 C 484.172 2.39608 3.59461 0
M  V30 5145 C 483.307 2.14631 4.85908 0
M  V30 5146 C 482.346 3.33364 5.13357 0
M  V30 5147 N 481.483 3.07877 6.30996 0
M  V30 5148 H 486.323 2.29669 1.89885 0
M  V30 5149 H 483.86 1.14116 0.928219 0
M  V30 5150 H 485.818 1.04405 4.03925 0
M  V30 5151 H 484.448 0.251333 3.2182 0
M  V30 5152 H 483.5 2.626 2.75219 0
M  V30 5153 H 484.812 3.28128 3.75678 0
M  V30 5154 H 483.966 1.99429 5.72986 0
M  V30 5155 H 482.705 1.23463 4.71814 0
M  V30 5156 H 481.71 3.49094 4.24751 0
M  V30 5157 H 482.935 4.25395 5.29354 0
M  V30 5158 H 480.881 2.19348 6.18241 0
M  V30 5159 H 480.798 3.89944 6.47673 0
M  V30 5160 H 482.066 2.96313 7.20985 0
M  V30 5161 N 486.295 -0.989507 1.22664 0
M  V30 5162 C 487.523 -1.76496 1.07967 0
M  V30 5163 C 487.938 -1.85148 -0.369543 0
M  V30 5164 O 487.295 -1.32408 -1.25596 0
M  V30 5165 C 487.346 -3.19642 1.68853 0
M  V30 5166 O 487.067 -3.11453 3.08105 0
M  V30 5167 C 488.568 -4.13621 1.59475 0
M  V30 5168 H 485.788 -0.55418 0.378319 0
M  V30 5169 H 488.332 -1.24378 1.62328 0
M  V30 5170 H 486.487 -3.68816 1.18547 0
M  V30 5171 H 486.901 -4.01499 3.37489 0
M  V30 5172 H 488.375 -5.11801 2.06795 0
M  V30 5173 H 488.852 -4.35718 0.55191 0
M  V30 5174 H 489.458 -3.70346 2.09103 0
M  V30 5175 N 487.773 -1.03688 -1.18687 0
M  V30 5176 C 489.184 -0.766488 -1.70241 0
M  V30 5177 C 489.535 0.713052 -1.82784 0
M  V30 5178 O 488.66 1.55529 -1.50465 0
M  V30 5179 C 489.255 -1.38475 -3.09209 0
M  V30 5180 C 487.814 -1.16276 -3.5799 0
M  V30 5181 C 486.961 -1.4778 -2.34641 0
M  V30 5182 H 489.912 -1.20378 -1.03415 0
M  V30 5183 H 489.933 -0.785939 -3.72295 0
M  V30 5184 H 489.445 -2.46157 -3.00048 0
M  V30 5185 H 487.546 -0.104508 -3.72453 0
M  V30 5186 H 487.659 -1.8571 -4.41643 0
M  V30 5187 H 486.023 -0.897366 -2.38368 0
M  V30 5188 H 486.806 -2.56562 -2.28102 0
M  V30 5189 N 489.251 1.34841 -0.815825 0
M  V30 5190 C 490.476 2.03261 -0.41226 0
M  V30 5191 C 490.901 1.61055 0.971751 0
M  V30 5192 O 490.259 0.7917 1.63101 0
M  V30 5193 C 490.307 3.56914 -0.514289 0
M  V30 5194 O 489.411 4.09728 0.468675 0
M  V30 5195 H 488.752 0.641664 -0.170771 0
M  V30 5196 H 491.282 1.72241 -1.10427 0
M  V30 5197 H 491.292 4.06156 -0.387457 0
M  V30 5198 H 489.967 3.86982 -1.52375 0
M  V30 5199 H 488.544 3.71681 0.301316 0
M  V30 5200 N 490.729 0.570148 1.46925 0
M  V30 5201 C 491.977 0.0508523 2.02036 0
M  V30 5202 C 492.298 -1.30885 1.44548 0
M  V30 5203 O 491.568 -1.85647 0.625453 0
M  V30 5204 H 490.148 0.0158088 0.746833 0
M  V30 5205 H 492.81 0.743086 1.80178 0
M  V30 5206 H 491.906 -0.027575 3.12088 0
M  V30 5207 N 492.207 -1.54576 0.307264 0
M  V30 5208 C 493.456 -1.99442 -0.300976 0
M  V30 5209 C 493.769 -1.19928 -1.5452 0
M  V30 5210 O 494.975 -1.55092 -2.22842 0
M  V30 5211 C 493.431 -3.55084 -0.586809 0
M  V30 5212 C 493.039 -4.43413 0.639438 0
M  V30 5213 C 494.783 -4.0846 -1.1559 0
M  V30 5214 C 492.69 -5.90499 0.326411 0
M  V30 5215 H 491.62 -0.744986 -0.116238 0
M  V30 5216 H 494.271 -1.787 0.416947 0
M  V30 5217 H 492.653 -3.71749 -1.36449 0
M  V30 5218 H 493.827 -4.38522 1.41545 0
M  V30 5219 H 492.142 -4.00842 1.1276 0
M  V30 5220 H 494.739 -5.15926 -1.40445 0
M  V30 5221 H 495.082 -3.59443 -2.10015 0
M  V30 5222 H 495.615 -3.95362 -0.439778 0
M  V30 5223 H 492.354 -6.43676 1.23939 0
M  V30 5224 H 491.874 -5.98382 -0.412212 0
M  V30 5225 H 493.553 -6.46962 -0.0697393 0
M  V30 5226 N 493.685 -0.035106 -1.57561 0
M  V30 5227 C 494.632 0.94474 -2.10578 0
M  V30 5228 C 495.602 1.3192 -1.00927 0
M  V30 5229 O 496.787 1.41147 -1.28382 0
M  V30 5230 C 493.927 2.21982 -2.64231 0
M  V30 5231 C 493.04 1.90128 -3.87911 0
M  V30 5232 C 492.175 3.11975 -4.29936 0
M  V30 5233 C 491.214 2.75968 -5.46359 0
M  V30 5234 N 490.351 3.90459 -5.83512 0
M  V30 5235 H 495.191 0.485717 -2.94015 0
M  V30 5236 H 492.728 0.228143 -1.4532 0
M  V30 5237 H 494.686 2.96572 -2.9343 0
M  V30 5238 H 493.316 2.6549 -1.83616 0
M  V30 5239 H 492.368 1.05755 -3.65404 0
M  V30 5240 H 493.68 1.59613 -4.72573 0
M  V30 5241 H 492.834 3.9488 -4.60603 0
M  V30 5242 H 491.573 3.45657 -3.44053 0
M  V30 5243 H 490.578 1.91478 -5.1538 0
M  V30 5244 H 491.803 2.43497 -6.33945 0
M  V30 5245 H 489.749 4.23971 -5.00584 0
M  V30 5246 H 489.666 3.63588 -6.62827 0
M  V30 5247 H 490.934 4.7405 -6.18787 0
M  V30 5248 N 495.163 1.55791 0.238111 0
M  V30 5249 C 496.093 1.94068 1.29846 0
M  V30 5250 C 497.074 0.806726 1.49753 0
M  V30 5251 O 498.259 1.06772 1.62214 0
M  V30 5252 C 495.389 2.24302 2.65153 0
M  V30 5253 C 494.343 3.40032 2.59927 0
M  V30 5254 C 493.669 3.55829 3.99111 0
M  V30 5255 C 494.969 4.75476 2.16148 0
M  V30 5256 H 496.663 2.82887 0.980563 0
M  V30 5257 H 494.209 1.36105 0.470253 0
M  V30 5258 H 496.162 2.4967 3.39475 0
M  V30 5259 H 494.886 1.32318 2.98596 0
M  V30 5260 H 493.545 3.14687 1.88063 0
M  V30 5261 H 493.193 2.6125 4.29834 0
M  V30 5262 H 492.893 4.3366 3.96501 0
M  V30 5263 H 494.417 3.83528 4.7512 0
M  V30 5264 H 495.831 5.00158 2.80205 0
M  V30 5265 H 494.228 5.56472 2.24631 0
M  V30 5266 H 495.298 4.71946 1.11333 0
M  V30 5267 N 496.642 -0.504142 1.49319 0
M  V30 5268 C 497.87 -1.28256 1.62351 0
M  V30 5269 C 498.285 -1.86502 0.293682 0
M  V30 5270 O 497.642 -1.67678 -0.720449 0
M  V30 5271 C 497.693 -2.41507 2.68992 0
M  V30 5272 O 497.414 -1.85656 3.96817 0
M  V30 5273 C 498.915 -3.32929 2.927 0
M  V30 5274 H 496.135 -0.389115 0.546654 0
M  V30 5275 H 498.679 -0.605531 1.95329 0
M  V30 5276 H 496.834 -3.05046 2.38801 0
M  V30 5277 H 497.248 -2.59981 4.55533 0
M  V30 5278 H 498.722 -4.0868 3.71058 0
M  V30 5279 H 499.199 -3.89733 2.02496 0
M  V30 5280 H 499.805 -2.75158 3.24296 0
M  V30 5281 N 498.12 -1.38341 -0.754957 0
M  V30 5282 C 499.369 -1.33791 -1.5094 0
M  V30 5283 C 499.682 0.0699267 -1.95475 0
M  V30 5284 O 500.888 0.237956 -2.70455 0
M  V30 5285 C 499.344 -2.34934 -2.72643 0
M  V30 5286 C 498.952 -3.81332 -2.35138 0
M  V30 5287 C 500.696 -2.39425 -3.50536 0
M  V30 5288 C 498.603 -4.74164 -3.53444 0
M  V30 5289 H 497.533 -0.497314 -0.566741 0
M  V30 5290 H 500.184 -1.63888 -0.825403 0
M  V30 5291 H 498.566 -1.97878 -3.43017 0
M  V30 5292 H 499.74 -4.27319 -1.7244 0
M  V30 5293 H 498.055 -3.79946 -1.70382 0
M  V30 5294 H 500.652 -3.0598 -4.38498 0
M  V30 5295 H 500.995 -1.41278 -3.91594 0
M  V30 5296 H 501.528 -2.75274 -2.87174 0
M  V30 5297 H 498.267 -5.73501 -3.17453 0
M  V30 5298 H 497.787 -4.3287 -4.15191 0
M  V30 5299 H 499.466 -4.92111 -4.20043 0
M  V30 5300 N 499.598 0.982988 -1.23187 0
M  V30 5301 C 500.546 2.09616 -1.00817 0
M  V30 5302 C 501.54 1.6932 0.0519995 0
M  V30 5303 O 502.746 1.79715 -0.101284 0
M  V30 5304 H 499.121 0.685628 -0.308899 0
M  V30 5305 H 501.092 2.25652 -1.95253 0
M  V30 5306 C 499.841 3.42249 -0.613243 0
M  V30 5307 H 499.164 3.73705 -1.42073 0
M  V30 5308 H 500.604 4.21086 -0.496208 0
M  V30 5309 C 499.063 3.30002 0.678233 0
M  V30 5310 O 499.593 3.6263 1.72807 0
M  V30 5311 N 497.799 2.83164 0.653165 0
M  V30 5312 H 497.346 2.56811 -0.201492 0
M  V30 5313 H 497.304 2.75352 1.51752 0
M  V30 5314 N 501.076 1.04316 1.18135 0
M  V30 5315 C 502.023 0.636398 2.21853 0
M  V30 5316 C 502.993 -0.357039 1.62217 0
M  V30 5317 O 504.178 -0.250453 1.89149 0
M  V30 5318 C 501.318 0.00812779 3.45099 0
M  V30 5319 C 500.431 1.04933 4.19062 0
M  V30 5320 C 499.566 0.389313 5.29771 0
M  V30 5321 C 498.605 1.41544 5.9551 0
M  V30 5322 N 497.742 0.78021 6.97751 0
M  V30 5323 H 502.582 1.52536 2.56002 0
M  V30 5324 H 500.119 0.76304 1.25762 0
M  V30 5325 H 502.077 -0.373497 4.15525 0
M  V30 5326 H 500.707 -0.844336 3.11562 0
M  V30 5327 H 499.759 1.54888 3.47439 0
M  V30 5328 H 501.071 1.82862 4.64072 0
M  V30 5329 H 500.225 -0.0463805 6.06682 0
M  V30 5330 H 498.964 -0.422038 4.8587 0
M  V30 5331 H 497.969 1.86124 5.17337 0
M  V30 5332 H 499.194 2.22854 6.41493 0
M  V30 5333 H 497.14 -0.0107899 6.55999 0
M  V30 5334 H 497.057 1.49716 7.41027 0
M  V30 5335 H 498.325 0.368996 7.78626 0
M  V30 5336 N 502.554 -1.34406 0.822964 0
M  V30 5337 C 503.484 -2.32052 0.259608 0
M  V30 5338 C 504.465 -1.58243 -0.623961 0
M  V30 5339 O 505.65 -1.86224 -0.55083 0
M  V30 5340 C 502.78 -3.42434 -0.579314 0
M  V30 5341 C 501.734 -4.27499 0.20712 0
M  V30 5342 C 501.06 -5.29349 -0.754547 0
M  V30 5343 C 502.36 -5.02758 1.41533 0
M  V30 5344 H 504.054 -2.79418 1.07545 0
M  V30 5345 H 501.6 -1.34338 0.518593 0
M  V30 5346 H 503.553 -4.0976 -0.983612 0
M  V30 5347 H 502.277 -2.93717 -1.4282 0
M  V30 5348 H 500.936 -3.61776 0.592787 0
M  V30 5349 H 500.584 -4.76895 -1.59939 0
M  V30 5350 H 500.284 -5.8714 -0.232561 0
M  V30 5351 H 501.808 -5.99544 -1.1567 0
M  V30 5352 H 503.222 -5.62938 1.08504 0
M  V30 5353 H 501.619 -5.70123 1.87296 0
M  V30 5354 H 502.689 -4.32451 2.1935 0
M  V30 5355 N 504.032 -0.577932 -1.46621 0
M  V30 5356 C 504.962 0.145917 -2.33044 0
M  V30 5357 C 505.943 0.888412 -1.45056 0
M  V30 5358 O 507.128 0.864812 -1.73881 0
M  V30 5359 C 504.258 1.16322 -3.27241 0
M  V30 5360 C 503.212 0.535868 -4.24632 0
M  V30 5361 C 502.538 1.65929 -5.08303 0
M  V30 5362 C 503.838 -0.523861 -5.19666 0
M  V30 5363 H 505.532 -0.575636 -2.93814 0
M  V30 5364 H 503.078 -0.278272 -1.41286 0
M  V30 5365 H 505.031 1.67793 -3.86553 0
M  V30 5366 H 503.755 1.91498 -2.64567 0
M  V30 5367 H 502.414 0.0422759 -3.66576 0
M  V30 5368 H 502.062 2.40061 -4.42018 0
M  V30 5369 H 501.762 1.2452 -5.74255 0
M  V30 5370 H 503.286 2.17686 -5.70478 0
M  V30 5371 H 504.7 -0.0944059 -5.73222 0
M  V30 5372 H 503.097 -0.858 -5.93935 0
M  V30 5373 H 504.167 -1.41197 -4.63887 0
M  V30 5374 N 505.51 1.54411 -0.315457 0
M  V30 5375 C 506.787 1.92562 0.343398 0
M  V30 5376 C 507.167 1.24423 1.70535 0
M  V30 5377 O 506.515 0.385051 2.25232 0
M  V30 5378 C 506.725 3.46168 0.443687 0
M  V30 5379 C 508.073 4.18659 0.707783 0
M  V30 5380 O 509.097 3.52281 0.52693 0
M  V30 5381 O 507.956 5.36198 1.05612 0
M  V30 5382 H 505.05 0.80379 0.194552 0
M  V30 5383 H 507.596 1.65738 -0.364577 0
M  V30 5384 H 506.368 3.8792 -0.513172 0
M  V30 5385 H 505.991 3.79073 1.19956 0
M  V30 5386 N 506.988 0.0434614 1.5754 0
M  V30 5387 C 507.921 -0.968729 2.06618 0
M  V30 5388 C 508.899 -1.30868 0.965 0
M  V30 5389 O 510.083 -1.42288 1.23638 0
M  V30 5390 C 507.21 -2.28486 2.50023 0
M  V30 5391 C 506.256 -2.09851 3.71302 0
M  V30 5392 S 507.089 -1.38401 5.17306 0
M  V30 5393 C 508.245 -2.71354 5.64019 0
M  V30 5394 H 508.478 -0.551021 2.92149 0
M  V30 5395 H 506.011 -0.168607 1.53477 0
M  V30 5396 H 507.969 -3.04142 2.75695 0
M  V30 5397 H 506.63 -2.67387 1.64812 0
M  V30 5398 H 505.823 -3.07184 3.99567 0
M  V30 5399 H 505.425 -1.42336 3.45856 0
M  V30 5400 H 507.717 -3.67549 5.69134 0
M  V30 5401 H 508.66 -2.47734 6.6335 0
M  V30 5402 H 509.068 -2.77259 4.91719 0
M  V30 5403 N 508.466 -1.55915 -0.229846 0
M  V30 5404 C 509.429 -1.90914 -1.26824 0
M  V30 5405 C 510.429 -0.786999 -1.40225 0
M  V30 5406 O 511.619 -1.05484 -1.38632 0
M  V30 5407 C 508.751 -2.15264 -2.64337 0
M  V30 5408 H 509.944 -2.8378 -0.969998 0
M  V30 5409 H 507.497 -1.49069 -0.4699 0
M  V30 5410 H 508.232 -1.24923 -2.99274 0
M  V30 5411 H 508.017 -2.97005 -2.55989 0
M  V30 5412 H 509.507 -2.43467 -3.39284 0
M  V30 5413 N 509.944 0.496216 -1.49584 0
M  V30 5414 C 510.907 1.57952 -1.66084 0
M  V30 5415 C 511.907 1.51729 -0.53244 0
M  V30 5416 O 513.097 1.54796 -0.79899 0
M  V30 5417 C 510.229 2.97604 -1.66268 0
M  V30 5418 H 511.422 1.44649 -2.6271 0
M  V30 5419 H 508.975 0.7208 -1.38687 0
M  V30 5420 H 509.71 3.16378 -0.712432 0
M  V30 5421 H 509.495 3.03528 -2.4822 0
M  V30 5422 H 510.985 3.76301 -1.81073 0
M  V30 5423 N 511.423 1.38739 0.74761 0
M  V30 5424 C 512.355 1.32341 1.87132 0
M  V30 5425 C 513.368 0.234502 1.61102 0
M  V30 5426 O 514.557 0.492516 1.71571 0
M  V30 5427 C 511.657 1.02915 3.22896 0
M  V30 5428 C 510.83 2.22834 3.76383 0
M  V30 5429 C 509.889 1.90059 4.90677 0
M  V30 5430 O 508.915 2.62615 5.04997 0
M  V30 5431 N 510.117 0.859141 5.74107 0
M  V30 5432 H 512.882 2.29175 1.93129 0
M  V30 5433 H 510.443 1.32678 0.927805 0
M  V30 5434 H 512.435 0.79031 3.96908 0
M  V30 5435 H 511.005 0.148572 3.12247 0
M  V30 5436 H 510.225 2.62747 2.93867 0
M  V30 5437 H 511.513 3.02851 4.08851 0
M  V30 5438 H 510.911 0.257564 5.65113 0
M  V30 5439 H 509.468 0.680189 6.48241 0
M  V30 5440 N 512.901 -0.976442 1.23707 0
M  V30 5441 C 514.15 -1.71254 1.06559 0
M  V30 5442 C 514.463 -1.91528 -0.397024 0
M  V30 5443 O 515.669 -2.62625 -0.688518 0
M  V30 5444 C 514.125 -3.08207 1.8584 0
M  V30 5445 C 513.733 -2.95806 3.36456 0
M  V30 5446 C 515.477 -3.85749 1.77194 0
M  V30 5447 C 513.384 -4.28015 4.08114 0
M  V30 5448 H 512.314 -0.642171 0.395136 0
M  V30 5449 H 514.965 -1.08877 1.4771 0
M  V30 5450 H 513.347 -3.71363 1.37498 0
M  V30 5451 H 514.521 -2.41716 3.92314 0
M  V30 5452 H 512.836 -2.31736 3.45959 0
M  V30 5453 H 515.433 -4.83633 2.28041 0
M  V30 5454 H 515.776 -4.09752 0.735477 0
M  V30 5455 H 516.309 -3.29303 2.23169 0
M  V30 5456 H 513.048 -4.09208 5.12083 0
M  V30 5457 H 512.568 -4.81955 3.57043 0
M  V30 5458 H 514.247 -4.96681 4.14629 0
M  V30 5459 N 514.379 -1.04941 -1.1758 0
M  V30 5460 C 515.342 -0.652456 -2.19717 0
M  V30 5461 C 516.342 0.294745 -1.58076 0
M  V30 5462 O 517.532 0.0789579 -1.74021 0
M  V30 5463 C 514.664 0.0420712 -3.40874 0
M  V30 5464 H 515.857 -1.55642 -2.5635 0
M  V30 5465 H 513.41 -0.842995 -1.31618 0
M  V30 5466 H 514.145 0.95943 -3.09783 0
M  V30 5467 H 513.93 -0.638844 -3.86861 0
M  V30 5468 H 515.42 0.306 -4.16477 0
M  V30 5469 N 515.857 1.33968 -0.830081 0
M  V30 5470 C 516.767 2.33164 -0.259207 0
M  V30 5471 C 517.783 1.62951 0.610164 0
M  V30 5472 O 518.959 1.94668 0.516369 0
M  V30 5473 C 516.024 3.42088 0.563598 0
M  V30 5474 C 515.085 4.28037 -0.329014 0
M  V30 5475 C 514.318 5.3176 0.454616 0
M  V30 5476 O 514.541 5.44876 1.6872 0
M  V30 5477 O 513.475 6.01669 -0.166794 0
M  V30 5478 H 517.301 2.83832 -1.08041 0
M  V30 5479 H 514.886 1.37154 -0.59239 0
M  V30 5480 H 516.768 4.08581 1.03147 0
M  V30 5481 H 515.443 2.93651 1.36201 0
M  V30 5482 H 514.35 3.64443 -0.844538 0
M  V30 5483 H 515.683 4.79934 -1.09196 0
M  V30 5484 N 517.335 0.585699 1.46312 0
M  V30 5485 C 518.583 0.072278 2.01971 0
M  V30 5486 C 518.904 -1.29345 1.45928 0
M  V30 5487 O 518.174 -1.84973 0.645109 0
M  V30 5488 H 516.754 0.023729 0.746623 0
M  V30 5489 H 519.416 0.762155 1.7938 0
M  V30 5490 H 518.512 0.00552767 3.121 0
M  V30 5491 N 518.813 -1.54241 0.323641 0
M  V30 5492 C 519.746 -2.20579 -0.584833 0
M  V30 5493 C 520.724 -1.18286 -1.11567 0
M  V30 5494 O 521.908 -1.47025 -1.17966 0
M  V30 5495 C 519.035 -2.86754 -1.80249 0
M  V30 5496 C 518.081 -4.02767 -1.4029 0
M  V30 5497 S 518.914 -5.33693 -0.439539 0
M  V30 5498 C 520.07 -6.03362 -1.66448 0
M  V30 5499 H 520.303 -2.97292 -0.0213238 0
M  V30 5500 H 517.836 -1.54024 0.107726 0
M  V30 5501 H 519.794 -3.25503 -2.50116 0
M  V30 5502 H 518.455 -2.09844 -2.33719 0
M  V30 5503 H 517.648 -4.47933 -2.31024 0
M  V30 5504 H 517.25 -3.65692 -0.783928 0
M  V30 5505 H 519.542 -6.25546 -2.6019 0
M  V30 5506 H 520.485 -6.9689 -1.25498 0
M  V30 5507 H 520.893 -5.33273 -1.85149 0
M  V30 5508 N 520.291 -0.0518155 -1.57515 0
M  V30 5509 C 521.254 0.907547 -2.10467 0
M  V30 5510 C 522.254 1.23947 -1.02439 0
M  V30 5511 O 523.444 1.17604 -1.2851 0
M  V30 5512 C 520.576 2.21723 -2.58944 0
M  V30 5513 H 521.769 0.44851 -2.96527 0
M  V30 5514 H 519.322 0.196598 -1.55059 0
M  V30 5515 H 520.057 2.72206 -1.76279 0
M  V30 5516 H 519.842 1.98935 -3.37886 0
M  V30 5517 H 521.332 2.90441 -3.00056 0
M  V30 5518 N 521.769 1.56035 0.221574 0
M  V30 5519 C 523.016 1.79047 0.94597 0
M  V30 5520 C 523.344 0.62057 1.84334 0
M  V30 5521 O 522.599 -0.395053 1.91671 0
M  V30 5522 C 522.898 3.07813 1.8162 0
M  V30 5523 C 522.564 4.3797 1.07206 0
M  V30 5524 C 521.226 4.73334 0.866508 0
M  V30 5525 C 523.578 5.18326 0.546565 0
M  V30 5526 C 520.906 5.8657 0.123549 0
M  V30 5527 C 523.258 6.32335 -0.18305 0
M  V30 5528 C 521.922 6.66301 -0.399861 0
M  V30 5529 H 521.192 0.655178 0.346155 0
M  V30 5530 H 523.839 1.90299 0.214146 0
M  V30 5531 H 522.144 2.91682 2.61589 0
M  V30 5532 H 523.841 3.2282 2.37884 0
M  V30 5533 H 520.431 4.10202 1.24226 0
M  V30 5534 H 524.615 4.9144 0.692847 0
M  V30 5535 H 519.871 6.11376 -0.0546591 0
M  V30 5536 H 524.045 6.9383 -0.59775 0
M  V30 5537 H 521.672 7.53889 -0.977489 0
M  V30 5538 N 523.247 -0.488276 1.49845 0
M  V30 5539 C 524.496 -1.23826 1.59217 0
M  V30 5540 C 524.809 -1.93439 0.289966 0
M  V30 5541 O 526.015 -2.70229 0.262382 0
M  V30 5542 C 524.471 -2.24902 2.80976 0
M  V30 5543 C 524.079 -1.6117 4.18005 0
M  V30 5544 C 525.823 -3.00648 2.99685 0
M  V30 5545 C 523.73 -2.60431 5.3097 0
M  V30 5546 H 522.66 -0.465858 0.592868 0
M  V30 5547 H 525.311 -0.510645 1.76252 0
M  V30 5548 H 523.693 -3.0088 2.57463 0
M  V30 5549 H 524.867 -0.910968 4.51706 0
M  V30 5550 H 523.182 -0.97767 4.0476 0
M  V30 5551 H 525.779 -3.74903 3.81251 0
M  V30 5552 H 526.122 -3.5902 2.10738 0
M  V30 5553 H 526.655 -2.31784 3.23297 0
M  V30 5554 H 523.394 -2.06823 6.22017 0
M  V30 5555 H 522.914 -3.28707 5.01709 0
M  V30 5556 H 524.593 -3.22606 5.60834 0
M  V30 5557 N 524.725 -1.39134 -0.740242 0
M  V30 5558 C 525.635 -1.39697 -1.88473 0
M  V30 5559 C 526.651 -0.292403 -1.71526 0
M  V30 5560 O 527.827 -0.533021 -1.94219 0
M  V30 5561 C 524.892 -1.23382 -3.24003 0
M  V30 5562 C 523.953 -2.43763 -3.53381 0
M  V30 5563 C 523.186 -2.28216 -4.82445 0
M  V30 5564 O 523.409 -1.28288 -5.55786 0
M  V30 5565 O 522.343 -3.1709 -5.11603 0
M  V30 5566 H 526.169 -2.36159 -1.90952 0
M  V30 5567 H 523.754 -1.20194 -0.887346 0
M  V30 5568 H 525.636 -1.16395 -4.05006 0
M  V30 5569 H 524.311 -0.300121 -3.22306 0
M  V30 5570 H 523.218 -2.56325 -2.72485 0
M  V30 5571 H 524.551 -3.35808 -3.59852 0
M  V30 5572 N 526.204 0.969867 -1.24223 0
M  V30 5573 C 527.114 2.09806 -1.0497 0
M  V30 5574 C 528.13 1.73998 0.00886455 0
M  V30 5575 O 529.306 2.00513 -0.188848 0
M  V30 5576 C 526.371 3.40467 -0.654452 0
M  V30 5577 C 525.432 3.90236 -1.78926 0
M  V30 5578 C 524.665 5.14662 -1.41277 0
M  V30 5579 O 524.888 5.69602 -0.301632 0
M  V30 5580 O 523.822 5.58761 -2.23763 0
M  V30 5581 H 527.648 2.28942 -1.99548 0
M  V30 5582 H 525.233 1.08197 -1.03023 0
M  V30 5583 H 527.115 4.19039 -0.445452 0
M  V30 5584 H 525.79 3.22636 0.262216 0
M  V30 5585 H 524.697 3.12735 -2.05299 0
M  V30 5586 H 526.03 4.1254 -2.68462 0
M  V30 5587 N 527.682 1.05563 1.17022 0
M  V30 5588 C 529.098 0.777684 1.39371 0
M  V30 5589 C 529.298 -0.626269 1.91521 0
M  V30 5590 O 528.354 -1.38806 2.10924 0
M  V30 5591 C 529.667 1.83642 2.3811 0
M  V30 5592 C 531.215 1.85907 2.51809 0
M  V30 5593 C 531.69 2.90813 3.53824 0
M  V30 5594 N 533.181 2.898 3.61345 0
M  V30 5595 C 533.916 3.6762 4.40049 0
M  V30 5596 N 533.412 4.55237 5.22237 0
M  V30 5597 N 535.205 3.56044 4.34959 0
M  V30 5598 H 527.356 1.9614 0.815047 0
M  V30 5599 H 529.619 0.849527 0.420722 0
M  V30 5600 H 529.325 2.84425 2.06871 0
M  V30 5601 H 529.199 1.6812 3.37662 0
M  V30 5602 H 531.586 0.857865 2.82356 0
M  V30 5603 H 531.667 2.05506 1.52318 0
M  V30 5604 H 531.311 3.91122 3.24015 0
M  V30 5605 H 531.241 2.68465 4.53028 0
M  V30 5606 H 533.732 2.26274 3.02669 0
M  V30 5607 H 534.045 5.11291 5.79484 0
M  V30 5608 H 532.39 4.59296 5.21605 0
M  V30 5609 H 535.581 2.86986 3.69806 0
M  V30 5610 H 535.754 4.16938 4.96051 0
M  V30 5611 N 529.16 -1.33526 0.837174 0
M  V30 5612 C 530.108 -2.31168 0.257698 0
M  V30 5613 C 531.102 -1.5806 -0.609388 0
M  V30 5614 O 532.308 -1.72941 -0.499139 0
M  V30 5615 H 528.683 -0.74922 0.0646058 0
M  V30 5616 H 530.654 -2.77552 1.09578 0
M  V30 5617 C 529.403 -3.4326 -0.553887 0
M  V30 5618 H 528.726 -3.99665 0.104008 0
M  V30 5619 H 530.166 -4.13782 -0.925219 0
M  V30 5620 C 528.625 -2.88965 -1.73207 0
M  V30 5621 O 529.155 -2.85013 -2.83073 0
M  V30 5622 N 527.361 -2.45596 -1.55342 0
M  V30 5623 H 526.908 -2.49009 -0.659705 0
M  V30 5624 H 526.866 -2.0962 -2.34322 0
M  V30 5625 N 530.638 -0.59345 -1.46 0
M  V30 5626 C 531.868 -0.0889642 -2.06408 0
M  V30 5627 C 532.276 1.22597 -1.44106 0
M  V30 5628 O 531.619 1.75448 -0.544398 0
M  V30 5629 C 531.681 0.139902 -3.59228 0
M  V30 5630 C 531.345 -1.09107 -4.43784 0
M  V30 5631 C 532.342 -2.00577 -4.79651 0
M  V30 5632 C 530.027 -1.31593 -4.84756 0
M  V30 5633 C 532.021 -3.12873 -5.55328 0
M  V30 5634 C 529.708 -2.44192 -5.60191 0
M  V30 5635 C 530.706 -3.34661 -5.95392 0
M  V30 5636 O 530.394 -4.45302 -6.69299 0
M  V30 5637 H 530.126 -0.0594613 -0.67338 0
M  V30 5638 H 532.68 -0.817 -1.88452 0
M  V30 5639 H 530.91 0.922672 -3.75531 0
M  V30 5640 H 532.599 0.594228 -4.01527 0
M  V30 5641 H 533.365 -1.84425 -4.48567 0
M  V30 5642 H 529.244 -0.620801 -4.56801 0
M  V30 5643 H 532.788 -3.83511 -5.82722 0
M  V30 5644 H 528.685 -2.60303 -5.90688 0
M  V30 5645 H 529.453 -4.43805 -6.87735 0
M  V30 5646 N 532.116 1.54067 -0.331816 0
M  V30 5647 C 533.365 1.99895 0.269209 0
M  V30 5648 C 533.678 1.22371 1.52593 0
M  V30 5649 O 534.884 1.58618 2.20347 0
M  V30 5650 C 533.34 3.55972 0.530244 0
M  V30 5651 C 532.948 4.4234 -0.709901 0
M  V30 5652 C 534.692 4.10247 1.09077 0
M  V30 5653 C 532.599 5.89905 -0.420312 0
M  V30 5654 H 531.529 0.746741 0.104371 0
M  V30 5655 H 534.18 1.78014 -0.445324 0
M  V30 5656 H 532.562 3.73873 1.30518 0
M  V30 5657 H 533.736 4.36215 -1.48504 0
M  V30 5658 H 532.051 3.98997 -1.19123 0
M  V30 5659 H 534.648 5.18095 1.32219 0
M  V30 5660 H 534.991 3.62739 2.0427 0
M  V30 5661 H 535.524 3.96011 0.376824 0
M  V30 5662 H 532.263 6.41623 -1.34164 0
M  V30 5663 H 531.783 5.98962 0.316962 0
M  V30 5664 H 533.462 6.46991 -0.0331956 0
M  V30 5665 N 533.594 0.0601682 1.57485 0
M  V30 5666 C 534.544 -0.920969 2.08572 0
M  V30 5667 C 535.528 -1.26617 0.992827 0
M  V30 5668 O 536.72 -1.24708 1.25606 0
M  V30 5669 C 533.849 -2.19267 2.64153 0
M  V30 5670 C 532.935 -1.87447 3.80427 0
M  V30 5671 N 533.326 -1.26025 4.89848 0
M  V30 5672 C 531.624 -2.17265 3.89502 0
M  V30 5673 C 532.325 -1.12036 5.70809 0
M  V30 5674 N 531.301 -1.62624 5.18705 0
M  V30 5675 H 535.103 -0.441561 2.90564 0
M  V30 5676 H 532.617 -0.144043 1.6176 0
M  V30 5677 H 534.614 -2.90462 2.99061 0
M  V30 5678 H 533.274 -2.67806 1.83603 0
M  V30 5679 H 534.285 -0.931336 5.09457 0
M  V30 5680 H 530.962 -2.68262 3.19909 0
M  V30 5681 H 532.352 -0.642783 6.68818 0
M  V30 5682 N 535.072 -1.5615 -0.213296 0
M  V30 5683 C 536.488 -1.49327 -0.56336 0
M  V30 5684 C 536.688 -0.756826 -1.86747 0
M  V30 5685 O 535.744 -0.299866 -2.50713 0
M  V30 5686 C 537.057 -2.9392 -0.634944 0
M  V30 5687 C 538.605 -3.04487 -0.725013 0
M  V30 5688 C 539.08 -4.50456 -0.82787 0
M  V30 5689 N 540.571 -4.54533 -0.891876 0
M  V30 5690 C 541.306 -5.64766 -0.991315 0
M  V30 5691 N 540.802 -6.84733 -1.05419 0
M  V30 5692 N 542.595 -5.52637 -1.02709 0
M  V30 5693 H 534.746 -2.02453 0.642366 0
M  V30 5694 H 537.009 -0.920548 0.226487 0
M  V30 5695 H 536.715 -3.50783 0.253859 0
M  V30 5696 H 536.589 -3.46274 -1.49579 0
M  V30 5697 H 538.976 -2.47685 -1.60425 0
M  V30 5698 H 539.057 -2.55289 0.161669 0
M  V30 5699 H 538.701 -5.07878 0.0469464 0
M  V30 5700 H 538.631 -4.97369 -1.73009 0
M  V30 5701 H 541.122 -3.68141 -0.85327 0
M  V30 5702 H 541.435 -7.64493 -1.13007 0
M  V30 5703 H 539.78 -6.87427 -1.02318 0
M  V30 5704 H 542.971 -4.5784 -0.974687 0
M  V30 5705 H 543.144 -6.38576 -1.10113 0
M  V30 5706 N 536.55 0.480323 -1.50102 0
M  V30 5707 C 537.827 1.24159 -1.51142 0
M  V30 5708 C 538.207 2.09605 -0.250818 0
M  V30 5709 O 537.555 2.15274 0.766118 0
M  V30 5710 C 537.765 2.08057 -2.80202 0
M  V30 5711 C 539.113 2.66556 -3.30504 0
M  V30 5712 O 540.137 2.18308 -2.81461 0
M  V30 5713 O 538.996 3.54442 -4.15973 0
M  V30 5714 H 536.09 0.562928 -0.605839 0
M  V30 5715 H 538.636 0.492899 -1.62384 0
M  V30 5716 H 537.408 1.45032 -3.6343 0
M  V30 5717 H 537.031 2.90079 -2.71919 0
M  V30 5718 N 538.028 1.39524 0.732853 0
M  V30 5719 C 538.958 1.41153 1.86005 0
M  V30 5720 C 539.939 0.274614 1.67869 0
M  V30 5721 O 541.124 0.480745 1.88155 0
M  V30 5722 C 538.254 1.25638 3.23778 0
M  V30 5723 C 537.208 2.36752 3.56556 0
M  V30 5724 C 536.534 2.06326 4.93289 0
M  V30 5725 C 537.834 3.79069 3.5931 0
M  V30 5726 H 539.528 2.35484 1.84899 0
M  V30 5727 H 537.074 1.13348 0.888162 0
M  V30 5728 H 539.027 1.25398 4.0231 0
M  V30 5729 H 537.751 0.277772 3.25417 0
M  V30 5730 H 536.41 2.36213 2.80355 0
M  V30 5731 H 536.058 1.06897 4.9151 0
M  V30 5732 H 535.758 2.80757 5.16187 0
M  V30 5733 H 537.282 2.07739 5.74175 0
M  V30 5734 H 538.696 3.81526 4.27914 0
M  V30 5735 H 537.093 4.52878 3.93728 0
M  V30 5736 H 538.163 4.09893 2.59068 0
M  V30 5737 N 539.506 -0.963266 1.24736 0
M  V30 5738 C 540.922 -1.23273 1.01371 0
M  V30 5739 C 541.122 -1.99618 -0.274776 0
M  V30 5740 O 540.178 -2.32293 -0.989769 0
M  V30 5741 C 541.491 -2.01554 2.23152 0
M  V30 5742 C 543.039 -2.14629 2.27823 0
M  V30 5743 C 543.514 -2.96307 3.49237 0
M  V30 5744 N 545.005 -3.03887 3.49581 0
M  V30 5745 C 545.74 -3.67456 4.40186 0
M  V30 5746 N 545.236 -4.32706 5.41052 0
M  V30 5747 N 547.029 -3.64511 4.27888 0
M  V30 5748 H 539.18 -0.452294 2.07528 0
M  V30 5749 H 541.443 -0.262521 0.910926 0
M  V30 5750 H 541.149 -1.52847 3.1675 0
M  V30 5751 H 541.023 -3.02278 2.25628 0
M  V30 5752 H 543.41 -2.62537 1.34753 0
M  V30 5753 H 543.491 -1.13238 2.2937 0
M  V30 5754 H 543.135 -2.49091 4.42624 0
M  V30 5755 H 543.065 -3.97905 3.44933 0
M  V30 5756 H 545.556 -2.57477 2.76611 0
M  V30 5757 H 545.869 -4.79042 6.06415 0
M  V30 5758 H 544.214 -4.31361 5.44934 0
M  V30 5759 H 547.405 -3.12715 3.4832 0
M  V30 5760 H 547.578 -4.13768 4.98698 0
M  V30 5761 N 540.985 -1.06182 -1.16461 0
M  V30 5762 C 541.948 -0.675723 -2.19013 0
M  V30 5763 C 542.948 0.277963 -1.58379 0
M  V30 5764 O 544.138 0.0604962 -1.74095 0
M  V30 5765 C 541.27 0.00591459 -3.40899 0
M  V30 5766 H 542.463 -1.58353 -2.54685 0
M  V30 5767 H 540.016 -0.856908 -1.30716 0
M  V30 5768 H 540.751 0.92652 -3.10783 0
M  V30 5769 H 540.536 -0.67984 -3.86161 0
M  V30 5770 H 542.026 0.26181 -4.16778 0
M  V30 5771 N 542.463 1.3308 -0.844243 0
M  V30 5772 C 543.426 2.27403 -0.286485 0
M  V30 5773 C 544.426 1.51179 0.547872 0
M  V30 5774 O 545.616 1.70421 0.360886 0
M  V30 5775 C 542.748 3.35653 0.595813 0
M  V30 5776 H 543.941 2.78248 -1.11885 0
M  V30 5777 H 541.494 1.43574 -0.617749 0
M  V30 5778 H 542.229 2.90058 1.4504 0
M  V30 5779 H 542.014 3.921 -0.00125994 0
M  V30 5780 H 543.504 4.05958 0.979168 0
M  V30 5781 N 543.941 0.601185 1.45683 0
M  V30 5782 C 544.889 -0.133955 2.32214 0
M  V30 5783 C 545.883 -0.866034 1.45589 0
M  V30 5784 O 547.089 -0.782326 1.6211 0
M  V30 5785 H 543.464 -0.0620613 0.749435 0
M  V30 5786 H 545.435 0.614389 2.92007 0
M  V30 5787 C 544.184 -1.12216 3.29094 0
M  V30 5788 H 543.507 -0.568273 3.95741 0
M  V30 5789 H 544.947 -1.60659 3.92383 0
M  V30 5790 C 543.406 -2.19251 2.55794 0
M  V30 5791 O 543.936 -3.26894 2.33459 0
M  V30 5792 N 542.142 -1.9436 2.16039 0
M  V30 5793 H 541.689 -1.06829 2.34404 0
M  V30 5794 H 541.647 -2.66181 1.67318 0
M  V30 5795 N 545.419 -1.53889 0.339982 0
M  V30 5796 C 546.668 -2.00035 -0.258604 0
M  V30 5797 C 546.981 -1.23179 -1.51942 0
M  V30 5798 O 548.187 -1.59784 -2.19503 0
M  V30 5799 C 546.643 -3.56249 -0.511359 0
M  V30 5800 C 546.251 -4.41957 0.733349 0
M  V30 5801 C 547.995 -4.1082 -1.069 0
M  V30 5802 C 545.902 -5.89673 0.451591 0
M  V30 5803 H 544.832 -0.747284 -0.10041 0
M  V30 5804 H 547.483 -1.77776 0.454758 0
M  V30 5805 H 545.865 -3.7456 -1.28533 0
M  V30 5806 H 547.039 -4.35421 1.50815 0
M  V30 5807 H 545.354 -3.9836 1.21237 0
M  V30 5808 H 547.951 -5.18789 -1.2947 0
M  V30 5809 H 548.294 -3.63817 -2.02343 0
M  V30 5810 H 548.827 -3.96205 -0.355817 0
M  V30 5811 H 545.566 -6.40903 1.37565 0
M  V30 5812 H 545.086 -5.99122 -0.285193 0
M  V30 5813 H 546.765 -6.46965 0.0675067 0
M  V30 5814 N 546.897 -0.0685191 -1.57451 0
M  V30 5815 C 547.827 0.89747 -2.15564 0
M  V30 5816 C 548.808 1.31266 -1.08181 0
M  V30 5817 O 549.993 1.38429 -1.36202 0
M  V30 5818 C 547.123 2.16623 -2.71463 0
M  V30 5819 C 546.077 1.89054 -3.83982 0
M  V30 5820 C 545.403 3.22532 -4.26471 0
M  V30 5821 C 546.703 1.1984 -5.08366 0
M  V30 5822 H 548.397 0.413373 -2.96533 0
M  V30 5823 H 545.943 0.197391 -1.42641 0
M  V30 5824 H 547.896 2.84614 -3.10761 0
M  V30 5825 H 546.62 2.67269 -1.8771 0
M  V30 5826 H 545.279 1.23469 -3.45183 0
M  V30 5827 H 544.927 3.71013 -3.39644 0
M  V30 5828 H 544.627 3.04879 -5.02317 0
M  V30 5829 H 546.151 3.91727 -4.68383 0
M  V30 5830 H 547.565 1.77896 -5.45001 0
M  V30 5831 H 545.962 1.12456 -5.89469 0
M  V30 5832 H 547.032 0.176996 -4.84577 0
M  V30 5833 N 548.375 1.56261 0.205012 0
M  V30 5834 C 549.621 1.80306 0.9283 0
M  V30 5835 C 549.954 0.640932 1.83319 0
M  V30 5836 O 549.229 -0.359032 1.91158 0
M  V30 5837 C 549.512 3.14547 1.75306 0
M  V30 5838 C 549.365 4.41236 0.873562 0
M  V30 5839 C 550.684 3.45382 2.72762 0
M  V30 5840 H 547.803 0.655929 0.336044 0
M  V30 5841 H 550.445 1.88984 0.196211 0
M  V30 5842 H 548.595 3.0728 2.37721 0
M  V30 5843 H 550.267 4.60539 0.264887 0
M  V30 5844 H 548.51 4.33427 0.179773 0
M  V30 5845 H 549.181 5.31639 1.48541 0
M  V30 5846 H 551.657 3.52884 2.20481 0
M  V30 5847 H 550.533 4.40449 3.2756 0
M  V30 5848 H 550.794 2.68377 3.51321 0
M  V30 5849 N 549.853 -0.472356 1.50355 0
M  V30 5850 C 551.078 -1.25251 1.65309 0
M  V30 5851 C 551.503 -1.85081 0.335643 0
M  V30 5852 O 550.861 -1.67227 -0.700335 0
M  V30 5853 C 550.909 -2.3379 2.74544 0
M  V30 5854 O 550.013 -3.38401 2.35709 0
M  V30 5855 H 549.354 -0.368539 0.552336 0
M  V30 5856 H 551.884 -0.562271 1.96722 0
M  V30 5857 H 551.894 -2.79121 2.97583 0
M  V30 5858 H 550.569 -1.89614 3.70161 0
M  V30 5859 H 549.146 -2.9879 2.23112 0
M  V30 5860 N 551.331 -1.39911 -0.725443 0
M  V30 5861 C 552.608 -1.28158 -1.47766 0
M  V30 5862 C 552.988 0.104545 -2.10841 0
M  V30 5863 O 552.336 1.11657 -1.99361 0
M  V30 5864 C 552.546 -2.41306 -2.52135 0
M  V30 5865 C 553.894 -2.81076 -3.18247 0
M  V30 5866 O 554.918 -2.40827 -2.62452 0
M  V30 5867 O 553.777 -3.50581 -4.19231 0
M  V30 5868 H 550.871 -0.502761 -0.656628 0
M  V30 5869 H 553.417 -1.51808 -0.758456 0
M  V30 5870 H 552.189 -3.33932 -2.03974 0
M  V30 5871 H 551.812 -2.19374 -3.31603 0
M  V30 5872 N 552.809 0.956637 -1.25245 0
M  V30 5873 C 554.037 1.73571 -1.12608 0
M  V30 5874 C 554.452 1.86063 0.320324 0
M  V30 5875 O 553.809 1.35691 1.22042 0
M  V30 5876 C 553.86 3.15053 -1.77268 0
M  V30 5877 O 553.581 3.03174 -3.16255 0
M  V30 5878 C 555.082 4.09248 -1.70386 0
M  V30 5879 H 552.302 0.543955 -0.392879 0
M  V30 5880 H 554.846 1.20031 -1.65568 0
M  V30 5881 H 553.001 3.65543 -1.28284 0
M  V30 5882 H 553.415 3.9241 -3.48015 0
M  V30 5883 H 554.889 5.06138 -2.20291 0
M  V30 5884 H 555.366 4.34102 -0.667239 0
M  V30 5885 H 555.972 3.64672 -2.18849 0
M  V30 5886 N 554.287 1.06798 1.15896 0
M  V30 5887 C 555.217 0.704677 2.22613 0
M  V30 5888 C 556.198 -0.305252 1.67339 0
M  V30 5889 O 557.383 -0.179247 1.93371 0
M  V30 5890 C 554.513 0.0957325 3.47168 0
M  V30 5891 C 553.467 1.0322 4.15367 0
M  V30 5892 C 552.793 0.286293 5.33933 0
M  V30 5893 C 554.093 2.36341 4.65768 0
M  V30 5894 H 555.787 1.59688 2.53259 0
M  V30 5895 H 553.333 0.769257 1.21731 0
M  V30 5896 H 555.286 -0.170333 4.21056 0
M  V30 5897 H 554.01 -0.831516 3.15838 0
M  V30 5898 H 552.669 1.28309 3.43413 0
M  V30 5899 H 552.317 -0.644237 4.98857 0
M  V30 5900 H 552.017 0.910436 5.80504 0
M  V30 5901 H 553.541 0.0278938 6.10594 0
M  V30 5902 H 554.955 2.1561 5.31211 0
M  V30 5903 H 553.352 2.94299 5.2298 0
M  V30 5904 H 554.422 2.99047 3.81705 0
M  V30 5905 N 555.766 -1.3263 0.851289 0
M  V30 5906 C 556.991 -2.02097 0.466006 0
M  V30 5907 C 557.416 -1.63574 -0.928709 0
M  V30 5908 O 556.774 -0.834665 -1.60944 0
M  V30 5909 C 556.822 -3.55425 0.608737 0
M  V30 5910 O 555.926 -4.10827 -0.359878 0
M  V30 5911 H 555.267 -0.636911 0.187724 0
M  V30 5912 H 557.797 -1.69253 1.14955 0
M  V30 5913 H 557.807 -4.04986 0.495006 0
M  V30 5914 H 556.482 -3.82806 1.62581 0
M  V30 5915 H 555.059 -3.72349 -0.202666 0
M  V30 5916 N 557.244 -0.608902 -1.45362 0
M  V30 5917 C 558.484 -0.10763 -2.04116 0
M  V30 5918 C 558.848 1.23883 -1.46686 0
M  V30 5919 O 560.049 1.83091 -1.96803 0
M  V30 5920 C 558.32 -0.0703351 -3.57331 0
M  V30 5921 S 559.879 0.369554 -4.37241 0
M  V30 5922 H 556.697 -0.0502123 -0.709225 0
M  V30 5923 H 559.299 -0.8073 -1.78053 0
M  V30 5924 H 558.003 -1.05379 -3.9664 0
M  V30 5925 H 557.534 0.651287 -3.87971 0
M  V30 5926 H 559.549 1.61878 -4.69052 0
M  V30 5927 N 558.722 1.53707 -0.348139 0
M  V30 5928 C 559.669 2.25173 0.506518 0
M  V30 5929 C 560.639 1.25174 1.09182 0
M  V30 5930 O 561.824 1.53917 1.12757 0
M  V30 5931 C 558.964 3.03141 1.64923 0
M  V30 5932 C 558.077 4.18002 1.0908 0
M  V30 5933 C 557.212 4.83447 2.20119 0
M  V30 5934 C 556.251 5.90369 1.61651 0
M  V30 5935 N 555.388 6.49575 2.66451 0
M  V30 5936 H 560.228 2.97799 -0.109452 0
M  V30 5937 H 557.765 1.46953 -0.0657866 0
M  V30 5938 H 559.723 3.46607 2.32205 0
M  V30 5939 H 558.353 2.32803 2.23612 0
M  V30 5940 H 557.405 3.79145 0.308783 0
M  V30 5941 H 558.717 4.94892 0.623178 0
M  V30 5942 H 557.871 5.30008 2.95257 0
M  V30 5943 H 556.61 4.05991 2.70227 0
M  V30 5944 H 555.615 5.43186 0.850209 0
M  V30 5945 H 556.84 6.69735 1.1239 0
M  V30 5946 H 554.786 5.74981 3.15805 0
M  V30 5947 H 554.703 7.21952 2.24325 0
M  V30 5948 H 555.971 7.00789 3.41344 0
M  V30 5949 N 560.2 0.0768682 1.57412 0
M  V30 5950 C 561.449 -0.590679 1.92857 0
M  V30 5951 C 561.762 -1.70461 0.959293 0
M  V30 5952 O 562.968 -2.43207 1.20675 0
M  V30 5953 C 561.424 -1.10204 3.42612 0
M  V30 5954 C 561.032 -0.0188447 4.47996 0
M  V30 5955 C 562.776 -1.74336 3.87049 0
M  V30 5956 C 560.683 -0.544536 5.88888 0
M  V30 5957 H 559.613 -0.224411 0.71983 0
M  V30 5958 H 562.264 0.149924 1.82887 0
M  V30 5959 H 560.646 -1.89577 3.47673 0
M  V30 5960 H 561.82 0.755936 4.54557 0
M  V30 5961 H 560.135 0.526555 4.13057 0
M  V30 5962 H 562.732 -2.14708 4.89699 0
M  V30 5963 H 563.075 -2.60537 3.24694 0
M  V30 5964 H 563.608 -1.01577 3.84613 0
M  V30 5965 H 560.347 0.280426 6.549 0
M  V30 5966 H 559.867 -1.28673 5.85836 0
M  V30 5967 H 561.546 -1.01933 6.3892 0
M  V30 5968 N 561.678 -1.56367 -0.196722 0
M  V30 5969 C 562.641 -1.93561 -1.22746 0
M  V30 5970 C 563.641 -0.816566 -1.38524 0
M  V30 5971 O 564.831 -1.084 -1.36363 0
M  V30 5972 C 561.963 -2.20823 -2.59712 0
M  V30 5973 H 563.156 -2.85774 -0.909586 0
M  V30 5974 H 560.709 -1.50032 -0.438174 0
M  V30 5975 H 561.444 -1.31243 -2.96557 0
M  V30 5976 H 561.229 -3.02368 -2.49632 0
M  V30 5977 H 562.719 -2.50608 -3.34044 0
M  V30 5978 N 563.156 0.464375 -1.50603 0
M  V30 5979 C 564.433 1.22549 -1.5245 0
M  V30 5980 C 564.813 2.09327 -0.273035 0
M  V30 5981 O 564.161 2.16074 0.743242 0
M  V30 5982 C 564.371 2.05074 -2.82393 0
M  V30 5983 C 565.719 2.63036 -3.33313 0
M  V30 5984 O 566.743 2.1531 -2.8376 0
M  V30 5985 O 565.602 3.5001 -4.19709 0
M  V30 5986 H 562.696 0.556471 -0.611775 0
M  V30 5987 H 565.242 0.475648 -1.62898 0
M  V30 5988 H 564.014 1.41169 -3.64948 0
M  V30 5989 H 563.637 2.87179 -2.7498 0
M  V30 5990 N 564.634 1.40294 0.718013 0
M  V30 5991 C 565.881 1.3844 1.47786 0
M  V30 5992 C 566.209 -0.0140838 1.94495 0
M  V30 5993 O 565.464 -0.998165 1.68331 0
M  V30 5994 C 565.763 2.31814 2.72024 0
M  V30 5995 C 565.429 3.79117 2.44093 0
M  V30 5996 C 564.091 4.19249 2.36185 0
M  V30 5997 C 566.443 4.72212 2.20602 0
M  V30 5998 C 563.771 5.50516 2.02851 0
M  V30 5999 C 566.123 6.03775 1.88781 0
M  V30 6000 C 564.787 6.42953 1.79354 0
M  V30 6001 H 564.057 0.506588 0.540786 0
M  V30 6002 H 566.704 1.72929 0.822663 0
M  V30 6003 H 565.009 1.90501 3.42369 0
M  V30 6004 H 566.706 2.27664 3.30106 0
M  V30 6005 H 563.296 3.47318 2.51133 0
M  V30 6006 H 567.48 4.42026 2.25669 0
M  V30 6007 H 562.736 5.79776 1.94088 0
M  V30 6008 H 566.91 6.75428 1.69617 0
M  V30 6009 H 564.537 7.44584 1.53291 0
M  V30 6010 N 566.112 -0.949982 1.2575 0
M  V30 6011 C 567.36 -1.6918 1.10555 0
M  V30 6012 C 567.681 -1.91773 -0.353298 0
M  V30 6013 O 566.951 -1.50814 -1.25027 0
M  V30 6014 H 565.531 -0.626952 0.406129 0
M  V30 6015 H 568.193 -1.1419 1.57945 0
M  V30 6016 H 567.289 -2.66915 1.61749 0
M  V30 6017 N 567.59 -1.07411 -1.15328 0
M  V30 6018 C 568.52 -0.716472 -2.22236 0
M  V30 6019 C 569.501 0.296373 -1.67498 0
M  V30 6020 O 570.686 0.168989 -1.93463 0
M  V30 6021 C 567.816 -0.114142 -3.47112 0
M  V30 6022 C 566.77 -1.05421 -4.14814 0
M  V30 6023 C 566.096 -0.314604 -5.33774 0
M  V30 6024 C 567.396 -2.38808 -4.64508 0
M  V30 6025 H 569.09 -1.61029 -2.52408 0
M  V30 6026 H 566.636 -0.775702 -1.21321 0
M  V30 6027 H 568.589 0.148001 -4.2114 0
M  V30 6028 H 567.313 0.814755 -3.16274 0
M  V30 6029 H 565.972 -1.30128 -3.42728 0
M  V30 6030 H 565.62 0.617772 -4.99192 0
M  V30 6031 H 565.32 -0.941209 -5.80013 0
M  V30 6032 H 566.844 -0.0602747 -6.1057 0
M  V30 6033 H 568.258 -2.18424 -5.3006 0
M  V30 6034 H 566.655 -2.97069 -5.21412 0
M  V30 6035 H 567.725 -3.01067 -3.80114 0
M  V30 6036 N 569.068 1.32177 -0.85831 0
M  V30 6037 C 570.031 2.27086 -0.310588 0
M  V30 6038 C 571.031 1.51751 0.531806 0
M  V30 6039 O 572.221 1.70794 0.34279 0
M  V30 6040 C 569.353 3.36266 0.560179 0
M  V30 6041 H 570.546 2.77045 -1.1483 0
M  V30 6042 H 568.099 1.42911 -0.632942 0
M  V30 6043 H 568.834 2.9158 1.41956 0
M  V30 6044 H 568.619 3.92077 -0.0428473 0
M  V30 6045 H 570.109 4.06974 0.936056 0
M  V30 6046 N 570.547 0.616602 1.45037 0
M  V30 6047 C 571.963 0.280994 1.57107 0
M  V30 6048 C 572.163 -1.21627 1.60653 0
M  V30 6049 O 571.219 -1.9997 1.54169 0
M  V30 6050 C 572.532 0.960116 2.8496 0
M  V30 6051 C 574.08 0.936884 2.98649 0
M  V30 6052 C 574.555 1.59619 4.29285 0
M  V30 6053 N 576.046 1.5621 4.36065 0
M  V30 6054 C 576.781 2.04131 5.35834 0
M  V30 6055 N 576.277 2.60177 6.4209 0
M  V30 6056 N 578.07 1.94845 5.27249 0
M  V30 6057 H 570.221 1.58867 1.40979 0
M  V30 6058 H 572.484 0.666024 0.674623 0
M  V30 6059 H 572.19 2.01473 2.88273 0
M  V30 6060 H 572.064 0.488921 3.74018 0
M  V30 6061 H 574.451 -0.109209 2.94898 0
M  V30 6062 H 574.532 1.44643 2.10979 0
M  V30 6063 H 574.176 2.64166 4.33796 0
M  V30 6064 H 574.106 1.06159 5.15789 0
M  V30 6065 H 576.597 1.15276 3.59889 0
M  V30 6066 H 576.91 2.94513 7.1448 0
M  V30 6067 H 575.255 2.64221 6.42816 0
M  V30 6068 H 578.446 1.50792 4.43147 0
M  V30 6069 H 578.619 2.32504 6.04852 0
M  V30 6070 N 572.025 -1.5352 0.356285 0
M  V30 6071 C 572.955 -2.28372 -0.486661 0
M  V30 6072 C 573.936 -1.30432 -1.09185 0
M  V30 6073 O 575.121 -1.59291 -1.11085 0
M  V30 6074 C 572.251 -3.06604 -1.63129 0
M  V30 6075 C 571.205 -4.12154 -1.15381 0
M  V30 6076 C 570.531 -4.78415 -2.38796 0
M  V30 6077 C 571.831 -5.21724 -0.245179 0
M  V30 6078 H 573.525 -2.99083 0.137797 0
M  V30 6079 H 571.071 -1.43841 0.0677134 0
M  V30 6080 H 573.024 -3.57712 -2.22755 0
M  V30 6081 H 571.748 -2.33568 -2.28284 0
M  V30 6082 H 570.407 -3.61978 -0.580294 0
M  V30 6083 H 570.055 -4.01959 -3.02387 0
M  V30 6084 H 569.755 -5.49734 -2.07524 0
M  V30 6085 H 571.279 -5.32313 -2.99125 0
M  V30 6086 H 572.693 -5.68391 -0.748646 0
M  V30 6087 H 571.09 -6.00095 -0.0237608 0
M  V30 6088 H 572.16 -4.79596 0.715229 0
M  V30 6089 N 573.503 -0.0852151 -1.57369 0
M  V30 6090 C 574.752 0.580443 -1.93168 0
M  V30 6091 C 575.065 1.6995 -0.968319 0
M  V30 6092 O 576.271 2.42564 -1.21963 0
M  V30 6093 C 574.727 1.08386 -3.43192 0
M  V30 6094 C 574.335 -0.00491388 -4.48 0
M  V30 6095 C 576.079 1.72281 -3.87968 0
M  V30 6096 C 573.986 0.513299 -5.89168 0
M  V30 6097 H 572.916 0.22059 -0.72101 0
M  V30 6098 H 575.567 -0.159621 -1.82804 0
M  V30 6099 H 573.949 1.8773 -3.48674 0
M  V30 6100 H 575.123 -0.780032 -4.5415 0
M  V30 6101 H 573.438 -0.548453 -4.12772 0
M  V30 6102 H 576.035 2.12108 -4.9083 0
M  V30 6103 H 576.378 2.58811 -3.26071 0
M  V30 6104 H 576.911 0.995359 -3.85146 0
M  V30 6105 H 573.65 -0.315153 -6.54742 0
M  V30 6106 H 573.17 1.25564 -5.8651 0
M  V30 6107 H 574.849 0.985433 -6.39451 0
M  V30 6108 N 574.981 1.5647 0.188427 0
M  V30 6109 C 575.891 1.98285 1.2538 0
M  V30 6110 C 576.907 0.891535 1.49424 0
M  V30 6111 O 578.083 1.19782 1.61908 0
M  V30 6112 C 575.148 2.31965 2.57669 0
M  V30 6113 C 574.209 3.54838 2.41638 0
M  V30 6114 C 573.442 3.86901 3.67618 0
M  V30 6115 O 573.665 3.20163 4.72072 0
M  V30 6116 O 572.599 4.80309 3.62749 0
M  V30 6117 H 576.425 2.89145 0.928912 0
M  V30 6118 H 574.01 1.44112 0.393955 0
M  V30 6119 H 575.892 2.54673 3.35737 0
M  V30 6120 H 574.567 1.44271 2.89771 0
M  V30 6121 H 573.474 3.37369 1.61658 0
M  V30 6122 H 574.807 4.43019 2.14465 0
M  V30 6123 N 576.459 -0.456382 1.50847 0
M  V30 6124 C 577.736 -1.21739 1.53098 0
M  V30 6125 C 578.116 -2.09179 0.284132 0
M  V30 6126 O 577.464 -2.16466 -0.731773 0
M  V30 6127 C 577.674 -2.03573 2.83477 0
M  V30 6128 C 579.022 -2.61264 3.34703 0
M  V30 6129 O 580.046 -2.13802 2.84898 0
M  V30 6130 O 578.905 -3.47779 4.21559 0
M  V30 6131 H 575.999 -0.553219 0.614718 0
M  V30 6132 H 578.545 -0.467003 1.63148 0
M  V30 6133 H 577.317 -1.39232 3.65691 0
M  V30 6134 H 576.94 -2.85716 2.76499 0
M  V30 6135 N 577.937 -1.40673 -0.710563 0
M  V30 6136 C 578.885 -1.41517 -1.84596 0
M  V30 6137 C 579.879 -0.295043 -1.66811 0
M  V30 6138 O 581.085 -0.466331 -1.73854 0
M  V30 6139 H 577.46 -0.442467 -0.608052 0
M  V30 6140 H 579.431 -2.37238 -1.80999 0
M  V30 6141 C 578.18 -1.29957 -3.225 0
M  V30 6142 H 577.503 -2.15429 -3.36794 0
M  V30 6143 H 578.943 -1.34608 -4.02066 0
M  V30 6144 C 577.402 -0.0103164 -3.36898 0
M  V30 6145 O 577.932 0.950707 -3.90288 0
M  V30 6146 N 576.138 0.0608409 -2.90536 0
M  V30 6147 H 575.685 -0.721943 -2.47277 0
M  V30 6148 H 575.643 0.92292 -3.00549 0
M  V30 6149 N 579.415 0.9433 -1.26252 0
M  V30 6150 C 580.325 2.07532 -1.09397 0
M  V30 6151 C 581.341 1.73977 -0.0280449 0
M  V30 6152 O 582.517 2.00067 -0.231337 0
M  V30 6153 C 579.582 3.39002 -0.726523 0
M  V30 6154 C 578.643 3.86353 -1.87163 0
M  V30 6155 C 577.876 5.11549 -1.52162 0
M  V30 6156 O 578.099 5.68834 -0.422385 0
M  V30 6157 O 577.033 5.53889 -2.35565 0
M  V30 6158 H 580.859 2.24658 -2.04359 0
M  V30 6159 H 578.444 1.05988 -1.05295 0
M  V30 6160 H 580.326 4.18 -0.534236 0
M  V30 6161 H 579.001 3.2312 0.193721 0
M  V30 6162 H 577.908 3.0831 -2.11886 0
M  V30 6163 H 579.241 4.06752 -2.77152 0
M  V30 6164 N 580.893 1.08022 1.14757 0
M  V30 6165 C 582.123 0.827646 1.89298 0
M  V30 6166 C 582.531 -0.623506 1.78631 0
M  V30 6167 O 581.874 -1.43991 1.14071 0
M  V30 6168 C 581.936 1.16553 3.40082 0
M  V30 6169 C 581.6 2.61866 3.74533 0
M  V30 6170 C 582.597 3.60116 3.74984 0
M  V30 6171 C 580.282 2.97619 4.04633 0
M  V30 6172 C 582.276 4.92151 4.05051 0
M  V30 6173 C 579.963 4.2985 4.34364 0
M  V30 6174 C 580.961 5.26926 4.34555 0
M  V30 6175 O 580.649 6.5678 4.63568 0
M  V30 6176 H 580.381 0.298396 0.606577 0
M  V30 6177 H 582.935 1.44187 1.46285 0
M  V30 6178 H 581.165 0.494296 3.83528 0
M  V30 6179 H 582.854 0.894407 3.95923 0
M  V30 6180 H 583.62 3.33837 3.51821 0
M  V30 6181 H 579.499 2.22702 4.03639 0
M  V30 6182 H 583.043 5.67915 4.05115 0
M  V30 6183 H 578.94 4.55879 4.56995 0
M  V30 6184 H 579.708 6.62035 4.81303 0
M  V30 6185 N 582.371 -1.3172 0.865308 0
M  V30 6186 C 583.599 -2.01057 0.488251 0
M  V30 6187 C 584.014 -1.64979 -0.918 0
M  V30 6188 O 583.371 -0.876597 -1.60069 0
M  V30 6189 C 583.422 -3.55964 0.630224 0
M  V30 6190 O 583.143 -3.90749 1.98109 0
M  V30 6191 C 584.644 -4.42574 0.253567 0
M  V30 6192 H 581.864 -0.64332 0.190736 0
M  V30 6193 H 584.408 -1.68058 1.16519 0
M  V30 6194 H 582.563 -3.874 0.000895422 0
M  V30 6195 H 582.977 -4.85467 1.9855 0
M  V30 6196 H 584.451 -5.50521 0.403875 0
M  V30 6197 H 584.928 -4.31724 -0.806895 0
M  V30 6198 H 585.534 -4.16547 0.858404 0
M  V30 6199 N 583.85 -0.624285 -1.44708 0
M  V30 6200 C 584.812 0.0749638 -2.29077 0
M  V30 6201 C 585.812 0.778965 -1.40673 0
M  V30 6202 O 587.003 0.624591 -1.62618 0
M  V30 6203 C 584.135 1.11663 -3.22094 0
M  V30 6204 H 585.327 -0.667013 -2.92388 0
M  V30 6205 H 582.88 -0.384098 -1.51507 0
M  V30 6206 H 583.615 1.88881 -2.63618 0
M  V30 6207 H 583.401 0.61583 -3.87234 0
M  V30 6208 H 584.891 1.60585 -3.8549 0
M  V30 6209 N 585.328 1.53329 -0.364422 0
M  V30 6210 C 586.744 1.59594 -0.0133165 0
M  V30 6211 C 586.944 1.37959 1.46865 0
M  V30 6212 O 586 1.18418 2.2301 0
M  V30 6213 C 587.313 2.97032 -0.468213 0
M  V30 6214 C 588.861 3.10138 -0.422334 0
M  V30 6215 C 589.336 4.49986 -0.853024 0
M  V30 6216 N 590.827 4.56098 -0.808037 0
M  V30 6217 C 591.562 5.62495 -1.11299 0
M  V30 6218 N 591.058 6.7665 -1.48717 0
M  V30 6219 N 592.851 5.52473 -1.03586 0
M  V30 6220 H 585.002 1.65644 -1.32951 0
M  V30 6221 H 587.265 0.77684 -0.543345 0
M  V30 6222 H 586.971 3.18 -1.5023 0
M  V30 6223 H 586.845 3.76918 0.145775 0
M  V30 6224 H 589.232 2.88881 0.602622 0
M  V30 6225 H 589.313 2.32263 -1.0718 0
M  V30 6226 H 588.957 4.7198 -1.87609 0
M  V30 6227 H 588.887 5.26289 -0.180819 0
M  V30 6228 H 591.378 3.74131 -0.532361 0
M  V30 6229 H 591.691 7.53776 -1.70415 0
M  V30 6230 H 590.036 6.78044 -1.52581 0
M  V30 6231 H 593.227 4.6217 -0.742736 0
M  V30 6232 H 593.4 6.35295 -1.27686 0
M  V30 6233 N 586.806 0.0935595 1.57322 0
M  V30 6234 C 587.716 -0.880192 2.17462 0
M  V30 6235 C 588.732 -1.31135 1.14366 0
M  V30 6236 O 589.908 -1.37958 1.46729 0
M  V30 6237 C 586.973 -2.12184 2.74188 0
M  V30 6238 C 586.034 -1.74503 3.92234 0
M  V30 6239 C 585.267 -2.92748 4.46245 0
M  V30 6240 O 585.49 -4.07427 3.99198 0
M  V30 6241 O 584.424 -2.71303 5.37288 0
M  V30 6242 H 588.25 -0.398516 3.01074 0
M  V30 6243 H 585.835 -0.130707 1.48827 0
M  V30 6244 H 587.717 -2.84953 3.10451 0
M  V30 6245 H 586.392 -2.59407 1.93623 0
M  V30 6246 H 585.299 -0.989186 3.60785 0
M  V30 6247 H 586.632 -1.32044 4.74157 0
M  V30 6248 N 588.284 -1.56567 -0.180126 0
M  V30 6249 C 589.532 -1.81133 -0.896392 0
M  V30 6250 C 589.853 -0.669114 -1.83161 0
M  V30 6251 O 589.123 0.311616 -1.93406 0
M  V30 6252 H 587.703 -0.668172 -0.333999 0
M  V30 6253 H 590.365 -1.94048 -0.182051 0
M  V30 6254 H 589.461 -2.74854 -1.47857 0
M  V30 6255 N 589.762 0.448376 -1.51087 0
M  V30 6256 C 590.725 1.52588 -1.71025 0
M  V30 6257 C 591.725 1.49958 -0.580442 0
M  V30 6258 O 592.915 1.52176 -0.847833 0
M  V30 6259 C 590.047 2.92163 -1.75652 0
M  V30 6260 H 591.24 1.36218 -2.67179 0
M  V30 6261 H 588.793 0.676313 -1.4091 0
M  V30 6262 H 589.528 3.13951 -0.812724 0
M  V30 6263 H 589.313 2.95478 -2.57751 0
M  V30 6264 H 590.803 3.70349 -1.92953 0
M  V30 6265 N 591.24 1.41047 0.703093 0
M  V30 6266 C 592.187 1.42302 1.81711 0
M  V30 6267 C 593.157 0.278336 1.63751 0
M  V30 6268 O 594.342 0.478266 1.84709 0
M  V30 6269 C 591.482 1.30362 3.19531 0
M  V30 6270 C 590.595 2.54638 3.48975 0
M  V30 6271 C 589.73 2.35047 4.76368 0
M  V30 6272 C 588.769 3.54837 4.98756 0
M  V30 6273 N 587.906 3.34363 6.1737 0
M  V30 6274 H 592.746 2.37516 1.79973 0
M  V30 6275 H 590.283 1.1795 0.878983 0
M  V30 6276 H 592.241 1.21443 3.99134 0
M  V30 6277 H 590.871 0.387602 3.20464 0
M  V30 6278 H 589.923 2.74037 2.63833 0
M  V30 6279 H 591.235 3.43766 3.61423 0
M  V30 6280 H 590.389 2.23552 5.64012 0
M  V30 6281 H 589.128 1.43363 4.66153 0
M  V30 6282 H 588.133 3.66795 4.09563 0
M  V30 6283 H 589.358 4.47464 5.10835 0
M  V30 6284 H 587.304 2.45373 6.08382 0
M  V30 6285 H 587.221 4.17063 6.30551 0
M  V30 6286 H 588.489 3.26626 7.07768 0
M  V30 6287 N 592.718 -0.936591 1.26751 0
M  V30 6288 C 593.965 -1.68331 1.12566 0
M  V30 6289 C 594.293 -1.91677 -0.330168 0
M  V30 6290 O 593.548 -1.49859 -1.2586 0
M  V30 6291 C 593.847 -3.06099 1.84494 0
M  V30 6292 C 593.513 -3.02493 3.34378 0
M  V30 6293 C 592.175 -3.01217 3.75262 0
M  V30 6294 C 594.527 -2.94453 4.30055 0
M  V30 6295 C 591.855 -2.89672 5.10203 0
M  V30 6296 C 594.207 -2.84449 5.65041 0
M  V30 6297 C 592.871 -2.81518 6.0523 0
M  V30 6298 H 592.141 -0.615965 0.411907 0
M  V30 6299 H 594.788 -1.09292 1.5725 0
M  V30 6300 H 593.093 -3.6879 1.32292 0
M  V30 6301 H 594.79 -3.62733 1.70955 0
M  V30 6302 H 591.38 -3.04269 3.01858 0
M  V30 6303 H 595.564 -2.94544 3.99447 0
M  V30 6304 H 590.82 -2.85783 5.40498 0
M  V30 6305 H 594.994 -2.77192 6.38856 0
M  V30 6306 H 592.621 -2.72329 7.09747 0
M  V30 6307 N 594.196 -1.08629 -1.14182 0
M  V30 6308 C 595.607 -0.838003 -1.66836 0
M  V30 6309 C 595.958 0.634885 -1.85644 0
M  V30 6310 O 595.083 1.49008 -1.56926 0
M  V30 6311 C 595.678 -1.51465 -3.03058 0
M  V30 6312 C 594.237 -1.31355 -3.52736 0
M  V30 6313 C 593.384 -1.57599 -2.28162 0
M  V30 6314 H 596.335 -1.24656 -0.982165 0
M  V30 6315 H 596.356 -0.943134 -3.68626 0
M  V30 6316 H 595.868 -2.58661 -2.89337 0
M  V30 6317 H 593.969 -0.262384 -3.71675 0
M  V30 6318 H 594.082 -2.04275 -4.33369 0
M  V30 6319 H 592.446 -0.997659 -2.34348 0
M  V30 6320 H 593.229 -2.66006 -2.17015 0
M  V30 6321 N 595.674 1.31259 -0.872281 0
M  V30 6322 C 596.923 1.95893 -0.480493 0
M  V30 6323 C 597.236 1.697 0.972688 0
M  V30 6324 O 598.442 2.28214 1.47073 0
M  V30 6325 C 596.898 3.50705 -0.808342 0
M  V30 6326 C 596.506 3.85735 -2.27844 0
M  V30 6327 C 598.25 4.21719 -0.485136 0
M  V30 6328 C 596.157 5.33668 -2.54858 0
M  V30 6329 H 595.087 0.733182 -0.175955 0
M  V30 6330 H 597.738 1.49396 -1.0655 0
M  V30 6331 H 596.12 3.95706 -0.152558 0
M  V30 6332 H 597.294 3.51686 -2.97748 0
M  V30 6333 H 595.609 3.27792 -2.56791 0
M  V30 6334 H 598.206 5.30559 -0.664166 0
M  V30 6335 H 598.549 4.12316 0.574592 0
M  V30 6336 H 599.082 3.82359 -1.09756 0
M  V30 6337 H 595.821 5.48109 -3.59523 0
M  V30 6338 H 595.341 5.69061 -1.8955 0
M  V30 6339 H 597.02 6.00958 -2.39706 0
M  V30 6340 N 597.152 0.631951 1.44375 0
M  V30 6341 C 598.099 -0.0724807 2.30686 0
M  V30 6342 C 599.069 -0.835975 1.43529 0
M  V30 6343 O 600.254 -0.816849 1.7243 0
M  V30 6344 C 597.394 -1.04753 3.28817 0
M  V30 6345 C 596.507 -0.282367 4.31076 0
M  V30 6346 C 595.642 -1.2493 5.163 0
M  V30 6347 C 594.681 -0.473349 6.10267 0
M  V30 6348 N 593.818 -1.39079 6.88187 0
M  V30 6349 H 598.658 0.669477 2.90383 0
M  V30 6350 H 596.195 0.341927 1.43071 0
M  V30 6351 H 598.153 -1.62623 3.842 0
M  V30 6352 H 596.783 -1.75661 2.70819 0
M  V30 6353 H 595.835 0.412268 3.78159 0
M  V30 6354 H 597.147 0.321955 4.9776 0
M  V30 6355 H 596.301 -1.89931 5.76204 0
M  V30 6356 H 595.04 -1.88755 4.49692 0
M  V30 6357 H 594.045 0.190142 5.49471 0
M  V30 6358 H 595.27 0.16019 6.78911 0
M  V30 6359 H 593.216 -2.01623 6.24247 0
M  V30 6360 H 593.133 -0.840513 7.51313 0
M  V30 6361 H 594.401 -2.02961 7.52613 0
M  V30 6362 N 598.631 -1.53133 0.372548 0
M  V30 6363 C 599.877 -2.02336 -0.207823 0
M  V30 6364 C 600.232 -1.25477 -1.45853 0
M  V30 6365 O 599.525 -0.341971 -1.88524 0
M  V30 6366 C 599.719 -3.53206 -0.545938 0
M  V30 6367 C 599.548 -4.44674 0.670454 0
M  V30 6368 C 598.318 -4.91217 1.18465 0
M  V30 6369 C 600.516 -4.90772 1.53777 0
M  V30 6370 N 598.498 -5.66711 2.36034 0
M  V30 6371 C 599.869 -5.64678 2.56004 0
M  V30 6372 C 601.924 -4.72836 1.55983 0
M  V30 6373 C 600.627 -6.22555 3.60303 0
M  V30 6374 C 602.653 -5.31583 2.59179 0
M  V30 6375 C 602.015 -6.05381 3.6013 0
M  V30 6376 H 598.114 -0.781048 -0.0385783 0
M  V30 6377 H 600.698 -1.87665 0.518664 0
M  V30 6378 H 598.869 -3.68024 -1.24149 0
M  V30 6379 H 600.601 -3.89123 -1.112 0
M  V30 6380 H 597.356 -4.67652 0.748205 0
M  V30 6381 H 597.78 -6.09117 2.95475 0
M  V30 6382 H 602.422 -4.15299 0.792877 0
M  V30 6383 H 600.14 -6.79183 4.37876 0
M  V30 6384 H 603.726 -5.19595 2.61749 0
M  V30 6385 H 602.606 -6.50028 4.38672 0
M  V30 6386 N 600.109 -0.101901 -1.5727 0
M  V30 6387 C 601.337 0.568392 -1.98939 0
M  V30 6388 C 601.752 1.61301 -0.981194 0
M  V30 6389 O 601.109 1.82478 0.0282869 0
M  V30 6390 C 601.16 1.20997 -3.40649 0
M  V30 6391 O 600.881 0.207129 -4.3761 0
M  V30 6392 C 602.382 1.96523 -3.97358 0
M  V30 6393 H 599.602 0.15186 -0.65359 0
M  V30 6394 H 602.146 -0.183198 -2.03678 0
M  V30 6395 H 600.301 1.91245 -3.36904 0
M  V30 6396 H 600.715 0.671071 -5.20189 0
M  V30 6397 H 602.189 2.36764 -4.98645 0
M  V30 6398 H 602.666 2.83376 -3.35552 0
M  V30 6399 H 603.272 1.31076 -4.04598 0
M  V30 6400 N 601.587 1.56661 0.17182 0
M  V30 6401 C 602.55 1.9549 1.19651 0
M  V30 6402 C 603.55 0.838501 1.37207 0
M  V30 6403 O 604.74 1.10556 1.34622 0
M  V30 6404 C 601.872 2.24927 2.56166 0
M  V30 6405 H 603.065 2.87184 0.864007 0
M  V30 6406 H 600.618 1.50711 0.41425 0
M  V30 6407 H 601.353 1.35944 2.94431 0
M  V30 6408 H 601.138 3.06301 2.4479 0
M  V30 6409 H 602.628 2.55891 3.30014 0
M  V30 6410 N 603.065 -0.440357 1.51323 0
M  V30 6411 C 604.476 -1.02032 1.56353 0
M  V30 6412 C 604.827 -1.92382 0.385197 0
M  V30 6413 O 603.952 -2.10583 -0.498373 0
M  V30 6414 C 604.547 -1.85723 2.83359 0
M  V30 6415 C 603.106 -2.38774 2.90971 0
M  V30 6416 C 602.253 -1.17908 2.50984 0
M  V30 6417 H 605.204 -0.221744 1.57143 0
M  V30 6418 H 605.225 -2.71141 2.66951 0
M  V30 6419 H 604.737 -1.19939 3.69102 0
M  V30 6420 H 602.838 -3.08021 2.09651 0
M  V30 6421 H 602.951 -2.71778 3.94555 0
M  V30 6422 H 601.315 -1.52347 2.04114 0
M  V30 6423 H 602.098 -0.537393 3.39068 0
M  V30 6424 N 604.543 -1.41418 -0.695603 0
M  V30 6425 C 605.453 -1.45622 -1.83933 0
M  V30 6426 C 606.469 -0.346825 -1.70508 0
M  V30 6427 O 607.645 -0.59454 -1.92424 0
M  V30 6428 C 604.71 -1.33627 -3.19914 0
M  V30 6429 C 603.771 -2.54882 -3.45447 0
M  V30 6430 C 603.004 -2.43449 -4.7494 0
M  V30 6431 O 603.227 -1.45905 -5.51424 0
M  V30 6432 O 602.161 -3.33206 -5.01256 0
M  V30 6433 H 605.987 -2.42114 -1.83342 0
M  V30 6434 H 603.572 -1.22956 -0.848658 0
M  V30 6435 H 605.454 -1.29221 -4.01098 0
M  V30 6436 H 604.129 -0.402508 -3.21188 0
M  V30 6437 H 603.036 -2.64865 -2.64192 0
M  V30 6438 H 604.369 -3.47087 -3.48987 0
M  V30 6439 N 606.021 0.929856 -1.27246 0
M  V30 6440 C 606.984 2.01172 -1.09829 0
M  V30 6441 C 607.984 1.60743 -0.0429687 0
M  V30 6442 O 609.174 1.71813 -0.287373 0
M  V30 6443 C 606.306 3.34191 -0.673003 0
M  V30 6444 H 607.499 2.18054 -2.05895 0
M  V30 6445 H 605.052 1.11036 -1.10003 0
M  V30 6446 H 605.787 3.23009 0.289134 0
M  V30 6447 H 605.572 3.64892 -1.43515 0
M  V30 6448 H 607.062 4.13646 -0.573323 0
M  V30 6449 N 607.499 1.09233 1.13605 0
M  V30 6450 C 608.748 0.82205 1.84188 0
M  V30 6451 C 609.061 -0.654548 1.84323 0
M  V30 6452 O 610.267 -1.04029 2.50779 0
M  V30 6453 C 608.723 1.42066 3.30674 0
M  V30 6454 C 608.331 2.92965 3.38933 0
M  V30 6455 C 610.075 1.22924 4.06313 0
M  V30 6456 C 607.982 3.45922 4.79679 0
M  V30 6457 H 606.912 0.303854 0.690064 0
M  V30 6458 H 609.563 1.31479 1.28006 0
M  V30 6459 H 607.945 0.855613 3.86646 0
M  V30 6460 H 609.119 3.55679 2.92966 0
M  V30 6461 H 607.434 3.11118 2.76757 0
M  V30 6462 H 610.031 1.59945 5.10217 0
M  V30 6463 H 610.374 0.169726 4.15954 0
M  V30 6464 H 610.907 1.76168 3.56665 0
M  V30 6465 H 607.646 4.51484 4.75229 0
M  V30 6466 H 607.166 2.87971 5.26149 0
M  V30 6467 H 608.845 3.43009 5.48592 0
M  V30 6468 N 608.977 -1.30795 0.87923 0
M  V30 6469 C 609.925 -2.30231 0.331112 0
M  V30 6470 C 610.919 -1.59918 -0.558794 0
M  V30 6471 O 612.125 -1.74441 -0.443866 0
M  V30 6472 H 608.5 -0.746785 0.088409 0
M  V30 6473 H 610.471 -2.73925 1.18353 0
M  V30 6474 C 609.22 -3.44848 -0.444401 0
M  V30 6475 H 608.543 -3.99131 0.231106 0
M  V30 6476 H 609.983 -4.16516 -0.793109 0
M  V30 6477 C 608.442 -2.94329 -1.63926 0
M  V30 6478 O 608.972 -2.93875 -2.73862 0
M  V30 6479 N 607.178 -2.50413 -1.4745 0
M  V30 6480 H 606.725 -2.50982 -0.58015 0
M  V30 6481 H 606.683 -2.16969 -2.27534 0
M  V30 6482 N 610.455 -0.639598 -1.44038 0
M  V30 6483 C 611.685 -0.154586 -2.06021 0
M  V30 6484 C 612.093 1.17951 -1.47933 0
M  V30 6485 O 611.436 1.73627 -0.59994 0
M  V30 6486 C 611.498 0.0255459 -3.59491 0
M  V30 6487 C 611.162 -1.2317 -4.40089 0
M  V30 6488 C 612.159 -2.15735 -4.73027 0
M  V30 6489 C 609.844 -1.46949 -4.80324 0
M  V30 6490 C 611.838 -3.30382 -5.45093 0
M  V30 6491 C 609.525 -2.61891 -5.52138 0
M  V30 6492 C 610.523 -3.53433 -5.84443 0
M  V30 6493 O 610.211 -4.6637 -6.54793 0
M  V30 6494 H 609.943 -0.0808543 -0.671147 0
M  V30 6495 H 612.497 -0.876541 -1.85758 0
M  V30 6496 H 610.727 0.802733 -3.78276 0
M  V30 6497 H 612.416 0.466184 -4.03214 0
M  V30 6498 H 613.182 -1.98602 -4.42473 0
M  V30 6499 H 609.061 -0.765815 -4.54595 0
M  V30 6500 H 612.605 -4.01856 -5.70226 0
M  V30 6501 H 608.502 -2.78964 -5.82108 0
M  V30 6502 H 609.27 -4.6546 -6.73267 0
M  V30 6503 N 611.933 1.52934 -0.380664 0
M  V30 6504 C 613.181 2.01069 0.203874 0
M  V30 6505 C 613.502 1.26922 1.4804 0
M  V30 6506 O 612.772 0.386787 1.92044 0
M  V30 6507 H 611.352 0.742882 0.0783279 0
M  V30 6508 H 614.014 1.88099 -0.510368 0
M  V30 6509 H 613.11 3.09258 0.42021 0
M  V30 6510 N 613.412 0.11024 1.57214 0
M  V30 6511 C 614.64 -0.557834 1.99238 0
M  V30 6512 C 615.055 -1.60778 0.989734 0
M  V30 6513 O 614.412 -1.82491 -0.0186092 0
M  V30 6514 C 614.463 -1.19189 3.41286 0
M  V30 6515 O 614.184 -0.183919 4.37714 0
M  V30 6516 C 615.685 -1.94413 3.98395 0
M  V30 6517 H 612.905 -0.148392 0.654386 0
M  V30 6518 H 615.449 0.193996 2.03578 0
M  V30 6519 H 613.604 -1.89456 3.37913 0
M  V30 6520 H 614.018 -0.643475 5.20538 0
M  V30 6521 H 615.492 -2.34116 4.99894 0
M  V30 6522 H 615.969 -2.81592 3.3705 0
M  V30 6523 H 616.575 -1.28928 4.05287 0
M  V30 6524 N 614.89 -1.56749 -0.16351 0
M  V30 6525 C 616.137 -1.82434 -0.878866 0
M  V30 6526 C 616.465 -0.688557 -1.81904 0
M  V30 6527 O 615.72 0.323644 -1.93005 0
M  V30 6528 C 616.019 -3.14342 -1.70071 0
M  V30 6529 C 615.685 -4.41647 -0.908775 0
M  V30 6530 C 614.347 -4.76224 -0.690236 0
M  V30 6531 C 616.699 -5.19998 -0.353815 0
M  V30 6532 C 614.027 -5.86624 0.0942374 0
M  V30 6533 C 616.379 -6.3122 0.41761 0
M  V30 6534 C 615.043 -6.64358 0.646879 0
M  V30 6535 H 614.313 -0.667574 -0.3216 0
M  V30 6536 H 616.96 -1.90963 -0.14337 0
M  V30 6537 H 615.265 -3.0119 -2.50583 0
M  V30 6538 H 616.962 -3.31426 -2.25738 0
M  V30 6539 H 613.552 -4.1453 -1.08916 0
M  V30 6540 H 617.736 -4.93673 -0.509975 0
M  V30 6541 H 612.992 -6.10751 0.281529 0
M  V30 6542 H 617.166 -6.91133 0.854849 0
M  V30 6543 H 614.793 -7.49742 1.25662 0
M  V30 6544 N 616.368 0.432326 -1.51554 0
M  V30 6545 C 617.596 1.20364 -1.68286 0
M  V30 6546 C 618.011 1.84888 -0.38233 0
M  V30 6547 O 617.368 1.70924 0.639627 0
M  V30 6548 C 617.419 2.28398 -2.80208 0
M  V30 6549 O 617.14 1.66512 -4.05223 0
M  V30 6550 C 618.641 3.18584 -3.08251 0
M  V30 6551 H 615.861 0.36259 -0.564596 0
M  V30 6552 H 618.405 0.511647 -1.97996 0
M  V30 6553 H 616.56 2.93305 -2.53083 0
M  V30 6554 H 616.974 2.37951 -4.67418 0
M  V30 6555 H 618.448 3.90511 -3.90135 0
M  V30 6556 H 618.925 3.79628 -2.2086 0
M  V30 6557 H 619.531 2.59372 -3.37055 0
M  V30 6558 N 617.846 1.41785 0.688094 0
M  V30 6559 C 619.095 1.4084 1.44385 0
M  V30 6560 C 619.408 0.0234166 1.95586 0
M  V30 6561 O 620.614 -0.108647 2.71283 0
M  V30 6562 C 619.07 2.47675 2.61123 0
M  V30 6563 C 618.678 3.92116 2.16677 0
M  V30 6564 C 620.422 2.55877 3.38714 0
M  V30 6565 C 618.329 4.90487 3.30419 0
M  V30 6566 H 617.259 0.523787 0.542368 0
M  V30 6567 H 619.91 1.6764 0.74627 0
M  V30 6568 H 618.292 2.14018 3.33185 0
M  V30 6569 H 619.466 4.35059 1.51856 0
M  V30 6570 H 617.781 3.87642 1.5206 0
M  V30 6571 H 620.378 3.26553 4.234 0
M  V30 6572 H 620.721 1.59801 3.84408 0
M  V30 6573 H 621.254 2.88662 2.73714 0
M  V30 6574 H 617.993 5.87994 2.89729 0
M  V30 6575 H 617.513 4.52187 3.94065 0
M  V30 6576 H 619.192 5.11591 3.96085 0
M  V30 6577 N 619.324 -0.923095 1.27737 0
M  V30 6578 C 620.271 -2.02432 1.1086 0
M  V30 6579 C 621.241 -1.66098 0.00835195 0
M  V30 6580 O 622.426 -1.90027 0.171542 0
M  V30 6581 C 619.566 -3.36476 0.766671 0
M  V30 6582 C 618.679 -3.85737 1.94501 0
M  V30 6583 C 617.814 -5.08249 1.54455 0
M  V30 6584 C 616.853 -5.49818 2.6901 0
M  V30 6585 N 615.99 -6.63524 2.29521 0
M  V30 6586 H 620.83 -2.16201 2.05089 0
M  V30 6587 H 618.367 -1.05909 1.02087 0
M  V30 6588 H 620.325 -4.13569 0.549223 0
M  V30 6589 H 618.955 -3.22502 -0.13867 0
M  V30 6590 H 618.007 -3.04883 2.27487 0
M  V30 6591 H 619.319 -4.12513 2.80419 0
M  V30 6592 H 618.473 -5.92857 1.28862 0
M  V30 6593 H 617.212 -4.83261 0.656534 0
M  V30 6594 H 616.217 -4.63757 2.95313 0
M  V30 6595 H 617.442 -5.76799 3.5844 0
M  V30 6596 H 615.388 -6.40185 1.43177 0
M  V30 6597 H 615.305 -6.89978 3.08977 0
M  V30 6598 H 616.573 -7.51461 2.07187 0
M  V30 6599 N 620.802 -1.09834 -1.13024 0
M  V30 6600 C 622.027 -0.85909 -1.88771 0
M  V30 6601 C 622.452 0.584402 -1.78791 0
M  V30 6602 O 621.81 1.41101 -1.13842 0
M  V30 6603 C 621.858 -1.30427 -3.36186 0
M  V30 6604 O 620.962 -0.465368 -4.09766 0
M  V30 6605 H 620.303 -0.310786 -0.586778 0
M  V30 6606 H 622.833 -1.46355 -1.42973 0
M  V30 6607 H 622.843 -1.2915 -3.8702 0
M  V30 6608 H 621.518 -2.3555 -3.42767 0
M  V30 6609 H 620.095 -0.542814 -3.68928 0
M  V30 6610 N 622.28 1.30327 -0.886154 0
M  V30 6611 C 623.557 1.90922 -0.425217 0
M  V30 6612 C 623.937 1.80533 1.09413 0
M  V30 6613 O 623.285 1.2233 1.92996 0
M  V30 6614 C 623.495 3.36529 -0.924638 0
M  V30 6615 C 624.843 4.13598 -0.960305 0
M  V30 6616 O 625.867 3.45377 -0.871382 0
M  V30 6617 O 624.726 5.35482 -1.09184 0
M  V30 6618 H 621.82 0.81668 -0.130238 0
M  V30 6619 H 624.366 1.38886 -0.975132 0
M  V30 6620 H 623.138 3.38181 -1.96849 0
M  V30 6621 H 622.761 3.96021 -0.353955 0
M  V30 6622 N 623.758 0.647228 1.43697 0
M  V30 6623 C 625.004 0.158422 2.0218 0
M  V30 6624 C 625.337 -1.22233 1.50907 0
M  V30 6625 O 624.612 -1.81478 0.699702 0
M  V30 6626 C 624.895 0.1627 3.59732 0
M  V30 6627 C 624.748 1.57694 4.21251 0
M  V30 6628 C 626.067 -0.504138 4.37203 0
M  V30 6629 H 623.186 0.059042 0.734631 0
M  V30 6630 H 625.828 0.826772 1.71069 0
M  V30 6631 H 623.978 -0.406414 3.86368 0
M  V30 6632 H 625.65 2.19618 4.05667 0
M  V30 6633 H 623.893 2.12603 3.7813 0
M  V30 6634 H 624.564 1.53183 5.3032 0
M  V30 6635 H 627.04 -0.0199841 4.16095 0
M  V30 6636 H 625.916 -0.470394 5.46881 0
M  V30 6637 H 626.177 -1.57726 4.13007 0
M  V30 6638 N 625.236 -1.5273 0.388769 0
M  V30 6639 C 626.482 -2.02545 -0.186351 0
M  V30 6640 C 626.837 -1.27017 -1.44514 0
M  V30 6641 O 626.13 -0.361948 -1.8815 0
M  V30 6642 C 626.324 -3.53765 -0.508445 0
M  V30 6643 C 626.153 -4.43938 0.71758 0
M  V30 6644 C 624.923 -4.89933 1.23668 0
M  V30 6645 C 627.121 -4.89113 1.58974 0
M  V30 6646 N 625.103 -5.64176 2.42031 0
M  V30 6647 C 626.474 -5.61931 2.61979 0
M  V30 6648 C 628.529 -4.71155 1.60989 0
M  V30 6649 C 627.232 -6.18698 3.66886 0
M  V30 6650 C 629.258 -5.28804 2.64803 0
M  V30 6651 C 628.62 -6.01527 3.6653 0
M  V30 6652 H 624.719 -0.781413 -0.0302921 0
M  V30 6653 H 627.303 -1.87104 0.538539 0
M  V30 6654 H 625.474 -3.6932 -1.20239 0
M  V30 6655 H 627.206 -3.9028 -1.07067 0
M  V30 6656 H 623.961 -4.66833 0.797763 0
M  V30 6657 H 624.385 -6.05949 3.01919 0
M  V30 6658 H 629.027 -4.14435 0.836881 0
M  V30 6659 H 626.745 -6.74501 4.45055 0
M  V30 6660 H 630.331 -5.1679 2.67245 0
M  V30 6661 H 629.211 -6.45339 4.45542 0
M  V30 6662 N 626.714 -0.118576 -1.57153 0
M  V30 6663 C 627.939 0.550582 -1.99958 0
M  V30 6664 C 628.364 1.59458 -0.997736 0
M  V30 6665 O 627.722 1.81274 0.0306269 0
M  V30 6666 C 627.77 1.15379 -3.41643 0
M  V30 6667 O 626.874 2.26932 -3.44348 0
M  V30 6668 H 626.215 0.137567 -0.649593 0
M  V30 6669 H 628.745 -0.206926 -2.03551 0
M  V30 6670 H 628.755 1.48942 -3.79843 0
M  V30 6671 H 627.43 0.389087 -4.14076 0
M  V30 6672 H 626.007 1.94812 -3.17967 0
M  V30 6673 N 628.193 1.56834 0.155195 0
M  V30 6674 C 629.44 1.82898 0.869179 0
M  V30 6675 C 629.768 0.698194 1.81537 0
M  V30 6676 O 629.023 -0.313404 1.93174 0
M  V30 6677 C 629.322 3.15239 1.68402 0
M  V30 6678 C 628.988 4.42123 0.885341 0
M  V30 6679 C 627.65 4.76583 0.664971 0
M  V30 6680 C 630.002 5.20178 0.326234 0
M  V30 6681 C 627.33 5.86566 -0.125346 0
M  V30 6682 C 629.682 6.3099 -0.45108 0
M  V30 6683 C 628.346 6.64006 -0.682102 0
M  V30 6684 H 627.616 0.66927 0.318055 0
M  V30 6685 H 630.263 1.91036 0.133241 0
M  V30 6686 H 628.568 3.02515 2.48982 0
M  V30 6687 H 630.265 3.32618 2.23978 0
M  V30 6688 H 626.855 4.15102 1.06716 0
M  V30 6689 H 631.039 4.93936 0.483787 0
M  V30 6690 H 626.295 6.10594 -0.313915 0
M  V30 6691 H 630.469 6.9067 -0.89149 0
M  V30 6692 H 628.096 7.49065 -1.29636 0
M  V30 6693 N 629.671 -0.424282 1.51781 0
M  V30 6694 C 630.919 -1.17028 1.64769 0
M  V30 6695 C 631.24 -1.91409 0.372523 0
M  V30 6696 O 630.51 -1.86091 -0.612108 0
M  V30 6697 H 629.09 -0.434992 0.607282 0
M  V30 6698 H 631.752 -0.485169 1.88765 0
M  V30 6699 H 630.848 -1.8927 2.4816 0
M  V30 6700 N 631.149 -1.42148 -0.680565 0
M  V30 6701 C 632.398 -1.41604 -1.43636 0
M  V30 6702 C 632.711 -0.0337887 -1.95571 0
M  V30 6703 O 633.917 0.0942588 -2.71336 0
M  V30 6704 C 632.373 -2.49056 -2.59806 0
M  V30 6705 C 631.981 -3.9326 -2.14594 0
M  V30 6706 C 633.725 -2.5767 -3.37352 0
M  V30 6707 C 631.632 -4.92232 -3.27813 0
M  V30 6708 H 630.562 -0.526656 -0.539583 0
M  V30 6709 H 633.213 -1.68033 -0.737369 0
M  V30 6710 H 631.595 -2.15782 -3.32045 0
M  V30 6711 H 632.769 -4.35858 -1.49546 0
M  V30 6712 H 631.084 -3.88443 -1.50002 0
M  V30 6713 H 633.681 -3.28794 -4.21662 0
M  V30 6714 H 634.024 -1.61837 -3.83555 0
M  V30 6715 H 634.557 -2.90109 -2.72179 0
M  V30 6716 H 631.296 -5.89522 -2.86607 0
M  V30 6717 H 630.816 -4.5427 -3.91661 0
M  V30 6718 H 632.495 -5.13684 -3.93367 0
M  V30 6719 N 632.627 0.916307 -1.28225 0
M  V30 6720 C 633.557 2.0352 -1.14464 0
M  V30 6721 C 634.538 1.70045 -0.0430844 0
M  V30 6722 O 635.723 1.92954 -0.219619 0
M  V30 6723 C 632.853 3.37889 -0.803027 0
M  V30 6724 C 631.807 3.85516 -1.85908 0
M  V30 6725 C 631.133 5.1682 -1.37116 0
M  V30 6726 C 632.433 4.07655 -3.26519 0
M  V30 6727 H 634.127 2.1529 -2.08064 0
M  V30 6728 H 631.673 1.03446 -1.00174 0
M  V30 6729 H 633.626 4.15654 -0.693537 0
M  V30 6730 H 632.35 3.26164 0.168674 0
M  V30 6731 H 631.009 3.09953 -1.95767 0
M  V30 6732 H 630.657 5.01497 -0.38859 0
M  V30 6733 H 630.357 5.49657 -2.07728 0
M  V30 6734 H 631.881 5.97143 -1.27484 0
M  V30 6735 H 633.295 4.75953 -3.19596 0
M  V30 6736 H 631.692 4.51818 -3.94943 0
M  V30 6737 H 632.762 3.12553 -3.70727 0
M  V30 6738 N 634.105 1.10431 1.1244 0
M  V30 6739 C 635.035 0.775143 2.20258 0
M  V30 6740 C 636.016 -0.25186 1.68225 0
M  V30 6741 O 637.201 -0.117637 1.93843 0
M  V30 6742 C 634.331 0.206133 3.46688 0
M  V30 6743 C 633.285 1.16382 4.11873 0
M  V30 6744 C 632.611 0.456014 5.32752 0
M  V30 6745 C 633.911 2.5104 4.58013 0
M  V30 6746 H 635.605 1.67665 2.4805 0
M  V30 6747 H 633.151 0.807595 1.19222 0
M  V30 6748 H 635.104 -0.036291 4.21384 0
M  V30 6749 H 633.828 -0.730614 3.18323 0
M  V30 6750 H 632.487 1.39169 3.39157 0
M  V30 6751 H 632.135 -0.485203 5.00654 0
M  V30 6752 H 631.835 1.09466 5.77314 0
M  V30 6753 H 633.359 0.222135 6.10196 0
M  V30 6754 H 634.773 2.32401 5.24083 0
M  V30 6755 H 633.17 3.10789 5.13352 0
M  V30 6756 H 634.24 3.11039 3.71998 0
M  V30 6757 N 635.583 -1.29855 0.893053 0
M  V30 6758 C 636.811 -1.99976 0.530788 0
M  V30 6759 C 637.226 -1.66889 -0.882799 0
M  V30 6760 O 636.583 -0.910352 -1.58173 0
M  V30 6761 C 636.634 -3.54547 0.705587 0
M  V30 6762 O 636.355 -3.86458 2.06353 0
M  V30 6763 C 637.856 -4.41937 0.347387 0
M  V30 6764 H 635.076 -0.639129 0.204339 0
M  V30 6765 H 637.62 -1.65549 1.20057 0
M  V30 6766 H 635.775 -3.87311 0.0830685 0
M  V30 6767 H 636.189 -4.81146 2.08803 0
M  V30 6768 H 637.663 -5.4954 0.520557 0
M  V30 6769 H 638.14 -4.33339 -0.715139 0
M  V30 6770 H 638.746 -4.14633 0.946567 0
M  V30 6771 N 637.061 -0.65484 -1.43351 0
M  V30 6772 C 637.971 0.0363603 -2.34572 0
M  V30 6773 C 638.987 0.810432 -1.53974 0
M  V30 6774 O 640.163 0.757308 -1.86619 0
M  V30 6775 C 637.228 0.989733 -3.32273 0
M  V30 6776 C 636.289 0.212414 -4.28774 0
M  V30 6777 C 635.522 1.12038 -5.21808 0
M  V30 6778 O 635.745 2.35967 -5.19303 0
M  V30 6779 O 634.679 0.59191 -5.98982 0
M  V30 6780 H 638.505 -0.714527 -2.95175 0
M  V30 6781 H 636.09 -0.415029 -1.4352 0
M  V30 6782 H 637.972 1.53759 -3.92347 0
M  V30 6783 H 636.647 1.72082 -2.74171 0
M  V30 6784 H 635.554 -0.379062 -3.72175 0
M  V30 6785 H 636.887 -0.479138 -4.89862 0
M  V30 6786 N 638.539 1.52521 -0.396863 0
M  V30 6787 C 639.788 2.00857 0.184184 0
M  V30 6788 C 640.101 1.28733 1.47265 0
M  V30 6789 O 641.307 1.67821 2.13421 0
M  V30 6790 C 639.763 3.57901 0.378787 0
M  V30 6791 C 639.371 4.38931 -0.896873 0
M  V30 6792 C 641.115 4.14504 0.915789 0
M  V30 6793 C 639.022 5.87591 -0.670133 0
M  V30 6794 H 637.952 0.750496 0.0726055 0
M  V30 6795 H 640.603 1.75965 -0.520425 0
M  V30 6796 H 638.985 3.79072 1.14543 0
M  V30 6797 H 640.159 4.29524 -1.66872 0
M  V30 6798 H 638.474 3.93586 -1.35938 0
M  V30 6799 H 641.071 5.23236 1.10126 0
M  V30 6800 H 641.414 3.71076 1.88701 0
M  V30 6801 H 641.947 3.97253 0.208523 0
M  V30 6802 H 638.686 6.35355 -1.61257 0
M  V30 6803 H 638.206 5.99767 0.0626368 0
M  V30 6804 H 639.885 6.46268 -0.307577 0
M  V30 6805 N 640.017 0.126909 1.57088 0
M  V30 6806 C 641.263 -0.529952 1.95753 0
M  V30 6807 C 641.596 -1.65823 1.01077 0
M  V30 6808 O 640.871 -1.94437 0.0494162 0
M  V30 6809 C 641.154 -1.05517 3.44294 0
M  V30 6810 C 641.007 0.0702253 4.49745 0
M  V30 6811 C 642.326 -1.9435 3.94862 0
M  V30 6812 H 639.445 -0.191168 0.711775 0
M  V30 6813 H 642.087 0.204071 1.88901 0
M  V30 6814 H 640.237 -1.68069 3.50264 0
M  V30 6815 H 641.909 0.705834 4.55868 0
M  V30 6816 H 640.152 0.732259 4.27575 0
M  V30 6817 H 640.823 -0.338642 5.5096 0
M  V30 6818 H 643.299 -1.41658 3.91244 0
M  V30 6819 H 642.175 -2.28015 4.993 0
M  V30 6820 H 642.436 -2.87299 3.36024 0
M  V30 6821 N 641.495 -1.56914 -0.146875 0
M  V30 6822 C 642.723 -1.87515 -0.874394 0
M  V30 6823 C 643.138 -0.715116 -1.74733 0
M  V30 6824 O 642.495 0.315113 -1.79759 0
M  V30 6825 C 642.546 -3.17362 -1.731 0
M  V30 6826 O 642.267 -4.28897 -0.893245 0
M  V30 6827 C 643.768 -3.61479 -2.56609 0
M  V30 6828 H 640.988 -0.621546 -0.252827 0
M  V30 6829 H 643.532 -2.04023 -0.139627 0
M  V30 6830 H 641.687 -3.02608 -2.41883 0
M  V30 6831 H 642.101 -5.03146 -1.48137 0
M  V30 6832 H 643.575 -4.5517 -3.12289 0
M  V30 6833 H 644.052 -2.86773 -3.32653 0
M  V30 6834 H 644.658 -3.78927 -1.93117 0
M  V30 6835 N 642.974 0.416227 -1.52004 0
M  V30 6836 C 643.924 1.50558 -1.7122 0
M  V30 6837 C 644.908 1.50613 -0.56609 0
M  V30 6838 O 646.1 1.56709 -0.822874 0
M  V30 6839 C 643.229 2.88556 -1.85984 0
M  V30 6840 C 642.315 2.93177 -3.06445 0
M  V30 6841 N 642.706 2.67505 -4.29272 0
M  V30 6842 C 641.004 3.24343 -3.06133 0
M  V30 6843 C 641.705 2.78511 -5.10692 0
M  V30 6844 N 640.681 3.11087 -4.45787 0
M  V30 6845 H 644.483 1.29494 -2.63834 0
M  V30 6846 H 641.997 0.62384 -1.4994 0
M  V30 6847 H 643.994 3.66954 -1.97865 0
M  V30 6848 H 642.654 3.10624 -0.945654 0
M  V30 6849 H 643.665 2.42033 -4.57865 0
M  V30 6850 H 640.342 3.52051 -2.24425 0
M  V30 6851 H 641.732 2.62438 -6.18527 0
M  V30 6852 N 644.452 1.42507 0.673017 0
M  V30 6853 C 645.7 1.42789 1.43023 0
M  V30 6854 C 646.021 0.0459738 1.94946 0
M  V30 6855 O 645.291 -0.915765 1.73178 0
M  V30 6856 H 643.871 0.525657 0.530748 0
M  V30 6857 H 646.533 1.77944 0.795113 0
M  V30 6858 H 645.629 2.12872 2.28237 0
M  V30 6859 N 645.93 -0.909495 1.28709 0
M  V30 6860 C 647.346 -1.18862 1.06508 0
M  V30 6861 C 647.546 -2.00604 -0.189864 0
M  V30 6862 O 646.602 -2.36281 -0.890355 0
M  V30 6863 C 647.915 -1.91908 2.31499 0
M  V30 6864 C 649.463 -2.04773 2.36721 0
M  V30 6865 C 649.938 -2.81228 3.6149 0
M  V30 6866 N 651.429 -2.88787 3.62155 0
M  V30 6867 C 652.164 -3.48455 4.55375 0
M  V30 6868 N 651.66 -4.09369 5.58918 0
M  V30 6869 N 653.453 -3.46035 4.42963 0
M  V30 6870 H 645.604 -0.363867 2.0926 0
M  V30 6871 H 647.867 -0.223649 0.921241 0
M  V30 6872 H 647.573 -1.39275 3.22948 0
M  V30 6873 H 647.447 -2.92436 2.38245 0
M  V30 6874 H 649.834 -2.56585 1.45767 0
M  V30 6875 H 649.915 -1.03408 2.33967 0
M  V30 6876 H 649.559 -2.30094 4.5279 0
M  V30 6877 H 649.489 -3.82917 3.61499 0
M  V30 6878 H 651.98 -2.45514 2.87283 0
M  V30 6879 H 652.293 -4.52891 6.26187 0
M  V30 6880 H 650.638 -4.0786 5.62739 0
M  V30 6881 H 653.829 -2.9766 3.6127 0
M  V30 6882 H 654.002 -3.92244 5.15799 0
M  V30 6883 N 647.408 -1.11026 -1.11852 0
M  V30 6884 C 648.657 -0.851249 -1.82857 0
M  V30 6885 C 648.97 0.62514 -1.85341 0
M  V30 6886 O 650.176 1.00026 -2.52403 0
M  V30 6887 C 648.632 -1.47309 -3.28372 0
M  V30 6888 C 648.24 -2.9832 -3.34229 0
M  V30 6889 C 649.984 -1.29373 -4.04306 0
M  V30 6890 C 647.891 -3.53509 -4.74115 0
M  V30 6891 H 646.821 -0.314794 -0.685143 0
M  V30 6892 H 649.472 -1.33499 -1.25898 0
M  V30 6893 H 647.854 -0.917017 -3.85236 0
M  V30 6894 H 649.028 -3.60295 -2.87271 0
M  V30 6895 H 647.343 -3.15482 -2.71772 0
M  V30 6896 H 649.94 -1.68042 -5.07608 0
M  V30 6897 H 650.283 -0.235879 -4.15631 0
M  V30 6898 H 650.816 -1.8182 -3.53817 0
M  V30 6899 H 647.555 -4.58987 -4.67986 0
M  V30 6900 H 647.075 -2.96305 -5.21501 0
M  V30 6901 H 648.754 -3.51693 -5.43066 0
M  V30 6902 N 648.886 1.2938 -0.899927 0
M  V30 6903 C 650.297 1.77644 -0.574427 0
M  V30 6904 C 650.648 1.73824 0.909928 0
M  V30 6905 O 649.773 1.32429 1.71147 0
M  V30 6906 C 650.368 3.22573 -1.03595 0
M  V30 6907 C 648.927 3.68614 -0.76161 0
M  V30 6908 C 648.074 2.49483 -1.21052 0
M  V30 6909 H 651.025 1.16038 -1.08263 0
M  V30 6910 H 651.046 3.78684 -0.371337 0
M  V30 6911 H 650.558 3.25321 -2.11631 0
M  V30 6912 H 648.659 3.7134 0.306127 0
M  V30 6913 H 648.772 4.59402 -1.35965 0
M  V30 6914 H 647.136 2.46798 -0.629515 0
M  V30 6915 H 647.919 2.54959 -2.29893 0
M  V30 6916 N 650.364 0.662433 1.43002 0
M  V30 6917 C 651.594 0.187343 2.05749 0
M  V30 6918 C 652.002 -1.15582 1.49791 0
M  V30 6919 O 651.345 -1.72651 0.627487 0
M  V30 6920 C 651.407 0.0316493 3.59486 0
M  V30 6921 C 651.071 1.30156 4.38073 0
M  V30 6922 C 652.068 2.23234 4.69535 0
M  V30 6923 C 649.753 1.54572 4.77926 0
M  V30 6924 C 651.747 3.39012 5.39768 0
M  V30 6925 C 649.434 2.70641 5.47902 0
M  V30 6926 C 650.432 3.62687 5.78746 0
M  V30 6927 O 650.12 4.76728 6.47291 0
M  V30 6928 H 649.852 0.0915214 0.669776 0
M  V30 6929 H 652.406 0.905982 1.8434 0
M  V30 6930 H 650.636 -0.742451 3.79506 0
M  V30 6931 H 652.325 -0.401977 4.03905 0
M  V30 6932 H 653.091 2.05616 4.39257 0
M  V30 6933 H 648.97 0.83804 4.53319 0
M  V30 6934 H 652.514 4.10877 5.63761 0
M  V30 6935 H 648.411 2.88189 5.77596 0
M  V30 6936 H 649.179 4.76113 6.65777 0
M  V30 6937 N 651.842 -1.52309 0.404946 0
M  V30 6938 C 653.253 -1.86585 -0.0655926 0
M  V30 6939 C 653.604 -1.3239 -1.44801 0
M  V30 6940 O 652.729 -0.6615 -2.06042 0
M  V30 6941 C 653.324 -3.38566 -0.125801 0
M  V30 6942 C 651.883 -3.72497 -0.540666 0
M  V30 6943 C 651.03 -2.75806 0.287487 0
M  V30 6944 H 653.981 -1.45995 0.622185 0
M  V30 6945 H 654.002 -3.68658 -0.941888 0
M  V30 6946 H 653.514 -3.77981 0.880473 0
M  V30 6947 H 651.615 -3.38659 -1.55373 0
M  V30 6948 H 651.728 -4.78234 -0.287956 0
M  V30 6949 H 650.092 -2.53474 -0.249561 0
M  V30 6950 H 650.875 -3.18059 1.29203 0
M  V30 6951 N 653.32 -0.135238 -1.57019 0
M  V30 6952 C 654.568 0.51777 -1.95355 0
M  V30 6953 C 654.889 1.6617 -1.02042 0
M  V30 6954 O 654.159 1.95738 -0.0797343 0
M  V30 6955 H 652.739 0.194264 -0.721298 0
M  V30 6956 H 655.401 -0.207983 -1.93787 0
M  V30 6957 H 654.497 0.901675 -2.98791 0
M  V30 6958 N 654.798 1.5699 0.138552 0
M  V30 6959 C 655.731 1.94064 1.2006 0
M  V30 6960 C 656.709 0.807601 1.41126 0
M  V30 6961 O 657.893 1.06399 1.556 0
M  V30 6962 C 655.02 2.21999 2.55801 0
M  V30 6963 C 654.066 3.44617 2.5128 0
M  V30 6964 S 654.899 4.97888 1.97149 0
M  V30 6965 C 656.055 5.28954 3.34602 0
M  V30 6966 H 656.288 2.83843 0.884337 0
M  V30 6967 H 653.821 1.50507 0.344517 0
M  V30 6968 H 655.779 2.38772 3.33914 0
M  V30 6969 H 654.44 1.32869 2.84613 0
M  V30 6970 H 653.633 3.61466 3.51224 0
M  V30 6971 H 653.235 3.27129 1.8128 0
M  V30 6972 H 655.527 5.22938 4.30745 0
M  V30 6973 H 656.47 6.30346 3.22598 0
M  V30 6974 H 656.878 4.56455 3.32128 0
M  V30 6975 N 656.276 -0.40816 1.52223 0
M  V30 6976 C 657.504 -1.17672 1.70179 0
M  V30 6977 C 657.919 -1.84257 0.411696 0
M  V30 6978 O 657.276 -1.7192 -0.612354 0
M  V30 6979 C 657.327 -2.23911 2.83806 0
M  V30 6980 O 657.048 -1.60044 4.0782 0
M  V30 6981 C 658.549 -3.1364 3.13281 0
M  V30 6982 H 655.769 -0.353562 0.570293 0
M  V30 6983 H 658.313 -0.480083 1.98785 0
M  V30 6984 H 656.468 -2.89242 2.57717 0
M  V30 6985 H 656.882 -2.30484 4.71145 0
M  V30 6986 H 658.356 -3.84255 3.96298 0
M  V30 6987 H 658.833 -3.76066 2.26872 0
M  V30 6988 H 659.439 -2.53977 3.41139 0
M  V30 6989 N 657.755 -1.42862 -0.66545 0
M  V30 6990 C 658.703 -1.47319 -1.8 0
M  V30 6991 C 659.697 -0.347963 -1.65788 0
M  V30 6992 O 660.903 -0.521406 -1.72283 0
M  V30 6993 H 657.278 -0.461588 -0.593667 0
M  V30 6994 H 659.249 -2.42876 -1.7336 0
M  V30 6995 C 657.998 -1.40152 -3.18203 0
M  V30 6996 H 657.321 -2.26035 -3.2977 0
M  V30 6997 H 658.761 -1.47331 -3.9758 0
M  V30 6998 C 657.22 -0.117493 -3.36695 0
M  V30 6999 O 657.75 0.826058 -3.93115 0
M  V30 7000 N 655.956 -0.0316218 -2.90583 0
M  V30 7001 H 655.503 -0.800247 -2.44855 0
M  V30 7002 H 655.461 0.826835 -3.03333 0
M  V30 7003 N 659.233 0.902656 -1.29189 0
M  V30 7004 C 660.644 1.46809 -1.15343 0
M  V30 7005 C 660.995 1.94568 0.252517 0
M  V30 7006 O 660.12 1.83454 1.14777 0
M  V30 7007 C 660.715 2.66829 -2.08776 0
M  V30 7008 C 659.274 3.19518 -1.98961 0
M  V30 7009 C 658.421 1.92212 -1.99874 0
M  V30 7010 H 661.372 0.714282 -1.41717 0
M  V30 7011 H 661.393 3.42465 -1.65826 0
M  V30 7012 H 660.905 2.32039 -3.11094 0
M  V30 7013 H 659.006 3.59008 -0.99721 0
M  V30 7014 H 659.119 3.84016 -2.86477 0
M  V30 7015 H 657.483 2.0979 -1.44431 0
M  V30 7016 H 658.266 1.59702 -3.03891 0
M  V30 7017 N 660.711 1.11618 1.11262 0
M  V30 7018 C 661.621 0.78898 2.20935 0
M  V30 7019 C 662.637 -0.21867 1.7262 0
M  V30 7020 O 663.813 -0.0543826 2.01327 0
M  V30 7021 C 660.878 0.239014 3.45875 0
M  V30 7022 C 659.939 1.3055 4.08968 0
M  V30 7023 C 659.172 0.781687 5.27944 0
M  V30 7024 O 659.395 -0.387605 5.69082 0
M  V30 7025 O 658.329 1.54734 5.81671 0
M  V30 7026 H 662.155 1.70477 2.51339 0
M  V30 7027 H 659.74 0.892203 1.19834 0
M  V30 7028 H 661.622 -0.0632312 4.21353 0
M  V30 7029 H 660.297 -0.649454 3.17118 0
M  V30 7030 H 659.204 1.66079 3.35214 0
M  V30 7031 H 660.537 2.16743 4.41909 0
M  V30 7032 N 662.189 -1.289 0.906776 0
M  V30 7033 C 663.435 -1.95558 0.53712 0
M  V30 7034 C 663.768 -1.71262 -0.915582 0
M  V30 7035 O 663.043 -1.02961 -1.65013 0
M  V30 7036 C 663.326 -3.50198 0.838645 0
M  V30 7037 C 663.179 -3.83923 2.34357 0
M  V30 7038 C 664.498 -4.38861 0.329988 0
M  V30 7039 H 661.617 -0.710289 0.196617 0
M  V30 7040 H 664.259 -1.52392 1.13475 0
M  V30 7041 H 662.409 -3.87096 0.330024 0
M  V30 7042 H 664.081 -3.56933 2.92227 0
M  V30 7043 H 662.324 -3.31215 2.80141 0
M  V30 7044 H 662.995 -4.91883 2.5051 0
M  V30 7045 H 665.471 -4.08996 0.765609 0
M  V30 7046 H 664.347 -5.45931 0.570105 0
M  V30 7047 H 664.608 -4.35352 -0.769511 0
M  V30 7048 N 663.667 -0.670007 -1.42649 0
M  V30 7049 C 664.916 -0.187526 -2.00826 0
M  V30 7050 C 665.229 1.21142 -1.53571 0
M  V30 7051 O 666.435 1.79001 -2.04134 0
M  V30 7052 C 664.891 -0.284409 -3.58774 0
M  V30 7053 C 664.499 -1.6871 -4.15019 0
M  V30 7054 C 666.243 0.139605 -4.2427 0
M  V30 7055 C 664.15 -1.73701 -5.65316 0
M  V30 7056 H 663.08 -0.0663468 -0.751075 0
M  V30 7057 H 665.731 -0.834492 -1.63427 0
M  V30 7058 H 664.113 0.430364 -3.93655 0
M  V30 7059 H 665.287 -2.42857 -3.91608 0
M  V30 7060 H 663.602 -2.05855 -3.61957 0
M  V30 7061 H 666.199 0.122398 -5.3456 0
M  V30 7062 H 666.542 1.17403 -3.99402 0
M  V30 7063 H 667.075 -0.523995 -3.94334 0
M  V30 7064 H 663.814 -2.75109 -5.94975 0
M  V30 7065 H 663.334 -1.03903 -5.90732 0
M  V30 7066 H 665.013 -1.48829 -6.2965 0
M  V30 7067 N 665.145 1.52092 -0.413018 0
M  V30 7068 C 666.077 2.24819 0.445994 0
M  V30 7069 C 667.09 1.27925 1.00692 0
M  V30 7070 O 668.279 1.53845 0.905204 0
M  V30 7071 C 665.379 2.96951 1.6332 0
M  V30 7072 C 664.552 4.20746 1.19548 0
M  V30 7073 C 663.611 4.75668 2.25003 0
M  V30 7074 O 662.637 5.38148 1.85434 0
M  V30 7075 N 663.839 4.57579 3.57214 0
M  V30 7076 H 666.604 2.99176 -0.177209 0
M  V30 7077 H 664.165 1.60102 -0.240601 0
M  V30 7078 H 666.157 3.30586 2.33441 0
M  V30 7079 H 664.727 2.25756 2.16225 0
M  V30 7080 H 663.947 3.92881 0.32224 0
M  V30 7081 H 665.235 5.01132 0.880033 0
M  V30 7082 H 664.633 4.07758 3.92109 0
M  V30 7083 H 663.19 4.95642 4.23299 0
M  V30 7084 N 666.623 0.143563 1.56945 0
M  V30 7085 C 667.571 -0.814556 2.17871 0
M  V30 7086 C 668.565 -1.25778 1.13474 0
M  V30 7087 O 669.771 -1.22666 1.31731 0
M  V30 7088 H 666.146 -0.280873 0.697578 0
M  V30 7089 H 668.117 -0.276459 2.97117 0
M  V30 7090 C 666.866 -2.04503 2.81201 0
M  V30 7091 H 666.189 -1.71296 3.61245 0
M  V30 7092 H 667.629 -2.69493 3.27337 0
M  V30 7093 C 666.088 -2.85079 1.79532 0
M  V30 7094 O 666.618 -3.81306 1.26368 0
M  V30 7095 N 664.824 -2.49546 1.48913 0
M  V30 7096 H 664.371 -1.71359 1.92338 0
M  V30 7097 H 664.329 -3.03751 0.811348 0
M  V30 7098 N 668.101 -1.57061 -0.130224 0
M  V30 7099 C 669.031 -2.02552 -1.16168 0
M  V30 7100 C 670.012 -0.907971 -1.4384 0
M  V30 7101 O 671.197 -1.17693 -1.54473 0
M  V30 7102 C 668.327 -2.42035 -2.49071 0
M  V30 7103 C 667.281 -3.5713 -2.35886 0
M  V30 7104 C 666.607 -3.82478 -3.7365 0
M  V30 7105 C 667.907 -4.89236 -1.8288 0
M  V30 7106 H 669.601 -2.8897 -0.783359 0
M  V30 7107 H 667.147 -1.39021 -0.375376 0
M  V30 7108 H 669.1 -2.72462 -3.21469 0
M  V30 7109 H 667.824 -1.52573 -2.88771 0
M  V30 7110 H 666.483 -3.26895 -1.65938 0
M  V30 7111 H 666.131 -2.9024 -4.10816 0
M  V30 7112 H 665.831 -4.59944 -3.65685 0
M  V30 7113 H 667.355 -4.15347 -4.47571 0
M  V30 7114 H 668.769 -5.18272 -2.45085 0
M  V30 7115 H 667.166 -5.70624 -1.85763 0
M  V30 7116 H 668.236 -4.78494 -0.785571 0
M  V30 7117 N 669.579 0.400081 -1.52437 0
M  V30 7118 C 670.489 1.51253 -1.79331 0
M  V30 7119 C 671.505 1.60188 -0.679396 0
M  V30 7120 O 672.681 1.76733 -0.965791 0
M  V30 7121 C 669.746 2.869 -1.94652 0
M  V30 7122 C 668.807 2.87777 -3.18564 0
M  V30 7123 C 668.04 4.16954 -3.33145 0
M  V30 7124 O 668.263 5.11329 -2.52783 0
M  V30 7125 O 667.197 4.2487 -4.26343 0
M  V30 7126 H 671.023 1.31461 -2.73773 0
M  V30 7127 H 668.608 0.586834 -1.37392 0
M  V30 7128 H 670.49 3.67336 -2.065 0
M  V30 7129 H 669.165 3.06741 -1.034 0
M  V30 7130 H 668.072 2.06162 -3.12167 0
M  V30 7131 H 669.405 2.72886 -4.09627 0
M  V30 7132 N 671.057 1.43213 0.657864 0
M  V30 7133 C 672.473 1.26511 0.972992 0
M  V30 7134 C 672.673 0.181477 2.00681 0
M  V30 7135 O 671.729 -0.441649 2.48608 0
M  V30 7136 C 673.042 2.62784 1.46168 0
M  V30 7137 C 674.59 2.70278 1.57857 0
M  V30 7138 C 675.065 4.06958 2.10117 0
M  V30 7139 N 676.556 4.08999 2.17426 0
M  V30 7140 C 677.291 5.11585 2.58975 0
M  V30 7141 N 676.787 6.24548 2.99853 0
M  V30 7142 N 678.58 4.9894 2.58873 0
M  V30 7143 H 670.731 2.12384 -0.0263129 0
M  V30 7144 H 672.994 0.946638 0.0507992 0
M  V30 7145 H 672.7 3.43022 0.776474 0
M  V30 7146 H 672.574 2.87863 2.43751 0
M  V30 7147 H 674.961 1.90376 2.25479 0
M  V30 7148 H 675.042 2.4897 0.587179 0
M  V30 7149 H 674.686 4.87325 1.43098 0
M  V30 7150 H 674.616 4.25628 3.10078 0
M  V30 7151 H 677.107 3.27457 1.88627 0
M  V30 7152 H 677.42 6.98661 3.30292 0
M  V30 7153 H 675.765 6.28027 2.97669 0
M  V30 7154 H 678.956 4.09757 2.26311 0
M  V30 7155 H 679.129 5.79019 2.90932 0
M  V30 7156 N 672.536 -0.895792 1.29666 0
M  V30 7157 C 673.784 -1.64339 1.17631 0
M  V30 7158 C 674.105 -1.93099 -0.271643 0
M  V30 7159 O 673.375 -1.55981 -1.18518 0
M  V30 7160 H 671.955 -0.609162 0.432354 0
M  V30 7161 H 674.617 -1.07389 1.62646 0
M  V30 7162 H 673.713 -2.59815 1.72924 0
M  V30 7163 N 674.014 -1.12206 -1.10668 0
M  V30 7164 C 675.244 -0.897332 -1.86095 0
M  V30 7165 C 675.652 0.556778 -1.80822 0
M  V30 7166 O 674.995 1.39658 -1.19337 0
M  V30 7167 C 675.057 -1.29095 -3.35522 0
M  V30 7168 C 674.721 -2.75586 -3.64556 0
M  V30 7169 C 675.718 -3.73785 -3.6136 0
M  V30 7170 C 673.403 -3.12432 -3.93309 0
M  V30 7171 C 675.397 -5.06845 -3.86506 0
M  V30 7172 C 673.084 -4.45675 -4.18111 0
M  V30 7173 C 674.082 -5.42691 -4.147 0
M  V30 7174 O 673.77 -6.73532 -4.38873 0
M  V30 7175 H 673.502 -0.320704 -0.595084 0
M  V30 7176 H 676.056 -1.49517 -1.40833 0
M  V30 7177 H 674.286 -0.636299 -3.81429 0
M  V30 7178 H 675.975 -1.04073 -3.92331 0
M  V30 7179 H 676.741 -3.46664 -3.39189 0
M  V30 7180 H 672.62 -2.3753 -3.95096 0
M  V30 7181 H 676.164 -5.82559 -3.83758 0
M  V30 7182 H 672.061 -4.72526 -4.39761 0
M  V30 7183 H 672.829 -6.79442 -4.564 0
M  V30 7184 N 675.492 1.28418 -0.913599 0
M  V30 7185 C 676.908 1.47411 -0.611728 0
M  V30 7186 C 677.108 1.83018 0.843008 0
M  V30 7187 O 676.164 1.93505 1.6221 0
M  V30 7188 C 677.477 2.57703 -1.5495 0
M  V30 7189 C 679.025 2.71572 -1.5562 0
M  V30 7190 C 679.5 3.85008 -2.48058 0
M  V30 7191 N 680.991 3.92361 -2.46184 0
M  V30 7192 C 681.726 4.79516 -3.14407 0
M  V30 7193 N 681.222 5.71262 -3.91958 0
M  V30 7194 N 683.015 4.73125 -3.03495 0
M  V30 7195 H 675.166 1.03585 -1.85429 0
M  V30 7196 H 677.429 0.515907 -0.795326 0
M  V30 7197 H 677.135 2.38298 -2.58663 0
M  V30 7198 H 677.009 3.54801 -1.28048 0
M  V30 7199 H 679.396 2.90366 -0.526441 0
M  V30 7200 H 679.477 1.75006 -1.86565 0
M  V30 7201 H 679.121 3.66969 -3.51136 0
M  V30 7202 H 679.051 4.80971 -2.14416 0
M  V30 7203 H 681.542 3.26749 -1.89851 0
M  V30 7204 H 681.855 6.34593 -4.41034 0
M  V30 7205 H 680.2 5.71103 -3.96063 0
M  V30 7206 H 683.391 4.00442 -2.42413 0
M  V30 7207 H 683.564 5.40834 -3.56935 0
M  V30 7208 N 676.97 0.677563 1.42291 0
M  V30 7209 C 677.903 -0.0492638 2.28147 0
M  V30 7210 C 678.881 -0.805936 1.41221 0
M  V30 7211 O 680.065 -0.80049 1.70659 0
M  V30 7212 C 677.192 -1.07697 3.21122 0
M  V30 7213 C 676.238 -0.41556 4.24471 0
M  V30 7214 S 677.071 0.828876 5.29046 0
M  V30 7215 C 678.227 -0.197687 6.25588 0
M  V30 7216 H 678.46 0.678965 2.89443 0
M  V30 7217 H 675.993 0.467201 1.47162 0
M  V30 7218 H 677.951 -1.66482 3.75225 0
M  V30 7219 H 676.612 -1.77766 2.58956 0
M  V30 7220 H 675.805 -1.19112 4.89723 0
M  V30 7221 H 675.407 0.0987632 3.7387 0
M  V30 7222 H 677.699 -1.05656 6.69211 0
M  V30 7223 H 678.642 0.420437 7.06851 0
M  V30 7224 H 679.05 -0.544401 5.61869 0
M  V30 7225 N 678.448 -1.51871 0.421078 0
M  V30 7226 C 679.694 -2.02237 -0.151014 0
M  V30 7227 C 680.027 -1.30554 -1.43768 0
M  V30 7228 O 679.302 -0.41546 -1.90011 0
M  V30 7229 C 679.585 -3.5802 -0.386482 0
M  V30 7230 C 679.438 -4.40339 0.9177 0
M  V30 7231 C 680.757 -4.24444 -1.16342 0
M  V30 7232 H 677.876 -0.735062 -0.0534102 0
M  V30 7233 H 680.518 -1.81656 0.556888 0
M  V30 7234 H 678.668 -3.75688 -0.989494 0
M  V30 7235 H 680.34 -4.34357 1.55344 0
M  V30 7236 H 678.583 -4.06073 1.526 0
M  V30 7237 H 679.254 -5.47451 0.707187 0
M  V30 7238 H 681.73 -4.10948 -0.652788 0
M  V30 7239 H 680.606 -5.33358 -1.29693 0
M  V30 7240 H 680.867 -3.84204 -2.18724 0
M  V30 7241 N 679.926 -0.151884 -1.56866 0
M  V30 7242 C 681.342 0.204486 -1.58285 0
M  V30 7243 C 681.542 1.6431 -1.16639 0
M  V30 7244 O 680.598 2.37077 -0.868946 0
M  V30 7245 C 681.911 -0.0587019 -3.00643 0
M  V30 7246 C 683.459 0.00462303 -3.13 0
M  V30 7247 C 683.934 -0.231297 -4.57416 0
M  V30 7248 N 685.425 -0.178394 -4.62856 0
M  V30 7249 C 686.16 -0.335379 -5.72418 0
M  V30 7250 N 685.656 -0.550355 -6.90611 0
M  V30 7251 N 687.449 -0.272641 -5.61438 0
M  V30 7252 H 679.6 -1.09116 -1.82229 0
M  V30 7253 H 681.863 -0.432311 -0.843689 0
M  V30 7254 H 681.569 -1.05453 -3.35518 0
M  V30 7255 H 681.443 0.658508 -3.71407 0
M  V30 7256 H 683.83 0.991009 -2.77962 0
M  V30 7257 H 683.911 -0.744992 -2.44711 0
M  V30 7258 H 683.555 -1.2148 -4.93158 0
M  V30 7259 H 683.485 0.5387 -5.23837 0
M  V30 7260 H 685.976 -0.0170923 -3.77896 0
M  V30 7261 H 686.289 -0.660116 -7.69976 0
M  V30 7262 H 684.634 -0.586736 -6.92519 0
M  V30 7263 H 687.825 -0.105421 -4.67981 0
M  V30 7264 H 687.998 -0.398418 -6.46774 0
M  V30 7265 N 681.404 1.57128 0.121893 0
M  V30 7266 C 682.815 1.73902 0.679348 0
M  V30 7267 C 683.166 0.770135 1.80453 0
M  V30 7268 O 682.291 -0.0576083 2.16323 0
M  V30 7269 C 682.886 3.15328 1.2391 0
M  V30 7270 C 681.445 3.33618 1.74288 0
M  V30 7271 C 680.592 2.6978 0.641414 0
M  V30 7272 H 683.543 1.58359 -0.104 0
M  V30 7273 H 683.564 3.16718 2.10879 0
M  V30 7274 H 683.076 3.85821 0.419957 0
M  V30 7275 H 681.177 2.68162 2.58689 0
M  V30 7276 H 681.29 4.4176 1.85432 0
M  V30 7277 H 679.654 2.30935 1.0743 0
M  V30 7278 H 680.437 3.42895 -0.166707 0
M  V30 7279 N 682.882 -0.391992 1.52647 0
M  V30 7280 C 684.159 -1.15136 1.58123 0
M  V30 7281 C 684.539 -2.07786 0.372597 0
M  V30 7282 O 683.887 -2.19374 -0.639304 0
M  V30 7283 C 684.097 -1.91367 2.91856 0
M  V30 7284 C 685.445 -2.46833 3.45483 0
M  V30 7285 O 686.469 -2.01527 2.9371 0
M  V30 7286 O 685.328 -3.29587 4.3593 0
M  V30 7287 H 682.422 -0.526649 0.637629 0
M  V30 7288 H 684.968 -0.397386 1.64982 0
M  V30 7289 H 683.74 -1.23597 3.71268 0
M  V30 7290 H 683.363 -2.73732 2.88369 0
M  V30 7291 N 684.36 -1.4356 -0.65026 0
M  V30 7292 C 685.308 -1.49219 -1.78427 0
M  V30 7293 C 686.302 -0.365528 -1.65409 0
M  V30 7294 O 687.508 -0.539649 -1.7172 0
M  V30 7295 H 683.883 -0.467858 -0.588738 0
M  V30 7296 H 685.854 -2.44701 -1.70774 0
M  V30 7297 C 684.603 -1.43519 -3.16698 0
M  V30 7298 H 683.926 -2.2952 -3.27354 0
M  V30 7299 H 685.366 -1.5154 -3.95995 0
M  V30 7300 C 683.825 -0.153197 -3.36552 0
M  V30 7301 O 684.355 0.784317 -3.93969 0
M  V30 7302 N 682.561 -0.0624402 -2.90533 0
M  V30 7303 H 682.108 -0.826172 -2.43992 0
M  V30 7304 H 682.066 0.794616 -3.04193 0
M  V30 7305 N 685.838 0.888903 -1.30139 0
M  V30 7306 C 687.078 1.65456 -1.20015 0
M  V30 7307 C 687.442 1.90467 0.242148 0
M  V30 7308 O 688.643 2.6472 0.466561 0
M  V30 7309 C 686.914 2.96071 -2.00191 0
M  V30 7310 S 688.473 3.87055 -2.06721 0
M  V30 7311 H 685.291 0.567927 -0.427761 0
M  V30 7312 H 687.893 1.05539 -1.64565 0
M  V30 7313 H 686.597 2.7559 -3.04103 0
M  V30 7314 H 686.128 3.61023 -1.56288 0
M  V30 7315 H 688.143 4.81676 -1.19174 0
M  V30 7316 N 687.317 1.12792 1.10072 0
M  V30 7317 C 688.728 0.899346 1.63611 0
M  V30 7318 C 689.079 -0.565547 1.87872 0
M  V30 7319 O 688.204 -1.43081 1.62348 0
M  V30 7320 C 688.799 1.62608 2.97227 0
M  V30 7321 C 687.358 1.44356 3.47618 0
M  V30 7322 C 686.505 1.65958 2.22156 0
M  V30 7323 H 689.456 1.28216 0.935223 0
M  V30 7324 H 689.477 1.0793 3.64872 0
M  V30 7325 H 688.989 2.69221 2.79538 0
M  V30 7326 H 687.09 0.400148 3.70445 0
M  V30 7327 H 687.203 2.20218 4.25489 0
M  V30 7328 H 685.567 1.08395 2.30484 0
M  V30 7329 H 686.35 2.73877 2.06993 0
M  V30 7330 N 688.795 -1.27931 0.920396 0
M  V30 7331 C 689.705 -2.30824 0.419212 0
M  V30 7332 C 690.721 -1.66767 -0.496461 0
M  V30 7333 O 691.897 -1.97763 -0.38104 0
M  V30 7334 C 688.962 -3.45158 -0.326601 0
M  V30 7335 C 688.023 -4.24754 0.623098 0
M  V30 7336 C 687.256 -5.33629 -0.0872172 0
M  V30 7337 O 687.479 -5.55204 -1.30784 0
M  V30 7338 O 686.413 -5.99091 0.580875 0
M  V30 7339 H 690.239 -2.75716 1.27337 0
M  V30 7340 H 687.824 -1.32747 0.685465 0
M  V30 7341 H 689.706 -4.14716 -0.747559 0
M  V30 7342 H 688.381 -3.02336 -1.15648 0
M  V30 7343 H 687.288 -3.57759 1.09359 0
M  V30 7344 H 688.621 -4.71272 1.41998 0
M  V30 7345 N 690.273 -0.685099 -1.4193 0
M  V30 7346 C 691.183 -0.013404 -2.34596 0
M  V30 7347 C 692.199 0.777589 -1.55658 0
M  V30 7348 O 693.375 0.717553 -1.88184 0
M  V30 7349 C 690.44 0.919031 -3.34297 0
M  V30 7350 C 689.501 0.121417 -4.29128 0
M  V30 7351 C 688.734 1.00944 -5.24067 0
M  V30 7352 O 688.957 2.24898 -5.24192 0
M  V30 7353 O 687.891 0.464724 -6.00103 0
M  V30 7354 H 691.717 -0.776978 -2.93593 0
M  V30 7355 H 689.302 -0.445379 -1.42607 0
M  V30 7356 H 691.184 1.45402 -3.9552 0
M  V30 7357 H 689.859 1.66228 -2.77759 0
M  V30 7358 H 688.766 -0.45792 -3.71287 0
M  V30 7359 H 690.099 -0.582937 -4.88736 0
M  V30 7360 N 691.751 1.51645 -0.429126 0
M  V30 7361 C 692.681 2.30434 0.377148 0
M  V30 7362 C 693.662 1.35493 1.02838 0
M  V30 7363 O 694.847 1.6441 1.03359 0
M  V30 7364 C 691.977 3.14038 1.48315 0
M  V30 7365 C 690.931 4.1719 0.955855 0
M  V30 7366 C 690.257 4.89263 2.15698 0
M  V30 7367 C 691.557 5.223 -0.00402136 0
M  V30 7368 H 693.251 2.98085 -0.280336 0
M  V30 7369 H 690.797 1.43354 -0.136265 0
M  V30 7370 H 692.75 3.67933 2.05435 0
M  V30 7371 H 691.474 2.44193 2.16881 0
M  V30 7372 H 690.133 3.64335 0.406929 0
M  V30 7373 H 689.781 4.15929 2.82864 0
M  V30 7374 H 689.481 5.59009 1.81059 0
M  V30 7375 H 691.005 5.45978 2.73387 0
M  V30 7376 H 692.419 5.71315 0.476607 0
M  V30 7377 H 690.816 5.99525 -0.26258 0
M  V30 7378 H 691.886 4.75638 -0.943236 0
M  V30 7379 N 693.229 0.160201 1.56784 0
M  V30 7380 C 694.459 -0.493449 2.00621 0
M  V30 7381 C 694.867 -1.5809 1.03943 0
M  V30 7382 O 694.21 -1.83675 0.0305343 0
M  V30 7383 C 694.272 -1.14169 3.4089 0
M  V30 7384 C 693.936 -0.197243 4.56574 0
M  V30 7385 C 694.933 0.580174 5.16653 0
M  V30 7386 C 692.618 -0.0963038 5.02208 0
M  V30 7387 C 694.612 1.44584 6.20785 0
M  V30 7388 C 692.299 0.772959 6.06192 0
M  V30 7389 C 693.297 1.54263 6.65351 0
M  V30 7390 O 692.985 2.39738 7.67321 0
M  V30 7391 H 692.717 -0.131764 0.663034 0
M  V30 7392 H 695.271 0.255728 2.03802 0
M  V30 7393 H 693.501 -1.93877 3.34587 0
M  V30 7394 H 695.19 -1.69641 3.6875 0
M  V30 7395 H 695.956 0.5123 4.82287 0
M  V30 7396 H 691.835 -0.685143 4.5588 0
M  V30 7397 H 695.379 2.04706 6.66889 0
M  V30 7398 H 691.276 0.842077 6.39984 0
M  V30 7399 H 692.044 2.33131 7.84597 0
M  V30 7400 N 694.707 -1.5719 -0.113559 0
M  V30 7401 C 695.639 -1.97393 -1.16484 0
M  V30 7402 C 696.652 -0.873964 -1.37352 0
M  V30 7403 O 697.841 -1.15222 -1.36331 0
M  V30 7404 C 694.941 -2.26174 -2.52386 0
M  V30 7405 C 694.114 -3.57479 -2.52046 0
M  V30 7406 C 693.173 -3.74409 -3.69735 0
M  V30 7407 O 692.199 -4.46463 -3.53071 0
M  V30 7408 N 693.401 -3.13588 -4.88511 0
M  V30 7409 H 696.166 -2.88184 -0.822814 0
M  V30 7410 H 693.727 -1.59044 -0.302769 0
M  V30 7411 H 695.719 -2.3471 -3.29687 0
M  V30 7412 H 694.289 -1.41483 -2.7875 0
M  V30 7413 H 693.509 -3.60081 -1.60421 0
M  V30 7414 H 694.797 -4.43775 -2.48881 0
M  V30 7415 H 694.195 -2.55026 -5.04953 0
M  V30 7416 H 692.752 -3.27637 -5.63469 0
M  V30 7417 N 696.185 0.383891 -1.52853 0
M  V30 7418 C 697.115 1.47559 -1.80965 0
M  V30 7419 C 698.096 1.5669 -0.661986 0
M  V30 7420 O 699.281 1.71556 -0.910072 0
M  V30 7421 C 696.411 2.85114 -1.98312 0
M  V30 7422 C 695.365 2.9082 -3.14019 0
M  V30 7423 C 694.691 4.30873 -3.16627 0
M  V30 7424 C 695.991 2.60001 -4.52986 0
M  V30 7425 H 697.685 1.24283 -2.72386 0
M  V30 7426 H 695.231 0.596445 -1.31067 0
M  V30 7427 H 697.184 3.61496 -2.16561 0
M  V30 7428 H 695.908 3.09738 -1.03585 0
M  V30 7429 H 694.567 2.16886 -2.9556 0
M  V30 7430 H 694.215 4.52545 -2.19573 0
M  V30 7431 H 693.915 4.3561 -3.94357 0
M  V30 7432 H 695.439 5.09154 -3.37038 0
M  V30 7433 H 696.853 3.261 -4.71521 0
M  V30 7434 H 695.25 2.76081 -5.32822 0
M  V30 7435 H 696.32 1.5532 -4.59351 0
M  V30 7436 N 697.663 1.43903 0.642637 0
M  V30 7437 C 698.596 1.44339 1.76753 0
M  V30 7438 C 699.574 0.303558 1.59741 0
M  V30 7439 O 700.758 0.498775 1.81781 0
M  V30 7440 C 697.885 1.26508 3.14187 0
M  V30 7441 C 696.931 2.43905 3.49875 0
M  V30 7442 S 697.764 4.0645 3.48653 0
M  V30 7443 C 698.92 3.91021 4.88726 0
M  V30 7444 H 699.153 2.39523 1.76113 0
M  V30 7445 H 696.686 1.31061 0.81623 0
M  V30 7446 H 698.644 1.16908 3.93501 0
M  V30 7447 H 697.305 0.328548 3.12377 0
M  V30 7448 H 696.498 2.27262 4.49853 0
M  V30 7449 H 696.1 2.50186 2.77998 0
M  V30 7450 H 698.392 3.54 5.77659 0
M  V30 7451 H 699.335 4.9079 5.10423 0
M  V30 7452 H 699.743 3.23287 4.62759 0
M  V30 7453 N 699.141 -0.881989 1.30609 0
M  V30 7454 C 700.557 -1.16576 1.09005 0
M  V30 7455 C 700.757 -2.00961 -0.14727 0
M  V30 7456 O 699.813 -2.38117 -0.840036 0
M  V30 7457 C 701.126 -1.86954 2.35518 0
M  V30 7458 C 702.674 -1.99706 2.41011 0
M  V30 7459 C 703.149 -2.73497 3.67374 0
M  V30 7460 N 704.64 -2.8104 3.68199 0
M  V30 7461 C 705.375 -3.38718 4.62664 0
M  V30 7462 N 704.871 -3.97421 5.67475 0
M  V30 7463 N 706.664 -3.36561 4.50203 0
M  V30 7464 H 698.815 -0.319398 2.09985 0
M  V30 7465 H 701.078 -0.204058 0.925778 0
M  V30 7466 H 700.784 -1.32393 3.2583 0
M  V30 7467 H 700.658 -2.87317 2.44395 0
M  V30 7468 H 703.045 -2.53436 1.51176 0
M  V30 7469 H 703.126 -0.984218 2.36108 0
M  V30 7470 H 702.77 -2.20438 4.57569 0
M  V30 7471 H 702.7 -3.75163 3.6954 0
M  V30 7472 H 705.191 -2.39365 2.92426 0
M  V30 7473 H 705.504 -4.39507 6.35652 0
M  V30 7474 H 703.849 -3.95832 5.71264 0
M  V30 7475 H 707.04 -2.8993 3.67503 0
M  V30 7476 H 707.213 -3.81215 5.24003 0
M  V30 7477 N 700.619 -1.13374 -1.09472 0
M  V30 7478 C 701.549 -0.833268 -2.18126 0
M  V30 7479 C 702.53 0.207169 -1.68834 0
M  V30 7480 O 703.715 0.0662012 -1.94087 0
M  V30 7481 C 700.845 -0.297979 -3.46019 0
M  V30 7482 C 699.799 -1.27261 -4.08642 0
M  V30 7483 C 699.125 -0.597104 -5.31356 0
M  V30 7484 C 700.425 -2.63095 -4.51197 0
M  V30 7485 H 702.119 -1.74182 -2.43518 0
M  V30 7486 H 699.665 -0.838921 -1.17039 0
M  V30 7487 H 701.618 -0.0754444 -4.21332 0
M  V30 7488 H 700.342 0.645959 -3.20148 0
M  V30 7489 H 699.001 -1.48113 -3.35348 0
M  V30 7490 H 698.649 0.352293 -5.01765 0
M  V30 7491 H 698.349 -1.24734 -5.74208 0
M  V30 7492 H 699.873 -0.38384 -6.09392 0
M  V30 7493 H 701.287 -2.46214 -5.17737 0
M  V30 7494 H 699.684 -3.2429 -5.04932 0
M  V30 7495 H 700.754 -3.20793 -3.6362 0
M  V30 7496 N 702.098 1.27442 -0.927168 0
M  V30 7497 C 703.338 1.96157 -0.574608 0
M  V30 7498 C 703.702 1.71265 0.867897 0
M  V30 7499 O 704.903 2.33664 1.3287 0
M  V30 7500 C 703.174 3.46115 -0.891009 0
M  V30 7501 S 704.733 4.34006 -0.646885 0
M  V30 7502 H 701.551 0.678619 -0.212125 0
M  V30 7503 H 704.153 1.54688 -1.19549 0
M  V30 7504 H 702.857 3.6173 -1.93854 0
M  V30 7505 H 702.388 3.92545 -0.259301 0
M  V30 7506 H 704.403 4.93719 0.495568 0
M  V30 7507 N 703.576 0.692616 1.41565 0
M  V30 7508 C 704.822 0.231408 2.02079 0
M  V30 7509 C 705.177 -1.15514 1.53864 0
M  V30 7510 O 704.47 -1.76786 0.73873 0
M  V30 7511 C 704.664 0.225073 3.56691 0
M  V30 7512 C 704.493 1.60947 4.19912 0
M  V30 7513 C 703.263 2.2116 4.54331 0
M  V30 7514 C 705.461 2.55553 4.46315 0
M  V30 7515 N 703.443 3.52195 5.02824 0
M  V30 7516 C 704.814 3.71263 4.96552 0
M  V30 7517 C 706.869 2.53857 4.28323 0
M  V30 7518 C 705.572 4.85555 5.30687 0
M  V30 7519 C 707.598 3.67259 4.63546 0
M  V30 7520 C 706.96 4.81699 5.13951 0
M  V30 7521 H 703.059 0.130001 0.771119 0
M  V30 7522 H 705.643 0.909459 1.72154 0
M  V30 7523 H 703.814 -0.422453 3.86096 0
M  V30 7524 H 705.546 -0.250685 4.03923 0
M  V30 7525 H 702.301 1.73474 4.40685 0
M  V30 7526 H 702.725 4.19354 5.3148 0
M  V30 7527 H 707.367 1.66598 3.88594 0
M  V30 7528 H 705.085 5.73477 5.69341 0
M  V30 7529 H 708.671 3.67195 4.51286 0
M  V30 7530 H 707.551 5.67995 5.40695 0
M  V30 7531 N 705.054 -1.51416 0.437162 0
M  V30 7532 C 706.001 -2.27743 -0.374374 0
M  V30 7533 C 706.971 -1.31327 -1.01698 0
M  V30 7534 O 708.156 -1.60229 -1.03592 0
M  V30 7535 C 705.296 -3.12241 -1.46969 0
M  V30 7536 C 704.409 -4.23651 -0.845236 0
M  V30 7537 C 703.544 -4.95458 -1.91559 0
M  V30 7538 C 702.583 -5.98789 -1.26956 0
M  V30 7539 N 701.72 -6.64005 -2.28126 0
M  V30 7540 H 706.56 -2.96654 0.282892 0
M  V30 7541 H 704.097 -1.46319 0.151352 0
M  V30 7542 H 706.055 -3.59556 -2.11602 0
M  V30 7543 H 704.685 -2.45445 -2.09659 0
M  V30 7544 H 703.737 -3.803 -0.0872059 0
M  V30 7545 H 705.049 -4.97683 -0.333582 0
M  V30 7546 H 704.203 -5.46321 -2.63854 0
M  V30 7547 H 702.942 -4.21055 -2.46097 0
M  V30 7548 H 701.947 -5.47219 -0.53207 0
M  V30 7549 H 703.172 -6.75149 -0.731509 0
M  V30 7550 H 701.118 -5.92415 -2.81745 0
M  V30 7551 H 701.035 -7.33802 -1.81852 0
M  V30 7552 H 702.303 -7.19498 -2.99905 0
M  V30 7553 N 706.532 -0.168513 -1.56696 0
M  V30 7554 C 707.442 0.775435 -2.21414 0
M  V30 7555 C 708.458 1.25529 -1.20492 0
M  V30 7556 O 709.634 1.30801 -1.53144 0
M  V30 7557 C 706.699 1.9886 -2.83999 0
M  V30 7558 C 705.76 1.5559 -4.00113 0
M  V30 7559 C 704.993 2.71124 -4.59704 0
M  V30 7560 O 705.216 3.87917 -4.18182 0
M  V30 7561 O 704.15 2.4536 -5.4962 0
M  V30 7562 H 707.976 0.254416 -3.02632 0
M  V30 7563 H 705.561 0.0595507 -1.49281 0
M  V30 7564 H 707.443 2.69816 -3.23693 0
M  V30 7565 H 706.118 2.49874 -2.05779 0
M  V30 7566 H 705.025 0.815924 -3.65094 0
M  V30 7567 H 706.358 1.09271 -4.79917 0
M  V30 7568 N 708.01 1.57248 0.105221 0
M  V30 7569 C 709.426 1.52853 0.459153 0
M  V30 7570 C 709.626 0.883674 1.8109 0
M  V30 7571 O 708.682 0.471864 2.48052 0
M  V30 7572 C 709.995 2.97596 0.43096 0
M  V30 7573 C 711.543 3.08758 0.513536 0
M  V30 7574 C 712.018 4.55089 0.515593 0
M  V30 7575 N 713.509 4.59597 0.576639 0
M  V30 7576 C 714.244 5.70253 0.599904 0
M  V30 7577 N 713.74 6.90368 0.579985 0
M  V30 7578 N 715.533 5.58399 0.643953 0
M  V30 7579 H 707.684 1.97547 -0.780306 0
M  V30 7580 H 709.947 0.902758 -0.289363 0
M  V30 7581 H 709.653 3.48201 -0.494903 0
M  V30 7582 H 709.527 3.55756 1.2537 0
M  V30 7583 H 711.914 2.58148 1.42982 0
M  V30 7584 H 711.995 2.53568 -0.337148 0
M  V30 7585 H 711.639 5.06348 -0.396701 0
M  V30 7586 H 711.569 5.08105 1.38335 0
M  V30 7587 H 714.06 3.73144 0.597639 0
M  V30 7588 H 714.373 7.70462 0.600741 0
M  V30 7589 H 712.718 6.92843 0.547191 0
M  V30 7590 H 715.909 4.63467 0.656975 0
M  V30 7591 H 716.082 6.44644 0.658616 0
M  V30 7592 N 709.488 -0.375779 1.53054 0
M  V30 7593 C 710.899 -0.95309 1.6054 0
M  V30 7594 C 711.25 -1.90575 0.466446 0
M  V30 7595 O 710.375 -2.12507 -0.408609 0
M  V30 7596 C 710.97 -1.73537 2.90982 0
M  V30 7597 C 709.529 -2.26218 3.00836 0
M  V30 7598 C 708.676 -1.07157 2.55759 0
M  V30 7599 H 711.627 -0.154895 1.57942 0
M  V30 7600 H 711.648 -2.59574 2.78211 0
M  V30 7601 H 711.16 -1.04176 3.73857 0
M  V30 7602 H 709.261 -2.98852 2.22527 0
M  V30 7603 H 709.374 -2.54799 4.05727 0
M  V30 7604 H 707.738 -1.43553 2.10391 0
M  V30 7605 H 708.521 -0.393099 3.41042 0
M  V30 7606 N 710.966 -1.44241 -0.634997 0
M  V30 7607 C 711.876 -1.53293 -1.77591 0
M  V30 7608 C 712.892 -0.418831 -1.68884 0
M  V30 7609 O 714.068 -0.675619 -1.8973 0
M  V30 7610 C 711.133 -1.47075 -3.13958 0
M  V30 7611 C 710.194 -2.69304 -3.34326 0
M  V30 7612 C 709.427 -2.63374 -4.64187 0
M  V30 7613 O 709.65 -1.69161 -5.44739 0
M  V30 7614 O 708.584 -3.54166 -4.86673 0
M  V30 7615 H 712.41 -2.49673 -1.72908 0
M  V30 7616 H 709.995 -1.26445 -0.795745 0
M  V30 7617 H 711.877 -1.46117 -3.95257 0
M  V30 7618 H 710.552 -0.538373 -3.19192 0
M  V30 7619 H 709.459 -2.75831 -2.52721 0
M  V30 7620 H 710.792 -3.61576 -3.33951 0
M  V30 7621 N 712.444 0.87505 -1.31075 0
M  V30 7622 C 713.721 1.60976 -1.11113 0
M  V30 7623 C 714.101 2.08409 0.336006 0
M  V30 7624 O 713.449 1.85858 1.32924 0
M  V30 7625 C 713.659 2.77166 -2.12085 0
M  V30 7626 C 715.007 3.47254 -2.44335 0
M  V30 7627 O 716.031 2.87367 -2.10472 0
M  V30 7628 O 714.89 4.55276 -3.02301 0
M  V30 7629 H 711.984 0.707982 -0.427424 0
M  V30 7630 H 714.53 0.920957 -1.42536 0
M  V30 7631 H 713.302 2.39494 -3.09449 0
M  V30 7632 H 712.925 3.53737 -1.81538 0
M  V30 7633 N 713.922 1.13953 1.08869 0
M  V30 7634 C 715.338 0.878924 1.33218 0
M  V30 7635 C 715.538 -0.482478 1.95638 0
M  V30 7636 O 714.594 -1.22778 2.2064 0
M  V30 7637 C 715.907 2.00798 2.23832 0
M  V30 7638 C 717.455 2.04073 2.37325 0
M  V30 7639 C 717.93 3.16258 3.31278 0
M  V30 7640 N 719.421 3.15805 3.38853 0
M  V30 7641 C 720.156 3.99249 4.11567 0
M  V30 7642 N 719.652 4.92721 4.87029 0
M  V30 7643 N 721.445 3.87327 4.0735 0
M  V30 7644 H 713.596 2.01645 0.66731 0
M  V30 7645 H 715.859 0.878395 0.356547 0
M  V30 7646 H 715.565 2.98986 1.85203 0
M  V30 7647 H 715.439 1.92704 3.24261 0
M  V30 7648 H 717.826 1.06495 2.75214 0
M  V30 7649 H 717.907 2.16239 1.36654 0
M  V30 7650 H 717.551 4.14079 2.9411 0
M  V30 7651 H 717.481 3.0133 4.31866 0
M  V30 7652 H 719.972 2.48102 2.8505 0
M  V30 7653 H 720.285 5.52867 5.39961 0
M  V30 7654 H 718.63 4.96723 4.86098 0
M  V30 7655 H 721.821 3.13627 3.475 0
M  V30 7656 H 721.994 4.52585 4.63757 0
M  V30 7657 N 715.4 -1.26948 0.933913 0
M  V30 7658 C 716.811 -1.76058 0.621324 0
M  V30 7659 C 717.162 -1.76175 -0.863522 0
M  V30 7660 O 716.287 -1.36921 -1.67576 0
M  V30 7661 C 716.882 -3.19713 1.12111 0
M  V30 7662 C 715.441 -3.66465 0.859074 0
M  V30 7663 C 714.588 -2.46186 1.27624 0
M  V30 7664 H 717.539 -1.13127 1.11301 0
M  V30 7665 H 717.56 -3.77566 0.471608 0
M  V30 7666 H 717.072 -3.19596 2.20182 0
M  V30 7667 H 715.173 -3.72021 -0.207566 0
M  V30 7668 H 715.286 -4.55636 1.48098 0
M  V30 7669 H 713.65 -2.45042 0.694727 0
M  V30 7670 H 714.433 -2.48774 2.36572 0
M  V30 7671 N 716.879 -0.700114 -1.41195 0
M  V30 7672 C 718.107 -0.242179 -2.05478 0
M  V30 7673 C 718.522 1.11029 -1.52702 0
M  V30 7674 O 717.879 1.69473 -0.677127 0
M  V30 7675 C 717.93 -0.196271 -3.60967 0
M  V30 7676 O 717.651 -1.49532 -4.11791 0
M  V30 7677 C 719.152 0.282102 -4.42401 0
M  V30 7678 H 716.372 -0.111749 -0.661629 0
M  V30 7679 H 718.916 -0.953975 -1.80885 0
M  V30 7680 H 717.071 0.46638 -3.84582 0
M  V30 7681 H 717.485 -1.38545 -5.05871 0
M  V30 7682 H 718.959 0.263093 -5.51373 0
M  V30 7683 H 719.436 1.32174 -4.1884 0
M  V30 7684 H 720.042 -0.349712 -4.2386 0
M  V30 7685 N 718.357 1.51182 -0.445186 0
M  V30 7686 C 719.604 2.02152 0.118645 0
M  V30 7687 C 719.932 1.32888 1.42025 0
M  V30 7688 O 719.187 0.435041 1.90803 0
M  V30 7689 C 719.486 3.55408 0.376797 0
M  V30 7690 C 719.152 4.43008 -0.839945 0
M  V30 7691 C 717.814 4.66669 -1.17361 0
M  V30 7692 C 720.166 4.9435 -1.65127 0
M  V30 7693 C 717.494 5.38919 -2.31913 0
M  V30 7694 C 719.846 5.67857 -2.78786 0
M  V30 7695 C 718.51 5.89779 -3.12597 0
M  V30 7696 H 717.78 0.739727 0.0434152 0
M  V30 7697 H 720.427 1.82055 -0.593984 0
M  V30 7698 H 718.732 3.73879 1.1714 0
M  V30 7699 H 720.429 3.92388 0.826602 0
M  V30 7700 H 717.019 4.24793 -0.569958 0
M  V30 7701 H 721.203 4.75947 -1.4067 0
M  V30 7702 H 716.459 5.54105 -2.58413 0
M  V30 7703 H 720.633 6.06628 -3.42017 0
M  V30 7704 H 718.26 6.45542 -4.01471 0
M  V30 7705 N 719.835 0.176821 1.56605 0
M  V30 7706 C 721.112 -0.513365 1.88743 0
M  V30 7707 C 721.492 -1.80929 1.08757 0
M  V30 7708 O 720.84 -2.27765 0.183127 0
M  V30 7709 C 721.05 -0.749925 3.40848 0
M  V30 7710 C 722.398 -1.07747 4.10701 0
M  V30 7711 O 723.422 -0.838277 3.46196 0
M  V30 7712 O 722.281 -1.52901 5.24675 0
M  V30 7713 H 719.375 -0.265296 0.783292 0
M  V30 7714 H 721.921 0.215669 1.68324 0
M  V30 7715 H 720.693 0.16599 3.90948 0
M  V30 7716 H 720.316 -1.53208 3.66897 0
M  V30 7717 N 721.313 -1.57302 -0.09688 0
M  V30 7718 C 722.543 -1.89926 -0.813114 0
M  V30 7719 C 722.951 -0.76852 -1.72888 0
M  V30 7720 O 722.294 0.268549 -1.81726 0
M  V30 7721 C 722.356 -3.17787 -1.68082 0
M  V30 7722 C 722.02 -4.4729 -0.937061 0
M  V30 7723 C 723.017 -5.1921 -0.267687 0
M  V30 7724 C 720.702 -4.93957 -0.911671 0
M  V30 7725 C 722.696 -6.36034 0.417129 0
M  V30 7726 C 720.383 -6.10693 -0.223068 0
M  V30 7727 C 721.381 -6.8158 0.440155 0
M  V30 7728 O 721.069 -7.96092 1.11772 0
M  V30 7729 H 720.801 -0.632783 -0.237828 0
M  V30 7730 H 723.355 -2.05248 -0.0790818 0
M  V30 7731 H 721.585 -2.98607 -2.45705 0
M  V30 7732 H 723.274 -3.36257 -2.27346 0
M  V30 7733 H 724.04 -4.84198 -0.278774 0
M  V30 7734 H 719.919 -4.38671 -1.41734 0
M  V30 7735 H 723.463 -6.91301 0.93537 0
M  V30 7736 H 719.36 -6.45159 -0.209821 0
M  V30 7737 H 720.128 -8.12064 1.02443 0
M  V30 7738 N 722.791 0.367657 -1.53252 0
M  V30 7739 C 723.721 1.45632 -1.8252 0
M  V30 7740 C 724.702 1.55979 -0.678568 0
M  V30 7741 O 725.887 1.70581 -0.928217 0
M  V30 7742 C 723.017 2.82994 -2.01325 0
M  V30 7743 C 721.971 2.87473 -3.17086 0
M  V30 7744 C 721.297 4.2749 -3.21179 0
M  V30 7745 C 722.597 2.55182 -4.55719 0
M  V30 7746 H 724.291 1.21387 -2.73689 0
M  V30 7747 H 721.837 0.58251 -1.31692 0
M  V30 7748 H 723.79 3.59179 -2.20383 0
M  V30 7749 H 722.514 3.08622 -1.06864 0
M  V30 7750 H 721.173 2.13739 -2.97844 0
M  V30 7751 H 720.821 4.5019 -2.24361 0
M  V30 7752 H 720.521 4.31403 -3.98955 0
M  V30 7753 H 722.045 5.0555 -3.42419 0
M  V30 7754 H 723.459 3.21081 -4.74953 0
M  V30 7755 H 721.856 2.70414 -5.3572 0
M  V30 7756 H 722.926 1.5044 -4.60973 0
M  V30 7757 N 724.269 1.44576 0.627338 0
M  V30 7758 C 725.685 1.28546 0.945938 0
M  V30 7759 C 725.885 0.224003 2.00251 0
M  V30 7760 O 724.941 -0.388817 2.49488 0
M  V30 7761 C 726.254 2.65825 1.40561 0
M  V30 7762 C 727.802 2.73566 1.52088 0
M  V30 7763 C 728.277 4.11323 2.01438 0
M  V30 7764 N 729.768 4.13519 2.08702 0
M  V30 7765 C 730.503 5.16964 2.48065 0
M  V30 7766 N 729.999 6.30768 2.86538 0
M  V30 7767 N 731.792 5.04319 2.48232 0
M  V30 7768 H 723.943 2.1228 -0.0713567 0
M  V30 7769 H 726.206 0.947503 0.0307081 0
M  V30 7770 H 725.912 3.44591 0.703539 0
M  V30 7771 H 725.786 2.92969 2.37591 0
M  V30 7772 H 728.173 1.95116 2.21391 0
M  V30 7773 H 728.254 2.50159 0.534237 0
M  V30 7774 H 727.898 4.9025 1.32729 0
M  V30 7775 H 727.828 4.32109 3.0098 0
M  V30 7776 H 730.319 3.31385 1.81638 0
M  V30 7777 H 730.632 7.0551 3.15398 0
M  V30 7778 H 728.977 6.342 2.84281 0
M  V30 7779 H 732.168 4.14465 2.17569 0
M  V30 7780 H 732.341 5.85059 2.78585 0
M  V30 7781 N 725.747 -0.868086 1.31537 0
M  V30 7782 C 726.972 -1.65926 1.24432 0
M  V30 7783 C 727.397 -1.87169 -0.186936 0
M  V30 7784 O 726.755 -1.4148 -1.13371 0
M  V30 7785 C 726.803 -3.00347 1.9956 0
M  V30 7786 O 725.907 -3.90221 1.33422 0
M  V30 7787 H 725.248 -0.506375 0.429512 0
M  V30 7788 H 727.778 -1.0822 1.73637 0
M  V30 7789 H 727.788 -3.50269 2.09226 0
M  V30 7790 H 726.463 -2.84205 3.03645 0
M  V30 7791 H 725.04 -3.48672 1.32219 0
M  V30 7792 N 727.225 -1.14528 -1.08264 0
M  V30 7793 C 728.471 -0.91576 -1.80947 0
M  V30 7794 C 728.804 0.55623 -1.86064 0
M  V30 7795 O 728.079 1.41207 -1.33756 0
M  V30 7796 C 728.362 -1.51917 -3.26486 0
M  V30 7797 C 728.215 -3.06111 -3.2957 0
M  V30 7798 C 729.534 -1.19724 -4.23502 0
M  V30 7799 H 726.653 -0.334113 -0.656915 0
M  V30 7800 H 729.295 -1.41547 -1.26746 0
M  V30 7801 H 727.445 -1.0942 -3.72773 0
M  V30 7802 H 729.117 -3.57448 -2.91597 0
M  V30 7803 H 727.36 -3.40483 -2.688 0
M  V30 7804 H 728.031 -3.43438 -4.32151 0
M  V30 7805 H 730.507 -1.56467 -3.85561 0
M  V30 7806 H 729.383 -1.64575 -5.23647 0
M  V30 7807 H 729.644 -0.112771 -4.41956 0
M  V30 7808 N 728.703 1.26451 -0.940633 0
M  V30 7809 C 729.633 2.28773 -0.467479 0
M  V30 7810 C 730.614 1.63218 0.478955 0
M  V30 7811 O 731.799 1.90427 0.380929 0
M  V30 7812 C 728.929 3.46259 0.268656 0
M  V30 7813 C 727.883 4.23898 -0.591171 0
M  V30 7814 C 727.209 5.33993 0.274891 0
M  V30 7815 C 728.509 4.87974 -1.86223 0
M  V30 7816 H 730.203 2.68601 -1.32265 0
M  V30 7817 H 727.749 1.29123 -0.637436 0
M  V30 7818 H 729.702 4.16951 0.610696 0
M  V30 7819 H 728.426 3.05383 1.15796 0
M  V30 7820 H 727.085 3.54969 -0.916098 0
M  V30 7821 H 726.733 4.89358 1.16353 0
M  V30 7822 H 726.433 5.86849 -0.297006 0
M  V30 7823 H 727.957 6.07523 0.612213 0
M  V30 7824 H 729.371 5.50883 -1.58747 0
M  V30 7825 H 727.768 5.50945 -2.37866 0
M  V30 7826 H 728.838 4.10945 -2.57394 0
M  V30 7827 N 730.181 0.707592 1.40822 0
M  V30 7828 C 731.091 0.0507246 2.34545 0
M  V30 7829 C 732.107 -0.752727 1.56876 0
M  V30 7830 O 733.283 -0.687524 1.89302 0
M  V30 7831 C 730.348 -0.865731 3.35717 0
M  V30 7832 C 729.409 -0.0531313 4.29267 0
M  V30 7833 C 728.642 -0.925939 5.25606 0
M  V30 7834 O 728.865 -2.16531 5.27703 0
M  V30 7835 O 727.799 -0.369194 6.00767 0
M  V30 7836 H 731.625 0.823587 2.9232 0
M  V30 7837 H 729.21 0.46801 1.4188 0
M  V30 7838 H 731.092 -1.39091 3.97783 0
M  V30 7839 H 729.767 -1.61788 2.80368 0
M  V30 7840 H 728.674 0.516931 3.70511 0
M  V30 7841 H 730.007 0.660617 4.87747 0
M  V30 7842 N 731.66 -1.50943 0.453197 0
M  V30 7843 C 732.937 -1.94872 -0.168633 0
M  V30 7844 C 733.317 -1.39272 -1.5864 0
M  V30 7845 O 732.665 -0.586272 -2.20851 0
M  V30 7846 C 732.875 -3.48757 -0.130217 0
M  V30 7847 C 734.223 -4.23331 -0.327975 0
M  V30 7848 O 735.247 -3.55594 -0.207619 0
M  V30 7849 O 734.106 -5.43529 -0.569077 0
M  V30 7850 H 731.2 -0.818042 -0.121394 0
M  V30 7851 H 733.746 -1.61782 0.512316 0
M  V30 7852 H 732.518 -3.81725 0.860346 0
M  V30 7853 H 732.141 -3.88333 -0.853397 0
M  V30 7854 N 733.138 -0.185124 -1.56509 0
M  V30 7855 C 734.385 0.456258 -1.97293 0
M  V30 7856 C 734.713 1.62314 -1.07165 0
M  V30 7857 O 733.968 1.95398 -0.108621 0
M  V30 7858 C 734.267 0.967977 -3.44042 0
M  V30 7859 C 733.933 -0.084476 -4.50821 0
M  V30 7860 C 732.595 -0.373689 -4.79747 0
M  V30 7861 C 734.947 -0.79812 -5.15053 0
M  V30 7862 C 732.275 -1.3817 -5.70198 0
M  V30 7863 C 734.627 -1.79521 -6.06593 0
M  V30 7864 C 733.291 -2.09172 -6.3388 0
M  V30 7865 H 732.561 0.166957 -0.721946 0
M  V30 7866 H 735.208 -0.279992 -1.89442 0
M  V30 7867 H 733.513 1.78231 -3.48914 0
M  V30 7868 H 735.21 1.47347 -3.72948 0
M  V30 7869 H 731.8 0.15111 -4.28334 0
M  V30 7870 H 735.984 -0.587903 -4.92806 0
M  V30 7871 H 731.24 -1.61745 -5.89617 0
M  V30 7872 H 735.414 -2.35347 -6.55427 0
M  V30 7873 H 733.041 -2.87427 -7.03768 0
M  V30 7874 N 734.616 1.57351 0.0885366 0
M  V30 7875 C 735.863 1.86419 0.790824 0
M  V30 7876 C 736.191 0.774561 1.78412 0
M  V30 7877 O 735.446 -0.23119 1.9433 0
M  V30 7878 C 735.745 3.22098 1.5488 0
M  V30 7879 C 735.411 4.4548 0.697025 0
M  V30 7880 C 734.073 4.78975 0.462237 0
M  V30 7881 C 736.425 5.21094 0.105315 0
M  V30 7882 C 733.753 5.85507 -0.374016 0
M  V30 7883 C 736.105 6.28509 -0.718298 0
M  V30 7884 C 734.769 6.60515 -0.963116 0
M  V30 7885 H 734.039 0.682157 0.289383 0
M  V30 7886 H 736.686 1.91429 0.0520961 0
M  V30 7887 H 734.991 3.12803 2.35927 0
M  V30 7888 H 736.688 3.41819 2.09669 0
M  V30 7889 H 733.278 4.19255 0.890137 0
M  V30 7890 H 737.462 4.95544 0.273856 0
M  V30 7891 H 732.718 6.08713 -0.572606 0
M  V30 7892 H 736.892 6.86268 -1.18362 0
M  V30 7893 H 734.519 7.42893 -1.6129 0
M  V30 7894 N 736.094 -0.359525 1.53444 0
M  V30 7895 C 737.322 -1.12198 1.73837 0
M  V30 7896 C 737.737 -1.82854 0.470107 0
M  V30 7897 O 737.094 -1.73781 -0.557349 0
M  V30 7898 C 737.145 -2.14769 2.90786 0
M  V30 7899 O 736.866 -1.46989 4.12706 0
M  V30 7900 C 738.367 -3.03514 3.231 0
M  V30 7901 H 735.587 -0.33524 0.581253 0
M  V30 7902 H 738.131 -0.416598 2.00212 0
M  V30 7903 H 736.286 -2.80896 2.66788 0
M  V30 7904 H 736.7 -2.15378 4.78239 0
M  V30 7905 H 738.174 -3.71453 4.08322 0
M  V30 7906 H 738.651 -3.68658 2.38721 0
M  V30 7907 H 739.257 -2.42996 3.49046 0
M  V30 7908 N 737.572 -1.44907 -0.619662 0
M  V30 7909 C 738.535 -1.52282 -1.71297 0
M  V30 7910 C 739.535 -0.40359 -1.55653 0
M  V30 7911 O 740.725 -0.666638 -1.6094 0
M  V30 7912 C 737.857 -1.40778 -3.10474 0
M  V30 7913 H 739.05 -2.49683 -1.66128 0
M  V30 7914 H 736.603 -1.32168 -0.834339 0
M  V30 7915 H 737.338 -0.445156 -3.2123 0
M  V30 7916 H 737.123 -2.21947 -3.23237 0
M  V30 7917 H 738.613 -1.48946 -3.90135 0
M  V30 7918 N 739.05 0.861098 -1.31996 0
M  V30 7919 C 740.278 1.6474 -1.25173 0
M  V30 7920 C 740.693 1.87926 0.181425 0
M  V30 7921 O 740.05 1.4437 1.1164 0
M  V30 7922 C 740.101 3.01036 -2.0015 0
M  V30 7923 O 739.822 2.7888 -3.37872 0
M  V30 7924 C 741.323 3.95481 -2.00273 0
M  V30 7925 H 738.543 0.513314 -0.432146 0
M  V30 7926 H 741.087 1.07419 -1.74016 0
M  V30 7927 H 739.242 3.55021 -1.55046 0
M  V30 7928 H 739.656 3.65514 -3.76165 0
M  V30 7929 H 741.13 4.88403 -2.57229 0
M  V30 7930 H 741.607 4.27957 -0.987407 0
M  V30 7931 H 742.213 3.47433 -2.45296 0
M  V30 7932 N 740.528 1.15101 1.07655 0
M  V30 7933 C 741.438 0.858869 2.18313 0
M  V30 7934 C 742.454 -0.163641 1.73229 0
M  V30 7935 O 743.63 0.00969541 2.01398 0
M  V30 7936 C 740.695 0.34893 3.4494 0
M  V30 7937 C 739.756 1.43495 4.04608 0
M  V30 7938 C 738.989 0.949253 5.2519 0
M  V30 7939 O 739.212 -0.20636 5.70027 0
M  V30 7940 O 738.146 1.73161 5.76454 0
M  V30 7941 H 741.972 1.78386 2.45788 0
M  V30 7942 H 739.557 0.929876 1.16934 0
M  V30 7943 H 741.439 0.070851 4.2134 0
M  V30 7944 H 740.114 -0.548237 3.19024 0
M  V30 7945 H 739.021 1.7666 3.29761 0
M  V30 7946 H 740.354 2.30692 4.3479 0
M  V30 7947 N 742.006 -1.2595 0.947325 0
M  V30 7948 C 743.254 -1.93081 0.596996 0
M  V30 7949 C 743.575 -1.74632 -0.867672 0
M  V30 7950 O 742.845 -1.1056 -1.6172 0
M  V30 7951 H 741.425 -0.714542 0.217805 0
M  V30 7952 H 744.087 -1.53265 1.20398 0
M  V30 7953 H 743.183 -3.01134 0.82004 0
M  V30 7954 N 743.484 -0.715051 -1.40445 0
M  V30 7955 C 744.416 -0.0227516 -2.29189 0
M  V30 7956 C 745.429 0.724313 -1.458 0
M  V30 7957 O 746.618 0.571781 -1.69094 0
M  V30 7958 C 743.718 0.992038 -3.24055 0
M  V30 7959 C 742.891 0.310613 -4.36296 0
M  V30 7960 C 741.95 1.23071 -5.11605 0
M  V30 7961 O 740.976 0.71571 -5.64682 0
M  V30 7962 N 742.178 2.56188 -5.2091 0
M  V30 7963 H 744.943 -0.78473 -2.89244 0
M  V30 7964 H 742.504 -0.562637 -1.51809 0
M  V30 7965 H 744.496 1.60973 -3.71308 0
M  V30 7966 H 743.066 1.65538 -2.65171 0
M  V30 7967 H 742.286 -0.487269 -3.91177 0
M  V30 7968 H 743.574 -0.162415 -5.08541 0
M  V30 7969 H 742.972 3.00527 -4.7927 0
M  V30 7970 H 741.529 3.13103 -5.71673 0
M  V30 7971 N 744.962 1.50701 -0.461195 0
M  V30 7972 C 746.192 2.06381 0.0950376 0
M  V30 7973 C 746.6 1.32627 1.34933 0
M  V30 7974 O 745.943 0.386137 1.79596 0
M  V30 7975 C 746.005 3.56558 0.458965 0
M  V30 7976 C 745.669 4.51732 -0.691891 0
M  V30 7977 C 746.666 4.95594 -1.57105 0
M  V30 7978 C 744.351 4.94542 -0.879407 0
M  V30 7979 C 746.345 5.80963 -2.62223 0
M  V30 7980 C 744.032 5.79695 -1.93382 0
M  V30 7981 C 745.03 6.22806 -2.80359 0
M  V30 7982 O 744.718 7.06265 -3.83986 0
M  V30 7983 H 744.45 0.676 0.000687488 0
M  V30 7984 H 747.004 1.94974 -0.646087 0
M  V30 7985 H 745.234 3.65832 1.25314 0
M  V30 7986 H 746.923 3.94647 0.949124 0
M  V30 7987 H 747.689 4.63197 -1.43783 0
M  V30 7988 H 743.568 4.60513 -0.211907 0
M  V30 7989 H 747.112 6.14533 -3.30143 0
M  V30 7990 H 743.009 6.11506 -2.06715 0
M  V30 7991 H 743.777 7.24494 -3.80855 0
M  V30 7992 N 746.441 0.193421 1.56409 0
M  V30 7993 C 747.373 -0.759944 2.16235 0
M  V30 7994 C 748.386 -1.17797 1.12373 0
M  V30 7995 O 749.575 -1.11399 1.39472 0
M  V30 7996 C 746.675 -2.03735 2.70823 0
M  V30 7997 C 745.848 -1.77939 3.9957 0
M  V30 7998 C 744.907 -2.90111 4.39001 0
M  V30 7999 O 743.933 -2.59791 5.06456 0
M  V30 8000 N 745.135 -4.18426 4.02368 0
M  V30 8001 H 747.9 -0.248348 2.98669 0
M  V30 8002 H 745.461 0.0113966 1.61896 0
M  V30 8003 H 747.453 -2.77914 2.94187 0
M  V30 8004 H 746.023 -2.46022 1.92852 0
M  V30 8005 H 745.243 -0.875491 3.84355 0
M  V30 8006 H 746.531 -1.58099 4.83614 0
M  V30 8007 H 745.929 -4.45913 3.48106 0
M  V30 8008 H 744.486 -4.89237 4.30686 0
M  V30 8009 N 747.919 -1.57396 -0.0801906 0
M  V30 8010 C 749.33 -1.75642 -0.633002 0
M  V30 8011 C 749.681 -0.817708 -1.78348 0
M  V30 8012 O 748.806 0.000233743 -2.164 0
M  V30 8013 C 749.401 -3.18502 -1.15507 0
M  V30 8014 C 747.96 -3.38121 -1.65381 0
M  V30 8015 C 747.107 -2.71386 -0.569661 0
M  V30 8016 H 750.058 -1.58027 0.145949 0
M  V30 8017 H 750.079 -3.22198 -2.02408 0
M  V30 8018 H 749.591 -3.86799 -0.317515 0
M  V30 8019 H 747.692 -2.74926 -2.51488 0
M  V30 8020 H 747.805 -4.46521 -1.73654 0
M  V30 8021 H 746.169 -2.33702 -1.0127 0
M  V30 8022 H 746.952 -3.42332 0.257561 0
M  V30 8023 N 749.397 0.351382 -1.53633 0
M  V30 8024 C 750.329 1.45159 -1.77374 0
M  V30 8025 C 751.342 1.4905 -0.654826 0
M  V30 8026 O 752.531 1.52274 -0.931396 0
M  V30 8027 C 749.631 2.83858 -1.85143 0
M  V30 8028 C 748.804 3.03498 -3.14972 0
M  V30 8029 C 747.863 4.22393 -3.138 0
M  V30 8030 O 746.889 4.16885 -3.87551 0
M  V30 8031 N 748.091 5.30533 -2.35617 0
M  V30 8032 H 750.856 1.25167 -2.72311 0
M  V30 8033 H 748.417 0.54121 -1.52586 0
M  V30 8034 H 750.409 3.61557 -1.8182 0
M  V30 8035 H 748.979 2.9703 -0.974275 0
M  V30 8036 H 748.199 2.13336 -3.31484 0
M  V30 8037 H 749.487 3.13498 -4.00745 0
M  V30 8038 H 748.885 5.37875 -1.75235 0
M  V30 8039 H 747.442 6.06756 -2.38098 0
M  V30 8040 N 750.875 1.45233 0.611969 0
M  V30 8041 C 752.286 1.4354 1.19387 0
M  V30 8042 C 752.637 0.160713 1.95541 0
M  V30 8043 O 751.762 -0.737954 2.03429 0
M  V30 8044 C 752.357 2.60045 2.17169 0
M  V30 8045 C 750.916 2.61486 2.70744 0
M  V30 8046 C 750.063 2.35708 1.46072 0
M  V30 8047 H 753.014 1.53536 0.401529 0
M  V30 8048 H 753.035 2.33893 3.00124 0
M  V30 8049 H 752.547 3.52803 1.61714 0
M  V30 8050 H 750.648 1.72721 3.30149 0
M  V30 8051 H 750.761 3.60572 3.15476 0
M  V30 8052 H 749.125 1.85178 1.74875 0
M  V30 8053 H 749.908 3.30606 0.924922 0
M  V30 8054 O 752.392 -0.755776 1.42724 0
M  V30 8055 H 753.083 -1.40427 1.33416 0
M  V30 END ATOM
M  V30 BEGIN BOND
M  V30 END BOND
M  V30 END CTAB
M  END
$$$$
