drugbank_target|P08319 Alcohol dehydrogenase 4 (DB00157; DB03559)
 OpenBabel12092119303D

  0  0  0     0  0            999 V3000
M  V30 BEGIN CTAB
M  V30 COUNTS 5703 5755 0 0 0
M  V30 BEGIN ATOM
M  V30 1 H -0.908 1.98254 -0.117106 0
M  V30 2 N 0 1.576 0 0
M  V30 3 C 0.933 2.03868 1.02534 0
M  V30 4 C 1.911 0.928543 1.3348 0
M  V30 5 O 3.095 1.19667 1.45644 0
M  V30 6 C 0.222 2.43627 2.35294 0
M  V30 7 C -0.732 3.65373 2.2001 0
M  V30 8 S 0.101 5.13292 1.52614 0
M  V30 9 C 1.257 5.56322 2.86805 0
M  V30 10 H 1.49 2.90518 0.631377 0
M  V30 11 H -0.977 1.52953 0.210867 0
M  V30 12 H 0.981 2.67203 3.11629 0
M  V30 13 H -0.358 1.57376 2.7183 0
M  V30 14 H -1.165 3.90944 3.18086 0
M  V30 15 H -1.563 3.418 1.51819 0
M  V30 16 H 0.729 5.58782 3.83104 0
M  V30 17 H 1.672 6.56266 2.65933 0
M  V30 18 H 2.08 4.83886 2.90714 0
M  V30 19 N 1.4781 -0.272755 1.55222 0
M  V30 20 C 2.7261 -1.00234 1.75492 0
M  V30 21 C 3.0471 -1.8681 0.5592 0
M  V30 22 O 2.3171 -1.91215 -0.425882 0
M  V30 23 H 0.8971 -0.373076 0.647166 0
M  V30 24 H 3.5591 -0.296926 1.92625 0
M  V30 25 H 2.6551 -1.63913 2.65592 0
M  V30 26 N 2.9562 -1.48159 -0.537278 0
M  V30 27 C 4.1842 -1.59454 -1.31841 0
M  V30 28 C 4.5992 -0.252065 -1.8711 0
M  V30 29 O 3.9562 0.757621 -1.66031 0
M  V30 30 C 4.0072 -2.63546 -2.47439 0
M  V30 31 O 3.7282 -3.92583 -1.94449 0
M  V30 32 C 5.2292 -2.85212 -3.39366 0
M  V30 33 H 2.4492 -0.53785 -0.401196 0
M  V30 34 H 4.9932 -1.93932 -0.648891 0
M  V30 35 H 3.1482 -2.31946 -3.1029 0
M  V30 36 H 3.5622 -4.49629 -2.70063 0
M  V30 37 H 5.0362 -3.61863 -4.16844 0
M  V30 38 H 5.5132 -1.93765 -3.94147 0
M  V30 39 H 6.1192 -3.18086 -2.82314 0
M  V30 40 N 4.4343 0.785586 -1.36625 0
M  V30 41 C 5.3813 1.89838 -1.31264 0
M  V30 42 C 6.3513 1.65115 -0.180633 0
M  V30 43 O 7.5363 1.87222 -0.36777 0
M  V30 44 C 4.6763 3.26706 -1.11163 0
M  V30 45 C 3.7893 3.63476 -2.33472 0
M  V30 46 C 2.9243 4.89481 -2.06353 0
M  V30 47 C 1.9633 5.18941 -3.24602 0
M  V30 48 N 1.1003 6.36131 -2.97123 0
M  V30 49 H 5.9403 1.93756 -2.26413 0
M  V30 50 H 3.4773 0.947454 -1.12524 0
M  V30 51 H 5.4353 4.05639 -0.975337 0
M  V30 52 H 4.0653 3.222 -0.196674 0
M  V30 53 H 3.1173 2.79636 -2.57891 0
M  V30 54 H 4.4293 3.81193 -3.21704 0
M  V30 55 H 3.5833 5.76288 -1.89675 0
M  V30 56 H 2.3223 4.73841 -1.15437 0
M  V30 57 H 1.3273 4.30615 -3.41834 0
M  V30 58 H 2.5523 5.36498 -4.16349 0
M  V30 59 H 0.4983 6.21875 -2.08823 0
M  V30 60 H 0.4153 6.54198 -3.78894 0
M  V30 61 H 1.6833 7.2591 -2.84033 0
M  V30 62 N 5.9124 1.20967 1.01018 0
M  V30 63 C 7.1604 1.02172 1.74371 0
M  V30 64 C 7.4814 -0.446414 1.89821 0
M  V30 65 O 6.7514 -1.32234 1.44537 0
M  V30 66 H 5.3314 0.375066 0.646014 0
M  V30 67 H 7.9934 1.52187 1.21758 0
M  V30 68 H 7.0894 1.48538 2.74487 0
M  V30 69 N 7.3905 -1.2043 1.01659 0
M  V30 70 C 8.3375 -2.23215 0.586822 0
M  V30 71 C 9.3075 -1.61382 -0.393085 0
M  V30 72 O 10.4925 -1.88544 -0.292525 0
M  V30 73 C 7.6325 -3.45032 -0.0687464 0
M  V30 74 C 6.7455 -4.21296 0.955724 0
M  V30 75 C 5.8805 -5.30507 0.271208 0
M  V30 76 C 4.9195 -5.98515 1.28244 0
M  V30 77 N 4.0565 -6.99316 0.62459 0
M  V30 78 H 8.8965 -2.59336 1.46796 0
M  V30 79 H 6.4335 -1.27431 0.734836 0
M  V30 80 H 8.3915 -4.1459 -0.465965 0
M  V30 81 H 7.0215 -3.09604 -0.913529 0
M  V30 82 H 6.0735 -3.50803 1.4711 0
M  V30 83 H 7.3855 -4.6803 1.72479 0
M  V30 84 H 6.5395 -6.06428 -0.18151 0
M  V30 85 H 5.2785 -4.8481 -0.530163 0
M  V30 86 H 4.2835 -5.21355 1.74554 0
M  V30 87 H 5.5085 -6.46298 2.08509 0
M  V30 88 H 3.4545 -6.55812 -0.156914 0
M  V30 89 H 3.3715 -7.44178 1.33172 0
M  V30 90 H 4.6395 -7.79255 0.195462 0
M  V30 91 N 8.8686 -0.792821 -1.36206 0
M  V30 92 C 10.1146 -0.36733 -1.99446 0
M  V30 93 C 10.4476 1.05917 -1.62774 0
M  V30 94 O 9.7226 1.7324 -0.88421 0
M  V30 95 C 10.0056 -0.535044 -3.56103 0
M  V30 96 C 9.8586 -2.00548 -4.02617 0
M  V30 97 C 11.1776 0.0478191 -4.40074 0
M  V30 98 H 8.2966 -0.134941 -0.724541 0
M  V30 99 H 10.9386 -0.999794 -1.61568 0
M  V30 100 H 9.0886 0.00336329 -3.885 0
M  V30 101 H 10.7606 -2.60521 -3.80692 0
M  V30 102 H 9.0036 -2.50686 -3.54032 0
M  V30 103 H 9.6746 -2.07377 -5.11565 0
M  V30 104 H 12.1506 -0.411822 -4.14057 0
M  V30 105 H 11.0266 -0.0995336 -5.4881 0
M  V30 106 H 11.2876 1.14025 -4.27142 0
M  V30 107 N 10.3467 1.47872 -0.545128 0
M  V30 108 C 11.5957 2.01695 -0.0145033 0
M  V30 109 C 11.9087 1.42609 1.33873 0
M  V30 110 O 13.1147 1.88021 1.95858 0
M  V30 111 C 11.5707 3.59892 0.0245068 0
M  V30 112 C 11.1787 4.27966 -1.32475 0
M  V30 113 C 12.9227 4.21507 0.50316 0
M  V30 114 C 10.8297 5.78136 -1.2455 0
M  V30 115 H 9.7597 0.753998 -0.00165172 0
M  V30 116 H 12.4107 1.69985 -0.691175 0
M  V30 117 H 10.7927 3.88509 0.766575 0
M  V30 118 H 11.9667 4.11003 -2.08357 0
M  V30 119 H 10.2817 3.78286 -1.74036 0
M  V30 120 H 12.8787 5.31538 0.580656 0
M  V30 121 H 13.2217 3.87855 1.51243 0
M  V30 122 H 13.7547 3.97376 -0.183681 0
M  V30 123 H 10.4937 6.16388 -2.23039 0
M  V30 124 H 10.0137 5.97469 -0.528282 0
M  V30 125 H 11.6927 6.40099 -0.942488 0
M  V30 126 N 11.8248 0.280983 1.55075 0
M  V30 127 C 12.7718 -0.603937 2.22758 0
M  V30 128 C 13.7418 -1.1452 1.20309 0
M  V30 129 O 14.9268 -1.19343 1.48869 0
M  V30 130 C 12.0668 -1.77947 2.95684 0
M  V30 131 C 11.1798 -1.2715 4.12864 0
M  V30 132 C 10.3148 -2.4093 4.7342 0
M  V30 133 C 9.3538 -1.87165 5.82783 0
M  V30 134 N 8.4908 -2.94441 6.37377 0
M  V30 135 H 13.3308 -0.020124 2.97993 0
M  V30 136 H 10.8678 0.00183425 1.471 0
M  V30 137 H 12.8258 -2.47055 3.36184 0
M  V30 138 H 11.4558 -2.33522 2.22861 0
M  V30 139 H 10.5078 -0.473331 3.77444 0
M  V30 140 H 11.8198 -0.837751 4.91715 0
M  V30 141 H 10.9738 -3.18021 5.1667 0
M  V30 142 H 9.7128 -2.87623 3.93859 0
M  V30 143 H 8.7178 -1.08556 5.38976 0
M  V30 144 H 9.9428 -1.41401 6.64216 0
M  V30 145 H 7.8888 -3.40505 5.60707 0
M  V30 146 H 7.8058 -2.55501 7.11516 0
M  V30 147 H 9.0738 -3.71489 6.85285 0
M  V30 148 N 13.3029 -1.57598 0.00835791 0
M  V30 149 C 14.5429 -1.92788 -0.679136 0
M  V30 150 C 14.9069 -0.883378 -1.70471 0
M  V30 151 O 16.1079 -1.12079 -2.44319 0
M  V30 152 C 14.3789 -3.32994 -1.29807 0
M  V30 153 S 15.9379 -3.90082 -2.00952 0
M  V30 154 H 12.7559 -0.67475 -0.224127 0
M  V30 155 H 15.3579 -1.95385 0.0670497 0
M  V30 156 H 14.0619 -4.06846 -0.538922 0
M  V30 157 H 13.5929 -3.33791 -2.082 0
M  V30 158 H 15.6079 -3.71834 -3.28563 0
M  V30 159 N 14.781 0.264519 -1.55364 0
M  V30 160 C 15.728 1.32717 -1.88825 0
M  V30 161 C 16.698 1.48675 -0.740605 0
M  V30 162 O 17.883 1.62945 -0.992657 0
M  V30 163 C 15.023 2.68089 -2.17307 0
M  V30 164 C 14.136 2.60284 -3.44785 0
M  V30 165 C 13.271 3.87892 -3.62924 0
M  V30 166 C 12.31 3.74631 -4.84064 0
M  V30 167 N 11.447 4.94092 -4.98816 0
M  V30 168 H 16.287 1.03481 -2.79456 0
M  V30 169 H 13.824 0.499757 -1.3835 0
M  V30 170 H 15.782 3.46864 -2.31821 0
M  V30 171 H 14.412 2.95509 -1.299 0
M  V30 172 H 13.464 1.73173 -3.38697 0
M  V30 173 H 14.776 2.46388 -4.33698 0
M  V30 174 H 13.93 4.75109 -3.77302 0
M  V30 175 H 12.669 4.04664 -2.7221 0
M  V30 176 H 11.674 2.85797 -4.69681 0
M  V30 177 H 12.899 3.5937 -5.76221 0
M  V30 178 H 10.845 5.11259 -4.11036 0
M  V30 179 H 10.762 4.8276 -5.81789 0
M  V30 180 H 12.03 5.82857 -5.17588 0
M  V30 181 N 16.2591 1.48442 0.529413 0
M  V30 182 C 17.2221 1.62524 1.61612 0
M  V30 183 C 18.2221 0.498509 1.52877 0
M  V30 184 O 19.4121 0.76431 1.56537 0
M  V30 185 C 16.5441 1.59597 3.01233 0
M  V30 186 H 17.7371 2.59423 1.50465 0
M  V30 187 H 15.2901 1.37047 0.751514 0
M  V30 188 H 16.0251 0.641781 3.17886 0
M  V30 189 H 15.8101 2.41397 3.08982 0
M  V30 190 H 17.3001 1.72646 3.80241 0
M  V30 191 N 17.7372 -0.778329 1.37039 0
M  V30 192 C 18.7002 -1.87301 1.32102 0
M  V30 193 C 19.7002 -1.59198 0.226405 0
M  V30 194 O 20.8902 -1.67403 0.481861 0
M  V30 195 C 18.0222 -3.24309 1.05055 0
M  V30 196 H 19.2152 -1.93093 2.29467 0
M  V30 197 H 16.7682 -0.977358 1.21973 0
M  V30 198 H 17.5032 -3.24196 0.0819373 0
M  V30 199 H 17.2882 -3.46098 1.84279 0
M  V30 200 H 18.7782 -4.04382 1.04234 0
M  V30 201 N 19.2153 -1.21501 -1.00376 0
M  V30 202 C 20.4643 -1.02718 -1.73586 0
M  V30 203 C 20.7773 0.439589 -1.90596 0
M  V30 204 O 21.9833 0.746848 -2.61026 0
M  V30 205 C 20.4393 -1.78929 -3.1227 0
M  V30 206 C 20.0473 -3.29783 -3.03228 0
M  V30 207 C 21.7913 -1.68557 -3.89601 0
M  V30 208 C 19.6983 -3.98479 -4.36999 0
M  V30 209 H 18.6283 -0.380733 -0.650814 0
M  V30 210 H 21.2793 -1.45248 -1.1214 0
M  V30 211 H 19.6613 -1.29192 -3.74333 0
M  V30 212 H 20.8353 -3.86832 -2.50395 0
M  V30 213 H 19.1503 -3.40711 -2.39385 0
M  V30 214 H 21.7473 -2.17211 -4.88593 0
M  V30 215 H 22.0903 -0.644021 -4.11288 0
M  V30 216 H 22.6233 -2.15778 -3.34193 0
M  V30 217 H 19.3623 -5.02841 -4.20513 0
M  V30 218 H 18.8823 -3.46219 -4.89788 0
M  V30 219 H 20.5613 -4.03462 -5.05794 0
M  V30 220 N 20.6934 1.19889 -1.02296 0
M  V30 221 C 21.6564 2.21116 -0.603351 0
M  V30 222 C 22.6564 1.5738 0.329884 0
M  V30 223 O 23.8464 1.73802 0.117702 0
M  V30 224 C 20.9784 3.40696 0.117992 0
M  V30 225 H 22.1714 2.59754 -1.49893 0
M  V30 226 H 19.7244 1.33463 -0.813468 0
M  V30 227 H 20.4594 3.07569 1.0282 0
M  V30 228 H 20.2444 3.88188 -0.552511 0
M  V30 229 H 21.7344 4.15692 0.398696 0
M  V30 230 N 22.1715 0.800033 1.35784 0
M  V30 231 C 23.4175 0.38701 1.99684 0
M  V30 232 C 23.7725 -1.03268 1.62338 0
M  V30 233 O 23.0655 -1.70543 0.87325 0
M  V30 234 C 23.2595 0.500276 3.53881 0
M  V30 235 C 23.0885 1.92942 4.06206 0
M  V30 236 C 21.8585 2.55637 4.35865 0
M  V30 237 C 24.0565 2.89307 4.25213 0
M  V30 238 N 22.0385 3.9003 4.74078 0
M  V30 239 C 23.4095 4.08556 4.66349 0
M  V30 240 C 25.4645 2.86225 4.07406 0
M  V30 241 C 24.1675 5.25146 4.91543 0
M  V30 242 C 26.1935 4.02011 4.33752 0
M  V30 243 C 25.5555 5.20007 4.75155 0
M  V30 244 H 21.6545 0.189252 0.758754 0
M  V30 245 H 24.2385 1.03988 1.64604 0
M  V30 246 H 22.4095 -0.122568 3.88207 0
M  V30 247 H 24.1415 0.0624733 4.04652 0
M  V30 248 H 20.8965 2.07039 4.25948 0
M  V30 249 H 21.3205 4.59205 4.97454 0
M  V30 250 H 25.9625 1.96154 3.74544 0
M  V30 251 H 23.6805 6.15794 5.23281 0
M  V30 252 H 27.2665 4.00999 4.21534 0
M  V30 253 H 26.1465 6.08113 4.95145 0
M  V30 254 N 23.6496 -1.47581 0.552962 0
M  V30 255 C 24.5596 -2.33743 -0.200353 0
M  V30 256 C 25.5756 -1.47928 -0.916151 0
M  V30 257 O 26.7516 -1.80865 -0.885993 0
M  V30 258 C 23.8166 -3.24536 -1.21973 0
M  V30 259 C 22.8776 -4.26238 -0.511819 0
M  V30 260 C 22.1106 -5.12693 -1.48263 0
M  V30 261 O 22.3336 -5.01525 -2.71714 0
M  V30 262 O 21.2676 -5.93375 -1.00945 0
M  V30 263 H 25.0936 -2.9945 0.506304 0
M  V30 264 H 22.6786 -1.46071 0.313622 0
M  V30 265 H 24.5606 -3.80631 -1.80827 0
M  V30 266 H 23.2356 -2.61462 -1.90839 0
M  V30 267 H 22.1426 -3.73914 0.117799 0
M  V30 268 H 23.4756 -4.92014 0.135308 0
M  V30 269 N 25.1277 -0.289203 -1.54924 0
M  V30 270 C 26.0907 0.579144 -2.21762 0
M  V30 271 C 27.0907 1.07047 -1.1999 0
M  V30 272 O 28.2807 0.968384 -1.44803 0
M  V30 273 C 25.4127 1.80055 -2.8947 0
M  V30 274 H 26.6057 -0.00464908 -2.999 0
M  V30 275 H 24.1587 -0.0399306 -1.56249 0
M  V30 276 H 24.8937 2.42449 -2.15381 0
M  V30 277 H 24.6787 1.45602 -3.64064 0
M  V30 278 H 26.1687 2.41773 -3.40493 0
M  V30 279 N 26.6058 1.57591 -0.0167156 0
M  V30 280 C 27.8538 1.90906 0.663285 0
M  V30 281 C 28.1748 0.892509 1.73376 0
M  V30 282 O 27.4448 -0.0677623 1.95783 0
M  V30 283 H 26.0248 0.704637 0.247983 0
M  V30 284 H 28.6868 1.94803 -0.0615909 0
M  V30 285 H 27.7828 2.9116 1.12393 0
M  V30 286 N 28.0839 -0.256276 1.55502 0
M  V30 287 C 29.0309 -1.31714 1.89526 0
M  V30 288 C 30.0009 -1.4828 0.748479 0
M  V30 289 O 31.1859 -1.62416 1.00128 0
M  V30 290 C 28.3259 -2.66933 2.18725 0
M  V30 291 C 27.4389 -2.58452 3.4616 0
M  V30 292 C 26.5739 -3.85961 3.64976 0
M  V30 293 C 25.6129 -3.72059 4.86044 0
M  V30 294 N 24.7499 -4.9144 5.01429 0
M  V30 295 H 29.5899 -1.01998 2.80001 0
M  V30 296 H 27.1269 -0.492413 1.38613 0
M  V30 297 H 29.0849 -3.4563 2.33657 0
M  V30 298 H 27.7149 -2.94816 1.31466 0
M  V30 299 H 26.7669 -1.71374 3.3961 0
M  V30 300 H 28.0789 -2.44085 4.34999 0
M  V30 301 H 27.2329 -4.73101 3.79816 0
M  V30 302 H 25.9719 -4.03215 2.74353 0
M  V30 303 H 24.9769 -2.83302 4.7119 0
M  V30 304 H 26.2019 -3.56309 5.78118 0
M  V30 305 H 24.1479 -5.09072 4.13741 0
M  V30 306 H 24.0649 -4.79668 5.84341 0
M  V30 307 H 25.3329 -5.80104 5.20672 0
M  V30 308 N 29.562 -1.4872 -0.521534 0
M  V30 309 C 30.973 -1.50607 -1.10337 0
M  V30 310 C 31.324 -0.280612 -1.94183 0
M  V30 311 O 30.449 0.611507 -2.0758 0
M  V30 312 C 31.044 -2.72903 -2.00772 0
M  V30 313 C 29.603 -2.77634 -2.54158 0
M  V30 314 C 28.75 -2.44241 -1.31307 0
M  V30 315 H 31.701 -1.55714 -0.306388 0
M  V30 316 H 31.722 -2.519 -2.85178 0
M  V30 317 H 31.234 -3.62077 -1.39721 0
M  V30 318 H 29.335 -1.92689 -3.18907 0
M  V30 319 H 29.448 -3.79283 -2.92714 0
M  V30 320 H 27.812 -1.95577 -1.63161 0
M  V30 321 H 28.595 -3.35666 -0.719943 0
M  V30 322 N 31.0401 0.771051 -1.3745 0
M  V30 323 C 31.9701 1.89827 -1.3597 0
M  V30 324 C 32.9511 1.68562 -0.228216 0
M  V30 325 O 34.1361 1.8941 -0.428675 0
M  V30 326 C 31.2661 3.2712 -1.16662 0
M  V30 327 C 30.2201 3.6295 -2.2683 0
M  V30 328 C 29.5461 4.98791 -1.92644 0
M  V30 329 C 30.8461 3.69627 -3.69017 0
M  V30 330 H 32.5401 1.91323 -2.30295 0
M  V30 331 H 30.0861 0.919082 -1.10855 0
M  V30 332 H 32.0391 4.05615 -1.14256 0
M  V30 333 H 30.7631 3.26059 -0.187926 0
M  V30 334 H 29.4221 2.86763 -2.28392 0
M  V30 335 H 29.0701 4.94271 -0.933021 0
M  V30 336 H 28.7701 5.23733 -2.66416 0
M  V30 337 H 30.2941 5.79685 -1.91826 0
M  V30 338 H 31.7081 4.38273 -3.69581 0
M  V30 339 H 30.1051 4.06067 -4.41848 0
M  V30 340 H 31.1751 2.70273 -4.02592 0
M  V30 341 N 32.5182 1.22032 0.997298 0
M  V30 342 C 33.7582 1.05375 1.75144 0
M  V30 343 C 34.1222 -0.404696 1.87686 0
M  V30 344 O 35.3232 -0.691998 2.5974 0
M  V30 345 C 33.5942 1.74046 3.12158 0
M  V30 346 S 35.1532 1.72745 4.03366 0
M  V30 347 H 31.9712 0.377449 0.602539 0
M  V30 348 H 34.5732 1.54902 1.19272 0
M  V30 349 H 33.2772 2.79332 3.00669 0
M  V30 350 H 32.8082 1.24731 3.73103 0
M  V30 351 H 34.8232 0.774015 4.90126 0
M  V30 352 N 33.9963 -1.19345 1.0293 0
M  V30 353 C 35.2453 -1.88363 0.721256 0
M  V30 354 C 35.5583 -1.80514 -0.753254 0
M  V30 355 O 36.7643 -2.44788 -1.17436 0
M  V30 356 C 35.2203 -3.37872 1.23978 0
M  V30 357 C 34.8283 -3.54278 2.74211 0
M  V30 358 C 36.5723 -4.12365 1.00775 0
M  V30 359 C 34.4793 -4.97682 3.19479 0
M  V30 360 H 33.4093 -0.705484 0.266098 0
M  V30 361 H 36.0603 -1.34928 1.24365 0
M  V30 362 H 34.4423 -3.90707 0.6453 0
M  V30 363 H 35.6163 -3.11769 3.39318 0
M  V30 364 H 33.9313 -2.93174 2.95699 0
M  V30 365 H 36.5283 -5.18119 1.32123 0
M  V30 366 H 36.8713 -4.16263 -0.0554308 0
M  V30 367 H 37.4043 -3.65668 1.56625 0
M  V30 368 H 34.1433 -4.98945 4.25128 0
M  V30 369 H 33.6633 -5.4095 2.591 0
M  V30 370 H 35.3423 -5.66337 3.12845 0
M  V30 371 N 35.4744 -0.807222 -1.35358 0
M  V30 372 C 36.3844 -0.219594 -2.3357 0
M  V30 373 C 37.4004 0.637734 -1.61892 0
M  V30 374 O 38.5764 0.549336 -1.93763 0
M  V30 375 C 35.6414 0.62158 -3.41083 0
M  V30 376 C 34.7024 -0.256315 -4.28534 0
M  V30 377 C 33.9354 0.544807 -5.30912 0
M  V30 378 O 34.1584 1.77944 -5.41934 0
M  V30 379 O 33.0924 -0.0646478 -6.01865 0
M  V30 380 H 36.9184 -1.03208 -2.85625 0
M  V30 381 H 34.5034 -0.569025 -1.38139 0
M  V30 382 H 36.3854 1.10067 -4.06772 0
M  V30 383 H 35.0604 1.41165 -2.91297 0
M  V30 384 H 33.9674 -0.782559 -3.65823 0
M  V30 385 H 35.3004 -1.01034 -4.81719 0
M  V30 386 N 36.9525 1.47285 -0.560781 0
M  V30 387 C 37.8625 2.33846 0.187954 0
M  V30 388 C 38.8785 1.48412 0.908293 0
M  V30 389 O 40.0545 1.81332 0.876388 0
M  V30 390 C 37.1195 3.25178 1.2025 0
M  V30 391 C 36.1805 4.26504 0.489208 0
M  V30 392 C 35.4135 5.13472 1.45542 0
M  V30 393 O 35.6365 5.02959 2.6905 0
M  V30 394 O 34.5705 5.93902 0.977963 0
M  V30 395 H 38.3965 2.99177 -0.522177 0
M  V30 396 H 35.9815 1.45903 -0.321364 0
M  V30 397 H 37.8635 3.81584 1.78805 0
M  V30 398 H 36.5385 2.6247 1.89449 0
M  V30 399 H 35.4455 3.73847 -0.137627 0
M  V30 400 H 36.7785 4.91935 -0.161399 0
M  V30 401 N 38.4306 0.297415 1.54768 0
M  V30 402 C 39.6766 -0.313376 2.00364 0
M  V30 403 C 40.0096 -1.53815 1.18553 0
M  V30 404 O 39.2846 -1.92739 0.261103 0
M  V30 405 C 39.5676 -0.673525 3.53745 0
M  V30 406 C 39.4206 0.560133 4.46299 0
M  V30 407 C 40.7396 -1.50143 4.13697 0
M  V30 408 H 37.8586 -0.112428 0.728374 0
M  V30 409 H 40.5006 0.4088 1.8555 0
M  V30 410 H 38.6506 -1.28881 3.665 0
M  V30 411 H 40.3226 1.19863 4.45455 0
M  V30 412 H 38.5656 1.19405 4.17043 0
M  V30 413 H 39.2366 0.26405 5.51368 0
M  V30 414 H 41.7126 -0.981588 4.04356 0
M  V30 415 H 40.5886 -1.72221 5.21182 0
M  V30 416 H 40.8496 -2.48952 3.65343 0
M  V30 417 N 39.9087 -1.5758 0.0250728 0
M  V30 418 C 40.8187 -2.1343 -0.973905 0
M  V30 419 C 41.8347 -1.08556 -1.35984 0
M  V30 420 O 43.0107 -1.40592 -1.44207 0
M  V30 421 C 40.0757 -2.64703 -2.23904 0
M  V30 422 C 39.1367 -3.84276 -1.91391 0
M  V30 423 C 38.3697 -4.33095 -3.11873 0
M  V30 424 O 38.5927 -3.81107 -4.24398 0
M  V30 425 O 37.5267 -5.24984 -2.94406 0
M  V30 426 H 41.3527 -2.99057 -0.529036 0
M  V30 427 H 38.9377 -1.48118 -0.195288 0
M  V30 428 H 40.8197 -2.97769 -2.98181 0
M  V30 429 H 39.4947 -1.82161 -2.6758 0
M  V30 430 H 38.4017 -3.56143 -1.14511 0
M  V30 431 H 39.7347 -4.67968 -1.52534 0
M  V30 432 N 41.3868 0.248026 -1.55636 0
M  V30 433 C 42.6328 0.97767 -1.77678 0
M  V30 434 C 42.9658 1.85016 -0.590135 0
M  V30 435 O 42.2408 1.90095 0.411611 0
M  V30 436 C 42.5238 1.83914 -3.09593 0
M  V30 437 C 42.3768 0.99491 -4.38659 0
M  V30 438 C 43.6958 2.82183 -3.37729 0
M  V30 439 H 40.8148 0.354005 -0.646413 0
M  V30 440 H 43.4568 0.248253 -1.88371 0
M  V30 441 H 41.6068 2.46104 -3.00608 0
M  V30 442 H 43.2788 0.391789 -4.59633 0
M  V30 443 H 41.5218 0.299231 -4.32767 0
M  V30 444 H 42.1928 1.63145 -5.2734 0
M  V30 445 H 44.6688 2.30129 -3.4667 0
M  V30 446 H 43.5448 3.39582 -4.31249 0
M  V30 447 H 43.8058 3.58588 -2.58586 0
M  V30 448 N 42.8649 1.48995 0.513639 0
M  V30 449 C 43.8279 1.64229 1.59879 0
M  V30 450 C 44.8279 0.514696 1.5234 0
M  V30 451 O 46.0179 0.78087 1.55718 0
M  V30 452 C 43.1499 1.62783 2.99524 0
M  V30 453 H 44.3429 2.61004 1.47705 0
M  V30 454 H 41.8959 1.37837 0.736936 0
M  V30 455 H 42.6309 0.675461 3.17188 0
M  V30 456 H 42.4159 2.4466 3.06404 0
M  V30 457 H 43.9059 1.76669 3.78388 0
M  V30 458 N 44.343 -0.763751 1.37857 0
M  V30 459 C 45.754 -1.3405 1.29952 0
M  V30 460 C 46.105 -1.96138 -0.0492898 0
M  V30 461 O 45.23 -1.94372 -0.951239 0
M  V30 462 C 45.825 -2.43729 2.35333 0
M  V30 463 C 44.384 -2.97151 2.31037 0
M  V30 464 C 43.531 -1.70438 2.18738 0
M  V30 465 H 46.482 -0.563396 1.48363 0
M  V30 466 H 46.503 -3.23412 2.00462 0
M  V30 467 H 46.015 -1.9851 3.33489 0
M  V30 468 H 44.116 -3.46724 1.3643 0
M  V30 469 H 44.229 -3.52221 3.24772 0
M  V30 470 H 42.593 -1.93673 1.65418 0
M  V30 471 H 43.376 -1.27312 3.18821 0
M  V30 472 N 45.8211 -1.22559 -0.990812 0
M  V30 473 C 47.2321 -1.04791 -1.54518 0
M  V30 474 C 47.5831 0.387998 -1.92325 0
M  V30 475 O 46.7081 1.27328 -1.74976 0
M  V30 476 C 47.3031 -1.896 -2.80779 0
M  V30 477 C 45.8621 -1.76124 -3.32652 0
M  V30 478 C 45.0091 -1.8594 -2.05722 0
M  V30 479 H 47.9601 -1.36374 -0.811662 0
M  V30 480 H 47.9811 -1.41464 -3.53225 0
M  V30 481 H 47.4931 -2.94101 -2.53231 0
M  V30 482 H 45.5941 -0.743643 -3.65104 0
M  V30 483 H 45.7071 -2.58913 -4.03114 0
M  V30 484 H 44.0711 -1.29403 -2.19379 0
M  V30 485 H 44.8541 -2.91976 -1.80568 0
M  V30 486 N 47.2992 1.18797 -1.03562 0
M  V30 487 C 48.2462 2.22253 -0.622259 0
M  V30 488 C 49.2162 1.61987 0.36736 0
M  V30 489 O 50.4012 1.88986 0.262492 0
M  V30 490 C 47.5412 3.45097 0.0138462 0
M  V30 491 C 46.6542 4.19722 -1.02263 0
M  V30 492 C 45.7892 5.30009 -0.355573 0
M  V30 493 C 44.8282 5.96399 -1.37749 0
M  V30 494 N 43.9652 6.98234 -0.735766 0
M  V30 495 H 48.8052 2.56968 -1.50903 0
M  V30 496 H 46.3422 1.26245 -0.755017 0
M  V30 497 H 48.3002 4.15279 0.399948 0
M  V30 498 H 46.9302 3.11018 0.864158 0
M  V30 499 H 45.9822 3.48418 -1.52673 0
M  V30 500 H 47.2942 4.65227 -1.79903 0
M  V30 501 H 46.4482 6.0664 0.0850095 0
M  V30 502 H 45.1872 4.85592 0.452967 0
M  V30 503 H 44.1922 5.18512 -1.82826 0
M  V30 504 H 45.4172 6.42899 -2.18764 0
M  V30 505 H 43.3632 6.55979 0.0525597 0
M  V30 506 H 43.2802 7.41965 -1.44995 0
M  V30 507 H 44.5482 7.78845 -0.31941 0
M  V30 508 N 48.7773 0.814389 1.34928 0
M  V30 509 C 49.7403 0.235759 2.27984 0
M  V30 510 C 50.7403 -0.581412 1.49921 0
M  V30 511 O 51.9303 -0.398758 1.69575 0
M  V30 512 C 49.0623 -0.670433 3.34242 0
M  V30 513 H 50.2553 1.05659 2.80671 0
M  V30 514 H 47.8083 0.585614 1.44915 0
M  V30 515 H 48.5433 -1.51466 2.86755 0
M  V30 516 H 48.3283 -0.0860822 3.92005 0
M  V30 517 H 49.8183 -1.06935 4.03676 0
M  V30 518 N 50.2554 -1.46986 0.568584 0
M  V30 519 C 51.2054 -2.27179 -0.193339 0
M  V30 520 C 52.1894 -1.35035 -0.874895 0
M  V30 521 O 53.3814 -1.5931 -0.771322 0
M  V30 522 C 50.5104 -3.21063 -1.21546 0
M  V30 523 C 49.5964 -4.2069 -0.536738 0
M  V30 524 N 49.9874 -5.04218 0.399673 0
M  V30 525 C 48.2854 -4.38961 -0.789254 0
M  V30 526 C 48.9864 -5.76242 0.795017 0
M  V30 527 N 47.9624 -5.434 0.1473 0
M  V30 528 H 51.7644 -2.89146 0.526458 0
M  V30 529 H 49.2784 -1.57664 0.389342 0
M  V30 530 H 51.2754 -3.77209 -1.77536 0
M  V30 531 H 49.9354 -2.60654 -1.93623 0
M  V30 532 H 50.9464 -5.12077 0.774454 0
M  V30 533 H 47.6234 -3.89713 -1.49767 0
M  V30 534 H 49.0134 -6.53417 1.56513 0
M  V30 535 N 51.7335 -0.305618 -1.54608 0
M  V30 536 C 52.6435 0.57778 -2.27374 0
M  V30 537 C 53.6595 1.14451 -1.31061 0
M  V30 538 O 54.8355 1.16831 -1.6405 0
M  V30 539 C 51.9005 1.73123 -3.00382 0
M  V30 540 C 50.9615 1.19812 -4.12242 0
M  V30 541 C 50.1945 2.2966 -4.81759 0
M  V30 542 O 50.4175 3.49651 -4.50666 0
M  V30 543 O 49.3515 1.96091 -5.69062 0
M  V30 544 H 53.1775 -0.012624 -3.03697 0
M  V30 545 H 50.7625 -0.0719184 -1.49227 0
M  V30 546 H 52.6445 2.40315 -3.4616 0
M  V30 547 H 51.3195 2.30815 -2.26949 0
M  V30 548 H 50.2265 0.491798 -3.70853 0
M  V30 549 H 51.5595 0.666566 -4.87666 0
M  V30 550 N 53.2116 1.57565 -0.0334293 0
M  V30 551 C 54.4576 1.92262 0.645226 0
M  V30 552 C 54.7906 0.910543 1.71531 0
M  V30 553 O 54.0656 -0.066099 1.94388 0
M  V30 554 C 54.3486 3.37422 1.2577 0
M  V30 555 C 54.2016 4.49369 0.196891 0
M  V30 556 C 55.5206 3.82628 2.17449 0
M  V30 557 H 52.6396 0.699171 0.233085 0
M  V30 558 H 55.2816 1.89779 -0.0915694 0
M  V30 559 H 53.4316 3.39669 1.88566 0
M  V30 560 H 55.1036 4.59254 -0.433962 0
M  V30 561 H 53.3466 4.31168 -0.477137 0
M  V30 562 H 54.0176 5.47978 0.665124 0
M  V30 563 H 56.4936 3.82145 1.64634 0
M  V30 564 H 55.3696 4.84883 2.57254 0
M  V30 565 H 55.6306 3.18376 3.0674 0
M  V30 566 N 54.6897 -0.239769 1.55765 0
M  V30 567 C 56.1057 -0.588624 1.48349 0
M  V30 568 C 56.3057 -1.88005 0.72502 0
M  V30 569 O 55.3617 -2.51186 0.257269 0
M  V30 570 C 56.6747 -0.68474 2.928 0
M  V30 571 C 58.2227 -0.77659 3.03213 0
M  V30 572 C 58.6977 -0.904207 4.48986 0
M  V30 573 N 60.1887 -0.968896 4.52953 0
M  V30 574 C 60.9237 -1.08703 5.63002 0
M  V30 575 N 60.4197 -1.17026 6.82845 0
M  V30 576 N 62.2127 -1.12074 5.50814 0
M  V30 577 H 54.3637 0.607911 2.03515 0
M  V30 578 H 56.6267 0.21083 0.924259 0
M  V30 579 H 56.3327 0.194284 3.51163 0
M  V30 580 H 56.2067 -1.55435 3.43686 0
M  V30 581 H 58.5937 -1.64606 2.44926 0
M  V30 582 H 58.6747 0.118315 2.55526 0
M  V30 583 H 58.3187 -0.0392633 5.07885 0
M  V30 584 H 58.2487 -1.81426 4.9436 0
M  V30 585 H 60.7397 -0.915633 3.6664 0
M  V30 586 H 61.0527 -1.25966 7.62465 0
M  V30 587 H 59.3977 -1.13971 6.85591 0
M  V30 588 H 62.5887 -1.05226 4.5612 0
M  V30 589 H 62.7617 -1.20936 6.36615 0
M  V30 590 N 56.1678 -1.49265 -0.50573 0
M  V30 591 C 57.4168 -1.57761 -1.25675 0
M  V30 592 C 57.7298 -0.267371 -1.93764 0
M  V30 593 O 58.9358 -0.230827 -2.70517 0
M  V30 594 C 57.3918 -2.78332 -2.28165 0
M  V30 595 C 56.9998 -4.16096 -1.66037 0
M  V30 596 C 58.7438 -2.96155 -3.04125 0
M  V30 597 C 56.6508 -5.27895 -2.6661 0
M  V30 598 H 55.5808 -0.587391 -0.472745 0
M  V30 599 H 58.2318 -1.75644 -0.53118 0
M  V30 600 H 56.6138 -2.53934 -3.03865 0
M  V30 601 H 57.7878 -4.50612 -0.963622 0
M  V30 602 H 56.1028 -4.03591 -1.02484 0
M  V30 603 H 58.6998 -3.76849 -3.79327 0
M  V30 604 H 59.0428 -2.06534 -3.61455 0
M  V30 605 H 59.5758 -3.2057 -2.35541 0
M  V30 606 H 56.3148 -6.1956 -2.14068 0
M  V30 607 H 55.8348 -4.97839 -3.34539 0
M  V30 608 H 57.5138 -5.57031 -3.29129 0
M  V30 609 N 57.6459 0.756429 -1.3826 0
M  V30 610 C 58.5779 1.87971 -1.31147 0
M  V30 611 C 59.5909 1.61248 -0.224239 0
M  V30 612 O 60.7799 1.71881 -0.481581 0
M  V30 613 C 57.8799 3.23545 -1.00857 0
M  V30 614 C 57.0529 3.77794 -2.20432 0
M  V30 615 C 56.1119 4.91877 -1.86931 0
M  V30 616 O 55.1379 5.06659 -2.59395 0
M  V30 617 N 56.3399 5.74643 -0.822568 0
M  V30 618 H 59.1049 1.94585 -2.2794 0
M  V30 619 H 56.6659 0.936234 -1.32084 0
M  V30 620 H 58.6579 3.97403 -0.765021 0
M  V30 621 H 57.2279 3.12335 -0.128687 0
M  V30 622 H 56.4479 2.95534 -2.6087 0
M  V30 623 H 57.7359 4.10771 -3.00241 0
M  V30 624 H 57.1339 5.65266 -0.221575 0
M  V30 625 H 55.6909 6.48661 -0.638899 0
M  V30 626 N 59.124 1.23083 0.984299 0
M  V30 627 C 60.373 1.05466 1.71929 0
M  V30 628 C 60.686 -0.409211 1.91272 0
M  V30 629 O 61.892 -0.705226 2.62181 0
M  V30 630 C 60.348 1.83874 3.09384 0
M  V30 631 C 59.956 3.34566 2.97943 0
M  V30 632 C 61.7 1.74734 3.8687 0
M  V30 633 C 59.607 4.05381 4.30605 0
M  V30 634 H 58.537 0.391039 0.644674 0
M  V30 635 H 61.188 1.47013 1.09815 0
M  V30 636 H 59.57 1.35131 3.72231 0
M  V30 637 H 60.744 3.90767 2.44209 0
M  V30 638 H 59.059 3.44476 2.33934 0
M  V30 639 H 61.656 2.24957 4.85076 0
M  V30 640 H 61.999 0.709372 4.10212 0
M  V30 641 H 62.532 2.21067 3.30717 0
M  V30 642 H 59.271 5.09467 4.1246 0
M  V30 643 H 58.791 3.53967 4.84218 0
M  V30 644 H 60.47 4.11458 4.99311 0
M  V30 645 N 60.6021 -1.18246 1.0419 0
M  V30 646 C 61.8511 -1.87588 0.741194 0
M  V30 647 C 62.1641 -1.81303 -0.734066 0
M  V30 648 O 63.3701 -2.46019 -1.14834 0
M  V30 649 C 61.8261 -3.36538 1.27555 0
M  V30 650 C 61.4341 -3.51349 2.77953 0
M  V30 651 C 63.1781 -4.11273 1.05143 0
M  V30 652 C 61.0851 -4.94265 3.2474 0
M  V30 653 H 60.0151 -0.702622 0.273565 0
M  V30 654 H 62.6661 -1.33601 1.25789 0
M  V30 655 H 61.0481 -3.9 0.686703 0
M  V30 656 H 62.2221 -3.08153 3.42605 0
M  V30 657 H 60.5371 -2.90022 2.98791 0
M  V30 658 H 63.1341 -5.16689 1.37611 0
M  V30 659 H 63.4771 -4.16298 -0.0112774 0
M  V30 660 H 64.0101 -3.63987 1.60495 0
M  V30 661 H 60.7491 -4.94408 4.30396 0
M  V30 662 H 60.2691 -5.38172 2.64823 0
M  V30 663 H 61.9481 -5.62987 3.18834 0
M  V30 664 N 62.0802 -0.821533 -1.34494 0
M  V30 665 C 63.0432 -0.247847 -2.27856 0
M  V30 666 C 64.0432 0.573453 -1.50227 0
M  V30 667 O 65.2332 0.389759 -1.69784 0
M  V30 668 C 62.3652 0.652698 -3.34593 0
M  V30 669 H 63.5582 -1.07146 -2.80107 0
M  V30 670 H 61.1112 -0.593291 -1.44602 0
M  V30 671 H 61.8462 1.49943 -2.87555 0
M  V30 672 H 61.6312 0.065292 -3.92046 0
M  V30 673 H 63.1212 1.04793 -4.04238 0
M  V30 674 N 63.5583 1.46682 -0.576371 0
M  V30 675 C 64.7863 2.06798 -0.0649635 0
M  V30 676 C 65.2013 1.42612 1.23723 0
M  V30 677 O 64.5583 0.529203 1.74659 0
M  V30 678 C 64.6093 3.6132 0.114202 0
M  V30 679 O 64.3303 4.23104 -1.13644 0
M  V30 680 C 65.8313 4.38349 0.66069 0
M  V30 681 H 63.0513 0.668778 -0.0545616 0
M  V30 682 H 65.5953 1.88404 -0.795237 0
M  V30 683 H 63.7503 3.79162 0.794673 0
M  V30 684 H 64.1643 5.15894 -0.946253 0
M  V30 685 H 65.6383 5.47081 0.73526 0
M  V30 686 H 66.1153 4.05953 1.67627 0
M  V30 687 H 66.7213 4.25297 0.0152951 0
M  V30 688 N 65.0364 0.313813 1.54444 0
M  V30 689 C 66.2614 -0.296681 2.05267 0
M  V30 690 C 66.6864 -1.45757 1.18897 0
M  V30 691 O 66.0444 -1.80239 0.195886 0
M  V30 692 C 66.0924 -0.71831 3.53373 0
M  V30 693 O 65.1964 -1.82175 3.69981 0
M  V30 694 H 64.5374 -0.0554061 0.661684 0
M  V30 695 H 67.0674 0.459387 1.99376 0
M  V30 696 H 67.0774 -1.00364 3.95463 0
M  V30 697 H 65.7524 0.130821 4.15694 0
M  V30 698 H 64.3294 -1.53598 3.39797 0
M  V30 699 N 66.5145 -1.57545 0.0417849 0
M  V30 700 C 67.4445 -2.14009 -0.933929 0
M  V30 701 C 68.4255 -1.05938 -1.33083 0
M  V30 702 O 69.6105 -1.33833 -1.40721 0
M  V30 703 C 66.7405 -2.67747 -2.21199 0
M  V30 704 C 65.6945 -3.80718 -1.95544 0
M  V30 705 C 65.0205 -4.20935 -3.29724 0
M  V30 706 C 66.3205 -5.06258 -1.28452 0
M  V30 707 H 68.0145 -2.95788 -0.463645 0
M  V30 708 H 65.5605 -1.42285 -0.221573 0
M  V30 709 H 67.5135 -3.05886 -2.89848 0
M  V30 710 H 66.2375 -1.83147 -2.70416 0
M  V30 711 H 64.8965 -3.43037 -1.2931 0
M  V30 712 H 64.5445 -3.33298 -3.76724 0
M  V30 713 H 64.2445 -4.9707 -3.13361 0
M  V30 714 H 65.7685 -4.61666 -3.9962 0
M  V30 715 H 67.1825 -5.41903 -1.8712 0
M  V30 716 H 65.5795 -5.87475 -1.22445 0
M  V30 717 H 66.6495 -4.84207 -0.259219 0
M  V30 718 N 67.9926 0.231505 -1.5589 0
M  V30 719 C 69.2326 0.964533 -1.80211 0
M  V30 720 C 69.5966 1.81926 -0.613744 0
M  V30 721 O 70.7976 2.58526 -0.736045 0
M  V30 722 C 69.0686 1.78956 -3.09369 0
M  V30 723 S 70.6276 2.57959 -3.54969 0
M  V30 724 H 67.4456 0.324173 -0.632798 0
M  V30 725 H 70.0476 0.230985 -1.94131 0
M  V30 726 H 68.7516 1.15161 -3.93911 0
M  V30 727 H 68.2826 2.56559 -2.9823 0
M  V30 728 H 70.2976 3.81309 -3.17519 0
M  V30 729 N 69.4707 1.49531 0.497807 0
M  V30 730 C 70.4207 1.62829 1.59596 0
M  V30 731 C 71.4047 0.483824 1.53453 0
M  V30 732 O 72.5967 0.736937 1.60929 0
M  V30 733 C 69.7257 1.7011 2.98191 0
M  V30 734 C 68.8117 2.90144 3.09317 0
M  V30 735 N 69.2027 4.1418 2.90324 0
M  V30 736 C 67.5007 2.88148 3.40422 0
M  V30 737 C 68.2017 4.94886 3.05717 0
M  V30 738 N 67.1777 4.28314 3.34736 0
M  V30 739 H 70.9797 2.56446 1.4357 0
M  V30 740 H 68.4937 1.46347 0.704001 0
M  V30 741 H 70.4907 1.77735 3.77115 0
M  V30 742 H 69.1507 0.776315 3.15283 0
M  V30 743 H 70.1617 4.44109 2.66436 0
M  V30 744 H 66.8387 2.05061 3.63671 0
M  V30 745 H 68.2287 6.03432 2.95499 0
M  V30 746 N 70.9488 -0.749086 1.3866 0
M  V30 747 C 72.1768 -1.53834 1.38358 0
M  V30 748 C 72.5918 -1.88783 -0.0255219 0
M  V30 749 O 71.9488 -1.53101 -0.993292 0
M  V30 750 C 71.9998 -2.83468 2.2434 0
M  V30 751 O 71.7208 -2.50008 3.5976 0
M  V30 752 C 73.2218 -3.7758 2.32267 0
M  V30 753 H 70.4418 -0.47585 0.473083 0
M  V30 754 H 72.9858 -0.926726 1.82297 0
M  V30 755 H 71.1408 -3.40995 1.83851 0
M  V30 756 H 71.5548 -3.33182 4.05081 0
M  V30 757 H 73.0288 -4.65478 2.96706 0
M  V30 758 H 73.5058 -4.18334 1.33765 0
M  V30 759 H 74.1118 -3.25976 2.73166 0
M  V30 760 N 72.4269 -1.23603 -0.977757 0
M  V30 761 C 73.7039 -0.977897 -1.69401 0
M  V30 762 C 74.0839 0.502738 -2.05026 0
M  V30 763 O 73.4319 1.47459 -1.74551 0
M  V30 764 C 73.6419 -1.89077 -2.93345 0
M  V30 765 C 74.9899 -2.15579 -3.65802 0
M  V30 766 O 76.0139 -1.86648 -3.03383 0
M  V30 767 O 74.8729 -2.64658 -4.78141 0
M  V30 768 H 71.9669 -0.369025 -0.740101 0
M  V30 769 H 74.5129 -1.34657 -1.03274 0
M  V30 770 H 73.2849 -2.89158 -2.63634 0
M  V30 771 H 72.9079 -1.52463 -3.67207 0
M  V30 772 N 73.905 1.17692 -1.04816 0
M  V30 773 C 74.868 2.19787 -0.650117 0
M  V30 774 C 75.868 1.58044 0.296427 0
M  V30 775 O 77.058 1.74012 0.0808097 0
M  V30 776 C 74.19 3.40869 0.0456987 0
M  V30 777 H 75.383 2.56516 -1.5537 0
M  V30 778 H 72.936 1.31708 -0.841594 0
M  V30 779 H 73.671 3.09681 0.962726 0
M  V30 780 H 73.456 3.86928 -0.634727 0
M  V30 781 H 74.946 4.16445 0.310432 0
M  V30 782 N 75.3831 0.828654 1.34056 0
M  V30 783 C 76.6111 0.43262 2.02326 0
M  V30 784 C 77.0261 -0.963147 1.62385 0
M  V30 785 O 76.3831 -1.62425 0.832121 0
M  V30 786 C 76.4341 0.53182 3.57567 0
M  V30 787 O 76.1551 1.87258 3.96063 0
M  V30 788 C 77.6561 0.131422 4.43105 0
M  V30 789 H 74.8761 0.172923 0.648335 0
M  V30 790 H 77.4201 1.1184 1.71208 0
M  V30 791 H 75.5751 -0.105938 3.87255 0
M  V30 792 H 75.9891 1.85087 4.90758 0
M  V30 793 H 77.4631 0.251904 5.51425 0
M  V30 794 H 77.9401 -0.925645 4.29335 0
M  V30 795 H 78.5461 0.743207 4.18756 0
M  V30 796 N 76.8612 -1.46375 0.584142 0
M  V30 797 C 78.1072 -2.02678 0.0703716 0
M  V30 798 C 78.4402 -1.4545 -1.28678 0
M  V30 799 O 77.7152 -0.62014 -1.84349 0
M  V30 800 C 77.9982 -3.60099 0.00614674 0
M  V30 801 C 77.8512 -4.27709 1.3923 0
M  V30 802 C 79.1702 -4.34598 -0.693742 0
M  V30 803 H 76.2892 -0.736504 0.027047 0
M  V30 804 H 78.9312 -1.74501 0.751615 0
M  V30 805 H 77.0812 -3.84236 -0.574009 0
M  V30 806 H 78.7532 -4.14832 2.01773 0
M  V30 807 H 76.9962 -3.87016 1.95962 0
M  V30 808 H 77.6672 -5.36478 1.29982 0
M  V30 809 H 80.1432 -4.15615 -0.200869 0
M  V30 810 H 79.0192 -5.44318 -0.707714 0
M  V30 811 H 79.2802 -4.05759 -1.75533 0
M  V30 812 N 78.3393 -0.321999 -1.54275 0
M  V30 813 C 79.5883 0.281931 -1.9972 0
M  V30 814 C 79.9013 1.53369 -1.21397 0
M  V30 815 O 81.1073 2.21352 -1.57211 0
M  V30 816 C 79.5633 0.5529 -3.55628 0
M  V30 817 C 79.1713 -0.681721 -4.42783 0
M  V30 818 C 80.9153 1.11687 -4.09544 0
M  V30 819 C 78.8223 -0.382742 -5.9016 0
M  V30 820 H 77.7523 0.109124 -0.746062 0
M  V30 821 H 80.4033 -0.43398 -1.78294 0
M  V30 822 H 78.7853 1.32896 -3.73035 0
M  V30 823 H 79.9593 -1.45723 -4.37151 0
M  V30 824 H 78.2743 -1.1658 -3.99748 0
M  V30 825 H 80.8713 1.35515 -5.17242 0
M  V30 826 H 81.2143 2.06575 -3.61431 0
M  V30 827 H 81.7473 0.402032 -3.95763 0
M  V30 828 H 78.4863 -1.30076 -6.42464 0
M  V30 829 H 78.0063 0.355094 -5.98748 0
M  V30 830 H 79.6853 0.00800157 -6.47 0
M  V30 831 N 79.8174 1.5752 -0.0501392 0
M  V30 832 C 81.0944 1.83996 0.663685 0
M  V30 833 C 81.4744 0.938339 1.89099 0
M  V30 834 O 80.8224 -0.00087759 2.285 0
M  V30 835 C 81.0324 3.33702 1.02196 0
M  V30 836 C 82.3804 4.00691 1.40469 0
M  V30 837 O 83.4044 3.38321 1.11433 0
M  V30 838 O 82.2634 5.10658 1.94654 0
M  V30 839 H 79.3574 0.759385 0.32751 0
M  V30 840 H 81.9034 1.69514 -0.0794238 0
M  V30 841 H 80.6754 3.91015 0.149364 0
M  V30 842 H 80.2984 3.53368 1.82255 0
M  V30 843 N 81.2955 -0.223234 1.56011 0
M  V30 844 C 82.5205 -0.968978 1.83373 0
M  V30 845 C 82.9455 -1.77227 0.630254 0
M  V30 846 O 82.3035 -1.76345 -0.420959 0
M  V30 847 C 82.3515 -1.86363 3.08709 0
M  V30 848 O 81.4555 -2.95873 2.87285 0
M  V30 849 H 80.7965 -0.274461 0.604622 0
M  V30 850 H 83.3265 -0.237056 2.03222 0
M  V30 851 H 83.3365 -2.27376 3.38768 0
M  V30 852 H 82.0115 -1.27319 3.95933 0
M  V30 853 H 80.5885 -2.58818 2.68454 0
M  V30 854 N 82.7736 -1.49793 -0.48987 0
M  V30 855 C 83.7206 -1.67281 -1.59014 0
M  V30 856 C 84.6906 -0.514177 -1.57941 0
M  V30 857 O 85.8756 -0.742533 -1.75759 0
M  V30 858 C 83.0156 -1.75569 -2.97102 0
M  V30 859 C 82.1286 -3.0281 -3.08107 0
M  V30 860 C 81.2636 -3.02008 -4.36995 0
M  V30 861 C 80.3026 -4.23782 -4.41673 0
M  V30 862 N 79.4396 -4.20826 -5.62005 0
M  V30 863 H 84.2796 -2.61224 -1.43409 0
M  V30 864 H 81.8166 -1.29508 -0.697565 0
M  V30 865 H 83.7746 -1.78354 -3.77155 0
M  V30 866 H 82.4046 -0.850827 -3.11385 0
M  V30 867 H 81.4566 -3.09584 -2.21047 0
M  V30 868 H 82.7686 -3.92801 -3.07423 0
M  V30 869 H 81.9226 -3.03418 -5.25378 0
M  V30 870 H 80.6616 -2.09815 -4.4026 0
M  V30 871 H 79.6666 -4.22604 -3.5169 0
M  V30 872 H 80.8916 -5.17181 -4.40115 0
M  V30 873 H 78.8376 -3.31476 -5.66091 0
M  V30 874 H 78.7546 -5.04564 -5.62984 0
M  V30 875 H 80.0226 -4.26355 -6.52565 0
M  V30 876 N 84.2517 0.741722 -1.39055 0
M  V30 877 C 85.4987 1.50114 -1.35912 0
M  V30 878 C 85.8267 1.94443 0.0470937 0
M  V30 879 O 85.0817 1.66612 1.02659 0
M  V30 880 C 85.3807 2.7592 -2.27163 0
M  V30 881 C 85.0467 2.50493 -3.74919 0
M  V30 882 C 83.7087 2.43267 -4.1518 0
M  V30 883 C 86.0607 2.28585 -4.684 0
M  V30 884 C 83.3887 2.12166 -5.46994 0
M  V30 885 C 85.7407 1.99002 -6.00484 0
M  V30 886 C 84.4047 1.90241 -6.39816 0
M  V30 887 H 83.6747 0.549306 -0.497336 0
M  V30 888 H 86.3217 0.851896 -1.71508 0
M  V30 889 H 84.6267 3.45553 -1.84663 0
M  V30 890 H 86.3237 3.33923 -2.22028 0
M  V30 891 H 82.9137 2.56992 -3.43006 0
M  V30 892 H 87.0977 2.33139 -4.38132 0
M  V30 893 H 82.3537 2.03901 -5.76398 0
M  V30 894 H 86.5277 1.81057 -6.72452 0
M  V30 895 H 84.1547 1.65907 -7.41875 0
M  V30 896 N 85.7298 1.2412 0.971189 0
M  V30 897 C 86.6398 1.04747 2.09917 0
M  V30 898 C 87.6558 -0.0107162 1.73997 0
M  V30 899 O 88.8318 0.186714 2.00533 0
M  V30 900 C 85.8968 0.650828 3.40537 0
M  V30 901 C 84.9578 1.7851 3.90426 0
M  V30 902 C 84.1908 1.40729 5.14812 0
M  V30 903 O 84.4138 0.29557 5.69634 0
M  V30 904 O 83.3478 2.23168 5.58999 0
M  V30 905 H 87.1738 1.99304 2.29154 0
M  V30 906 H 84.7588 1.02908 1.08307 0
M  V30 907 H 86.6408 0.440992 4.19086 0
M  V30 908 H 85.3158 -0.265649 3.22608 0
M  V30 909 H 84.2228 2.04966 3.12953 0
M  V30 910 H 85.5558 2.68023 4.12825 0
M  V30 911 N 87.2079 -1.17134 1.05439 0
M  V30 912 C 88.4559 -1.87085 0.764429 0
M  V30 913 C 88.7769 -1.81584 -0.710787 0
M  V30 914 O 88.0469 -1.24349 -1.51374 0
M  V30 915 H 86.6269 -0.692627 0.279779 0
M  V30 916 H 89.2889 -1.42087 1.33406 0
M  V30 917 H 88.3849 -2.92759 1.0816 0
M  V30 918 N 88.686 -0.835752 -1.33615 0
M  V30 919 C 89.616 -0.281739 -2.31794 0
M  V30 920 C 90.597 0.608833 -1.58831 0
M  V30 921 O 91.782 0.533035 -1.86741 0
M  V30 922 C 88.912 0.546612 -3.42971 0
M  V30 923 C 87.866 -0.247904 -4.27281 0
M  V30 924 C 87.192 0.704001 -5.30045 0
M  V30 925 C 88.492 -1.46324 -5.01385 0
M  V30 926 H 90.186 -1.10206 -2.78379 0
M  V30 927 H 87.732 -0.531388 -1.33837 0
M  V30 928 H 89.685 0.944467 -4.1068 0
M  V30 929 H 88.409 1.40011 -2.95067 0
M  V30 930 H 87.068 -0.627281 -3.61194 0
M  V30 931 H 86.716 1.55381 -4.78399 0
M  V30 932 H 86.416 0.176524 -5.87335 0
M  V30 933 H 87.94 1.09944 -6.0062 0
M  V30 934 H 89.354 -1.13871 -5.61877 0
M  V30 935 H 87.751 -1.92728 -5.6831 0
M  V30 936 H 88.821 -2.23467 -4.30338 0
M  V30 937 N 90.1641 1.46063 -0.591896 0
M  V30 938 C 91.1271 2.28854 0.125973 0
M  V30 939 C 92.1271 1.38903 0.810107 0
M  V30 940 O 93.3171 1.61186 0.66066 0
M  V30 941 C 90.4491 3.19526 1.1881 0
M  V30 942 H 91.6421 2.93802 -0.601717 0
M  V30 943 H 89.1951 1.52325 -0.350254 0
M  V30 944 H 89.9301 2.59345 1.94707 0
M  V30 945 H 89.7151 3.85766 0.701936 0
M  V30 946 H 91.2051 3.81817 1.69132 0
M  V30 947 N 91.6422 0.330177 1.54103 0
M  V30 948 C 92.8892 -0.270405 2.00686 0
M  V30 949 C 93.2172 -1.51621 1.21825 0
M  V30 950 O 92.4722 -1.93536 0.29025 0
M  V30 951 C 92.7712 -0.643134 3.51566 0
M  V30 952 C 92.4372 0.504251 4.48072 0
M  V30 953 C 91.0992 0.819163 4.74176 0
M  V30 954 C 93.4512 1.27465 5.05373 0
M  V30 955 C 90.7792 1.90708 5.5484 0
M  V30 956 C 93.1312 2.35271 5.87223 0
M  V30 957 C 91.7952 2.67336 6.11627 0
M  V30 958 H 91.0652 -0.0989482 0.734364 0
M  V30 959 H 93.7122 0.455324 1.86008 0
M  V30 960 H 92.0172 -1.44938 3.64006 0
M  V30 961 H 93.7142 -1.11949 3.85056 0
M  V30 962 H 90.3042 0.248733 4.27878 0
M  V30 963 H 94.4882 1.04462 4.85182 0
M  V30 964 H 89.7442 2.15991 5.71977 0
M  V30 965 H 93.9182 2.95405 6.30641 0
M  V30 966 H 91.5452 3.51763 6.73919 0
M  V30 967 N 93.1203 -1.57491 0.0584922 0
M  V30 968 C 94.5313 -1.80526 -0.476138 0
M  V30 969 C 94.8823 -0.971334 -1.70469 0
M  V30 970 O 94.0073 -0.190012 -2.15564 0
M  V30 971 C 94.6023 -3.27424 -0.870587 0
M  V30 972 C 93.1613 -3.51351 -1.35015 0
M  V30 973 C 92.3083 -2.75343 -0.32887 0
M  V30 974 H 95.2593 -1.56133 0.284312 0
M  V30 975 H 95.2803 -3.38745 -1.73299 0
M  V30 976 H 94.7923 -3.88093 0.0237627 0
M  V30 977 H 92.8933 -2.95971 -2.26345 0
M  V30 978 H 93.0063 -4.60059 -1.33726 0
M  V30 979 H 91.3703 -2.417 -0.803321 0
M  V30 980 H 92.1533 -3.38743 0.557521 0
M  V30 981 N 94.5984 0.214957 -1.56127 0
M  V30 982 C 95.8444 0.939762 -1.79712 0
M  V30 983 C 96.1774 1.83723 -0.629247 0
M  V30 984 O 95.4524 1.90925 0.371197 0
M  V30 985 C 95.7354 1.77306 -3.13424 0
M  V30 986 C 95.5884 0.90164 -4.40671 0
M  V30 987 C 96.9074 2.74956 -3.43638 0
M  V30 988 H 94.0264 0.340214 -0.653776 0
M  V30 989 H 96.6684 0.20824 -1.88855 0
M  V30 990 H 94.8184 2.39673 -3.0576 0
M  V30 991 H 96.4904 0.294206 -4.60361 0
M  V30 992 H 94.7334 0.207368 -4.33304 0
M  V30 993 H 95.4044 1.51923 -5.30682 0
M  V30 994 H 97.8804 2.22724 -3.51473 0
M  V30 995 H 96.7564 3.30358 -4.38355 0
M  V30 996 H 97.0174 3.53023 -2.66134 0
M  V30 997 N 96.0765 1.50051 0.48192 0
M  V30 998 C 97.3255 1.59741 1.23149 0
M  V30 999 C 97.6385 0.298163 1.93314 0
M  V30 1000 O 98.8445 0.273835 2.70116 0
M  V30 1001 C 97.3005 2.81926 2.23708 0
M  V30 1002 C 96.9085 4.18685 1.59396 0
M  V30 1003 C 98.6525 3.00956 2.99375 0
M  V30 1004 C 96.5595 5.3207 2.58178 0
M  V30 1005 H 95.4895 0.594838 0.46334 0
M  V30 1006 H 98.1405 1.76467 0.503169 0
M  V30 1007 H 96.5225 2.58736 2.99786 0
M  V30 1008 H 97.6965 4.52088 0.891811 0
M  V30 1009 H 96.0115 4.05171 0.960503 0
M  V30 1010 H 98.6085 3.82836 3.73283 0
M  V30 1011 H 98.9515 2.12258 3.58123 0
M  V30 1012 H 99.4845 3.24277 2.30411 0
M  V30 1013 H 96.2235 6.22888 2.04184 0
M  V30 1014 H 95.7435 5.03098 3.26577 0
M  V30 1015 H 97.4225 5.62196 3.20225 0
M  V30 1016 N 97.5546 -0.734337 1.39446 0
M  V30 1017 C 98.8006 -1.49613 1.36908 0
M  V30 1018 C 99.1336 -1.94169 -0.0347829 0
M  V30 1019 O 98.4086 -1.66833 -0.999847 0
M  V30 1020 C 98.6916 -2.73534 2.34203 0
M  V30 1021 C 98.5446 -2.34993 3.83534 0
M  V30 1022 C 99.8636 -3.75635 2.29317 0
M  V30 1023 H 96.9826 -0.542714 0.498629 0
M  V30 1024 H 99.6246 -0.839597 1.70443 0
M  V30 1025 H 97.7746 -3.29553 2.05736 0
M  V30 1026 H 99.4466 -1.84601 4.22753 0
M  V30 1027 H 97.6896 -1.67213 4.00278 0
M  V30 1028 H 98.3606 -3.23738 4.47099 0
M  V30 1029 H 100.837 -3.29203 2.54489 0
M  V30 1030 H 99.7126 -4.60008 2.99472 0
M  V30 1031 H 99.9736 -4.22603 1.29842 0
M  V30 1032 N 99.0327 -1.24633 -0.964593 0
M  V30 1033 C 100.281 -1.08573 -1.70459 0
M  V30 1034 C 100.602 0.375655 -1.91347 0
M  V30 1035 O 99.8717 1.26779 -1.49345 0
M  V30 1036 H 98.4517 -0.398784 -0.631649 0
M  V30 1037 H 101.114 -1.56601 -1.16026 0
M  V30 1038 H 100.21 -1.58623 -2.68785 0
M  V30 1039 N 100.511 1.16574 -1.06058 0
M  V30 1040 C 101.461 2.18854 -0.63929 0
M  V30 1041 C 102.445 1.57505 0.328798 0
M  V30 1042 O 103.637 1.76408 0.144623 0
M  V30 1043 C 100.766 3.43291 -0.0247203 0
M  V30 1044 C 99.8518 4.11722 -1.01716 0
M  V30 1045 N 100.243 4.55841 -2.19186 0
M  V30 1046 C 98.5408 4.37872 -0.847569 0
M  V30 1047 C 99.2418 5.08751 -2.82042 0
M  V30 1048 N 98.2178 5.01489 -2.09784 0
M  V30 1049 H 102.02 2.5068 -1.53417 0
M  V30 1050 H 99.5338 1.32999 -0.931935 0
M  V30 1051 H 101.531 4.15856 0.294915 0
M  V30 1052 H 100.191 3.12954 0.865448 0
M  V30 1053 H 101.202 4.49649 -2.56975 0
M  V30 1054 H 97.8788 4.17499 -0.00918848 0
M  V30 1055 H 99.2688 5.52944 -3.81709 0
M  V30 1056 N 101.989 0.842826 1.3317 0
M  V30 1057 C 102.899 0.281444 2.32906 0
M  V30 1058 C 103.915 -0.594587 1.63526 0
M  V30 1059 O 105.091 -0.49777 1.95152 0
M  V30 1060 C 102.156 -0.530929 3.42611 0
M  V30 1061 C 101.217 0.369843 4.27704 0
M  V30 1062 C 100.45 -0.403853 5.3217 0
M  V30 1063 O 100.673 -1.63513 5.46461 0
M  V30 1064 O 99.6069 0.224199 6.01482 0
M  V30 1065 H 103.433 1.10744 2.82789 0
M  V30 1066 H 101.018 0.60545 1.36582 0
M  V30 1067 H 102.9 -0.992437 4.09547 0
M  V30 1068 H 101.575 -1.33392 2.94938 0
M  V30 1069 H 100.482 0.879275 3.6362 0
M  V30 1070 H 101.815 1.13771 4.78871 0
M  V30 1071 N 103.467 -1.45747 0.599634 0
M  V30 1072 C 104.43 -2.28917 -0.113835 0
M  V30 1073 C 105.43 -1.3933 -0.802729 0
M  V30 1074 O 106.62 -1.61534 -0.652103 0
M  V30 1075 C 103.752 -3.20152 -1.17114 0
M  V30 1076 H 104.945 -2.93478 0.617289 0
M  V30 1077 H 102.498 -1.52137 0.358327 0
M  V30 1078 H 103.233 -2.60374 -1.93329 0
M  V30 1079 H 103.018 -3.86133 -0.681468 0
M  V30 1080 H 104.508 -3.82708 -1.67105 0
M  V30 1081 N 104.945 -0.338344 -1.53925 0
M  V30 1082 C 105.908 0.508299 -2.23493 0
M  V30 1083 C 106.908 1.03175 -1.23335 0
M  V30 1084 O 108.098 0.921826 -1.47811 0
M  V30 1085 C 105.23 1.70754 -2.95052 0
M  V30 1086 H 106.423 -0.100058 -2.99733 0
M  V30 1087 H 103.976 -0.0896198 -1.56043 0
M  V30 1088 H 104.711 2.35474 -2.22986 0
M  V30 1089 H 104.496 1.33946 -3.68512 0
M  V30 1090 H 105.986 2.30818 -3.48013 0
M  V30 1091 N 106.423 1.57458 -0.0668435 0
M  V30 1092 C 107.671 1.92919 0.602214 0
M  V30 1093 C 107.992 0.947215 1.70449 0
M  V30 1094 O 107.262 -0.00544117 1.95899 0
M  V30 1095 H 105.842 0.71217 0.22544 0
M  V30 1096 H 108.504 1.94508 -0.123535 0
M  V30 1097 H 107.6 2.94589 1.03073 0
M  V30 1098 N 107.901 -0.206675 1.56239 0
M  V30 1099 C 109.15 -0.926964 1.79138 0
M  V30 1100 C 109.463 -1.84901 0.638043 0
M  V30 1101 O 110.669 -2.60906 0.751033 0
M  V30 1102 C 109.125 -1.6986 3.17294 0
M  V30 1103 C 108.733 -0.821956 4.40395 0
M  V30 1104 C 110.477 -2.40922 3.4951 0
M  V30 1105 C 108.384 -1.59179 5.69575 0
M  V30 1106 H 107.314 -0.349864 0.667915 0
M  V30 1107 H 109.965 -0.180487 1.8261 0
M  V30 1108 H 108.347 -2.48853 3.08039 0
M  V30 1109 H 109.521 -0.0715019 4.60745 0
M  V30 1110 H 107.836 -0.222741 4.15804 0
M  V30 1111 H 110.433 -2.99047 4.43255 0
M  V30 1112 H 110.776 -3.14542 2.72707 0
M  V30 1113 H 111.309 -1.68905 3.60161 0
M  V30 1114 H 108.048 -0.898589 6.49312 0
M  V30 1115 H 107.568 -2.31648 5.53262 0
M  V30 1116 H 109.247 -2.14862 6.10281 0
M  V30 1117 N 109.379 -1.50304 -0.473955 0
M  V30 1118 C 110.625 -1.61389 -1.22806 0
M  V30 1119 C 110.958 -0.311955 -1.91678 0
M  V30 1120 O 110.233 0.686384 -1.81986 0
M  V30 1121 C 110.516 -2.79219 -2.27396 0
M  V30 1122 C 110.369 -4.19286 -1.62848 0
M  V30 1123 C 111.688 -2.92614 -3.28732 0
M  V30 1124 H 108.807 -0.587399 -0.445119 0
M  V30 1125 H 111.449 -1.82681 -0.522265 0
M  V30 1126 H 109.599 -2.61195 -2.87592 0
M  V30 1127 H 111.271 -4.48892 -1.06271 0
M  V30 1128 H 109.514 -4.23677 -0.931693 0
M  V30 1129 H 110.185 -4.97655 -2.38838 0
M  V30 1130 H 112.661 -3.09105 -2.78556 0
M  V30 1131 H 111.537 -3.76688 -3.99246 0
M  V30 1132 H 111.798 -2.03107 -3.92683 0
M  V30 1133 N 110.857 0.726932 -1.39834 0
M  V30 1134 C 111.767 1.87131 -1.41489 0
M  V30 1135 C 112.783 1.71239 -0.308757 0
M  V30 1136 O 113.959 1.93701 -0.551529 0
M  V30 1137 C 111.024 3.22811 -1.26468 0
M  V30 1138 C 110.085 3.51039 -2.47124 0
M  V30 1139 C 109.318 4.80245 -2.3281 0
M  V30 1140 O 109.541 5.54537 -1.33585 0
M  V30 1141 O 108.475 5.08554 -3.21957 0
M  V30 1142 H 112.301 1.8869 -2.3797 0
M  V30 1143 H 109.886 0.875837 -1.21035 0
M  V30 1144 H 111.768 4.03877 -1.20255 0
M  V30 1145 H 110.443 3.22005 -0.330862 0
M  V30 1146 H 109.35 2.70027 -2.58914 0
M  V30 1147 H 110.683 3.56632 -3.39227 0
M  V30 1148 N 112.336 1.25143 0.95797 0
M  V30 1149 C 113.561 1.12521 1.74223 0
M  V30 1150 C 113.986 -0.317402 1.85403 0
M  V30 1151 O 113.344 -1.2299 1.33204 0
M  V30 1152 C 113.392 1.78062 3.1357 0
M  V30 1153 O 112.496 1.058 3.98598 0
M  V30 1154 H 111.837 0.39304 0.535178 0
M  V30 1155 H 114.367 1.65641 1.201 0
M  V30 1156 H 114.377 1.84213 3.64046 0
M  V30 1157 H 113.052 2.83021 3.04749 0
M  V30 1158 H 111.629 1.07506 3.57067 0
M  V30 1159 N 113.814 -1.1601 1.06675 0
M  V30 1160 C 115.063 -1.85973 0.780818 0
M  V30 1161 C 115.376 -1.82819 -0.695444 0
M  V30 1162 O 116.582 -2.484 -1.09589 0
M  V30 1163 C 115.038 -3.33757 1.34665 0
M  V30 1164 C 114.646 -3.45374 2.85343 0
M  V30 1165 C 116.39 -4.0895 1.13843 0
M  V30 1166 C 114.297 -4.87266 3.35151 0
M  V30 1167 H 113.227 -0.696661 0.288407 0
M  V30 1168 H 115.878 -1.30903 1.28595 0
M  V30 1169 H 114.26 -3.88456 0.769274 0
M  V30 1170 H 115.434 -3.00816 3.49065 0
M  V30 1171 H 113.749 -2.83619 3.04876 0
M  V30 1172 H 116.346 -5.13654 1.4854 0
M  V30 1173 H 116.689 -4.16229 0.0770282 0
M  V30 1174 H 117.222 -3.605 1.68179 0
M  V30 1175 H 113.961 -4.85168 4.40786 0
M  V30 1176 H 113.481 -5.32433 2.76179 0
M  V30 1177 H 115.16 -5.56097 3.30704 0
M  V30 1178 N 115.292 -0.849877 -1.32721 0
M  V30 1179 C 116.54 -0.450032 -1.97026 0
M  V30 1180 C 116.861 0.996604 -1.67609 0
M  V30 1181 O 116.131 1.6958 -0.980786 0
M  V30 1182 H 114.711 -0.163426 -0.728904 0
M  V30 1183 H 117.373 -1.08526 -1.6189 0
M  V30 1184 H 116.469 -0.591146 -3.0645 0
M  V30 1185 N 116.77 1.45427 -0.607355 0
M  V30 1186 C 118.181 1.85756 -0.187535 0
M  V30 1187 C 118.532 1.5077 1.25551 0
M  V30 1188 O 117.657 0.93427 1.95193 0
M  V30 1189 C 118.252 3.37154 -0.333572 0
M  V30 1190 C 116.811 3.76387 0.0315542 0
M  V30 1191 C 115.958 2.69377 -0.658117 0
M  V30 1192 H 118.909 1.36231 -0.81405 0
M  V30 1193 H 118.93 3.78014 0.43428 0
M  V30 1194 H 118.442 3.62586 -1.38393 0
M  V30 1195 H 116.543 3.56571 1.0811 0
M  V30 1196 H 116.656 4.77731 -0.361935 0
M  V30 1197 H 115.02 2.5452 -0.0957873 0
M  V30 1198 H 115.803 2.97646 -1.7106 0
M  V30 1199 N 118.248 0.346503 1.53744 0
M  V30 1200 C 119.496 -0.248612 2.00565 0
M  V30 1201 C 119.817 -1.5083 1.23593 0
M  V30 1202 O 119.087 -1.92858 0.343912 0
M  V30 1203 H 117.667 -0.0948564 0.740953 0
M  V30 1204 H 120.329 0.468341 1.89189 0
M  V30 1205 H 119.425 -0.488994 3.08245 0
M  V30 1206 N 119.726 -1.57421 0.075193 0
M  V30 1207 C 120.972 -1.93905 -0.594025 0
M  V30 1208 C 121.305 -0.955701 -1.69056 0
M  V30 1209 O 120.58 0.0145373 -1.94495 0
M  V30 1210 C 120.863 -3.40638 -1.1678 0
M  V30 1211 C 120.716 -4.49733 -0.0776792 0
M  V30 1212 C 122.035 -3.88259 -2.07228 0
M  V30 1213 H 119.154 -0.705105 -0.214466 0
M  V30 1214 H 121.796 -1.8947 0.141854 0
M  V30 1215 H 119.946 -3.44549 -1.79494 0
M  V30 1216 H 121.618 -4.57942 0.555573 0
M  V30 1217 H 119.861 -4.29751 0.591286 0
M  V30 1218 H 120.532 -5.49549 -0.519603 0
M  V30 1219 H 123.008 -3.86376 -1.54445 0
M  V30 1220 H 121.884 -4.91533 -2.44308 0
M  V30 1221 H 122.145 -3.26396 -2.98191 0
M  V30 1222 N 121.204 0.198386 -1.56346 0
M  V30 1223 C 122.432 0.935572 -1.84539 0
M  V30 1224 C 122.847 1.76989 -0.657281 0
M  V30 1225 O 122.204 1.78626 0.374043 0
M  V30 1226 C 122.255 1.8344 -3.11499 0
M  V30 1227 O 121.976 1.03377 -4.25728 0
M  V30 1228 C 123.477 2.68355 -3.52846 0
M  V30 1229 H 120.697 0.273126 -0.612897 0
M  V30 1230 H 123.241 0.20663 -2.03453 0
M  V30 1231 H 121.396 2.51701 -2.94492 0
M  V30 1232 H 121.81 1.64599 -4.98003 0
M  V30 1233 H 123.284 3.27085 -4.44657 0
M  V30 1234 H 123.761 3.41901 -2.75681 0
M  V30 1235 H 124.367 2.05471 -3.72373 0
M  V30 1236 N 122.682 1.50554 0.465978 0
M  V30 1237 C 123.63 1.70324 1.58406 0
M  V30 1238 C 124.624 0.569139 1.59553 0
M  V30 1239 O 125.83 0.749776 1.63641 0
M  V30 1240 H 122.205 0.537688 0.525734 0
M  V30 1241 H 124.176 2.64104 1.38894 0
M  V30 1242 C 122.925 1.81928 2.96307 0
M  V30 1243 H 122.248 2.68586 2.96144 0
M  V30 1244 H 123.688 1.99784 3.73982 0
M  V30 1245 C 122.147 0.572095 3.32007 0
M  V30 1246 O 122.677 -0.286416 4.00678 0
M  V30 1247 N 120.883 0.424606 2.87481 0
M  V30 1248 H 120.43 1.12427 2.31771 0
M  V30 1249 H 120.388 -0.408697 3.11732 0
M  V30 1250 N 124.16 -0.719506 1.40217 0
M  V30 1251 C 125.406 -1.48152 1.38488 0
M  V30 1252 C 125.739 -1.94195 -0.0141867 0
M  V30 1253 O 125.014 -1.67884 -0.982096 0
M  V30 1254 C 125.297 -2.71035 2.37091 0
M  V30 1255 C 125.15 -2.30912 3.86005 0
M  V30 1256 C 126.469 -3.73182 2.33288 0
M  V30 1257 H 123.588 -0.537395 0.504357 0
M  V30 1258 H 126.23 -0.821472 1.71324 0
M  V30 1259 H 124.38 -3.27352 2.0922 0
M  V30 1260 H 126.052 -1.80107 4.24687 0
M  V30 1261 H 124.295 -1.62958 4.02029 0
M  V30 1262 H 124.966 -3.18978 4.50508 0
M  V30 1263 H 127.442 -3.26485 2.57966 0
M  V30 1264 H 126.318 -4.56806 3.04334 0
M  V30 1265 H 126.579 -4.21202 1.34317 0
M  V30 1266 N 125.638 -1.25649 -0.95132 0
M  V30 1267 C 126.585 -1.06323 -2.04851 0
M  V30 1268 C 127.555 0.0286491 -1.66075 0
M  V30 1269 O 128.74 -0.12917 -1.90362 0
M  V30 1270 C 125.88 -0.691529 -3.381 0
M  V30 1271 C 124.993 -1.85861 -3.89974 0
M  V30 1272 C 124.128 -1.43096 -5.11563 0
M  V30 1273 C 123.167 -2.56696 -5.55674 0
M  V30 1274 N 122.304 -2.14684 -6.68472 0
M  V30 1275 H 127.144 -2.00222 -2.20715 0
M  V30 1276 H 124.681 -0.997027 -1.08156 0
M  V30 1277 H 126.639 -0.456963 -4.1469 0
M  V30 1278 H 125.269 0.210474 -3.22113 0
M  V30 1279 H 124.321 -2.20639 -3.09875 0
M  V30 1280 H 125.633 -2.71161 -4.18657 0
M  V30 1281 H 124.787 -1.15624 -5.9558 0
M  V30 1282 H 123.526 -0.548722 -4.84603 0
M  V30 1283 H 122.531 -2.84909 -4.7022 0
M  V30 1284 H 123.756 -3.45503 -5.8464 0
M  V30 1285 H 121.702 -1.28881 -6.43215 0
M  V30 1286 H 121.619 -2.9353 -6.96689 0
M  V30 1287 H 122.887 -1.90397 -7.5589 0
M  V30 1288 N 127.117 1.15442 -1.07289 0
M  V30 1289 C 128.528 1.67803 -0.818475 0
M  V30 1290 C 128.879 1.8489 0.656507 0
M  V30 1291 O 128.004 1.55176 1.50829 0
M  V30 1292 C 128.599 3.04805 -1.47917 0
M  V30 1293 C 127.158 3.54245 -1.27229 0
M  V30 1294 C 126.305 2.29986 -1.54925 0
M  V30 1295 H 129.256 0.996646 -1.23502 0
M  V30 1296 H 129.277 3.69702 -0.90005 0
M  V30 1297 H 128.789 2.92336 -2.55267 0
M  V30 1298 H 126.89 3.71956 -0.21899 0
M  V30 1299 H 127.003 4.35723 -1.99203 0
M  V30 1300 H 125.367 2.35496 -0.970242 0
M  V30 1301 H 126.15 2.20105 -2.63455 0
M  V30 1302 N 128.595 0.856903 1.32268 0
M  V30 1303 C 129.843 0.460474 1.96784 0
M  V30 1304 C 130.164 -0.987701 1.68135 0
M  V30 1305 O 129.434 -1.69058 0.989765 0
M  V30 1306 H 128.014 0.167289 0.728027 0
M  V30 1307 H 130.676 1.09383 1.61312 0
M  V30 1308 H 129.772 0.60739 3.06133 0
M  V30 1309 N 130.073 -1.45103 0.615059 0
M  V30 1310 C 131.35 -1.95549 0.0448276 0
M  V30 1311 C 131.73 -1.55737 -1.4251 0
M  V30 1312 O 131.078 -0.823556 -2.13143 0
M  V30 1313 C 131.288 -3.48098 0.250785 0
M  V30 1314 C 132.636 -4.24384 0.135509 0
M  V30 1315 O 133.66 -3.55738 0.181299 0
M  V30 1316 O 132.519 -5.46493 0.0268878 0
M  V30 1317 H 129.613 -0.8264 -0.0314845 0
M  V30 1318 H 132.159 -1.55232 0.685642 0
M  V30 1319 H 130.931 -3.7007 1.27139 0
M  V30 1320 H 130.554 -3.95323 -0.424937 0
M  V30 1321 N 131.551 -0.354651 -1.53558 0
M  V30 1322 C 132.498 0.496968 -2.25386 0
M  V30 1323 C 133.468 1.0865 -1.25636 0
M  V30 1324 O 134.653 1.12104 -1.54394 0
M  V30 1325 C 131.793 1.63637 -3.03837 0
M  V30 1326 C 130.906 1.07307 -4.18461 0
M  V30 1327 C 130.041 2.18068 -4.84376 0
M  V30 1328 C 129.08 1.59147 -5.91049 0
M  V30 1329 N 128.217 2.63695 -6.50699 0
M  V30 1330 H 133.057 -0.122075 -2.9775 0
M  V30 1331 H 130.594 -0.0720154 -1.46924 0
M  V30 1332 H 132.552 2.30734 -3.47589 0
M  V30 1333 H 131.182 2.22623 -2.33749 0
M  V30 1334 H 130.234 0.292708 -3.79272 0
M  V30 1335 H 131.546 0.602193 -4.95152 0
M  V30 1336 H 130.7 2.93007 -5.31255 0
M  V30 1337 H 129.439 2.68504 -4.07133 0
M  V30 1338 H 128.444 0.827175 -5.43542 0
M  V30 1339 H 129.669 1.09549 -6.70206 0
M  V30 1340 H 127.615 3.13365 -5.76315 0
M  V30 1341 H 127.532 2.21263 -7.22896 0
M  V30 1342 H 128.8 3.3837 -7.02229 0
M  V30 1343 N 133.029 1.57378 -0.0835403 0
M  V30 1344 C 134.275 1.94217 0.583733 0
M  V30 1345 C 134.608 0.964653 1.68547 0
M  V30 1346 O 133.883 -0.00422258 1.945 0
M  V30 1347 C 134.166 3.41253 1.14972 0
M  V30 1348 C 134.019 4.49768 0.0538277 0
M  V30 1349 C 135.338 3.89352 2.05166 0
M  V30 1350 H 132.457 0.706233 0.210724 0
M  V30 1351 H 135.099 1.89392 -0.1519 0
M  V30 1352 H 133.249 3.45496 1.77665 0
M  V30 1353 H 134.921 4.57641 -0.579851 0
M  V30 1354 H 133.164 4.29432 -0.614068 0
M  V30 1355 H 133.835 5.49817 0.490452 0
M  V30 1356 H 136.311 3.87189 1.52393 0
M  V30 1357 H 135.187 4.92822 2.41698 0
M  V30 1358 H 135.448 3.27973 2.96456 0
M  V30 1359 N 134.507 -0.190092 1.56449 0
M  V30 1360 C 135.756 -0.907912 1.80111 0
M  V30 1361 C 136.069 -1.84214 0.657619 0
M  V30 1362 O 137.275 -2.60094 0.778663 0
M  V30 1363 C 135.731 -1.66485 3.19078 0
M  V30 1364 C 135.339 -0.7752 4.41242 0
M  V30 1365 C 137.083 -2.37201 3.52045 0
M  V30 1366 C 134.99 -1.53129 5.71231 0
M  V30 1367 H 133.92 -0.34276 0.671589 0
M  V30 1368 H 136.571 -0.161109 1.82791 0
M  V30 1369 H 134.953 -2.45572 3.10661 0
M  V30 1370 H 136.127 -0.0226298 4.60794 0
M  V30 1371 H 134.442 -0.178627 4.16017 0
M  V30 1372 H 137.039 -2.94329 4.46402 0
M  V30 1373 H 137.382 -3.11632 2.76028 0
M  V30 1374 H 137.915 -1.65075 3.61932 0
M  V30 1375 H 134.654 -0.82967 6.50228 0
M  V30 1376 H 134.174 -2.25767 5.55688 0
M  V30 1377 H 135.853 -2.08377 6.12526 0
M  V30 1378 N 135.985 -1.50799 -0.457987 0
M  V30 1379 C 137.396 -1.55152 -1.0385 0
M  V30 1380 C 137.747 -0.362719 -1.92818 0
M  V30 1381 O 136.872 0.522915 -2.09987 0
M  V30 1382 C 137.467 -2.81173 -1.89017 0
M  V30 1383 C 136.026 -2.88164 -2.42154 0
M  V30 1384 C 135.173 -2.49591 -1.20829 0
M  V30 1385 H 138.124 -1.56874 -0.240068 0
M  V30 1386 H 138.145 -2.63769 -2.74238 0
M  V30 1387 H 137.657 -3.67677 -1.24238 0
M  V30 1388 H 135.758 -2.06042 -3.10447 0
M  V30 1389 H 135.871 -3.91356 -2.76364 0
M  V30 1390 H 134.235 -2.02322 -1.54719 0
M  V30 1391 H 135.018 -3.38418 -0.576927 0
M  V30 1392 N 137.463 0.71206 -1.40597 0
M  V30 1393 C 138.393 1.83889 -1.43899 0
M  V30 1394 C 139.374 1.67442 -0.299504 0
M  V30 1395 O 140.559 1.87421 -0.508624 0
M  V30 1396 C 137.689 3.21877 -1.30431 0
M  V30 1397 C 136.643 3.53002 -2.42019 0
M  V30 1398 C 135.969 4.90172 -2.13626 0
M  V30 1399 C 137.269 3.53643 -3.84362 0
M  V30 1400 H 138.963 1.81383 -2.38203 0
M  V30 1401 H 136.509 0.871237 -1.14654 0
M  V30 1402 H 138.462 4.00404 -1.31357 0
M  V30 1403 H 137.186 3.24968 -0.326049 0
M  V30 1404 H 135.845 2.76818 -2.40349 0
M  V30 1405 H 135.493 4.89869 -1.14182 0
M  V30 1406 H 135.193 5.11962 -2.88389 0
M  V30 1407 H 136.717 5.71028 -2.1624 0
M  V30 1408 H 138.131 4.22203 -3.87837 0
M  V30 1409 H 136.528 3.86961 -4.58673 0
M  V30 1410 H 137.598 2.52954 -4.13693 0
M  V30 1411 N 138.941 1.26152 0.944643 0
M  V30 1412 C 140.171 1.14094 1.72239 0
M  V30 1413 C 140.579 -0.306931 1.86694 0
M  V30 1414 O 139.922 -1.22222 1.3714 0
M  V30 1415 C 139.984 1.73316 3.14963 0
M  V30 1416 C 139.648 3.2239 3.23904 0
M  V30 1417 C 140.645 4.19252 3.07447 0
M  V30 1418 C 138.33 3.62788 3.47405 0
M  V30 1419 C 140.324 5.54491 3.14353 0
M  V30 1420 C 138.011 4.98162 3.53947 0
M  V30 1421 C 139.009 5.93823 3.37436 0
M  V30 1422 O 138.697 7.26732 3.43679 0
M  V30 1423 H 138.429 0.398292 0.546205 0
M  V30 1424 H 140.983 1.67201 1.19301 0
M  V30 1425 H 139.213 1.14667 3.69308 0
M  V30 1426 H 140.902 1.56214 3.74636 0
M  V30 1427 H 141.668 3.8938 2.8915 0
M  V30 1428 H 137.547 2.88816 3.59313 0
M  V30 1429 H 141.091 6.29137 3.01384 0
M  V30 1430 H 136.988 5.27695 3.71763 0
M  V30 1431 H 137.756 7.3496 3.60245 0
M  V30 1432 N 140.419 -1.14872 1.07899 0
M  V30 1433 C 141.382 -2.17986 0.708161 0
M  V30 1434 C 142.382 -1.58775 -0.25442 0
M  V30 1435 O 143.572 -1.74166 -0.034645 0
M  V30 1436 C 140.704 -3.40871 0.0446929 0
M  V30 1437 H 141.897 -2.52306 1.62116 0
M  V30 1438 H 139.45 -1.2943 0.876218 0
M  V30 1439 H 140.185 -3.12124 -0.880281 0
M  V30 1440 H 139.97 -3.8511 0.737091 0
M  V30 1441 H 141.46 -4.17121 -0.19991 0
M  V30 1442 N 141.898 -0.863906 -1.31812 0
M  V30 1443 C 143.309 -0.52522 -1.7916 0
M  V30 1444 C 143.66 0.957518 -1.71248 0
M  V30 1445 O 142.785 1.74734 -1.27659 0
M  V30 1446 C 143.38 -0.9466 -3.25307 0
M  V30 1447 C 141.939 -0.659668 -3.70574 0
M  V30 1448 C 141.086 -1.14126 -2.52726 0
M  V30 1449 H 144.037 -1.05022 -1.1898 0
M  V30 1450 H 144.058 -0.266766 -3.79564 0
M  V30 1451 H 143.57 -2.02579 -3.31034 0
M  V30 1452 H 141.671 0.408416 -3.70355 0
M  V30 1453 H 141.784 -1.23245 -4.62977 0
M  V30 1454 H 140.148 -0.561216 -2.4844 0
M  V30 1455 H 140.931 -2.22775 -2.61201 0
M  V30 1456 N 143.376 1.44774 -0.622745 0
M  V30 1457 C 144.306 2.33382 0.0741861 0
M  V30 1458 C 145.287 1.47719 0.843387 0
M  V30 1459 O 146.472 1.76458 0.810934 0
M  V30 1460 C 143.602 3.30663 1.06204 0
M  V30 1461 C 142.556 4.26079 0.405037 0
M  V30 1462 C 141.882 5.13165 1.5022 0
M  V30 1463 C 143.182 5.1781 -0.683414 0
M  V30 1464 H 144.876 2.91905 -0.665713 0
M  V30 1465 H 142.422 1.40363 -0.321587 0
M  V30 1466 H 144.375 3.9153 1.55827 0
M  V30 1467 H 143.099 2.70331 1.83272 0
M  V30 1468 H 141.758 3.66532 -0.0704683 0
M  V30 1469 H 141.406 4.49191 2.26355 0
M  V30 1470 H 141.106 5.77812 1.06803 0
M  V30 1471 H 142.63 5.76902 2.00041 0
M  V30 1472 H 144.044 5.72661 -0.270631 0
M  V30 1473 H 142.441 5.91015 -1.04023 0
M  V30 1474 H 143.511 4.59326 -1.55395 0
M  V30 1475 N 144.854 0.36279 1.53368 0
M  V30 1476 C 146.094 -0.227882 2.03126 0
M  V30 1477 C 146.458 -1.4622 1.24434 0
M  V30 1478 O 147.659 -2.12831 1.64184 0
M  V30 1479 C 145.93 -0.515427 3.53664 0
M  V30 1480 S 147.489 -1.08017 4.25297 0
M  V30 1481 H 144.307 -0.0665377 0.70788 0
M  V30 1482 H 146.909 0.50501 1.88865 0
M  V30 1483 H 145.613 0.390436 4.08539 0
M  V30 1484 H 145.144 -1.27747 3.72081 0
M  V30 1485 H 147.159 -2.36462 4.36234 0
M  V30 1486 N 146.332 -1.57332 0.0918853 0
M  V30 1487 C 147.748 -1.57389 -0.264766 0
M  V30 1488 C 147.948 -1.10281 -1.68643 0
M  V30 1489 O 147.004 -0.777801 -2.40222 0
M  V30 1490 C 148.317 -3.00648 -0.0561195 0
M  V30 1491 C 149.865 -3.12754 -0.124116 0
M  V30 1492 C 150.34 -4.57965 0.0564972 0
M  V30 1493 N 151.831 -4.632 0.00155611 0
M  V30 1494 C 152.566 -5.73281 0.116598 0
M  V30 1495 N 152.062 -6.92208 0.286294 0
M  V30 1496 N 153.855 -5.6207 0.0580973 0
M  V30 1497 H 146.006 -1.86262 1.02079 0
M  V30 1498 H 148.269 -0.859579 0.399786 0
M  V30 1499 H 147.975 -3.393 0.925669 0
M  V30 1500 H 147.849 -3.68623 -0.799823 0
M  V30 1501 H 150.236 -2.73976 -1.09641 0
M  V30 1502 H 150.317 -2.47377 0.651024 0
M  V30 1503 H 149.961 -4.97436 1.02564 0
M  V30 1504 H 149.891 -5.21399 -0.738297 0
M  V30 1505 H 152.382 -3.77686 -0.127192 0
M  V30 1506 H 152.695 -7.71934 0.365676 0
M  V30 1507 H 151.04 -6.94254 0.32192 0
M  V30 1508 H 154.231 -4.68043 -0.0733204 0
M  V30 1509 H 154.404 -6.47824 0.151203 0
M  V30 1510 N 147.81 0.181792 -1.56548 0
M  V30 1511 C 148.757 1.22521 -1.95595 0
M  V30 1512 C 149.727 1.4454 -0.818373 0
M  V30 1513 O 150.912 1.57454 -1.07763 0
M  V30 1514 C 148.052 2.56193 -2.31212 0
M  V30 1515 C 147.165 2.41641 -3.58097 0
M  V30 1516 C 146.3 3.68108 -3.82975 0
M  V30 1517 C 145.339 3.48445 -5.03242 0
M  V30 1518 N 144.476 4.66956 -5.24306 0
M  V30 1519 H 149.316 0.885226 -2.84548 0
M  V30 1520 H 146.853 0.425718 -1.40805 0
M  V30 1521 H 148.811 3.34088 -2.49882 0
M  V30 1522 H 147.441 2.88208 -1.45382 0
M  V30 1523 H 146.493 1.54976 -3.474 0
M  V30 1524 H 147.805 2.23052 -4.46149 0
M  V30 1525 H 146.959 4.54441 -4.01956 0
M  V30 1526 H 145.698 3.89666 -2.93278 0
M  V30 1527 H 144.703 2.60499 -4.8417 0
M  V30 1528 H 145.928 3.2832 -5.9446 0
M  V30 1529 H 143.874 4.88752 -4.37559 0
M  V30 1530 H 143.791 4.51242 -6.06561 0
M  V30 1531 H 145.059 5.54602 -5.47756 0
M  V30 1532 N 149.288 1.51039 0.449983 0
M  V30 1533 C 150.528 1.64732 1.21007 0
M  V30 1534 C 150.892 0.349865 1.88785 0
M  V30 1535 O 152.093 0.362431 2.66345 0
M  V30 1536 C 150.364 2.80902 2.20973 0
M  V30 1537 S 151.923 3.14851 3.05638 0
M  V30 1538 H 148.741 0.5805 0.410538 0
M  V30 1539 H 151.343 1.88901 0.503634 0
M  V30 1540 H 150.047 3.73627 1.69796 0
M  V30 1541 H 149.578 2.58882 2.96215 0
M  V30 1542 H 151.593 2.60306 4.22439 0
M  V30 1543 N 150.766 -0.704594 1.40972 0
M  V30 1544 C 151.713 -1.81862 1.42109 0
M  V30 1545 C 152.683 -1.63781 0.276593 0
M  V30 1546 O 153.868 -1.84759 0.4763 0
M  V30 1547 C 151.008 -3.19669 1.30022 0
M  V30 1548 C 150.121 -3.49246 2.54267 0
M  V30 1549 C 149.256 -4.76618 2.3454 0
M  V30 1550 C 148.295 -4.99133 3.54306 0
M  V30 1551 N 147.432 -6.17726 3.33706 0
M  V30 1552 H 152.272 -1.80226 2.37324 0
M  V30 1553 H 149.809 -0.880238 1.17857 0
M  V30 1554 H 151.767 -3.99263 1.21018 0
M  V30 1555 H 150.397 -3.20506 0.384192 0
M  V30 1556 H 149.449 -2.64125 2.73756 0
M  V30 1557 H 150.761 -3.61788 3.43381 0
M  V30 1558 H 149.915 -5.64249 2.22952 0
M  V30 1559 H 148.654 -4.66305 1.42867 0
M  V30 1560 H 147.659 -4.09953 3.66359 0
M  V30 1561 H 148.884 -5.11311 4.4692 0
M  V30 1562 H 146.83 -6.08642 2.44725 0
M  V30 1563 H 146.747 -6.30995 4.16391 0
M  V30 1564 H 148.015 -7.08115 3.25873 0
M  V30 1565 N 152.244 -1.26651 -0.937939 0
M  V30 1566 C 153.491 -1.12387 -1.6845 0
M  V30 1567 C 153.819 0.332208 -1.91642 0
M  V30 1568 O 153.074 1.2602 -1.49725 0
M  V30 1569 C 153.373 -1.84168 -3.06295 0
M  V30 1570 C 153.039 -3.34056 -3.02849 0
M  V30 1571 C 151.701 -3.74942 -3.01616 0
M  V30 1572 C 154.053 -4.29741 -2.9491 0
M  V30 1573 C 151.381 -5.09894 -2.90215 0
M  V30 1574 C 153.733 -5.64738 -2.8505 0
M  V30 1575 C 152.397 -6.0493 -2.82162 0
M  V30 1576 H 151.667 -0.411252 -0.616403 0
M  V30 1577 H 154.314 -1.57134 -1.09459 0
M  V30 1578 H 152.619 -1.319 -3.6893 0
M  V30 1579 H 154.316 -1.70569 -3.62915 0
M  V30 1580 H 150.906 -3.01534 -3.0459 0
M  V30 1581 H 155.09 -3.99133 -2.94969 0
M  V30 1582 H 150.346 -5.40194 -2.86358 0
M  V30 1583 H 154.52 -6.38561 -2.77872 0
M  V30 1584 H 152.147 -7.09457 -2.73084 0
M  V30 1585 N 153.722 1.14298 -1.08507 0
M  V30 1586 C 154.962 1.87016 -0.824894 0
M  V30 1587 C 155.326 1.81099 0.637735 0
M  V30 1588 O 156.527 2.48963 1.01345 0
M  V30 1589 C 154.798 3.31584 -1.33368 0
M  V30 1590 S 156.357 4.21903 -1.20596 0
M  V30 1591 H 153.175 0.645259 -0.2986 0
M  V30 1592 H 155.777 1.37822 -1.38656 0
M  V30 1593 H 154.481 3.33439 -2.39262 0
M  V30 1594 H 154.012 3.85836 -0.767734 0
M  V30 1595 H 156.027 4.95971 -0.150891 0
M  V30 1596 N 155.201 0.870884 1.31352 0
M  V30 1597 C 156.131 0.343096 2.30966 0
M  V30 1598 C 157.112 -0.566507 1.60389 0
M  V30 1599 O 158.297 -0.483336 1.88089 0
M  V30 1600 C 155.427 -0.455487 3.443 0
M  V30 1601 C 154.381 0.361103 4.26474 0
M  V30 1602 C 153.707 -0.563221 5.31725 0
M  V30 1603 C 155.007 1.59566 4.97329 0
M  V30 1604 H 156.701 1.17548 2.75359 0
M  V30 1605 H 154.247 0.566686 1.32381 0
M  V30 1606 H 156.2 -0.83525 4.13039 0
M  V30 1607 H 154.924 -1.32139 2.98675 0
M  V30 1608 H 153.583 0.722825 3.59403 0
M  V30 1609 H 153.231 -1.42643 4.82351 0
M  V30 1610 H 152.931 -0.0207409 5.87596 0
M  V30 1611 H 154.455 -0.939808 6.03324 0
M  V30 1612 H 155.869 1.28728 5.58661 0
M  V30 1613 H 154.266 2.07728 5.63 0
M  V30 1614 H 155.336 2.34798 4.24262 0
M  V30 1615 N 156.679 -1.44442 0.630414 0
M  V30 1616 C 157.904 -2.06927 0.139944 0
M  V30 1617 C 158.329 -1.46795 -1.17613 0
M  V30 1618 O 157.687 -0.569144 -1.72135 0
M  V30 1619 C 157.735 -3.6058 0.0379581 0
M  V30 1620 O 156.839 -3.99937 -1.0062 0
M  V30 1621 H 156.18 -0.658608 0.0844483 0
M  V30 1622 H 158.71 -1.85327 0.866891 0
M  V30 1623 H 158.72 -4.07714 -0.152856 0
M  V30 1624 H 157.395 -4.03728 0.998809 0
M  V30 1625 H 155.972 -3.64436 -0.79001 0
M  V30 1626 N 158.157 -0.370918 -1.53173 0
M  V30 1627 C 159.568 0.107139 -1.86392 0
M  V30 1628 C 159.919 1.47714 -1.29132 0
M  V30 1629 O 159.044 2.07464 -0.615439 0
M  V30 1630 C 159.639 0.201187 -3.38202 0
M  V30 1631 C 158.198 0.623507 -3.712 0
M  V30 1632 C 157.345 -0.225978 -2.76378 0
M  V30 1633 H 160.296 -0.58951 -1.47345 0
M  V30 1634 H 160.317 1.02377 -3.66468 0
M  V30 1635 H 159.829 -0.796058 -3.79848 0
M  V30 1636 H 157.93 1.62879 -3.35114 0
M  V30 1637 H 158.043 0.394414 -4.77474 0
M  V30 1638 H 156.407 0.305962 -2.52856 0
M  V30 1639 H 157.19 -1.22086 -3.20858 0
M  V30 1640 N 159.635 1.57281 -0.100228 0
M  V30 1641 C 160.565 2.17328 0.853857 0
M  V30 1642 C 161.546 1.10804 1.2906 0
M  V30 1643 O 162.731 1.38963 1.35657 0
M  V30 1644 C 159.861 2.75772 2.11109 0
M  V30 1645 C 158.815 3.87713 1.81279 0
M  V30 1646 C 158.141 4.32882 3.13874 0
M  V30 1647 C 159.441 5.10677 1.09574 0
M  V30 1648 H 161.135 2.97305 0.353545 0
M  V30 1649 H 158.681 1.43009 0.168612 0
M  V30 1650 H 160.634 3.16433 2.78296 0
M  V30 1651 H 159.358 1.93057 2.63432 0
M  V30 1652 H 158.017 3.476 1.16489 0
M  V30 1653 H 157.665 3.47051 3.64095 0
M  V30 1654 H 157.365 5.08358 2.94696 0
M  V30 1655 H 158.889 4.7618 3.82211 0
M  V30 1656 H 160.303 5.48474 1.66879 0
M  V30 1657 H 158.7 5.91615 1.00557 0
M  V30 1658 H 159.77 4.84835 0.0793299 0
M  V30 1659 N 161.113 -0.173488 1.56642 0
M  V30 1660 C 162.341 -0.906095 1.86004 0
M  V30 1661 C 162.756 -1.75921 0.685355 0
M  V30 1662 O 162.113 -1.79198 -0.345578 0
M  V30 1663 C 162.164 -1.78462 3.14378 0
M  V30 1664 O 161.885 -0.965914 4.27319 0
M  V30 1665 C 163.386 -2.62707 3.57071 0
M  V30 1666 H 160.606 -0.263341 0.617165 0
M  V30 1667 H 163.15 -0.174236 2.03756 0
M  V30 1668 H 161.305 -2.46984 2.98459 0
M  V30 1669 H 161.719 -1.56655 5.00559 0
M  V30 1670 H 163.193 -3.19969 4.49804 0
M  V30 1671 H 163.67 -3.37472 2.81086 0
M  V30 1672 H 164.276 -1.99521 3.75595 0
M  V30 1673 N 162.591 -1.51276 -0.441967 0
M  V30 1674 C 163.539 -1.72823 -1.55676 0
M  V30 1675 C 164.533 -0.59445 -1.58627 0
M  V30 1676 O 165.739 -0.775715 -1.62427 0
M  V30 1677 H 162.114 -0.545983 -0.517113 0
M  V30 1678 H 164.085 -2.6628 -1.34675 0
M  V30 1679 C 162.834 -1.86619 -2.93375 0
M  V30 1680 H 162.157 -2.73264 -2.91834 0
M  V30 1681 H 163.597 -2.05709 -3.70756 0
M  V30 1682 C 162.056 -0.624842 -3.31055 0
M  V30 1683 O 162.586 0.222636 -4.01083 0
M  V30 1684 N 160.792 -0.470288 -2.86769 0
M  V30 1685 H 160.339 -1.161 -2.29953 0
M  V30 1686 H 160.297 0.359051 -3.12343 0
M  V30 1687 N 164.069 0.697108 -1.41344 0
M  V30 1688 C 164.999 1.82353 -1.45841 0
M  V30 1689 C 165.98 1.67115 -0.317247 0
M  V30 1690 O 167.165 1.86871 -0.528474 0
M  V30 1691 C 164.295 3.20476 -1.33838 0
M  V30 1692 C 163.249 3.50415 -2.4575 0
M  V30 1693 C 162.575 4.87878 -2.18813 0
M  V30 1694 C 163.875 3.49546 -3.88091 0
M  V30 1695 H 165.569 1.78846 -2.40113 0
M  V30 1696 H 163.115 0.859028 -1.15571 0
M  V30 1697 H 165.068 3.98988 -1.35596 0
M  V30 1698 H 163.792 3.24604 -0.360498 0
M  V30 1699 H 162.451 2.74253 -2.43271 0
M  V30 1700 H 162.099 4.8863 -1.19371 0
M  V30 1701 H 161.799 5.08875 -2.93803 0
M  V30 1702 H 163.323 5.68702 -2.22284 0
M  V30 1703 H 164.737 4.18066 -3.92293 0
M  V30 1704 H 163.134 3.82075 -4.62751 0
M  V30 1705 H 164.204 2.48552 -4.16353 0
M  V30 1706 N 165.547 1.27147 0.931209 0
M  V30 1707 C 166.787 1.14511 1.69312 0
M  V30 1708 C 167.151 -0.304638 1.89568 0
M  V30 1709 O 168.352 -0.553343 2.63043 0
M  V30 1710 C 166.623 1.90349 3.02493 0
M  V30 1711 S 168.182 1.93884 3.93642 0
M  V30 1712 H 165 0.408858 0.581684 0
M  V30 1713 H 167.602 1.61006 1.10893 0
M  V30 1714 H 166.306 2.94877 2.85439 0
M  V30 1715 H 165.837 1.44333 3.65966 0
M  V30 1716 H 167.852 1.03273 4.85334 0
M  V30 1717 N 167.025 -1.13721 1.09112 0
M  V30 1718 C 168.273 -1.84559 0.823562 0
M  V30 1719 C 168.594 -1.83754 -0.652658 0
M  V30 1720 O 167.864 -1.29102 -1.47342 0
M  V30 1721 H 166.444 -0.683376 0.301673 0
M  V30 1722 H 169.106 -1.37771 1.37859 0
M  V30 1723 H 168.202 -2.8917 1.17419 0
M  V30 1724 N 168.503 -0.877838 -1.30888 0
M  V30 1725 C 169.45 -0.337538 -2.28318 0
M  V30 1726 C 170.42 0.568346 -1.56074 0
M  V30 1727 O 171.605 0.498298 -1.84178 0
M  V30 1728 C 168.745 0.448142 -3.42178 0
M  V30 1729 C 167.858 -0.48615 -4.29256 0
M  V30 1730 C 166.993 0.314427 -5.30269 0
M  V30 1731 C 166.032 -0.615791 -6.08995 0
M  V30 1732 N 165.169 0.14902 -7.01942 0
M  V30 1733 H 170.009 -1.17356 -2.73919 0
M  V30 1734 H 167.546 -0.590094 -1.34745 0
M  V30 1735 H 169.504 0.919517 -4.06941 0
M  V30 1736 H 168.134 1.24879 -2.97666 0
M  V30 1737 H 167.186 -1.076 -3.64865 0
M  V30 1738 H 168.498 -1.19909 -4.84173 0
M  V30 1739 H 167.652 0.847969 -6.00745 0
M  V30 1740 H 166.391 1.06062 -4.76027 0
M  V30 1741 H 165.396 -1.16102 -5.37401 0
M  V30 1742 H 166.621 -1.36097 -6.65323 0
M  V30 1743 H 164.567 0.877884 -6.50099 0
M  V30 1744 H 164.484 -0.504433 -7.54315 0
M  V30 1745 H 165.752 0.663537 -7.76671 0
M  V30 1746 N 169.982 1.44106 -0.638065 0
M  V30 1747 C 171.231 2.01194 -0.142744 0
M  V30 1748 C 171.544 1.50835 1.24532 0
M  V30 1749 O 172.75 2.00096 1.83504 0
M  V30 1750 C 171.206 3.59319 -0.20442 0
M  V30 1751 C 170.814 4.18674 -1.59423 0
M  V30 1752 C 172.558 4.23854 0.234079 0
M  V30 1753 C 170.465 5.69045 -1.61065 0
M  V30 1754 H 169.395 0.752367 -0.0495998 0
M  V30 1755 H 172.046 1.65246 -0.797881 0
M  V30 1756 H 170.428 3.92598 0.517946 0
M  V30 1757 H 171.602 3.96921 -2.34074 0
M  V30 1758 H 169.917 3.66453 -1.97741 0
M  V30 1759 H 172.514 5.34155 0.241443 0
M  V30 1760 H 172.857 3.96688 1.2627 0
M  V30 1761 H 173.39 3.95403 -0.436025 0
M  V30 1762 H 170.129 6.00956 -2.61787 0
M  V30 1763 H 169.649 5.929 -0.90718 0
M  V30 1764 H 171.328 6.32809 -1.34766 0
M  V30 1765 N 171.46 0.379036 1.52974 0
M  V30 1766 C 172.685 -0.209353 2.06341 0
M  V30 1767 C 173.11 -1.40583 1.24972 0
M  V30 1768 O 172.468 -1.79246 0.272155 0
M  V30 1769 C 172.516 -0.567786 3.56102 0
M  V30 1770 O 171.62 -1.66318 3.77375 0
M  V30 1771 H 170.961 -0.0272919 0.663439 0
M  V30 1772 H 173.491 0.543536 1.97248 0
M  V30 1773 H 173.501 -0.835003 3.99364 0
M  V30 1774 H 172.176 0.307013 4.14765 0
M  V30 1775 H 170.753 -1.39048 3.46006 0
M  V30 1776 N 172.938 -1.57226 0.108567 0
M  V30 1777 C 173.886 -2.16002 -0.862885 0
M  V30 1778 C 174.88 -1.10644 -1.28274 0
M  V30 1779 O 176.086 -1.28966 -1.2557 0
M  V30 1780 H 172.461 -0.691148 -0.296342 0
M  V30 1781 H 174.432 -2.96427 -0.342575 0
M  V30 1782 C 173.181 -2.76576 -2.10716 0
M  V30 1783 H 172.504 -3.5734 -1.793 0
M  V30 1784 H 173.944 -3.21253 -2.76717 0
M  V30 1785 C 172.403 -1.73137 -2.89007 0
M  V30 1786 O 172.933 -1.17842 -3.84026 0
M  V30 1787 N 171.139 -1.43317 -2.52801 0
M  V30 1788 H 170.686 -1.88473 -1.75601 0
M  V30 1789 H 170.644 -0.743485 -3.05483 0
M  V30 1790 N 174.416 0.165178 -1.56732 0
M  V30 1791 C 175.346 1.20651 -1.99914 0
M  V30 1792 C 176.327 1.45827 -0.875705 0
M  V30 1793 O 177.512 1.57057 -1.14223 0
M  V30 1794 C 174.642 2.54401 -2.36427 0
M  V30 1795 C 173.596 2.43782 -3.51787 0
M  V30 1796 C 172.922 3.82078 -3.7406 0
M  V30 1797 C 174.222 1.93732 -4.85041 0
M  V30 1798 H 175.916 0.847534 -2.87154 0
M  V30 1799 H 173.462 0.40625 -1.38151 0
M  V30 1800 H 175.415 3.27458 -2.65234 0
M  V30 1801 H 174.139 2.92098 -1.46103 0
M  V30 1802 H 172.798 1.73178 -3.23117 0
M  V30 1803 H 172.446 4.17179 -2.81017 0
M  V30 1804 H 172.146 3.7584 -4.51684 0
M  V30 1805 H 173.67 4.56712 -4.05274 0
M  V30 1806 H 175.084 2.56569 -5.12684 0
M  V30 1807 H 173.481 1.98428 -5.66345 0
M  V30 1808 H 174.551 0.891962 -4.76626 0
M  V30 1809 N 175.894 1.51508 0.433938 0
M  V30 1810 C 176.841 1.73068 1.52696 0
M  V30 1811 C 177.811 0.572441 1.55924 0
M  V30 1812 O 178.996 0.807253 1.72882 0
M  V30 1813 C 176.136 1.86474 2.90381 0
M  V30 1814 C 175.249 3.14037 2.96656 0
M  V30 1815 C 174.384 3.18019 4.25485 0
M  V30 1816 C 173.423 4.39882 4.2564 0
M  V30 1817 N 172.56 4.41394 5.45999 0
M  V30 1818 H 177.4 2.66366 1.33615 0
M  V30 1819 H 174.937 1.32008 0.649018 0
M  V30 1820 H 176.895 1.92229 3.70275 0
M  V30 1821 H 175.525 0.965809 3.08013 0
M  V30 1822 H 174.577 3.17575 2.09404 0
M  V30 1823 H 175.889 4.0394 2.92633 0
M  V30 1824 H 175.043 3.22708 5.13755 0
M  V30 1825 H 173.782 2.2601 4.3217 0
M  V30 1826 H 172.787 4.35366 3.35763 0
M  V30 1827 H 174.012 5.33159 4.20617 0
M  V30 1828 H 171.958 3.52258 5.53399 0
M  V30 1829 H 171.875 5.25111 5.4387 0
M  V30 1830 H 173.143 4.50281 6.36292 0
M  V30 1831 N 177.372 -0.689602 1.41712 0
M  V30 1832 C 178.597 -1.48329 1.44959 0
M  V30 1833 C 179.022 -1.8801 0.0581283 0
M  V30 1834 O 178.38 -1.55026 -0.940035 0
M  V30 1835 C 178.428 -2.71835 2.36935 0
M  V30 1836 O 177.532 -3.69549 1.8305 0
M  V30 1837 H 176.873 -0.446199 0.491734 0
M  V30 1838 H 179.403 -0.847127 1.86239 0
M  V30 1839 H 179.413 -3.20076 2.53013 0
M  V30 1840 H 178.088 -2.42291 3.38035 0
M  V30 1841 H 176.665 -3.2851 1.76452 0
M  V30 1842 N 178.85 -1.27639 -0.924453 0
M  V30 1843 C 180.261 -1.12834 -1.48746 0
M  V30 1844 C 180.612 0.285505 -1.94112 0
M  V30 1845 O 179.737 1.17874 -1.81479 0
M  V30 1846 C 180.332 -2.04217 -2.70334 0
M  V30 1847 C 178.891 -1.93509 -3.22848 0
M  V30 1848 C 178.038 -1.96583 -1.95577 0
M  V30 1849 H 180.989 -1.40484 -0.738233 0
M  V30 1850 H 181.01 -1.59989 -3.4523 0
M  V30 1851 H 180.522 -3.07111 -2.37285 0
M  V30 1852 H 178.623 -0.936131 -3.60649 0
M  V30 1853 H 178.736 -2.79917 -3.88823 0
M  V30 1854 H 177.1 -1.4085 -2.12211 0
M  V30 1855 H 177.883 -3.01137 -1.64837 0
M  V30 1856 N 180.328 1.1314 -1.09713 0
M  V30 1857 C 181.291 2.16831 -0.742751 0
M  V30 1858 C 182.291 1.59159 0.229129 0
M  V30 1859 O 183.481 1.74199 0.00693237 0
M  V30 1860 C 180.613 3.40756 -0.0989168 0
M  V30 1861 H 181.806 2.49695 -1.66109 0
M  V30 1862 H 179.359 1.2802 -0.896699 0
M  V30 1863 H 180.094 3.13485 0.830514 0
M  V30 1864 H 179.879 3.83888 -0.798265 0
M  V30 1865 H 181.369 4.17386 0.133524 0
M  V30 1866 N 181.806 0.884767 1.30421 0
M  V30 1867 C 183.031 0.517288 2.00845 0
M  V30 1868 C 183.456 -0.886779 1.65885 0
M  V30 1869 O 182.814 -1.58768 0.875354 0
M  V30 1870 C 182.862 0.698994 3.5376 0
M  V30 1871 O 181.966 -0.255208 4.1161 0
M  V30 1872 H 181.307 0.203872 0.631927 0
M  V30 1873 H 183.837 1.19225 1.66272 0
M  V30 1874 H 183.847 0.597912 4.03595 0
M  V30 1875 H 182.522 1.72271 3.78544 0
M  V30 1876 H 181.099 -0.10784 3.72744 0
M  V30 1877 N 183.284 -1.43765 0.645699 0
M  V30 1878 C 184.561 -1.9541 0.0862963 0
M  V30 1879 C 184.941 -1.58725 -1.39175 0
M  V30 1880 O 184.289 -0.868581 -2.11348 0
M  V30 1881 C 184.499 -3.47488 0.324565 0
M  V30 1882 C 185.847 -4.24001 0.225497 0
M  V30 1883 O 186.871 -3.55274 0.256715 0
M  V30 1884 O 185.73 -5.46313 0.142801 0
M  V30 1885 H 182.824 -0.826882 -0.0139483 0
M  V30 1886 H 185.37 -1.53743 0.718415 0
M  V30 1887 H 184.142 -3.67289 1.3496 0
M  V30 1888 H 183.765 -3.96135 -0.340987 0
M  V30 1889 N 184.763 -0.387143 -1.52771 0
M  V30 1890 C 185.695 0.484089 -2.2403 0
M  V30 1891 C 186.708 1.02849 -1.26198 0
M  V30 1892 O 187.897 0.931186 -1.52286 0
M  V30 1893 C 184.997 1.68337 -2.94136 0
M  V30 1894 C 184.17 1.26672 -4.18656 0
M  V30 1895 C 183.229 2.33045 -4.7178 0
M  V30 1896 O 182.255 1.94541 -5.34923 0
M  V30 1897 N 183.457 3.64929 -4.5145 0
M  V30 1898 H 186.222 -0.126404 -2.99433 0
M  V30 1899 H 183.783 -0.213392 -1.60488 0
M  V30 1900 H 185.775 2.39019 -3.26577 0
M  V30 1901 H 184.345 2.20025 -2.22053 0
M  V30 1902 H 183.565 0.388878 -3.92277 0
M  V30 1903 H 184.853 0.964964 -4.99566 0
M  V30 1904 H 184.251 3.98974 -4.01044 0
M  V30 1905 H 182.808 4.31651 -4.88386 0
M  V30 1906 N 186.241 1.57166 -0.116904 0
M  V30 1907 C 187.173 2.12271 0.864507 0
M  V30 1908 C 188.186 1.06494 1.23138 0
M  V30 1909 O 189.375 1.33873 1.18069 0
M  V30 1910 C 186.475 2.60564 2.16702 0
M  V30 1911 C 185.648 3.90416 1.97216 0
M  V30 1912 C 184.707 4.24329 3.11178 0
M  V30 1913 O 183.733 4.93182 2.84184 0
M  V30 1914 N 184.935 3.8148 4.37554 0
M  V30 1915 H 187.7 2.97102 0.393726 0
M  V30 1916 H 185.261 1.61759 0.0675805 0
M  V30 1917 H 187.253 2.80282 2.91932 0
M  V30 1918 H 185.823 1.80623 2.55135 0
M  V30 1919 H 185.043 3.79627 1.06192 0
M  V30 1920 H 186.331 4.75327 1.81499 0
M  V30 1921 H 185.729 3.25943 4.62361 0
M  V30 1922 H 184.286 4.06311 5.09661 0
M  V30 1923 N 187.719 -0.156864 1.56817 0
M  V30 1924 C 188.649 -1.19589 2.00551 0
M  V30 1925 C 189.63 -1.4536 0.883426 0
M  V30 1926 O 190.815 -1.56449 1.15054 0
M  V30 1927 C 187.945 -2.53143 2.37773 0
M  V30 1928 C 186.899 -2.41913 3.53075 0
M  V30 1929 C 186.225 -3.80088 3.76081 0
M  V30 1930 C 187.525 -1.91157 4.86062 0
M  V30 1931 H 189.219 -0.832293 2.87599 0
M  V30 1932 H 186.765 -0.398918 1.38364 0
M  V30 1933 H 188.718 -3.26047 2.66967 0
M  V30 1934 H 187.442 -2.91319 1.4765 0
M  V30 1935 H 186.101 -1.71462 3.24031 0
M  V30 1936 H 185.749 -4.15683 2.83225 0
M  V30 1937 H 185.449 -3.73439 4.53671 0
M  V30 1938 H 186.973 -4.54556 4.0769 0
M  V30 1939 H 188.387 -2.53846 5.14038 0
M  V30 1940 H 186.784 -1.95422 5.67389 0
M  V30 1941 H 187.854 -0.866673 4.77092 0
M  V30 1942 N 189.197 -1.51736 -0.425897 0
M  V30 1943 C 190.13 -1.68574 -1.53812 0
M  V30 1944 C 191.108 -0.53328 -1.53606 0
M  V30 1945 O 192.292 -0.758555 -1.72564 0
M  V30 1946 C 189.419 -1.70977 -2.92377 0
M  V30 1947 C 188.465 -2.92324 -3.10563 0
M  V30 1948 S 189.298 -4.52952 -2.85648 0
M  V30 1949 C 190.454 -4.58117 -4.26474 0
M  V30 1950 H 190.687 -2.62647 -1.39298 0
M  V30 1951 H 188.22 -1.41564 -0.616361 0
M  V30 1952 H 190.178 -1.73047 -3.72243 0
M  V30 1953 H 188.839 -0.78061 -3.04245 0
M  V30 1954 H 188.032 -2.90439 -4.11899 0
M  V30 1955 H 187.634 -2.88055 -2.38538 0
M  V30 1956 H 189.926 -4.34462 -5.19855 0
M  V30 1957 H 190.869 -5.59983 -4.33388 0
M  V30 1958 H 191.277 -3.8732 -4.10662 0
M  V30 1959 N 190.675 0.682077 -1.42076 0
M  V30 1960 C 191.585 1.82535 -1.47371 0
M  V30 1961 C 192.601 1.7017 -0.363079 0
M  V30 1962 O 193.777 1.91848 -0.612875 0
M  V30 1963 C 190.842 3.18624 -1.36674 0
M  V30 1964 C 189.903 3.42999 -2.58167 0
M  V30 1965 C 189.136 4.72595 -2.4797 0
M  V30 1966 O 189.359 5.50006 -1.5116 0
M  V30 1967 O 188.293 4.98054 -3.37974 0
M  V30 1968 H 192.119 1.81023 -2.43853 0
M  V30 1969 H 189.704 0.836887 -1.2376 0
M  V30 1970 H 191.586 3.99847 -1.33043 0
M  V30 1971 H 190.261 3.20789 -0.433138 0
M  V30 1972 H 189.168 2.61653 -2.67373 0
M  V30 1973 H 190.501 3.45659 -3.50401 0
M  V30 1974 N 192.153 1.28127 0.917671 0
M  V30 1975 C 193.43 1.05761 1.64542 0
M  V30 1976 C 193.81 -0.404344 2.07191 0
M  V30 1977 O 193.158 -1.38963 1.81388 0
M  V30 1978 C 193.368 2.02857 2.83989 0
M  V30 1979 C 194.716 2.32786 3.551 0
M  V30 1980 O 195.74 2.0091 2.94132 0
M  V30 1981 O 194.599 2.87169 4.64969 0
M  V30 1982 H 191.693 0.403916 0.721652 0
M  V30 1983 H 194.239 1.39431 0.967322 0
M  V30 1984 H 193.011 3.01407 2.49538 0
M  V30 1985 H 192.634 1.69809 3.59514 0
M  V30 1986 N 193.631 -1.12557 1.10312 0
M  V30 1987 C 194.578 -2.18247 0.750781 0
M  V30 1988 C 195.548 -1.63853 -0.272293 0
M  V30 1989 O 196.733 -1.90195 -0.151862 0
M  V30 1990 C 193.873 -3.44591 0.187379 0
M  V30 1991 C 192.986 -4.13046 1.2656 0
M  V30 1992 C 192.121 -5.27034 0.663978 0
M  V30 1993 C 191.16 -5.87353 1.72287 0
M  V30 1994 N 190.297 -6.92757 1.1416 0
M  V30 1995 H 195.137 -2.47732 1.65628 0
M  V30 1996 H 192.674 -1.21629 0.827337 0
M  V30 1997 H 194.632 -4.16904 -0.157148 0
M  V30 1998 H 193.262 -3.15527 -0.681355 0
M  V30 1999 H 192.314 -3.38924 1.72727 0
M  V30 2000 H 193.626 -4.53947 2.06721 0
M  V30 2001 H 192.78 -6.06104 0.268824 0
M  V30 2002 H 191.519 -4.87407 -0.169082 0
M  V30 2003 H 190.524 -5.06971 2.12746 0
M  V30 2004 H 191.749 -6.29051 2.55875 0
M  V30 2005 H 189.695 -6.5517 0.329984 0
M  V30 2006 H 189.612 -7.3225 1.88007 0
M  V30 2007 H 190.88 -7.75658 0.772956 0
M  V30 2008 N 195.109 -0.891671 -1.2995 0
M  V30 2009 C 196.337 -0.52866 -2.00032 0
M  V30 2010 C 196.752 0.884574 -1.66795 0
M  V30 2011 O 196.109 1.5827 -0.908669 0
M  V30 2012 C 196.16 -0.701814 -3.54622 0
M  V30 2013 O 195.881 -2.05942 -3.86678 0
M  V30 2014 C 197.382 -0.342683 -4.41973 0
M  V30 2015 H 194.602 -0.203659 -0.639347 0
M  V30 2016 H 197.146 -1.19881 -1.65677 0
M  V30 2017 H 195.301 -0.0789468 -3.8732 0
M  V30 2018 H 195.715 -2.08291 -4.81368 0
M  V30 2019 H 197.189 -0.514709 -5.49595 0
M  V30 2020 H 197.666 0.71975 -4.33262 0
M  V30 2021 H 198.272 -0.942154 -4.14733 0
M  V30 2022 N 196.587 1.43421 -0.653314 0
M  V30 2023 C 197.812 2.06678 -0.172846 0
M  V30 2024 C 198.237 1.48648 1.15262 0
M  V30 2025 O 197.595 0.596457 1.71208 0
M  V30 2026 C 197.643 3.60474 -0.0953184 0
M  V30 2027 O 196.747 4.01487 0.942442 0
M  V30 2028 H 196.088 0.657181 -0.0949155 0
M  V30 2029 H 198.618 1.83925 -0.896265 0
M  V30 2030 H 198.628 4.07905 0.0879728 0
M  V30 2031 H 197.303 4.02088 -1.06291 0
M  V30 2032 H 195.88 3.65646 0.731932 0
M  V30 2033 N 198.065 0.39524 1.52563 0
M  V30 2034 C 199.481 0.0454682 1.59535 0
M  V30 2035 C 199.681 -1.44056 1.4089 0
M  V30 2036 O 198.737 -2.20579 1.22888 0
M  V30 2037 C 200.05 0.527963 2.96029 0
M  V30 2038 C 201.598 0.484733 3.09224 0
M  V30 2039 C 202.073 0.943512 4.48176 0
M  V30 2040 N 203.564 0.899765 4.54377 0
M  V30 2041 C 204.299 1.22609 5.60138 0
M  V30 2042 N 203.795 1.62319 6.73516 0
M  V30 2043 N 205.588 1.14696 5.50274 0
M  V30 2044 H 197.739 1.36261 1.62931 0
M  V30 2045 H 200.002 0.558887 0.765735 0
M  V30 2046 H 199.708 1.56607 3.14908 0
M  V30 2047 H 199.582 -0.0698056 3.77135 0
M  V30 2048 H 201.969 -0.544298 2.90037 0
M  V30 2049 H 202.05 1.11838 2.30056 0
M  V30 2050 H 201.694 1.9708 4.68104 0
M  V30 2051 H 201.624 0.286817 5.25818 0
M  V30 2052 H 204.115 0.607632 3.72983 0
M  V30 2053 H 204.428 1.85567 7.5019 0
M  V30 2054 H 202.773 1.66211 6.74833 0
M  V30 2055 H 205.964 0.835701 4.6058 0
M  V30 2056 H 206.137 1.40459 6.32594 0
M  V30 2057 N 199.544 -1.57102 0.125237 0
M  V30 2058 C 200.791 -1.95407 -0.531248 0
M  V30 2059 C 201.119 -1.0089 -1.66287 0
M  V30 2060 O 200.374 -0.0339431 -1.95671 0
M  V30 2061 C 200.673 -3.40096 -1.09862 0
M  V30 2062 C 200.339 -4.50815 -0.0876989 0
M  V30 2063 C 199.001 -4.80824 0.19026 0
M  V30 2064 C 201.353 -5.17724 0.600902 0
M  V30 2065 C 198.681 -5.75058 1.163 0
M  V30 2066 C 201.033 -6.13005 1.56231 0
M  V30 2067 C 199.697 -6.41403 1.8482 0
M  V30 2068 H 198.967 -0.715046 -0.194397 0
M  V30 2069 H 201.614 -1.90373 0.207463 0
M  V30 2070 H 199.919 -3.41855 -1.91422 0
M  V30 2071 H 201.616 -3.6705 -1.61478 0
M  V30 2072 H 198.206 -4.27444 -0.314528 0
M  V30 2073 H 202.39 -4.94691 0.399333 0
M  V30 2074 H 197.646 -5.95362 1.39117 0
M  V30 2075 H 201.82 -6.63934 2.10153 0
M  V30 2076 H 199.447 -7.14229 2.60349 0
M  V30 2077 N 201.022 0.148545 -1.56898 0
M  V30 2078 C 202.25 0.876389 -1.87422 0
M  V30 2079 C 202.665 1.74809 -0.713256 0
M  V30 2080 O 202.022 1.79725 0.317025 0
M  V30 2081 C 202.073 1.73438 -3.17178 0
M  V30 2082 O 201.794 0.897809 -4.28802 0
M  V30 2083 C 203.295 2.56993 -3.61205 0
M  V30 2084 H 200.515 0.253489 -0.621277 0
M  V30 2085 H 203.059 0.141798 -2.04008 0
M  V30 2086 H 201.214 2.42205 -3.0235 0
M  V30 2087 H 201.628 1.48672 -5.02988 0
M  V30 2088 H 203.102 3.12773 -4.54838 0
M  V30 2089 H 203.579 3.32958 -2.86419 0
M  V30 2090 H 204.185 1.9352 -3.78722 0
M  V30 2091 N 202.5 1.5196 0.417844 0
M  V30 2092 C 203.74 1.67262 1.17486 0
M  V30 2093 C 204.104 0.38983 1.88001 0
M  V30 2094 O 205.305 0.418845 2.65517 0
M  V30 2095 C 203.576 2.85526 2.14965 0
M  V30 2096 S 205.135 3.21263 2.98891 0
M  V30 2097 H 201.953 0.589077 0.398132 0
M  V30 2098 H 204.555 1.89927 0.463452 0
M  V30 2099 H 203.259 3.77145 1.61833 0
M  V30 2100 H 202.79 2.65107 2.90657 0
M  V30 2101 H 204.805 2.69208 4.16823 0
M  V30 2102 N 203.978 -0.674533 1.42435 0
M  V30 2103 C 204.925 -1.78807 1.45934 0
M  V30 2104 C 205.895 -1.63157 0.311271 0
M  V30 2105 O 207.08 -1.83707 0.515383 0
M  V30 2106 C 204.22 -3.16839 1.36773 0
M  V30 2107 C 203.333 -3.43774 2.61617 0
M  V30 2108 C 202.468 -4.71536 2.44597 0
M  V30 2109 C 201.507 -4.91505 3.64814 0
M  V30 2110 N 200.644 -6.10508 3.46734 0
M  V30 2111 H 205.484 -1.75151 2.41093 0
M  V30 2112 H 203.021 -0.85504 1.19697 0
M  V30 2113 H 204.979 -3.96606 1.29459 0
M  V30 2114 H 203.609 -3.19619 0.452089 0
M  V30 2115 H 202.661 -2.58259 2.79297 0
M  V30 2116 H 203.973 -3.54423 3.50978 0
M  V30 2117 H 203.127 -5.59393 2.3487 0
M  V30 2118 H 201.866 -4.6317 1.52726 0
M  V30 2119 H 200.871 -4.0209 3.74972 0
M  V30 2120 H 202.096 -5.01716 4.57665 0
M  V30 2121 H 200.042 -6.03315 2.5758 0
M  V30 2122 H 199.959 -6.2202 4.29682 0
M  V30 2123 H 201.227 -7.01044 3.40819 0
M  V30 2124 N 205.456 -1.28612 -0.910864 0
M  V30 2125 C 206.704 -1.15705 -1.65701 0
M  V30 2126 C 207.025 0.29416 -1.92769 0
M  V30 2127 O 206.295 1.20331 -1.54588 0
M  V30 2128 H 204.875 -0.425216 -0.614167 0
M  V30 2129 H 207.537 -1.61381 -1.0928 0
M  V30 2130 H 206.633 -1.6988 -2.61815 0
M  V30 2131 N 206.934 1.1197 -1.10907 0
M  V30 2132 C 207.881 2.17846 -0.762345 0
M  V30 2133 C 208.851 1.63995 0.263599 0
M  V30 2134 O 210.036 1.90273 0.141773 0
M  V30 2135 C 207.176 3.44487 -0.205651 0
M  V30 2136 C 206.289 4.12369 -1.28748 0
M  V30 2137 C 205.424 5.26674 -0.691919 0
M  V30 2138 C 204.463 5.86431 -1.75399 0
M  V30 2139 N 203.6 6.92142 -1.17833 0
M  V30 2140 H 208.44 2.46851 -1.6694 0
M  V30 2141 H 205.977 1.21188 -0.833776 0
M  V30 2142 H 207.935 4.16981 0.135037 0
M  V30 2143 H 206.565 3.15884 0.664613 0
M  V30 2144 H 205.617 3.38003 -1.74522 0
M  V30 2145 H 206.929 4.52844 -2.09125 0
M  V30 2146 H 206.083 6.05953 -0.300963 0
M  V30 2147 H 204.822 4.8749 0.143232 0
M  V30 2148 H 203.827 5.05835 -2.15432 0
M  V30 2149 H 205.052 6.27685 -2.59208 0
M  V30 2150 H 202.998 6.54985 -0.364725 0
M  V30 2151 H 202.915 7.31242 -1.91887 0
M  V30 2152 H 204.183 7.75237 -0.81408 0
M  V30 2153 N 208.412 0.89855 1.29475 0
M  V30 2154 C 209.823 0.572537 1.77705 0
M  V30 2155 C 210.174 -0.911778 1.73727 0
M  V30 2156 O 209.299 -1.71288 1.32247 0
M  V30 2157 C 209.894 1.03252 3.22683 0
M  V30 2158 C 208.453 0.757687 3.68695 0
M  V30 2159 C 207.6 1.20787 2.49612 0
M  V30 2160 H 210.551 1.08139 1.16153 0
M  V30 2161 H 210.572 0.367307 3.78723 0
M  V30 2162 H 210.084 2.11285 3.25546 0
M  V30 2163 H 208.185 -0.310079 3.71308 0
M  V30 2164 H 208.298 1.35476 4.59547 0
M  V30 2165 H 206.662 0.626888 2.46865 0
M  V30 2166 H 207.445 2.29622 2.55203 0
M  V30 2167 N 209.89 -1.43072 0.660911 0
M  V30 2168 C 211.136 -2.0202 0.177708 0
M  V30 2169 C 211.469 -1.52066 -1.20787 0
M  V30 2170 O 210.744 -0.716987 -1.80802 0
M  V30 2171 C 211.027 -3.59561 0.197019 0
M  V30 2172 C 210.88 -4.19727 1.61706 0
M  V30 2173 C 212.199 -4.37664 -0.462396 0
M  V30 2174 H 209.318 -0.734034 0.0660494 0
M  V30 2175 H 211.96 -1.70272 0.843058 0
M  V30 2176 H 210.11 -3.86739 -0.369527 0
M  V30 2177 H 211.782 -4.03553 2.23479 0
M  V30 2178 H 210.025 -3.76084 2.16201 0
M  V30 2179 H 210.696 -5.28834 1.58237 0
M  V30 2180 H 213.172 -4.16095 0.0197215 0
M  V30 2181 H 212.048 -5.47305 -0.418188 0
M  V30 2182 H 212.309 -4.14493 -1.53778 0
M  V30 2183 N 211.368 -0.403325 -1.52352 0
M  V30 2184 C 212.598 0.17376 -2.05868 0
M  V30 2185 C 213.006 1.39898 -1.27378 0
M  V30 2186 O 212.349 1.80939 -0.31729 0
M  V30 2187 C 212.411 0.594756 -3.54546 0
M  V30 2188 C 212.075 -0.518926 -4.54044 0
M  V30 2189 C 213.072 -1.3807 -5.01231 0
M  V30 2190 C 210.757 -0.689961 -4.97539 0
M  V30 2191 C 212.751 -2.39852 -5.90551 0
M  V30 2192 C 210.438 -1.71109 -5.86656 0
M  V30 2193 C 211.436 -2.56378 -6.33056 0
M  V30 2194 O 211.124 -3.56743 -7.20409 0
M  V30 2195 H 210.856 0.0264951 -0.675481 0
M  V30 2196 H 213.41 -0.571179 -1.97299 0
M  V30 2197 H 211.64 1.39189 -3.60782 0
M  V30 2198 H 213.329 1.0991 -3.90736 0
M  V30 2199 H 214.095 -1.25994 -4.68349 0
M  V30 2200 H 209.974 -0.035939 -4.60986 0
M  V30 2201 H 213.518 -3.06441 -6.26689 0
M  V30 2202 H 209.415 -1.83218 -6.18952 0
M  V30 2203 H 210.183 -3.52918 -7.38506 0
M  V30 2204 N 212.846 1.57033 -0.133567 0
M  V30 2205 C 213.796 2.12641 0.822671 0
M  V30 2206 C 214.78 1.05081 1.21847 0
M  V30 2207 O 215.972 1.31287 1.18713 0
M  V30 2208 C 213.101 2.74094 2.06706 0
M  V30 2209 C 212.187 3.88757 1.69497 0
M  V30 2210 N 212.578 4.95194 1.03037 0
M  V30 2211 C 210.876 3.99213 1.98859 0
M  V30 2212 C 211.577 5.75414 0.852873 0
M  V30 2213 N 210.553 5.25726 1.3825 0
M  V30 2214 H 214.355 2.92308 0.305537 0
M  V30 2215 H 211.869 1.62256 0.0684276 0
M  V30 2216 H 213.866 3.12285 2.76195 0
M  V30 2217 H 212.526 1.95896 2.5895 0
M  V30 2218 H 213.537 5.13247 0.692669 0
M  V30 2219 H 210.214 3.32075 2.53047 0
M  V30 2220 H 211.604 6.71089 0.330091 0
M  V30 2221 N 214.325 -0.140222 1.56975 0
M  V30 2222 C 215.572 -0.851687 1.83719 0
M  V30 2223 C 215.9 -1.80862 0.715485 0
M  V30 2224 O 215.155 -1.93464 -0.294956 0
M  V30 2225 C 215.454 -1.65386 3.16832 0
M  V30 2226 C 215.12 -0.843112 4.42947 0
M  V30 2227 C 213.782 -0.619464 4.77196 0
M  V30 2228 C 216.134 -0.276582 5.20466 0
M  V30 2229 C 213.462 0.181312 5.8642 0
M  V30 2230 C 215.814 0.51127 6.30531 0
M  V30 2231 C 214.478 0.745432 6.63325 0
M  V30 2232 H 213.748 -0.311654 0.672274 0
M  V30 2233 H 216.395 -0.115006 1.91154 0
M  V30 2234 H 214.7 -2.46084 3.04877 0
M  V30 2235 H 216.397 -2.20793 3.34741 0
M  V30 2236 H 212.987 -1.0275 4.16101 0
M  V30 2237 H 217.171 -0.436632 4.94376 0
M  V30 2238 H 212.427 0.372165 6.10266 0
M  V30 2239 H 216.601 0.957354 6.89788 0
M  V30 2240 H 214.228 1.36778 7.47794 0
M  V30 2241 N 215.803 -1.52179 -0.40978 0
M  V30 2242 C 217.05 -1.66206 -1.15679 0
M  V30 2243 C 217.378 -0.391674 -1.90516 0
M  V30 2244 O 216.633 0.62533 -1.8544 0
M  V30 2245 C 216.932 -2.83428 -2.17723 0
M  V30 2246 C 216.598 -4.21672 -1.59699 0
M  V30 2247 C 215.26 -4.59274 -1.43599 0
M  V30 2248 C 217.612 -5.07825 -1.17317 0
M  V30 2249 C 214.94 -5.80709 -0.836328 0
M  V30 2250 C 217.292 -6.29864 -0.587691 0
M  V30 2251 C 215.956 -6.66216 -0.413818 0
M  V30 2252 H 215.226 -0.608192 -0.423301 0
M  V30 2253 H 217.873 -1.86279 -0.444097 0
M  V30 2254 H 216.178 -2.57687 -2.95135 0
M  V30 2255 H 217.875 -2.91477 -2.75394 0
M  V30 2256 H 214.465 -3.9204 -1.73213 0
M  V30 2257 H 218.649 -4.79359 -1.28565 0
M  V30 2258 H 213.905 -6.07498 -0.689626 0
M  V30 2259 H 218.079 -6.95948 -0.250894 0
M  V30 2260 H 215.706 -7.60182 0.0529471 0
M  V30 2261 N 217.281 0.66697 -1.42791 0
M  V30 2262 C 218.529 1.42417 -1.43394 0
M  V30 2263 C 218.85 1.94925 -0.0542373 0
M  V30 2264 O 218.12 1.73564 0.908415 0
M  V30 2265 H 216.7 0.528515 -0.527902 0
M  V30 2266 H 219.362 0.787562 -1.78279 0
M  V30 2267 H 218.458 2.27333 -2.13837 0
M  V30 2268 N 218.759 1.29093 0.90403 0
M  V30 2269 C 219.987 1.19689 1.68766 0
M  V30 2270 C 220.402 -0.243113 1.87228 0
M  V30 2271 O 219.759 -1.16326 1.40621 0
M  V30 2272 C 219.81 1.90144 3.07453 0
M  V30 2273 O 219.531 3.2852 2.89838 0
M  V30 2274 C 221.032 1.87162 4.01852 0
M  V30 2275 H 218.252 0.415035 0.527244 0
M  V30 2276 H 220.796 1.7039 1.13082 0
M  V30 2277 H 218.951 1.43289 3.59926 0
M  V30 2278 H 219.365 3.63944 3.77684 0
M  V30 2279 H 220.839 2.41032 4.96596 0
M  V30 2280 H 221.316 0.84617 4.30972 0
M  V30 2281 H 221.922 2.33741 3.5531 0
M  V30 2282 N 220.237 -1.11381 1.11499 0
M  V30 2283 C 221.462 -1.87475 0.887019 0
M  V30 2284 C 221.887 -1.79639 -0.557796 0
M  V30 2285 O 221.245 -1.15924 -1.39396 0
M  V30 2286 C 221.293 -3.34213 1.35403 0
M  V30 2287 O 220.397 -4.0903 0.526146 0
M  V30 2288 H 219.738 -0.582099 0.319463 0
M  V30 2289 H 222.268 -1.40785 1.48461 0
M  V30 2290 H 222.278 -3.8506 1.34881 0
M  V30 2291 H 220.953 -3.39232 2.40612 0
M  V30 2292 H 219.53 -3.68082 0.597522 0
M  V30 2293 N 221.715 -0.905404 -1.28997 0
M  V30 2294 C 222.943 -0.549846 -1.9946 0
M  V30 2295 C 223.358 0.866834 -1.67724 0
M  V30 2296 O 222.715 1.57298 -0.925404 0
M  V30 2297 C 222.766 -0.739387 -3.53858 0
M  V30 2298 O 222.487 -2.10031 -3.84472 0
M  V30 2299 C 223.988 -0.389541 -4.41585 0
M  V30 2300 H 221.208 -0.210429 -0.637151 0
M  V30 2301 H 223.752 -1.21632 -1.64396 0
M  V30 2302 H 221.907 -0.120023 -3.87214 0
M  V30 2303 H 222.321 -2.13385 -4.79132 0
M  V30 2304 H 223.795 -0.572972 -5.49018 0
M  V30 2305 H 224.272 0.673756 -4.34001 0
M  V30 2306 H 224.878 -0.986089 -4.1371 0
M  V30 2307 N 223.193 1.4272 -0.668489 0
M  V30 2308 C 224.44 2.01624 -0.18814 0
M  V30 2309 C 224.768 1.5282 1.20317 0
M  V30 2310 O 224.023 0.718323 1.8204 0
M  V30 2311 C 224.322 3.57021 -0.164499 0
M  V30 2312 C 223.988 4.25232 -1.49962 0
M  V30 2313 C 222.65 4.4358 -1.8652 0
M  V30 2314 C 225.002 4.63727 -2.37921 0
M  V30 2315 C 222.33 4.97694 -3.10674 0
M  V30 2316 C 224.682 5.19218 -3.6138 0
M  V30 2317 C 223.346 5.3578 -3.98115 0
M  V30 2318 H 222.616 0.737795 -0.0688454 0
M  V30 2319 H 225.263 1.70991 -0.862225 0
M  V30 2320 H 223.568 3.87285 0.593079 0
M  V30 2321 H 225.265 4.00372 0.224271 0
M  V30 2322 H 221.855 4.11306 -1.20522 0
M  V30 2323 H 226.039 4.4923 -2.10964 0
M  V30 2324 H 221.295 5.08702 -3.39164 0
M  V30 2325 H 225.469 5.4799 -4.29743 0
M  V30 2326 H 223.096 5.77475 -4.94395 0
M  V30 2327 N 224.671 0.411399 1.52136 0
M  V30 2328 C 225.896 -0.165538 2.06738 0
M  V30 2329 C 226.321 -1.379 1.27926 0
M  V30 2330 O 225.679 -1.78628 0.310114 0
M  V30 2331 C 225.727 -0.492124 3.57226 0
M  V30 2332 O 224.831 -1.58276 3.80818 0
M  V30 2333 H 224.172 -0.0132132 0.663869 0
M  V30 2334 H 226.702 0.585253 1.96051 0
M  V30 2335 H 226.712 -0.750104 4.01045 0
M  V30 2336 H 225.387 0.394922 4.14021 0
M  V30 2337 H 223.964 -1.31677 3.48877 0
M  V30 2338 N 226.149 -1.5696 0.141893 0
M  V30 2339 C 227.081 -2.13619 -0.830627 0
M  V30 2340 C 228.094 -1.08439 -1.21428 0
M  V30 2341 O 229.283 -1.35734 -1.15925 0
M  V30 2342 C 226.383 -2.63978 -2.12529 0
M  V30 2343 C 225.556 -3.93504 -1.9098 0
M  V30 2344 C 224.615 -4.29225 -3.04388 0
M  V30 2345 O 223.641 -4.97641 -2.76302 0
M  V30 2346 N 224.843 -3.88393 -4.31429 0
M  V30 2347 H 227.608 -2.97691 -0.34641 0
M  V30 2348 H 225.169 -1.61846 -0.0418375 0
M  V30 2349 H 227.161 -2.84891 -2.87436 0
M  V30 2350 H 225.731 -1.84659 -2.52229 0
M  V30 2351 H 224.951 -3.81269 -1.00139 0
M  V30 2352 H 226.239 -4.78154 -1.73914 0
M  V30 2353 H 225.637 -3.33257 -4.57117 0
M  V30 2354 H 224.194 -4.14368 -5.03133 0
M  V30 2355 N 227.627 0.131896 -1.57047 0
M  V30 2356 C 228.857 0.855219 -1.88068 0
M  V30 2357 C 229.265 1.74557 -0.729817 0
M  V30 2358 O 228.608 1.81083 0.308962 0
M  V30 2359 C 228.67 1.75119 -3.13964 0
M  V30 2360 C 228.334 1.03646 -4.45091 0
M  V30 2361 C 229.331 0.383276 -5.18485 0
M  V30 2362 C 227.016 1.02148 -4.91804 0
M  V30 2363 C 229.01 -0.275347 -6.36805 0
M  V30 2364 C 226.697 0.359047 -6.10044 0
M  V30 2365 C 227.695 -0.288222 -6.82392 0
M  V30 2366 O 227.383 -0.94011 -7.98384 0
M  V30 2367 H 227.115 0.251864 -0.627328 0
M  V30 2368 H 229.669 0.124782 -2.05021 0
M  V30 2369 H 227.899 2.52295 -2.9306 0
M  V30 2370 H 229.588 2.3478 -3.31109 0
M  V30 2371 H 230.354 0.386562 -4.83457 0
M  V30 2372 H 226.233 1.5147 -4.35405 0
M  V30 2373 H 229.777 -0.781148 -6.93213 0
M  V30 2374 H 225.674 0.35348 -6.44531 0
M  V30 2375 H 226.442 -0.84329 -8.14144 0
M  V30 2376 N 229.106 1.52395 0.401703 0
M  V30 2377 C 230.334 1.70676 1.16949 0
M  V30 2378 C 230.749 0.419503 1.8408 0
M  V30 2379 O 230.106 -0.605061 1.72178 0
M  V30 2380 C 230.157 2.84753 2.22706 0
M  V30 2381 O 229.878 4.08495 1.58314 0
M  V30 2382 C 231.379 3.14608 3.12309 0
M  V30 2383 H 228.599 0.571787 0.351142 0
M  V30 2384 H 231.143 1.98987 0.471652 0
M  V30 2385 H 229.298 2.58941 2.88147 0
M  V30 2386 H 229.712 4.72117 2.28485 0
M  V30 2387 H 231.186 3.97923 3.82572 0
M  V30 2388 H 231.663 2.28464 3.75101 0
M  V30 2389 H 232.269 3.42212 2.52529 0
M  V30 2390 N 230.584 -0.659388 1.43143 0
M  V30 2391 C 231.83 -1.42145 1.44647 0
M  V30 2392 C 232.163 -1.9408 0.0681907 0
M  V30 2393 O 231.438 -1.71899 -0.910007 0
M  V30 2394 C 231.721 -2.60735 2.48373 0
M  V30 2395 C 231.574 -2.14332 3.95451 0
M  V30 2396 C 232.893 -3.62951 2.48906 0
M  V30 2397 H 230.012 -0.51552 0.526696 0
M  V30 2398 H 232.654 -0.748069 1.74654 0
M  V30 2399 H 230.804 -3.18184 2.22916 0
M  V30 2400 H 232.476 -1.61932 4.31944 0
M  V30 2401 H 230.719 -1.4576 4.08578 0
M  V30 2402 H 231.39 -2.99583 4.63631 0
M  V30 2403 H 233.866 -3.1525 2.71582 0
M  V30 2404 H 232.742 -4.43487 3.23435 0
M  V30 2405 H 233.003 -4.15126 1.52061 0
M  V30 2406 N 232.062 -1.29571 -0.897171 0
M  V30 2407 C 233.308 -1.17863 -1.65034 0
M  V30 2408 C 233.641 0.268729 -1.92332 0
M  V30 2409 O 232.916 1.19378 -1.53555 0
M  V30 2410 C 233.199 -1.995 -2.99786 0
M  V30 2411 C 233.052 -3.5239 -2.79538 0
M  V30 2412 C 234.371 -1.82335 -4.00552 0
M  V30 2413 H 231.49 -0.429528 -0.598895 0
M  V30 2414 H 234.132 -1.59072 -1.03905 0
M  V30 2415 H 232.282 -1.64485 -3.51962 0
M  V30 2416 H 233.954 -3.97401 -2.34244 0
M  V30 2417 H 232.197 -3.77187 -2.14273 0
M  V30 2418 H 232.868 -4.04787 -3.75302 0
M  V30 2419 H 235.344 -2.12924 -3.57495 0
M  V30 2420 H 234.22 -2.41801 -4.92771 0
M  V30 2421 H 234.481 -0.779209 -4.35179 0
M  V30 2422 N 233.54 1.10788 -1.12088 0
M  V30 2423 C 234.765 1.87002 -0.896949 0
M  V30 2424 C 235.19 1.79933 0.548261 0
M  V30 2425 O 234.548 1.16662 1.38779 0
M  V30 2426 C 234.596 3.3349 -1.37174 0
M  V30 2427 O 233.7 4.08745 -0.547831 0
M  V30 2428 H 233.041 0.580397 -0.322545 0
M  V30 2429 H 235.571 1.39996 -1.49206 0
M  V30 2430 H 235.581 3.84339 -1.36922 0
M  V30 2431 H 234.256 3.37951 -2.42408 0
M  V30 2432 H 232.833 3.6776 -0.617034 0
M  V30 2433 N 235.018 0.912232 1.28515 0
M  V30 2434 C 236.295 0.463597 1.90027 0
M  V30 2435 C 236.675 -1.05753 1.82701 0
M  V30 2436 O 236.023 -1.90492 1.26194 0
M  V30 2437 C 236.233 0.992253 3.34597 0
M  V30 2438 C 237.581 1.04344 4.11579 0
M  V30 2439 O 238.605 0.94079 3.43551 0
M  V30 2440 O 237.464 1.1995 5.33174 0
M  V30 2441 H 234.558 0.146666 0.813891 0
M  V30 2442 H 237.104 1.00292 1.36893 0
M  V30 2443 H 235.876 2.03623 3.34146 0
M  V30 2444 H 235.499 0.433672 3.95228 0
M  V30 2445 N 236.496 -1.42363 0.676048 0
M  V30 2446 C 237.745 -2.00745 0.196037 0
M  V30 2447 C 238.058 -1.54083 -1.20489 0
M  V30 2448 O 239.264 -2.04891 -1.78134 0
M  V30 2449 C 237.72 -3.58651 0.299616 0
M  V30 2450 C 237.328 -4.143 1.70468 0
M  V30 2451 C 239.072 -4.24326 -0.121619 0
M  V30 2452 C 236.979 -5.64574 1.76096 0
M  V30 2453 H 235.909 -0.750787 0.0695301 0
M  V30 2454 H 238.56 -1.63072 0.841412 0
M  V30 2455 H 236.942 -3.93833 -0.413673 0
M  V30 2456 H 238.116 -3.90575 2.44515 0
M  V30 2457 H 236.431 -3.61081 2.07387 0
M  V30 2458 H 239.028 -5.34607 -0.0997362 0
M  V30 2459 H 239.371 -3.99897 -1.15708 0
M  V30 2460 H 239.904 -3.94108 0.540706 0
M  V30 2461 H 236.643 -5.93804 2.77628 0
M  V30 2462 H 236.163 -5.90286 1.06406 0
M  V30 2463 H 237.842 -6.29013 1.51496 0
M  V30 2464 N 237.974 -0.419461 -1.51915 0
M  V30 2465 C 238.922 0.415502 -2.28859 0
M  V30 2466 C 239.916 1.03674 -1.3397 0
M  V30 2467 O 241.122 0.973757 -1.51387 0
M  V30 2468 H 237.497 0.152786 -0.736315 0
M  V30 2469 H 239.468 -0.254531 -2.97312 0
M  V30 2470 C 238.217 1.51425 -3.12995 0
M  V30 2471 H 237.54 1.04556 -3.85886 0
M  V30 2472 H 238.98 2.07208 -3.6992 0
M  V30 2473 C 237.439 2.48745 -2.27217 0
M  V30 2474 O 237.969 3.52871 -1.9195 0
M  V30 2475 N 236.175 2.19202 -1.90785 0
M  V30 2476 H 235.722 1.34556 -2.19664 0
M  V30 2477 H 235.68 2.84561 -1.33687 0
M  V30 2478 N 239.452 1.56882 -0.150215 0
M  V30 2479 C 240.382 2.19935 0.784284 0
M  V30 2480 C 241.363 1.14854 1.25469 0
M  V30 2481 O 242.548 1.43209 1.31168 0
M  V30 2482 C 239.678 2.82349 2.02229 0
M  V30 2483 C 238.632 3.93285 1.68853 0
M  V30 2484 C 237.958 4.42649 2.99944 0
M  V30 2485 C 239.258 5.13904 0.932714 0
M  V30 2486 H 240.952 2.9828 0.258781 0
M  V30 2487 H 238.498 1.43473 0.123029 0
M  V30 2488 H 240.451 3.25126 2.68088 0
M  V30 2489 H 239.175 2.0134 2.57157 0
M  V30 2490 H 237.834 3.5113 1.05371 0
M  V30 2491 H 237.482 3.58458 3.52869 0
M  V30 2492 H 237.182 5.17476 2.78374 0
M  V30 2493 H 238.706 4.88099 3.66868 0
M  V30 2494 H 240.12 5.53506 1.49345 0
M  V30 2495 H 238.517 5.94515 0.81684 0
M  V30 2496 H 239.587 4.84842 -0.0749568 0
M  V30 2497 N 240.93 -0.123565 1.57115 0
M  V30 2498 C 241.893 -1.13583 1.99076 0
M  V30 2499 C 242.893 -1.34564 0.880296 0
M  V30 2500 O 244.083 -1.31158 1.14644 0
M  V30 2501 C 241.215 -2.49128 2.32698 0
M  V30 2502 H 242.408 -0.775287 2.89706 0
M  V30 2503 H 239.961 -0.36771 1.51913 0
M  V30 2504 H 240.696 -2.90111 1.44934 0
M  V30 2505 H 240.481 -2.35255 3.13684 0
M  V30 2506 H 241.971 -3.2199 2.65918 0
M  V30 2507 N 242.408 -1.52605 -0.393616 0
M  V30 2508 C 243.355 -1.77055 -1.48054 0
M  V30 2509 C 244.325 -0.61358 -1.54352 0
M  V30 2510 O 245.51 -0.852806 -1.70681 0
M  V30 2511 C 242.65 -1.94108 -2.85335 0
M  V30 2512 C 241.763 -3.21792 -2.88226 0
M  V30 2513 C 240.898 -3.29188 -4.16904 0
M  V30 2514 C 239.937 -4.51013 -4.13828 0
M  V30 2515 N 239.074 -4.55716 -5.34105 0
M  V30 2516 H 243.914 -2.69815 -1.26506 0
M  V30 2517 H 241.451 -1.33683 -0.61379 0
M  V30 2518 H 243.409 -2.01979 -3.65049 0
M  V30 2519 H 242.039 -1.04713 -3.05344 0
M  V30 2520 H 241.091 -3.23015 -2.00911 0
M  V30 2521 H 242.403 -4.11557 -2.8182 0
M  V30 2522 H 241.557 -3.36216 -5.05018 0
M  V30 2523 H 240.296 -2.37389 -4.26026 0
M  V30 2524 H 239.301 -4.44115 -3.24102 0
M  V30 2525 H 240.526 -5.44123 -4.06333 0
M  V30 2526 H 238.472 -3.66807 -5.43865 0
M  V30 2527 H 238.389 -5.39346 -5.29756 0
M  V30 2528 H 239.657 -4.66993 -6.2413 0
M  V30 2529 N 243.887 0.651787 -1.4349 0
M  V30 2530 C 245.136 1.40754 -1.44469 0
M  V30 2531 C 245.449 1.95463 -0.0731845 0
M  V30 2532 O 246.655 2.71471 0.0395721 0
M  V30 2533 C 245.111 2.54735 -2.5424 0
M  V30 2534 C 244.719 2.06628 -3.97504 0
M  V30 2535 C 246.463 3.32092 -2.64414 0
M  V30 2536 C 244.37 3.17829 -4.98737 0
M  V30 2537 H 243.3 0.528862 -0.53742 0
M  V30 2538 H 245.951 0.703365 -1.69485 0
M  V30 2539 H 244.333 3.2763 -2.22428 0
M  V30 2540 H 245.507 1.40734 -4.38783 0
M  V30 2541 H 243.822 1.42146 -3.91387 0
M  V30 2542 H 246.419 4.14952 -3.37223 0
M  V30 2543 H 246.762 3.80217 -1.69532 0
M  V30 2544 H 247.295 2.66279 -2.95534 0
M  V30 2545 H 244.034 2.74671 -5.95177 0
M  V30 2546 H 243.554 3.82429 -4.62069 0
M  V30 2547 H 245.233 3.82937 -5.21505 0
M  V30 2548 N 245.365 1.30045 0.890287 0
M  V30 2549 C 246.642 1.09227 1.62262 0
M  V30 2550 C 247.022 -0.360305 2.08002 0
M  V30 2551 O 246.37 -1.35084 1.84295 0
M  V30 2552 C 246.58 2.08835 2.79623 0
M  V30 2553 C 247.928 2.40266 3.50082 0
M  V30 2554 O 248.952 2.07104 2.89804 0
M  V30 2555 O 247.811 2.96967 4.58773 0
M  V30 2556 H 244.905 0.419132 0.712922 0
M  V30 2557 H 247.451 1.41451 0.937529 0
M  V30 2558 H 246.223 3.06633 2.43089 0
M  V30 2559 H 245.846 1.77397 3.55832 0
M  V30 2560 N 246.843 -1.10192 1.12674 0
M  V30 2561 C 248.12 -1.78717 0.794965 0
M  V30 2562 C 248.5 -1.98628 -0.714853 0
M  V30 2563 O 247.848 -1.58135 -1.64941 0
M  V30 2564 C 248.058 -3.11546 1.5729 0
M  V30 2565 C 249.406 -3.86382 1.76052 0
M  V30 2566 O 250.43 -3.21274 1.53823 0
M  V30 2567 O 249.289 -5.03246 2.13087 0
M  V30 2568 H 246.383 -0.774702 0.289423 0
M  V30 2569 H 248.929 -1.16819 1.23091 0
M  V30 2570 H 247.701 -2.92489 2.59935 0
M  V30 2571 H 247.324 -3.81164 1.13137 0
M  V30 2572 N 248.321 -0.919034 -1.28029 0
M  V30 2573 C 249.598 -0.473668 -1.89778 0
M  V30 2574 C 249.978 1.04783 -1.83259 0
M  V30 2575 O 249.326 1.8982 -1.27202 0
M  V30 2576 C 249.536 -1.00998 -3.34066 0
M  V30 2577 C 250.884 -1.06525 -4.1102 0
M  V30 2578 O 251.908 -0.958996 -3.43048 0
M  V30 2579 O 250.767 -1.22776 -5.3253 0
M  V30 2580 H 247.861 -0.15098 -0.813101 0
M  V30 2581 H 250.407 -1.01016 -1.36359 0
M  V30 2582 H 249.179 -2.05392 -3.33061 0
M  V30 2583 H 248.802 -0.454626 -3.94992 0
M  V30 2584 N 249.799 1.42003 -0.683588 0
M  V30 2585 C 250.762 2.29191 -0.0198243 0
M  V30 2586 C 251.762 1.43773 0.72013 0
M  V30 2587 O 252.952 1.65061 0.556815 0
M  V30 2588 C 250.084 3.26435 0.982487 0
M  V30 2589 H 251.277 2.8938 -0.787345 0
M  V30 2590 H 248.83 1.49789 -0.446418 0
M  V30 2591 H 249.565 2.71203 1.77819 0
M  V30 2592 H 249.35 3.89449 0.455182 0
M  V30 2593 H 250.84 3.918 1.44508 0
M  V30 2594 N 251.277 0.427512 1.51691 0
M  V30 2595 C 252.225 -0.403359 2.29076 0
M  V30 2596 C 253.219 -1.02962 1.34518 0
M  V30 2597 O 254.425 -0.965715 1.51901 0
M  V30 2598 H 250.8 -0.148879 0.737115 0
M  V30 2599 H 252.771 0.270295 2.97173 0
M  V30 2600 C 251.52 -1.49763 3.13794 0
M  V30 2601 H 250.843 -1.02508 3.86435 0
M  V30 2602 H 252.283 -2.05244 3.71014 0
M  V30 2603 C 250.742 -2.47536 2.28533 0
M  V30 2604 O 251.272 -3.51848 1.93819 0
M  V30 2605 N 249.478 -2.18187 1.91945 0
M  V30 2606 H 249.025 -1.33389 2.20375 0
M  V30 2607 H 248.983 -2.83848 1.35195 0
M  V30 2608 N 252.755 -1.56801 0.158532 0
M  V30 2609 C 253.685 -2.20347 -0.772609 0
M  V30 2610 C 254.666 -1.15518 -1.24859 0
M  V30 2611 O 255.851 -1.43902 -1.30406 0
M  V30 2612 C 252.981 -2.83417 -2.00729 0
M  V30 2613 C 251.935 -3.94174 -1.66765 0
M  V30 2614 C 251.261 -4.44233 -2.97592 0
M  V30 2615 C 252.561 -5.14392 -0.905447 0
M  V30 2616 H 254.255 -2.98413 -0.242959 0
M  V30 2617 H 251.801 -1.43537 -0.115419 0
M  V30 2618 H 253.754 -3.26543 -2.6636 0
M  V30 2619 H 252.478 -2.02701 -2.56086 0
M  V30 2620 H 251.137 -3.51684 -1.03508 0
M  V30 2621 H 250.785 -3.60325 -3.50963 0
M  V30 2622 H 250.485 -5.18945 -2.75626 0
M  V30 2623 H 252.009 -4.90037 -3.64274 0
M  V30 2624 H 253.423 -5.5429 -1.46408 0
M  V30 2625 H 251.82 -5.9494 -0.7853 0
M  V30 2626 H 252.89 -4.84795 0.100668 0
M  V30 2627 N 254.233 0.115231 -1.57178 0
M  V30 2628 C 255.143 1.15994 -2.03918 0
M  V30 2629 C 256.159 1.45103 -0.960268 0
M  V30 2630 O 257.335 1.56144 -1.27204 0
M  V30 2631 C 254.4 2.46568 -2.43732 0
M  V30 2632 C 253.461 2.24822 -3.65723 0
M  V30 2633 C 252.694 3.4917 -4.03629 0
M  V30 2634 O 252.917 4.56623 -3.41835 0
M  V30 2635 O 251.851 3.39949 -4.96708 0
M  V30 2636 H 255.677 0.793019 -2.93164 0
M  V30 2637 H 253.262 0.3263 -1.45793 0
M  V30 2638 H 255.144 3.23492 -2.70057 0
M  V30 2639 H 253.819 2.82726 -1.57631 0
M  V30 2640 H 252.726 1.45744 -3.44542 0
M  V30 2641 H 254.059 1.93566 -4.52541 0
M  V30 2642 N 255.711 1.52812 0.385517 0
M  V30 2643 C 257.127 1.4214 0.725829 0
M  V30 2644 C 257.327 0.544589 1.94001 0
M  V30 2645 O 256.383 0.0193693 2.52493 0
M  V30 2646 C 257.696 2.85042 0.957668 0
M  V30 2647 C 259.244 2.94543 1.05892 0
M  V30 2648 C 259.719 4.38464 1.32337 0
M  V30 2649 N 261.21 4.41804 1.39151 0
M  V30 2650 C 261.945 5.5025 1.61285 0
M  V30 2651 N 261.441 6.68775 1.80866 0
M  V30 2652 N 263.234 5.37798 1.63492 0
M  V30 2653 H 255.385 2.08338 -0.413383 0
M  V30 2654 H 257.648 0.940016 -0.122775 0
M  V30 2655 H 257.354 3.51431 0.137568 0
M  V30 2656 H 257.228 3.27505 1.87137 0
M  V30 2657 H 259.615 2.28321 1.86959 0
M  V30 2658 H 259.696 2.55504 0.123057 0
M  V30 2659 H 259.34 5.05254 0.517793 0
M  V30 2660 H 259.27 4.75059 2.27214 0
M  V30 2661 H 261.761 3.56377 1.25713 0
M  V30 2662 H 262.074 7.47197 1.97271 0
M  V30 2663 H 260.419 6.71797 1.78083 0
M  V30 2664 H 263.61 4.44171 1.47749 0
M  V30 2665 H 263.783 6.22382 1.80402 0
M  V30 2666 N 257.189 -0.644168 1.43834 0
M  V30 2667 C 258.435 -1.40603 1.46146 0
M  V30 2668 C 258.768 -1.93997 0.0887717 0
M  V30 2669 O 258.043 -1.72854 -0.891724 0
M  V30 2670 C 258.326 -2.58086 2.51124 0
M  V30 2671 C 258.179 -2.10126 3.97702 0
M  V30 2672 C 259.498 -3.60291 2.52742 0
M  V30 2673 H 256.617 -0.509905 0.532134 0
M  V30 2674 H 259.259 -0.729502 1.75437 0
M  V30 2675 H 257.409 -3.15801 2.26278 0
M  V30 2676 H 259.081 -1.57342 4.33637 0
M  V30 2677 H 257.324 -1.41419 4.10101 0
M  V30 2678 H 257.995 -2.94649 4.66783 0
M  V30 2679 H 260.471 -3.12352 2.7491 0
M  V30 2680 H 259.347 -4.40032 3.28121 0
M  V30 2681 H 259.608 -4.1349 1.56455 0
M  V30 2682 N 258.668 -1.30515 -0.883378 0
M  V30 2683 C 259.908 -1.20716 -1.64946 0
M  V30 2684 C 260.272 0.234072 -1.90568 0
M  V30 2685 O 261.473 0.455335 -2.64915 0
M  V30 2686 C 259.744 -2.01444 -2.9522 0
M  V30 2687 S 261.303 -2.0836 -3.86175 0
M  V30 2688 H 258.121 -0.430165 -0.566109 0
M  V30 2689 H 260.723 -1.65011 -1.04841 0
M  V30 2690 H 259.427 -3.05268 -2.74298 0
M  V30 2691 H 258.958 -1.57817 -3.60357 0
M  V30 2692 H 260.973 -1.21215 -4.81167 0
M  V30 2693 N 260.146 1.09593 -1.13257 0
M  V30 2694 C 261.076 2.18214 -0.830946 0
M  V30 2695 C 262.057 1.68812 0.208966 0
M  V30 2696 O 263.242 1.9408 0.0682666 0
M  V30 2697 C 260.372 3.46051 -0.294296 0
M  V30 2698 C 259.326 4.08778 -1.26826 0
M  V30 2699 C 258.652 5.31419 -0.591449 0
M  V30 2700 C 259.952 4.51476 -2.62615 0
M  V30 2701 H 261.646 2.43703 -1.73923 0
M  V30 2702 H 259.192 1.17128 -0.837675 0
M  V30 2703 H 261.145 4.2134 -0.0709606 0
M  V30 2704 H 259.869 3.20079 0.649366 0
M  V30 2705 H 258.528 3.35505 -1.47756 0
M  V30 2706 H 258.176 5.01727 0.357633 0
M  V30 2707 H 257.876 5.74341 -1.24123 0
M  V30 2708 H 259.4 6.09433 -0.377355 0
M  V30 2709 H 260.814 5.17999 -2.45663 0
M  V30 2710 H 259.211 5.05277 -3.23752 0
M  V30 2711 H 260.281 3.63962 -3.20406 0
M  V30 2712 N 261.624 0.925811 1.2754 0
M  V30 2713 C 262.554 0.440748 2.29303 0
M  V30 2714 C 263.535 -0.497971 1.62648 0
M  V30 2715 O 264.72 -0.403126 1.8997 0
M  V30 2716 C 261.85 -0.309048 3.45922 0
M  V30 2717 C 260.804 0.54166 4.24559 0
M  V30 2718 C 260.13 -0.337191 5.33636 0
M  V30 2719 C 261.43 1.80516 4.90114 0
M  V30 2720 H 263.124 1.29121 2.70126 0
M  V30 2721 H 260.67 0.622323 1.29858 0
M  V30 2722 H 262.623 -0.659315 4.1621 0
M  V30 2723 H 261.347 -1.19352 3.04011 0
M  V30 2724 H 260.006 0.874609 3.56014 0
M  V30 2725 H 259.654 -1.22056 4.87966 0
M  V30 2726 H 259.354 0.228497 5.87156 0
M  V30 2727 H 260.878 -0.683072 6.06767 0
M  V30 2728 H 262.292 1.52307 5.52698 0
M  V30 2729 H 260.689 2.3142 5.53683 0
M  V30 2730 H 261.759 2.52581 4.13921 0
M  V30 2731 N 263.102 -1.41638 0.69111 0
M  V30 2732 C 264.35 -2.00902 0.219758 0
M  V30 2733 C 264.671 -1.54994 -1.18329 0
M  V30 2734 O 263.941 -0.778628 -1.79762 0
M  V30 2735 H 262.521 -0.74289 0.0782558 0
M  V30 2736 H 265.183 -1.73327 0.891271 0
M  V30 2737 H 264.279 -3.11224 0.233708 0
M  V30 2738 N 264.58 -0.43555 -1.51462 0
M  V30 2739 C 265.82 0.130708 -2.03982 0
M  V30 2740 C 266.184 1.40117 -1.31268 0
M  V30 2741 O 267.385 2.04755 -1.74152 0
M  V30 2742 C 265.656 0.346102 -3.5572 0
M  V30 2743 S 267.215 0.876022 -4.29967 0
M  V30 2744 H 264.033 0.0326881 -0.710248 0
M  V30 2745 H 266.635 -0.594544 -1.8624 0
M  V30 2746 H 265.339 -0.584911 -4.0621 0
M  V30 2747 H 264.87 1.09849 -3.77752 0
M  V30 2748 H 266.885 2.15379 -4.47019 0
M  V30 2749 N 266.058 1.56714 -0.166846 0
M  V30 2750 C 267.306 1.96358 0.478305 0
M  V30 2751 C 267.627 1.0537 1.6408 0
M  V30 2752 O 266.897 0.119154 1.95537 0
M  V30 2753 H 265.477 0.725065 0.179692 0
M  V30 2754 H 268.139 1.93329 -0.246985 0
M  V30 2755 H 267.235 3.00547 0.841292 0
M  V30 2756 N 267.536 -0.106894 1.57237 0
M  V30 2757 C 268.783 -0.812526 1.85484 0
M  V30 2758 C 269.111 -1.79304 0.753687 0
M  V30 2759 O 268.366 -1.94047 -0.253853 0
M  V30 2760 C 268.665 -1.58628 3.20268 0
M  V30 2761 C 268.331 -0.748967 4.44636 0
M  V30 2762 C 266.993 -0.518104 4.78403 0
M  V30 2763 C 269.345 -0.166122 5.20935 0
M  V30 2764 C 266.673 0.305659 5.85903 0
M  V30 2765 C 269.025 0.644899 6.29304 0
M  V30 2766 C 267.689 0.885965 6.61594 0
M  V30 2767 H 266.959 -0.297324 0.678734 0
M  V30 2768 H 269.606 -0.0744332 1.91355 0
M  V30 2769 H 267.911 -2.39562 3.10028 0
M  V30 2770 H 269.608 -2.13643 3.39349 0
M  V30 2771 H 266.198 -0.939006 4.18187 0
M  V30 2772 H 270.382 -0.33167 4.95191 0
M  V30 2773 H 265.638 0.501528 6.0934 0
M  V30 2774 H 269.812 1.10345 6.87602 0
M  V30 2775 H 267.439 1.52609 7.44725 0
M  V30 2776 N 269.014 -1.53014 -0.377408 0
M  V30 2777 C 270.239 -1.72818 -1.14668 0
M  V30 2778 C 270.664 -0.450725 -1.8262 0
M  V30 2779 O 270.022 0.59439 -1.7128 0
M  V30 2780 C 270.07 -2.88627 -2.16164 0
M  V30 2781 O 269.174 -2.56409 -3.22998 0
M  V30 2782 H 268.515 -0.574301 -0.333278 0
M  V30 2783 H 271.045 -1.99853 -0.438152 0
M  V30 2784 H 271.055 -3.14455 -2.59966 0
M  V30 2785 H 269.73 -3.81294 -1.66095 0
M  V30 2786 H 268.307 -2.4136 -2.84253 0
M  V30 2787 N 270.492 0.636531 -1.44174 0
M  V30 2788 C 271.72 1.42353 -1.50144 0
M  V30 2789 C 272.135 1.88389 -0.124575 0
M  V30 2790 O 271.492 1.6051 0.868489 0
M  V30 2791 C 271.543 2.64744 -2.46156 0
M  V30 2792 O 271.264 2.20629 -3.7849 0
M  V30 2793 C 272.765 3.57929 -2.61537 0
M  V30 2794 H 269.985 0.436752 -0.5094 0
M  V30 2795 H 272.529 0.778933 -1.89084 0
M  V30 2796 H 270.684 3.25307 -2.10366 0
M  V30 2797 H 271.098 2.99938 -4.30276 0
M  V30 2798 H 272.572 4.40428 -3.32757 0
M  V30 2799 H 273.049 4.06382 -1.66585 0
M  V30 2800 H 273.655 3.03238 -2.98206 0
M  V30 2801 N 271.97 1.30982 0.876444 0
M  V30 2802 C 273.218 1.20058 1.62575 0
M  V30 2803 C 273.539 -0.242947 1.93481 0
M  V30 2804 O 272.809 -1.1619 1.57724 0
M  V30 2805 H 271.389 0.44135 0.602677 0
M  V30 2806 H 274.051 1.64222 1.04962 0
M  V30 2807 H 273.147 1.76762 2.57219 0
M  V30 2808 N 273.449 -1.08991 1.13837 0
M  V30 2809 C 274.679 -1.84743 0.924859 0
M  V30 2810 C 275.087 -1.81629 -0.529874 0
M  V30 2811 O 274.43 -1.21397 -1.37872 0
M  V30 2812 C 274.492 -3.33568 1.34061 0
M  V30 2813 C 274.156 -3.60425 2.80968 0
M  V30 2814 C 275.153 -3.55771 3.79108 0
M  V30 2815 C 272.838 -3.88627 3.18236 0
M  V30 2816 C 274.832 -3.78939 5.12527 0
M  V30 2817 C 272.519 -4.11449 4.51833 0
M  V30 2818 C 273.517 -4.06598 5.48787 0
M  V30 2819 O 273.205 -4.28826 6.79973 0
M  V30 2820 H 272.937 -0.590258 0.329502 0
M  V30 2821 H 275.491 -1.38598 1.51591 0
M  V30 2822 H 273.721 -3.80442 0.692853 0
M  V30 2823 H 275.41 -3.90743 1.09886 0
M  V30 2824 H 276.176 -3.34005 3.51661 0
M  V30 2825 H 272.055 -3.91526 2.43369 0
M  V30 2826 H 275.599 -3.75068 5.88192 0
M  V30 2827 H 271.496 -4.32698 4.79002 0
M  V30 2828 H 272.264 -4.46264 6.86142 0
M  V30 2829 N 274.927 -0.932562 -1.27047 0
M  V30 2830 C 276.175 -0.574422 -1.93765 0
M  V30 2831 C 276.496 0.887993 -1.73608 0
M  V30 2832 O 275.766 1.62999 -1.08665 0
M  V30 2833 H 274.346 -0.209451 -0.717035 0
M  V30 2834 H 277.008 -1.18601 -1.5466 0
M  V30 2835 H 276.104 -0.784841 -3.02071 0
M  V30 2836 N 276.405 1.4127 -0.698611 0
M  V30 2837 C 277.368 2.29158 -0.044132 0
M  V30 2838 C 278.368 1.44529 0.704841 0
M  V30 2839 O 279.558 1.65643 0.539276 0
M  V30 2840 C 276.69 3.27459 0.947809 0
M  V30 2841 H 277.883 2.88529 -0.817994 0
M  V30 2842 H 275.436 1.49307 -0.46228 0
M  V30 2843 H 276.171 2.73073 1.74933 0
M  V30 2844 H 275.956 3.8991 0.41385 0
M  V30 2845 H 277.446 3.93311 1.40344 0
M  V30 2846 N 277.883 0.443576 1.51229 0
M  V30 2847 C 278.846 -0.353132 2.26463 0
M  V30 2848 C 279.846 -0.944338 1.3015 0
M  V30 2849 O 281.036 -0.817813 1.5381 0
M  V30 2850 C 278.168 -1.50023 3.06114 0
M  V30 2851 H 279.361 0.3063 2.98332 0
M  V30 2852 H 276.914 0.196902 1.55055 0
M  V30 2853 H 277.649 -2.19553 2.38677 0
M  V30 2854 H 277.434 -1.08241 3.76864 0
M  V30 2855 H 278.924 -2.06296 3.63087 0
M  V30 2856 N 279.361 -1.56624 0.175154 0
M  V30 2857 C 280.61 -1.96173 -0.468921 0
M  V30 2858 C 280.923 -1.06401 -1.64128 0
M  V30 2859 O 282.129 -1.35648 -2.35185 0
M  V30 2860 C 280.585 -3.48833 -0.885633 0
M  V30 2861 C 280.193 -4.47237 0.261343 0
M  V30 2862 C 281.937 -3.97194 -1.49791 0
M  V30 2863 C 279.844 -5.9114 -0.175214 0
M  V30 2864 H 278.774 -0.732455 -0.178958 0
M  V30 2865 H 281.425 -1.81591 0.263997 0
M  V30 2866 H 279.807 -3.58848 -1.67464 0
M  V30 2867 H 280.981 -4.4894 1.03871 0
M  V30 2868 H 279.296 -4.08956 0.783827 0
M  V30 2869 H 281.893 -5.02167 -1.83665 0
M  V30 2870 H 282.236 -3.40351 -2.39722 0
M  V30 2871 H 282.769 -3.90212 -0.773267 0
M  V30 2872 H 279.508 -6.51865 0.689414 0
M  V30 2873 H 279.028 -5.92735 -0.91786 0
M  V30 2874 H 280.707 -6.44044 -0.617792 0
M  V30 2875 N 280.839 0.0985539 -1.57292 0
M  V30 2876 C 281.787 1.1387 -2.02821 0
M  V30 2877 C 282.781 1.41676 -0.928666 0
M  V30 2878 O 283.987 1.41398 -1.11385 0
M  V30 2879 H 280.362 0.384419 -0.646317 0
M  V30 2880 H 282.333 0.728347 -2.89375 0
M  V30 2881 C 281.082 2.45166 -2.46554 0
M  V30 2882 H 280.405 2.24613 -3.3074 0
M  V30 2883 H 281.845 3.16456 -2.8219 0
M  V30 2884 C 280.304 3.09216 -1.33742 0
M  V30 2885 O 280.834 3.96163 -0.66464 0
M  V30 2886 N 279.04 2.69413 -1.08928 0
M  V30 2887 H 278.587 1.98801 -1.63817 0
M  V30 2888 H 278.545 3.12594 -0.336458 0
M  V30 2889 N 282.317 1.53212 0.369288 0
M  V30 2890 C 283.265 1.80054 1.47253 0
M  V30 2891 C 284.259 0.669456 1.55611 0
M  V30 2892 O 285.465 0.852328 1.58541 0
M  V30 2893 H 281.84 0.570034 0.490475 0
M  V30 2894 H 283.811 2.72403 1.21817 0
M  V30 2895 C 282.56 2.00403 2.84137 0
M  V30 2896 H 281.883 2.86876 2.78464 0
M  V30 2897 H 283.323 2.23164 3.60519 0
M  V30 2898 C 281.782 0.782081 3.27697 0
M  V30 2899 O 282.312 -0.0310205 4.01688 0
M  V30 2900 N 280.518 0.606573 2.84199 0
M  V30 2901 H 280.065 1.26939 2.24152 0
M  V30 2902 H 280.023 -0.20962 3.137 0
M  V30 2903 N 283.795 -0.628877 1.44509 0
M  V30 2904 C 284.758 -1.72263 1.51188 0
M  V30 2905 C 285.758 -1.55907 0.39367 0
M  V30 2906 O 286.948 -1.61361 0.656377 0
M  V30 2907 C 284.08 -3.11365 1.38798 0
M  V30 2908 H 285.273 -1.67714 2.4862 0
M  V30 2909 H 282.826 -0.842737 1.31634 0
M  V30 2910 H 283.561 -3.21507 0.424693 0
M  V30 2911 H 283.346 -3.24644 2.19884 0
M  V30 2912 H 284.836 -3.91075 1.46458 0
M  V30 2913 N 285.273 -1.31445 -0.869486 0
M  V30 2914 C 286.22 -1.19135 -1.97675 0
M  V30 2915 C 287.19 -0.0770266 -1.65921 0
M  V30 2916 O 288.375 -0.249972 -1.89155 0
M  V30 2917 C 285.515 -0.905149 -3.33018 0
M  V30 2918 C 284.628 -2.10285 -3.77365 0
M  V30 2919 C 283.763 -1.75339 -5.01427 0
M  V30 2920 C 282.802 -2.91515 -5.38224 0
M  V30 2921 N 281.939 -2.56762 -6.53466 0
M  V30 2922 H 286.779 -2.13853 -2.07535 0
M  V30 2923 H 284.316 -1.06379 -1.01597 0
M  V30 2924 H 286.274 -0.719765 -4.10944 0
M  V30 2925 H 284.904 0.00519624 -3.228 0
M  V30 2926 H 283.956 -2.39899 -2.95216 0
M  V30 2927 H 285.268 -2.97237 -4.00564 0
M  V30 2928 H 284.422 -1.53266 -5.87022 0
M  V30 2929 H 283.161 -0.855801 -4.80133 0
M  V30 2930 H 282.166 -3.14237 -4.51149 0
M  V30 2931 H 283.391 -3.81985 -5.61484 0
M  V30 2932 H 281.337 -1.69526 -6.33717 0
M  V30 2933 H 281.254 -3.37243 -6.76612 0
M  V30 2934 H 282.522 -2.38083 -7.42251 0
M  V30 2935 N 286.751 1.08385 -1.14413 0
M  V30 2936 C 287.997 1.81044 -0.913834 0
M  V30 2937 C 288.33 1.86004 0.558209 0
M  V30 2938 O 287.605 1.33606 1.4135 0
M  V30 2939 C 287.888 3.26648 -1.51569 0
M  V30 2940 C 287.741 3.29895 -3.0576 0
M  V30 2941 C 289.06 4.23629 -1.19273 0
M  V30 2942 H 286.179 0.65727 -0.333414 0
M  V30 2943 H 288.821 1.26896 -1.41412 0
M  V30 2944 H 286.971 3.72889 -1.09023 0
M  V30 2945 H 288.643 2.91977 -3.57137 0
M  V30 2946 H 286.886 2.69163 -3.40197 0
M  V30 2947 H 287.557 4.32516 -3.42977 0
M  V30 2948 H 290.033 3.85727 -1.56057 0
M  V30 2949 H 288.909 5.23822 -1.64017 0
M  V30 2950 H 289.17 4.41968 -0.108068 0
M  V30 2951 N 288.23 0.939286 1.26551 0
M  V30 2952 C 289.458 0.602536 1.97932 0
M  V30 2953 C 289.873 -0.82206 1.69964 0
M  V30 2954 O 289.23 -1.54789 0.966784 0
M  V30 2955 C 289.281 0.832946 3.51773 0
M  V30 2956 O 289.002 2.20151 3.78768 0
M  V30 2957 C 290.503 0.506483 4.40397 0
M  V30 2958 H 287.723 0.227248 0.631347 0
M  V30 2959 H 290.267 1.25948 1.61113 0
M  V30 2960 H 288.422 0.222644 3.8676 0
M  V30 2961 H 288.836 2.26013 4.73306 0
M  V30 2962 H 290.31 0.718333 5.47306 0
M  V30 2963 H 290.787 -0.558451 4.35635 0
M  V30 2964 H 291.393 1.09543 4.10951 0
M  V30 2965 N 289.708 -1.40897 0.706093 0
M  V30 2966 C 291.119 -1.84023 0.315052 0
M  V30 2967 C 291.47 -1.5906 -1.14866 0
M  V30 2968 O 290.595 -1.06651 -1.88293 0
M  V30 2969 C 291.19 -3.34055 0.565038 0
M  V30 2970 C 289.749 -3.7571 0.227806 0
M  V30 2971 C 288.896 -2.64204 0.842122 0
M  V30 2972 H 291.847 -1.303 0.905963 0
M  V30 2973 H 291.868 -3.80107 -0.172843 0
M  V30 2974 H 291.38 -3.52192 1.63042 0
M  V30 2975 H 289.481 -3.63172 -0.832895 0
M  V30 2976 H 289.594 -4.74103 0.690174 0
M  V30 2977 H 287.958 -2.53255 0.270893 0
M  V30 2978 H 288.741 -2.85155 1.91158 0
M  V30 2979 N 291.186 -0.45159 -1.50991 0
M  V30 2980 C 292.434 0.109857 -2.01801 0
M  V30 2981 C 292.755 1.41958 -1.3369 0
M  V30 2982 O 292.025 1.9003 -0.475951 0
M  V30 2983 H 290.605 0.0435884 -0.745727 0
M  V30 2984 H 293.267 -0.597557 -1.85514 0
M  V30 2985 H 292.363 0.275489 -3.10882 0
M  V30 2986 N 292.664 1.56529 -0.183458 0
M  V30 2987 C 293.889 2.02064 0.467428 0
M  V30 2988 C 294.314 1.06282 1.55196 0
M  V30 2989 O 293.672 0.0443565 1.81246 0
M  V30 2990 C 293.72 3.46122 1.01153 0
M  V30 2991 O 292.824 3.53437 2.12499 0
M  V30 2992 H 292.165 0.654726 0.110588 0
M  V30 2993 H 294.695 2.02521 -0.290917 0
M  V30 2994 H 294.705 3.85676 1.33108 0
M  V30 2995 H 293.38 4.15331 0.217533 0
M  V30 2996 H 291.957 3.2575 1.81497 0
M  V30 2997 N 294.142 -0.090211 1.57342 0
M  V30 2998 C 295.37 -0.806224 1.90546 0
M  V30 2999 C 295.785 -1.72041 0.777644 0
M  V30 3000 O 295.142 -1.80778 -0.250103 0
M  V30 3001 C 295.193 -1.61546 3.23396 0
M  V30 3002 O 294.914 -0.738043 4.31839 0
M  V30 3003 C 296.415 -2.4341 3.70495 0
M  V30 3004 H 293.635 -0.230256 0.630257 0
M  V30 3005 H 296.179 -0.0659843 2.04394 0
M  V30 3006 H 294.334 -2.30816 3.11131 0
M  V30 3007 H 294.748 -1.29901 5.08159 0
M  V30 3008 H 296.222 -2.95676 4.66133 0
M  V30 3009 H 296.699 -3.22098 2.98579 0
M  V30 3010 H 297.305 -1.79331 3.85643 0
M  V30 3011 N 295.62 -1.53406 -0.361157 0
M  V30 3012 C 296.86 -1.71507 -1.11197 0
M  V30 3013 C 297.224 -0.459337 -1.86425 0
M  V30 3014 O 298.425 -0.517102 -2.63779 0
M  V30 3015 C 296.696 -2.93307 -2.0422 0
M  V30 3016 S 298.255 -3.32135 -2.86761 0
M  V30 3017 H 295.073 -0.603448 -0.375995 0
M  V30 3018 H 297.675 -1.91516 -0.392642 0
M  V30 3019 H 296.379 -3.82891 -1.47724 0
M  V30 3020 H 295.91 -2.75712 -2.80618 0
M  V30 3021 H 297.925 -2.84493 -4.06544 0
M  V30 3022 N 297.098 0.621204 -1.44841 0
M  V30 3023 C 298.061 1.71459 -1.521 0
M  V30 3024 C 299.061 1.55696 -0.401933 0
M  V30 3025 O 300.251 1.61011 -0.664925 0
M  V30 3026 C 297.383 3.10624 -1.40447 0
M  V30 3027 H 298.576 1.66394 -2.49506 0
M  V30 3028 H 296.129 0.835745 -1.3208 0
M  V30 3029 H 296.864 3.21277 -0.441737 0
M  V30 3030 H 296.649 3.23473 -2.21602 0
M  V30 3031 H 298.139 3.90293 -1.4853 0
M  V30 3032 N 298.576 1.31904 0.862503 0
M  V30 3033 C 299.822 1.22197 1.61851 0
M  V30 3034 C 300.155 -0.217641 1.92977 0
M  V30 3035 O 299.43 -1.15264 1.56666 0
M  V30 3036 C 299.713 2.07378 2.94391 0
M  V30 3037 C 299.566 3.59678 2.70096 0
M  V30 3038 C 300.885 1.92891 3.95577 0
M  V30 3039 H 298.004 0.445255 0.587296 0
M  V30 3040 H 300.646 1.6177 0.99651 0
M  V30 3041 H 298.796 1.73758 3.47477 0
M  V30 3042 H 300.468 4.03472 2.23625 0
M  V30 3043 H 298.711 3.82735 2.04197 0
M  V30 3044 H 299.382 4.14595 3.64438 0
M  V30 3045 H 301.858 2.22327 3.51724 0
M  V30 3046 H 300.734 2.54781 4.86187 0
M  V30 3047 H 300.995 0.894315 4.3296 0
M  V30 3048 N 300.054 -1.07777 1.14986 0
M  V30 3049 C 301.301 -1.8029 0.922056 0
M  V30 3050 C 301.629 -1.86531 -0.55105 0
M  V30 3051 O 300.884 -1.34189 -1.42449 0
M  V30 3052 C 301.183 -3.25495 1.47608 0
M  V30 3053 C 300.849 -3.39361 2.96893 0
M  V30 3054 C 299.511 -3.42852 3.37647 0
M  V30 3055 C 301.863 -3.42512 3.92854 0
M  V30 3056 C 299.191 -3.47094 4.73015 0
M  V30 3057 C 301.543 -3.4829 5.28088 0
M  V30 3058 C 300.207 -3.50058 5.68345 0
M  V30 3059 H 299.477 -0.659727 0.337404 0
M  V30 3060 H 302.124 -1.26854 1.43459 0
M  V30 3061 H 300.429 -3.81683 0.88463 0
M  V30 3062 H 302.126 -3.80168 1.27568 0
M  V30 3063 H 298.716 -3.37339 2.64387 0
M  V30 3064 H 302.9 -3.3904 3.62444 0
M  V30 3065 H 298.156 -3.46758 5.03556 0
M  V30 3066 H 302.33 -3.49675 6.02246 0
M  V30 3067 H 299.957 -3.53097 6.73221 0
M  V30 3068 N 301.532 -0.945985 -1.26051 0
M  V30 3069 C 302.78 -0.594941 -1.93145 0
M  V30 3070 C 303.101 0.86953 -1.7454 0
M  V30 3071 O 302.371 1.61838 -1.10387 0
M  V30 3072 H 300.951 -0.217044 -0.714773 0
M  V30 3073 H 303.613 -1.20235 -1.53393 0
M  V30 3074 H 302.709 -0.816835 -3.01221 0
M  V30 3075 N 303.011 1.40521 -0.713556 0
M  V30 3076 C 303.941 2.33381 -0.0743864 0
M  V30 3077 C 304.922 1.52784 0.747735 0
M  V30 3078 O 306.107 1.81258 0.697071 0
M  V30 3079 C 303.237 3.36748 0.849598 0
M  V30 3080 C 302.191 4.27793 0.133247 0
M  V30 3081 C 301.517 5.21679 1.17281 0
M  V30 3082 C 302.817 5.12415 -1.01134 0
M  V30 3083 H 304.511 2.87081 -0.850007 0
M  V30 3084 H 302.057 1.38034 -0.410201 0
M  V30 3085 H 304.01 4.00648 1.30612 0
M  V30 3086 H 302.734 2.81439 1.65709 0
M  V30 3087 H 301.393 3.65342 -0.303426 0
M  V30 3088 H 301.041 4.62677 1.9733 0
M  V30 3089 H 300.741 5.83435 0.698397 0
M  V30 3090 H 302.265 5.88456 1.62947 0
M  V30 3091 H 303.679 5.69781 -0.634274 0
M  V30 3092 H 302.076 5.83203 -1.41399 0
M  V30 3093 H 303.146 4.48514 -1.84292 0
M  V30 3094 N 304.489 0.459591 1.5075 0
M  V30 3095 C 305.737 -0.0991532 2.01857 0
M  V30 3096 C 306.058 -1.41247 1.34441 0
M  V30 3097 O 305.328 -1.89775 0.486022 0
M  V30 3098 H 303.908 -0.039633 0.745948 0
M  V30 3099 H 306.57 0.607387 1.85194 0
M  V30 3100 H 305.666 -0.258998 3.11023 0
M  V30 3101 N 305.967 -1.56429 0.191757 0
M  V30 3102 C 307.215 -1.97095 -0.447006 0
M  V30 3103 C 307.536 -1.07967 -1.62383 0
M  V30 3104 O 306.806 -0.150248 -1.95323 0
M  V30 3105 H 305.386 -0.727832 -0.168135 0
M  V30 3106 H 308.048 -1.92911 0.27771 0
M  V30 3107 H 307.144 -3.01848 -0.793371 0
M  V30 3108 N 307.445 0.0818655 -1.57387 0
M  V30 3109 C 308.691 0.784074 -1.8703 0
M  V30 3110 C 309.024 1.77729 -0.782689 0
M  V30 3111 O 308.299 1.93384 0.208051 0
M  V30 3112 C 308.582 1.50105 -3.27323 0
M  V30 3113 C 308.435 0.524925 -4.46727 0
M  V30 3114 C 309.754 2.44843 -3.65705 0
M  V30 3115 H 306.873 0.283582 -0.680257 0
M  V30 3116 H 309.515 0.0474352 -1.89941 0
M  V30 3117 H 307.665 2.12897 -3.24972 0
M  V30 3118 H 309.337 -0.0970111 -4.61198 0
M  V30 3119 H 307.58 -0.160606 -4.33503 0
M  V30 3120 H 308.251 1.064 -5.41648 0
M  V30 3121 H 310.727 1.92135 -3.69085 0
M  V30 3122 H 309.603 2.92018 -4.64776 0
M  V30 3123 H 309.864 3.29197 -2.95096 0
M  V30 3124 N 308.923 1.53595 0.353017 0
M  V30 3125 C 310.171 1.70049 1.09215 0
M  V30 3126 C 310.492 0.461406 1.89463 0
M  V30 3127 O 309.762 -0.524633 1.88744 0
M  V30 3128 H 308.342 0.626912 0.40619 0
M  V30 3129 H 311.004 1.90822 0.396585 0
M  V30 3130 H 310.1 2.56718 1.77488 0
M  V30 3131 N 310.401 -0.613514 1.45168 0
M  V30 3132 C 311.331 -1.7354 1.56225 0
M  V30 3133 C 312.312 -1.64981 0.41414 0
M  V30 3134 O 313.497 -1.83472 0.636526 0
M  V30 3135 C 310.627 -3.12128 1.52295 0
M  V30 3136 C 309.581 -3.35491 2.65762 0
M  V30 3137 C 308.907 -4.74291 2.46885 0
M  V30 3138 C 310.207 -3.26325 4.0781 0
M  V30 3139 H 311.901 -1.64543 2.50132 0
M  V30 3140 H 309.447 -0.790185 1.20383 0
M  V30 3141 H 311.4 -3.90404 1.58628 0
M  V30 3142 H 310.124 -3.2195 0.549139 0
M  V30 3143 H 308.783 -2.59603 2.58847 0
M  V30 3144 H 308.431 -4.80839 1.47657 0
M  V30 3145 H 308.131 -4.9088 3.22972 0
M  V30 3146 H 309.655 -5.54775 2.55063 0
M  V30 3147 H 311.069 -3.94483 4.16 0
M  V30 3148 H 309.466 -3.54445 4.8424 0
M  V30 3149 H 310.536 -2.23855 4.30136 0
M  V30 3150 N 311.879 -1.3236 -0.855495 0
M  V30 3151 C 313.104 -1.2601 -1.64731 0
M  V30 3152 C 313.529 0.169068 -1.87339 0
M  V30 3153 O 312.887 1.12016 -1.42556 0
M  V30 3154 C 312.935 -2.02417 -2.98429 0
M  V30 3155 O 312.039 -1.3714 -3.8893 0
M  V30 3156 H 311.38 -0.434325 -0.502253 0
M  V30 3157 H 313.91 -1.74661 -1.06558 0
M  V30 3158 H 313.92 -2.12559 -3.48257 0
M  V30 3159 H 312.595 -3.06343 -2.81295 0
M  V30 3160 H 311.172 -1.3554 -3.47395 0
M  V30 3161 N 313.357 1.07166 -1.15556 0
M  V30 3162 C 314.32 2.12589 -0.856644 0
M  V30 3163 C 315.32 1.6015 0.14444 0
M  V30 3164 O 316.51 1.7399 -0.0854163 0
M  V30 3165 C 313.642 3.39753 -0.279405 0
M  V30 3166 H 314.835 2.40539 -1.79112 0
M  V30 3167 H 312.388 1.23086 -0.963298 0
M  V30 3168 H 313.123 3.17447 0.663174 0
M  V30 3169 H 312.908 3.79117 -1.00063 0
M  V30 3170 H 314.398 4.17507 -0.0879113 0
M  V30 3171 N 314.835 0.952656 1.25548 0
M  V30 3172 C 316.081 0.607272 1.93494 0
M  V30 3173 C 316.414 -0.853245 1.74452 0
M  V30 3174 O 315.689 -1.61194 1.08843 0
M  V30 3175 C 315.972 0.96435 3.46947 0
M  V30 3176 C 315.825 2.48045 3.75225 0
M  V30 3177 C 317.144 0.487987 4.37386 0
M  V30 3178 H 314.263 0.222096 0.702739 0
M  V30 3179 H 316.905 1.18895 1.48203 0
M  V30 3180 H 315.055 0.469361 3.85654 0
M  V30 3181 H 316.727 3.04905 3.46166 0
M  V30 3182 H 314.97 2.919 3.209 0
M  V30 3183 H 315.641 2.6808 4.82532 0
M  V30 3184 H 318.117 0.912558 4.0597 0
M  V30 3185 H 316.993 0.766547 5.43521 0
M  V30 3186 H 317.254 -0.612063 4.37843 0
M  V30 3187 N 316.313 -1.40141 0.720998 0
M  V30 3188 C 317.246 -2.2819 0.020916 0
M  V30 3189 C 318.224 -1.43633 -0.762129 0
M  V30 3190 O 319.408 -1.7304 -0.747633 0
M  V30 3191 C 316.535 -3.24281 -0.977715 0
M  V30 3192 C 315.581 -4.25548 -0.284836 0
M  V30 3193 S 316.414 -5.26247 0.991169 0
M  V30 3194 C 317.57 -6.259 -0.0052214 0
M  V30 3195 H 317.803 -2.87218 0.767649 0
M  V30 3196 H 315.336 -1.45656 0.512233 0
M  V30 3197 H 317.294 -3.80167 -1.54865 0
M  V30 3198 H 315.955 -2.643 -1.69719 0
M  V30 3199 H 315.148 -4.93154 -1.03996 0
M  V30 3200 H 314.75 -3.73389 0.213684 0
M  V30 3201 H 317.042 -6.72143 -0.850279 0
M  V30 3202 H 317.985 -7.05224 0.637599 0
M  V30 3203 H 318.393 -5.63277 -0.371366 0
M  V30 3204 N 317.792 -0.46758 -1.50504 0
M  V30 3205 C 319.04 0.0884469 -2.01906 0
M  V30 3206 C 319.361 1.40532 -1.35188 0
M  V30 3207 O 318.631 1.89515 -0.496079 0
M  V30 3208 H 317.211 0.0356765 -0.746148 0
M  V30 3209 H 319.873 -0.6172 -1.84869 0
M  V30 3210 H 318.969 0.2425 -3.11156 0
M  V30 3211 N 319.27 1.56325 -0.20005 0
M  V30 3212 C 320.51 1.99619 0.439519 0
M  V30 3213 C 320.874 1.08423 1.58456 0
M  V30 3214 O 322.075 1.40973 2.28867 0
M  V30 3215 C 320.346 3.46314 0.883258 0
M  V30 3216 S 321.905 4.11634 1.51997 0
M  V30 3217 H 318.723 0.697007 0.140363 0
M  V30 3218 H 321.325 1.93118 -0.304282 0
M  V30 3219 H 320.029 4.10381 0.0398967 0
M  V30 3220 H 319.56 3.56643 1.6604 0
M  V30 3221 H 321.575 4.09049 2.8088 0
M  V30 3222 N 320.748 -0.0735177 1.57428 0
M  V30 3223 C 321.695 -1.08756 2.0357 0
M  V30 3224 C 322.665 -1.38559 0.916 0
M  V30 3225 O 323.85 -1.49656 1.18354 0
M  V30 3226 C 320.99 -2.39657 2.48311 0
M  V30 3227 C 320.103 -2.16399 3.73892 0
M  V30 3228 C 319.238 -3.40852 4.07423 0
M  V30 3229 C 318.277 -3.1295 5.2605 0
M  V30 3230 N 317.414 -4.29729 5.55228 0
M  V30 3231 H 322.254 -0.687104 2.8997 0
M  V30 3232 H 319.791 -0.327709 1.43403 0
M  V30 3233 H 321.749 -3.16081 2.72303 0
M  V30 3234 H 320.379 -2.77508 1.64891 0
M  V30 3235 H 319.431 -1.30676 3.57251 0
M  V30 3236 H 320.743 -1.91788 4.60455 0
M  V30 3237 H 319.897 -4.25671 4.32306 0
M  V30 3238 H 318.636 -3.68537 3.19425 0
M  V30 3239 H 317.641 -2.26526 5.00965 0
M  V30 3240 H 318.866 -2.86589 6.15665 0
M  V30 3241 H 316.812 -4.57448 4.70188 0
M  V30 3242 H 316.729 -4.08385 6.36206 0
M  V30 3243 H 317.997 -5.1555 5.84661 0
M  V30 3244 N 322.226 -1.5378 -0.344866 0
M  V30 3245 C 323.189 -1.80981 -1.40637 0
M  V30 3246 C 324.189 -0.680816 -1.45676 0
M  V30 3247 O 325.379 -0.949095 -1.46075 0
M  V30 3248 C 322.511 -1.95063 -2.79577 0
M  V30 3249 H 323.704 -2.75803 -1.17783 0
M  V30 3250 H 321.257 -1.45173 -0.579181 0
M  V30 3251 H 321.992 -1.02379 -3.07716 0
M  V30 3252 H 321.777 -2.77198 -2.77315 0
M  V30 3253 H 323.267 -2.17629 -3.56409 0
M  V30 3254 N 323.704 0.605807 -1.45491 0
M  V30 3255 C 324.667 1.69836 -1.5391 0
M  V30 3256 C 325.667 1.55261 -0.418424 0
M  V30 3257 O 326.857 1.60296 -0.681965 0
M  V30 3258 C 323.989 3.09117 -1.43734 0
M  V30 3259 H 325.182 1.63738 -2.51257 0
M  V30 3260 H 322.735 0.821689 -1.32959 0
M  V30 3261 H 323.47 3.20791 -0.475788 0
M  V30 3262 H 323.255 3.21104 -2.25021 0
M  V30 3263 H 324.745 3.88696 -1.52661 0
M  V30 3264 N 325.182 1.32811 0.848464 0
M  V30 3265 C 326.43 1.23479 1.59991 0
M  V30 3266 C 326.751 -0.201853 1.93952 0
M  V30 3267 O 326.021 -1.12818 1.60153 0
M  V30 3268 H 324.601 0.454034 0.593179 0
M  V30 3269 H 327.263 1.66412 1.01455 0
M  V30 3270 H 326.359 1.82178 2.53412 0
M  V30 3271 N 326.66 -1.06551 1.16123 0
M  V30 3272 C 327.623 -2.12132 0.867906 0
M  V30 3273 C 328.623 -1.60224 -0.135944 0
M  V30 3274 O 329.813 -1.73943 0.0946422 0
M  V30 3275 C 326.945 -3.396 0.297419 0
M  V30 3276 H 328.138 -2.39586 1.80385 0
M  V30 3277 H 325.691 -1.22574 0.969812 0
M  V30 3278 H 326.426 -3.17794 -0.64633 0
M  V30 3279 H 326.211 -3.78581 1.02073 0
M  V30 3280 H 327.701 -4.17455 0.110052 0
M  V30 3281 N 328.138 -0.959301 -1.25041 0
M  V30 3282 C 329.363 -0.633507 -1.97488 0
M  V30 3283 C 329.788 0.788555 -1.70773 0
M  V30 3284 O 329.146 1.53394 -0.966431 0
M  V30 3285 C 329.194 -0.904057 -3.49083 0
M  V30 3286 O 328.298 0.0147939 -4.12397 0
M  V30 3287 H 327.639 -0.240368 -0.618966 0
M  V30 3288 H 330.169 -1.28717 -1.59038 0
M  V30 3289 H 330.179 -0.832203 -3.99423 0
M  V30 3290 H 328.854 -1.94048 -3.67856 0
M  V30 3291 H 327.431 -0.109664 -3.72739 0
M  V30 3292 N 329.616 1.39756 -0.72842 0
M  V30 3293 C 331.032 1.5442 -0.403308 0
M  V30 3294 C 331.232 1.69694 1.08656 0
M  V30 3295 O 330.288 1.69373 1.87267 0
M  V30 3296 C 331.601 2.76555 -1.18058 0
M  V30 3297 C 333.149 2.90384 -1.16815 0
M  V30 3298 C 333.624 4.15449 -1.92785 0
M  V30 3299 N 335.115 4.22475 -1.89918 0
M  V30 3300 C 335.85 5.1818 -2.45514 0
M  V30 3301 N 335.346 6.19714 -3.09719 0
M  V30 3302 N 337.139 5.1035 -2.35584 0
M  V30 3303 H 329.29 1.28089 -1.69431 0
M  V30 3304 H 331.553 0.620327 -0.716867 0
M  V30 3305 H 331.259 2.7159 -2.23455 0
M  V30 3306 H 331.133 3.69033 -0.780662 0
M  V30 3307 H 333.52 2.94846 -0.12234 0
M  V30 3308 H 333.601 1.98988 -1.6074 0
M  V30 3309 H 333.245 4.11749 -2.97364 0
M  V30 3310 H 333.175 5.05877 -1.46272 0
M  V30 3311 H 335.666 3.49743 -1.43138 0
M  V30 3312 H 335.979 6.8919 -3.49625 0
M  V30 3313 H 334.324 6.20121 -3.13807 0
M  V30 3314 H 337.515 4.2996 -1.85072 0
M  V30 3315 H 337.688 5.84761 -2.79211 0
M  V30 3316 N 331.094 0.475555 1.50254 0
M  V30 3317 C 332.343 -0.0795996 2.01543 0
M  V30 3318 C 332.656 -1.4038 1.36209 0
M  V30 3319 O 333.862 -2.04415 1.7868 0
M  V30 3320 C 332.318 -0.192363 3.59386 0
M  V30 3321 C 331.926 1.12367 4.33679 0
M  V30 3322 C 333.67 -0.699238 4.18701 0
M  V30 3323 C 331.577 0.974453 5.83317 0
M  V30 3324 H 330.507 -0.0335228 0.753254 0
M  V30 3325 H 333.158 0.611128 1.73025 0
M  V30 3326 H 331.54 -0.946974 3.84511 0
M  V30 3327 H 332.714 1.88958 4.20276 0
M  V30 3328 H 331.029 1.562 3.85993 0
M  V30 3329 H 333.626 -0.827978 5.28251 0
M  V30 3330 H 333.969 -1.69171 3.80377 0
M  V30 3331 H 334.502 -0.00188807 3.978 0
M  V30 3332 H 331.241 1.94042 6.26121 0
M  V30 3333 H 330.761 0.248998 5.99283 0
M  V30 3334 H 332.44 0.642867 6.43798 0
M  V30 3335 N 332.573 -1.56217 0.208337 0
M  V30 3336 C 333.822 -1.97124 -0.427204 0
M  V30 3337 C 334.135 -1.09859 -1.61835 0
M  V30 3338 O 335.341 -1.40606 -2.32255 0
M  V30 3339 C 333.797 -3.50633 -0.811442 0
M  V30 3340 C 333.405 -4.46582 0.35615 0
M  V30 3341 C 335.149 -4.00282 -1.41332 0
M  V30 3342 C 333.056 -5.91379 -0.0497852 0
M  V30 3343 H 331.986 -0.736086 -0.163381 0
M  V30 3344 H 334.637 -1.8099 0.302456 0
M  V30 3345 H 333.019 -3.62319 -1.59815 0
M  V30 3346 H 334.193 -4.46636 1.1337 0
M  V30 3347 H 332.508 -4.07202 0.870396 0
M  V30 3348 H 335.105 -5.0595 -1.72972 0
M  V30 3349 H 335.448 -3.45359 -2.32449 0
M  V30 3350 H 335.981 -3.91764 -0.690323 0
M  V30 3351 H 332.72 -6.50255 0.827529 0
M  V30 3352 H 332.24 -5.94549 -0.791926 0
M  V30 3353 H 333.919 -6.45209 -0.481042 0
M  V30 3354 N 334.051 0.0651679 -1.57465 0
M  V30 3355 C 335.299 0.761555 -1.87202 0
M  V30 3356 C 335.62 1.77778 -0.801243 0
M  V30 3357 O 334.89 1.95166 0.16937 0
M  V30 3358 H 333.47 0.284251 -0.690804 0
M  V30 3359 H 336.132 0.0396827 -1.9486 0
M  V30 3360 H 335.228 1.27365 -2.84929 0
M  V30 3361 N 335.529 1.53961 0.336706 0
M  V30 3362 C 336.778 1.70751 1.07363 0
M  V30 3363 C 337.091 0.481061 1.89592 0
M  V30 3364 O 338.297 0.530046 2.66276 0
M  V30 3365 C 336.753 3.01965 1.95818 0
M  V30 3366 C 336.361 4.31971 1.18764 0
M  V30 3367 C 338.105 3.28121 2.69327 0
M  V30 3368 C 336.012 5.54255 2.06289 0
M  V30 3369 H 334.942 0.636292 0.404535 0
M  V30 3370 H 337.593 1.80459 0.332681 0
M  V30 3371 H 335.975 2.86132 2.7376 0
M  V30 3372 H 337.149 4.5853 0.456849 0
M  V30 3373 H 335.464 4.12481 0.569946 0
M  V30 3374 H 338.061 4.16673 3.35094 0
M  V30 3375 H 338.404 2.45426 3.36261 0
M  V30 3376 H 338.937 3.44762 1.98454 0
M  V30 3377 H 335.676 6.39513 1.43885 0
M  V30 3378 H 335.196 5.31935 2.77138 0
M  V30 3379 H 336.875 5.90159 2.65182 0
M  V30 3380 N 337.007 -0.598083 1.45811 0
M  V30 3381 C 338.284 -1.35777 1.40797 0
M  V30 3382 C 338.664 -2.10935 0.083462 0
M  V30 3383 O 338.012 -2.08505 -0.934763 0
M  V30 3384 C 338.222 -2.29666 2.62783 0
M  V30 3385 C 339.57 -2.91977 3.08277 0
M  V30 3386 O 340.594 -2.39984 2.63223 0
M  V30 3387 O 339.453 -3.86376 3.86491 0
M  V30 3388 H 336.547 -0.609291 0.55919 0
M  V30 3389 H 339.093 -0.620379 1.57954 0
M  V30 3390 H 337.865 -1.73454 3.50756 0
M  V30 3391 H 337.488 -3.1077 2.48008 0
M  V30 3392 N 338.485 -1.33259 -0.841409 0
M  V30 3393 C 339.734 -1.23921 -1.59143 0
M  V30 3394 C 340.047 0.1941 -1.94635 0
M  V30 3395 O 341.253 0.409474 -2.68394 0
M  V30 3396 C 339.709 -2.17119 -2.87032 0
M  V30 3397 C 339.317 -3.65606 -2.58914 0
M  V30 3398 C 341.061 -2.16648 -3.65053 0
M  V30 3399 C 338.968 -4.50726 -3.82884 0
M  V30 3400 H 337.898 -0.460264 -0.597221 0
M  V30 3401 H 340.549 -1.58307 -0.927959 0
M  V30 3402 H 338.931 -1.75663 -3.54906 0
M  V30 3403 H 340.105 -4.15487 -1.99267 0
M  V30 3404 H 338.42 -3.68341 -1.942 0
M  V30 3405 H 341.017 -2.77474 -4.57069 0
M  V30 3406 H 341.36 -1.16088 -3.99787 0
M  V30 3407 H 341.893 -2.56453 -3.041 0
M  V30 3408 H 338.632 -5.52151 -3.53283 0
M  V30 3409 H 338.152 -4.0559 -4.41879 0
M  V30 3410 H 339.831 -4.64401 -4.50489 0
M  V30 3411 N 339.963 1.05934 -1.16686 0
M  V30 3412 C 340.911 2.15603 -0.872817 0
M  V30 3413 C 341.905 1.68647 0.159576 0
M  V30 3414 O 343.111 1.79995 0.0132125 0
M  V30 3415 H 339.486 0.703885 -0.264671 0
M  V30 3416 H 341.457 2.37613 -1.80507 0
M  V30 3417 C 340.206 3.45457 -0.394344 0
M  V30 3418 H 339.529 3.81984 -1.18019 0
M  V30 3419 H 340.969 4.2339 -0.227408 0
M  V30 3420 C 339.428 3.25021 0.88673 0
M  V30 3421 O 339.958 3.50906 1.95519 0
M  V30 3422 N 338.164 2.78437 0.831925 0
M  V30 3423 H 337.711 2.57572 -0.0377619 0
M  V30 3424 H 337.669 2.65144 1.68956 0
M  V30 3425 N 341.441 0.965919 1.2453 0
M  V30 3426 C 342.666 0.643971 1.97149 0
M  V30 3427 C 343.091 -0.779487 1.71189 0
M  V30 3428 O 342.449 -1.5288 0.974553 0
M  V30 3429 C 342.497 0.922557 3.48599 0
M  V30 3430 O 341.601 0.00707672 4.12399 0
M  V30 3431 H 340.942 0.243647 0.617683 0
M  V30 3432 H 343.472 1.29558 1.58353 0
M  V30 3433 H 343.482 0.853373 3.98976 0
M  V30 3434 H 342.157 1.95996 3.66822 0
M  V30 3435 H 340.734 0.12943 3.72675 0
M  V30 3436 N 342.919 -1.39368 0.735821 0
M  V30 3437 C 343.829 -2.34395 0.0979693 0
M  V30 3438 C 344.845 -1.58361 -0.720968 0
M  V30 3439 O 346.021 -1.90648 -0.649245 0
M  V30 3440 C 343.086 -3.37393 -0.797916 0
M  V30 3441 C 342.147 -4.29287 0.0333662 0
M  V30 3442 C 341.38 -5.27365 -0.819854 0
M  V30 3443 O 341.603 -5.31959 -2.05855 0
M  V30 3444 O 340.537 -6.01389 -0.248079 0
M  V30 3445 H 344.363 -2.90601 0.882315 0
M  V30 3446 H 341.948 -1.40909 0.4965 0
M  V30 3447 H 343.83 -4.00505 -1.31048 0
M  V30 3448 H 342.505 -2.83571 -1.56106 0
M  V30 3449 H 341.412 -3.69395 0.591475 0
M  V30 3450 H 342.745 -4.86317 0.758752 0
M  V30 3451 N 344.397 -0.483516 -1.5 0
M  V30 3452 C 345.344 0.304164 -2.28787 0
M  V30 3453 C 346.314 0.976114 -1.34392 0
M  V30 3454 O 347.499 0.986156 -1.63339 0
M  V30 3455 C 344.639 1.37298 -3.16612 0
M  V30 3456 C 343.752 0.714561 -4.26049 0
M  V30 3457 C 342.887 1.76232 -5.01114 0
M  V30 3458 C 341.926 1.08483 -6.0241 0
M  V30 3459 N 341.063 2.076 -6.70706 0
M  V30 3460 H 345.903 -0.373981 -2.95644 0
M  V30 3461 H 343.44 -0.196275 -1.45785 0
M  V30 3462 H 345.398 2.00445 -3.65893 0
M  V30 3463 H 344.028 2.02012 -2.51776 0
M  V30 3464 H 343.08 -0.0297798 -3.80388 0
M  V30 3465 H 344.392 0.180383 -4.98474 0
M  V30 3466 H 343.546 2.46929 -5.54176 0
M  V30 3467 H 342.285 2.33033 -4.28424 0
M  V30 3468 H 341.29 0.363545 -5.48597 0
M  V30 3469 H 342.515 0.523551 -6.77079 0
M  V30 3470 H 340.461 2.63394 -6.00799 0
M  V30 3471 H 340.378 1.59201 -7.39047 0
M  V30 3472 H 341.646 2.77639 -7.2838 0
M  V30 3473 N 345.875 1.56104 -0.216619 0
M  V30 3474 C 347.122 1.98172 0.416416 0
M  V30 3475 C 347.45 1.10413 1.60122 0
M  V30 3476 O 346.705 0.147967 1.9514 0
M  V30 3477 C 347.004 3.45923 0.898464 0
M  V30 3478 C 346.67 4.50559 -0.175288 0
M  V30 3479 C 345.332 4.78897 -0.470271 0
M  V30 3480 C 347.684 5.1334 -0.901728 0
M  V30 3481 C 345.012 5.67299 -1.4963 0
M  V30 3482 C 347.364 6.02853 -1.91705 0
M  V30 3483 C 346.028 6.29537 -2.21901 0
M  V30 3484 H 345.298 0.725164 0.152377 0
M  V30 3485 H 347.945 1.88839 -0.318103 0
M  V30 3486 H 346.25 3.52434 1.71165 0
M  V30 3487 H 347.947 3.75841 1.39803 0
M  V30 3488 H 344.537 4.28551 0.0647806 0
M  V30 3489 H 348.721 4.91521 -0.687072 0
M  V30 3490 H 343.977 5.86239 -1.73592 0
M  V30 3491 H 348.151 6.50552 -2.48505 0
M  V30 3492 H 345.778 6.97835 -3.01548 0
M  V30 3493 N 347.353 -0.0568162 1.57498 0
M  V30 3494 C 348.599 -0.75422 1.88253 0
M  V30 3495 C 348.932 -1.76461 0.810865 0
M  V30 3496 O 348.207 -1.93691 -0.177259 0
M  V30 3497 C 348.49 -1.44878 3.2967 0
M  V30 3498 C 348.343 -0.453789 4.47505 0
M  V30 3499 C 349.662 -2.38994 3.69554 0
M  V30 3500 H 346.781 -0.272724 0.684683 0
M  V30 3501 H 349.423 -0.0172113 1.89992 0
M  V30 3502 H 347.573 -2.077 3.28318 0
M  V30 3503 H 349.245 0.170371 4.60985 0
M  V30 3504 H 347.488 0.229552 4.33192 0
M  V30 3505 H 348.159 -0.977699 5.43273 0
M  V30 3506 H 350.635 -1.86239 3.72095 0
M  V30 3507 H 349.511 -2.84587 4.69363 0
M  V30 3508 H 349.772 -3.24461 3.00296 0
M  V30 3509 N 348.832 -1.54138 -0.328536 0
M  V30 3510 C 349.779 -1.83176 -1.40411 0
M  V30 3511 C 350.749 -0.678494 -1.5161 0
M  V30 3512 O 351.934 -0.92443 -1.6691 0
M  V30 3513 C 349.074 -2.06035 -2.76846 0
M  V30 3514 C 348.187 -3.33727 -2.74318 0
M  V30 3515 C 347.322 -3.46574 -4.02567 0
M  V30 3516 C 346.361 -4.68159 -3.94327 0
M  V30 3517 N 345.498 -4.77959 -5.14296 0
M  V30 3518 H 350.338 -2.74938 -1.14948 0
M  V30 3519 H 347.875 -1.36166 -0.556538 0
M  V30 3520 H 349.833 -2.1728 -3.56153 0
M  V30 3521 H 348.463 -1.1757 -3.00628 0
M  V30 3522 H 347.515 -3.31246 -1.8703 0
M  V30 3523 H 348.827 -4.23139 -2.64111 0
M  V30 3524 H 347.981 -3.57333 -4.90304 0
M  V30 3525 H 346.72 -2.55245 -4.15574 0
M  V30 3526 H 345.725 -4.57461 -3.04974 0
M  V30 3527 H 346.95 -5.60868 -3.82889 0
M  V30 3528 H 344.896 -3.89544 -5.27818 0
M  V30 3529 H 344.813 -5.6133 -5.06404 0
M  V30 3530 H 346.081 -4.93044 -6.03761 0
M  V30 3531 N 350.31 0.590341 -1.46126 0
M  V30 3532 C 351.273 1.68194 -1.55703 0
M  V30 3533 C 352.273 1.54808 -0.434868 0
M  V30 3534 O 353.463 1.59564 -0.698928 0
M  V30 3535 C 350.595 3.07575 -1.47005 0
M  V30 3536 H 351.788 1.61064 -2.52979 0
M  V30 3537 H 349.341 0.807541 -1.33823 0
M  V30 3538 H 350.076 3.20268 -0.509785 0
M  V30 3539 H 349.861 3.187 -2.28414 0
M  V30 3540 H 351.351 3.87055 -1.56776 0
M  V30 3541 N 351.788 1.33704 0.83433 0
M  V30 3542 C 352.735 1.24335 1.94447 0
M  V30 3543 C 353.705 0.120991 1.65659 0
M  V30 3544 O 354.89 0.300035 1.88426 0
M  V30 3545 C 352.03 0.993124 3.30501 0
M  V30 3546 C 351.143 2.20217 3.71657 0
M  V30 3547 C 350.278 1.88572 4.96602 0
M  V30 3548 C 349.317 3.05683 5.30306 0
M  V30 3549 N 348.454 2.73997 6.46429 0
M  V30 3550 H 353.294 2.1928 2.01792 0
M  V30 3551 H 350.831 1.09035 0.987404 0
M  V30 3552 H 352.789 0.828467 4.08892 0
M  V30 3553 H 351.419 0.0803902 3.227 0
M  V30 3554 H 350.471 2.47642 2.88752 0
M  V30 3555 H 351.783 3.07752 3.92543 0
M  V30 3556 H 350.937 1.68776 5.82752 0
M  V30 3557 H 349.676 0.982799 4.77695 0
M  V30 3558 H 348.681 3.26088 4.42659 0
M  V30 3559 H 349.906 3.96737 5.51159 0
M  V30 3560 H 347.852 1.86268 6.28999 0
M  V30 3561 H 347.769 3.55064 6.67432 0
M  V30 3562 H 349.037 2.57679 7.35678 0
M  V30 3563 N 353.266 -1.05314 1.17247 0
M  V30 3564 C 354.229 -2.112 0.890357 0
M  V30 3565 C 355.229 -1.60359 -0.118943 0
M  V30 3566 O 356.419 -1.73833 0.113086 0
M  V30 3567 C 353.551 -3.39266 0.333422 0
M  V30 3568 H 354.744 -2.37659 1.82916 0
M  V30 3569 H 352.297 -1.21538 0.982758 0
M  V30 3570 H 353.032 -3.18462 -0.612587 0
M  V30 3571 H 352.817 -3.77477 1.06082 0
M  V30 3572 H 354.307 -4.17315 0.154322 0
M  V30 3573 N 354.744 -0.972509 -1.24016 0
M  V30 3574 C 355.674 -0.525548 -2.27509 0
M  V30 3575 C 356.655 0.437262 -1.64384 0
M  V30 3576 O 357.84 0.332343 -1.91335 0
M  V30 3577 C 354.97 0.180448 -3.46831 0
M  V30 3578 C 353.924 -0.698859 -4.22256 0
M  V30 3579 C 353.25 0.138903 -5.3452 0
M  V30 3580 C 354.55 -1.98582 -4.83076 0
M  V30 3581 H 356.244 -1.39058 -2.65148 0
M  V30 3582 H 353.79 -0.67009 -1.27459 0
M  V30 3583 H 355.743 0.504387 -4.18371 0
M  V30 3584 H 354.467 1.07987 -3.08231 0
M  V30 3585 H 353.126 -1.00614 -3.52523 0
M  V30 3586 H 352.774 1.03862 -4.9216 0
M  V30 3587 H 352.474 -0.446259 -5.85903 0
M  V30 3588 H 353.998 0.457404 -6.08884 0
M  V30 3589 H 355.412 -1.72715 -5.46665 0
M  V30 3590 H 353.809 -2.5181 -5.44713 0
M  V30 3591 H 354.879 -2.67769 -4.04262 0
M  V30 3592 N 356.222 1.38976 -0.743202 0
M  V30 3593 C 357.47 1.99948 -0.29417 0
M  V30 3594 C 357.791 1.59279 1.12495 0
M  V30 3595 O 357.061 0.844808 1.76748 0
M  V30 3596 H 355.641 0.739473 -0.105774 0
M  V30 3597 H 358.303 1.699 -0.954986 0
M  V30 3598 H 357.399 3.10142 -0.349056 0
M  V30 3599 N 357.7 0.491464 1.49741 0
M  V30 3600 C 358.663 -0.280906 2.27472 0
M  V30 3601 C 359.663 -0.902454 1.33088 0
M  V30 3602 O 360.853 -0.768465 1.56334 0
M  V30 3603 C 357.985 -1.40209 3.10732 0
M  V30 3604 H 359.178 0.401056 2.97206 0
M  V30 3605 H 356.731 0.246131 1.5435 0
M  V30 3606 H 357.466 -2.11849 2.45541 0
M  V30 3607 H 357.251 -0.961969 3.80117 0
M  V30 3608 H 358.741 -1.9464 3.69466 0
M  V30 3609 N 359.178 -1.55987 0.224894 0
M  V30 3610 C 360.406 -2.02784 -0.410665 0
M  V30 3611 C 360.821 -1.10464 -1.53112 0
M  V30 3612 O 360.178 -0.114871 -1.82138 0
M  V30 3613 C 360.229 -3.49087 -0.939165 0
M  V30 3614 O 359.95 -4.37887 0.136614 0
M  V30 3615 C 361.451 -4.11543 -1.64763 0
M  V30 3616 H 358.671 -0.663484 -0.100148 0
M  V30 3617 H 361.215 -2.01614 0.342326 0
M  V30 3618 H 359.37 -3.50861 -1.64242 0
M  V30 3619 H 359.784 -5.23849 -0.261155 0
M  V30 3620 H 361.258 -5.15673 -1.96939 0
M  V30 3621 H 361.735 -3.56736 -2.56195 0
M  V30 3622 H 362.341 -4.13629 -0.989503 0
M  V30 3623 N 360.656 0.0484629 -1.57525 0
M  V30 3624 C 361.933 0.777447 -1.79486 0
M  V30 3625 C 362.313 1.94597 -0.818251 0
M  V30 3626 O 361.661 2.28047 0.143767 0
M  V30 3627 C 361.871 1.22864 -3.26658 0
M  V30 3628 C 363.219 1.65251 -3.91123 0
M  V30 3629 O 364.243 1.32372 -3.3069 0
M  V30 3630 O 363.102 2.26207 -4.97486 0
M  V30 3631 H 360.196 0.374357 -0.737419 0
M  V30 3632 H 362.742 0.0267359 -1.69679 0
M  V30 3633 H 361.514 0.393589 -3.89316 0
M  V30 3634 H 361.137 2.03996 -3.41279 0
M  V30 3635 N 362.134 1.5431 0.320358 0
M  V30 3636 C 363.374 1.74395 1.0661 0
M  V30 3637 C 363.738 0.508602 1.85141 0
M  V30 3638 O 364.939 0.586856 2.62316 0
M  V30 3639 C 363.21 2.98619 1.96371 0
M  V30 3640 S 364.769 3.39621 2.77854 0
M  V30 3641 H 361.587 0.613204 0.359863 0
M  V30 3642 H 364.189 1.9249 0.341727 0
M  V30 3643 H 362.893 3.86673 1.3752 0
M  V30 3644 H 362.424 2.83055 2.73209 0
M  V30 3645 H 364.439 2.95172 3.98858 0
M  V30 3646 N 363.613 -0.582584 1.46437 0
M  V30 3647 C 364.543 -1.70187 1.59871 0
M  V30 3648 C 365.524 -1.64066 0.449042 0
M  V30 3649 O 366.709 -1.82081 0.6753 0
M  V30 3650 C 363.839 -3.08827 1.58881 0
M  V30 3651 C 362.793 -3.29779 2.72819 0
M  V30 3652 C 362.119 -4.68947 2.5689 0
M  V30 3653 C 363.419 -3.17601 4.1464 0
M  V30 3654 H 365.113 -1.592 2.53566 0
M  V30 3655 H 362.659 -0.764472 1.22032 0
M  V30 3656 H 364.612 -3.86951 1.66873 0
M  V30 3657 H 363.336 -3.20713 0.617306 0
M  V30 3658 H 361.995 -2.54054 2.64296 0
M  V30 3659 H 361.643 -4.77599 1.57823 0
M  V30 3660 H 361.343 -4.83919 3.33312 0
M  V30 3661 H 362.867 -5.4924 2.66773 0
M  V30 3662 H 364.281 -3.8557 4.24274 0
M  V30 3663 H 362.678 -3.44094 4.9165 0
M  V30 3664 H 363.748 -2.14681 4.34788 0
M  V30 3665 N 365.091 -1.34144 -0.827227 0
M  V30 3666 C 366.039 -1.25364 -1.95925 0
M  V30 3667 C 367.033 -0.152608 -1.68711 0
M  V30 3668 O 368.239 -0.317311 -1.77181 0
M  V30 3669 H 364.614 -0.389342 -0.643364 0
M  V30 3670 H 366.585 -2.21045 -2.00454 0
M  V30 3671 C 365.334 -1.02158 -3.32354 0
M  V30 3672 H 364.657 -1.86111 -3.5384 0
M  V30 3673 H 366.097 -1.00048 -4.12027 0
M  V30 3674 C 364.556 0.275244 -3.35774 0
M  V30 3675 O 365.086 1.27806 -3.80826 0
M  V30 3676 N 363.292 0.306853 -2.88975 0
M  V30 3677 H 362.839 -0.509777 -2.52506 0
M  V30 3678 H 362.797 1.17432 -2.91646 0
M  V30 3679 N 366.569 1.04691 -1.17803 0
M  V30 3680 C 367.98 1.59238 -0.974689 0
M  V30 3681 C 368.331 1.90306 0.477292 0
M  V30 3682 O 367.456 1.68846 1.35352 0
M  V30 3683 C 368.051 2.89318 -1.76296 0
M  V30 3684 C 366.61 3.40506 -1.60414 0
M  V30 3685 C 365.757 2.14172 -1.76141 0
M  V30 3686 H 368.708 0.874395 -1.32439 0
M  V30 3687 H 368.729 3.5944 -1.24833 0
M  V30 3688 H 368.241 2.66675 -2.81968 0
M  V30 3689 H 366.342 3.68175 -0.572519 0
M  V30 3690 H 366.455 4.14753 -2.39827 0
M  V30 3691 H 364.819 2.25176 -1.19028 0
M  V30 3692 H 365.602 1.93992 -2.83235 0
M  V30 3693 N 368.047 0.979072 1.23499 0
M  V30 3694 C 369.463 0.687475 1.44034 0
M  V30 3695 C 369.663 -0.746801 1.8715 0
M  V30 3696 O 368.719 -1.51939 2.0167 0
M  V30 3697 C 370.032 1.68127 2.49307 0
M  V30 3698 C 371.58 1.69516 2.63122 0
M  V30 3699 C 372.055 2.67723 3.71603 0
M  V30 3700 N 373.546 2.66233 3.79044 0
M  V30 3701 C 374.281 3.38891 4.62537 0
M  V30 3702 N 373.777 4.21103 5.50131 0
M  V30 3703 N 375.57 3.27661 4.56721 0
M  V30 3704 H 367.721 1.90559 0.938135 0
M  V30 3705 H 369.984 0.821051 0.473897 0
M  V30 3706 H 369.69 2.70693 2.2454 0
M  V30 3707 H 369.564 1.46306 3.4767 0
M  V30 3708 H 371.951 0.676561 2.8724 0
M  V30 3709 H 372.032 1.95404 1.65079 0
M  V30 3710 H 371.676 3.69724 3.48233 0
M  V30 3711 H 371.606 2.39111 4.69184 0
M  V30 3712 H 374.097 2.06568 3.16446 0
M  V30 3713 H 374.41 4.73403 6.10827 0
M  V30 3714 H 372.755 4.25195 5.49759 0
M  V30 3715 H 375.946 2.62887 3.87309 0
M  V30 3716 H 376.119 3.84547 5.21562 0
M  V30 3717 N 369.525 -1.3858 0.750561 0
M  V30 3718 C 370.802 -1.94231 0.231009 0
M  V30 3719 C 371.182 -1.68611 -1.27018 0
M  V30 3720 O 370.53 -1.02296 -2.04323 0
M  V30 3721 C 370.74 -3.44123 0.581428 0
M  V30 3722 C 372.088 -4.2116 0.539389 0
M  V30 3723 O 373.112 -3.52391 0.519541 0
M  V30 3724 O 371.971 -5.43749 0.54765 0
M  V30 3725 H 369.065 -0.825639 0.0474263 0
M  V30 3726 H 371.611 -1.4799 0.830478 0
M  V30 3727 H 370.383 -3.56267 1.61833 0
M  V30 3728 H 370.006 -3.97573 -0.0462047 0
M  V30 3729 N 371.003 -0.499398 -1.49478 0
M  V30 3730 C 371.933 0.269244 -2.31943 0
M  V30 3731 C 372.914 0.964054 -1.40143 0
M  V30 3732 O 374.099 0.955767 -1.69052 0
M  V30 3733 C 371.229 1.33504 -3.20615 0
M  V30 3734 C 370.183 0.760202 -4.21195 0
M  V30 3735 C 369.509 1.9264 -4.98792 0
M  V30 3736 C 370.809 -0.247661 -5.21712 0
M  V30 3737 H 372.503 -0.419082 -2.96452 0
M  V30 3738 H 370.049 -0.202988 -1.42562 0
M  V30 3739 H 372.002 1.88048 -3.77115 0
M  V30 3740 H 370.726 2.05253 -2.54045 0
M  V30 3741 H 369.385 0.23653 -3.65836 0
M  V30 3742 H 369.033 2.63154 -4.28671 0
M  V30 3743 H 368.733 1.54785 -5.66847 0
M  V30 3744 H 370.257 2.4762 -5.58137 0
M  V30 3745 H 371.671 0.209579 -5.72917 0
M  V30 3746 H 370.068 -0.541962 -5.97648 0
M  V30 3747 H 371.138 -1.16409 -4.7072 0
M  V30 3748 N 372.481 1.55866 -0.233164 0
M  V30 3749 C 373.431 2.17442 0.685774 0
M  V30 3750 C 374.415 1.12617 1.14918 0
M  V30 3751 O 375.607 1.3857 1.10124 0
M  V30 3752 C 372.736 2.86685 1.88856 0
M  V30 3753 C 371.822 3.98749 1.4443 0
M  V30 3754 N 372.213 5.00744 0.713364 0
M  V30 3755 C 370.511 4.11052 1.73068 0
M  V30 3756 C 371.212 5.79673 0.485205 0
M  V30 3757 N 370.188 5.33454 1.04536 0
M  V30 3758 H 373.99 2.93659 0.119022 0
M  V30 3759 H 371.504 1.62362 -0.0348995 0
M  V30 3760 H 373.501 3.29218 2.55776 0
M  V30 3761 H 372.161 2.11967 2.45967 0
M  V30 3762 H 373.172 5.16613 0.364861 0
M  V30 3763 H 369.849 3.47495 2.31416 0
M  V30 3764 H 371.239 6.71829 -0.097365 0
M  V30 3765 N 373.959 -0.0401083 1.57549 0
M  V30 3766 C 374.906 -1.04413 2.05831 0
M  V30 3767 C 375.876 -1.36585 0.945184 0
M  V30 3768 O 377.061 -1.47112 1.21502 0
M  V30 3769 C 374.201 -2.34336 2.53339 0
M  V30 3770 C 373.314 -2.08419 3.78398 0
M  V30 3771 C 372.449 -3.32133 4.14561 0
M  V30 3772 C 371.488 -3.01721 5.3257 0
M  V30 3773 N 370.625 -4.17855 5.64218 0
M  V30 3774 H 375.465 -0.625442 2.91363 0
M  V30 3775 H 373.002 -0.297218 1.44066 0
M  V30 3776 H 374.96 -3.10234 2.78946 0
M  V30 3777 H 373.59 -2.73948 1.7074 0
M  V30 3778 H 372.642 -1.23069 3.59942 0
M  V30 3779 H 373.954 -1.81978 4.64419 0
M  V30 3780 H 373.108 -4.16406 4.41238 0
M  V30 3781 H 371.847 -3.61678 3.2717 0
M  V30 3782 H 370.852 -2.15849 5.05657 0
M  V30 3783 H 372.077 -2.73466 6.21605 0
M  V30 3784 H 370.023 -4.47372 4.79786 0
M  V30 3785 H 369.94 -3.94798 6.44725 0
M  V30 3786 H 371.208 -5.03033 5.95465 0
M  V30 3787 N 375.437 -1.54477 -0.31217 0
M  V30 3788 C 376.848 -1.64344 -0.885891 0
M  V30 3789 C 377.199 -0.54485 -1.88483 0
M  V30 3790 O 376.324 0.320387 -2.14015 0
M  V30 3791 C 376.919 -2.97908 -1.61357 0
M  V30 3792 C 375.478 -3.09933 -2.13585 0
M  V30 3793 C 374.625 -2.59971 -0.964897 0
M  V30 3794 H 377.576 -1.58448 -0.0894528 0
M  V30 3795 H 377.597 -2.88706 -2.47848 0
M  V30 3796 H 377.109 -3.77845 -0.886277 0
M  V30 3797 H 375.21 -2.34694 -2.89395 0
M  V30 3798 H 375.323 -4.15916 -2.37804 0
M  V30 3799 H 373.687 -2.16147 -1.34731 0
M  V30 3800 H 374.47 -3.42376 -0.251742 0
M  V30 3801 N 376.915 0.57481 -1.46744 0
M  V30 3802 C 378.164 1.32898 -1.51727 0
M  V30 3803 C 378.477 1.948 -0.176692 0
M  V30 3804 O 379.683 2.71299 -0.104385 0
M  V30 3805 C 378.139 2.40901 -2.67385 0
M  V30 3806 C 377.747 1.85266 -4.07898 0
M  V30 3807 C 379.491 3.17609 -2.81646 0
M  V30 3808 C 377.398 2.90945 -5.14883 0
M  V30 3809 H 376.328 0.499631 -0.564699 0
M  V30 3810 H 378.979 0.612536 -1.72975 0
M  V30 3811 H 377.361 3.15379 -2.39483 0
M  V30 3812 H 378.535 1.17278 -4.45626 0
M  V30 3813 H 376.85 1.21199 -3.98371 0
M  V30 3814 H 379.447 3.96493 -3.58744 0
M  V30 3815 H 379.79 3.70696 -1.89448 0
M  V30 3816 H 380.323 2.50239 -3.09233 0
M  V30 3817 H 377.062 2.42736 -6.089 0
M  V30 3818 H 376.582 3.57398 -4.81691 0
M  V30 3819 H 378.261 3.54755 -5.41071 0
M  V30 3820 N 378.394 1.34581 0.820102 0
M  V30 3821 C 379.326 1.22236 1.93884 0
M  V30 3822 C 380.339 0.148776 1.62119 0
M  V30 3823 O 381.528 0.400877 1.7394 0
M  V30 3824 C 378.628 0.856542 3.27897 0
M  V30 3825 C 377.801 2.02569 3.87666 0
M  V30 3826 C 376.86 1.63782 5.00062 0
M  V30 3827 O 375.886 2.35477 5.18208 0
M  V30 3828 N 377.088 0.553611 5.77854 0
M  V30 3829 H 379.853 2.18615 2.05006 0
M  V30 3830 H 377.414 1.27573 0.99683 0
M  V30 3831 H 379.406 0.578806 4.0054 0
M  V30 3832 H 377.976 -0.0171518 3.12595 0
M  V30 3833 H 377.196 2.468 3.07382 0
M  V30 3834 H 378.484 2.80752 4.24329 0
M  V30 3835 H 377.882 -0.0423528 5.65684 0
M  V30 3836 H 376.439 0.335614 6.50935 0
M  V30 3837 N 379.872 -1.04064 1.18357 0
M  V30 3838 C 380.782 -2.15569 0.925596 0
M  V30 3839 C 381.798 -1.7365 -0.110295 0
M  V30 3840 O 382.974 -2.01273 0.0716218 0
M  V30 3841 C 380.039 -3.43704 0.454836 0
M  V30 3842 C 379.1 -4.00004 1.55869 0
M  V30 3843 C 378.333 -5.22023 1.1103 0
M  V30 3844 O 378.556 -5.70392 -0.0309756 0
M  V30 3845 O 377.49 -5.70856 1.90805 0
M  V30 3846 H 381.316 -2.40187 1.8586 0
M  V30 3847 H 378.901 -1.1402 0.965394 0
M  V30 3848 H 380.783 -4.20923 0.200382 0
M  V30 3849 H 379.458 -3.20559 -0.449876 0
M  V30 3850 H 378.365 -3.24172 1.86716 0
M  V30 3851 H 379.698 -4.2749 2.43953 0
M  V30 3852 N 381.35 -0.985608 -1.22978 0
M  V30 3853 C 382.596 -0.65836 -1.91816 0
M  V30 3854 C 382.929 0.806692 -1.76653 0
M  V30 3855 O 382.204 1.58252 -1.13078 0
M  V30 3856 C 382.487 -1.056 -3.44268 0
M  V30 3857 C 382.34 -2.57906 -3.68516 0
M  V30 3858 C 383.659 -0.603781 -4.35939 0
M  V30 3859 H 380.778 -0.24065 -0.696604 0
M  V30 3860 H 383.42 -1.22783 -1.44998 0
M  V30 3861 H 381.57 -0.571445 -3.84274 0
M  V30 3862 H 383.242 -3.13976 -3.3796 0
M  V30 3863 H 381.485 -3.00305 -3.13048 0
M  V30 3864 H 382.156 -2.80779 -4.75255 0
M  V30 3865 H 384.632 -1.01987 -4.03408 0
M  V30 3866 H 383.508 -0.910383 -5.41298 0
M  V30 3867 H 383.769 0.495761 -4.39312 0
M  V30 3868 N 382.828 1.3818 -0.7579 0
M  V30 3869 C 384.077 1.99261 -0.312744 0
M  V30 3870 C 384.39 1.60846 1.11301 0
M  V30 3871 O 385.596 2.14929 1.65885 0
M  V30 3872 C 384.052 3.56294 -0.50821 0
M  V30 3873 C 383.66 4.03657 -1.94333 0
M  V30 3874 C 385.404 4.24313 -0.125982 0
M  V30 3875 C 383.311 5.53347 -2.08712 0
M  V30 3876 H 382.241 0.745456 -0.113185 0
M  V30 3877 H 384.892 1.57889 -0.935056 0
M  V30 3878 H 383.274 3.95575 0.183353 0
M  V30 3879 H 384.448 3.75655 -2.66871 0
M  V30 3880 H 382.763 3.48376 -2.28086 0
M  V30 3881 H 385.36 5.34279 -0.212125 0
M  V30 3882 H 385.703 4.05962 0.921964 0
M  V30 3883 H 386.236 3.90285 -0.769563 0
M  V30 3884 H 382.975 5.76607 -3.11777 0
M  V30 3885 H 382.495 5.83078 -1.4064 0
M  V30 3886 H 384.174 6.19111 -1.87912 0
M  V30 3887 N 384.306 0.507319 1.49211 0
M  V30 3888 C 385.555 -0.0368315 2.01666 0
M  V30 3889 C 385.868 -1.37459 1.39156 0
M  V30 3890 O 387.074 -2.00579 1.82976 0
M  V30 3891 C 385.53 -0.116089 3.59713 0
M  V30 3892 C 385.138 1.2154 4.31198 0
M  V30 3893 C 386.882 -0.610268 4.2009 0
M  V30 3894 C 384.789 1.09796 5.81119 0
M  V30 3895 H 383.719 -0.0175376 0.753796 0
M  V30 3896 H 386.37 0.647691 1.71689 0
M  V30 3897 H 384.752 -0.8652 3.86433 0
M  V30 3898 H 385.926 1.9783 4.16173 0
M  V30 3899 H 384.241 1.64352 3.82593 0
M  V30 3900 H 386.838 -0.715742 5.29888 0
M  V30 3901 H 387.181 -1.61064 3.8388 0
M  V30 3902 H 387.714 0.0824916 3.97714 0
M  V30 3903 H 384.453 2.0728 6.21864 0
M  V30 3904 H 383.973 0.376058 5.9862 0
M  V30 3905 H 385.652 0.779281 6.4229 0
M  V30 3906 N 385.784 -1.5574 0.241426 0
M  V30 3907 C 386.694 -2.2479 -0.671305 0
M  V30 3908 C 387.71 -1.26217 -1.19772 0
M  V30 3909 O 388.886 -1.59079 -1.23514 0
M  V30 3910 C 385.951 -2.92966 -1.85396 0
M  V30 3911 C 385.012 -4.06935 -1.36756 0
M  V30 3912 C 384.245 -4.71851 -2.49384 0
M  V30 3913 O 384.468 -4.35823 -3.67987 0
M  V30 3914 O 383.402 -5.60467 -2.19454 0
M  V30 3915 H 387.228 -3.0349 -0.112966 0
M  V30 3916 H 384.813 -1.49397 0.0101513 0
M  V30 3917 H 386.695 -3.35927 -2.54423 0
M  V30 3918 H 385.37 -2.17211 -2.40002 0
M  V30 3919 H 384.277 -3.68503 -0.644726 0
M  V30 3920 H 385.61 -4.84492 -0.867647 0
M  V30 3921 N 387.262 0.0317525 -1.57568 0
M  V30 3922 C 388.192 1.03274 -2.0942 0
M  V30 3923 C 389.173 1.3788 -0.996143 0
M  V30 3924 O 390.358 1.46811 -1.27122 0
M  V30 3925 C 387.488 2.33448 -2.57137 0
M  V30 3926 C 386.442 2.13091 -3.71182 0
M  V30 3927 C 385.768 3.49001 -4.05095 0
M  V30 3928 C 387.068 1.51928 -4.99715 0
M  V30 3929 H 388.762 0.60112 -2.93303 0
M  V30 3930 H 386.308 0.287705 -1.41097 0
M  V30 3931 H 388.261 3.03802 -2.92032 0
M  V30 3932 H 386.985 2.78665 -1.70333 0
M  V30 3933 H 385.644 1.45171 -3.36632 0
M  V30 3934 H 385.292 3.91862 -3.15362 0
M  V30 3935 H 384.992 3.36207 -4.81911 0
M  V30 3936 H 386.516 4.20721 -4.42522 0
M  V30 3937 H 387.93 2.12196 -5.32584 0
M  V30 3938 H 386.327 1.49716 -5.81124 0
M  V30 3939 H 387.397 0.484811 -4.8247 0
M  V30 3940 N 388.74 1.54641 0.303973 0
M  V30 3941 C 389.968 1.77768 1.05858 0
M  V30 3942 C 390.383 0.535722 1.8104 0
M  V30 3943 O 389.74 -0.494337 1.75677 0
M  V30 3944 C 389.791 2.9834 2.04146 0
M  V30 3945 O 389.512 4.17736 1.32015 0
M  V30 3946 C 391.013 3.33832 2.91669 0
M  V30 3947 H 388.233 0.592961 0.314067 0
M  V30 3948 H 390.777 2.01583 0.344149 0
M  V30 3949 H 388.932 2.76742 2.71096 0
M  V30 3950 H 389.346 4.85693 1.97998 0
M  V30 3951 H 390.82 4.21448 3.56491 0
M  V30 3952 H 391.297 2.51857 3.59812 0
M  V30 3953 H 391.903 3.57579 2.30254 0
M  V30 3954 N 390.218 -0.567019 1.47046 0
M  V30 3955 C 391.165 -1.67489 1.58796 0
M  V30 3956 C 392.135 -1.60399 0.43144 0
M  V30 3957 O 393.32 -1.79378 0.650233 0
M  V30 3958 C 390.46 -3.05821 1.59899 0
M  V30 3959 C 389.573 -3.2342 2.86397 0
M  V30 3960 C 388.708 -4.52093 2.789 0
M  V30 3961 C 387.747 -4.6309 4.00267 0
M  V30 3962 N 386.884 -5.83106 3.91064 0
M  V30 3963 H 391.724 -1.56785 2.53422 0
M  V30 3964 H 389.261 -0.763896 1.2571 0
M  V30 3965 H 391.219 -3.8591 1.58522 0
M  V30 3966 H 389.849 -3.15384 0.687929 0
M  V30 3967 H 388.901 -2.3683 2.97684 0
M  V30 3968 H 390.213 -3.27412 3.76301 0
M  V30 3969 H 389.367 -5.4043 2.75718 0
M  V30 3970 H 388.106 -4.50565 1.86662 0
M  V30 3971 H 387.111 -3.73168 4.03765 0
M  V30 3972 H 388.336 -4.66386 4.93621 0
M  V30 3973 H 386.282 -5.82546 3.01623 0
M  V30 3974 H 386.199 -5.88434 4.74638 0
M  V30 3975 H 387.467 -6.73831 3.91882 0
M  V30 3976 N 391.696 -1.35014 -0.812953 0
M  V30 3977 C 392.944 -1.27678 -1.56661 0
M  V30 3978 C 393.265 0.150359 -1.94419 0
M  V30 3979 O 392.535 1.08532 -1.63088 0
M  V30 3980 H 391.115 -0.469602 -0.580933 0
M  V30 3981 H 393.777 -1.69043 -0.970076 0
M  V30 3982 H 392.873 -1.88833 -2.48492 0
M  V30 3983 N 393.175 1.03435 -1.18907 0
M  V30 3984 C 394.423 1.76394 -0.986382 0
M  V30 3985 C 394.744 1.88883 0.484567 0
M  V30 3986 O 394.014 1.41843 1.3512 0
M  V30 3987 H 392.594 0.65344 -0.361975 0
M  V30 3988 H 395.256 1.248 -1.49703 0
M  V30 3989 H 394.352 2.77424 -1.42978 0
M  V30 3990 N 394.653 0.992116 1.22453 0
M  V30 3991 C 395.899 0.668523 1.91464 0
M  V30 3992 C 396.232 -0.797313 1.77078 0
M  V30 3993 O 395.507 -1.5765 1.13916 0
M  V30 3994 C 395.79 1.07424 3.43703 0
M  V30 3995 C 395.643 2.59857 3.67143 0
M  V30 3996 C 396.962 0.626891 4.35612 0
M  V30 3997 H 394.081 0.244341 0.695318 0
M  V30 3998 H 396.723 1.2355 1.44345 0
M  V30 3999 H 394.873 0.591816 3.83966 0
M  V30 4000 H 396.545 3.15764 3.3629 0
M  V30 4001 H 394.788 3.01961 3.11451 0
M  V30 4002 H 395.459 2.83296 4.73759 0
M  V30 4003 H 397.935 1.04125 4.02861 0
M  V30 4004 H 396.811 0.939076 5.40807 0
M  V30 4005 H 397.072 -0.472457 4.39568 0
M  V30 4006 N 396.131 -1.37776 0.765217 0
M  V30 4007 C 397.408 -1.93975 0.251596 0
M  V30 4008 C 397.788 -1.69949 -1.25222 0
M  V30 4009 O 397.136 -1.04457 -2.03226 0
M  V30 4010 C 397.346 -3.43487 0.617895 0
M  V30 4011 C 398.694 -4.20564 0.584029 0
M  V30 4012 O 399.718 -3.5182 0.556888 0
M  V30 4013 O 398.577 -5.43138 0.605291 0
M  V30 4014 H 395.671 -0.82509 0.0561806 0
M  V30 4015 H 398.217 -1.47101 0.846128 0
M  V30 4016 H 396.989 -3.5453 1.65602 0
M  V30 4017 H 396.612 -3.976 -0.00403411 0
M  V30 4018 N 397.609 -0.515225 -1.4894 0
M  V30 4019 C 398.856 0.024215 -2.02486 0
M  V30 4020 C 399.184 1.35671 -1.39368 0
M  V30 4021 O 398.439 1.88566 -0.523574 0
M  V30 4022 C 398.738 0.210595 -3.56779 0
M  V30 4023 C 398.404 -1.04569 -4.38607 0
M  V30 4024 C 397.066 -1.39002 -4.60686 0
M  V30 4025 C 399.418 -1.88008 -4.86109 0
M  V30 4026 C 396.746 -2.568 -5.27514 0
M  V30 4027 C 399.098 -3.04972 -5.54234 0
M  V30 4028 C 397.762 -3.39768 -5.74555 0
M  V30 4029 H 397.032 0.00886088 -0.740947 0
M  V30 4030 H 399.679 -0.678263 -1.79086 0
M  V30 4031 H 397.984 0.99572 -3.78936 0
M  V30 4032 H 399.681 0.642659 -3.95817 0
M  V30 4033 H 396.271 -0.767497 -4.21672 0
M  V30 4034 H 400.455 -1.62719 -4.68867 0
M  V30 4035 H 395.711 -2.8398 -5.41447 0
M  V30 4036 H 399.885 -3.69943 -5.90013 0
M  V30 4037 H 397.512 -4.31148 -6.26112 0
M  V30 4038 N 399.087 1.5561 -0.249682 0
M  V30 4039 C 400.05 2.20217 0.635394 0
M  V30 4040 C 401.05 1.17227 1.10066 0
M  V30 4041 O 402.24 1.42292 1.00492 0
M  V30 4042 C 399.372 2.84794 1.87363 0
M  V30 4043 H 400.565 2.99814 0.0716752 0
M  V30 4044 H 398.118 1.563 -0.000153234 0
M  V30 4045 H 398.853 2.09142 2.47851 0
M  V30 4046 H 398.638 3.60241 1.5482 0
M  V30 4047 H 400.128 3.3423 2.5036 0
M  V30 4048 N 400.565 -0.0233959 1.57583 0
M  V30 4049 C 401.495 -1.02162 2.09965 0
M  V30 4050 C 402.476 -1.3735 1.00344 0
M  V30 4051 O 403.661 -1.46135 1.27899 0
M  V30 4052 C 400.791 -2.32081 2.58371 0
M  V30 4053 C 399.745 -2.1112 3.72307 0
M  V30 4054 C 399.071 -3.46848 4.06941 0
M  V30 4055 C 400.371 -1.49276 5.00514 0
M  V30 4056 H 402.065 -0.585557 2.93618 0
M  V30 4057 H 399.611 -0.280218 1.41247 0
M  V30 4058 H 401.564 -3.02249 2.93639 0
M  V30 4059 H 400.288 -2.77758 1.71808 0
M  V30 4060 H 398.947 -1.43384 3.37397 0
M  V30 4061 H 398.595 -3.90184 3.17436 0
M  V30 4062 H 398.295 -3.33646 4.83688 0
M  V30 4063 H 399.819 -4.18369 4.44747 0
M  V30 4064 H 401.233 -2.09368 5.33702 0
M  V30 4065 H 399.63 -1.46632 5.8191 0
M  V30 4066 H 400.7 -0.459217 4.82721 0
M  V30 4067 N 402.043 -1.548 -0.295768 0
M  V30 4068 C 403.32 -1.65014 -1.05023 0
M  V30 4069 C 403.7 -0.501805 -2.05049 0
M  V30 4070 O 403.048 0.500869 -2.22943 0
M  V30 4071 C 403.258 -3.03252 -1.72741 0
M  V30 4072 C 404.606 -3.60242 -2.24746 0
M  V30 4073 O 405.63 -3.05737 -1.82765 0
M  V30 4074 O 404.489 -4.55687 -3.01681 0
M  V30 4075 H 401.583 -0.669314 -0.485744 0
M  V30 4076 H 404.129 -1.67144 -0.293438 0
M  V30 4077 H 402.901 -3.7827 -1.00138 0
M  V30 4078 H 402.524 -3.04922 -2.55163 0
M  V30 4079 N 403.521 0.559213 -1.47345 0
M  V30 4080 C 404.761 1.32728 -1.55444 0
M  V30 4081 C 405.125 1.90838 -0.210895 0
M  V30 4082 O 406.326 2.68282 -0.166719 0
M  V30 4083 C 404.597 2.4092 -2.63993 0
M  V30 4084 S 406.156 3.2784 -2.91661 0
M  V30 4085 H 402.974 0.451883 -0.548929 0
M  V30 4086 H 405.576 0.640404 -1.84714 0
M  V30 4087 H 404.28 1.9666 -3.60212 0
M  V30 4088 H 403.811 3.14351 -2.36531 0
M  V30 4089 H 405.826 4.40341 -2.28722 0
M  V30 4090 N 404.999 1.35443 0.805782 0
M  V30 4091 C 405.962 1.28301 1.89925 0
M  V30 4092 C 406.962 0.194285 1.59622 0
M  V30 4093 O 408.152 0.448036 1.6834 0
M  V30 4094 C 405.284 0.984997 3.2636 0
M  V30 4095 H 406.477 2.2553 1.97677 0
M  V30 4096 H 404.03 1.19979 1.00173 0
M  V30 4097 H 404.765 0.016603 3.24296 0
M  V30 4098 H 404.55 1.77269 3.4974 0
M  V30 4099 H 406.04 0.960651 4.064 0
M  V30 4100 N 406.477 -1.02803 1.19454 0
M  V30 4101 C 407.725 -1.75869 0.995722 0
M  V30 4102 C 408.046 -1.89138 -0.474543 0
M  V30 4103 O 407.316 -1.42558 -1.34366 0
M  V30 4104 H 405.896 -0.651511 0.365435 0
M  V30 4105 H 408.558 -1.24004 1.50363 0
M  V30 4106 H 407.654 -2.76661 1.44447 0
M  V30 4107 N 407.956 -0.998596 -1.21925 0
M  V30 4108 C 409.204 -0.676325 -1.90448 0
M  V30 4109 C 409.525 0.794719 -1.78071 0
M  V30 4110 O 408.795 1.5701 -1.17152 0
M  V30 4111 H 407.375 -0.247165 -0.704925 0
M  V30 4112 H 410.037 -1.26633 -1.48156 0
M  V30 4113 H 409.133 -0.943858 -2.97486 0
M  V30 4114 N 409.434 1.37368 -0.772513 0
M  V30 4115 C 410.659 2.0447 -0.347386 0
M  V30 4116 C 411.084 1.57882 1.0225 0
M  V30 4117 O 410.442 0.73941 1.65537 0
M  V30 4118 C 410.49 3.58369 -0.400479 0
M  V30 4119 O 409.594 4.0803 0.598789 0
M  V30 4120 H 408.935 0.646773 -0.15027 0
M  V30 4121 H 411.465 1.75667 -1.04892 0
M  V30 4122 H 411.475 4.07183 -0.258045 0
M  V30 4123 H 410.15 3.91633 -1.39986 0
M  V30 4124 H 408.727 3.70534 0.419411 0
M  V30 4125 N 410.912 0.523116 1.48665 0
M  V30 4126 C 411.822 -0.247406 2.33292 0
M  V30 4127 C 412.838 -0.945769 1.46052 0
M  V30 4128 O 414.014 -0.922253 1.79043 0
M  V30 4129 C 411.079 -1.28487 3.22012 0
M  V30 4130 C 410.14 -0.597592 4.2512 0
M  V30 4131 C 409.373 -1.58563 5.09601 0
M  V30 4132 O 409.596 -2.81763 4.95949 0
M  V30 4133 O 408.53 -1.12879 5.91221 0
M  V30 4134 H 412.356 0.445869 3.00409 0
M  V30 4135 H 409.941 0.284128 1.46673 0
M  V30 4136 H 411.823 -1.88459 3.7691 0
M  V30 4137 H 410.498 -1.96068 2.57564 0
M  V30 4138 H 409.405 0.0424407 3.74076 0
M  V30 4139 H 410.738 0.0361517 4.92187 0
M  V30 4140 N 412.39 -1.55475 0.257931 0
M  V30 4141 C 413.618 -2.03609 -0.367559 0
M  V30 4142 C 414.033 -1.13687 -1.50734 0
M  V30 4143 O 413.39 -0.153479 -1.81853 0
M  V30 4144 C 413.441 -3.51001 -0.864908 0
M  V30 4145 O 413.162 -4.37499 0.229465 0
M  V30 4146 C 414.663 -4.14946 -1.55997 0
M  V30 4147 H 411.883 -0.665459 -0.0860521 0
M  V30 4148 H 414.427 -2.00843 0.385014 0
M  V30 4149 H 412.582 -3.54266 -1.56762 0
M  V30 4150 H 412.996 -5.24286 -0.14998 0
M  V30 4151 H 414.47 -5.19735 -1.85956 0
M  V30 4152 H 414.947 -3.6209 -2.4857 0
M  V30 4153 H 415.553 -4.15635 -0.901543 0
M  V30 4154 N 413.868 0.0150385 -1.57593 0
M  V30 4155 C 414.801 1.04475 -2.0288 0
M  V30 4156 C 415.779 1.3436 -0.915764 0
M  V30 4157 O 416.963 1.46779 -1.18271 0
M  V30 4158 C 414.09 2.37608 -2.41371 0
M  V30 4159 C 413.136 2.23487 -3.63257 0
M  V30 4160 S 413.969 1.57505 -5.11813 0
M  V30 4161 C 415.125 2.921 -5.5356 0
M  V30 4162 H 415.358 0.65907 -2.89903 0
M  V30 4163 H 412.891 0.225452 -1.52745 0
M  V30 4164 H 414.849 3.14165 -2.64217 0
M  V30 4165 H 413.51 2.7332 -1.54775 0
M  V30 4166 H 412.703 3.21802 -3.87891 0
M  V30 4167 H 412.305 1.55074 -3.40335 0
M  V30 4168 H 414.597 3.88419 -5.55101 0
M  V30 4169 H 415.54 2.72184 -6.53698 0
M  V30 4170 H 415.948 2.95318 -4.8109 0
M  V30 4171 N 415.346 1.54954 0.287554 0
M  V30 4172 C 416.293 1.86834 1.35505 0
M  V30 4173 C 417.263 0.718452 1.49758 0
M  V30 4174 O 418.448 0.968358 1.644 0
M  V30 4175 C 415.588 2.13303 2.71286 0
M  V30 4176 C 414.701 3.40883 2.65373 0
M  V30 4177 C 413.836 3.57125 3.93236 0
M  V30 4178 C 412.875 4.78449 3.81776 0
M  V30 4179 N 412.012 4.91426 5.01443 0
M  V30 4180 H 416.852 2.77889 1.07619 0
M  V30 4181 H 414.389 1.37593 0.520241 0
M  V30 4182 H 416.347 2.26646 3.50267 0
M  V30 4183 H 414.977 1.25499 2.97405 0
M  V30 4184 H 414.029 3.36088 1.78182 0
M  V30 4185 H 415.341 4.29993 2.52799 0
M  V30 4186 H 414.495 3.70207 4.80658 0
M  V30 4187 H 413.234 2.66173 4.0866 0
M  V30 4188 H 412.239 4.65386 2.92738 0
M  V30 4189 H 413.464 5.70822 3.67884 0
M  V30 4190 H 411.41 4.03401 5.17304 0
M  V30 4191 H 411.327 5.74559 4.91343 0
M  V30 4192 H 412.595 5.08879 5.90477 0
M  V30 4193 N 416.824 -0.551391 1.4764 0
M  V30 4194 C 417.787 -1.64007 1.60107 0
M  V30 4195 C 418.787 -1.53601 0.47576 0
M  V30 4196 O 419.977 -1.57655 0.740988 0
M  V30 4197 C 417.109 -3.03569 1.55108 0
M  V30 4198 H 418.302 -1.543 2.57161 0
M  V30 4199 H 415.855 -0.771776 1.35917 0
M  V30 4200 H 416.59 -3.18804 0.594519 0
M  V30 4201 H 416.375 -3.12532 2.36783 0
M  V30 4202 H 417.865 -3.82762 1.66982 0
M  V30 4203 N 418.302 -1.35869 -0.798587 0
M  V30 4204 C 419.265 -1.29307 -1.89242 0
M  V30 4205 C 420.265 -0.202747 -1.59517 0
M  V30 4206 O 421.455 -0.456957 -1.681 0
M  V30 4207 C 418.587 -1.00229 -3.25833 0
M  V30 4208 H 419.78 -2.26576 -1.96478 0
M  V30 4209 H 417.333 -1.20509 -0.995358 0
M  V30 4210 H 418.068 -0.033801 -3.24282 0
M  V30 4211 H 417.853 -1.79121 -3.48795 0
M  V30 4212 H 419.343 -0.98219 -4.05885 0
M  V30 4213 N 419.78 1.02168 -1.19998 0
M  V30 4214 C 420.71 2.12488 -0.96804 0
M  V30 4215 C 421.691 1.69799 0.101185 0
M  V30 4216 O 422.876 1.94121 -0.0552993 0
M  V30 4217 C 420.006 3.43479 -0.513776 0
M  V30 4218 C 418.96 3.99884 -1.52566 0
M  V30 4219 C 418.286 5.26582 -0.928214 0
M  V30 4220 C 419.586 4.33861 -2.90795 0
M  V30 4221 H 421.28 2.32149 -1.89069 0
M  V30 4222 H 418.826 1.11564 -0.910468 0
M  V30 4223 H 420.779 4.20036 -0.338774 0
M  V30 4224 H 419.503 3.23561 0.444493 0
M  V30 4225 H 418.162 3.25429 -1.68794 0
M  V30 4226 H 417.81 5.02986 0.0378289 0
M  V30 4227 H 417.51 5.65284 -1.60397 0
M  V30 4228 H 419.034 6.05799 -0.764167 0
M  V30 4229 H 420.448 5.01327 -2.78109 0
M  V30 4230 H 418.845 4.83664 -3.55231 0
M  V30 4231 H 419.915 3.42848 -3.42904 0
M  V30 4232 N 421.258 1.00505 1.21394 0
M  V30 4233 C 422.535 0.603277 1.86064 0
M  V30 4234 C 422.915 -0.919095 1.90042 0
M  V30 4235 O 422.263 -1.80607 1.39977 0
M  V30 4236 C 422.473 1.23772 3.26315 0
M  V30 4237 C 423.821 1.34586 4.02705 0
M  V30 4238 O 424.845 1.19304 3.35626 0
M  V30 4239 O 423.704 1.59169 5.22807 0
M  V30 4240 H 420.798 0.206634 0.800769 0
M  V30 4241 H 423.344 1.1017 1.29076 0
M  V30 4242 H 422.116 2.27848 3.18121 0
M  V30 4243 H 421.739 0.725648 3.90922 0
M  V30 4244 N 422.737 -1.36956 0.779787 0
M  V30 4245 C 423.977 -2.01328 0.353043 0
M  V30 4246 C 424.341 -1.60558 -1.05286 0
M  V30 4247 O 425.542 -2.1745 -1.58016 0
M  V30 4248 C 423.813 -3.53874 0.500822 0
M  V30 4249 S 425.372 -4.38506 0.16053 0
M  V30 4250 H 422.19 -0.69799 0.13539 0
M  V30 4251 H 424.792 -1.67016 1.01617 0
M  V30 4252 H 423.496 -3.81034 1.52451 0
M  V30 4253 H 423.027 -3.92994 -0.178574 0
M  V30 4254 H 425.042 -4.85153 -1.04121 0
M  V30 4255 N 424.215 -0.530993 -1.48385 0
M  V30 4256 C 425.443 -0.00134122 -2.069 0
M  V30 4257 C 425.858 1.2805 -1.3874 0
M  V30 4258 O 425.215 1.76204 -0.475244 0
M  V30 4259 C 425.266 0.225256 -3.60798 0
M  V30 4260 O 424.987 -1.0058 -4.26398 0
M  V30 4261 C 426.488 0.795172 -4.3611 0
M  V30 4262 H 423.708 -0.0339704 -0.67014 0
M  V30 4263 H 426.252 -0.736926 -1.90761 0
M  V30 4264 H 424.407 0.910891 -3.76539 0
M  V30 4265 H 424.821 -0.787165 -5.1856 0
M  V30 4266 H 426.295 0.903143 -5.44562 0
M  V30 4267 H 426.772 1.80031 -4.00606 0
M  V30 4268 H 427.378 0.146069 -4.25049 0
M  V30 4269 N 425.693 1.55336 -0.266172 0
M  V30 4270 C 426.921 2.03801 0.356756 0
M  V30 4271 C 427.336 1.14485 1.50129 0
M  V30 4272 O 426.693 0.163121 1.8177 0
M  V30 4273 C 426.744 3.51455 0.846281 0
M  V30 4274 O 426.465 4.37371 -0.252663 0
M  V30 4275 C 427.966 4.15767 1.53794 0
M  V30 4276 H 425.186 0.665906 0.0825218 0
M  V30 4277 H 427.73 2.00636 -0.39566 0
M  V30 4278 H 425.885 3.55092 1.54881 0
M  V30 4279 H 426.299 5.24358 0.122173 0
M  V30 4280 H 427.773 5.20714 1.83198 0
M  V30 4281 H 428.25 3.63404 2.46646 0
M  V30 4282 H 428.856 4.16107 0.879488 0
M  V30 4283 N 427.171 -0.0066808 1.57599 0
M  V30 4284 C 428.134 -0.985035 2.06953 0
M  V30 4285 C 429.134 -1.27663 0.977687 0
M  V30 4286 O 430.324 -1.22293 1.24057 0
M  V30 4287 C 427.456 -2.3118 2.50536 0
M  V30 4288 H 428.649 -0.558255 2.94658 0
M  V30 4289 H 426.202 -0.254011 1.54222 0
M  V30 4290 H 426.937 -2.78561 1.66054 0
M  V30 4291 H 426.722 -2.11338 3.3027 0
M  V30 4292 H 428.212 -3.01377 2.8907 0
M  V30 4293 N 428.649 -1.55105 -0.279332 0
M  V30 4294 C 429.897 -1.75066 -1.00977 0
M  V30 4295 C 430.218 -0.551276 -1.87045 0
M  V30 4296 O 429.488 0.433984 -1.91032 0
M  V30 4297 H 428.068 -0.645578 -0.375816 0
M  V30 4298 H 430.73 -1.92497 -0.305089 0
M  V30 4299 H 429.826 -2.64894 -1.65038 0
M  V30 4300 N 430.127 0.543554 -1.4793 0
M  V30 4301 C 431.373 1.29961 -1.56466 0
M  V30 4302 C 431.728 1.91024 -0.229696 0
M  V30 4303 O 431.021 1.75619 0.766072 0
M  V30 4304 C 431.215 2.42078 -2.62932 0
M  V30 4305 C 431.044 1.92003 -4.06651 0
M  V30 4306 C 429.814 1.75223 -4.73946 0
M  V30 4307 C 432.012 1.45648 -4.93245 0
M  V30 4308 N 429.994 1.19632 -6.02131 0
M  V30 4309 C 431.365 1.01914 -6.11566 0
M  V30 4310 C 433.42 1.33826 -4.79578 0
M  V30 4311 C 432.123 0.475301 -7.17728 0
M  V30 4312 C 434.149 0.808427 -5.85848 0
M  V30 4313 C 433.511 0.381081 -7.03368 0
M  V30 4314 H 429.61 0.467086 -0.62718 0
M  V30 4315 H 432.194 0.614543 -1.84747 0
M  V30 4316 H 430.365 3.08098 -2.36496 0
M  V30 4317 H 432.097 3.09096 -2.61231 0
M  V30 4318 H 428.852 1.98345 -4.30065 0
M  V30 4319 H 429.276 0.93885 -6.70458 0
M  V30 4320 H 433.918 1.65474 -3.89074 0
M  V30 4321 H 431.636 0.146472 -8.07967 0
M  V30 4322 H 435.222 0.720315 -5.77324 0
M  V30 4323 H 434.102 -0.0225344 -7.84197 0
M  V30 4324 N 431.605 1.3629 0.791371 0
M  V30 4325 C 432.853 1.30154 1.5461 0
M  V30 4326 C 433.174 -0.119409 1.94634 0
M  V30 4327 O 432.444 -1.05924 1.64794 0
M  V30 4328 H 431.024 0.478784 0.573389 0
M  V30 4329 H 433.686 1.70565 0.94306 0
M  V30 4330 H 432.782 1.92762 2.45457 0
M  V30 4331 N 433.083 -1.0153 1.20538 0
M  V30 4332 C 434.308 -1.79283 1.04271 0
M  V30 4333 C 434.733 -1.8372 -0.403544 0
M  V30 4334 O 434.091 -1.27321 -1.2907 0
M  V30 4335 C 434.139 -3.21535 1.63241 0
M  V30 4336 O 433.243 -4.03099 0.870908 0
M  V30 4337 H 432.584 -0.55293 0.367647 0
M  V30 4338 H 435.114 -1.27696 1.59859 0
M  V30 4339 H 435.124 -3.72243 1.6703 0
M  V30 4340 H 433.799 -3.1762 2.68497 0
M  V30 4341 H 432.376 -3.61693 0.907323 0
M  V30 4342 N 434.561 -1.01147 -1.20859 0
M  V30 4343 C 435.801 -0.706331 -1.91808 0
M  V30 4344 C 436.165 0.749736 -1.76757 0
M  V30 4345 O 437.366 1.16716 -2.42138 0
M  V30 4346 C 435.637 -1.12371 -3.39275 0
M  V30 4347 S 437.196 -0.939764 -4.28619 0
M  V30 4348 H 434.014 -0.257665 -0.662669 0
M  V30 4349 H 436.616 -1.29766 -1.46223 0
M  V30 4350 H 435.32 -2.17943 -3.47749 0
M  V30 4351 H 434.851 -0.524952 -3.89882 0
M  V30 4352 H 436.866 0.159556 -4.95943 0
M  V30 4353 N 436.039 1.36541 -0.78704 0
M  V30 4354 C 437.267 2.03561 -0.370199 0
M  V30 4355 C 437.682 1.59347 1.01263 0
M  V30 4356 O 437.039 0.781781 1.64907 0
M  V30 4357 C 437.09 3.59033 -0.421614 0
M  V30 4358 O 436.811 4.01634 -1.7499 0
M  V30 4359 C 438.312 4.433 0.00489763 0
M  V30 4360 H 435.532 0.653346 -0.152904 0
M  V30 4361 H 438.076 1.74566 -1.06522 0
M  V30 4362 H 436.231 3.86746 0.224971 0
M  V30 4363 H 436.645 4.96217 -1.69909 0
M  V30 4364 H 438.119 5.51939 -0.0822184 0
M  V30 4365 H 438.596 4.26285 1.05723 0
M  V30 4366 H 439.202 4.20843 -0.614085 0
M  V30 4367 N 437.518 0.538854 1.48102 0
M  V30 4368 C 438.765 0.0080018 2.02498 0
M  V30 4369 C 439.093 -1.33437 1.41509 0
M  V30 4370 O 438.348 -1.87709 0.553507 0
M  V30 4371 C 438.647 -0.153808 3.57069 0
M  V30 4372 C 438.313 1.11533 4.36888 0
M  V30 4373 C 436.975 1.46314 4.58417 0
M  V30 4374 C 439.327 1.95718 4.83057 0
M  V30 4375 C 436.655 2.6516 5.23361 0
M  V30 4376 C 439.007 3.13751 5.49312 0
M  V30 4377 C 437.671 3.48866 5.69077 0
M  V30 4378 H 436.941 0.00292807 0.740994 0
M  V30 4379 H 439.588 0.706668 1.77984 0
M  V30 4380 H 437.893 -0.935309 3.80472 0
M  V30 4381 H 439.59 -0.579607 3.96789 0
M  V30 4382 H 436.18 0.834484 4.20398 0
M  V30 4383 H 440.364 1.70158 4.66219 0
M  V30 4384 H 435.62 2.92558 5.36861 0
M  V30 4385 H 439.794 3.79282 5.84053 0
M  V30 4386 H 437.421 4.41054 6.19173 0
M  V30 4387 N 438.996 -1.55193 0.274407 0
M  V30 4388 C 440.245 -1.98758 -0.343213 0
M  V30 4389 C 440.558 -1.16624 -1.5703 0
M  V30 4390 O 441.764 -1.5033 -2.26082 0
M  V30 4391 C 440.22 -3.53759 -0.661996 0
M  V30 4392 C 439.828 -4.4467 0.54524 0
M  V30 4393 C 441.572 -4.05916 -1.24228 0
M  V30 4394 C 439.479 -5.91058 0.201084 0
M  V30 4395 H 438.409 -0.742353 -0.132014 0
M  V30 4396 H 441.06 -1.79545 0.378948 0
M  V30 4397 H 439.442 -3.68772 -1.44304 0
M  V30 4398 H 440.616 -4.41426 1.32212 0
M  V30 4399 H 438.931 -4.03143 1.04232 0
M  V30 4400 H 441.528 -5.12831 -1.51357 0
M  V30 4401 H 441.871 -3.54908 -2.17592 0
M  V30 4402 H 442.404 -3.9434 -0.523542 0
M  V30 4403 H 439.143 -6.46161 1.10258 0
M  V30 4404 H 438.663 -5.97373 -0.539045 0
M  V30 4405 H 440.342 -6.46669 -0.206954 0
M  V30 4406 N 440.474 -0.00167713 -1.576 0
M  V30 4407 C 441.722 0.681471 -1.90264 0
M  V30 4408 C 442.043 1.7422 -0.875924 0
M  V30 4409 O 441.313 1.95709 0.0864412 0
M  V30 4410 H 439.893 0.254696 -0.702239 0
M  V30 4411 H 442.555 -0.0429996 -1.94853 0
M  V30 4412 H 441.651 1.15166 -2.90075 0
M  V30 4413 N 441.952 1.55251 0.271103 0
M  V30 4414 C 443.198 1.76207 1.00394 0
M  V30 4415 C 443.531 0.562604 1.85872 0
M  V30 4416 O 442.806 -0.439785 1.89463 0
M  V30 4417 C 443.089 3.06828 1.8849 0
M  V30 4418 C 442.942 4.37134 1.05992 0
M  V30 4419 C 444.261 3.33503 2.87165 0
M  V30 4420 H 441.38 0.641086 0.363562 0
M  V30 4421 H 444.022 1.87982 0.276189 0
M  V30 4422 H 442.172 2.96921 2.5054 0
M  V30 4423 H 443.844 4.59001 0.459978 0
M  V30 4424 H 442.087 4.32275 0.363443 0
M  V30 4425 H 442.758 5.2486 1.70955 0
M  V30 4426 H 445.234 3.43215 2.3525 0
M  V30 4427 H 444.11 4.2616 3.45946 0
M  V30 4428 H 444.371 2.53235 3.62387 0
M  V30 4429 N 443.43 -0.535701 1.48216 0
M  V30 4430 C 444.393 -1.623 1.61838 0
M  V30 4431 C 445.393 -1.53087 0.492024 0
M  V30 4432 O 446.583 -1.5686 0.757668 0
M  V30 4433 C 443.715 -3.01907 1.58319 0
M  V30 4434 H 444.908 -1.51564 2.58783 0
M  V30 4435 H 442.461 -0.757317 1.36727 0
M  V30 4436 H 443.196 -3.18155 0.628299 0
M  V30 4437 H 442.981 -3.10003 2.40085 0
M  V30 4438 H 444.471 -3.80969 1.71033 0
M  V30 4439 N 444.908 -1.36708 -0.784132 0
M  V30 4440 C 445.871 -1.31307 -1.87859 0
M  V30 4441 C 446.871 -0.219654 -1.59293 0
M  V30 4442 O 448.061 -0.47476 -1.67606 0
M  V30 4443 C 445.193 -1.03679 -3.24751 0
M  V30 4444 H 446.386 -2.28647 -1.94064 0
M  V30 4445 H 443.939 -1.21558 -0.98252 0
M  V30 4446 H 444.674 -0.0681936 -3.24228 0
M  V30 4447 H 444.459 -1.82811 -3.46876 0
M  V30 4448 H 445.949 -1.02518 -4.04821 0
M  V30 4449 N 446.386 1.0089 -1.21074 0
M  V30 4450 C 447.634 1.74262 -1.02358 0
M  V30 4451 C 447.955 1.89869 0.444393 0
M  V30 4452 O 447.225 1.44677 1.32081 0
M  V30 4453 H 445.805 0.645615 -0.375754 0
M  V30 4454 H 448.467 1.21596 -1.52317 0
M  V30 4455 H 447.563 2.74328 -1.4883 0
M  V30 4456 N 447.864 1.01787 1.20321 0
M  V30 4457 C 449.089 0.727009 1.9424 0
M  V30 4458 C 449.514 -0.706179 1.74341 0
M  V30 4459 O 448.872 -1.48609 1.03852 0
M  V30 4460 C 448.92 1.06958 3.44372 0
M  V30 4461 O 448.024 0.181983 4.11998 0
M  V30 4462 H 447.365 0.269626 0.606793 0
M  V30 4463 H 449.895 1.36158 1.52716 0
M  V30 4464 H 449.905 1.02182 3.94997 0
M  V30 4465 H 448.58 2.11378 3.58179 0
M  V30 4466 H 447.157 0.287378 3.71791 0
M  V30 4467 N 449.342 -1.36122 0.79427 0
M  V30 4468 C 450.289 -2.29982 0.194101 0
M  V30 4469 C 451.259 -1.52214 -0.664833 0
M  V30 4470 O 452.444 -1.80702 -0.612498 0
M  V30 4471 C 449.584 -3.38706 -0.661244 0
M  V30 4472 C 448.697 -4.31456 0.216766 0
M  V30 4473 C 447.832 -5.27265 -0.645411 0
M  V30 4474 C 446.871 -6.11653 0.233756 0
M  V30 4475 N 446.008 -6.99636 -0.587682 0
M  V30 4476 H 450.848 -2.80722 0.999965 0
M  V30 4477 H 448.385 -1.38172 0.504677 0
M  V30 4478 H 450.343 -4.00394 -1.17219 0
M  V30 4479 H 448.973 -2.89274 -1.43249 0
M  V30 4480 H 448.025 -3.7088 0.845724 0
M  V30 4481 H 449.337 -4.90724 0.893973 0
M  V30 4482 H 448.491 -5.94266 -1.22198 0
M  V30 4483 H 447.23 -4.68463 -1.35623 0
M  V30 4484 H 446.235 -5.4361 0.82269 0
M  V30 4485 H 447.46 -6.72531 0.942247 0
M  V30 4486 H 445.406 -6.43337 -1.2827 0
M  V30 4487 H 445.323 -7.55993 0.0317402 0
M  V30 4488 H 446.591 -7.71001 -1.14792 0
M  V30 4489 N 450.82 -0.546701 -1.47814 0
M  V30 4490 C 452.068 -0.0187037 -2.02091 0
M  V30 4491 C 452.389 1.33168 -1.42447 0
M  V30 4492 O 451.659 1.86619 -0.595839 0
M  V30 4493 H 450.239 -0.00392531 -0.74699 0
M  V30 4494 H 452.901 -0.714327 -1.81338 0
M  V30 4495 H 451.997 0.0772219 -3.12004 0
M  V30 4496 N 452.299 1.55045 -0.282633 0
M  V30 4497 C 453.229 2.2579 0.595066 0
M  V30 4498 C 454.21 1.25074 1.15284 0
M  V30 4499 O 455.395 1.5381 1.18559 0
M  V30 4500 C 452.525 2.98472 1.77572 0
M  V30 4501 C 451.479 4.0618 1.34914 0
M  V30 4502 C 450.805 4.66477 2.6135 0
M  V30 4503 C 452.105 5.1996 0.493821 0
M  V30 4504 H 453.799 2.994 0.00505653 0
M  V30 4505 H 451.345 1.44 0.000992001 0
M  V30 4506 H 453.298 3.46677 2.39568 0
M  V30 4507 H 452.022 2.2241 2.39168 0
M  V30 4508 H 450.681 3.58797 0.752338 0
M  V30 4509 H 450.329 3.87074 3.2122 0
M  V30 4510 H 450.029 5.39207 2.33516 0
M  V30 4511 H 451.553 5.17435 3.24181 0
M  V30 4512 H 452.967 5.64172 1.01898 0
M  V30 4513 H 451.364 5.99299 0.310047 0
M  V30 4514 H 452.434 4.82462 -0.485593 0
M  V30 4515 N 453.777 0.010035 1.57597 0
M  V30 4516 C 455.005 -0.683413 1.95287 0
M  V30 4517 C 455.42 -1.66747 0.885481 0
M  V30 4518 O 454.777 -1.82003 -0.134629 0
M  V30 4519 C 454.828 -1.40652 3.33015 0
M  V30 4520 O 454.549 -0.461916 4.35658 0
M  V30 4521 C 456.05 -2.19356 3.85225 0
M  V30 4522 H 453.27 -0.189708 0.643624 0
M  V30 4523 H 455.814 0.0641359 2.04399 0
M  V30 4524 H 453.969 -2.10562 3.2518 0
M  V30 4525 H 454.383 -0.973215 5.15392 0
M  V30 4526 H 455.857 -2.65433 4.83993 0
M  V30 4527 H 456.334 -3.02457 3.18459 0
M  V30 4528 H 456.94 -1.54442 3.96267 0
M  V30 4529 N 455.255 -1.55392 -0.262866 0
M  V30 4530 C 456.504 -1.75679 -0.990943 0
M  V30 4531 C 456.817 -0.57097 -1.87081 0
M  V30 4532 O 458.023 -0.656486 -2.63444 0
M  V30 4533 C 456.479 -3.10964 -1.81188 0
M  V30 4534 C 456.087 -4.37146 -0.980188 0
M  V30 4535 C 457.831 -3.40597 -2.53365 0
M  V30 4536 C 455.738 -5.63466 -1.7961 0
M  V30 4537 H 454.668 -0.654868 -0.373716 0
M  V30 4538 H 457.319 -1.81841 -0.246203 0
M  V30 4539 H 455.701 -2.98867 -2.59797 0
M  V30 4540 H 456.875 -4.60187 -0.237558 0
M  V30 4541 H 455.19 -4.14731 -0.372497 0
M  V30 4542 H 457.787 -4.32186 -3.14833 0
M  V30 4543 H 458.13 -2.6119 -3.24169 0
M  V30 4544 H 458.663 -3.53838 -1.81779 0
M  V30 4545 H 455.402 -6.4565 -1.13209 0
M  V30 4546 H 454.922 -5.44552 -2.51443 0
M  V30 4547 H 456.601 -6.02139 -2.36723 0
M  V30 4548 N 456.733 0.527833 -1.48498 0
M  V30 4549 C 457.98 1.28354 -1.56625 0
M  V30 4550 C 458.308 1.93 -0.241096 0
M  V30 4551 O 457.563 1.79967 0.768798 0
M  V30 4552 C 457.862 2.39275 -2.65485 0
M  V30 4553 C 457.528 1.92268 -4.07853 0
M  V30 4554 C 456.19 1.79166 -4.46602 0
M  V30 4555 C 458.542 1.56771 -4.97064 0
M  V30 4556 C 455.87 1.28905 -5.72364 0
M  V30 4557 C 458.222 1.07972 -6.23318 0
M  V30 4558 C 456.886 0.934887 -6.60921 0
M  V30 4559 H 456.156 0.469682 -0.573131 0
M  V30 4560 H 458.803 0.588781 -1.82224 0
M  V30 4561 H 457.108 3.1443 -2.33754 0
M  V30 4562 H 458.805 2.974 -2.68988 0
M  V30 4563 H 455.395 2.03417 -3.77252 0
M  V30 4564 H 459.579 1.65753 -4.67803 0
M  V30 4565 H 454.835 1.16381 -6.00221 0
M  V30 4566 H 459.009 0.795775 -6.91838 0
M  V30 4567 H 456.636 0.543231 -7.58257 0
M  V30 4568 N 458.211 1.37122 0.776871 0
M  V30 4569 C 459.622 1.28667 1.35284 0
M  V30 4570 C 459.973 -0.0680035 1.96082 0
M  V30 4571 O 459.098 -0.969743 1.93455 0
M  V30 4572 C 459.693 2.32997 2.45963 0
M  V30 4573 C 458.252 2.28191 2.99342 0
M  V30 4574 C 457.399 2.17101 1.72517 0
M  V30 4575 H 460.35 1.47819 0.577527 0
M  V30 4576 H 460.371 1.97366 3.2531 0
M  V30 4577 H 459.883 3.3158 2.01684 0
M  V30 4578 H 457.984 1.33115 3.4801 0
M  V30 4579 H 458.097 3.21397 3.55304 0
M  V30 4580 H 456.461 1.63562 1.95242 0
M  V30 4581 H 457.244 3.17591 1.30348 0
M  V30 4582 N 459.689 -1.00246 1.21608 0
M  V30 4583 C 460.599 -2.12515 0.993709 0
M  V30 4584 C 461.615 -1.73913 -0.0549939 0
M  V30 4585 O 462.791 -2.00943 0.135619 0
M  V30 4586 C 459.856 -3.42083 0.563953 0
M  V30 4587 C 458.917 -3.94843 1.68516 0
M  V30 4588 C 458.15 -5.18226 1.27582 0
M  V30 4589 O 458.373 -5.70201 0.150506 0
M  V30 4590 O 457.307 -5.64497 2.0887 0
M  V30 4591 H 461.133 -2.34152 1.93407 0
M  V30 4592 H 458.718 -1.10891 1.00118 0
M  V30 4593 H 460.6 -4.20073 0.334194 0
M  V30 4594 H 459.275 -3.21828 -0.347665 0
M  V30 4595 H 458.182 -3.18068 1.96935 0
M  V30 4596 H 459.515 -4.19512 2.5743 0
M  V30 4597 N 461.167 -1.02423 -1.1978 0
M  V30 4598 C 462.077 -0.610919 -2.26506 0
M  V30 4599 C 463.093 0.355152 -1.70337 0
M  V30 4600 O 464.269 0.214195 -2.00258 0
M  V30 4601 C 461.334 0.0365921 -3.46681 0
M  V30 4602 C 460.395 -0.976389 -4.18049 0
M  V30 4603 C 459.628 -0.359683 -5.32487 0
M  V30 4604 O 459.851 0.838601 -5.64202 0
M  V30 4605 O 458.785 -1.08022 -5.92127 0
M  V30 4606 H 462.611 -1.49965 -2.64091 0
M  V30 4607 H 460.196 -0.794156 -1.26545 0
M  V30 4608 H 462.078 0.39786 -4.19518 0
M  V30 4609 H 460.753 0.899398 -3.10954 0
M  V30 4610 H 459.66 -1.38916 -3.47352 0
M  V30 4611 H 460.993 -1.80941 -4.57735 0
M  V30 4612 N 462.645 1.35699 -0.801477 0
M  V30 4613 C 463.575 2.32436 -0.222658 0
M  V30 4614 C 464.556 1.5723 0.649057 0
M  V30 4615 O 465.741 1.85324 0.580387 0
M  V30 4616 C 462.871 3.41469 0.633719 0
M  V30 4617 C 461.825 4.27774 -0.139083 0
M  V30 4618 C 461.151 5.28082 0.838666 0
M  V30 4619 C 462.451 5.04946 -1.33517 0
M  V30 4620 H 464.145 2.81094 -1.03086 0
M  V30 4621 H 461.691 1.35146 -0.497155 0
M  V30 4622 H 463.644 4.08143 1.04868 0
M  V30 4623 H 462.368 2.91408 1.47475 0
M  V30 4624 H 461.027 3.62673 -0.535156 0
M  V30 4625 H 460.675 4.7429 1.67506 0
M  V30 4626 H 460.375 5.86695 0.32594 0
M  V30 4627 H 461.899 5.97628 1.25194 0
M  V30 4628 H 463.313 5.64593 -0.995349 0
M  V30 4629 H 461.71 5.7303 -1.78202 0
M  V30 4630 H 462.78 4.35886 -2.12442 0
M  V30 4631 N 464.123 0.554532 1.47522 0
M  V30 4632 C 465.372 0.0273458 2.01681 0
M  V30 4633 C 465.685 -1.32962 1.43459 0
M  V30 4634 O 466.891 -1.94657 1.89265 0
M  V30 4635 C 465.347 -0.00159057 3.599 0
M  V30 4636 C 464.955 1.35197 4.27113 0
M  V30 4637 C 466.699 -0.476311 4.21819 0
M  V30 4638 C 464.606 1.28229 5.77331 0
M  V30 4639 H 463.536 0.00645269 0.753972 0
M  V30 4640 H 466.187 0.701985 1.69542 0
M  V30 4641 H 464.569 -0.741821 3.8899 0
M  V30 4642 H 465.743 2.1097 4.09668 0
M  V30 4643 H 464.058 1.76441 3.77171 0
M  V30 4644 H 466.655 -0.5468 5.31897 0
M  V30 4645 H 466.998 -1.4877 3.8881 0
M  V30 4646 H 467.531 0.20898 3.97251 0
M  V30 4647 H 464.27 2.26959 6.14955 0
M  V30 4648 H 463.79 0.566314 5.97121 0
M  V30 4649 H 465.469 0.983226 6.39485 0
M  V30 4650 N 465.601 -1.54893 0.290851 0
M  V30 4651 C 466.85 -1.99111 -0.322113 0
M  V30 4652 C 467.163 -1.18283 -1.55784 0
M  V30 4653 O 468.369 -1.5272 -2.24475 0
M  V30 4654 C 466.825 -3.54442 -0.624438 0
M  V30 4655 C 466.433 -4.44066 0.592373 0
M  V30 4656 C 468.177 -4.07211 -1.19916 0
M  V30 4657 C 466.084 -5.90812 0.263762 0
M  V30 4658 H 465.014 -0.743712 -0.124133 0
M  V30 4659 H 467.665 -1.79132 0.39797 0
M  V30 4660 H 466.047 -3.70281 -1.40384 0
M  V30 4661 H 467.221 -4.39999 1.36886 0
M  V30 4662 H 465.536 -4.02015 1.08502 0
M  V30 4663 H 468.133 -5.14407 -1.45909 0
M  V30 4664 H 468.476 -3.57196 -2.13815 0
M  V30 4665 H 469.009 -3.94873 -0.481687 0
M  V30 4666 H 465.748 -6.44955 1.17105 0
M  V30 4667 H 465.268 -5.97911 -0.475655 0
M  V30 4668 H 466.947 -6.46852 -0.138354 0
M  V30 4669 N 467.08 -0.0183926 -1.57589 0
M  V30 4670 C 468.328 0.661253 -1.90976 0
M  V30 4671 C 468.649 1.73281 -0.894353 0
M  V30 4672 O 467.919 1.9579 0.0656788 0
M  V30 4673 H 466.499 0.247233 -0.704901 0
M  V30 4674 H 469.161 -0.0636639 -1.94796 0
M  V30 4675 H 468.257 1.12083 -2.9128 0
M  V30 4676 N 468.558 1.5553 0.254621 0
M  V30 4677 C 469.974 1.4778 0.602753 0
M  V30 4678 C 470.174 0.707047 1.88688 0
M  V30 4679 O 469.23 0.233288 2.5142 0
M  V30 4680 C 470.543 2.92133 0.712648 0
M  V30 4681 C 472.091 3.02458 0.805488 0
M  V30 4682 C 472.566 4.48102 0.947009 0
M  V30 4683 N 474.057 4.52008 1.01207 0
M  V30 4684 C 474.792 5.61939 1.1407 0
M  V30 4685 N 474.288 6.81697 1.23536 0
M  V30 4686 N 476.081 5.49719 1.17325 0
M  V30 4687 H 468.232 2.04085 -0.588463 0
M  V30 4688 H 470.495 0.926229 -0.202001 0
M  V30 4689 H 470.201 3.51332 -0.160766 0
M  V30 4690 H 470.075 3.42187 1.58707 0
M  V30 4691 H 472.462 2.43344 1.66936 0
M  V30 4692 H 472.543 2.55627 -0.0939266 0
M  V30 4693 H 472.187 5.07824 0.087725 0
M  V30 4694 H 472.117 4.92607 1.86135 0
M  V30 4695 H 474.608 3.65749 0.950577 0
M  V30 4696 H 474.921 7.61228 1.33236 0
M  V30 4697 H 473.266 6.84473 1.20508 0
M  V30 4698 H 476.457 4.55095 1.09573 0
M  V30 4699 H 476.63 6.35432 1.27005 0
M  V30 4700 N 470.036 -0.519951 1.48776 0
M  V30 4701 C 471.264 -1.29971 1.60982 0
M  V30 4702 C 471.679 -1.86803 0.273885 0
M  V30 4703 O 471.036 -1.66904 -0.738193 0
M  V30 4704 C 471.087 -2.44346 2.66415 0
M  V30 4705 O 470.808 -1.89855 3.94825 0
M  V30 4706 C 472.309 -3.36014 2.89153 0
M  V30 4707 H 469.529 -0.394891 0.542496 0
M  V30 4708 H 472.073 -0.626214 1.94676 0
M  V30 4709 H 470.228 -3.07562 2.35552 0
M  V30 4710 H 470.642 -2.64798 4.5275 0
M  V30 4711 H 472.116 -4.12593 3.66703 0
M  V30 4712 H 472.593 -3.91859 1.98351 0
M  V30 4713 H 473.199 -2.78582 3.21359 0
M  V30 4714 N 471.514 -1.37532 -0.769588 0
M  V30 4715 C 472.763 -1.32183 -1.5235 0
M  V30 4716 C 473.076 0.0906555 -1.9539 0
M  V30 4717 O 474.282 0.266628 -2.70188 0
M  V30 4718 C 472.738 -2.32029 -2.75119 0
M  V30 4719 C 472.346 -3.78816 -2.3917 0
M  V30 4720 C 474.09 -2.35694 -3.53056 0
M  V30 4721 C 471.997 -4.70388 -3.58453 0
M  V30 4722 H 470.927 -0.491275 -0.571984 0
M  V30 4723 H 473.578 -1.63004 -0.842739 0
M  V30 4724 H 471.96 -1.94229 -3.45096 0
M  V30 4725 H 473.134 -4.25466 -1.76962 0
M  V30 4726 H 471.449 -3.78117 -1.74402 0
M  V30 4727 H 474.046 -3.01312 -4.41718 0
M  V30 4728 H 474.389 -1.37117 -3.93071 0
M  V30 4729 H 474.922 -2.72212 -2.90078 0
M  V30 4730 H 471.661 -5.70102 -3.23518 0
M  V30 4731 H 471.181 -4.28442 -4.19758 0
M  V30 4732 H 472.86 -4.87628 -4.25239 0
M  V30 4733 N 472.992 0.995999 -1.22138 0
M  V30 4734 C 473.94 2.10673 -0.985876 0
M  V30 4735 C 474.934 1.69255 0.0699553 0
M  V30 4736 O 476.14 1.79812 -0.0822176 0
M  V30 4737 H 472.515 0.688865 -0.30161 0
M  V30 4738 H 474.486 2.27711 -1.92848 0
M  V30 4739 C 473.235 3.42881 -0.576909 0
M  V30 4740 H 472.558 3.75191 -1.38101 0
M  V30 4741 H 473.998 4.21589 -0.451518 0
M  V30 4742 C 472.457 3.29265 0.713196 0
M  V30 4743 O 472.987 3.60777 1.76643 0
M  V30 4744 N 471.193 2.82456 0.683162 0
M  V30 4745 H 470.74 2.5701 -0.174242 0
M  V30 4746 H 470.698 2.73727 1.54663 0
M  V30 4747 N 474.47 1.03057 1.19235 0
M  V30 4748 C 475.718 0.726581 1.88587 0
M  V30 4749 C 476.039 -0.747227 1.80115 0
M  V30 4750 O 475.309 -1.53849 1.21274 0
M  V30 4751 H 473.889 0.265768 0.698124 0
M  V30 4752 H 476.551 1.30516 1.44746 0
M  V30 4753 H 475.647 1.0224 2.94879 0
M  V30 4754 N 475.948 -1.35272 0.808662 0
M  V30 4755 C 477.176 -2.02946 0.402537 0
M  V30 4756 C 477.591 -1.60937 -0.987147 0
M  V30 4757 O 476.948 -0.807917 -1.63643 0
M  V30 4758 C 476.999 -3.58317 0.47868 0
M  V30 4759 O 476.72 -3.98799 1.81358 0
M  V30 4760 C 478.221 -4.43251 0.0656281 0
M  V30 4761 H 475.441 -0.650831 0.163279 0
M  V30 4762 H 477.985 -1.72849 1.09286 0
M  V30 4763 H 476.14 -3.87055 -0.163415 0
M  V30 4764 H 476.554 -4.93451 1.77781 0
M  V30 4765 H 478.028 -5.51738 0.170017 0
M  V30 4766 H 478.505 -4.27913 -0.989278 0
M  V30 4767 H 479.111 -4.19813 0.68096 0
M  V30 4768 N 477.426 -0.562348 -1.47226 0
M  V30 4769 C 478.673 -0.0402165 -2.0246 0
M  V30 4770 C 479.001 1.31169 -1.43614 0
M  V30 4771 O 478.256 1.86805 -0.5833 0
M  V30 4772 C 478.555 0.0969817 -3.57268 0
M  V30 4773 C 478.221 -1.1847 -4.35058 0
M  V30 4774 C 476.883 -1.53588 -4.56031 0
M  V30 4775 C 479.235 -2.03378 -4.79882 0
M  V30 4776 C 476.563 -2.73452 -5.19077 0
M  V30 4777 C 478.915 -3.2245 -5.44251 0
M  V30 4778 C 477.579 -3.57876 -5.63455 0
M  V30 4779 H 476.849 -0.0147163 -0.740854 0
M  V30 4780 H 479.496 -0.734895 -1.76838 0
M  V30 4781 H 477.801 0.87466 -3.81912 0
M  V30 4782 H 479.498 0.516408 -3.97661 0
M  V30 4783 H 476.088 -0.90126 -4.19017 0
M  V30 4784 H 480.272 -1.77553 -4.63453 0
M  V30 4785 H 475.528 -3.01062 -5.32139 0
M  V30 4786 H 479.702 -3.88526 -5.77945 0
M  V30 4787 H 477.329 -4.50849 -6.12078 0
M  V30 4788 N 478.904 1.54736 -0.299062 0
M  V30 4789 C 480.151 2.00101 0.310784 0
M  V30 4790 C 480.479 1.18746 1.54045 0
M  V30 4791 O 479.734 0.251198 1.94081 0
M  V30 4792 C 480.033 3.50199 0.713835 0
M  V30 4793 C 479.699 4.48997 -0.413873 0
M  V30 4794 C 478.361 4.7573 -0.723462 0
M  V30 4795 C 480.713 5.07839 -1.17257 0
M  V30 4796 C 478.041 5.5857 -1.79491 0
M  V30 4797 C 480.393 5.91844 -2.23392 0
M  V30 4798 C 479.057 6.16889 -2.54959 0
M  V30 4799 H 478.327 0.732221 0.113724 0
M  V30 4800 H 480.974 1.86888 -0.417756 0
M  V30 4801 H 479.279 3.61012 1.52243 0
M  V30 4802 H 480.976 3.82723 1.19684 0
M  V30 4803 H 477.566 4.28292 -0.162476 0
M  V30 4804 H 481.75 4.87188 -0.946651 0
M  V30 4805 H 477.006 5.76213 -2.04423 0
M  V30 4806 H 481.18 6.36465 -2.8264 0
M  V30 4807 H 478.807 6.80869 -3.38114 0
M  V30 4808 N 480.382 0.0267497 1.57577 0
M  V30 4809 C 481.63 -0.651116 1.91324 0
M  V30 4810 C 481.951 -1.72804 0.90353 0
M  V30 4811 O 481.221 -1.95822 -0.0552946 0
M  V30 4812 H 479.801 -0.243491 0.706202 0
M  V30 4813 H 482.463 0.0739935 1.94759 0
M  V30 4814 H 481.559 -1.10536 2.9187 0
M  V30 4815 N 481.861 -1.55662 -0.24637 0
M  V30 4816 C 483.109 -1.77168 -0.972411 0
M  V30 4817 C 483.43 -0.590827 -1.85834 0
M  V30 4818 O 482.7 0.393365 -1.9191 0
M  V30 4819 H 481.28 -0.653405 -0.362038 0
M  V30 4820 H 483.942 -1.93101 -0.264189 0
M  V30 4821 H 483.038 -2.68335 -1.59382 0
M  V30 4822 N 483.339 0.512053 -1.4905 0
M  V30 4823 C 484.585 1.26613 -1.59187 0
M  V30 4824 C 484.94 1.90494 -0.270163 0
M  V30 4825 O 484.233 1.77204 0.728648 0
M  V30 4826 C 484.427 2.36446 -2.68008 0
M  V30 4827 C 484.256 1.83334 -4.10632 0
M  V30 4828 C 483.026 1.65131 -4.77556 0
M  V30 4829 C 485.224 1.35153 -4.96224 0
M  V30 4830 N 483.206 1.06833 -6.04533 0
M  V30 4831 C 484.577 0.889186 -6.13591 0
M  V30 4832 C 486.632 1.23623 -4.82309 0
M  V30 4833 C 485.335 0.322953 -7.18575 0
M  V30 4834 C 487.361 0.683978 -5.87431 0
M  V30 4835 C 486.723 0.2318 -7.04018 0
M  V30 4836 H 482.822 0.453678 -0.636946 0
M  V30 4837 H 485.406 0.575217 -1.86009 0
M  V30 4838 H 483.577 3.03012 -2.42978 0
M  V30 4839 H 485.309 3.03485 -2.67729 0
M  V30 4840 H 482.064 1.89178 -4.34176 0
M  V30 4841 H 482.488 0.796425 -6.72299 0
M  V30 4842 H 487.13 1.57184 -3.92496 0
M  V30 4843 H 484.848 -0.024943 -8.08096 0
M  V30 4844 H 488.434 0.597694 -5.78722 0
M  V30 4845 H 487.314 -0.188869 -7.83973 0
M  V30 4846 N 484.817 1.37938 0.762283 0
M  V30 4847 C 485.764 1.34467 1.87583 0
M  V30 4848 C 486.734 0.208633 1.64785 0
M  V30 4849 O 487.919 0.399494 1.86571 0
M  V30 4850 C 485.059 1.16692 3.24772 0
M  V30 4851 C 484.172 2.39608 3.59461 0
M  V30 4852 C 483.307 2.14631 4.85908 0
M  V30 4853 C 482.346 3.33364 5.13357 0
M  V30 4854 N 481.483 3.07877 6.30996 0
M  V30 4855 H 486.323 2.29669 1.89885 0
M  V30 4856 H 483.86 1.14116 0.928219 0
M  V30 4857 H 485.818 1.04405 4.03925 0
M  V30 4858 H 484.448 0.251333 3.2182 0
M  V30 4859 H 483.5 2.626 2.75219 0
M  V30 4860 H 484.812 3.28128 3.75678 0
M  V30 4861 H 483.966 1.99429 5.72986 0
M  V30 4862 H 482.705 1.23463 4.71814 0
M  V30 4863 H 481.71 3.49094 4.24751 0
M  V30 4864 H 482.935 4.25395 5.29354 0
M  V30 4865 H 480.881 2.19348 6.18241 0
M  V30 4866 H 480.798 3.89944 6.47673 0
M  V30 4867 H 482.066 2.96313 7.20985 0
M  V30 4868 N 486.295 -0.989507 1.22664 0
M  V30 4869 C 487.52 -1.77031 1.08051 0
M  V30 4870 C 487.945 -1.84535 -0.364483 0
M  V30 4871 O 487.303 -1.3003 -1.2634 0
M  V30 4872 C 487.351 -3.18 1.70024 0
M  V30 4873 O 486.455 -4.01161 0.956216 0
M  V30 4874 H 485.796 -0.545008 0.379292 0
M  V30 4875 H 488.326 -1.24277 1.62531 0
M  V30 4876 H 488.336 -3.68616 1.74888 0
M  V30 4877 H 487.011 -3.11853 2.75174 0
M  V30 4878 H 485.588 -3.59687 0.98384 0
M  V30 4879 N 487.773 -1.03688 -1.18687 0
M  V30 4880 C 489.019 -0.739123 -1.88851 0
M  V30 4881 C 489.352 0.731042 -1.79915 0
M  V30 4882 O 488.627 1.53313 -1.19688 0
M  V30 4883 C 488.91 -1.20106 -3.3948 0
M  V30 4884 C 488.763 -2.73304 -3.57246 0
M  V30 4885 C 490.082 -0.788134 -4.32986 0
M  V30 4886 H 487.201 -0.269978 -0.68577 0
M  V30 4887 H 489.843 -1.28822 -1.3966 0
M  V30 4888 H 487.993 -0.733915 -3.81505 0
M  V30 4889 H 489.665 -3.28027 -3.24339 0
M  V30 4890 H 487.908 -3.13313 -3.00029 0
M  V30 4891 H 488.579 -3.00684 -4.62918 0
M  V30 4892 H 491.055 -1.19005 -3.98719 0
M  V30 4893 H 489.931 -1.13915 -5.36949 0
M  V30 4894 H 490.192 0.308988 -4.41019 0
M  V30 4895 N 489.251 1.34841 -0.815825 0
M  V30 4896 C 490.528 1.92908 -0.323416 0
M  V30 4897 C 490.908 1.74479 1.18828 0
M  V30 4898 O 490.256 1.11928 1.99209 0
M  V30 4899 C 490.466 3.40957 -0.744952 0
M  V30 4900 C 491.814 4.18107 -0.739716 0
M  V30 4901 O 492.838 3.49511 -0.68708 0
M  V30 4902 O 491.697 5.40517 -0.806456 0
M  V30 4903 H 488.791 0.822436 -0.0867646 0
M  V30 4904 H 491.337 1.4386 -0.90014 0
M  V30 4905 H 490.109 3.4814 -1.78646 0
M  V30 4906 H 489.732 3.97341 -0.143535 0
M  V30 4907 N 490.729 0.570148 1.46925 0
M  V30 4908 C 491.954 0.0542592 2.07329 0
M  V30 4909 C 492.379 -1.23582 1.41806 0
M  V30 4910 O 491.737 -1.74341 0.497479 0
M  V30 4911 C 491.785 -0.111175 3.60429 0
M  V30 4912 O 490.889 -1.17071 3.95434 0
M  V30 4913 H 490.23 0.0571425 0.661537 0
M  V30 4914 H 492.76 0.789516 1.88753 0
M  V30 4915 H 492.77 -0.321315 4.06733 0
M  V30 4916 H 491.445 0.831012 4.07513 0
M  V30 4917 H 490.022 -0.940029 3.60857 0
M  V30 4918 N 492.207 -1.54576 0.307264 0
M  V30 4919 C 493.456 -1.99442 -0.300976 0
M  V30 4920 C 493.769 -1.19928 -1.5452 0
M  V30 4921 O 494.975 -1.55092 -2.22842 0
M  V30 4922 C 493.431 -3.55084 -0.586809 0
M  V30 4923 C 493.039 -4.43413 0.639438 0
M  V30 4924 C 494.783 -4.0846 -1.1559 0
M  V30 4925 C 492.69 -5.90499 0.326411 0
M  V30 4926 H 491.62 -0.744986 -0.116238 0
M  V30 4927 H 494.271 -1.787 0.416947 0
M  V30 4928 H 492.653 -3.71749 -1.36449 0
M  V30 4929 H 493.827 -4.38522 1.41545 0
M  V30 4930 H 492.142 -4.00842 1.1276 0
M  V30 4931 H 494.739 -5.15926 -1.40445 0
M  V30 4932 H 495.082 -3.59443 -2.10015 0
M  V30 4933 H 495.615 -3.95362 -0.439778 0
M  V30 4934 H 492.354 -6.43676 1.23939 0
M  V30 4935 H 491.874 -5.98382 -0.412212 0
M  V30 4936 H 493.553 -6.46962 -0.0697393 0
M  V30 4937 N 493.685 -0.035106 -1.57561 0
M  V30 4938 C 495.096 0.502885 -1.798 0
M  V30 4939 C 495.447 1.71892 -0.945921 0
M  V30 4940 O 494.572 2.15822 -0.157991 0
M  V30 4941 C 495.167 0.919097 -3.26095 0
M  V30 4942 C 493.726 1.40216 -3.49308 0
M  V30 4943 C 492.873 0.369709 -2.74824 0
M  V30 4944 H 495.824 -0.261102 -1.56537 0
M  V30 4945 H 495.845 1.78308 -3.36135 0
M  V30 4946 H 495.357 0.0338526 -3.88085 0
M  V30 4947 H 493.458 2.30714 -2.92578 0
M  V30 4948 H 493.571 1.40541 -4.58023 0
M  V30 4949 H 491.935 0.839113 -2.40481 0
M  V30 4950 H 492.718 -0.507173 -3.39533 0
M  V30 4951 N 495.163 1.55791 0.238111 0
M  V30 4952 C 496.11 1.9105 1.29493 0
M  V30 4953 C 497.08 0.765733 1.47397 0
M  V30 4954 O 498.265 1.02017 1.61236 0
M  V30 4955 C 495.405 2.21826 2.64362 0
M  V30 4956 C 494.518 3.49153 2.54394 0
M  V30 4957 C 493.653 3.69455 3.81676 0
M  V30 4958 C 492.692 4.90353 3.66361 0
M  V30 4959 N 491.829 5.07131 4.85554 0
M  V30 4960 H 496.669 2.81172 0.987233 0
M  V30 4961 H 494.206 1.39179 0.476203 0
M  V30 4962 H 496.164 2.37675 3.4288 0
M  V30 4963 H 494.794 1.34897 2.93262 0
M  V30 4964 H 493.846 3.41587 1.67399 0
M  V30 4965 H 495.158 4.37818 2.38991 0
M  V30 4966 H 494.312 3.85311 4.68636 0
M  V30 4967 H 493.051 2.7904 3.99985 0
M  V30 4968 H 492.056 4.74464 2.77784 0
M  V30 4969 H 493.281 5.82237 3.49538 0
M  V30 4970 H 491.227 4.19654 5.04209 0
M  V30 4971 H 491.144 5.89899 4.72816 0
M  V30 4972 H 492.412 5.27407 5.73988 0
M  V30 4973 N 496.642 -0.504142 1.49319 0
M  V30 4974 C 497.572 -1.61473 1.68667 0
M  V30 4975 C 498.553 -1.61455 0.535378 0
M  V30 4976 O 499.738 -1.78245 0.770868 0
M  V30 4977 C 496.868 -2.99971 1.75028 0
M  V30 4978 C 495.822 -3.14854 2.89916 0
M  V30 4979 C 495.148 -4.54671 2.81387 0
M  V30 4980 C 496.448 -2.95176 4.30893 0
M  V30 4981 H 498.142 -1.45535 2.61648 0
M  V30 4982 H 495.688 -0.698711 1.25913 0
M  V30 4983 H 497.641 -3.77562 1.8715 0
M  V30 4984 H 496.365 -3.1699 0.786441 0
M  V30 4985 H 495.024 -2.39687 2.77391 0
M  V30 4986 H 494.672 -4.68562 1.82917 0
M  V30 4987 H 494.372 -4.6557 3.58494 0
M  V30 4988 H 495.896 -5.34327 2.95512 0
M  V30 4989 H 497.31 -3.62538 4.44116 0
M  V30 4990 H 495.707 -3.17549 5.09198 0
M  V30 4991 H 496.777 -1.91332 4.45556 0
M  V30 4992 N 498.12 -1.38341 -0.754957 0
M  V30 4993 C 499.366 -1.34672 -1.51628 0
M  V30 4994 C 499.699 0.0636036 -1.94096 0
M  V30 4995 O 498.974 1.0245 -1.6533 0
M  V30 4996 C 499.257 -2.30116 -2.76981 0
M  V30 4997 C 499.11 -3.80003 -2.4066 0
M  V30 4998 C 500.429 -2.23715 -3.78998 0
M  V30 4999 H 497.548 -0.490517 -0.550056 0
M  V30 5000 H 500.19 -1.69178 -0.864807 0
M  V30 5001 H 498.34 -2.00821 -3.3257 0
M  V30 5002 H 500.012 -4.19966 -1.90856 0
M  V30 5003 H 498.255 -3.97751 -1.73137 0
M  V30 5004 H 498.926 -4.42244 -3.30339 0
M  V30 5005 H 501.402 -2.49574 -3.32945 0
M  V30 5006 H 500.278 -2.9261 -4.64403 0
M  V30 5007 H 500.539 -1.23554 -4.24484 0
M  V30 5008 N 499.598 0.982988 -1.23187 0
M  V30 5009 C 500.826 1.75921 -1.08901 0
M  V30 5010 C 501.241 1.85341 0.359719 0
M  V30 5011 O 500.598 1.33072 1.24892 0
M  V30 5012 C 500.649 3.18742 -1.70545 0
M  V30 5013 O 500.37 3.09814 -3.09753 0
M  V30 5014 C 501.871 4.1277 -1.61667 0
M  V30 5015 H 499.091 0.552166 -0.381252 0
M  V30 5016 H 501.635 1.23516 -1.62985 0
M  V30 5017 H 499.79 3.68182 -1.20501 0
M  V30 5018 H 500.204 3.99703 -3.39614 0
M  V30 5019 H 501.678 5.10697 -2.09506 0
M  V30 5020 H 502.155 4.3542 -0.575009 0
M  V30 5021 H 502.761 3.69232 -2.11064 0
M  V30 5022 N 501.076 1.04316 1.18135 0
M  V30 5023 C 502.353 0.662166 1.84051 0
M  V30 5024 C 502.733 -0.858169 1.9287 0
M  V30 5025 O 502.081 -1.76062 1.45652 0
M  V30 5026 C 502.291 1.3409 3.22212 0
M  V30 5027 C 503.639 1.4733 3.9822 0
M  V30 5028 O 504.663 1.29921 3.31661 0
M  V30 5029 O 503.522 1.75722 5.17479 0
M  V30 5030 H 500.616 0.232005 0.79379 0
M  V30 5031 H 503.162 1.1422 1.25506 0
M  V30 5032 H 501.934 2.37853 3.10711 0
M  V30 5033 H 501.557 0.849649 3.88416 0
M  V30 5034 N 502.554 -1.34406 0.822964 0
M  V30 5035 C 503.784 -2.02214 0.423424 0
M  V30 5036 C 504.192 -1.62124 -0.975322 0
M  V30 5037 O 503.535 -0.822452 -1.6426 0
M  V30 5038 C 503.597 -3.56721 0.446107 0
M  V30 5039 C 503.261 -4.20136 1.79819 0
M  V30 5040 C 504.258 -4.4065 2.75904 0
M  V30 5041 C 501.943 -4.56906 2.08669 0
M  V30 5042 C 503.937 -4.9706 3.99012 0
M  V30 5043 C 501.624 -5.13026 3.32036 0
M  V30 5044 C 502.622 -5.33047 4.27024 0
M  V30 5045 O 502.31 -5.87979 5.48211 0
M  V30 5046 H 502.042 -0.654748 0.168169 0
M  V30 5047 H 504.596 -1.72659 1.11257 0
M  V30 5048 H 502.826 -3.85537 -0.299734 0
M  V30 5049 H 504.515 -4.05845 0.0666114 0
M  V30 5050 H 505.281 -4.12607 2.54912 0
M  V30 5051 H 501.16 -4.40626 1.35535 0
M  V30 5052 H 504.704 -5.12603 4.73164 0
M  V30 5053 H 500.601 -5.40498 3.52891 0
M  V30 5054 H 501.369 -6.06413 5.49732 0
M  V30 5055 N 504.032 -0.577932 -1.46621 0
M  V30 5056 C 504.979 0.158048 -2.30258 0
M  V30 5057 C 505.949 0.888669 -1.40328 0
M  V30 5058 O 507.134 0.880283 -1.6928 0
M  V30 5059 C 504.274 1.16884 -3.24703 0
M  V30 5060 C 503.387 0.442163 -4.29731 0
M  V30 5061 C 502.522 1.44007 -5.11308 0
M  V30 5062 C 501.561 0.69952 -6.0809 0
M  V30 5063 N 500.698 1.64525 -6.82551 0
M  V30 5064 H 505.538 -0.561242 -2.92667 0
M  V30 5065 H 503.075 -0.288591 -1.44241 0
M  V30 5066 H 505.033 1.7677 -3.779 0
M  V30 5067 H 503.663 1.85591 -2.64113 0
M  V30 5068 H 502.715 -0.271632 -3.79429 0
M  V30 5069 H 504.027 -0.136992 -4.98612 0
M  V30 5070 H 503.181 2.11186 -5.68758 0
M  V30 5071 H 501.92 2.05315 -4.42377 0
M  V30 5072 H 500.925 0.0139217 -5.49798 0
M  V30 5073 H 502.15 0.091894 -6.79038 0
M  V30 5074 H 500.096 2.24653 -6.16334 0
M  V30 5075 H 500.013 1.11878 -7.47676 0
M  V30 5076 H 501.281 2.30754 -7.44562 0
M  V30 5077 N 505.51 1.54411 -0.315457 0
M  V30 5078 C 506.458 2.25514 0.569771 0
M  V30 5079 C 507.452 1.2663 1.12522 0
M  V30 5080 O 508.658 1.44434 1.07419 0
M  V30 5081 H 505.033 0.724257 0.202376 0
M  V30 5082 H 507.004 2.98354 -0.0522895 0
M  V30 5083 C 505.753 3.02004 1.72305 0
M  V30 5084 H 505.076 3.77906 1.30488 0
M  V30 5085 H 506.516 3.55014 2.31821 0
M  V30 5086 C 504.975 2.09822 2.63583 0
M  V30 5087 O 505.505 1.67574 3.65078 0
M  V30 5088 N 503.711 1.75478 2.31637 0
M  V30 5089 H 503.258 2.10032 1.49145 0
M  V30 5090 H 503.216 1.14079 2.92973 0
M  V30 5091 N 506.988 0.0434614 1.5754 0
M  V30 5092 C 507.935 -0.93356 2.11077 0
M  V30 5093 C 508.905 -1.31383 1.01626 0
M  V30 5094 O 510.09 -1.40465 1.29129 0
M  V30 5095 C 507.23 -2.20578 2.65404 0
M  V30 5096 C 506.343 -1.88068 3.88914 0
M  V30 5097 C 505.478 -3.09691 4.31584 0
M  V30 5098 C 504.517 -2.73067 5.47815 0
M  V30 5099 N 503.654 -3.87359 5.85574 0
M  V30 5100 H 508.494 -0.470118 2.94268 0
M  V30 5101 H 506.031 -0.220434 1.45439 0
M  V30 5102 H 507.989 -2.95011 2.94999 0
M  V30 5103 H 506.619 -2.64513 1.85021 0
M  V30 5104 H 505.671 -1.03816 3.6596 0
M  V30 5105 H 506.983 -1.57104 4.73413 0
M  V30 5106 H 506.137 -3.92431 4.62691 0
M  V30 5107 H 504.876 -3.43827 3.45882 0
M  V30 5108 H 503.881 -1.88742 5.16388 0
M  V30 5109 H 505.106 -2.40131 6.35227 0
M  V30 5110 H 503.052 -4.21311 5.02825 0
M  V30 5111 H 502.969 -3.60068 6.64746 0
M  V30 5112 H 504.237 -4.70761 6.21292 0
M  V30 5113 N 508.466 -1.55915 -0.229846 0
M  V30 5114 C 509.413 -1.91734 -1.28478 0
M  V30 5115 C 510.383 -0.773539 -1.46988 0
M  V30 5116 O 511.568 -1.02871 -1.60693 0
M  V30 5117 C 508.708 -2.23224 -2.63182 0
M  V30 5118 C 507.821 -3.50497 -2.52539 0
M  V30 5119 C 506.956 -3.71474 -3.79711 0
M  V30 5120 C 505.995 -4.92289 -3.63755 0
M  V30 5121 N 505.132 -5.09698 -4.82858 0
M  V30 5122 H 509.972 -2.81692 -0.972308 0
M  V30 5123 H 507.509 -1.39429 -0.468815 0
M  V30 5124 H 509.467 -2.3949 -3.41614 0
M  V30 5125 H 508.097 -1.36451 -2.92542 0
M  V30 5126 H 507.149 -3.4247 -1.65585 0
M  V30 5127 H 508.461 -4.39079 -2.36666 0
M  V30 5128 H 507.615 -3.87791 -4.66586 0
M  V30 5129 H 506.354 -2.81157 -3.985 0
M  V30 5130 H 505.359 -4.7593 -2.75264 0
M  V30 5131 H 506.584 -5.84083 -3.46445 0
M  V30 5132 H 504.53 -4.22322 -5.01976 0
M  V30 5133 H 504.447 -5.92399 -4.69681 0
M  V30 5134 H 505.715 -5.30443 -5.71183 0
M  V30 5135 N 509.944 0.496216 -1.49584 0
M  V30 5136 C 511.191 1.25003 -1.59312 0
M  V30 5137 C 511.519 1.92445 -0.28198 0
M  V30 5138 O 510.774 1.81557 0.730452 0
M  V30 5139 C 511.073 2.3359 -2.705 0
M  V30 5140 C 510.739 1.83574 -4.11839 0
M  V30 5141 C 509.401 1.69653 -4.50302 0
M  V30 5142 C 511.753 1.46193 -5.00277 0
M  V30 5143 C 509.081 1.16736 -5.74969 0
M  V30 5144 C 511.433 0.947265 -6.25468 0
M  V30 5145 C 510.097 0.794485 -6.62755 0
M  V30 5146 H 509.367 0.45742 -0.582965 0
M  V30 5147 H 512.014 0.549996 -1.83432 0
M  V30 5148 H 510.319 3.09401 -2.40371 0
M  V30 5149 H 512.016 2.91627 -2.75235 0
M  V30 5150 H 508.606 1.9537 -3.81482 0
M  V30 5151 H 512.79 1.55793 -4.71214 0
M  V30 5152 H 508.046 1.03623 -6.02555 0
M  V30 5153 H 512.22 0.648846 -6.93371 0
M  V30 5154 H 509.847 0.382271 -7.59238 0
M  V30 5155 N 511.423 1.38739 0.74761 0
M  V30 5156 C 512.371 1.36573 1.88283 0
M  V30 5157 C 513.365 0.250712 1.67534 0
M  V30 5158 O 514.571 0.420073 1.7503 0
M  V30 5159 H 510.946 0.42619 0.619569 0
M  V30 5160 H 512.917 2.32356 1.87226 0
M  V30 5161 C 511.666 1.21361 3.25832 0
M  V30 5162 H 510.989 2.06424 3.42388 0
M  V30 5163 H 512.429 1.23901 4.05493 0
M  V30 5164 C 510.888 -0.0790099 3.36807 0
M  V30 5165 O 511.418 -1.05385 3.8763 0
M  V30 5166 N 509.624 -0.13785 2.90273 0
M  V30 5167 H 509.171 0.656128 2.49104 0
M  V30 5168 H 509.129 -1.00228 2.97996 0
M  V30 5169 N 512.901 -0.976442 1.23707 0
M  V30 5170 C 513.831 -2.08749 1.04624 0
M  V30 5171 C 514.812 -1.70057 -0.0380956 0
M  V30 5172 O 515.997 -1.93782 0.127308 0
M  V30 5173 C 513.127 -3.41335 0.640902 0
M  V30 5174 C 512.081 -3.93947 1.67302 0
M  V30 5175 C 511.407 -5.22774 1.12301 0
M  V30 5176 C 512.707 -4.22769 3.06697 0
M  V30 5177 H 514.401 -2.24972 1.97555 0
M  V30 5178 H 511.947 -1.08108 0.951247 0
M  V30 5179 H 513.9 -4.18489 0.494434 0
M  V30 5180 H 512.624 -3.24988 -0.324099 0
M  V30 5181 H 511.283 -3.18941 1.80755 0
M  V30 5182 H 510.931 -5.0278 0.148877 0
M  V30 5183 H 510.631 -5.58942 1.81267 0
M  V30 5184 H 512.155 -6.02546 0.988479 0
M  V30 5185 H 513.569 -4.90659 2.96524 0
M  V30 5186 H 511.966 -4.70147 3.72937 0
M  V30 5187 H 513.036 -3.29885 3.55392 0
M  V30 5188 N 514.379 -1.04941 -1.1758 0
M  V30 5189 C 515.656 -0.671918 -1.83697 0
M  V30 5190 C 516.036 0.847929 -1.93322 0
M  V30 5191 O 515.384 1.75287 -1.46583 0
M  V30 5192 C 515.594 -1.35797 -3.21497 0
M  V30 5193 C 516.942 -1.4944 -3.97433 0
M  V30 5194 O 517.966 -1.31678 -3.30967 0
M  V30 5195 O 516.825 -1.78463 -5.1654 0
M  V30 5196 H 513.919 -0.236212 -0.792548 0
M  V30 5197 H 516.465 -1.14884 -1.24899 0
M  V30 5198 H 515.237 -2.39498 -3.09446 0
M  V30 5199 H 514.86 -0.870236 -3.8796 0
M  V30 5200 N 515.857 1.33968 -0.830081 0
M  V30 5201 C 516.82 2.27694 -0.26235 0
M  V30 5202 C 517.82 1.50589 0.563876 0
M  V30 5203 O 519.01 1.70028 0.378941 0
M  V30 5204 C 516.142 3.35002 0.63138 0
M  V30 5205 H 517.335 2.79419 -1.08928 0
M  V30 5206 H 514.888 1.44221 -0.602486 0
M  V30 5207 H 515.623 2.88504 1.48109 0
M  V30 5208 H 515.408 3.92079 0.0403276 0
M  V30 5209 H 516.898 4.04897 1.02217 0
M  V30 5210 N 517.335 0.585699 1.46312 0
M  V30 5211 C 518.265 -0.133556 2.33118 0
M  V30 5212 C 519.246 -0.880707 1.45525 0
M  V30 5213 O 520.431 -0.855579 1.74337 0
M  V30 5214 C 517.561 -1.14585 3.27853 0
M  V30 5215 C 516.515 -0.513341 4.2491 0
M  V30 5216 C 515.841 -1.63231 5.09175 0
M  V30 5217 C 517.141 0.551413 5.19381 0
M  V30 5218 H 518.835 0.59121 2.93505 0
M  V30 5219 H 516.381 0.285761 1.41136 0
M  V30 5220 H 518.334 -1.65741 3.87438 0
M  V30 5221 H 517.058 -1.90093 2.65579 0
M  V30 5222 H 515.717 -0.0228349 3.66593 0
M  V30 5223 H 515.365 -2.37713 4.43285 0
M  V30 5224 H 515.065 -1.21473 5.74907 0
M  V30 5225 H 516.589 -2.14658 5.71624 0
M  V30 5226 H 518.003 0.124804 5.73164 0
M  V30 5227 H 516.4 0.889486 5.93471 0
M  V30 5228 H 517.47 1.43655 4.63132 0
M  V30 5229 N 518.813 -1.54241 0.323641 0
M  V30 5230 C 520.059 -2.00867 -0.279323 0
M  V30 5231 C 520.392 -1.21146 -1.5178 0
M  V30 5232 O 519.667 -0.29378 -1.92269 0
M  V30 5233 C 519.95 -3.54837 -0.613387 0
M  V30 5234 C 519.803 -4.45284 0.635803 0
M  V30 5235 C 521.122 -4.16186 -1.43099 0
M  V30 5236 H 518.241 -0.730177 -0.100049 0
M  V30 5237 H 520.883 -1.84829 0.440235 0
M  V30 5238 H 519.033 -3.68634 -1.22641 0
M  V30 5239 H 520.705 -4.43357 1.27406 0
M  V30 5240 H 518.948 -4.14956 1.26466 0
M  V30 5241 H 519.619 -5.5084 0.357597 0
M  V30 5242 H 522.095 -4.05964 -0.912814 0
M  V30 5243 H 520.971 -5.24031 -1.6335 0
M  V30 5244 H 521.232 -3.69516 -2.42715 0
M  V30 5245 N 520.291 -0.0518155 -1.57515 0
M  V30 5246 C 521.519 0.631395 -1.9703 0
M  V30 5247 C 521.934 1.64341 -0.92938 0
M  V30 5248 O 521.291 1.82296 0.0863266 0
M  V30 5249 C 521.342 1.31774 -3.36627 0
M  V30 5250 O 521.063 0.346247 -4.3673 0
M  V30 5251 C 522.564 2.09065 -3.90905 0
M  V30 5252 H 519.784 0.172576 -0.648428 0
M  V30 5253 H 522.328 -0.118306 -2.04158 0
M  V30 5254 H 520.483 2.01867 -3.30649 0
M  V30 5255 H 520.897 0.836226 -5.17791 0
M  V30 5256 H 522.371 2.52508 -4.9086 0
M  V30 5257 H 522.848 2.93908 -3.26366 0
M  V30 5258 H 523.454 1.43882 -4.00223 0
M  V30 5259 N 521.769 1.56035 0.221574 0
M  V30 5260 C 522.719 1.8881 1.27807 0
M  V30 5261 C 523.703 0.751177 1.42289 0
M  V30 5262 O 524.895 1.01359 1.45104 0
M  V30 5263 C 522.024 2.20828 2.6285 0
M  V30 5264 C 521.11 3.40912 2.52269 0
M  V30 5265 N 521.501 4.59531 2.1134 0
M  V30 5266 C 519.799 3.44526 2.83228 0
M  V30 5267 C 520.5 5.41689 2.1201 0
M  V30 5268 N 519.476 4.814 2.52497 0
M  V30 5269 H 523.278 2.78036 0.952529 0
M  V30 5270 H 520.792 1.566 0.430134 0
M  V30 5271 H 522.789 2.42483 3.39127 0
M  V30 5272 H 521.449 1.32914 2.9625 0
M  V30 5273 H 522.46 4.8469 1.82472 0
M  V30 5274 H 519.137 2.66956 3.21 0
M  V30 5275 H 520.527 6.46643 1.82491 0
M  V30 5276 N 523.247 -0.488276 1.49845 0
M  V30 5277 C 524.475 -1.26527 1.63702 0
M  V30 5278 C 524.89 -1.8618 0.313447 0
M  V30 5279 O 524.247 -1.68432 -0.702624 0
M  V30 5280 C 524.298 -2.3864 2.71538 0
M  V30 5281 O 524.019 -1.81437 3.98763 0
M  V30 5282 C 525.52 -3.29805 2.96215 0
M  V30 5283 H 522.74 -0.383295 0.55075 0
M  V30 5284 H 525.284 -0.584779 1.95961 0
M  V30 5285 H 523.439 -3.02496 2.42023 0
M  V30 5286 H 523.853 -2.55135 4.58265 0
M  V30 5287 H 525.327 -4.04722 3.75372 0
M  V30 5288 H 525.804 -3.87563 2.06619 0
M  V30 5289 H 526.41 -2.71703 3.27196 0
M  V30 5290 N 524.725 -1.39134 -0.740242 0
M  V30 5291 C 525.655 -1.40165 -1.86751 0
M  V30 5292 C 526.636 -0.265708 -1.68012 0
M  V30 5293 O 527.821 -0.47076 -1.88408 0
M  V30 5294 C 524.951 -1.2392 -3.2444 0
M  V30 5295 C 523.905 -2.34858 -3.57807 0
M  V30 5296 C 523.231 -2.03707 -4.94376 0
M  V30 5297 C 524.531 -3.77159 -3.61315 0
M  V30 5298 H 526.225 -2.345 -1.86145 0
M  V30 5299 H 523.771 -1.12875 -0.89416 0
M  V30 5300 H 525.724 -1.23263 -4.02969 0
M  V30 5301 H 524.448 -0.26051 -3.25559 0
M  V30 5302 H 523.107 -2.34723 -2.81604 0
M  V30 5303 H 522.755 -1.04289 -4.9207 0
M  V30 5304 H 522.455 -2.78016 -5.17669 0
M  V30 5305 H 523.979 -2.04691 -5.75268 0
M  V30 5306 H 525.393 -3.79252 -4.29931 0
M  V30 5307 H 523.79 -4.50784 -3.96124 0
M  V30 5308 H 524.86 -4.08513 -2.61238 0
M  V30 5309 N 526.204 0.969867 -1.24223 0
M  V30 5310 C 527.615 1.52717 -1.07399 0
M  V30 5311 C 527.966 1.92956 0.355298 0
M  V30 5312 O 527.091 1.77112 1.2434 0
M  V30 5313 C 527.686 2.77521 -1.94339 0
M  V30 5314 C 526.245 3.29615 -1.81744 0
M  V30 5315 C 525.392 2.02537 -1.89405 0
M  V30 5316 H 528.343 0.788399 -1.37732 0
M  V30 5317 H 528.364 3.50773 -1.47439 0
M  V30 5318 H 527.876 2.48203 -2.98357 0
M  V30 5319 H 525.977 3.63789 -0.805505 0
M  V30 5320 H 526.09 3.98661 -2.65718 0
M  V30 5321 H 524.454 2.17151 -1.33108 0
M  V30 5322 H 525.237 1.75587 -2.94999 0
M  V30 5323 N 527.682 1.05563 1.17022 0
M  V30 5324 C 528.929 0.767937 1.87374 0
M  V30 5325 C 529.257 -0.705224 1.81265 0
M  V30 5326 O 528.512 -1.5318 1.21796 0
M  V30 5327 C 528.811 1.19849 3.36706 0
M  V30 5328 C 528.477 2.6745 3.63017 0
M  V30 5329 C 527.139 3.0777 3.69907 0
M  V30 5330 C 529.491 3.62811 3.74189 0
M  V30 5331 C 526.819 4.42307 3.85463 0
M  V30 5332 C 529.171 4.97087 3.91264 0
M  V30 5333 C 527.835 5.37055 3.96394 0
M  V30 5334 H 527.105 0.281008 0.68565 0
M  V30 5335 H 529.752 1.32339 1.38415 0
M  V30 5336 H 528.057 0.562096 3.87747 0
M  V30 5337 H 529.754 0.953038 3.8951 0
M  V30 5338 H 526.344 2.35228 3.58282 0
M  V30 5339 H 530.528 3.32798 3.68183 0
M  V30 5340 H 525.784 4.72769 3.87684 0
M  V30 5341 H 529.958 5.70869 3.9885 0
M  V30 5342 H 527.585 6.41308 4.082 0
M  V30 5343 N 529.16 -1.33526 0.837174 0
M  V30 5344 C 530.437 -1.92369 0.354065 0
M  V30 5345 C 530.817 -1.76348 -1.16038 0
M  V30 5346 O 530.165 -1.15083 -1.97403 0
M  V30 5347 C 530.375 -3.39728 0.799101 0
M  V30 5348 C 531.723 -4.16877 0.806139 0
M  V30 5349 O 532.747 -3.48373 0.742597 0
M  V30 5350 O 531.606 -5.39166 0.892345 0
M  V30 5351 H 528.7 -0.820952 0.0998378 0
M  V30 5352 H 531.246 -1.42409 0.922913 0
M  V30 5353 H 530.018 -3.45254 1.84162 0
M  V30 5354 H 529.641 -3.97062 0.206731 0
M  V30 5355 N 530.638 -0.59345 -1.46 0
M  V30 5356 C 531.585 0.133618 -2.30413 0
M  V30 5357 C 532.555 0.873736 -1.41262 0
M  V30 5358 O 533.74 0.862279 -1.70204 0
M  V30 5359 C 530.88 1.13434 -3.25924 0
M  V30 5360 C 529.993 0.39656 -4.30176 0
M  V30 5361 C 529.128 1.38575 -5.12806 0
M  V30 5362 C 528.167 0.634984 -6.08797 0
M  V30 5363 N 527.304 1.57276 -6.84258 0
M  V30 5364 H 532.144 -0.592252 -2.92055 0
M  V30 5365 H 529.681 -0.303874 -1.43927 0
M  V30 5366 H 531.639 1.72752 -3.79753 0
M  V30 5367 H 530.269 1.82779 -2.66067 0
M  V30 5368 H 529.321 -0.311861 -3.79119 0
M  V30 5369 H 530.633 -0.189869 -4.98438 0
M  V30 5370 H 529.787 2.05141 -5.70966 0
M  V30 5371 H 528.526 2.00611 -4.44529 0
M  V30 5372 H 527.531 -0.0443925 -5.49782 0
M  V30 5373 H 528.756 0.0198678 -6.79097 0
M  V30 5374 H 526.702 2.18103 -6.18682 0
M  V30 5375 H 526.619 1.03941 -7.48821 0
M  V30 5376 H 527.887 2.22844 -7.46968 0
M  V30 5377 N 532.116 1.54067 -0.331816 0
M  V30 5378 C 533.365 1.99895 0.269209 0
M  V30 5379 C 533.678 1.22371 1.52593 0
M  V30 5380 O 534.884 1.58618 2.20347 0
M  V30 5381 C 533.34 3.55972 0.530244 0
M  V30 5382 C 532.948 4.4234 -0.709901 0
M  V30 5383 C 534.692 4.10247 1.09077 0
M  V30 5384 C 532.599 5.89905 -0.420312 0
M  V30 5385 H 531.529 0.746741 0.104371 0
M  V30 5386 H 534.18 1.78014 -0.445324 0
M  V30 5387 H 532.562 3.73873 1.30518 0
M  V30 5388 H 533.736 4.36215 -1.48504 0
M  V30 5389 H 532.051 3.98997 -1.19123 0
M  V30 5390 H 534.648 5.18095 1.32219 0
M  V30 5391 H 534.991 3.62739 2.0427 0
M  V30 5392 H 535.524 3.96011 0.376824 0
M  V30 5393 H 532.263 6.41623 -1.34164 0
M  V30 5394 H 531.783 5.98962 0.316962 0
M  V30 5395 H 533.462 6.46991 -0.0331956 0
M  V30 5396 N 533.594 0.0601682 1.57485 0
M  V30 5397 C 534.819 -0.624416 1.97777 0
M  V30 5398 C 535.244 -1.63051 0.937867 0
M  V30 5399 O 534.602 -1.81036 -0.0978845 0
M  V30 5400 C 534.65 -1.27979 3.37126 0
M  V30 5401 O 533.754 -2.39556 3.35688 0
M  V30 5402 H 533.095 -0.161581 0.64404 0
M  V30 5403 H 535.625 0.131237 2.04179 0
M  V30 5404 H 535.635 -1.62937 3.74053 0
M  V30 5405 H 534.31 -0.542501 4.12347 0
M  V30 5406 H 532.887 -2.06478 3.10517 0
M  V30 5407 N 535.072 -1.5615 -0.213296 0
M  V30 5408 C 535.982 -1.96265 -1.28519 0
M  V30 5409 C 536.998 -0.86765 -1.50824 0
M  V30 5410 O 538.174 -1.17191 -1.63793 0
M  V30 5411 C 535.239 -2.27836 -2.61327 0
M  V30 5412 C 534.3 -3.50949 -2.47252 0
M  V30 5413 C 533.533 -3.81004 -3.73727 0
M  V30 5414 O 533.756 -3.12612 -4.77106 0
M  V30 5415 O 532.69 -4.74477 -3.70344 0
M  V30 5416 H 536.516 -2.87631 -0.974795 0
M  V30 5417 H 534.101 -1.43467 -0.416832 0
M  V30 5418 H 535.983 -2.49299 -3.39747 0
M  V30 5419 H 534.658 -1.39643 -2.9203 0
M  V30 5420 H 533.565 -3.34754 -1.67004 0
M  V30 5421 H 534.898 -4.39551 -2.21486 0
M  V30 5422 N 536.55 0.480323 -1.50102 0
M  V30 5423 C 537.513 1.56181 -1.6775 0
M  V30 5424 C 538.513 1.51156 -0.548503 0
M  V30 5425 O 539.703 1.5394 -0.815363 0
M  V30 5426 C 536.835 2.95823 -1.69415 0
M  V30 5427 H 538.028 1.41855 -2.6423 0
M  V30 5428 H 535.581 0.70605 -1.39444 0
M  V30 5429 H 536.316 3.15604 -0.745948 0
M  V30 5430 H 536.101 3.00878 -2.51425 0
M  V30 5431 H 537.591 3.74359 -1.85054 0
M  V30 5432 N 538.028 1.39524 0.732853 0
M  V30 5433 C 539.275 1.36865 1.49246 0
M  V30 5434 C 539.603 -0.0347118 1.94469 0
M  V30 5435 O 538.858 -1.01596 1.67262 0
M  V30 5436 C 539.157 2.28916 2.74468 0
M  V30 5437 C 538.823 3.76506 2.481 0
M  V30 5438 C 537.485 4.16721 2.40619 0
M  V30 5439 C 539.837 4.69846 2.25598 0
M  V30 5440 C 537.165 5.48334 2.08679 0
M  V30 5441 C 539.517 6.01739 1.95174 0
M  V30 5442 C 538.181 6.41015 1.86163 0
M  V30 5443 H 537.451 0.500824 0.546129 0
M  V30 5444 H 540.098 1.72047 0.840958 0
M  V30 5445 H 538.403 1.86859 3.4437 0
M  V30 5446 H 540.1 2.2415 3.32502 0
M  V30 5447 H 536.69 3.44635 2.54803 0
M  V30 5448 H 540.874 4.39608 2.30344 0
M  V30 5449 H 536.13 5.77685 2.00226 0
M  V30 5450 H 540.304 6.73591 1.76771 0
M  V30 5451 H 537.931 7.42917 1.61179 0
M  V30 5452 N 539.506 -0.963266 1.24736 0
M  V30 5453 C 540.783 -1.68248 0.9976 0
M  V30 5454 C 541.163 -2.05599 -0.478776 0
M  V30 5455 O 540.511 -1.7626 -1.45412 0
M  V30 5456 C 540.721 -2.91118 1.92487 0
M  V30 5457 C 542.069 -3.63261 2.19833 0
M  V30 5458 O 543.093 -3.01184 1.90176 0
M  V30 5459 O 541.952 -4.75019 2.7022 0
M  V30 5460 H 539.046 -0.735744 0.377637 0
M  V30 5461 H 541.592 -1.01696 1.35853 0
M  V30 5462 H 540.364 -2.60242 2.92215 0
M  V30 5463 H 539.987 -3.65402 1.56738 0
M  V30 5464 N 540.985 -1.06182 -1.16461 0
M  V30 5465 C 541.915 -0.692861 -2.22984 0
M  V30 5466 C 542.896 0.314122 -1.67174 0
M  V30 5467 O 544.081 0.189499 -1.93273 0
M  V30 5468 C 541.211 -0.07732 -3.47214 0
M  V30 5469 C 540.165 -1.01015 -4.15909 0
M  V30 5470 C 539.491 -0.257973 -5.34077 0
M  V30 5471 C 540.791 -2.33868 -4.67015 0
M  V30 5472 H 542.485 -1.58343 -2.54102 0
M  V30 5473 H 540.031 -0.76279 -1.22137 0
M  V30 5474 H 541.984 0.19266 -4.20959 0
M  V30 5475 H 540.708 0.848254 -3.15392 0
M  V30 5476 H 539.367 -1.26486 -3.44088 0
M  V30 5477 H 539.015 0.670684 -4.98509 0
M  V30 5478 H 538.715 -0.879638 -5.80979 0
M  V30 5479 H 540.239 0.00448788 -6.106 0
M  V30 5480 H 541.653 -2.1279 -5.32347 0
M  V30 5481 H 540.05 -2.91522 -5.24533 0
M  V30 5482 H 541.12 -2.97019 -3.83286 0
M  V30 5483 N 542.463 1.3308 -0.844243 0
M  V30 5484 C 543.396 2.27075 -0.226279 0
M  V30 5485 C 544.374 1.49911 0.629716 0
M  V30 5486 O 545.558 1.79068 0.588803 0
M  V30 5487 C 542.685 3.31767 0.681782 0
M  V30 5488 C 541.731 4.26384 -0.0994565 0
M  V30 5489 S 542.564 5.15186 -1.46094 0
M  V30 5490 C 543.72 6.23405 -0.558319 0
M  V30 5491 H 543.953 2.79141 -1.02312 0
M  V30 5492 H 541.486 1.40452 -0.641292 0
M  V30 5493 H 543.444 3.92566 1.20008 0
M  V30 5494 H 542.105 2.78507 1.45234 0
M  V30 5495 H 541.298 5.00514 0.591733 0
M  V30 5496 H 540.9 3.69949 -0.548991 0
M  V30 5497 H 543.192 6.77069 0.241672 0
M  V30 5498 H 544.135 6.96619 -1.26995 0
M  V30 5499 H 544.543 5.64333 -0.13728 0
M  V30 5500 N 543.941 0.601185 1.45683 0
M  V30 5501 C 544.889 -0.133955 2.32214 0
M  V30 5502 C 545.883 -0.866034 1.45589 0
M  V30 5503 O 547.089 -0.782326 1.6211 0
M  V30 5504 H 543.464 -0.0620613 0.749435 0
M  V30 5505 H 545.435 0.614389 2.92007 0
M  V30 5506 C 544.184 -1.12216 3.29094 0
M  V30 5507 H 543.507 -0.568273 3.95741 0
M  V30 5508 H 544.947 -1.60659 3.92383 0
M  V30 5509 C 543.406 -2.19251 2.55794 0
M  V30 5510 O 543.936 -3.26894 2.33459 0
M  V30 5511 N 542.142 -1.9436 2.16039 0
M  V30 5512 H 541.689 -1.06829 2.34404 0
M  V30 5513 H 541.647 -2.66181 1.67318 0
M  V30 5514 N 545.419 -1.53889 0.339982 0
M  V30 5515 C 546.351 -2.22435 -0.55275 0
M  V30 5516 C 547.364 -1.22975 -1.06681 0
M  V30 5517 O 548.553 -1.49351 -0.977575 0
M  V30 5518 C 545.653 -2.8882 -1.77302 0
M  V30 5519 C 544.826 -4.14563 -1.39486 0
M  V30 5520 C 543.885 -4.64391 -2.47442 0
M  V30 5521 O 542.911 -5.28687 -2.10899 0
M  V30 5522 N 544.113 -4.40015 -3.78639 0
M  V30 5523 H 546.878 -2.9968 0.0342669 0
M  V30 5524 H 544.439 -1.61068 0.16394 0
M  V30 5525 H 546.431 -3.19072 -2.48948 0
M  V30 5526 H 545.001 -2.15182 -2.26749 0
M  V30 5527 H 544.221 -3.90896 -0.509321 0
M  V30 5528 H 545.509 -4.96362 -1.11813 0
M  V30 5529 H 544.907 -3.88586 -4.11118 0
M  V30 5530 H 543.464 -4.74881 -4.46465 0
M  V30 5531 N 546.897 -0.0685191 -1.57451 0
M  V30 5532 C 548.145 0.60016 -1.92983 0
M  V30 5533 C 548.466 1.70348 -0.949028 0
M  V30 5534 O 547.736 1.959 0.00335647 0
M  V30 5535 H 546.316 0.224682 -0.712409 0
M  V30 5536 H 548.978 -0.125605 -1.94495 0
M  V30 5537 H 548.074 1.02759 -2.94698 0
M  V30 5538 N 548.375 1.56261 0.205012 0
M  V30 5539 C 549.322 1.93754 1.25411 0
M  V30 5540 C 550.292 0.796826 1.45739 0
M  V30 5541 O 551.477 1.05414 1.59036 0
M  V30 5542 C 548.617 2.27383 2.59598 0
M  V30 5543 C 547.73 3.5447 2.46931 0
M  V30 5544 C 546.865 3.77468 3.73753 0
M  V30 5545 C 545.904 4.98014 3.55877 0
M  V30 5546 N 545.041 5.17316 4.74688 0
M  V30 5547 H 549.881 2.83203 0.92737 0
M  V30 5548 H 547.418 1.40158 0.446574 0
M  V30 5549 H 549.376 2.44895 3.37761 0
M  V30 5550 H 548.006 1.41088 2.90335 0
M  V30 5551 H 547.058 3.45061 1.60116 0
M  V30 5552 H 548.37 4.42789 2.29651 0
M  V30 5553 H 547.524 3.95165 4.60358 0
M  V30 5554 H 546.263 2.87461 3.93976 0
M  V30 5555 H 545.268 4.80249 2.67657 0
M  V30 5556 H 546.493 5.8952 3.37109 0
M  V30 5557 H 544.439 4.30255 4.95194 0
M  V30 5558 H 544.356 5.99796 4.60197 0
M  V30 5559 H 545.624 5.39463 5.62672 0
M  V30 5560 N 549.853 -0.472356 1.50355 0
M  V30 5561 C 551.078 -1.25251 1.65309 0
M  V30 5562 C 551.503 -1.85081 0.335643 0
M  V30 5563 O 550.861 -1.67227 -0.700335 0
M  V30 5564 C 550.909 -2.3379 2.74544 0
M  V30 5565 O 550.013 -3.38401 2.35709 0
M  V30 5566 H 549.354 -0.368539 0.552336 0
M  V30 5567 H 551.884 -0.562271 1.96722 0
M  V30 5568 H 551.894 -2.79121 2.97583 0
M  V30 5569 H 550.569 -1.89614 3.70161 0
M  V30 5570 H 549.146 -2.9879 2.23112 0
M  V30 5571 N 551.331 -1.39911 -0.725443 0
M  V30 5572 C 552.577 -1.37858 -1.48738 0
M  V30 5573 C 552.91 0.0224187 -1.94187 0
M  V30 5574 O 552.185 0.989204 -1.67466 0
M  V30 5575 C 552.468 -2.3594 -2.72038 0
M  V30 5576 C 552.321 -3.85023 -2.32546 0
M  V30 5577 C 553.64 -2.31704 -3.74167 0
M  V30 5578 H 550.759 -0.502074 -0.539528 0
M  V30 5579 H 553.401 -1.70974 -0.828728 0
M  V30 5580 H 551.551 -2.0783 -3.28236 0
M  V30 5581 H 553.223 -4.2392 -1.81905 0
M  V30 5582 H 551.466 -4.01334 -1.64661 0
M  V30 5583 H 552.137 -4.49152 -3.20884 0
M  V30 5584 H 554.613 -2.5658 -3.27576 0
M  V30 5585 H 553.489 -3.02395 -4.58092 0
M  V30 5586 H 553.75 -1.3253 -4.21768 0
M  V30 5587 N 552.809 0.956637 -1.25245 0
M  V30 5588 C 554.225 1.22733 -1.02023 0
M  V30 5589 C 554.425 1.99761 0.264186 0
M  V30 5590 O 553.481 2.32814 0.977436 0
M  V30 5591 C 554.794 2.00367 -2.24217 0
M  V30 5592 C 556.342 2.13418 -2.28958 0
M  V30 5593 C 556.817 2.9445 -3.50803 0
M  V30 5594 N 558.308 3.02029 -3.51187 0
M  V30 5595 C 559.043 3.65116 -4.42129 0
M  V30 5596 N 558.539 4.2983 -5.43339 0
M  V30 5597 N 560.332 3.62237 -4.29815 0
M  V30 5598 H 552.483 0.441282 -2.07765 0
M  V30 5599 H 554.746 0.257686 -0.912306 0
M  V30 5600 H 554.452 1.51165 -3.17556 0
M  V30 5601 H 554.326 3.01077 -2.27228 0
M  V30 5602 H 556.713 2.61819 -1.36143 0
M  V30 5603 H 556.794 1.1202 -2.29968 0
M  V30 5604 H 556.438 2.46741 -4.43939 0
M  V30 5605 H 556.368 3.9607 -3.47039 0
M  V30 5606 H 558.859 2.56007 -2.77973 0
M  V30 5607 H 559.172 4.75819 -6.08947 0
M  V30 5608 H 557.517 4.28465 -5.47214 0
M  V30 5609 H 560.708 3.10863 -3.49974 0
M  V30 5610 H 560.881 4.11117 -5.00886 0
M  V30 5611 N 554.287 1.06798 1.15896 0
M  V30 5612 C 555.515 0.808694 1.90441 0
M  V30 5613 C 555.93 -0.637506 1.77711 0
M  V30 5614 O 555.287 -1.43684 1.12522 0
M  V30 5615 C 555.338 1.20068 3.40978 0
M  V30 5616 O 555.059 2.59013 3.53333 0
M  V30 5617 C 556.56 0.96987 4.3256 0
M  V30 5618 H 553.78 0.292809 0.603742 0
M  V30 5619 H 556.324 1.42296 1.46874 0
M  V30 5620 H 554.479 0.630842 3.82229 0
M  V30 5621 H 554.893 2.7485 4.46719 0
M  V30 5622 H 556.367 1.29371 5.36626 0
M  V30 5623 H 556.844 -0.0941209 4.39099 0
M  V30 5624 H 557.45 1.52433 3.97044 0
M  V30 5625 N 555.766 -1.3263 0.851289 0
M  V30 5626 C 557.015 -1.96633 0.449267 0
M  V30 5627 C 557.328 -1.68131 -0.999562 0
M  V30 5628 O 558.534 -2.25845 -1.50685 0
M  V30 5629 C 556.99 -3.51946 0.752446 0
M  V30 5630 C 556.598 -3.89311 2.21678 0
M  V30 5631 C 558.342 -4.22437 0.417983 0
M  V30 5632 C 556.249 -5.37655 2.46336 0
M  V30 5633 H 555.179 -0.735888 0.164269 0
M  V30 5634 H 557.83 -1.51073 1.0416 0
M  V30 5635 H 556.212 -3.95899 0.0895858 0
M  V30 5636 H 557.386 -3.56378 2.92115 0
M  V30 5637 H 555.701 -3.31836 2.51543 0
M  V30 5638 H 558.298 -5.31549 0.579674 0
M  V30 5639 H 558.641 -4.11349 -0.640115 0
M  V30 5640 H 559.174 -3.84057 1.03659 0
M  V30 5641 H 555.913 -5.5376 3.50757 0
M  V30 5642 H 555.433 -5.72005 1.80473 0
M  V30 5643 H 557.112 -6.04695 2.30115 0
M  V30 5644 N 557.244 -0.608902 -1.45362 0
M  V30 5645 C 558.174 0.0964526 -2.33301 0
M  V30 5646 C 559.155 0.857444 -1.46908 0
M  V30 5647 O 560.34 0.827735 -1.75676 0
M  V30 5648 C 557.47 1.09354 -3.29635 0
M  V30 5649 C 556.424 0.445676 -4.25673 0
M  V30 5650 C 555.75 1.5511 -5.11708 0
M  V30 5651 C 557.05 -0.633972 -5.18438 0
M  V30 5652 H 558.744 -0.637829 -2.92527 0
M  V30 5653 H 556.29 -0.308178 -1.40664 0
M  V30 5654 H 558.243 1.59556 -3.90025 0
M  V30 5655 H 556.967 1.85843 -2.6857 0
M  V30 5656 H 555.626 -0.0354897 -3.66583 0
M  V30 5657 H 555.274 2.30631 -4.4701 0
M  V30 5658 H 554.974 1.12311 -5.76767 0
M  V30 5659 H 556.498 2.05537 -5.74967 0
M  V30 5660 H 557.912 -0.215974 -5.72893 0
M  V30 5661 H 556.309 -0.983789 -5.91981 0
M  V30 5662 H 557.379 -1.51005 -4.60788 0
M  V30 5663 N 558.722 1.53707 -0.348139 0
M  V30 5664 C 559.971 2.0017 0.247992 0
M  V30 5665 C 560.284 1.23983 1.51286 0
M  V30 5666 O 561.49 1.60946 2.18652 0
M  V30 5667 C 559.946 3.56515 0.492459 0
M  V30 5668 C 559.554 4.41562 -0.756777 0
M  V30 5669 C 561.298 4.11381 1.0472 0
M  V30 5670 C 559.205 5.89426 -0.482856 0
M  V30 5671 H 558.135 0.747806 0.0964452 0
M  V30 5672 H 560.786 1.77532 -0.464179 0
M  V30 5673 H 559.168 3.75236 1.26545 0
M  V30 5674 H 560.342 4.34615 -1.53122 0
M  V30 5675 H 558.657 3.97711 -1.23348 0
M  V30 5676 H 561.254 5.19468 1.26717 0
M  V30 5677 H 561.597 3.64885 2.00411 0
M  V30 5678 H 562.13 3.96389 0.334801 0
M  V30 5679 H 558.869 6.40164 -1.40962 0
M  V30 5680 H 558.389 5.99264 0.253416 0
M  V30 5681 H 560.068 6.4692 -0.101816 0
M  V30 5682 N 560.2 0.0768682 1.57412 0
M  V30 5683 C 561.447 -0.591085 1.93681 0
M  V30 5684 C 561.775 -1.69311 0.957286 0
M  V30 5685 O 561.03 -1.95682 -0.0262428 0
M  V30 5686 C 561.329 -1.20268 3.36557 0
M  V30 5687 C 560.995 -0.226286 4.50332 0
M  V30 5688 C 559.657 0.0423142 4.81181 0
M  V30 5689 C 562.009 0.441415 5.19327 0
M  V30 5690 C 559.337 0.985616 5.78362 0
M  V30 5691 C 561.689 1.37307 6.17519 0
M  V30 5692 C 560.353 1.65009 6.46783 0
M  V30 5693 H 559.623 -0.216293 0.70873 0
M  V30 5694 H 562.27 0.148824 1.90921 0
M  V30 5695 H 560.575 -2.01844 3.35807 0
M  V30 5696 H 562.272 -1.72688 3.61911 0
M  V30 5697 H 558.862 -0.445821 4.26275 0
M  V30 5698 H 563.046 0.247023 4.95685 0
M  V30 5699 H 558.302 1.20743 5.99359 0
M  V30 5700 H 562.476 1.89637 6.70083 0
M  V30 5701 H 560.103 2.38263 7.21897 0
M  V30 5702 O 561.717 -1.61375 -0.0636308 0
M  V30 5703 H 562.408 -1.81049 -0.688533 0
M  V30 END ATOM
M  V30 BEGIN BOND
M  V30 END BOND
M  V30 END CTAB
M  END
$$$$
