drugbank_target|P39900 Macrophage metalloelastase (DB00551; DB00786; DB02118; DB03367; DB03880; DB04405; DB05387; DB07026; DB07446; DB07556; DB07683; DB07920; DB07921; DB07922; DB08271; DB08599)
 OpenBabel12092119493D

  0  0  0     0  0            999 V3000
M  V30 BEGIN CTAB
M  V30 COUNTS 7545 7662 0 0 0
M  V30 BEGIN ATOM
M  V30 1 H -0.908 1.98254 -0.117106 0
M  V30 2 N 0 1.576 0 0
M  V30 3 C 0.933 2.03868 1.02534 0
M  V30 4 C 1.911 0.928543 1.3348 0
M  V30 5 O 3.095 1.19667 1.45644 0
M  V30 6 C 0.222 2.43627 2.35294 0
M  V30 7 C -0.732 3.65373 2.2001 0
M  V30 8 S 0.101 5.13292 1.52614 0
M  V30 9 C 1.257 5.56322 2.86805 0
M  V30 10 H 1.49 2.90518 0.631377 0
M  V30 11 H -0.977 1.52953 0.210867 0
M  V30 12 H 0.981 2.67203 3.11629 0
M  V30 13 H -0.358 1.57376 2.7183 0
M  V30 14 H -1.165 3.90944 3.18086 0
M  V30 15 H -1.563 3.418 1.51819 0
M  V30 16 H 0.729 5.58782 3.83104 0
M  V30 17 H 1.672 6.56266 2.65933 0
M  V30 18 H 2.08 4.83886 2.90714 0
M  V30 19 N 1.4781 -0.272755 1.55222 0
M  V30 20 C 2.4251 -1.33716 1.88119 0
M  V30 21 C 3.3951 -1.49066 0.73271 0
M  V30 22 O 4.5801 -1.63469 0.984002 0
M  V30 23 C 1.7201 -2.69238 2.15882 0
M  V30 24 C 0.8331 -2.62108 3.43399 0
M  V30 25 C -0.0319 -3.89811 3.60861 0
M  V30 26 C -0.9929 -3.77193 4.8207 0
M  V30 27 N -1.8559 -4.9673 4.96189 0
M  V30 28 H 2.9841 -1.04962 2.78903 0
M  V30 29 H 0.5211 -0.507088 1.38083 0
M  V30 30 H 2.4791 -3.48089 2.29978 0
M  V30 31 H 1.1091 -2.96194 1.28331 0
M  V30 32 H 0.1611 -1.74967 3.37773 0
M  V30 33 H 1.4731 -2.48685 4.32386 0
M  V30 34 H 0.6271 -4.77103 3.74777 0
M  V30 35 H -0.6339 -4.06102 2.7006 0
M  V30 36 H -1.6289 -2.88284 4.68159 0
M  V30 37 H -0.4039 -3.62421 5.74307 0
M  V30 38 H -2.4579 -5.13431 4.08319 0
M  V30 39 H -2.5409 -4.85839 5.79221 0
M  V30 40 H -1.2729 -5.85594 5.1449 0
M  V30 41 N 2.9562 -1.48159 -0.537278 0
M  V30 42 C 4.2032 -1.55804 -1.29349 0
M  V30 43 C 4.5312 -0.228802 -1.9315 0
M  V30 44 O 3.7862 0.780242 -1.79473 0
M  V30 45 C 4.0852 -2.63956 -2.40961 0
M  V30 46 C 3.7512 -4.0662 -1.94861 0
M  V30 47 C 2.4132 -4.45452 -1.82006 0
M  V30 48 C 4.7652 -4.96055 -1.59933 0
M  V30 49 C 2.0932 -5.71531 -1.32547 0
M  V30 50 C 4.4452 -6.22617 -1.11939 0
M  V30 51 C 3.1092 -6.60312 -0.976951 0
M  V30 52 H 2.3792 -0.570129 -0.473322 0
M  V30 53 H 5.0262 -1.81845 -0.600372 0
M  V30 54 H 3.3312 -2.31747 -3.15912 0
M  V30 55 H 5.0282 -2.67089 -2.99107 0
M  V30 56 H 1.6182 -3.75949 -2.05815 0
M  V30 57 H 5.8022 -4.66738 -1.68728 0
M  V30 58 H 1.0582 -5.99468 -1.202 0
M  V30 59 H 5.2322 -6.91318 -0.839811 0
M  V30 60 H 2.8592 -7.57895 -0.591501 0
M  V30 61 N 4.4343 0.785586 -1.36625 0
M  V30 62 C 5.3643 1.91259 -1.33949 0
M  V30 63 C 6.3453 1.68795 -0.210325 0
M  V30 64 O 7.5303 1.89854 -0.408561 0
M  V30 65 C 4.6603 3.28339 -1.13186 0
M  V30 66 C 3.6143 3.65335 -2.22967 0
M  V30 67 C 2.9403 5.00806 -1.87342 0
M  V30 68 C 4.2403 3.7352 -3.65075 0
M  V30 69 H 5.9343 1.93755 -2.28253 0
M  V30 70 H 3.4803 0.930788 -1.09874 0
M  V30 71 H 5.4333 4.06804 -1.09948 0
M  V30 72 H 4.1573 3.2624 -0.153332 0
M  V30 73 H 2.8163 2.89169 -2.25337 0
M  V30 74 H 2.4643 4.95233 -0.880545 0
M  V30 75 H 2.1643 5.26529 -2.60846 0
M  V30 76 H 3.6883 5.81687 -1.85667 0
M  V30 77 H 5.1023 4.42168 -3.64911 0
M  V30 78 H 3.4993 4.10731 -4.37516 0
M  V30 79 H 4.5693 2.74527 -3.99703 0
M  V30 80 N 5.9124 1.20967 1.01018 0
M  V30 81 C 6.8424 0.988272 2.11555 0
M  V30 82 C 7.8234 -0.0849778 1.69888 0
M  V30 83 O 9.0084 0.0738202 1.9406 0
M  V30 84 C 6.1384 0.546528 3.42973 0
M  V30 85 C 5.0924 1.56375 3.9841 0
M  V30 86 C 4.4184 0.97842 5.25672 0
M  V30 87 C 5.7184 2.94922 4.31066 0
M  V30 88 H 7.4124 1.91276 2.30334 0
M  V30 89 H 4.9584 0.921073 1.1069 0
M  V30 90 H 6.9114 0.378839 4.19694 0
M  V30 91 H 5.6354 -0.413598 3.23971 0
M  V30 92 H 4.2944 1.71891 3.23804 0
M  V30 93 H 3.9424 0.0101688 5.02999 0
M  V30 94 H 3.6424 1.65784 5.63728 0
M  V30 95 H 5.1664 0.821939 6.05043 0
M  V30 96 H 6.5804 2.8288 4.9865 0
M  V30 97 H 4.9774 3.5983 4.80253 0
M  V30 98 H 6.0474 3.4616 3.39561 0
M  V30 99 N 7.3905 -1.2043 1.01659 0
M  V30 100 C 8.6395 -1.89118 0.701237 0
M  V30 101 C 8.9525 -1.79705 -0.772358 0
M  V30 102 O 10.1585 -2.43528 -1.20026 0
M  V30 103 C 8.6145 -3.39168 1.20388 0
M  V30 104 C 8.2225 -3.57166 2.70438 0
M  V30 105 C 9.9665 -4.1341 0.963953 0
M  V30 106 C 7.8735 -5.01042 3.14183 0
M  V30 107 H 6.8035 -0.708267 0.2586 0
M  V30 108 H 9.4545 -1.36239 1.22927 0
M  V30 109 H 7.8365 -3.91369 0.603824 0
M  V30 110 H 9.0105 -3.15351 3.35992 0
M  V30 111 H 7.3255 -2.96294 2.92572 0
M  V30 112 H 9.9225 -5.19491 1.26621 0
M  V30 113 H 10.2655 -4.16181 -0.099578 0
M  V30 114 H 10.7985 -3.67309 1.52738 0
M  V30 115 H 7.5375 -5.03426 4.19812 0
M  V30 116 H 7.0575 -5.43668 2.53348 0
M  V30 117 H 8.7365 -5.69623 3.0682 0
M  V30 118 N 8.8686 -0.792821 -1.36206 0
M  V30 119 C 9.7986 -0.207853 -2.32573 0
M  V30 120 C 10.7796 0.659055 -1.56813 0
M  V30 121 O 11.9646 0.592176 -1.84951 0
M  V30 122 C 9.0946 0.655449 -3.41059 0
M  V30 123 C 8.0486 -0.111842 -4.27854 0
M  V30 124 C 7.3746 0.872274 -5.27537 0
M  V30 125 C 8.6746 -1.30299 -5.05786 0
M  V30 126 H 10.3686 -1.01294 -2.81744 0
M  V30 127 H 7.9146 -0.48854 -1.3546 0
M  V30 128 H 9.8676 1.07464 -4.07467 0
M  V30 129 H 8.5916 1.49328 -2.90463 0
M  V30 130 H 7.2506 -0.512053 -3.63006 0
M  V30 131 H 6.8986 1.70523 -4.73214 0
M  V30 132 H 6.5986 0.363291 -5.86476 0
M  V30 133 H 8.1226 1.28996 -5.96818 0
M  V30 134 H 9.5366 -0.959379 -5.65216 0
M  V30 135 H 7.9336 -1.7455 -5.74154 0
M  V30 136 H 9.0036 -2.09663 -4.37229 0
M  V30 137 N 10.3467 1.47872 -0.545128 0
M  V30 138 C 11.2767 2.32661 0.197793 0
M  V30 139 C 12.2577 1.43041 0.920504 0
M  V30 140 O 13.4427 1.71912 0.90333 0
M  V30 141 C 10.5727 3.24569 1.23582 0
M  V30 142 C 9.5267 4.23333 0.630323 0
M  V30 143 C 8.8527 5.0448 1.77211 0
M  V30 144 C 10.1527 5.20704 -0.407974 0
M  V30 145 H 11.8467 2.95024 -0.510045 0
M  V30 146 H 9.3927 1.4187 -0.246731 0
M  V30 147 H 11.3457 3.8272 1.76362 0
M  V30 148 H 10.0697 2.60236 1.97344 0
M  V30 149 H 8.7287 3.6639 0.123922 0
M  V30 150 H 8.3767 4.36561 2.49847 0
M  V30 151 H 8.0767 5.71339 1.37281 0
M  V30 152 H 9.6007 5.65487 2.3034 0
M  V30 153 H 11.0147 5.7329 0.033305 0
M  V30 154 H 9.4117 5.95699 -0.725486 0
M  V30 155 H 10.4817 4.66917 -1.30828 0
M  V30 156 N 11.8248 0.280983 1.55075 0
M  V30 157 C 12.7548 -0.597469 2.25727 0
M  V30 158 C 13.7358 -1.15417 1.24952 0
M  V30 159 O 14.9208 -1.18722 1.53684 0
M  V30 160 C 12.0508 -1.7789 2.98283 0
M  V30 161 C 11.0048 -1.35347 4.06036 0
M  V30 162 C 10.3308 -2.61846 4.66198 0
M  V30 163 C 11.6308 -0.499354 5.19907 0
M  V30 164 H 13.3248 -0.00824265 2.99399 0
M  V30 165 H 10.8708 -0.0025244 1.44 0
M  V30 166 H 12.8238 -2.39937 3.46422 0
M  V30 167 H 11.5478 -2.39405 2.22155 0
M  V30 168 H 10.2068 -0.756156 3.58717 0
M  V30 169 H 9.8548 -3.21632 3.86732 0
M  V30 170 H 9.5548 -2.3409 5.38958 0
M  V30 171 H 11.0788 -3.24732 5.1709 0
M  V30 172 H 12.4928 -1.02498 5.64063 0
M  V30 173 H 10.8898 -0.316424 5.99265 0
M  V30 174 H 11.9598 0.480459 4.82514 0
M  V30 175 N 13.3029 -1.57598 0.00835791 0
M  V30 176 C 14.2349 -2.05811 -1.00868 0
M  V30 177 C 15.2479 -0.977579 -1.30182 0
M  V30 178 O 16.4369 -1.25421 -1.27011 0
M  V30 179 C 13.5369 -2.45016 -2.34137 0
M  V30 180 C 12.7099 -3.75903 -2.23643 0
M  V30 181 C 11.7689 -4.01884 -3.3967 0
M  V30 182 O 10.7949 -4.72433 -3.17483 0
M  V30 183 N 11.9969 -3.50432 -4.62793 0
M  V30 184 H 14.7619 -2.93684 -0.597458 0
M  V30 185 H 12.3229 -1.60909 -0.178852 0
M  V30 186 H 14.3149 -2.59506 -3.10546 0
M  V30 187 H 12.8849 -1.62618 -2.66972 0
M  V30 188 H 12.1049 -3.7141 -1.32091 0
M  V30 189 H 13.3929 -4.61695 -2.13812 0
M  V30 190 H 12.7909 -2.93317 -4.83716 0
M  V30 191 H 11.3479 -3.70236 -5.3644 0
M  V30 192 N 14.781 0.264519 -1.55364 0
M  V30 193 C 15.744 1.31046 -1.88042 0
M  V30 194 C 16.744 1.41943 -0.755569 0
M  V30 195 O 17.934 1.40947 -1.02369 0
M  V30 196 C 15.066 2.69067 -2.09323 0
M  V30 197 H 16.259 1.03297 -2.81549 0
M  V30 198 H 13.812 0.502989 -1.47986 0
M  V30 199 H 14.547 3.01982 -1.18226 0
M  V30 200 H 14.332 2.62542 -2.91229 0
M  V30 201 H 15.822 3.44623 -2.35848 0
M  V30 202 N 16.2591 1.48442 0.529413 0
M  V30 203 C 17.4871 1.60151 1.30994 0
M  V30 204 C 17.9021 0.261985 1.86973 0
M  V30 205 O 17.2591 -0.748805 1.66431 0
M  V30 206 C 17.3101 2.64854 2.46038 0
M  V30 207 O 17.0311 3.93608 1.92365 0
M  V30 208 C 18.5321 2.87007 3.37849 0
M  V30 209 H 15.7521 0.539971 0.398338 0
M  V30 210 H 18.2961 1.94273 0.638597 0
M  V30 211 H 16.4511 2.33589 3.09055 0
M  V30 212 H 16.8651 4.51055 2.67675 0
M  V30 213 H 18.3391 3.64068 4.14919 0
M  V30 214 H 18.8161 1.95852 3.93114 0
M  V30 215 H 19.4221 3.19579 2.80623 0
M  V30 216 N 17.7372 -0.778329 1.37039 0
M  V30 217 C 18.7002 -1.87301 1.32102 0
M  V30 218 C 19.7002 -1.59198 0.226405 0
M  V30 219 O 20.8902 -1.67403 0.481861 0
M  V30 220 C 18.0222 -3.24309 1.05055 0
M  V30 221 H 19.2152 -1.93093 2.29467 0
M  V30 222 H 16.7682 -0.977358 1.21973 0
M  V30 223 H 17.5032 -3.24196 0.0819373 0
M  V30 224 H 17.2882 -3.46098 1.84279 0
M  V30 225 H 18.7782 -4.04382 1.04234 0
M  V30 226 N 19.2153 -1.21501 -1.00376 0
M  V30 227 C 20.4403 -1.05977 -1.78279 0
M  V30 228 C 20.8653 0.385994 -1.84097 0
M  V30 229 O 20.2233 1.27849 -1.28547 0
M  V30 230 C 20.2713 -1.66302 -3.19963 0
M  V30 231 O 19.3753 -0.909333 -4.0225 0
M  V30 232 H 18.7163 -0.372906 -0.549397 0
M  V30 233 H 21.2463 -1.6107 -1.26165 0
M  V30 234 H 21.2563 -1.70574 -3.70632 0
M  V30 235 H 19.9313 -2.71515 -3.15043 0
M  V30 236 H 18.5083 -0.941795 -3.60811 0
M  V30 237 N 20.6934 1.19889 -1.02296 0
M  V30 238 C 21.9414 1.89046 -0.714558 0
M  V30 239 C 22.2624 1.79636 0.758681 0
M  V30 240 O 21.5324 1.20292 1.54618 0
M  V30 241 H 20.1124 0.699802 -0.261317 0
M  V30 242 H 22.7744 1.45574 -1.29592 0
M  V30 243 H 21.8704 2.95524 -1.0036 0
M  V30 244 N 22.1715 0.800033 1.35784 0
M  V30 245 C 23.1345 0.211565 2.28221 0
M  V30 246 C 24.1345 -0.59728 1.49296 0
M  V30 247 O 25.3245 -0.416721 1.69142 0
M  V30 248 C 22.4565 -0.705846 3.33513 0
M  V30 249 H 23.6495 1.02677 2.81776 0
M  V30 250 H 21.2025 0.570211 1.45528 0
M  V30 251 H 21.9375 -1.54498 2.85133 0
M  V30 252 H 21.7225 -0.127655 3.91892 0
M  V30 253 H 23.2125 -1.11211 4.02519 0
M  V30 254 N 23.6496 -1.47581 0.552962 0
M  V30 255 C 24.5796 -2.32762 -0.185451 0
M  V30 256 C 25.5606 -1.43527 -0.912905 0
M  V30 257 O 26.7456 -1.72388 -0.894201 0
M  V30 258 C 23.8756 -3.25219 -1.21859 0
M  V30 259 C 22.8296 -4.23661 -0.607864 0
M  V30 260 C 22.1556 -5.05413 -1.74533 0
M  V30 261 C 23.4556 -5.20481 0.435582 0
M  V30 262 H 25.1496 -2.94749 0.525684 0
M  V30 263 H 22.6956 -1.41738 0.254251 0
M  V30 264 H 24.6486 -3.8365 -1.7433 0
M  V30 265 H 23.3726 -2.61279 -1.95961 0
M  V30 266 H 22.0316 -3.66451 -0.104489 0
M  V30 267 H 21.6796 -4.3788 -2.47529 0
M  V30 268 H 21.3796 -5.72059 -1.34249 0
M  V30 269 H 22.9036 -5.66701 -2.27338 0
M  V30 270 H 24.3176 -5.733 -0.00290157 0
M  V30 271 H 22.7146 -5.95305 0.757067 0
M  V30 272 H 23.7846 -4.66217 1.33303 0
M  V30 273 N 25.1277 -0.289203 -1.54924 0
M  V30 274 C 26.5387 0.205791 -1.85562 0
M  V30 275 C 26.8897 1.54351 -1.2112 0
M  V30 276 O 26.0147 2.10435 -0.504601 0
M  V30 277 C 26.6097 0.380177 -3.3666 0
M  V30 278 C 25.1687 0.819395 -3.67373 0
M  V30 279 C 24.3157 -0.079159 -2.77187 0
M  V30 280 H 27.2667 -0.510577 -1.50262 0
M  V30 281 H 27.2877 1.21659 -3.60526 0
M  V30 282 H 26.7997 -0.593589 -3.83534 0
M  V30 283 H 24.9007 1.80413 -3.26009 0
M  V30 284 H 25.0137 0.646957 -4.74712 0
M  V30 285 H 23.3777 0.439565 -2.50878 0
M  V30 286 H 24.1607 -1.04906 -3.26878 0
M  V30 287 N 26.6058 1.57591 -0.0167156 0
M  V30 288 C 27.5358 2.12496 0.967858 0
M  V30 289 C 28.5168 1.03807 1.34752 0
M  V30 290 O 29.7018 1.31577 1.42833 0
M  V30 291 C 26.8318 2.64194 2.25431 0
M  V30 292 C 25.7858 3.77559 2.01576 0
M  V30 293 C 25.1118 4.15636 3.36379 0
M  V30 294 C 26.4118 5.04151 1.36489 0
M  V30 295 H 28.1058 2.95013 0.510643 0
M  V30 296 H 25.6518 1.41915 0.244181 0
M  V30 297 H 27.6048 3.01236 2.94678 0
M  V30 298 H 26.3288 1.78821 2.73296 0
M  V30 299 H 24.9878 3.40937 1.34751 0
M  V30 300 H 24.6358 3.27263 3.81979 0
M  V30 301 H 24.3358 4.92022 3.21229 0
M  V30 302 H 25.8598 4.5525 4.06915 0
M  V30 303 H 27.2738 5.38857 1.95718 0
M  V30 304 H 25.6708 5.85453 1.31776 0
M  V30 305 H 26.7408 4.83733 0.336219 0
M  V30 306 N 28.0839 -0.256276 1.55502 0
M  V30 307 C 29.0319 -1.33694 1.90338 0
M  V30 308 C 30.0259 -1.50299 0.781441 0
M  V30 309 O 31.2319 -1.51885 0.965966 0
M  V30 310 H 27.6069 -0.447483 0.60437 0
M  V30 311 H 29.5779 -1.01574 2.8058 0
M  V30 312 C 28.3269 -2.68724 2.20642 0
M  V30 313 H 27.6499 -2.56743 3.06469 0
M  V30 314 H 29.0899 -3.43237 2.48926 0
M  V30 315 C 27.5489 -3.21101 1.01959 0
M  V30 316 O 28.0789 -4.0084 0.262762 0
M  V30 317 N 26.2849 -2.79003 0.812746 0
M  V30 318 H 25.8319 -2.14271 1.42989 0
M  V30 319 H 25.7899 -3.14393 0.0203076 0
M  V30 320 N 29.562 -1.4872 -0.521534 0
M  V30 321 C 30.787 -1.61101 -1.30618 0
M  V30 322 C 31.212 -0.274611 -1.86085 0
M  V30 323 O 30.57 0.754937 -1.64834 0
M  V30 324 C 30.618 -2.66709 -2.4269 0
M  V30 325 O 29.722 -2.24456 -3.45967 0
M  V30 326 H 29.063 -0.539921 -0.386499 0
M  V30 327 H 31.593 -1.94767 -0.626645 0
M  V30 328 H 31.603 -2.88245 -2.88754 0
M  V30 329 H 30.278 -3.63727 -2.01682 0
M  V30 330 H 28.855 -2.13168 -3.05964 0
M  V30 331 N 31.0401 0.771051 -1.3745 0
M  V30 332 C 32.2651 1.56529 -1.36065 0
M  V30 333 C 32.6901 1.88029 0.0515859 0
M  V30 334 O 32.0481 1.49282 1.02882 0
M  V30 335 C 32.0961 2.85187 -2.20683 0
M  V30 336 O 31.2001 3.79593 -1.61193 0
M  V30 337 H 30.5411 0.47411 -0.464883 0
M  V30 338 H 33.0711 0.954269 -1.80983 0
M  V30 339 H 33.0811 3.34283 -2.33921 0
M  V30 340 H 31.7561 2.61588 -3.23334 0
M  V30 341 H 30.3331 3.38239 -1.56999 0
M  V30 342 N 32.5182 1.22032 0.997298 0
M  V30 343 C 33.7462 1.06841 1.7718 0
M  V30 344 C 34.1612 -0.381325 1.84909 0
M  V30 345 O 33.5182 -1.26437 1.31605 0
M  V30 346 C 33.5692 1.66814 3.20711 0
M  V30 347 O 33.2902 3.06116 3.13408 0
M  V30 348 C 34.7912 1.56838 4.14628 0
M  V30 349 H 32.0112 0.374782 0.556578 0
M  V30 350 H 34.5552 1.61532 1.2541 0
M  V30 351 H 32.7102 1.16196 3.69564 0
M  V30 352 H 33.1242 3.34926 4.0364 0
M  V30 353 H 34.5982 2.03532 5.13107 0
M  V30 354 H 35.0752 0.524155 4.36061 0
M  V30 355 H 35.6812 2.06741 3.7167 0
M  V30 356 N 33.9963 -1.19345 1.0293 0
M  V30 357 C 35.2213 -1.93538 0.745511 0
M  V30 358 C 35.6463 -1.75007 -0.689511 0
M  V30 359 O 35.0043 -1.05265 -1.47611 0
M  V30 360 C 35.0523 -3.43336 1.10239 0
M  V30 361 O 34.1563 -4.11806 0.221289 0
M  V30 362 H 33.4973 -0.604193 0.275404 0
M  V30 363 H 36.0273 -1.5141 1.37609 0
M  V30 364 H 36.0373 -3.94004 1.05947 0
M  V30 365 H 34.7123 -3.56146 2.14786 0
M  V30 366 H 33.2893 -3.715 0.322842 0
M  V30 367 N 35.4744 -0.807222 -1.35358 0
M  V30 368 C 36.4044 -0.232509 -2.3234 0
M  V30 369 C 37.3854 0.642386 -1.57504 0
M  V30 370 O 38.5704 0.572526 -1.85569 0
M  V30 371 C 35.7004 0.619238 -3.41735 0
M  V30 372 C 34.6544 -0.157215 -4.27711 0
M  V30 373 C 33.9804 0.816273 -5.28433 0
M  V30 374 C 35.2804 -1.35656 -5.04376 0
M  V30 375 H 36.9744 -1.04276 -2.80654 0
M  V30 376 H 34.5204 -0.50288 -1.34934 0
M  V30 377 H 36.4734 1.03137 -4.08584 0
M  V30 378 H 35.1974 1.46239 -2.92031 0
M  V30 379 H 33.8564 -0.550525 -3.62443 0
M  V30 380 H 33.5044 1.65494 -4.74996 0
M  V30 381 H 33.2044 0.301067 -5.86828 0
M  V30 382 H 34.7284 1.22659 -5.98153 0
M  V30 383 H 36.1424 -1.01927 -5.64166 0
M  V30 384 H 34.5394 -1.8063 -5.7227 0
M  V30 385 H 35.6094 -2.14288 -4.34981 0
M  V30 386 N 36.9525 1.47285 -0.560781 0
M  V30 387 C 37.8625 2.33846 0.187954 0
M  V30 388 C 38.8785 1.48412 0.908293 0
M  V30 389 O 40.0545 1.81332 0.876388 0
M  V30 390 C 37.1195 3.25178 1.2025 0
M  V30 391 C 36.1805 4.26504 0.489208 0
M  V30 392 C 35.4135 5.13472 1.45542 0
M  V30 393 O 35.6365 5.02959 2.6905 0
M  V30 394 O 34.5705 5.93902 0.977963 0
M  V30 395 H 38.3965 2.99177 -0.522177 0
M  V30 396 H 35.9815 1.45903 -0.321364 0
M  V30 397 H 37.8635 3.81584 1.78805 0
M  V30 398 H 36.5385 2.6247 1.89449 0
M  V30 399 H 35.4455 3.73847 -0.137627 0
M  V30 400 H 36.7785 4.91935 -0.161399 0
M  V30 401 N 38.4306 0.297415 1.54768 0
M  V30 402 C 39.3776 -0.580276 2.23386 0
M  V30 403 C 40.3476 -1.13238 1.21517 0
M  V30 404 O 41.5326 -1.17757 1.50126 0
M  V30 405 C 38.6726 -1.74801 2.97555 0
M  V30 406 C 37.7856 -1.22764 4.1419 0
M  V30 407 C 36.9206 -2.35895 4.75949 0
M  V30 408 C 35.9596 -1.80974 5.84735 0
M  V30 409 N 35.0966 -2.87664 6.40464 0
M  V30 410 H 39.9366 0.0114833 2.97998 0
M  V30 411 H 37.4736 0.0174361 1.4709 0
M  V30 412 H 39.4316 -2.43475 3.38786 0
M  V30 413 H 38.0616 -2.31145 2.25326 0
M  V30 414 H 37.1136 -0.433271 3.77924 0
M  V30 415 H 38.4256 -0.785551 4.92575 0
M  V30 416 H 37.5796 -3.12523 5.20014 0
M  V30 417 H 36.3186 -2.83429 3.96887 0
M  V30 418 H 35.3236 -1.02834 5.40097 0
M  V30 419 H 36.5486 -1.34348 6.65678 0
M  V30 420 H 34.4946 -3.34538 5.64287 0
M  V30 421 H 34.4116 -2.4794 7.14186 0
M  V30 422 H 35.6796 -3.642 6.89187 0
M  V30 423 N 39.9087 -1.5758 0.0250728 0
M  V30 424 C 40.8567 -2.11125 -0.97617 0
M  V30 425 C 41.8507 -1.03689 -1.33959 0
M  V30 426 O 43.0567 -1.22128 -1.3223 0
M  V30 427 H 39.4317 -0.674468 -0.332561 0
M  V30 428 H 41.4027 -2.94194 -0.499223 0
M  V30 429 C 40.1517 -2.65017 -2.2508 0
M  V30 430 H 39.4747 -3.47333 -1.9799 0
M  V30 431 H 40.9147 -3.06133 -2.93357 0
M  V30 432 C 39.3737 -1.57574 -2.97779 0
M  V30 433 O 39.9037 -0.973203 -3.89733 0
M  V30 434 N 38.1097 -1.29716 -2.60043 0
M  V30 435 H 37.6567 -1.789 -1.85345 0
M  V30 436 H 37.6147 -0.58051 -3.08994 0
M  V30 437 N 41.3868 0.248026 -1.55636 0
M  V30 438 C 42.3348 1.32683 -1.91045 0
M  V30 439 C 43.3288 1.49883 -0.789401 0
M  V30 440 O 44.5348 1.51371 -0.974007 0
M  V30 441 H 40.9098 0.444272 -0.606734 0
M  V30 442 H 42.8808 1.00085 -2.81115 0
M  V30 443 C 41.6298 2.6755 -2.22064 0
M  V30 444 H 40.9528 2.55114 -3.07826 0
M  V30 445 H 42.3928 3.41912 -2.50743 0
M  V30 446 C 40.8518 3.20556 -1.0366 0
M  V30 447 O 41.3818 4.00695 -0.284016 0
M  V30 448 N 39.5878 2.78568 -0.82753 0
M  V30 449 H 39.1348 2.1351 -1.44123 0
M  V30 450 H 39.0928 3.14378 -0.0369803 0
M  V30 451 N 42.8649 1.48995 0.513639 0
M  V30 452 C 44.1109 1.58076 1.27042 0
M  V30 453 C 44.4439 0.261026 1.92438 0
M  V30 454 O 43.7189 -0.734393 1.80103 0
M  V30 455 C 44.0019 2.73091 2.34719 0
M  V30 456 C 43.8549 4.14821 1.73907 0
M  V30 457 C 45.1739 2.83796 3.36375 0
M  V30 458 H 42.2929 0.575391 0.460536 0
M  V30 459 H 44.9349 1.81232 0.570516 0
M  V30 460 H 43.0849 2.53479 2.94416 0
M  V30 461 H 44.7569 4.45917 1.18135 0
M  V30 462 H 42.9999 4.21058 1.0437 0
M  V30 463 H 43.6709 4.91147 2.51949 0
M  V30 464 H 46.1469 3.01611 2.86653 0
M  V30 465 H 45.0229 3.65971 4.09093 0
M  V30 466 H 45.2839 1.92624 3.9793 0
M  V30 467 N 44.343 -0.763751 1.37857 0
M  V30 468 C 45.273 -1.89103 1.36975 0
M  V30 469 C 46.254 -1.68439 0.237152 0
M  V30 470 O 47.439 -1.8918 0.438713 0
M  V30 471 C 44.569 -3.26496 1.18395 0
M  V30 472 C 43.523 -3.61741 2.28751 0
M  V30 473 C 42.849 -4.97762 1.95286 0
M  V30 474 C 44.149 -3.67665 3.70972 0
M  V30 475 H 45.843 -1.90099 2.31307 0
M  V30 476 H 43.389 -0.91319 1.11341 0
M  V30 477 H 45.342 -4.05003 1.16406 0
M  V30 478 H 44.066 -3.25955 0.205215 0
M  V30 479 H 42.725 -2.85547 2.29909 0
M  V30 480 H 42.373 -4.93769 0.959221 0
M  V30 481 H 42.073 -5.22313 2.69189 0
M  V30 482 H 43.597 -5.7866 1.94898 0
M  V30 483 H 45.011 -4.36307 3.719 0
M  V30 484 H 43.408 -4.03718 4.43995 0
M  V30 485 H 44.478 -2.68134 4.0402 0
M  V30 486 N 45.8211 -1.22559 -0.990812 0
M  V30 487 C 47.0681 -1.05141 -1.73065 0
M  V30 488 C 47.3961 0.413191 -1.9006 0
M  V30 489 O 46.6511 1.32257 -1.44245 0
M  V30 490 C 46.9501 -1.71011 -3.13831 0
M  V30 491 C 46.6161 -3.20911 -3.16745 0
M  V30 492 C 45.2781 -3.61812 -3.17247 0
M  V30 493 C 47.6301 -4.16846 -3.12872 0
M  V30 494 C 44.9581 -4.97127 -3.1158 0
M  V30 495 C 47.3101 -5.5214 -3.08746 0
M  V30 496 C 45.9741 -5.92419 -3.07565 0
M  V30 497 H 45.2441 -0.384738 -0.633291 0
M  V30 498 H 47.8911 -1.5235 -1.16025 0
M  V30 499 H 46.1961 -1.16133 -3.74193 0
M  V30 500 H 47.8931 -1.55023 -3.69823 0
M  V30 501 H 44.4831 -2.88344 -3.17105 0
M  V30 502 H 48.6671 -3.86263 -3.11632 0
M  V30 503 H 43.9231 -5.27562 -3.09012 0
M  V30 504 H 48.0971 -6.26201 -3.04705 0
M  V30 505 H 45.7241 -6.97236 -3.02929 0
M  V30 506 N 47.2992 1.18797 -1.03562 0
M  V30 507 C 48.5472 1.88278 -0.734569 0
M  V30 508 C 48.8682 1.8043 0.739586 0
M  V30 509 O 48.1382 1.21925 1.53333 0
M  V30 510 H 46.7182 0.696991 -0.268725 0
M  V30 511 H 49.3802 1.44192 -1.31129 0
M  V30 512 H 48.4762 2.94443 -1.03489 0
M  V30 513 N 48.7773 0.814389 1.34928 0
M  V30 514 C 49.6873 0.231978 2.3345 0
M  V30 515 C 50.7033 -0.629139 1.62228 0
M  V30 516 O 51.8793 -0.539052 1.94052 0
M  V30 517 C 48.9443 -0.603482 3.41407 0
M  V30 518 C 48.0053 0.279037 4.28392 0
M  V30 519 C 47.2383 -0.516643 5.31193 0
M  V30 520 O 47.4613 -1.75068 5.4287 0
M  V30 521 O 46.3953 0.0965652 6.01823 0
M  V30 522 H 50.2213 1.04721 2.85074 0
M  V30 523 H 47.8063 0.576343 1.37836 0
M  V30 524 H 49.6883 -1.07908 4.0735 0
M  V30 525 H 48.3633 -1.39618 2.92042 0
M  V30 526 H 47.2703 0.801948 3.65403 0
M  V30 527 H 48.6033 1.03588 4.81176 0
M  V30 528 N 50.2554 -1.46986 0.568584 0
M  V30 529 C 51.6714 -1.57946 0.229189 0
M  V30 530 C 51.8714 -1.56567 -1.26843 0
M  V30 531 O 50.9274 -1.47511 -2.04931 0
M  V30 532 C 52.2404 -2.87963 0.865909 0
M  V30 533 C 53.7884 -3.01568 0.838188 0
M  V30 534 C 54.2634 -4.34301 1.45419 0
M  V30 535 N 55.7544 -4.40965 1.41788 0
M  V30 536 C 56.4894 -5.42256 1.86403 0
M  V30 537 N 55.9854 -6.50297 2.38926 0
M  V30 538 N 57.7784 -5.3337 1.77405 0
M  V30 539 H 49.9294 -1.46126 1.54146 0
M  V30 540 H 52.1924 -0.696156 0.643484 0
M  V30 541 H 51.8984 -2.94742 1.91886 0
M  V30 542 H 51.7724 -3.75423 0.365687 0
M  V30 543 H 54.1594 -2.94379 -0.206106 0
M  V30 544 H 54.2404 -2.1562 1.37629 0
M  V30 545 H 53.8844 -4.42247 2.49761 0
M  V30 546 H 53.8144 -5.19 0.891435 0
M  V30 547 H 56.3054 -3.63484 1.03381 0
M  V30 548 H 56.6184 -7.23777 2.70863 0
M  V30 549 H 54.9634 -6.51155 2.42944 0
M  V30 550 H 58.1544 -4.47865 1.3614 0
M  V30 551 H 58.3274 -6.12169 2.12492 0
M  V30 552 N 51.7335 -0.305618 -1.54608 0
M  V30 553 C 52.9635 0.304333 -2.04346 0
M  V30 554 C 53.3715 1.47715 -1.18224 0
M  V30 555 O 52.7145 1.82591 -0.201577 0
M  V30 556 C 52.7765 0.819031 -3.50046 0
M  V30 557 C 52.4405 -0.22912 -4.56425 0
M  V30 558 C 53.4375 -1.05914 -5.08997 0
M  V30 559 C 51.1225 -0.372148 -5.0092 0
M  V30 560 C 53.1165 -2.01809 -6.04609 0
M  V30 561 C 50.8035 -1.33454 -5.9635 0
M  V30 562 C 51.8015 -2.15599 -6.48079 0
M  V30 563 O 51.4895 -3.10205 -7.41639 0
M  V30 564 H 51.2215 0.0693996 -0.672428 0
M  V30 565 H 53.7755 -0.444548 -2.00532 0
M  V30 566 H 52.0055 1.61852 -3.51199 0
M  V30 567 H 53.6945 1.34537 -3.82955 0
M  V30 568 H 54.4605 -0.959538 -4.75413 0
M  V30 569 H 50.3395 0.257304 -4.60281 0
M  V30 570 H 53.8835 -2.65966 -6.44909 0
M  V30 571 H 49.7805 -1.43485 -6.29351 0
M  V30 572 H 50.5485 -3.05237 -7.59455 0
M  V30 573 N 53.2116 1.57565 -0.0334293 0
M  V30 574 C 54.1416 2.13511 0.945265 0
M  V30 575 C 55.1226 1.05231 1.33643 0
M  V30 576 O 56.3076 1.33084 1.41429 0
M  V30 577 C 53.4376 2.6657 2.22616 0
M  V30 578 C 52.3916 3.79676 1.97561 0
M  V30 579 C 51.7176 4.1918 3.31952 0
M  V30 580 C 53.0176 5.0557 1.31135 0
M  V30 581 H 54.7116 2.95538 0.479325 0
M  V30 582 H 52.2576 1.42166 0.229115 0
M  V30 583 H 54.2106 3.04344 2.91466 0
M  V30 584 H 52.9346 1.8171 2.71384 0
M  V30 585 H 51.5936 3.42347 1.31127 0
M  V30 586 H 51.2416 3.31296 3.78487 0
M  V30 587 H 50.9416 4.95402 3.15992 0
M  V30 588 H 52.4656 4.59541 4.02063 0
M  V30 589 H 53.8796 5.40903 1.89992 0
M  V30 590 H 52.2766 5.86818 1.25559 0
M  V30 591 H 53.3466 4.84062 0.284894 0
M  V30 592 N 54.6897 -0.239769 1.55765 0
M  V30 593 C 55.5997 -1.31831 1.94056 0
M  V30 594 C 56.6157 -1.52275 0.841925 0
M  V30 595 O 57.7917 -1.65759 1.14394 0
M  V30 596 C 54.8567 -2.65156 2.23368 0
M  V30 597 C 53.9177 -2.53173 3.46701 0
M  V30 598 C 53.1507 -3.8014 3.74606 0
M  V30 599 O 53.3737 -4.82343 3.04469 0
M  V30 600 O 52.3077 -3.78344 4.68123 0
M  V30 601 H 56.1337 -1.02347 2.85935 0
M  V30 602 H 53.7187 -0.441123 1.42739 0
M  V30 603 H 55.6007 -3.43929 2.43497 0
M  V30 604 H 54.2757 -2.94358 1.34666 0
M  V30 605 H 53.1827 -1.72662 3.31871 0
M  V30 606 H 54.5157 -2.28915 4.35728 0
M  V30 607 N 56.1678 -1.49265 -0.50573 0
M  V30 608 C 57.1148 -1.65585 -1.6078 0
M  V30 609 C 58.0848 -0.497396 -1.58478 0
M  V30 610 O 59.2698 -0.72385 -1.76536 0
M  V30 611 C 56.4098 -1.72408 -2.98948 0
M  V30 612 C 55.5228 -2.99525 -3.11301 0
M  V30 613 C 54.6578 -2.97356 -4.40174 0
M  V30 614 C 53.6968 -4.19074 -4.46143 0
M  V30 615 N 52.8338 -4.14841 -5.66437 0
M  V30 616 H 57.6738 -2.59688 -1.46172 0
M  V30 617 H 55.2108 -1.28761 -0.711261 0
M  V30 618 H 57.1688 -1.74344 -3.79025 0
M  V30 619 H 55.7988 -0.817753 -3.1227 0
M  V30 620 H 54.8508 -3.07222 -2.24318 0
M  V30 621 H 56.1628 -3.89518 -3.11572 0
M  V30 622 H 55.3168 -2.97829 -5.28567 0
M  V30 623 H 54.0558 -2.05133 -4.42461 0
M  V30 624 H 53.0608 -4.1885 -3.56153 0
M  V30 625 H 54.2858 -5.12483 -4.45575 0
M  V30 626 H 52.2318 -3.25453 -5.69575 0
M  V30 627 H 52.1488 -4.98564 -5.68304 0
M  V30 628 H 53.4168 -4.1941 -6.57051 0
M  V30 629 N 57.6459 0.756429 -1.3826 0
M  V30 630 C 58.8929 1.51547 -1.34312 0
M  V30 631 C 59.2209 1.94382 0.0677144 0
M  V30 632 O 58.4759 1.65514 1.04421 0
M  V30 633 C 58.7749 2.78313 -2.24224 0
M  V30 634 C 58.4409 2.54455 -3.72241 0
M  V30 635 C 57.1029 2.47657 -4.12576 0
M  V30 636 C 59.4549 2.3354 -4.65949 0
M  V30 637 C 56.7829 2.17956 -5.44713 0
M  V30 638 C 59.1349 2.05359 -5.9834 0
M  V30 639 C 57.7989 1.97016 -6.37762 0
M  V30 640 H 57.0689 0.55455 -0.491482 0
M  V30 641 H 59.7159 0.870039 -1.70595 0
M  V30 642 H 58.0209 3.47492 -1.80987 0
M  V30 643 H 59.7179 3.36259 -2.18474 0
M  V30 644 H 56.3079 2.60616 -3.40261 0
M  V30 645 H 60.4919 2.37772 -4.35635 0
M  V30 646 H 55.7479 2.10003 -5.74203 0
M  V30 647 H 59.9219 1.88179 -6.70494 0
M  V30 648 H 57.5489 1.73766 -7.40074 0
M  V30 649 N 59.124 1.23083 0.984299 0
M  V30 650 C 60.354 1.08556 1.75781 0
M  V30 651 C 60.762 -0.366171 1.85623 0
M  V30 652 O 60.105 -1.26524 1.33182 0
M  V30 653 C 60.167 1.63208 3.20318 0
M  V30 654 C 59.831 3.11922 3.33997 0
M  V30 655 C 60.828 4.09259 3.2063 0
M  V30 656 C 58.513 3.51552 3.58771 0
M  V30 657 C 60.507 5.4421 3.31835 0
M  V30 658 C 58.194 4.86649 3.69616 0
M  V30 659 C 59.192 5.82787 3.56157 0
M  V30 660 O 58.88 7.15431 3.66626 0
M  V30 661 H 58.612 0.380713 0.5586 0
M  V30 662 H 61.166 1.63321 1.2456 0
M  V30 663 H 59.396 1.0286 3.72769 0
M  V30 664 H 61.085 1.44216 3.79416 0
M  V30 665 H 61.851 3.79984 3.01392 0
M  V30 666 H 57.73 2.77239 3.6832 0
M  V30 667 H 61.274 6.1923 3.21247 0
M  V30 668 H 57.171 5.15601 3.88363 0
M  V30 669 H 57.939 7.23127 3.83445 0
M  V30 670 N 60.6021 -1.18246 1.0419 0
M  V30 671 C 61.8501 -1.87886 0.744543 0
M  V30 672 C 62.1711 -1.8082 -0.730006 0
M  V30 673 O 61.4411 -1.22736 -1.52685 0
M  V30 674 H 60.0211 -0.695556 0.272417 0
M  V30 675 H 62.6831 -1.43494 1.31892 0
M  V30 676 H 61.7791 -2.9389 1.05049 0
M  V30 677 N 62.0802 -0.821533 -1.34494 0
M  V30 678 C 63.0102 -0.257138 -2.3208 0
M  V30 679 C 63.9912 0.625645 -1.58176 0
M  V30 680 O 65.1762 0.552811 -1.86166 0
M  V30 681 C 62.3062 0.582958 -3.42372 0
M  V30 682 C 61.2602 -0.202571 -4.2752 0
M  V30 683 C 60.5862 0.760179 -5.29269 0
M  V30 684 C 61.8862 -1.40998 -5.02908 0
M  V30 685 H 63.5802 -1.07247 -2.79532 0
M  V30 686 H 61.1262 -0.517163 -1.34393 0
M  V30 687 H 63.0792 0.987972 -4.09655 0
M  V30 688 H 61.8032 1.43133 -2.93565 0
M  V30 689 H 60.4622 -0.588936 -3.61838 0
M  V30 690 H 60.1102 1.60447 -4.76724 0
M  V30 691 H 59.8102 0.238809 -5.87115 0
M  V30 692 H 61.3342 1.16308 -5.9942 0
M  V30 693 H 62.7482 -1.07905 -5.63054 0
M  V30 694 H 61.1452 -1.86689 -5.70322 0
M  V30 695 H 62.2152 -2.1889 -4.32684 0
M  V30 696 N 63.5583 1.46682 -0.576371 0
M  V30 697 C 64.4683 2.34032 0.163141 0
M  V30 698 C 65.4843 1.49367 0.892501 0
M  V30 699 O 66.6603 1.82252 0.857106 0
M  V30 700 C 63.7253 3.26435 1.16795 0
M  V30 701 C 62.7863 4.26998 0.443944 0
M  V30 702 C 62.0193 5.14986 1.40088 0
M  V30 703 O 62.2423 5.05785 2.637 0
M  V30 704 O 61.1763 5.94906 0.914917 0
M  V30 705 H 65.0023 2.98607 -0.55388 0
M  V30 706 H 62.5873 1.45554 -0.336821 0
M  V30 707 H 64.4693 3.83459 1.74748 0
M  V30 708 H 63.1443 2.64465 1.86655 0
M  V30 709 H 62.0513 3.7368 -0.177271 0
M  V30 710 H 63.3843 4.91736 -0.213566 0
M  V30 711 N 65.0364 0.313813 1.54444 0
M  V30 712 C 66.2854 -0.292519 1.99568 0
M  V30 713 C 66.5984 -1.54011 1.20582 0
M  V30 714 O 67.8044 -2.22183 1.56035 0
M  V30 715 C 66.2604 -0.571752 3.55329 0
M  V30 716 C 65.8684 0.658229 4.43138 0
M  V30 717 C 67.6124 -1.13857 4.08946 0
M  V30 718 C 65.5194 0.351439 5.90355 0
M  V30 719 H 64.4494 -0.113079 0.745472 0
M  V30 720 H 67.1004 0.424518 1.78522 0
M  V30 721 H 65.4824 -1.34872 3.72325 0
M  V30 722 H 66.6564 1.43403 4.37918 0
M  V30 723 H 64.9714 1.14458 4.0036 0
M  V30 724 H 67.5684 -1.38257 5.16516 0
M  V30 725 H 67.9114 -2.08489 3.6033 0
M  V30 726 H 68.4444 -0.423015 3.95544 0
M  V30 727 H 65.1834 1.26667 6.43145 0
M  V30 728 H 64.7034 -0.386842 5.98551 0
M  V30 729 H 66.3824 -0.0423134 6.46986 0
M  V30 730 N 66.5145 -1.57545 0.0417849 0
M  V30 731 C 67.4625 -2.12148 -0.953723 0
M  V30 732 C 68.4565 -1.05104 -1.32852 0
M  V30 733 O 69.6625 -1.23524 -1.30927 0
M  V30 734 H 66.0375 -0.677957 -0.325389 0
M  V30 735 H 68.0085 -2.94707 -0.467991 0
M  V30 736 C 66.7575 -2.6739 -2.22257 0
M  V30 737 H 66.0805 -3.49413 -1.94295 0
M  V30 738 H 67.5205 -3.09227 -2.90094 0
M  V30 739 C 65.9795 -1.60723 -2.96091 0
M  V30 740 O 66.5095 -1.01449 -3.88679 0
M  V30 741 N 64.7155 -1.32466 -2.58652 0
M  V30 742 H 64.2625 -1.80856 -1.83437 0
M  V30 743 H 64.2205 -0.61325 -3.08361 0
M  V30 744 N 67.9926 0.231505 -1.5589 0
M  V30 745 C 68.9396 1.28682 -1.91598 0
M  V30 746 C 69.9096 1.47071 -0.771974 0
M  V30 747 O 71.0946 1.60802 -1.027 0
M  V30 748 C 68.2346 2.6342 -2.22944 0
M  V30 749 C 67.3476 2.52912 -3.50228 0
M  V30 750 C 66.4826 3.80106 -3.7107 0
M  V30 751 C 65.5216 3.64279 -4.91902 0
M  V30 752 N 64.6586 4.834 -5.09184 0
M  V30 753 H 69.4986 0.975305 -2.81588 0
M  V30 754 H 67.0356 0.470299 -1.39379 0
M  V30 755 H 68.9936 3.41869 -2.39126 0
M  V30 756 H 67.6236 2.92687 -1.36139 0
M  V30 757 H 66.6756 1.6595 -3.42294 0
M  V30 758 H 67.9876 2.37133 -4.38827 0
M  V30 759 H 67.1416 4.66999 -3.87295 0
M  V30 760 H 65.8806 3.98799 -2.80733 0
M  V30 761 H 64.8856 2.7577 -4.75637 0
M  V30 762 H 66.1106 3.47067 -5.83714 0
M  V30 763 H 64.0566 5.02425 -4.21788 0
M  V30 764 H 63.9736 4.70311 -5.91898 0
M  V30 765 H 65.2416 5.71747 -5.29835 0
M  V30 766 N 69.4707 1.49531 0.497807 0
M  V30 767 C 70.4007 1.6935 1.60757 0
M  V30 768 C 71.3817 0.542218 1.61227 0
M  V30 769 O 72.5667 0.778417 1.77917 0
M  V30 770 C 69.6967 1.76298 2.99226 0
M  V30 771 C 68.6507 2.91248 3.13622 0
M  V30 772 C 67.9767 2.83312 4.53474 0
M  V30 773 C 69.2767 4.3214 2.93346 0
M  V30 774 H 70.9707 2.62263 1.44425 0
M  V30 775 H 68.5167 1.26208 0.693367 0
M  V30 776 H 70.4697 1.88749 3.76765 0
M  V30 777 H 69.1937 0.799871 3.16654 0
M  V30 778 H 67.8527 2.78404 2.38509 0
M  V30 779 H 67.5007 1.84902 4.67782 0
M  V30 780 H 67.2007 3.60465 4.64046 0
M  V30 781 H 68.7247 2.97775 5.33069 0
M  V30 782 H 70.1387 4.45649 3.60652 0
M  V30 783 H 68.5357 5.1054 3.15387 0
M  V30 784 H 69.6057 4.46363 1.89441 0
M  V30 785 N 70.9488 -0.749086 1.3866 0
M  V30 786 C 72.3598 -1.32664 1.31366 0
M  V30 787 C 72.7108 -1.96179 -0.028484 0
M  V30 788 O 71.8358 -1.9537 -0.93057 0
M  V30 789 C 72.4308 -2.41219 2.37905 0
M  V30 790 C 70.9898 -2.94684 2.34176 0
M  V30 791 C 70.1368 -1.68108 2.20533 0
M  V30 792 H 73.0878 -0.547628 1.48952 0
M  V30 793 H 73.1088 -3.21268 2.0388 0
M  V30 794 H 72.6208 -1.94962 3.35576 0
M  V30 795 H 70.7218 -3.45258 1.401 0
M  V30 796 H 70.8348 -3.48757 3.2849 0
M  V30 797 H 69.1988 -1.91907 1.67463 0
M  V30 798 H 69.9818 -1.23923 3.20153 0
M  V30 799 N 72.4269 -1.23603 -0.977757 0
M  V30 800 C 73.6729 -1.07129 -1.72195 0
M  V30 801 C 74.0059 0.390501 -1.90233 0
M  V30 802 O 73.2809 1.28902 -1.45653 0
M  V30 803 C 73.5639 -1.80031 -3.11867 0
M  V30 804 C 73.4169 -3.33899 -3.01383 0
M  V30 805 C 74.7359 -1.56492 -4.11337 0
M  V30 806 H 71.8549 -0.390571 -0.624999 0
M  V30 807 H 74.4969 -1.52142 -1.13811 0
M  V30 808 H 72.6469 -1.41768 -3.6171 0
M  V30 809 H 74.3189 -3.81699 -2.59043 0
M  V30 810 H 72.5619 -3.62796 -2.37827 0
M  V30 811 H 73.2329 -3.801 -4.00285 0
M  V30 812 H 75.7089 -1.89757 -3.70313 0
M  V30 813 H 74.5849 -2.09973 -5.07151 0
M  V30 814 H 74.8459 -0.500874 -4.39254 0
M  V30 815 N 73.905 1.17692 -1.04816 0
M  V30 816 C 75.133 1.91786 -0.776254 0
M  V30 817 C 75.548 1.76604 0.667577 0
M  V30 818 O 74.905 1.10067 1.45573 0
M  V30 819 C 74.956 3.42967 -1.14263 0
M  V30 820 O 74.677 3.57678 -2.52978 0
M  V30 821 C 76.178 4.34144 -0.896311 0
M  V30 822 H 73.398 0.608624 -0.282519 0
M  V30 823 H 75.942 1.49268 -1.39783 0
M  V30 824 H 74.097 3.83245 -0.565874 0
M  V30 825 H 74.511 4.51319 -2.67229 0
M  V30 826 H 75.985 5.38744 -1.20244 0
M  V30 827 H 76.462 4.38876 0.168636 0
M  V30 828 H 77.068 3.99574 -1.45672 0
M  V30 829 N 75.3831 0.828654 1.34056 0
M  V30 830 C 76.3301 0.252567 2.29414 0
M  V30 831 C 77.3001 -0.62588 1.53857 0
M  V30 832 O 78.4851 -0.566312 1.82202 0
M  V30 833 C 75.6251 -0.574831 3.40279 0
M  V30 834 C 74.7381 0.326499 4.30764 0
M  V30 835 C 73.8731 -0.511016 5.28736 0
M  V30 836 C 72.9121 0.389342 6.1086 0
M  V30 837 N 72.0491 -0.409439 7.00905 0
M  V30 838 H 76.8891 1.07108 2.78086 0
M  V30 839 H 74.4261 0.539677 1.36843 0
M  V30 840 H 76.3841 -1.06992 4.03248 0
M  V30 841 H 75.0141 -1.35841 2.92826 0
M  V30 842 H 74.0661 0.939837 3.68607 0
M  V30 843 H 75.3781 1.01857 4.88289 0
M  V30 844 H 74.5321 -1.07035 5.97184 0
M  V30 845 H 73.2711 -1.23657 4.71763 0
M  V30 846 H 72.2761 0.960769 5.4134 0
M  V30 847 H 73.5011 1.1131 6.69916 0
M  V30 848 H 71.4471 -1.11856 6.46393 0
M  V30 849 H 71.3641 0.224126 7.55668 0
M  V30 850 H 72.6321 -0.951336 7.73673 0
M  V30 851 N 76.8612 -1.46375 0.584142 0
M  V30 852 C 77.7942 -2.27351 -0.196676 0
M  V30 853 C 78.7722 -1.35715 -0.895561 0
M  V30 854 O 79.9562 -1.65126 -0.90916 0
M  V30 855 C 77.0832 -3.13486 -1.28235 0
M  V30 856 C 76.1292 -4.20896 -0.689145 0
M  V30 857 S 76.9622 -5.33299 0.48507 0
M  V30 858 C 78.1182 -6.23 -0.601767 0
M  V30 859 H 78.3512 -2.93228 0.490395 0
M  V30 860 H 75.8842 -1.49875 0.371071 0
M  V30 861 H 77.8422 -3.63676 -1.90395 0
M  V30 862 H 76.5032 -2.4692 -1.94138 0
M  V30 863 H 75.6962 -4.80997 -1.50527 0
M  V30 864 H 75.2982 -3.73726 -0.143181 0
M  V30 865 H 77.5902 -6.60979 -1.48705 0
M  V30 866 H 78.5332 -7.0809 -0.0374799 0
M  V30 867 H 78.9412 -5.57173 -0.906557 0
M  V30 868 N 78.3393 -0.321999 -1.54275 0
M  V30 869 C 79.2863 0.544664 -2.24281 0
M  V30 870 C 80.2563 1.1129 -1.23303 0
M  V30 871 O 81.4413 1.15354 -1.51981 0
M  V30 872 C 78.5813 1.70045 -3.00298 0
M  V30 873 C 77.6943 1.16159 -4.1609 0
M  V30 874 C 76.8293 2.28293 -4.79641 0
M  V30 875 C 75.8683 1.71648 -5.8754 0
M  V30 876 N 75.0053 2.77438 -6.44959 0
M  V30 877 H 79.8453 -0.0588907 -2.97942 0
M  V30 878 H 77.3823 -0.0408345 -1.47043 0
M  V30 879 H 79.3403 2.38054 -3.42616 0
M  V30 880 H 77.9703 2.27531 -2.28975 0
M  V30 881 H 77.0223 0.373092 -3.78566 0
M  V30 882 H 78.3343 0.707087 -4.93763 0
M  V30 883 H 77.4883 3.0421 -5.2492 0
M  V30 884 H 76.2273 2.77079 -4.01346 0
M  V30 885 H 75.2323 0.942282 -5.41665 0
M  V30 886 H 76.4573 1.23741 -6.67731 0
M  V30 887 H 74.4033 3.25519 -5.69538 0
M  V30 888 H 74.3203 2.36547 -7.1804 0
M  V30 889 H 75.5883 3.53189 -6.94894 0
M  V30 890 N 79.8174 1.5752 -0.0501392 0
M  V30 891 C 81.0474 1.96678 0.632573 0
M  V30 892 C 81.4554 0.926298 1.64974 0
M  V30 893 O 80.7984 -0.09802 1.83438 0
M  V30 894 C 80.8604 3.32068 1.37735 0
M  V30 895 C 80.5244 4.54076 0.516131 0
M  V30 896 C 81.5214 5.19445 -0.217357 0
M  V30 897 C 79.2064 5.00304 0.44736 0
M  V30 898 C 81.2004 6.29378 -1.00807 0
M  V30 899 C 78.8874 6.10114 -0.347038 0
M  V30 900 C 79.8854 6.74512 -1.07344 0
M  V30 901 O 79.5734 7.82211 -1.85477 0
M  V30 902 H 79.3054 0.652193 0.177821 0
M  V30 903 H 81.8594 2.05091 -0.112543 0
M  V30 904 H 80.0894 3.20206 2.16807 0
M  V30 905 H 81.7784 3.55981 1.95019 0
M  V30 906 H 82.5444 4.84689 -0.173688 0
M  V30 907 H 78.4234 4.49971 1.00235 0
M  V30 908 H 81.9674 6.79575 -1.57556 0
M  V30 909 H 77.8644 6.44307 -0.392349 0
M  V30 910 H 78.6324 7.98982 -1.77678 0
M  V30 911 N 81.2955 -0.223234 1.56011 0
M  V30 912 C 82.5205 -0.968978 1.83373 0
M  V30 913 C 82.9455 -1.77227 0.630254 0
M  V30 914 O 82.3035 -1.76345 -0.420959 0
M  V30 915 C 82.3515 -1.86363 3.08709 0
M  V30 916 O 81.4555 -2.95873 2.87285 0
M  V30 917 H 80.7965 -0.274461 0.604622 0
M  V30 918 H 83.3265 -0.237056 2.03222 0
M  V30 919 H 83.3365 -2.27376 3.38768 0
M  V30 920 H 82.0115 -1.27319 3.95933 0
M  V30 921 H 80.5885 -2.58818 2.68454 0
M  V30 922 N 82.7736 -1.49793 -0.48987 0
M  V30 923 C 84.0216 -1.59525 -1.24081 0
M  V30 924 C 84.3426 -0.288953 -1.92847 0
M  V30 925 O 83.6126 0.692436 -1.83254 0
M  V30 926 H 82.1926 -0.587796 -0.460983 0
M  V30 927 H 84.8546 -1.86477 -0.566778 0
M  V30 928 H 83.9506 -2.39696 -1.99881 0
M  V30 929 N 84.2517 0.741722 -1.39055 0
M  V30 930 C 85.1997 1.87702 -1.3737 0
M  V30 931 C 86.1937 1.67427 -0.257812 0
M  V30 932 O 87.3997 1.7485 -0.427489 0
M  V30 933 H 83.7747 0.617757 -0.428812 0
M  V30 934 H 85.7457 1.86239 -2.33147 0
M  V30 935 C 84.4947 3.25315 -1.22741 0
M  V30 936 H 83.8177 3.41509 -2.07873 0
M  V30 937 H 85.2577 4.04964 -1.25618 0
M  V30 938 C 83.7167 3.36838 0.0647316 0
M  V30 939 O 84.2467 3.88073 1.03741 0
M  V30 940 N 82.4527 2.90329 0.125544 0
M  V30 941 H 81.9997 2.48823 -0.666682 0
M  V30 942 H 81.9577 2.98418 0.989639 0
M  V30 943 N 85.7298 1.2412 0.971189 0
M  V30 944 C 86.6598 1.05508 2.08304 0
M  V30 945 C 87.6408 -0.0308864 1.70072 0
M  V30 946 O 88.8258 0.135521 1.93727 0
M  V30 947 C 85.9558 0.655365 3.4106 0
M  V30 948 C 84.9098 1.68971 3.93234 0
M  V30 949 C 84.2358 1.14516 5.22293 0
M  V30 950 C 85.5358 3.08487 4.21465 0
M  V30 951 H 87.2298 1.98507 2.24132 0
M  V30 952 H 84.7758 0.955821 1.07704 0
M  V30 953 H 86.7288 0.51217 4.18276 0
M  V30 954 H 85.4528 -0.31032 3.25122 0
M  V30 955 H 84.1118 1.82106 3.18171 0
M  V30 956 H 83.7598 0.170189 5.02712 0
M  V30 957 H 83.4598 1.83635 5.58168 0
M  V30 958 H 84.9838 1.01401 6.02121 0
M  V30 959 H 86.3978 2.98601 4.89398 0
M  V30 960 H 84.7948 3.74926 4.68562 0
M  V30 961 H 85.8648 3.56787 3.28376 0
M  V30 962 N 87.2079 -1.17134 1.05439 0
M  V30 963 C 88.1409 -2.2012 0.601855 0
M  V30 964 C 89.1189 -1.58314 -0.370854 0
M  V30 965 O 90.3029 -1.8638 -0.281882 0
M  V30 966 C 87.4299 -3.38491 -0.118868 0
M  V30 967 C 86.4759 -4.18752 0.809242 0
M  V30 968 S 87.3089 -4.83602 2.29977 0
M  V30 969 C 88.4649 -6.0536 1.59029 0
M  V30 970 H 88.6979 -2.58165 1.47438 0
M  V30 971 H 86.2309 -1.27788 0.866573 0
M  V30 972 H 88.1889 -4.07084 -0.528495 0
M  V30 973 H 86.8499 -2.98829 -0.967465 0
M  V30 974 H 86.0429 -5.03373 0.251379 0
M  V30 975 H 85.6449 -3.5561 1.15835 0
M  V30 976 H 87.9369 -6.71615 0.891017 0
M  V30 977 H 88.8799 -6.65679 2.41407 0
M  V30 978 H 89.2879 -5.54138 1.07663 0
M  V30 979 N 88.686 -0.835752 -1.33615 0
M  V30 980 C 89.633 -0.26473 -2.29277 0
M  V30 981 C 90.603 0.617712 -1.54187 0
M  V30 982 O 91.788 0.556641 -1.825 0
M  V30 983 C 88.928 0.556777 -3.40579 0
M  V30 984 C 88.041 -0.349339 -4.30585 0
M  V30 985 C 87.176 0.482969 -5.29 0
M  V30 986 C 86.215 -0.421732 -6.10645 0
M  V30 987 N 85.352 0.372262 -7.01112 0
M  V30 988 H 90.192 -1.08582 -2.77514 0
M  V30 989 H 87.729 -0.546927 -1.36554 0
M  V30 990 H 89.687 1.04852 -4.03809 0
M  V30 991 H 88.317 1.34286 -2.93542 0
M  V30 992 H 87.369 -0.959372 -3.68104 0
M  V30 993 H 88.681 -1.04445 -4.87742 0
M  V30 994 H 87.835 1.03866 -5.97743 0
M  V30 995 H 86.574 1.21153 -4.72412 0
M  V30 996 H 85.579 -0.989464 -5.40823 0
M  V30 997 H 86.804 -1.14861 -6.69316 0
M  V30 998 H 84.75 1.08426 -6.46977 0
M  V30 999 H 84.667 -0.264198 -7.55538 0
M  V30 1000 H 85.935 0.910293 -7.74167 0
M  V30 1001 N 90.1641 1.46063 -0.591896 0
M  V30 1002 C 91.0741 2.34192 0.13831 0
M  V30 1003 C 92.0901 1.50305 0.876608 0
M  V30 1004 O 93.2661 1.8315 0.837728 0
M  V30 1005 C 90.3311 3.27656 1.13326 0
M  V30 1006 C 89.3921 4.27445 0.39863 0
M  V30 1007 C 88.6251 5.16443 1.34618 0
M  V30 1008 O 88.8481 5.08553 2.58321 0
M  V30 1009 O 87.7821 5.95843 0.851768 0
M  V30 1010 H 91.6081 2.98002 -0.58552 0
M  V30 1011 H 89.1931 1.45188 -0.352239 0
M  V30 1012 H 91.0751 3.85291 1.70671 0
M  V30 1013 H 89.7501 2.6643 1.83839 0
M  V30 1014 H 88.6571 3.73471 -0.216895 0
M  V30 1015 H 89.9901 4.91482 -0.265709 0
M  V30 1016 N 91.6422 0.330177 1.54103 0
M  V30 1017 C 92.5892 -0.532762 2.24567 0
M  V30 1018 C 93.5592 -1.10635 1.23892 0
M  V30 1019 O 94.7442 -1.14546 1.5259 0
M  V30 1020 C 91.8842 -1.6845 3.01195 0
M  V30 1021 C 90.9972 -1.13951 4.167 0
M  V30 1022 C 90.1322 -2.25746 4.80845 0
M  V30 1023 C 89.1712 -1.6853 5.88442 0
M  V30 1024 N 88.3082 -2.74014 6.46421 0
M  V30 1025 H 93.1482 0.0746905 2.97906 0
M  V30 1026 H 90.6852 0.048632 1.4702 0
M  V30 1027 H 92.6432 -2.36234 3.43874 0
M  V30 1028 H 91.2732 -2.26314 2.30178 0
M  V30 1029 H 90.3252 -0.35301 3.78758 0
M  V30 1030 H 91.6372 -0.680892 4.94131 0
M  V30 1031 H 90.7912 -3.01422 5.26526 0
M  V30 1032 H 89.5302 -2.74947 4.0281 0
M  V30 1033 H 88.5352 -0.913543 5.42157 0
M  V30 1034 H 89.7602 -1.20198 6.68378 0
M  V30 1035 H 87.7062 -3.22494 5.71256 0
M  V30 1036 H 87.6232 -2.32735 7.19285 0
M  V30 1037 H 88.8912 -3.49499 6.96757 0
M  V30 1038 N 93.1203 -1.57491 0.0584922 0
M  V30 1039 C 94.3693 -1.92155 -0.613146 0
M  V30 1040 C 94.6823 -0.939334 -1.71569 0
M  V30 1041 O 95.8883 -1.17829 -2.44599 0
M  V30 1042 C 94.3443 -3.41303 -1.14195 0
M  V30 1043 C 93.9523 -4.47944 -0.0711265 0
M  V30 1044 C 95.6963 -3.84988 -1.78841 0
M  V30 1045 C 93.6033 -5.88212 -0.613225 0
M  V30 1046 H 92.5333 -0.717162 -0.232796 0
M  V30 1047 H 95.1843 -1.83049 0.12857 0
M  V30 1048 H 93.5663 -3.45437 -1.93621 0
M  V30 1049 H 94.7403 -4.55408 0.702836 0
M  V30 1050 H 93.0553 -4.13644 0.478313 0
M  V30 1051 H 95.6523 -4.87159 -2.20408 0
M  V30 1052 H 95.9953 -3.21632 -2.64308 0
M  V30 1053 H 96.5283 -3.83401 -1.06059 0
M  V30 1054 H 93.2673 -6.55183 0.203978 0
M  V30 1055 H 92.7873 -5.84294 -1.35501 0
M  V30 1056 H 94.4663 -6.37687 -1.09383 0
M  V30 1057 N 94.5984 0.214957 -1.56127 0
M  V30 1058 C 95.5304 1.29004 -1.89448 0
M  V30 1059 C 96.5434 1.42716 -0.783326 0
M  V30 1060 O 97.7324 1.43496 -1.06166 0
M  V30 1061 C 94.8324 2.66482 -2.09381 0
M  V30 1062 C 94.0054 2.74633 -3.40434 0
M  V30 1063 C 93.0644 3.9317 -3.49719 0
M  V30 1064 O 92.0904 3.812 -4.227 0
M  V30 1065 N 93.2924 5.07765 -2.81346 0
M  V30 1066 H 96.0574 1.00743 -2.82261 0
M  V30 1067 H 93.6184 0.40497 -1.56753 0
M  V30 1068 H 95.6104 3.44173 -2.12901 0
M  V30 1069 H 94.1804 2.87314 -1.23163 0
M  V30 1070 H 93.4004 1.83368 -3.48955 0
M  V30 1071 H 94.6884 2.77054 -4.26754 0
M  V30 1072 H 94.0864 5.20386 -2.21843 0
M  V30 1073 H 92.6434 5.83474 -2.90519 0
M  V30 1074 N 96.0765 1.50051 0.48192 0
M  V30 1075 C 96.9865 1.7089 1.60728 0
M  V30 1076 C 98.0025 0.591788 1.63627 0
M  V30 1077 O 99.1785 0.868817 1.81696 0
M  V30 1078 C 96.2435 1.78855 2.97005 0
M  V30 1079 C 95.3045 3.02537 3.04581 0
M  V30 1080 C 94.5375 3.10112 4.34357 0
M  V30 1081 O 94.7605 2.24765 5.24249 0
M  V30 1082 O 93.6945 4.02747 4.47301 0
M  V30 1083 H 97.5205 2.66264 1.46072 0
M  V30 1084 H 95.1055 1.34018 0.660264 0
M  V30 1085 H 96.9875 1.86336 3.77964 0
M  V30 1086 H 95.6625 0.866628 3.11883 0
M  V30 1087 H 94.5695 3.00563 2.22739 0
M  V30 1088 H 95.9025 3.94272 2.94636 0
M  V30 1089 N 97.5546 -0.734337 1.39446 0
M  V30 1090 C 98.4876 -1.85715 1.32609 0
M  V30 1091 C 99.4656 -1.6137 0.199636 0
M  V30 1092 O 100.65 -1.84626 0.380195 0
M  V30 1093 C 97.7766 -3.21709 1.05929 0
M  V30 1094 C 96.8226 -3.64913 2.20773 0
M  V30 1095 S 97.6556 -3.74203 3.83056 0
M  V30 1096 C 98.8116 -5.12986 3.58603 0
M  V30 1097 H 99.0446 -1.91232 2.27635 0
M  V30 1098 H 96.5776 -0.899263 1.25509 0
M  V30 1099 H 98.5356 -4.00236 0.912203 0
M  V30 1100 H 97.1966 -3.13848 0.125883 0
M  V30 1101 H 96.3896 -4.63606 1.97699 0
M  V30 1102 H 95.9916 -2.93593 2.31688 0
M  V30 1103 H 98.2836 -5.99339 3.15909 0
M  V30 1104 H 99.2266 -5.41088 4.5676 0
M  V30 1105 H 99.6346 -4.82694 2.9269 0
M  V30 1106 N 99.0327 -1.24633 -0.964593 0
M  V30 1107 C 99.9647 -0.999302 -2.06268 0
M  V30 1108 C 100.978 0.0323226 -1.62768 0
M  V30 1109 O 102.167 -0.205079 -1.77318 0
M  V30 1110 C 99.2667 -0.486816 -3.35385 0
M  V30 1111 C 98.4397 -1.5823 -4.07777 0
M  V30 1112 C 97.4987 -1.07191 -5.15166 0
M  V30 1113 O 96.5247 -1.76426 -5.41168 0
M  V30 1114 N 97.7267 0.0920373 -5.80427 0
M  V30 1115 H 100.492 -1.94477 -2.28033 0
M  V30 1116 H 98.0527 -1.15704 -1.13244 0
M  V30 1117 H 100.045 -0.130066 -4.04491 0
M  V30 1118 H 98.6147 0.364459 -3.10468 0
M  V30 1119 H 97.8347 -2.11109 -3.32906 0
M  V30 1120 H 99.1227 -2.31854 -4.52903 0
M  V30 1121 H 98.5207 0.670784 -5.61709 0
M  V30 1122 H 97.0777 0.389905 -6.50633 0
M  V30 1123 N 100.511 1.16574 -1.06058 0
M  V30 1124 C 101.461 2.18854 -0.63929 0
M  V30 1125 C 102.445 1.57505 0.328798 0
M  V30 1126 O 103.637 1.76408 0.144623 0
M  V30 1127 C 100.766 3.43291 -0.0247203 0
M  V30 1128 C 99.8518 4.11722 -1.01716 0
M  V30 1129 N 100.243 4.55841 -2.19186 0
M  V30 1130 C 98.5408 4.37872 -0.847569 0
M  V30 1131 C 99.2418 5.08751 -2.82042 0
M  V30 1132 N 98.2178 5.01489 -2.09784 0
M  V30 1133 H 102.02 2.5068 -1.53417 0
M  V30 1134 H 99.5338 1.32999 -0.931935 0
M  V30 1135 H 101.531 4.15856 0.294915 0
M  V30 1136 H 100.191 3.12954 0.865448 0
M  V30 1137 H 101.202 4.49649 -2.56975 0
M  V30 1138 H 97.8788 4.17499 -0.00918848 0
M  V30 1139 H 99.2688 5.52944 -3.81709 0
M  V30 1140 N 101.989 0.842826 1.3317 0
M  V30 1141 C 103.236 0.440447 1.97652 0
M  V30 1142 C 103.564 -1.00123 1.6675 0
M  V30 1143 O 102.819 -1.7155 0.941761 0
M  V30 1144 C 103.118 0.612607 3.52111 0
M  V30 1145 C 102.784 2.02297 4.02972 0
M  V30 1146 C 101.446 2.40874 4.16573 0
M  V30 1147 C 103.798 2.94402 4.30089 0
M  V30 1148 C 101.126 3.70852 4.54627 0
M  V30 1149 C 103.478 4.23865 4.69597 0
M  V30 1150 C 102.142 4.62392 4.81404 0
M  V30 1151 H 101.412 0.161171 0.72326 0
M  V30 1152 H 104.059 1.07061 1.58777 0
M  V30 1153 H 102.364 -0.100849 3.9167 0
M  V30 1154 H 104.061 0.2815 4.00011 0
M  V30 1155 H 100.651 1.71338 3.92863 0
M  V30 1156 H 104.835 2.65835 4.19101 0
M  V30 1157 H 100.091 4.00501 4.61962 0
M  V30 1158 H 104.265 4.95306 4.89536 0
M  V30 1159 H 101.892 5.63154 5.10648 0
M  V30 1160 N 103.467 -1.45747 0.599634 0
M  V30 1161 C 104.397 -2.33235 -0.111306 0
M  V30 1162 C 105.378 -1.46359 -0.866781 0
M  V30 1163 O 106.563 -1.75146 -0.838904 0
M  V30 1164 C 103.693 -3.28932 -1.11451 0
M  V30 1165 C 102.647 -4.25381 -0.472772 0
M  V30 1166 C 101.973 -5.1071 -1.58365 0
M  V30 1167 C 103.273 -5.18831 0.600948 0
M  V30 1168 H 104.967 -2.92927 0.61919 0
M  V30 1169 H 102.513 -1.40857 0.299215 0
M  V30 1170 H 104.466 -3.89002 -1.62036 0
M  V30 1171 H 103.19 -2.67381 -1.8755 0
M  V30 1172 H 101.849 -3.66598 0.0121472 0
M  V30 1173 H 101.497 -4.45533 -2.33473 0
M  V30 1174 H 101.197 -5.7604 -1.15982 0
M  V30 1175 H 102.721 -5.73647 -2.09194 0
M  V30 1176 H 104.135 -5.73019 0.179491 0
M  V30 1177 H 102.532 -5.92595 0.946076 0
M  V30 1178 H 103.602 -4.6174 1.48068 0
M  V30 1179 N 104.945 -0.338344 -1.53925 0
M  V30 1180 C 106.193 0.259245 -2.0043 0
M  V30 1181 C 106.514 1.51484 -1.22791 0
M  V30 1182 O 105.784 1.93037 -0.33368 0
M  V30 1183 H 104.364 0.0987845 -0.740439 0
M  V30 1184 H 107.026 -0.458302 -1.89435 0
M  V30 1185 H 106.122 0.505334 -3.07982 0
M  V30 1186 N 106.423 1.57458 -0.0668435 0
M  V30 1187 C 107.353 2.15468 0.899764 0
M  V30 1188 C 108.334 1.08042 1.31381 0
M  V30 1189 O 109.519 1.36054 1.38574 0
M  V30 1190 C 106.649 2.71232 2.16911 0
M  V30 1191 C 105.603 3.83781 1.89463 0
M  V30 1192 C 104.929 4.26127 3.22986 0
M  V30 1193 C 106.229 5.08238 1.20381 0
M  V30 1194 H 107.923 2.96488 0.416529 0
M  V30 1195 H 105.469 1.4262 0.198908 0
M  V30 1196 H 107.422 3.10458 2.84945 0
M  V30 1197 H 106.146 1.87426 2.67468 0
M  V30 1198 H 104.805 3.45051 1.23836 0
M  V30 1199 H 104.453 3.39249 3.71374 0
M  V30 1200 H 104.153 5.01993 3.05413 0
M  V30 1201 H 105.677 4.67966 3.92225 0
M  V30 1202 H 107.091 5.44811 1.78475 0
M  V30 1203 H 105.488 5.89349 1.13083 0
M  V30 1204 H 106.558 4.84558 0.182153 0
M  V30 1205 N 107.901 -0.206675 1.56239 0
M  V30 1206 C 108.848 -1.25617 1.93621 0
M  V30 1207 C 109.818 -1.45824 0.795274 0
M  V30 1208 O 111.003 -1.59148 1.05245 0
M  V30 1209 C 108.143 -2.59839 2.27107 0
M  V30 1210 C 107.256 -2.47308 3.54207 0
M  V30 1211 C 106.391 -3.74155 3.7707 0
M  V30 1212 C 105.43 -3.56407 4.97635 0
M  V30 1213 N 104.567 -4.75238 5.1681 0
M  V30 1214 H 109.407 -0.930383 2.83104 0
M  V30 1215 H 106.944 -0.448065 1.4011 0
M  V30 1216 H 108.902 -3.38021 2.44535 0
M  V30 1217 H 107.532 -2.90485 1.40778 0
M  V30 1218 H 106.584 -1.60483 3.4489 0
M  V30 1219 H 107.896 -2.30122 4.42544 0
M  V30 1220 H 107.05 -4.60778 3.94675 0
M  V30 1221 H 105.789 -3.94282 2.87042 0
M  V30 1222 H 104.794 -2.68168 4.79964 0
M  V30 1223 H 106.019 -3.37736 5.89161 0
M  V30 1224 H 103.965 -4.95651 4.29728 0
M  V30 1225 H 103.882 -4.60835 5.99306 0
M  V30 1226 H 105.15 -5.63246 5.38864 0
M  V30 1227 N 109.379 -1.50304 -0.473955 0
M  V30 1228 C 110.625 -1.61389 -1.22806 0
M  V30 1229 C 110.958 -0.311955 -1.91678 0
M  V30 1230 O 110.233 0.686384 -1.81986 0
M  V30 1231 C 110.516 -2.79219 -2.27396 0
M  V30 1232 C 110.369 -4.19286 -1.62848 0
M  V30 1233 C 111.688 -2.92614 -3.28732 0
M  V30 1234 H 108.807 -0.587399 -0.445119 0
M  V30 1235 H 111.449 -1.82681 -0.522265 0
M  V30 1236 H 109.599 -2.61195 -2.87592 0
M  V30 1237 H 111.271 -4.48892 -1.06271 0
M  V30 1238 H 109.514 -4.23677 -0.931693 0
M  V30 1239 H 110.185 -4.97655 -2.38838 0
M  V30 1240 H 112.661 -3.09105 -2.78556 0
M  V30 1241 H 111.537 -3.76688 -3.99246 0
M  V30 1242 H 111.798 -2.03107 -3.92683 0
M  V30 1243 N 110.857 0.726932 -1.39834 0
M  V30 1244 C 112.085 1.51613 -1.40787 0
M  V30 1245 C 112.5 1.88799 -0.00451505 0
M  V30 1246 O 111.857 1.54662 0.968809 0
M  V30 1247 C 111.908 2.79863 -2.28821 0
M  V30 1248 O 111.629 2.44253 -3.63692 0
M  V30 1249 C 113.13 3.73837 -2.38245 0
M  V30 1250 H 110.35 0.468264 -0.480593 0
M  V30 1251 H 112.894 0.897607 -1.83748 0
M  V30 1252 H 111.049 3.38027 -1.89252 0
M  V30 1253 H 111.463 3.26695 -4.1033 0
M  V30 1254 H 112.937 4.60699 -3.04073 0
M  V30 1255 H 113.414 4.16153 -1.40403 0
M  V30 1256 H 114.02 3.21589 -2.78317 0
M  V30 1257 N 112.336 1.25143 0.95797 0
M  V30 1258 C 113.584 1.09476 1.69881 0
M  V30 1259 C 113.905 -0.365502 1.91544 0
M  V30 1260 O 113.175 -1.25985 1.50015 0
M  V30 1261 H 111.755 0.402128 0.629525 0
M  V30 1262 H 114.417 1.57214 1.15194 0
M  V30 1263 H 113.513 1.60046 2.6794 0
M  V30 1264 N 113.814 -1.1601 1.06675 0
M  V30 1265 C 114.746 -2.20115 0.638921 0
M  V30 1266 C 115.759 -1.59916 -0.305057 0
M  V30 1267 O 116.948 -1.78245 -0.0954446 0
M  V30 1268 C 114.048 -3.38798 -0.0830083 0
M  V30 1269 C 113.221 -4.2855 0.875426 0
M  V30 1270 C 112.28 -5.25849 0.192042 0
M  V30 1271 O 111.306 -5.63102 0.830921 0
M  V30 1272 N 112.508 -5.70648 -1.06493 0
M  V30 1273 H 115.273 -2.57439 1.53444 0
M  V30 1274 H 112.834 -1.31057 0.950557 0
M  V30 1275 H 114.826 -4.00936 -0.550685 0
M  V30 1276 H 113.396 -2.99947 -0.880386 0
M  V30 1277 H 112.616 -3.63617 1.52238 0
M  V30 1278 H 113.904 -4.85393 1.52548 0
M  V30 1279 H 113.302 -5.42482 -1.60405 0
M  V30 1280 H 111.859 -6.34859 -1.47641 0
M  V30 1281 N 115.292 -0.849877 -1.32721 0
M  V30 1282 C 116.222 -0.306308 -2.31482 0
M  V30 1283 C 117.203 0.591952 -1.59468 0
M  V30 1284 O 118.388 0.513199 -1.87296 0
M  V30 1285 C 115.518 0.510204 -3.43532 0
M  V30 1286 C 114.472 -0.293209 -4.26994 0
M  V30 1287 C 113.798 0.647743 -5.30762 0
M  V30 1288 C 115.098 -1.51634 -4.99804 0
M  V30 1289 H 116.792 -1.13153 -2.77195 0
M  V30 1290 H 114.338 -0.545553 -1.33266 0
M  V30 1291 H 116.291 0.900856 -4.11658 0
M  V30 1292 H 115.015 1.36874 -2.96535 0
M  V30 1293 H 113.674 -0.665555 -3.60508 0
M  V30 1294 H 113.322 1.50299 -4.8002 0
M  V30 1295 H 113.022 0.11422 -5.87489 0
M  V30 1296 H 114.546 1.03567 -6.01753 0
M  V30 1297 H 115.96 -1.19824 -5.60638 0
M  V30 1298 H 114.357 -1.98745 -5.66234 0
M  V30 1299 H 115.427 -2.28018 -4.27943 0
M  V30 1300 N 116.77 1.45427 -0.607355 0
M  V30 1301 C 118.047 1.9557 -0.0344566 0
M  V30 1302 C 118.427 1.54979 1.43334 0
M  V30 1303 O 117.775 0.812241 2.13576 0
M  V30 1304 C 117.985 3.48226 -0.232321 0
M  V30 1305 C 119.333 4.2445 -0.113001 0
M  V30 1306 O 120.357 3.55829 -0.162431 0
M  V30 1307 O 119.216 5.465 0.00209442 0
M  V30 1308 H 116.31 0.826222 0.0358667 0
M  V30 1309 H 118.856 1.55594 -0.6774 0
M  V30 1310 H 117.628 3.70739 -1.25174 0
M  V30 1311 H 117.251 3.95092 0.445896 0
M  V30 1312 N 118.248 0.346503 1.53744 0
M  V30 1313 C 119.476 -0.25041 2.05379 0
M  V30 1314 C 119.891 -1.43979 1.22129 0
M  V30 1315 O 119.248 -1.80677 0.257321 0
M  V30 1316 C 119.299 -0.662575 3.55376 0
M  V30 1317 O 119.02 0.479515 4.35468 0
M  V30 1318 C 120.521 -1.31989 4.23195 0
M  V30 1319 H 117.741 -0.0478198 0.669294 0
M  V30 1320 H 120.285 0.499346 1.9831 0
M  V30 1321 H 118.44 -1.36227 3.62658 0
M  V30 1322 H 118.854 0.15037 5.24284 0
M  V30 1323 H 120.328 -1.55902 5.29527 0
M  V30 1324 H 120.805 -2.27436 3.75725 0
M  V30 1325 H 121.411 -0.662154 4.20114 0
M  V30 1326 N 119.726 -1.57421 0.075193 0
M  V30 1327 C 120.951 -1.98364 -0.605515 0
M  V30 1328 C 121.376 -0.953383 -1.62149 0
M  V30 1329 O 120.734 0.0806053 -1.81121 0
M  V30 1330 C 120.782 -3.38332 -1.24756 0
M  V30 1331 O 119.886 -3.37959 -2.36342 0
M  V30 1332 H 119.227 -0.645553 -0.155428 0
M  V30 1333 H 121.757 -2.04044 0.150714 0
M  V30 1334 H 121.767 -3.75591 -1.5936 0
M  V30 1335 H 120.442 -4.12846 -0.503129 0
M  V30 1336 H 119.019 -3.12474 -2.03506 0
M  V30 1337 N 121.204 0.198386 -1.56346 0
M  V30 1338 C 122.432 0.935572 -1.84539 0
M  V30 1339 C 122.847 1.76989 -0.657281 0
M  V30 1340 O 122.204 1.78626 0.374043 0
M  V30 1341 C 122.255 1.8344 -3.11499 0
M  V30 1342 O 121.976 1.03377 -4.25728 0
M  V30 1343 C 123.477 2.68355 -3.52846 0
M  V30 1344 H 120.697 0.273126 -0.612897 0
M  V30 1345 H 123.241 0.20663 -2.03453 0
M  V30 1346 H 121.396 2.51701 -2.94492 0
M  V30 1347 H 121.81 1.64599 -4.98003 0
M  V30 1348 H 123.284 3.27085 -4.44657 0
M  V30 1349 H 123.761 3.41901 -2.75681 0
M  V30 1350 H 124.367 2.05471 -3.72373 0
M  V30 1351 N 122.682 1.50554 0.465978 0
M  V30 1352 C 123.612 1.72722 1.57128 0
M  V30 1353 C 124.593 0.576294 1.6004 0
M  V30 1354 O 125.778 0.81598 1.76225 0
M  V30 1355 C 122.908 1.82605 2.95419 0
M  V30 1356 C 121.862 2.97835 3.07373 0
M  V30 1357 C 121.188 2.92867 4.47363 0
M  V30 1358 C 122.488 4.38265 2.84114 0
M  V30 1359 H 124.182 2.65267 1.38829 0
M  V30 1360 H 121.728 1.2765 0.666441 0
M  V30 1361 H 123.681 1.96698 3.72677 0
M  V30 1362 H 122.405 0.866858 3.14886 0
M  V30 1363 H 121.064 2.83401 2.3255 0
M  V30 1364 H 120.712 1.94783 4.63755 0
M  V30 1365 H 120.412 3.70227 4.56296 0
M  V30 1366 H 121.936 3.09015 5.26633 0
M  V30 1367 H 123.35 4.53198 3.51118 0
M  V30 1368 H 121.747 5.17115 3.04487 0
M  V30 1369 H 122.817 4.50281 1.7993 0
M  V30 1370 N 124.16 -0.719506 1.40217 0
M  V30 1371 C 125.07 -1.86378 1.42479 0
M  V30 1372 C 126.086 -1.71073 0.317834 0
M  V30 1373 O 127.262 -1.93406 0.561794 0
M  V30 1374 C 124.327 -3.22136 1.28178 0
M  V30 1375 C 123.388 -3.49723 2.48982 0
M  V30 1376 C 122.621 -4.79004 2.35353 0
M  V30 1377 O 122.844 -5.53821 1.36524 0
M  V30 1378 O 121.778 -5.06839 3.2465 0
M  V30 1379 H 125.604 -1.87425 2.38968 0
M  V30 1380 H 123.189 -0.869405 1.21498 0
M  V30 1381 H 125.071 -4.03234 1.22395 0
M  V30 1382 H 123.746 -3.21825 0.347934 0
M  V30 1383 H 122.653 -2.6865 2.60342 0
M  V30 1384 H 123.986 -3.54828 3.41113 0
M  V30 1385 N 125.638 -1.25649 -0.95132 0
M  V30 1386 C 126.571 -1.00644 -2.04807 0
M  V30 1387 C 127.549 0.0654271 -1.62468 0
M  V30 1388 O 128.733 -0.074911 -1.88351 0
M  V30 1389 C 125.86 -0.522052 -3.34653 0
M  V30 1390 C 124.906 -1.58495 -3.95957 0
M  V30 1391 S 125.739 -3.17108 -4.31512 0
M  V30 1392 C 126.895 -2.70412 -5.64471 0
M  V30 1393 H 127.128 -1.93508 -2.25703 0
M  V30 1394 H 124.661 -1.09216 -1.09139 0
M  V30 1395 H 126.619 -0.24923 -4.09743 0
M  V30 1396 H 125.28 0.386146 -3.11717 0
M  V30 1397 H 124.473 -1.1968 -4.89584 0
M  V30 1398 H 124.075 -1.80862 -3.2736 0
M  V30 1399 H 126.367 -2.14245 -6.42733 0
M  V30 1400 H 127.31 -3.62693 -6.08161 0
M  V30 1401 H 127.718 -2.10302 -5.23864 0
M  V30 1402 N 127.117 1.15442 -1.07289 0
M  V30 1403 C 128.05 2.19135 -0.636798 0
M  V30 1404 C 129.028 1.58884 0.34562 0
M  V30 1405 O 130.212 1.86805 0.252195 0
M  V30 1406 C 127.339 3.38638 0.0650014 0
M  V30 1407 C 126.385 4.17412 -0.87576 0
M  V30 1408 S 127.218 4.79882 -2.37642 0
M  V30 1409 C 128.374 6.02753 -1.6864 0
M  V30 1410 H 128.607 2.55787 -1.51526 0
M  V30 1411 H 126.14 1.26394 -0.886793 0
M  V30 1412 H 128.098 4.07873 0.463664 0
M  V30 1413 H 126.759 3.00331 0.919801 0
M  V30 1414 H 125.952 5.02909 -0.33143 0
M  V30 1415 H 125.554 3.53722 -1.21478 0
M  V30 1416 H 127.846 6.70113 -0.997753 0
M  V30 1417 H 128.789 6.61754 -2.51967 0
M  V30 1418 H 129.197 5.52355 -1.16465 0
M  V30 1419 N 128.595 0.856903 1.32268 0
M  V30 1420 C 129.545 0.274899 2.26337 0
M  V30 1421 C 130.529 -0.580543 1.50062 0
M  V30 1422 O 131.721 -0.429559 1.71708 0
M  V30 1423 C 128.85 -0.533841 3.39124 0
M  V30 1424 C 127.936 0.334114 4.22782 0
M  V30 1425 N 128.327 1.42143 4.85416 0
M  V30 1426 C 126.625 0.124256 4.45827 0
M  V30 1427 C 127.326 1.95559 5.47843 0
M  V30 1428 N 126.302 1.25444 5.28928 0
M  V30 1429 H 130.104 1.10612 2.72291 0
M  V30 1430 H 127.618 0.703258 1.46383 0
M  V30 1431 H 129.615 -0.96722 4.05525 0
M  V30 1432 H 128.275 -1.36283 2.94715 0
M  V30 1433 H 129.286 1.80436 4.85451 0
M  V30 1434 H 125.963 -0.669837 4.12092 0
M  V30 1435 H 127.353 2.86714 6.07655 0
M  V30 1436 N 130.073 -1.45103 0.615059 0
M  V30 1437 C 131.036 -2.29025 -0.0895485 0
M  V30 1438 C 132.036 -1.40174 -0.787906 0
M  V30 1439 O 133.226 -1.62217 -0.634933 0
M  V30 1440 C 130.358 -3.21376 -1.13711 0
M  V30 1441 H 131.551 -2.92807 0.648382 0
M  V30 1442 H 129.104 -1.51749 0.374444 0
M  V30 1443 H 129.839 -2.6241 -1.90556 0
M  V30 1444 H 129.624 -3.86834 -0.640475 0
M  V30 1445 H 131.114 -3.84459 -1.63036 0
M  V30 1446 N 131.551 -0.354651 -1.53558 0
M  V30 1447 C 132.962 0.126902 -1.86268 0
M  V30 1448 C 133.313 1.49075 -1.27558 0
M  V30 1449 O 132.438 2.08105 -0.5934 0
M  V30 1450 C 133.033 0.237046 -3.3797 0
M  V30 1451 C 131.592 0.662842 -3.70518 0
M  V30 1452 C 130.739 -0.196652 -2.76602 0
M  V30 1453 H 133.69 -0.573849 -1.47962 0
M  V30 1454 H 133.711 1.06259 -3.65362 0
M  V30 1455 H 133.223 -0.755725 -3.80671 0
M  V30 1456 H 131.324 1.66424 -3.33367 0
M  V30 1457 H 131.437 0.445034 -4.77029 0
M  V30 1458 H 129.801 0.332763 -2.52517 0
M  V30 1459 H 130.584 -1.18676 -3.22135 0
M  V30 1460 N 133.029 1.57378 -0.0835403 0
M  V30 1461 C 134.445 1.57246 0.273109 0
M  V30 1462 C 134.645 1.09385 1.69225 0
M  V30 1463 O 133.701 0.765051 2.40631 0
M  V30 1464 C 135.014 3.00614 0.0720628 0
M  V30 1465 C 136.562 3.12684 0.1407 0
M  V30 1466 C 137.037 4.57989 -0.0322094 0
M  V30 1467 N 138.528 4.63194 0.0230085 0
M  V30 1468 C 139.263 5.73335 -0.0861941 0
M  V30 1469 N 138.759 6.9235 -0.24958 0
M  V30 1470 N 140.552 5.62093 -0.0282886 0
M  V30 1471 H 132.703 1.86801 -1.0109 0
M  V30 1472 H 134.966 0.861687 -0.395222 0
M  V30 1473 H 134.672 3.39786 -0.907662 0
M  V30 1474 H 134.546 3.68193 0.81936 0
M  V30 1475 H 136.933 2.73391 1.11092 0
M  V30 1476 H 137.014 2.47719 -0.637896 0
M  V30 1477 H 136.658 4.97973 -0.999247 0
M  V30 1478 H 136.588 5.21 0.765937 0
M  V30 1479 H 139.079 3.77613 0.14722 0
M  V30 1480 H 139.392 7.72117 -0.324733 0
M  V30 1481 H 137.737 6.94415 -0.285097 0
M  V30 1482 H 140.928 4.67997 0.0981408 0
M  V30 1483 H 141.101 6.47895 -0.116845 0
M  V30 1484 N 134.507 -0.190092 1.56449 0
M  V30 1485 C 135.747 -0.916414 1.82705 0
M  V30 1486 C 136.111 -1.80235 0.661763 0
M  V30 1487 O 137.312 -2.56484 0.80433 0
M  V30 1488 C 135.583 -1.70691 3.14005 0
M  V30 1489 S 137.142 -2.48457 3.61683 0
M  V30 1490 H 133.96 -0.307281 0.64117 0
M  V30 1491 H 136.562 -0.179433 1.94675 0
M  V30 1492 H 135.266 -1.04677 3.96826 0
M  V30 1493 H 134.797 -2.48562 3.04927 0
M  V30 1494 H 136.812 -3.72756 3.27517 0
M  V30 1495 N 135.985 -1.50799 -0.457987 0
M  V30 1496 C 137.233 -1.62121 -1.2067 0
M  V30 1497 C 137.554 -0.329793 -1.92191 0
M  V30 1498 O 136.824 0.653409 -1.84682 0
M  V30 1499 H 135.404 -0.597441 -0.448411 0
M  V30 1500 H 138.066 -1.87637 -0.527096 0
M  V30 1501 H 137.162 -2.43882 -1.94751 0
M  V30 1502 N 137.463 0.71206 -1.40597 0
M  V30 1503 C 138.709 1.47416 -1.39271 0
M  V30 1504 C 139.042 1.942 0.00388791 0
M  V30 1505 O 138.317 1.68403 0.973179 0
M  V30 1506 C 138.6 2.69774 -2.38525 0
M  V30 1507 C 138.453 2.28861 -3.87224 0
M  V30 1508 C 139.772 3.71939 -2.35264 0
M  V30 1509 H 136.891 0.534713 -0.5072 0
M  V30 1510 H 139.533 0.812375 -1.71757 0
M  V30 1511 H 137.683 3.26238 -2.10953 0
M  V30 1512 H 139.355 1.77852 -4.25636 0
M  V30 1513 H 137.598 1.60824 -4.02887 0
M  V30 1514 H 138.269 3.16584 -4.52193 0
M  V30 1515 H 140.745 3.25113 -2.59694 0
M  V30 1516 H 139.621 4.55186 -3.06753 0
M  V30 1517 H 139.882 4.20484 -1.36549 0
M  V30 1518 N 138.941 1.26152 0.944643 0
M  V30 1519 C 140.352 1.10454 1.50522 0
M  V30 1520 C 140.703 -0.31635 1.93633 0
M  V30 1521 O 139.828 -1.20746 1.79581 0
M  V30 1522 C 140.423 1.99891 2.73549 0
M  V30 1523 C 138.982 1.88348 3.25886 0
M  V30 1524 C 138.129 1.93447 1.9868 0
M  V30 1525 H 141.08 1.39292 0.760489 0
M  V30 1526 H 141.101 1.54477 3.47732 0
M  V30 1527 H 140.613 3.03297 2.42141 0
M  V30 1528 H 138.714 0.878636 3.62092 0
M  V30 1529 H 138.827 2.73696 3.93227 0
M  V30 1530 H 137.191 1.37456 2.14425 0
M  V30 1531 H 137.974 2.98476 1.69607 0
M  V30 1532 N 140.419 -1.14872 1.07899 0
M  V30 1533 C 141.696 -1.81928 0.71845 0
M  V30 1534 C 142.076 -1.95417 -0.798455 0
M  V30 1535 O 141.424 -1.50997 -1.715 0
M  V30 1536 C 141.634 -3.17937 1.43935 0
M  V30 1537 C 142.982 -3.93501 1.59506 0
M  V30 1538 O 144.006 -3.27509 1.40058 0
M  V30 1539 O 142.865 -5.1183 1.91551 0
M  V30 1540 H 139.959 -0.78628 0.256305 0
M  V30 1541 H 142.505 -1.21934 1.18026 0
M  V30 1542 H 141.277 -3.0325 2.47295 0
M  V30 1543 H 140.9 -3.85619 0.968687 0
M  V30 1544 N 141.898 -0.863906 -1.31812 0
M  V30 1545 C 143.144 -0.472535 -1.97218 0
M  V30 1546 C 143.477 0.971394 -1.68159 0
M  V30 1547 O 142.752 1.68309 -0.974798 0
M  V30 1548 C 143.035 -0.723054 -3.52766 0
M  V30 1549 C 142.888 -2.21608 -3.91421 0
M  V30 1550 C 144.207 -0.185522 -4.39709 0
M  V30 1551 H 141.326 -0.173158 -0.71637 0
M  V30 1552 H 143.968 -1.08403 -1.56041 0
M  V30 1553 H 142.118 -0.202577 -3.87971 0
M  V30 1554 H 143.79 -2.80334 -3.66347 0
M  V30 1555 H 142.033 -2.691 -3.40246 0
M  V30 1556 H 142.704 -2.34203 -4.99853 0
M  V30 1557 H 145.18 -0.630726 -4.11292 0
M  V30 1558 H 144.056 -0.390306 -5.47511 0
M  V30 1559 H 144.317 0.912229 -4.32586 0
M  V30 1560 N 143.376 1.44774 -0.622745 0
M  V30 1561 C 144.326 2.2774 0.108889 0
M  V30 1562 C 145.31 1.38189 0.824175 0
M  V30 1563 O 146.502 1.62063 0.711664 0
M  V30 1564 C 143.631 3.25353 1.09546 0
M  V30 1565 C 142.717 4.22392 0.380232 0
M  V30 1566 N 143.108 5.02388 -0.586535 0
M  V30 1567 C 141.406 4.41588 0.625792 0
M  V30 1568 C 142.107 5.72894 -1.00834 0
M  V30 1569 N 141.083 5.42479 -0.348878 0
M  V30 1570 H 144.885 2.86993 -0.63341 0
M  V30 1571 H 142.399 1.5611 -0.447589 0
M  V30 1572 H 144.396 3.83538 1.63414 0
M  V30 1573 H 143.056 2.6766 1.83815 0
M  V30 1574 H 144.067 5.0885 -0.963975 0
M  V30 1575 H 140.744 3.95003 1.352 0
M  V30 1576 H 142.134 6.47158 -1.80656 0
M  V30 1577 N 144.854 0.36279 1.53368 0
M  V30 1578 C 145.804 -0.501391 2.22419 0
M  V30 1579 C 146.788 -1.0509 1.2184 0
M  V30 1580 O 147.98 -0.981404 1.47301 0
M  V30 1581 C 145.109 -1.64201 3.01484 0
M  V30 1582 C 144.195 -1.10552 4.09438 0
M  V30 1583 N 144.586 -0.291788 5.04958 0
M  V30 1584 C 142.884 -1.3806 4.24094 0
M  V30 1585 C 143.585 0.00162655 5.817 0
M  V30 1586 N 142.561 -0.595244 5.40331 0
M  V30 1587 H 146.363 0.127159 2.93625 0
M  V30 1588 H 143.877 0.170658 1.61501 0
M  V30 1589 H 145.874 -2.27326 3.49469 0
M  V30 1590 H 144.534 -2.27365 2.31809 0
M  V30 1591 H 145.545 0.0687731 5.17854 0
M  V30 1592 H 142.222 -2.01522 3.65644 0
M  V30 1593 H 143.612 0.659278 6.68658 0
M  V30 1594 N 146.332 -1.57332 0.0918853 0
M  V30 1595 C 147.579 -1.94236 -0.572577 0
M  V30 1596 C 147.907 -0.973398 -1.6839 0
M  V30 1597 O 147.162 0.00756912 -1.95699 0
M  V30 1598 C 147.461 -3.37689 -1.17051 0
M  V30 1599 C 147.127 -4.50527 -0.183304 0
M  V30 1600 C 145.789 -4.81119 0.0882276 0
M  V30 1601 C 148.141 -5.18883 0.49095 0
M  V30 1602 C 145.469 -5.77395 1.04076 0
M  V30 1603 C 147.821 -6.1618 1.43193 0
M  V30 1604 C 146.485 -6.45179 1.71173 0
M  V30 1605 H 145.755 -0.710762 -0.209521 0
M  V30 1606 H 148.402 -1.9077 0.167036 0
M  V30 1607 H 146.707 -3.37718 -1.9863 0
M  V30 1608 H 148.404 -3.63543 -1.69227 0
M  V30 1609 H 144.994 -4.26681 -0.405124 0
M  V30 1610 H 149.178 -4.95427 0.294312 0
M  V30 1611 H 144.434 -5.98179 1.26457 0
M  V30 1612 H 148.608 -6.68243 1.96023 0
M  V30 1613 H 146.235 -7.1959 2.4514 0
M  V30 1614 N 147.81 0.181792 -1.56548 0
M  V30 1615 C 149.226 0.53316 -1.50431 0
M  V30 1616 C 149.426 1.85184 -0.794297 0
M  V30 1617 O 148.482 2.50058 -0.350318 0
M  V30 1618 C 149.795 0.575597 -2.9514 0
M  V30 1619 C 151.343 0.663519 -3.05886 0
M  V30 1620 C 151.818 0.736946 -4.52032 0
M  V30 1621 N 153.309 0.800118 -4.56237 0
M  V30 1622 C 154.044 0.877327 -5.66649 0
M  V30 1623 N 153.54 0.916016 -6.86718 0
M  V30 1624 N 155.333 0.915542 -5.54594 0
M  V30 1625 H 147.484 -0.683025 -2.01118 0
M  V30 1626 H 149.747 -0.244988 -0.915797 0
M  V30 1627 H 149.453 -0.324482 -3.502 0
M  V30 1628 H 149.327 1.42572 -3.49218 0
M  V30 1629 H 151.714 1.55403 -2.50867 0
M  V30 1630 H 151.795 -0.21307 -2.54911 0
M  V30 1631 H 151.439 -0.149262 -5.07681 0
M  V30 1632 H 151.369 1.62953 -5.00753 0
M  V30 1633 H 153.86 0.778926 -3.69785 0
M  V30 1634 H 154.173 0.975813 -7.66614 0
M  V30 1635 H 152.518 0.884469 -6.89349 0
M  V30 1636 H 155.709 0.882245 -4.59711 0
M  V30 1637 H 155.882 0.972253 -6.40665 0
M  V30 1638 N 149.288 1.51039 0.449983 0
M  V30 1639 C 150.198 1.74261 1.57067 0
M  V30 1640 C 151.214 0.626363 1.62335 0
M  V30 1641 O 152.39 0.907162 1.79812 0
M  V30 1642 C 149.455 1.85114 2.93144 0
M  V30 1643 C 148.516 3.0893 2.98095 0
M  V30 1644 C 147.749 3.19256 4.27681 0
M  V30 1645 O 147.972 2.35835 5.19363 0
M  V30 1646 O 146.906 4.12144 4.38658 0
M  V30 1647 H 150.732 2.69303 1.40391 0
M  V30 1648 H 148.317 1.35389 0.631688 0
M  V30 1649 H 150.199 1.94311 3.73926 0
M  V30 1650 H 148.874 0.932588 3.09975 0
M  V30 1651 H 147.781 3.0522 2.16314 0
M  V30 1652 H 149.114 4.00433 2.86206 0
M  V30 1653 N 150.766 -0.704594 1.40972 0
M  V30 1654 C 151.699 -1.82861 1.36518 0
M  V30 1655 C 152.677 -1.6091 0.23382 0
M  V30 1656 O 153.861 -1.83778 0.419271 0
M  V30 1657 C 150.988 -3.1939 1.12729 0
M  V30 1658 C 150.034 -3.60148 2.28463 0
M  V30 1659 S 150.867 -3.65994 3.90907 0
M  V30 1660 C 152.023 -5.05264 3.69403 0
M  V30 1661 H 152.256 -1.86361 2.3164 0
M  V30 1662 H 149.789 -0.872439 1.27389 0
M  V30 1663 H 151.747 -3.98211 0.996893 0
M  V30 1664 H 150.408 -3.1351 0.192427 0
M  V30 1665 H 149.601 -4.59309 2.07489 0
M  V30 1666 H 149.203 -2.88612 2.37863 0
M  V30 1667 H 151.495 -5.92504 3.28551 0
M  V30 1668 H 152.438 -5.31278 4.68134 0
M  V30 1669 H 152.846 -4.76377 3.02862 0
M  V30 1670 N 152.244 -1.26651 -0.937939 0
M  V30 1671 C 153.655 -1.1125 -1.49934 0
M  V30 1672 C 154.006 0.306077 -1.93798 0
M  V30 1673 O 153.131 1.19792 -1.80219 0
M  V30 1674 C 153.726 -2.01339 -2.72485 0
M  V30 1675 C 152.285 -1.90074 -3.24883 0
M  V30 1676 C 151.432 -1.94498 -1.97651 0
M  V30 1677 H 154.383 -1.39693 -0.753091 0
M  V30 1678 H 154.404 -1.56319 -3.46907 0
M  V30 1679 H 153.916 -3.04577 -2.40529 0
M  V30 1680 H 152.017 -0.897827 -3.61621 0
M  V30 1681 H 152.13 -2.75778 -3.9177 0
M  V30 1682 H 150.494 -1.38591 -2.13693 0
M  V30 1683 H 151.277 -2.99372 -1.68022 0
M  V30 1684 N 153.722 1.14298 -1.08507 0
M  V30 1685 C 154.97 1.84993 -0.813763 0
M  V30 1686 C 155.291 1.83405 0.662393 0
M  V30 1687 O 154.561 1.28319 1.48024 0
M  V30 1688 H 153.141 0.684966 -0.298045 0
M  V30 1689 H 155.803 1.385 -1.37126 0
M  V30 1690 H 154.899 2.89788 -1.15884 0
M  V30 1691 N 155.201 0.870884 1.31352 0
M  V30 1692 C 156.449 0.48132 1.96285 0
M  V30 1693 C 156.77 -0.969813 1.69173 0
M  V30 1694 O 156.04 -1.67998 1.00764 0
M  V30 1695 H 154.62 0.175002 0.726212 0
M  V30 1696 H 157.282 1.11087 1.60143 0
M  V30 1697 H 156.378 0.639825 3.05471 0
M  V30 1698 N 156.679 -1.44442 0.630414 0
M  V30 1699 C 158.09 -1.85434 0.217063 0
M  V30 1700 C 158.441 -1.52748 -1.23136 0
M  V30 1701 O 157.566 -0.965205 -1.93682 0
M  V30 1702 C 158.161 -3.36581 0.387168 0
M  V30 1703 C 156.72 -3.76389 0.0283297 0
M  V30 1704 C 155.867 -2.68296 0.700889 0
M  V30 1705 H 158.818 -1.34919 0.83562 0
M  V30 1706 H 158.839 -3.78657 -0.374086 0
M  V30 1707 H 158.351 -3.60339 1.44144 0
M  V30 1708 H 156.452 -3.58246 -1.02423 0
M  V30 1709 H 156.565 -4.77095 0.437892 0
M  V30 1710 H 154.929 -2.54335 0.136267 0
M  V30 1711 H 155.712 -2.94887 1.75774 0
M  V30 1712 N 158.157 -0.370918 -1.53173 0
M  V30 1713 C 159.403 0.217423 -2.01631 0
M  V30 1714 C 159.736 1.47983 -1.25756 0
M  V30 1715 O 159.011 1.91274 -0.352764 0
M  V30 1716 C 159.294 0.503982 -3.56556 0
M  V30 1717 C 159.147 -0.77243 -4.43118 0
M  V30 1718 C 160.466 1.30234 -4.20389 0
M  V30 1719 H 157.585 0.0775486 -0.732909 0
M  V30 1720 H 160.227 -0.496863 -1.83388 0
M  V30 1721 H 158.377 1.11248 -3.72231 0
M  V30 1722 H 160.049 -1.4098 -4.39229 0
M  V30 1723 H 158.292 -1.39167 -4.10871 0
M  V30 1724 H 158.963 -0.526815 -5.4948 0
M  V30 1725 H 161.439 0.787546 -4.08579 0
M  V30 1726 H 160.315 1.47158 -5.28806 0
M  V30 1727 H 160.576 2.31237 -3.76805 0
M  V30 1728 N 159.635 1.57281 -0.100228 0
M  V30 1729 C 160.881 1.95626 0.556946 0
M  V30 1730 C 161.236 0.981655 1.65473 0
M  V30 1731 O 160.529 0.00849847 1.91598 0
M  V30 1732 C 160.723 3.38305 1.15259 0
M  V30 1733 C 160.552 4.49555 0.114035 0
M  V30 1734 C 159.322 5.0434 -0.311266 0
M  V30 1735 C 161.52 5.10051 -0.659768 0
M  V30 1736 N 159.502 5.99152 -1.33755 0
M  V30 1737 C 160.873 6.00628 -1.53774 0
M  V30 1738 C 162.928 4.92772 -0.712723 0
M  V30 1739 C 161.631 6.7578 -2.46403 0
M  V30 1740 C 163.657 5.6859 -1.62663 0
M  V30 1741 C 163.019 6.58838 -2.49222 0
M  V30 1742 H 159.118 0.7624 0.173982 0
M  V30 1743 H 161.702 1.93829 -0.183988 0
M  V30 1744 H 159.873 3.40786 1.86332 0
M  V30 1745 H 161.605 3.63817 1.77254 0
M  V30 1746 H 158.36 4.73537 0.0774812 0
M  V30 1747 H 158.784 6.5126 -1.84905 0
M  V30 1748 H 163.426 4.22761 -0.0576648 0
M  V30 1749 H 161.144 7.4505 -3.12931 0
M  V30 1750 H 164.73 5.57233 -1.67281 0
M  V30 1751 H 163.61 7.16479 -3.18791 0
M  V30 1752 N 161.113 -0.173488 1.56642 0
M  V30 1753 C 162.529 -0.525174 1.50712 0
M  V30 1754 C 162.729 -1.8476 0.804107 0
M  V30 1755 O 161.785 -2.49869 0.363574 0
M  V30 1756 C 163.098 -0.559937 2.95441 0
M  V30 1757 C 164.646 -0.647288 3.06234 0
M  V30 1758 C 165.121 -0.712963 4.52417 0
M  V30 1759 N 166.612 -0.775911 4.56655 0
M  V30 1760 C 167.347 -0.847264 5.67106 0
M  V30 1761 N 166.843 -0.879585 6.87194 0
M  V30 1762 N 168.636 -0.886117 5.55071 0
M  V30 1763 H 160.787 0.693681 2.00753 0
M  V30 1764 H 163.05 0.249841 0.914485 0
M  V30 1765 H 162.756 0.343049 3.50023 0
M  V30 1766 H 162.63 -1.40718 3.49969 0
M  V30 1767 H 165.017 -1.5407 2.51687 0
M  V30 1768 H 165.098 0.226586 2.54794 0
M  V30 1769 H 164.742 0.176183 5.07594 0
M  V30 1770 H 164.672 -1.60295 5.0161 0
M  V30 1771 H 167.163 -0.759304 3.70193 0
M  V30 1772 H 167.476 -0.935144 7.67121 0
M  V30 1773 H 165.821 -0.847898 6.89808 0
M  V30 1774 H 169.012 -0.857853 4.60172 0
M  V30 1775 H 169.185 -0.938263 6.41171 0
M  V30 1776 N 162.591 -1.51276 -0.441967 0
M  V30 1777 C 163.538 -1.72256 -1.53612 0
M  V30 1778 C 164.508 -0.564164 -1.56225 0
M  V30 1779 O 165.693 -0.798074 -1.73307 0
M  V30 1780 C 162.833 -1.84932 -2.91366 0
M  V30 1781 C 161.946 -3.12459 -2.98317 0
M  V30 1782 C 161.081 -3.15758 -4.27166 0
M  V30 1783 C 160.12 -4.37619 -4.27967 0
M  V30 1784 N 159.257 -4.38493 -5.48333 0
M  V30 1785 H 164.097 -2.65654 -1.35026 0
M  V30 1786 H 161.634 -1.31662 -0.656009 0
M  V30 1787 H 163.592 -1.90263 -3.7129 0
M  V30 1788 H 162.222 -0.949461 -3.08521 0
M  V30 1789 H 161.274 -3.1646 -2.11086 0
M  V30 1790 H 162.586 -4.02382 -2.94771 0
M  V30 1791 H 161.74 -3.19979 -5.15459 0
M  V30 1792 H 160.479 -2.23715 -4.33362 0
M  V30 1793 H 159.484 -4.33579 -3.38067 0
M  V30 1794 H 160.709 -5.30921 -4.23438 0
M  V30 1795 H 158.655 -3.49318 -5.55259 0
M  V30 1796 H 158.572 -5.22219 -5.46647 0
M  V30 1797 H 159.84 -4.469 -6.38671 0
M  V30 1798 N 164.069 0.697108 -1.41344 0
M  V30 1799 C 165.019 1.80313 -1.39539 0
M  V30 1800 C 166.003 1.58618 -0.270001 0
M  V30 1801 O 167.195 1.69477 -0.510551 0
M  V30 1802 C 164.324 3.18606 -1.27848 0
M  V30 1803 C 163.41 3.46001 -2.45244 0
M  V30 1804 N 163.801 3.44103 -3.70711 0
M  V30 1805 C 162.099 3.76542 -2.39023 0
M  V30 1806 C 162.8 3.7036 -4.48563 0
M  V30 1807 N 161.776 3.90027 -3.78655 0
M  V30 1808 H 165.578 1.77207 -2.34468 0
M  V30 1809 H 163.092 0.897031 -1.35378 0
M  V30 1810 H 165.089 3.97833 -1.24637 0
M  V30 1811 H 163.749 3.22925 -0.339032 0
M  V30 1812 H 164.76 3.2452 -4.03618 0
M  V30 1813 H 161.437 3.88241 -1.53542 0
M  V30 1814 H 162.827 3.75042 -5.57488 0
M  V30 1815 N 165.547 1.27147 0.931209 0
M  V30 1816 C 166.777 1.15914 1.71019 0
M  V30 1817 C 167.185 -0.287112 1.87009 0
M  V30 1818 O 166.528 -1.20761 1.38429 0
M  V30 1819 C 166.59 1.76647 3.13107 0
M  V30 1820 C 166.254 3.25807 3.20467 0
M  V30 1821 C 167.251 4.22489 3.02983 0
M  V30 1822 C 164.936 3.66452 3.43538 0
M  V30 1823 C 166.93 5.57794 3.08454 0
M  V30 1824 C 164.617 5.01888 3.48643 0
M  V30 1825 C 165.615 5.97369 3.31119 0
M  V30 1826 O 165.303 7.30337 3.35952 0
M  V30 1827 H 165.035 0.404062 0.54195 0
M  V30 1828 H 167.589 1.68457 1.17521 0
M  V30 1829 H 165.819 1.18578 3.68071 0
M  V30 1830 H 167.508 1.60179 3.72958 0
M  V30 1831 H 168.274 3.92425 2.85004 0
M  V30 1832 H 164.153 2.92611 3.5623 0
M  V30 1833 H 167.697 6.32298 2.94694 0
M  V30 1834 H 163.594 5.31609 3.66145 0
M  V30 1835 H 164.362 7.38739 3.5243 0
M  V30 1836 N 167.025 -1.13721 1.09112 0
M  V30 1837 C 168.274 -1.84275 0.82009 0
M  V30 1838 C 168.587 -1.84253 -0.656509 0
M  V30 1839 O 169.793 -2.50668 -1.04296 0
M  V30 1840 C 168.249 -3.30825 1.41714 0
M  V30 1841 C 167.857 -3.39244 2.92605 0
M  V30 1842 C 169.601 -4.06443 1.22492 0
M  V30 1843 C 167.508 -4.80047 3.45411 0
M  V30 1844 H 166.438 -0.690387 0.30312 0
M  V30 1845 H 169.089 -1.28146 1.31343 0
M  V30 1846 H 167.471 -3.86737 0.851498 0
M  V30 1847 H 168.645 -2.93344 3.55367 0
M  V30 1848 H 166.96 -2.77088 3.10823 0
M  V30 1849 H 169.557 -5.10387 1.59402 0
M  V30 1850 H 169.9 -4.15972 0.165299 0
M  V30 1851 H 170.433 -3.56852 1.75788 0
M  V30 1852 H 167.172 -4.75709 4.50978 0
M  V30 1853 H 166.692 -5.26455 2.87411 0
M  V30 1854 H 168.371 -5.48957 3.42425 0
M  V30 1855 N 168.503 -0.877838 -1.30888 0
M  V30 1856 C 169.731 -0.507414 -2.00581 0
M  V30 1857 C 170.146 0.902216 -1.65848 0
M  V30 1858 O 169.503 1.59225 -0.891831 0
M  V30 1859 C 169.554 -0.664162 -3.55347 0
M  V30 1860 O 169.275 -2.01829 -3.8884 0
M  V30 1861 C 170.776 -0.295787 -4.42312 0
M  V30 1862 H 167.996 -0.196866 -0.641471 0
M  V30 1863 H 170.54 -1.18117 -1.66939 0
M  V30 1864 H 168.695 -0.0378619 -3.87381 0
M  V30 1865 H 169.109 -2.03174 -4.8355 0
M  V30 1866 H 170.583 -0.456388 -5.5011 0
M  V30 1867 H 171.06 0.765663 -4.32475 0
M  V30 1868 H 171.666 -0.898113 -4.15709 0
M  V30 1869 N 169.982 1.44106 -0.638065 0
M  V30 1870 C 171.212 2.06037 -0.152394 0
M  V30 1871 C 171.62 1.47808 1.18108 0
M  V30 1872 O 170.963 0.598092 1.73691 0
M  V30 1873 C 171.025 3.59488 0.0293714 0
M  V30 1874 C 170.689 4.4022 -1.22702 0
M  V30 1875 C 171.686 4.73256 -2.15232 0
M  V30 1876 C 169.371 4.8048 -1.46437 0
M  V30 1877 C 171.365 5.45444 -3.29802 0
M  V30 1878 C 169.052 5.52417 -2.61303 0
M  V30 1879 C 170.05 5.84819 -3.52811 0
M  V30 1880 O 169.738 6.55289 -4.65673 0
M  V30 1881 H 169.47 0.671233 -0.0801401 0
M  V30 1882 H 172.024 1.85851 -0.874563 0
M  V30 1883 H 170.254 3.78191 0.806758 0
M  V30 1884 H 171.943 4.03164 0.470475 0
M  V30 1885 H 172.709 4.42684 -1.98131 0
M  V30 1886 H 168.588 4.54676 -0.760977 0
M  V30 1887 H 172.132 5.70653 -4.01249 0
M  V30 1888 H 168.029 5.82404 -2.78344 0
M  V30 1889 H 168.797 6.73762 -4.64744 0
M  V30 1890 N 171.46 0.379036 1.52974 0
M  V30 1891 C 172.876 0.0285448 1.59574 0
M  V30 1892 C 173.076 -1.45542 1.39355 0
M  V30 1893 O 172.132 -2.2187 1.20541 0
M  V30 1894 C 173.445 0.496535 2.96572 0
M  V30 1895 C 174.993 0.451909 3.0972 0
M  V30 1896 C 175.468 0.895924 4.49152 0
M  V30 1897 N 176.959 0.851522 4.55306 0
M  V30 1898 C 177.694 1.16661 5.61407 0
M  V30 1899 N 177.19 1.55166 6.752 0
M  V30 1900 N 178.983 1.08853 5.51459 0
M  V30 1901 H 171.134 1.34525 1.64367 0
M  V30 1902 H 173.397 0.550733 0.771619 0
M  V30 1903 H 173.103 1.53258 3.16552 0
M  V30 1904 H 172.977 -0.109802 3.7704 0
M  V30 1905 H 175.364 -0.575029 2.89443 0
M  V30 1906 H 175.445 1.09392 2.3123 0
M  V30 1907 H 175.089 1.92104 4.70168 0
M  V30 1908 H 175.019 0.23103 5.26093 0
M  V30 1909 H 177.51 0.568038 3.73606 0
M  V30 1910 H 177.823 1.776 7.52116 0
M  V30 1911 H 176.168 1.59044 6.76557 0
M  V30 1912 H 179.359 0.786803 4.6144 0
M  V30 1913 H 179.532 1.33742 6.34048 0
M  V30 1914 N 172.938 -1.57226 0.108567 0
M  V30 1915 C 174.187 -1.94008 -0.551703 0
M  V30 1916 C 174.5 -0.993442 -1.68494 0
M  V30 1917 O 175.706 -1.25551 -2.40726 0
M  V30 1918 C 174.162 -3.44763 -1.03279 0
M  V30 1919 C 173.77 -4.47943 0.0714193 0
M  V30 1920 C 175.514 -3.90483 -1.66503 0
M  V30 1921 C 173.421 -5.89865 -0.425779 0
M  V30 1922 H 172.351 -0.724206 -0.209863 0
M  V30 1923 H 175.002 -1.82547 0.186741 0
M  V30 1924 H 173.384 -3.51422 -1.82533 0
M  V30 1925 H 174.558 -4.52942 0.847365 0
M  V30 1926 H 172.873 -4.11913 0.609669 0
M  V30 1927 H 175.47 -4.93925 -2.04798 0
M  V30 1928 H 175.813 -3.29877 -2.53942 0
M  V30 1929 H 176.346 -3.86581 -0.938074 0
M  V30 1930 H 173.085 -6.54202 0.412316 0
M  V30 1931 H 172.605 -5.88309 -1.16843 0
M  V30 1932 H 174.284 -6.40844 -0.890397 0
M  V30 1933 N 174.416 0.165178 -1.56732 0
M  V30 1934 C 175.364 1.22369 -1.97809 0
M  V30 1935 C 176.358 1.45488 -0.867741 0
M  V30 1936 O 177.564 1.45995 -1.05288 0
M  V30 1937 H 173.939 0.411486 -0.629431 0
M  V30 1938 H 175.91 0.850425 -2.86025 0
M  V30 1939 C 174.659 2.55403 -2.35934 0
M  V30 1940 H 173.982 2.38438 -3.20916 0
M  V30 1941 H 175.422 3.2814 -2.68514 0
M  V30 1942 C 173.881 3.14611 -1.20506 0
M  V30 1943 O 174.411 3.98626 -0.496016 0
M  V30 1944 N 172.617 2.7379 -0.97403 0
M  V30 1945 H 172.164 2.0557 -1.55238 0
M  V30 1946 H 172.122 3.1374 -0.203573 0
M  V30 1947 N 175.894 1.51508 0.433938 0
M  V30 1948 C 176.842 1.73646 1.54757 0
M  V30 1949 C 177.836 0.602854 1.5831 0
M  V30 1950 O 179.042 0.784318 1.62014 0
M  V30 1951 H 175.417 0.548718 0.51421 0
M  V30 1952 H 177.388 2.66991 1.33261 0
M  V30 1953 C 176.137 1.88172 2.92381 0
M  V30 1954 H 175.46 2.74808 2.90381 0
M  V30 1955 H 176.9 2.07672 3.6966 0
M  V30 1956 C 175.359 0.64239 3.30719 0
M  V30 1957 O 175.889 -0.201362 4.01195 0
M  V30 1958 N 174.095 0.485489 2.86516 0
M  V30 1959 H 173.642 1.17318 2.29334 0
M  V30 1960 H 173.6 -0.342482 3.12529 0
M  V30 1961 N 177.372 -0.689602 1.41712 0
M  V30 1962 C 178.602 -1.47613 1.44548 0
M  V30 1963 C 179.01 -1.89132 0.0509034 0
M  V30 1964 O 178.353 -1.57741 -0.94146 0
M  V30 1965 C 178.415 -2.76596 2.2964 0
M  V30 1966 C 178.079 -2.57245 3.77722 0
M  V30 1967 C 179.076 -2.22804 4.69739 0
M  V30 1968 C 176.761 -2.727 4.2183 0
M  V30 1969 C 178.755 -2.04064 6.03851 0
M  V30 1970 C 176.442 -2.53576 5.56006 0
M  V30 1971 C 177.44 -2.1931 6.46832 0
M  V30 1972 O 177.128 -2.00359 7.78532 0
M  V30 1973 H 176.86 -0.461227 0.494212 0
M  V30 1974 H 179.414 -0.856045 1.86711 0
M  V30 1975 H 177.644 -3.41033 1.82301 0
M  V30 1976 H 179.333 -3.38424 2.24107 0
M  V30 1977 H 180.099 -2.10473 4.36951 0
M  V30 1978 H 175.978 -2.98353 3.51435 0
M  V30 1979 H 179.522 -1.77241 6.74708 0
M  V30 1980 H 175.419 -2.65499 5.88371 0
M  V30 1981 H 176.187 -2.15075 7.89737 0
M  V30 1982 N 178.85 -1.27639 -0.924453 0
M  V30 1983 C 180.078 -1.16989 -1.70649 0
M  V30 1984 C 180.493 0.272869 -1.86818 0
M  V30 1985 O 179.85 1.18549 -1.38753 0
M  V30 1986 C 179.901 -1.85229 -3.10439 0
M  V30 1987 O 179.622 -3.23868 -2.95028 0
M  V30 1988 C 181.123 -1.80746 -4.04779 0
M  V30 1989 H 178.343 -0.406595 -0.53378 0
M  V30 1990 H 180.887 -1.68569 -1.15778 0
M  V30 1991 H 179.042 -1.37545 -3.6216 0
M  V30 1992 H 179.456 -3.57889 -3.83426 0
M  V30 1993 H 180.93 -2.33101 -5.00368 0
M  V30 1994 H 181.407 -0.777499 -4.32263 0
M  V30 1995 H 182.013 -2.28059 -3.58984 0
M  V30 1996 N 180.328 1.1314 -1.09713 0
M  V30 1997 C 181.739 1.66029 -0.853885 0
M  V30 1998 C 182.09 1.86241 0.617142 0
M  V30 1999 O 181.215 1.5834 1.47503 0
M  V30 2000 C 181.81 3.01599 -1.5435 0
M  V30 2001 C 180.369 3.51467 -1.34714 0
M  V30 2002 C 179.516 2.26648 -1.59769 0
M  V30 2003 H 182.467 0.970226 -1.25588 0
M  V30 2004 H 182.488 3.67709 -0.978267 0
M  V30 2005 H 182 2.86856 -2.6141 0
M  V30 2006 H 180.101 3.71408 -0.297838 0
M  V30 2007 H 180.214 4.314 -2.08401 0
M  V30 2008 H 178.578 2.33385 -1.01998 0
M  V30 2009 H 179.361 2.14467 -2.68065 0
M  V30 2010 N 181.806 0.884767 1.30421 0
M  V30 2011 C 183.083 0.423185 1.90967 0
M  V30 2012 C 183.463 -1.09605 1.80416 0
M  V30 2013 O 182.811 -1.93126 1.22125 0
M  V30 2014 C 183.021 0.921056 3.36627 0
M  V30 2015 C 184.369 0.955903 4.137 0
M  V30 2016 O 185.393 0.867706 3.4547 0
M  V30 2017 O 184.252 1.08614 5.35598 0
M  V30 2018 H 181.346 0.129369 0.816819 0
M  V30 2019 H 183.892 0.973653 1.3899 0
M  V30 2020 H 182.664 1.96489 3.3839 0
M  V30 2021 H 182.287 0.349741 3.96059 0
M  V30 2022 N 183.284 -1.43765 0.645699 0
M  V30 2023 C 184.217 -2.2798 -0.100072 0
M  V30 2024 C 185.195 -1.39391 -0.837194 0
M  V30 2025 O 186.379 -1.68833 -0.838306 0
M  V30 2026 C 183.506 -3.18643 -1.14823 0
M  V30 2027 C 182.552 -4.2344 -0.510009 0
M  V30 2028 S 183.385 -5.30761 0.710824 0
M  V30 2029 C 184.541 -6.24992 -0.33699 0
M  V30 2030 H 184.774 -2.90884 0.614322 0
M  V30 2031 H 182.307 -1.48166 0.434304 0
M  V30 2032 H 184.265 -3.71424 -1.74799 0
M  V30 2033 H 182.926 -2.54932 -1.8349 0
M  V30 2034 H 182.119 -4.86948 -1.29991 0
M  V30 2035 H 181.721 -3.73997 0.0154577 0
M  V30 2036 H 184.013 -6.66691 -1.20537 0
M  V30 2037 H 184.956 -7.07612 0.262879 0
M  V30 2038 H 185.364 -5.60517 -0.669425 0
M  V30 2039 N 184.763 -0.387143 -1.52771 0
M  V30 2040 C 185.711 0.463953 -2.27926 0
M  V30 2041 C 186.705 1.06493 -1.31741 0
M  V30 2042 O 187.911 1.00565 -1.49287 0
M  V30 2043 H 184.286 0.16837 -0.732909 0
M  V30 2044 H 186.257 -0.19141 -2.97785 0
M  V30 2045 C 185.006 1.5803 -3.09713 0
M  V30 2046 H 184.329 1.12718 -3.83581 0
M  V30 2047 H 185.769 2.15008 -3.65442 0
M  V30 2048 C 184.228 2.53509 -2.2189 0
M  V30 2049 O 184.758 3.56863 -1.84422 0
M  V30 2050 N 182.964 2.23199 -1.86093 0
M  V30 2051 H 182.511 1.39185 -2.16761 0
M  V30 2052 H 182.469 2.87333 -1.27621 0
M  V30 2053 N 186.241 1.57166 -0.116904 0
M  V30 2054 C 187.657 1.5779 0.239693 0
M  V30 2055 C 187.857 1.1295 1.66867 0
M  V30 2056 O 186.913 0.81592 2.38954 0
M  V30 2057 C 188.226 3.00699 0.00828202 0
M  V30 2058 C 189.774 3.12912 0.0743438 0
M  V30 2059 C 190.249 4.57817 -0.129348 0
M  V30 2060 N 191.74 4.63139 -0.075247 0
M  V30 2061 C 192.475 5.73023 -0.207788 0
M  V30 2062 N 191.971 6.91665 -0.396382 0
M  V30 2063 N 193.764 5.61906 -0.14751 0
M  V30 2064 H 185.915 1.84615 -1.05029 0
M  V30 2065 H 188.178 0.85311 -0.41341 0
M  V30 2066 H 187.884 3.37784 -0.979531 0
M  V30 2067 H 187.758 3.69848 0.741077 0
M  V30 2068 H 190.145 2.75686 1.05268 0
M  V30 2069 H 190.226 2.4631 -0.690297 0
M  V30 2070 H 189.87 4.95742 -1.10465 0
M  V30 2071 H 189.8 5.22507 0.655253 0
M  V30 2072 H 192.291 3.7784 0.0670898 0
M  V30 2073 H 192.604 7.71255 -0.488437 0
M  V30 2074 H 190.949 6.93654 -0.432329 0
M  V30 2075 H 194.14 4.681 -0.00115036 0
M  V30 2076 H 194.313 6.47501 -0.254247 0
M  V30 2077 N 187.719 -0.156864 1.56817 0
M  V30 2078 C 188.629 -1.2136 2.00771 0
M  V30 2079 C 189.645 -1.47598 0.921459 0
M  V30 2080 O 190.821 -1.59462 1.2302 0
M  V30 2081 C 187.886 -2.52943 2.37109 0
M  V30 2082 C 186.947 -2.34439 3.59634 0
M  V30 2083 C 186.18 -3.59748 3.94229 0
M  V30 2084 O 186.403 -4.65526 3.29609 0
M  V30 2085 O 185.337 -3.52998 4.8752 0
M  V30 2086 H 189.163 -0.870468 2.90958 0
M  V30 2087 H 186.748 -0.36484 1.44877 0
M  V30 2088 H 188.63 -3.30538 2.61386 0
M  V30 2089 H 187.305 -2.86806 1.5008 0
M  V30 2090 H 186.212 -1.54828 3.40557 0
M  V30 2091 H 187.545 -2.05496 4.4725 0
M  V30 2092 N 189.197 -1.51736 -0.425897 0
M  V30 2093 C 190.474 -1.55519 -1.1863 0
M  V30 2094 C 190.854 -0.326219 -2.08564 0
M  V30 2095 O 190.202 0.688012 -2.17896 0
M  V30 2096 C 190.412 -2.87521 -1.9782 0
M  V30 2097 C 191.76 -3.39899 -2.54468 0
M  V30 2098 O 192.784 -2.89148 -2.08019 0
M  V30 2099 O 191.643 -4.2848 -3.39215 0
M  V30 2100 H 188.737 -0.625739 -0.540721 0
M  V30 2101 H 191.283 -1.64055 -0.434038 0
M  V30 2102 H 190.055 -3.68422 -1.31836 0
M  V30 2103 H 189.678 -2.822 -2.80088 0
M  V30 2104 N 190.675 0.682077 -1.42076 0
M  V30 2105 C 191.921 1.44428 -1.42367 0
M  V30 2106 C 192.254 1.94164 -0.0373056 0
M  V30 2107 O 191.529 1.70429 0.937239 0
M  V30 2108 C 191.812 2.64654 -2.44194 0
M  V30 2109 C 191.665 2.20596 -3.91991 0
M  V30 2110 C 192.984 3.66865 -2.431 0
M  V30 2111 H 190.103 0.523834 -0.518428 0
M  V30 2112 H 192.745 0.77576 -1.73442 0
M  V30 2113 H 190.895 3.2169 -2.17826 0
M  V30 2114 H 192.567 1.68783 -4.29313 0
M  V30 2115 H 190.81 1.52242 -4.06208 0
M  V30 2116 H 191.481 3.06921 -4.58807 0
M  V30 2117 H 193.957 3.19531 -2.66532 0
M  V30 2118 H 192.833 4.48577 -3.16339 0
M  V30 2119 H 193.094 4.17493 -1.45437 0
M  V30 2120 N 192.153 1.28127 0.917671 0
M  V30 2121 C 193.43 1.05761 1.64542 0
M  V30 2122 C 193.81 -0.404344 2.07191 0
M  V30 2123 O 193.158 -1.38963 1.81388 0
M  V30 2124 C 193.368 2.02857 2.83989 0
M  V30 2125 C 194.716 2.32786 3.551 0
M  V30 2126 O 195.74 2.0091 2.94132 0
M  V30 2127 O 194.599 2.87169 4.64969 0
M  V30 2128 H 191.693 0.403916 0.721652 0
M  V30 2129 H 194.239 1.39431 0.967322 0
M  V30 2130 H 193.011 3.01407 2.49538 0
M  V30 2131 H 192.634 1.69809 3.59514 0
M  V30 2132 N 193.631 -1.12557 1.10312 0
M  V30 2133 C 194.861 -1.87592 0.865617 0
M  V30 2134 C 195.269 -1.79851 -0.587389 0
M  V30 2135 O 194.612 -1.16949 -1.41664 0
M  V30 2136 C 194.674 -3.37665 1.23381 0
M  V30 2137 C 194.338 -3.69181 2.69359 0
M  V30 2138 C 195.335 -3.67652 3.67597 0
M  V30 2139 C 193.02 -3.98555 3.05711 0
M  V30 2140 C 195.014 -3.95053 5.00212 0
M  V30 2141 C 192.701 -4.25616 4.38514 0
M  V30 2142 C 193.699 -4.23851 5.35574 0
M  V30 2143 O 193.387 -4.50242 6.65986 0
M  V30 2144 H 193.119 -0.600442 0.310557 0
M  V30 2145 H 195.673 -1.4335 1.47105 0
M  V30 2146 H 193.903 -3.82454 0.571467 0
M  V30 2147 H 195.592 -3.94041 0.973994 0
M  V30 2148 H 196.358 -3.45024 3.40857 0
M  V30 2149 H 192.237 -3.99071 2.30789 0
M  V30 2150 H 195.781 -3.93591 5.75962 0
M  V30 2151 H 191.678 -4.47718 4.64994 0
M  V30 2152 H 192.446 -4.67867 6.71597 0
M  V30 2153 N 195.109 -0.891671 -1.2995 0
M  V30 2154 C 196.072 -0.36828 -2.26222 0
M  V30 2155 C 197.072 0.493014 -1.53056 0
M  V30 2156 O 198.262 0.299213 -1.71611 0
M  V30 2157 C 195.394 0.47442 -3.37583 0
M  V30 2158 H 196.587 -1.21844 -2.74033 0
M  V30 2159 H 194.14 -0.669107 -1.41254 0
M  V30 2160 H 194.875 1.34489 -2.95099 0
M  V30 2161 H 194.66 -0.142615 -3.91841 0
M  V30 2162 H 196.15 0.83218 -4.09224 0
M  V30 2163 N 196.587 1.43421 -0.653314 0
M  V30 2164 C 197.836 2.01032 -0.164076 0
M  V30 2165 C 198.149 1.52147 1.22926 0
M  V30 2166 O 199.355 2.02031 1.81371 0
M  V30 2167 C 197.811 3.59082 -0.24252 0
M  V30 2168 C 197.419 4.1696 -1.63855 0
M  V30 2169 C 199.163 4.24079 0.18911 0
M  V30 2170 C 197.07 5.67304 -1.67092 0
M  V30 2171 H 196 0.751798 -0.0575769 0
M  V30 2172 H 198.651 1.6439 -0.815362 0
M  V30 2173 H 197.033 3.93125 0.476276 0
M  V30 2174 H 198.207 3.94416 -2.38271 0
M  V30 2175 H 196.522 3.64335 -2.01616 0
M  V30 2176 H 199.119 5.34381 0.184775 0
M  V30 2177 H 199.462 3.98005 1.22056 0
M  V30 2178 H 199.995 3.94918 -0.477938 0
M  V30 2179 H 196.734 5.98145 -2.68146 0
M  V30 2180 H 196.254 5.91904 -0.970014 0
M  V30 2181 H 197.933 6.31344 -1.4147 0
M  V30 2182 N 198.065 0.39524 1.52563 0
M  V30 2183 C 199.481 0.0454682 1.59535 0
M  V30 2184 C 199.681 -1.44056 1.4089 0
M  V30 2185 O 198.737 -2.20579 1.22888 0
M  V30 2186 C 200.05 0.527963 2.96029 0
M  V30 2187 C 201.598 0.484733 3.09224 0
M  V30 2188 C 202.073 0.943512 4.48176 0
M  V30 2189 N 203.564 0.899765 4.54377 0
M  V30 2190 C 204.299 1.22609 5.60138 0
M  V30 2191 N 203.795 1.62319 6.73516 0
M  V30 2192 N 205.588 1.14696 5.50274 0
M  V30 2193 H 197.739 1.36261 1.62931 0
M  V30 2194 H 200.002 0.558887 0.765735 0
M  V30 2195 H 199.708 1.56607 3.14908 0
M  V30 2196 H 199.582 -0.0698056 3.77135 0
M  V30 2197 H 201.969 -0.544298 2.90037 0
M  V30 2198 H 202.05 1.11838 2.30056 0
M  V30 2199 H 201.694 1.9708 4.68104 0
M  V30 2200 H 201.624 0.286817 5.25818 0
M  V30 2201 H 204.115 0.607632 3.72983 0
M  V30 2202 H 204.428 1.85567 7.5019 0
M  V30 2203 H 202.773 1.66211 6.74833 0
M  V30 2204 H 205.964 0.835701 4.6058 0
M  V30 2205 H 206.137 1.40459 6.32594 0
M  V30 2206 N 199.544 -1.57102 0.125237 0
M  V30 2207 C 200.491 -2.15641 -0.822655 0
M  V30 2208 C 201.461 -1.08313 -1.25927 0
M  V30 2209 O 202.646 -1.36251 -1.33567 0
M  V30 2210 C 199.786 -2.76504 -2.06494 0
M  V30 2211 C 198.899 -3.98158 -1.67612 0
M  V30 2212 C 198.034 -4.47088 -2.86854 0
M  V30 2213 C 197.073 -5.6126 -2.44242 0
M  V30 2214 N 196.21 -6.04905 -3.56419 0
M  V30 2215 H 201.05 -2.96313 -0.316625 0
M  V30 2216 H 198.587 -1.46388 -0.144588 0
M  V30 2217 H 200.545 -3.09925 -2.79289 0
M  V30 2218 H 199.175 -1.98512 -2.54545 0
M  V30 2219 H 198.227 -3.70858 -0.846661 0
M  V30 2220 H 199.539 -4.80934 -1.32301 0
M  V30 2221 H 198.693 -4.82451 -3.67867 0
M  V30 2222 H 197.432 -3.63275 -3.25396 0
M  V30 2223 H 196.437 -5.25495 -1.61663 0
M  V30 2224 H 197.662 -6.46843 -2.0681 0
M  V30 2225 H 195.608 -5.24032 -3.94623 0
M  V30 2226 H 195.525 -6.82552 -3.25051 0
M  V30 2227 H 196.793 -6.44907 -4.37853 0
M  V30 2228 N 201.022 0.148545 -1.56898 0
M  V30 2229 C 201.985 1.16736 -1.97244 0
M  V30 2230 C 202.985 1.35947 -0.858777 0
M  V30 2231 O 204.175 1.32966 -1.12542 0
M  V30 2232 C 201.307 2.52798 -2.28705 0
M  V30 2233 H 202.5 0.821279 -2.88435 0
M  V30 2234 H 200.053 0.391831 -1.51309 0
M  V30 2235 H 200.788 2.92381 -1.403 0
M  V30 2236 H 200.573 2.40216 -3.09901 0
M  V30 2237 H 202.063 3.26179 -2.60762 0
M  V30 2238 N 202.5 1.5196 0.417844 0
M  V30 2239 C 203.747 1.65591 1.16559 0
M  V30 2240 C 204.075 0.381565 1.90721 0
M  V30 2241 O 203.33 -0.635156 1.85106 0
M  V30 2242 C 203.629 2.82269 2.19223 0
M  V30 2243 C 203.295 4.20819 1.61933 0
M  V30 2244 C 201.957 4.58506 1.46033 0
M  V30 2245 C 204.309 5.07196 1.20008 0
M  V30 2246 C 201.637 5.80257 0.867113 0
M  V30 2247 C 203.989 6.29544 0.621086 0
M  V30 2248 C 202.653 6.65987 0.449144 0
M  V30 2249 H 201.923 0.605939 0.42652 0
M  V30 2250 H 204.57 1.86041 0.45397 0
M  V30 2251 H 202.875 2.56118 2.96498 0
M  V30 2252 H 204.572 2.90012 2.76936 0
M  V30 2253 H 201.162 3.91116 1.7529 0
M  V30 2254 H 205.346 4.7867 1.31105 0
M  V30 2255 H 200.602 6.07124 0.721833 0
M  V30 2256 H 204.776 6.95805 0.287798 0
M  V30 2257 H 202.403 7.60199 -0.012632 0
M  V30 2258 N 203.978 -0.674533 1.42435 0
M  V30 2259 C 204.91 -1.80005 1.41883 0
M  V30 2260 C 205.923 -1.59667 0.31787 0
M  V30 2261 O 207.112 -1.68781 0.580973 0
M  V30 2262 C 204.212 -3.17114 1.19549 0
M  V30 2263 C 203.385 -3.64299 2.42084 0
M  V30 2264 C 202.444 -4.80142 2.15291 0
M  V30 2265 O 201.47 -4.90673 2.88493 0
M  V30 2266 N 202.672 -5.68869 1.1562 0
M  V30 2267 H 205.437 -1.80964 2.38898 0
M  V30 2268 H 202.998 -0.857633 1.37318 0
M  V30 2269 H 204.99 -3.92267 0.995417 0
M  V30 2270 H 203.56 -3.11053 0.310569 0
M  V30 2271 H 202.78 -2.79822 2.77657 0
M  V30 2272 H 204.068 -3.92567 3.23679 0
M  V30 2273 H 203.466 -5.63012 0.550765 0
M  V30 2274 H 202.023 -6.43833 1.016 0
M  V30 2275 N 205.456 -1.28612 -0.910864 0
M  V30 2276 C 206.702 -1.16106 -1.66274 0
M  V30 2277 C 207.035 0.289113 -1.92036 0
M  V30 2278 O 206.31 1.21 -1.52281 0
M  V30 2279 C 206.593 -1.96309 -3.01885 0
M  V30 2280 C 206.446 -3.49405 -2.8326 0
M  V30 2281 C 207.765 -1.78076 -4.02463 0
M  V30 2282 H 204.884 -0.423152 -0.603417 0
M  V30 2283 H 207.526 -1.57961 -1.05586 0
M  V30 2284 H 205.676 -1.60742 -3.53687 0
M  V30 2285 H 207.348 -3.94894 -2.38446 0
M  V30 2286 H 205.591 -3.74893 -2.18261 0
M  V30 2287 H 206.262 -4.00784 -3.79574 0
M  V30 2288 H 208.738 -2.0912 -3.59733 0
M  V30 2289 H 207.614 -2.36561 -4.95308 0
M  V30 2290 H 207.875 -0.733008 -4.35981 0
M  V30 2291 N 206.934 1.1197 -1.10907 0
M  V30 2292 C 208.18 1.84059 -0.865674 0
M  V30 2293 C 208.535 1.82731 0.602254 0
M  V30 2294 O 207.828 1.26543 1.43866 0
M  V30 2295 C 208.022 3.30749 -1.35425 0
M  V30 2296 C 207.851 3.46363 -2.86815 0
M  V30 2297 C 206.621 3.59712 -3.54874 0
M  V30 2298 C 208.819 3.41116 -3.84895 0
M  V30 2299 N 206.801 3.63741 -4.94536 0
M  V30 2300 C 208.172 3.51698 -5.10596 0
M  V30 2301 C 210.227 3.24612 -3.77533 0
M  V30 2302 C 208.93 3.4748 -6.29802 0
M  V30 2303 C 210.956 3.21708 -4.96244 0
M  V30 2304 C 210.318 3.32856 -6.20795 0
M  V30 2305 H 206.417 0.689015 -0.369841 0
M  V30 2306 H 209.001 1.34016 -1.41237 0
M  V30 2307 H 207.172 3.79322 -0.834814 0
M  V30 2308 H 208.904 3.90718 -1.05458 0
M  V30 2309 H 205.659 3.62038 -3.05329 0
M  V30 2310 H 206.083 3.69408 -5.67333 0
M  V30 2311 H 210.725 3.14883 -2.8215 0
M  V30 2312 H 208.443 3.55978 -7.25469 0
M  V30 2313 H 212.029 3.10113 -4.92261 0
M  V30 2314 H 210.909 3.3059 -7.11112 0
M  V30 2315 N 208.412 0.89855 1.29475 0
M  V30 2316 C 209.637 0.538561 2.00285 0
M  V30 2317 C 210.062 -0.869135 1.66816 0
M  V30 2318 O 209.42 -1.57831 0.892145 0
M  V30 2319 C 209.468 0.736475 3.52999 0
M  V30 2320 O 208.572 -0.211537 4.11857 0
M  V30 2321 H 207.913 0.210563 0.62973 0
M  V30 2322 H 210.443 1.20982 1.64998 0
M  V30 2323 H 210.453 0.640685 4.02938 0
M  V30 2324 H 209.128 1.76276 3.76696 0
M  V30 2325 H 207.705 -0.0682991 3.72837 0
M  V30 2326 N 209.89 -1.43072 0.660911 0
M  V30 2327 C 210.838 -2.32569 -0.0378199 0
M  V30 2328 C 211.832 -1.49046 -0.805092 0
M  V30 2329 O 213.038 -1.65206 -0.714624 0
M  V30 2330 H 209.413 -0.75136 -0.031019 0
M  V30 2331 H 211.384 -2.89216 0.734609 0
M  V30 2332 C 210.133 -3.33453 -0.985124 0
M  V30 2333 H 209.456 -3.97752 -0.404147 0
M  V30 2334 H 210.896 -3.98691 -1.44297 0
M  V30 2335 C 209.355 -2.64642 -2.08486 0
M  V30 2336 O 209.885 -2.46776 -3.16961 0
M  V30 2337 N 208.091 -2.23891 -1.8526 0
M  V30 2338 H 207.638 -2.38621 -0.970449 0
M  V30 2339 H 207.596 -1.78181 -2.59034 0
M  V30 2340 N 211.368 -0.403325 -1.52352 0
M  V30 2341 C 212.614 0.174605 -2.02047 0
M  V30 2342 C 212.947 1.45282 -1.28867 0
M  V30 2343 O 212.222 1.90483 -0.393257 0
M  V30 2344 C 212.505 0.428238 -3.57545 0
M  V30 2345 C 212.358 -0.866248 -4.4138 0
M  V30 2346 C 213.677 1.21287 -4.23057 0
M  V30 2347 H 210.796 0.0619851 -0.734389 0
M  V30 2348 H 213.438 -0.53565 -1.82293 0
M  V30 2349 H 211.588 1.03327 -3.74507 0
M  V30 2350 H 213.26 -1.50265 -4.3614 0
M  V30 2351 H 211.503 -1.47851 -4.07827 0
M  V30 2352 H 212.174 -0.643249 -5.48239 0
M  V30 2353 H 214.65 0.700703 -4.10158 0
M  V30 2354 H 213.526 1.35909 -5.31808 0
M  V30 2355 H 213.787 2.23193 -3.81625 0
M  V30 2356 N 212.846 1.57033 -0.133567 0
M  V30 2357 C 214.074 2.00044 0.528195 0
M  V30 2358 C 214.489 1.01349 1.59291 0
M  V30 2359 O 213.846 0.00848369 1.82498 0
M  V30 2360 C 213.897 3.43018 1.1411 0
M  V30 2361 O 213.618 4.37939 0.11892 0
M  V30 2362 C 215.119 4.01237 1.88477 0
M  V30 2363 H 212.339 0.656517 0.138661 0
M  V30 2364 H 214.883 2.03267 -0.224196 0
M  V30 2365 H 213.038 3.40688 1.84418 0
M  V30 2366 H 213.452 5.21436 0.56613 0
M  V30 2367 H 214.926 5.03314 2.26669 0
M  V30 2368 H 215.403 3.41193 2.76558 0
M  V30 2369 H 216.009 4.07156 1.22898 0
M  V30 2370 N 214.325 -0.140222 1.56975 0
M  V30 2371 C 215.736 -0.699596 1.73097 0
M  V30 2372 C 216.087 -1.8134 0.749022 0
M  V30 2373 O 215.212 -2.16241 -0.0828503 0
M  V30 2374 C 215.807 -1.27582 3.1386 0
M  V30 2375 C 214.366 -1.78169 3.31561 0
M  V30 2376 C 213.513 -0.672855 2.69013 0
M  V30 2377 H 216.464 0.0855115 1.58469 0
M  V30 2378 H 216.485 -2.14561 3.14235 0
M  V30 2379 H 215.997 -0.464955 3.85305 0
M  V30 2380 H 214.098 -2.61801 2.65124 0
M  V30 2381 H 214.211 -1.90574 4.39566 0
M  V30 2382 H 212.575 -1.10118 2.29665 0
M  V30 2383 H 213.358 0.126679 3.43066 0
M  V30 2384 N 215.803 -1.52179 -0.40978 0
M  V30 2385 C 216.733 -1.78435 -1.5061 0
M  V30 2386 C 217.714 -0.635295 -1.57791 0
M  V30 2387 O 218.899 -0.880823 -1.73076 0
M  V30 2388 C 216.029 -1.93444 -2.88439 0
M  V30 2389 C 214.983 -3.09038 -2.96108 0
M  V30 2390 C 214.309 -3.09268 -4.36185 0
M  V30 2391 C 215.609 -4.48508 -2.67652 0
M  V30 2392 H 217.303 -2.70237 -1.28889 0
M  V30 2393 H 214.849 -1.30036 -0.618605 0
M  V30 2394 H 216.802 -2.10394 -3.65119 0
M  V30 2395 H 215.526 -0.983129 -3.11452 0
M  V30 2396 H 214.185 -2.91837 -2.21872 0
M  V30 2397 H 213.833 -2.11861 -4.56206 0
M  V30 2398 H 213.533 -3.86907 -4.42241 0
M  V30 2399 H 215.057 -3.28348 -5.14801 0
M  V30 2400 H 216.471 -4.65918 -3.34056 0
M  V30 2401 H 214.868 -5.28059 -2.85085 0
M  V30 2402 H 215.938 -4.56649 -1.63095 0
M  V30 2403 N 217.281 0.66697 -1.42791 0
M  V30 2404 C 218.228 1.7803 -1.4688 0
M  V30 2405 C 219.198 1.6299 -0.319919 0
M  V30 2406 O 220.383 1.83432 -0.525118 0
M  V30 2407 C 217.523 3.1611 -1.38451 0
M  V30 2408 C 216.636 3.42381 -2.63437 0
M  V30 2409 C 215.771 4.70232 -2.47094 0
M  V30 2410 C 214.81 4.89564 -3.67415 0
M  V30 2411 N 213.947 6.08661 -3.49966 0
M  V30 2412 H 218.787 1.7387 -2.42019 0
M  V30 2413 H 216.324 0.84868 -1.20149 0
M  V30 2414 H 218.282 3.95914 -1.31561 0
M  V30 2415 H 216.912 3.19374 -0.469033 0
M  V30 2416 H 215.964 2.56774 -2.80662 0
M  V30 2417 H 217.276 3.52557 -3.52853 0
M  V30 2418 H 216.43 5.5814 -2.37834 0
M  V30 2419 H 215.169 4.62353 -1.5518 0
M  V30 2420 H 214.174 4.00096 -3.77099 0
M  V30 2421 H 215.399 4.99282 -4.6032 0
M  V30 2422 H 213.345 6.0194 -2.60776 0
M  V30 2423 H 213.262 6.19733 -4.32975 0
M  V30 2424 H 214.53 6.99226 -3.44532 0
M  V30 2425 N 218.759 1.29093 0.90403 0
M  V30 2426 C 220.006 1.16813 1.65411 0
M  V30 2427 C 220.334 -0.28128 1.92455 0
M  V30 2428 O 219.589 -1.22006 1.53013 0
M  V30 2429 C 219.888 1.92224 3.01305 0
M  V30 2430 C 219.554 3.41968 2.93885 0
M  V30 2431 C 218.216 3.82807 2.91569 0
M  V30 2432 C 220.568 4.37409 2.83413 0
M  V30 2433 C 217.896 5.1741 2.76594 0
M  V30 2434 C 220.248 5.72097 2.69977 0
M  V30 2435 C 218.912 6.12199 2.66024 0
M  V30 2436 H 218.182 0.42745 0.605283 0
M  V30 2437 H 220.829 1.59981 1.05254 0
M  V30 2438 H 219.134 1.41635 3.65304 0
M  V30 2439 H 220.831 1.80131 3.58265 0
M  V30 2440 H 217.421 3.09504 2.96488 0
M  V30 2441 H 221.605 4.06813 2.84283 0
M  V30 2442 H 216.861 5.47596 2.71935 0
M  V30 2443 H 221.035 6.45704 2.60844 0
M  V30 2444 H 218.662 7.16448 2.54178 0
M  V30 2445 N 220.237 -1.11381 1.11499 0
M  V30 2446 C 221.462 -1.87475 0.887019 0
M  V30 2447 C 221.887 -1.79639 -0.557796 0
M  V30 2448 O 221.245 -1.15924 -1.39396 0
M  V30 2449 C 221.293 -3.34213 1.35403 0
M  V30 2450 O 220.397 -4.0903 0.526146 0
M  V30 2451 H 219.738 -0.582099 0.319463 0
M  V30 2452 H 222.268 -1.40785 1.48461 0
M  V30 2453 H 222.278 -3.8506 1.34881 0
M  V30 2454 H 220.953 -3.39232 2.40612 0
M  V30 2455 H 219.53 -3.68082 0.597522 0
M  V30 2456 N 221.715 -0.905404 -1.28997 0
M  V30 2457 C 222.662 -0.385892 -2.27551 0
M  V30 2458 C 223.632 0.535113 -1.57244 0
M  V30 2459 O 224.817 0.459119 -1.85194 0
M  V30 2460 C 221.957 0.375461 -3.43051 0
M  V30 2461 C 221.07 -0.577092 -4.28128 0
M  V30 2462 C 220.205 0.201879 -5.30816 0
M  V30 2463 C 219.244 -0.744829 -6.07551 0
M  V30 2464 N 218.381 9.42587e-05 -7.021 0
M  V30 2465 H 223.221 -1.23139 -2.71368 0
M  V30 2466 H 220.758 -0.618542 -1.33463 0
M  V30 2467 H 222.716 0.832992 -4.088 0
M  V30 2468 H 221.346 1.18537 -3.00248 0
M  V30 2469 H 220.398 -1.15315 -3.62501 0
M  V30 2470 H 221.71 -1.30152 -4.8152 0
M  V30 2471 H 220.864 0.720351 -6.02408 0
M  V30 2472 H 219.603 0.959413 -4.7817 0
M  V30 2473 H 218.608 -1.27475 -5.34818 0
M  V30 2474 H 219.833 -1.50178 -6.62286 0
M  V30 2475 H 217.779 0.739791 -6.51815 0
M  V30 2476 H 217.696 -0.664321 -7.53076 0
M  V30 2477 H 218.964 0.498644 -7.77903 0
M  V30 2478 N 223.193 1.4272 -0.668489 0
M  V30 2479 C 224.442 2.00846 -0.185389 0
M  V30 2480 C 224.755 1.53442 1.21305 0
M  V30 2481 O 225.961 2.03944 1.79218 0
M  V30 2482 C 224.417 3.58805 -0.280591 0
M  V30 2483 C 224.025 4.15198 -1.68268 0
M  V30 2484 C 225.769 4.24255 0.14412 0
M  V30 2485 C 223.676 5.655 -1.73099 0
M  V30 2486 H 222.606 0.751145 -0.0655475 0
M  V30 2487 H 225.257 1.63516 -0.832752 0
M  V30 2488 H 223.639 3.93608 0.434553 0
M  V30 2489 H 224.813 3.91866 -2.42441 0
M  V30 2490 H 223.128 3.62176 -2.05469 0
M  V30 2491 H 225.725 5.34547 0.128086 0
M  V30 2492 H 226.068 3.99277 1.17827 0
M  V30 2493 H 226.601 3.94389 -0.519798 0
M  V30 2494 H 223.34 5.95268 -2.74475 0
M  V30 2495 H 222.86 5.90842 -1.03274 0
M  V30 2496 H 224.539 6.29808 -1.48158 0
M  V30 2497 N 224.671 0.411399 1.52136 0
M  V30 2498 C 225.619 -0.427633 2.28635 0
M  V30 2499 C 226.613 -1.04383 1.33419 0
M  V30 2500 O 227.819 -0.981772 1.50868 0
M  V30 2501 H 224.194 -0.156689 0.735495 0
M  V30 2502 H 226.165 0.238761 2.97443 0
M  V30 2503 C 224.914 -1.53082 3.12188 0
M  V30 2504 H 224.237 -1.06601 3.85326 0
M  V30 2505 H 225.677 -2.09167 3.68816 0
M  V30 2506 C 224.136 -2.49946 2.25895 0
M  V30 2507 O 224.666 -3.53884 1.90076 0
M  V30 2508 N 222.872 -2.2021 1.8962 0
M  V30 2509 H 222.419 -1.35719 2.18948 0
M  V30 2510 H 222.377 -2.85266 1.32176 0
M  V30 2511 N 226.149 -1.5696 0.141893 0
M  V30 2512 C 227.377 -2.00322 -0.517579 0
M  V30 2513 C 227.792 -1.02193 -1.58752 0
M  V30 2514 O 227.149 -0.0181619 -1.82491 0
M  V30 2515 C 227.2 -3.43618 -1.12289 0
M  V30 2516 O 226.921 -4.37995 -0.0956929 0
M  V30 2517 C 228.422 -4.02231 -1.86347 0
M  V30 2518 H 225.642 -0.657243 -0.135177 0
M  V30 2519 H 228.186 -2.03146 0.234973 0
M  V30 2520 H 226.341 -3.41662 -1.82609 0
M  V30 2521 H 226.755 -5.21729 -0.538469 0
M  V30 2522 H 228.229 -5.04509 -2.23997 0
M  V30 2523 H 228.706 -3.42655 -2.74744 0
M  V30 2524 H 229.312 -4.07802 -1.20737 0
M  V30 2525 N 227.627 0.131896 -1.57047 0
M  V30 2526 C 228.875 0.840269 -1.83804 0
M  V30 2527 C 229.196 1.81017 -0.72512 0
M  V30 2528 O 228.466 1.94272 0.251995 0
M  V30 2529 H 227.046 0.313294 -0.678127 0
M  V30 2530 H 229.708 0.122294 -1.94516 0
M  V30 2531 H 228.804 1.39335 -2.79271 0
M  V30 2532 N 229.106 1.52395 0.401703 0
M  V30 2533 C 230.039 1.70999 1.51111 0
M  V30 2534 C 231.017 0.55765 1.52738 0
M  V30 2535 O 232.201 0.785912 1.71335 0
M  V30 2536 C 229.328 1.75607 2.8962 0
M  V30 2537 C 228.374 2.97227 3.05873 0
M  V30 2538 S 229.207 4.57439 2.78405 0
M  V30 2539 C 230.363 4.64844 4.19131 0
M  V30 2540 H 230.596 2.6483 1.35102 0
M  V30 2541 H 228.129 1.42527 0.593762 0
M  V30 2542 H 230.087 1.78947 3.69443 0
M  V30 2543 H 228.748 0.828914 3.02965 0
M  V30 2544 H 227.941 2.96955 4.07227 0
M  V30 2545 H 227.543 2.91813 2.33925 0
M  V30 2546 H 229.835 4.42677 5.12877 0
M  V30 2547 H 230.778 5.66807 4.24424 0
M  V30 2548 H 231.186 3.93804 4.04448 0
M  V30 2549 N 230.584 -0.659388 1.43143 0
M  V30 2550 C 231.547 -1.75432 1.47501 0
M  V30 2551 C 232.547 -1.56707 0.360512 0
M  V30 2552 O 233.737 -1.62717 0.622002 0
M  V30 2553 C 230.869 -3.14239 1.32162 0
M  V30 2554 H 232.062 -1.7295 2.45006 0
M  V30 2555 H 229.615 -0.870469 1.29817 0
M  V30 2556 H 230.35 -3.22336 0.356401 0
M  V30 2557 H 230.135 -3.29235 2.12948 0
M  V30 2558 H 231.625 -3.94094 1.3813 0
M  V30 2559 N 232.062 -1.29571 -0.897171 0
M  V30 2560 C 233.339 -1.08365 -1.62839 0
M  V30 2561 C 233.719 0.371331 -2.07808 0
M  V30 2562 O 233.067 1.3606 -1.83576 0
M  V30 2563 C 233.277 -2.0735 -2.80726 0
M  V30 2564 C 234.625 -2.38406 -3.51351 0
M  V30 2565 O 235.649 -2.05564 -2.90898 0
M  V30 2566 O 234.508 -2.9453 -4.60341 0
M  V30 2567 H 231.602 -0.415345 -0.715134 0
M  V30 2568 H 234.148 -1.40952 -0.945018 0
M  V30 2569 H 232.92 -3.05339 -2.44711 0
M  V30 2570 H 232.543 -1.75507 -3.56767 0
M  V30 2571 N 233.54 1.10788 -1.12088 0
M  V30 2572 C 234.789 1.82036 -0.868659 0
M  V30 2573 C 235.102 1.85929 0.607426 0
M  V30 2574 O 236.308 2.53346 0.97613 0
M  V30 2575 C 234.764 3.26951 -1.50435 0
M  V30 2576 C 234.372 3.31367 -3.01496 0
M  V30 2577 C 236.116 4.03053 -1.33225 0
M  V30 2578 C 234.023 4.7072 -3.58017 0
M  V30 2579 H 232.953 0.682108 -0.321318 0
M  V30 2580 H 235.604 1.24618 -1.34694 0
M  V30 2581 H 233.986 3.84343 -0.953735 0
M  V30 2582 H 235.16 2.83819 -3.6302 0
M  V30 2583 H 233.475 2.6875 -3.18061 0
M  V30 2584 H 236.072 5.05981 -1.72878 0
M  V30 2585 H 236.415 4.15387 -0.275529 0
M  V30 2586 H 236.948 3.52066 -1.85188 0
M  V30 2587 H 233.687 4.63585 -4.63432 0
M  V30 2588 H 233.207 5.1865 -3.01268 0
M  V30 2589 H 234.886 5.39685 -3.56859 0
M  V30 2590 N 235.018 0.912232 1.28515 0
M  V30 2591 C 235.948 0.416403 2.29757 0
M  V30 2592 C 236.929 -0.515194 1.6211 0
M  V30 2593 O 238.114 -0.423253 1.89532 0
M  V30 2594 C 235.244 -0.34572 3.45575 0
M  V30 2595 C 234.198 0.496599 4.25109 0
M  V30 2596 C 233.524 -0.393771 5.33248 0
M  V30 2597 C 234.824 1.75307 4.92001 0
M  V30 2598 H 236.518 1.26249 2.7148 0
M  V30 2599 H 234.064 0.608515 1.30511 0
M  V30 2600 H 236.017 -0.703422 4.15488 0
M  V30 2601 H 234.741 -1.2257 3.02728 0
M  V30 2602 H 233.4 0.8368 3.56922 0
M  V30 2603 H 233.048 -1.27225 4.86644 0
M  V30 2604 H 232.748 0.166209 5.87365 0
M  V30 2605 H 234.272 -0.747389 6.06009 0
M  V30 2606 H 235.686 1.46437 5.54283 0
M  V30 2607 H 234.083 2.25534 5.56106 0
M  V30 2608 H 235.153 2.48176 4.16577 0
M  V30 2609 N 236.496 -1.42363 0.676048 0
M  V30 2610 C 237.742 -2.0182 0.199125 0
M  V30 2611 C 238.075 -1.53339 -1.19168 0
M  V30 2612 O 237.35 -0.736124 -1.80032 0
M  V30 2613 C 237.633 -3.59331 0.235144 0
M  V30 2614 C 237.486 -4.17989 1.66149 0
M  V30 2615 C 238.805 -4.3813 -0.41595 0
M  V30 2616 H 235.924 -0.733293 0.0738311 0
M  V30 2617 H 238.566 -1.69368 0.86107 0
M  V30 2618 H 236.716 -3.87109 -0.328487 0
M  V30 2619 H 238.388 -4.0116 2.27747 0
M  V30 2620 H 236.631 -3.7377 2.20178 0
M  V30 2621 H 237.302 -5.27126 1.63837 0
M  V30 2622 H 239.778 -4.16051 0.0638529 0
M  V30 2623 H 238.654 -5.47717 -0.360115 0
M  V30 2624 H 238.915 -4.16101 -1.49373 0
M  V30 2625 N 237.974 -0.419461 -1.51915 0
M  V30 2626 C 239.22 0.153166 -2.02221 0
M  V30 2627 C 239.553 1.43907 -1.30401 0
M  V30 2628 O 238.828 1.90055 -0.413438 0
M  V30 2629 C 239.111 0.390291 -3.57979 0
M  V30 2630 C 238.964 -0.913014 -4.40436 0
M  V30 2631 C 240.283 1.16794 -4.2432 0
M  V30 2632 H 237.402 0.0541924 -0.735005 0
M  V30 2633 H 240.044 -0.554955 -1.81715 0
M  V30 2634 H 238.194 0.993491 -3.75582 0
M  V30 2635 H 239.866 -1.54882 -4.34522 0
M  V30 2636 H 238.109 -1.52168 -4.06236 0
M  V30 2637 H 238.78 -0.701361 -5.47526 0
M  V30 2638 H 241.256 0.657161 -4.10878 0
M  V30 2639 H 240.132 1.3026 -5.3322 0
M  V30 2640 H 240.393 2.19132 -3.83971 0
M  V30 2641 N 239.452 1.56882 -0.150215 0
M  V30 2642 C 240.699 1.96228 0.500093 0
M  V30 2643 C 241.027 1.03522 1.64661 0
M  V30 2644 O 240.282 0.0650683 1.95592 0
M  V30 2645 C 240.581 3.41801 1.04437 0
M  V30 2646 C 240.247 4.50897 0.0159671 0
M  V30 2647 C 238.909 4.8046 -0.266731 0
M  V30 2648 C 241.261 5.16703 -0.683192 0
M  V30 2649 C 238.589 5.73135 -1.25434 0
M  V30 2650 C 240.941 6.10441 -1.65964 0
M  V30 2651 C 239.605 6.38382 -1.95 0
M  V30 2652 H 238.875 0.718048 0.182997 0
M  V30 2653 H 241.522 1.90019 -0.237724 0
M  V30 2654 H 239.827 3.44857 1.85959 0
M  V30 2655 H 241.524 3.69573 1.55618 0
M  V30 2656 H 238.114 4.27891 0.246485 0
M  V30 2657 H 242.298 4.93993 -0.477983 0
M  V30 2658 H 237.554 5.93074 -1.48571 0
M  V30 2659 H 241.728 6.60507 -2.20689 0
M  V30 2660 H 239.355 7.09996 -2.71679 0
M  V30 2661 N 240.93 -0.123565 1.57115 0
M  V30 2662 C 241.893 -1.13583 1.99076 0
M  V30 2663 C 242.893 -1.34564 0.880296 0
M  V30 2664 O 244.083 -1.31158 1.14644 0
M  V30 2665 C 241.215 -2.49128 2.32698 0
M  V30 2666 H 242.408 -0.775287 2.89706 0
M  V30 2667 H 239.961 -0.36771 1.51913 0
M  V30 2668 H 240.696 -2.90111 1.44934 0
M  V30 2669 H 240.481 -2.35255 3.13684 0
M  V30 2670 H 241.971 -3.2199 2.65918 0
M  V30 2671 N 242.408 -1.52605 -0.393616 0
M  V30 2672 C 243.824 -1.41753 -0.733357 0
M  V30 2673 C 244.024 -0.534293 -1.94287 0
M  V30 2674 O 243.08 -0.0059787 -2.52499 0
M  V30 2675 C 244.393 -2.84531 -0.972772 0
M  V30 2676 C 245.941 -2.93978 -1.07453 0
M  V30 2677 C 246.416 -4.37756 -1.3466 0
M  V30 2678 N 247.907 -4.4106 -1.41492 0
M  V30 2679 C 248.642 -5.49387 -1.642 0
M  V30 2680 N 248.138 -6.67806 -1.8441 0
M  V30 2681 N 249.931 -5.36923 -1.66342 0
M  V30 2682 H 242.082 -2.08555 0.402328 0
M  V30 2683 H 244.345 -0.940654 0.117789 0
M  V30 2684 H 244.051 -3.51353 -0.156204 0
M  V30 2685 H 243.925 -3.26508 -1.88871 0
M  V30 2686 H 246.312 -2.27326 -1.88167 0
M  V30 2687 H 246.393 -2.55435 -0.136605 0
M  V30 2688 H 246.037 -5.04972 -0.544581 0
M  V30 2689 H 245.967 -4.73848 -2.2973 0
M  V30 2690 H 248.458 -3.55705 -1.27601 0
M  V30 2691 H 248.771 -7.46141 -2.01231 0
M  V30 2692 H 247.116 -6.70843 -1.81644 0
M  V30 2693 H 250.307 -4.43381 -1.50102 0
M  V30 2694 H 250.48 -6.21416 -1.837 0
M  V30 2695 N 243.887 0.651787 -1.4349 0
M  V30 2696 C 245.135 1.40888 -1.44897 0
M  V30 2697 C 245.456 1.94856 -0.0749086 0
M  V30 2698 O 244.726 1.74518 0.889956 0
M  V30 2699 H 243.306 0.522887 -0.533478 0
M  V30 2700 H 245.968 0.768609 -1.79104 0
M  V30 2701 H 245.064 2.25052 -2.16236 0
M  V30 2702 N 245.365 1.30045 0.890287 0
M  V30 2703 C 246.328 1.15963 1.977 0
M  V30 2704 C 247.328 0.0923777 1.60534 0
M  V30 2705 O 248.518 0.340071 1.70848 0
M  V30 2706 C 245.65 0.775451 3.31963 0
M  V30 2707 H 246.843 2.12502 2.11619 0
M  V30 2708 H 244.396 1.13366 1.07601 0
M  V30 2709 H 245.131 -0.189671 3.23745 0
M  V30 2710 H 244.916 1.54668 3.60306 0
M  V30 2711 H 246.406 0.700251 4.11687 0
M  V30 2712 N 246.843 -1.10192 1.12674 0
M  V30 2713 C 247.793 -2.14754 0.765801 0
M  V30 2714 C 248.777 -1.59154 -0.236409 0
M  V30 2715 O 249.969 -1.76951 -0.0415261 0
M  V30 2716 C 247.098 -3.42563 0.224827 0
M  V30 2717 C 246.184 -4.05091 1.25548 0
M  V30 2718 N 246.575 -4.42287 2.4539 0
M  V30 2719 C 244.873 -4.32186 1.10142 0
M  V30 2720 C 245.574 -4.91441 3.11224 0
M  V30 2721 N 244.55 -4.88405 2.38666 0
M  V30 2722 H 248.352 -2.41309 1.67772 0
M  V30 2723 H 245.866 -1.27339 1.00789 0
M  V30 2724 H 247.863 -4.16868 -0.0519578 0
M  V30 2725 H 246.523 -3.17467 -0.681515 0
M  V30 2726 H 247.534 -4.33902 2.82754 0
M  V30 2727 H 244.211 -4.16735 0.252587 0
M  V30 2728 H 245.601 -5.29749 4.13298 0
M  V30 2729 N 248.321 -0.919034 -1.28029 0
M  V30 2730 C 249.569 -0.553838 -1.94363 0
M  V30 2731 C 249.89 0.906357 -1.72656 0
M  V30 2732 O 249.16 1.64143 -1.0693 0
M  V30 2733 H 247.74 -0.201834 -0.719216 0
M  V30 2734 H 250.402 -1.16954 -1.55909 0
M  V30 2735 H 249.498 -0.752758 -3.02886 0
M  V30 2736 N 249.799 1.42003 -0.683588 0
M  V30 2737 C 251.076 1.95112 -0.138075 0
M  V30 2738 C 251.456 1.62359 1.34918 0
M  V30 2739 O 250.804 0.924311 2.08971 0
M  V30 2740 C 251.014 3.46505 -0.416581 0
M  V30 2741 C 252.362 4.23254 -0.337834 0
M  V30 2742 O 253.386 3.54468 -0.35082 0
M  V30 2743 O 252.245 5.45743 -0.287596 0
M  V30 2744 H 249.339 0.826961 -0.00797996 0
M  V30 2745 H 251.885 1.51784 -0.758924 0
M  V30 2746 H 250.657 3.63582 -1.4465 0
M  V30 2747 H 250.28 3.969 0.235839 0
M  V30 2748 N 251.277 0.427512 1.51691 0
M  V30 2749 C 252.524 -0.142229 2.02 0
M  V30 2750 C 252.852 -1.43566 1.31221 0
M  V30 2751 O 252.107 -1.91298 0.412744 0
M  V30 2752 C 252.406 -0.418249 3.54944 0
M  V30 2753 C 252.072 0.788187 4.43958 0
M  V30 2754 C 250.734 1.11906 4.68007 0
M  V30 2755 C 253.086 1.59347 4.96244 0
M  V30 2756 C 250.414 2.25608 5.41588 0
M  V30 2757 C 252.766 2.7214 5.71072 0
M  V30 2758 C 251.43 3.05692 5.93387 0
M  V30 2759 H 250.7 -0.0520451 0.73917 0
M  V30 2760 H 253.347 0.572697 1.82736 0
M  V30 2761 H 251.652 -1.21496 3.72486 0
M  V30 2762 H 253.349 -0.872339 3.91397 0
M  V30 2763 H 249.939 0.520344 4.2543 0
M  V30 2764 H 254.123 1.35106 4.77556 0
M  V30 2765 H 249.379 2.51929 5.57083 0
M  V30 2766 H 253.553 3.34914 6.10578 0
M  V30 2767 H 251.18 3.9391 6.50184 0
M  V30 2768 N 252.755 -1.56801 0.158532 0
M  V30 2769 C 253.705 -2.13923 -0.788738 0
M  V30 2770 C 254.689 -1.07006 -1.2016 0
M  V30 2771 O 255.881 -1.33159 -1.1661 0
M  V30 2772 C 253.01 -2.77348 -2.02319 0
M  V30 2773 C 252.096 -3.91404 -1.6329 0
M  V30 2774 N 252.487 -4.9677 -0.951463 0
M  V30 2775 C 250.785 -4.02326 -1.92482 0
M  V30 2776 C 251.486 -5.76698 -0.761221 0
M  V30 2777 N 250.462 -5.27859 -1.29869 0
M  V30 2778 H 254.264 -2.92757 -0.258995 0
M  V30 2779 H 251.778 -1.62344 -0.0426055 0
M  V30 2780 H 253.775 -3.16639 -2.71192 0
M  V30 2781 H 252.435 -1.99991 -2.558 0
M  V30 2782 H 253.446 -5.14284 -0.610928 0
M  V30 2783 H 250.123 -3.36059 -2.47732 0
M  V30 2784 H 251.513 -6.71529 -0.223284 0
M  V30 2785 N 254.233 0.115231 -1.57178 0
M  V30 2786 C 255.196 1.12526 -1.99676 0
M  V30 2787 C 256.196 1.34095 -0.88742 0
M  V30 2788 O 257.386 1.30548 -1.15337 0
M  V30 2789 C 254.518 2.4789 -2.34015 0
M  V30 2790 H 255.711 0.759912 -2.90113 0
M  V30 2791 H 253.264 0.359648 -1.52106 0
M  V30 2792 H 253.999 2.89339 -1.4647 0
M  V30 2793 H 253.784 2.33588 -3.14927 0
M  V30 2794 H 255.274 3.20575 -2.67622 0
M  V30 2795 N 255.711 1.52812 0.385517 0
M  V30 2796 C 256.958 1.68026 1.1302 0
M  V30 2797 C 257.286 0.421934 1.89868 0
M  V30 2798 O 256.541 -0.595749 1.86412 0
M  V30 2799 C 256.84 2.86856 2.13187 0
M  V30 2800 C 256.506 4.24159 1.5297 0
M  V30 2801 C 255.168 4.61501 1.36274 0
M  V30 2802 C 257.52 5.09627 1.09223 0
M  V30 2803 C 254.848 5.81966 0.743837 0
M  V30 2804 C 257.2 6.30719 0.487411 0
M  V30 2805 C 255.864 6.6679 0.307777 0
M  V30 2806 H 255.134 0.614849 0.413571 0
M  V30 2807 H 257.781 1.86962 0.414405 0
M  V30 2808 H 256.086 2.6235 2.90998 0
M  V30 2809 H 257.783 2.95821 2.70722 0
M  V30 2810 H 254.373 3.94746 1.66954 0
M  V30 2811 H 258.557 4.81343 1.20922 0
M  V30 2812 H 253.813 6.08519 0.592891 0
M  V30 2813 H 257.987 6.96259 0.140143 0
M  V30 2814 H 255.614 7.60001 -0.173879 0
M  V30 2815 N 257.189 -0.644168 1.43834 0
M  V30 2816 C 258.466 -1.40188 1.36406 0
M  V30 2817 C 258.846 -2.11094 0.0163124 0
M  V30 2818 O 258.194 -2.05426 -1.00062 0
M  V30 2819 C 258.404 -2.3791 2.55343 0
M  V30 2820 C 259.752 -3.01637 2.98832 0
M  V30 2821 O 260.776 -2.48237 2.55455 0
M  V30 2822 O 259.635 -3.98477 3.74003 0
M  V30 2823 H 256.729 -0.626773 0.539523 0
M  V30 2824 H 259.275 -0.670317 1.559 0
M  V30 2825 H 258.047 -1.84525 3.4506 0
M  V30 2826 H 257.67 -3.18503 2.37995 0
M  V30 2827 N 258.668 -1.30515 -0.883378 0
M  V30 2828 C 259.916 -1.19194 -1.63209 0
M  V30 2829 C 260.237 0.253205 -1.93349 0
M  V30 2830 O 259.507 1.17025 -1.57105 0
M  V30 2831 H 258.087 -0.438148 -0.605009 0
M  V30 2832 H 260.749 -1.63663 -1.05832 0
M  V30 2833 H 259.845 -1.75396 -2.58153 0
M  V30 2834 N 260.146 1.09593 -1.13257 0
M  V30 2835 C 261.093 2.1618 -0.808381 0
M  V30 2836 C 262.063 1.64517 0.228754 0
M  V30 2837 O 263.248 1.9053 0.101381 0
M  V30 2838 C 260.388 3.43973 -0.278675 0
M  V30 2839 C 259.501 4.09545 -1.37466 0
M  V30 2840 C 258.636 5.25088 -0.803479 0
M  V30 2841 C 257.675 5.82579 -1.87799 0
M  V30 2842 N 256.812 6.89486 -1.32488 0
M  V30 2843 H 261.652 2.43254 -1.72138 0
M  V30 2844 H 259.189 1.19392 -0.859294 0
M  V30 2845 H 261.147 4.17174 0.0465583 0
M  V30 2846 H 259.777 3.17223 0.597459 0
M  V30 2847 H 258.829 3.34226 -1.81652 0
M  V30 2848 H 260.141 4.48307 -2.18684 0
M  V30 2849 H 259.295 6.05178 -0.429427 0
M  V30 2850 H 258.034 4.87684 0.0397956 0
M  V30 2851 H 257.039 5.01152 -2.26113 0
M  V30 2852 H 258.264 6.22045 -2.72463 0
M  V30 2853 H 256.21 6.54064 -0.503575 0
M  V30 2854 H 256.127 7.27007 -2.07355 0
M  V30 2855 H 257.395 7.73336 -0.978336 0
M  V30 2856 N 261.624 0.925811 1.2754 0
M  V30 2857 C 262.872 0.564138 1.94067 0
M  V30 2858 C 263.193 -0.897188 1.73134 0
M  V30 2859 O 262.463 -1.63573 1.07799 0
M  V30 2860 H 261.043 0.205645 0.718136 0
M  V30 2861 H 263.705 1.1778 1.55287 0
M  V30 2862 H 262.801 0.76881 3.02483 0
M  V30 2863 N 263.102 -1.41638 0.69111 0
M  V30 2864 C 264.35 -2.00902 0.219758 0
M  V30 2865 C 264.671 -1.54994 -1.18329 0
M  V30 2866 O 263.941 -0.778628 -1.79762 0
M  V30 2867 H 262.521 -0.74289 0.0782558 0
M  V30 2868 H 265.183 -1.73327 0.891271 0
M  V30 2869 H 264.279 -3.11224 0.233708 0
M  V30 2870 N 264.58 -0.43555 -1.51462 0
M  V30 2871 C 265.829 0.133007 -2.01261 0
M  V30 2872 C 266.142 1.43942 -1.32439 0
M  V30 2873 O 267.348 2.09081 -1.73198 0
M  V30 2874 C 265.804 0.287581 -3.58749 0
M  V30 2875 C 265.412 -1.00829 -4.36506 0
M  V30 2876 C 267.156 0.810004 -4.167 0
M  V30 2877 C 265.063 -0.819454 -5.85695 0
M  V30 2878 H 263.993 0.0534822 -0.752101 0
M  V30 2879 H 266.644 -0.565038 -1.74584 0
M  V30 2880 H 265.026 1.04859 -3.81865 0
M  V30 2881 H 266.2 -1.77749 -4.25138 0
M  V30 2882 H 264.515 -1.45911 -3.89999 0
M  V30 2883 H 267.112 0.967743 -5.2587 0
M  V30 2884 H 267.455 1.79196 -3.75758 0
M  V30 2885 H 267.988 0.107357 -3.97655 0
M  V30 2886 H 264.727 -1.77374 -6.31046 0
M  V30 2887 H 264.247 -0.0900208 -5.99732 0
M  V30 2888 H 265.926 -0.471949 -6.45276 0
M  V30 2889 N 266.058 1.56714 -0.166846 0
M  V30 2890 C 266.988 2.20754 0.760913 0
M  V30 2891 C 267.969 1.16178 1.24244 0
M  V30 2892 O 269.154 1.44592 1.29641 0
M  V30 2893 C 266.284 2.84478 1.99223 0
M  V30 2894 C 265.238 3.95053 1.64672 0
M  V30 2895 C 264.564 4.45805 2.95232 0
M  V30 2896 C 265.864 5.14865 0.878155 0
M  V30 2897 H 267.558 2.98537 0.22713 0
M  V30 2898 H 265.104 1.43596 0.107805 0
M  V30 2899 H 267.057 3.27951 2.64624 0
M  V30 2900 H 265.781 2.04056 2.55007 0
M  V30 2901 H 264.44 3.52228 1.01641 0
M  V30 2902 H 264.088 3.62181 3.49047 0
M  V30 2903 H 263.788 5.204 2.7287 0
M  V30 2904 H 265.312 4.91962 3.6167 0
M  V30 2905 H 266.726 5.55059 1.43466 0
M  V30 2906 H 265.123 5.95348 0.753738 0
M  V30 2907 H 266.193 4.84735 -0.126377 0
M  V30 2908 N 267.536 -0.106894 1.57237 0
M  V30 2909 C 268.499 -1.11466 2.0027 0
M  V30 2910 C 269.499 -1.33623 0.894519 0
M  V30 2911 O 270.689 -1.29935 1.16028 0
M  V30 2912 C 267.821 -2.46646 2.35327 0
M  V30 2913 H 269.014 -0.744516 2.90512 0
M  V30 2914 H 266.567 -0.351576 1.52295 0
M  V30 2915 H 267.302 -2.88558 1.48003 0
M  V30 2916 H 267.087 -2.31915 3.16161 0
M  V30 2917 H 268.577 -3.19151 2.69318 0
M  V30 2918 N 269.014 -1.53014 -0.377408 0
M  V30 2919 C 269.964 -1.74996 -1.46152 0
M  V30 2920 C 270.948 -0.604236 -1.49123 0
M  V30 2921 O 272.14 -0.862489 -1.54564 0
M  V30 2922 C 269.269 -1.93267 -2.8373 0
M  V30 2923 C 268.355 -3.13807 -2.85283 0
M  V30 2924 N 268.746 -4.35941 -2.56493 0
M  V30 2925 C 267.044 -3.14288 -3.16448 0
M  V30 2926 C 267.745 -5.17615 -2.65424 0
M  V30 2927 N 266.721 -4.53559 -2.99641 0
M  V30 2928 H 270.523 -2.67044 -1.22738 0
M  V30 2929 H 268.037 -1.51479 -0.585479 0
M  V30 2930 H 270.034 -2.0714 -3.61799 0
M  V30 2931 H 268.694 -1.0244 -3.08117 0
M  V30 2932 H 269.705 -4.63876 -2.30302 0
M  V30 2933 H 266.382 -2.33312 -3.46225 0
M  V30 2934 H 267.772 -6.25006 -2.46612 0
M  V30 2935 N 270.492 0.636531 -1.44174 0
M  V30 2936 C 271.455 1.73063 -1.50273 0
M  V30 2937 C 272.455 1.56113 -0.385397 0
M  V30 2938 O 273.645 1.61707 -0.64781 0
M  V30 2939 C 270.777 3.12096 -1.37145 0
M  V30 2940 H 271.97 1.69031 -2.47727 0
M  V30 2941 H 269.523 0.849706 -1.31186 0
M  V30 2942 H 270.258 3.21728 -0.407636 0
M  V30 2943 H 270.043 3.25805 -2.18159 0
M  V30 2944 H 271.533 3.91846 -1.44382 0
M  V30 2945 N 271.97 1.30982 0.876444 0
M  V30 2946 C 273.217 1.20296 1.62896 0
M  V30 2947 C 273.545 -0.240395 1.93009 0
M  V30 2948 O 272.8 -1.18733 1.55567 0
M  V30 2949 C 273.099 1.98572 2.9716 0
M  V30 2950 C 272.765 3.48125 2.86566 0
M  V30 2951 C 271.427 3.88905 2.83383 0
M  V30 2952 C 273.779 4.43322 2.74071 0
M  V30 2953 C 271.107 5.2316 2.65556 0
M  V30 2954 C 273.459 5.77695 2.57781 0
M  V30 2955 C 272.123 6.17704 2.52979 0
M  V30 2956 H 271.393 0.440193 0.59608 0
M  V30 2957 H 274.04 1.62177 1.01837 0
M  V30 2958 H 272.345 1.49352 3.62217 0
M  V30 2959 H 274.042 1.8769 3.54364 0
M  V30 2960 H 270.632 3.15723 2.89856 0
M  V30 2961 H 274.816 4.12752 2.75589 0
M  V30 2962 H 270.072 5.53241 2.60259 0
M  V30 2963 H 274.246 6.51091 2.47089 0
M  V30 2964 H 271.873 7.21678 2.38924 0
M  V30 2965 N 273.449 -1.08991 1.13837 0
M  V30 2966 C 274.697 -1.80899 0.901098 0
M  V30 2967 C 275.018 -1.86356 -0.574134 0
M  V30 2968 O 274.288 -1.35235 -1.41733 0
M  V30 2969 H 272.868 -0.669966 0.330386 0
M  V30 2970 H 275.53 -1.318 1.43578 0
M  V30 2971 H 274.626 -2.83929 1.29578 0
M  V30 2972 N 274.927 -0.932562 -1.27047 0
M  V30 2973 C 276.338 -0.619451 -1.76124 0
M  V30 2974 C 276.689 0.865397 -1.76083 0
M  V30 2975 O 275.814 1.67722 -1.36742 0
M  V30 2976 C 276.409 -1.11771 -3.19832 0
M  V30 2977 C 274.968 -0.855174 -3.66557 0
M  V30 2978 C 274.115 -1.27362 -2.46321 0
M  V30 2979 H 277.066 -1.11181 -1.13245 0
M  V30 2980 H 277.087 -0.46759 -3.77616 0
M  V30 2981 H 276.599 -2.19842 -3.1983 0
M  V30 2982 H 274.7 0.211524 -3.71999 0
M  V30 2983 H 274.813 -1.47613 -4.55793 0
M  V30 2984 H 273.177 -0.692119 -2.45116 0
M  V30 2985 H 273.96 -2.36307 -2.49025 0
M  V30 2986 N 276.405 1.4127 -0.698611 0
M  V30 2987 C 277.653 2.00782 -0.230409 0
M  V30 2988 C 277.974 1.5562 1.17505 0
M  V30 2989 O 277.244 0.78815 1.79346 0
M  V30 2990 H 275.824 0.742464 -0.0821944 0
M  V30 2991 H 278.486 1.72852 -0.90045 0
M  V30 2992 H 277.582 3.11095 -0.25021 0
M  V30 2993 N 277.883 0.443576 1.51229 0
M  V30 2994 C 279.108 -0.121648 2.07043 0
M  V30 2995 C 279.533 -1.35156 1.30823 0
M  V30 2996 O 278.891 -1.7793 0.347934 0
M  V30 2997 C 278.939 -0.41624 3.5819 0
M  V30 2998 O 278.043 -1.50163 3.8409 0
M  V30 2999 H 277.384 0.000871367 0.663999 0
M  V30 3000 H 279.914 0.626706 1.94765 0
M  V30 3001 H 279.924 -0.664867 4.02546 0
M  V30 3002 H 278.599 0.482653 4.1309 0
M  V30 3003 H 277.176 -1.24248 3.51592 0
M  V30 3004 N 279.361 -1.56624 0.175154 0
M  V30 3005 C 280.609 -1.96609 -0.467885 0
M  V30 3006 C 280.93 -1.06238 -1.63519 0
M  V30 3007 O 280.2 -0.129523 -1.95471 0
M  V30 3008 H 278.78 -0.726008 -0.175845 0
M  V30 3009 H 281.442 -1.93195 0.257234 0
M  V30 3010 H 280.538 -3.00989 -0.825342 0
M  V30 3011 N 280.839 0.0985539 -1.57292 0
M  V30 3012 C 282.088 0.801358 -1.85098 0
M  V30 3013 C 282.401 1.80066 -0.763902 0
M  V30 3014 O 283.607 2.55112 -0.928981 0
M  V30 3015 C 282.063 1.47599 -3.28242 0
M  V30 3016 C 281.671 0.516624 -4.45011 0
M  V30 3017 C 283.415 2.16272 -3.65276 0
M  V30 3018 C 281.322 1.19564 -5.79188 0
M  V30 3019 H 280.252 0.303022 -0.69043 0
M  V30 3020 H 282.903 0.0542623 -1.8342 0
M  V30 3021 H 281.285 2.27042 -3.2445 0
M  V30 3022 H 282.459 -0.246065 -4.60143 0
M  V30 3023 H 280.774 -0.064227 -4.1635 0
M  V30 3024 H 283.371 2.67802 -4.62803 0
M  V30 3025 H 283.714 2.95009 -2.93727 0
M  V30 3026 H 284.247 1.43693 -3.70941 0
M  V30 3027 H 280.986 0.449157 -6.53959 0
M  V30 3028 H 280.506 1.92984 -5.67906 0
M  V30 3029 H 282.185 1.7231 -6.23633 0
M  V30 3030 N 282.317 1.53212 0.369288 0
M  V30 3031 C 283.565 1.68881 1.11012 0
M  V30 3032 C 283.886 0.441285 1.89941 0
M  V30 3033 O 283.156 -0.544623 1.88177 0
M  V30 3034 H 281.736 0.622569 0.412816 0
M  V30 3035 H 284.398 1.90391 0.416802 0
M  V30 3036 H 283.494 2.54822 1.80201 0
M  V30 3037 N 283.795 -0.628877 1.44509 0
M  V30 3038 C 285.043 -1.38565 1.4712 0
M  V30 3039 C 285.364 -1.94712 0.105899 0
M  V30 3040 O 284.634 -1.75912 -0.862079 0
M  V30 3041 H 283.214 -0.514333 0.541729 0
M  V30 3042 H 285.876 -0.740018 1.80305 0
M  V30 3043 H 284.972 -2.21583 2.19789 0
M  V30 3044 N 285.273 -1.31445 -0.869486 0
M  V30 3045 C 286.55 -1.11795 -1.60503 0
M  V30 3046 C 286.93 0.327168 -2.08549 0
M  V30 3047 O 286.278 1.32135 -1.8642 0
M  V30 3048 C 286.488 -2.13258 -2.76265 0
M  V30 3049 C 287.836 -2.45805 -3.46215 0
M  V30 3050 O 288.86 -2.11688 -2.86473 0
M  V30 3051 O 287.719 -3.04228 -4.5399 0
M  V30 3052 H 284.813 -0.430421 -0.706163 0
M  V30 3053 H 287.359 -1.42925 -0.914907 0
M  V30 3054 H 286.131 -3.10461 -2.3818 0
M  V30 3055 H 285.754 -1.83035 -3.52964 0
M  V30 3056 N 286.751 1.08385 -1.14413 0
M  V30 3057 C 287.714 2.13486 -0.834048 0
M  V30 3058 C 288.714 1.59988 0.161418 0
M  V30 3059 O 289.904 1.74071 -0.0669575 0
M  V30 3060 C 287.036 3.4003 -0.243354 0
M  V30 3061 H 288.229 2.42425 -1.7655 0
M  V30 3062 H 285.782 1.24101 -0.950189 0
M  V30 3063 H 286.517 3.16726 0.696807 0
M  V30 3064 H 286.302 3.80157 -0.960367 0
M  V30 3065 H 287.792 4.17577 -0.0436242 0
M  V30 3066 N 288.23 0.939286 1.26551 0
M  V30 3067 C 289.18 0.418284 2.2413 0
M  V30 3068 C 290.164 -0.483935 1.5345 0
M  V30 3069 O 291.356 -0.319489 1.74093 0
M  V30 3070 C 288.485 -0.31709 3.41832 0
M  V30 3071 C 287.571 0.602311 4.19801 0
M  V30 3072 N 287.962 1.72726 4.75394 0
M  V30 3073 C 286.26 0.407534 4.44134 0
M  V30 3074 C 286.961 2.30004 5.34297 0
M  V30 3075 N 285.937 1.58828 5.1988 0
M  V30 3076 H 289.739 1.27705 2.64705 0
M  V30 3077 H 287.253 0.794929 1.41614 0
M  V30 3078 H 289.25 -0.707364 4.10855 0
M  V30 3079 H 287.91 -1.17264 3.02786 0
M  V30 3080 H 288.921 2.10944 4.72994 0
M  V30 3081 H 285.598 -0.406406 4.15517 0
M  V30 3082 H 286.988 3.24778 5.88191 0
M  V30 3083 N 289.708 -1.40897 0.706093 0
M  V30 3084 C 290.955 -2.01054 0.241531 0
M  V30 3085 C 291.283 -1.55956 -1.16223 0
M  V30 3086 O 290.538 -0.766336 -1.80072 0
M  V30 3087 C 290.837 -3.5646 0.259099 0
M  V30 3088 C 290.503 -4.21106 1.61184 0
M  V30 3089 C 289.165 -4.38479 1.98216 0
M  V30 3090 C 291.517 -4.57256 2.50132 0
M  V30 3091 C 288.845 -4.89282 3.2376 0
M  V30 3092 C 291.197 -5.09454 3.7502 0
M  V30 3093 C 289.861 -5.25037 4.12181 0
M  V30 3094 H 289.131 -0.73571 0.0883825 0
M  V30 3095 H 291.778 -1.68645 0.907257 0
M  V30 3096 H 290.083 -3.88721 -0.490189 0
M  V30 3097 H 291.78 -4.00826 -0.11804 0
M  V30 3098 H 288.37 -4.07966 1.31384 0
M  V30 3099 H 292.554 -4.43479 2.228 0
M  V30 3100 H 287.81 -4.99531 3.52532 0
M  V30 3101 H 291.984 -5.36404 4.44121 0
M  V30 3102 H 289.611 -5.64164 5.09532 0
M  V30 3103 N 291.186 -0.45159 -1.50991 0
M  V30 3104 C 292.463 0.170707 -1.94854 0
M  V30 3105 C 292.843 1.58788 -1.39103 0
M  V30 3106 O 292.191 2.20913 -0.583921 0
M  V30 3107 C 292.401 0.133929 -3.48743 0
M  V30 3108 C 293.749 0.33248 -4.23296 0
M  V30 3109 O 294.773 0.211403 -3.55572 0
M  V30 3110 O 293.632 0.57486 -5.43468 0
M  V30 3111 H 290.726 0.122264 -0.817912 0
M  V30 3112 H 293.272 -0.510594 -1.61836 0
M  V30 3113 H 292.044 -0.856283 -3.81816 0
M  V30 3114 H 291.667 0.857529 -3.88242 0
M  V30 3115 N 292.664 1.56529 -0.183458 0
M  V30 3116 C 293.574 2.22144 0.754272 0
M  V30 3117 C 294.59 1.21684 1.24374 0
M  V30 3118 O 295.766 1.54385 1.29333 0
M  V30 3119 C 292.831 2.85884 1.96141 0
M  V30 3120 C 291.892 4.01579 1.51765 0
M  V30 3121 C 291.125 4.6227 2.66725 0
M  V30 3122 O 291.348 4.21865 3.83909 0
M  V30 3123 O 290.282 5.51936 2.40104 0
M  V30 3124 H 294.108 3.02861 0.225527 0
M  V30 3125 H 291.693 1.49331 0.0453032 0
M  V30 3126 H 293.575 3.26253 2.66715 0
M  V30 3127 H 292.25 2.08154 2.47899 0
M  V30 3128 H 291.157 3.65856 0.781049 0
M  V30 3129 H 292.49 4.80938 1.04686 0
M  V30 3130 N 294.142 -0.090211 1.57342 0
M  V30 3131 C 295.419 -0.824761 1.77361 0
M  V30 3132 C 295.799 -1.96698 0.76637 0
M  V30 3133 O 295.147 -2.27586 -0.204179 0
M  V30 3134 C 295.357 -1.31481 3.23286 0
M  V30 3135 C 296.705 -1.75563 3.86604 0
M  V30 3136 O 297.729 -1.41093 3.27065 0
M  V30 3137 O 296.588 -2.39317 4.91314 0
M  V30 3138 H 293.682 -0.393776 0.727234 0
M  V30 3139 H 296.228 -0.0717138 1.69548 0
M  V30 3140 H 295 -0.496671 3.88135 0
M  V30 3141 H 294.623 -2.12973 3.35751 0
M  V30 3142 N 295.62 -1.53406 -0.361157 0
M  V30 3143 C 296.53 -1.83122 -1.4664 0
M  V30 3144 C 297.546 -0.719943 -1.58407 0
M  V30 3145 O 298.722 -1.01046 -1.74218 0
M  V30 3146 C 295.787 -2.01891 -2.81853 0
M  V30 3147 C 294.848 -3.25784 -2.79577 0
M  V30 3148 C 294.081 -3.43648 -4.0834 0
M  V30 3149 O 294.304 -2.65714 -5.0473 0
M  V30 3150 O 293.238 -4.37018 -4.13883 0
M  V30 3151 H 297.064 -2.7703 -1.24451 0
M  V30 3152 H 294.649 -1.38841 -0.551678 0
M  V30 3153 H 296.531 -2.15782 -3.61962 0
M  V30 3154 H 295.206 -1.11173 -3.0401 0
M  V30 3155 H 294.113 -3.17312 -1.98151 0
M  V30 3156 H 295.446 -4.16439 -2.62373 0
M  V30 3157 N 297.098 0.621204 -1.44841 0
M  V30 3158 C 298.345 1.38055 -1.48145 0
M  V30 3159 C 298.673 1.94143 -0.117867 0
M  V30 3160 O 297.928 1.74713 0.881694 0
M  V30 3161 C 298.227 2.55675 -2.4973 0
M  V30 3162 C 297.893 2.17817 -3.94799 0
M  V30 3163 C 296.555 2.07205 -4.34303 0
M  V30 3164 C 298.907 1.88065 -4.86087 0
M  V30 3165 C 296.235 1.65045 -5.63007 0
M  V30 3166 C 298.587 1.47394 -6.15189 0
M  V30 3167 C 297.251 1.35331 -6.53637 0
M  V30 3168 H 296.521 0.505181 -0.542101 0
M  V30 3169 H 299.168 0.703477 -1.78111 0
M  V30 3170 H 297.473 3.2866 -2.13284 0
M  V30 3171 H 299.17 3.13904 -2.4953 0
M  V30 3172 H 295.76 2.26998 -3.63552 0
M  V30 3173 H 299.944 1.95168 -4.56315 0
M  V30 3174 H 295.2 1.54317 -5.91605 0
M  V30 3175 H 299.374 1.23415 -6.85377 0
M  V30 3176 H 297.001 1.02435 -7.53267 0
M  V30 3177 N 298.576 1.31904 0.862503 0
M  V30 3178 C 299.822 1.23207 1.61838 0
M  V30 3179 C 300.177 -0.206062 1.91293 0
M  V30 3180 O 299.47 -1.14162 1.53875 0
M  V30 3181 C 299.664 2.01713 2.95037 0
M  V30 3182 C 299.493 3.53014 2.78588 0
M  V30 3183 C 298.263 4.22359 2.77382 0
M  V30 3184 C 300.461 4.47819 2.52909 0
M  V30 3185 N 298.443 5.59766 2.52062 0
M  V30 3186 C 299.814 5.72947 2.36922 0
M  V30 3187 C 301.869 4.37162 2.38314 0
M  V30 3188 C 300.572 6.88623 2.07823 0
M  V30 3189 C 302.598 5.5263 2.10604 0
M  V30 3190 C 301.96 6.76752 1.95411 0
M  V30 3191 H 298.059 0.505984 0.596242 0
M  V30 3192 H 300.643 1.66179 1.01452 0
M  V30 3193 H 298.814 1.61098 3.53415 0
M  V30 3194 H 300.546 1.84975 3.59953 0
M  V30 3195 H 297.301 3.74401 2.90036 0
M  V30 3196 H 297.725 6.32135 2.42352 0
M  V30 3197 H 302.367 3.41857 2.48784 0
M  V30 3198 H 300.085 7.83948 1.9609 0
M  V30 3199 H 303.671 5.46307 2.00101 0
M  V30 3200 H 302.551 7.6459 1.74274 0
M  V30 3201 N 300.054 -1.07777 1.14986 0
M  V30 3202 C 301.282 -1.84018 0.945773 0
M  V30 3203 C 301.697 -1.81897 -0.505863 0
M  V30 3204 O 301.054 -1.22726 -1.35072 0
M  V30 3205 C 301.105 -3.31287 1.44677 0
M  V30 3206 O 300.826 -3.33449 2.84154 0
M  V30 3207 C 302.327 -4.24311 1.28355 0
M  V30 3208 H 299.547 -0.580716 0.336169 0
M  V30 3209 H 302.091 -1.36077 1.52654 0
M  V30 3210 H 300.246 -3.76594 0.908625 0
M  V30 3211 H 300.66 -4.25427 3.06777 0
M  V30 3212 H 302.134 -5.2573 1.68261 0
M  V30 3213 H 302.611 -4.38612 0.227184 0
M  V30 3214 H 303.217 -3.84836 1.81056 0
M  V30 3215 N 301.532 -0.945985 -1.26051 0
M  V30 3216 C 302.76 -0.613025 -1.9761 0
M  V30 3217 C 303.175 0.813035 -1.70397 0
M  V30 3218 O 302.532 1.54274 -0.974979 0
M  V30 3219 C 302.583 -0.85159 -3.51326 0
M  V30 3220 O 302.304 -2.22157 -3.77595 0
M  V30 3221 C 303.805 -0.529831 -4.40122 0
M  V30 3222 H 301.025 -0.230593 -0.630133 0
M  V30 3223 H 303.569 -1.268 -1.60443 0
M  V30 3224 H 301.724 -0.243151 -3.86636 0
M  V30 3225 H 302.138 -2.2852 -4.721 0
M  V30 3226 H 303.612 -0.747348 -5.46917 0
M  V30 3227 H 304.089 0.535341 -4.35925 0
M  V30 3228 H 304.695 -1.11721 -4.10364 0
M  V30 3229 N 303.011 1.40521 -0.713556 0
M  V30 3230 C 303.961 2.27971 -0.036165 0
M  V30 3231 C 304.945 1.43151 0.734623 0
M  V30 3232 O 306.137 1.66261 0.607158 0
M  V30 3233 C 303.266 3.31661 0.886331 0
M  V30 3234 C 302.352 4.23955 0.110836 0
M  V30 3235 N 302.743 4.97641 -0.904847 0
M  V30 3236 C 301.041 4.44674 0.343692 0
M  V30 3237 C 301.742 5.65322 -1.37064 0
M  V30 3238 N 300.718 5.39162 -0.693168 0
M  V30 3239 H 304.52 2.82384 -0.814645 0
M  V30 3240 H 302.034 1.52948 -0.545963 0
M  V30 3241 H 304.031 3.93154 1.38692 0
M  V30 3242 H 302.691 2.78808 1.66421 0
M  V30 3243 H 303.702 5.01689 -1.28563 0
M  V30 3244 H 300.379 4.02801 1.09805 0
M  V30 3245 H 301.769 6.34359 -2.21447 0
M  V30 3246 N 304.489 0.459591 1.5075 0
M  V30 3247 C 305.714 -0.0996819 2.0716 0
M  V30 3248 C 306.139 -1.33761 1.32249 0
M  V30 3249 O 305.497 -1.77551 0.366786 0
M  V30 3250 C 305.545 -0.378226 3.58611 0
M  V30 3251 O 304.649 -1.46081 3.85661 0
M  V30 3252 H 303.99 0.00791392 0.663953 0
M  V30 3253 H 306.52 0.647329 1.9409 0
M  V30 3254 H 306.53 -0.622135 4.03229 0
M  V30 3255 H 305.205 0.526439 4.12555 0
M  V30 3256 H 303.782 -1.20511 3.5289 0
M  V30 3257 N 305.967 -1.56429 0.191757 0
M  V30 3258 C 307.215 -1.97095 -0.447006 0
M  V30 3259 C 307.536 -1.07967 -1.62383 0
M  V30 3260 O 306.806 -0.150248 -1.95323 0
M  V30 3261 H 305.386 -0.727832 -0.168135 0
M  V30 3262 H 308.048 -1.92911 0.27771 0
M  V30 3263 H 307.144 -3.01848 -0.793371 0
M  V30 3264 N 307.445 0.0818655 -1.57387 0
M  V30 3265 C 308.693 0.781368 -1.86384 0
M  V30 3266 C 309.014 1.78618 -0.782342 0
M  V30 3267 O 308.284 1.94976 0.190061 0
M  V30 3268 H 306.864 0.291562 -0.687751 0
M  V30 3269 H 309.526 0.060348 -1.94807 0
M  V30 3270 H 308.622 1.3038 -2.83562 0
M  V30 3271 N 308.923 1.53595 0.353017 0
M  V30 3272 C 310.151 1.74311 1.1146 0
M  V30 3273 C 310.566 0.477854 1.82653 0
M  V30 3274 O 309.923 -0.549977 1.74016 0
M  V30 3275 C 309.974 2.91694 2.13534 0
M  V30 3276 O 309.695 4.13325 1.45238 0
M  V30 3277 C 311.196 3.24384 3.02142 0
M  V30 3278 H 308.416 0.582669 0.332773 0
M  V30 3279 H 310.96 2.00386 0.408107 0
M  V30 3280 H 309.115 2.67977 2.79763 0
M  V30 3281 H 309.529 4.79148 2.13349 0
M  V30 3282 H 311.003 4.09893 3.69718 0
M  V30 3283 H 311.48 2.40282 3.67643 0
M  V30 3284 H 312.086 3.50073 2.41514 0
M  V30 3285 N 310.401 -0.613514 1.45168 0
M  V30 3286 C 311.349 -1.74572 1.53712 0
M  V30 3287 C 312.343 -1.64426 0.407505 0
M  V30 3288 O 313.549 -1.70291 0.583176 0
M  V30 3289 H 309.924 -0.576641 0.48269 0
M  V30 3290 H 311.895 -1.64492 2.48968 0
M  V30 3291 C 310.644 -3.12943 1.51532 0
M  V30 3292 H 309.967 -3.21407 2.37776 0
M  V30 3293 H 311.407 -3.9201 1.61569 0
M  V30 3294 C 309.866 -3.36053 0.238798 0
M  V30 3295 O 310.396 -3.95837 -0.6838 0
M  V30 3296 N 308.602 -2.9028 0.136359 0
M  V30 3297 H 308.149 -2.41811 0.887999 0
M  V30 3298 H 308.107 -3.06116 -0.716944 0
M  V30 3299 N 311.879 -1.3236 -0.855495 0
M  V30 3300 C 312.809 -1.23833 -1.97958 0
M  V30 3301 C 313.79 -0.122361 -1.69659 0
M  V30 3302 O 314.975 -0.30939 -1.9172 0
M  V30 3303 C 312.105 -0.959772 -3.33775 0
M  V30 3304 C 311.059 -2.03689 -3.76424 0
M  V30 3305 C 310.385 -1.61075 -5.09862 0
M  V30 3306 C 311.685 -3.4518 -3.9198 0
M  V30 3307 H 313.379 -2.1788 -2.0535 0
M  V30 3308 H 310.925 -1.04891 -0.986605 0
M  V30 3309 H 312.878 -0.886678 -4.11966 0
M  V30 3310 H 311.602 0.0163404 -3.26596 0
M  V30 3311 H 310.261 -2.10012 -3.00484 0
M  V30 3312 H 309.909 -0.622107 -4.99138 0
M  V30 3313 H 309.609 -2.33143 -5.39368 0
M  V30 3314 H 311.133 -1.55201 -5.90546 0
M  V30 3315 H 312.547 -3.4145 -4.60526 0
M  V30 3316 H 310.944 -4.1559 -4.32903 0
M  V30 3317 H 312.014 -3.84903 -2.94919 0
M  V30 3318 N 313.357 1.07166 -1.15556 0
M  V30 3319 C 314.604 1.79798 -0.931604 0
M  V30 3320 C 314.932 1.8682 0.54115 0
M  V30 3321 O 314.187 1.34942 1.41736 0
M  V30 3322 C 314.486 3.24707 -1.49332 0
M  V30 3323 C 314.152 3.37781 -2.98688 0
M  V30 3324 C 312.814 3.41057 -3.39461 0
M  V30 3325 C 315.166 3.40424 -3.94665 0
M  V30 3326 C 312.494 3.4458 -4.74849 0
M  V30 3327 C 314.846 3.45485 -5.29927 0
M  V30 3328 C 313.51 3.47039 -5.70193 0
M  V30 3329 H 312.78 0.657928 -0.340898 0
M  V30 3330 H 315.427 1.26091 -1.44129 0
M  V30 3331 H 313.732 3.81208 -0.904859 0
M  V30 3332 H 315.429 3.79486 -1.29582 0
M  V30 3333 H 312.019 3.35932 -2.66172 0
M  V30 3334 H 316.203 3.37113 -3.64237 0
M  V30 3335 H 311.459 3.44083 -5.05388 0
M  V30 3336 H 315.633 3.46476 -6.04092 0
M  V30 3337 H 313.26 3.49522 -6.75084 0
M  V30 3338 N 314.835 0.952656 1.25548 0
M  V30 3339 C 315.765 0.489287 2.28316 0
M  V30 3340 C 316.746 -0.463359 1.63667 0
M  V30 3341 O 317.931 -0.36274 1.90782 0
M  V30 3342 C 315.061 -0.235603 3.465 0
M  V30 3343 C 314.015 0.631593 4.23314 0
M  V30 3344 C 313.341 -0.223923 5.34231 0
M  V30 3345 C 314.641 1.90871 4.86174 0
M  V30 3346 H 316.335 1.34822 2.67326 0
M  V30 3347 H 313.881 0.649728 1.28509 0
M  V30 3348 H 315.834 -0.570882 4.17515 0
M  V30 3349 H 314.558 -1.12877 3.06474 0
M  V30 3350 H 313.217 0.949929 3.54079 0
M  V30 3351 H 312.865 -1.11678 4.90446 0
M  V30 3352 H 312.565 0.35299 5.86539 0
M  V30 3353 H 314.089 -0.554214 6.0808 0
M  V30 3354 H 315.503 1.63997 5.49343 0
M  V30 3355 H 313.9 2.43112 5.4865 0
M  V30 3356 H 314.97 2.61304 4.08471 0
M  V30 3357 N 316.313 -1.40141 0.720998 0
M  V30 3358 C 317.541 -2.05096 0.272656 0
M  V30 3359 C 317.956 -1.54334 -1.0875 0
M  V30 3360 O 317.313 -0.702211 -1.6845 0
M  V30 3361 C 317.364 -3.60636 0.249835 0
M  V30 3362 O 317.085 -4.09526 1.55629 0
M  V30 3363 C 318.586 -4.42772 -0.216396 0
M  V30 3364 H 315.806 -0.659897 0.121558 0
M  V30 3365 H 318.35 -1.79449 0.980723 0
M  V30 3366 H 316.505 -3.85232 -0.409237 0
M  V30 3367 H 316.919 -5.03758 1.4604 0
M  V30 3368 H 318.393 -5.51702 -0.181212 0
M  V30 3369 H 318.87 -4.20756 -1.25941 0
M  V30 3370 H 319.476 -4.23294 0.412596 0
M  V30 3371 N 317.792 -0.46758 -1.50504 0
M  V30 3372 C 318.755 0.317059 -2.26996 0
M  V30 3373 C 319.755 0.923513 -1.31635 0
M  V30 3374 O 320.945 0.793239 -1.55091 0
M  V30 3375 C 318.077 1.45134 -3.08462 0
M  V30 3376 H 319.27 -0.353723 -2.97807 0
M  V30 3377 H 316.823 -0.221545 -1.54722 0
M  V30 3378 H 317.558 2.15728 -2.4214 0
M  V30 3379 H 317.343 1.02232 -3.78538 0
M  V30 3380 H 318.833 2.00493 -3.66323 0
M  V30 3381 N 319.27 1.56325 -0.20005 0
M  V30 3382 C 320.516 1.98012 0.438059 0
M  V30 3383 C 320.849 1.08702 1.60927 0
M  V30 3384 O 320.124 0.140064 1.93995 0
M  V30 3385 C 320.407 3.48841 0.893419 0
M  V30 3386 C 320.26 4.48928 -0.279947 0
M  V30 3387 C 321.579 4.03498 1.75719 0
M  V30 3388 H 318.698 0.719918 0.157757 0
M  V30 3389 H 321.34 1.87743 -0.291968 0
M  V30 3390 H 319.49 3.57723 1.51547 0
M  V30 3391 H 321.162 4.52079 -0.91772 0
M  V30 3392 H 319.405 4.23694 -0.930919 0
M  V30 3393 H 320.076 5.5194 0.0812601 0
M  V30 3394 H 322.552 3.97427 1.23253 0
M  V30 3395 H 321.428 5.09393 2.04476 0
M  V30 3396 H 321.689 3.4906 2.71311 0
M  V30 3397 N 320.748 -0.0735177 1.57428 0
M  V30 3398 C 321.698 -1.09442 2.00016 0
M  V30 3399 C 322.682 -1.34575 0.881947 0
M  V30 3400 O 323.874 -1.34905 1.14585 0
M  V30 3401 C 321.003 -2.40865 2.4462 0
M  V30 3402 C 320.089 -2.19014 3.63172 0
M  V30 3403 N 320.48 -1.67087 4.77405 0
M  V30 3404 C 318.778 -2.49494 3.69688 0
M  V30 3405 C 319.479 -1.6001 5.5926 0
M  V30 3406 N 318.455 -2.05999 5.03056 0
M  V30 3407 H 322.257 -0.686227 2.85776 0
M  V30 3408 H 319.771 -0.280617 1.59957 0
M  V30 3409 H 321.768 -3.14763 2.73368 0
M  V30 3410 H 320.428 -2.82403 1.60246 0
M  V30 3411 H 321.439 -1.35975 4.99731 0
M  V30 3412 H 318.116 -2.94409 2.96023 0
M  V30 3413 H 319.506 -1.2073 6.60964 0
M  V30 3414 N 322.226 -1.5378 -0.344866 0
M  V30 3415 C 323.136 -1.84667 -1.4469 0
M  V30 3416 C 324.152 -0.736704 -1.57635 0
M  V30 3417 O 325.328 -1.02888 -1.73136 0
M  V30 3418 C 322.393 -2.04869 -2.79696 0
M  V30 3419 C 321.454 -3.28731 -2.76106 0
M  V30 3420 C 320.687 -3.4796 -4.04673 0
M  V30 3421 O 320.91 -2.71052 -5.01883 0
M  V30 3422 O 319.844 -4.41383 -4.09224 0
M  V30 3423 H 323.67 -2.78334 -1.21506 0
M  V30 3424 H 321.255 -1.39418 -0.536921 0
M  V30 3425 H 323.137 -2.19609 -3.59652 0
M  V30 3426 H 321.812 -1.14391 -3.02814 0
M  V30 3427 H 320.719 -3.19396 -1.94774 0
M  V30 3428 H 322.052 -4.19198 -2.57941 0
M  V30 3429 N 323.704 0.605807 -1.45491 0
M  V30 3430 C 324.953 1.36086 -1.48874 0
M  V30 3431 C 325.266 1.95131 -0.135333 0
M  V30 3432 O 326.472 2.7146 -0.0468144 0
M  V30 3433 C 324.928 2.46518 -2.62215 0
M  V30 3434 C 324.536 1.93877 -4.03876 0
M  V30 3435 C 326.28 3.23512 -2.74846 0
M  V30 3436 C 324.187 3.01801 -5.08596 0
M  V30 3437 H 323.117 0.511497 -0.553974 0
M  V30 3438 H 325.768 0.649089 -1.71636 0
M  V30 3439 H 324.15 3.20388 -2.32739 0
M  V30 3440 H 325.324 1.26704 -4.43038 0
M  V30 3441 H 323.639 1.29622 -3.95711 0
M  V30 3442 H 326.236 4.04013 -3.50253 0
M  V30 3443 H 326.579 3.74631 -1.81542 0
M  V30 3444 H 327.112 2.56742 -3.03856 0
M  V30 3445 H 323.851 2.55597 -6.03614 0
M  V30 3446 H 323.371 3.67535 -4.74002 0
M  V30 3447 H 325.05 3.66152 -5.33424 0
M  V30 3448 N 325.182 1.32811 0.848464 0
M  V30 3449 C 326.43 1.23479 1.59991 0
M  V30 3450 C 326.751 -0.201853 1.93952 0
M  V30 3451 O 326.021 -1.12818 1.60153 0
M  V30 3452 H 324.601 0.454034 0.593179 0
M  V30 3453 H 327.263 1.66412 1.01455 0
M  V30 3454 H 326.359 1.82178 2.53412 0
M  V30 3455 N 326.66 -1.06551 1.16123 0
M  V30 3456 C 327.61 -2.12209 0.833736 0
M  V30 3457 C 328.594 -1.59825 -0.185656 0
M  V30 3458 O 329.786 -1.76994 0.0147906 0
M  V30 3459 C 326.915 -3.41674 0.333697 0
M  V30 3460 C 326.001 -4.00892 1.38372 0
M  V30 3461 N 326.392 -4.34256 2.59337 0
M  V30 3462 C 324.69 -4.28463 1.23836 0
M  V30 3463 C 325.391 -4.81291 3.26701 0
M  V30 3464 N 324.367 -4.80565 2.54083 0
M  V30 3465 H 328.169 -2.35849 1.75364 0
M  V30 3466 H 325.683 -1.24068 1.04789 0
M  V30 3467 H 327.68 -4.16822 0.0806918 0
M  V30 3468 H 326.34 -3.19475 -0.58017 0
M  V30 3469 H 327.351 -4.24687 2.96415 0
M  V30 3470 H 324.028 -4.15721 0.38504 0
M  V30 3471 H 325.418 -5.16332 4.29943 0
M  V30 3472 N 328.138 -0.959301 -1.25041 0
M  V30 3473 C 329.363 -0.633507 -1.97488 0
M  V30 3474 C 329.788 0.788555 -1.70773 0
M  V30 3475 O 329.146 1.53394 -0.966431 0
M  V30 3476 C 329.194 -0.904057 -3.49083 0
M  V30 3477 O 328.298 0.0147939 -4.12397 0
M  V30 3478 H 327.639 -0.240368 -0.618966 0
M  V30 3479 H 330.169 -1.28717 -1.59038 0
M  V30 3480 H 330.179 -0.832203 -3.99423 0
M  V30 3481 H 328.854 -1.94048 -3.67856 0
M  V30 3482 H 327.431 -0.109664 -3.72739 0
M  V30 3483 N 329.616 1.39756 -0.72842 0
M  V30 3484 C 330.546 2.33289 -0.0991354 0
M  V30 3485 C 331.527 1.53568 0.731489 0
M  V30 3486 O 332.712 1.81987 0.677807 0
M  V30 3487 C 329.842 3.3763 0.813834 0
M  V30 3488 C 328.796 4.2791 0.0878663 0
M  V30 3489 C 328.122 5.22894 1.11741 0
M  V30 3490 C 329.422 5.11314 -1.06563 0
M  V30 3491 H 331.116 2.86163 -0.880408 0
M  V30 3492 H 328.662 1.37591 -0.424819 0
M  V30 3493 H 330.615 4.0201 1.26355 0
M  V30 3494 H 329.339 2.83181 1.62715 0
M  V30 3495 H 327.998 3.65 -0.342159 0
M  V30 3496 H 327.646 4.64744 1.92412 0
M  V30 3497 H 327.346 5.84143 0.636477 0
M  V30 3498 H 328.87 5.90151 1.56697 0
M  V30 3499 H 330.284 5.69076 -0.694671 0
M  V30 3500 H 328.681 5.81671 -1.47577 0
M  V30 3501 H 329.751 4.46534 -1.89038 0
M  V30 3502 N 331.094 0.475555 1.50254 0
M  V30 3503 C 332.342 -0.077738 2.0195 0
M  V30 3504 C 332.663 -1.39813 1.35931 0
M  V30 3505 O 331.933 -1.89249 0.506123 0
M  V30 3506 H 330.513 -0.031719 0.746326 0
M  V30 3507 H 333.175 0.626995 1.84539 0
M  V30 3508 H 332.271 -0.225995 3.11281 0
M  V30 3509 N 332.573 -1.56217 0.208337 0
M  V30 3510 C 333.503 -2.22694 -0.702116 0
M  V30 3511 C 334.484 -1.19432 -1.2112 0
M  V30 3512 O 335.669 -1.47978 -1.25762 0
M  V30 3513 C 332.799 -2.8966 -1.9161 0
M  V30 3514 C 331.753 -3.9928 -1.5414 0
M  V30 3515 C 331.079 -4.53476 -2.83308 0
M  V30 3516 C 332.379 -5.17012 -0.741339 0
M  V30 3517 H 334.073 -2.99034 -0.147898 0
M  V30 3518 H 331.619 -1.43831 -0.0696951 0
M  V30 3519 H 333.572 -3.34852 -2.55836 0
M  V30 3520 H 332.296 -2.10746 -2.49507 0
M  V30 3521 H 330.955 -3.54799 -0.922668 0
M  V30 3522 H 330.603 -3.71308 -3.39322 0
M  V30 3523 H 330.303 -5.27451 -2.58976 0
M  V30 3524 H 331.827 -5.01378 -3.485 0
M  V30 3525 H 333.241 -5.58667 -1.28699 0
M  V30 3526 H 331.638 -5.97137 -0.595627 0
M  V30 3527 H 332.708 -4.8423 0.254851 0
M  V30 3528 N 334.051 0.0651679 -1.57465 0
M  V30 3529 C 335.299 0.761555 -1.87202 0
M  V30 3530 C 335.62 1.77778 -0.801243 0
M  V30 3531 O 334.89 1.95166 0.16937 0
M  V30 3532 H 333.47 0.284251 -0.690804 0
M  V30 3533 H 336.132 0.0396827 -1.9486 0
M  V30 3534 H 335.228 1.27365 -2.84929 0
M  V30 3535 N 335.529 1.53961 0.336706 0
M  V30 3536 C 336.479 1.7881 1.41461 0
M  V30 3537 C 337.463 0.643561 1.47469 0
M  V30 3538 O 338.655 0.903166 1.52223 0
M  V30 3539 C 335.784 2.00722 2.78506 0
M  V30 3540 C 334.87 3.2126 2.76862 0
M  V30 3541 N 335.261 4.42588 2.44845 0
M  V30 3542 C 333.559 3.22568 3.08004 0
M  V30 3543 C 334.26 5.2447 2.51607 0
M  V30 3544 N 333.236 4.61344 2.87511 0
M  V30 3545 H 337.038 2.70205 1.15615 0
M  V30 3546 H 334.552 1.52978 0.545112 0
M  V30 3547 H 336.549 2.1666 3.5618 0
M  V30 3548 H 335.209 1.10573 3.05293 0
M  V30 3549 H 336.22 4.69819 2.17922 0
M  V30 3550 H 332.897 2.42409 3.39918 0
M  V30 3551 H 334.287 6.31324 2.29955 0
M  V30 3552 N 337.007 -0.598083 1.45811 0
M  V30 3553 C 338.232 -1.3881 1.54099 0
M  V30 3554 C 338.657 -1.8726 0.177578 0
M  V30 3555 O 338.015 -1.6069 -0.839541 0
M  V30 3556 C 338.063 -2.56217 2.53743 0
M  V30 3557 O 337.167 -3.5716 2.06182 0
M  V30 3558 H 336.508 -0.414024 0.519115 0
M  V30 3559 H 339.038 -0.726971 1.91249 0
M  V30 3560 H 339.048 -3.03337 2.72856 0
M  V30 3561 H 337.723 -2.20303 3.5276 0
M  V30 3562 H 336.3 -3.16624 1.96987 0
M  V30 3563 N 338.485 -1.33259 -0.841409 0
M  V30 3564 C 339.71 -1.2775 -1.63385 0
M  V30 3565 C 340.135 0.149188 -1.87507 0
M  V30 3566 O 339.493 1.10498 -1.43736 0
M  V30 3567 C 339.541 -2.05571 -2.96265 0
M  V30 3568 O 338.645 -1.41257 -3.87453 0
M  V30 3569 H 337.986 -0.439627 -0.497618 0
M  V30 3570 H 340.516 -1.75782 -1.04699 0
M  V30 3571 H 340.526 -2.16241 -3.45982 0
M  V30 3572 H 339.201 -3.09309 -2.7803 0
M  V30 3573 H 337.778 -1.39217 -3.45938 0
M  V30 3574 N 339.963 1.05934 -1.16686 0
M  V30 3575 C 341.24 1.75643 -0.860747 0
M  V30 3576 C 341.62 2.01144 0.640641 0
M  V30 3577 O 340.968 1.64147 1.58959 0
M  V30 3578 C 341.178 3.05493 -1.68745 0
M  V30 3579 C 342.526 3.79581 -1.90271 0
M  V30 3580 O 343.55 3.15344 -1.65641 0
M  V30 3581 O 342.409 4.9499 -2.31618 0
M  V30 3582 H 339.503 0.763426 -0.317977 0
M  V30 3583 H 342.049 1.1217 -1.27342 0
M  V30 3584 H 340.821 2.8264 -2.70611 0
M  V30 3585 H 340.444 3.76702 -1.27206 0
M  V30 3586 N 341.441 0.965919 1.2453 0
M  V30 3587 C 342.852 0.665929 1.7442 0
M  V30 3588 C 343.203 -0.818407 1.78316 0
M  V30 3589 O 342.328 -1.64037 1.41141 0
M  V30 3590 C 342.923 1.20211 3.16757 0
M  V30 3591 C 341.482 0.952059 3.6416 0
M  V30 3592 C 340.629 1.33848 2.42858 0
M  V30 3593 H 343.58 1.14144 1.10258 0
M  V30 3594 H 343.601 0.567544 3.76244 0
M  V30 3595 H 343.113 2.28244 3.13889 0
M  V30 3596 H 341.214 -0.112821 3.72429 0
M  V30 3597 H 341.327 1.59645 4.51719 0
M  V30 3598 H 339.691 0.756864 2.43195 0
M  V30 3599 H 340.474 2.42827 2.42673 0
M  V30 3600 N 342.919 -1.39368 0.735821 0
M  V30 3601 C 343.866 -2.30599 0.0963825 0
M  V30 3602 C 344.836 -1.49257 -0.728794 0
M  V30 3603 O 346.021 -1.77941 -0.688588 0
M  V30 3604 C 343.161 -3.35596 -0.804305 0
M  V30 3605 C 342.274 -4.31987 0.0335761 0
M  V30 3606 C 341.409 -5.24053 -0.868461 0
M  V30 3607 C 340.448 -6.12095 -0.0258776 0
M  V30 3608 N 339.585 -6.96514 -0.883893 0
M  V30 3609 H 344.425 -2.8471 0.880002 0
M  V30 3610 H 341.962 -1.40188 0.445619 0
M  V30 3611 H 343.92 -3.95062 -1.34096 0
M  V30 3612 H 342.55 -2.82938 -1.55389 0
M  V30 3613 H 341.602 -3.74133 0.68766 0
M  V30 3614 H 342.914 -4.94074 0.685036 0
M  V30 3615 H 342.068 -5.88549 -1.47293 0
M  V30 3616 H 340.807 -4.62289 -1.5537 0
M  V30 3617 H 339.812 -5.4661 0.591386 0
M  V30 3618 H 341.037 -6.75923 0.656156 0
M  V30 3619 H 338.983 -6.37318 -1.55441 0
M  V30 3620 H 338.9 -7.55448 -0.288931 0
M  V30 3621 H 340.168 -7.65439 -1.4739 0
M  V30 3622 N 344.397 -0.483516 -1.5 0
M  V30 3623 C 345.36 0.292965 -2.2732 0
M  V30 3624 C 346.36 0.909499 -1.32608 0
M  V30 3625 O 347.55 0.776745 -1.55924 0
M  V30 3626 C 344.682 1.41854 -3.09984 0
M  V30 3627 H 345.875 -0.385289 -2.97415 0
M  V30 3628 H 343.428 -0.237942 -1.54478 0
M  V30 3629 H 344.163 2.13148 -2.44414 0
M  V30 3630 H 343.948 0.982114 -3.79601 0
M  V30 3631 H 345.438 1.96597 -3.68429 0
M  V30 3632 N 345.875 1.56104 -0.216619 0
M  V30 3633 C 347.121 1.98466 0.417033 0
M  V30 3634 C 347.454 1.10403 1.59765 0
M  V30 3635 O 346.729 0.160632 1.93836 0
M  V30 3636 C 347.012 3.49769 0.85637 0
M  V30 3637 C 346.865 4.48606 -0.327546 0
M  V30 3638 C 348.184 4.05339 1.7143 0
M  V30 3639 H 345.303 0.721551 0.150112 0
M  V30 3640 H 347.945 1.87423 -0.311864 0
M  V30 3641 H 346.095 3.5931 1.47745 0
M  V30 3642 H 347.767 4.5108 -0.965618 0
M  V30 3643 H 346.01 4.22682 -0.975805 0
M  V30 3644 H 346.681 5.51995 0.0227149 0
M  V30 3645 H 349.157 3.98712 1.19031 0
M  V30 3646 H 348.033 5.11533 1.99061 0
M  V30 3647 H 348.294 3.51918 2.67593 0
M  V30 3648 N 347.353 -0.0568162 1.57498 0
M  V30 3649 C 348.286 -1.09817 2.00039 0
M  V30 3650 C 349.264 -1.3674 0.879819 0
M  V30 3651 O 350.448 -1.49863 1.14338 0
M  V30 3652 C 347.575 -2.43924 2.34986 0
M  V30 3653 C 346.621 -2.33039 3.57204 0
M  V30 3654 S 347.454 -1.7102 5.07457 0
M  V30 3655 C 348.61 -3.06674 5.45621 0
M  V30 3656 H 348.843 -0.735701 2.88053 0
M  V30 3657 H 346.376 -0.265871 1.52094 0
M  V30 3658 H 348.334 -3.2106 2.55795 0
M  V30 3659 H 346.995 -2.77327 1.47474 0
M  V30 3660 H 346.188 -3.31973 3.79223 0
M  V30 3661 H 345.79 -1.64043 3.36104 0
M  V30 3662 H 348.082 -4.03 5.44608 0
M  V30 3663 H 349.025 -2.8942 6.46252 0
M  V30 3664 H 349.433 -3.07969 4.73091 0
M  V30 3665 N 348.832 -1.54138 -0.328536 0
M  V30 3666 C 350.079 -1.72105 -1.06706 0
M  V30 3667 C 350.407 -0.492111 -1.88171 0
M  V30 3668 O 349.662 0.526153 -1.88494 0
M  V30 3669 C 349.961 -2.9457 -2.02393 0
M  V30 3670 C 349.627 -4.29544 -1.37122 0
M  V30 3671 C 348.289 -4.6624 -1.19052 0
M  V30 3672 C 350.641 -5.1333 -0.902331 0
M  V30 3673 C 347.969 -5.84325 -0.527331 0
M  V30 3674 C 350.321 -6.32094 -0.252988 0
M  V30 3675 C 348.985 -6.67473 -0.0600901 0
M  V30 3676 H 348.255 -0.629775 -0.390466 0
M  V30 3677 H 350.902 -1.88372 -0.34473 0
M  V30 3678 H 349.207 -2.72969 -2.81061 0
M  V30 3679 H 350.904 -3.05665 -2.59557 0
M  V30 3680 H 347.494 -4.0067 -1.52188 0
M  V30 3681 H 351.678 -4.855 -1.02974 0
M  V30 3682 H 346.934 -6.103 -0.366634 0
M  V30 3683 H 351.108 -6.96299 0.118366 0
M  V30 3684 H 348.735 -7.58832 0.455828 0
M  V30 3685 N 350.31 0.590341 -1.46126 0
M  V30 3686 C 351.721 1.17243 -1.45296 0
M  V30 3687 C 352.072 1.95281 -0.189723 0
M  V30 3688 O 351.197 2.04502 0.707674 0
M  V30 3689 C 351.792 2.13284 -2.6324 0
M  V30 3690 C 350.351 2.66832 -2.65476 0
M  V30 3691 C 349.498 1.42557 -2.3785 0
M  V30 3692 H 352.449 0.378692 -1.54116 0
M  V30 3693 H 352.47 2.96619 -2.38323 0
M  V30 3694 H 351.982 1.56459 -3.55165 0
M  V30 3695 H 350.083 3.27548 -1.77603 0
M  V30 3696 H 350.196 3.10088 -3.65215 0
M  V30 3697 H 348.56 1.72107 -1.87753 0
M  V30 3698 H 349.343 0.875741 -3.31942 0
M  V30 3699 N 351.788 1.33704 0.83433 0
M  V30 3700 C 353.016 1.28467 1.62185 0
M  V30 3701 C 353.431 -0.143526 1.88254 0
M  V30 3702 O 352.788 -1.08709 1.4659 0
M  V30 3703 C 352.839 2.06174 2.96942 0
M  V30 3704 O 352.56 3.43422 2.72016 0
M  V30 3705 C 354.061 2.08201 3.91366 0
M  V30 3706 H 351.281 0.4424 0.504503 0
M  V30 3707 H 353.825 1.76145 1.03891 0
M  V30 3708 H 351.98 1.62167 3.51825 0
M  V30 3709 H 352.394 3.83453 3.57861 0
M  V30 3710 H 353.868 2.67017 4.83121 0
M  V30 3711 H 354.345 1.07343 4.2588 0
M  V30 3712 H 354.951 2.52246 3.42421 0
M  V30 3713 N 353.266 -1.05314 1.17247 0
M  V30 3714 C 354.496 -1.81707 0.983166 0
M  V30 3715 C 354.904 -1.83222 -0.471822 0
M  V30 3716 O 354.247 -1.25721 -1.3394 0
M  V30 3717 C 354.309 -3.29134 1.44606 0
M  V30 3718 C 353.973 -3.51304 2.92292 0
M  V30 3719 C 354.97 -3.4353 3.90235 0
M  V30 3720 C 352.655 -3.78306 3.30439 0
M  V30 3721 C 354.649 -3.62442 5.24323 0
M  V30 3722 C 352.336 -3.96866 4.64694 0
M  V30 3723 C 353.334 -3.88933 5.61445 0
M  V30 3724 O 353.022 -4.06976 6.93272 0
M  V30 3725 H 352.754 -0.579476 0.348114 0
M  V30 3726 H 355.308 -1.33705 1.55924 0
M  V30 3727 H 353.538 -3.78046 0.813537 0
M  V30 3728 H 355.227 -3.87049 1.22262 0
M  V30 3729 H 355.993 -3.22648 3.62109 0
M  V30 3730 H 351.872 -3.83585 2.55702 0
M  V30 3731 H 355.416 -3.56165 5.99827 0
M  V30 3732 H 351.313 -4.1724 4.92525 0
M  V30 3733 H 352.081 -4.24209 6.99992 0
M  V30 3734 N 354.744 -0.972509 -1.24016 0
M  V30 3735 C 355.691 -0.505969 -2.25186 0
M  V30 3736 C 356.661 0.451009 -1.5986 0
M  V30 3737 O 357.846 0.360307 -1.87367 0
M  V30 3738 C 354.986 0.193089 -3.44559 0
M  V30 3739 C 354.099 -0.803222 -4.24467 0
M  V30 3740 C 353.234 -0.0797793 -5.3114 0
M  V30 3741 C 352.273 -1.06583 -6.02749 0
M  V30 3742 N 351.41 -0.372074 -7.01113 0
M  V30 3743 H 356.25 -1.37351 -2.64459 0
M  V30 3744 H 353.787 -0.688419 -1.29997 0
M  V30 3745 H 355.745 0.615125 -4.1264 0
M  V30 3746 H 354.375 1.02455 -3.06109 0
M  V30 3747 H 353.427 -1.34368 -3.55878 0
M  V30 3748 H 354.739 -1.55494 -4.73944 0
M  V30 3749 H 353.893 0.400015 -6.0538 0
M  V30 3750 H 352.632 0.704597 -4.82583 0
M  V30 3751 H 351.637 -1.55645 -5.27309 0
M  V30 3752 H 352.862 -1.85074 -6.53395 0
M  V30 3753 H 350.808 0.393238 -6.5482 0
M  V30 3754 H 350.725 -1.06258 -7.48495 0
M  V30 3755 H 351.993 0.0855932 -7.79453 0
M  V30 3756 N 356.222 1.38976 -0.743202 0
M  V30 3757 C 357.452 2.04339 -0.304807 0
M  V30 3758 C 357.86 1.56162 1.06819 0
M  V30 3759 O 357.203 0.725284 1.68776 0
M  V30 3760 C 357.265 3.58716 -0.237369 0
M  V30 3761 C 356.929 4.29905 -1.55018 0
M  V30 3762 C 357.926 4.55987 -2.49744 0
M  V30 3763 C 355.611 4.68294 -1.81675 0
M  V30 3764 C 357.605 5.19478 -3.69353 0
M  V30 3765 C 355.292 5.31512 -3.0156 0
M  V30 3766 C 356.29 5.57037 -3.9522 0
M  V30 3767 O 355.978 6.18941 -5.12998 0
M  V30 3768 H 355.71 0.663439 -0.12971 0
M  V30 3769 H 358.264 1.78852 -1.01001 0
M  V30 3770 H 356.494 3.83133 0.524003 0
M  V30 3771 H 358.183 4.05543 0.170121 0
M  V30 3772 H 358.949 4.26767 -2.30423 0
M  V30 3773 H 354.828 4.47779 -1.09615 0
M  V30 3774 H 358.372 5.39318 -4.42473 0
M  V30 3775 H 354.269 5.60153 -3.20778 0
M  V30 3776 H 355.037 6.37433 -5.13441 0
M  V30 3777 N 357.7 0.491464 1.49741 0
M  V30 3778 C 358.946 -0.0565092 2.02721 0
M  V30 3779 C 359.279 -1.37522 1.37118 0
M  V30 3780 O 358.554 -1.87866 0.503645 0
M  V30 3781 C 358.837 -0.219051 3.59433 0
M  V30 3782 C 358.69 1.12211 4.35579 0
M  V30 3783 C 360.009 -0.964157 4.29409 0
M  V30 3784 H 357.128 -0.0190627 0.736753 0
M  V30 3785 H 359.77 0.641021 1.7886 0
M  V30 3786 H 357.92 -0.813165 3.79895 0
M  V30 3787 H 359.592 1.75437 4.26637 0
M  V30 3788 H 357.835 1.71377 3.98513 0
M  V30 3789 H 358.506 0.961794 5.43556 0
M  V30 3790 H 360.982 -0.460378 4.13545 0
M  V30 3791 H 359.858 -1.04671 5.38828 0
M  V30 3792 H 360.119 -2.00563 3.93988 0
M  V30 3793 N 359.178 -1.55987 0.224894 0
M  V30 3794 C 360.455 -1.90232 -0.455083 0
M  V30 3795 C 360.835 -1.14269 -1.77499 0
M  V30 3796 O 360.183 -0.253079 -2.27094 0
M  V30 3797 C 360.393 -3.42993 -0.644758 0
M  V30 3798 C 361.741 -4.13821 -0.950669 0
M  V30 3799 O 362.765 -3.4861 -0.731423 0
M  V30 3800 O 361.624 -5.29128 -1.36695 0
M  V30 3801 H 358.718 -0.79108 -0.241084 0
M  V30 3802 H 361.264 -1.67581 0.267327 0
M  V30 3803 H 360.036 -3.90252 0.28613 0
M  V30 3804 H 359.659 -3.71434 -1.41853 0
M  V30 3805 N 360.656 0.0484629 -1.57525 0
M  V30 3806 C 361.905 0.742065 -1.87553 0
M  V30 3807 C 362.218 1.77545 -0.820802 0
M  V30 3808 O 363.424 2.52027 -1.00967 0
M  V30 3809 C 361.88 1.37081 -3.32771 0
M  V30 3810 C 361.488 0.374786 -4.4643 0
M  V30 3811 C 363.232 2.04542 -3.71972 0
M  V30 3812 C 361.139 1.01077 -5.82698 0
M  V30 3813 H 360.069 0.280903 -0.699721 0
M  V30 3814 H 362.72 -0.00411877 -1.835 0
M  V30 3815 H 361.102 2.16605 -3.31509 0
M  V30 3816 H 362.276 -0.392331 -4.59127 0
M  V30 3817 H 360.591 -0.196653 -4.15935 0
M  V30 3818 H 363.188 2.52943 -4.71088 0
M  V30 3819 H 363.531 2.85515 -3.02964 0
M  V30 3820 H 364.064 1.31819 -3.75325 0
M  V30 3821 H 360.803 0.240878 -6.55057 0
M  V30 3822 H 360.323 1.74819 -5.73758 0
M  V30 3823 H 362.002 1.52383 -6.28799 0
M  V30 3824 N 362.134 1.5431 0.320358 0
M  V30 3825 C 363.082 1.84647 1.4145 0
M  V30 3826 C 364.076 0.718624 1.53402 0
M  V30 3827 O 365.282 0.902335 1.5575 0
M  V30 3828 H 361.657 0.585349 0.472091 0
M  V30 3829 H 363.628 2.7614 1.13089 0
M  V30 3830 C 362.377 2.09341 2.77617 0
M  V30 3831 H 361.7 2.9559 2.69196 0
M  V30 3832 H 363.14 2.3452 3.53237 0
M  V30 3833 C 361.599 0.885939 3.25043 0
M  V30 3834 O 362.129 0.0967891 4.01583 0
M  V30 3835 N 360.335 0.696682 2.82125 0
M  V30 3836 H 359.882 1.34006 2.2 0
M  V30 3837 H 359.84 -0.109712 3.14209 0
M  V30 3838 N 363.613 -0.582584 1.46437 0
M  V30 3839 C 364.841 -1.36682 1.55324 0
M  V30 3840 C 365.256 -1.87796 0.194409 0
M  V30 3841 O 364.613 -1.63623 -0.808318 0
M  V30 3842 C 364.664 -2.55426 2.55812 0
M  V30 3843 O 364.385 -2.0643 3.86417 0
M  V30 3844 C 365.886 -3.47976 2.74641 0
M  V30 3845 H 363.106 -0.417545 0.525259 0
M  V30 3846 H 365.65 -0.708219 1.91845 0
M  V30 3847 H 363.805 -3.17275 2.22295 0
M  V30 3848 H 364.219 -2.83762 4.41111 0
M  V30 3849 H 365.693 -4.27775 3.48874 0
M  V30 3850 H 366.17 -3.99919 1.81553 0
M  V30 3851 H 366.776 -2.91962 3.09255 0
M  V30 3852 N 365.091 -1.34144 -0.827227 0
M  V30 3853 C 366.338 -1.26258 -1.58319 0
M  V30 3854 C 366.666 0.168595 -1.93768 0
M  V30 3855 O 365.921 1.12877 -1.59866 0
M  V30 3856 C 366.22 -2.09464 -2.89585 0
M  V30 3857 C 365.886 -3.58521 -2.73448 0
M  V30 3858 C 364.548 -3.99155 -2.68754 0
M  V30 3859 C 366.9 -4.53189 -2.57428 0
M  V30 3860 C 364.228 -5.32656 -2.45957 0
M  V30 3861 C 366.58 -5.86864 -2.36163 0
M  V30 3862 C 365.244 -6.26667 -2.29879 0
M  V30 3863 H 364.514 -0.462013 -0.579332 0
M  V30 3864 H 367.161 -1.65845 -0.95748 0
M  V30 3865 H 365.466 -1.62692 -3.56425 0
M  V30 3866 H 367.163 -2.00712 -3.47154 0
M  V30 3867 H 363.753 -3.26264 -2.77939 0
M  V30 3868 H 367.937 -4.22696 -2.60081 0
M  V30 3869 H 363.193 -5.62519 -2.39546 0
M  V30 3870 H 367.367 -6.59813 -2.22754 0
M  V30 3871 H 364.994 -7.30049 -2.11975 0
M  V30 3872 N 366.569 1.04691 -1.17803 0
M  V30 3873 C 367.985 1.29963 -0.926379 0
M  V30 3874 C 368.185 1.97251 0.411635 0
M  V30 3875 O 367.241 2.24922 1.14744 0
M  V30 3876 C 368.554 2.16447 -2.08737 0
M  V30 3877 C 370.102 2.29814 -2.12496 0
M  V30 3878 C 370.577 3.19661 -3.27995 0
M  V30 3879 N 372.068 3.27247 -3.27816 0
M  V30 3880 C 372.803 3.96906 -4.13827 0
M  V30 3881 N 372.299 4.6895 -5.09959 0
M  V30 3882 N 374.092 3.93122 -4.01761 0
M  V30 3883 H 366.243 0.594182 -2.0392 0
M  V30 3884 H 368.506 0.324649 -0.890678 0
M  V30 3885 H 368.212 1.74304 -3.05469 0
M  V30 3886 H 368.086 3.17103 -2.04268 0
M  V30 3887 H 370.473 2.71196 -1.16347 0
M  V30 3888 H 370.554 1.2877 -2.21025 0
M  V30 3889 H 370.198 2.78991 -4.24413 0
M  V30 3890 H 370.128 4.20722 -3.16703 0
M  V30 3891 H 372.619 2.75921 -2.58217 0
M  V30 3892 H 372.932 5.19679 -5.71974 0
M  V30 3893 H 371.277 4.67875 -5.13924 0
M  V30 3894 H 374.468 3.35967 -3.2595 0
M  V30 3895 H 374.641 4.47139 -4.6901 0
M  V30 3896 N 368.047 0.979072 1.23499 0
M  V30 3897 C 368.977 0.537606 2.27227 0
M  V30 3898 C 369.958 -0.428539 1.64613 0
M  V30 3899 O 371.143 -0.322191 1.91509 0
M  V30 3900 C 368.273 -0.162052 3.46922 0
M  V30 3901 C 367.227 0.721242 4.21879 0
M  V30 3902 C 366.553 -0.110555 5.34586 0
M  V30 3903 C 367.853 2.01141 4.82016 0
M  V30 3904 H 369.547 1.40462 2.64406 0
M  V30 3905 H 367.093 0.67684 1.27102 0
M  V30 3906 H 369.046 -0.482192 4.18632 0
M  V30 3907 H 367.77 -1.06351 3.08799 0
M  V30 3908 H 366.429 1.02482 3.51984 0
M  V30 3909 H 366.077 -1.0125 4.92704 0
M  V30 3910 H 365.777 0.477325 5.85658 0
M  V30 3911 H 367.301 -0.425107 6.09118 0
M  V30 3912 H 368.715 1.75612 5.45741 0
M  V30 3913 H 367.112 2.54695 5.43369 0
M  V30 3914 H 368.182 2.69909 4.02836 0
M  V30 3915 N 369.525 -1.3858 0.750561 0
M  V30 3916 C 370.75 -2.04997 0.314812 0
M  V30 3917 C 371.175 -1.56235 -1.04749 0
M  V30 3918 O 370.533 -0.712981 -1.66692 0
M  V30 3919 C 370.581 -3.58961 0.343415 0
M  V30 3920 O 369.685 -4.07025 -0.663628 0
M  V30 3921 H 369.026 -0.649081 0.139962 0
M  V30 3922 H 371.556 -1.77313 1.02084 0
M  V30 3923 H 371.566 -4.07542 0.193233 0
M  V30 3924 H 370.241 -3.93811 1.33738 0
M  V30 3925 H 368.818 -3.6982 -0.478307 0
M  V30 3926 N 371.003 -0.499398 -1.49478 0
M  V30 3927 C 371.966 0.268838 -2.27618 0
M  V30 3928 C 372.966 0.895383 -1.33565 0
M  V30 3929 O 374.156 0.760164 -1.56739 0
M  V30 3930 C 371.288 1.38559 -3.11471 0
M  V30 3931 H 372.481 -0.416812 -2.96989 0
M  V30 3932 H 370.034 -0.254313 -1.54217 0
M  V30 3933 H 370.769 2.10544 -2.46661 0
M  V30 3934 H 370.554 0.941797 -3.80621 0
M  V30 3935 H 372.044 1.92678 -3.70493 0
M  V30 3936 N 372.481 1.55866 -0.233164 0
M  V30 3937 C 373.758 1.90471 0.444988 0
M  V30 3938 C 374.138 1.15209 1.7689 0
M  V30 3939 O 373.486 0.265119 2.26957 0
M  V30 3940 C 373.696 3.4333 0.626559 0
M  V30 3941 C 375.044 4.14319 0.92871 0
M  V30 3942 O 376.068 3.48993 0.712926 0
M  V30 3943 O 374.927 5.29846 1.33887 0
M  V30 3944 H 372.021 0.792347 0.236885 0
M  V30 3945 H 374.567 1.67437 -0.276211 0
M  V30 3946 H 373.339 3.90095 -0.306822 0
M  V30 3947 H 372.962 3.72181 1.39881 0
M  V30 3948 N 373.959 -0.0401083 1.57549 0
M  V30 3949 C 375.236 -0.767917 1.79896 0
M  V30 3950 C 375.616 -1.9416 0.82856 0
M  V30 3951 O 374.964 -2.2812 -0.131671 0
M  V30 3952 C 375.174 -1.2113 3.27305 0
M  V30 3953 C 376.522 -1.63175 3.91994 0
M  V30 3954 O 377.546 -1.30616 3.31388 0
M  V30 3955 O 376.405 -2.23565 4.98679 0
M  V30 3956 H 373.499 -0.370441 0.739393 0
M  V30 3957 H 376.045 -0.017737 1.69691 0
M  V30 3958 H 374.817 -0.372937 3.89519 0
M  V30 3959 H 374.44 -2.02183 3.42356 0
M  V30 3960 N 375.437 -1.54477 -0.31217 0
M  V30 3961 C 376.686 -1.72438 -1.04633 0
M  V30 3962 C 376.999 -0.511163 -1.88803 0
M  V30 3963 O 378.205 -0.572341 -2.65399 0
M  V30 3964 C 376.661 -3.05043 -1.9099 0
M  V30 3965 C 376.269 -4.33806 -1.11877 0
M  V30 3966 C 378.013 -3.32364 -2.64073 0
M  V30 3967 C 375.92 -5.57467 -1.97445 0
M  V30 3968 H 374.85 -0.642647 -0.394361 0
M  V30 3969 H 377.501 -1.80966 -0.303929 0
M  V30 3970 H 375.883 -2.90451 -2.69173 0
M  V30 3971 H 377.057 -4.59199 -0.383843 0
M  V30 3972 H 375.372 -4.13336 -0.504252 0
M  V30 3973 H 377.969 -4.21951 -3.28423 0
M  V30 3974 H 378.312 -2.50745 -3.32314 0
M  V30 3975 H 378.845 -3.47875 -1.92944 0
M  V30 3976 H 375.584 -6.41722 -1.33692 0
M  V30 3977 H 375.104 -5.36277 -2.6864 0
M  V30 3978 H 376.783 -5.94303 -2.5576 0
M  V30 3979 N 376.915 0.57481 -1.46744 0
M  V30 3980 C 378.331 0.898981 -1.31873 0
M  V30 3981 C 378.531 1.99313 -0.29605 0
M  V30 3982 O 377.587 2.50728 0.298621 0
M  V30 3983 C 378.9 1.30886 -2.7072 0
M  V30 3984 C 380.448 1.42127 -2.78871 0
M  V30 3985 C 380.923 1.86478 -4.18318 0
M  V30 3986 N 382.414 1.93658 -4.20774 0
M  V30 3987 C 383.149 2.29267 -5.2557 0
M  V30 3988 N 382.645 2.63612 -6.40688 0
M  V30 3989 N 384.438 2.29889 -5.1294 0
M  V30 3990 H 376.589 -0.147839 -2.11885 0
M  V30 3991 H 378.852 -0.00347013 -0.947994 0
M  V30 3992 H 378.558 0.578853 -3.46904 0
M  V30 3993 H 378.432 2.26874 -3.01343 0
M  V30 3994 H 380.819 2.14213 -2.0297 0
M  V30 3995 H 380.9 0.443705 -2.51922 0
M  V30 3996 H 380.544 1.14968 -4.94717 0
M  V30 3997 H 380.474 2.85207 -4.42679 0
M  V30 3998 H 382.965 1.69574 -3.37718 0
M  V30 3999 H 383.278 2.89759 -7.16421 0
M  V30 4000 H 381.623 2.61232 -6.44036 0
M  V30 4001 H 384.814 2.02485 -4.22039 0
M  V30 4002 H 384.987 2.57312 -5.94722 0
M  V30 4003 N 378.394 1.34581 0.820102 0
M  V30 4004 C 379.642 1.26845 1.57336 0
M  V30 4005 C 379.963 -0.160667 1.94337 0
M  V30 4006 O 379.233 -1.09396 1.6251 0
M  V30 4007 H 377.813 0.466514 0.583415 0
M  V30 4008 H 380.475 1.68526 0.979027 0
M  V30 4009 H 379.571 1.87513 2.4949 0
M  V30 4010 N 379.872 -1.04064 1.18357 0
M  V30 4011 C 381.121 -1.76662 0.973313 0
M  V30 4012 C 381.434 -1.89154 -0.497991 0
M  V30 4013 O 382.64 -2.58606 -0.826762 0
M  V30 4014 C 381.096 -3.17624 1.69242 0
M  V30 4015 C 380.704 -3.13225 3.20303 0
M  V30 4016 C 382.448 -3.946 1.56497 0
M  V30 4017 C 380.355 -4.49046 3.84853 0
M  V30 4018 H 379.285 -0.662214 0.36054 0
M  V30 4019 H 381.936 -1.16553 1.41731 0
M  V30 4020 H 380.318 -3.78129 1.1762 0
M  V30 4021 H 381.492 -2.62172 3.78949 0
M  V30 4022 H 379.807 -2.49749 3.33189 0
M  V30 4023 H 382.404 -4.95042 2.02084 0
M  V30 4024 H 382.747 -4.13074 0.517243 0
M  V30 4025 H 383.28 -3.4067 2.05399 0
M  V30 4026 H 380.019 -4.35777 4.89672 0
M  V30 4027 H 379.539 -5.00203 3.30994 0
M  V30 4028 H 381.218 -5.17961 3.87718 0
M  V30 4029 N 381.35 -0.985608 -1.22978 0
M  V30 4030 C 382.282 -0.488154 -2.23941 0
M  V30 4031 C 383.295 0.41282 -1.57479 0
M  V30 4032 O 384.484 0.216121 -1.77187 0
M  V30 4033 C 381.584 0.312611 -3.37455 0
M  V30 4034 C 380.757 -0.582741 -4.33501 0
M  V30 4035 C 379.816 0.165064 -5.25941 0
M  V30 4036 O 378.842 -0.447077 -5.67442 0
M  V30 4037 N 380.044 1.44953 -5.62111 0
M  V30 4038 H 382.809 -1.3563 -2.67254 0
M  V30 4039 H 380.37 -0.859477 -1.37203 0
M  V30 4040 H 382.362 0.821357 -3.96277 0
M  V30 4041 H 380.932 1.0818 -2.93285 0
M  V30 4042 H 380.152 -1.27225 -3.73105 0
M  V30 4043 H 381.44 -1.19275 -4.94622 0
M  V30 4044 H 380.838 1.9683 -5.30353 0
M  V30 4045 H 379.395 1.90361 -6.23383 0
M  V30 4046 N 382.828 1.3818 -0.7579 0
M  V30 4047 C 384.053 2.04827 -0.325679 0
M  V30 4048 C 384.478 1.56788 1.03919 0
M  V30 4049 O 383.836 0.721811 1.66312 0
M  V30 4050 C 383.884 3.58774 -0.362447 0
M  V30 4051 O 382.988 4.07372 0.642033 0
M  V30 4052 H 382.329 0.64833 -0.143402 0
M  V30 4053 H 384.859 1.7677 -1.03023 0
M  V30 4054 H 384.869 4.07434 -0.214844 0
M  V30 4055 H 383.544 3.93096 -1.35824 0
M  V30 4056 H 382.121 3.70068 0.458688 0
M  V30 4057 N 384.306 0.507319 1.49211 0
M  V30 4058 C 385.236 -0.256939 2.32082 0
M  V30 4059 C 386.217 -0.956609 1.40652 0
M  V30 4060 O 387.402 -0.946788 1.69557 0
M  V30 4061 C 384.532 -1.31802 3.21318 0
M  V30 4062 C 383.486 -0.737855 4.21592 0
M  V30 4063 C 382.812 -1.89992 4.99807 0
M  V30 4064 C 384.112 0.275325 5.21574 0
M  V30 4065 H 385.806 0.434798 2.96226 0
M  V30 4066 H 383.352 0.210546 1.42452 0
M  V30 4067 H 385.305 -1.86045 3.78107 0
M  V30 4068 H 384.029 -2.03903 2.5513 0
M  V30 4069 H 382.688 -0.217126 3.65956 0
M  V30 4070 H 382.336 -2.60877 4.30061 0
M  V30 4071 H 382.036 -1.51777 5.6766 0
M  V30 4072 H 383.56 -2.44657 5.59442 0
M  V30 4073 H 384.974 -0.179193 5.7302 0
M  V30 4074 H 383.371 0.573649 5.97352 0
M  V30 4075 H 384.441 1.18903 4.70096 0
M  V30 4076 N 385.784 -1.5574 0.241426 0
M  V30 4077 C 387.014 -2.02913 -0.38857 0
M  V30 4078 C 387.422 -1.12014 -1.52478 0
M  V30 4079 O 386.765 -0.125903 -1.83268 0
M  V30 4080 C 386.827 -3.4636 -0.963075 0
M  V30 4081 C 386.491 -4.56982 0.0401916 0
M  V30 4082 C 387.488 -5.12941 0.847766 0
M  V30 4083 C 385.173 -5.0203 0.164699 0
M  V30 4084 C 387.167 -6.12437 1.76636 0
M  V30 4085 C 384.854 -6.01358 1.0868 0
M  V30 4086 C 385.852 -6.5644 1.88616 0
M  V30 4087 O 385.54 -7.53831 2.79273 0
M  V30 4088 H 385.272 -0.668983 -0.0971452 0
M  V30 4089 H 387.826 -2.02198 0.361248 0
M  V30 4090 H 386.056 -3.44206 -1.76235 0
M  V30 4091 H 387.745 -3.77065 -1.50257 0
M  V30 4092 H 388.511 -4.78974 0.762133 0
M  V30 4093 H 384.39 -4.58824 -0.447411 0
M  V30 4094 H 387.934 -6.55355 2.39071 0
M  V30 4095 H 383.831 -6.34746 1.17338 0
M  V30 4096 H 384.599 -7.71428 2.73572 0
M  V30 4097 N 387.262 0.0317525 -1.57568 0
M  V30 4098 C 388.51 0.721676 -1.88776 0
M  V30 4099 C 388.831 1.76039 -0.838772 0
M  V30 4100 O 388.101 1.95482 0.127935 0
M  V30 4101 H 386.681 0.269534 -0.696678 0
M  V30 4102 H 389.343 -0.00165879 -1.949 0
M  V30 4103 H 388.439 1.21293 -2.87566 0
M  V30 4104 N 388.74 1.54641 0.303973 0
M  V30 4105 C 390.017 1.64455 1.05896 0
M  V30 4106 C 390.397 0.490923 2.05312 0
M  V30 4107 O 389.745 -0.512685 2.22674 0
M  V30 4108 C 389.955 3.02331 1.74347 0
M  V30 4109 C 391.303 3.59045 2.26653 0
M  V30 4110 O 392.327 3.04764 1.84384 0
M  V30 4111 O 391.186 4.54081 3.04093 0
M  V30 4112 H 388.28 0.666729 0.489287 0
M  V30 4113 H 390.826 1.66986 0.302298 0
M  V30 4114 H 389.598 3.77734 1.02142 0
M  V30 4115 H 389.221 3.03565 2.56777 0
M  V30 4116 N 390.218 -0.567019 1.47046 0
M  V30 4117 C 391.629 -1.14916 1.47143 0
M  V30 4118 C 391.98 -1.94954 0.220767 0
M  V30 4119 O 391.105 -2.05602 -0.67505 0
M  V30 4120 C 391.7 -2.09069 2.666 0
M  V30 4121 C 390.259 -2.62575 2.69687 0
M  V30 4122 C 389.406 -1.38755 2.40088 0
M  V30 4123 H 392.357 -0.354126 1.54699 0
M  V30 4124 H 392.378 -2.92789 2.43011 0
M  V30 4125 H 391.89 -1.50789 3.57609 0
M  V30 4126 H 389.991 -3.24681 1.82792 0
M  V30 4127 H 390.104 -3.04239 3.70102 0
M  V30 4128 H 388.468 -1.69098 1.90468 0
M  V30 4129 H 389.251 -0.822822 3.33293 0
M  V30 4130 N 391.696 -1.35014 -0.812953 0
M  V30 4131 C 392.643 -1.27412 -1.92444 0
M  V30 4132 C 393.613 -0.14733 -1.65445 0
M  V30 4133 O 394.798 -0.329974 -1.87925 0
M  V30 4134 C 391.938 -1.04558 -3.28879 0
M  V30 4135 C 391.051 -2.26101 -3.68106 0
M  V30 4136 C 390.186 -1.96449 -4.9354 0
M  V30 4137 C 389.225 -3.14081 -5.25376 0
M  V30 4138 N 388.362 -2.84246 -6.41988 0
M  V30 4139 H 393.202 -2.22463 -1.98278 0
M  V30 4140 H 390.739 -1.10593 -0.969933 0
M  V30 4141 H 392.697 -0.893413 -4.07522 0
M  V30 4142 H 391.327 -0.131719 -3.22531 0
M  V30 4143 H 390.379 -2.52204 -2.84775 0
M  V30 4144 H 391.691 -3.13959 -3.87597 0
M  V30 4145 H 390.845 -1.78026 -5.79993 0
M  V30 4146 H 389.584 -1.05867 -4.76071 0
M  V30 4147 H 388.589 -3.33089 -4.37415 0
M  V30 4148 H 389.814 -4.05455 -5.44778 0
M  V30 4149 H 387.76 -1.96252 -6.25956 0
M  V30 4150 H 387.677 -3.65637 -6.61699 0
M  V30 4151 H 388.945 -2.6935 -7.31485 0
M  V30 4152 N 393.175 1.03435 -1.18907 0
M  V30 4153 C 394.085 2.15075 -0.937015 0
M  V30 4154 C 395.101 1.73706 0.101085 0
M  V30 4155 O 396.277 2.01232 -0.0822948 0
M  V30 4156 C 393.342 3.43458 -0.473057 0
M  V30 4157 C 392.403 3.99172 -1.57989 0
M  V30 4158 C 391.636 5.21427 -1.13797 0
M  V30 4159 O 391.859 5.704 0.000725941 0
M  V30 4160 O 390.793 5.69837 -1.9383 0
M  V30 4161 H 394.619 2.39198 -1.87131 0
M  V30 4162 H 392.204 1.13506 -0.971427 0
M  V30 4163 H 394.086 4.20811 -0.222702 0
M  V30 4164 H 392.761 3.20793 0.432869 0
M  V30 4165 H 391.668 3.23178 -1.88433 0
M  V30 4166 H 393.001 4.2619 -2.46217 0
M  V30 4167 N 394.653 0.992116 1.22453 0
M  V30 4168 C 395.601 0.534644 2.26372 0
M  V30 4169 C 396.595 -0.414293 1.64256 0
M  V30 4170 O 397.801 -0.286899 1.77699 0
M  V30 4171 H 394.176 0.154502 0.735957 0
M  V30 4172 H 396.147 1.42256 2.62309 0
M  V30 4173 C 394.896 -0.135815 3.47435 0
M  V30 4174 H 394.219 0.585311 3.95492 0
M  V30 4175 H 395.659 -0.419374 4.21921 0
M  V30 4176 C 394.118 -1.37089 3.07747 0
M  V30 4177 O 394.648 -2.46629 3.17076 0
M  V30 4178 N 392.854 -1.24585 2.62539 0
M  V30 4179 H 392.401 -0.354542 2.55149 0
M  V30 4180 H 392.359 -2.07327 2.36353 0
M  V30 4181 N 396.131 -1.37776 0.765217 0
M  V30 4182 C 397.063 -2.28958 0.105361 0
M  V30 4183 C 398.076 -1.48316 -0.67128 0
M  V30 4184 O 399.265 -1.71046 -0.51045 0
M  V30 4185 C 396.365 -3.27421 -0.874569 0
M  V30 4186 C 395.538 -4.37132 -0.153123 0
M  V30 4187 C 394.597 -5.1571 -1.04547 0
M  V30 4188 O 393.623 -5.66896 -0.511672 0
M  V30 4189 N 394.825 -5.29808 -2.37243 0
M  V30 4190 H 397.59 -2.86227 0.888495 0
M  V30 4191 H 395.151 -1.49682 0.617 0
M  V30 4192 H 397.143 -3.7687 -1.47483 0
M  V30 4193 H 395.713 -2.70967 -1.55871 0
M  V30 4194 H 394.933 -3.89166 0.627975 0
M  V30 4195 H 396.221 -5.07625 0.345643 0
M  V30 4196 H 395.619 -4.89793 -2.83054 0
M  V30 4197 H 394.176 -5.82589 -2.9229 0
M  V30 4198 N 397.609 -0.515225 -1.4894 0
M  V30 4199 C 399.025 -0.172099 -1.58669 0
M  V30 4200 C 399.225 1.32405 -1.51892 0
M  V30 4201 O 398.281 2.10116 -1.40027 0
M  V30 4202 C 399.594 -0.761533 -2.90897 0
M  V30 4203 C 401.142 -0.728926 -3.04394 0
M  V30 4204 C 401.617 -1.29667 -4.39261 0
M  V30 4205 N 403.108 -1.25799 -4.4579 0
M  V30 4206 C 403.843 -1.66733 -5.48623 0
M  V30 4207 N 403.339 -2.15327 -6.58488 0
M  V30 4208 N 405.132 -1.58061 -5.39419 0
M  V30 4209 H 397.283 -1.48778 -1.51588 0
M  V30 4210 H 399.546 -0.617968 -0.718901 0
M  V30 4211 H 399.252 -1.81136 -3.01468 0
M  V30 4212 H 399.126 -0.230106 -3.76497 0
M  V30 4213 H 401.513 0.312098 -2.93445 0
M  V30 4214 H 401.594 -1.29766 -2.20442 0
M  V30 4215 H 401.238 -2.33655 -4.50963 0
M  V30 4216 H 401.168 -0.703752 -5.21876 0
M  V30 4217 H 403.659 -0.902102 -3.66975 0
M  V30 4218 H 403.972 -2.44594 -7.33071 0
M  V30 4219 H 402.317 -2.19311 -6.59491 0
M  V30 4220 H 405.508 -1.19906 -4.52482 0
M  V30 4221 H 405.681 -1.90284 -6.19432 0
M  V30 4222 N 399.087 1.5561 -0.249682 0
M  V30 4223 C 400.017 2.24477 0.642826 0
M  V30 4224 C 400.998 1.22601 1.17911 0
M  V30 4225 O 402.183 1.5126 1.21795 0
M  V30 4226 C 399.313 2.94638 1.83863 0
M  V30 4227 C 398.267 4.03227 1.435 0
M  V30 4228 C 397.593 4.60828 2.71186 0
M  V30 4229 C 398.893 5.18796 0.604002 0
M  V30 4230 H 400.587 2.99321 0.0685625 0
M  V30 4231 H 398.133 1.43965 0.0315363 0
M  V30 4232 H 400.086 3.41517 2.46868 0
M  V30 4233 H 398.81 2.17287 2.43832 0
M  V30 4234 H 397.469 3.57121 0.828275 0
M  V30 4235 H 397.117 3.80174 3.29358 0
M  V30 4236 H 396.817 5.34132 2.44901 0
M  V30 4237 H 398.341 5.10442 3.35084 0
M  V30 4238 H 399.755 5.61883 1.13842 0
M  V30 4239 H 398.152 5.98506 0.437097 0
M  V30 4240 H 399.222 4.83384 -0.383147 0
M  V30 4241 N 400.565 -0.0233959 1.57583 0
M  V30 4242 C 401.976 -0.56927 1.77809 0
M  V30 4243 C 402.327 -1.75284 0.881472 0
M  V30 4244 O 401.452 -2.1626 0.0777805 0
M  V30 4245 C 402.047 -1.03949 3.22459 0
M  V30 4246 C 400.606 -1.53084 3.43864 0
M  V30 4247 C 399.753 -0.471454 2.73263 0
M  V30 4248 H 402.704 0.202825 1.57399 0
M  V30 4249 H 402.725 -1.90661 3.29285 0
M  V30 4250 H 402.237 -0.177865 3.87692 0
M  V30 4251 H 400.338 -2.41414 2.83814 0
M  V30 4252 H 400.451 -1.57443 4.52491 0
M  V30 4253 H 398.815 -0.927788 2.37201 0
M  V30 4254 H 399.598 0.380808 3.41181 0
M  V30 4255 N 402.043 -1.548 -0.295768 0
M  V30 4256 C 402.991 -1.86874 -1.38495 0
M  V30 4257 C 403.985 -0.742938 -1.52239 0
M  V30 4258 O 405.191 -0.926999 -1.54294 0
M  V30 4259 H 401.566 -0.592786 -0.462719 0
M  V30 4260 H 403.537 -2.77904 -1.08682 0
M  V30 4261 C 402.286 -2.13732 -2.74252 0
M  V30 4262 H 401.609 -2.99835 -2.64459 0
M  V30 4263 H 403.049 -2.4011 -3.49461 0
M  V30 4264 C 401.508 -0.937539 -3.23592 0
M  V30 4265 O 402.038 -0.160665 -4.01379 0
M  V30 4266 N 400.244 -0.741478 -2.80981 0
M  V30 4267 H 399.791 -1.37489 -2.1784 0
M  V30 4268 H 399.749 0.0597103 -3.14343 0
M  V30 4269 N 403.521 0.559213 -1.47345 0
M  V30 4270 C 404.932 1.14134 -1.47751 0
M  V30 4271 C 405.283 1.94834 -0.231103 0
M  V30 4272 O 404.408 2.05957 0.664137 0
M  V30 4273 C 405.003 2.07653 -2.67705 0
M  V30 4274 C 403.562 2.61141 -2.71076 0
M  V30 4275 C 402.709 1.3748 -2.40821 0
M  V30 4276 H 405.66 0.345917 -1.54884 0
M  V30 4277 H 405.681 2.91497 -2.44561 0
M  V30 4278 H 405.193 1.4889 -3.58404 0
M  V30 4279 H 403.294 3.23707 -1.84511 0
M  V30 4280 H 403.407 3.02272 -3.7171 0
M  V30 4281 H 401.771 1.68086 -1.91362 0
M  V30 4282 H 402.554 0.805135 -3.33725 0
M  V30 4283 N 404.999 1.35443 0.805782 0
M  V30 4284 C 406.276 1.19325 1.54987 0
M  V30 4285 C 406.656 -0.227294 2.09873 0
M  V30 4286 O 406.004 -1.2309 1.92512 0
M  V30 4287 C 406.214 2.26196 2.65775 0
M  V30 4288 C 407.562 2.62043 3.34094 0
M  V30 4289 O 408.586 2.25115 2.76046 0
M  V30 4290 O 407.445 3.25542 4.38958 0
M  V30 4291 H 404.539 0.463623 0.684823 0
M  V30 4292 H 407.085 1.47127 0.845674 0
M  V30 4293 H 405.857 3.21471 2.23096 0
M  V30 4294 H 405.48 1.99667 3.43829 0
M  V30 4295 N 406.477 -1.02803 1.19454 0
M  V30 4296 C 407.425 -2.13213 0.929673 0
M  V30 4297 C 408.419 -1.69011 -0.114806 0
M  V30 4298 O 409.625 -1.79967 0.0345147 0
M  V30 4299 H 406 -0.69662 0.28324 0
M  V30 4300 H 407.971 -2.32744 1.86743 0
M  V30 4301 C 406.72 -3.4429 0.485797 0
M  V30 4302 H 406.043 -3.7872 1.28105 0
M  V30 4303 H 407.483 -4.22638 0.339582 0
M  V30 4304 C 405.942 -3.27258 -0.800244 0
M  V30 4305 O 406.472 -3.55967 -1.86146 0
M  V30 4306 N 404.678 -2.80545 -0.75781 0
M  V30 4307 H 404.225 -2.57382 0.106039 0
M  V30 4308 H 404.183 -2.6953 -1.61867 0
M  V30 4309 N 407.956 -0.998596 -1.21925 0
M  V30 4310 C 409.181 -0.696015 -1.95372 0
M  V30 4311 C 409.606 0.733826 -1.73195 0
M  V30 4312 O 408.964 1.50242 -1.01474 0
M  V30 4313 C 409.012 -1.01466 -3.4603 0
M  V30 4314 O 408.116 -0.116415 -4.12236 0
M  V30 4315 H 407.457 -0.259938 -0.611006 0
M  V30 4316 H 409.987 -1.33711 -1.54863 0
M  V30 4317 H 409.997 -0.958855 -3.96573 0
M  V30 4318 H 408.672 -2.05653 -3.61497 0
M  V30 4319 H 407.249 -0.228193 -3.72201 0
M  V30 4320 N 409.434 1.37368 -0.772513 0
M  V30 4321 C 410.344 2.34053 -0.160081 0
M  V30 4322 C 411.36 1.60216 0.678728 0
M  V30 4323 O 412.536 1.92303 0.59847 0
M  V30 4324 C 409.601 3.3939 0.708182 0
M  V30 4325 C 408.662 4.29048 -0.147172 0
M  V30 4326 C 407.895 5.29354 0.679744 0
M  V30 4327 O 408.118 5.3723 1.91678 0
M  V30 4328 O 407.052 6.01835 0.0885444 0
M  V30 4329 H 410.878 2.88159 -0.959053 0
M  V30 4330 H 408.463 1.39543 -0.533685 0
M  V30 4331 H 410.345 4.03839 1.20384 0
M  V30 4332 H 409.02 2.8761 1.48533 0
M  V30 4333 H 407.927 3.67697 -0.689205 0
M  V30 4334 H 409.26 4.84134 -0.887423 0
M  V30 4335 N 410.912 0.523116 1.48665 0
M  V30 4336 C 412.323 0.0808997 1.86525 0
M  V30 4337 C 412.674 -1.33975 1.43336 0
M  V30 4338 O 411.799 -2.00221 0.821009 0
M  V30 4339 C 412.394 0.140037 3.3851 0
M  V30 4340 C 410.953 -0.246948 3.75589 0
M  V30 4341 C 410.1 0.502845 2.72703 0
M  V30 4342 H 413.051 0.734736 1.40667 0
M  V30 4343 H 413.072 -0.649945 3.74908 0
M  V30 4344 H 412.584 1.17412 3.69914 0
M  V30 4345 H 410.685 -1.28343 3.49798 0
M  V30 4346 H 410.798 0.0878859 4.79019 0
M  V30 4347 H 409.162 -0.0500581 2.54651 0
M  V30 4348 H 409.945 1.53743 3.0695 0
M  V30 4349 N 412.39 -1.55475 0.257931 0
M  V30 4350 C 413.353 -2.20551 -0.623706 0
M  V30 4351 C 414.353 -1.17809 -1.09443 0
M  V30 4352 O 415.543 -1.42823 -0.997362 0
M  V30 4353 C 412.675 -2.85784 -1.8585 0
M  V30 4354 H 413.868 -2.99848 -0.0557743 0
M  V30 4355 H 411.421 -1.56298 0.0084422 0
M  V30 4356 H 412.156 -2.10453 -2.46739 0
M  V30 4357 H 411.941 -3.61057 -1.52907 0
M  V30 4358 H 413.431 -3.35553 -2.48584 0
M  V30 4359 N 413.868 0.0150385 -1.57593 0
M  V30 4360 C 414.798 1.01047 -2.10503 0
M  V30 4361 C 415.779 1.36816 -1.01071 0
M  V30 4362 O 416.964 1.45455 -1.28672 0
M  V30 4363 C 414.094 2.30708 -2.59598 0
M  V30 4364 C 413.048 2.09142 -3.73421 0
M  V30 4365 C 412.374 3.44685 -4.08774 0
M  V30 4366 C 413.674 1.46619 -5.01298 0
M  V30 4367 H 415.368 0.569978 -2.93925 0
M  V30 4368 H 412.914 0.272724 -1.41394 0
M  V30 4369 H 414.867 3.00687 -2.95238 0
M  V30 4370 H 413.591 2.76843 -1.73279 0
M  V30 4371 H 412.25 1.41592 -3.38153 0
M  V30 4372 H 411.898 3.88495 -3.195 0
M  V30 4373 H 411.598 3.31077 -4.8545 0
M  V30 4374 H 413.122 4.16004 -4.4696 0
M  V30 4375 H 414.536 2.06535 -5.34805 0
M  V30 4376 H 412.933 1.43544 -5.82679 0
M  V30 4377 H 414.003 0.433611 -4.82957 0
M  V30 4378 N 415.346 1.54954 0.287554 0
M  V30 4379 C 416.586 1.76617 1.02887 0
M  V30 4380 C 416.95 0.547759 1.84021 0
M  V30 4381 O 418.151 0.642365 2.61012 0
M  V30 4382 C 416.422 3.02717 1.89993 0
M  V30 4383 S 417.981 3.45438 2.70588 0
M  V30 4384 H 414.799 0.6207 0.346775 0
M  V30 4385 H 417.401 1.93172 0.30082 0
M  V30 4386 H 416.105 3.89503 1.29287 0
M  V30 4387 H 415.636 2.88787 2.67144 0
M  V30 4388 H 417.651 3.03566 3.92508 0
M  V30 4389 N 416.824 -0.551391 1.4764 0
M  V30 4390 C 418.101 -1.31229 1.45046 0
M  V30 4391 C 418.481 -2.10563 0.150527 0
M  V30 4392 O 417.829 -2.11374 -0.867956 0
M  V30 4393 C 418.039 -2.21189 2.69956 0
M  V30 4394 C 419.387 -2.82021 3.1741 0
M  V30 4395 O 420.411 -2.31488 2.70724 0
M  V30 4396 O 419.27 -3.73885 3.98588 0
M  V30 4397 H 416.364 -0.591193 0.578291 0
M  V30 4398 H 418.91 -0.569813 1.59847 0
M  V30 4399 H 417.682 -1.62207 3.56096 0
M  V30 4400 H 417.305 -3.02722 2.57769 0
M  V30 4401 N 418.302 -1.35869 -0.798587 0
M  V30 4402 C 419.713 -1.26498 -1.37314 0
M  V30 4403 C 420.064 0.0991899 -1.95949 0
M  V30 4404 O 419.189 1.0004 -1.91888 0
M  V30 4405 C 419.784 -2.29054 -2.49639 0
M  V30 4406 C 418.343 -2.234 -3.02935 0
M  V30 4407 C 417.49 -2.14329 -1.75949 0
M  V30 4408 H 420.441 -1.46881 -0.600971 0
M  V30 4409 H 420.462 -1.92166 -3.28409 0
M  V30 4410 H 419.974 -3.2833 -2.06933 0
M  V30 4411 H 418.075 -1.27562 -3.50084 0
M  V30 4412 H 418.188 -3.15703 -3.60372 0
M  V30 4413 H 416.552 -1.60435 -1.9782 0
M  V30 4414 H 417.335 -3.15477 -1.35384 0
M  V30 4415 N 419.78 1.02168 -1.19998 0
M  V30 4416 C 420.728 2.12717 -0.940967 0
M  V30 4417 C 421.722 1.69069 0.105841 0
M  V30 4418 O 422.928 1.79946 -0.0440583 0
M  V30 4419 H 419.303 0.695108 -0.28693 0
M  V30 4420 H 421.274 2.3175 -1.87975 0
M  V30 4421 C 420.023 3.44027 -0.504049 0
M  V30 4422 H 419.346 3.78036 -1.30112 0
M  V30 4423 H 420.786 4.22452 -0.361991 0
M  V30 4424 C 419.245 3.27678 0.782878 0
M  V30 4425 O 419.775 3.56949 1.84256 0
M  V30 4426 N 417.981 2.80943 0.742921 0
M  V30 4427 H 417.528 2.57322 -0.119687 0
M  V30 4428 H 417.486 2.70385 1.60435 0
M  V30 4429 N 421.258 1.00505 1.21394 0
M  V30 4430 C 422.188 0.585684 2.26035 0
M  V30 4431 C 423.169 -0.393525 1.65485 0
M  V30 4432 O 424.354 -0.281497 1.92149 0
M  V30 4433 C 421.484 -0.0884283 3.47187 0
M  V30 4434 C 420.438 0.810567 4.20254 0
M  V30 4435 C 419.764 0.00286382 5.347 0
M  V30 4436 C 421.064 2.1132 4.77641 0
M  V30 4437 H 422.758 1.46039 2.61368 0
M  V30 4438 H 420.304 0.703648 1.25638 0
M  V30 4439 H 422.257 -0.393286 4.19561 0
M  V30 4440 H 420.981 -0.997766 3.10986 0
M  V30 4441 H 419.64 1.09925 3.49731 0
M  V30 4442 H 419.288 -0.907765 4.94741 0
M  V30 4443 H 418.988 0.601444 5.84514 0
M  V30 4444 H 420.512 -0.295808 6.09883 0
M  V30 4445 H 421.926 1.87148 5.41893 0
M  V30 4446 H 420.323 2.66164 5.37845 0
M  V30 4447 H 421.393 2.78393 3.9702 0
M  V30 4448 N 422.737 -1.36956 0.779787 0
M  V30 4449 C 423.962 -2.04283 0.358224 0
M  V30 4450 C 424.387 -1.58422 -1.01411 0
M  V30 4451 O 423.745 -0.748179 -1.65142 0
M  V30 4452 C 423.793 -3.58152 0.419479 0
M  V30 4453 O 422.897 -4.08342 -0.577142 0
M  V30 4454 H 422.238 -0.645967 0.153698 0
M  V30 4455 H 424.768 -1.75108 1.05822 0
M  V30 4456 H 424.778 -4.07041 0.279636 0
M  V30 4457 H 423.453 -3.90886 1.42061 0
M  V30 4458 H 422.03 -3.70751 -0.399755 0
M  V30 4459 N 424.215 -0.530993 -1.48385 0
M  V30 4460 C 425.462 0.0027373 -2.025 0
M  V30 4461 C 425.79 1.34186 -1.40799 0
M  V30 4462 O 425.045 1.88 -0.543544 0
M  V30 4463 C 425.344 0.172742 -3.56982 0
M  V30 4464 C 425.01 -1.09215 -4.37473 0
M  V30 4465 C 423.672 -1.43881 -4.59186 0
M  V30 4466 C 426.024 -1.93153 -4.84088 0
M  V30 4467 C 423.352 -2.62381 -5.2476 0
M  V30 4468 C 425.704 -3.10833 -5.50968 0
M  V30 4469 C 424.368 -3.45843 -5.70919 0
M  V30 4470 H 423.638 0.00100165 -0.740999 0
M  V30 4471 H 426.285 -0.697219 -1.78357 0
M  V30 4472 H 424.59 0.955473 -3.79971 0
M  V30 4473 H 426.287 0.600642 -3.96476 0
M  V30 4474 H 422.877 -0.812177 -4.20834 0
M  V30 4475 H 427.061 -1.67683 -4.67115 0
M  V30 4476 H 422.317 -2.89707 -5.38405 0
M  V30 4477 H 426.491 -3.7618 -5.86056 0
M  V30 4478 H 424.118 -4.37764 -6.21503 0
M  V30 4479 N 425.693 1.55336 -0.266172 0
M  V30 4480 C 426.97 1.91372 0.404486 0
M  V30 4481 C 427.35 1.18935 1.74407 0
M  V30 4482 O 426.698 0.3132 2.26343 0
M  V30 4483 C 426.908 3.44581 0.553593 0
M  V30 4484 C 428.256 4.16196 0.840618 0
M  V30 4485 O 429.28 3.50426 0.638739 0
M  V30 4486 O 428.139 5.32567 1.22618 0
M  V30 4487 H 425.233 0.797194 0.220025 0
M  V30 4488 H 427.779 1.66813 -0.311664 0
M  V30 4489 H 426.551 3.89357 -0.389498 0
M  V30 4490 H 426.174 3.75065 1.31955 0
M  V30 4491 N 427.171 -0.0066808 1.57599 0
M  V30 4492 C 428.134 -0.985035 2.06953 0
M  V30 4493 C 429.134 -1.27663 0.977687 0
M  V30 4494 O 430.324 -1.22293 1.24057 0
M  V30 4495 C 427.456 -2.3118 2.50536 0
M  V30 4496 H 428.649 -0.558255 2.94658 0
M  V30 4497 H 426.202 -0.254011 1.54222 0
M  V30 4498 H 426.937 -2.78561 1.66054 0
M  V30 4499 H 426.722 -2.11338 3.3027 0
M  V30 4500 H 428.212 -3.01377 2.8907 0
M  V30 4501 N 428.649 -1.55105 -0.279332 0
M  V30 4502 C 429.895 -1.75672 -1.01327 0
M  V30 4503 C 430.228 -0.552739 -1.86168 0
M  V30 4504 O 429.503 0.449827 -1.89227 0
M  V30 4505 C 429.786 -3.05825 -1.90114 0
M  V30 4506 C 429.639 -4.36565 -1.08309 0
M  V30 4507 C 430.958 -3.31975 -2.8893 0
M  V30 4508 H 428.077 -0.639149 -0.366957 0
M  V30 4509 H 430.719 -1.87833 -0.286154 0
M  V30 4510 H 428.869 -2.95588 -2.52111 0
M  V30 4511 H 430.541 -4.58751 -0.484314 0
M  V30 4512 H 428.784 -4.32076 -0.386362 0
M  V30 4513 H 429.455 -5.23946 -1.73737 0
M  V30 4514 H 431.931 -3.41963 -2.37067 0
M  V30 4515 H 430.807 -4.2432 -3.48201 0
M  V30 4516 H 431.068 -2.51309 -3.63725 0
M  V30 4517 N 430.127 0.543554 -1.4793 0
M  V30 4518 C 431.355 1.32516 -1.58894 0
M  V30 4519 C 431.77 1.87215 -0.244131 0
M  V30 4520 O 431.127 1.65709 0.764652 0
M  V30 4521 C 431.178 2.48554 -2.62494 0
M  V30 4522 O 430.899 1.96112 -3.91755 0
M  V30 4523 C 432.4 3.40572 -2.8377 0
M  V30 4524 H 429.62 0.403472 -0.536145 0
M  V30 4525 H 432.164 0.657106 -1.93655 0
M  V30 4526 H 430.319 3.1127 -2.30629 0
M  V30 4527 H 430.733 2.71967 -4.4848 0
M  V30 4528 H 432.207 4.18375 -3.60093 0
M  V30 4529 H 432.684 3.94965 -1.92092 0
M  V30 4530 H 433.29 2.8366 -3.16887 0
M  V30 4531 N 431.605 1.3629 0.791371 0
M  V30 4532 C 432.833 1.33562 1.58016 0
M  V30 4533 C 433.248 -0.0835616 1.88615 0
M  V30 4534 O 432.605 -1.0399 1.49974 0
M  V30 4535 C 432.656 2.15517 2.90232 0
M  V30 4536 O 432.377 3.51902 2.60953 0
M  V30 4537 C 433.878 2.20546 3.84544 0
M  V30 4538 H 431.098 0.458226 0.490173 0
M  V30 4539 H 433.642 1.79361 0.982345 0
M  V30 4540 H 431.797 1.73278 3.46487 0
M  V30 4541 H 432.211 3.94644 3.4548 0
M  V30 4542 H 433.685 2.82252 4.74382 0
M  V30 4543 H 434.162 1.20838 4.2225 0
M  V30 4544 H 434.768 2.63013 3.34222 0
M  V30 4545 N 433.083 -1.0153 1.20538 0
M  V30 4546 C 434.329 -1.75408 1.01783 0
M  V30 4547 C 434.662 -1.88943 -0.448814 0
M  V30 4548 O 433.937 -1.4162 -1.33319 0
M  V30 4549 C 434.22 -3.17255 1.70356 0
M  V30 4550 C 434.073 -3.11508 3.24473 0
M  V30 4551 C 435.392 -4.15955 1.43769 0
M  V30 4552 H 432.511 -0.636713 0.371167 0
M  V30 4553 H 435.153 -1.18436 1.4857 0
M  V30 4554 H 433.303 -3.65898 1.30578 0
M  V30 4555 H 434.975 -2.70658 3.73553 0
M  V30 4556 H 433.218 -2.4887 3.55311 0
M  V30 4557 H 433.889 -4.11784 3.67611 0
M  V30 4558 H 436.365 -3.75973 1.7828 0
M  V30 4559 H 435.241 -5.13368 1.94279 0
M  V30 4560 H 435.502 -4.40586 0.365564 0
M  V30 4561 N 434.561 -1.01147 -1.20859 0
M  V30 4562 C 435.809 -0.696486 -1.89719 0
M  V30 4563 C 436.13 0.775788 -1.78904 0
M  V30 4564 O 435.4 1.55759 -1.18811 0
M  V30 4565 H 433.98 -0.254628 -0.702263 0
M  V30 4566 H 436.642 -1.28197 -1.46804 0
M  V30 4567 H 435.738 -0.975357 -2.96468 0
M  V30 4568 N 436.039 1.36541 -0.78704 0
M  V30 4569 C 436.987 2.31965 -0.171724 0
M  V30 4570 C 437.981 1.55689 0.667631 0
M  V30 4571 O 439.187 1.70969 0.562981 0
M  V30 4572 H 435.562 0.751101 -0.0367545 0
M  V30 4573 H 437.533 2.81428 -0.992017 0
M  V30 4574 C 436.282 3.40968 0.680904 0
M  V30 4575 H 435.605 3.99775 0.0443961 0
M  V30 4576 H 437.045 4.10063 1.07815 0
M  V30 4577 C 435.504 2.82338 1.83813 0
M  V30 4578 O 436.034 2.74311 2.93456 0
M  V30 4579 N 434.24 2.39661 1.6435 0
M  V30 4580 H 433.787 2.46389 0.751668 0
M  V30 4581 H 433.745 2.00779 2.4194 0
M  V30 4582 N 437.518 0.538854 1.48102 0
M  V30 4583 C 438.465 -0.219042 2.29758 0
M  V30 4584 C 439.435 -0.925562 1.37922 0
M  V30 4585 O 440.62 -0.924855 1.66886 0
M  V30 4586 C 437.76 -1.25452 3.2149 0
M  V30 4587 C 436.873 -0.555943 4.28408 0
M  V30 4588 C 436.008 -1.57512 5.0731 0
M  V30 4589 C 435.047 -0.860498 6.06021 0
M  V30 4590 N 434.184 -1.82564 6.77949 0
M  V30 4591 H 439.024 0.483449 2.94052 0
M  V30 4592 H 436.561 0.250247 1.44956 0
M  V30 4593 H 438.519 -1.86727 3.7308 0
M  V30 4594 H 437.149 -1.92528 2.591 0
M  V30 4595 H 436.201 0.170938 3.80016 0
M  V30 4596 H 437.513 0.00474616 4.988 0
M  V30 4597 H 436.667 -2.26191 5.62959 0
M  V30 4598 H 435.406 -2.16972 4.36778 0
M  V30 4599 H 434.411 -0.159686 5.49568 0
M  V30 4600 H 435.636 -0.271897 6.78555 0
M  V30 4601 H 433.582 -2.40915 6.10161 0
M  V30 4602 H 433.499 -1.31662 7.44447 0
M  V30 4603 H 434.767 -2.50414 7.38182 0
M  V30 4604 N 438.996 -1.55193 0.274407 0
M  V30 4605 C 440.245 -1.98758 -0.343213 0
M  V30 4606 C 440.558 -1.16624 -1.5703 0
M  V30 4607 O 441.764 -1.5033 -2.26082 0
M  V30 4608 C 440.22 -3.53759 -0.661996 0
M  V30 4609 C 439.828 -4.4467 0.54524 0
M  V30 4610 C 441.572 -4.05916 -1.24228 0
M  V30 4611 C 439.479 -5.91058 0.201084 0
M  V30 4612 H 438.409 -0.742353 -0.132014 0
M  V30 4613 H 441.06 -1.79545 0.378948 0
M  V30 4614 H 439.442 -3.68772 -1.44304 0
M  V30 4615 H 440.616 -4.41426 1.32212 0
M  V30 4616 H 438.931 -4.03143 1.04232 0
M  V30 4617 H 441.528 -5.12831 -1.51357 0
M  V30 4618 H 441.871 -3.54908 -2.17592 0
M  V30 4619 H 442.404 -3.9434 -0.523542 0
M  V30 4620 H 439.143 -6.46161 1.10258 0
M  V30 4621 H 438.663 -5.97373 -0.539045 0
M  V30 4622 H 440.342 -6.46669 -0.206954 0
M  V30 4623 N 440.474 -0.00167713 -1.576 0
M  V30 4624 C 441.721 0.68282 -1.90641 0
M  V30 4625 C 442.049 1.73686 -0.875415 0
M  V30 4626 O 441.304 1.95334 0.119575 0
M  V30 4627 C 441.603 1.36189 -3.30435 0
M  V30 4628 C 441.269 0.440887 -4.48739 0
M  V30 4629 C 439.931 0.187312 -4.80835 0
M  V30 4630 C 442.283 -0.193134 -5.20842 0
M  V30 4631 C 439.611 -0.70855 -5.82406 0
M  V30 4632 C 441.963 -1.07688 -6.23367 0
M  V30 4633 C 440.627 -1.33962 -6.53919 0
M  V30 4634 H 439.897 0.249862 -0.697603 0
M  V30 4635 H 442.544 -0.0575642 -1.91413 0
M  V30 4636 H 440.849 2.17636 -3.25794 0
M  V30 4637 H 442.546 1.89759 -3.5326 0
M  V30 4638 H 439.136 0.648694 -4.23663 0
M  V30 4639 H 443.32 -0.0102445 -4.96299 0
M  V30 4640 H 438.576 -0.920097 -6.04437 0
M  V30 4641 H 442.75 -1.57451 -6.78367 0
M  V30 4642 H 440.377 -2.03549 -7.32442 0
M  V30 4643 N 441.952 1.55251 0.271103 0
M  V30 4644 C 443.199 1.75946 1.00245 0
M  V30 4645 C 443.527 0.561611 1.86215 0
M  V30 4646 O 442.782 -0.455832 1.90317 0
M  V30 4647 C 443.081 3.01879 1.91321 0
M  V30 4648 C 442.747 4.34337 1.21086 0
M  V30 4649 C 441.409 4.70338 1.01666 0
M  V30 4650 C 443.761 5.16325 0.71119 0
M  V30 4651 C 441.089 5.8588 0.310099 0
M  V30 4652 C 443.441 6.32597 0.0182157 0
M  V30 4653 C 442.105 6.67236 -0.18768 0
M  V30 4654 H 441.375 0.643833 0.366824 0
M  V30 4655 H 444.022 1.89521 0.27458 0
M  V30 4656 H 442.327 2.83212 2.70736 0
M  V30 4657 H 444.024 3.15088 2.48033 0
M  V30 4658 H 440.614 4.06043 1.37213 0
M  V30 4659 H 444.798 4.88987 0.848844 0
M  V30 4660 H 440.054 6.1124 0.139873 0
M  V30 4661 H 444.228 6.9538 -0.376711 0
M  V30 4662 H 441.855 7.56618 -0.73715 0
M  V30 4663 N 443.43 -0.535701 1.48216 0
M  V30 4664 C 444.677 -1.29183 1.55942 0
M  V30 4665 C 445.005 -1.93125 0.230857 0
M  V30 4666 O 444.26 -1.79556 -0.778331 0
M  V30 4667 C 444.559 -2.4068 2.64212 0
M  V30 4668 C 444.225 -1.94428 4.06827 0
M  V30 4669 C 442.887 -1.81532 4.45645 0
M  V30 4670 C 445.239 -1.59405 4.96225 0
M  V30 4671 C 442.567 -1.31939 5.71672 0
M  V30 4672 C 444.919 -1.11276 6.22736 0
M  V30 4673 C 443.583 -0.969924 6.60416 0
M  V30 4674 H 442.853 -0.472715 0.570632 0
M  V30 4675 H 445.5 -0.598437 1.81909 0
M  V30 4676 H 443.805 -3.15666 2.32083 0
M  V30 4677 H 445.502 -2.98822 2.67407 0
M  V30 4678 H 442.092 -2.05415 3.76168 0
M  V30 4679 H 446.276 -1.68231 4.66917 0
M  V30 4680 H 441.532 -1.19562 5.99596 0
M  V30 4681 H 445.706 -0.832453 6.91407 0
M  V30 4682 H 443.333 -0.583436 7.57958 0
M  V30 4683 N 444.908 -1.36708 -0.784132 0
M  V30 4684 C 445.855 -1.31466 -1.89698 0
M  V30 4685 C 446.825 -0.18239 -1.65096 0
M  V30 4686 O 448.01 -0.369762 -1.87183 0
M  V30 4687 C 445.15 -1.1151 -3.26588 0
M  V30 4688 C 444.263 -2.33859 -3.63227 0
M  V30 4689 C 443.398 -2.06873 -4.89262 0
M  V30 4690 C 442.437 -3.25154 -5.18595 0
M  V30 4691 N 441.574 -2.978 -6.35814 0
M  V30 4692 H 446.414 -2.26619 -1.93515 0
M  V30 4693 H 443.951 -1.12625 -0.946256 0
M  V30 4694 H 445.909 -0.979653 -4.05535 0
M  V30 4695 H 444.539 -0.200103 -3.22179 0
M  V30 4696 H 443.591 -2.58188 -2.79362 0
M  V30 4697 H 444.903 -3.22109 -3.8085 0
M  V30 4698 H 444.057 -1.90289 -5.76086 0
M  V30 4699 H 442.796 -1.15942 -4.73718 0
M  V30 4700 H 441.801 -3.42292 -4.30251 0
M  V30 4701 H 443.026 -4.1692 -5.36055 0
M  V30 4702 H 440.972 -2.09485 -6.21653 0
M  V30 4703 H 440.889 -3.7959 -6.53794 0
M  V30 4704 H 442.157 -2.84805 -7.25607 0
M  V30 4705 N 446.386 1.0089 -1.21074 0
M  V30 4706 C 447.663 1.71834 -0.934469 0
M  V30 4707 C 448.043 2.0368 0.554753 0
M  V30 4708 O 447.391 1.70742 1.51854 0
M  V30 4709 C 447.601 2.98061 -1.8155 0
M  V30 4710 C 448.949 3.7117 -2.06199 0
M  V30 4711 O 449.973 3.08034 -1.78867 0
M  V30 4712 O 448.832 4.84721 -2.52404 0
M  V30 4713 H 445.926 0.749253 -0.35007 0
M  V30 4714 H 448.472 1.06668 -1.31985 0
M  V30 4715 H 447.244 2.70908 -2.82355 0
M  V30 4716 H 446.867 3.70968 -1.43068 0
M  V30 4717 N 447.864 1.01787 1.20321 0
M  V30 4718 C 449.28 0.732951 1.41774 0
M  V30 4719 C 449.48 -0.686883 1.89431 0
M  V30 4720 O 448.536 -1.45446 2.06402 0
M  V30 4721 C 449.849 1.75973 2.43832 0
M  V30 4722 C 451.397 1.77802 2.57596 0
M  V30 4723 C 451.872 2.7941 3.62897 0
M  V30 4724 N 453.363 2.78157 3.70382 0
M  V30 4725 C 454.098 3.53434 4.51521 0
M  V30 4726 N 453.594 4.38392 5.36455 0
M  V30 4727 N 455.387 3.42026 4.46066 0
M  V30 4728 H 447.538 1.93447 0.877035 0
M  V30 4729 H 449.801 0.835712 0.447536 0
M  V30 4730 H 449.507 2.77699 2.15815 0
M  V30 4731 H 449.381 1.57292 3.4284 0
M  V30 4732 H 451.768 0.767602 2.84942 0
M  V30 4733 H 451.849 2.00557 1.58779 0
M  V30 4734 H 451.493 3.80616 3.36295 0
M  V30 4735 H 451.423 2.53916 4.61339 0
M  V30 4736 H 453.914 2.16531 3.09714 0
M  V30 4737 H 454.227 4.92596 5.95457 0
M  V30 4738 H 452.572 4.4247 5.35953 0
M  V30 4739 H 455.763 2.75075 3.78749 0
M  V30 4740 H 455.936 4.00946 5.09064 0
M  V30 4741 N 449.342 -1.36122 0.79427 0
M  V30 4742 C 450.589 -1.99111 0.368905 0
M  V30 4743 C 450.917 -1.63032 -1.0607 0
M  V30 4744 O 450.172 -0.879303 -1.74833 0
M  V30 4745 C 450.471 -3.5409 0.48527 0
M  V30 4746 C 450.137 -4.10003 1.87638 0
M  V30 4747 C 448.799 -4.24986 2.257 0
M  V30 4748 C 451.151 -4.40423 2.78706 0
M  V30 4749 C 448.479 -4.67701 3.54221 0
M  V30 4750 C 450.831 -4.84573 4.0666 0
M  V30 4751 C 449.495 -4.97761 4.44737 0
M  V30 4752 H 448.765 -0.7286 0.134992 0
M  V30 4753 H 451.412 -1.62534 1.01267 0
M  V30 4754 H 449.717 -3.91052 -0.241984 0
M  V30 4755 H 451.414 -4.00766 0.137109 0
M  V30 4756 H 448.004 -3.98784 1.57064 0
M  V30 4757 H 452.188 -4.28412 2.50553 0
M  V30 4758 H 447.444 -4.761 3.83587 0
M  V30 4759 H 451.618 -5.07074 4.77336 0
M  V30 4760 H 449.245 -5.30618 5.44379 0
M  V30 4761 N 450.82 -0.546701 -1.47814 0
M  V30 4762 C 452.067 -0.0187407 -2.02491 0
M  V30 4763 C 452.395 1.32685 -1.42215 0
M  V30 4764 O 451.65 1.87413 -0.563454 0
M  V30 4765 C 451.949 0.134869 -3.57145 0
M  V30 4766 C 451.615 -1.13849 -4.3629 0
M  V30 4767 C 450.277 -1.48743 -4.57634 0
M  V30 4768 C 452.629 -1.98277 -4.82012 0
M  V30 4769 C 449.957 -2.67932 -5.21948 0
M  V30 4770 C 452.309 -3.16659 -5.4764 0
M  V30 4771 C 450.973 -3.51879 -5.67219 0
M  V30 4772 H 450.243 -0.0068577 -0.740968 0
M  V30 4773 H 452.89 -0.716097 -1.77607 0
M  V30 4774 H 451.195 0.915118 -3.80963 0
M  V30 4775 H 452.892 0.558556 -3.97091 0
M  V30 4776 H 449.482 -0.856767 -4.19949 0
M  V30 4777 H 453.666 -1.72628 -4.6531 0
M  V30 4778 H 448.922 -2.95401 -5.35302 0
M  V30 4779 H 453.096 -3.82374 -5.82033 0
M  V30 4780 H 450.723 -4.44331 -6.16825 0
M  V30 4781 N 452.299 1.55045 -0.282633 0
M  V30 4782 C 453.545 2.0078 0.325436 0
M  V30 4783 C 453.9 1.1676 1.52921 0
M  V30 4784 O 453.193 0.231475 1.90197 0
M  V30 4785 C 453.387 3.49422 0.750938 0
M  V30 4786 C 453.216 4.47827 -0.410056 0
M  V30 4787 C 451.986 4.97288 -0.896239 0
M  V30 4788 C 454.184 4.98903 -1.24902 0
M  V30 4789 N 452.166 5.79508 -2.02591 0
M  V30 4790 C 453.537 5.78644 -2.22646 0
M  V30 4791 C 455.592 4.81126 -1.2815 0
M  V30 4792 C 454.295 6.42502 -3.23393 0
M  V30 4793 C 456.321 5.45789 -2.27745 0
M  V30 4794 C 455.683 6.25348 -3.24222 0
M  V30 4795 H 451.782 0.77747 0.08405 0
M  V30 4796 H 454.366 1.90369 -0.408368 0
M  V30 4797 H 452.537 3.60159 1.45395 0
M  V30 4798 H 454.269 3.81978 1.33698 0
M  V30 4799 H 451.024 4.71219 -0.474277 0
M  V30 4800 H 451.448 6.25308 -2.59459 0
M  V30 4801 H 456.09 4.19215 -0.549397 0
M  V30 4802 H 453.808 7.03558 -3.97533 0
M  V30 4803 H 457.394 5.33972 -2.31009 0
M  V30 4804 H 456.274 6.74498 -4.00027 0
M  V30 4805 N 453.777 0.010035 1.57597 0
M  V30 4806 C 454.707 -0.976857 2.12084 0
M  V30 4807 C 455.688 -1.35191 1.03235 0
M  V30 4808 O 456.873 -1.43389 1.3097 0
M  V30 4809 C 454.003 -2.26548 2.63236 0
M  V30 4810 C 452.957 -2.03175 3.76701 0
M  V30 4811 C 452.283 -3.38138 4.14206 0
M  V30 4812 C 453.583 -1.38625 5.03568 0
M  V30 4813 H 455.277 -0.523145 2.94794 0
M  V30 4814 H 452.823 -0.250195 1.4181 0
M  V30 4815 H 454.776 -2.95952 2.99984 0
M  V30 4816 H 453.5 -2.74051 1.77661 0
M  V30 4817 H 452.159 -1.36195 3.40362 0
M  V30 4818 H 451.807 -3.83363 3.25641 0
M  V30 4819 H 451.507 -3.23312 4.90656 0
M  V30 4820 H 453.031 -4.08841 4.53521 0
M  V30 4821 H 454.445 -1.98 5.38023 0
M  V30 4822 H 452.842 -1.34256 5.84889 0
M  V30 4823 H 453.912 -0.356722 4.83586 0
M  V30 4824 N 455.255 -1.55392 -0.262866 0
M  V30 4825 C 456.202 -1.88966 -1.32516 0
M  V30 4826 C 457.172 -0.742187 -1.48596 0
M  V30 4827 O 458.357 -0.99439 -1.62839 0
M  V30 4828 C 455.497 -2.17592 -2.67858 0
M  V30 4829 C 454.61 -3.45061 -2.59917 0
M  V30 4830 C 453.745 -3.63336 -3.87505 0
M  V30 4831 C 452.784 -4.84462 -3.74116 0
M  V30 4832 N 451.921 -4.99342 -4.93561 0
M  V30 4833 H 456.761 -2.79566 -1.03184 0
M  V30 4834 H 454.298 -1.38404 -0.498285 0
M  V30 4835 H 456.256 -2.3219 -3.46617 0
M  V30 4836 H 454.886 -1.30215 -2.95371 0
M  V30 4837 H 453.938 -3.38881 -1.72812 0
M  V30 4838 H 455.25 -4.3396 -2.45926 0
M  V30 4839 H 454.404 -3.77807 -4.74707 0
M  V30 4840 H 453.143 -2.72641 -4.04374 0
M  V30 4841 H 452.148 -4.69985 -2.85297 0
M  V30 4842 H 453.373 -5.76603 -3.58757 0
M  V30 4843 H 451.319 -4.1158 -5.10821 0
M  V30 4844 H 451.236 -5.82303 -4.82141 0
M  V30 4845 H 452.504 -5.18208 -5.82306 0
M  V30 4846 N 456.733 0.527833 -1.48498 0
M  V30 4847 C 457.979 1.28545 -1.56857 0
M  V30 4848 C 458.312 1.92678 -0.242651 0
M  V30 4849 O 457.587 1.79394 0.751545 0
M  V30 4850 C 457.87 2.37314 -2.70839 0
M  V30 4851 C 457.723 1.77858 -4.13142 0
M  V30 4852 C 459.042 3.39068 -2.80573 0
M  V30 4853 H 456.161 0.466006 -0.570971 0
M  V30 4854 H 458.803 0.587784 -1.8068 0
M  V30 4855 H 456.953 2.96821 -2.50658 0
M  V30 4856 H 458.625 1.22385 -4.44769 0
M  V30 4857 H 456.868 1.08383 -4.20042 0
M  V30 4858 H 457.539 2.56624 -4.88721 0
M  V30 4859 H 460.015 2.89518 -2.98862 0
M  V30 4860 H 458.891 4.12566 -3.6205 0
M  V30 4861 H 459.152 3.9975 -1.88818 0
M  V30 4862 N 458.211 1.37122 0.776871 0
M  V30 4863 C 459.436 1.354 1.57104 0
M  V30 4864 C 459.861 -0.0595562 1.88006 0
M  V30 4865 O 459.219 -1.03514 1.48844 0
M  V30 4866 C 459.267 2.19472 2.8612 0
M  V30 4867 O 458.371 1.59582 3.80273 0
M  V30 4868 H 457.712 0.462869 0.476076 0
M  V30 4869 H 460.242 1.80577 0.961932 0
M  V30 4870 H 460.252 2.32502 3.35271 0
M  V30 4871 H 458.927 3.22222 2.62956 0
M  V30 4872 H 457.504 1.55564 3.38902 0
M  V30 4873 N 459.689 -1.00246 1.21608 0
M  V30 4874 C 460.599 -2.12515 0.993709 0
M  V30 4875 C 461.615 -1.73913 -0.0549939 0
M  V30 4876 O 462.791 -2.00943 0.135619 0
M  V30 4877 C 459.856 -3.42083 0.563953 0
M  V30 4878 C 458.917 -3.94843 1.68516 0
M  V30 4879 C 458.15 -5.18226 1.27582 0
M  V30 4880 O 458.373 -5.70201 0.150506 0
M  V30 4881 O 457.307 -5.64497 2.0887 0
M  V30 4882 H 461.133 -2.34152 1.93407 0
M  V30 4883 H 458.718 -1.10891 1.00118 0
M  V30 4884 H 460.6 -4.20073 0.334194 0
M  V30 4885 H 459.275 -3.21828 -0.347665 0
M  V30 4886 H 458.182 -3.18068 1.96935 0
M  V30 4887 H 459.515 -4.19512 2.5743 0
M  V30 4888 N 461.167 -1.02423 -1.1978 0
M  V30 4889 C 462.583 -0.740459 -1.41384 0
M  V30 4890 C 462.783 0.676827 -1.89793 0
M  V30 4891 O 461.839 1.4435 -2.0717 0
M  V30 4892 C 463.152 -1.77264 -2.42895 0
M  V30 4893 C 464.7 -1.79165 -2.56649 0
M  V30 4894 C 465.175 -2.8133 -3.6141 0
M  V30 4895 N 466.666 -2.80118 -3.68901 0
M  V30 4896 C 467.401 -3.55824 -4.49641 0
M  V30 4897 N 466.897 -4.41231 -5.34123 0
M  V30 4898 N 468.69 -3.44387 -4.44246 0
M  V30 4899 H 460.841 -1.9391 -0.866764 0
M  V30 4900 H 463.104 -0.838074 -0.443098 0
M  V30 4901 H 462.81 -2.7884 -2.14339 0
M  V30 4902 H 462.684 -1.59108 -3.42001 0
M  V30 4903 H 465.071 -0.782702 -2.84531 0
M  V30 4904 H 465.152 -2.01396 -1.57713 0
M  V30 4905 H 464.796 -3.82394 -3.34271 0
M  V30 4906 H 464.726 -2.56359 -4.59986 0
M  V30 4907 H 467.217 -2.1817 -3.08562 0
M  V30 4908 H 467.53 -4.95747 -5.92836 0
M  V30 4909 H 465.875 -4.45306 -5.33599 0
M  V30 4910 H 469.066 -2.7708 -3.77285 0
M  V30 4911 H 469.239 -4.0364 -5.06931 0
M  V30 4912 N 462.645 1.35699 -0.801477 0
M  V30 4913 C 464.056 1.81415 -0.441073 0
M  V30 4914 C 464.407 1.66595 1.03636 0
M  V30 4915 O 463.532 1.19369 1.80499 0
M  V30 4916 C 464.127 3.29369 -0.793819 0
M  V30 4917 C 462.686 3.73248 -0.486083 0
M  V30 4918 C 461.833 2.57775 -1.02213 0
M  V30 4919 H 464.784 1.23749 -0.993572 0
M  V30 4920 H 464.805 3.80395 -0.0894158 0
M  V30 4921 H 464.317 3.40123 -1.86917 0
M  V30 4922 H 462.418 3.68046 0.580735 0
M  V30 4923 H 462.531 4.68222 -1.01513 0
M  V30 4924 H 460.895 2.50788 -0.444712 0
M  V30 4925 H 461.678 2.71309 -2.10348 0
M  V30 4926 N 464.123 0.554532 1.47522 0
M  V30 4927 C 465.07 -0.19466 2.29978 0
M  V30 4928 C 466.04 -0.910882 1.38896 0
M  V30 4929 O 467.225 -0.907102 1.67858 0
M  V30 4930 C 464.365 -1.22035 3.22802 0
M  V30 4931 C 463.478 -0.510474 4.28973 0
M  V30 4932 C 462.613 -1.52123 5.08952 0
M  V30 4933 C 461.652 -0.796173 6.069 0
M  V30 4934 N 460.789 -1.75363 6.79847 0
M  V30 4935 H 465.629 0.51461 2.93523 0
M  V30 4936 H 463.166 0.265607 1.44682 0
M  V30 4937 H 465.124 -1.8276 3.7504 0
M  V30 4938 H 463.754 -1.89769 2.61127 0
M  V30 4939 H 462.806 0.211234 3.79813 0
M  V30 4940 H 464.118 0.0576503 4.98767 0
M  V30 4941 H 463.272 -2.20207 5.65326 0
M  V30 4942 H 462.011 -2.12327 4.39054 0
M  V30 4943 H 461.016 -0.101388 5.49707 0
M  V30 4944 H 462.241 -0.199911 6.78806 0
M  V30 4945 H 460.187 -2.3443 6.12682 0
M  V30 4946 H 460.104 -1.23759 7.45801 0
M  V30 4947 H 461.372 -2.4257 7.40797 0
M  V30 4948 N 465.601 -1.54893 0.290851 0
M  V30 4949 C 466.829 -2.04343 -0.324288 0
M  V30 4950 C 467.244 -1.16859 -1.48289 0
M  V30 4951 O 466.601 -0.192018 -1.81487 0
M  V30 4952 C 466.652 -3.52756 -0.79026 0
M  V30 4953 O 466.373 -4.36913 0.322213 0
M  V30 4954 C 467.874 -4.18161 -1.4716 0
M  V30 4955 H 465.094 -0.667135 -0.0719173 0
M  V30 4956 H 467.638 -1.99981 0.427529 0
M  V30 4957 H 465.793 -3.57511 -1.49213 0
M  V30 4958 H 466.207 -5.24486 -0.0387372 0
M  V30 4959 H 467.681 -5.23562 -1.7489 0
M  V30 4960 H 468.158 -3.67282 -2.40834 0
M  V30 4961 H 468.764 -4.17454 -0.813178 0
M  V30 4962 N 467.08 -0.0183926 -1.57589 0
M  V30 4963 C 468.305 0.676634 -1.96052 0
M  V30 4964 C 468.73 1.6548 -0.894307 0
M  V30 4965 O 468.088 1.80712 0.145849 0
M  V30 4966 C 468.136 1.36872 -3.33614 0
M  V30 4967 O 467.24 2.48372 -3.29219 0
M  V30 4968 H 466.581 0.1786 -0.63953 0
M  V30 4969 H 469.111 -0.077056 -2.04455 0
M  V30 4970 H 469.121 1.72797 -3.69601 0
M  V30 4971 H 467.796 0.651636 -4.10763 0
M  V30 4972 H 466.373 2.14639 -3.04934 0
M  V30 4973 N 468.558 1.5553 0.254621 0
M  V30 4974 C 469.804 1.77262 0.985193 0
M  V30 4975 C 470.137 0.582286 1.85265 0
M  V30 4976 O 469.412 -0.419666 1.89919 0
M  V30 4977 C 469.695 3.0881 1.85225 0
M  V30 4978 C 469.548 4.38233 1.0135 0
M  V30 4979 C 470.867 3.3653 2.83612 0
M  V30 4980 H 467.986 0.644906 0.356742 0
M  V30 4981 H 470.628 1.88264 0.256236 0
M  V30 4982 H 468.778 2.99562 2.47376 0
M  V30 4983 H 470.45 4.59463 0.411269 0
M  V30 4984 H 468.693 4.32636 0.317574 0
M  V30 4985 H 469.364 5.26644 1.65379 0
M  V30 4986 H 471.84 3.45691 2.31596 0
M  V30 4987 H 470.716 4.29805 3.41407 0
M  V30 4988 H 470.977 2.57064 3.59681 0
M  V30 4989 N 470.036 -0.519951 1.48776 0
M  V30 4990 C 470.984 -1.64443 1.64503 0
M  V30 4991 C 471.978 -1.61501 0.511248 0
M  V30 4992 O 473.184 -1.66238 0.690294 0
M  V30 4993 H 469.559 -0.544776 0.518385 0
M  V30 4994 H 471.53 -1.48325 2.58925 0
M  V30 4995 C 470.279 -3.02673 1.71127 0
M  V30 4996 H 469.602 -3.05635 2.57735 0
M  V30 4997 H 471.042 -3.80941 1.86172 0
M  V30 4998 C 469.501 -3.33854 0.452032 0
M  V30 4999 O 470.031 -3.99385 -0.430678 0
M  V30 5000 N 468.237 -2.88825 0.32069 0
M  V30 5001 H 467.784 -2.35674 1.03998 0
M  V30 5002 H 467.742 -3.10056 -0.520814 0
M  V30 5003 N 471.514 -1.37532 -0.769588 0
M  V30 5004 C 472.444 -1.36172 -1.89682 0
M  V30 5005 C 473.425 -0.23001 -1.68538 0
M  V30 5006 O 474.61 -0.43069 -1.89364 0
M  V30 5007 C 471.74 -1.1701 -3.26995 0
M  V30 5008 C 470.694 -2.27216 -3.62708 0
M  V30 5009 C 470.02 -1.93174 -4.98586 0
M  V30 5010 C 471.32 -3.6941 -3.69234 0
M  V30 5011 H 473.014 -2.30499 -1.91078 0
M  V30 5012 H 470.56 -1.10953 -0.917902 0
M  V30 5013 H 472.513 -1.14688 -4.05493 0
M  V30 5014 H 471.237 -0.191395 -3.26039 0
M  V30 5015 H 469.896 -2.28697 -2.86519 0
M  V30 5016 H 469.544 -0.938281 -4.94171 0
M  V30 5017 H 469.244 -2.66973 -5.23449 0
M  V30 5018 H 470.768 -1.92443 -5.79481 0
M  V30 5019 H 472.182 -3.70047 -4.37879 0
M  V30 5020 H 470.579 -4.4228 -4.05597 0
M  V30 5021 H 471.649 -4.0288 -2.69844 0
M  V30 5022 N 472.992 0.995999 -1.22138 0
M  V30 5023 C 474.241 1.72928 -1.03821 0
M  V30 5024 C 474.554 1.90872 0.427444 0
M  V30 5025 O 475.76 2.61496 0.730212 0
M  V30 5026 C 474.216 3.11124 -1.80913 0
M  V30 5027 C 473.824 3.01122 -3.31707 0
M  V30 5028 C 475.568 3.8852 -1.71035 0
M  V30 5029 C 473.475 4.34453 -4.01253 0
M  V30 5030 H 472.405 0.648376 -0.384869 0
M  V30 5031 H 475.056 1.11213 -1.45959 0
M  V30 5032 H 473.438 3.73503 -1.31573 0
M  V30 5033 H 474.612 2.47926 -3.88419 0
M  V30 5034 H 472.927 2.3721 -3.42228 0
M  V30 5035 H 475.524 4.872 -2.20318 0
M  V30 5036 H 475.867 4.1087 -0.670196 0
M  V30 5037 H 476.4 3.32812 -2.17902 0
M  V30 5038 H 473.139 4.17303 -5.05508 0
M  V30 5039 H 472.659 4.87574 -3.49331 0
M  V30 5040 H 474.338 5.03215 -4.06674 0
M  V30 5041 N 474.47 1.03057 1.19235 0
M  V30 5042 C 475.695 0.74757 1.93458 0
M  V30 5043 C 476.12 -0.687648 1.7508 0
M  V30 5044 O 475.478 -1.47499 1.05422 0
M  V30 5045 C 475.526 1.10604 3.43219 0
M  V30 5046 O 474.63 0.225671 4.11782 0
M  V30 5047 H 473.971 0.276047 0.603899 0
M  V30 5048 H 476.501 1.3777 1.51263 0
M  V30 5049 H 476.511 1.06366 3.93891 0
M  V30 5050 H 475.186 2.15165 3.55917 0
M  V30 5051 H 473.763 0.326795 3.71465 0
M  V30 5052 N 475.948 -1.35272 0.808662 0
M  V30 5053 C 477.173 -2.03477 0.401475 0
M  V30 5054 C 477.598 -1.60537 -0.980279 0
M  V30 5055 O 476.956 -0.78304 -1.63518 0
M  V30 5056 C 477.004 -3.57181 0.495354 0
M  V30 5057 O 476.108 -4.09474 -0.490397 0
M  V30 5058 H 475.449 -0.642561 0.167366 0
M  V30 5059 H 477.979 -1.72824 1.09512 0
M  V30 5060 H 477.989 -4.06356 0.365912 0
M  V30 5061 H 476.664 -3.87784 1.5032 0
M  V30 5062 H 475.241 -3.71516 -0.321023 0
M  V30 5063 N 477.426 -0.562348 -1.47226 0
M  V30 5064 C 478.356 0.170627 -2.32876 0
M  V30 5065 C 479.337 0.903748 -1.44106 0
M  V30 5066 O 480.522 0.883206 -1.72954 0
M  V30 5067 C 477.652 1.19786 -3.25989 0
M  V30 5068 C 476.606 0.580875 -4.2404 0
M  V30 5069 C 475.932 1.71311 -5.06514 0
M  V30 5070 C 477.232 -0.468714 -5.20193 0
M  V30 5071 H 478.926 -0.544441 -2.94408 0
M  V30 5072 H 476.472 -0.263271 -1.41573 0
M  V30 5073 H 478.425 1.71884 -3.84752 0
M  V30 5074 H 477.149 1.94294 -2.62521 0
M  V30 5075 H 475.808 0.0811538 -3.6651 0
M  V30 5076 H 475.456 2.44736 -4.39447 0
M  V30 5077 H 475.156 1.30604 -5.72902 0
M  V30 5078 H 476.68 2.23725 -5.68137 0
M  V30 5079 H 478.094 -0.0336028 -5.7329 0
M  V30 5080 H 476.491 -0.794957 -5.94811 0
M  V30 5081 H 477.561 -1.36269 -4.65359 0
M  V30 5082 N 478.904 1.54736 -0.299062 0
M  V30 5083 C 480.15 2.01114 0.304123 0
M  V30 5084 C 480.505 1.18376 1.51674 0
M  V30 5085 O 479.798 0.251635 1.8994 0
M  V30 5086 C 479.992 3.50199 0.713835 0
M  V30 5087 C 479.821 4.47366 -0.457531 0
M  V30 5088 C 478.591 4.9631 -0.948933 0
M  V30 5089 C 480.789 4.9755 -1.30186 0
M  V30 5090 N 478.771 5.77327 -2.08726 0
M  V30 5091 C 480.142 5.7625 -2.28771 0
M  V30 5092 C 482.197 4.79739 -1.33246 0
M  V30 5093 C 480.9 6.39036 -3.3019 0
M  V30 5094 C 482.926 5.43343 -2.33521 0
M  V30 5095 C 482.288 6.21874 -3.30836 0
M  V30 5096 H 478.387 0.778318 0.0757992 0
M  V30 5097 H 480.971 1.89925 -0.428536 0
M  V30 5098 H 479.142 3.61681 1.41567 0
M  V30 5099 H 480.874 3.83374 1.29639 0
M  V30 5100 H 477.629 4.7069 -0.52423 0
M  V30 5101 H 478.053 6.22521 -2.66077 0
M  V30 5102 H 482.695 4.18609 -0.59383 0
M  V30 5103 H 480.413 6.99302 -4.04973 0
M  V30 5104 H 483.999 5.31492 -2.3666 0
M  V30 5105 H 482.879 6.70217 -4.07159 0
M  V30 5106 N 480.382 0.0267497 1.57577 0
M  V30 5107 C 481.793 -0.512413 1.79531 0
M  V30 5108 C 482.144 -1.72391 0.936791 0
M  V30 5109 O 481.269 -2.15903 0.146543 0
M  V30 5110 C 481.864 -0.936378 3.25603 0
M  V30 5111 C 480.423 -1.42067 3.4856 0
M  V30 5112 C 479.57 -0.384278 2.74624 0
M  V30 5113 H 482.521 0.252797 1.56674 0
M  V30 5114 H 482.542 -1.80088 3.35184 0
M  V30 5115 H 482.054 -0.0544332 3.88062 0
M  V30 5116 H 480.155 -2.32262 2.9135 0
M  V30 5117 H 480.268 -1.42968 4.57271 0
M  V30 5118 H 478.632 -0.851855 2.40032 0
M  V30 5119 H 479.415 0.489159 3.39797 0
M  V30 5120 N 481.861 -1.55662 -0.24637 0
M  V30 5121 C 483.089 -1.81575 -0.991876 0
M  V30 5122 C 483.504 -0.602545 -1.78927 0
M  V30 5123 O 482.861 0.428795 -1.77391 0
M  V30 5124 C 482.912 -3.05711 -1.92933 0
M  V30 5125 O 482.633 -4.22348 -1.1642 0
M  V30 5126 C 484.134 -3.44428 -2.79078 0
M  V30 5127 H 481.354 -0.604209 -0.291844 0
M  V30 5128 H 483.898 -2.02722 -0.269095 0
M  V30 5129 H 482.053 -2.86612 -2.60638 0
M  V30 5130 H 482.467 -4.92706 -1.79835 0
M  V30 5131 H 483.941 -4.34388 -3.40603 0
M  V30 5132 H 484.418 -2.65037 -3.50217 0
M  V30 5133 H 485.024 -3.65879 -2.16824 0
M  V30 5134 N 483.339 0.512053 -1.4905 0
M  V30 5135 C 484.269 1.62365 -1.67809 0
M  V30 5136 C 485.25 1.61737 -0.526809 0
M  V30 5137 O 486.435 1.78651 -0.761404 0
M  V30 5138 C 483.565 3.00895 -1.73435 0
M  V30 5139 C 482.519 3.16387 -2.88242 0
M  V30 5140 C 481.845 4.56157 -2.78971 0
M  V30 5141 C 483.145 2.97457 -4.29321 0
M  V30 5142 H 484.839 1.46921 -2.60873 0
M  V30 5143 H 482.385 0.705379 -1.2554 0
M  V30 5144 H 484.338 3.78549 -1.85145 0
M  V30 5145 H 483.062 3.17403 -0.769619 0
M  V30 5146 H 481.721 2.41155 -2.76116 0
M  V30 5147 H 481.369 4.69525 -1.8043 0
M  V30 5148 H 481.069 4.67465 -3.5602 0
M  V30 5149 H 482.593 5.35886 -2.92675 0
M  V30 5150 H 484.007 3.64888 -4.42187 0
M  V30 5151 H 482.404 3.20245 -5.07507 0
M  V30 5152 H 483.474 1.93692 -4.44535 0
M  V30 5153 N 484.817 1.37938 0.762283 0
M  V30 5154 C 486.228 1.30094 1.33912 0
M  V30 5155 C 486.579 -0.0472026 1.96143 0
M  V30 5156 O 485.704 -0.94917 1.94473 0
M  V30 5157 C 486.299 2.35592 2.43478 0
M  V30 5158 C 484.858 2.31353 2.96905 0
M  V30 5159 C 484.005 2.18919 1.70205 0
M  V30 5160 H 486.956 1.48423 0.561816 0
M  V30 5161 H 486.977 2.00806 3.23199 0
M  V30 5162 H 486.489 3.33701 1.98155 0
M  V30 5163 H 484.59 1.36799 3.46579 0
M  V30 5164 H 484.703 3.25147 3.51875 0
M  V30 5165 H 483.067 1.65624 1.93496 0
M  V30 5166 H 483.85 3.18956 1.26973 0
M  V30 5167 N 486.295 -0.989507 1.22664 0
M  V30 5168 C 487.52 -1.77031 1.08051 0
M  V30 5169 C 487.945 -1.84535 -0.364483 0
M  V30 5170 O 487.303 -1.3003 -1.2634 0
M  V30 5171 C 487.351 -3.18 1.70024 0
M  V30 5172 O 486.455 -4.01161 0.956216 0
M  V30 5173 H 485.796 -0.545008 0.379292 0
M  V30 5174 H 488.326 -1.24277 1.62531 0
M  V30 5175 H 488.336 -3.68616 1.74888 0
M  V30 5176 H 487.011 -3.11853 2.75174 0
M  V30 5177 H 485.588 -3.59687 0.98384 0
M  V30 5178 N 487.773 -1.03688 -1.18687 0
M  V30 5179 C 489.021 -0.736572 -1.88199 0
M  V30 5180 C 489.342 0.737665 -1.80509 0
M  V30 5181 O 488.612 1.53204 -1.22088 0
M  V30 5182 H 487.192 -0.269466 -0.696704 0
M  V30 5183 H 489.854 -1.31282 -1.44052 0
M  V30 5184 H 488.95 -1.03802 -2.94332 0
M  V30 5185 N 489.251 1.34841 -0.815825 0
M  V30 5186 C 490.5 1.97755 -0.396976 0
M  V30 5187 C 490.813 1.65422 1.04379 0
M  V30 5188 O 492.019 2.21771 1.5662 0
M  V30 5189 C 490.475 3.53818 -0.658869 0
M  V30 5190 C 490.083 3.95051 -2.11278 0
M  V30 5191 C 491.827 4.23397 -0.305834 0
M  V30 5192 C 489.734 5.43997 -2.31994 0
M  V30 5193 H 488.664 0.739985 -0.1447 0
M  V30 5194 H 491.315 1.53781 -1.00118 0
M  V30 5195 H 489.697 3.95997 0.0154112 0
M  V30 5196 H 490.871 3.63998 -2.82564 0
M  V30 5197 H 489.186 3.38388 -2.42657 0
M  V30 5198 H 491.783 5.32899 -0.43854 0
M  V30 5199 H 492.126 4.09508 0.748952 0
M  V30 5200 H 492.659 3.8667 -0.934403 0
M  V30 5201 H 489.398 5.62865 -3.35952 0
M  V30 5202 H 488.918 5.76589 -1.65244 0
M  V30 5203 H 490.597 6.10584 -2.14001 0
M  V30 5204 N 490.729 0.570148 1.46925 0
M  V30 5205 C 491.639 -0.173061 2.33961 0
M  V30 5206 C 492.655 -0.898825 1.48987 0
M  V30 5207 O 493.831 -0.864825 1.81887 0
M  V30 5208 C 490.896 -1.18177 3.25937 0
M  V30 5209 C 489.957 -0.462041 4.26806 0
M  V30 5210 C 489.19 -1.4227 5.14388 0
M  V30 5211 O 489.413 -2.65842 5.04662 0
M  V30 5212 O 488.347 -0.940127 5.94513 0
M  V30 5213 H 492.173 0.541216 2.98839 0
M  V30 5214 H 489.758 0.330647 1.45695 0
M  V30 5215 H 491.64 -1.76372 3.82715 0
M  V30 5216 H 490.315 -1.87774 2.63671 0
M  V30 5217 H 489.222 0.161429 3.73752 0
M  V30 5218 H 490.555 0.192719 4.91823 0
M  V30 5219 N 492.207 -1.54576 0.307264 0
M  V30 5220 C 493.17 -2.22423 -0.553224 0
M  V30 5221 C 494.17 -1.21231 -1.05639 0
M  V30 5222 O 495.36 -1.45923 -0.951419 0
M  V30 5223 C 492.492 -2.91552 -1.76664 0
M  V30 5224 H 493.685 -2.99874 0.0396484 0
M  V30 5225 H 491.238 -1.56192 0.0581629 0
M  V30 5226 H 491.973 -2.18196 -2.39918 0
M  V30 5227 H 491.758 -3.65738 -1.41343 0
M  V30 5228 H 493.248 -3.43292 -2.37783 0
M  V30 5229 N 493.685 -0.035106 -1.57561 0
M  V30 5230 C 494.648 0.929819 -2.09492 0
M  V30 5231 C 495.648 1.25026 -1.01119 0
M  V30 5232 O 496.838 1.18961 -1.27255 0
M  V30 5233 C 493.97 2.24457 -2.56577 0
M  V30 5234 H 495.163 0.479935 -2.96035 0
M  V30 5235 H 492.716 0.213033 -1.54841 0
M  V30 5236 H 493.451 2.74061 -1.73382 0
M  V30 5237 H 493.236 2.02508 -3.35757 0
M  V30 5238 H 494.726 2.93607 -2.96959 0
M  V30 5239 N 495.163 1.55791 0.238111 0
M  V30 5240 C 496.393 1.81834 0.980809 0
M  V30 5241 C 496.801 0.609741 1.79106 0
M  V30 5242 O 496.144 -0.431073 1.78571 0
M  V30 5243 C 496.206 3.01363 1.96011 0
M  V30 5244 C 495.87 4.37037 1.33597 0
M  V30 5245 C 496.867 5.14692 0.734063 0
M  V30 5246 C 494.552 4.83743 1.3527 0
M  V30 5247 C 496.546 6.37206 0.157208 0
M  V30 5248 C 494.233 6.06204 0.77199 0
M  V30 5249 C 495.231 6.82775 0.175282 0
M  V30 5250 O 494.919 8.02922 -0.396432 0
M  V30 5251 H 494.651 0.6088 0.293834 0
M  V30 5252 H 497.205 2.03702 0.263552 0
M  V30 5253 H 495.435 2.75273 2.71591 0
M  V30 5254 H 497.124 3.14422 2.56697 0
M  V30 5255 H 497.89 4.79722 0.713582 0
M  V30 5256 H 493.769 4.24129 1.80653 0
M  V30 5257 H 497.313 6.96915 -0.30917 0
M  V30 5258 H 493.21 6.4065 0.789828 0
M  V30 5259 H 493.978 8.17989 -0.289145 0
M  V30 5260 N 496.642 -0.504142 1.49319 0
M  V30 5261 C 497.552 -1.63248 1.68486 0
M  V30 5262 C 498.568 -1.64488 0.567432 0
M  V30 5263 O 499.744 -1.82966 0.841749 0
M  V30 5264 C 496.809 -2.99627 1.74426 0
M  V30 5265 C 495.87 -3.09039 2.97982 0
M  V30 5266 C 495.103 -4.38913 3.0363 0
M  V30 5267 O 495.326 -5.27528 2.16958 0
M  V30 5268 O 494.26 -4.53231 3.96062 0
M  V30 5269 H 498.086 -1.50008 2.64067 0
M  V30 5270 H 495.671 -0.680086 1.33023 0
M  V30 5271 H 497.553 -3.80689 1.80705 0
M  V30 5272 H 496.228 -3.13136 0.820233 0
M  V30 5273 H 495.135 -2.27177 2.97223 0
M  V30 5274 H 496.468 -3.00456 3.89855 0
M  V30 5275 N 498.12 -1.38341 -0.754957 0
M  V30 5276 C 499.369 -1.33791 -1.5094 0
M  V30 5277 C 499.682 0.0699267 -1.95475 0
M  V30 5278 O 500.888 0.237956 -2.70455 0
M  V30 5279 C 499.344 -2.34934 -2.72643 0
M  V30 5280 C 498.952 -3.81332 -2.35138 0
M  V30 5281 C 500.696 -2.39425 -3.50536 0
M  V30 5282 C 498.603 -4.74164 -3.53444 0
M  V30 5283 H 497.533 -0.497314 -0.566741 0
M  V30 5284 H 500.184 -1.63888 -0.825403 0
M  V30 5285 H 498.566 -1.97878 -3.43017 0
M  V30 5286 H 499.74 -4.27319 -1.7244 0
M  V30 5287 H 498.055 -3.79946 -1.70382 0
M  V30 5288 H 500.652 -3.0598 -4.38498 0
M  V30 5289 H 500.995 -1.41278 -3.91594 0
M  V30 5290 H 501.528 -2.75274 -2.87174 0
M  V30 5291 H 498.267 -5.73501 -3.17453 0
M  V30 5292 H 497.787 -4.3287 -4.15191 0
M  V30 5293 H 499.466 -4.92111 -4.20043 0
M  V30 5294 N 499.598 0.982988 -1.23187 0
M  V30 5295 C 500.508 2.10907 -1.02739 0
M  V30 5296 C 501.524 1.73979 0.0273188 0
M  V30 5297 O 502.7 2.00702 -0.16757 0
M  V30 5298 C 499.765 3.41142 -0.618304 0
M  V30 5299 C 498.826 3.92112 -1.74777 0
M  V30 5300 C 498.059 5.16131 -1.3581 0
M  V30 5301 O 498.282 5.6989 -0.241201 0
M  V30 5302 O 497.216 5.61103 -2.17824 0
M  V30 5303 H 501.042 2.31046 -1.97108 0
M  V30 5304 H 498.627 1.09284 -1.01869 0
M  V30 5305 H 500.509 4.19488 -0.400982 0
M  V30 5306 H 499.184 3.2234 0.296421 0
M  V30 5307 H 498.091 3.14895 -2.0197 0
M  V30 5308 H 499.424 4.15364 -2.64071 0
M  V30 5309 N 501.076 1.04316 1.18135 0
M  V30 5310 C 502.039 0.640794 2.2006 0
M  V30 5311 C 503.039 -0.303124 1.57917 0
M  V30 5312 O 504.229 -0.0881855 1.73977 0
M  V30 5313 C 501.361 -0.060148 3.40847 0
M  V30 5314 H 502.554 1.54281 2.57172 0
M  V30 5315 H 500.107 0.836004 1.32063 0
M  V30 5316 H 500.842 -0.975845 3.0927 0
M  V30 5317 H 500.627 0.618319 3.87194 0
M  V30 5318 H 502.117 -0.328082 4.16309 0
M  V30 5319 N 502.554 -1.34406 0.822964 0
M  V30 5320 C 503.97 -1.51275 0.508727 0
M  V30 5321 C 504.17 -1.76776 -0.967083 0
M  V30 5322 O 503.226 -1.81871 -1.75155 0
M  V30 5323 C 504.539 -2.67765 1.36829 0
M  V30 5324 C 506.087 -2.81647 1.36542 0
M  V30 5325 C 506.562 -4.01181 2.20947 0
M  V30 5326 N 508.053 -4.08388 2.18571 0
M  V30 5327 C 508.788 -5.00036 2.80627 0
M  V30 5328 N 508.284 -5.96906 3.51674 0
M  V30 5329 N 510.077 -4.92908 2.70181 0
M  V30 5330 H 502.228 -1.16113 1.77852 0
M  V30 5331 H 504.491 -0.56947 0.757897 0
M  V30 5332 H 504.197 -2.55551 2.41633 0
M  V30 5333 H 504.071 -3.62779 1.03303 0
M  V30 5334 H 506.458 -2.93303 0.325163 0
M  V30 5335 H 506.539 -1.87443 1.74066 0
M  V30 5336 H 506.183 -3.90286 3.25022 0
M  V30 5337 H 506.113 -4.94599 1.80774 0
M  V30 5338 H 508.604 -3.39051 1.66891 0
M  V30 5339 H 508.917 -6.63468 3.96271 0
M  V30 5340 H 507.262 -5.9703 3.5578 0
M  V30 5341 H 510.453 -4.1619 2.14251 0
M  V30 5342 H 510.626 -5.64137 3.18831 0
M  V30 5343 N 504.032 -0.577932 -1.46621 0
M  V30 5344 C 504.98 0.170882 -2.31971 0
M  V30 5345 C 505.974 0.889086 -1.44193 0
M  V30 5346 O 507.18 0.808017 -1.60845 0
M  V30 5347 H 503.555 0.0739763 -0.748353 0
M  V30 5348 H 505.526 -0.567856 -2.92947 0
M  V30 5349 C 504.275 1.17438 -3.27267 0
M  V30 5350 H 503.598 0.63116 -3.94787 0
M  V30 5351 H 505.038 1.66882 -3.89778 0
M  V30 5352 C 503.497 2.23292 -2.52274 0
M  V30 5353 O 504.027 3.30567 -2.28229 0
M  V30 5354 N 502.233 1.97772 -2.12919 0
M  V30 5355 H 501.78 1.10545 -2.32675 0
M  V30 5356 H 501.738 2.68809 -1.63062 0
M  V30 5357 N 505.51 1.54411 -0.315457 0
M  V30 5358 C 506.442 2.21527 0.588067 0
M  V30 5359 C 507.455 1.21263 1.08624 0
M  V30 5360 O 508.644 1.47777 1.00121 0
M  V30 5361 C 505.744 2.85963 1.81875 0
M  V30 5362 C 504.917 4.12291 1.46063 0
M  V30 5363 C 503.976 4.60396 2.54799 0
M  V30 5364 O 503.002 5.25265 2.19283 0
M  V30 5365 N 504.204 4.33935 3.85591 0
M  V30 5366 H 506.969 2.99697 0.013414 0
M  V30 5367 H 504.53 1.61308 -0.138295 0
M  V30 5368 H 506.522 3.15071 2.53993 0
M  V30 5369 H 505.092 2.11548 2.30144 0
M  V30 5370 H 504.312 3.90036 0.571445 0
M  V30 5371 H 505.6 4.9452 1.19695 0
M  V30 5372 H 504.998 3.81996 4.17248 0
M  V30 5373 H 503.555 4.67718 4.53964 0
M  V30 5374 N 506.988 0.0434614 1.5754 0
M  V30 5375 C 508.234 -0.632971 1.92669 0
M  V30 5376 C 508.567 -1.70947 0.921446 0
M  V30 5377 O 507.842 -1.94426 -0.0537202 0
M  V30 5378 C 508.125 -1.23619 3.38216 0
M  V30 5379 C 507.978 -0.168274 4.49485 0
M  V30 5380 C 509.297 -2.15008 3.84005 0
M  V30 5381 H 506.416 -0.228629 0.700641 0
M  V30 5382 H 509.058 0.103651 1.89717 0
M  V30 5383 H 507.208 -1.864 3.40863 0
M  V30 5384 H 508.88 0.463196 4.58969 0
M  V30 5385 H 507.123 0.504581 4.30855 0
M  V30 5386 H 507.794 -0.630218 5.48391 0
M  V30 5387 H 510.27 -1.62198 3.83185 0
M  V30 5388 H 509.146 -2.54161 4.86511 0
M  V30 5389 H 509.407 -3.04707 3.20322 0
M  V30 5390 N 508.466 -1.55915 -0.229846 0
M  V30 5391 C 509.713 -1.78542 -0.955452 0
M  V30 5392 C 510.041 -0.610785 -1.84661 0
M  V30 5393 O 509.296 0.405213 -1.91459 0
M  V30 5394 C 509.595 -3.06845 -1.8325 0
M  V30 5395 C 509.261 -4.37395 -1.09528 0
M  V30 5396 C 507.923 -4.72868 -0.891598 0
M  V30 5397 C 510.275 -5.18029 -0.574046 0
M  V30 5398 C 507.603 -5.86496 -0.154655 0
M  V30 5399 C 509.955 -6.32423 0.149513 0
M  V30 5400 C 508.619 -6.66504 0.364519 0
M  V30 5401 H 507.889 -0.653333 -0.349625 0
M  V30 5402 H 510.536 -1.90183 -0.224235 0
M  V30 5403 H 508.841 -2.90291 -2.63132 0
M  V30 5404 H 510.538 -3.21553 -2.39592 0
M  V30 5405 H 507.128 -4.09538 -1.26399 0
M  V30 5406 H 511.312 -4.91066 -0.718899 0
M  V30 5407 H 506.568 -6.11396 0.0222356 0
M  V30 5408 H 510.742 -6.94137 0.560947 0
M  V30 5409 H 508.369 -7.54397 0.937495 0
M  V30 5410 N 509.944 0.496216 -1.49584 0
M  V30 5411 C 510.874 1.60576 -1.69521 0
M  V30 5412 C 511.855 1.61169 -0.543933 0
M  V30 5413 O 513.04 1.77834 -0.78031 0
M  V30 5414 C 510.17 2.99038 -1.76616 0
M  V30 5415 C 509.124 3.13312 -2.91581 0
M  V30 5416 C 508.45 4.53172 -2.83794 0
M  V30 5417 C 509.75 2.92886 -4.32452 0
M  V30 5418 H 511.444 1.44146 -2.62416 0
M  V30 5419 H 508.99 0.692024 -1.26282 0
M  V30 5420 H 510.943 3.76564 -1.8915 0
M  V30 5421 H 509.667 3.16568 -0.80324 0
M  V30 5422 H 508.326 2.38213 -2.78658 0
M  V30 5423 H 507.974 4.67585 -1.854 0
M  V30 5424 H 507.674 4.63662 -3.60958 0
M  V30 5425 H 509.198 5.32752 -2.98342 0
M  V30 5426 H 510.612 3.60178 -4.46032 0
M  V30 5427 H 509.009 3.14844 -5.10875 0
M  V30 5428 H 510.079 1.88966 -4.46565 0
M  V30 5429 N 511.423 1.38739 0.74761 0
M  V30 5430 C 512.67 1.35274 1.50689 0
M  V30 5431 C 512.998 -0.0553359 1.94421 0
M  V30 5432 O 512.253 -1.03365 1.66175 0
M  V30 5433 C 512.552 2.25992 2.7688 0
M  V30 5434 C 512.218 3.73854 2.5208 0
M  V30 5435 C 510.88 4.14145 2.45025 0
M  V30 5436 C 513.232 4.67427 2.30568 0
M  V30 5437 C 510.56 5.4609 2.14483 0
M  V30 5438 C 512.912 5.99635 2.01545 0
M  V30 5439 C 511.576 6.39004 1.92951 0
M  V30 5440 H 510.846 0.495003 0.55141 0
M  V30 5441 H 513.493 1.71145 0.859158 0
M  V30 5442 H 511.798 1.83196 3.46333 0
M  V30 5443 H 513.495 2.20611 3.34861 0
M  V30 5444 H 510.085 3.41913 2.58444 0
M  V30 5445 H 514.269 4.3714 2.34994 0
M  V30 5446 H 509.525 5.75528 2.06342 0
M  V30 5447 H 513.699 6.71678 1.83906 0
M  V30 5448 H 511.326 7.41165 1.6905 0
M  V30 5449 N 512.901 -0.976442 1.23707 0
M  V30 5450 C 513.848 -2.06952 1.02174 0
M  V30 5451 C 514.818 -1.65984 -0.0621034 0
M  V30 5452 O 516.003 -1.90584 0.0907906 0
M  V30 5453 C 513.143 -3.39425 0.62327 0
M  V30 5454 C 512.256 -3.9364 1.77966 0
M  V30 5455 C 511.391 -5.14343 1.3276 0
M  V30 5456 C 510.43 -5.60733 2.45449 0
M  V30 5457 N 509.567 -6.72662 2.01172 0
M  V30 5458 H 514.407 -2.24704 1.95734 0
M  V30 5459 H 511.944 -1.10143 0.975034 0
M  V30 5460 H 513.902 -4.15526 0.37332 0
M  V30 5461 H 512.532 -3.21624 -0.275329 0
M  V30 5462 H 511.584 -3.14258 2.14351 0
M  V30 5463 H 512.896 -4.24035 2.62671 0
M  V30 5464 H 512.05 -5.97789 1.03601 0
M  V30 5465 H 510.789 -4.8561 0.450975 0
M  V30 5466 H 509.794 -4.75865 2.75378 0
M  V30 5467 H 511.019 -5.91483 3.33654 0
M  V30 5468 H 508.965 -6.45681 1.15895 0
M  V30 5469 H 508.882 -7.02462 2.79434 0
M  V30 5470 H 510.15 -7.59572 1.75129 0
M  V30 5471 N 514.379 -1.04941 -1.1758 0
M  V30 5472 C 515.656 -0.671918 -1.83697 0
M  V30 5473 C 516.036 0.847929 -1.93322 0
M  V30 5474 O 515.384 1.75287 -1.46583 0
M  V30 5475 C 515.594 -1.35797 -3.21497 0
M  V30 5476 C 516.942 -1.4944 -3.97433 0
M  V30 5477 O 517.966 -1.31678 -3.30967 0
M  V30 5478 O 516.825 -1.78463 -5.1654 0
M  V30 5479 H 513.919 -0.236212 -0.792548 0
M  V30 5480 H 516.465 -1.14884 -1.24899 0
M  V30 5481 H 515.237 -2.39498 -3.09446 0
M  V30 5482 H 514.86 -0.870236 -3.8796 0
M  V30 5483 N 515.857 1.33968 -0.830081 0
M  V30 5484 C 517.134 1.92554 -0.343858 0
M  V30 5485 C 517.514 1.7573 1.16971 0
M  V30 5486 O 516.862 1.14035 1.98011 0
M  V30 5487 C 517.072 3.40147 -0.781073 0
M  V30 5488 C 518.42 4.17299 -0.78402 0
M  V30 5489 O 519.444 3.48762 -0.724112 0
M  V30 5490 O 518.303 5.39631 -0.863739 0
M  V30 5491 H 515.397 0.821469 -0.0954827 0
M  V30 5492 H 517.943 1.42897 -0.915348 0
M  V30 5493 H 516.715 3.46225 -1.82329 0
M  V30 5494 H 516.338 3.97166 -0.18567 0
M  V30 5495 N 517.335 0.585699 1.46312 0
M  V30 5496 C 518.282 -0.145835 2.30339 0
M  V30 5497 C 519.252 -0.881215 1.40797 0
M  V30 5498 O 520.437 -0.871293 1.69744 0
M  V30 5499 C 517.577 -1.15161 3.25318 0
M  V30 5500 C 516.69 -0.419367 4.2996 0
M  V30 5501 C 515.825 -1.41293 5.12064 0
M  V30 5502 C 514.864 -0.667261 6.08452 0
M  V30 5503 N 514.001 -1.60903 6.83414 0
M  V30 5504 H 518.841 0.576755 2.92365 0
M  V30 5505 H 516.378 0.296237 1.44086 0
M  V30 5506 H 518.336 -1.74763 3.78832 0
M  V30 5507 H 516.966 -1.84188 2.65094 0
M  V30 5508 H 516.018 0.291751 3.7928 0
M  V30 5509 H 517.33 0.163433 4.98532 0
M  V30 5510 H 516.484 -2.08167 5.6987 0
M  V30 5511 H 515.223 -2.02966 4.43459 0
M  V30 5512 H 514.228 0.0152356 5.49798 0
M  V30 5513 H 515.453 -0.0558817 6.79077 0
M  V30 5514 H 513.399 -2.21381 6.17516 0
M  V30 5515 H 513.316 -1.07911 7.48259 0
M  V30 5516 H 514.584 -2.26802 7.45775 0
M  V30 5517 N 518.813 -1.54241 0.323641 0
M  V30 5518 C 520.043 -2.04687 -0.280464 0
M  V30 5519 C 520.451 -1.19939 -1.46326 0
M  V30 5520 O 519.794 -0.222872 -1.82343 0
M  V30 5521 C 519.856 -3.50978 -0.778123 0
M  V30 5522 C 519.52 -4.56127 0.282371 0
M  V30 5523 C 520.517 -5.07726 1.11847 0
M  V30 5524 C 518.202 -5.00451 0.430582 0
M  V30 5525 C 520.196 -6.02212 2.08851 0
M  V30 5526 C 517.883 -5.94752 1.40404 0
M  V30 5527 C 518.881 -6.45519 2.23147 0
M  V30 5528 O 518.569 -7.37968 3.1884 0
M  V30 5529 H 518.301 -0.673192 -0.0615473 0
M  V30 5530 H 520.855 -1.99999 0.467921 0
M  V30 5531 H 519.085 -3.53064 -1.57742 0
M  V30 5532 H 520.774 -3.84499 -1.30058 0
M  V30 5533 H 521.54 -4.74261 1.01496 0
M  V30 5534 H 517.419 -4.6055 -0.203569 0
M  V30 5535 H 520.963 -6.41761 2.73474 0
M  V30 5536 H 516.86 -6.27633 1.5082 0
M  V30 5537 H 517.628 -7.55841 3.14079 0
M  V30 5538 N 520.291 -0.0518155 -1.57515 0
M  V30 5539 C 521.537 0.616839 -1.93821 0
M  V30 5540 C 521.892 1.68413 -0.930307 0
M  V30 5541 O 521.185 1.91534 0.0504231 0
M  V30 5542 C 521.379 1.25607 -3.34601 0
M  V30 5543 C 521.208 0.252222 -4.48992 0
M  V30 5544 C 519.978 -0.156031 -5.05059 0
M  V30 5545 C 522.176 -0.502613 -5.11838 0
M  V30 5546 N 520.158 -1.15267 -6.02981 0
M  V30 5547 C 521.529 -1.35232 -6.05072 0
M  V30 5548 C 523.584 -0.560855 -4.94731 0
M  V30 5549 C 522.287 -2.25505 -6.83037 0
M  V30 5550 C 524.313 -1.45102 -5.73323 0
M  V30 5551 C 523.675 -2.28845 -6.6619 0
M  V30 5552 H 519.774 0.197344 -0.75669 0
M  V30 5553 H 522.358 -0.124297 -1.94303 0
M  V30 5554 H 520.529 1.96723 -3.34895 0
M  V30 5555 H 522.261 1.88358 -3.58195 0
M  V30 5556 H 519.016 0.22306 -4.73074 0
M  V30 5557 H 519.44 -1.64791 -6.56638 0
M  V30 5558 H 524.082 0.0723639 -4.22738 0
M  V30 5559 H 521.8 -2.89872 -7.54321 0
M  V30 5560 H 525.386 -1.50066 -5.62113 0
M  V30 5561 H 524.266 -2.96608 -7.25943 0
M  V30 5562 N 521.769 1.56035 0.221574 0
M  V30 5563 C 522.699 1.95434 1.2778 0
M  V30 5564 C 523.68 0.822564 1.48889 0
M  V30 5565 O 524.865 1.08486 1.61072 0
M  V30 5566 C 521.995 2.27102 2.62759 0
M  V30 5567 C 520.949 3.4277 2.56306 0
M  V30 5568 C 520.275 3.60043 3.95314 0
M  V30 5569 C 521.575 4.77742 2.11093 0
M  V30 5570 H 523.269 2.83912 0.950504 0
M  V30 5571 H 520.815 1.36596 0.455791 0
M  V30 5572 H 522.768 2.53256 3.36807 0
M  V30 5573 H 521.492 1.35478 2.97176 0
M  V30 5574 H 520.151 3.16664 1.84715 0
M  V30 5575 H 519.799 2.65794 4.27039 0
M  V30 5576 H 519.499 4.37841 3.91879 0
M  V30 5577 H 521.023 3.88545 4.71025 0
M  V30 5578 H 522.437 5.03102 2.74885 0
M  V30 5579 H 520.834 5.58823 2.18716 0
M  V30 5580 H 521.904 4.731 1.06321 0
M  V30 5581 N 523.247 -0.488276 1.49845 0
M  V30 5582 C 524.496 -1.23826 1.59217 0
M  V30 5583 C 524.809 -1.93439 0.289966 0
M  V30 5584 O 526.015 -2.70229 0.262382 0
M  V30 5585 C 524.471 -2.24902 2.80976 0
M  V30 5586 C 524.079 -1.6117 4.18005 0
M  V30 5587 C 525.823 -3.00648 2.99685 0
M  V30 5588 C 523.73 -2.60431 5.3097 0
M  V30 5589 H 522.66 -0.465858 0.592868 0
M  V30 5590 H 525.311 -0.510645 1.76252 0
M  V30 5591 H 523.693 -3.0088 2.57463 0
M  V30 5592 H 524.867 -0.910968 4.51706 0
M  V30 5593 H 523.182 -0.97767 4.0476 0
M  V30 5594 H 525.779 -3.74903 3.81251 0
M  V30 5595 H 526.122 -3.5902 2.10738 0
M  V30 5596 H 526.655 -2.31784 3.23297 0
M  V30 5597 H 523.394 -2.06823 6.22017 0
M  V30 5598 H 522.914 -3.28707 5.01709 0
M  V30 5599 H 524.593 -3.22606 5.60834 0
M  V30 5600 N 524.725 -1.39134 -0.740242 0
M  V30 5601 C 525.95 -1.39518 -1.53459 0
M  V30 5602 C 526.375 0.00968883 -1.88098 0
M  V30 5603 O 525.733 0.995312 -1.51536 0
M  V30 5604 C 525.781 -2.26981 -2.802 0
M  V30 5605 O 524.885 -1.69609 -3.75908 0
M  V30 5606 H 524.226 -0.475328 -0.463637 0
M  V30 5607 H 526.756 -1.83064 -0.913717 0
M  V30 5608 H 526.766 -2.41309 -3.28989 0
M  V30 5609 H 525.441 -3.29081 -2.5432 0
M  V30 5610 H 524.018 -1.64495 -3.34658 0
M  V30 5611 N 526.204 0.969867 -1.24223 0
M  V30 5612 C 527.152 2.08535 -1.03034 0
M  V30 5613 C 528.146 1.69366 0.0340379 0
M  V30 5614 O 529.352 1.79597 -0.12034 0
M  V30 5615 H 525.727 0.682313 -0.316154 0
M  V30 5616 H 527.698 2.23569 -1.97635 0
M  V30 5617 C 526.447 3.4158 -0.649509 0
M  V30 5618 H 525.77 3.72177 -1.46028 0
M  V30 5619 H 527.21 4.20536 -0.540841 0
M  V30 5620 C 525.669 3.30703 0.643194 0
M  V30 5621 O 526.199 3.64443 1.68951 0
M  V30 5622 N 524.405 2.83841 0.623095 0
M  V30 5623 H 523.952 2.56583 -0.228719 0
M  V30 5624 H 523.91 2.76946 1.48823 0
M  V30 5625 N 527.682 1.05563 1.17022 0
M  V30 5626 C 528.612 0.681026 2.23348 0
M  V30 5627 C 529.593 -0.322983 1.67005 0
M  V30 5628 O 530.778 -0.199746 1.9317 0
M  V30 5629 C 527.908 0.0589053 3.4725 0
M  V30 5630 C 526.862 0.988082 4.16438 0
M  V30 5631 C 526.188 0.229646 5.34207 0
M  V30 5632 C 527.488 2.31388 4.68249 0
M  V30 5633 H 529.182 1.56993 2.54938 0
M  V30 5634 H 526.728 0.756302 1.2254 0
M  V30 5635 H 528.681 -0.214982 4.20851 0
M  V30 5636 H 527.405 -0.864968 3.14938 0
M  V30 5637 H 526.064 1.24659 3.44754 0
M  V30 5638 H 525.712 -0.697111 4.98146 0
M  V30 5639 H 525.412 0.848815 5.81437 0
M  V30 5640 H 526.936 -0.0368694 6.10589 0
M  V30 5641 H 528.35 2.09964 5.33468 0
M  V30 5642 H 526.747 2.88736 5.26072 0
M  V30 5643 H 527.817 2.94982 3.84855 0
M  V30 5644 N 529.16 -1.33526 0.837174 0
M  V30 5645 C 530.576 -1.50727 0.524743 0
M  V30 5646 C 530.776 -1.77792 -0.948279 0
M  V30 5647 O 529.832 -1.83719 -1.73216 0
M  V30 5648 C 531.145 -2.66299 1.39661 0
M  V30 5649 C 532.693 -2.80183 1.39521 0
M  V30 5650 C 533.168 -3.98815 2.25189 0
M  V30 5651 N 534.659 -4.06047 2.2289 0
M  V30 5652 C 535.394 -4.97032 2.85915 0
M  V30 5653 N 534.89 -5.93143 3.57985 0
M  V30 5654 N 536.683 -4.90015 2.75394 0
M  V30 5655 H 528.834 -1.1422 1.79074 0
M  V30 5656 H 531.097 -0.561399 0.763894 0
M  V30 5657 H 530.803 -2.52974 2.4433 0
M  V30 5658 H 530.677 -3.61663 1.07145 0
M  V30 5659 H 533.064 -2.92942 0.356253 0
M  V30 5660 H 533.145 -1.85586 1.76044 0
M  V30 5661 H 532.789 -3.86817 3.29143 0
M  V30 5662 H 532.719 -4.92654 1.86009 0
M  V30 5663 H 535.21 -3.37262 1.70478 0
M  V30 5664 H 535.523 -6.59227 4.03286 0
M  V30 5665 H 533.868 -5.93223 3.62093 0
M  V30 5666 H 537.059 -4.13894 2.18654 0
M  V30 5667 H 537.232 -5.60724 3.24796 0
M  V30 5668 N 530.638 -0.59345 -1.46 0
M  V30 5669 C 532.049 -0.169801 -1.85926 0
M  V30 5670 C 532.4 1.26984 -1.49565 0
M  V30 5671 O 531.525 1.96076 -0.915602 0
M  V30 5672 C 532.12 -0.301385 -3.37457 0
M  V30 5673 C 530.679 0.0674684 -3.7634 0
M  V30 5674 C 529.826 -0.632383 -2.69993 0
M  V30 5675 H 532.777 -0.801014 -1.37002 0
M  V30 5676 H 532.798 0.470331 -3.77582 0
M  V30 5677 H 532.31 -1.34927 -3.63891 0
M  V30 5678 H 530.411 1.11507 -3.55523 0
M  V30 5679 H 530.524 -0.316332 -4.78055 0
M  V30 5680 H 528.888 -0.0714961 -2.546 0
M  V30 5681 H 529.671 -1.68212 -2.99265 0
M  V30 5682 N 532.116 1.54067 -0.331816 0
M  V30 5683 C 533.026 2.28322 0.539104 0
M  V30 5684 C 534.042 1.32985 1.1221 0
M  V30 5685 O 535.218 1.6601 1.1403 0
M  V30 5686 C 532.283 3.03277 1.68 0
M  V30 5687 C 531.344 4.14216 1.12798 0
M  V30 5688 C 530.577 4.85588 2.2145 0
M  V30 5689 O 530.8 4.56536 3.41952 0
M  V30 5690 O 529.734 5.72309 1.86404 0
M  V30 5691 H 533.56 3.03632 -0.0641692 0
M  V30 5692 H 531.145 1.49083 -0.0972365 0
M  V30 5693 H 533.027 3.50189 2.34405 0
M  V30 5694 H 531.702 2.30834 2.2693 0
M  V30 5695 H 530.609 3.71635 0.428782 0
M  V30 5696 H 531.942 4.88727 0.583698 0
M  V30 5697 N 533.594 0.0601682 1.57485 0
M  V30 5698 C 535.005 -0.474217 1.80577 0
M  V30 5699 C 535.356 -1.70365 0.973147 0
M  V30 5700 O 534.481 -2.15544 0.192306 0
M  V30 5701 C 535.076 -0.867102 3.27516 0
M  V30 5702 C 533.635 -1.34642 3.51495 0
M  V30 5703 C 532.782 -0.32594 2.75378 0
M  V30 5704 H 535.733 0.285973 1.56102 0
M  V30 5705 H 535.754 -1.72938 3.38929 0
M  V30 5706 H 535.266 0.0278927 3.8809 0
M  V30 5707 H 533.367 -2.2603 2.96212 0
M  V30 5708 H 533.48 -1.33237 4.60201 0
M  V30 5709 H 531.844 -0.800749 2.41785 0
M  V30 5710 H 532.627 0.561125 3.38683 0
M  V30 5711 N 535.072 -1.5615 -0.213296 0
M  V30 5712 C 536.02 -1.93953 -1.28394 0
M  V30 5713 C 537.014 -0.822592 -1.48087 0
M  V30 5714 O 538.22 -1.00748 -1.49164 0
M  V30 5715 H 534.595 -0.61648 -0.430646 0
M  V30 5716 H 536.566 -2.83275 -0.937977 0
M  V30 5717 C 535.315 -2.27969 -2.62537 0
M  V30 5718 H 534.638 -3.13432 -2.48194 0
M  V30 5719 H 536.078 -2.58297 -3.36242 0
M  V30 5720 C 534.537 -1.10775 -3.18167 0
M  V30 5721 O 535.067 -0.373201 -3.99963 0
M  V30 5722 N 533.273 -0.889377 -2.76656 0
M  V30 5723 H 532.82 -1.48843 -2.10246 0
M  V30 5724 H 532.778 -0.107 -3.14218 0
M  V30 5725 N 536.55 0.480323 -1.50102 0
M  V30 5726 C 537.78 1.25475 -1.64133 0
M  V30 5727 C 538.188 1.8647 -0.320272 0
M  V30 5728 O 537.531 1.69561 0.70673 0
M  V30 5729 C 537.593 2.40996 -2.6676 0
M  V30 5730 C 537.257 2.00711 -4.10565 0
M  V30 5731 C 538.254 1.53492 -4.96725 0
M  V30 5732 C 535.939 2.09714 -4.56427 0
M  V30 5733 C 537.933 1.15806 -6.26792 0
M  V30 5734 C 535.62 1.7164 -5.86501 0
M  V30 5735 C 536.618 1.24763 -6.71508 0
M  V30 5736 O 536.306 0.872122 -7.99155 0
M  V30 5737 H 536.038 0.385983 -0.554971 0
M  V30 5738 H 538.592 0.580848 -1.97016 0
M  V30 5739 H 536.822 3.11528 -2.291 0
M  V30 5740 H 538.511 3.02981 -2.70106 0
M  V30 5741 H 539.277 1.45966 -4.62514 0
M  V30 5742 H 535.156 2.4515 -3.90413 0
M  V30 5743 H 538.7 0.791465 -6.93096 0
M  V30 5744 H 534.597 1.78822 -6.20236 0
M  V30 5745 H 535.365 1.00178 -8.12346 0
M  V30 5746 N 538.028 1.39524 0.732853 0
M  V30 5747 C 539.439 1.32905 1.31122 0
M  V30 5748 C 539.79 -0.00558708 1.96199 0
M  V30 5749 O 538.915 -0.907706 1.96443 0
M  V30 5750 C 539.51 2.40704 2.38426 0
M  V30 5751 C 538.069 2.37599 2.91931 0
M  V30 5752 C 537.216 2.2248 1.65523 0
M  V30 5753 H 540.167 1.49581 0.530207 0
M  V30 5754 H 540.188 2.07616 3.18867 0
M  V30 5755 H 539.7 3.37829 1.91033 0
M  V30 5756 H 537.801 1.44119 3.43599 0
M  V30 5757 H 537.914 3.32538 3.44899 0
M  V30 5758 H 536.278 1.69691 1.8994 0
M  V30 5759 H 537.061 3.21577 1.20178 0
M  V30 5760 N 539.506 -0.963266 1.24736 0
M  V30 5761 C 540.453 -2.05857 1.04363 0
M  V30 5762 C 541.423 -1.6604 -0.0444951 0
M  V30 5763 O 542.608 -1.90477 0.110999 0
M  V30 5764 C 539.748 -3.38745 0.659235 0
M  V30 5765 C 538.861 -3.9173 1.82131 0
M  V30 5766 C 537.996 -5.12906 1.38208 0
M  V30 5767 C 537.035 -5.58098 2.51382 0
M  V30 5768 N 536.172 -6.7049 2.08295 0
M  V30 5769 H 541.012 -2.22616 1.98107 0
M  V30 5770 H 538.549 -1.09103 0.986661 0
M  V30 5771 H 540.507 -4.15107 0.417371 0
M  V30 5772 H 539.137 -3.21898 -0.241201 0
M  V30 5773 H 538.189 -3.11966 2.17672 0
M  V30 5774 H 539.501 -4.21225 2.67153 0
M  V30 5775 H 538.655 -5.96657 1.09935 0
M  V30 5776 H 537.394 -4.85105 0.502456 0
M  V30 5777 H 536.399 -4.72917 2.80409 0
M  V30 5778 H 537.624 -5.87911 3.39909 0
M  V30 5779 H 535.57 -6.44416 1.22737 0
M  V30 5780 H 535.487 -6.99458 2.86869 0
M  V30 5781 H 536.755 -7.57672 1.83175 0
M  V30 5782 N 540.985 -1.06182 -1.16461 0
M  V30 5783 C 542.21 -0.798599 -1.91408 0
M  V30 5784 C 542.635 0.640987 -1.76842 0
M  V30 5785 O 541.993 1.44652 -1.09296 0
M  V30 5786 C 542.041 -1.19665 -3.40165 0
M  V30 5787 O 541.145 -0.334768 -4.11039 0
M  V30 5788 H 540.486 -0.291961 -0.596368 0
M  V30 5789 H 543.016 -1.41732 -1.47557 0
M  V30 5790 H 543.026 -1.16772 -3.90933 0
M  V30 5791 H 541.701 -2.24526 -3.50087 0
M  V30 5792 H 540.278 -0.425168 -3.70468 0
M  V30 5793 N 542.463 1.3308 -0.844243 0
M  V30 5794 C 543.712 1.96868 -0.438833 0
M  V30 5795 C 544.025 1.67599 1.00846 0
M  V30 5796 O 545.231 2.25043 1.51881 0
M  V30 5797 C 543.687 3.5234 -0.73377 0
M  V30 5798 C 543.295 3.90481 -2.1961 0
M  V30 5799 C 545.039 4.22653 -0.395574 0
M  V30 5800 C 542.946 5.38954 -2.43481 0
M  V30 5801 H 541.876 0.736749 -0.160364 0
M  V30 5802 H 544.527 1.51623 -1.03358 0
M  V30 5803 H 542.909 3.95941 -0.068589 0
M  V30 5804 H 544.083 3.57922 -2.90221 0
M  V30 5805 H 542.398 3.33165 -2.4978 0
M  V30 5806 H 544.995 5.31848 -0.551477 0
M  V30 5807 H 545.338 4.11004 0.661921 0
M  V30 5808 H 545.871 3.84601 -1.01621 0
M  V30 5809 H 542.61 5.55612 -3.47816 0
M  V30 5810 H 542.13 5.72954 -1.77437 0
M  V30 5811 H 543.809 6.05907 -2.26905 0
M  V30 5812 N 543.941 0.601185 1.45683 0
M  V30 5813 C 544.891 -0.142686 2.27553 0
M  V30 5814 C 545.875 -0.844598 1.3695 0
M  V30 5815 O 547.067 -0.735644 1.60988 0
M  V30 5816 C 544.196 -1.14364 3.23691 0
M  V30 5817 C 543.282 -0.442894 4.21781 0
M  V30 5818 N 543.673 0.51189 5.03203 0
M  V30 5819 C 541.971 -0.691277 4.4061 0
M  V30 5820 C 542.672 0.92318 5.74328 0
M  V30 5821 N 541.648 0.268308 5.42937 0
M  V30 5822 H 545.45 0.590736 2.87902 0
M  V30 5823 H 542.964 0.424365 1.56757 0
M  V30 5824 H 544.961 -1.6909 3.8107 0
M  V30 5825 H 543.621 -1.87768 2.64902 0
M  V30 5826 H 544.632 0.888329 5.10225 0
M  V30 5827 H 541.309 -1.41049 3.92952 0
M  V30 5828 H 542.699 1.71029 6.49768 0
M  V30 5829 N 545.419 -1.53889 0.339982 0
M  V30 5830 C 546.644 -2.05741 -0.261798 0
M  V30 5831 C 547.069 -1.21354 -1.43718 0
M  V30 5832 O 546.427 -0.22645 -1.7988 0
M  V30 5833 C 546.475 -3.54542 -0.658228 0
M  V30 5834 O 545.579 -3.7302 -1.75869 0
M  V30 5835 H 544.92 -0.662529 -0.0441672 0
M  V30 5836 H 547.45 -1.98568 0.493161 0
M  V30 5837 H 547.46 -3.9711 -0.936368 0
M  V30 5838 H 546.135 -4.15412 0.201358 0
M  V30 5839 H 544.712 -3.42355 -1.47809 0
M  V30 5840 N 546.897 -0.0685191 -1.57451 0
M  V30 5841 C 548.144 0.601348 -1.93365 0
M  V30 5842 C 548.472 1.69816 -0.948294 0
M  V30 5843 O 547.727 1.95666 0.0366199 0
M  V30 5844 C 548.026 1.22051 -3.35914 0
M  V30 5845 C 547.692 0.250165 -4.50205 0
M  V30 5846 C 546.354 -0.0167954 -4.81197 0
M  V30 5847 C 548.706 -0.413867 -5.19554 0
M  V30 5848 C 546.034 -0.95493 -5.78876 0
M  V30 5849 C 548.386 -1.3403 -6.18238 0
M  V30 5850 C 547.05 -1.61576 -6.47649 0
M  V30 5851 H 546.32 0.220049 -0.707573 0
M  V30 5852 H 548.967 -0.138697 -1.90997 0
M  V30 5853 H 547.272 2.03622 -3.34732 0
M  V30 5854 H 548.969 1.74605 -3.6099 0
M  V30 5855 H 545.559 0.468421 -4.26033 0
M  V30 5856 H 549.743 -0.220733 -4.95809 0
M  V30 5857 H 544.999 -1.17563 -5.99991 0
M  V30 5858 H 549.173 -1.86081 -6.71079 0
M  V30 5859 H 546.8 -2.34431 -7.2315 0
M  V30 5860 N 548.375 1.56261 0.205012 0
M  V30 5861 C 549.623 1.79684 0.925096 0
M  V30 5862 C 549.944 0.63989 1.84202 0
M  V30 5863 O 549.214 -0.342345 1.92885 0
M  V30 5864 H 547.794 0.662774 0.344587 0
M  V30 5865 H 550.456 1.93734 0.212899 0
M  V30 5866 H 549.552 2.72467 1.52211 0
M  V30 5867 N 549.853 -0.472356 1.50355 0
M  V30 5868 C 551.1 -1.22453 1.61281 0
M  V30 5869 C 551.428 -1.91972 0.31256 0
M  V30 5870 O 550.683 -1.82696 -0.701475 0
M  V30 5871 C 550.982 -2.29257 2.74182 0
M  V30 5872 C 550.648 -1.76999 4.14708 0
M  V30 5873 C 549.31 -1.62467 4.52944 0
M  V30 5874 C 551.662 -1.38215 5.0254 0
M  V30 5875 C 548.99 -1.07574 5.76754 0
M  V30 5876 C 551.342 -0.847638 6.26895 0
M  V30 5877 C 550.006 -0.688946 6.63935 0
M  V30 5878 H 549.276 -0.448087 0.590168 0
M  V30 5879 H 551.923 -0.520744 1.84284 0
M  V30 5880 H 550.228 -3.05538 2.45263 0
M  V30 5881 H 551.925 -2.87212 2.7984 0
M  V30 5882 H 548.515 -1.89276 3.84542 0
M  V30 5883 H 552.699 -1.48276 4.73633 0
M  V30 5884 H 547.955 -0.940237 6.04127 0
M  V30 5885 H 552.129 -0.538455 6.94315 0
M  V30 5886 H 549.756 -0.261435 7.5975 0
M  V30 5887 N 551.331 -1.39911 -0.725443 0
M  V30 5888 C 552.742 -1.33599 -1.30415 0
M  V30 5889 C 553.093 -0.00481792 -1.96199 0
M  V30 5890 O 552.218 0.897275 -1.96921 0
M  V30 5891 C 552.813 -2.41965 -2.37146 0
M  V30 5892 C 551.372 -2.39144 -2.90667 0
M  V30 5893 C 550.519 -2.23355 -1.64341 0
M  V30 5894 H 553.47 -1.4986 -0.522267 0
M  V30 5895 H 553.491 -2.09304 -3.17761 0
M  V30 5896 H 553.003 -3.38837 -1.89238 0
M  V30 5897 H 551.104 -1.4594 -3.4283 0
M  V30 5898 H 551.217 -3.34362 -3.43131 0
M  V30 5899 H 549.581 -1.70696 -1.89037 0
M  V30 5900 H 550.364 -3.2221 -1.18471 0
M  V30 5901 N 552.809 0.956637 -1.25245 0
M  V30 5902 C 553.757 2.0743 -1.0524 0
M  V30 5903 C 554.751 1.69392 0.0160725 0
M  V30 5904 O 555.957 1.7946 -0.139382 0
M  V30 5905 H 552.332 0.678921 -0.323373 0
M  V30 5906 H 554.303 2.2146 -1.99995 0
M  V30 5907 C 553.052 3.40872 -0.685702 0
M  V30 5908 H 552.375 3.70607 -1.49968 0
M  V30 5909 H 553.815 4.19939 -0.585415 0
M  V30 5910 C 552.274 3.31367 0.608082 0
M  V30 5911 O 552.804 3.66214 1.65076 0
M  V30 5912 N 551.01 2.84486 0.592955 0
M  V30 5913 H 550.557 2.56326 -0.25592 0
M  V30 5914 H 550.515 2.78509 1.45877 0
M  V30 5915 N 554.287 1.06798 1.15896 0
M  V30 5916 C 555.534 0.787767 1.86549 0
M  V30 5917 C 555.862 -0.685959 1.82002 0
M  V30 5918 O 555.117 -1.5188 1.23414 0
M  V30 5919 C 555.416 1.23414 3.35416 0
M  V30 5920 C 555.082 2.71285 3.6016 0
M  V30 5921 C 553.744 3.11676 3.66622 0
M  V30 5922 C 556.096 3.6676 3.7032 0
M  V30 5923 C 553.424 4.4637 3.8075 0
M  V30 5924 C 555.776 5.01209 3.8597 0
M  V30 5925 C 554.44 5.41229 3.90676 0
M  V30 5926 H 553.71 0.288264 0.682631 0
M  V30 5927 H 556.357 1.338 1.37003 0
M  V30 5928 H 554.662 0.60319 3.87129 0
M  V30 5929 H 556.359 0.994298 3.88477 0
M  V30 5930 H 552.949 2.39015 3.55767 0
M  V30 5931 H 557.133 3.36685 3.64633 0
M  V30 5932 H 552.389 4.76855 3.82648 0
M  V30 5933 H 556.563 5.75067 3.92773 0
M  V30 5934 H 554.19 6.45602 4.01375 0
M  V30 5935 N 555.766 -1.3263 0.851289 0
M  V30 5936 C 557.012 -1.9766 0.453694 0
M  V30 5937 C 557.345 -1.67225 -0.987396 0
M  V30 5938 O 556.62 -0.958693 -1.69232 0
M  V30 5939 C 556.903 -3.5344 0.68936 0
M  V30 5940 C 556.756 -3.93517 2.17862 0
M  V30 5941 C 558.075 -4.39866 0.143555 0
M  V30 5942 H 555.194 -0.717989 0.166314 0
M  V30 5943 H 557.836 -1.57068 1.06909 0
M  V30 5944 H 555.986 -3.88147 0.165546 0
M  V30 5945 H 557.658 -3.69006 2.76826 0
M  V30 5946 H 555.901 -3.42798 2.65841 0
M  V30 5947 H 556.572 -5.02065 2.29422 0
M  V30 5948 H 559.048 -4.11875 0.591451 0
M  V30 5949 H 557.924 -5.47858 0.338043 0
M  V30 5950 H 558.185 -4.31696 -0.953466 0
M  V30 5951 N 557.244 -0.608902 -1.45362 0
M  V30 5952 C 558.191 0.109172 -2.30542 0
M  V30 5953 C 559.161 0.858704 -1.42181 0
M  V30 5954 O 560.346 0.844178 -1.71109 0
M  V30 5955 C 557.486 1.09971 -3.27109 0
M  V30 5956 C 556.599 0.350911 -4.30572 0
M  V30 5957 C 555.734 1.33129 -5.14247 0
M  V30 5958 C 554.773 0.570377 -6.09437 0
M  V30 5959 N 553.91 1.5001 -6.85887 0
M  V30 5960 H 558.75 -0.623195 -2.91411 0
M  V30 5961 H 556.287 -0.319122 -1.43597 0
M  V30 5962 H 558.245 1.68714 -3.81564 0
M  V30 5963 H 556.875 1.79947 -2.67991 0
M  V30 5964 H 555.927 -0.352054 -3.78767 0
M  V30 5965 H 557.239 -0.242725 -4.98209 0
M  V30 5966 H 556.393 1.99074 -5.73109 0
M  V30 5967 H 555.132 1.95885 -4.46632 0
M  V30 5968 H 554.137 -0.102702 -5.49704 0
M  V30 5969 H 555.362 -0.0521607 -6.7908 0
M  V30 5970 H 553.308 2.11529 -6.2096 0
M  V30 5971 H 553.225 0.959934 -7.49881 0
M  V30 5972 H 554.493 2.14909 -7.49289 0
M  V30 5973 N 558.722 1.53707 -0.348139 0
M  V30 5974 C 559.669 2.25173 0.506518 0
M  V30 5975 C 560.639 1.25174 1.09182 0
M  V30 5976 O 561.824 1.53917 1.12757 0
M  V30 5977 C 558.964 3.03141 1.64923 0
M  V30 5978 C 558.077 4.18002 1.0908 0
M  V30 5979 C 557.212 4.83447 2.20119 0
M  V30 5980 C 556.251 5.90369 1.61651 0
M  V30 5981 N 555.388 6.49575 2.66451 0
M  V30 5982 H 560.228 2.97799 -0.109452 0
M  V30 5983 H 557.765 1.46953 -0.0657866 0
M  V30 5984 H 559.723 3.46607 2.32205 0
M  V30 5985 H 558.353 2.32803 2.23612 0
M  V30 5986 H 557.405 3.79145 0.308783 0
M  V30 5987 H 558.717 4.94892 0.623178 0
M  V30 5988 H 557.871 5.30008 2.95257 0
M  V30 5989 H 556.61 4.05991 2.70227 0
M  V30 5990 H 555.615 5.43186 0.850209 0
M  V30 5991 H 556.84 6.69735 1.1239 0
M  V30 5992 H 554.786 5.74981 3.15805 0
M  V30 5993 H 554.703 7.21952 2.24325 0
M  V30 5994 H 555.971 7.00789 3.41344 0
M  V30 5995 N 560.2 0.0768682 1.57412 0
M  V30 5996 C 561.449 -0.590679 1.92857 0
M  V30 5997 C 561.762 -1.70461 0.959293 0
M  V30 5998 O 562.968 -2.43207 1.20675 0
M  V30 5999 C 561.424 -1.10204 3.42612 0
M  V30 6000 C 561.032 -0.0188447 4.47996 0
M  V30 6001 C 562.776 -1.74336 3.87049 0
M  V30 6002 C 560.683 -0.544536 5.88888 0
M  V30 6003 H 559.613 -0.224411 0.71983 0
M  V30 6004 H 562.264 0.149924 1.82887 0
M  V30 6005 H 560.646 -1.89577 3.47673 0
M  V30 6006 H 561.82 0.755936 4.54557 0
M  V30 6007 H 560.135 0.526555 4.13057 0
M  V30 6008 H 562.732 -2.14708 4.89699 0
M  V30 6009 H 563.075 -2.60537 3.24694 0
M  V30 6010 H 563.608 -1.01577 3.84613 0
M  V30 6011 H 560.347 0.280426 6.549 0
M  V30 6012 H 559.867 -1.28673 5.85836 0
M  V30 6013 H 561.546 -1.01933 6.3892 0
M  V30 6014 N 561.678 -1.56367 -0.196722 0
M  V30 6015 C 562.955 -1.71359 -0.943159 0
M  V30 6016 C 563.335 -0.631192 -2.01443 0
M  V30 6017 O 562.683 0.358071 -2.25677 0
M  V30 6018 C 562.893 -3.13623 -1.53106 0
M  V30 6019 C 564.241 -3.73806 -2.01381 0
M  V30 6020 O 565.265 -3.16742 -1.62951 0
M  V30 6021 O 564.124 -4.73951 -2.7209 0
M  V30 6022 H 561.218 -0.698851 -0.442195 0
M  V30 6023 H 563.764 -1.68672 -0.186547 0
M  V30 6024 H 562.536 -3.83873 -0.758785 0
M  V30 6025 H 562.159 -3.20532 -2.35255 0
M  V30 6026 N 563.156 0.464375 -1.50603 0
M  V30 6027 C 564.119 1.54393 -1.69397 0
M  V30 6028 C 565.119 1.50566 -0.564504 0
M  V30 6029 O 566.309 1.53066 -0.831645 0
M  V30 6030 C 563.441 2.9401 -1.72543 0
M  V30 6031 H 564.634 1.39044 -2.65719 0
M  V30 6032 H 562.187 0.69122 -1.40185 0
M  V30 6033 H 562.922 3.14795 -0.77938 0
M  V30 6034 H 562.707 2.98195 -2.54602 0
M  V30 6035 H 564.197 3.72375 -1.89015 0
M  V30 6036 N 564.634 1.40294 0.718013 0
M  V30 6037 C 565.597 1.4012 1.81381 0
M  V30 6038 C 566.597 0.295405 1.58063 0
M  V30 6039 O 567.787 0.554187 1.6515 0
M  V30 6040 C 564.919 1.19056 3.19435 0
M  V30 6041 H 566.112 2.37645 1.82933 0
M  V30 6042 H 563.665 1.26107 0.923405 0
M  V30 6043 H 564.4 0.222809 3.23534 0
M  V30 6044 H 564.185 1.99152 3.37758 0
M  V30 6045 H 565.675 1.21716 3.99468 0
M  V30 6046 N 566.112 -0.949982 1.2575 0
M  V30 6047 C 567.358 -1.69766 1.10938 0
M  V30 6048 C 567.691 -1.91056 -0.348028 0
M  V30 6049 O 566.966 -1.48488 -1.25625 0
M  V30 6050 C 567.249 -3.07779 1.86933 0
M  V30 6051 C 567.102 -2.9387 3.4053 0
M  V30 6052 C 568.421 -4.07749 1.65616 0
M  V30 6053 H 565.54 -0.616144 0.404396 0
M  V30 6054 H 568.182 -1.10394 1.54639 0
M  V30 6055 H 566.332 -3.58462 1.4979 0
M  V30 6056 H 568.004 -2.50476 3.87375 0
M  V30 6057 H 566.247 -2.29686 3.68004 0
M  V30 6058 H 566.918 -3.91719 3.88922 0
M  V30 6059 H 569.394 -3.65994 1.97959 0
M  V30 6060 H 568.27 -5.02348 2.21218 0
M  V30 6061 H 568.531 -4.38029 0.598595 0
M  V30 6062 N 567.59 -1.07411 -1.15328 0
M  V30 6063 C 568.837 -0.797649 -1.86128 0
M  V30 6064 C 569.165 0.676298 -1.82364 0
M  V30 6065 O 568.42 1.51223 -1.24218 0
M  V30 6066 C 568.719 -1.25191 -3.34757 0
M  V30 6067 C 568.385 -2.73191 -3.58716 0
M  V30 6068 C 567.047 -3.13616 -3.64964 0
M  V30 6069 C 569.399 -3.68718 -3.6837 0
M  V30 6070 C 566.727 -4.48383 -3.78377 0
M  V30 6071 C 569.079 -5.03248 -3.83306 0
M  V30 6072 C 567.743 -5.43293 -3.878 0
M  V30 6073 H 567.013 -0.29188 -0.681092 0
M  V30 6074 H 569.66 -1.34524 -1.36292 0
M  V30 6075 H 567.965 -0.623712 -3.86804 0
M  V30 6076 H 569.662 -1.01489 -3.87945 0
M  V30 6077 H 566.252 -2.40898 -3.54494 0
M  V30 6078 H 570.436 -3.38614 -3.62842 0
M  V30 6079 H 565.692 -4.78877 -3.80114 0
M  V30 6080 H 569.866 -5.77142 -3.89718 0
M  V30 6081 H 567.493 -6.47721 -3.97946 0
M  V30 6082 N 569.068 1.32177 -0.85831 0
M  V30 6083 C 570.016 2.30729 -0.294442 0
M  V30 6084 C 571.01 1.59009 0.584165 0
M  V30 6085 O 572.216 1.73713 0.471562 0
M  V30 6086 H 568.591 0.748097 -0.0765171 0
M  V30 6087 H 570.562 2.75774 -1.1398 0
M  V30 6088 C 569.311 3.44098 0.499208 0
M  V30 6089 H 568.634 3.99449 -0.167579 0
M  V30 6090 H 570.074 4.15202 0.859273 0
M  V30 6091 C 568.533 2.91684 1.68588 0
M  V30 6092 O 569.063 2.89481 2.78503 0
M  V30 6093 N 567.269 2.48036 1.51415 0
M  V30 6094 H 566.816 2.50027 0.620006 0
M  V30 6095 H 566.774 2.13322 2.30957 0
M  V30 6096 N 570.547 0.616602 1.45037 0
M  V30 6097 C 571.958 0.199359 1.85633 0
M  V30 6098 C 572.309 -1.24588 1.51566 0
M  V30 6099 O 571.434 -1.94594 0.94668 0
M  V30 6100 C 572.029 0.355033 3.36935 0
M  V30 6101 C 570.588 -0.00758748 3.76399 0
M  V30 6102 C 569.735 0.675256 2.68953 0
M  V30 6103 H 572.686 0.822708 1.3571 0
M  V30 6104 H 572.707 -0.410201 3.78282 0
M  V30 6105 H 572.219 1.40699 3.61698 0
M  V30 6106 H 570.32 -1.05837 3.57252 0
M  V30 6107 H 570.433 0.392346 4.77491 0
M  V30 6108 H 568.797 0.111992 2.54454 0
M  V30 6109 H 569.58 1.72952 2.96551 0
M  V30 6110 N 572.025 -1.5352 0.356285 0
M  V30 6111 C 573.441 -1.59599 0.00485267 0
M  V30 6112 C 573.641 -1.37179 -1.47595 0
M  V30 6113 O 572.697 -1.17234 -2.23635 0
M  V30 6114 C 574.01 -2.97277 0.452454 0
M  V30 6115 C 575.558 -3.10357 0.405881 0
M  V30 6116 C 576.033 -4.50432 0.829148 0
M  V30 6117 N 577.524 -4.5652 0.783838 0
M  V30 6118 C 578.259 -5.63077 1.08315 0
M  V30 6119 N 577.755 -6.77429 1.45126 0
M  V30 6120 N 579.548 -5.53014 1.00655 0
M  V30 6121 H 571.699 -1.66346 1.32071 0
M  V30 6122 H 573.962 -0.77971 0.539218 0
M  V30 6123 H 573.668 -3.18792 1.48542 0
M  V30 6124 H 573.542 -3.76836 -0.165762 0
M  V30 6125 H 575.929 -2.88558 -0.617934 0
M  V30 6126 H 576.01 -2.32828 1.05947 0
M  V30 6127 H 575.654 -4.72968 1.85103 0
M  V30 6128 H 575.584 -5.26378 0.152906 0
M  V30 6129 H 578.075 -3.74408 0.512513 0
M  V30 6130 H 578.388 -7.54669 1.66415 0
M  V30 6131 H 576.733 -6.78844 1.48983 0
M  V30 6132 H 579.924 -4.62557 0.718215 0
M  V30 6133 H 580.097 -6.35964 1.24315 0
M  V30 6134 N 573.503 -0.0852151 -1.57369 0
M  V30 6135 C 574.75 0.580806 -1.93992 0
M  V30 6136 C 575.078 1.68801 -0.966252 0
M  V30 6137 O 574.333 1.95694 0.0158649 0
M  V30 6138 C 574.632 1.18482 -3.3719 0
M  V30 6139 C 574.298 0.2024 -4.50446 0
M  V30 6140 C 572.96 -0.0678318 -4.81152 0
M  V30 6141 C 575.312 -0.46895 -5.19086 0
M  V30 6142 C 572.64 -1.01627 -5.77831 0
M  V30 6143 C 574.992 -1.4058 -6.16782 0
M  V30 6144 C 573.656 -1.68436 -6.45899 0
M  V30 6145 H 572.926 0.212532 -0.709867 0
M  V30 6146 H 575.573 -0.158947 -1.90839 0
M  V30 6147 H 573.878 2.0006 -3.36873 0
M  V30 6148 H 575.575 1.70767 -3.62822 0
M  V30 6149 H 572.165 0.423208 -4.26505 0
M  V30 6150 H 576.349 -0.273307 -4.95547 0
M  V30 6151 H 571.605 -1.2392 -5.9871 0
M  V30 6152 H 575.779 -1.93188 -6.69068 0
M  V30 6153 H 573.406 -2.42088 -7.20623 0
M  V30 6154 N 574.981 1.5647 0.188427 0
M  V30 6155 C 576.211 1.84863 0.922463 0
M  V30 6156 C 576.619 0.666413 1.77075 0
M  V30 6157 O 575.962 -0.374044 1.79852 0
M  V30 6158 C 576.024 3.07447 1.86324 0
M  V30 6159 C 575.688 4.41066 1.19625 0
M  V30 6160 C 576.685 5.16767 0.569946 0
M  V30 6161 C 574.37 4.87802 1.19811 0
M  V30 6162 C 576.364 6.37384 -0.045594 0
M  V30 6163 C 574.051 6.08353 0.57874 0
M  V30 6164 C 575.049 6.82987 -0.0420259 0
M  V30 6165 O 574.737 8.01254 -0.651675 0
M  V30 6166 H 574.469 0.61784 0.274316 0
M  V30 6167 H 577.023 2.04437 0.198613 0
M  V30 6168 H 575.253 2.83774 2.62696 0
M  V30 6169 H 576.942 3.2243 2.46564 0
M  V30 6170 H 577.708 4.81749 0.560601 0
M  V30 6171 H 573.587 4.29662 1.67069 0
M  V30 6172 H 577.131 6.95578 -0.530731 0
M  V30 6173 H 573.028 6.42838 0.58561 0
M  V30 6174 H 573.796 8.16655 -0.549236 0
M  V30 6175 N 576.459 -0.456382 1.50847 0
M  V30 6176 C 577.875 -0.791345 1.386 0
M  V30 6177 C 578.075 -1.9633 0.453498 0
M  V30 6178 O 577.131 -2.52308 -0.0984353 0
M  V30 6179 C 578.444 -1.08959 2.80265 0
M  V30 6180 C 579.992 -1.19517 2.89283 0
M  V30 6181 C 580.467 -1.52647 4.31814 0
M  V30 6182 N 581.958 -1.59609 4.34832 0
M  V30 6183 C 582.693 -1.86777 5.42127 0
M  V30 6184 N 582.189 -2.11866 6.59609 0
M  V30 6185 N 583.982 -1.88402 5.29586 0
M  V30 6186 H 576.133 0.315746 2.1004 0
M  V30 6187 H 578.396 0.0787916 0.94472 0
M  V30 6188 H 578.102 -0.301355 3.50407 0
M  V30 6189 H 577.976 -2.02211 3.18419 0
M  V30 6190 H 580.363 -1.97406 2.19351 0
M  V30 6191 H 580.444 -0.242111 2.54652 0
M  V30 6192 H 580.088 -0.752922 5.02288 0
M  V30 6193 H 580.018 -2.49127 4.63943 0
M  V30 6194 H 582.509 -1.42201 3.50125 0
M  V30 6195 H 582.822 -2.31912 7.37182 0
M  V30 6196 H 581.167 -2.09228 6.62758 0
M  V30 6197 H 584.358 -1.68307 4.36795 0
M  V30 6198 H 584.531 -2.09238 6.13289 0
M  V30 6199 N 577.937 -1.40673 -0.710563 0
M  V30 6200 C 579.165 -1.42547 -1.4996 0
M  V30 6201 C 579.58 -0.0265485 -1.88781 0
M  V30 6202 O 578.937 0.950694 -1.55782 0
M  V30 6203 C 578.988 -2.32071 -2.77173 0
M  V30 6204 O 578.709 -3.66518 -2.39992 0
M  V30 6205 C 580.21 -2.42591 -3.71032 0
M  V30 6206 H 577.43 -0.486025 -0.462623 0
M  V30 6207 H 579.974 -1.84783 -0.876102 0
M  V30 6208 H 578.129 -1.93184 -3.35795 0
M  V30 6209 H 578.543 -4.14115 -3.21884 0
M  V30 6210 H 580.017 -3.09429 -4.57119 0
M  V30 6211 H 580.494 -1.4525 -4.14486 0
M  V30 6212 H 581.1 -2.82051 -3.18319 0
M  V30 6213 N 579.415 0.9433 -1.26252 0
M  V30 6214 C 580.645 1.72117 -1.14277 0
M  V30 6215 C 581.053 1.86726 0.304944 0
M  V30 6216 O 580.396 1.3727 1.22076 0
M  V30 6217 C 580.458 3.14778 -1.73651 0
M  V30 6218 C 580.122 3.23561 -3.22734 0
M  V30 6219 C 581.119 3.07001 -4.19579 0
M  V30 6220 C 578.804 3.47019 -3.63157 0
M  V30 6221 C 580.798 3.13763 -5.54826 0
M  V30 6222 C 578.485 3.53416 -4.98538 0
M  V30 6223 C 579.483 3.36804 -5.94182 0
M  V30 6224 O 579.171 3.42906 -7.27098 0
M  V30 6225 H 578.903 0.545781 -0.398873 0
M  V30 6226 H 581.457 1.19123 -1.67328 0
M  V30 6227 H 579.687 3.69186 -1.1506 0
M  V30 6228 H 581.376 3.74469 -1.56613 0
M  V30 6229 H 582.142 2.88736 -3.89688 0
M  V30 6230 H 578.021 3.59006 -2.89199 0
M  V30 6231 H 581.565 3.00714 -6.29458 0
M  V30 6232 H 577.462 3.71201 -5.28091 0
M  V30 6233 H 578.23 3.59463 -7.35342 0
M  V30 6234 N 580.893 1.08022 1.14757 0
M  V30 6235 C 582.14 0.807509 1.85703 0
M  V30 6236 C 582.468 -0.666617 1.8272 0
M  V30 6237 O 581.723 -1.50562 1.25018 0
M  V30 6238 C 582.022 1.26964 3.34088 0
M  V30 6239 C 581.688 2.7509 3.57262 0
M  V30 6240 C 580.35 3.15547 3.63296 0
M  V30 6241 C 582.702 3.70667 3.66409 0
M  V30 6242 C 580.03 4.50384 3.75994 0
M  V30 6243 C 582.382 5.05274 3.80632 0
M  V30 6244 C 581.046 5.45342 3.84913 0
M  V30 6245 H 580.316 0.295488 0.679535 0
M  V30 6246 H 582.963 1.35245 1.35577 0
M  V30 6247 H 581.268 0.644216 3.86467 0
M  V30 6248 H 582.965 1.03544 3.87401 0
M  V30 6249 H 579.555 2.42775 3.53212 0
M  V30 6250 H 583.739 3.40533 3.61041 0
M  V30 6251 H 578.995 4.80886 3.77569 0
M  V30 6252 H 583.169 5.79201 3.86652 0
M  V30 6253 H 580.796 6.49823 3.94505 0
M  V30 6254 N 582.371 -1.3172 0.865308 0
M  V30 6255 C 583.618 -1.96876 0.473931 0
M  V30 6256 C 583.946 -1.68425 -0.972786 0
M  V30 6257 O 583.201 -0.970742 -1.69927 0
M  V30 6258 C 583.5 -3.5102 0.672283 0
M  V30 6259 C 583.166 -3.9948 2.09108 0
M  V30 6260 C 581.828 -4.12425 2.4791 0
M  V30 6261 C 584.18 -4.2503 3.0166 0
M  V30 6262 C 581.508 -4.48267 3.78515 0
M  V30 6263 C 583.86 -4.62335 4.31774 0
M  V30 6264 C 582.524 -4.73486 4.70497 0
M  V30 6265 H 581.794 -0.72042 0.173424 0
M  V30 6266 H 584.441 -1.56937 1.0974 0
M  V30 6267 H 582.746 -3.91785 -0.034356 0
M  V30 6268 H 584.443 -3.99475 0.349353 0
M  V30 6269 H 581.033 -3.89898 1.77981 0
M  V30 6270 H 585.217 -4.14529 2.7291 0
M  V30 6271 H 580.473 -4.55097 4.08285 0
M  V30 6272 H 584.647 -4.81058 5.03543 0
M  V30 6273 H 582.274 -5.01016 5.71741 0
M  V30 6274 N 583.85 -0.624285 -1.44708 0
M  V30 6275 C 585.096 -0.126237 -2.02407 0
M  V30 6276 C 585.428 1.24618 -1.48943 0
M  V30 6277 O 584.704 1.82569 -0.670742 0
M  V30 6278 C 584.986 -0.105449 -3.59946 0
M  V30 6279 C 584.84 -1.50972 -4.23707 0
M  V30 6280 C 586.159 0.573629 -4.36346 0
M  V30 6281 H 583.278 -0.0473472 -0.735478 0
M  V30 6282 H 585.92 -0.799452 -1.72362 0
M  V30 6283 H 584.07 0.46783 -3.85673 0
M  V30 6284 H 585.742 -2.13136 -4.0911 0
M  V30 6285 H 583.985 -2.0656 -3.81465 0
M  V30 6286 H 584.656 -1.44727 -5.32689 0
M  V30 6287 H 587.132 0.0861787 -4.16011 0
M  V30 6288 H 586.008 0.557338 -5.46063 0
M  V30 6289 H 586.269 1.64276 -4.10446 0
M  V30 6290 N 585.328 1.53329 -0.364422 0
M  V30 6291 C 586.605 1.93557 0.281962 0
M  V30 6292 C 586.985 1.29786 1.6649 0
M  V30 6293 O 586.333 0.456512 2.23893 0
M  V30 6294 C 586.543 3.47405 0.333331 0
M  V30 6295 C 587.891 4.20699 0.574231 0
M  V30 6296 O 588.915 3.53779 0.414588 0
M  V30 6297 O 587.774 5.39287 0.885002 0
M  V30 6298 H 584.868 0.809573 0.168881 0
M  V30 6299 H 587.414 1.64494 -0.417121 0
M  V30 6300 H 586.186 3.86091 -0.636326 0
M  V30 6301 H 585.809 3.82697 1.07836 0
M  V30 6302 N 586.806 0.0935595 1.57322 0
M  V30 6303 C 587.754 -0.883457 2.15169 0
M  V30 6304 C 588.748 -1.29324 1.09415 0
M  V30 6305 O 589.954 -1.26795 1.27762 0
M  V30 6306 H 586.329 -0.302923 0.688289 0
M  V30 6307 H 588.3 -0.370845 2.96087 0
M  V30 6308 C 587.049 -2.13345 2.74552 0
M  V30 6309 H 586.372 -1.82702 3.55612 0
M  V30 6310 H 587.812 -2.7977 3.18598 0
M  V30 6311 C 586.271 -2.90646 1.70371 0
M  V30 6312 O 586.801 -3.85133 1.14173 0
M  V30 6313 N 585.007 -2.54157 1.40899 0
M  V30 6314 H 584.554 -1.77391 1.86789 0
M  V30 6315 H 584.512 -3.06178 0.714301 0
M  V30 6316 N 588.284 -1.56567 -0.180126 0
M  V30 6317 C 589.216 -1.92275 -1.24751 0
M  V30 6318 C 590.229 -0.814922 -1.40936 0
M  V30 6319 O 591.418 -1.09336 -1.41095 0
M  V30 6320 C 588.518 -2.15265 -2.61752 0
M  V30 6321 C 587.691 -3.46467 -2.66981 0
M  V30 6322 C 586.75 -3.58391 -3.85283 0
M  V30 6323 O 585.776 -4.31086 -3.7169 0
M  V30 6324 N 586.978 -2.92587 -5.01371 0
M  V30 6325 H 589.743 -2.84435 -0.944302 0
M  V30 6326 H 587.304 -1.57617 -0.369952 0
M  V30 6327 H 589.296 -2.20515 -3.39345 0
M  V30 6328 H 587.866 -1.29533 -2.845 0
M  V30 6329 H 587.086 -3.52953 -1.75549 0
M  V30 6330 H 588.374 -4.32819 -2.67479 0
M  V30 6331 H 587.772 -2.3338 -5.15316 0
M  V30 6332 H 586.329 -3.03444 -5.76858 0
M  V30 6333 N 589.762 0.448376 -1.51087 0
M  V30 6334 C 590.992 1.21965 -1.66757 0
M  V30 6335 C 591.4 1.85748 -0.359753 0
M  V30 6336 O 590.743 1.71022 0.670604 0
M  V30 6337 C 590.805 2.35284 -2.71812 0
M  V30 6338 C 590.469 1.91957 -4.1473 0
M  V30 6339 C 591.466 1.42921 -4.9987 0
M  V30 6340 C 589.151 1.99985 -4.60772 0
M  V30 6341 C 591.145 1.02485 -6.29107 0
M  V30 6342 C 588.832 1.5916 -5.90009 0
M  V30 6343 C 589.83 1.10491 -6.74004 0
M  V30 6344 O 589.518 0.702413 -8.00825 0
M  V30 6345 H 589.25 0.374125 -0.563034 0
M  V30 6346 H 591.804 0.538927 -1.98204 0
M  V30 6347 H 590.034 3.06599 -2.35657 0
M  V30 6348 H 591.723 2.97184 -2.76472 0
M  V30 6349 H 592.489 1.36123 -4.65506 0
M  V30 6350 H 588.368 2.36814 -3.95525 0
M  V30 6351 H 591.912 0.644271 -6.94619 0
M  V30 6352 H 587.809 1.65626 -6.2389 0
M  V30 6353 H 588.577 0.829248 -8.14288 0
M  V30 6354 N 591.24 1.41047 0.703093 0
M  V30 6355 C 592.486 1.41209 1.46396 0
M  V30 6356 C 592.841 0.0180188 1.92392 0
M  V30 6357 O 592.134 -0.954739 1.66118 0
M  V30 6358 C 592.328 2.34686 2.6955 0
M  V30 6359 C 592.157 3.83044 2.35601 0
M  V30 6360 C 590.927 4.51777 2.26331 0
M  V30 6361 C 593.125 4.74215 1.9906 0
M  V30 6362 N 591.107 5.85302 1.85188 0
M  V30 6363 C 592.478 5.96631 1.68616 0
M  V30 6364 C 594.533 4.61932 1.85805 0
M  V30 6365 C 593.236 7.08134 1.26249 0
M  V30 6366 C 595.262 5.73389 1.44842 0
M  V30 6367 C 594.624 6.94899 1.15304 0
M  V30 6368 H 590.723 0.571951 0.533288 0
M  V30 6369 H 593.307 1.76859 0.814179 0
M  V30 6370 H 591.478 2.01143 3.32259 0
M  V30 6371 H 593.21 2.25618 3.35974 0
M  V30 6372 H 589.965 4.05618 2.44482 0
M  V30 6373 H 590.389 6.56049 1.67119 0
M  V30 6374 H 595.031 3.68494 2.07298 0
M  V30 6375 H 592.749 8.01445 1.035 0
M  V30 6376 H 596.335 5.65886 1.35146 0
M  V30 6377 H 595.215 7.79679 0.840854 0
M  V30 6378 N 592.718 -0.936591 1.26751 0
M  V30 6379 C 594.134 -1.21095 1.03963 0
M  V30 6380 C 594.334 -2.00156 -0.232372 0
M  V30 6381 O 593.39 -2.3434 -0.940274 0
M  V30 6382 C 594.703 -1.96775 2.27377 0
M  V30 6383 C 596.251 -2.09749 2.32324 0
M  V30 6384 C 596.726 -2.88832 3.55443 0
M  V30 6385 N 598.217 -2.96404 3.55948 0
M  V30 6386 C 598.952 -3.58036 4.47881 0
M  V30 6387 N 598.448 -4.21132 5.50109 0
M  V30 6388 N 600.241 -3.55353 4.35523 0
M  V30 6389 H 592.392 -0.408173 2.08441 0
M  V30 6390 H 594.655 -0.243139 0.91629 0
M  V30 6391 H 594.361 -1.46094 3.19921 0
M  V30 6392 H 594.235 -2.97424 2.31989 0
M  V30 6393 H 596.622 -2.5962 1.40291 0
M  V30 6394 H 596.703 -1.08347 2.31721 0
M  V30 6395 H 596.347 -2.39647 4.47808 0
M  V30 6396 H 596.277 -3.90499 3.53296 0
M  V30 6397 H 598.768 -2.51552 2.82011 0
M  V30 6398 H 599.081 -4.66071 6.16439 0
M  V30 6399 H 597.426 -4.19705 5.53961 0
M  V30 6400 H 600.617 -3.05256 3.54875 0
M  V30 6401 H 600.79 -4.03097 5.07363 0
M  V30 6402 N 594.196 -1.08629 -1.14182 0
M  V30 6403 C 595.426 -0.837673 -1.88856 0
M  V30 6404 C 595.834 0.614024 -1.78959 0
M  V30 6405 O 595.177 1.43384 -1.14833 0
M  V30 6406 C 595.239 -1.18355 -3.39459 0
M  V30 6407 C 594.903 -2.63848 -3.73139 0
M  V30 6408 C 595.9 -3.62099 -3.73069 0
M  V30 6409 C 593.585 -2.99761 -4.03049 0
M  V30 6410 C 595.579 -4.94292 -4.02435 0
M  V30 6411 C 593.266 -4.32147 -4.32078 0
M  V30 6412 C 594.264 -5.29223 -4.31755 0
M  V30 6413 O 593.952 -6.59229 -4.60079 0
M  V30 6414 H 593.684 -0.301609 -0.604986 0
M  V30 6415 H 596.238 -1.44961 -1.45518 0
M  V30 6416 H 594.468 -0.514628 -3.8326 0
M  V30 6417 H 596.157 -0.915391 -3.95443 0
M  V30 6418 H 596.923 -3.35698 -3.50046 0
M  V30 6419 H 592.802 -2.2484 -4.02453 0
M  V30 6420 H 596.346 -5.70055 -4.02098 0
M  V30 6421 H 592.243 -4.58296 -4.54571 0
M  V30 6422 H 593.011 -6.64578 -4.77785 0
M  V30 6423 N 595.674 1.31259 -0.872281 0
M  V30 6424 C 596.951 1.91362 -0.404943 0
M  V30 6425 C 597.331 1.79362 1.11321 0
M  V30 6426 O 596.679 1.20277 1.94283 0
M  V30 6427 C 596.889 3.3749 -0.888893 0
M  V30 6428 C 598.237 4.14593 -0.916384 0
M  V30 6429 O 599.261 3.46282 -0.834701 0
M  V30 6430 O 598.12 5.3661 -1.03498 0
M  V30 6431 H 595.214 0.818016 -0.121569 0
M  V30 6432 H 597.76 1.39912 -0.960346 0
M  V30 6433 H 596.532 3.40249 -1.93251 0
M  V30 6434 H 596.155 3.96375 -0.311932 0
M  V30 6435 N 597.152 0.631951 1.44375 0
M  V30 6436 C 598.062 -0.073674 2.34484 0
M  V30 6437 C 599.078 -0.834825 1.52665 0
M  V30 6438 O 600.254 -0.786902 1.85391 0
M  V30 6439 C 597.319 -1.04247 3.30656 0
M  V30 6440 C 596.38 -0.280602 4.28382 0
M  V30 6441 C 595.613 -1.20325 5.19959 0
M  V30 6442 O 595.836 -2.44199 5.15484 0
M  V30 6443 O 594.77 -0.687128 5.97965 0
M  V30 6444 H 598.596 0.667477 2.96274 0
M  V30 6445 H 596.181 0.392144 1.44162 0
M  V30 6446 H 598.063 -1.59981 3.89851 0
M  V30 6447 H 596.738 -1.76422 2.71398 0
M  V30 6448 H 595.645 0.319804 3.72731 0
M  V30 6449 H 596.978 0.401144 4.90563 0
M  V30 6450 N 598.631 -1.53133 0.372548 0
M  V30 6451 C 600.047 -1.59585 0.02178 0
M  V30 6452 C 600.247 -1.38736 -1.46132 0
M  V30 6453 O 599.303 -1.19599 -2.22379 0
M  V30 6454 C 600.616 -2.9678 0.483959 0
M  V30 6455 C 602.164 -3.09909 0.438775 0
M  V30 6456 C 602.639 -4.49527 0.876876 0
M  V30 6457 N 604.13 -4.55663 0.832214 0
M  V30 6458 C 604.865 -5.61896 1.14281 0
M  V30 6459 N 604.361 -6.75852 1.52303 0
M  V30 6460 N 606.154 -5.51916 1.06515 0
M  V30 6461 H 598.305 -1.64936 1.33827 0
M  V30 6462 H 600.568 -0.773947 0.547458 0
M  V30 6463 H 600.274 -3.17198 1.51915 0
M  V30 6464 H 600.148 -3.7699 -0.125784 0
M  V30 6465 H 602.535 -2.89197 -0.587294 0
M  V30 6466 H 602.616 -2.31691 1.0841 0
M  V30 6467 H 602.26 -4.70979 1.90109 0
M  V30 6468 H 602.19 -5.26186 0.208727 0
M  V30 6469 H 604.681 -3.73844 0.552195 0
M  V30 6470 H 604.994 -7.52862 1.7441 0
M  V30 6471 H 603.339 -6.77226 1.56175 0
M  V30 6472 H 606.53 -4.6177 0.767235 0
M  V30 6473 H 606.703 -6.34609 1.31053 0
M  V30 6474 N 600.109 -0.101901 -1.5727 0
M  V30 6475 C 601.525 0.254739 -1.57554 0
M  V30 6476 C 601.725 1.67937 -1.11352 0
M  V30 6477 O 600.781 2.39722 -0.793081 0
M  V30 6478 C 602.094 0.036975 -3.00677 0
M  V30 6479 C 603.642 0.104199 -3.12827 0
M  V30 6480 C 604.117 -0.0856565 -4.5792 0
M  V30 6481 N 605.608 -0.0310498 -4.6319 0
M  V30 6482 C 606.343 -0.153099 -5.73196 0
M  V30 6483 N 605.839 -0.330364 -6.92012 0
M  V30 6484 N 607.632 -0.0938854 -5.62022 0
M  V30 6485 H 599.783 -1.03263 -1.85609 0
M  V30 6486 H 602.046 -0.405251 -0.857016 0
M  V30 6487 H 601.752 -0.947254 -3.38703 0
M  V30 6488 H 601.626 0.776335 -3.69124 0
M  V30 6489 H 604.013 1.07894 -2.74669 0
M  V30 6490 H 604.094 -0.666762 -2.46957 0
M  V30 6491 H 603.738 -1.05729 -4.96773 0
M  V30 6492 H 603.668 0.705082 -5.21858 0
M  V30 6493 H 606.159 0.103141 -3.77759 0
M  V30 6494 H 606.472 -0.41482 -7.71686 0
M  V30 6495 H 604.817 -0.366119 -6.94035 0
M  V30 6496 H 608.008 0.0435168 -4.6808 0
M  V30 6497 H 608.181 -0.19245 -6.47714 0
M  V30 6498 N 601.587 1.56661 0.17182 0
M  V30 6499 C 602.519 1.92934 1.2373 0
M  V30 6500 C 603.532 0.822385 1.40502 0
M  V30 6501 O 604.721 1.10083 1.40514 0
M  V30 6502 C 601.821 2.16651 2.60607 0
M  V30 6503 C 600.994 3.47878 2.6514 0
M  V30 6504 C 600.053 3.60429 3.83377 0
M  V30 6505 O 599.079 4.33051 3.69398 0
M  V30 6506 N 600.281 2.95241 4.99813 0
M  V30 6507 H 603.046 2.84931 0.929205 0
M  V30 6508 H 600.607 1.5781 0.361588 0
M  V30 6509 H 602.599 2.22312 3.38171 0
M  V30 6510 H 601.169 1.3104 2.83809 0
M  V30 6511 H 600.389 3.53879 1.73675 0
M  V30 6512 H 601.677 4.34232 2.6518 0
M  V30 6513 H 601.075 2.3611 5.14071 0
M  V30 6514 H 599.632 3.06499 5.75241 0
M  V30 6515 N 603.065 -0.440357 1.51323 0
M  V30 6516 C 603.998 -1.55414 1.67098 0
M  V30 6517 C 604.976 -1.54108 0.518599 0
M  V30 6518 O 606.16 -1.7328 0.742054 0
M  V30 6519 C 603.287 -2.93996 1.68179 0
M  V30 6520 C 602.333 -3.13338 2.89347 0
M  V30 6521 S 603.166 -2.89957 4.50206 0
M  V30 6522 C 604.322 -4.30826 4.54027 0
M  V30 6523 H 604.555 -1.41798 2.61306 0
M  V30 6524 H 602.088 -0.629841 1.40969 0
M  V30 6525 H 604.046 -3.73878 1.69487 0
M  V30 6526 H 602.707 -3.04976 0.751542 0
M  V30 6527 H 601.9 -4.14652 2.86495 0
M  V30 6528 H 601.502 -2.41276 2.85766 0
M  V30 6529 H 603.794 -5.23977 4.29481 0
M  V30 6530 H 604.737 -4.38712 5.55822 0
M  V30 6531 H 605.145 -4.1434 3.83384 0
M  V30 6532 N 604.543 -1.41418 -0.695603 0
M  V30 6533 C 605.476 -1.3768 -1.81988 0
M  V30 6534 C 606.454 -0.244061 -1.60758 0
M  V30 6535 O 607.638 -0.430965 -1.83507 0
M  V30 6536 C 604.765 -1.1476 -3.18666 0
M  V30 6537 C 603.811 -2.30752 -3.58686 0
M  V30 6538 S 604.644 -3.9323 -3.63498 0
M  V30 6539 C 605.8 -3.72613 -5.02902 0
M  V30 6540 H 606.033 -2.32822 -1.84882 0
M  V30 6541 H 603.566 -1.27942 -0.86431 0
M  V30 6542 H 605.524 -1.02223 -3.97569 0
M  V30 6543 H 604.185 -0.212385 -3.13381 0
M  V30 6544 H 603.378 -2.10409 -4.57978 0
M  V30 6545 H 602.98 -2.39696 -2.87092 0
M  V30 6546 H 605.272 -3.32317 -5.904 0
M  V30 6547 H 606.215 -4.71507 -5.28286 0
M  V30 6548 H 606.623 -3.0589 -4.74438 0
M  V30 6549 N 606.021 0.929856 -1.27246 0
M  V30 6550 C 607.298 1.65544 -1.04186 0
M  V30 6551 C 607.678 2.06796 0.424097 0
M  V30 6552 O 607.026 1.80053 1.40688 0
M  V30 6553 C 607.236 2.85912 -2.00138 0
M  V30 6554 C 608.584 3.57305 -2.29387 0
M  V30 6555 O 609.608 2.96036 -1.98094 0
M  V30 6556 O 608.467 4.67688 -2.82719 0
M  V30 6557 H 605.561 0.725473 -0.397011 0
M  V30 6558 H 608.107 0.980583 -1.38501 0
M  V30 6559 H 606.879 2.52403 -2.99013 0
M  V30 6560 H 606.502 3.61118 -1.66371 0
M  V30 6561 N 607.499 1.09233 1.13605 0
M  V30 6562 C 608.91 0.846839 1.6639 0
M  V30 6563 C 609.261 -0.625031 1.85978 0
M  V30 6564 O 608.386 -1.48173 1.57714 0
M  V30 6565 C 608.981 1.5307 3.0225 0
M  V30 6566 C 607.54 1.33223 3.52035 0
M  V30 6567 C 606.687 1.58806 2.27323 0
M  V30 6568 H 609.638 1.25175 0.975541 0
M  V30 6569 H 609.659 0.96267 3.68121 0
M  V30 6570 H 609.171 2.60192 2.87961 0
M  V30 6571 H 607.272 0.282091 3.71531 0
M  V30 6572 H 607.385 2.0657 4.32279 0
M  V30 6573 H 605.749 1.01007 2.33815 0
M  V30 6574 H 606.532 2.67153 2.15602 0
M  V30 6575 N 608.977 -1.30795 0.87923 0
M  V30 6576 C 610.225 -1.95974 0.493809 0
M  V30 6577 C 610.546 -1.69787 -0.959021 0
M  V30 6578 O 609.816 -1.01832 -1.67353 0
M  V30 6579 H 608.396 -0.725083 0.179622 0
M  V30 6580 H 611.058 -1.59432 1.12105 0
M  V30 6581 H 610.154 -3.05058 0.659263 0
M  V30 6582 N 610.455 -0.639598 -1.44038 0
M  V30 6583 C 611.685 -0.154586 -2.06021 0
M  V30 6584 C 612.093 1.17951 -1.47933 0
M  V30 6585 O 611.436 1.73627 -0.59994 0
M  V30 6586 C 611.498 0.0255459 -3.59491 0
M  V30 6587 C 611.162 -1.2317 -4.40089 0
M  V30 6588 C 612.159 -2.15735 -4.73027 0
M  V30 6589 C 609.844 -1.46949 -4.80324 0
M  V30 6590 C 611.838 -3.30382 -5.45093 0
M  V30 6591 C 609.525 -2.61891 -5.52138 0
M  V30 6592 C 610.523 -3.53433 -5.84443 0
M  V30 6593 O 610.211 -4.6637 -6.54793 0
M  V30 6594 H 609.943 -0.0808543 -0.671147 0
M  V30 6595 H 612.497 -0.876541 -1.85758 0
M  V30 6596 H 610.727 0.802733 -3.78276 0
M  V30 6597 H 612.416 0.466184 -4.03214 0
M  V30 6598 H 613.182 -1.98602 -4.42473 0
M  V30 6599 H 609.061 -0.765815 -4.54595 0
M  V30 6600 H 612.605 -4.01856 -5.70226 0
M  V30 6601 H 608.502 -2.78964 -5.82108 0
M  V30 6602 H 609.27 -4.6546 -6.73267 0
M  V30 6603 N 611.933 1.52934 -0.380664 0
M  V30 6604 C 613.344 1.86457 0.0952684 0
M  V30 6605 C 613.695 1.3007 1.46889 0
M  V30 6606 O 612.82 0.628636 2.07068 0
M  V30 6607 C 613.415 3.38323 0.179648 0
M  V30 6608 C 611.974 3.71589 0.599858 0
M  V30 6609 C 611.121 2.76228 -0.243572 0
M  V30 6610 H 614.072 1.46966 -0.59888 0
M  V30 6611 H 614.093 3.67113 1.00042 0
M  V30 6612 H 613.605 3.79333 -0.820228 0
M  V30 6613 H 611.706 3.36144 1.60742 0
M  V30 6614 H 611.819 4.77715 0.364003 0
M  V30 6615 H 610.183 2.53045 0.289855 0
M  V30 6616 H 610.966 3.20074 -1.24127 0
M  V30 6617 N 613.412 0.11024 1.57214 0
M  V30 6618 C 614.359 -0.843195 2.14846 0
M  V30 6619 C 615.329 -1.26954 1.07107 0
M  V30 6620 O 616.514 -1.34861 1.34971 0
M  V30 6621 C 613.654 -2.09123 2.74521 0
M  V30 6622 C 612.767 -1.71404 3.96541 0
M  V30 6623 C 611.902 -2.91107 4.44331 0
M  V30 6624 C 610.941 -2.49586 5.58903 0
M  V30 6625 N 610.078 -3.62175 6.01477 0
M  V30 6626 H 614.918 -0.344886 2.95998 0
M  V30 6627 H 612.455 -0.15855 1.46243 0
M  V30 6628 H 614.413 -2.82234 3.07246 0
M  V30 6629 H 613.043 -2.56427 1.96074 0
M  V30 6630 H 612.095 -0.88201 3.70033 0
M  V30 6631 H 613.407 -1.36884 4.7965 0
M  V30 6632 H 612.561 -3.72454 4.78919 0
M  V30 6633 H 611.3 -3.28848 3.60153 0
M  V30 6634 H 610.305 -1.6667 5.23929 0
M  V30 6635 H 611.53 -2.12973 6.4484 0
M  V30 6636 H 609.476 -3.99605 5.20242 0
M  V30 6637 H 609.393 -3.3155 6.79419 0
M  V30 6638 H 610.661 -4.43987 6.407 0
M  V30 6639 N 614.89 -1.56749 -0.16351 0
M  V30 6640 C 615.82 -2.00042 -1.20438 0
M  V30 6641 C 616.801 -0.877256 -1.45733 0
M  V30 6642 O 617.986 -1.1439 -1.56935 0
M  V30 6643 C 615.116 -2.36697 -2.54149 0
M  V30 6644 C 614.07 -3.52046 -2.43408 0
M  V30 6645 C 613.396 -3.74466 -3.81679 0
M  V30 6646 C 614.696 -4.85247 -1.93216 0
M  V30 6647 H 616.39 -2.87244 -0.844477 0
M  V30 6648 H 613.936 -1.38194 -0.40478 0
M  V30 6649 H 615.889 -2.65582 -3.27176 0
M  V30 6650 H 614.613 -1.46414 -2.91943 0
M  V30 6651 H 613.272 -3.23301 -1.72834 0
M  V30 6652 H 612.92 -2.81461 -4.1688 0
M  V30 6653 H 612.62 -4.52084 -3.75359 0
M  V30 6654 H 614.144 -4.0576 -4.5628 0
M  V30 6655 H 615.558 -5.12957 -2.56023 0
M  V30 6656 H 613.955 -5.66556 -1.97825 0
M  V30 6657 H 615.025 -4.7672 -0.88689 0
M  V30 6658 N 616.368 0.432326 -1.51554 0
M  V30 6659 C 617.617 1.17831 -1.63703 0
M  V30 6660 C 617.93 1.92229 -0.36156 0
M  V30 6661 O 619.136 2.69069 -0.362495 0
M  V30 6662 C 617.592 2.14318 -2.89129 0
M  V30 6663 C 617.2 1.45544 -4.23699 0
M  V30 6664 C 618.944 2.89319 -3.10636 0
M  V30 6665 C 616.851 2.40545 -5.4027 0
M  V30 6666 H 615.781 0.443533 -0.60975 0
M  V30 6667 H 618.432 0.444878 -1.78026 0
M  V30 6668 H 616.814 2.91117 -2.68452 0
M  V30 6669 H 617.988 0.742693 -4.54775 0
M  V30 6670 H 616.303 0.826772 -4.0811 0
M  V30 6671 H 618.9 3.60495 -3.94902 0
M  V30 6672 H 619.243 3.50951 -2.23918 0
M  V30 6673 H 619.776 2.19625 -3.31677 0
M  V30 6674 H 616.515 1.83594 -6.29264 0
M  V30 6675 H 616.035 3.09859 -5.13563 0
M  V30 6676 H 617.714 3.01569 -5.72421 0
M  V30 6677 N 617.846 1.41785 0.688094 0
M  V30 6678 C 619.074 1.44915 1.47673 0
M  V30 6679 C 619.489 0.0565786 1.88715 0
M  V30 6680 O 618.846 -0.92579 1.57275 0
M  V30 6681 C 618.897 2.36452 2.73446 0
M  V30 6682 O 618.618 3.7029 2.34131 0
M  V30 6683 C 620.119 2.48463 3.67125 0
M  V30 6684 H 617.339 0.493324 0.454832 0
M  V30 6685 H 619.883 1.86153 0.846594 0
M  V30 6686 H 618.038 1.98502 3.3268 0
M  V30 6687 H 618.452 4.19183 3.15255 0
M  V30 6688 H 619.926 3.16662 4.52138 0
M  V30 6689 H 620.403 1.51826 4.12123 0
M  V30 6690 H 621.009 2.8708 3.13792 0
M  V30 6691 N 619.324 -0.923095 1.27737 0
M  V30 6692 C 620.271 -2.02432 1.1086 0
M  V30 6693 C 621.241 -1.66098 0.00835195 0
M  V30 6694 O 622.426 -1.90027 0.171542 0
M  V30 6695 C 619.566 -3.36476 0.766671 0
M  V30 6696 C 618.679 -3.85737 1.94501 0
M  V30 6697 C 617.814 -5.08249 1.54455 0
M  V30 6698 C 616.853 -5.49818 2.6901 0
M  V30 6699 N 615.99 -6.63524 2.29521 0
M  V30 6700 H 620.83 -2.16201 2.05089 0
M  V30 6701 H 618.367 -1.05909 1.02087 0
M  V30 6702 H 620.325 -4.13569 0.549223 0
M  V30 6703 H 618.955 -3.22502 -0.13867 0
M  V30 6704 H 618.007 -3.04883 2.27487 0
M  V30 6705 H 619.319 -4.12513 2.80419 0
M  V30 6706 H 618.473 -5.92857 1.28862 0
M  V30 6707 H 617.212 -4.83261 0.656534 0
M  V30 6708 H 616.217 -4.63757 2.95313 0
M  V30 6709 H 617.442 -5.76799 3.5844 0
M  V30 6710 H 615.388 -6.40185 1.43177 0
M  V30 6711 H 615.305 -6.89978 3.08977 0
M  V30 6712 H 616.573 -7.51461 2.07187 0
M  V30 6713 N 620.802 -1.09834 -1.13024 0
M  V30 6714 C 621.75 -0.736283 -2.20639 0
M  V30 6715 C 622.744 0.264725 -1.67319 0
M  V30 6716 O 623.95 0.125745 -1.7956 0
M  V30 6717 H 620.325 -0.220136 -0.719058 0
M  V30 6718 H 622.296 -1.65295 -2.48436 0
M  V30 6719 C 621.045 -0.177544 -3.47246 0
M  V30 6720 H 620.368 -0.939009 -3.88616 0
M  V30 6721 H 621.808 0.0378007 -4.23983 0
M  V30 6722 C 620.267 1.08824 -3.1884 0
M  V30 6723 O 620.797 2.1708 -3.37993 0
M  V30 6724 N 619.003 1.00442 -2.7269 0
M  V30 6725 H 618.55 0.123383 -2.57304 0
M  V30 6726 H 618.508 1.85206 -2.5406 0
M  V30 6727 N 622.28 1.30327 -0.886154 0
M  V30 6728 C 623.527 1.96097 -0.505192 0
M  V30 6729 C 623.855 1.69952 0.945868 0
M  V30 6730 O 623.11 0.997653 1.68361 0
M  V30 6731 C 623.409 3.49906 -0.728042 0
M  V30 6732 C 623.075 3.96103 -2.15437 0
M  V30 6733 C 621.737 4.08428 -2.5444 0
M  V30 6734 C 624.089 4.20177 -3.08384 0
M  V30 6735 C 621.417 4.42189 -3.85598 0
M  V30 6736 C 623.769 4.55407 -4.39075 0
M  V30 6737 C 622.433 4.65941 -4.7797 0
M  V30 6738 H 621.703 0.71757 -0.184863 0
M  V30 6739 H 624.35 1.55171 -1.12223 0
M  V30 6740 H 622.655 3.9179 -0.027978 0
M  V30 6741 H 624.352 3.98869 -0.412862 0
M  V30 6742 H 620.942 3.87017 -1.84162 0
M  V30 6743 H 625.126 4.10134 -2.7947 0
M  V30 6744 H 620.382 4.48544 -4.15473 0
M  V30 6745 H 624.556 4.72986 -5.11133 0
M  V30 6746 H 622.183 4.91856 -5.79639 0
M  V30 6747 N 623.758 0.647228 1.43697 0
M  V30 6748 C 624.69 -0.0866232 2.29036 0
M  V30 6749 C 625.703 -0.793051 1.42178 0
M  V30 6750 O 626.892 -0.651807 1.66174 0
M  V30 6751 C 623.992 -1.14552 3.18953 0
M  V30 6752 C 623.165 -0.518422 4.34317 0
M  V30 6753 C 622.224 -1.4734 5.05151 0
M  V30 6754 O 621.25 -0.984312 5.60625 0
M  V30 6755 N 622.452 -2.8075 5.08094 0
M  V30 6756 H 625.217 0.645834 2.92659 0
M  V30 6757 H 622.778 0.489567 1.54321 0
M  V30 6758 H 624.77 -1.78505 3.63205 0
M  V30 6759 H 623.34 -1.78001 2.56971 0
M  V30 6760 H 622.56 0.300079 3.93056 0
M  V30 6761 H 623.848 -0.080401 5.08736 0
M  V30 6762 H 623.246 -3.23052 4.64386 0
M  V30 6763 H 621.803 -3.40022 5.56083 0
M  V30 6764 N 625.236 -1.5273 0.388769 0
M  V30 6765 C 626.484 -2.01174 -0.193208 0
M  V30 6766 C 626.805 -1.27705 -1.47365 0
M  V30 6767 O 626.075 -0.396966 -1.91836 0
M  V30 6768 H 624.655 -0.743287 -0.0743871 0
M  V30 6769 H 627.317 -1.87826 0.520336 0
M  V30 6770 H 626.413 -3.09477 -0.403803 0
M  V30 6771 N 626.714 -0.118576 -1.57153 0
M  V30 6772 C 627.963 0.539339 -1.94355 0
M  V30 6773 C 628.276 1.67858 -1.00415 0
M  V30 6774 O 629.482 2.39922 -1.27081 0
M  V30 6775 C 627.938 1.01082 -3.45414 0
M  V30 6776 C 627.546 -0.0999402 -4.47889 0
M  V30 6777 C 629.29 1.64013 -3.91535 0
M  V30 6778 C 627.197 0.388212 -5.90124 0
M  V30 6779 H 626.127 0.205247 -0.725527 0
M  V30 6780 H 628.778 -0.19836 -1.82425 0
M  V30 6781 H 627.16 1.80292 -3.52577 0
M  V30 6782 H 628.334 -0.876189 -4.52393 0
M  V30 6783 H 626.649 -0.635885 -4.11516 0
M  V30 6784 H 629.246 2.01649 -4.95219 0
M  V30 6785 H 629.589 2.51836 -3.31488 0
M  V30 6786 H 630.122 0.913439 -3.87171 0
M  V30 6787 H 626.861 -0.453963 -6.53926 0
M  V30 6788 H 626.381 1.13095 -5.89041 0
M  V30 6789 H 628.06 0.849574 -6.41398 0
M  V30 6790 N 628.193 1.56834 0.155195 0
M  V30 6791 C 629.441 1.82536 0.867462 0
M  V30 6792 C 629.762 0.698168 1.82073 0
M  V30 6793 O 629.032 -0.280807 1.93877 0
M  V30 6794 H 627.612 0.673401 0.323327 0
M  V30 6795 H 630.274 1.94313 0.151156 0
M  V30 6796 H 629.37 2.77171 1.43466 0
M  V30 6797 N 629.671 -0.424282 1.51781 0
M  V30 6798 C 631.082 -1.00368 1.57427 0
M  V30 6799 C 631.433 -1.91962 0.40558 0
M  V30 6800 O 630.558 -2.111 -0.47601 0
M  V30 6801 C 631.153 -1.82707 2.85313 0
M  V30 6802 C 629.712 -2.35675 2.93487 0
M  V30 6803 C 628.859 -1.1524 2.5222 0
M  V30 6804 H 631.81 -0.205064 1.5737 0
M  V30 6805 H 631.831 -2.68294 2.69812 0
M  V30 6806 H 631.343 -1.16017 3.70353 0
M  V30 6807 H 629.444 -3.05781 2.12906 0
M  V30 6808 H 629.557 -2.67578 3.97415 0
M  V30 6809 H 627.921 -1.50174 2.05718 0
M  V30 6810 H 628.704 -0.5014 3.39619 0
M  V30 6811 N 631.149 -1.42148 -0.680565 0
M  V30 6812 C 632.096 -1.45175 -1.79424 0
M  V30 6813 C 633.066 -0.304352 -1.63288 0
M  V30 6814 O 634.251 -0.507591 -1.83924 0
M  V30 6815 C 631.391 -1.35429 -3.17416 0
M  V30 6816 C 630.504 -2.60158 -3.4488 0
M  V30 6817 C 629.639 -2.42596 -4.72568 0
M  V30 6818 C 628.678 -3.62727 -4.93047 0
M  V30 6819 N 627.815 -3.44143 -6.11973 0
M  V30 6820 H 632.655 -2.40349 -1.76172 0
M  V30 6821 H 630.192 -1.19334 -0.860107 0
M  V30 6822 H 632.15 -1.27777 -3.97151 0
M  V30 6823 H 630.78 -0.438536 -3.19807 0
M  V30 6824 H 629.832 -2.78199 -2.5944 0
M  V30 6825 H 631.144 -3.49473 -3.55908 0
M  V30 6826 H 630.298 -2.32497 -5.60384 0
M  V30 6827 H 629.037 -1.50761 -4.63813 0
M  V30 6828 H 628.042 -3.73264 -4.03676 0
M  V30 6829 H 629.267 -4.55534 -5.03652 0
M  V30 6830 H 627.213 -2.5502 -6.04401 0
M  V30 6831 H 627.13 -4.27041 -6.23836 0
M  V30 6832 H 628.398 -3.37845 -7.02482 0
M  V30 6833 N 632.627 0.916307 -1.28225 0
M  V30 6834 C 633.876 1.65975 -1.14608 0
M  V30 6835 C 634.189 1.93204 0.305191 0
M  V30 6836 O 635.395 2.65611 0.562432 0
M  V30 6837 C 633.851 2.98989 -2.00333 0
M  V30 6838 C 633.459 2.79417 -3.50186 0
M  V30 6839 C 635.203 3.76856 -1.95397 0
M  V30 6840 C 633.11 4.08056 -4.28071 0
M  V30 6841 H 632.04 0.622587 -0.425324 0
M  V30 6842 H 634.691 1.01705 -1.52736 0
M  V30 6843 H 633.073 3.6438 -1.5506 0
M  V30 6844 H 634.247 2.22723 -4.034 0
M  V30 6845 H 632.562 2.14966 -3.56621 0
M  V30 6846 H 635.159 4.72203 -2.50856 0
M  V30 6847 H 635.502 4.05776 -0.930137 0
M  V30 6848 H 636.035 3.1828 -2.38626 0
M  V30 6849 H 632.774 3.8431 -5.31024 0
M  V30 6850 H 632.294 4.64371 -3.79631 0
M  V30 6851 H 633.973 4.76333 -4.37854 0
M  V30 6852 N 634.105 1.10431 1.1244 0
M  V30 6853 C 635.382 0.758797 1.80282 0
M  V30 6854 C 635.762 -0.754727 1.97147 0
M  V30 6855 O 635.11 -1.68094 1.54779 0
M  V30 6856 C 635.32 1.50982 3.14651 0
M  V30 6857 C 636.668 1.68232 3.8985 0
M  V30 6858 O 637.692 1.47319 3.24308 0
M  V30 6859 O 636.551 2.02905 5.07437 0
M  V30 6860 H 633.645 0.273756 0.780376 0
M  V30 6861 H 636.191 1.20713 1.19275 0
M  V30 6862 H 634.963 2.53989 2.97666 0
M  V30 6863 H 634.586 1.05435 3.83366 0
M  V30 6864 N 635.583 -1.29855 0.893053 0
M  V30 6865 C 636.546 -2.26183 0.370687 0
M  V30 6866 C 637.546 -1.53108 -0.491385 0
M  V30 6867 O 638.736 -1.71643 -0.297386 0
M  V30 6868 C 635.868 -3.37633 -0.470827 0
M  V30 6869 H 637.061 -2.73903 1.22135 0
M  V30 6870 H 634.614 -1.41183 0.67061 0
M  V30 6871 H 635.349 -2.95241 -1.34175 0
M  V30 6872 H 635.134 -3.91825 0.146784 0
M  V30 6873 H 636.624 -4.09313 -0.827825 0
M  V30 6874 N 637.061 -0.65484 -1.43351 0
M  V30 6875 C 638.307 -0.169142 -2.02093 0
M  V30 6876 C 638.64 1.21431 -1.51553 0
M  V30 6877 O 637.915 1.81105 -0.709317 0
M  V30 6878 C 638.198 -0.181775 -3.59641 0
M  V30 6879 C 638.051 -1.59926 -4.20409 0
M  V30 6880 C 639.37 0.480945 -4.37464 0
M  V30 6881 H 636.489 -0.0629371 -0.734308 0
M  V30 6882 H 639.131 -0.835833 -1.70628 0
M  V30 6883 H 637.281 0.385918 -3.86578 0
M  V30 6884 H 638.953 -2.21766 -4.04497 0
M  V30 6885 H 637.196 -2.14605 -3.76998 0
M  V30 6886 H 637.867 -1.55994 -5.295 0
M  V30 6887 H 640.343 -0.00208273 -4.161 0
M  V30 6888 H 639.219 0.441384 -5.47122 0
M  V30 6889 H 639.48 1.55533 -4.13838 0
M  V30 6890 N 638.539 1.52521 -0.396863 0
M  V30 6891 C 639.786 2.01672 0.182898 0
M  V30 6892 C 640.114 1.28302 1.46181 0
M  V30 6893 O 639.369 0.374118 1.92091 0
M  V30 6894 C 639.668 3.5403 0.489677 0
M  V30 6895 C 639.334 4.45456 -0.698581 0
M  V30 6896 C 637.996 4.70166 -1.02454 0
M  V30 6897 C 640.348 4.99354 -1.49316 0
M  V30 6898 C 637.676 5.46024 -2.1465 0
M  V30 6899 C 640.028 5.76439 -2.60579 0
M  V30 6900 C 638.692 5.99426 -2.93675 0
M  V30 6901 H 637.962 0.737971 0.066927 0
M  V30 6902 H 640.609 1.83853 -0.535764 0
M  V30 6903 H 638.914 3.69963 1.28976 0
M  V30 6904 H 640.611 3.8956 0.951018 0
M  V30 6905 H 637.201 4.26392 -0.434525 0
M  V30 6906 H 641.385 4.80182 -1.25457 0
M  V30 6907 H 636.641 5.62046 -2.40654 0
M  V30 6908 H 640.815 6.17202 -3.22544 0
M  V30 6909 H 638.442 6.57988 -3.80731 0
M  V30 6910 N 640.017 0.126909 1.57088 0
M  V30 6911 C 641.247 -0.535892 1.99529 0
M  V30 6912 C 641.655 -1.60259 1.00566 0
M  V30 6913 O 640.998 -1.83698 -0.00843269 0
M  V30 6914 C 641.06 -1.21374 3.38391 0
M  V30 6915 C 640.724 -0.294044 4.56053 0
M  V30 6916 C 641.721 0.470454 5.17767 0
M  V30 6917 C 639.406 -0.202808 5.0189 0
M  V30 6918 C 641.4 1.31384 6.23712 0
M  V30 6919 C 639.087 0.644203 6.07695 0
M  V30 6920 C 640.085 1.40115 6.68473 0
M  V30 6921 O 639.773 2.23408 7.72233 0
M  V30 6922 H 639.505 -0.145799 0.66009 0
M  V30 6923 H 642.059 0.212441 2.04298 0
M  V30 6924 H 640.289 -2.00931 3.30399 0
M  V30 6925 H 641.978 -1.77424 3.65069 0
M  V30 6926 H 642.744 0.409884 4.83265 0
M  V30 6927 H 638.623 -0.781688 4.54324 0
M  V30 6928 H 642.167 1.90514 6.71081 0
M  V30 6929 H 638.064 0.706137 6.41626 0
M  V30 6930 H 638.832 2.16436 7.89365 0
M  V30 6931 N 641.495 -1.56914 -0.146875 0
M  V30 6932 C 642.72 -1.87881 -0.878386 0
M  V30 6933 C 643.145 -0.715945 -1.73942 0
M  V30 6934 O 642.503 0.334447 -1.78189 0
M  V30 6935 C 642.551 -3.17431 -1.71084 0
M  V30 6936 O 641.655 -3.01374 -2.81509 0
M  V30 6937 H 640.996 -0.617289 -0.244644 0
M  V30 6938 H 643.526 -2.04136 -0.137654 0
M  V30 6939 H 643.536 -3.49455 -2.10582 0
M  V30 6940 H 642.211 -4.01671 -1.07856 0
M  V30 6941 H 640.788 -2.80758 -2.45416 0
M  V30 6942 N 642.974 0.416227 -1.52004 0
M  V30 6943 C 643.921 1.50666 -1.74838 0
M  V30 6944 C 644.891 1.55245 -0.590599 0
M  V30 6945 O 646.076 1.71928 -0.827374 0
M  V30 6946 C 643.216 2.88185 -1.89851 0
M  V30 6947 C 642.329 2.92971 -3.17478 0
M  V30 6948 C 641.464 4.21745 -3.22962 0
M  V30 6949 C 640.503 4.20478 -4.4482 0
M  V30 6950 N 639.64 5.40811 -4.47736 0
M  V30 6951 H 644.48 1.30498 -2.67907 0
M  V30 6952 H 642.017 0.633568 -1.32757 0
M  V30 6953 H 643.975 3.68007 -1.96537 0
M  V30 6954 H 642.605 3.06865 -1.00169 0
M  V30 6955 H 641.657 2.05684 -3.19997 0
M  V30 6956 H 642.969 2.87899 -4.07328 0
M  V30 6957 H 642.123 5.09954 -3.28682 0
M  V30 6958 H 640.862 4.29503 -2.31038 0
M  V30 6959 H 639.867 3.30659 -4.39254 0
M  V30 6960 H 641.092 4.14366 -5.38031 0
M  V30 6961 H 639.038 5.4925 -3.58692 0
M  V30 6962 H 638.955 5.37705 -5.31422 0
M  V30 6963 H 640.223 6.30993 -4.57676 0
M  V30 6964 N 644.452 1.42507 0.673017 0
M  V30 6965 C 645.4 1.46362 1.80779 0
M  V30 6966 C 646.394 0.339166 1.6597 0
M  V30 6967 O 647.6 0.512262 1.72557 0
M  V30 6968 H 643.975 0.458433 0.596107 0
M  V30 6969 H 645.946 2.41953 1.74646 0
M  V30 6970 C 644.695 1.38462 3.18941 0
M  V30 6971 H 644.018 2.24283 3.30964 0
M  V30 6972 H 645.458 1.45221 3.98355 0
M  V30 6973 C 643.917 0.0996354 3.36753 0
M  V30 6974 O 644.447 -0.846894 3.92671 0
M  V30 6975 N 642.653 0.016211 2.90595 0
M  V30 6976 H 642.2 0.78725 2.45276 0
M  V30 6977 H 642.158 -0.84291 3.0289 0
M  V30 6978 N 645.93 -0.909495 1.28709 0
M  V30 6979 C 646.877 -2.01245 1.13 0
M  V30 6980 C 647.847 -1.6608 0.0259684 0
M  V30 6981 O 649.032 -1.89835 0.191687 0
M  V30 6982 C 646.172 -3.35644 0.802315 0
M  V30 6983 C 645.285 -3.83653 1.98582 0
M  V30 6984 C 644.42 -5.06582 1.59837 0
M  V30 6985 C 643.459 -5.46934 2.74827 0
M  V30 6986 N 642.596 -6.61053 2.36546 0
M  V30 6987 H 647.436 -2.14013 2.0737 0
M  V30 6988 H 644.973 -1.0482 1.03205 0
M  V30 6989 H 646.931 -4.12963 0.593057 0
M  V30 6990 H 645.561 -3.22631 -0.104457 0
M  V30 6991 H 644.613 -3.02454 2.30708 0
M  V30 6992 H 645.925 -4.09515 2.84779 0
M  V30 6993 H 645.079 -5.91457 1.35143 0
M  V30 6994 H 643.818 -4.82537 0.707753 0
M  V30 6995 H 642.823 -4.60599 3.00215 0
M  V30 6996 H 644.048 -5.72965 3.64538 0
M  V30 6997 H 641.994 -6.3863 1.49959 0
M  V30 6998 H 641.911 -6.86662 3.16277 0
M  V30 6999 H 643.179 -7.49221 2.15146 0
M  V30 7000 N 647.408 -1.11026 -1.11852 0
M  V30 7001 C 648.638 -0.877544 -1.87037 0
M  V30 7002 C 649.046 0.575925 -1.80221 0
M  V30 7003 O 648.389 1.40916 -1.17849 0
M  V30 7004 C 648.451 -1.25529 -3.36872 0
M  V30 7005 C 648.115 -2.71704 -3.67459 0
M  V30 7006 C 649.112 -3.69931 -3.65304 0
M  V30 7007 C 646.797 -3.08243 -3.966 0
M  V30 7008 C 648.791 -5.02717 -3.9186 0
M  V30 7009 C 646.478 -4.41215 -4.22815 0
M  V30 7010 C 647.476 -5.38262 -4.20432 0
M  V30 7011 O 647.164 -6.68839 -4.45992 0
M  V30 7012 H 646.896 -0.314374 -0.598452 0
M  V30 7013 H 649.45 -1.48015 -1.42411 0
M  V30 7014 H 647.68 -0.595808 -3.82082 0
M  V30 7015 H 649.369 -0.999064 -3.93413 0
M  V30 7016 H 650.135 -3.43047 -3.42846 0
M  V30 7017 H 646.014 -2.33326 -3.97593 0
M  V30 7018 H 649.558 -5.78456 -3.89916 0
M  V30 7019 H 645.455 -4.67835 -4.44748 0
M  V30 7020 H 646.223 -6.74563 -4.63581 0
M  V30 7021 N 648.886 1.2938 -0.899927 0
M  V30 7022 C 650.116 1.99402 -0.540601 0
M  V30 7023 C 650.524 1.67534 0.87914 0
M  V30 7024 O 649.867 0.916821 1.59186 0
M  V30 7025 C 649.929 3.53514 -0.653326 0
M  V30 7026 C 649.593 4.08937 -2.04009 0
M  V30 7027 C 650.59 4.23815 -3.01126 0
M  V30 7028 C 648.275 4.43962 -2.34953 0
M  V30 7029 C 650.269 4.72951 -4.27313 0
M  V30 7030 C 647.956 4.92795 -3.61382 0
M  V30 7031 C 648.954 5.07244 -4.57376 0
M  V30 7032 O 648.642 5.55017 -5.8156 0
M  V30 7033 H 648.374 0.64383 -0.206057 0
M  V30 7034 H 650.928 1.65878 -1.21134 0
M  V30 7035 H 649.158 3.86628 0.0744449 0
M  V30 7036 H 650.847 4.04767 -0.303118 0
M  V30 7037 H 651.613 3.97043 -2.78535 0
M  V30 7038 H 647.492 4.31974 -1.60994 0
M  V30 7039 H 651.036 4.84144 -5.02245 0
M  V30 7040 H 646.933 5.19004 -3.83804 0
M  V30 7041 H 647.701 5.73331 -5.84153 0
M  V30 7042 N 650.364 0.662433 1.43002 0
M  V30 7043 C 651.594 0.187343 2.05749 0
M  V30 7044 C 652.002 -1.15582 1.49791 0
M  V30 7045 O 651.345 -1.72651 0.627487 0
M  V30 7046 C 651.407 0.0316493 3.59486 0
M  V30 7047 C 651.071 1.30156 4.38073 0
M  V30 7048 C 652.068 2.23234 4.69535 0
M  V30 7049 C 649.753 1.54572 4.77926 0
M  V30 7050 C 651.747 3.39012 5.39768 0
M  V30 7051 C 649.434 2.70641 5.47902 0
M  V30 7052 C 650.432 3.62687 5.78746 0
M  V30 7053 O 650.12 4.76728 6.47291 0
M  V30 7054 H 649.852 0.0915214 0.669776 0
M  V30 7055 H 652.406 0.905982 1.8434 0
M  V30 7056 H 650.636 -0.742451 3.79506 0
M  V30 7057 H 652.325 -0.401977 4.03905 0
M  V30 7058 H 653.091 2.05616 4.39257 0
M  V30 7059 H 648.97 0.83804 4.53319 0
M  V30 7060 H 652.514 4.10877 5.63761 0
M  V30 7061 H 648.411 2.88189 5.77596 0
M  V30 7062 H 649.179 4.76113 6.65777 0
M  V30 7063 N 651.842 -1.52309 0.404946 0
M  V30 7064 C 653.089 -2.01767 -0.1722 0
M  V30 7065 C 653.417 -1.29075 -1.45498 0
M  V30 7066 O 652.672 -0.3843 -1.9189 0
M  V30 7067 C 652.971 -3.54284 -0.470895 0
M  V30 7068 C 652.637 -4.45079 0.722194 0
M  V30 7069 C 651.299 -4.69617 1.04946 0
M  V30 7070 C 653.651 -4.98555 1.51962 0
M  V30 7071 C 650.979 -5.44878 2.17543 0
M  V30 7072 C 653.331 -5.75049 2.63632 0
M  V30 7073 C 651.995 -5.9786 2.9685 0
M  V30 7074 H 651.265 -0.738316 -0.0630125 0
M  V30 7075 H 653.912 -1.83566 0.545506 0
M  V30 7076 H 652.217 -3.70642 -1.27012 0
M  V30 7077 H 653.914 -3.90058 -0.930346 0
M  V30 7078 H 650.504 -4.26155 0.457131 0
M  V30 7079 H 654.688 -4.79509 1.28002 0
M  V30 7080 H 649.944 -5.60762 2.43631 0
M  V30 7081 H 654.118 -6.15483 3.25813 0
M  V30 7082 H 651.745 -6.5596 3.84215 0
M  V30 7083 N 653.32 -0.135238 -1.57019 0
M  V30 7084 C 654.567 0.518794 -1.95742 0
M  V30 7085 C 654.895 1.65642 -1.01947 0
M  V30 7086 O 654.15 1.95645 -0.0464016 0
M  V30 7087 C 654.449 1.07694 -3.40788 0
M  V30 7088 C 654.115 0.058992 -4.50861 0
M  V30 7089 C 652.777 -0.220872 -4.80693 0
M  V30 7090 C 655.129 -0.633856 -5.17331 0
M  V30 7091 C 652.457 -1.19959 -5.74305 0
M  V30 7092 C 654.809 -1.60131 -6.11997 0
M  V30 7093 C 653.473 -1.889 -6.40213 0
M  V30 7094 H 652.743 0.18984 -0.716269 0
M  V30 7095 H 655.39 -0.219581 -1.90237 0
M  V30 7096 H 653.695 1.89241 -3.43067 0
M  V30 7097 H 655.392 1.59137 -3.68071 0
M  V30 7098 H 651.982 0.287304 -4.27636 0
M  V30 7099 H 656.166 -0.430823 -4.94427 0
M  V30 7100 H 651.422 -1.42905 -5.94465 0
M  V30 7101 H 655.596 -2.14376 -6.62583 0
M  V30 7102 H 653.223 -2.64891 -7.12556 0
M  V30 7103 N 654.798 1.5699 0.138552 0
M  V30 7104 C 655.73 1.95515 1.1961 0
M  V30 7105 C 656.743 0.852002 1.38726 0
M  V30 7106 O 657.932 1.13038 1.38147 0
M  V30 7107 C 655.032 2.2213 2.55952 0
M  V30 7108 C 654.205 3.53424 2.57702 0
M  V30 7109 C 653.264 3.6848 3.75645 0
M  V30 7110 O 652.29 4.4079 3.60129 0
M  V30 7111 N 653.492 3.05777 4.93438 0
M  V30 7112 H 656.257 2.86838 0.868557 0
M  V30 7113 H 653.818 1.58542 0.328033 0
M  V30 7114 H 655.81 2.29435 3.33379 0
M  V30 7115 H 654.38 1.3703 2.80965 0
M  V30 7116 H 653.6 3.57484 1.6613 0
M  V30 7117 H 654.888 4.39759 2.55909 0
M  V30 7118 H 654.286 2.46961 5.08947 0
M  V30 7119 H 652.843 3.18631 5.6861 0
M  V30 7120 N 656.276 -0.40816 1.52223 0
M  V30 7121 C 657.524 -1.15274 1.66001 0
M  V30 7122 C 657.845 -1.91003 0.392803 0
M  V30 7123 O 657.115 -1.8673 -0.592336 0
M  V30 7124 H 655.695 -0.428526 0.611861 0
M  V30 7125 H 658.357 -0.46512 1.89269 0
M  V30 7126 H 657.453 -1.86628 2.50153 0
M  V30 7127 N 657.755 -1.42862 -0.66545 0
M  V30 7128 C 658.98 -1.47456 -1.45848 0
M  V30 7129 C 659.405 -0.0900312 -1.87884 0
M  V30 7130 O 658.763 0.913587 -1.56599 0
M  V30 7131 C 658.811 -2.41514 -2.67774 0
M  V30 7132 O 657.915 -1.89296 -3.66389 0
M  V30 7133 H 657.256 -0.499236 -0.437789 0
M  V30 7134 H 659.786 -1.8765 -0.815394 0
M  V30 7135 H 659.796 -2.58409 -3.15735 0
M  V30 7136 H 658.471 -3.42099 -2.36519 0
M  V30 7137 H 657.048 -1.82003 -3.25468 0
M  V30 7138 N 659.233 0.902656 -1.29189 0
M  V30 7139 C 660.181 2.0278 -1.13943 0
M  V30 7140 C 661.175 1.69308 -0.055787 0
M  V30 7141 O 662.381 1.78707 -0.215371 0
M  V30 7142 H 658.756 0.664595 -0.351877 0
M  V30 7143 H 660.727 2.12778 -2.09208 0
M  V30 7144 C 659.476 3.37657 -0.82966 0
M  V30 7145 H 658.799 3.63913 -1.65551 0
M  V30 7146 H 660.239 4.17078 -0.762998 0
M  V30 7147 C 658.698 3.33648 0.466991 0
M  V30 7148 O 659.228 3.72886 1.49395 0
M  V30 7149 N 657.434 2.86745 0.471761 0
M  V30 7150 H 656.981 2.55009 -0.364406 0
M  V30 7151 H 656.939 2.84446 1.33933 0
M  V30 7152 N 660.711 1.11618 1.11262 0
M  V30 7153 C 661.643 0.734015 2.17129 0
M  V30 7154 C 662.656 -0.235243 1.61091 0
M  V30 7155 O 663.845 -0.0178597 1.78491 0
M  V30 7156 C 660.945 0.0643682 3.38839 0
M  V30 7157 C 660.118 1.06092 4.24339 0
M  V30 7158 C 659.177 0.420482 5.24517 0
M  V30 7159 O 658.203 1.07495 5.58957 0
M  V30 7160 N 659.405 -0.815828 5.74739 0
M  V30 7161 H 662.17 1.64492 2.50524 0
M  V30 7162 H 659.731 1.00664 1.26801 0
M  V30 7163 H 661.723 -0.375851 4.02951 0
M  V30 7164 H 660.293 -0.749147 3.03491 0
M  V30 7165 H 659.513 1.67903 3.56654 0
M  V30 7166 H 660.801 1.73507 4.78302 0
M  V30 7167 H 660.199 -1.36668 5.48943 0
M  V30 7168 H 658.756 -1.199 6.40677 0
M  V30 7169 N 662.189 -1.289 0.906776 0
M  V30 7170 C 663.436 -1.95269 0.536326 0
M  V30 7171 C 663.764 -1.71435 -0.918711 0
M  V30 7172 O 663.019 -1.02431 -1.66752 0
M  V30 7173 C 663.318 -3.48704 0.783617 0
M  V30 7174 C 662.984 -3.92626 2.21711 0
M  V30 7175 C 661.646 -4.04329 2.60906 0
M  V30 7176 C 663.998 -4.15218 3.15029 0
M  V30 7177 C 661.326 -4.35998 3.92584 0
M  V30 7178 C 663.678 -4.48365 4.46264 0
M  V30 7179 C 662.342 -4.58278 4.85322 0
M  V30 7180 H 661.612 -0.714538 0.196256 0
M  V30 7181 H 664.259 -1.53366 1.14678 0
M  V30 7182 H 662.564 -3.91696 0.0903048 0
M  V30 7183 H 664.261 -3.98162 0.476267 0
M  V30 7184 H 660.851 -3.84038 1.90296 0
M  V30 7185 H 665.035 -4.05636 2.8596 0
M  V30 7186 H 660.291 -4.41878 4.22557 0
M  V30 7187 H 664.465 -4.64795 5.18593 0
M  V30 7188 H 662.092 -4.82573 5.87391 0
M  V30 7189 N 663.667 -0.670007 -1.42649 0
M  V30 7190 C 664.577 0.0114788 -2.34597 0
M  V30 7191 C 665.593 0.794055 -1.54825 0
M  V30 7192 O 666.769 0.737472 -1.87412 0
M  V30 7193 C 663.834 0.954436 -3.33304 0
M  V30 7194 C 662.895 0.166925 -4.28975 0
M  V30 7195 C 662.128 1.06497 -5.22967 0
M  V30 7196 O 662.351 2.30446 -5.21777 0
M  V30 7197 O 661.285 0.528347 -5.99577 0
M  V30 7198 H 665.111 -0.745794 -2.944 0
M  V30 7199 H 662.696 -0.430228 -1.43071 0
M  V30 7200 H 664.578 1.49589 -3.93956 0
M  V30 7201 H 663.253 1.69164 -2.7598 0
M  V30 7202 H 662.16 -0.418515 -3.71752 0
M  V30 7203 H 663.493 -0.531067 -4.89327 0
M  V30 7204 N 665.145 1.52092 -0.413018 0
M  V30 7205 C 666.375 2.05974 0.160648 0
M  V30 7206 C 666.783 1.28267 1.39084 0
M  V30 7207 O 666.126 0.328805 1.80733 0
M  V30 7208 C 666.188 3.54918 0.572169 0
M  V30 7209 C 665.852 4.53705 -0.547826 0
M  V30 7210 C 666.849 5.00342 -1.41259 0
M  V30 7211 C 664.534 4.97089 -0.721627 0
M  V30 7212 C 666.528 5.89011 -2.43607 0
M  V30 7213 C 664.215 5.85554 -1.74841 0
M  V30 7214 C 665.213 6.3141 -2.60403 0
M  V30 7215 O 664.901 7.18123 -3.61323 0
M  V30 7216 H 664.633 0.675636 0.0221936 0
M  V30 7217 H 667.187 1.96931 -0.58373 0
M  V30 7218 H 665.417 3.61661 1.36889 0
M  V30 7219 H 667.106 3.91428 1.0742 0
M  V30 7220 H 667.872 4.67537 -1.28974 0
M  V30 7221 H 663.751 4.60954 -0.0652911 0
M  V30 7222 H 667.295 6.24725 -3.10425 0
M  V30 7223 H 663.192 6.17773 -1.87156 0
M  V30 7224 H 663.96 7.36244 -3.57613 0
M  V30 7225 N 666.623 0.143563 1.56945 0
M  V30 7226 C 667.9 -0.553285 1.87612 0
M  V30 7227 C 668.28 -1.83195 1.04894 0
M  V30 7228 O 667.628 -2.28102 0.134773 0
M  V30 7229 C 667.838 -0.822055 3.3918 0
M  V30 7230 C 669.186 -1.16435 4.08324 0
M  V30 7231 O 670.21 -0.911522 3.4434 0
M  V30 7232 O 669.069 -1.63996 5.21313 0
M  V30 7233 H 666.163 -0.281851 0.777489 0
M  V30 7234 H 668.709 0.179916 1.68744 0
M  V30 7235 H 667.481 0.0830265 3.91212 0
M  V30 7236 H 667.104 -1.60956 3.63564 0
M  V30 7237 N 668.101 -1.57061 -0.130224 0
M  V30 7238 C 669.348 -1.84257 -0.839972 0
M  V30 7239 C 669.676 -0.726986 -1.80403 0
M  V30 7240 O 668.931 0.282632 -1.93648 0
M  V30 7241 C 669.23 -3.17878 -1.63365 0
M  V30 7242 C 668.896 -4.43475 -0.814891 0
M  V30 7243 C 667.558 -4.77581 -0.589066 0
M  V30 7244 C 669.91 -5.20631 -0.243437 0
M  V30 7245 C 667.238 -5.86292 0.218648 0
M  V30 7246 C 669.59 -6.30192 0.551408 0
M  V30 7247 C 668.254 -6.62837 0.787653 0
M  V30 7248 H 667.524 -0.674245 -0.307367 0
M  V30 7249 H 670.171 -1.91224 -0.102832 0
M  V30 7250 H 668.476 -3.06437 -2.44138 0
M  V30 7251 H 670.173 -3.3614 -2.18658 0
M  V30 7252 H 666.763 -4.16747 -1.00098 0
M  V30 7253 H 670.947 -4.94644 -0.405145 0
M  V30 7254 H 666.203 -6.10017 0.411016 0
M  V30 7255 H 670.377 -6.89165 1.00126 0
M  V30 7256 H 668.004 -7.46908 1.41537 0
M  V30 7257 N 669.579 0.400081 -1.52437 0
M  V30 7258 C 670.509 1.4947 -1.7939 0
M  V30 7259 C 671.49 1.57383 -0.645329 0
M  V30 7260 O 672.675 1.72511 -0.891826 0
M  V30 7261 C 669.805 2.87201 -1.95276 0
M  V30 7262 C 668.759 2.94134 -3.10917 0
M  V30 7263 C 668.085 4.34207 -3.1204 0
M  V30 7264 C 669.385 2.64791 -4.50203 0
M  V30 7265 H 671.079 1.27165 -2.71052 0
M  V30 7266 H 668.625 0.610312 -1.30427 0
M  V30 7267 H 670.578 3.63772 -2.12715 0
M  V30 7268 H 669.302 3.10819 -1.00294 0
M  V30 7269 H 667.961 2.20009 -2.93243 0
M  V30 7270 H 667.609 4.54848 -2.14761 0
M  V30 7271 H 667.309 4.39768 -3.89715 0
M  V30 7272 H 668.833 5.127 -3.31619 0
M  V30 7273 H 670.247 3.31083 -4.68035 0
M  V30 7274 H 668.644 2.81717 -5.29864 0
M  V30 7275 H 669.714 1.60184 -4.57678 0
M  V30 7276 N 671.057 1.43213 0.657864 0
M  V30 7277 C 671.987 1.50815 1.78262 0
M  V30 7278 C 672.968 0.363211 1.66177 0
M  V30 7279 O 674.153 0.579806 1.85343 0
M  V30 7280 C 671.283 1.42625 3.16663 0
M  V30 7281 C 670.237 2.5532 3.43505 0
M  V30 7282 C 669.563 2.32184 4.81658 0
M  V30 7283 C 670.863 3.97583 3.38711 0
M  V30 7284 H 672.557 2.44954 1.72157 0
M  V30 7285 H 670.103 1.17896 0.82683 0
M  V30 7286 H 672.056 1.46548 3.95097 0
M  V30 7287 H 670.78 0.449877 3.23487 0
M  V30 7288 H 669.439 2.50742 2.6744 0
M  V30 7289 H 669.087 1.32801 4.85153 0
M  V30 7290 H 668.787 3.07724 5.00579 0
M  V30 7291 H 670.311 2.37883 5.62356 0
M  V30 7292 H 671.725 4.03673 4.07089 0
M  V30 7293 H 670.122 4.73112 3.69168 0
M  V30 7294 H 671.192 4.23049 2.36976 0
M  V30 7295 N 672.536 -0.895792 1.29666 0
M  V30 7296 C 673.468 -2.00563 1.10937 0
M  V30 7297 C 674.481 -1.62705 0.055734 0
M  V30 7298 O 675.67 -1.7595 0.300656 0
M  V30 7299 C 672.77 -3.32262 0.667448 0
M  V30 7300 C 671.943 -3.98625 1.80047 0
M  V30 7301 C 671.002 -5.08617 1.3489 0
M  V30 7302 O 670.028 -5.30837 2.05429 0
M  V30 7303 N 671.23 -5.80076 0.221937 0
M  V30 7304 H 673.995 -2.17184 2.06522 0
M  V30 7305 H 671.556 -1.06822 1.21658 0
M  V30 7306 H 673.548 -4.03196 0.348586 0
M  V30 7307 H 672.118 -3.11985 -0.196055 0
M  V30 7308 H 671.338 -3.21005 2.28801 0
M  V30 7309 H 672.626 -4.39704 2.56003 0
M  V30 7310 H 672.024 -5.64514 -0.366084 0
M  V30 7311 H 670.581 -6.51789 -0.0375346 0
M  V30 7312 N 674.014 -1.12206 -1.10668 0
M  V30 7313 C 675.43 -0.857619 -1.346 0
M  V30 7314 C 675.63 0.513542 -1.94846 0
M  V30 7315 O 674.686 1.26273 -2.18658 0
M  V30 7316 C 675.999 -1.97212 -2.26998 0
M  V30 7317 C 677.547 -2.00272 -2.40542 0
M  V30 7318 C 678.022 -3.10948 -3.36267 0
M  V30 7319 N 679.513 -3.10375 -3.43834 0
M  V30 7320 C 680.248 -3.92651 -4.17867 0
M  V30 7321 N 679.744 -4.84911 -4.94807 0
M  V30 7322 N 681.537 -3.80798 -4.1346 0
M  V30 7323 H 673.688 -2.00558 -0.699306 0
M  V30 7324 H 675.951 -0.872612 -0.370477 0
M  V30 7325 H 675.657 -2.96002 -1.89936 0
M  V30 7326 H 675.531 -1.87521 -3.27286 0
M  V30 7327 H 677.918 -1.02103 -2.76874 0
M  V30 7328 H 677.999 -2.14037 -1.40077 0
M  V30 7329 H 677.643 -4.09348 -3.00661 0
M  V30 7330 H 677.573 -2.94421 -4.36605 0
M  V30 7331 H 680.064 -2.43536 -2.88961 0
M  V30 7332 H 680.377 -5.44207 -5.48688 0
M  V30 7333 H 678.722 -4.88926 -4.93939 0
M  V30 7334 H 681.913 -3.08058 -3.52445 0
M  V30 7335 H 682.086 -4.4515 -4.70898 0
M  V30 7336 N 675.492 1.28418 -0.913599 0
M  V30 7337 C 676.741 1.94265 -0.542572 0
M  V30 7338 C 677.054 1.72709 0.918207 0
M  V30 7339 O 678.26 2.32778 1.39738 0
M  V30 7340 C 676.716 3.47956 -0.919507 0
M  V30 7341 C 676.324 3.78291 -2.4 0
M  V30 7342 C 678.068 4.19962 -0.619057 0
M  V30 7343 C 675.975 5.2529 -2.71707 0
M  V30 7344 H 674.905 0.727213 -0.199192 0
M  V30 7345 H 677.556 1.45931 -1.11249 0
M  V30 7346 H 675.938 3.9502 -0.278372 0
M  V30 7347 H 677.112 3.42035 -3.08786 0
M  V30 7348 H 675.427 3.19456 -2.67089 0
M  V30 7349 H 678.024 5.28178 -0.832623 0
M  V30 7350 H 678.367 4.13935 0.443126 0
M  V30 7351 H 678.9 3.78674 -1.21865 0
M  V30 7352 H 675.639 5.36394 -3.76778 0
M  V30 7353 H 675.159 5.62743 -2.07559 0
M  V30 7354 H 676.838 5.93027 -2.58703 0
M  V30 7355 N 676.97 0.677563 1.42291 0
M  V30 7356 C 678.198 0.209459 2.05837 0
M  V30 7357 C 678.613 -1.13444 1.50917 0
M  V30 7358 O 677.97 -1.70529 0.65008 0
M  V30 7359 C 678.021 0.138819 3.61233 0
M  V30 7360 O 677.742 1.42962 4.14118 0
M  V30 7361 C 679.243 -0.352449 4.41897 0
M  V30 7362 H 676.463 0.101209 0.663323 0
M  V30 7363 H 679.007 0.925077 1.8238 0
M  V30 7364 H 677.162 -0.527505 3.83792 0
M  V30 7365 H 677.576 1.3048 5.08011 0
M  V30 7366 H 679.05 -0.350778 5.50884 0
M  V30 7367 H 679.527 -1.3882 4.16684 0
M  V30 7368 H 680.133 0.282236 4.24362 0
M  V30 7369 N 678.448 -1.51871 0.421078 0
M  V30 7370 C 679.395 -2.27334 -0.398508 0
M  V30 7371 C 680.365 -1.30241 -1.03085 0
M  V30 7372 O 681.55 -1.59121 -1.05285 0
M  V30 7373 C 678.69 -3.10664 -1.50272 0
M  V30 7374 C 677.803 -4.2273 -0.890122 0
M  V30 7375 C 676.938 -4.93399 -1.96803 0
M  V30 7376 C 675.977 -5.97409 -1.333 0
M  V30 7377 N 675.114 -6.61548 -2.35156 0
M  V30 7378 H 679.954 -2.96938 0.251411 0
M  V30 7379 H 677.491 -1.46472 0.135825 0
M  V30 7380 H 679.449 -3.57292 -2.15403 0
M  V30 7381 H 678.079 -2.43207 -2.1225 0
M  V30 7382 H 677.131 -3.80186 -0.127537 0
M  V30 7383 H 678.443 -4.97302 -0.386349 0
M  V30 7384 H 677.597 -5.43491 -2.69633 0
M  V30 7385 H 676.336 -4.18421 -2.50549 0
M  V30 7386 H 675.341 -5.46624 -0.59008 0
M  V30 7387 H 676.566 -6.74335 -0.803076 0
M  V30 7388 H 674.512 -5.89394 -2.88012 0
M  V30 7389 H 674.429 -7.31832 -1.89624 0
M  V30 7390 H 675.697 -7.16276 -3.0752 0
M  V30 7391 N 679.926 -0.151884 -1.56866 0
M  V30 7392 C 681.154 0.504813 -2.00647 0
M  V30 7393 C 681.569 1.58098 -1.03201 0
M  V30 7394 O 680.926 1.82476 -0.0297814 0
M  V30 7395 C 680.977 1.10099 -3.44326 0
M  V30 7396 O 680.698 0.0678021 -4.38048 0
M  V30 7397 C 682.199 1.83782 -4.03409 0
M  V30 7398 H 679.419 0.130989 -0.65809 0
M  V30 7399 H 681.963 -0.247903 -2.02992 0
M  V30 7400 H 680.118 1.8043 -3.42817 0
M  V30 7401 H 680.532 0.505237 -5.22061 0
M  V30 7402 H 682.006 2.2078 -5.05925 0
M  V30 7403 H 682.483 2.72557 -3.44397 0
M  V30 7404 H 683.089 1.18138 -4.08563 0
M  V30 7405 N 681.404 1.57128 0.121893 0
M  V30 7406 C 682.334 2.03165 1.15092 0
M  V30 7407 C 683.315 0.915587 1.43356 0
M  V30 7408 O 684.5 1.1851 1.53847 0
M  V30 7409 C 681.63 2.43352 2.47784 0
M  V30 7410 C 680.584 3.58376 2.33989 0
M  V30 7411 C 679.91 3.84454 3.71617 0
M  V30 7412 C 681.21 4.90199 1.80283 0
M  V30 7413 H 682.904 2.89382 0.768023 0
M  V30 7414 H 680.45 1.39218 0.367998 0
M  V30 7415 H 682.403 2.74163 3.20019 0
M  V30 7416 H 681.127 1.54103 2.87958 0
M  V30 7417 H 679.786 3.2777 1.64202 0
M  V30 7418 H 679.434 2.92414 4.09271 0
M  V30 7419 H 679.134 4.61877 3.6324 0
M  V30 7420 H 680.658 4.17714 4.45362 0
M  V30 7421 H 682.072 5.19565 2.42333 0
M  V30 7422 H 680.469 5.71601 1.82735 0
M  V30 7423 H 681.539 4.78904 0.760184 0
M  V30 7424 N 682.882 -0.391992 1.52647 0
M  V30 7425 C 683.829 -1.47866 1.77213 0
M  V30 7426 C 684.799 -1.54286 0.615223 0
M  V30 7427 O 685.984 -1.7059 0.854622 0
M  V30 7428 C 683.124 -2.85129 1.94411 0
M  V30 7429 C 682.237 -2.87883 3.22098 0
M  V30 7430 C 681.372 -4.16553 3.29631 0
M  V30 7431 C 680.411 -4.13348 4.51453 0
M  V30 7432 N 679.548 -5.33619 4.56284 0
M  V30 7433 H 684.388 -1.26219 2.6995 0
M  V30 7434 H 681.925 -0.612367 1.33748 0
M  V30 7435 H 683.883 -3.64833 2.02367 0
M  V30 7436 H 682.513 -3.05232 1.05038 0
M  V30 7437 H 681.565 -2.00567 3.23229 0
M  V30 7438 H 682.877 -2.81382 4.11856 0
M  V30 7439 H 682.031 -5.0466 3.36753 0
M  V30 7440 H 680.77 -4.25773 2.37842 0
M  V30 7441 H 679.775 -3.23629 4.44459 0
M  V30 7442 H 681 -4.05754 5.44555 0
M  V30 7443 H 678.946 -5.43474 3.67385 0
M  V30 7444 H 678.863 -5.29182 5.3991 0
M  V30 7445 H 680.131 -6.23632 4.67657 0
M  V30 7446 N 684.36 -1.4356 -0.65026 0
M  V30 7447 C 685.585 -1.48995 -1.44275 0
M  V30 7448 C 686.01 -0.109954 -1.87778 0
M  V30 7449 O 685.368 0.896926 -1.57559 0
M  V30 7450 C 685.416 -2.44341 -2.65198 0
M  V30 7451 O 684.52 -1.93172 -3.6436 0
M  V30 7452 H 683.861 -0.503852 -0.432469 0
M  V30 7453 H 686.391 -1.88504 -0.795446 0
M  V30 7454 H 686.401 -2.61743 -3.12977 0
M  V30 7455 H 685.076 -3.44588 -2.32877 0
M  V30 7456 H 683.653 -1.85445 -3.23519 0
M  V30 7457 N 685.838 0.888903 -1.30139 0
M  V30 7458 C 686.786 2.0156 -1.16088 0
M  V30 7459 C 687.78 1.69239 -0.0737413 0
M  V30 7460 O 688.986 1.78468 -0.234313 0
M  V30 7461 H 685.361 0.660825 -0.358907 0
M  V30 7462 H 687.332 2.10547 -2.11453 0
M  V30 7463 C 686.081 3.36758 -0.865426 0
M  V30 7464 H 685.404 3.62137 -1.69402 0
M  V30 7465 H 686.844 4.16246 -0.807192 0
M  V30 7466 C 685.303 3.34124 0.431577 0
M  V30 7467 O 685.833 3.7445 1.45431 0
M  V30 7468 N 684.039 2.87229 0.441321 0
M  V30 7469 H 683.586 2.54609 -0.391433 0
M  V30 7470 H 683.544 2.8585 1.30909 0
M  V30 7471 N 687.317 1.12792 1.10072 0
M  V30 7472 C 688.542 0.908838 1.86427 0
M  V30 7473 C 688.967 -0.536793 1.80278 0
M  V30 7474 O 688.325 -1.38033 1.17543 0
M  V30 7475 C 688.373 1.39295 3.3261 0
M  V30 7476 O 687.477 0.573846 4.08388 0
M  V30 7477 H 686.818 0.326234 0.578331 0
M  V30 7478 H 689.348 1.50094 1.39043 0
M  V30 7479 H 689.358 1.39366 3.83459 0
M  V30 7480 H 688.033 2.44555 3.36401 0
M  V30 7481 H 686.61 0.640438 3.67359 0
M  V30 7482 N 688.795 -1.27931 0.920396 0
M  V30 7483 C 690.041 -1.95329 0.5673 0
M  V30 7484 C 690.396 -1.7107 -0.880506 0
M  V30 7485 O 689.689 -1.02497 -1.61879 0
M  V30 7486 C 689.883 -3.47853 0.820558 0
M  V30 7487 C 689.712 -3.86941 2.29143 0
M  V30 7488 C 688.482 -4.10766 2.94278 0
M  V30 7489 C 690.68 -3.97091 3.26838 0
M  V30 7490 N 688.662 -4.36578 4.31594 0
M  V30 7491 C 690.033 -4.27194 4.49339 0
M  V30 7492 C 692.088 -3.79639 3.22147 0
M  V30 7493 C 690.791 -4.41662 5.67739 0
M  V30 7494 C 692.817 -3.95328 4.39852 0
M  V30 7495 C 692.179 -4.2581 5.61128 0
M  V30 7496 H 688.278 -0.73836 0.257583 0
M  V30 7497 H 690.862 -1.54447 1.1855 0
M  V30 7498 H 689.033 -3.87709 0.231571 0
M  V30 7499 H 690.765 -4.024 0.430824 0
M  V30 7500 H 687.52 -4.05318 2.44979 0
M  V30 7501 H 687.944 -4.53555 5.0261 0
M  V30 7502 H 692.586 -3.55119 2.29457 0
M  V30 7503 H 690.304 -4.65011 6.60901 0
M  V30 7504 H 693.89 -3.83253 4.37731 0
M  V30 7505 H 692.77 -4.37691 6.50689 0
M  V30 7506 N 690.273 -0.685099 -1.4193 0
M  V30 7507 C 691.52 -0.211658 -2.01391 0
M  V30 7508 C 691.848 1.18526 -1.54214 0
M  V30 7509 O 691.103 1.81189 -0.739519 0
M  V30 7510 C 691.402 -0.206154 -3.56805 0
M  V30 7511 C 691.068 -1.54915 -4.23453 0
M  V30 7512 C 689.73 -1.91684 -4.41373 0
M  V30 7513 C 692.082 -2.43317 -4.60919 0
M  V30 7514 C 689.41 -3.16461 -4.94034 0
M  V30 7515 C 691.762 -3.67415 -5.14965 0
M  V30 7516 C 690.426 -4.04341 -5.31098 0
M  V30 7517 H 689.696 -0.0774511 -0.736941 0
M  V30 7518 H 692.343 -0.882121 -1.69973 0
M  V30 7519 H 690.648 0.547841 -3.87951 0
M  V30 7520 H 692.345 0.17753 -4.00607 0
M  V30 7521 H 688.935 -1.25314 -4.09871 0
M  V30 7522 H 693.119 -2.16192 -4.46738 0
M  V30 7523 H 688.375 -3.45078 -5.04709 0
M  V30 7524 H 692.549 -4.3611 -5.42938 0
M  V30 7525 H 690.176 -5.01101 -5.71666 0
M  V30 7526 N 691.751 1.51645 -0.429126 0
M  V30 7527 C 692.999 2.01616 0.139802 0
M  V30 7528 C 693.32 1.31568 1.43927 0
M  V30 7529 O 692.59 0.447688 1.90716 0
M  V30 7530 H 691.17 0.744998 0.054654 0
M  V30 7531 H 693.832 1.8638 -0.569952 0
M  V30 7532 H 692.928 3.10439 0.321609 0
M  V30 7533 N 693.229 0.160201 1.56784 0
M  V30 7534 C 694.469 -0.490179 1.98435 0
M  V30 7535 C 694.833 -1.61164 1.04355 0
M  V30 7536 O 696.034 -2.3238 1.35103 0
M  V30 7537 C 694.305 -0.971106 3.43954 0
M  V30 7538 S 695.864 -1.62423 4.07632 0
M  V30 7539 H 692.682 -0.158056 0.693209 0
M  V30 7540 H 695.284 0.255036 1.93829 0
M  V30 7541 H 693.988 -0.144323 4.10146 0
M  V30 7542 H 693.519 -1.75063 3.52302 0
M  V30 7543 H 695.534 -2.91199 4.01768 0
M  V30 7544 O 694.746 -1.61485 0.0219998 0
M  V30 7545 H 695.437 -1.84445 -0.591595 0
M  V30 END ATOM
M  V30 BEGIN BOND
M  V30 END BOND
M  V30 END CTAB
M  END
$$$$
