drugbank_target|P41240 Tyrosine-protein kinase CSK (DB01254; DB02010; DB05075; DB12010)
 OpenBabel12092119523D

  0  0  0     0  0            999 V3000
M  V30 BEGIN CTAB
M  V30 COUNTS 7124 7204 0 0 0
M  V30 BEGIN ATOM
M  V30 1 H -0.908 1.98254 -0.117106 0
M  V30 2 N 0 1.576 0 0
M  V30 3 C 0.933 2.03868 1.02534 0
M  V30 4 C 1.911 0.928543 1.3348 0
M  V30 5 O 3.095 1.19667 1.45644 0
M  V30 6 C 0.222 2.43627 2.35294 0
M  V30 7 C -0.732 3.65373 2.2001 0
M  V30 8 S 0.101 5.13292 1.52614 0
M  V30 9 C 1.257 5.56322 2.86805 0
M  V30 10 H 1.49 2.90518 0.631377 0
M  V30 11 H -0.977 1.52953 0.210867 0
M  V30 12 H 0.981 2.67203 3.11629 0
M  V30 13 H -0.358 1.57376 2.7183 0
M  V30 14 H -1.165 3.90944 3.18086 0
M  V30 15 H -1.563 3.418 1.51819 0
M  V30 16 H 0.729 5.58782 3.83104 0
M  V30 17 H 1.672 6.56266 2.65933 0
M  V30 18 H 2.08 4.83886 2.90714 0
M  V30 19 N 1.4781 -0.272755 1.55222 0
M  V30 20 C 2.7031 -1.02683 1.80197 0
M  V30 21 C 3.1281 -1.79142 0.573551 0
M  V30 22 O 2.4861 -1.74917 -0.476849 0
M  V30 23 C 2.5341 -1.9609 3.02624 0
M  V30 24 O 1.6381 -3.04863 2.77727 0
M  V30 25 H 0.9791 -0.293557 0.595584 0
M  V30 26 H 3.5091 -0.30159 2.02365 0
M  V30 27 H 3.5191 -2.38039 3.31363 0
M  V30 28 H 2.1941 -1.39851 3.91682 0
M  V30 29 H 0.7711 -2.67228 2.60084 0
M  V30 30 N 2.9562 -1.48159 -0.537278 0
M  V30 31 C 3.9192 -1.61665 -1.62472 0
M  V30 32 C 4.9192 -0.490395 -1.5314 0
M  V30 33 O 6.1092 -0.755998 -1.5694 0
M  V30 34 C 3.2412 -1.57997 -3.02076 0
M  V30 35 H 4.4342 -2.58621 -1.51839 0
M  V30 36 H 1.9872 -1.36647 -0.758771 0
M  V30 37 H 2.7222 -0.624913 -3.18222 0
M  V30 38 H 2.5072 -2.39755 -3.10258 0
M  V30 39 H 3.9972 -1.70627 -3.81151 0
M  V30 40 N 4.4343 0.785586 -1.36625 0
M  V30 41 C 5.6833 1.53883 -1.30396 0
M  V30 42 C 5.9963 1.95271 0.113452 0
M  V30 43 O 7.2023 2.69858 0.298142 0
M  V30 44 C 5.6583 2.77808 -2.28802 0
M  V30 45 C 5.2663 2.43574 -3.75999 0
M  V30 46 C 7.0103 3.55783 -2.31558 0
M  V30 47 C 4.9173 3.63919 -4.66173 0
M  V30 48 H 3.8473 0.577678 -0.484566 0
M  V30 49 H 6.4983 0.861705 -1.62009 0
M  V30 50 H 4.8803 3.47339 -1.90188 0
M  V30 51 H 6.0543 1.81916 -4.23371 0
M  V30 52 H 4.3693 1.78803 -3.76056 0
M  V30 53 H 6.9663 4.45205 -2.96137 0
M  V30 54 H 7.3093 3.94644 -1.3252 0
M  V30 55 H 7.8423 2.93235 -2.68809 0
M  V30 56 H 4.5813 3.3015 -5.66287 0
M  V30 57 H 4.1013 4.2473 -4.23515 0
M  V30 58 H 5.7803 4.30901 -4.82632 0
M  V30 59 N 5.9124 1.20967 1.01018 0
M  V30 60 C 6.8444 0.922059 2.09835 0
M  V30 61 C 7.8574 -0.0927106 1.62536 0
M  V30 62 O 9.0464 0.139127 1.77957 0
M  V30 63 C 6.1464 0.362004 3.36961 0
M  V30 64 C 5.3194 1.42986 4.13369 0
M  V30 65 C 4.3784 0.879976 5.1879 0
M  V30 66 O 3.4044 1.56219 5.47343 0
M  V30 67 N 4.6064 -0.307396 5.79686 0
M  V30 68 H 7.3714 1.8588 2.35093 0
M  V30 69 H 4.9324 1.11422 1.1746 0
M  V30 70 H 6.9244 -0.0201474 4.04695 0
M  V30 71 H 5.4944 -0.479437 3.08902 0
M  V30 72 H 4.7144 1.98608 3.40512 0
M  V30 73 H 6.0024 2.14885 4.61196 0
M  V30 74 H 5.4004 -0.878796 5.58832 0
M  V30 75 H 3.9574 -0.631115 6.48737 0
M  V30 76 N 7.3905 -1.2043 1.01659 0
M  V30 77 C 8.3535 -2.21433 0.591616 0
M  V30 78 C 9.3535 -1.57203 -0.338226 0
M  V30 79 O 10.5435 -1.73737 -0.126918 0
M  V30 80 C 7.6755 -3.40628 -0.136058 0
M  V30 81 H 8.8685 -2.60545 1.48514 0
M  V30 82 H 6.4215 -1.33893 0.806379 0
M  V30 83 H 7.1565 -3.07019 -1.04449 0
M  V30 84 H 6.9415 -3.88475 0.531917 0
M  V30 85 H 8.4315 -4.15475 -0.420735 0
M  V30 86 N 8.8686 -0.792821 -1.36206 0
M  V30 87 C 9.8316 -0.199459 -2.2833 0
M  V30 88 C 10.8316 0.605189 -1.48977 0
M  V30 89 O 12.0216 0.425685 -1.68919 0
M  V30 90 C 9.1536 0.723523 -3.33134 0
M  V30 91 H 10.3466 -1.01181 -2.82316 0
M  V30 92 H 7.8996 -0.562485 -1.45828 0
M  V30 93 H 8.6346 1.56008 -2.84309 0
M  V30 94 H 8.4196 0.148436 -3.91819 0
M  V30 95 H 9.9096 1.13344 -4.01924 0
M  V30 96 N 10.3467 1.47872 -0.545128 0
M  V30 97 C 11.5927 2.03385 -0.0247951 0
M  V30 98 C 11.9477 1.41325 1.30556 0
M  V30 99 O 11.2407 0.5552 1.8338 0
M  V30 100 C 11.4347 3.57131 0.13867 0
M  V30 101 C 11.2637 4.34097 -1.17429 0
M  V30 102 C 10.0337 4.74458 -1.73831 0
M  V30 103 C 12.2317 4.6998 -2.08861 0
M  V30 104 N 10.2137 5.3602 -2.99258 0
M  V30 105 C 11.5847 5.31719 -3.18866 0
M  V30 106 C 13.6397 4.5191 -2.09003 0
M  V30 107 C 12.3427 5.77295 -4.29096 0
M  V30 108 C 14.3687 4.98477 -3.18237 0
M  V30 109 C 13.7307 5.60253 -4.26961 0
M  V30 110 H 9.8297 0.780339 -0.050943 0
M  V30 111 H 12.4137 1.80507 -0.729753 0
M  V30 112 H 10.5847 3.79802 0.812733 0
M  V30 113 H 12.3167 3.99282 0.659976 0
M  V30 114 H 9.0717 4.56037 -1.2778 0
M  V30 115 H 9.4957 5.71355 -3.63157 0
M  V30 116 H 14.1377 4.03516 -1.26234 0
M  V30 117 H 11.8557 6.24687 -5.12633 0
M  V30 118 H 15.4417 4.86274 -3.1942 0
M  V30 119 H 14.3217 5.95631 -5.10091 0
M  V30 120 N 11.8248 0.280983 1.55075 0
M  V30 121 C 13.2358 -0.215629 1.85451 0
M  V30 122 C 13.5868 -1.54991 1.203 0
M  V30 123 O 12.7118 -2.10699 0.493435 0
M  V30 124 C 13.3068 -0.398026 3.36454 0
M  V30 125 C 11.8658 -0.838866 3.66933 0
M  V30 126 C 11.0128 0.064458 2.77225 0
M  V30 127 H 13.9638 0.502601 1.50531 0
M  V30 128 H 13.9848 -1.23569 3.59876 0
M  V30 129 H 13.4968 0.573241 3.83843 0
M  V30 130 H 11.5978 -1.8214 3.25048 0
M  V30 131 H 11.7108 -0.672123 4.74362 0
M  V30 132 H 10.0748 -0.452863 2.50642 0
M  V30 133 H 10.8578 1.03172 3.2743 0
M  V30 134 N 13.3029 -1.57598 0.00835791 0
M  V30 135 C 14.5279 -1.95617 -0.689103 0
M  V30 136 C 14.9529 -0.883753 -1.66046 0
M  V30 137 O 14.3109 0.157352 -1.80616 0
M  V30 138 C 14.3589 -3.32736 -1.38994 0
M  V30 139 O 13.4629 -3.27631 -2.50463 0
M  V30 140 H 12.8039 -0.638379 -0.182668 0
M  V30 141 H 15.3339 -2.045 0.064036 0
M  V30 142 H 15.3439 -3.68494 -1.75147 0
M  V30 143 H 14.0189 -4.1034 -0.677778 0
M  V30 144 H 12.5959 -3.03561 -2.16576 0
M  V30 145 N 14.781 0.264519 -1.55364 0
M  V30 146 C 16.029 0.993021 -1.76021 0
M  V30 147 C 16.35 1.86511 -0.569099 0
M  V30 148 O 15.62 1.91438 0.415735 0
M  V30 149 H 14.2 0.369639 -0.649135 0
M  V30 150 H 16.862 0.286707 -1.9278 0
M  V30 151 H 15.958 1.62502 -2.66457 0
M  V30 152 N 16.2591 1.48442 0.529413 0
M  V30 153 C 17.4871 1.60151 1.30994 0
M  V30 154 C 17.9021 0.261985 1.86973 0
M  V30 155 O 17.2591 -0.748805 1.66431 0
M  V30 156 C 17.3101 2.64854 2.46038 0
M  V30 157 O 17.0311 3.93608 1.92365 0
M  V30 158 C 18.5321 2.87007 3.37849 0
M  V30 159 H 15.7521 0.539971 0.398338 0
M  V30 160 H 18.2961 1.94273 0.638597 0
M  V30 161 H 16.4511 2.33589 3.09055 0
M  V30 162 H 16.8651 4.51055 2.67675 0
M  V30 163 H 18.3391 3.64068 4.14919 0
M  V30 164 H 18.8161 1.95852 3.93114 0
M  V30 165 H 19.4221 3.19579 2.80623 0
M  V30 166 N 17.7372 -0.778329 1.37039 0
M  V30 167 C 18.6472 -1.92253 1.34446 0
M  V30 168 C 19.6632 -1.72267 0.244991 0
M  V30 169 O 20.8392 -1.95615 0.479258 0
M  V30 170 C 17.9042 -3.27282 1.144 0
M  V30 171 C 16.9652 -3.59969 2.33925 0
M  V30 172 C 16.1982 -4.88555 2.14825 0
M  V30 173 O 16.4212 -5.59113 1.12912 0
M  V30 174 O 15.3552 -5.20153 3.02861 0
M  V30 175 H 19.1812 -1.97392 2.30803 0
M  V30 176 H 16.7662 -0.920154 1.17701 0
M  V30 177 H 18.6482 -4.08062 1.05182 0
M  V30 178 H 17.3232 -3.23011 0.211124 0
M  V30 179 H 16.2302 -2.7945 2.48714 0
M  V30 180 H 17.5632 -3.68976 3.25757 0
M  V30 181 N 19.2153 -1.21501 -1.00376 0
M  V30 182 C 20.4553 -1.04444 -1.75701 0
M  V30 183 C 20.8193 0.414644 -1.87469 0
M  V30 184 O 22.0203 0.705763 -2.59369 0
M  V30 185 C 20.2913 -1.72389 -3.13077 0
M  V30 186 S 21.8503 -1.70604 -4.04277 0
M  V30 187 H 18.6683 -0.374249 -0.604532 0
M  V30 188 H 21.2703 -1.54267 -1.20091 0
M  V30 189 H 19.9743 -2.77734 -3.02146 0
M  V30 190 H 19.5053 -1.22751 -3.73759 0
M  V30 191 H 21.5203 -0.748012 -4.9053 0
M  V30 192 N 20.6934 1.19889 -1.02296 0
M  V30 193 C 21.9424 1.88743 -0.711257 0
M  V30 194 C 22.2554 1.80112 0.762817 0
M  V30 195 O 23.4614 2.44161 1.18733 0
M  V30 196 C 21.9174 3.38525 -1.22185 0
M  V30 197 C 21.5254 3.55727 -2.72328 0
M  V30 198 C 23.2694 4.12893 -0.985864 0
M  V30 199 C 21.1764 4.99369 -3.16835 0
M  V30 200 H 20.1064 0.706885 -0.262353 0
M  V30 201 H 22.7574 1.35586 -1.23648 0
M  V30 202 H 21.1394 3.91044 -0.624571 0
M  V30 203 H 22.3134 3.13564 -3.3766 0
M  V30 204 H 20.6284 2.94739 -2.9414 0
M  V30 205 H 23.2254 5.18813 -1.29374 0
M  V30 206 H 23.5684 4.16228 0.0775055 0
M  V30 207 H 24.1014 3.66494 -1.54684 0
M  V30 208 H 20.8404 5.01193 -4.22476 0
M  V30 209 H 20.3604 5.42317 -2.56228 0
M  V30 210 H 22.0394 5.67988 -3.09837 0
M  V30 211 N 22.1715 0.800033 1.35784 0
M  V30 212 C 23.1345 0.211565 2.28221 0
M  V30 213 C 24.1345 -0.59728 1.49296 0
M  V30 214 O 25.3245 -0.416721 1.69142 0
M  V30 215 C 22.4565 -0.705846 3.33513 0
M  V30 216 H 23.6495 1.02677 2.81776 0
M  V30 217 H 21.2025 0.570211 1.45528 0
M  V30 218 H 21.9375 -1.54498 2.85133 0
M  V30 219 H 21.7225 -0.127655 3.91892 0
M  V30 220 H 23.2125 -1.11211 4.02519 0
M  V30 221 N 23.6496 -1.47581 0.552962 0
M  V30 222 C 24.5966 -2.29957 -0.197108 0
M  V30 223 C 25.5666 -1.38799 -0.912359 0
M  V30 224 O 26.7516 -1.67761 -0.908888 0
M  V30 225 C 23.8916 -3.22672 -1.22379 0
M  V30 226 C 23.0046 -4.28919 -0.515038 0
M  V30 227 C 22.1396 -5.0879 -1.52664 0
M  V30 228 C 21.1786 -6.06815 -0.802631 0
M  V30 229 N 20.3156 -6.7966 -1.76086 0
M  V30 230 H 25.1556 -2.93578 0.511486 0
M  V30 231 H 22.6926 -1.4471 0.264067 0
M  V30 232 H 24.6506 -3.74845 -1.83159 0
M  V30 233 H 23.2806 -2.60925 -1.90047 0
M  V30 234 H 22.3326 -3.79835 0.207192 0
M  V30 235 H 23.6446 -4.98773 0.0523425 0
M  V30 236 H 22.7986 -5.65091 -2.20809 0
M  V30 237 H 21.5376 -4.38828 -2.12794 0
M  V30 238 H 20.5426 -5.49695 -0.107238 0
M  V30 239 H 21.7676 -6.78784 -0.207135 0
M  V30 240 H 19.7136 -6.12432 -2.35081 0
M  V30 241 H 19.6306 -7.45669 -1.24552 0
M  V30 242 H 20.8986 -7.40538 -2.43359 0
M  V30 243 N 25.1277 -0.289203 -1.54924 0
M  V30 244 C 26.3577 0.325989 -2.04012 0
M  V30 245 C 26.7657 1.48961 -1.1665 0
M  V30 246 O 26.1087 1.82794 -0.1822 0
M  V30 247 C 26.1707 0.856112 -3.49158 0
M  V30 248 C 25.8347 -0.180697 -4.56643 0
M  V30 249 C 26.8317 -1.0051 -5.10092 0
M  V30 250 C 24.5167 -0.318998 -5.01286 0
M  V30 251 C 26.5107 -1.95385 -6.06715 0
M  V30 252 C 24.1977 -1.27121 -5.97732 0
M  V30 253 C 25.1957 -2.08713 -6.50329 0
M  V30 254 O 24.8837 -3.02322 -7.44887 0
M  V30 255 H 24.6157 0.0765276 -0.671654 0
M  V30 256 H 27.1697 -0.423254 -2.00992 0
M  V30 257 H 25.3997 1.65567 -3.49463 0
M  V30 258 H 27.0887 1.38591 -3.81507 0
M  V30 259 H 27.8547 -0.90906 -4.76404 0
M  V30 260 H 23.7337 0.306108 -4.59983 0
M  V30 261 H 27.2777 -2.59111 -6.47694 0
M  V30 262 H 23.1747 -1.36801 -6.30837 0
M  V30 263 H 23.9427 -2.97165 -7.6265 0
M  V30 264 N 26.6058 1.57591 -0.0167156 0
M  V30 265 C 27.5538 2.10604 0.987353 0
M  V30 266 C 28.5478 1.02977 1.34507 0
M  V30 267 O 29.7538 1.21425 1.32875 0
M  V30 268 H 26.1288 0.672695 0.336134 0
M  V30 269 H 28.0998 2.93925 0.514817 0
M  V30 270 C 26.8488 2.6382 2.26483 0
M  V30 271 H 26.1718 3.46278 1.99829 0
M  V30 272 H 27.6118 3.04573 2.94977 0
M  V30 273 C 26.0708 1.55992 2.9861 0
M  V30 274 O 26.6008 0.952521 3.90243 0
M  V30 275 N 24.8068 1.28335 2.60727 0
M  V30 276 H 24.3538 1.77914 1.86291 0
M  V30 277 H 24.3118 0.564115 3.09298 0
M  V30 278 N 28.0839 -0.256276 1.55502 0
M  V30 279 C 29.3309 -0.985619 1.76895 0
M  V30 280 C 29.6589 -1.85671 0.579355 0
M  V30 281 O 28.9139 -1.90744 -0.437651 0
M  V30 282 C 29.2129 -1.88432 3.03691 0
M  V30 283 C 28.8789 -1.16936 4.35473 0
M  V30 284 C 27.5409 -0.97173 4.71286 0
M  V30 285 C 29.8929 -0.661889 5.1698 0
M  V30 286 C 27.2209 -0.254179 5.86149 0
M  V30 287 C 29.5729 0.042149 6.32586 0
M  V30 288 C 28.2369 0.25134 6.67027 0
M  V30 289 H 27.5069 -0.360663 0.647304 0
M  V30 290 H 30.1539 -0.256483 1.89775 0
M  V30 291 H 28.4589 -2.68021 2.85783 0
M  V30 292 H 30.1559 -2.45015 3.1744 0
M  V30 293 H 26.7459 -1.33332 4.07333 0
M  V30 294 H 30.9299 -0.802145 4.89775 0
M  V30 295 H 26.1859 -0.0815408 6.11346 0
M  V30 296 H 30.3599 0.443049 6.94989 0
M  V30 297 H 27.9869 0.809314 7.5588 0
M  V30 298 N 29.562 -1.4872 -0.521534 0
M  V30 299 C 30.512 -1.60269 -1.62166 0
M  V30 300 C 31.496 -0.45935 -1.54204 0
M  V30 301 O 32.688 -0.711241 -1.62081 0
M  V30 302 C 29.817 -1.65344 -3.00859 0
M  V30 303 C 28.903 -2.85187 -3.13894 0
M  V30 304 N 29.294 -4.09509 -2.96877 0
M  V30 305 C 27.592 -2.82695 -3.44963 0
M  V30 306 C 28.293 -4.89959 -3.13552 0
M  V30 307 N 27.269 -4.22934 -3.41508 0
M  V30 308 H 31.071 -2.5413 -1.47632 0
M  V30 309 H 28.585 -1.45209 -0.727194 0
M  V30 310 H 30.582 -1.71713 -3.79895 0
M  V30 311 H 29.242 -0.726058 -3.16478 0
M  V30 312 H 30.253 -4.39814 -2.73467 0
M  V30 313 H 26.93 -1.99249 -3.66887 0
M  V30 314 H 28.32 -5.98654 -3.05061 0
M  V30 315 N 31.0401 0.771051 -1.3745 0
M  V30 316 C 32.2881 1.52661 -1.32435 0
M  V30 317 C 32.6091 1.9479 0.0905024 0
M  V30 318 O 31.8791 1.66348 1.03466 0
M  V30 319 H 30.4591 0.566218 -0.487244 0
M  V30 320 H 33.1211 0.917636 -1.71946 0
M  V30 321 H 32.2171 2.42568 -1.96385 0
M  V30 322 N 32.5182 1.22032 0.997298 0
M  V30 323 C 33.7462 1.06841 1.7718 0
M  V30 324 C 34.1612 -0.381325 1.84909 0
M  V30 325 O 33.5182 -1.26437 1.31605 0
M  V30 326 C 33.5692 1.66814 3.20711 0
M  V30 327 O 33.2902 3.06116 3.13408 0
M  V30 328 C 34.7912 1.56838 4.14628 0
M  V30 329 H 32.0112 0.374782 0.556578 0
M  V30 330 H 34.5552 1.61532 1.2541 0
M  V30 331 H 32.7102 1.16196 3.69564 0
M  V30 332 H 33.1242 3.34926 4.0364 0
M  V30 333 H 34.5982 2.03532 5.13107 0
M  V30 334 H 35.0752 0.524155 4.36061 0
M  V30 335 H 35.6812 2.06741 3.7167 0
M  V30 336 N 33.9963 -1.19345 1.0293 0
M  V30 337 C 34.9593 -2.20793 0.615069 0
M  V30 338 C 35.9593 -1.57553 -0.321533 0
M  V30 339 O 37.1493 -1.73862 -0.108483 0
M  V30 340 C 34.2813 -3.40754 -0.0999222 0
M  V30 341 H 35.4743 -2.58955 1.51269 0
M  V30 342 H 33.0273 -1.3303 0.820534 0
M  V30 343 H 33.7623 -3.0811 -1.01187 0
M  V30 344 H 33.5473 -3.87889 0.57309 0
M  V30 345 H 35.0373 -4.15898 -0.376645 0
M  V30 346 N 35.4744 -0.807222 -1.35358 0
M  V30 347 C 36.3844 -0.219594 -2.3357 0
M  V30 348 C 37.4004 0.637734 -1.61892 0
M  V30 349 O 38.5764 0.549336 -1.93763 0
M  V30 350 C 35.6414 0.62158 -3.41083 0
M  V30 351 C 34.7024 -0.256315 -4.28534 0
M  V30 352 C 33.9354 0.544807 -5.30912 0
M  V30 353 O 34.1584 1.77944 -5.41934 0
M  V30 354 O 33.0924 -0.0646478 -6.01865 0
M  V30 355 H 36.9184 -1.03208 -2.85625 0
M  V30 356 H 34.5034 -0.569025 -1.38139 0
M  V30 357 H 36.3854 1.10067 -4.06772 0
M  V30 358 H 35.0604 1.41165 -2.91297 0
M  V30 359 H 33.9674 -0.782559 -3.65823 0
M  V30 360 H 35.3004 -1.01034 -4.81719 0
M  V30 361 N 36.9525 1.47285 -0.560781 0
M  V30 362 C 37.8845 2.28118 0.222438 0
M  V30 363 C 38.8975 1.37219 0.876056 0
M  V30 364 O 40.0865 1.62011 0.749307 0
M  V30 365 C 37.1865 3.1159 1.33285 0
M  V30 366 C 36.3595 4.30473 0.77534 0
M  V30 367 C 35.4185 4.95513 1.77069 0
M  V30 368 O 34.4445 5.53792 1.31539 0
M  V30 369 N 35.6465 4.90531 3.10418 0
M  V30 370 H 38.4115 2.95976 -0.470958 0
M  V30 371 H 35.9725 1.56955 -0.39709 0
M  V30 372 H 37.9645 3.51967 1.99752 0
M  V30 373 H 36.5345 2.45951 1.92943 0
M  V30 374 H 35.7545 3.94144 -0.0662113 0
M  V30 375 H 37.0425 5.07362 0.382272 0
M  V30 376 H 36.4405 4.44389 3.5005 0
M  V30 377 H 34.9975 5.34917 3.72434 0
M  V30 378 N 38.4306 0.297415 1.54768 0
M  V30 379 C 39.7076 -0.365847 1.92148 0
M  V30 380 C 40.0876 -1.71975 1.22424 0
M  V30 381 O 39.4356 -2.25666 0.358739 0
M  V30 382 C 39.6456 -0.484056 3.45627 0
M  V30 383 C 40.9936 -0.756594 4.17805 0
M  V30 384 O 42.0176 -0.568007 3.51642 0
M  V30 385 O 40.8766 -1.11863 5.34929 0
M  V30 386 H 37.9706 -0.203919 0.801465 0
M  V30 387 H 40.5166 0.34521 1.66152 0
M  V30 388 H 39.2886 0.467865 3.88493 0
M  V30 389 H 38.9116 -1.24372 3.77647 0
M  V30 390 N 39.9087 -1.5758 0.0250728 0
M  V30 391 C 40.8387 -2.13007 -0.956575 0
M  V30 392 C 41.8197 -1.0452 -1.342 0
M  V30 393 O 43.0047 -1.32332 -1.42133 0
M  V30 394 C 40.1347 -2.65386 -2.24026 0
M  V30 395 C 39.0887 -3.78623 -1.99571 0
M  V30 396 C 38.4147 -4.17414 -3.3417 0
M  V30 397 C 39.7147 -5.04867 -1.33814 0
M  V30 398 H 41.4087 -2.9528 -0.494991 0
M  V30 399 H 38.9547 -1.42042 -0.236651 0
M  V30 400 H 40.9077 -3.02794 -2.93076 0
M  V30 401 H 39.6317 -1.80268 -2.72343 0
M  V30 402 H 38.2907 -3.41646 -1.32941 0
M  V30 403 H 37.9387 -3.29284 -3.80238 0
M  V30 404 H 37.6387 -4.93719 -3.18615 0
M  V30 405 H 39.1627 -4.57402 -4.04495 0
M  V30 406 H 40.5767 -5.39888 -1.92857 0
M  V30 407 H 38.9737 -5.86144 -1.28669 0
M  V30 408 H 40.0437 -4.83904 -0.310561 0
M  V30 409 N 41.3868 0.248026 -1.55636 0
M  V30 410 C 42.7978 0.817177 -1.67866 0
M  V30 411 C 43.1488 1.86069 -0.622322 0
M  V30 412 O 42.2738 2.15157 0.231618 0
M  V30 413 C 42.8688 1.489 -3.04326 0
M  V30 414 C 41.4278 2.00587 -3.185 0
M  V30 415 C 40.5748 0.856573 -2.63739 0
M  V30 416 H 43.5258 0.0238579 -1.58682 0
M  V30 417 H 43.5468 2.35698 -2.98708 0
M  V30 418 H 43.0588 0.729279 -3.81186 0
M  V30 419 H 41.1598 2.79443 -2.4646 0
M  V30 420 H 41.2728 2.20402 -4.25393 0
M  V30 421 H 39.6368 1.25678 -2.21534 0
M  V30 422 H 40.4198 0.109953 -3.43124 0
M  V30 423 N 42.8649 1.48995 0.513639 0
M  V30 424 C 44.1119 1.57843 1.26854 0
M  V30 425 C 44.4399 0.259501 1.92761 0
M  V30 426 O 43.6949 -0.75159 1.80692 0
M  V30 427 C 43.9939 2.67756 2.36731 0
M  V30 428 C 43.6599 4.09669 1.88368 0
M  V30 429 C 42.3219 4.48291 1.74896 0
M  V30 430 C 44.6739 4.98537 1.52021 0
M  V30 431 C 42.0019 5.73568 1.23438 0
M  V30 432 C 44.3539 6.24319 1.0202 0
M  V30 433 C 43.0179 6.61783 0.871778 0
M  V30 434 H 42.2879 0.577587 0.464192 0
M  V30 435 H 44.9349 1.82778 0.571366 0
M  V30 436 H 43.2399 2.36743 3.12185 0
M  V30 437 H 44.9369 2.71813 2.9482 0
M  V30 438 H 41.5269 3.79176 1.99808 0
M  V30 439 H 45.7109 4.69363 1.61281 0
M  V30 440 H 40.9669 6.01304 1.10648 0
M  V30 441 H 45.1409 6.92566 0.729722 0
M  V30 442 H 42.7679 7.5874 0.470852 0
M  V30 443 N 44.343 -0.763751 1.37857 0
M  V30 444 C 45.583 -1.53551 1.34913 0
M  V30 445 C 45.947 -1.91895 -0.0635882 0
M  V30 446 O 47.148 -2.67916 -0.217825 0
M  V30 447 C 45.419 -2.76126 2.26912 0
M  V30 448 S 46.978 -3.66105 2.41893 0
M  V30 449 H 43.796 -0.52559 0.478828 0
M  V30 450 H 46.398 -0.897435 1.73685 0
M  V30 451 H 45.102 -2.4605 3.28463 0
M  V30 452 H 44.633 -3.44887 1.89253 0
M  V30 453 H 46.648 -4.68473 1.63545 0
M  V30 454 N 45.8211 -1.22559 -0.990812 0
M  V30 455 C 46.7681 -0.997519 -2.0813 0
M  V30 456 C 47.7381 0.0814702 -1.659 0
M  V30 457 O 48.9231 -0.0685424 -1.90677 0
M  V30 458 C 46.0631 -0.583615 -3.40129 0
M  V30 459 C 45.1761 -1.7336 -3.9569 0
M  V30 460 C 44.3111 -1.26748 -5.15857 0
M  V30 461 C 43.3501 -2.38888 -5.63559 0
M  V30 462 N 42.4871 -1.93308 -6.74964 0
M  V30 463 H 47.3271 -1.93099 -2.26973 0
M  V30 464 H 44.8641 -0.962114 -1.11273 0
M  V30 465 H 46.8221 -0.324801 -4.15934 0
M  V30 466 H 45.4521 0.312845 -3.2128 0
M  V30 467 H 44.5041 -2.10669 -3.16738 0
M  V30 468 H 45.8161 -2.57704 -4.27071 0
M  V30 469 H 44.9701 -0.966173 -5.98957 0
M  V30 470 H 43.7091 -0.394272 -4.86104 0
M  V30 471 H 42.7141 -2.69805 -4.79046 0
M  V30 472 H 43.9391 -3.26728 -5.95336 0
M  V30 473 H 41.8851 -1.08352 -6.4699 0
M  V30 474 H 41.8021 -2.71217 -7.05675 0
M  V30 475 H 43.0701 -1.66252 -7.61564 0
M  V30 476 N 47.2992 1.18797 -1.03562 0
M  V30 477 C 48.5472 1.88278 -0.734569 0
M  V30 478 C 48.8682 1.8043 0.739586 0
M  V30 479 O 48.1382 1.21925 1.53333 0
M  V30 480 H 46.7182 0.696991 -0.268725 0
M  V30 481 H 49.3802 1.44192 -1.31129 0
M  V30 482 H 48.4762 2.94443 -1.03489 0
M  V30 483 N 48.7773 0.814389 1.34928 0
M  V30 484 C 50.0543 0.321363 1.92942 0
M  V30 485 C 50.4343 -1.19014 1.74353 0
M  V30 486 O 49.7823 -1.99328 1.11716 0
M  V30 487 C 49.9923 0.741323 3.41036 0
M  V30 488 C 51.3403 0.735266 4.18185 0
M  V30 489 O 52.3643 0.68336 3.49584 0
M  V30 490 O 51.2233 0.800703 5.40602 0
M  V30 491 H 48.3173 0.0858893 0.822528 0
M  V30 492 H 50.8633 0.898609 1.43955 0
M  V30 493 H 49.6353 1.78276 3.4833 0
M  V30 494 H 49.2583 0.139307 3.97356 0
M  V30 495 N 50.2554 -1.46986 0.568584 0
M  V30 496 C 51.5014 -2.02741 0.0488709 0
M  V30 497 C 51.8344 -1.44077 -1.30214 0
M  V30 498 O 51.1094 -0.600552 -1.84996 0
M  V30 499 C 51.3924 -3.60086 -0.032047 0
M  V30 500 C 51.2454 -4.29162 1.34686 0
M  V30 501 C 52.5644 -4.33838 -0.739798 0
M  V30 502 H 49.6834 -0.736749 0.0192338 0
M  V30 503 H 52.3254 -1.75289 0.733065 0
M  V30 504 H 50.4754 -3.83606 -0.61473 0
M  V30 505 H 52.1474 -4.16948 1.97362 0
M  V30 506 H 50.3904 -3.89073 1.91846 0
M  V30 507 H 51.0614 -5.37826 1.24285 0
M  V30 508 H 53.5374 -4.15378 -0.244939 0
M  V30 509 H 52.4134 -5.43537 -0.765406 0
M  V30 510 H 52.6744 -4.03875 -1.79827 0
M  V30 511 N 51.7335 -0.305618 -1.54608 0
M  V30 512 C 52.6635 0.561482 -2.26649 0
M  V30 513 C 53.6445 1.13415 -1.26772 0
M  V30 514 O 54.8295 1.16262 -1.55553 0
M  V30 515 C 51.9595 1.73122 -3.01075 0
M  V30 516 C 50.9135 1.2887 -4.08138 0
M  V30 517 C 50.2395 2.54396 -4.70305 0
M  V30 518 C 51.5395 0.416578 -5.20636 0
M  V30 519 H 53.2335 -0.0393902 -2.99374 0
M  V30 520 H 50.7795 -0.020385 -1.43986 0
M  V30 521 H 52.7325 2.34396 -3.50195 0
M  V30 522 H 51.4565 2.3584 -2.25936 0
M  V30 523 H 50.1155 0.698991 -3.59875 0
M  V30 524 H 49.7635 3.15439 -3.918 0
M  V30 525 H 49.4635 2.25486 -5.42614 0
M  V30 526 H 50.9875 3.16464 -5.2219 0
M  V30 527 H 52.4015 0.935116 -5.65622 0
M  V30 528 H 50.7985 0.221046 -5.99693 0
M  V30 529 H 51.8685 -0.557162 -4.81688 0
M  V30 530 N 53.2116 1.57565 -0.0334293 0
M  V30 531 C 54.4396 1.9628 0.654347 0
M  V30 532 C 54.8546 0.910138 1.65414 0
M  V30 533 O 54.2116 -0.107595 1.82183 0
M  V30 534 C 54.2626 3.35067 1.35693 0
M  V30 535 O 53.9836 4.36296 0.397191 0
M  V30 536 C 55.4846 3.88439 2.13613 0
M  V30 537 H 52.7046 0.646369 0.180132 0
M  V30 538 H 55.2486 2.04282 -0.0944721 0
M  V30 539 H 53.4036 3.2827 2.05712 0
M  V30 540 H 53.8176 5.1678 0.896597 0
M  V30 541 H 55.2916 4.8788 2.58219 0
M  V30 542 H 55.7686 3.22914 2.97696 0
M  V30 543 H 56.3746 3.98516 1.48543 0
M  V30 544 N 54.6897 -0.239769 1.55765 0
M  V30 545 C 55.9387 -0.964754 1.77131 0
M  V30 546 C 56.2517 -1.86213 0.59868 0
M  V30 547 O 57.4577 -2.6244 0.695522 0
M  V30 548 C 55.9137 -1.76552 3.1362 0
M  V30 549 C 55.5217 -0.915185 4.38553 0
M  V30 550 C 57.2657 -2.48281 3.44321 0
M  V30 551 C 55.1727 -1.71225 5.66071 0
M  V30 552 H 54.1027 -0.363953 0.660344 0
M  V30 553 H 56.7537 -0.219181 1.82186 0
M  V30 554 H 55.1357 -2.55331 3.02691 0
M  V30 555 H 56.3097 -0.169217 4.60489 0
M  V30 556 H 54.6247 -0.310889 4.15238 0
M  V30 557 H 57.2217 -3.08382 4.36812 0
M  V30 558 H 57.5647 -3.20256 2.65973 0
M  V30 559 H 58.0977 -1.76507 3.56497 0
M  V30 560 H 54.8367 -1.03612 6.4726 0
M  V30 561 H 54.3567 -2.43331 5.48224 0
M  V30 562 H 56.0357 -2.27758 6.05587 0
M  V30 563 N 56.1678 -1.49265 -0.50573 0
M  V30 564 C 57.4138 -1.58748 -1.26202 0
M  V30 565 C 57.7468 -0.271227 -1.92297 0
M  V30 566 O 57.0218 0.724831 -1.80489 0
M  V30 567 C 57.3048 -2.74332 -2.33268 0
M  V30 568 C 57.1578 -4.15737 -1.71705 0
M  V30 569 C 58.4768 -2.85576 -3.34865 0
M  V30 570 H 55.5958 -0.577826 -0.457478 0
M  V30 571 H 58.2378 -1.81532 -0.560897 0
M  V30 572 H 56.3878 -2.55036 -2.93068 0
M  V30 573 H 58.0598 -4.46537 -1.15769 0
M  V30 574 H 56.3028 -4.21605 -1.02135 0
M  V30 575 H 56.9738 -4.92477 -2.49341 0
M  V30 576 H 59.4498 -3.03127 -2.8505 0
M  V30 577 H 58.3258 -3.68135 -4.07146 0
M  V30 578 H 58.5868 -1.94732 -3.96903 0
M  V30 579 N 57.6459 0.756429 -1.3826 0
M  V30 580 C 58.6089 1.85176 -1.35065 0
M  V30 581 C 59.6089 1.58818 -0.251703 0
M  V30 582 O 60.7989 1.66615 -0.508433 0
M  V30 583 C 57.9309 3.22596 -1.10201 0
M  V30 584 H 59.1239 1.89417 -2.3251 0
M  V30 585 H 56.6769 0.95783 -1.23512 0
M  V30 586 H 57.4119 3.24025 -0.133504 0
M  V30 587 H 57.1969 3.43122 -1.89762 0
M  V30 588 H 58.6869 4.02673 -1.10654 0
M  V30 589 N 59.124 1.23083 0.984299 0
M  V30 590 C 60.37 1.06214 1.72761 0
M  V30 591 C 60.703 -0.400584 1.90024 0
M  V30 592 O 59.978 -1.29672 1.44967 0
M  V30 593 C 60.261 1.78375 3.12817 0
M  V30 594 C 60.114 3.32296 3.03149 0
M  V30 595 C 61.433 1.54309 4.12161 0
M  V30 596 H 58.552 0.387251 0.627061 0
M  V30 597 H 61.194 1.51536 1.14616 0
M  V30 598 H 59.344 1.39848 3.62457 0
M  V30 599 H 61.016 3.8032 2.61064 0
M  V30 600 H 59.259 3.6153 2.39747 0
M  V30 601 H 59.93 3.77972 4.02295 0
M  V30 602 H 62.406 1.87791 3.71314 0
M  V30 603 H 61.282 2.07281 5.08258 0
M  V30 604 H 61.543 0.477572 4.39513 0
M  V30 605 N 60.6021 -1.18246 1.0419 0
M  V30 606 C 61.8301 -1.92195 0.766072 0
M  V30 607 C 62.2451 -1.76247 -0.676933 0
M  V30 608 O 61.6021 -1.09293 -1.46155 0
M  V30 609 C 61.6531 -3.43568 1.12442 0
M  V30 610 O 61.3741 -3.59015 2.51078 0
M  V30 611 C 62.8751 -4.34613 0.873275 0
M  V30 612 H 60.0951 -0.610114 0.279288 0
M  V30 613 H 62.6391 -1.50007 1.38989 0
M  V30 614 H 60.7941 -3.8354 0.545542 0
M  V30 615 H 61.2081 -4.5273 2.64831 0
M  V30 616 H 62.6821 -5.39374 1.17385 0
M  V30 617 H 63.1591 -4.38781 -0.191909 0
M  V30 618 H 63.7651 -4.00341 1.43551 0
M  V30 619 N 62.0802 -0.821533 -1.34494 0
M  V30 620 C 63.0272 -0.240397 -2.29545 0
M  V30 621 C 63.9972 0.634031 -1.53523 0
M  V30 622 O 65.1822 0.575966 -1.81899 0
M  V30 623 C 62.3222 0.592869 -3.39969 0
M  V30 624 C 61.4352 -0.30365 -4.30932 0
M  V30 625 C 60.5702 0.539049 -5.28458 0
M  V30 626 C 59.6092 -0.356942 -6.11058 0
M  V30 627 N 58.7462 0.446603 -7.00678 0
M  V30 628 H 63.5862 -1.05632 -2.7865 0
M  V30 629 H 61.1232 -0.532413 -1.37127 0
M  V30 630 H 63.0812 1.09129 -4.02675 0
M  V30 631 H 61.7112 1.37392 -2.92102 0
M  V30 632 H 60.7632 -0.920276 -3.691 0
M  V30 633 H 62.0752 -0.992661 -4.88823 0
M  V30 634 H 61.2292 1.102 -5.96608 0
M  V30 635 H 59.9682 1.26157 -4.71101 0
M  V30 636 H 58.9732 -0.932047 -5.41842 0
M  V30 637 H 60.1982 -1.07755 -6.70497 0
M  V30 638 H 58.1442 1.15282 -6.45791 0
M  V30 639 H 58.0612 -0.184048 -7.55776 0
M  V30 640 H 59.3292 0.992352 -7.73158 0
M  V30 641 N 63.5583 1.46682 -0.576371 0
M  V30 642 C 64.8353 1.95599 0.00703437 0
M  V30 643 C 65.2153 1.51904 1.46589 0
M  V30 644 O 64.5633 0.766755 2.15251 0
M  V30 645 C 64.7733 3.4864 -0.158404 0
M  V30 646 C 66.1213 4.24594 -0.0229439 0
M  V30 647 O 67.1453 3.56094 -0.0869173 0
M  V30 648 O 66.0043 5.46373 0.118015 0
M  V30 649 H 63.0983 0.825275 0.053384 0
M  V30 650 H 65.6443 1.56996 -0.644244 0
M  V30 651 H 64.4163 3.7331 -1.17282 0
M  V30 652 H 64.0393 3.94057 0.5296 0
M  V30 653 N 65.0364 0.313813 1.54444 0
M  V30 654 C 66.4474 -0.176243 1.85866 0
M  V30 655 C 66.7984 -1.52405 1.23561 0
M  V30 656 O 65.9234 -2.09605 0.538016 0
M  V30 657 C 66.5184 -0.32657 3.37222 0
M  V30 658 C 65.0774 -0.760846 3.6863 0
M  V30 659 C 64.2244 0.123247 2.77026 0
M  V30 660 H 67.1754 0.534418 1.49431 0
M  V30 661 H 67.1964 -1.15908 3.62416 0
M  V30 662 H 66.7084 0.654531 3.82541 0
M  V30 663 H 64.8094 -1.75204 3.28838 0
M  V30 664 H 64.9224 -0.571353 4.75681 0
M  V30 665 H 63.2864 -0.399597 2.51546 0
M  V30 666 H 64.0694 1.10094 3.25168 0
M  V30 667 N 66.5145 -1.57545 0.0417849 0
M  V30 668 C 67.4625 -2.12148 -0.953723 0
M  V30 669 C 68.4565 -1.05104 -1.32852 0
M  V30 670 O 69.6625 -1.23524 -1.30927 0
M  V30 671 H 66.0375 -0.677957 -0.325389 0
M  V30 672 H 68.0085 -2.94707 -0.467991 0
M  V30 673 C 66.7575 -2.6739 -2.22257 0
M  V30 674 H 66.0805 -3.49413 -1.94295 0
M  V30 675 H 67.5205 -3.09227 -2.90094 0
M  V30 676 C 65.9795 -1.60723 -2.96091 0
M  V30 677 O 66.5095 -1.01449 -3.88679 0
M  V30 678 N 64.7155 -1.32466 -2.58652 0
M  V30 679 H 64.2625 -1.80856 -1.83437 0
M  V30 680 H 64.2205 -0.61325 -3.08361 0
M  V30 681 N 67.9926 0.231505 -1.5589 0
M  V30 682 C 69.2386 0.954429 -1.79617 0
M  V30 683 C 69.5936 1.82367 -0.613199 0
M  V30 684 O 68.8866 1.87524 0.393094 0
M  V30 685 C 69.0806 1.83577 -3.0665 0
M  V30 686 C 68.9096 1.05334 -4.3719 0
M  V30 687 C 67.6796 0.75225 -4.99669 0
M  V30 688 C 69.8776 0.423444 -5.12554 0
M  V30 689 N 67.8596 -0.052627 -6.13877 0
M  V30 690 C 69.2306 -0.245287 -6.19515 0
M  V30 691 C 71.2856 0.335466 -4.96769 0
M  V30 692 C 69.9886 -0.993566 -7.12405 0
M  V30 693 C 72.0146 -0.399321 -5.9005 0
M  V30 694 C 71.3766 -1.05663 -6.9643 0
M  V30 695 H 67.4756 0.329846 -0.709031 0
M  V30 696 H 70.0596 0.226172 -1.93382 0
M  V30 697 H 68.2306 2.53592 -2.94186 0
M  V30 698 H 69.9626 2.49541 -3.18608 0
M  V30 699 H 66.7176 1.06783 -4.61405 0
M  V30 700 H 67.1416 -0.443609 -6.75545 0
M  V30 701 H 71.7836 0.829311 -4.14587 0
M  V30 702 H 69.5016 -1.49896 -7.94076 0
M  V30 703 H 73.0876 -0.468265 -5.79913 0
M  V30 704 H 71.9676 -1.61612 -7.67366 0
M  V30 705 N 69.4707 1.49531 0.497807 0
M  V30 706 C 70.7007 1.62657 1.27382 0
M  V30 707 C 71.1087 0.298488 1.86831 0
M  V30 708 O 70.4517 -0.72647 1.68725 0
M  V30 709 C 70.5137 2.6393 2.44093 0
M  V30 710 C 70.1777 4.08195 2.05489 0
M  V30 711 C 71.1747 4.949 1.59279 0
M  V30 712 C 68.8597 4.53948 2.15026 0
M  V30 713 C 70.8537 6.25397 1.23113 0
M  V30 714 C 68.5407 5.84458 1.78473 0
M  V30 715 C 69.5387 6.70006 1.32591 0
M  V30 716 O 69.2267 7.98083 0.965327 0
M  V30 717 H 68.9587 0.550429 0.392434 0
M  V30 718 H 71.5127 1.96325 0.603801 0
M  V30 719 H 69.7427 2.25449 3.14181 0
M  V30 720 H 71.4317 2.66552 3.06113 0
M  V30 721 H 72.1977 4.60779 1.51354 0
M  V30 722 H 68.0767 3.87525 2.4969 0
M  V30 723 H 71.6207 6.92125 0.872299 0
M  V30 724 H 67.5177 6.18107 1.86048 0
M  V30 725 H 68.2857 8.11122 1.09652 0
M  V30 726 N 70.9488 -0.749086 1.3866 0
M  V30 727 C 71.8958 -1.86291 1.36251 0
M  V30 728 C 72.8658 -1.64578 0.224347 0
M  V30 729 O 74.0508 -1.86181 0.417279 0
M  V30 730 C 71.1908 -3.23644 1.19786 0
M  V30 731 C 70.3038 -3.57158 2.43027 0
M  V30 732 C 69.4388 -4.83838 2.19258 0
M  V30 733 C 68.4778 -5.10152 3.38247 0
M  V30 734 N 67.6148 -6.28029 3.13884 0
M  V30 735 H 72.4548 -1.87685 2.3147 0
M  V30 736 H 69.9918 -0.917287 1.14997 0
M  V30 737 H 71.9498 -4.0291 1.08254 0
M  V30 738 H 70.5798 -3.21566 0.282031 0
M  V30 739 H 69.6318 -2.72701 2.65214 0
M  V30 740 H 70.9438 -3.7253 3.31697 0
M  V30 741 H 70.0978 -5.71057 2.04888 0
M  V30 742 H 68.8368 -4.70614 1.2796 0
M  V30 743 H 67.8418 -4.21401 3.53131 0
M  V30 744 H 69.0668 -5.25271 4.30427 0
M  V30 745 H 67.0128 -6.1612 2.25238 0
M  V30 746 H 66.9298 -6.43922 3.96106 0
M  V30 747 H 68.1978 -7.18124 3.03179 0
M  V30 748 N 72.4269 -1.23603 -0.977757 0
M  V30 749 C 73.3899 -1.02069 -2.05218 0
M  V30 750 C 74.3899 0.0184305 -1.60789 0
M  V30 751 O 75.5799 -0.221569 -1.72785 0
M  V30 752 C 72.7119 -0.544926 -3.36517 0
M  V30 753 H 73.9049 -1.9742 -2.25755 0
M  V30 754 H 71.4579 -1.05684 -1.15155 0
M  V30 755 H 72.1929 0.412241 -3.21669 0
M  V30 756 H 71.9779 -1.2948 -3.70105 0
M  V30 757 H 73.4679 -0.414985 -4.15533 0
M  V30 758 N 73.905 1.17692 -1.04816 0
M  V30 759 C 74.852 2.21581 -0.645797 0
M  V30 760 C 75.822 1.62367 0.350159 0
M  V30 761 O 77.007 1.89254 0.242433 0
M  V30 762 C 74.147 3.45092 -0.0227568 0
M  V30 763 C 73.26 4.18613 -1.06709 0
M  V30 764 C 72.395 5.29602 -0.411767 0
M  V30 765 C 71.434 5.94904 -1.44067 0
M  V30 766 N 70.571 6.97414 -0.809781 0
M  V30 767 H 75.411 2.55353 -1.5362 0
M  V30 768 H 72.948 1.25438 -0.768364 0
M  V30 769 H 74.906 4.15679 0.35588 0
M  V30 770 H 73.536 3.11917 0.831122 0
M  V30 771 H 72.588 3.46779 -1.5636 0
M  V30 772 H 73.9 4.63293 -1.84827 0
M  V30 773 H 73.054 6.06696 0.0206623 0
M  V30 774 H 71.793 4.86045 0.401438 0
M  V30 775 H 70.798 5.16544 -1.88316 0
M  V30 776 H 72.023 6.40542 -2.25571 0
M  V30 777 H 69.969 6.55998 -0.0170186 0
M  V30 778 H 69.886 7.40386 -1.52856 0
M  V30 779 H 71.154 7.78463 -0.401999 0
M  V30 780 N 75.3831 0.828654 1.34056 0
M  V30 781 C 76.3311 0.242973 2.31327 0
M  V30 782 C 77.3251 -0.61944 1.57668 0
M  V30 783 O 78.5311 -0.51014 1.7262 0
M  V30 784 H 74.9061 0.059834 0.749616 0
M  V30 785 H 76.8771 1.07809 2.78244 0
M  V30 786 C 75.6261 -0.575733 3.429 0
M  V30 787 H 74.9491 0.0785582 3.99723 0
M  V30 788 H 76.3891 -0.951547 4.13185 0
M  V30 789 C 74.8481 -1.75044 2.87856 0
M  V30 790 O 75.3781 -2.84882 2.83205 0
M  V30 791 N 73.5841 -1.56903 2.44602 0
M  V30 792 H 73.1311 -0.675547 2.48584 0
M  V30 793 H 73.0891 -2.35652 2.08124 0
M  V30 794 N 76.8612 -1.46375 0.584142 0
M  V30 795 C 77.8082 -2.30323 -0.148286 0
M  V30 796 C 78.7782 -1.40703 -0.882713 0
M  V30 797 O 79.9632 -1.69651 -0.873099 0
M  V30 798 C 77.1032 -3.25196 -1.15507 0
M  V30 799 C 76.2162 -4.29915 -0.423943 0
M  V30 800 C 75.3512 -5.11914 -1.41838 0
M  V30 801 C 74.3902 -6.08381 -0.673736 0
M  V30 802 N 73.5272 -6.83242 -1.6163 0
M  V30 803 H 78.3672 -2.92427 0.573644 0
M  V30 804 H 75.9042 -1.44118 0.294703 0
M  V30 805 H 77.8622 -3.78646 -1.75166 0
M  V30 806 H 76.4922 -2.64898 -1.8447 0
M  V30 807 H 75.5442 -3.7931 0.287714 0
M  V30 808 H 76.8562 -4.98549 0.158128 0
M  V30 809 H 76.0102 -5.69648 -2.08773 0
M  V30 810 H 74.7492 -4.43243 -2.03438 0
M  V30 811 H 73.7542 -5.49799 0.00938483 0
M  V30 812 H 74.9792 -6.79071 -0.0631082 0
M  V30 813 H 72.9252 -6.1728 -2.22038 0
M  V30 814 H 72.8422 -7.48144 -1.08707 0
M  V30 815 H 74.1102 -7.45534 -2.27596 0
M  V30 816 N 78.3393 -0.321999 -1.54275 0
M  V30 817 C 79.5853 0.281461 -2.00837 0
M  V30 818 C 79.9183 1.51909 -1.20985 0
M  V30 819 O 79.1933 1.923 -0.291733 0
M  V30 820 C 79.4763 0.617162 -3.54772 0
M  V30 821 C 79.3293 -0.631064 -4.45351 0
M  V30 822 C 80.6483 1.43542 -4.16033 0
M  V30 823 H 77.7673 0.100826 -0.730071 0
M  V30 824 H 80.4093 -0.438268 -1.84876 0
M  V30 825 H 78.5593 1.23034 -3.68504 0
M  V30 826 H 80.2313 -1.26934 -4.43492 0
M  V30 827 H 78.4743 -1.26025 -4.15091 0
M  V30 828 H 79.1453 -0.351735 -5.50878 0
M  V30 829 H 81.6213 0.917134 -4.05867 0
M  V30 830 H 80.4973 1.63907 -5.23856 0
M  V30 831 H 80.7583 2.43108 -3.69257 0
M  V30 832 N 79.8174 1.5752 -0.0501392 0
M  V30 833 C 81.0654 1.9227 0.622642 0
M  V30 834 C 81.3864 0.929083 1.71444 0
M  V30 835 O 80.6564 -0.0262186 1.95882 0
M  V30 836 H 79.2364 0.709739 0.232981 0
M  V30 837 H 81.8984 1.94628 -0.102898 0
M  V30 838 H 80.9944 2.93479 1.06191 0
M  V30 839 N 81.2955 -0.223234 1.56011 0
M  V30 840 C 82.7115 -0.572856 1.48965 0
M  V30 841 C 82.9115 -1.87225 0.74492 0
M  V30 842 O 81.9675 -2.50899 0.283896 0
M  V30 843 C 83.2805 -0.653646 2.9351 0
M  V30 844 C 84.8285 -0.744386 3.0402 0
M  V30 845 C 85.3035 -0.856535 4.49919 0
M  V30 846 N 86.7945 -0.9208 4.53955 0
M  V30 847 C 87.5295 -1.02726 5.64123 0
M  V30 848 N 87.0255 -1.09777 6.84047 0
M  V30 849 N 88.8185 -1.06226 5.51971 0
M  V30 850 H 80.9695 0.629462 2.02858 0
M  V30 851 H 83.2325 0.220621 0.921971 0
M  V30 852 H 82.9385 0.231518 3.50937 0
M  V30 853 H 82.8125 -1.51781 3.45315 0
M  V30 854 H 85.1995 -1.61999 2.46658 0
M  V30 855 H 85.2805 0.14541 2.55386 0
M  V30 856 H 84.9245 0.0146069 5.07898 0
M  V30 857 H 84.8545 -1.76172 4.96257 0
M  V30 858 H 87.3455 -0.876694 3.6759 0
M  V30 859 H 87.6585 -1.17872 7.63758 0
M  V30 860 H 86.0035 -1.06693 6.86762 0
M  V30 861 H 89.1945 -1.00382 4.5721 0
M  V30 862 H 89.3675 -1.14177 6.37862 0
M  V30 863 N 82.7736 -1.49793 -0.48987 0
M  V30 864 C 83.6836 -1.70036 -1.61632 0
M  V30 865 C 84.6996 -0.583102 -1.63939 0
M  V30 866 O 85.8756 -0.859169 -1.82154 0
M  V30 867 C 82.9406 -1.77277 -2.97949 0
M  V30 868 C 82.0016 -3.00918 -3.06181 0
M  V30 869 C 81.2346 -3.07804 -4.35996 0
M  V30 870 O 81.4576 -2.21982 -5.25433 0
M  V30 871 O 80.3916 -4.00369 -4.49431 0
M  V30 872 H 84.2176 -2.65486 -1.47482 0
M  V30 873 H 81.8026 -1.33666 -0.667362 0
M  V30 874 H 83.6846 -1.84329 -3.78947 0
M  V30 875 H 82.3596 -0.850076 -3.12339 0
M  V30 876 H 81.2666 -2.99377 -2.2433 0
M  V30 877 H 82.5996 -3.92704 -2.96723 0
M  V30 878 N 84.2517 0.741722 -1.39055 0
M  V30 879 C 85.4997 1.49818 -1.35643 0
M  V30 880 C 85.8207 1.94938 0.0491642 0
M  V30 881 O 85.0907 1.68505 0.999141 0
M  V30 882 H 83.6707 0.555755 -0.499144 0
M  V30 883 H 86.3327 0.880957 -1.73854 0
M  V30 884 H 85.4287 2.38348 -2.01486 0
M  V30 885 N 85.7298 1.2412 0.971189 0
M  V30 886 C 86.9788 1.07284 1.70801 0
M  V30 887 C 87.2918 -0.388902 1.91695 0
M  V30 888 O 88.4978 -0.677379 2.62914 0
M  V30 889 C 86.9538 1.87145 3.07416 0
M  V30 890 C 86.5618 3.37707 2.94377 0
M  V30 891 C 88.3058 1.78828 3.84995 0
M  V30 892 C 86.2128 4.09925 4.26281 0
M  V30 893 H 85.1428 0.397854 0.64049 0
M  V30 894 H 87.7938 1.4817 1.0825 0
M  V30 895 H 86.1758 1.39071 3.70777 0
M  V30 896 H 87.3498 3.93335 2.4005 0
M  V30 897 H 85.6648 3.46938 2.30267 0
M  V30 898 H 88.2618 2.30089 4.82662 0
M  V30 899 H 88.6048 0.75284 4.09436 0
M  V30 900 H 89.1378 2.24563 3.28354 0
M  V30 901 H 85.8768 5.13813 4.07033 0
M  V30 902 H 85.3968 3.59083 4.80437 0
M  V30 903 H 87.0758 4.1673 4.94919 0
M  V30 904 N 87.2079 -1.17134 1.05439 0
M  V30 905 C 88.4569 -1.86791 0.761049 0
M  V30 906 C 88.7699 -1.82072 -0.714795 0
M  V30 907 O 89.9759 -2.47223 -1.12218 0
M  V30 908 C 88.4319 -3.35166 1.31117 0
M  V30 909 C 88.0399 -3.48381 2.81664 0
M  V30 910 C 89.7839 -4.10134 1.09499 0
M  V30 911 C 87.6909 -4.90793 3.29964 0
M  V30 912 H 86.6209 -0.699681 0.281002 0
M  V30 913 H 89.2719 -1.3226 1.27199 0
M  V30 914 H 87.6539 -3.8925 0.72803 0
M  V30 915 H 88.8279 -3.04502 3.45855 0
M  V30 916 H 87.1429 -2.86836 3.01851 0
M  V30 917 H 89.7399 -5.152 1.43084 0
M  V30 918 H 90.0829 -4.16287 0.0328772 0
M  V30 919 H 90.6159 -3.62264 1.64346 0
M  V30 920 H 87.3549 -4.89816 4.35616 0
M  V30 921 H 86.8749 -5.35333 2.70516 0
M  V30 922 H 88.5539 -5.59573 3.24787 0
M  V30 923 N 88.686 -0.835752 -1.33615 0
M  V30 924 C 90.097 -0.487099 -1.80234 0
M  V30 925 C 90.448 0.993627 -1.69179 0
M  V30 926 O 89.573 1.77403 -1.23924 0
M  V30 927 C 90.168 -0.877385 -3.27242 0
M  V30 928 C 88.727 -0.580915 -3.7189 0
M  V30 929 C 87.874 -1.0874 -2.5509 0
M  V30 930 H 90.825 -1.02474 -1.2118 0
M  V30 931 H 90.846 -0.186195 -3.80044 0
M  V30 932 H 90.358 -1.95512 -3.35256 0
M  V30 933 H 88.459 0.486881 -3.69405 0
M  V30 934 H 88.572 -1.13396 -4.65487 0
M  V30 935 H 86.936 -0.508392 -2.49575 0
M  V30 936 H 87.719 -2.17184 -2.65868 0
M  V30 937 N 90.1641 1.46063 -0.591896 0
M  V30 938 C 91.1271 2.28854 0.125973 0
M  V30 939 C 92.1271 1.38903 0.810107 0
M  V30 940 O 93.3171 1.61186 0.66066 0
M  V30 941 C 90.4491 3.19526 1.1881 0
M  V30 942 H 91.6421 2.93802 -0.601717 0
M  V30 943 H 89.1951 1.52325 -0.350254 0
M  V30 944 H 89.9301 2.59345 1.94707 0
M  V30 945 H 89.7151 3.85766 0.701936 0
M  V30 946 H 91.2051 3.81817 1.69132 0
M  V30 947 N 91.6422 0.330177 1.54103 0
M  V30 948 C 92.5902 -0.548226 2.26047 0
M  V30 949 C 93.5842 -1.11309 1.27698 0
M  V30 950 O 94.7902 -1.06036 1.45452 0
M  V30 951 H 91.1652 -0.195456 0.726155 0
M  V30 952 H 93.1362 0.0807567 2.98291 0
M  V30 953 C 91.8852 -1.69415 3.03634 0
M  V30 954 H 91.2082 -1.26876 3.79134 0
M  V30 955 H 92.6482 -2.28423 3.5721 0
M  V30 956 C 91.1072 -2.61569 2.12328 0
M  V30 957 O 91.6372 -3.63462 1.7105 0
M  V30 958 N 89.8432 -2.29952 1.77681 0
M  V30 959 H 89.3902 -1.47134 2.11446 0
M  V30 960 H 89.3482 -2.91871 1.16869 0
M  V30 961 N 93.1203 -1.57491 0.0584922 0
M  V30 962 C 94.3503 -1.9701 -0.622134 0
M  V30 963 C 94.7583 -0.935034 -1.6448 0
M  V30 964 O 94.1013 0.0882904 -1.83488 0
M  V30 965 C 94.1633 -3.32794 -1.35972 0
M  V30 966 C 93.8273 -4.54343 -0.492043 0
M  V30 967 C 94.8243 -5.19323 0.244901 0
M  V30 968 C 92.5093 -5.00534 -0.420821 0
M  V30 969 C 94.5033 -6.28835 1.04143 0
M  V30 970 C 92.1903 -6.09921 0.379389 0
M  V30 971 C 93.1883 -6.73933 1.10919 0
M  V30 972 O 92.8763 -7.81216 1.89623 0
M  V30 973 H 92.6083 -0.653127 -0.174359 0
M  V30 974 H 95.1623 -2.05029 0.123418 0
M  V30 975 H 93.3923 -3.21351 -2.15105 0
M  V30 976 H 95.0813 -3.5701 -1.93129 0
M  V30 977 H 95.8473 -4.8459 0.19939 0
M  V30 978 H 91.7263 -4.50496 -0.978474 0
M  V30 979 H 95.2703 -6.7873 1.61157 0
M  V30 980 H 91.1673 -6.44089 0.426512 0
M  V30 981 H 91.9353 -7.98029 1.81913 0
M  V30 982 N 94.5984 0.214957 -1.56127 0
M  V30 983 C 95.8444 0.939762 -1.79712 0
M  V30 984 C 96.1774 1.83723 -0.629247 0
M  V30 985 O 95.4524 1.90925 0.371197 0
M  V30 986 C 95.7354 1.77306 -3.13424 0
M  V30 987 C 95.5884 0.90164 -4.40671 0
M  V30 988 C 96.9074 2.74956 -3.43638 0
M  V30 989 H 94.0264 0.340214 -0.653776 0
M  V30 990 H 96.6684 0.20824 -1.88855 0
M  V30 991 H 94.8184 2.39673 -3.0576 0
M  V30 992 H 96.4904 0.294206 -4.60361 0
M  V30 993 H 94.7334 0.207368 -4.33304 0
M  V30 994 H 95.4044 1.51923 -5.30682 0
M  V30 995 H 97.8804 2.22724 -3.51473 0
M  V30 996 H 96.7564 3.30358 -4.38355 0
M  V30 997 H 97.0174 3.53023 -2.66134 0
M  V30 998 N 96.0765 1.50051 0.48192 0
M  V30 999 C 97.0085 1.64263 1.59844 0
M  V30 1000 C 98.0215 0.52451 1.54119 0
M  V30 1001 O 99.2105 0.797293 1.59704 0
M  V30 1002 C 96.3105 1.60102 2.98698 0
M  V30 1003 C 95.4835 2.87767 3.29407 0
M  V30 1004 C 94.5425 2.76397 4.47762 0
M  V30 1005 O 93.5685 3.50348 4.48603 0
M  V30 1006 N 94.7705 1.89222 5.48794 0
M  V30 1007 H 97.5355 2.60566 1.48073 0
M  V30 1008 H 95.0965 1.47379 0.670149 0
M  V30 1009 H 97.0885 1.50123 3.75826 0
M  V30 1010 H 95.6585 0.715798 3.04294 0
M  V30 1011 H 94.8785 3.11954 2.40994 0
M  V30 1012 H 96.1665 3.72365 3.4673 0
M  V30 1013 H 95.5645 1.28434 5.50928 0
M  V30 1014 H 94.1215 1.85154 6.24949 0
M  V30 1015 N 97.5546 -0.734337 1.39446 0
M  V30 1016 C 98.5016 -1.84835 1.38219 0
M  V30 1017 C 99.4716 -1.64331 0.24179 0
M  V30 1018 O 100.657 -1.85728 0.437002 0
M  V30 1019 C 97.7966 -3.22355 1.23212 0
M  V30 1020 C 96.9096 -3.5456 2.46801 0
M  V30 1021 C 96.0446 -4.81485 2.24377 0
M  V30 1022 C 95.0836 -5.06536 3.43639 0
M  V30 1023 N 94.2206 -6.24665 3.20528 0
M  V30 1024 H 99.0606 -1.85219 2.33448 0
M  V30 1025 H 96.5976 -0.905039 1.15963 0
M  V30 1026 H 98.5556 -4.0174 1.12522 0
M  V30 1027 H 97.1856 -3.21248 0.316121 0
M  V30 1028 H 96.2376 -2.69872 2.68092 0
M  V30 1029 H 97.5496 -3.6899 3.3563 0
M  V30 1030 H 96.7036 -5.68852 2.10933 0
M  V30 1031 H 95.4426 -4.6923 1.32944 0
M  V30 1032 H 94.4476 -4.17632 3.5758 0
M  V30 1033 H 95.6726 -5.20676 4.35974 0
M  V30 1034 H 93.6186 -6.13696 2.3176 0
M  V30 1035 H 93.5356 -6.39685 4.02913 0
M  V30 1036 H 94.8036 -7.14868 3.10779 0
M  V30 1037 N 99.0327 -1.24633 -0.964593 0
M  V30 1038 C 100.449 -1.01239 -1.2338 0
M  V30 1039 C 100.649 0.2769 -1.99588 0
M  V30 1040 O 99.7047 0.992241 -2.32187 0
M  V30 1041 C 101.018 -2.22937 -2.01791 0
M  V30 1042 C 102.566 -2.27594 -2.14872 0
M  V30 1043 C 103.041 -3.48921 -2.96678 0
M  V30 1044 N 104.532 -3.49257 -3.04259 0
M  V30 1045 C 105.267 -4.39795 -3.67924 0
M  V30 1046 N 104.763 -5.40591 -4.33281 0
M  V30 1047 N 106.556 -4.275 -3.64966 0
M  V30 1048 H 98.7067 -2.0748 -0.454502 0
M  V30 1049 H 100.97 -0.910647 -0.26349 0
M  V30 1050 H 100.676 -3.16587 -1.53184 0
M  V30 1051 H 100.55 -2.25306 -3.02518 0
M  V30 1052 H 102.937 -1.34473 -2.6268 0
M  V30 1053 H 103.018 -2.2925 -1.13482 0
M  V30 1054 H 102.662 -4.42359 -2.49562 0
M  V30 1055 H 102.592 -3.4451 -3.98272 0
M  V30 1056 H 105.083 -2.76337 -2.57771 0
M  V30 1057 H 105.396 -6.05904 -4.79687 0
M  V30 1058 H 103.741 -5.44475 -4.3194 0
M  V30 1059 H 106.932 -3.47987 -3.13086 0
M  V30 1060 H 107.105 -4.98258 -4.14298 0
M  V30 1061 N 100.511 1.16574 -1.06058 0
M  V30 1062 C 101.421 2.2452 -0.680282 0
M  V30 1063 C 102.437 1.71348 0.302604 0
M  V30 1064 O 103.613 2.00822 0.152513 0
M  V30 1065 C 100.678 3.46629 -0.0700315 0
M  V30 1066 C 99.7388 4.14849 -1.10448 0
M  V30 1067 C 98.9718 5.31129 -0.523256 0
M  V30 1068 O 99.1948 5.66514 0.664709 0
M  V30 1069 O 98.1288 5.88526 -1.26179 0
M  V30 1070 H 101.955 2.59355 -1.58015 0
M  V30 1071 H 99.5398 1.24043 -0.832694 0
M  V30 1072 H 101.422 4.20543 0.268667 0
M  V30 1073 H 100.097 3.13573 0.803353 0
M  V30 1074 H 99.0038 3.42916 -1.49532 0
M  V30 1075 H 100.337 4.51954 -1.94931 0
M  V30 1076 N 101.989 0.842826 1.3317 0
M  V30 1077 C 103.237 0.439577 1.97262 0
M  V30 1078 C 103.558 -1.00548 1.67078 0
M  V30 1079 O 102.828 -1.70098 0.971779 0
M  V30 1080 H 101.408 0.159558 0.72976 0
M  V30 1081 H 104.07 1.07665 1.62463 0
M  V30 1082 H 103.166 0.574886 3.0676 0
M  V30 1083 N 103.467 -1.45747 0.599634 0
M  V30 1084 C 104.713 -2.02592 0.0918643 0
M  V30 1085 C 105.046 -1.46806 -1.27128 0
M  V30 1086 O 104.321 -0.639658 -1.83681 0
M  V30 1087 C 104.604 -3.60073 0.0443398 0
M  V30 1088 C 104.457 -4.26208 1.43759 0
M  V30 1089 C 105.776 -4.35309 -0.647608 0
M  V30 1090 H 102.895 -0.736175 0.034857 0
M  V30 1091 H 105.537 -1.73694 0.770081 0
M  V30 1092 H 103.687 -3.84823 -0.533224 0
M  V30 1093 H 105.359 -4.12668 2.06162 0
M  V30 1094 H 103.602 -3.84916 2.00056 0
M  V30 1095 H 104.273 -5.35069 1.35665 0
M  V30 1096 H 106.749 -4.15805 -0.156776 0
M  V30 1097 H 105.625 -5.45038 -0.649942 0
M  V30 1098 H 105.886 -4.07598 -1.71219 0
M  V30 1099 N 104.945 -0.338344 -1.53925 0
M  V30 1100 C 105.892 0.520845 -2.24846 0
M  V30 1101 C 106.862 1.09976 -1.24477 0
M  V30 1102 O 108.047 1.13735 -1.53196 0
M  V30 1103 C 105.187 1.6685 -3.02084 0
M  V30 1104 C 104.3 1.11739 -4.17299 0
M  V30 1105 C 103.435 2.23193 -4.82036 0
M  V30 1106 C 102.474 1.65407 -5.89328 0
M  V30 1107 N 101.611 2.70582 -6.47866 0
M  V30 1108 H 106.451 -0.0904881 -2.97863 0
M  V30 1109 H 103.988 -0.0564282 -1.46992 0
M  V30 1110 H 105.946 2.34407 -3.45122 0
M  V30 1111 H 104.576 2.2509 -2.31375 0
M  V30 1112 H 103.628 0.332919 -3.7894 0
M  V30 1113 H 104.94 0.654677 -4.94485 0
M  V30 1114 H 104.094 2.98626 -5.28117 0
M  V30 1115 H 102.833 2.72807 -4.04262 0
M  V30 1116 H 101.838 0.884779 -5.42634 0
M  V30 1117 H 103.063 1.16652 -6.69006 0
M  V30 1118 H 101.009 3.1946 -5.72959 0
M  V30 1119 H 100.926 2.28917 -7.20509 0
M  V30 1120 H 102.194 3.45799 -6.98601 0
M  V30 1121 N 106.423 1.57458 -0.0668435 0
M  V30 1122 C 107.386 2.11323 0.887422 0
M  V30 1123 C 108.386 1.03618 1.22964 0
M  V30 1124 O 109.576 1.29626 1.16373 0
M  V30 1125 C 106.708 2.61048 2.19242 0
M  V30 1126 H 107.901 2.96942 0.420194 0
M  V30 1127 H 105.454 1.55239 0.181793 0
M  V30 1128 H 106.189 1.78868 2.70512 0
M  V30 1129 H 105.974 3.39769 1.95702 0
M  V30 1130 H 107.464 3.02814 2.87565 0
M  V30 1131 N 107.901 -0.206675 1.56239 0
M  V30 1132 C 109.149 -0.927007 1.79586 0
M  V30 1133 C 109.47 -1.8427 0.637929 0
M  V30 1134 O 108.74 -1.92849 -0.344398 0
M  V30 1135 H 107.32 -0.345292 0.662407 0
M  V30 1136 H 109.982 -0.21496 1.93711 0
M  V30 1137 H 109.078 -1.52501 2.72305 0
M  V30 1138 N 109.379 -1.50304 -0.473955 0
M  V30 1139 C 110.607 -1.64902 -1.24959 0
M  V30 1140 C 111.022 -0.331198 -1.85872 0
M  V30 1141 O 110.379 0.68652 -1.69095 0
M  V30 1142 C 110.43 -2.73803 -2.36038 0
M  V30 1143 O 110.151 -4.00477 -1.77624 0
M  V30 1144 C 111.652 -2.99349 -3.26964 0
M  V30 1145 H 108.872 -0.554383 -0.378022 0
M  V30 1146 H 111.416 -1.9651 -0.566054 0
M  V30 1147 H 109.571 -2.44898 -3.00173 0
M  V30 1148 H 109.985 -4.60678 -2.5075 0
M  V30 1149 H 111.459 -3.79217 -4.01121 0
M  V30 1150 H 111.936 -2.10307 -3.85574 0
M  V30 1151 H 112.542 -3.29774 -2.68569 0
M  V30 1152 N 110.857 0.726932 -1.39834 0
M  V30 1153 C 111.804 1.841 -1.39197 0
M  V30 1154 C 112.774 1.642 -0.250502 0
M  V30 1155 O 113.959 1.85494 -0.446846 0
M  V30 1156 C 111.099 3.21697 -1.24919 0
M  V30 1157 C 110.212 3.53247 -2.48678 0
M  V30 1158 C 109.347 4.80289 -2.26928 0
M  V30 1159 C 108.386 5.04707 -3.4632 0
M  V30 1160 N 107.523 6.22956 -3.23836 0
M  V30 1161 H 112.363 1.83979 -2.34427 0
M  V30 1162 H 109.9 0.898876 -1.16442 0
M  V30 1163 H 111.858 4.01137 -1.1465 0
M  V30 1164 H 110.488 3.21076 -0.333153 0
M  V30 1165 H 109.54 2.68447 -2.69519 0
M  V30 1166 H 110.852 3.67205 -3.37582 0
M  V30 1167 H 110.006 5.67725 -2.13947 0
M  V30 1168 H 108.745 4.68519 -1.35431 0
M  V30 1169 H 107.75 4.1573 -3.5979 0
M  V30 1170 H 108.975 5.18357 -4.38729 0
M  V30 1171 H 106.921 6.12459 -2.35011 0
M  V30 1172 H 106.838 6.37539 -4.063 0
M  V30 1173 H 108.106 7.1321 -3.14566 0
M  V30 1174 N 112.336 1.25143 0.95797 0
M  V30 1175 C 113.266 1.07711 2.07173 0
M  V30 1176 C 114.247 -0.0128462 1.70095 0
M  V30 1177 O 115.432 0.156061 1.93572 0
M  V30 1178 C 112.562 0.691503 3.40346 0
M  V30 1179 C 111.516 1.73132 3.9142 0
M  V30 1180 C 110.842 1.20049 5.21049 0
M  V30 1181 C 112.142 3.1294 4.1817 0
M  V30 1182 H 113.836 2.00873 2.22014 0
M  V30 1183 H 111.382 0.967191 1.06684 0
M  V30 1184 H 113.335 0.556505 4.17709 0
M  V30 1185 H 112.059 -0.275819 3.25433 0
M  V30 1186 H 110.718 1.8547 3.16222 0
M  V30 1187 H 110.366 0.223499 5.02503 0
M  V30 1188 H 110.066 1.89545 5.56189 0
M  V30 1189 H 111.59 1.07782 6.01012 0
M  V30 1190 H 113.004 3.03775 4.86203 0
M  V30 1191 H 111.401 3.79875 4.64559 0
M  V30 1192 H 112.471 3.6025 3.24573 0
M  V30 1193 N 113.814 -1.1601 1.06675 0
M  V30 1194 C 115.039 -1.91068 0.806706 0
M  V30 1195 C 115.464 -1.77112 -0.633485 0
M  V30 1196 O 114.822 -1.09908 -1.44187 0
M  V30 1197 C 114.87 -3.39655 1.21106 0
M  V30 1198 O 113.974 -4.10893 0.352189 0
M  V30 1199 H 113.315 -0.595125 0.294486 0
M  V30 1200 H 115.845 -1.46955 1.42356 0
M  V30 1201 H 115.855 -3.90434 1.18428 0
M  V30 1202 H 114.53 -3.49132 2.26008 0
M  V30 1203 H 113.107 -3.70285 0.440868 0
M  V30 1204 N 115.292 -0.849877 -1.32721 0
M  V30 1205 C 116.222 -0.306308 -2.31482 0
M  V30 1206 C 117.203 0.591952 -1.59468 0
M  V30 1207 O 118.388 0.513199 -1.87296 0
M  V30 1208 C 115.518 0.510204 -3.43532 0
M  V30 1209 C 114.472 -0.293209 -4.26994 0
M  V30 1210 C 113.798 0.647743 -5.30762 0
M  V30 1211 C 115.098 -1.51634 -4.99804 0
M  V30 1212 H 116.792 -1.13153 -2.77195 0
M  V30 1213 H 114.338 -0.545553 -1.33266 0
M  V30 1214 H 116.291 0.900856 -4.11658 0
M  V30 1215 H 115.015 1.36874 -2.96535 0
M  V30 1216 H 113.674 -0.665555 -3.60508 0
M  V30 1217 H 113.322 1.50299 -4.8002 0
M  V30 1218 H 113.022 0.11422 -5.87489 0
M  V30 1219 H 114.546 1.03567 -6.01753 0
M  V30 1220 H 115.96 -1.19824 -5.60638 0
M  V30 1221 H 114.357 -1.98745 -5.66234 0
M  V30 1222 H 115.427 -2.28018 -4.27943 0
M  V30 1223 N 116.77 1.45427 -0.607355 0
M  V30 1224 C 117.703 2.27635 0.160482 0
M  V30 1225 C 118.681 1.37122 0.873857 0
M  V30 1226 O 119.865 1.66551 0.882775 0
M  V30 1227 C 116.992 3.15486 1.23231 0
M  V30 1228 C 116.038 4.21939 0.622097 0
M  V30 1229 S 116.871 5.32459 -0.569852 0
M  V30 1230 C 118.027 6.23879 0.502577 0
M  V30 1231 H 118.26 2.9241 -0.536983 0
M  V30 1232 H 115.793 1.49265 -0.394868 0
M  V30 1233 H 117.751 3.66659 1.84585 0
M  V30 1234 H 116.412 2.49977 1.90185 0
M  V30 1235 H 115.605 4.8333 1.42856 0
M  V30 1236 H 115.207 3.73906 0.0837063 0
M  V30 1237 H 117.499 6.63261 1.38171 0
M  V30 1238 H 118.442 7.0806 -0.0751759 0
M  V30 1239 H 118.85 5.58545 0.8178 0
M  V30 1240 N 118.248 0.346503 1.53744 0
M  V30 1241 C 119.659 -0.136779 1.86198 0
M  V30 1242 C 120.01 -1.49749 1.26766 0
M  V30 1243 O 119.135 -2.08417 0.582355 0
M  V30 1244 C 119.73 -0.254966 3.37839 0
M  V30 1245 C 118.289 -0.682482 3.70161 0
M  V30 1246 C 117.436 0.181981 2.76702 0
M  V30 1247 H 120.387 0.565994 1.48264 0
M  V30 1248 H 120.408 -1.08195 3.64793 0
M  V30 1249 H 119.92 0.735526 3.81066 0
M  V30 1250 H 118.021 -1.68189 3.3248 0
M  V30 1251 H 118.134 -0.470326 4.76786 0
M  V30 1252 H 116.498 -0.34615 2.52337 0
M  V30 1253 H 117.281 1.16966 3.2276 0
M  V30 1254 N 119.726 -1.57421 0.075193 0
M  V30 1255 C 120.972 -1.94716 -0.587998 0
M  V30 1256 C 121.327 -0.955205 -1.67014 0
M  V30 1257 O 120.62 0.0219842 -1.91587 0
M  V30 1258 C 120.814 -3.36428 -1.20626 0
M  V30 1259 C 120.643 -4.49317 -0.185541 0
M  V30 1260 C 119.413 -5.04772 0.23099 0
M  V30 1261 C 121.611 -5.11036 0.57854 0
M  V30 1262 N 119.593 -6.01204 1.24206 0
M  V30 1263 C 120.964 -6.02998 1.44199 0
M  V30 1264 C 123.019 -4.93844 0.634237 0
M  V30 1265 C 121.722 -6.79614 2.3562 0
M  V30 1266 C 123.748 -5.71106 1.53597 0
M  V30 1267 C 123.11 -6.6272 2.38709 0
M  V30 1268 H 119.209 -0.759536 -0.186089 0
M  V30 1269 H 121.793 -1.94097 0.153128 0
M  V30 1270 H 119.964 -3.37778 -1.9173 0
M  V30 1271 H 121.696 -3.60951 -1.8302 0
M  V30 1272 H 118.451 -4.73353 -0.152807 0
M  V30 1273 H 118.875 -6.54119 1.74521 0
M  V30 1274 H 123.517 -4.22799 -0.00960004 0
M  V30 1275 H 121.235 -7.49934 3.01038 0
M  V30 1276 H 124.821 -5.59824 1.58394 0
M  V30 1277 H 123.701 -7.2146 3.07352 0
M  V30 1278 N 121.204 0.198386 -1.56346 0
M  V30 1279 C 122.451 0.919286 -1.80431 0
M  V30 1280 C 122.779 1.83393 -0.647866 0
M  V30 1281 O 122.034 1.92236 0.366556 0
M  V30 1282 C 122.333 1.77031 -3.10475 0
M  V30 1283 C 121.999 1.00693 -4.39513 0
M  V30 1284 C 120.661 0.796145 -4.74568 0
M  V30 1285 C 123.013 0.469559 -5.19081 0
M  V30 1286 C 120.341 0.0364588 -5.86689 0
M  V30 1287 C 122.693 -0.2769 -6.31994 0
M  V30 1288 C 121.357 -0.49873 -6.65634 0
M  V30 1289 H 120.627 0.336391 -0.660244 0
M  V30 1290 H 123.274 0.185872 -1.90596 0
M  V30 1291 H 121.579 2.5723 -2.95533 0
M  V30 1292 H 123.276 2.33065 -3.26315 0
M  V30 1293 H 119.866 1.18122 -4.12001 0
M  V30 1294 H 124.05 0.619816 -4.92414 0
M  V30 1295 H 119.306 -0.145412 -6.11227 0
M  V30 1296 H 123.48 -0.700684 -6.92866 0
M  V30 1297 H 121.107 -1.0893 -7.52355 0
M  V30 1298 N 122.682 1.50554 0.465978 0
M  V30 1299 C 123.632 1.66177 1.56106 0
M  V30 1300 C 124.616 0.516265 1.52393 0
M  V30 1301 O 125.808 0.770906 1.5933 0
M  V30 1302 C 122.937 1.76396 2.94515 0
M  V30 1303 C 122.023 2.9664 3.03093 0
M  V30 1304 N 122.414 4.20245 2.81474 0
M  V30 1305 C 120.712 2.95304 3.34233 0
M  V30 1306 C 121.413 5.01259 2.95151 0
M  V30 1307 N 120.389 4.35318 3.25576 0
M  V30 1308 H 124.191 2.59434 1.38099 0
M  V30 1309 H 121.705 1.47808 0.6728 0
M  V30 1310 H 123.702 1.85694 3.73261 0
M  V30 1311 H 122.362 0.843017 3.13565 0
M  V30 1312 H 123.373 4.4966 2.56956 0
M  V30 1313 H 120.05 2.12729 3.59239 0
M  V30 1314 H 121.44 6.09564 2.82632 0
M  V30 1315 N 124.16 -0.719506 1.40217 0
M  V30 1316 C 125.408 -1.47641 1.3801 0
M  V30 1317 C 125.729 -1.94992 -0.018145 0
M  V30 1318 O 124.999 -1.70073 -0.972207 0
M  V30 1319 H 123.579 -0.547744 0.507923 0
M  V30 1320 H 126.241 -0.853187 1.75233 0
M  V30 1321 H 125.337 -2.35112 2.05253 0
M  V30 1322 N 125.638 -1.25649 -0.95132 0
M  V30 1323 C 126.585 -1.06323 -2.04851 0
M  V30 1324 C 127.555 0.0286491 -1.66075 0
M  V30 1325 O 128.74 -0.12917 -1.90362 0
M  V30 1326 C 125.88 -0.691529 -3.381 0
M  V30 1327 C 124.993 -1.85861 -3.89974 0
M  V30 1328 C 124.128 -1.43096 -5.11563 0
M  V30 1329 C 123.167 -2.56696 -5.55674 0
M  V30 1330 N 122.304 -2.14684 -6.68472 0
M  V30 1331 H 127.144 -2.00222 -2.20715 0
M  V30 1332 H 124.681 -0.997027 -1.08156 0
M  V30 1333 H 126.639 -0.456963 -4.1469 0
M  V30 1334 H 125.269 0.210474 -3.22113 0
M  V30 1335 H 124.321 -2.20639 -3.09875 0
M  V30 1336 H 125.633 -2.71161 -4.18657 0
M  V30 1337 H 124.787 -1.15624 -5.9558 0
M  V30 1338 H 123.526 -0.548722 -4.84603 0
M  V30 1339 H 122.531 -2.84909 -4.7022 0
M  V30 1340 H 123.756 -3.45503 -5.8464 0
M  V30 1341 H 121.702 -1.28881 -6.43215 0
M  V30 1342 H 121.619 -2.9353 -6.96689 0
M  V30 1343 H 122.887 -1.90397 -7.5589 0
M  V30 1344 N 127.117 1.15442 -1.07289 0
M  V30 1345 C 128.366 1.85557 -0.790669 0
M  V30 1346 C 128.679 1.83186 0.685739 0
M  V30 1347 O 129.885 2.48977 1.0827 0
M  V30 1348 C 128.341 3.33038 -1.36433 0
M  V30 1349 C 127.949 3.43856 -2.8717 0
M  V30 1350 C 129.693 4.0834 -1.1601 0
M  V30 1351 C 127.6 4.85482 -3.3773 0
M  V30 1352 H 126.53 0.695122 -0.292098 0
M  V30 1353 H 129.181 1.30219 -1.29287 0
M  V30 1354 H 127.563 3.88043 -0.789864 0
M  V30 1355 H 128.737 2.98961 -3.50655 0
M  V30 1356 H 127.052 2.81998 -3.06376 0
M  V30 1357 H 129.649 5.12859 -1.51262 0
M  V30 1358 H 129.992 4.16182 -0.0991007 0
M  V30 1359 H 130.525 3.59603 -1.70089 0
M  V30 1360 H 127.264 4.82823 -4.43353 0
M  V30 1361 H 126.784 5.30961 -2.78999 0
M  V30 1362 H 128.463 5.54335 -3.33648 0
M  V30 1363 N 128.595 0.856903 1.32268 0
M  V30 1364 C 129.823 0.475439 2.01363 0
M  V30 1365 C 130.238 -0.928486 1.64392 0
M  V30 1366 O 129.595 -1.60624 0.866387 0
M  V30 1367 C 129.646 0.607545 3.56358 0
M  V30 1368 O 129.367 1.95617 3.92002 0
M  V30 1369 C 130.868 0.225382 4.42727 0
M  V30 1370 H 128.088 0.186636 0.644521 0
M  V30 1371 H 130.632 1.15446 1.68797 0
M  V30 1372 H 128.787 -0.0237719 3.87393 0
M  V30 1373 H 129.201 1.95455 4.86721 0
M  V30 1374 H 130.675 0.368813 5.50767 0
M  V30 1375 H 131.152 -0.834369 4.31202 0
M  V30 1376 H 131.758 0.831864 4.17085 0
M  V30 1377 N 130.073 -1.45103 0.615059 0
M  V30 1378 C 131.489 -1.57137 0.279322 0
M  V30 1379 C 131.689 -1.60523 -1.21797 0
M  V30 1380 O 130.745 -1.53956 -2.00134 0
M  V30 1381 C 132.058 -2.85062 0.957083 0
M  V30 1382 C 133.606 -2.98749 0.933706 0
M  V30 1383 C 134.081 -4.29455 1.59162 0
M  V30 1384 N 135.572 -4.36231 1.55746 0
M  V30 1385 C 136.307 -5.36051 2.0356 0
M  V30 1386 N 135.803 -6.42367 2.59494 0
M  V30 1387 N 137.596 -5.27456 1.94284 0
M  V30 1388 H 129.747 -1.41148 1.58717 0
M  V30 1389 H 132.01 -0.675331 0.665306 0
M  V30 1390 H 131.716 -2.88488 2.01166 0
M  V30 1391 H 131.59 -3.7407 0.48494 0
M  V30 1392 H 133.977 -2.94886 -0.112347 0
M  V30 1393 H 134.058 -2.11132 1.44419 0
M  V30 1394 H 133.702 -4.34077 2.63704 0
M  V30 1395 H 133.632 -5.15901 1.0561 0
M  V30 1396 H 136.123 -3.60011 1.14893 0
M  V30 1397 H 136.436 -7.14793 2.93752 0
M  V30 1398 H 134.781 -6.43097 2.63537 0
M  V30 1399 H 137.972 -4.43308 1.5032 0
M  V30 1400 H 138.145 -6.05099 2.3186 0
M  V30 1401 N 131.551 -0.354651 -1.53558 0
M  V30 1402 C 132.461 0.50515 -2.29097 0
M  V30 1403 C 133.477 1.10223 -1.34636 0
M  V30 1404 O 134.653 1.11553 -1.67684 0
M  V30 1405 C 131.718 1.63479 -3.05738 0
M  V30 1406 C 130.779 1.06636 -4.15845 0
M  V30 1407 C 130.012 2.14217 -4.88822 0
M  V30 1408 O 130.235 3.35137 -4.61562 0
M  V30 1409 O 129.169 1.77887 -5.75013 0
M  V30 1410 H 132.995 -0.109237 -3.03503 0
M  V30 1411 H 130.58 -0.119357 -1.48922 0
M  V30 1412 H 132.462 2.2918 -3.5363 0
M  V30 1413 H 131.137 2.23478 -2.34178 0
M  V30 1414 H 130.044 0.373565 -3.7223 0
M  V30 1415 H 131.377 0.511081 -4.89539 0
M  V30 1416 N 133.029 1.57378 -0.0835403 0
M  V30 1417 C 133.961 2.10389 0.909338 0
M  V30 1418 C 134.974 1.03858 1.25369 0
M  V30 1419 O 136.163 1.31338 1.20882 0
M  V30 1420 C 133.263 2.55908 2.2218 0
M  V30 1421 C 132.436 3.86145 2.05453 0
M  V30 1422 C 131.495 4.17633 3.20108 0
M  V30 1423 O 130.521 4.87043 2.94581 0
M  V30 1424 N 131.723 3.72113 4.45547 0
M  V30 1425 H 134.488 2.962 0.456657 0
M  V30 1426 H 132.049 1.61579 0.101877 0
M  V30 1427 H 134.041 2.74027 2.97811 0
M  V30 1428 H 132.611 1.75171 2.58909 0
M  V30 1429 H 131.831 3.7729 1.1422 0
M  V30 1430 H 133.119 4.7137 1.91541 0
M  V30 1431 H 132.517 3.16062 4.69171 0
M  V30 1432 H 131.074 3.95409 5.18165 0
M  V30 1433 N 134.507 -0.190092 1.56449 0
M  V30 1434 C 135.47 -1.21925 1.9408 0
M  V30 1435 C 136.47 -1.38176 0.822431 0
M  V30 1436 O 137.66 -1.35903 1.08977 0
M  V30 1437 C 134.792 -2.58773 2.21922 0
M  V30 1438 H 135.985 -0.897464 2.86157 0
M  V30 1439 H 133.538 -0.43181 1.50217 0
M  V30 1440 H 134.273 -2.95998 1.32499 0
M  V30 1441 H 134.058 -2.48348 3.03424 0
M  V30 1442 H 135.548 -3.32978 2.52022 0
M  V30 1443 N 135.985 -1.50799 -0.457987 0
M  V30 1444 C 136.895 -1.73426 -1.57989 0
M  V30 1445 C 137.911 -0.617745 -1.62665 0
M  V30 1446 O 139.087 -0.897614 -1.80291 0
M  V30 1447 C 136.152 -1.83557 -2.94122 0
M  V30 1448 C 135.213 -3.07345 -2.99729 0
M  V30 1449 C 134.446 -3.16983 -4.29368 0
M  V30 1450 O 134.669 -2.33077 -5.20607 0
M  V30 1451 O 133.603 -4.09812 -4.40837 0
M  V30 1452 H 137.429 -2.68555 -1.41817 0
M  V30 1453 H 135.014 -1.35052 -0.638859 0
M  V30 1454 H 136.896 -1.92326 -3.74952 0
M  V30 1455 H 135.571 -0.916137 -3.10465 0
M  V30 1456 H 134.478 -3.04068 -2.1793 0
M  V30 1457 H 135.811 -3.9891 -2.88326 0
M  V30 1458 N 137.463 0.71206 -1.40597 0
M  V30 1459 C 138.879 1.02058 -1.22704 0
M  V30 1460 C 139.079 2.01228 -0.104729 0
M  V30 1461 O 138.135 2.4674 0.53624 0
M  V30 1462 C 139.448 1.56094 -2.57012 0
M  V30 1463 C 140.996 1.6806 -2.64054 0
M  V30 1464 C 141.471 2.25501 -3.9864 0
M  V30 1465 N 142.962 2.32882 -4.004 0
M  V30 1466 C 143.697 2.78317 -5.01325 0
M  V30 1467 N 143.193 3.23478 -6.12645 0
M  V30 1468 N 144.986 2.77733 -4.88693 0
M  V30 1469 H 137.137 0.0547896 -2.12329 0
M  V30 1470 H 139.4 0.0869027 -0.944008 0
M  V30 1471 H 139.106 0.906865 -3.39807 0
M  V30 1472 H 138.98 2.54564 -2.78347 0
M  V30 1473 H 141.367 2.32583 -1.81629 0
M  V30 1474 H 141.448 0.681802 -2.46546 0
M  V30 1475 H 141.092 1.61598 -4.81506 0
M  V30 1476 H 141.022 3.26102 -4.13479 0
M  V30 1477 H 143.513 2.00991 -3.20017 0
M  V30 1478 H 143.826 3.56725 -6.85542 0
M  V30 1479 H 142.171 3.21429 -6.16205 0
M  V30 1480 H 145.362 2.4179 -4.00818 0
M  V30 1481 H 145.535 3.12826 -5.67489 0
M  V30 1482 N 138.941 1.26152 0.944643 0
M  V30 1483 C 139.871 1.09902 2.06019 0
M  V30 1484 C 140.852 0.00519538 1.70099 0
M  V30 1485 O 142.037 0.176583 1.93396 0
M  V30 1486 C 139.167 0.727562 3.39594 0
M  V30 1487 C 138.121 1.77274 3.89561 0
M  V30 1488 C 137.447 1.25569 5.19747 0
M  V30 1489 C 138.747 3.17357 4.14827 0
M  V30 1490 H 140.441 2.03217 2.19871 0
M  V30 1491 H 137.987 0.978452 1.05652 0
M  V30 1492 H 139.94 0.600777 4.17095 0
M  V30 1493 H 138.664 -0.241287 3.25707 0
M  V30 1494 H 137.323 1.88814 3.14237 0
M  V30 1495 H 136.971 0.276783 5.02238 0
M  V30 1496 H 136.671 1.95433 5.54148 0
M  V30 1497 H 138.195 1.1415 5.99835 0
M  V30 1498 H 139.609 3.08914 4.82954 0
M  V30 1499 H 138.006 3.84781 4.60504 0
M  V30 1500 H 139.076 3.63673 3.20734 0
M  V30 1501 N 140.419 -1.14872 1.07899 0
M  V30 1502 C 141.349 -2.2193 0.725887 0
M  V30 1503 C 142.33 -1.67622 -0.28927 0
M  V30 1504 O 143.515 -1.93533 -0.160787 0
M  V30 1505 C 140.645 -3.47061 0.128856 0
M  V30 1506 C 139.599 -4.14363 1.07178 0
M  V30 1507 C 138.925 -5.33636 0.337229 0
M  V30 1508 C 140.225 -4.63492 2.40775 0
M  V30 1509 H 141.919 -2.51724 1.62097 0
M  V30 1510 H 139.465 -1.20991 0.780838 0
M  V30 1511 H 141.418 -4.21199 -0.130147 0
M  V30 1512 H 140.142 -3.16617 -0.80134 0
M  V30 1513 H 138.801 -3.42173 1.3158 0
M  V30 1514 H 138.449 -4.99449 -0.596606 0
M  V30 1515 H 138.149 -5.79609 0.965788 0
M  V30 1516 H 139.673 -6.10539 0.0861567 0
M  V30 1517 H 141.087 -5.2913 2.20669 0
M  V30 1518 H 139.484 -5.20148 2.99276 0
M  V30 1519 H 140.554 -3.78834 3.02676 0
M  V30 1520 N 141.898 -0.863906 -1.31812 0
M  V30 1521 C 143.128 -0.485406 -2.00817 0
M  V30 1522 C 143.536 0.925007 -1.65046 0
M  V30 1523 O 142.879 1.61653 -0.872574 0
M  V30 1524 C 142.941 -0.555589 -3.55181 0
M  V30 1525 C 142.605 -1.92654 -4.14407 0
M  V30 1526 C 143.602 -2.89324 -4.31958 0
M  V30 1527 C 141.287 -2.2262 -4.50273 0
M  V30 1528 C 143.281 -4.14108 -4.84555 0
M  V30 1529 C 140.968 -3.47654 -5.02573 0
M  V30 1530 C 141.966 -4.43214 -5.19664 0
M  V30 1531 O 141.654 -5.66033 -5.70843 0
M  V30 1532 H 141.386 -0.188224 -0.649267 0
M  V30 1533 H 143.94 -1.16514 -1.69156 0
M  V30 1534 H 142.17 0.181037 -3.86276 0
M  V30 1535 H 143.859 -0.19138 -4.05449 0
M  V30 1536 H 144.625 -2.6748 -4.04573 0
M  V30 1537 H 140.504 -1.4902 -4.3625 0
M  V30 1538 H 144.048 -4.88703 -4.9781 0
M  V30 1539 H 139.945 -3.69345 -5.29391 0
M  V30 1540 H 140.713 -5.6812 -5.89222 0
M  V30 1541 N 143.376 1.44774 -0.622745 0
M  V30 1542 C 144.787 1.85546 -0.207226 0
M  V30 1543 C 145.138 1.52093 1.23944 0
M  V30 1544 O 144.263 0.95492 1.94191 0
M  V30 1545 C 144.858 3.36781 -0.369313 0
M  V30 1546 C 143.417 3.76399 -0.00836847 0
M  V30 1547 C 142.564 2.68664 -0.686651 0
M  V30 1548 H 145.515 1.3536 -0.828454 0
M  V30 1549 H 145.536 3.78453 0.394162 0
M  V30 1550 H 145.048 3.61098 -1.42231 0
M  V30 1551 H 143.149 3.57698 1.04322 0
M  V30 1552 H 143.262 4.7732 -0.412584 0
M  V30 1553 H 141.626 2.54404 -0.122777 0
M  V30 1554 H 142.409 2.95815 -1.74208 0
M  V30 1555 N 144.854 0.36279 1.53368 0
M  V30 1556 C 146.265 -0.117022 1.86333 0
M  V30 1557 C 146.616 -1.48397 1.28347 0
M  V30 1558 O 145.741 -2.07787 0.604428 0
M  V30 1559 C 146.336 -0.21912 3.38091 0
M  V30 1560 C 144.895 -0.643184 3.70864 0
M  V30 1561 C 144.042 0.211318 2.76494 0
M  V30 1562 H 146.993 0.581687 1.47655 0
M  V30 1563 H 147.014 -1.04319 3.6592 0
M  V30 1564 H 146.526 0.775902 3.80265 0
M  V30 1565 H 144.627 -1.64654 3.34245 0
M  V30 1566 H 144.74 -0.41973 4.77258 0
M  V30 1567 H 143.104 -0.319367 2.5269 0
M  V30 1568 H 143.887 1.20383 3.21501 0
M  V30 1569 N 146.332 -1.57332 0.0918853 0
M  V30 1570 C 147.242 -2.17368 -0.882505 0
M  V30 1571 C 148.258 -1.14226 -1.31257 0
M  V30 1572 O 149.434 -1.46582 -1.38115 0
M  V30 1573 C 146.499 -2.73962 -2.12476 0
M  V30 1574 C 145.56 -3.92048 -1.7492 0
M  V30 1575 C 144.793 -4.45933 -2.93223 0
M  V30 1576 O 145.016 -3.98764 -4.07852 0
M  V30 1577 O 143.95 -5.36999 -2.71875 0
M  V30 1578 H 147.776 -3.01031 -0.40172 0
M  V30 1579 H 145.361 -1.48813 -0.132291 0
M  V30 1580 H 147.243 -3.10147 -2.85283 0
M  V30 1581 H 145.918 -1.93347 -2.59613 0
M  V30 1582 H 144.825 -3.6068 -0.993025 0
M  V30 1583 H 146.158 -4.74017 -1.32548 0
M  V30 1584 N 147.81 0.181792 -1.56548 0
M  V30 1585 C 149.038 0.915947 -1.85521 0
M  V30 1586 C 149.453 1.76282 -0.676016 0
M  V30 1587 O 148.81 1.79012 0.355077 0
M  V30 1588 C 148.861 1.80126 -3.13427 0
M  V30 1589 O 148.582 0.988562 -4.26801 0
M  V30 1590 C 150.083 2.64597 -3.55673 0
M  V30 1591 H 147.303 0.26661 -0.61576 0
M  V30 1592 H 149.847 0.185039 -2.03661 0
M  V30 1593 H 148.002 2.48563 -2.97145 0
M  V30 1594 H 148.416 1.59308 -4.99721 0
M  V30 1595 H 149.89 3.2235 -4.48101 0
M  V30 1596 H 150.367 3.38958 -2.79292 0
M  V30 1597 H 150.973 2.0151 -3.74532 0
M  V30 1598 N 149.288 1.51039 0.449983 0
M  V30 1599 C 150.536 1.62759 1.19808 0
M  V30 1600 C 150.857 0.339981 1.92013 0
M  V30 1601 O 150.127 -0.643606 1.85026 0
M  V30 1602 H 148.707 0.599811 0.445237 0
M  V30 1603 H 151.369 1.87914 0.517138 0
M  V30 1604 H 150.465 2.44911 1.93455 0
M  V30 1605 N 150.766 -0.704594 1.40972 0
M  V30 1606 C 151.696 -1.83124 1.44872 0
M  V30 1607 C 152.677 -1.67281 0.30838 0
M  V30 1608 O 153.862 -1.87149 0.518556 0
M  V30 1609 C 150.992 -3.21181 1.32136 0
M  V30 1610 C 149.946 -3.51714 2.43888 0
M  V30 1611 C 149.272 -4.89032 2.16222 0
M  V30 1612 C 150.572 -3.516 3.86232 0
M  V30 1613 H 152.266 -1.80117 2.39161 0
M  V30 1614 H 149.812 -0.865145 1.15114 0
M  V30 1615 H 151.765 -3.99702 1.33479 0
M  V30 1616 H 150.489 -3.24791 0.343279 0
M  V30 1617 H 149.148 -2.75539 2.41813 0
M  V30 1618 H 148.796 -4.89256 1.16778 0
M  V30 1619 H 148.496 -5.10426 2.911 0
M  V30 1620 H 150.02 -5.69873 2.19265 0
M  V30 1621 H 151.434 -4.2014 3.9007 0
M  V30 1622 H 149.831 -3.84523 4.60719 0
M  V30 1623 H 150.901 -2.50757 4.15029 0
M  V30 1624 N 152.244 -1.26651 -0.937939 0
M  V30 1625 C 153.491 -1.12387 -1.6845 0
M  V30 1626 C 153.819 0.332208 -1.91642 0
M  V30 1627 O 153.074 1.2602 -1.49725 0
M  V30 1628 C 153.373 -1.84168 -3.06295 0
M  V30 1629 C 153.039 -3.34056 -3.02849 0
M  V30 1630 C 151.701 -3.74942 -3.01616 0
M  V30 1631 C 154.053 -4.29741 -2.9491 0
M  V30 1632 C 151.381 -5.09894 -2.90215 0
M  V30 1633 C 153.733 -5.64738 -2.8505 0
M  V30 1634 C 152.397 -6.0493 -2.82162 0
M  V30 1635 H 151.667 -0.411252 -0.616403 0
M  V30 1636 H 154.314 -1.57134 -1.09459 0
M  V30 1637 H 152.619 -1.319 -3.6893 0
M  V30 1638 H 154.316 -1.70569 -3.62915 0
M  V30 1639 H 150.906 -3.01534 -3.0459 0
M  V30 1640 H 155.09 -3.99133 -2.94969 0
M  V30 1641 H 150.346 -5.40194 -2.86358 0
M  V30 1642 H 154.52 -6.38561 -2.77872 0
M  V30 1643 H 152.147 -7.09457 -2.73084 0
M  V30 1644 N 153.722 1.14298 -1.08507 0
M  V30 1645 C 154.652 2.21542 -0.737646 0
M  V30 1646 C 155.633 1.67773 0.280377 0
M  V30 1647 O 156.818 1.93616 0.150521 0
M  V30 1648 C 153.948 3.46988 -0.147259 0
M  V30 1649 C 152.902 4.13789 -1.09374 0
M  V30 1650 C 152.228 5.33449 -0.365524 0
M  V30 1651 C 153.528 4.62208 -2.4323 0
M  V30 1652 H 155.222 2.5086 -1.6343 0
M  V30 1653 H 152.768 1.20576 -0.787243 0
M  V30 1654 H 154.721 4.21262 0.107808 0
M  V30 1655 H 153.445 3.17037 0.784538 0
M  V30 1656 H 152.104 3.4147 -1.33393 0
M  V30 1657 H 151.752 4.99759 0.57011 0
M  V30 1658 H 151.452 5.79088 -0.996512 0
M  V30 1659 H 152.976 6.10485 -0.118534 0
M  V30 1660 H 154.39 5.27952 -2.23472 0
M  V30 1661 H 152.787 5.18553 -3.02031 0
M  V30 1662 H 153.857 3.77224 -3.04681 0
M  V30 1663 N 155.201 0.870884 1.31352 0
M  V30 1664 C 156.447 0.482987 1.96965 0
M  V30 1665 C 156.78 -0.962462 1.68672 0
M  V30 1666 O 156.055 -1.6779 0.98371 0
M  V30 1667 C 156.338 0.741752 3.52378 0
M  V30 1668 C 156.191 2.2368 3.9024 0
M  V30 1669 C 157.51 0.208838 4.39604 0
M  V30 1670 H 154.629 0.176955 0.715441 0
M  V30 1671 H 157.271 1.09229 1.55464 0
M  V30 1672 H 155.421 0.223149 3.87859 0
M  V30 1673 H 157.093 2.82273 3.64856 0
M  V30 1674 H 155.336 2.70901 3.38814 0
M  V30 1675 H 156.007 2.3685 4.98604 0
M  V30 1676 H 158.483 0.652529 4.10952 0
M  V30 1677 H 157.359 0.419336 5.47296 0
M  V30 1678 H 157.62 -0.889275 4.33064 0
M  V30 1679 N 156.679 -1.44442 0.630414 0
M  V30 1680 C 158.095 -1.56832 0.295973 0
M  V30 1681 C 158.295 -1.61806 -1.20088 0
M  V30 1682 O 157.351 -1.5607 -1.9849 0
M  V30 1683 C 158.664 -2.84031 0.987264 0
M  V30 1684 C 160.212 -2.97742 0.96534 0
M  V30 1685 C 160.687 -4.27743 1.63708 0
M  V30 1686 N 162.178 -4.34555 1.60364 0
M  V30 1687 C 162.913 -5.33862 2.09234 0
M  V30 1688 N 162.409 -6.39578 2.66292 0
M  V30 1689 N 164.202 -5.25366 1.99867 0
M  V30 1690 H 156.353 -1.39457 1.60205 0
M  V30 1691 H 158.616 -0.668237 0.672431 0
M  V30 1692 H 158.322 -2.86338 2.04215 0
M  V30 1693 H 158.196 -3.73534 0.524588 0
M  V30 1694 H 160.583 -2.94989 -0.0810639 0
M  V30 1695 H 160.664 -2.09589 1.4665 0
M  V30 1696 H 160.308 -4.31255 2.68293 0
M  V30 1697 H 160.238 -5.14752 1.11076 0
M  V30 1698 H 162.729 -3.58772 1.18705 0
M  V30 1699 H 163.042 -7.11637 3.01317 0
M  V30 1700 H 161.387 -6.40265 2.70343 0
M  V30 1701 H 164.578 -4.41688 1.55013 0
M  V30 1702 H 164.751 -6.02606 2.38265 0
M  V30 1703 N 158.157 -0.370918 -1.53173 0
M  V30 1704 C 159.067 0.480823 -2.2962 0
M  V30 1705 C 160.083 1.08789 -1.35798 0
M  V30 1706 O 161.259 1.09768 -1.68858 0
M  V30 1707 C 158.324 1.60227 -3.07454 0
M  V30 1708 C 157.385 1.0222 -4.16953 0
M  V30 1709 C 156.618 2.0902 -4.91066 0
M  V30 1710 O 156.841 3.30222 -4.65091 0
M  V30 1711 O 155.775 1.71778 -5.76867 0
M  V30 1712 H 159.601 -0.141421 -3.03371 0
M  V30 1713 H 157.186 -0.135146 -1.48787 0
M  V30 1714 H 159.068 2.25417 -3.56041 0
M  V30 1715 H 157.743 2.20982 -2.36535 0
M  V30 1716 H 156.65 0.334064 -3.72605 0
M  V30 1717 H 157.983 0.459131 -4.90054 0
M  V30 1718 N 159.635 1.57281 -0.100228 0
M  V30 1719 C 160.86 1.99302 0.573881 0
M  V30 1720 C 161.285 0.979059 1.60611 0
M  V30 1721 O 160.643 -0.0517803 1.81226 0
M  V30 1722 C 160.691 3.40274 1.19358 0
M  V30 1723 O 159.795 3.41676 2.30935 0
M  V30 1724 H 159.136 0.647944 0.145138 0
M  V30 1725 H 161.666 2.03779 -0.183156 0
M  V30 1726 H 161.676 3.78078 1.53365 0
M  V30 1727 H 160.351 4.13594 0.437385 0
M  V30 1728 H 158.928 3.15672 1.98509 0
M  V30 1729 N 161.113 -0.173488 1.56642 0
M  V30 1730 C 162.341 -0.906095 1.86004 0
M  V30 1731 C 162.756 -1.75921 0.685355 0
M  V30 1732 O 162.113 -1.79198 -0.345578 0
M  V30 1733 C 162.164 -1.78462 3.14378 0
M  V30 1734 O 161.885 -0.965914 4.27319 0
M  V30 1735 C 163.386 -2.62707 3.57071 0
M  V30 1736 H 160.606 -0.263341 0.617165 0
M  V30 1737 H 163.15 -0.174236 2.03756 0
M  V30 1738 H 161.305 -2.46984 2.98459 0
M  V30 1739 H 161.719 -1.56655 5.00559 0
M  V30 1740 H 163.193 -3.19969 4.49804 0
M  V30 1741 H 163.67 -3.37472 2.81086 0
M  V30 1742 H 164.276 -1.99521 3.75595 0
M  V30 1743 N 162.591 -1.51276 -0.441967 0
M  V30 1744 C 163.539 -1.72823 -1.55676 0
M  V30 1745 C 164.533 -0.59445 -1.58627 0
M  V30 1746 O 165.739 -0.775715 -1.62427 0
M  V30 1747 H 162.114 -0.545983 -0.517113 0
M  V30 1748 H 164.085 -2.6628 -1.34675 0
M  V30 1749 C 162.834 -1.86619 -2.93375 0
M  V30 1750 H 162.157 -2.73264 -2.91834 0
M  V30 1751 H 163.597 -2.05709 -3.70756 0
M  V30 1752 C 162.056 -0.624842 -3.31055 0
M  V30 1753 O 162.586 0.222636 -4.01083 0
M  V30 1754 N 160.792 -0.470288 -2.86769 0
M  V30 1755 H 160.339 -1.161 -2.29953 0
M  V30 1756 H 160.297 0.359051 -3.12343 0
M  V30 1757 N 164.069 0.697108 -1.41344 0
M  V30 1758 C 165.299 1.48377 -1.43763 0
M  V30 1759 C 165.707 1.89156 -0.0408726 0
M  V30 1760 O 165.05 1.57239 0.949812 0
M  V30 1761 C 165.112 2.7781 -2.2817 0
M  V30 1762 C 164.776 2.59244 -3.76353 0
M  V30 1763 C 165.773 2.25292 -4.68551 0
M  V30 1764 C 163.458 2.74933 -4.20378 0
M  V30 1765 C 165.452 2.07264 -6.02761 0
M  V30 1766 C 163.139 2.56521 -5.54653 0
M  V30 1767 C 164.137 2.22737 -6.4566 0
M  V30 1768 O 163.825 2.04485 -7.77458 0
M  V30 1769 H 163.557 0.463842 -0.491759 0
M  V30 1770 H 166.111 0.865934 -1.86255 0
M  V30 1771 H 164.341 3.41995 -1.8049 0
M  V30 1772 H 166.03 3.39608 -2.22309 0
M  V30 1773 H 166.796 2.12787 -4.35829 0
M  V30 1774 H 162.675 3.00213 -3.49848 0
M  V30 1775 H 166.219 1.80817 -6.73759 0
M  V30 1776 H 162.116 2.68616 -5.86955 0
M  V30 1777 H 162.884 2.1926 -7.88586 0
M  V30 1778 N 165.547 1.27147 0.931209 0
M  V30 1779 C 166.958 1.12044 1.49342 0
M  V30 1780 C 167.309 -0.295795 1.93957 0
M  V30 1781 O 166.434 -1.18835 1.80852 0
M  V30 1782 C 167.029 2.02781 2.71414 0
M  V30 1783 C 165.588 1.91794 3.2387 0
M  V30 1784 C 164.735 1.95543 1.96617 0
M  V30 1785 H 167.686 1.40091 0.745672 0
M  V30 1786 H 167.707 1.58156 3.46074 0
M  V30 1787 H 167.219 3.05848 2.38911 0
M  V30 1788 H 165.32 0.916992 3.6114 0
M  V30 1789 H 165.433 2.77852 3.90302 0
M  V30 1790 H 163.797 1.39722 2.12955 0
M  V30 1791 H 164.58 3.00259 1.66432 0
M  V30 1792 N 167.025 -1.13721 1.09112 0
M  V30 1793 C 168.273 -1.84559 0.823562 0
M  V30 1794 C 168.594 -1.83754 -0.652658 0
M  V30 1795 O 167.864 -1.29102 -1.47342 0
M  V30 1796 H 166.444 -0.683376 0.301673 0
M  V30 1797 H 169.106 -1.37771 1.37859 0
M  V30 1798 H 168.202 -2.8917 1.17419 0
M  V30 1799 N 168.503 -0.877838 -1.30888 0
M  V30 1800 C 169.78 -0.413052 -1.91189 0
M  V30 1801 C 170.16 1.1056 -1.79832 0
M  V30 1802 O 169.508 1.93771 -1.21099 0
M  V30 1803 C 169.718 -0.903191 -3.3711 0
M  V30 1804 C 171.066 -0.93395 -4.14201 0
M  V30 1805 O 172.09 -0.849373 -3.45925 0
M  V30 1806 O 170.949 -1.05772 -5.36167 0
M  V30 1807 H 168.043 -0.125035 -0.817493 0
M  V30 1808 H 170.589 -0.966269 -1.39504 0
M  V30 1809 H 169.361 -1.94692 -3.39427 0
M  V30 1810 H 168.984 -0.328732 -3.96239 0
M  V30 1811 N 169.982 1.44106 -0.638065 0
M  V30 1812 C 171.212 2.06037 -0.152394 0
M  V30 1813 C 171.62 1.47808 1.18108 0
M  V30 1814 O 170.963 0.598092 1.73691 0
M  V30 1815 C 171.025 3.59488 0.0293714 0
M  V30 1816 C 170.689 4.4022 -1.22702 0
M  V30 1817 C 171.686 4.73256 -2.15232 0
M  V30 1818 C 169.371 4.8048 -1.46437 0
M  V30 1819 C 171.365 5.45444 -3.29802 0
M  V30 1820 C 169.052 5.52417 -2.61303 0
M  V30 1821 C 170.05 5.84819 -3.52811 0
M  V30 1822 O 169.738 6.55289 -4.65673 0
M  V30 1823 H 169.47 0.671233 -0.0801401 0
M  V30 1824 H 172.024 1.85851 -0.874563 0
M  V30 1825 H 170.254 3.78191 0.806758 0
M  V30 1826 H 171.943 4.03164 0.470475 0
M  V30 1827 H 172.709 4.42684 -1.98131 0
M  V30 1828 H 168.588 4.54676 -0.760977 0
M  V30 1829 H 172.132 5.70653 -4.01249 0
M  V30 1830 H 168.029 5.82404 -2.78344 0
M  V30 1831 H 168.797 6.73762 -4.64744 0
M  V30 1832 N 171.46 0.379036 1.52974 0
M  V30 1833 C 172.688 -0.20679 2.05864 0
M  V30 1834 C 173.103 -1.41356 1.25155 0
M  V30 1835 O 172.46 -1.8009 0.295588 0
M  V30 1836 C 172.511 -0.587045 3.56702 0
M  V30 1837 O 172.232 0.571776 4.34353 0
M  V30 1838 C 173.733 -1.22983 4.25899 0
M  V30 1839 H 170.953 -0.0336123 0.670158 0
M  V30 1840 H 173.497 0.541298 1.97206 0
M  V30 1841 H 171.652 -1.28504 3.65466 0
M  V30 1842 H 172.066 0.261544 5.23847 0
M  V30 1843 H 173.54 -1.44635 5.32715 0
M  V30 1844 H 174.017 -2.19416 3.80465 0
M  V30 1845 H 174.623 -0.572892 4.21424 0
M  V30 1846 N 172.938 -1.57226 0.108567 0
M  V30 1847 C 173.868 -2.17778 -0.84232 0
M  V30 1848 C 174.849 -1.11487 -1.2847 0
M  V30 1849 O 176.034 -1.39681 -1.34918 0
M  V30 1850 C 173.164 -2.76888 -2.09644 0
M  V30 1851 C 172.118 -3.88669 -1.79221 0
M  V30 1852 C 171.444 -4.34541 -3.11574 0
M  V30 1853 C 172.744 -5.11251 -1.06864 0
M  V30 1854 H 174.438 -2.97489 -0.337774 0
M  V30 1855 H 171.984 -1.43097 -0.161025 0
M  V30 1856 H 173.937 -3.17904 -2.76614 0
M  V30 1857 H 172.661 -1.94451 -2.62405 0
M  V30 1858 H 171.32 -3.48213 -1.14644 0
M  V30 1859 H 170.968 -3.48977 -3.62249 0
M  V30 1860 H 170.668 -5.09914 -2.91996 0
M  V30 1861 H 172.192 -4.782 -3.7968 0
M  V30 1862 H 173.606 -5.49352 -1.63968 0
M  V30 1863 H 172.003 -5.9214 -0.974178 0
M  V30 1864 H 173.073 -4.8487 -0.0536168 0
M  V30 1865 N 174.416 0.165178 -1.56732 0
M  V30 1866 C 175.656 0.887231 -1.8414 0
M  V30 1867 C 176.02 1.79159 -0.690353 0
M  V30 1868 O 177.221 2.55172 -0.845032 0
M  V30 1869 C 175.492 1.65674 -3.16681 0
M  V30 1870 S 177.051 2.42671 -3.6559 0
M  V30 1871 H 173.869 0.297042 -0.645978 0
M  V30 1872 H 176.471 0.148439 -1.94936 0
M  V30 1873 H 175.175 0.983507 -3.98441 0
M  V30 1874 H 174.706 2.43679 -3.08843 0
M  V30 1875 H 176.721 3.67499 -3.33406 0
M  V30 1876 N 175.894 1.51508 0.433938 0
M  V30 1877 C 177.14 1.64588 1.18484 0
M  V30 1878 C 177.473 0.362666 1.90784 0
M  V30 1879 O 176.748 -0.637892 1.83742 0
M  V30 1880 C 177.031 2.85149 2.19913 0
M  V30 1881 C 176.884 4.23456 1.51674 0
M  V30 1882 C 178.203 3.01227 3.20858 0
M  V30 1883 H 175.322 0.598994 0.429389 0
M  V30 1884 H 177.964 1.84002 0.473647 0
M  V30 1885 H 176.114 2.68729 2.80566 0
M  V30 1886 H 177.786 4.51552 0.943322 0
M  V30 1887 H 176.029 4.25998 0.819035 0
M  V30 1888 H 176.7 5.03812 2.2556 0
M  V30 1889 H 179.176 3.16382 2.70263 0
M  V30 1890 H 178.052 3.87141 3.89118 0
M  V30 1891 H 178.313 2.13447 3.8716 0
M  V30 1892 N 177.372 -0.689602 1.41712 0
M  V30 1893 C 178.597 -1.48329 1.44959 0
M  V30 1894 C 179.022 -1.8801 0.0581283 0
M  V30 1895 O 178.38 -1.55026 -0.940035 0
M  V30 1896 C 178.428 -2.71835 2.36935 0
M  V30 1897 O 177.532 -3.69549 1.8305 0
M  V30 1898 H 176.873 -0.446199 0.491734 0
M  V30 1899 H 179.403 -0.847127 1.86239 0
M  V30 1900 H 179.413 -3.20076 2.53013 0
M  V30 1901 H 178.088 -2.42291 3.38035 0
M  V30 1902 H 176.665 -3.2851 1.76452 0
M  V30 1903 N 178.85 -1.27639 -0.924453 0
M  V30 1904 C 180.09 -1.15407 -1.68703 0
M  V30 1905 C 180.454 0.294581 -1.89727 0
M  V30 1906 O 181.655 0.539385 -2.63333 0
M  V30 1907 C 179.926 -1.9195 -3.0148 0
M  V30 1908 S 181.485 -1.95969 -3.92609 0
M  V30 1909 H 178.303 -0.411937 -0.579507 0
M  V30 1910 H 180.905 -1.61592 -1.10038 0
M  V30 1911 H 179.609 -2.96387 -2.83871 0
M  V30 1912 H 179.14 -1.46272 -3.65196 0
M  V30 1913 H 181.155 -1.05846 -4.84779 0
M  V30 1914 N 180.328 1.1314 -1.09713 0
M  V30 1915 C 181.605 1.80762 -0.747302 0
M  V30 1916 C 181.985 1.96663 0.767265 0
M  V30 1917 O 181.333 1.53706 1.69076 0
M  V30 1918 C 181.543 3.15606 -1.48975 0
M  V30 1919 C 182.891 3.90914 -1.65746 0
M  V30 1920 O 183.915 3.25239 -1.45251 0
M  V30 1921 O 182.774 5.08718 -1.9967 0
M  V30 1922 H 179.868 0.782103 -0.268782 0
M  V30 1923 H 182.414 1.20041 -1.19951 0
M  V30 1924 H 181.186 2.99278 -2.52088 0
M  V30 1925 H 180.809 3.84029 -1.02991 0
M  V30 1926 N 181.806 0.884767 1.30421 0
M  V30 1927 C 183.054 0.502112 1.95763 0
M  V30 1928 C 183.375 -0.951815 1.70192 0
M  V30 1929 O 182.645 -1.6692 1.0254 0
M  V30 1930 H 181.225 0.182694 0.724315 0
M  V30 1931 H 183.887 1.1278 1.58955 0
M  V30 1932 H 182.983 0.672188 3.04775 0
M  V30 1933 N 183.284 -1.43765 0.645699 0
M  V30 1934 C 184.231 -2.30745 -0.0504648 0
M  V30 1935 C 185.201 -1.4432 -0.822241 0
M  V30 1936 O 186.386 -1.73202 -0.800358 0
M  V30 1937 C 183.526 -3.29802 -1.0161 0
M  V30 1938 C 182.639 -4.31326 -0.241219 0
M  V30 1939 C 181.774 -5.17469 -1.19998 0
M  V30 1940 C 180.813 -6.10691 -0.415094 0
M  V30 1941 N 179.95 -6.89483 -1.32506 0
M  V30 1942 H 184.79 -2.8973 0.697155 0
M  V30 1943 H 182.327 -1.42738 0.355563 0
M  V30 1944 H 184.285 -3.85734 -1.58949 0
M  V30 1945 H 182.915 -2.72483 -1.73069 0
M  V30 1946 H 181.967 -3.77749 0.448334 0
M  V30 1947 H 183.279 -4.9743 0.369437 0
M  V30 1948 H 182.433 -5.7799 -1.84424 0
M  V30 1949 H 181.172 -4.51473 -1.84455 0
M  V30 1950 H 180.177 -5.49265 0.242565 0
M  V30 1951 H 181.402 -6.78727 0.224966 0
M  V30 1952 H 179.348 -6.26142 -1.95657 0
M  V30 1953 H 179.265 -7.52081 -0.768783 0
M  V30 1954 H 180.533 -7.54516 -1.9577 0
M  V30 1955 N 184.763 -0.387143 -1.52771 0
M  V30 1956 C 186.009 0.196025 -2.0185 0
M  V30 1957 C 186.342 1.46641 -1.27319 0
M  V30 1958 O 185.617 1.90889 -0.373032 0
M  V30 1959 C 185.9 0.466136 -3.5707 0
M  V30 1960 C 185.753 -0.819385 -4.42274 0
M  V30 1961 C 187.072 1.25768 -4.21747 0
M  V30 1962 H 184.191 0.0697708 -0.73369 0
M  V30 1963 H 186.833 -0.516286 -1.82851 0
M  V30 1964 H 184.983 1.07293 -3.7339 0
M  V30 1965 H 186.655 -1.4563 -4.37709 0
M  V30 1966 H 184.898 -1.43517 -4.09372 0
M  V30 1967 H 185.569 -0.585065 -5.48891 0
M  V30 1968 H 188.045 0.744167 -4.09391 0
M  V30 1969 H 186.921 1.41541 -5.30337 0
M  V30 1970 H 187.182 2.27228 -3.79236 0
M  V30 1971 N 186.241 1.57166 -0.116904 0
M  V30 1972 C 187.151 2.18745 0.847812 0
M  V30 1973 C 188.167 1.163 1.29423 0
M  V30 1974 O 189.343 1.48761 1.35765 0
M  V30 1975 C 186.408 2.77307 2.0809 0
M  V30 1976 C 185.469 3.94781 1.68661 0
M  V30 1977 C 184.702 4.50541 2.86091 0
M  V30 1978 O 184.925 4.05202 4.01456 0
M  V30 1979 O 183.859 5.41256 2.63298 0
M  V30 1980 H 187.685 3.01632 0.353778 0
M  V30 1981 H 185.27 1.49005 0.108599 0
M  V30 1982 H 187.152 3.14647 2.80313 0
M  V30 1983 H 185.827 1.97452 2.56504 0
M  V30 1984 H 184.734 3.62214 0.935518 0
M  V30 1985 H 186.067 4.76065 1.24991 0
M  V30 1986 N 187.719 -0.156864 1.56817 0
M  V30 1987 C 188.669 -1.19891 1.93934 0
M  V30 1988 C 189.653 -1.39061 0.809372 0
M  V30 1989 O 190.845 -1.40789 1.07273 0
M  V30 1990 C 187.974 -2.53493 2.31508 0
M  V30 1991 C 187.06 -2.37957 3.51052 0
M  V30 1992 N 187.451 -1.92158 4.67877 0
M  V30 1993 C 185.749 -2.68739 3.55943 0
M  V30 1994 C 186.45 -1.8943 5.49992 0
M  V30 1995 N 185.426 -2.32375 4.91429 0
M  V30 1996 H 189.228 -0.836746 2.81737 0
M  V30 1997 H 186.742 -0.365012 1.58245 0
M  V30 1998 H 188.739 -3.28811 2.56299 0
M  V30 1999 H 187.399 -2.905 1.45051 0
M  V30 2000 H 188.41 -1.62274 4.91821 0
M  V30 2001 H 185.087 -3.09687 2.80001 0
M  V30 2002 H 186.477 -1.55596 6.53636 0
M  V30 2003 N 189.197 -1.51736 -0.425897 0
M  V30 2004 C 190.427 -1.68549 -1.19476 0
M  V30 2005 C 190.835 -0.387288 -1.85194 0
M  V30 2006 O 190.178 0.645142 -1.71999 0
M  V30 2007 C 190.24 -2.75275 -2.31223 0
M  V30 2008 C 189.904 -4.17534 -1.8578 0
M  V30 2009 C 190.901 -5.01936 -1.35485 0
M  V30 2010 C 188.586 -4.6369 -1.93123 0
M  V30 2011 C 190.58 -6.30559 -0.931347 0
M  V30 2012 C 188.267 -5.92307 -1.50384 0
M  V30 2013 C 189.265 -6.75569 -1.00473 0
M  V30 2014 O 188.953 -8.0178 -0.583452 0
M  V30 2015 H 188.685 -0.568525 -0.365725 0
M  V30 2016 H 191.239 -1.98982 -0.509444 0
M  V30 2017 H 189.469 -2.40182 -3.03067 0
M  V30 2018 H 191.158 -2.80853 -2.93047 0
M  V30 2019 H 191.924 -4.67475 -1.29197 0
M  V30 2020 H 187.803 -3.98997 -2.30916 0
M  V30 2021 H 191.347 -6.95498 -0.541084 0
M  V30 2022 H 187.244 -6.2628 -1.56346 0
M  V30 2023 H 188.012 -8.1543 -0.708275 0
M  V30 2024 N 190.675 0.682077 -1.42076 0
M  V30 2025 C 192.091 0.994324 -1.24841 0
M  V30 2026 C 192.291 2.0096 -0.147389 0
M  V30 2027 O 191.347 2.47822 0.483782 0
M  V30 2028 C 192.66 1.50607 -2.60265 0
M  V30 2029 C 194.208 1.62421 -2.6756 0
M  V30 2030 C 194.683 2.16994 -4.03333 0
M  V30 2031 N 196.174 2.24337 -4.0525 0
M  V30 2032 C 196.909 2.67621 -5.07116 0
M  V30 2033 N 196.405 3.1041 -6.19368 0
M  V30 2034 N 198.198 2.67305 -4.94474 0
M  V30 2035 H 190.349 0.00973908 -2.12398 0
M  V30 2036 H 192.612 0.0668593 -0.945639 0
M  V30 2037 H 192.318 0.834583 -3.41654 0
M  V30 2038 H 192.192 2.48602 -2.83684 0
M  V30 2039 H 194.579 2.28678 -1.86521 0
M  V30 2040 H 194.66 0.629352 -2.47937 0
M  V30 2041 H 194.304 1.51349 -4.84826 0
M  V30 2042 H 194.234 3.17258 -4.20304 0
M  V30 2043 H 196.725 1.94158 -3.24209 0
M  V30 2044 H 197.038 3.42103 -6.92954 0
M  V30 2045 H 195.383 3.08286 -6.22884 0
M  V30 2046 H 198.574 2.33233 -4.05857 0
M  V30 2047 H 198.747 3.00718 -5.73997 0
M  V30 2048 N 192.153 1.28127 0.917671 0
M  V30 2049 C 193.402 1.14432 1.66097 0
M  V30 2050 C 193.715 -0.307247 1.93172 0
M  V30 2051 O 194.921 -0.565259 2.65551 0
M  V30 2052 C 193.377 2.00015 2.99202 0
M  V30 2053 C 192.985 3.49889 2.79789 0
M  V30 2054 C 194.729 1.94996 3.77064 0
M  V30 2055 C 192.636 4.27636 4.08511 0
M  V30 2056 H 191.566 0.424662 0.62304 0
M  V30 2057 H 194.217 1.52628 1.01868 0
M  V30 2058 H 192.599 1.54672 3.64544 0
M  V30 2059 H 193.773 4.03162 2.23152 0
M  V30 2060 H 192.088 3.56392 2.15345 0
M  V30 2061 H 194.685 2.50354 4.72469 0
M  V30 2062 H 195.028 0.925819 4.05875 0
M  V30 2063 H 195.561 2.38287 3.18534 0
M  V30 2064 H 192.3 5.30615 3.84874 0
M  V30 2065 H 191.82 3.79137 4.64774 0
M  V30 2066 H 193.499 4.37346 4.76799 0
M  V30 2067 N 193.631 -1.12557 1.10312 0
M  V30 2068 C 194.564 -2.1737 0.694674 0
M  V30 2069 C 195.542 -1.59745 -0.303373 0
M  V30 2070 O 196.726 -1.87408 -0.202578 0
M  V30 2071 C 193.853 -3.38691 0.0248052 0
M  V30 2072 C 192.899 -4.14943 0.986121 0
M  V30 2073 S 193.732 -4.73413 2.50281 0
M  V30 2074 C 194.888 -5.9807 1.84562 0
M  V30 2075 H 195.121 -2.5168 1.58255 0
M  V30 2076 H 192.654 -1.23998 0.919992 0
M  V30 2077 H 194.612 -4.08959 -0.355361 0
M  V30 2078 H 193.273 -3.02664 -0.839851 0
M  V30 2079 H 192.466 -5.01854 0.464651 0
M  V30 2080 H 192.068 -3.50377 1.30813 0
M  V30 2081 H 194.36 -6.67232 1.17507 0
M  V30 2082 H 195.303 -6.54841 2.69423 0
M  V30 2083 H 195.711 -5.49073 1.31069 0
M  V30 2084 N 195.109 -0.891671 -1.2995 0
M  V30 2085 C 196.339 -0.527893 -1.99742 0
M  V30 2086 C 196.747 0.88979 -1.66971 0
M  V30 2087 O 196.09 1.59766 -0.906667 0
M  V30 2088 C 196.152 -0.630804 -3.53922 0
M  V30 2089 C 195.816 -2.01401 -4.10228 0
M  V30 2090 C 196.813 -2.98422 -4.25724 0
M  V30 2091 C 194.498 -2.32121 -4.45449 0
M  V30 2092 C 196.492 -4.24293 -4.75662 0
M  V30 2093 C 194.179 -3.58237 -4.95086 0
M  V30 2094 C 195.177 -4.54137 -5.10146 0
M  V30 2095 O 194.865 -5.78014 -5.58708 0
M  V30 2096 H 194.597 -0.201953 -0.645129 0
M  V30 2097 H 197.151 -1.20076 -1.66646 0
M  V30 2098 H 195.381 0.0990616 -3.86573 0
M  V30 2099 H 197.07 -0.277338 -4.04951 0
M  V30 2100 H 197.836 -2.76001 -3.98809 0
M  V30 2101 H 193.715 -1.5824 -4.32991 0
M  V30 2102 H 197.259 -4.99153 -4.87332 0
M  V30 2103 H 193.156 -3.80491 -5.21437 0
M  V30 2104 H 193.924 -5.8049 -5.77039 0
M  V30 2105 N 196.587 1.43421 -0.653314 0
M  V30 2106 C 197.537 2.2792 0.060558 0
M  V30 2107 C 198.521 1.39906 0.794677 0
M  V30 2108 O 199.713 1.63536 0.677128 0
M  V30 2109 C 196.842 3.27603 1.0262 0
M  V30 2110 C 195.928 4.23104 0.290551 0
M  V30 2111 N 196.319 5.01031 -0.692967 0
M  V30 2112 C 194.617 4.42816 0.531984 0
M  V30 2113 C 195.318 5.70626 -1.12963 0
M  V30 2114 N 194.294 5.41617 -0.463867 0
M  V30 2115 H 198.096 2.85585 -0.694143 0
M  V30 2116 H 195.61 1.55126 -0.480602 0
M  V30 2117 H 197.607 3.86918 1.55242 0
M  V30 2118 H 196.267 2.71499 1.78096 0
M  V30 2119 H 197.278 5.0669 -1.07169 0
M  V30 2120 H 193.955 3.97782 1.26791 0
M  V30 2121 H 195.345 6.4318 -1.94343 0
M  V30 2122 N 198.065 0.39524 1.52563 0
M  V30 2123 C 199.028 -0.425001 2.25225 0
M  V30 2124 C 200.028 -0.985266 1.27079 0
M  V30 2125 O 201.218 -0.866332 1.5113 0
M  V30 2126 C 198.35 -1.59686 3.01186 0
M  V30 2127 H 199.543 0.211233 2.99155 0
M  V30 2128 H 197.096 0.147472 1.55603 0
M  V30 2129 H 197.831 -2.27035 2.31572 0
M  V30 2130 H 197.616 -1.20176 3.73229 0
M  V30 2131 H 199.106 -2.17743 3.5634 0
M  V30 2132 N 199.544 -1.57102 0.125237 0
M  V30 2133 C 200.769 -2.0019 -0.542101 0
M  V30 2134 C 201.194 -1.00449 -1.59034 0
M  V30 2135 O 200.552 0.0229423 -1.81285 0
M  V30 2136 C 200.6 -3.42129 -1.13929 0
M  V30 2137 O 199.704 -3.45307 -2.2547 0
M  V30 2138 H 199.045 -0.650171 -0.134812 0
M  V30 2139 H 201.575 -2.03461 0.215553 0
M  V30 2140 H 201.585 -3.80471 -1.4733 0
M  V30 2141 H 200.26 -4.14237 -0.371531 0
M  V30 2142 H 198.837 -3.1879 -1.93462 0
M  V30 2143 N 201.022 0.148545 -1.56898 0
M  V30 2144 C 201.969 1.18345 -1.98149 0
M  V30 2145 C 202.939 1.42772 -0.848848 0
M  V30 2146 O 204.124 1.55132 -1.11079 0
M  V30 2147 C 201.264 2.51231 -2.36594 0
M  V30 2148 C 200.377 2.33991 -3.63142 0
M  V30 2149 C 199.512 3.59902 -3.90697 0
M  V30 2150 C 198.551 3.37692 -5.1052 0
M  V30 2151 N 197.688 4.5573 -5.34092 0
M  V30 2152 H 202.528 0.82467 -2.86362 0
M  V30 2153 H 200.065 0.395756 -1.41676 0
M  V30 2154 H 202.023 3.28713 -2.56912 0
M  V30 2155 H 200.653 2.85059 -1.51463 0
M  V30 2156 H 199.705 1.47572 -3.50609 0
M  V30 2157 H 201.017 2.13539 -4.5078 0
M  V30 2158 H 200.171 4.45813 -4.11505 0
M  V30 2159 H 198.91 3.83357 -3.01477 0
M  V30 2160 H 197.915 2.5017 -4.89587 0
M  V30 2161 H 199.14 3.15637 -6.0129 0
M  V30 2162 H 197.086 4.79361 -4.47827 0
M  V30 2163 H 197.003 4.38274 -6.15996 0
M  V30 2164 H 198.271 5.42858 -5.59397 0
M  V30 2165 N 202.5 1.5196 0.417844 0
M  V30 2166 C 203.43 1.77634 1.51554 0
M  V30 2167 C 204.411 0.626918 1.58126 0
M  V30 2168 O 205.596 0.871632 1.7354 0
M  V30 2169 C 202.726 1.91911 2.8946 0
M  V30 2170 C 201.68 3.07463 2.97743 0
M  V30 2171 C 201.006 3.06951 4.37819 0
M  V30 2172 C 202.306 4.47082 2.70027 0
M  V30 2173 H 204 2.6955 1.3032 0
M  V30 2174 H 201.546 1.29706 0.625492 0
M  V30 2175 H 203.499 2.08455 3.6623 0
M  V30 2176 H 202.223 0.966598 3.11969 0
M  V30 2177 H 200.882 2.90656 2.23416 0
M  V30 2178 H 200.53 2.09438 4.57323 0
M  V30 2179 H 200.23 3.84556 4.44286 0
M  V30 2180 H 201.754 3.25613 5.16535 0
M  V30 2181 H 203.168 4.6414 3.36522 0
M  V30 2182 H 201.565 5.2654 2.87881 0
M  V30 2183 H 202.635 4.55777 1.65514 0
M  V30 2184 N 203.978 -0.674533 1.42435 0
M  V30 2185 C 205.203 -1.46784 1.46524 0
M  V30 2186 C 205.628 -1.87938 0.078066 0
M  V30 2187 O 204.986 -1.56014 -0.92354 0
M  V30 2188 C 205.034 -2.69307 2.39805 0
M  V30 2189 O 204.138 -3.67587 1.86959 0
M  V30 2190 H 203.479 -0.440959 0.496439 0
M  V30 2191 H 206.009 -0.827326 1.87127 0
M  V30 2192 H 206.019 -3.17374 2.56393 0
M  V30 2193 H 204.694 -2.38692 3.40586 0
M  V30 2194 H 203.271 -3.2662 1.79927 0
M  V30 2195 N 205.456 -1.28612 -0.910864 0
M  V30 2196 C 206.705 -1.15311 -1.65488 0
M  V30 2197 C 207.018 0.296999 -1.93332 0
M  V30 2198 O 208.224 0.551168 -2.65847 0
M  V30 2199 C 206.68 -2.01599 -2.98137 0
M  V30 2200 C 206.288 -3.51367 -2.7793 0
M  V30 2201 C 208.032 -1.96993 -3.76024 0
M  V30 2202 C 205.939 -4.29797 -4.06237 0
M  V30 2203 H 204.869 -0.42796 -0.620779 0
M  V30 2204 H 207.52 -1.53166 -1.01057 0
M  V30 2205 H 205.902 -1.56603 -3.63719 0
M  V30 2206 H 207.076 -4.0434 -2.21011 0
M  V30 2207 H 205.391 -3.57529 -2.13452 0
M  V30 2208 H 207.988 -2.52856 -4.71135 0
M  V30 2209 H 208.331 -0.94733 -4.05378 0
M  V30 2210 H 208.864 -2.39973 -3.17266 0
M  V30 2211 H 205.603 -5.32648 -3.82055 0
M  V30 2212 H 205.123 -3.81596 -4.62757 0
M  V30 2213 H 206.802 -4.39869 -4.74473 0
M  V30 2214 N 206.934 1.1197 -1.10907 0
M  V30 2215 C 208.211 1.79959 -0.766432 0
M  V30 2216 C 208.591 1.97466 0.746363 0
M  V30 2217 O 207.939 1.55491 1.67436 0
M  V30 2218 C 208.149 3.14009 -1.52314 0
M  V30 2219 C 209.497 3.89134 -1.69883 0
M  V30 2220 O 210.521 3.2368 -1.48692 0
M  V30 2221 O 209.38 5.06572 -2.05054 0
M  V30 2222 H 206.474 0.779208 -0.277062 0
M  V30 2223 H 209.02 1.18762 -1.21217 0
M  V30 2224 H 207.792 2.96587 -2.55249 0
M  V30 2225 H 207.415 3.82915 -1.07059 0
M  V30 2226 N 208.412 0.89855 1.29475 0
M  V30 2227 C 209.322 0.379974 2.31502 0
M  V30 2228 C 210.338 -0.524695 1.659 0
M  V30 2229 O 211.514 -0.414551 1.97087 0
M  V30 2230 C 208.579 -0.385138 3.44554 0
M  V30 2231 C 207.64 0.550914 4.2575 0
M  V30 2232 C 206.873 -0.177778 5.33404 0
M  V30 2233 O 207.096 -1.40189 5.52904 0
M  V30 2234 O 206.03 0.479106 5.9999 0
M  V30 2235 H 209.856 1.22639 2.77837 0
M  V30 2236 H 207.441 0.662834 1.33891 0
M  V30 2237 H 209.323 -0.817841 4.13388 0
M  V30 2238 H 207.998 -1.20763 3.0033 0
M  V30 2239 H 206.905 1.03271 3.59564 0
M  V30 2240 H 208.238 1.33979 4.73614 0
M  V30 2241 N 209.89 -1.43072 0.660911 0
M  V30 2242 C 210.8 -2.34585 -0.0264163 0
M  V30 2243 C 211.816 -1.54316 -0.803898 0
M  V30 2244 O 212.992 -1.86939 -0.749391 0
M  V30 2245 C 210.057 -3.32689 -0.975639 0
M  V30 2246 C 209.118 -4.2886 -0.194236 0
M  V30 2247 C 208.351 -5.22278 -1.09825 0
M  V30 2248 O 208.574 -5.20299 -2.33763 0
M  V30 2249 O 207.508 -5.99228 -0.566513 0
M  V30 2250 H 211.334 -2.94869 0.727034 0
M  V30 2251 H 208.919 -1.43342 0.42111 0
M  V30 2252 H 210.801 -3.92995 -1.52094 0
M  V30 2253 H 209.476 -2.74898 -1.70918 0
M  V30 2254 H 208.383 -3.72011 0.394835 0
M  V30 2255 H 209.716 -4.89655 0.499899 0
M  V30 2256 N 211.368 -0.403325 -1.52352 0
M  V30 2257 C 212.614 0.174605 -2.02047 0
M  V30 2258 C 212.947 1.45282 -1.28867 0
M  V30 2259 O 212.222 1.90483 -0.393257 0
M  V30 2260 C 212.505 0.428238 -3.57545 0
M  V30 2261 C 212.358 -0.866248 -4.4138 0
M  V30 2262 C 213.677 1.21287 -4.23057 0
M  V30 2263 H 210.796 0.0619851 -0.734389 0
M  V30 2264 H 213.438 -0.53565 -1.82293 0
M  V30 2265 H 211.588 1.03327 -3.74507 0
M  V30 2266 H 213.26 -1.50265 -4.3614 0
M  V30 2267 H 211.503 -1.47851 -4.07827 0
M  V30 2268 H 212.174 -0.643249 -5.48239 0
M  V30 2269 H 214.65 0.700703 -4.10158 0
M  V30 2270 H 213.526 1.35909 -5.31808 0
M  V30 2271 H 213.787 2.23193 -3.81625 0
M  V30 2272 N 212.846 1.57033 -0.133567 0
M  V30 2273 C 214.076 1.99754 0.527429 0
M  V30 2274 C 214.484 1.01245 1.59832 0
M  V30 2275 O 213.827 -0.000645496 1.837 0
M  V30 2276 C 213.889 3.38903 1.19939 0
M  V30 2277 C 213.553 4.56174 0.274709 0
M  V30 2278 C 214.55 5.17563 -0.492398 0
M  V30 2279 C 212.235 5.01972 0.18153 0
M  V30 2280 C 214.229 6.2315 -1.34027 0
M  V30 2281 C 211.916 6.07416 -0.669958 0
M  V30 2282 C 212.914 6.67874 -1.42947 0
M  V30 2283 O 212.602 7.71279 -2.2668 0
M  V30 2284 H 212.334 0.660702 0.142999 0
M  V30 2285 H 214.888 2.04207 -0.221099 0
M  V30 2286 H 213.118 3.31248 1.99528 0
M  V30 2287 H 214.807 3.65818 1.75875 0
M  V30 2288 H 215.573 4.83087 -0.430367 0
M  V30 2289 H 211.452 4.54652 0.762422 0
M  V30 2290 H 214.996 6.70268 -1.93357 0
M  V30 2291 H 210.893 6.41321 -0.73333 0
M  V30 2292 H 211.661 7.88441 -2.1978 0
M  V30 2293 N 214.325 -0.140222 1.56975 0
M  V30 2294 C 215.572 -0.851687 1.83719 0
M  V30 2295 C 215.9 -1.80862 0.715485 0
M  V30 2296 O 215.155 -1.93464 -0.294956 0
M  V30 2297 C 215.454 -1.65386 3.16832 0
M  V30 2298 C 215.12 -0.843112 4.42947 0
M  V30 2299 C 213.782 -0.619464 4.77196 0
M  V30 2300 C 216.134 -0.276582 5.20466 0
M  V30 2301 C 213.462 0.181312 5.8642 0
M  V30 2302 C 215.814 0.51127 6.30531 0
M  V30 2303 C 214.478 0.745432 6.63325 0
M  V30 2304 H 213.748 -0.311654 0.672274 0
M  V30 2305 H 216.395 -0.115006 1.91154 0
M  V30 2306 H 214.7 -2.46084 3.04877 0
M  V30 2307 H 216.397 -2.20793 3.34741 0
M  V30 2308 H 212.987 -1.0275 4.16101 0
M  V30 2309 H 217.171 -0.436632 4.94376 0
M  V30 2310 H 212.427 0.372165 6.10266 0
M  V30 2311 H 216.601 0.957354 6.89788 0
M  V30 2312 H 214.228 1.36778 7.47794 0
M  V30 2313 N 215.803 -1.52179 -0.40978 0
M  V30 2314 C 216.713 -1.78364 -1.52392 0
M  V30 2315 C 217.729 -0.669183 -1.60617 0
M  V30 2316 O 218.905 -0.954518 -1.77344 0
M  V30 2317 C 215.97 -1.92822 -2.88133 0
M  V30 2318 C 215.031 -3.16725 -2.898 0
M  V30 2319 C 214.264 -3.30483 -4.19067 0
M  V30 2320 O 214.487 -2.49522 -5.12928 0
M  V30 2321 O 213.421 -4.2363 -4.27576 0
M  V30 2322 H 217.247 -2.72931 -1.33201 0
M  V30 2323 H 214.832 -1.37016 -0.59557 0
M  V30 2324 H 216.714 -2.04157 -3.68643 0
M  V30 2325 H 215.389 -1.01444 -3.07393 0
M  V30 2326 H 214.296 -3.10848 -2.08146 0
M  V30 2327 H 215.629 -4.07881 -2.75489 0
M  V30 2328 N 217.281 0.66697 -1.42791 0
M  V30 2329 C 218.229 1.80157 -1.47127 0
M  V30 2330 C 219.223 1.65825 -0.346199 0
M  V30 2331 O 220.429 1.72338 -0.519572 0
M  V30 2332 H 216.804 0.594158 -0.460956 0
M  V30 2333 H 218.775 1.73619 -2.42692 0
M  V30 2334 C 217.524 3.18351 -1.39813 0
M  V30 2335 H 216.847 3.3001 -2.25684 0
M  V30 2336 H 218.287 3.97736 -1.46908 0
M  V30 2337 C 216.746 3.36707 -0.11391 0
M  V30 2338 O 217.276 3.93027 0.830241 0
M  V30 2339 N 215.482 2.90586 -0.0285295 0
M  V30 2340 H 215.029 2.4494 -0.79764 0
M  V30 2341 H 214.987 3.03245 0.830063 0
M  V30 2342 N 218.759 1.29093 0.90403 0
M  V30 2343 C 219.689 1.16401 2.02418 0
M  V30 2344 C 220.67 0.0593085 1.69997 0
M  V30 2345 O 221.855 0.238021 1.92736 0
M  V30 2346 C 218.985 0.835233 3.37107 0
M  V30 2347 C 217.939 1.89578 3.83724 0
M  V30 2348 C 217.265 1.42041 5.15489 0
M  V30 2349 C 218.565 3.30394 4.04521 0
M  V30 2350 H 220.259 2.10109 2.13295 0
M  V30 2351 H 217.805 1.01157 1.02486 0
M  V30 2352 H 219.758 0.733169 4.14973 0
M  V30 2353 H 218.482 -0.137543 3.2631 0
M  V30 2354 H 217.141 1.98715 3.08071 0
M  V30 2355 H 216.789 0.436426 5.01103 0
M  V30 2356 H 216.489 2.12964 5.4765 0
M  V30 2357 H 218.013 1.33176 5.959 0
M  V30 2358 H 219.427 3.24123 4.72882 0
M  V30 2359 H 217.824 3.99237 4.48029 0
M  V30 2360 H 218.894 3.73692 3.09002 0
M  V30 2361 N 220.237 -1.11381 1.11499 0
M  V30 2362 C 221.17 -2.16621 0.71769 0
M  V30 2363 C 222.148 -1.60058 -0.286413 0
M  V30 2364 O 223.332 -1.87613 -0.182689 0
M  V30 2365 C 220.459 -3.38646 0.0607265 0
M  V30 2366 C 219.505 -4.13874 1.03008 0
M  V30 2367 S 220.338 -4.70731 2.55289 0
M  V30 2368 C 221.494 -5.96079 1.90895 0
M  V30 2369 H 221.727 -2.49987 1.60915 0
M  V30 2370 H 219.26 -1.23015 0.933092 0
M  V30 2371 H 221.218 -4.09313 -0.311965 0
M  V30 2372 H 219.879 -3.03537 -0.807702 0
M  V30 2373 H 219.072 -5.01333 0.517853 0
M  V30 2374 H 218.674 -3.4897 1.34522 0
M  V30 2375 H 220.966 -6.65948 1.24577 0
M  V30 2376 H 221.909 -6.51946 2.76354 0
M  V30 2377 H 222.317 -5.47652 1.36885 0
M  V30 2378 N 221.715 -0.905404 -1.28997 0
M  V30 2379 C 222.647 -0.344748 -2.26592 0
M  V30 2380 C 223.66 0.512135 -1.54535 0
M  V30 2381 O 224.849 0.328368 -1.75454 0
M  V30 2382 C 221.949 0.526587 -3.34784 0
M  V30 2383 C 221.122 -0.305871 -4.36329 0
M  V30 2384 C 220.181 0.499209 -5.23827 0
M  V30 2385 O 219.207 -0.0853004 -5.69136 0
M  V30 2386 N 220.409 1.80408 -5.51755 0
M  V30 2387 H 223.174 -1.18359 -2.75338 0
M  V30 2388 H 220.735 -0.770481 -1.42391 0
M  V30 2389 H 222.727 1.07171 -3.90252 0
M  V30 2390 H 221.297 1.26613 -2.85811 0
M  V30 2391 H 220.517 -1.0324 -3.80441 0
M  V30 2392 H 221.805 -0.875773 -5.01206 0
M  V30 2393 H 221.203 2.3016 -5.16762 0
M  V30 2394 H 219.76 2.29621 -6.10014 0
M  V30 2395 N 223.193 1.4272 -0.668489 0
M  V30 2396 C 224.123 2.335 -0.000100175 0
M  V30 2397 C 225.104 1.50328 0.795964 0
M  V30 2398 O 226.289 1.78949 0.754385 0
M  V30 2399 C 223.419 3.33874 0.956302 0
M  V30 2400 C 222.373 4.27152 0.269278 0
M  V30 2401 C 221.699 5.17684 1.33818 0
M  V30 2402 C 222.999 5.15373 -0.847805 0
M  V30 2403 H 224.693 2.89639 -0.758244 0
M  V30 2404 H 222.239 1.39269 -0.366079 0
M  V30 2405 H 224.192 3.9629 1.43292 0
M  V30 2406 H 222.916 2.76025 1.74579 0
M  V30 2407 H 221.575 3.66123 -0.187042 0
M  V30 2408 H 221.223 4.56165 2.1195 0
M  V30 2409 H 220.923 5.80918 0.883659 0
M  V30 2410 H 222.447 5.82974 1.81586 0
M  V30 2411 H 223.861 5.7151 -0.452681 0
M  V30 2412 H 222.258 5.87407 -1.22773 0
M  V30 2413 H 223.328 4.5415 -1.69929 0
M  V30 2414 N 224.671 0.411399 1.52136 0
M  V30 2415 C 225.917 -0.163888 2.02137 0
M  V30 2416 C 226.25 -1.44597 1.29636 0
M  V30 2417 O 225.525 -1.90272 0.403353 0
M  V30 2418 C 225.808 -0.40927 3.57767 0
M  V30 2419 C 225.661 0.889643 4.40914 0
M  V30 2420 C 226.98 -1.19042 4.23694 0
M  V30 2421 H 224.099 -0.0580896 0.734707 0
M  V30 2422 H 226.741 0.54531 1.82007 0
M  V30 2423 H 224.891 -1.0134 3.7505 0
M  V30 2424 H 226.563 1.52575 4.35337 0
M  V30 2425 H 224.806 1.50011 4.07037 0
M  V30 2426 H 225.477 0.672314 5.4789 0
M  V30 2427 H 227.953 -0.678942 4.10524 0
M  V30 2428 H 226.829 -1.33086 5.32522 0
M  V30 2429 H 227.09 -2.21166 3.82803 0
M  V30 2430 N 226.149 -1.5696 0.141893 0
M  V30 2431 C 227.059 -2.20066 -0.812905 0
M  V30 2432 C 228.075 -1.18344 -1.27557 0
M  V30 2433 O 229.251 -1.50902 -1.33381 0
M  V30 2434 C 226.316 -2.80583 -2.03652 0
M  V30 2435 C 225.377 -3.97414 -1.62359 0
M  V30 2436 C 224.61 -4.55036 -2.78887 0
M  V30 2437 O 224.833 -4.11538 -3.94959 0
M  V30 2438 O 223.767 -5.45376 -2.54653 0
M  V30 2439 H 227.593 -3.02157 -0.305746 0
M  V30 2440 H 225.178 -1.49159 -0.0848799 0
M  V30 2441 H 227.06 -3.19067 -2.75272 0
M  V30 2442 H 225.735 -2.01508 -2.5333 0
M  V30 2443 H 224.642 -3.63656 -0.877775 0
M  V30 2444 H 225.975 -4.77994 -1.17401 0
M  V30 2445 N 227.627 0.131896 -1.57047 0
M  V30 2446 C 228.577 1.1679 -1.95816 0
M  V30 2447 C 229.561 1.37756 -0.831393 0
M  V30 2448 O 230.753 1.39065 -1.09499 0
M  V30 2449 C 227.882 2.49778 -2.35512 0
M  V30 2450 C 226.968 2.32342 -3.54793 0
M  V30 2451 N 227.359 1.8469 -4.70875 0
M  V30 2452 C 225.657 2.63043 -3.60173 0
M  V30 2453 C 226.358 1.80656 -5.52936 0
M  V30 2454 N 225.334 2.24528 -4.95064 0
M  V30 2455 H 229.136 0.791818 -2.83033 0
M  V30 2456 H 226.65 0.339791 -1.58805 0
M  V30 2457 H 228.647 3.24692 -2.61498 0
M  V30 2458 H 227.307 2.88156 -1.49654 0
M  V30 2459 H 228.318 1.54429 -4.9434 0
M  V30 2460 H 224.995 3.05193 -2.84892 0
M  V30 2461 H 226.385 1.45178 -6.56028 0
M  V30 2462 N 229.106 1.52395 0.401703 0
M  V30 2463 C 230.336 1.70429 1.1678 0
M  V30 2464 C 230.744 0.416702 1.84554 0
M  V30 2465 O 230.087 -0.617697 1.73003 0
M  V30 2466 C 230.149 2.78919 2.26814 0
M  V30 2467 C 229.813 4.20437 1.79113 0
M  V30 2468 C 230.81 5.04028 1.27482 0
M  V30 2469 C 228.495 4.66704 1.85722 0
M  V30 2470 C 230.489 6.31961 0.830913 0
M  V30 2471 C 228.176 5.94625 1.40942 0
M  V30 2472 C 229.174 6.77082 0.897128 0
M  V30 2473 O 228.862 8.02607 0.455822 0
M  V30 2474 H 228.594 0.574272 0.356634 0
M  V30 2475 H 231.148 1.99767 0.477724 0
M  V30 2476 H 229.378 2.44973 2.99207 0
M  V30 2477 H 231.067 2.8548 2.88541 0
M  V30 2478 H 231.833 4.69471 1.21744 0
M  V30 2479 H 227.712 4.0262 2.24539 0
M  V30 2480 H 231.256 6.96271 0.430368 0
M  V30 2481 H 227.153 6.28688 1.46362 0
M  V30 2482 H 227.921 8.16453 0.578457 0
M  V30 2483 N 230.584 -0.659388 1.43143 0
M  V30 2484 C 231.812 -1.44723 1.47861 0
M  V30 2485 C 232.227 -1.88563 0.0945886 0
M  V30 2486 O 231.584 -1.59108 -0.893915 0
M  V30 2487 C 231.635 -2.68627 2.41913 0
M  V30 2488 O 231.356 -2.26623 3.74932 0
M  V30 2489 C 232.857 -3.62045 2.55809 0
M  V30 2490 H 230.077 -0.444801 0.502387 0
M  V30 2491 H 232.621 -0.808916 1.87821 0
M  V30 2492 H 230.776 -3.28613 2.05164 0
M  V30 2493 H 231.19 -3.06745 4.2545 0
M  V30 2494 H 232.664 -4.45666 3.25708 0
M  V30 2495 H 233.141 -4.08981 1.60099 0
M  V30 2496 H 233.747 -3.07944 2.93344 0
M  V30 2497 N 232.062 -1.29571 -0.897171 0
M  V30 2498 C 233.287 -1.20705 -1.68656 0
M  V30 2499 C 233.712 0.228582 -1.86706 0
M  V30 2500 O 233.07 1.16494 -1.3892 0
M  V30 2501 C 233.118 -1.9282 -3.04717 0
M  V30 2502 O 232.222 -1.24697 -3.93096 0
M  V30 2503 H 231.563 -0.418126 -0.515816 0
M  V30 2504 H 234.093 -1.71183 -1.12061 0
M  V30 2505 H 234.103 -2.01372 -3.54843 0
M  V30 2506 H 232.778 -2.97239 -2.90899 0
M  V30 2507 H 231.355 -1.2442 -3.51531 0
M  V30 2508 N 233.54 1.10788 -1.12088 0
M  V30 2509 C 234.817 1.79136 -0.785476 0
M  V30 2510 C 235.197 1.98246 0.725377 0
M  V30 2511 O 234.545 1.57258 1.65778 0
M  V30 2512 C 234.755 3.12375 -1.55636 0
M  V30 2513 C 236.103 3.8731 -1.74001 0
M  V30 2514 O 237.127 3.22085 -1.52117 0
M  V30 2515 O 235.986 5.04369 -2.10415 0
M  V30 2516 H 233.08 0.776226 -0.285311 0
M  V30 2517 H 235.626 1.1747 -1.2247 0
M  V30 2518 H 234.398 2.93863 -2.5838 0
M  V30 2519 H 234.021 3.81758 -1.11114 0
M  V30 2520 N 235.018 0.912232 1.28515 0
M  V30 2521 C 235.981 0.404223 2.25607 0
M  V30 2522 C 236.981 -0.468602 1.53821 0
M  V30 2523 O 238.171 -0.271873 1.72065 0
M  V30 2524 C 235.303 -0.420653 3.38295 0
M  V30 2525 H 236.496 1.26188 2.7206 0
M  V30 2526 H 234.049 0.691495 1.40171 0
M  V30 2527 H 234.784 -1.29777 2.97201 0
M  V30 2528 H 234.569 0.204935 3.91564 0
M  V30 2529 H 236.059 -0.766971 4.10496 0
M  V30 2530 N 236.496 -1.42363 0.676048 0
M  V30 2531 C 237.773 -1.95183 0.127726 0
M  V30 2532 C 238.153 -1.61641 -1.35777 0
M  V30 2533 O 237.501 -0.913216 -2.09458 0
M  V30 2534 C 237.711 -3.46721 0.398199 0
M  V30 2535 C 239.059 -4.23427 0.315383 0
M  V30 2536 O 240.083 -3.54649 0.332016 0
M  V30 2537 O 238.942 -5.45888 0.25865 0
M  V30 2538 H 236.036 -0.826992 0.00359427 0
M  V30 2539 H 238.582 -1.52184 0.750864 0
M  V30 2540 H 237.354 -3.64344 1.4272 0
M  V30 2541 H 236.977 -3.96769 -0.256885 0
M  V30 2542 N 237.974 -0.419461 -1.51915 0
M  V30 2543 C 239.222 0.152637 -2.01523 0
M  V30 2544 C 239.543 1.44762 -1.30649 0
M  V30 2545 O 238.813 1.90997 -0.435535 0
M  V30 2546 H 237.393 0.0593966 -0.744635 0
M  V30 2547 H 240.055 -0.558073 -1.86739 0
M  V30 2548 H 239.151 0.341369 -3.10227 0
M  V30 2549 N 239.452 1.56882 -0.150215 0
M  V30 2550 C 240.382 2.19935 0.784284 0
M  V30 2551 C 241.363 1.14854 1.25469 0
M  V30 2552 O 242.548 1.43209 1.31168 0
M  V30 2553 C 239.678 2.82349 2.02229 0
M  V30 2554 C 238.632 3.93285 1.68853 0
M  V30 2555 C 237.958 4.42649 2.99944 0
M  V30 2556 C 239.258 5.13904 0.932714 0
M  V30 2557 H 240.952 2.9828 0.258781 0
M  V30 2558 H 238.498 1.43473 0.123029 0
M  V30 2559 H 240.451 3.25126 2.68088 0
M  V30 2560 H 239.175 2.0134 2.57157 0
M  V30 2561 H 237.834 3.5113 1.05371 0
M  V30 2562 H 237.482 3.58458 3.52869 0
M  V30 2563 H 237.182 5.17476 2.78374 0
M  V30 2564 H 238.706 4.88099 3.66868 0
M  V30 2565 H 240.12 5.53506 1.49345 0
M  V30 2566 H 238.517 5.94515 0.81684 0
M  V30 2567 H 239.587 4.84842 -0.0749568 0
M  V30 2568 N 240.93 -0.123565 1.57115 0
M  V30 2569 C 242.17 -0.838097 1.86428 0
M  V30 2570 C 242.534 -1.77266 0.737611 0
M  V30 2571 O 243.735 -2.52842 0.912389 0
M  V30 2572 C 242.006 -1.57219 3.20962 0
M  V30 2573 S 243.565 -2.32893 3.71896 0
M  V30 2574 H 240.383 -0.279811 0.653626 0
M  V30 2575 H 242.985 -0.0967034 1.95261 0
M  V30 2576 H 241.689 -0.877522 4.00909 0
M  V30 2577 H 241.22 -2.35405 3.15195 0
M  V30 2578 H 243.235 -3.5853 3.43032 0
M  V30 2579 N 242.408 -1.52605 -0.393616 0
M  V30 2580 C 243.636 -1.71294 -1.16043 0
M  V30 2581 C 244.051 -0.429259 -1.83855 0
M  V30 2582 O 243.408 0.595921 -1.72496 0
M  V30 2583 C 243.459 -2.8593 -2.21193 0
M  V30 2584 O 243.18 -4.09329 -1.56146 0
M  V30 2585 C 244.681 -3.16259 -3.10636 0
M  V30 2586 H 241.901 -0.573641 -0.348104 0
M  V30 2587 H 244.445 -1.99234 -0.461092 0
M  V30 2588 H 242.6 -2.60465 -2.86769 0
M  V30 2589 H 243.014 -4.73323 -2.25978 0
M  V30 2590 H 244.488 -3.99946 -3.80456 0
M  V30 2591 H 244.965 -2.3045 -3.73884 0
M  V30 2592 H 245.571 -3.43547 -2.50711 0
M  V30 2593 N 243.887 0.651787 -1.4349 0
M  V30 2594 C 245.303 0.96762 -1.26922 0
M  V30 2595 C 245.503 2.00602 -0.189982 0
M  V30 2596 O 244.559 2.48793 0.431107 0
M  V30 2597 C 245.872 1.45052 -2.63401 0
M  V30 2598 C 247.42 1.5671 -2.70945 0
M  V30 2599 C 247.895 2.0839 -4.07845 0
M  V30 2600 N 249.386 2.1569 -4.09917 0
M  V30 2601 C 250.121 2.56804 -5.12679 0
M  V30 2602 N 249.617 2.97203 -6.25813 0
M  V30 2603 N 251.41 2.56756 -5.00033 0
M  V30 2604 H 243.561 -0.0353158 -2.12371 0
M  V30 2605 H 245.824 0.0467858 -0.946845 0
M  V30 2606 H 245.53 0.761926 -3.43348 0
M  V30 2607 H 245.404 2.42529 -2.88894 0
M  V30 2608 H 247.791 2.2467 -1.9133 0
M  V30 2609 H 247.872 0.57662 -2.49216 0
M  V30 2610 H 247.516 1.41031 -4.87927 0
M  V30 2611 H 247.446 3.08271 -4.26938 0
M  V30 2612 H 249.937 1.87237 -3.28254 0
M  V30 2613 H 250.25 3.27328 -7.00055 0
M  V30 2614 H 248.595 2.95004 -6.29283 0
M  V30 2615 H 251.786 2.24572 -4.10713 0
M  V30 2616 H 251.959 2.88475 -5.80247 0
M  V30 2617 N 245.365 1.30045 0.890287 0
M  V30 2618 C 246.295 1.18541 2.01172 0
M  V30 2619 C 247.276 0.0773356 1.69924 0
M  V30 2620 O 248.461 0.25845 1.92473 0
M  V30 2621 C 245.591 0.870941 3.36202 0
M  V30 2622 C 244.545 1.93637 3.81692 0
M  V30 2623 C 243.871 1.475 5.13953 0
M  V30 2624 C 245.171 3.34666 4.00994 0
M  V30 2625 H 246.865 2.12359 2.11054 0
M  V30 2626 H 244.411 1.02238 1.01407 0
M  V30 2627 H 246.364 0.777141 4.14172 0
M  V30 2628 H 245.088 -0.102926 3.26438 0
M  V30 2629 H 243.747 2.01972 3.05946 0
M  V30 2630 H 243.395 0.489551 5.00612 0
M  V30 2631 H 243.095 2.1876 5.4536 0
M  V30 2632 H 244.619 1.39489 5.94454 0
M  V30 2633 H 246.033 3.2912 4.69417 0
M  V30 2634 H 244.43 4.03966 4.43769 0
M  V30 2635 H 245.5 3.76949 3.05021 0
M  V30 2636 N 246.843 -1.10192 1.12674 0
M  V30 2637 C 248.092 -1.81573 0.8783 0
M  V30 2638 C 248.405 -1.86249 -0.597557 0
M  V30 2639 O 249.611 -2.5386 -0.962681 0
M  V30 2640 C 248.067 -3.26149 1.52167 0
M  V30 2641 C 247.675 -3.29763 3.03249 0
M  V30 2642 C 249.419 -4.0234 1.3536 0
M  V30 2643 C 247.326 -4.68815 3.60508 0
M  V30 2644 H 246.256 -0.680394 0.324931 0
M  V30 2645 H 248.907 -1.23902 1.35353 0
M  V30 2646 H 247.289 -3.83832 0.974104 0
M  V30 2647 H 248.463 -2.8189 3.6452 0
M  V30 2648 H 246.778 -2.67059 3.19481 0
M  V30 2649 H 249.375 -5.05058 1.75559 0
M  V30 2650 H 249.718 -4.15235 0.297554 0
M  V30 2651 H 250.251 -3.51079 1.87052 0
M  V30 2652 H 246.99 -4.61121 4.65884 0
M  V30 2653 H 246.51 -5.17045 3.04014 0
M  V30 2654 H 248.189 -5.37785 3.59717 0
M  V30 2655 N 248.321 -0.919034 -1.28029 0
M  V30 2656 C 249.268 -0.410005 -2.27129 0
M  V30 2657 C 250.238 0.518405 -1.57803 0
M  V30 2658 O 251.423 0.439451 -1.8567 0
M  V30 2659 C 248.563 0.339054 -3.4343 0
M  V30 2660 C 247.676 -0.622468 -4.27492 0
M  V30 2661 C 246.811 0.145567 -5.31001 0
M  V30 2662 C 245.85 -0.809226 -6.06727 0
M  V30 2663 N 244.987 -0.0743728 -7.02061 0
M  V30 2664 H 249.827 -1.26011 -2.70047 0
M  V30 2665 H 247.364 -0.632663 -1.328 0
M  V30 2666 H 249.322 0.789586 -4.0966 0
M  V30 2667 H 247.952 1.15346 -3.01488 0
M  V30 2668 H 247.004 -1.19153 -3.61257 0
M  V30 2669 H 248.316 -1.35252 -4.80113 0
M  V30 2670 H 247.47 0.656417 -6.03139 0
M  V30 2671 H 246.209 0.908643 -4.79161 0
M  V30 2672 H 245.214 -1.3314 -5.33436 0
M  V30 2673 H 246.439 -1.57194 -6.60656 0
M  V30 2674 H 244.385 0.670616 -6.52563 0
M  V30 2675 H 244.302 -0.744157 -7.52329 0
M  V30 2676 H 245.57 0.416109 -7.78389 0
M  V30 2677 N 249.799 1.42003 -0.683588 0
M  V30 2678 C 251.21 1.84501 -0.285736 0
M  V30 2679 C 251.561 1.57213 1.17382 0
M  V30 2680 O 250.686 1.03642 1.89966 0
M  V30 2681 C 251.281 3.34912 -0.511821 0
M  V30 2682 C 249.84 3.76025 -0.168005 0
M  V30 2683 C 248.987 2.6551 -0.799983 0
M  V30 2684 H 251.938 1.31724 -0.885119 0
M  V30 2685 H 251.959 3.79784 0.233292 0
M  V30 2686 H 251.471 3.54741 -1.57418 0
M  V30 2687 H 249.572 3.61801 0.890567 0
M  V30 2688 H 249.685 4.75141 -0.614661 0
M  V30 2689 H 248.049 2.53654 -0.230568 0
M  V30 2690 H 248.832 2.8816 -1.86597 0
M  V30 2691 N 251.277 0.427512 1.51691 0
M  V30 2692 C 252.224 -0.388867 2.275 0
M  V30 2693 C 253.194 -1.02532 1.30677 0
M  V30 2694 O 254.379 -1.0461 1.59566 0
M  V30 2695 C 251.519 -1.48954 3.11298 0
M  V30 2696 C 250.632 -0.872194 4.23104 0
M  V30 2697 C 249.767 -1.94709 4.94228 0
M  V30 2698 C 248.806 -1.30766 5.97969 0
M  V30 2699 N 247.943 -2.32349 6.62539 0
M  V30 2700 H 252.783 0.263997 2.96828 0
M  V30 2701 H 250.32 0.142033 1.46413 0
M  V30 2702 H 252.278 -2.13887 3.58201 0
M  V30 2703 H 250.908 -2.11217 2.44105 0
M  V30 2704 H 249.96 -0.111419 3.80237 0
M  V30 2705 H 251.272 -0.365264 4.97461 0
M  V30 2706 H 250.426 -2.67327 5.44629 0
M  V30 2707 H 249.165 -2.48773 4.1948 0
M  V30 2708 H 248.17 -0.566902 5.4687 0
M  V30 2709 H 249.395 -0.774483 6.74669 0
M  V30 2710 H 247.341 -2.85511 5.90609 0
M  V30 2711 H 247.258 -1.8652 7.3263 0
M  V30 2712 H 248.526 -3.04481 7.17574 0
M  V30 2713 N 252.755 -1.56801 0.158532 0
M  V30 2714 C 254.001 -1.96781 -0.490405 0
M  V30 2715 C 254.334 -1.04397 -1.63753 0
M  V30 2716 O 253.609 -0.0885805 -1.94298 0
M  V30 2717 C 253.892 -3.4635 -0.985594 0
M  V30 2718 C 253.745 -4.49512 0.160824 0
M  V30 2719 C 255.064 -3.98697 -1.86355 0
M  V30 2720 H 252.183 -0.715482 -0.176788 0
M  V30 2721 H 254.825 -1.88451 0.242088 0
M  V30 2722 H 252.975 -3.53579 -1.60978 0
M  V30 2723 H 254.647 -4.54353 0.797537 0
M  V30 2724 H 252.89 -4.26013 0.818256 0
M  V30 2725 H 253.561 -5.51531 -0.227569 0
M  V30 2726 H 256.037 -3.94019 -1.33746 0
M  V30 2727 H 254.913 -5.03792 -2.17909 0
M  V30 2728 H 255.174 -3.41744 -2.8047 0
M  V30 2729 N 254.233 0.115231 -1.57178 0
M  V30 2730 C 255.166 1.17166 -1.95825 0
M  V30 2731 C 256.144 1.39912 -0.828463 0
M  V30 2732 O 257.328 1.54004 -1.08697 0
M  V30 2733 C 254.455 2.52478 -2.25771 0
M  V30 2734 C 253.501 2.46136 -3.48309 0
M  V30 2735 S 254.334 1.89736 -5.0076 0
M  V30 2736 C 255.49 3.26713 -5.33863 0
M  V30 2737 H 255.723 0.842103 -2.85124 0
M  V30 2738 H 253.256 0.322136 -1.51002 0
M  V30 2739 H 255.214 3.30332 -2.43702 0
M  V30 2740 H 253.875 2.82609 -1.37079 0
M  V30 2741 H 253.068 3.45819 -3.66641 0
M  V30 2742 H 252.67 1.76404 -3.29784 0
M  V30 2743 H 254.962 4.22935 -5.29275 0
M  V30 2744 H 255.905 3.13205 -6.35065 0
M  V30 2745 H 256.313 3.25316 -4.61335 0
M  V30 2746 N 255.711 1.52812 0.385517 0
M  V30 2747 C 256.621 1.80766 1.49535 0
M  V30 2748 C 257.637 0.694651 1.59532 0
M  V30 2749 O 258.813 0.982611 1.75803 0
M  V30 2750 C 255.878 1.97381 2.85029 0
M  V30 2751 C 254.939 3.21295 2.84724 0
M  V30 2752 C 254.172 3.37108 4.13756 0
M  V30 2753 O 254.395 2.5765 5.08893 0
M  V30 2754 O 253.329 4.30378 4.20783 0
M  V30 2755 H 257.155 2.75015 1.28842 0
M  V30 2756 H 254.74 1.37946 0.573697 0
M  V30 2757 H 256.622 2.09996 3.65349 0
M  V30 2758 H 255.297 1.06322 3.05741 0
M  V30 2759 H 254.204 3.1412 2.03174 0
M  V30 2760 H 255.537 4.12212 2.68965 0
M  V30 2761 N 257.189 -0.644168 1.43834 0
M  V30 2762 C 258.437 -1.40117 1.45642 0
M  V30 2763 C 258.758 -1.94814 0.0852413 0
M  V30 2764 O 258.028 -1.74988 -0.880688 0
M  V30 2765 H 256.608 -0.52005 0.536243 0
M  V30 2766 H 259.27 -0.7591 1.7951 0
M  V30 2767 H 258.366 -2.23902 2.17427 0
M  V30 2768 N 258.668 -1.30515 -0.883378 0
M  V30 2769 C 259.896 -1.22359 -1.66841 0
M  V30 2770 C 260.311 0.213296 -1.87591 0
M  V30 2771 O 259.668 1.14075 -1.42454 0
M  V30 2772 C 259.719 -1.95011 -3.04389 0
M  V30 2773 O 259.44 -3.3309 -2.84575 0
M  V30 2774 C 260.941 -1.93532 -3.98824 0
M  V30 2775 H 258.161 -0.423371 -0.520575 0
M  V30 2776 H 260.705 -1.72167 -1.10357 0
M  V30 2777 H 258.86 -1.48997 -3.57601 0
M  V30 2778 H 259.274 -3.69907 -3.71846 0
M  V30 2779 H 260.748 -2.48902 -4.92699 0
M  V30 2780 H 261.225 -0.914627 -4.29571 0
M  V30 2781 H 261.831 -2.39364 -3.51547 0
M  V30 2782 N 260.146 1.09593 -1.13257 0
M  V30 2783 C 261.392 1.82003 -0.89458 0
M  V30 2784 C 261.725 1.85402 0.577906 0
M  V30 2785 O 261 1.32099 1.42759 0
M  V30 2786 C 261.283 3.28237 -1.48096 0
M  V30 2787 C 261.136 3.3312 -3.02244 0
M  V30 2788 C 262.455 4.24871 -1.14774 0
M  V30 2789 H 259.574 0.66077 -0.326424 0
M  V30 2790 H 262.216 1.28389 -1.40058 0
M  V30 2791 H 260.366 3.74024 -1.05062 0
M  V30 2792 H 262.038 2.95748 -3.54021 0
M  V30 2793 H 260.281 2.72756 -3.37323 0
M  V30 2794 H 260.952 4.3613 -3.38371 0
M  V30 2795 H 263.428 3.87361 -1.51957 0
M  V30 2796 H 262.304 5.25532 -1.58452 0
M  V30 2797 H 262.565 4.42058 -0.0611849 0
M  V30 2798 N 261.624 0.925811 1.2754 0
M  V30 2799 C 262.587 0.428129 2.25166 0
M  V30 2800 C 263.587 -0.452261 1.54309 0
M  V30 2801 O 264.777 -0.253608 1.72344 0
M  V30 2802 C 261.909 -0.384749 3.38722 0
M  V30 2803 H 263.102 1.29066 2.70706 0
M  V30 2804 H 260.655 0.706323 1.3943 0
M  V30 2805 H 261.39 -1.26618 2.98561 0
M  V30 2806 H 261.175 0.246454 3.91325 0
M  V30 2807 H 262.665 -0.723389 4.11287 0
M  V30 2808 N 263.102 -1.41638 0.69111 0
M  V30 2809 C 264.065 -2.29178 0.0319786 0
M  V30 2810 C 265.065 -1.44153 -0.712496 0
M  V30 2811 O 266.255 -1.65354 -0.548053 0
M  V30 2812 C 263.387 -3.26952 -0.965161 0
M  V30 2813 H 264.58 -2.88959 0.802681 0
M  V30 2814 H 262.133 -1.4955 0.454356 0
M  V30 2815 H 262.868 -2.72142 -1.76378 0
M  V30 2816 H 262.653 -3.89685 -0.434522 0
M  V30 2817 H 264.143 -3.92561 -1.42428 0
M  V30 2818 N 264.58 -0.43555 -1.51462 0
M  V30 2819 C 265.512 0.41257 -2.25456 0
M  V30 2820 C 266.525 0.987822 -1.29406 0
M  V30 2821 O 267.714 0.882266 -1.55172 0
M  V30 2822 C 264.814 1.58894 -2.99342 0
M  V30 2823 C 263.987 1.13288 -4.22474 0
M  V30 2824 C 263.046 2.17917 -4.78956 0
M  V30 2825 O 262.072 1.77425 -5.40841 0
M  V30 2826 N 263.274 3.50382 -4.62832 0
M  V30 2827 H 266.039 -0.221603 -2.9888 0
M  V30 2828 H 263.6 -0.264342 -1.59727 0
M  V30 2829 H 265.592 2.28508 -3.34015 0
M  V30 2830 H 264.162 2.12849 -2.28941 0
M  V30 2831 H 263.382 0.263881 -3.93316 0
M  V30 2832 H 264.67 0.805542 -5.02383 0
M  V30 2833 H 264.068 3.86013 -4.13534 0
M  V30 2834 H 262.625 4.15895 -5.01871 0
M  V30 2835 N 266.058 1.56714 -0.166846 0
M  V30 2836 C 267.335 1.88412 0.525373 0
M  V30 2837 C 267.715 1.07602 1.81618 0
M  V30 2838 O 267.063 0.168621 2.27877 0
M  V30 2839 C 267.273 3.40363 0.771613 0
M  V30 2840 C 268.621 4.10007 1.1036 0
M  V30 2841 O 269.645 3.45655 0.860304 0
M  V30 2842 O 268.504 5.2369 1.56239 0
M  V30 2843 H 265.598 0.781587 0.270278 0
M  V30 2844 H 268.144 1.68458 -0.204946 0
M  V30 2845 H 266.916 3.91046 -0.141093 0
M  V30 2846 H 266.539 3.65914 1.55541 0
M  V30 2847 N 267.536 -0.106894 1.57237 0
M  V30 2848 C 268.446 -1.14911 2.0453 0
M  V30 2849 C 269.462 -1.44592 0.96795 0
M  V30 2850 O 270.638 -1.55468 1.2803 0
M  V30 2851 C 267.703 -2.45272 2.45036 0
M  V30 2852 C 266.764 -2.22879 3.66911 0
M  V30 2853 C 265.997 -3.47024 4.05475 0
M  V30 2854 O 266.22 -4.54804 3.44252 0
M  V30 2855 O 265.154 -3.3731 4.98504 0
M  V30 2856 H 268.98 -0.777461 2.9358 0
M  V30 2857 H 266.565 -0.318563 1.45964 0
M  V30 2858 H 268.447 -3.22055 2.71769 0
M  V30 2859 H 267.122 -2.81886 1.59129 0
M  V30 2860 H 266.029 -1.43915 3.45311 0
M  V30 2861 H 267.362 -1.91163 4.53561 0
M  V30 2862 N 269.014 -1.53014 -0.377408 0
M  V30 2863 C 270.261 -1.68623 -1.12128 0
M  V30 2864 C 270.589 -0.431997 -1.89642 0
M  V30 2865 O 269.844 0.585855 -1.86725 0
M  V30 2866 C 270.143 -2.87982 -2.11663 0
M  V30 2867 C 269.809 -4.24964 -1.50719 0
M  V30 2868 C 268.471 -4.62217 -1.33825 0
M  V30 2869 C 270.823 -5.10199 -1.06519 0
M  V30 2870 C 268.151 -5.82352 -0.712963 0
M  V30 2871 C 270.503 -6.30969 -0.453955 0
M  V30 2872 C 269.167 -6.66944 -0.272411 0
M  V30 2873 H 268.437 -0.617034 -0.410305 0
M  V30 2874 H 271.084 -1.8718 -0.404484 0
M  V30 2875 H 269.389 -2.63889 -2.89603 0
M  V30 2876 H 271.086 -2.97253 -2.6915 0
M  V30 2877 H 267.676 -3.95626 -1.64858 0
M  V30 2878 H 271.86 -4.81978 -1.18368 0
M  V30 2879 H 267.116 -6.08824 -0.560611 0
M  V30 2880 H 271.29 -6.96324 -0.103217 0
M  V30 2881 H 268.917 -7.59898 0.214181 0
M  V30 2882 N 270.492 0.636531 -1.44174 0
M  V30 2883 C 271.722 1.42146 -1.49927 0
M  V30 2884 C 272.13 1.88812 -0.121063 0
M  V30 2885 O 271.473 1.61126 0.882267 0
M  V30 2886 C 271.535 2.67883 -2.39748 0
M  V30 2887 C 271.199 2.43048 -3.8701 0
M  V30 2888 C 272.196 2.05216 -4.77684 0
M  V30 2889 C 269.881 2.56856 -4.3166 0
M  V30 2890 C 271.875 1.81512 -6.11009 0
M  V30 2891 C 269.562 2.32766 -5.65034 0
M  V30 2892 C 270.56 1.95152 -6.54526 0
M  V30 2893 O 270.248 1.71326 -7.85431 0
M  V30 2894 H 269.98 0.442567 -0.51099 0
M  V30 2895 H 272.534 0.786158 -1.8976 0
M  V30 2896 H 270.764 3.34032 -1.94832 0
M  V30 2897 H 272.453 3.29874 -2.36513 0
M  V30 2898 H 273.219 1.94111 -4.44462 0
M  V30 2899 H 269.098 2.85104 -3.62266 0
M  V30 2900 H 272.642 1.52077 -6.80822 0
M  V30 2901 H 268.539 2.43479 -5.97819 0
M  V30 2902 H 269.307 1.85616 -7.97176 0
M  V30 2903 N 271.97 1.30982 0.876444 0
M  V30 2904 C 273.386 1.09498 1.16113 0
M  V30 2905 C 273.586 -0.13875 2.01022 0
M  V30 2906 O 272.642 -0.829935 2.38471 0
M  V30 2907 C 273.955 2.36308 1.85954 0
M  V30 2908 C 275.503 2.41856 1.98683 0
M  V30 2909 C 275.978 3.6853 2.71937 0
M  V30 2910 N 277.469 3.69387 2.79477 0
M  V30 2911 C 278.204 4.64096 3.36753 0
M  V30 2912 N 277.7 5.69155 3.95012 0
M  V30 2913 N 279.493 4.51626 3.3465 0
M  V30 2914 H 271.644 2.10118 0.310494 0
M  V30 2915 H 273.907 0.926634 0.200131 0
M  V30 2916 H 273.613 3.26388 1.31011 0
M  V30 2917 H 273.487 2.4561 2.86278 0
M  V30 2918 H 275.874 1.52249 2.52793 0
M  V30 2919 H 275.955 2.36523 0.9742 0
M  V30 2920 H 275.599 4.58499 2.18496 0
M  V30 2921 H 275.529 3.71127 3.73593 0
M  V30 2922 H 278.02 2.93438 2.38123 0
M  V30 2923 H 278.333 6.3751 4.36808 0
M  V30 2924 H 276.678 5.72937 3.93406 0
M  V30 2925 H 279.869 3.68728 2.8837 0
M  V30 2926 H 280.042 5.25614 3.7899 0
M  V30 2927 N 273.449 -1.08991 1.13837 0
M  V30 2928 C 274.674 -1.85551 0.926585 0
M  V30 2929 C 275.099 -1.80782 -0.519566 0
M  V30 2930 O 274.457 -1.18855 -1.36906 0
M  V30 2931 C 274.505 -3.31266 1.42462 0
M  V30 2932 O 273.609 -4.07822 0.612789 0
M  V30 2933 H 272.95 -0.575192 0.331738 0
M  V30 2934 H 275.48 -1.37604 1.51414 0
M  V30 2935 H 275.49 -3.82112 1.43019 0
M  V30 2936 H 274.165 -3.34052 2.47754 0
M  V30 2937 H 272.742 -3.66731 0.675463 0
M  V30 2938 N 274.927 -0.932562 -1.27047 0
M  V30 2939 C 276.175 -0.574422 -1.93765 0
M  V30 2940 C 276.496 0.887993 -1.73608 0
M  V30 2941 O 275.766 1.62999 -1.08665 0
M  V30 2942 H 274.346 -0.209451 -0.717035 0
M  V30 2943 H 277.008 -1.18601 -1.5466 0
M  V30 2944 H 276.104 -0.784841 -3.02071 0
M  V30 2945 N 276.405 1.4127 -0.698611 0
M  V30 2946 C 277.651 2.01979 -0.239972 0
M  V30 2947 C 278.006 1.54353 1.14861 0
M  V30 2948 O 277.299 0.746218 1.76471 0
M  V30 2949 C 277.493 3.56592 -0.240192 0
M  V30 2950 C 277.322 4.19226 -1.62726 0
M  V30 2951 C 276.092 4.53389 -2.23084 0
M  V30 2952 C 278.29 4.45228 -2.57443 0
M  V30 2953 N 276.272 5.01327 -3.54323 0
M  V30 2954 C 277.643 4.94973 -3.73365 0
M  V30 2955 C 279.698 4.27243 -2.55671 0
M  V30 2956 C 278.401 5.28624 -4.878 0
M  V30 2957 C 280.427 4.61985 -3.69221 0
M  V30 2958 C 279.789 5.11904 -4.83873 0
M  V30 2959 H 275.888 0.770561 -0.133269 0
M  V30 2960 H 278.472 1.71767 -0.916748 0
M  V30 2961 H 276.643 3.86271 0.406082 0
M  V30 2962 H 278.375 4.04025 0.23356 0
M  V30 2963 H 275.13 4.39946 -1.75341 0
M  V30 2964 H 275.554 5.29697 -4.21604 0
M  V30 2965 H 280.196 3.87884 -1.68243 0
M  V30 2966 H 277.914 5.66905 -5.75885 0
M  V30 2967 H 281.5 4.49725 -3.69105 0
M  V30 2968 H 280.38 5.38282 -5.70282 0
M  V30 2969 N 277.883 0.443576 1.51229 0
M  V30 2970 C 278.846 -0.353132 2.26463 0
M  V30 2971 C 279.846 -0.944338 1.3015 0
M  V30 2972 O 281.036 -0.817813 1.5381 0
M  V30 2973 C 278.168 -1.50023 3.06114 0
M  V30 2974 H 279.361 0.3063 2.98332 0
M  V30 2975 H 276.914 0.196902 1.55055 0
M  V30 2976 H 277.649 -2.19553 2.38677 0
M  V30 2977 H 277.434 -1.08241 3.76864 0
M  V30 2978 H 278.924 -2.06296 3.63087 0
M  V30 2979 N 279.361 -1.56624 0.175154 0
M  V30 2980 C 280.291 -2.21155 -0.749195 0
M  V30 2981 C 281.272 -1.16836 -1.23626 0
M  V30 2982 O 282.457 -1.45277 -1.28873 0
M  V30 2983 C 279.587 -2.8553 -1.97711 0
M  V30 2984 C 278.541 -3.95921 -1.62575 0
M  V30 2985 C 277.867 -4.47365 -2.92864 0
M  V30 2986 C 279.167 -5.15323 -0.850838 0
M  V30 2987 H 280.861 -2.98653 -0.211295 0
M  V30 2988 H 278.407 -1.43651 -0.100188 0
M  V30 2989 H 280.36 -3.2935 -2.62881 0
M  V30 2990 H 279.084 -2.05406 -2.53921 0
M  V30 2991 H 277.743 -3.52762 -0.997719 0
M  V30 2992 H 277.391 -3.64027 -3.47122 0
M  V30 2993 H 277.091 -5.21839 -2.70106 0
M  V30 2994 H 278.615 -4.93873 -3.59056 0
M  V30 2995 H 280.029 -5.55812 -1.40521 0
M  V30 2996 H 278.426 -5.95739 -0.722154 0
M  V30 2997 H 279.496 -4.84661 0.152082 0
M  V30 2998 N 280.839 0.0985539 -1.57292 0
M  V30 2999 C 281.787 1.1387 -2.02821 0
M  V30 3000 C 282.781 1.41676 -0.928666 0
M  V30 3001 O 283.987 1.41398 -1.11385 0
M  V30 3002 H 280.362 0.384419 -0.646317 0
M  V30 3003 H 282.333 0.728347 -2.89375 0
M  V30 3004 C 281.082 2.45166 -2.46554 0
M  V30 3005 H 280.405 2.24613 -3.3074 0
M  V30 3006 H 281.845 3.16456 -2.8219 0
M  V30 3007 C 280.304 3.09216 -1.33742 0
M  V30 3008 O 280.834 3.96163 -0.66464 0
M  V30 3009 N 279.04 2.69413 -1.08928 0
M  V30 3010 H 278.587 1.98801 -1.63817 0
M  V30 3011 H 278.545 3.12594 -0.336458 0
M  V30 3012 N 282.317 1.53212 0.369288 0
M  V30 3013 C 283.25 1.74166 1.4745 0
M  V30 3014 C 284.228 0.589923 1.51521 0
M  V30 3015 O 285.412 0.822078 1.69629 0
M  V30 3016 C 282.539 1.81711 2.8583 0
M  V30 3017 C 281.585 3.03649 2.99499 0
M  V30 3018 S 282.418 4.63242 2.6864 0
M  V30 3019 C 283.574 4.7363 4.09177 0
M  V30 3020 H 283.807 2.67636 1.29454 0
M  V30 3021 H 281.34 1.43754 0.563396 0
M  V30 3022 H 283.298 1.86743 3.65564 0
M  V30 3023 H 281.959 0.89299 3.01139 0
M  V30 3024 H 281.152 3.05526 4.00836 0
M  V30 3025 H 280.754 2.9671 2.27683 0
M  V30 3026 H 283.046 4.53456 5.03372 0
M  V30 3027 H 283.989 5.75682 4.12306 0
M  V30 3028 H 284.397 4.02295 3.96004 0
M  V30 3029 N 283.795 -0.628877 1.44509 0
M  V30 3030 C 284.742 -1.74074 1.51549 0
M  V30 3031 C 285.712 -1.62084 0.363021 0
M  V30 3032 O 286.897 -1.81975 0.573567 0
M  V30 3033 C 284.037 -3.12328 1.46784 0
M  V30 3034 C 283.15 -3.35277 2.72422 0
M  V30 3035 C 282.285 -4.63515 2.59475 0
M  V30 3036 C 281.324 -4.7965 3.80266 0
M  V30 3037 N 280.461 -5.99168 3.65981 0
M  V30 3038 H 285.301 -1.67392 2.46544 0
M  V30 3039 H 282.838 -0.816527 1.22357 0
M  V30 3040 H 284.796 -3.92286 1.42012 0
M  V30 3041 H 283.426 -3.18018 0.553544 0
M  V30 3042 H 282.478 -2.49242 2.87372 0
M  V30 3043 H 283.79 -3.43078 3.62076 0
M  V30 3044 H 282.944 -5.51638 2.52548 0
M  V30 3045 H 281.683 -4.58076 1.67384 0
M  V30 3046 H 280.688 -3.89957 3.87574 0
M  V30 3047 H 281.913 -4.86902 4.73395 0
M  V30 3048 H 279.859 -5.94814 2.76644 0
M  V30 3049 H 279.776 -6.08035 4.49254 0
M  V30 3050 H 281.044 -6.89846 3.6295 0
M  V30 3051 N 285.273 -1.31445 -0.869486 0
M  V30 3052 C 286.183 -1.21097 -2.0093 0
M  V30 3053 C 287.199 -0.127584 -1.73532 0
M  V30 3054 O 288.375 -0.345477 -1.98415 0
M  V30 3055 C 285.44 -0.919378 -3.34288 0
M  V30 3056 C 284.501 -2.08971 -3.75006 0
M  V30 3057 C 283.734 -1.81194 -5.02001 0
M  V30 3058 O 283.957 -0.747296 -5.65484 0
M  V30 3059 O 282.891 -2.66883 -5.39497 0
M  V30 3060 H 286.717 -2.16883 -2.12592 0
M  V30 3061 H 284.302 -1.11189 -0.997868 0
M  V30 3062 H 286.184 -0.772625 -4.14257 0
M  V30 3063 H 284.859 0.00844772 -3.23699 0
M  V30 3064 H 283.766 -2.29187 -2.95676 0
M  V30 3065 H 285.099 -2.9998 -3.90221 0
M  V30 3066 N 286.751 1.08385 -1.14413 0
M  V30 3067 C 287.681 2.17321 -0.854044 0
M  V30 3068 C 288.662 1.69024 0.191049 0
M  V30 3069 O 289.847 1.94141 0.0476779 0
M  V30 3070 C 286.977 3.45719 -0.330983 0
M  V30 3071 C 285.931 4.07409 -1.31155 0
M  V30 3072 C 285.257 5.30762 -0.64778 0
M  V30 3073 C 286.557 4.48665 -2.67388 0
M  V30 3074 H 288.251 2.41845 -1.76498 0
M  V30 3075 H 285.797 1.16233 -0.850051 0
M  V30 3076 H 287.75 4.21241 -0.115645 0
M  V30 3077 H 286.474 3.2075 0.615381 0
M  V30 3078 H 285.133 3.33919 -1.51306 0
M  V30 3079 H 284.781 5.02078 0.304398 0
M  V30 3080 H 284.481 5.72992 -1.30207 0
M  V30 3081 H 286.005 6.08998 -0.441972 0
M  V30 3082 H 287.419 5.15364 -2.51143 0
M  V30 3083 H 285.816 5.01814 -3.29093 0
M  V30 3084 H 286.886 3.60543 -3.24248 0
M  V30 3085 N 288.23 0.939286 1.26551 0
M  V30 3086 C 289.177 0.446088 2.26448 0
M  V30 3087 C 290.147 -0.493234 1.58608 0
M  V30 3088 O 291.332 -0.409857 1.86346 0
M  V30 3089 C 288.472 -0.284375 3.43926 0
M  V30 3090 C 287.585 0.690399 4.26448 0
M  V30 3091 C 286.72 -0.0610712 5.31165 0
M  V30 3092 C 285.759 0.905649 6.05363 0
M  V30 3093 N 284.896 0.186055 7.01853 0
M  V30 3094 H 289.736 1.30291 2.68008 0
M  V30 3095 H 287.273 0.65371 1.31776 0
M  V30 3096 H 289.231 -0.724313 4.10864 0
M  V30 3097 H 287.861 -1.10535 3.03285 0
M  V30 3098 H 286.913 1.24885 3.59316 0
M  V30 3099 H 288.225 1.42873 4.779 0
M  V30 3100 H 287.379 -0.56038 6.04106 0
M  V30 3101 H 286.118 -0.832297 4.80546 0
M  V30 3102 H 285.123 1.4161 5.3125 0
M  V30 3103 H 286.348 1.67685 6.58072 0
M  V30 3104 H 284.294 -0.566714 6.53548 0
M  V30 3105 H 284.211 0.863752 7.51049 0
M  V30 3106 H 285.479 -0.292221 7.78952 0
M  V30 3107 N 289.708 -1.40897 0.706093 0
M  V30 3108 C 290.638 -2.33418 0.0620085 0
M  V30 3109 C 291.619 -1.52385 -0.755827 0
M  V30 3110 O 292.804 -1.80886 -0.706674 0
M  V30 3111 C 289.934 -3.36293 -0.867445 0
M  V30 3112 C 288.888 -4.27716 -0.155932 0
M  V30 3113 C 288.214 -5.2105 -1.20046 0
M  V30 3114 C 289.514 -5.12944 0.984149 0
M  V30 3115 H 291.208 -2.87527 0.83477 0
M  V30 3116 H 288.754 -1.38249 0.402875 0
M  V30 3117 H 290.707 -3.99949 -1.32735 0
M  V30 3118 H 289.431 -2.80556 -1.67199 0
M  V30 3119 H 288.09 -3.65498 0.284047 0
M  V30 3120 H 287.738 -4.61624 -1.99781 0
M  V30 3121 H 287.438 -5.83056 -0.729328 0
M  V30 3122 H 288.962 -5.87584 -1.66066 0
M  V30 3123 H 290.376 -5.70109 0.604048 0
M  V30 3124 H 288.773 -5.83945 1.38304 0
M  V30 3125 H 289.843 -4.49485 1.81911 0
M  V30 3126 N 291.186 -0.45159 -1.50991 0
M  V30 3127 C 292.116 0.342898 -2.30969 0
M  V30 3128 C 293.097 1.00815 -1.37005 0
M  V30 3129 O 294.282 1.00907 -1.65926 0
M  V30 3130 C 291.412 1.43637 -3.16205 0
M  V30 3131 C 290.366 0.893818 -4.18563 0
M  V30 3132 C 289.692 2.08411 -4.92411 0
M  V30 3133 C 290.992 -0.0815568 -5.22236 0
M  V30 3134 H 292.686 -0.324556 -2.97636 0
M  V30 3135 H 290.232 -0.157531 -1.43136 0
M  V30 3136 H 292.185 1.9995 -3.70942 0
M  V30 3137 H 290.909 2.13232 -2.47386 0
M  V30 3138 H 289.568 0.352798 -3.64898 0
M  V30 3139 H 289.216 2.76658 -4.20082 0
M  V30 3140 H 288.916 1.72741 -5.61636 0
M  V30 3141 H 290.44 2.65251 -5.49976 0
M  V30 3142 H 291.854 0.391742 -5.7196 0
M  V30 3143 H 290.251 -0.351551 -5.99069 0
M  V30 3144 H 291.321 -1.01374 -4.74185 0
M  V30 3145 N 292.664 1.56529 -0.183458 0
M  V30 3146 C 293.596 2.15747 0.773697 0
M  V30 3147 C 294.609 1.1162 1.1851 0
M  V30 3148 O 295.798 1.3876 1.12285 0
M  V30 3149 C 292.898 2.6952 2.05456 0
M  V30 3150 C 292.071 3.98429 1.8048 0
M  V30 3151 C 291.13 4.37145 2.92901 0
M  V30 3152 O 290.156 5.04791 2.6301 0
M  V30 3153 N 291.358 3.99695 4.2098 0
M  V30 3154 H 294.123 2.98505 0.26736 0
M  V30 3155 H 291.684 1.619 -0.0010878 0
M  V30 3156 H 293.676 2.92412 2.79781 0
M  V30 3157 H 292.246 1.91282 2.47245 0
M  V30 3158 H 291.466 3.8379 0.899947 0
M  V30 3159 H 292.754 4.82597 1.61175 0
M  V30 3160 H 292.152 3.4526 4.48121 0
M  V30 3161 H 290.709 4.27562 4.9197 0
M  V30 3162 N 294.142 -0.090211 1.57342 0
M  V30 3163 C 295.37 -0.806224 1.90546 0
M  V30 3164 C 295.785 -1.72041 0.777644 0
M  V30 3165 O 295.142 -1.80778 -0.250103 0
M  V30 3166 C 295.193 -1.61546 3.23396 0
M  V30 3167 O 294.914 -0.738043 4.31839 0
M  V30 3168 C 296.415 -2.4341 3.70495 0
M  V30 3169 H 293.635 -0.230256 0.630257 0
M  V30 3170 H 296.179 -0.0659843 2.04394 0
M  V30 3171 H 294.334 -2.30816 3.11131 0
M  V30 3172 H 294.748 -1.29901 5.08159 0
M  V30 3173 H 296.222 -2.95676 4.66133 0
M  V30 3174 H 296.699 -3.22098 2.98579 0
M  V30 3175 H 297.305 -1.79331 3.85643 0
M  V30 3176 N 295.62 -1.53406 -0.361157 0
M  V30 3177 C 296.869 -1.69022 -1.10066 0
M  V30 3178 C 297.182 -0.450838 -1.90333 0
M  V30 3179 O 298.388 -0.487617 -2.67085 0
M  V30 3180 C 296.844 -2.98812 -2.00598 0
M  V30 3181 C 296.452 -4.30027 -1.25621 0
M  V30 3182 C 298.196 -3.23795 -2.74513 0
M  V30 3183 C 296.103 -5.50903 -2.1508 0
M  V30 3184 H 295.033 -0.629776 -0.414606 0
M  V30 3185 H 297.684 -1.79907 -0.361348 0
M  V30 3186 H 296.066 -2.8174 -2.78278 0
M  V30 3187 H 297.24 -4.57745 -0.529739 0
M  V30 3188 H 295.555 -4.11522 -0.635496 0
M  V30 3189 H 298.152 -4.11289 -3.41681 0
M  V30 3190 H 298.495 -2.40045 -3.40123 0
M  V30 3191 H 299.028 -3.41561 -2.03914 0
M  V30 3192 H 295.767 -6.37143 -1.54041 0
M  V30 3193 H 295.287 -5.27459 -2.85565 0
M  V30 3194 H 296.966 -5.85865 -2.74538 0
M  V30 3195 N 297.098 0.621204 -1.44841 0
M  V30 3196 C 298.346 1.37783 -1.47852 0
M  V30 3197 C 298.667 1.94653 -0.116224 0
M  V30 3198 O 297.937 1.76367 0.852737 0
M  V30 3199 H 296.517 0.511453 -0.544449 0
M  V30 3200 H 299.179 0.730446 -1.80694 0
M  V30 3201 H 298.275 2.20414 -2.20961 0
M  V30 3202 N 298.576 1.31904 0.862503 0
M  V30 3203 C 299.523 1.20182 1.9704 0
M  V30 3204 C 300.493 0.0858247 1.65878 0
M  V30 3205 O 301.678 0.26 1.8902 0
M  V30 3206 C 298.818 0.922797 3.32533 0
M  V30 3207 C 297.931 2.12284 3.76244 0
M  V30 3208 C 297.066 1.77996 5.00491 0
M  V30 3209 C 296.105 2.94366 5.36671 0
M  V30 3210 N 295.242 2.60223 6.52095 0
M  V30 3211 H 300.082 2.14951 2.06398 0
M  V30 3212 H 297.619 1.06917 1.01031 0
M  V30 3213 H 299.577 0.741548 4.10557 0
M  V30 3214 H 298.207 0.0119227 3.22798 0
M  V30 3215 H 297.259 2.41461 2.9394 0
M  V30 3216 H 298.571 2.99357 3.98982 0
M  V30 3217 H 297.725 1.56377 5.862 0
M  V30 3218 H 296.464 0.881252 4.79672 0
M  V30 3219 H 295.469 3.16625 4.49476 0
M  V30 3220 H 296.694 3.84957 5.59451 0
M  V30 3221 H 294.64 1.72884 6.32809 0
M  V30 3222 H 294.557 3.40827 6.74814 0
M  V30 3223 H 295.825 2.42016 7.40978 0
M  V30 3224 N 300.054 -1.07777 1.14986 0
M  V30 3225 C 301.302 -1.79934 0.920235 0
M  V30 3226 C 301.623 -1.86955 -0.554336 0
M  V30 3227 O 300.893 -1.36731 -1.40291 0
M  V30 3228 H 299.473 -0.666424 0.337473 0
M  V30 3229 H 302.135 -1.3027 1.44968 0
M  V30 3230 H 301.231 -2.82539 1.32583 0
M  V30 3231 N 301.532 -0.945985 -1.26051 0
M  V30 3232 C 302.442 -0.465633 -2.29933 0
M  V30 3233 C 303.458 0.462761 -1.67733 0
M  V30 3234 O 304.634 0.341118 -1.9849 0
M  V30 3235 C 301.699 0.256994 -3.45746 0
M  V30 3236 C 300.76 -0.708549 -4.23412 0
M  V30 3237 C 299.993 -0.0203135 -5.33696 0
M  V30 3238 O 300.216 1.19571 -5.57726 0
M  V30 3239 O 299.15 -0.701459 -5.97799 0
M  V30 3240 H 302.976 -1.32866 -2.73094 0
M  V30 3241 H 300.561 -0.712071 -1.31339 0
M  V30 3242 H 302.443 0.663852 -4.16138 0
M  V30 3243 H 301.118 1.09533 -3.04605 0
M  V30 3244 H 300.025 -1.16545 -3.55483 0
M  V30 3245 H 301.358 -1.51465 -4.68315 0
M  V30 3246 N 303.011 1.40521 -0.713556 0
M  V30 3247 C 304.258 2.00923 -0.25219 0
M  V30 3248 C 304.586 1.56571 1.15395 0
M  V30 3249 O 303.841 0.775874 1.79663 0
M  V30 3250 C 304.14 3.56317 -0.278 0
M  V30 3251 C 303.806 4.20246 -1.63415 0
M  V30 3252 C 302.468 4.37422 -2.00538 0
M  V30 3253 C 304.82 4.55923 -2.52554 0
M  V30 3254 C 302.148 4.87558 -3.2635 0
M  V30 3255 C 304.5 5.07458 -3.77716 0
M  V30 3256 C 303.164 5.22843 -4.14959 0
M  V30 3257 H 302.434 0.735231 -0.0922829 0
M  V30 3258 H 305.081 1.68161 -0.916188 0
M  V30 3259 H 303.386 3.88976 0.469567 0
M  V30 3260 H 305.083 4.00883 0.0967819 0
M  V30 3261 H 301.673 4.07263 -1.33546 0
M  V30 3262 H 305.857 4.42291 -2.25149 0
M  V30 3263 H 301.113 4.97654 -3.55176 0
M  V30 3264 H 305.287 5.34041 -4.4696 0
M  V30 3265 H 302.914 5.61454 -5.12516 0
M  V30 3266 N 304.489 0.459591 1.5075 0
M  V30 3267 C 305.737 -0.0991532 2.01857 0
M  V30 3268 C 306.058 -1.41247 1.34441 0
M  V30 3269 O 305.328 -1.89775 0.486022 0
M  V30 3270 H 303.908 -0.039633 0.745948 0
M  V30 3271 H 306.57 0.607387 1.85194 0
M  V30 3272 H 305.666 -0.258998 3.11023 0
M  V30 3273 N 305.967 -1.56429 0.191757 0
M  V30 3274 C 307.244 -1.89224 -0.495332 0
M  V30 3275 C 307.624 -1.10478 -1.79883 0
M  V30 3276 O 306.972 -0.204852 -2.2758 0
M  V30 3277 C 307.182 -3.41548 -0.717367 0
M  V30 3278 C 308.53 -4.11711 -1.03823 0
M  V30 3279 O 309.554 -3.4698 -0.805204 0
M  V30 3280 O 308.413 -5.2611 -1.47887 0
M  V30 3281 H 305.507 -0.785788 -0.25781 0
M  V30 3282 H 308.053 -1.68111 0.231721 0
M  V30 3283 H 306.825 -3.90772 0.203287 0
M  V30 3284 H 306.448 -3.68342 -1.497 0
M  V30 3285 N 307.445 0.0818655 -1.57387 0
M  V30 3286 C 308.691 0.784074 -1.8703 0
M  V30 3287 C 309.024 1.77729 -0.782689 0
M  V30 3288 O 308.299 1.93384 0.208051 0
M  V30 3289 C 308.582 1.50105 -3.27323 0
M  V30 3290 C 308.435 0.524925 -4.46727 0
M  V30 3291 C 309.754 2.44843 -3.65705 0
M  V30 3292 H 306.873 0.283582 -0.680257 0
M  V30 3293 H 309.515 0.0474352 -1.89941 0
M  V30 3294 H 307.665 2.12897 -3.24972 0
M  V30 3295 H 309.337 -0.0970111 -4.61198 0
M  V30 3296 H 307.58 -0.160606 -4.33503 0
M  V30 3297 H 308.251 1.064 -5.41648 0
M  V30 3298 H 310.727 1.92135 -3.69085 0
M  V30 3299 H 309.603 2.92018 -4.64776 0
M  V30 3300 H 309.864 3.29197 -2.95096 0
M  V30 3301 N 308.923 1.53595 0.353017 0
M  V30 3302 C 309.856 1.7572 1.45594 0
M  V30 3303 C 310.834 0.605961 1.50887 0
M  V30 3304 O 312.018 0.840023 1.68748 0
M  V30 3305 C 309.145 1.84732 2.83887 0
M  V30 3306 C 308.191 3.06808 2.96262 0
M  V30 3307 S 309.024 4.66065 2.63711 0
M  V30 3308 C 310.18 4.77943 4.04131 0
M  V30 3309 H 310.413 2.68994 1.26608 0
M  V30 3310 H 307.946 1.44343 0.548117 0
M  V30 3311 H 309.904 1.9061 3.63563 0
M  V30 3312 H 308.565 0.92488 3.00175 0
M  V30 3313 H 307.758 3.09761 3.97573 0
M  V30 3314 H 307.36 2.99108 2.24523 0
M  V30 3315 H 309.652 4.5877 4.98534 0
M  V30 3316 H 310.595 5.80022 4.06177 0
M  V30 3317 H 311.003 4.06472 3.91715 0
M  V30 3318 N 310.401 -0.613514 1.45168 0
M  V30 3319 C 311.331 -1.7354 1.56225 0
M  V30 3320 C 312.312 -1.64981 0.41414 0
M  V30 3321 O 313.497 -1.83472 0.636526 0
M  V30 3322 C 310.627 -3.12128 1.52295 0
M  V30 3323 C 309.581 -3.35491 2.65762 0
M  V30 3324 C 308.907 -4.74291 2.46885 0
M  V30 3325 C 310.207 -3.26325 4.0781 0
M  V30 3326 H 311.901 -1.64543 2.50132 0
M  V30 3327 H 309.447 -0.790185 1.20383 0
M  V30 3328 H 311.4 -3.90404 1.58628 0
M  V30 3329 H 310.124 -3.2195 0.549139 0
M  V30 3330 H 308.783 -2.59603 2.58847 0
M  V30 3331 H 308.431 -4.80839 1.47657 0
M  V30 3332 H 308.131 -4.9088 3.22972 0
M  V30 3333 H 309.655 -5.54775 2.55063 0
M  V30 3334 H 311.069 -3.94483 4.16 0
M  V30 3335 H 309.466 -3.54445 4.8424 0
M  V30 3336 H 310.536 -2.23855 4.30136 0
M  V30 3337 N 311.879 -1.3236 -0.855495 0
M  V30 3338 C 313.127 -1.22629 -1.60644 0
M  V30 3339 C 313.448 0.212136 -1.93843 0
M  V30 3340 O 312.718 1.13666 -1.59552 0
M  V30 3341 H 311.298 -0.450882 -0.595579 0
M  V30 3342 H 313.96 -1.65871 -1.02337 0
M  V30 3343 H 313.056 -1.80832 -2.54374 0
M  V30 3344 N 313.357 1.07166 -1.15556 0
M  V30 3345 C 314.634 1.76546 -0.842069 0
M  V30 3346 C 315.014 2.00453 0.661939 0
M  V30 3347 O 314.362 1.62452 1.60691 0
M  V30 3348 C 314.572 3.07266 -1.65495 0
M  V30 3349 C 315.92 3.81578 -1.86234 0
M  V30 3350 O 316.944 3.17083 -1.62287 0
M  V30 3351 O 315.803 4.97419 -2.26355 0
M  V30 3352 H 312.897 0.766756 -0.309862 0
M  V30 3353 H 315.443 1.13514 -1.26145 0
M  V30 3354 H 314.215 2.85494 -2.67598 0
M  V30 3355 H 313.838 3.7803 -1.23203 0
M  V30 3356 N 314.835 0.952656 1.25548 0
M  V30 3357 C 316.065 0.622592 1.96996 0
M  V30 3358 C 316.473 -0.809112 1.71026 0
M  V30 3359 O 315.816 -1.55258 0.981861 0
M  V30 3360 C 315.878 0.798946 3.5051 0
M  V30 3361 C 315.542 2.20744 4.00151 0
M  V30 3362 C 316.539 3.18394 4.11001 0
M  V30 3363 C 314.224 2.5311 4.33867 0
M  V30 3364 C 316.218 4.46504 4.54877 0
M  V30 3365 C 313.905 3.8145 4.7743 0
M  V30 3366 C 314.903 4.77959 4.87897 0
M  V30 3367 O 314.591 6.04012 5.30494 0
M  V30 3368 H 314.323 0.232503 0.634758 0
M  V30 3369 H 316.877 1.2789 1.60728 0
M  V30 3370 H 315.107 0.0854903 3.86605 0
M  V30 3371 H 316.796 0.47023 4.03167 0
M  V30 3372 H 317.562 2.94715 3.85186 0
M  V30 3373 H 313.441 1.78719 4.24948 0
M  V30 3374 H 316.985 5.21835 4.62962 0
M  V30 3375 H 312.882 4.04936 5.0269 0
M  V30 3376 H 313.65 6.0736 5.48685 0
M  V30 3377 N 316.313 -1.40141 0.720998 0
M  V30 3378 C 317.729 -1.54632 0.395113 0
M  V30 3379 C 317.929 -1.69115 -1.09555 0
M  V30 3380 O 316.985 -1.68377 -1.88163 0
M  V30 3381 C 318.298 -2.77177 1.1659 0
M  V30 3382 C 319.846 -2.91 1.15274 0
M  V30 3383 C 320.321 -4.16465 1.90579 0
M  V30 3384 N 321.812 -4.23476 1.87675 0
M  V30 3385 C 322.547 -5.19475 2.42762 0
M  V30 3386 N 322.043 -6.21348 3.06428 0
M  V30 3387 N 323.836 -5.11592 2.32874 0
M  V30 3388 H 315.987 -1.28986 1.68749 0
M  V30 3389 H 318.25 -0.62412 0.713567 0
M  V30 3390 H 317.956 -2.72771 2.22011 0
M  V30 3391 H 317.83 -3.69442 0.76108 0
M  V30 3392 H 320.217 -2.94907 0.106702 0
M  V30 3393 H 320.298 -1.99838 1.59682 0
M  V30 3394 H 319.942 -4.1332 2.95176 0
M  V30 3395 H 319.872 -5.06646 1.43587 0
M  V30 3396 H 322.363 -3.50497 1.41281 0
M  V30 3397 H 322.676 -6.91034 3.45965 0
M  V30 3398 H 321.021 -6.21777 3.10514 0
M  V30 3399 H 324.212 -4.30936 1.82789 0
M  V30 3400 H 324.385 -5.86233 2.76106 0
M  V30 3401 N 317.792 -0.46758 -1.50504 0
M  V30 3402 C 319.04 0.0884469 -2.01906 0
M  V30 3403 C 319.361 1.40532 -1.35188 0
M  V30 3404 O 318.631 1.89515 -0.496079 0
M  V30 3405 H 317.211 0.0356765 -0.746148 0
M  V30 3406 H 319.873 -0.6172 -1.84869 0
M  V30 3407 H 318.969 0.2425 -3.11156 0
M  V30 3408 N 319.27 1.56325 -0.20005 0
M  V30 3409 C 320.218 2.20666 0.735482 0
M  V30 3410 C 321.212 1.17934 1.21605 0
M  V30 3411 O 322.418 1.36068 1.17837 0
M  V30 3412 H 318.793 0.70725 0.255542 0
M  V30 3413 H 320.764 2.9792 0.169166 0
M  V30 3414 C 319.513 2.88391 1.94232 0
M  V30 3415 H 318.836 3.67185 1.58161 0
M  V30 3416 H 320.276 3.3684 2.57517 0
M  V30 3417 C 318.735 1.89692 2.78421 0
M  V30 3418 O 319.265 1.40032 3.76502 0
M  V30 3419 N 317.471 1.57813 2.44015 0
M  V30 3420 H 317.018 1.9839 1.64314 0
M  V30 3421 H 316.976 0.920325 3.00628 0
M  V30 3422 N 320.748 -0.0735177 1.57428 0
M  V30 3423 C 321.695 -1.08756 2.0357 0
M  V30 3424 C 322.665 -1.38559 0.916 0
M  V30 3425 O 323.85 -1.49656 1.18354 0
M  V30 3426 C 320.99 -2.39657 2.48311 0
M  V30 3427 C 320.103 -2.16399 3.73892 0
M  V30 3428 C 319.238 -3.40852 4.07423 0
M  V30 3429 C 318.277 -3.1295 5.2605 0
M  V30 3430 N 317.414 -4.29729 5.55228 0
M  V30 3431 H 322.254 -0.687104 2.8997 0
M  V30 3432 H 319.791 -0.327709 1.43403 0
M  V30 3433 H 321.749 -3.16081 2.72303 0
M  V30 3434 H 320.379 -2.77508 1.64891 0
M  V30 3435 H 319.431 -1.30676 3.57251 0
M  V30 3436 H 320.743 -1.91788 4.60455 0
M  V30 3437 H 319.897 -4.25671 4.32306 0
M  V30 3438 H 318.636 -3.68537 3.19425 0
M  V30 3439 H 317.641 -2.26526 5.00965 0
M  V30 3440 H 318.866 -2.86589 6.15665 0
M  V30 3441 H 316.812 -4.57448 4.70188 0
M  V30 3442 H 316.729 -4.08385 6.36206 0
M  V30 3443 H 317.997 -5.1555 5.84661 0
M  V30 3444 N 322.226 -1.5378 -0.344866 0
M  V30 3445 C 323.472 -1.71216 -1.08687 0
M  V30 3446 C 323.805 -0.473281 -1.88345 0
M  V30 3447 O 323.08 0.52968 -1.87149 0
M  V30 3448 C 323.363 -2.97486 -2.02914 0
M  V30 3449 C 323.216 -4.31579 -1.26727 0
M  V30 3450 C 324.535 -3.19422 -3.0275 0
M  V30 3451 H 321.654 -0.62301 -0.393735 0
M  V30 3452 H 324.296 -1.8645 -0.365563 0
M  V30 3453 H 322.446 -2.84629 -2.64421 0
M  V30 3454 H 324.118 -4.56284 -0.67845 0
M  V30 3455 H 322.361 -4.30049 -0.569273 0
M  V30 3456 H 323.032 -5.16106 -1.95803 0
M  V30 3457 H 325.508 -3.316 -2.51357 0
M  V30 3458 H 324.384 -4.09169 -3.65885 0
M  V30 3459 H 324.645 -2.35656 -3.74057 0
M  V30 3460 N 323.704 0.605807 -1.45491 0
M  V30 3461 C 324.667 1.69836 -1.5391 0
M  V30 3462 C 325.667 1.55261 -0.418424 0
M  V30 3463 O 326.857 1.60296 -0.681965 0
M  V30 3464 C 323.989 3.09117 -1.43734 0
M  V30 3465 H 325.182 1.63738 -2.51257 0
M  V30 3466 H 322.735 0.821689 -1.32959 0
M  V30 3467 H 323.47 3.20791 -0.475788 0
M  V30 3468 H 323.255 3.21104 -2.25021 0
M  V30 3469 H 324.745 3.88696 -1.52661 0
M  V30 3470 N 325.182 1.32811 0.848464 0
M  V30 3471 C 326.428 1.23907 1.60546 0
M  V30 3472 C 326.761 -0.197161 1.93197 0
M  V30 3473 O 326.036 -1.13596 1.5788 0
M  V30 3474 C 326.319 2.10489 2.92175 0
M  V30 3475 C 326.172 3.62522 2.66266 0
M  V30 3476 C 327.491 1.97075 3.93509 0
M  V30 3477 H 324.61 0.451459 0.58254 0
M  V30 3478 H 327.252 1.62818 0.979296 0
M  V30 3479 H 325.402 1.77434 3.45614 0
M  V30 3480 H 327.074 4.05821 2.19334 0
M  V30 3481 H 325.317 3.84879 2.00126 0
M  V30 3482 H 325.988 4.18437 3.6002 0
M  V30 3483 H 328.464 2.26045 3.49346 0
M  V30 3484 H 327.34 2.59923 4.83457 0
M  V30 3485 H 327.601 0.940186 4.31987 0
M  V30 3486 N 326.66 -1.06551 1.16123 0
M  V30 3487 C 327.607 -2.13961 0.865414 0
M  V30 3488 C 328.577 -1.65066 -0.185055 0
M  V30 3489 O 329.762 -1.90732 -0.05083 0
M  V30 3490 C 326.902 -3.43113 0.369776 0
M  V30 3491 C 326.015 -4.05756 1.48276 0
M  V30 3492 C 325.15 -5.22773 0.942414 0
M  V30 3493 C 324.189 -5.77395 2.03179 0
M  V30 3494 N 323.326 -6.85731 1.50721 0
M  V30 3495 H 328.166 -2.38605 1.78527 0
M  V30 3496 H 325.703 -1.17072 0.890646 0
M  V30 3497 H 327.661 -4.17151 0.0640643 0
M  V30 3498 H 326.291 -3.18695 -0.513143 0
M  V30 3499 H 325.343 -3.29292 1.9045 0
M  V30 3500 H 326.655 -4.42351 2.30493 0
M  V30 3501 H 325.809 -6.03827 0.589729 0
M  V30 3502 H 324.548 -4.87618 0.0895191 0
M  V30 3503 H 323.553 -4.94981 2.3932 0
M  V30 3504 H 324.778 -6.14603 2.8886 0
M  V30 3505 H 322.724 -6.52499 0.676811 0
M  V30 3506 H 322.641 -7.21254 2.26557 0
M  V30 3507 H 323.909 -7.7047 1.18303 0
M  V30 3508 N 328.138 -0.959301 -1.25041 0
M  V30 3509 C 329.378 -0.624343 -1.94631 0
M  V30 3510 C 329.742 0.82403 -1.73418 0
M  V30 3511 O 330.943 1.26881 -2.3697 0
M  V30 3512 C 329.214 -0.978805 -3.43736 0
M  V30 3513 S 330.773 -0.757127 -4.32219 0
M  V30 3514 H 327.591 -0.229327 -0.673001 0
M  V30 3515 H 330.193 -1.23447 -1.51595 0
M  V30 3516 H 328.897 -2.02997 -3.56679 0
M  V30 3517 H 328.428 -0.359117 -3.91757 0
M  V30 3518 H 330.443 0.369759 -4.9482 0
M  V30 3519 N 329.616 1.39756 -0.72842 0
M  V30 3520 C 330.865 1.99879 -0.270407 0
M  V30 3521 C 331.178 1.58449 1.14688 0
M  V30 3522 O 332.384 2.11362 1.70407 0
M  V30 3523 C 330.84 3.57292 -0.43252 0
M  V30 3524 C 330.448 4.07688 -1.85727 0
M  V30 3525 C 332.192 4.24485 -0.0359507 0
M  V30 3526 C 330.099 5.5765 -1.96928 0
M  V30 3527 H 329.029 0.747689 -0.0973472 0
M  V30 3528 H 331.68 1.59837 -0.901355 0
M  V30 3529 H 330.062 3.95097 0.267219 0
M  V30 3530 H 331.236 3.81231 -2.58843 0
M  V30 3531 H 329.551 3.53135 -2.20646 0
M  V30 3532 H 332.148 5.34609 -0.0987484 0
M  V30 3533 H 332.491 4.03915 1.00787 0
M  V30 3534 H 333.024 3.9183 -0.686604 0
M  V30 3535 H 329.763 5.8309 -2.99476 0
M  V30 3536 H 329.283 5.8593 -1.28241 0
M  V30 3537 H 330.962 6.22957 -1.74737 0
M  V30 3538 N 331.094 0.475555 1.50254 0
M  V30 3539 C 332.041 -0.316293 2.28622 0
M  V30 3540 C 333.011 -0.983227 1.33873 0
M  V30 3541 O 334.196 -0.994805 1.62814 0
M  V30 3542 C 331.336 -1.38975 3.1588 0
M  V30 3543 C 330.449 -0.737146 4.25664 0
M  V30 3544 C 329.584 -1.78887 5.00173 0
M  V30 3545 C 328.623 -1.11676 6.01826 0
M  V30 3546 N 327.76 -2.11154 6.69596 0
M  V30 3547 H 332.6 0.358297 2.95838 0
M  V30 3548 H 330.137 0.188541 1.45887 0
M  V30 3549 H 332.095 -2.02383 3.64825 0
M  V30 3550 H 330.725 -2.03344 2.50701 0
M  V30 3551 H 329.777 0.0096065 3.80399 0
M  V30 3552 H 331.089 -0.206816 4.98371 0
M  V30 3553 H 330.243 -2.49865 5.52859 0
M  V30 3554 H 328.982 -2.35302 4.27182 0
M  V30 3555 H 327.987 -0.392633 5.48396 0
M  V30 3556 H 329.212 -0.55945 6.76792 0
M  V30 3557 H 327.158 -2.66577 5.99394 0
M  V30 3558 H 327.075 -1.63118 7.38193 0
M  V30 3559 H 328.343 -2.81497 7.26897 0
M  V30 3560 N 332.573 -1.56217 0.208337 0
M  V30 3561 C 333.521 -2.21053 -0.723769 0
M  V30 3562 C 334.515 -1.18578 -1.20978 0
M  V30 3563 O 335.721 -1.36691 -1.17114 0
M  V30 3564 H 332.096 -0.708595 -0.251788 0
M  V30 3565 H 334.067 -2.98006 -0.153365 0
M  V30 3566 C 332.816 -2.89417 -1.927 0
M  V30 3567 H 332.139 -3.68019 -1.56212 0
M  V30 3568 H 333.579 -3.38201 -2.55727 0
M  V30 3569 C 332.038 -1.91166 -2.77411 0
M  V30 3570 O 332.568 -1.42026 -3.75754 0
M  V30 3571 N 330.774 -1.59105 -2.43175 0
M  V30 3572 H 330.321 -1.99259 -1.63259 0
M  V30 3573 H 330.279 -0.936255 -3.00136 0
M  V30 3574 N 334.051 0.0651679 -1.57465 0
M  V30 3575 C 335.328 0.79644 -1.78651 0
M  V30 3576 C 335.708 1.95454 -0.797566 0
M  V30 3577 O 335.056 2.27882 0.167946 0
M  V30 3578 C 335.266 1.26322 -3.25337 0
M  V30 3579 C 336.614 1.6939 -3.89348 0
M  V30 3580 O 337.638 1.35872 -3.29268 0
M  V30 3581 O 336.497 2.31471 -4.95059 0
M  V30 3582 H 333.591 0.382157 -0.733407 0
M  V30 3583 H 336.137 0.0447311 -1.69641 0
M  V30 3584 H 334.909 0.434859 -3.88876 0
M  V30 3585 H 334.532 2.07604 -3.39096 0
M  V30 3586 N 335.529 1.53961 0.336706 0
M  V30 3587 C 336.492 1.81724 1.39675 0
M  V30 3588 C 337.492 0.688532 1.45313 0
M  V30 3589 O 338.682 0.956829 1.45569 0
M  V30 3590 C 335.814 1.96543 2.78538 0
M  V30 3591 H 337.007 2.76424 1.16318 0
M  V30 3592 H 334.56 1.45478 0.571474 0
M  V30 3593 H 335.295 1.0401 3.07168 0
M  V30 3594 H 335.08 2.78665 2.75841 0
M  V30 3595 H 336.57 2.19516 3.5525 0
M  V30 3596 N 337.007 -0.598083 1.45811 0
M  V30 3597 C 338.235 -1.38322 1.53866 0
M  V30 3598 C 338.65 -1.87992 0.174479 0
M  V30 3599 O 338.007 -1.62756 -0.825627 0
M  V30 3600 C 338.058 -2.58125 2.53089 0
M  V30 3601 O 337.779 -2.10516 3.84206 0
M  V30 3602 C 339.28 -3.50869 2.70935 0
M  V30 3603 H 336.5 -0.423093 0.520801 0
M  V30 3604 H 339.044 -0.728527 1.91083 0
M  V30 3605 H 337.199 -3.19615 2.18917 0
M  V30 3606 H 337.613 -2.88425 4.38077 0
M  V30 3607 H 339.087 -4.31451 3.44317 0
M  V30 3608 H 339.564 -4.01822 1.77301 0
M  V30 3609 H 340.17 -2.95225 3.06141 0
M  V30 3610 N 338.485 -1.33259 -0.841409 0
M  V30 3611 C 339.448 -1.23221 -1.9326 0
M  V30 3612 C 340.448 -0.151895 -1.60081 0
M  V30 3613 O 341.638 -0.403246 -1.69468 0
M  V30 3614 C 338.77 -0.898123 -3.28856 0
M  V30 3615 H 339.963 -2.2021 -2.03587 0
M  V30 3616 H 337.516 -1.17281 -1.03319 0
M  V30 3617 H 338.251 0.0693841 -3.24226 0
M  V30 3618 H 338.036 -1.67934 -3.54317 0
M  V30 3619 H 339.526 -0.852563 -4.08805 0
M  V30 3620 N 339.963 1.05934 -1.16686 0
M  V30 3621 C 340.895 2.13468 -0.834503 0
M  V30 3622 C 341.908 1.62013 0.15984 0
M  V30 3623 O 343.097 1.7838 -0.0654228 0
M  V30 3624 C 340.197 3.3817 -0.222361 0
M  V30 3625 C 339.37 4.18928 -1.25771 0
M  V30 3626 C 338.429 5.21985 -0.664703 0
M  V30 3627 O 337.455 5.53334 -1.33453 0
M  V30 3628 N 338.657 5.77919 0.546834 0
M  V30 3629 H 341.422 2.42578 -1.75999 0
M  V30 3630 H 338.983 1.21967 -1.06469 0
M  V30 3631 H 340.975 4.04266 0.187472 0
M  V30 3632 H 339.545 3.06655 0.606758 0
M  V30 3633 H 338.765 3.48433 -1.84358 0
M  V30 3634 H 340.053 4.69687 -1.95631 0
M  V30 3635 H 339.451 5.54721 1.10912 0
M  V30 3636 H 338.008 6.45573 0.898829 0
M  V30 3637 N 341.441 0.965919 1.2453 0
M  V30 3638 C 342.404 0.499547 2.2369 0
M  V30 3639 C 343.404 -0.40294 1.5567 0
M  V30 3640 O 344.594 -0.19865 1.73064 0
M  V30 3641 C 341.726 -0.276792 3.39774 0
M  V30 3642 H 342.919 1.37613 2.66463 0
M  V30 3643 H 340.472 0.750324 1.37112 0
M  V30 3644 H 341.207 -1.17055 3.02438 0
M  V30 3645 H 340.992 0.370826 3.90343 0
M  V30 3646 H 342.482 -0.592175 4.1338 0
M  V30 3647 N 342.919 -1.39368 0.735821 0
M  V30 3648 C 344.166 -2.00497 0.284123 0
M  V30 3649 C 344.494 -1.58387 -1.12889 0
M  V30 3650 O 343.749 -0.804359 -1.78406 0
M  V30 3651 C 344.048 -3.5583 0.334651 0
M  V30 3652 C 343.714 -4.17593 1.7008 0
M  V30 3653 C 342.376 -4.34176 2.07472 0
M  V30 3654 C 344.728 -4.51848 2.59775 0
M  V30 3655 C 342.056 -4.82304 3.34065 0
M  V30 3656 C 344.408 -5.01384 3.85741 0
M  V30 3657 C 343.072 -5.16175 4.23225 0
M  V30 3658 H 342.342 -0.73367 0.103968 0
M  V30 3659 H 344.989 -1.66683 0.942825 0
M  V30 3660 H 343.294 -3.89674 -0.407625 0
M  V30 3661 H 344.991 -4.00986 -0.0329927 0
M  V30 3662 H 341.581 -4.05087 1.40008 0
M  V30 3663 H 345.765 -4.38653 2.32157 0
M  V30 3664 H 341.021 -4.91941 3.63049 0
M  V30 3665 H 345.195 -5.26863 4.55399 0
M  V30 3666 H 342.822 -5.5323 5.21384 0
M  V30 3667 N 344.397 -0.483516 -1.5 0
M  V30 3668 C 345.327 0.293829 -2.31644 0
M  V30 3669 C 346.308 0.978864 -1.39112 0
M  V30 3670 O 347.493 0.973644 -1.68029 0
M  V30 3671 C 344.623 1.36897 -3.19181 0
M  V30 3672 C 343.577 0.804833 -4.20365 0
M  V30 3673 C 342.903 1.9792 -4.96721 0
M  V30 3674 C 344.203 -0.192313 -5.21946 0
M  V30 3675 H 345.897 -0.387616 -2.9688 0
M  V30 3676 H 343.443 -0.187856 -1.42769 0
M  V30 3677 H 345.396 1.92037 -3.751 0
M  V30 3678 H 344.12 2.07936 -2.51853 0
M  V30 3679 H 342.779 0.275319 -3.65565 0
M  V30 3680 H 342.427 2.67686 -4.25856 0
M  V30 3681 H 342.127 1.60789 -5.65173 0
M  V30 3682 H 343.651 2.53526 -5.55479 0
M  V30 3683 H 345.065 0.270333 -5.72662 0
M  V30 3684 H 343.462 -0.478543 -5.98189 0
M  V30 3685 H 344.532 -1.11409 -4.71928 0
M  V30 3686 N 345.875 1.56104 -0.216619 0
M  V30 3687 C 346.838 2.18819 0.681962 0
M  V30 3688 C 347.838 1.14866 1.12528 0
M  V30 3689 O 349.028 1.40128 1.03488 0
M  V30 3690 C 346.16 2.80756 1.93362 0
M  V30 3691 H 347.353 2.99595 0.135254 0
M  V30 3692 H 344.906 1.56265 0.0330003 0
M  V30 3693 H 345.641 2.03837 2.52232 0
M  V30 3694 H 345.426 3.56876 1.62426 0
M  V30 3695 H 346.916 3.28844 2.57393 0
M  V30 3696 N 347.353 -0.0568162 1.57498 0
M  V30 3697 C 348.263 -1.08346 2.08083 0
M  V30 3698 C 349.279 -1.41439 1.01346 0
M  V30 3699 O 350.455 -1.51316 1.32912 0
M  V30 3700 C 347.52 -2.37352 2.52715 0
M  V30 3701 C 346.581 -2.11093 3.73816 0
M  V30 3702 C 345.814 -3.33949 4.1631 0
M  V30 3703 O 346.037 -4.43622 3.58547 0
M  V30 3704 O 344.971 -3.21279 5.08983 0
M  V30 3705 H 348.797 -0.683667 2.95905 0
M  V30 3706 H 346.382 -0.271965 1.46904 0
M  V30 3707 H 348.264 -3.13246 2.81877 0
M  V30 3708 H 346.939 -2.76681 1.68016 0
M  V30 3709 H 345.846 -1.32856 3.49714 0
M  V30 3710 H 347.179 -1.76637 4.59413 0
M  V30 3711 N 348.832 -1.54138 -0.328536 0
M  V30 3712 C 349.795 -1.82462 -1.38709 0
M  V30 3713 C 350.795 -0.696229 -1.44946 0
M  V30 3714 O 351.985 -0.964535 -1.4506 0
M  V30 3715 C 349.117 -1.98018 -2.77492 0
M  V30 3716 H 350.31 -2.77037 -1.14851 0
M  V30 3717 H 347.863 -1.45779 -0.563751 0
M  V30 3718 H 348.598 -1.05637 -3.06613 0
M  V30 3719 H 348.383 -2.80124 -2.74359 0
M  V30 3720 H 349.873 -2.21396 -3.54081 0
M  V30 3721 N 350.31 0.590341 -1.46126 0
M  V30 3722 C 351.535 1.37991 -1.54833 0
M  V30 3723 C 351.96 1.87163 -0.187506 0
M  V30 3724 O 351.318 1.61133 0.831008 0
M  V30 3725 C 351.366 2.54867 -2.55098 0
M  V30 3726 O 350.47 3.56061 -2.08073 0
M  V30 3727 H 349.811 0.411265 -0.521303 0
M  V30 3728 H 352.341 0.716819 -1.91632 0
M  V30 3729 H 352.351 3.01886 -2.74461 0
M  V30 3730 H 351.026 2.18429 -3.53923 0
M  V30 3731 H 349.603 3.15574 -1.98664 0
M  V30 3732 N 351.788 1.33704 0.83433 0
M  V30 3733 C 353.034 1.25603 1.59222 0
M  V30 3734 C 353.367 -0.176659 1.93395 0
M  V30 3735 O 352.642 -1.11915 1.59076 0
M  V30 3736 C 352.925 2.13576 2.89926 0
M  V30 3737 C 352.778 3.65326 2.62406 0
M  V30 3738 C 354.097 2.01238 3.91397 0
M  V30 3739 H 351.216 0.457613 0.577719 0
M  V30 3740 H 353.858 1.63848 0.961972 0
M  V30 3741 H 352.008 1.8109 3.43713 0
M  V30 3742 H 353.68 4.08124 2.15017 0
M  V30 3743 H 351.923 3.8698 1.96033 0
M  V30 3744 H 352.594 4.22232 3.55562 0
M  V30 3745 H 355.07 2.29738 3.46929 0
M  V30 3746 H 353.946 2.65036 4.80673 0
M  V30 3747 H 354.207 0.985951 4.30966 0
M  V30 3748 N 353.266 -1.05314 1.17247 0
M  V30 3749 C 354.199 -2.12512 0.831507 0
M  V30 3750 C 355.177 -1.61351 -0.201168 0
M  V30 3751 O 356.361 -1.88317 -0.0829831 0
M  V30 3752 C 353.488 -3.37848 0.24015 0
M  V30 3753 C 352.534 -4.07832 1.24801 0
M  V30 3754 S 353.367 -4.56537 2.79882 0
M  V30 3755 C 354.523 -5.85122 2.22223 0
M  V30 3756 H 354.756 -2.41106 1.7394 0
M  V30 3757 H 352.289 -1.17896 0.996988 0
M  V30 3758 H 354.247 -4.10391 -0.0945588 0
M  V30 3759 H 352.908 -3.07392 -0.645668 0
M  V30 3760 H 352.101 -4.97883 0.78287 0
M  V30 3761 H 351.703 -3.41348 1.52831 0
M  V30 3762 H 353.995 -6.58408 1.59703 0
M  V30 3763 H 354.938 -6.36381 3.10523 0
M  V30 3764 H 355.346 -5.39626 1.65722 0
M  V30 3765 N 354.744 -0.972509 -1.24016 0
M  V30 3766 C 355.972 -0.654803 -1.96265 0
M  V30 3767 C 356.387 0.776708 -1.72083 0
M  V30 3768 O 355.744 1.52171 -1.00748 0
M  V30 3769 C 355.795 -0.92592 -3.49441 0
M  V30 3770 O 355.516 -2.30116 -3.72798 0
M  V30 3771 C 357.017 -0.623068 -4.38899 0
M  V30 3772 H 354.237 -0.243907 -0.6251 0
M  V30 3773 H 356.781 -1.30175 -1.57717 0
M  V30 3774 H 354.936 -0.325108 -3.86033 0
M  V30 3775 H 355.35 -2.38483 -4.67147 0
M  V30 3776 H 356.824 -0.863189 -5.45209 0
M  V30 3777 H 357.301 0.442754 -4.36963 0
M  V30 3778 H 357.907 -1.204 -4.07902 0
M  V30 3779 N 356.222 1.38976 -0.743202 0
M  V30 3780 C 357.154 2.29096 -0.0689228 0
M  V30 3781 C 358.167 1.47229 0.694791 0
M  V30 3782 O 359.356 1.70212 0.537597 0
M  V30 3783 C 356.456 3.25988 0.926548 0
M  V30 3784 C 355.629 4.36833 0.222647 0
M  V30 3785 C 354.688 5.13981 1.12739 0
M  V30 3786 O 353.714 5.6601 0.601795 0
M  V30 3787 N 354.916 5.25966 2.45641 0
M  V30 3788 H 357.681 2.87604 -0.842846 0
M  V30 3789 H 355.242 1.50645 -0.593109 0
M  V30 3790 H 357.234 3.74476 1.5346 0
M  V30 3791 H 355.804 2.68453 1.60162 0
M  V30 3792 H 355.024 3.90116 -0.565983 0
M  V30 3793 H 356.312 5.0811 -0.264841 0
M  V30 3794 H 355.71 4.85228 2.9081 0
M  V30 3795 H 354.267 5.77865 3.01522 0
M  V30 3796 N 357.7 0.491464 1.49741 0
M  V30 3797 C 358.63 -0.28154 2.31796 0
M  V30 3798 C 359.611 -0.971473 1.3963 0
M  V30 3799 O 360.796 -0.964719 1.68543 0
M  V30 3800 C 357.926 -1.35203 3.19902 0
M  V30 3801 C 356.88 -0.782529 4.20786 0
M  V30 3802 C 356.206 -1.95283 4.97764 0
M  V30 3803 C 357.506 0.21999 5.21837 0
M  V30 3804 H 359.2 0.403355 2.96671 0
M  V30 3805 H 356.746 0.195425 1.42668 0
M  V30 3806 H 358.699 -1.90045 3.76113 0
M  V30 3807 H 357.423 -2.06598 2.52953 0
M  V30 3808 H 356.082 -0.255928 3.65706 0
M  V30 3809 H 355.73 -2.65423 4.2727 0
M  V30 3810 H 355.43 -1.57789 5.66018 0
M  V30 3811 H 356.954 -2.50577 5.56816 0
M  V30 3812 H 358.368 -0.23996 5.72798 0
M  V30 3813 H 356.765 0.51026 5.97927 0
M  V30 3814 H 357.835 1.13911 4.7133 0
M  V30 3815 N 359.178 -1.55987 0.224894 0
M  V30 3816 C 360.594 -1.59066 -0.130426 0
M  V30 3817 C 360.794 -1.24176 -1.5869 0
M  V30 3818 O 359.85 -0.978592 -2.32766 0
M  V30 3819 C 361.163 -3.00042 0.198883 0
M  V30 3820 C 362.711 -3.1268 0.141391 0
M  V30 3821 C 363.186 -4.55839 0.444422 0
M  V30 3822 N 364.677 -4.6152 0.394115 0
M  V30 3823 C 365.412 -5.70231 0.602038 0
M  V30 3824 N 364.908 -6.87291 0.871914 0
M  V30 3825 N 366.701 -5.59555 0.534245 0
M  V30 3826 H 358.852 -1.76941 1.17497 0
M  V30 3827 H 361.115 -0.822604 0.471197 0
M  V30 3828 H 360.821 -3.30234 1.2099 0
M  V30 3829 H 360.695 -3.74075 -0.484535 0
M  V30 3830 H 363.082 -2.82283 -0.860265 0
M  V30 3831 H 363.163 -2.40969 0.858335 0
M  V30 3832 H 362.807 -4.86954 1.44353 0
M  V30 3833 H 362.737 -5.2578 -0.293752 0
M  V30 3834 H 365.228 -3.77405 0.193356 0
M  V30 3835 H 365.541 -7.66058 1.01858 0
M  V30 3836 H 363.886 -6.89028 0.909145 0
M  V30 3837 H 367.077 -4.6698 0.323612 0
M  V30 3838 H 367.25 -6.44211 0.699693 0
M  V30 3839 N 360.656 0.0484629 -1.57525 0
M  V30 3840 C 361.606 1.06246 -2.01732 0
M  V30 3841 C 362.59 1.33155 -0.903245 0
M  V30 3842 O 363.782 1.33065 -1.16717 0
M  V30 3843 C 360.911 2.36943 -2.48421 0
M  V30 3844 C 359.997 2.13208 -3.6661 0
M  V30 3845 N 360.388 1.5947 -4.80003 0
M  V30 3846 C 358.686 2.43581 -3.7361 0
M  V30 3847 C 359.387 1.51092 -5.61735 0
M  V30 3848 N 358.363 1.9797 -5.0627 0
M  V30 3849 H 362.165 0.640675 -2.86832 0
M  V30 3850 H 359.679 0.255134 -1.60383 0
M  V30 3851 H 361.676 3.10374 -2.78341 0
M  V30 3852 H 360.336 2.79818 -1.64718 0
M  V30 3853 H 361.347 1.28008 -5.01831 0
M  V30 3854 H 358.024 2.89662 -3.00669 0
M  V30 3855 H 359.414 1.10199 -6.62801 0
M  V30 3856 N 362.134 1.5431 0.320358 0
M  V30 3857 C 363.359 1.76954 1.08175 0
M  V30 3858 C 363.784 0.518193 1.80821 0
M  V30 3859 O 363.142 -0.530411 1.73368 0
M  V30 3860 C 363.19 2.96451 2.05303 0
M  V30 3861 O 362.294 2.68221 3.13259 0
M  V30 3862 H 361.635 0.586275 0.311733 0
M  V30 3863 H 364.165 2.01342 0.363676 0
M  V30 3864 H 364.175 3.23887 2.48116 0
M  V30 3865 H 362.85 3.87196 1.51829 0
M  V30 3866 H 361.427 2.51744 2.75099 0
M  V30 3867 N 363.613 -0.582584 1.46437 0
M  V30 3868 C 364.561 -1.71272 1.5738 0
M  V30 3869 C 365.555 -1.63524 0.44229 0
M  V30 3870 O 366.761 -1.69016 0.619166 0
M  V30 3871 H 363.136 -0.566273 0.494813 0
M  V30 3872 H 365.107 -1.59174 2.52401 0
M  V30 3873 C 363.856 -3.09658 1.58136 0
M  V30 3874 H 363.179 -3.16291 2.44541 0
M  V30 3875 H 364.619 -3.88494 1.69847 0
M  V30 3876 C 363.078 -3.3547 0.310026 0
M  V30 3877 O 363.608 -3.97199 -0.599683 0
M  V30 3878 N 361.814 -2.89925 0.197901 0
M  V30 3879 H 361.361 -2.39873 0.93909 0
M  V30 3880 H 361.319 -3.07568 -0.65185 0
M  V30 3881 N 365.091 -1.34144 -0.827227 0
M  V30 3882 C 366.021 -1.28005 -1.95287 0
M  V30 3883 C 367.002 -0.158321 -1.69362 0
M  V30 3884 O 368.187 -0.349987 -1.9102 0
M  V30 3885 C 365.317 -1.03036 -3.31664 0
M  V30 3886 C 364.271 -2.11628 -3.72019 0
M  V30 3887 C 363.597 -1.71854 -5.0633 0
M  V30 3888 C 364.897 -3.53417 -3.8457 0
M  V30 3889 H 366.591 -2.22187 -2.00682 0
M  V30 3890 H 364.137 -1.0696 -0.964135 0
M  V30 3891 H 366.09 -0.973863 -4.09993 0
M  V30 3892 H 364.814 -0.0529391 -3.26557 0
M  V30 3893 H 363.473 -2.16339 -2.95961 0
M  V30 3894 H 363.121 -0.727841 -4.97706 0
M  V30 3895 H 362.821 -2.44531 -5.34302 0
M  V30 3896 H 364.345 -1.67692 -5.87122 0
M  V30 3897 H 365.759 -3.51142 -4.5318 0
M  V30 3898 H 364.156 -4.24679 -4.2399 0
M  V30 3899 H 365.226 -3.91072 -2.86689 0
M  V30 3900 N 366.569 1.04691 -1.17803 0
M  V30 3901 C 367.815 1.78045 -0.970969 0
M  V30 3902 C 368.148 1.87686 0.498751 0
M  V30 3903 O 367.423 1.38035 1.37027 0
M  V30 3904 C 367.706 3.2166 -1.61884 0
M  V30 3905 C 367.559 3.20001 -3.161 0
M  V30 3906 C 368.878 4.1962 -1.3269 0
M  V30 3907 H 365.997 0.64633 -0.354155 0
M  V30 3908 H 368.639 1.22333 -1.45378 0
M  V30 3909 H 366.789 3.69232 -1.20831 0
M  V30 3910 H 368.461 2.80467 -3.66246 0
M  V30 3911 H 366.704 2.58203 -3.48588 0
M  V30 3912 H 367.375 4.21386 -3.56564 0
M  V30 3913 H 369.851 3.80567 -1.68249 0
M  V30 3914 H 368.727 5.18339 -1.80599 0
M  V30 3915 H 368.988 4.414 -0.248622 0
M  V30 3916 N 368.047 0.979072 1.23499 0
M  V30 3917 C 368.979 0.476271 2.24197 0
M  V30 3918 C 369.992 -0.421166 1.57258 0
M  V30 3919 O 371.181 -0.225515 1.7707 0
M  V30 3920 C 368.281 -0.330503 3.37285 0
M  V30 3921 C 367.454 0.559744 4.33804 0
M  V30 3922 C 366.513 -0.192954 5.25846 0
M  V30 3923 O 365.539 0.416978 5.67671 0
M  V30 3924 N 366.741 -1.47932 5.61334 0
M  V30 3925 H 369.506 1.34211 2.67969 0
M  V30 3926 H 367.067 0.852189 1.37657 0
M  V30 3927 H 369.059 -0.842361 3.95836 0
M  V30 3928 H 367.629 -1.09734 2.92707 0
M  V30 3929 H 366.849 1.25245 3.73775 0
M  V30 3930 H 368.137 1.1665 4.95248 0
M  V30 3931 H 367.535 -1.9964 5.29302 0
M  V30 3932 H 366.092 -1.93664 6.22364 0
M  V30 3933 N 369.525 -1.3858 0.750561 0
M  V30 3934 C 370.455 -2.33102 0.136237 0
M  V30 3935 C 371.436 -1.54713 -0.706965 0
M  V30 3936 O 372.621 -1.83043 -0.648769 0
M  V30 3937 C 369.751 -3.38882 -0.760017 0
M  V30 3938 C 368.705 -4.27995 -0.0197785 0
M  V30 3939 C 368.031 -5.24605 -1.03408 0
M  V30 3940 C 369.331 -5.09554 1.14684 0
M  V30 3941 H 371.025 -2.84726 0.925822 0
M  V30 3942 H 368.571 -1.36898 0.446654 0
M  V30 3943 H 370.524 -4.0397 -1.19943 0
M  V30 3944 H 369.248 -2.85734 -1.58189 0
M  V30 3945 H 367.907 -3.64409 0.400184 0
M  V30 3946 H 367.555 -4.67746 -1.84994 0
M  V30 3947 H 367.255 -5.85081 -0.543464 0
M  V30 3948 H 368.779 -5.9257 -1.47288 0
M  V30 3949 H 370.193 -5.67899 0.785118 0
M  V30 3950 H 368.59 -5.7925 1.56812 0
M  V30 3951 H 369.66 -4.4347 1.96118 0
M  V30 3952 N 371.003 -0.499398 -1.49478 0
M  V30 3953 C 371.933 0.269244 -2.31943 0
M  V30 3954 C 372.914 0.964054 -1.40143 0
M  V30 3955 O 374.099 0.955767 -1.69052 0
M  V30 3956 C 371.229 1.33504 -3.20615 0
M  V30 3957 C 370.183 0.760202 -4.21195 0
M  V30 3958 C 369.509 1.9264 -4.98792 0
M  V30 3959 C 370.809 -0.247661 -5.21712 0
M  V30 3960 H 372.503 -0.419082 -2.96452 0
M  V30 3961 H 370.049 -0.202988 -1.42562 0
M  V30 3962 H 372.002 1.88048 -3.77115 0
M  V30 3963 H 370.726 2.05253 -2.54045 0
M  V30 3964 H 369.385 0.23653 -3.65836 0
M  V30 3965 H 369.033 2.63154 -4.28671 0
M  V30 3966 H 368.733 1.54785 -5.66847 0
M  V30 3967 H 370.257 2.4762 -5.58137 0
M  V30 3968 H 371.671 0.209579 -5.72917 0
M  V30 3969 H 370.068 -0.541962 -5.97648 0
M  V30 3970 H 371.138 -1.16409 -4.7072 0
M  V30 3971 N 372.481 1.55866 -0.233164 0
M  V30 3972 C 373.729 1.9821 0.394593 0
M  V30 3973 C 374.05 1.12234 1.59463 0
M  V30 3974 O 373.32 0.201981 1.94856 0
M  V30 3975 H 371.9 0.732034 0.148778 0
M  V30 3976 H 374.562 1.92107 -0.32876 0
M  V30 3977 H 373.658 3.03845 0.713063 0
M  V30 3978 N 373.959 -0.0401083 1.57549 0
M  V30 3979 C 375.205 -0.734211 1.89043 0
M  V30 3980 C 375.538 -1.75591 0.829535 0
M  V30 3981 O 374.813 -1.93868 -0.156706 0
M  V30 3982 C 375.096 -1.41374 3.31188 0
M  V30 3983 C 374.949 -0.406299 4.47961 0
M  V30 3984 C 376.268 -2.35061 3.72068 0
M  V30 3985 H 373.387 -0.265447 0.687537 0
M  V30 3986 H 376.029 0.00294087 1.9 0
M  V30 3987 H 374.179 -2.04206 3.30503 0
M  V30 3988 H 375.851 0.219255 4.60779 0
M  V30 3989 H 374.094 0.275485 4.32924 0
M  V30 3990 H 374.765 -0.920022 5.44279 0
M  V30 3991 H 377.241 -1.82282 3.74049 0
M  V30 3992 H 376.117 -2.79593 4.72355 0
M  V30 3993 H 376.378 -3.21258 3.0372 0
M  V30 3994 N 375.437 -1.54477 -0.31217 0
M  V30 3995 C 376.686 -1.72438 -1.04633 0
M  V30 3996 C 376.999 -0.511163 -1.88803 0
M  V30 3997 O 378.205 -0.572341 -2.65399 0
M  V30 3998 C 376.661 -3.05043 -1.9099 0
M  V30 3999 C 376.269 -4.33806 -1.11877 0
M  V30 4000 C 378.013 -3.32364 -2.64073 0
M  V30 4001 C 375.92 -5.57467 -1.97445 0
M  V30 4002 H 374.85 -0.642647 -0.394361 0
M  V30 4003 H 377.501 -1.80966 -0.303929 0
M  V30 4004 H 375.883 -2.90451 -2.69173 0
M  V30 4005 H 377.057 -4.59199 -0.383843 0
M  V30 4006 H 375.372 -4.13336 -0.504252 0
M  V30 4007 H 377.969 -4.21951 -3.28423 0
M  V30 4008 H 378.312 -2.50745 -3.32314 0
M  V30 4009 H 378.845 -3.47875 -1.92944 0
M  V30 4010 H 375.584 -6.41722 -1.33692 0
M  V30 4011 H 375.104 -5.36277 -2.6864 0
M  V30 4012 H 376.783 -5.94303 -2.5576 0
M  V30 4013 N 376.915 0.57481 -1.46744 0
M  V30 4014 C 378.161 1.3347 -1.52688 0
M  V30 4015 C 378.494 1.93353 -0.181229 0
M  V30 4016 O 377.769 1.76912 0.808237 0
M  V30 4017 C 378.052 2.45811 -2.63152 0
M  V30 4018 C 377.905 1.90912 -4.07275 0
M  V30 4019 C 379.224 3.47822 -2.69644 0
M  V30 4020 H 376.343 0.483935 -0.555856 0
M  V30 4021 H 378.985 0.644968 -1.78718 0
M  V30 4022 H 377.135 3.04646 -2.41088 0
M  V30 4023 H 378.807 1.36473 -4.4065 0
M  V30 4024 H 377.05 1.21691 -4.16382 0
M  V30 4025 H 377.721 2.72042 -4.80309 0
M  V30 4026 H 380.197 2.9888 -2.895 0
M  V30 4027 H 379.073 4.23876 -3.48742 0
M  V30 4028 H 379.334 4.05555 -1.76005 0
M  V30 4029 N 378.394 1.34581 0.820102 0
M  V30 4030 C 379.304 1.28471 1.96297 0
M  V30 4031 C 380.32 0.191902 1.72939 0
M  V30 4032 O 381.496 0.418879 1.96996 0
M  V30 4033 C 378.561 1.04281 3.30645 0
M  V30 4034 C 377.622 2.22745 3.66992 0
M  V30 4035 C 376.855 1.997 4.9493 0
M  V30 4036 O 377.078 0.956656 5.6232 0
M  V30 4037 O 376.012 2.86723 5.2922 0
M  V30 4038 H 379.838 2.24624 2.04396 0
M  V30 4039 H 377.423 1.14816 0.955913 0
M  V30 4040 H 379.305 0.925841 4.11104 0
M  V30 4041 H 377.98 0.111697 3.23507 0
M  V30 4042 H 376.887 2.40003 2.86966 0
M  V30 4043 H 378.22 3.14257 3.78819 0
M  V30 4044 N 379.872 -1.04064 1.18357 0
M  V30 4045 C 380.782 -2.15569 0.925596 0
M  V30 4046 C 381.798 -1.7365 -0.110295 0
M  V30 4047 O 382.974 -2.01273 0.0716218 0
M  V30 4048 C 380.039 -3.43704 0.454836 0
M  V30 4049 C 379.1 -4.00004 1.55869 0
M  V30 4050 C 378.333 -5.22023 1.1103 0
M  V30 4051 O 378.556 -5.70392 -0.0309756 0
M  V30 4052 O 377.49 -5.70856 1.90805 0
M  V30 4053 H 381.316 -2.40187 1.8586 0
M  V30 4054 H 378.901 -1.1402 0.965394 0
M  V30 4055 H 380.783 -4.20923 0.200382 0
M  V30 4056 H 379.458 -3.20559 -0.449876 0
M  V30 4057 H 378.365 -3.24172 1.86716 0
M  V30 4058 H 379.698 -4.2749 2.43953 0
M  V30 4059 N 381.35 -0.985608 -1.22978 0
M  V30 4060 C 382.297 -0.529825 -2.24636 0
M  V30 4061 C 383.267 0.434028 -1.60329 0
M  V30 4062 O 384.452 0.340414 -1.87739 0
M  V30 4063 C 381.592 0.156533 -3.44745 0
M  V30 4064 C 380.705 -0.848197 -4.23591 0
M  V30 4065 C 379.84 -0.136109 -5.31026 0
M  V30 4066 C 378.879 -1.1297 -6.01585 0
M  V30 4067 N 378.016 -0.446415 -7.00679 0
M  V30 4068 H 382.856 -1.40148 -2.62988 0
M  V30 4069 H 380.393 -0.702168 -1.29259 0
M  V30 4070 H 382.351 0.571324 -4.1327 0
M  V30 4071 H 380.981 0.992025 -3.07179 0
M  V30 4072 H 380.033 -1.38135 -3.54433 0
M  V30 4073 H 381.345 -1.60512 -4.72268 0
M  V30 4074 H 380.499 0.335784 -6.0577 0
M  V30 4075 H 379.238 0.653373 -4.83304 0
M  V30 4076 H 378.243 -1.6123 -5.25628 0
M  V30 4077 H 379.468 -1.91993 -6.51395 0
M  V30 4078 H 377.414 0.323763 -6.55201 0
M  V30 4079 H 377.331 -1.1419 -7.47326 0
M  V30 4080 H 378.599 0.00291697 -7.795 0
M  V30 4081 N 382.828 1.3818 -0.7579 0
M  V30 4082 C 384.076 1.99624 -0.315361 0
M  V30 4083 C 384.397 1.60464 1.10799 0
M  V30 4084 O 383.667 0.863507 1.75842 0
M  V30 4085 H 382.247 0.73831 -0.113611 0
M  V30 4086 H 384.909 1.68878 -0.972952 0
M  V30 4087 H 384.005 3.09754 -0.381931 0
M  V30 4088 N 384.306 0.507319 1.49211 0
M  V30 4089 C 385.554 -0.0348839 2.0207 0
M  V30 4090 C 385.875 -1.36898 1.38866 0
M  V30 4091 O 385.145 -1.88133 0.546151 0
M  V30 4092 H 383.725 -0.0158812 0.746831 0
M  V30 4093 H 386.387 0.665998 1.83168 0
M  V30 4094 H 385.483 -0.159917 3.1169 0
M  V30 4095 N 385.784 -1.5574 0.241426 0
M  V30 4096 C 386.714 -2.24133 -0.654722 0
M  V30 4097 C 387.695 -1.21974 -1.1856 0
M  V30 4098 O 388.88 -1.50612 -1.22595 0
M  V30 4099 C 386.01 -2.93659 -1.85423 0
M  V30 4100 C 384.964 -4.0246 -1.45636 0
M  V30 4101 C 384.29 -4.59383 -2.73626 0
M  V30 4102 C 385.59 -5.18468 -0.631506 0
M  V30 4103 H 387.284 -2.99281 -0.0844353 0
M  V30 4104 H 384.83 -1.43947 -0.0391707 0
M  V30 4105 H 386.783 -3.40203 -2.48676 0
M  V30 4106 H 385.507 -2.15991 -2.44981 0
M  V30 4107 H 384.166 -3.56676 -0.847202 0
M  V30 4108 H 383.814 -3.78422 -3.3137 0
M  V30 4109 H 383.514 -5.32826 -2.4773 0
M  V30 4110 H 385.038 -5.08658 -3.37786 0
M  V30 4111 H 386.452 -5.61272 -1.1682 0
M  V30 4112 H 384.849 -5.98266 -0.468831 0
M  V30 4113 H 385.919 -4.8358 0.357506 0
M  V30 4114 N 387.262 0.0317525 -1.57568 0
M  V30 4115 C 388.492 0.733884 -1.93126 0
M  V30 4116 C 388.9 1.69563 -0.839352 0
M  V30 4117 O 388.243 1.82681 0.193175 0
M  V30 4118 C 388.305 1.54798 -3.24465 0
M  V30 4119 C 387.969 0.751304 -4.50782 0
M  V30 4120 C 388.966 0.0527632 -5.19873 0
M  V30 4121 C 386.651 0.706639 -4.97305 0
M  V30 4122 C 388.645 -0.679774 -6.33765 0
M  V30 4123 C 386.332 -0.0296449 -6.11093 0
M  V30 4124 C 387.33 -0.721614 -6.79177 0
M  V30 4125 O 387.018 -1.44595 -7.90789 0
M  V30 4126 H 386.75 0.211459 -0.642076 0
M  V30 4127 H 389.304 -0.00585615 -2.05399 0
M  V30 4128 H 387.534 2.33147 -3.08512 0
M  V30 4129 H 389.223 2.13247 -3.4537 0
M  V30 4130 H 389.989 0.0783188 -4.84937 0
M  V30 4131 H 385.868 1.23474 -4.44157 0
M  V30 4132 H 389.412 -1.22042 -6.86842 0
M  V30 4133 H 385.309 -0.0571331 -6.45475 0
M  V30 4134 H 386.077 -1.35935 -8.07133 0
M  V30 4135 N 388.74 1.54641 0.303973 0
M  V30 4136 C 389.989 1.7299 1.03717 0
M  V30 4137 C 390.302 0.521168 1.88529 0
M  V30 4138 O 391.508 0.586408 2.65092 0
M  V30 4139 C 389.964 3.06051 1.89369 0
M  V30 4140 C 389.572 4.34393 1.09574 0
M  V30 4141 C 391.316 3.3376 2.62306 0
M  V30 4142 C 389.223 5.58506 1.94486 0
M  V30 4143 H 388.153 0.64473 0.390947 0
M  V30 4144 H 390.804 1.81124 0.294328 0
M  V30 4145 H 389.186 2.91874 2.67629 0
M  V30 4146 H 390.36 4.59396 0.359485 0
M  V30 4147 H 388.675 4.13597 0.482324 0
M  V30 4148 H 391.272 4.23687 3.26181 0
M  V30 4149 H 391.615 2.52503 3.3098 0
M  V30 4150 H 392.148 3.48894 1.91097 0
M  V30 4151 H 388.887 6.42422 1.30287 0
M  V30 4152 H 388.407 5.37694 2.65792 0
M  V30 4153 H 390.086 5.95651 2.52605 0
M  V30 4154 N 390.218 -0.567019 1.47046 0
M  V30 4155 C 391.464 -1.32658 1.53394 0
M  V30 4156 C 391.797 -1.93254 0.19148 0
M  V30 4157 O 391.072 -1.77338 -0.798844 0
M  V30 4158 C 391.355 -2.44412 2.64452 0
M  V30 4159 C 391.208 -1.88749 4.08282 0
M  V30 4160 C 392.527 -3.46387 2.71485 0
M  V30 4161 H 389.646 -0.48098 0.558415 0
M  V30 4162 H 392.288 -0.635481 1.79058 0
M  V30 4163 H 390.438 -3.03363 2.427 0
M  V30 4164 H 392.11 -1.34134 4.41368 0
M  V30 4165 H 390.353 -1.19481 4.17021 0
M  V30 4166 H 391.024 -2.69491 4.81745 0
M  V30 4167 H 393.5 -2.9734 2.91081 0
M  V30 4168 H 392.376 -4.2202 3.50985 0
M  V30 4169 H 392.637 -4.04616 1.78153 0
M  V30 4170 N 391.696 -1.35014 -0.812953 0
M  V30 4171 C 392.924 -1.31031 -1.6012 0
M  V30 4172 C 393.339 0.113558 -1.88458 0
M  V30 4173 O 392.696 1.06363 -1.48301 0
M  V30 4174 C 392.747 -2.10872 -2.93624 0
M  V30 4175 O 392.468 -3.47706 -2.66518 0
M  V30 4176 C 393.969 -2.14401 -3.88004 0
M  V30 4177 H 391.189 -0.45037 -0.497401 0
M  V30 4178 H 393.733 -1.77775 -1.01076 0
M  V30 4179 H 391.888 -1.67744 -3.492 0
M  V30 4180 H 392.302 -3.89097 -3.51715 0
M  V30 4181 H 393.776 -2.74669 -4.78812 0
M  V30 4182 H 394.253 -1.14105 -4.24119 0
M  V30 4183 H 394.859 -2.57662 -3.38364 0
M  V30 4184 N 393.175 1.03435 -1.18907 0
M  V30 4185 C 394.085 2.15075 -0.937015 0
M  V30 4186 C 395.101 1.73706 0.101085 0
M  V30 4187 O 396.277 2.01232 -0.0822948 0
M  V30 4188 C 393.342 3.43458 -0.473057 0
M  V30 4189 C 392.403 3.99172 -1.57989 0
M  V30 4190 C 391.636 5.21427 -1.13797 0
M  V30 4191 O 391.859 5.704 0.000725941 0
M  V30 4192 O 390.793 5.69837 -1.9383 0
M  V30 4193 H 394.619 2.39198 -1.87131 0
M  V30 4194 H 392.204 1.13506 -0.971427 0
M  V30 4195 H 394.086 4.20811 -0.222702 0
M  V30 4196 H 392.761 3.20793 0.432869 0
M  V30 4197 H 391.668 3.23178 -1.88433 0
M  V30 4198 H 393.001 4.2619 -2.46217 0
M  V30 4199 N 394.653 0.992116 1.22453 0
M  V30 4200 C 395.883 0.684949 1.94915 0
M  V30 4201 C 396.291 -0.754292 1.73514 0
M  V30 4202 O 395.634 -1.52056 1.03076 0
M  V30 4203 C 395.696 0.910054 3.47791 0
M  V30 4204 C 395.36 2.33363 3.92926 0
M  V30 4205 C 396.357 3.31308 4.00663 0
M  V30 4206 C 394.042 2.66785 4.25595 0
M  V30 4207 C 396.036 4.6075 4.40441 0
M  V30 4208 C 393.723 3.96446 4.65053 0
M  V30 4209 C 394.721 4.9324 4.72444 0
M  V30 4210 O 394.409 6.20584 5.1101 0
M  V30 4211 H 394.141 0.25258 0.62704 0
M  V30 4212 H 396.695 1.32939 1.56577 0
M  V30 4213 H 394.925 0.208443 3.86138 0
M  V30 4214 H 396.614 0.598257 4.01467 0
M  V30 4215 H 397.38 3.0682 3.75615 0
M  V30 4216 H 393.259 1.92148 4.19047 0
M  V30 4217 H 396.803 5.363 4.46126 0
M  V30 4218 H 392.7 4.20724 4.89552 0
M  V30 4219 H 393.468 6.24509 5.29085 0
M  V30 4220 N 396.131 -1.37776 0.765217 0
M  V30 4221 C 397.064 -2.28008 0.0935025 0
M  V30 4222 C 398.042 -1.45985 -0.716047 0
M  V30 4223 O 399.226 -1.75331 -0.692203 0
M  V30 4224 C 396.353 -3.27228 -0.874052 0
M  V30 4225 C 395.399 -4.26239 -0.149307 0
M  V30 4226 S 396.232 -5.22827 1.15809 0
M  V30 4227 C 397.388 -6.256 0.193906 0
M  V30 4228 H 397.621 -2.84631 0.858637 0
M  V30 4229 H 395.154 -1.43952 0.558313 0
M  V30 4230 H 397.112 -3.84902 -1.42691 0
M  V30 4231 H 395.773 -2.69565 -1.61225 0
M  V30 4232 H 394.966 -4.96213 -0.88254 0
M  V30 4233 H 394.568 -3.7252 0.332366 0
M  V30 4234 H 396.86 -6.74508 -0.636011 0
M  V30 4235 H 397.803 -7.02838 0.861638 0
M  V30 4236 H 398.211 -5.64173 -0.191975 0
M  V30 4237 N 397.609 -0.515225 -1.4894 0
M  V30 4238 C 398.572 0.244681 -2.2789 0
M  V30 4239 C 399.572 0.881166 -1.34507 0
M  V30 4240 O 400.762 0.743497 -1.57537 0
M  V30 4241 C 397.894 1.35247 -3.12923 0
M  V30 4242 H 399.087 -0.448289 -2.96531 0
M  V30 4243 H 396.64 -0.270656 -1.53939 0
M  V30 4244 H 397.375 2.07916 -2.48881 0
M  V30 4245 H 397.16 0.901374 -3.81599 0
M  V30 4246 H 398.65 1.88737 -3.72516 0
M  V30 4247 N 399.087 1.5561 -0.249682 0
M  V30 4248 C 400.034 2.21496 0.648694 0
M  V30 4249 C 401.004 1.17977 1.16921 0
M  V30 4250 O 402.189 1.46434 1.22318 0
M  V30 4251 C 399.329 2.92039 1.83868 0
M  V30 4252 C 398.442 4.10219 1.35442 0
M  V30 4253 C 397.577 4.6847 2.50419 0
M  V30 4254 C 396.616 5.78893 1.98869 0
M  V30 4255 N 395.753 6.31315 3.07223 0
M  V30 4256 H 400.593 2.97892 0.0801582 0
M  V30 4257 H 398.13 1.47074 0.0278031 0
M  V30 4258 H 400.088 3.31138 2.53778 0
M  V30 4259 H 398.718 2.18111 2.37965 0
M  V30 4260 H 397.77 3.76413 0.54928 0
M  V30 4261 H 399.082 4.89927 0.936649 0
M  V30 4262 H 398.236 5.10158 3.28366 0
M  V30 4263 H 396.975 3.87984 2.95499 0
M  V30 4264 H 395.98 5.3668 1.19393 0
M  V30 4265 H 397.205 6.61232 1.54755 0
M  V30 4266 H 395.151 5.53733 3.51732 0
M  V30 4267 H 395.068 7.06224 2.69784 0
M  V30 4268 H 396.336 6.77662 3.8522 0
M  V30 4269 N 400.565 -0.0233959 1.57583 0
M  V30 4270 C 401.813 -0.711654 1.89156 0
M  V30 4271 C 402.134 -1.75591 0.848096 0
M  V30 4272 O 401.404 -1.95547 -0.117566 0
M  V30 4273 H 399.984 -0.265835 0.698098 0
M  V30 4274 H 402.646 0.0119948 1.94896 0
M  V30 4275 H 401.742 -1.19766 2.88206 0
M  V30 4276 N 402.043 -1.548 -0.295768 0
M  V30 4277 C 403.268 -1.78653 -1.05346 0
M  V30 4278 C 403.693 -0.546894 -1.79974 0
M  V30 4279 O 403.051 0.502763 -1.7419 0
M  V30 4280 C 403.099 -2.99679 -2.00561 0
M  V30 4281 O 402.203 -2.7317 -3.08953 0
M  V30 4282 H 401.544 -0.59116 -0.302367 0
M  V30 4283 H 404.074 -2.01895 -0.331598 0
M  V30 4284 H 404.084 -3.27793 -2.42932 0
M  V30 4285 H 402.759 -3.89562 -1.4565 0
M  V30 4286 H 401.336 -2.56089 -2.71059 0
M  V30 4287 N 403.521 0.559213 -1.47345 0
M  V30 4288 C 404.451 1.67622 -1.62558 0
M  V30 4289 C 405.432 1.63331 -0.475087 0
M  V30 4290 O 406.617 1.80983 -0.704182 0
M  V30 4291 C 403.747 3.0626 -1.63774 0
M  V30 4292 C 402.701 3.25397 -2.7803 0
M  V30 4293 C 402.027 4.64801 -2.64318 0
M  V30 4294 C 403.327 3.10965 -4.19641 0
M  V30 4295 H 405.021 1.55146 -2.56067 0
M  V30 4296 H 402.567 0.744961 -1.23233 0
M  V30 4297 H 404.52 3.84247 -1.73008 0
M  V30 4298 H 403.244 3.1969 -0.66825 0
M  V30 4299 H 401.903 2.49817 -2.68304 0
M  V30 4300 H 401.551 4.75028 -1.65401 0
M  V30 4301 H 401.251 4.78555 -3.40968 0
M  V30 4302 H 402.775 5.44926 -2.75478 0
M  V30 4303 H 404.189 3.78772 -4.30354 0
M  V30 4304 H 402.586 3.36229 -4.97062 0
M  V30 4305 H 403.656 2.07736 -4.38148 0
M  V30 4306 N 404.999 1.35443 0.805782 0
M  V30 4307 C 406.245 1.28952 1.56522 0
M  V30 4308 C 406.578 -0.135597 1.93726 0
M  V30 4309 O 405.853 -1.08516 1.61414 0
M  V30 4310 C 406.136 2.19678 2.85331 0
M  V30 4311 C 405.989 3.7081 2.54598 0
M  V30 4312 C 407.308 2.09495 3.8704 0
M  V30 4313 H 404.427 0.469764 0.567883 0
M  V30 4314 H 407.069 1.65851 0.927001 0
M  V30 4315 H 405.219 1.8834 3.39795 0
M  V30 4316 H 406.891 4.12593 2.06312 0
M  V30 4317 H 405.134 3.91051 1.8778 0
M  V30 4318 H 405.805 4.29679 3.46525 0
M  V30 4319 H 408.281 2.37045 3.41978 0
M  V30 4320 H 407.157 2.75173 4.74943 0
M  V30 4321 H 407.418 1.07714 4.28777 0
M  V30 4322 N 406.477 -1.02803 1.19454 0
M  V30 4323 C 407.754 -1.73299 0.907013 0
M  V30 4324 C 408.134 -2.02772 -0.587086 0
M  V30 4325 O 407.482 -1.68304 -1.54551 0
M  V30 4326 C 407.692 -3.00912 1.76785 0
M  V30 4327 C 409.04 -3.74403 2.00268 0
M  V30 4328 O 410.064 -3.10841 1.73943 0
M  V30 4329 O 408.923 -4.88675 2.4466 0
M  V30 4330 H 406.017 -0.754727 0.338106 0
M  V30 4331 H 408.563 -1.08754 1.30271 0
M  V30 4332 H 407.335 -2.75366 2.7801 0
M  V30 4333 H 406.958 -3.73197 1.37149 0
M  V30 4334 N 407.956 -0.998596 -1.21925 0
M  V30 4335 C 409.186 -0.695276 -1.94549 0
M  V30 4336 C 409.594 0.745079 -1.73911 0
M  V30 4337 O 408.937 1.51507 -1.03881 0
M  V30 4338 C 408.999 -0.928485 -3.47303 0
M  V30 4339 C 408.663 -2.35443 -3.91683 0
M  V30 4340 C 409.66 -3.33428 -3.98901 0
M  V30 4341 C 407.345 -2.69038 -4.24174 0
M  V30 4342 C 409.339 -4.63079 -4.37992 0
M  V30 4343 C 407.026 -3.98906 -4.62944 0
M  V30 4344 C 408.024 -4.95738 -4.69822 0
M  V30 4345 O 407.712 -6.23285 -5.07711 0
M  V30 4346 H 407.444 -0.255902 -0.625692 0
M  V30 4347 H 409.998 -1.33767 -1.5587 0
M  V30 4348 H 408.228 -0.228917 -3.86022 0
M  V30 4349 H 409.917 -0.619539 -4.01144 0
M  V30 4350 H 410.683 -3.08807 -3.73983 0
M  V30 4351 H 406.562 -1.94367 -4.18022 0
M  V30 4352 H 410.106 -5.38658 -4.43275 0
M  V30 4353 H 406.003 -4.23314 -4.87314 0
M  V30 4354 H 406.771 -6.27306 -5.25766 0
M  V30 4355 N 409.434 1.37368 -0.772513 0
M  V30 4356 C 410.364 2.32856 -0.173304 0
M  V30 4357 C 411.345 1.55818 0.682262 0
M  V30 4358 O 412.53 1.84052 0.619566 0
M  V30 4359 C 409.66 3.40048 0.706007 0
M  V30 4360 C 408.614 4.27973 -0.0483144 0
M  V30 4361 C 407.94 5.26184 0.950491 0
M  V30 4362 C 409.24 5.07665 -1.22776 0
M  V30 4363 H 410.934 2.83217 -0.971002 0
M  V30 4364 H 408.48 1.3617 -0.468377 0
M  V30 4365 H 410.433 4.05827 1.13501 0
M  V30 4366 H 409.157 2.88214 1.53623 0
M  V30 4367 H 407.816 3.63726 -0.458107 0
M  V30 4368 H 407.464 4.7063 1.77529 0
M  V30 4369 H 407.164 5.85872 0.450314 0
M  V30 4370 H 408.688 5.94838 1.37842 0
M  V30 4371 H 410.102 5.66578 -0.875366 0
M  V30 4372 H 408.499 5.76681 -1.66007 0
M  V30 4373 H 409.569 4.40294 -2.03149 0
M  V30 4374 N 410.912 0.523116 1.48665 0
M  V30 4375 C 412.328 0.180511 1.58576 0
M  V30 4376 C 412.528 -1.31597 1.52592 0
M  V30 4377 O 411.584 -2.0937 1.4114 0
M  V30 4378 C 412.897 0.776949 2.90489 0
M  V30 4379 C 414.445 0.745058 3.04003 0
M  V30 4380 C 414.92 1.31995 4.38567 0
M  V30 4381 N 416.411 1.28162 4.45117 0
M  V30 4382 C 417.146 1.6964 5.47731 0
M  V30 4383 N 416.642 2.18816 6.57337 0
M  V30 4384 N 418.435 1.6092 5.38573 0
M  V30 4385 H 410.586 1.4958 1.50797 0
M  V30 4386 H 412.849 0.621772 0.715614 0
M  V30 4387 H 412.555 1.82732 3.00503 0
M  V30 4388 H 412.429 0.25007 3.7637 0
M  V30 4389 H 414.816 -0.296532 2.93606 0
M  V30 4390 H 414.897 1.30933 2.1975 0
M  V30 4391 H 414.541 2.36043 4.49718 0
M  V30 4392 H 414.471 0.731418 5.21496 0
M  V30 4393 H 416.962 0.92155 3.66491 0
M  V30 4394 H 417.275 2.48478 7.31764 0
M  V30 4395 H 415.62 2.22805 6.58318 0
M  V30 4396 H 418.811 1.22304 4.5184 0
M  V30 4397 H 418.984 1.93567 6.18414 0
M  V30 4398 N 412.39 -1.55475 0.257931 0
M  V30 4399 C 413.615 -2.04064 -0.370488 0
M  V30 4400 C 414.04 -1.13565 -1.49948 0
M  V30 4401 O 413.398 -0.130781 -1.80828 0
M  V30 4402 C 413.446 -3.50554 -0.845237 0
M  V30 4403 O 412.55 -3.63173 -1.95394 0
M  V30 4404 H 411.891 -0.659257 -0.0792243 0
M  V30 4405 H 414.421 -2.00903 0.387212 0
M  V30 4406 H 414.431 -3.91588 -1.14555 0
M  V30 4407 H 413.106 -4.15896 -0.0191259 0
M  V30 4408 H 411.683 -3.34039 -1.65748 0
M  V30 4409 N 413.868 0.0150385 -1.57593 0
M  V30 4410 C 415.284 0.370907 -1.5523 0
M  V30 4411 C 415.484 1.75735 -0.985882 0
M  V30 4412 O 414.54 2.44944 -0.613077 0
M  V30 4413 C 415.853 0.259908 -2.99575 0
M  V30 4414 C 417.401 0.335959 -3.11192 0
M  V30 4415 C 417.876 0.254253 -4.57294 0
M  V30 4416 N 419.367 0.312618 -4.62144 0
M  V30 4417 C 420.102 0.272505 -5.72752 0
M  V30 4418 N 419.598 0.183864 -6.92556 0
M  V30 4419 N 421.391 0.323267 -5.6117 0
M  V30 4420 H 413.542 -0.892104 -1.92757 0
M  V30 4421 H 415.805 -0.340563 -0.884715 0
M  V30 4422 H 415.511 -0.693403 -3.44797 0
M  V30 4423 H 415.385 1.048 -3.62349 0
M  V30 4424 H 417.772 1.27971 -2.65909 0
M  V30 4425 H 417.853 -0.481739 -2.51223 0
M  V30 4426 H 417.497 -0.685887 -5.03247 0
M  V30 4427 H 417.427 1.09024 -5.15191 0
M  V30 4428 H 419.918 0.38307 -3.75953 0
M  V30 4429 H 420.231 0.15874 -7.72637 0
M  V30 4430 H 418.576 0.149708 -6.94839 0
M  V30 4431 H 421.767 0.390607 -4.66467 0
M  V30 4432 H 421.94 0.288539 -6.47357 0
M  V30 4433 N 415.346 1.54954 0.287554 0
M  V30 4434 C 416.594 1.74528 1.01904 0
M  V30 4435 C 416.915 0.541349 1.87335 0
M  V30 4436 O 416.185 -0.444108 1.908 0
M  V30 4437 H 414.765 0.643576 0.379235 0
M  V30 4438 H 417.427 1.92333 0.315294 0
M  V30 4439 H 416.523 2.64015 1.6644 0
M  V30 4440 N 416.824 -0.551391 1.4764 0
M  V30 4441 C 418.24 -0.877887 1.33287 0
M  V30 4442 C 418.44 -1.98817 0.327721 0
M  V30 4443 O 417.496 -2.51171 -0.258695 0
M  V30 4444 C 418.809 -1.26563 2.72768 0
M  V30 4445 C 420.357 -1.37673 2.81097 0
M  V30 4446 C 420.832 -1.79799 4.21232 0
M  V30 4447 N 422.323 -1.8694 4.23802 0
M  V30 4448 C 423.058 -2.20876 5.29151 0
M  V30 4449 N 422.554 -2.53386 6.448 0
M  V30 4450 N 424.347 -2.217 5.16532 0
M  V30 4451 H 416.498 0.18153 2.11623 0
M  V30 4452 H 418.761 0.0185514 0.947818 0
M  V30 4453 H 418.467 -0.523591 3.47781 0
M  V30 4454 H 418.341 -2.22052 3.04915 0
M  V30 4455 H 420.728 -2.10956 2.06353 0
M  V30 4456 H 420.809 -0.40357 2.52596 0
M  V30 4457 H 420.453 -1.07083 4.96483 0
M  V30 4458 H 420.383 -2.78128 4.4716 0
M  V30 4459 H 422.874 -1.64179 3.40373 0
M  V30 4460 H 423.187 -2.78325 7.20941 0
M  V30 4461 H 421.532 -2.50953 6.48111 0
M  V30 4462 H 424.723 -1.95745 4.25207 0
M  V30 4463 H 424.896 -2.47818 5.98741 0
M  V30 4464 N 418.302 -1.35869 -0.798587 0
M  V30 4465 C 419.527 -1.32883 -1.59238 0
M  V30 4466 C 419.952 0.0894587 -1.87887 0
M  V30 4467 O 419.31 1.05869 -1.47178 0
M  V30 4468 C 419.358 -2.14892 -2.89575 0
M  V30 4469 O 418.462 -1.53512 -3.82763 0
M  V30 4470 H 417.803 -0.455236 -0.48338 0
M  V30 4471 H 420.333 -1.79024 -0.990539 0
M  V30 4472 H 420.343 -2.27139 -3.38928 0
M  V30 4473 H 419.018 -3.17998 -2.68049 0
M  V30 4474 H 417.595 -1.50153 -3.41334 0
M  V30 4475 N 419.78 1.02168 -1.19998 0
M  V30 4476 C 421.026 1.75945 -1.00852 0
M  V30 4477 C 421.359 1.88702 0.458828 0
M  V30 4478 O 420.634 1.40911 1.34069 0
M  V30 4479 C 420.917 3.18154 -1.68671 0
M  V30 4480 C 420.77 3.13224 -3.22817 0
M  V30 4481 C 422.089 4.16711 -1.41561 0
M  V30 4482 H 419.208 0.638673 -0.367785 0
M  V30 4483 H 421.85 1.19222 -1.4794 0
M  V30 4484 H 420 3.66586 -1.28636 0
M  V30 4485 H 421.672 2.72635 -3.72112 0
M  V30 4486 H 419.915 2.50751 -3.53986 0
M  V30 4487 H 420.586 4.13728 -3.65422 0
M  V30 4488 H 423.062 3.76913 -1.76284 0
M  V30 4489 H 421.938 5.14391 -1.91553 0
M  V30 4490 H 422.199 4.40774 -0.342193 0
M  V30 4491 N 421.258 1.00505 1.21394 0
M  V30 4492 C 422.188 0.585684 2.26035 0
M  V30 4493 C 423.169 -0.393525 1.65485 0
M  V30 4494 O 424.354 -0.281497 1.92149 0
M  V30 4495 C 421.484 -0.0884283 3.47187 0
M  V30 4496 C 420.438 0.810567 4.20254 0
M  V30 4497 C 419.764 0.00286382 5.347 0
M  V30 4498 C 421.064 2.1132 4.77641 0
M  V30 4499 H 422.758 1.46039 2.61368 0
M  V30 4500 H 420.304 0.703648 1.25638 0
M  V30 4501 H 422.257 -0.393286 4.19561 0
M  V30 4502 H 420.981 -0.997766 3.10986 0
M  V30 4503 H 419.64 1.09925 3.49731 0
M  V30 4504 H 419.288 -0.907765 4.94741 0
M  V30 4505 H 418.988 0.601444 5.84514 0
M  V30 4506 H 420.512 -0.295808 6.09883 0
M  V30 4507 H 421.926 1.87148 5.41893 0
M  V30 4508 H 420.323 2.66164 5.37845 0
M  V30 4509 H 421.393 2.78393 3.9702 0
M  V30 4510 N 422.737 -1.36956 0.779787 0
M  V30 4511 C 423.985 -1.99097 0.347079 0
M  V30 4512 C 424.306 -1.62206 -1.08232 0
M  V30 4513 O 423.576 -0.891373 -1.74446 0
M  V30 4514 H 422.156 -0.736409 0.125342 0
M  V30 4515 H 424.818 -1.67308 0.999696 0
M  V30 4516 H 423.914 -3.09107 0.431162 0
M  V30 4517 N 424.215 -0.530993 -1.48385 0
M  V30 4518 C 425.463 0.00273189 -2.021 0
M  V30 4519 C 425.784 1.34672 -1.41027 0
M  V30 4520 O 425.054 1.8724 -0.576012 0
M  V30 4521 H 423.634 0.00399774 -0.746989 0
M  V30 4522 H 426.296 -0.695054 -1.82085 0
M  V30 4523 H 425.392 0.11031 -3.11905 0
M  V30 4524 N 425.693 1.55336 -0.266172 0
M  V30 4525 C 426.97 1.91372 0.404486 0
M  V30 4526 C 427.35 1.18935 1.74407 0
M  V30 4527 O 426.698 0.3132 2.26343 0
M  V30 4528 C 426.908 3.44581 0.553593 0
M  V30 4529 C 428.256 4.16196 0.840618 0
M  V30 4530 O 429.28 3.50426 0.638739 0
M  V30 4531 O 428.139 5.32567 1.22618 0
M  V30 4532 H 425.233 0.797194 0.220025 0
M  V30 4533 H 427.779 1.66813 -0.311664 0
M  V30 4534 H 426.551 3.89357 -0.389498 0
M  V30 4535 H 426.174 3.75065 1.31955 0
M  V30 4536 N 427.171 -0.0066808 1.57599 0
M  V30 4537 C 428.411 -0.697501 1.92131 0
M  V30 4538 C 428.775 -1.71306 0.867071 0
M  V30 4539 O 429.976 -2.45377 1.09743 0
M  V30 4540 C 428.247 -1.32978 3.3174 0
M  V30 4541 S 429.806 -2.04665 3.88146 0
M  V30 4542 H 426.624 -0.230555 0.672581 0
M  V30 4543 H 429.226 0.0484026 1.9544 0
M  V30 4544 H 427.93 -0.57772 4.06313 0
M  V30 4545 H 427.461 -2.11376 3.31789 0
M  V30 4546 H 429.476 -3.32097 3.68682 0
M  V30 4547 N 428.649 -1.55105 -0.279332 0
M  V30 4548 C 429.579 -1.90557 -1.34945 0
M  V30 4549 C 430.56 -0.766738 -1.51839 0
M  V30 4550 O 431.745 -1.02434 -1.64988 0
M  V30 4551 C 428.875 -2.17193 -2.71006 0
M  V30 4552 C 427.829 -3.33021 -2.68851 0
M  V30 4553 C 427.155 -3.45123 -4.08405 0
M  V30 4554 C 428.455 -4.69578 -2.28678 0
M  V30 4555 H 430.149 -2.80188 -1.05522 0
M  V30 4556 H 427.695 -1.34811 -0.506173 0
M  V30 4557 H 429.648 -2.40581 -3.45975 0
M  V30 4558 H 428.372 -1.24355 -3.01999 0
M  V30 4559 H 427.031 -3.0959 -1.9634 0
M  V30 4560 H 426.679 -2.49762 -4.3661 0
M  V30 4561 H 426.379 -4.22995 -4.07859 0
M  V30 4562 H 427.903 -3.70796 -4.85121 0
M  V30 4563 H 429.317 -4.92553 -2.93368 0
M  V30 4564 H 427.714 -5.5032 -2.39306 0
M  V30 4565 H 428.784 -4.68828 -1.23807 0
M  V30 4566 N 430.127 0.543554 -1.4793 0
M  V30 4567 C 431.057 1.65888 -1.64327 0
M  V30 4568 C 432.038 1.62818 -0.492383 0
M  V30 4569 O 433.223 1.80226 -0.723338 0
M  V30 4570 C 430.353 3.04506 -1.67013 0
M  V30 4571 C 429.307 3.2243 -2.81466 0
M  V30 4572 C 428.633 4.61972 -2.69233 0
M  V30 4573 C 429.933 3.06496 -4.22915 0
M  V30 4574 H 431.627 1.52421 -2.57698 0
M  V30 4575 H 429.173 0.731849 -1.24016 0
M  V30 4576 H 431.126 3.82391 -1.77074 0
M  V30 4577 H 429.85 3.18964 -0.70212 0
M  V30 4578 H 428.509 2.46957 -2.70938 0
M  V30 4579 H 428.157 4.73247 -1.7043 0
M  V30 4580 H 427.857 4.74911 -3.46025 0
M  V30 4581 H 429.381 5.41974 -2.81242 0
M  V30 4582 H 430.795 3.74186 -4.34348 0
M  V30 4583 H 429.192 3.30938 -5.006 0
M  V30 4584 H 430.262 2.03077 -4.40327 0
M  V30 4585 N 431.605 1.3629 0.791371 0
M  V30 4586 C 432.552 1.30458 1.90393 0
M  V30 4587 C 433.522 0.173632 1.6519 0
M  V30 4588 O 434.707 0.35983 1.87376 0
M  V30 4589 C 431.847 1.09777 3.27174 0
M  V30 4590 C 430.96 2.31929 3.64462 0
M  V30 4591 C 430.095 2.04276 4.90352 0
M  V30 4592 C 429.134 3.224 5.20312 0
M  V30 4593 N 428.271 2.94424 6.37385 0
M  V30 4594 H 433.111 2.25589 1.94714 0
M  V30 4595 H 430.648 1.12122 0.952216 0
M  V30 4596 H 432.606 0.958133 4.06049 0
M  V30 4597 H 431.236 0.183014 3.22281 0
M  V30 4598 H 430.288 2.56703 2.80727 0
M  V30 4599 H 431.6 3.20085 3.82553 0
M  V30 4600 H 430.754 1.87231 5.77087 0
M  V30 4601 H 429.493 1.13428 4.74326 0
M  V30 4602 H 428.498 3.40005 4.32061 0
M  V30 4603 H 429.723 4.14071 5.38258 0
M  V30 4604 H 427.669 2.06185 6.22755 0
M  V30 4605 H 427.586 3.76118 6.55798 0
M  V30 4606 H 428.854 2.80953 7.27108 0
M  V30 4607 N 433.083 -1.0153 1.20538 0
M  V30 4608 C 434.33 -1.75149 1.01633 0
M  V30 4609 C 434.658 -1.89189 -0.451399 0
M  V30 4610 O 433.913 -1.41551 -1.35136 0
M  V30 4611 C 434.212 -3.17213 1.64654 0
M  V30 4612 C 433.878 -3.23146 3.14464 0
M  V30 4613 C 432.54 -3.24472 3.55347 0
M  V30 4614 C 434.892 -3.21207 4.10458 0
M  V30 4615 C 432.22 -3.21532 4.90748 0
M  V30 4616 C 434.572 -3.19808 5.45807 0
M  V30 4617 C 433.236 -3.19439 5.86102 0
M  V30 4618 H 432.506 -0.640914 0.3719 0
M  V30 4619 H 435.153 -1.19071 1.49981 0
M  V30 4620 H 433.458 -3.76457 1.08571 0
M  V30 4621 H 435.155 -3.72871 1.4754 0
M  V30 4622 H 431.745 -3.2285 2.81897 0
M  V30 4623 H 435.929 -3.19351 3.79906 0
M  V30 4624 H 431.185 -3.19578 5.21229 0
M  V30 4625 H 435.359 -3.1726 6.19935 0
M  V30 4626 H 432.986 -3.16915 6.90991 0
M  V30 4627 N 434.561 -1.01147 -1.20859 0
M  V30 4628 C 435.786 -0.716698 -1.94623 0
M  V30 4629 C 436.211 0.715415 -1.73964 0
M  V30 4630 O 435.569 1.49157 -1.03062 0
M  V30 4631 C 435.617 -1.0513 -3.44935 0
M  V30 4632 O 434.721 -0.160131 -4.12089 0
M  V30 4633 H 434.062 -0.266404 -0.608214 0
M  V30 4634 H 436.592 -1.35346 -1.53436 0
M  V30 4635 H 436.602 -1.00086 -3.95533 0
M  V30 4636 H 435.277 -2.09475 -3.59295 0
M  V30 4637 H 433.854 -0.267657 -3.71938 0
M  V30 4638 N 436.039 1.36541 -0.78704 0
M  V30 4639 C 436.969 2.32659 -0.197992 0
M  V30 4640 C 437.95 1.56533 0.665697 0
M  V30 4641 O 439.135 1.84698 0.60001 0
M  V30 4642 C 436.265 3.40778 0.669901 0
M  V30 4643 C 435.219 4.27897 -0.0937039 0
M  V30 4644 C 434.545 5.27163 0.894629 0
M  V30 4645 C 435.845 5.06334 -1.28154 0
M  V30 4646 H 437.539 2.82171 -1.00099 0
M  V30 4647 H 435.085 1.35665 -0.482793 0
M  V30 4648 H 437.038 4.07008 1.09191 0
M  V30 4649 H 435.762 2.89827 1.50558 0
M  V30 4650 H 434.421 3.6322 -0.49666 0
M  V30 4651 H 434.069 4.72486 1.72527 0
M  V30 4652 H 433.769 5.86317 0.388149 0
M  V30 4653 H 435.293 5.96266 1.31525 0
M  V30 4654 H 436.707 5.65617 -0.93541 0
M  V30 4655 H 435.104 5.74888 -1.72115 0
M  V30 4656 H 436.174 4.38114 -2.07807 0
M  V30 4657 N 437.518 0.538854 1.48102 0
M  V30 4658 C 438.795 -0.0568108 1.95517 0
M  V30 4659 C 439.175 -1.50408 1.48124 0
M  V30 4660 O 438.523 -2.17133 0.711727 0
M  V30 4661 C 438.733 0.0696262 3.48931 0
M  V30 4662 C 440.081 -0.0851202 4.24515 0
M  V30 4663 O 441.105 -0.0037347 3.562 0
M  V30 4664 O 439.964 -0.257025 5.45895 0
M  V30 4665 H 437.058 -0.0743695 0.823649 0
M  V30 4666 H 439.604 0.604081 1.58584 0
M  V30 4667 H 438.376 1.07744 3.76174 0
M  V30 4668 H 437.999 -0.629714 3.92582 0
M  V30 4669 N 438.996 -1.55193 0.274407 0
M  V30 4670 C 440.242 -1.99877 -0.343086 0
M  V30 4671 C 440.575 -1.16256 -1.55558 0
M  V30 4672 O 439.85 -0.232462 -1.93106 0
M  V30 4673 C 440.133 -3.52706 -0.725965 0
M  V30 4674 C 439.986 -4.47081 0.493818 0
M  V30 4675 C 441.305 -4.11422 -1.56268 0
M  V30 4676 H 438.424 -0.726625 -0.123229 0
M  V30 4677 H 441.066 -1.86136 0.38121 0
M  V30 4678 H 439.216 -3.64546 -1.34307 0
M  V30 4679 H 440.888 -4.47186 1.13237 0
M  V30 4680 H 439.131 -4.1877 1.13201 0
M  V30 4681 H 439.802 -5.51699 0.18217 0
M  V30 4682 H 442.278 -4.02855 -1.04151 0
M  V30 4683 H 441.154 -5.18568 -1.79939 0
M  V30 4684 H 441.415 -3.61607 -2.54348 0
M  V30 4685 N 440.474 -0.00167713 -1.576 0
M  V30 4686 C 441.714 0.687302 -1.92498 0
M  V30 4687 C 442.078 1.70844 -0.876144 0
M  V30 4688 O 443.279 2.44792 -1.11043 0
M  V30 4689 C 441.55 1.31217 -3.32441 0
M  V30 4690 S 443.109 2.02604 -3.89226 0
M  V30 4691 H 439.927 0.226985 -0.673794 0
M  V30 4692 H 442.529 -0.0587666 -1.95412 0
M  V30 4693 H 441.233 0.556164 -4.06614 0
M  V30 4694 H 440.764 2.09613 -3.32905 0
M  V30 4695 H 442.779 3.30137 -3.70438 0
M  V30 4696 N 441.952 1.55251 0.271103 0
M  V30 4697 C 442.862 1.9136 1.35714 0
M  V30 4698 C 443.878 0.811075 1.5394 0
M  V30 4699 O 445.054 1.11031 1.6803 0
M  V30 4700 C 442.119 2.1798 2.69603 0
M  V30 4701 C 441.18 3.4153 2.60107 0
M  V30 4702 C 440.413 3.66871 3.8761 0
M  V30 4703 O 440.636 2.94689 4.8838 0
M  V30 4704 O 439.57 4.60405 3.87699 0
M  V30 4705 H 443.396 2.83815 1.08088 0
M  V30 4706 H 440.981 1.41821 0.469792 0
M  V30 4707 H 442.863 2.36518 3.48765 0
M  V30 4708 H 441.538 1.28708 2.97012 0
M  V30 4709 H 440.445 3.28325 1.79314 0
M  V30 4710 H 441.778 4.31027 2.37647 0
M  V30 4711 N 443.43 -0.535701 1.48216 0
M  V30 4712 C 444.393 -1.623 1.61838 0
M  V30 4713 C 445.393 -1.53087 0.492024 0
M  V30 4714 O 446.583 -1.5686 0.757668 0
M  V30 4715 C 443.715 -3.01907 1.58319 0
M  V30 4716 H 444.908 -1.51564 2.58783 0
M  V30 4717 H 442.461 -0.757317 1.36727 0
M  V30 4718 H 443.196 -3.18155 0.628299 0
M  V30 4719 H 442.981 -3.10003 2.40085 0
M  V30 4720 H 444.471 -3.80969 1.71033 0
M  V30 4721 N 444.908 -1.36708 -0.784132 0
M  V30 4722 C 445.841 -1.25827 -1.90375 0
M  V30 4723 C 446.819 -0.141331 -1.61985 0
M  V30 4724 O 448.003 -0.313389 -1.85877 0
M  V30 4725 C 445.13 -0.942621 -3.25319 0
M  V30 4726 C 444.176 -2.07474 -3.72635 0
M  V30 4727 S 445.009 -3.69317 -3.8777 0
M  V30 4728 C 446.165 -3.39876 -5.25581 0
M  V30 4729 H 446.398 -2.20593 -1.99314 0
M  V30 4730 H 443.931 -1.22186 -0.943926 0
M  V30 4731 H 445.889 -0.767321 -4.03265 0
M  V30 4732 H 444.55 -0.0126566 -3.14097 0
M  V30 4733 H 443.743 -1.80858 -4.70432 0
M  V30 4734 H 443.345 -2.20953 -3.01754 0
M  V30 4735 H 445.637 -2.94097 -6.10339 0
M  V30 4736 H 446.58 -4.36956 -5.57203 0
M  V30 4737 H 446.988 -2.75098 -4.92931 0
M  V30 4738 N 446.386 1.0089 -1.21074 0
M  V30 4739 C 447.296 2.13039 -0.982425 0
M  V30 4740 C 448.312 1.73881 0.0642161 0
M  V30 4741 O 449.488 2.01012 -0.12496 0
M  V30 4742 C 446.553 3.42377 -0.545803 0
M  V30 4743 C 445.614 3.95731 -1.6642 0
M  V30 4744 C 444.847 5.18896 -1.24832 0
M  V30 4745 O 445.07 5.70273 -0.120265 0
M  V30 4746 O 444.004 5.65597 -2.05873 0
M  V30 4747 H 447.83 2.35175 -1.92163 0
M  V30 4748 H 445.415 1.1142 -0.995285 0
M  V30 4749 H 447.297 4.20244 -0.311912 0
M  V30 4750 H 445.972 3.21639 0.364727 0
M  V30 4751 H 444.879 3.19108 -1.95246 0
M  V30 4752 H 446.212 4.20872 -2.55201 0
M  V30 4753 N 447.864 1.01787 1.20321 0
M  V30 4754 C 449.094 0.72614 1.93419 0
M  V30 4755 C 449.502 -0.717317 1.75075 0
M  V30 4756 O 448.845 -1.49836 1.06278 0
M  V30 4757 C 448.907 0.983621 3.45782 0
M  V30 4758 C 448.571 2.41645 3.87888 0
M  V30 4759 C 449.568 3.39732 3.93545 0
M  V30 4760 C 447.253 2.75752 4.19841 0
M  V30 4761 C 449.247 4.69988 4.30569 0
M  V30 4762 C 446.934 4.06221 4.56539 0
M  V30 4763 C 447.932 5.0315 4.61876 0
M  V30 4764 O 447.62 6.31284 4.97731 0
M  V30 4765 H 447.352 0.265824 0.621541 0
M  V30 4766 H 449.906 1.3623 1.53722 0
M  V30 4767 H 448.136 0.290301 3.85609 0
M  V30 4768 H 449.825 0.683279 4.00108 0
M  V30 4769 H 450.591 3.14718 3.69022 0
M  V30 4770 H 446.47 2.00993 4.14877 0
M  V30 4771 H 450.014 5.45642 4.3465 0
M  V30 4772 H 445.911 4.31013 4.80518 0
M  V30 4773 H 446.679 6.35591 5.15719 0
M  V30 4774 N 449.342 -1.36122 0.79427 0
M  V30 4775 C 450.272 -2.32551 0.210328 0
M  V30 4776 C 451.253 -1.56884 -0.657386 0
M  V30 4777 O 452.438 -1.85014 -0.590207 0
M  V30 4778 C 449.568 -3.41128 -0.651819 0
M  V30 4779 C 448.522 -4.27842 0.116395 0
M  V30 4780 C 447.848 -5.2763 -0.86666 0
M  V30 4781 C 449.148 -5.05647 1.30837 0
M  V30 4782 H 450.842 -2.81636 1.01594 0
M  V30 4783 H 448.388 -1.35407 0.489981 0
M  V30 4784 H 450.341 -4.07581 -1.07031 0
M  V30 4785 H 449.065 -2.90622 -1.49019 0
M  V30 4786 H 447.724 -3.62952 0.515915 0
M  V30 4787 H 447.372 -4.73395 -1.70019 0
M  V30 4788 H 447.072 -5.86514 -0.35705 0
M  V30 4789 H 448.596 -5.96955 -1.28361 0
M  V30 4790 H 450.01 -5.65113 0.965393 0
M  V30 4791 H 448.407 -5.73967 1.75161 0
M  V30 4792 H 449.477 -4.37006 2.10128 0
M  V30 4793 N 450.82 -0.546701 -1.47814 0
M  V30 4794 C 451.73 0.21026 -2.33656 0
M  V30 4795 C 452.746 0.922413 -1.47538 0
M  V30 4796 O 453.922 0.893652 -1.80488 0
M  V30 4797 C 450.987 1.23348 -3.24016 0
M  V30 4798 C 450.048 0.529883 -4.26017 0
M  V30 4799 C 449.281 1.50435 -5.12059 0
M  V30 4800 O 449.504 2.73837 -5.00369 0
M  V30 4801 O 448.438 1.03459 -5.92942 0
M  V30 4802 H 452.264 -0.493605 -2.99662 0
M  V30 4803 H 449.849 -0.307427 -1.46203 0
M  V30 4804 H 451.731 1.82438 -3.79861 0
M  V30 4805 H 450.406 1.91945 -2.60651 0
M  V30 4806 H 449.313 -0.101948 -3.73961 0
M  V30 4807 H 450.646 -0.11445 -4.92067 0
M  V30 4808 N 452.299 1.55045 -0.282633 0
M  V30 4809 C 453.547 1.99365 0.331334 0
M  V30 4810 C 453.868 1.1725 1.55812 0
M  V30 4811 O 453.138 0.263871 1.94115 0
M  V30 4812 H 451.718 0.736397 0.125414 0
M  V30 4813 H 454.38 1.90964 -0.389711 0
M  V30 4814 H 453.476 3.0596 0.616036 0
M  V30 4815 N 453.777 0.010035 1.57597 0
M  V30 4816 C 454.725 -0.996272 2.10184 0
M  V30 4817 C 455.719 -1.34942 1.02406 0
M  V30 4818 O 456.925 -1.33389 1.20861 0
M  V30 4819 H 453.3 -0.338982 0.671264 0
M  V30 4820 H 455.271 -0.527272 2.93705 0
M  V30 4821 C 454.02 -2.27599 2.62857 0
M  V30 4822 H 453.343 -2.01295 3.45428 0
M  V30 4823 H 454.783 -2.96265 3.0332 0
M  V30 4824 C 453.242 -2.99269 1.54725 0
M  V30 4825 O 453.772 -3.90644 0.93597 0
M  V30 4826 N 451.978 -2.61269 1.27228 0
M  V30 4827 H 451.525 -1.87043 1.77123 0
M  V30 4828 H 451.483 -3.09534 0.550999 0
M  V30 4829 N 455.255 -1.55392 -0.262866 0
M  V30 4830 C 456.203 -1.8977 -1.345 0
M  V30 4831 C 457.197 -0.775063 -1.50629 0
M  V30 4832 O 458.403 -0.959519 -1.52293 0
M  V30 4833 H 454.778 -0.602467 -0.450041 0
M  V30 4834 H 456.749 -2.80147 -1.02762 0
M  V30 4835 C 455.498 -2.19501 -2.69657 0
M  V30 4836 H 454.821 -3.05378 -2.5804 0
M  V30 4837 H 456.261 -2.47469 -3.44289 0
M  V30 4838 C 454.72 -1.00597 -3.21531 0
M  V30 4839 O 455.25 -0.245768 -4.00947 0
M  V30 4840 N 453.456 -0.800911 -2.79345 0
M  V30 4841 H 453.003 -1.42079 -2.14875 0
M  V30 4842 H 452.961 -0.00697996 -3.14399 0
M  V30 4843 N 456.733 0.527833 -1.48498 0
M  V30 4844 C 457.98 1.28354 -1.56625 0
M  V30 4845 C 458.308 1.93 -0.241096 0
M  V30 4846 O 457.563 1.79967 0.768798 0
M  V30 4847 C 457.862 2.39275 -2.65485 0
M  V30 4848 C 457.528 1.92268 -4.07853 0
M  V30 4849 C 456.19 1.79166 -4.46602 0
M  V30 4850 C 458.542 1.56771 -4.97064 0
M  V30 4851 C 455.87 1.28905 -5.72364 0
M  V30 4852 C 458.222 1.07972 -6.23318 0
M  V30 4853 C 456.886 0.934887 -6.60921 0
M  V30 4854 H 456.156 0.469682 -0.573131 0
M  V30 4855 H 458.803 0.588781 -1.82224 0
M  V30 4856 H 457.108 3.1443 -2.33754 0
M  V30 4857 H 458.805 2.974 -2.68988 0
M  V30 4858 H 455.395 2.03417 -3.77252 0
M  V30 4859 H 459.579 1.65753 -4.67803 0
M  V30 4860 H 454.835 1.16381 -6.00221 0
M  V30 4861 H 459.009 0.795775 -6.91838 0
M  V30 4862 H 456.636 0.543231 -7.58257 0
M  V30 4863 N 458.211 1.37122 0.776871 0
M  V30 4864 C 459.457 1.32243 1.53752 0
M  V30 4865 C 459.79 -0.0944745 1.9397 0
M  V30 4866 O 459.065 -1.05068 1.6368 0
M  V30 4867 C 459.348 2.25681 2.80607 0
M  V30 4868 C 459.201 3.76127 2.46676 0
M  V30 4869 C 460.52 2.17657 3.82509 0
M  V30 4870 H 457.639 0.481704 0.557791 0
M  V30 4871 H 460.281 1.6778 0.891612 0
M  V30 4872 H 458.431 1.95505 3.35723 0
M  V30 4873 H 460.103 4.16877 1.97513 0
M  V30 4874 H 458.346 3.94946 1.79443 0
M  V30 4875 H 459.017 4.36933 3.37333 0
M  V30 4876 H 461.493 2.44245 3.36873 0
M  V30 4877 H 460.369 2.85185 4.69 0
M  V30 4878 H 460.63 1.16785 4.26396 0
M  V30 4879 N 459.689 -1.00246 1.21608 0
M  V30 4880 C 460.639 -2.07492 0.945051 0
M  V30 4881 C 461.623 -1.60585 -0.100675 0
M  V30 4882 O 462.815 -1.76667 0.10859 0
M  V30 4883 C 459.944 -3.39425 0.514342 0
M  V30 4884 C 459.03 -3.92993 1.59428 0
M  V30 4885 N 459.421 -4.19898 2.81991 0
M  V30 4886 C 457.719 -4.21297 1.46374 0
M  V30 4887 C 458.42 -4.63297 3.51754 0
M  V30 4888 N 457.396 -4.66421 2.79199 0
M  V30 4889 H 461.198 -2.26222 1.87619 0
M  V30 4890 H 458.712 -1.18339 1.11219 0
M  V30 4891 H 460.709 -4.15808 0.301527 0
M  V30 4892 H 459.369 -3.22101 -0.410008 0
M  V30 4893 H 460.38 -4.08377 3.1851 0
M  V30 4894 H 457.057 -4.13095 0.604863 0
M  V30 4895 H 458.447 -4.92816 4.56708 0
M  V30 4896 N 461.167 -1.02423 -1.1978 0
M  V30 4897 C 462.583 -0.740459 -1.41384 0
M  V30 4898 C 462.783 0.676827 -1.89793 0
M  V30 4899 O 461.839 1.4435 -2.0717 0
M  V30 4900 C 463.152 -1.77264 -2.42895 0
M  V30 4901 C 464.7 -1.79165 -2.56649 0
M  V30 4902 C 465.175 -2.8133 -3.6141 0
M  V30 4903 N 466.666 -2.80118 -3.68901 0
M  V30 4904 C 467.401 -3.55824 -4.49641 0
M  V30 4905 N 466.897 -4.41231 -5.34123 0
M  V30 4906 N 468.69 -3.44387 -4.44246 0
M  V30 4907 H 460.841 -1.9391 -0.866764 0
M  V30 4908 H 463.104 -0.838074 -0.443098 0
M  V30 4909 H 462.81 -2.7884 -2.14339 0
M  V30 4910 H 462.684 -1.59108 -3.42001 0
M  V30 4911 H 465.071 -0.782702 -2.84531 0
M  V30 4912 H 465.152 -2.01396 -1.57713 0
M  V30 4913 H 464.796 -3.82394 -3.34271 0
M  V30 4914 H 464.726 -2.56359 -4.59986 0
M  V30 4915 H 467.217 -2.1817 -3.08562 0
M  V30 4916 H 467.53 -4.95747 -5.92836 0
M  V30 4917 H 465.875 -4.45306 -5.33599 0
M  V30 4918 H 469.066 -2.7708 -3.77285 0
M  V30 4919 H 469.239 -4.0364 -5.06931 0
M  V30 4920 N 462.645 1.35699 -0.801477 0
M  V30 4921 C 463.922 1.9324 -0.302937 0
M  V30 4922 C 464.302 1.73209 1.20672 0
M  V30 4923 O 463.65 1.09809 2.00385 0
M  V30 4924 C 463.86 3.41728 -0.708747 0
M  V30 4925 C 465.208 4.18868 -0.695328 0
M  V30 4926 O 466.232 3.5022 -0.649971 0
M  V30 4927 O 465.091 5.41342 -0.749081 0
M  V30 4928 H 462.185 0.82331 -0.0780367 0
M  V30 4929 H 464.731 1.44806 -0.884832 0
M  V30 4930 H 463.503 3.50015 -1.74944 0
M  V30 4931 H 463.126 3.97471 -0.101384 0
M  V30 4932 N 464.123 0.554532 1.47522 0
M  V30 4933 C 465.053 -0.182974 2.32782 0
M  V30 4934 C 466.034 -0.911377 1.43624 0
M  V30 4935 O 467.219 -0.892366 1.72483 0
M  V30 4936 C 464.349 -1.21513 3.25349 0
M  V30 4937 C 463.303 -0.603355 4.23726 0
M  V30 4938 C 462.629 -1.73995 5.05598 0
M  V30 4939 C 463.929 0.441121 5.20434 0
M  V30 4940 H 465.623 0.52882 2.94693 0
M  V30 4941 H 463.169 0.255759 1.41711 0
M  V30 4942 H 465.122 -1.73922 3.83835 0
M  V30 4943 H 463.846 -1.95683 2.61487 0
M  V30 4944 H 462.505 -0.10059 3.66462 0
M  V30 4945 H 462.153 -2.47063 4.38143 0
M  V30 4946 H 461.853 -1.3364 5.72201 0
M  V30 4947 H 463.377 -2.26735 5.66942 0
M  V30 4948 H 464.791 0.00319931 5.733 0
M  V30 4949 H 463.188 0.763402 5.95224 0
M  V30 4950 H 464.258 1.33799 4.66075 0
M  V30 4951 N 465.601 -1.54893 0.290851 0
M  V30 4952 C 466.564 -2.21824 -0.576784 0
M  V30 4953 C 467.564 -1.20104 -1.06919 0
M  V30 4954 O 468.754 -1.44906 -0.966843 0
M  V30 4955 C 465.886 -2.89662 -1.79747 0
M  V30 4956 H 467.079 -2.99899 0.00784051 0
M  V30 4957 H 464.632 -1.56245 0.0415934 0
M  V30 4958 H 465.367 -2.15639 -2.42219 0
M  V30 4959 H 465.152 -3.64219 -1.45214 0
M  V30 4960 H 466.642 -3.4075 -2.4141 0
M  V30 4961 N 467.08 -0.0183926 -1.57589 0
M  V30 4962 C 468.043 0.951986 -2.08494 0
M  V30 4963 C 469.043 1.26092 -0.997874 0
M  V30 4964 O 470.233 1.20304 -1.25987 0
M  V30 4965 C 467.365 2.27165 -2.54182 0
M  V30 4966 H 468.558 0.511307 -2.95509 0
M  V30 4967 H 466.111 0.229444 -1.54607 0
M  V30 4968 H 466.846 2.75884 -1.70465 0
M  V30 4969 H 466.631 2.06057 -3.33591 0
M  V30 4970 H 468.121 2.9674 -2.93828 0
M  V30 4971 N 468.558 1.5553 0.254621 0
M  V30 4972 C 469.974 1.4778 0.602753 0
M  V30 4973 C 470.174 0.707047 1.88688 0
M  V30 4974 O 469.23 0.233288 2.5142 0
M  V30 4975 C 470.543 2.92133 0.712648 0
M  V30 4976 C 472.091 3.02458 0.805488 0
M  V30 4977 C 472.566 4.48102 0.947009 0
M  V30 4978 N 474.057 4.52008 1.01207 0
M  V30 4979 C 474.792 5.61939 1.1407 0
M  V30 4980 N 474.288 6.81697 1.23536 0
M  V30 4981 N 476.081 5.49719 1.17325 0
M  V30 4982 H 468.232 2.04085 -0.588463 0
M  V30 4983 H 470.495 0.926229 -0.202001 0
M  V30 4984 H 470.201 3.51332 -0.160766 0
M  V30 4985 H 470.075 3.42187 1.58707 0
M  V30 4986 H 472.462 2.43344 1.66936 0
M  V30 4987 H 472.543 2.55627 -0.0939266 0
M  V30 4988 H 472.187 5.07824 0.087725 0
M  V30 4989 H 472.117 4.92607 1.86135 0
M  V30 4990 H 474.608 3.65749 0.950577 0
M  V30 4991 H 474.921 7.61228 1.33236 0
M  V30 4992 H 473.266 6.84473 1.20508 0
M  V30 4993 H 476.457 4.55095 1.09573 0
M  V30 4994 H 476.63 6.35432 1.27005 0
M  V30 4995 N 470.036 -0.519951 1.48776 0
M  V30 4996 C 470.984 -1.64443 1.64503 0
M  V30 4997 C 471.978 -1.61501 0.511248 0
M  V30 4998 O 473.184 -1.66238 0.690294 0
M  V30 4999 H 469.559 -0.544776 0.518385 0
M  V30 5000 H 471.53 -1.48325 2.58925 0
M  V30 5001 C 470.279 -3.02673 1.71127 0
M  V30 5002 H 469.602 -3.05635 2.57735 0
M  V30 5003 H 471.042 -3.80941 1.86172 0
M  V30 5004 C 469.501 -3.33854 0.452032 0
M  V30 5005 O 470.031 -3.99385 -0.430678 0
M  V30 5006 N 468.237 -2.88825 0.32069 0
M  V30 5007 H 467.784 -2.35674 1.03998 0
M  V30 5008 H 467.742 -3.10056 -0.520814 0
M  V30 5009 N 471.514 -1.37532 -0.769588 0
M  V30 5010 C 472.76 -1.33057 -1.53048 0
M  V30 5011 C 473.093 0.0841865 -1.94017 0
M  V30 5012 O 472.368 1.04198 -1.64235 0
M  V30 5013 C 472.651 -2.27166 -2.79406 0
M  V30 5014 C 472.504 -3.77429 -2.44677 0
M  V30 5015 C 473.823 -2.19683 -3.81349 0
M  V30 5016 H 470.942 -0.484655 -0.555228 0
M  V30 5017 H 473.584 -1.68251 -0.882702 0
M  V30 5018 H 471.734 -1.97283 -3.34682 0
M  V30 5019 H 473.406 -4.17918 -1.953 0
M  V30 5020 H 471.649 -3.95892 -1.77346 0
M  V30 5021 H 472.32 -4.38716 -3.35011 0
M  V30 5022 H 474.796 -2.46029 -3.35573 0
M  V30 5023 H 473.672 -2.87668 -4.67481 0
M  V30 5024 H 473.933 -1.19045 -4.25771 0
M  V30 5025 N 472.992 0.995999 -1.22138 0
M  V30 5026 C 473.922 2.10387 -1.01289 0
M  V30 5027 C 474.903 1.69975 0.0651454 0
M  V30 5028 O 476.088 1.9396 -0.0964628 0
M  V30 5029 C 473.218 3.42312 -0.586517 0
M  V30 5030 C 472.172 3.96558 -1.61014 0
M  V30 5031 C 471.498 5.24494 -1.0397 0
M  V30 5032 C 472.798 4.27595 -2.99933 0
M  V30 5033 H 474.492 2.28086 -1.93951 0
M  V30 5034 H 472.038 1.09607 -0.933928 0
M  V30 5035 H 473.991 4.19223 -0.427793 0
M  V30 5036 H 472.715 3.24431 0.375761 0
M  V30 5037 H 471.374 3.21776 -1.75658 0
M  V30 5038 H 471.022 5.02953 -0.0688703 0
M  V30 5039 H 470.722 5.61755 -1.72352 0
M  V30 5040 H 472.246 6.04042 -0.892494 0
M  V30 5041 H 473.66 4.95315 -2.8868 0
M  V30 5042 H 472.057 4.76021 -3.6541 0
M  V30 5043 H 473.127 3.35498 -3.50099 0
M  V30 5044 N 474.47 1.03057 1.19235 0
M  V30 5045 C 475.716 0.729098 1.89241 0
M  V30 5046 C 476.049 -0.740573 1.79525 0
M  V30 5047 O 475.324 -1.53946 1.18874 0
M  V30 5048 C 475.607 1.18304 3.40112 0
M  V30 5049 C 475.46 2.71406 3.5869 0
M  V30 5050 C 476.779 0.765161 4.33397 0
M  V30 5051 H 473.898 0.266338 0.687192 0
M  V30 5052 H 476.54 1.28079 1.40341 0
M  V30 5053 H 474.69 0.713672 3.81889 0
M  V30 5054 H 476.362 3.26303 3.26074 0
M  V30 5055 H 474.605 3.11717 3.01687 0
M  V30 5056 H 475.276 2.98225 4.64506 0
M  V30 5057 H 477.752 1.16889 3.99345 0
M  V30 5058 H 476.628 1.11065 5.37546 0
M  V30 5059 H 476.889 -0.332372 4.40849 0
M  V30 5060 N 475.948 -1.35272 0.808662 0
M  V30 5061 C 477.173 -2.03477 0.401475 0
M  V30 5062 C 477.598 -1.60537 -0.980279 0
M  V30 5063 O 476.956 -0.78304 -1.63518 0
M  V30 5064 C 477.004 -3.57181 0.495354 0
M  V30 5065 O 476.108 -4.09474 -0.490397 0
M  V30 5066 H 475.449 -0.642561 0.167366 0
M  V30 5067 H 477.979 -1.72824 1.09512 0
M  V30 5068 H 477.989 -4.06356 0.365912 0
M  V30 5069 H 476.664 -3.87784 1.5032 0
M  V30 5070 H 475.241 -3.71516 -0.321023 0
M  V30 5071 N 477.426 -0.562348 -1.47226 0
M  V30 5072 C 478.336 0.185466 -2.33866 0
M  V30 5073 C 479.352 0.906713 -1.48508 0
M  V30 5074 O 480.528 0.874458 -1.81425 0
M  V30 5075 C 477.593 1.19904 -3.25306 0
M  V30 5076 C 476.654 0.484669 -4.26555 0
M  V30 5077 C 475.887 1.44996 -5.13626 0
M  V30 5078 O 476.11 2.68515 -5.03245 0
M  V30 5079 O 475.044 0.971642 -5.94006 0
M  V30 5080 H 478.87 -0.525361 -2.99121 0
M  V30 5081 H 476.455 -0.322916 -1.45868 0
M  V30 5082 H 478.337 1.78399 -3.81774 0
M  V30 5083 H 477.012 1.8917 -2.62672 0
M  V30 5084 H 475.919 -0.141605 -3.73832 0
M  V30 5085 H 477.252 -0.166634 -4.91918 0
M  V30 5086 N 478.904 1.54736 -0.299062 0
M  V30 5087 C 480.181 1.92187 0.363802 0
M  V30 5088 C 480.561 1.22607 1.71845 0
M  V30 5089 O 479.909 0.361141 2.25628 0
M  V30 5090 C 480.119 3.45678 0.480377 0
M  V30 5091 C 481.467 4.17885 0.752147 0
M  V30 5092 O 482.491 3.51702 0.564264 0
M  V30 5093 O 481.35 5.35048 1.11294 0
M  V30 5094 H 478.444 0.801681 0.203066 0
M  V30 5095 H 480.99 1.66115 -0.346978 0
M  V30 5096 H 479.762 3.88443 -0.471999 0
M  V30 5097 H 479.385 3.77779 1.2397 0
M  V30 5098 N 480.382 0.0267497 1.57577 0
M  V30 5099 C 481.33 -0.973923 2.11229 0
M  V30 5100 C 482.324 -1.33849 1.03831 0
M  V30 5101 O 483.53 -1.321 1.22269 0
M  V30 5102 H 479.905 -0.331844 0.674821 0
M  V30 5103 H 481.876 -0.496092 2.94247 0
M  V30 5104 C 480.625 -2.24798 2.65257 0
M  V30 5105 H 479.948 -1.9762 3.47543 0
M  V30 5106 H 481.388 -2.93031 3.06445 0
M  V30 5107 C 479.847 -2.97611 1.57891 0
M  V30 5108 O 480.377 -3.89629 0.97735 0
M  V30 5109 N 478.583 -2.59905 1.29992 0
M  V30 5110 H 478.13 -1.85154 1.79097 0
M  V30 5111 H 478.088 -3.08932 0.583798 0
M  V30 5112 N 481.861 -1.55662 -0.24637 0
M  V30 5113 C 483.107 -1.77782 -0.975779 0
M  V30 5114 C 483.44 -0.592103 -1.84953 0
M  V30 5115 O 482.715 0.409588 -1.90138 0
M  V30 5116 C 482.998 -3.09788 -1.83584 0
M  V30 5117 C 482.851 -4.38764 -0.990241 0
M  V30 5118 C 484.17 -3.38029 -2.81823 0
M  V30 5119 H 481.289 -0.646789 -0.353317 0
M  V30 5120 H 483.931 -1.88398 -0.246248 0
M  V30 5121 H 482.081 -3.00869 -2.45784 0
M  V30 5122 H 483.753 -4.59675 -0.386897 0
M  V30 5123 H 481.996 -4.32798 -0.294626 0
M  V30 5124 H 482.667 -5.27514 -1.62584 0
M  V30 5125 H 485.143 -3.46915 -2.2976 0
M  V30 5126 H 484.019 -4.3161 -3.39122 0
M  V30 5127 H 484.28 -2.58968 -3.58313 0
M  V30 5128 N 483.339 0.512053 -1.4905 0
M  V30 5129 C 484.302 1.59704 -1.64399 0
M  V30 5130 C 485.302 1.52285 -0.516317 0
M  V30 5131 O 486.492 1.55635 -0.782527 0
M  V30 5132 C 483.624 2.9935 -1.63102 0
M  V30 5133 H 484.817 1.47428 -2.61161 0
M  V30 5134 H 482.37 0.735469 -1.37915 0
M  V30 5135 H 483.105 3.17116 -0.678836 0
M  V30 5136 H 482.89 3.06144 -2.44986 0
M  V30 5137 H 484.38 3.782 -1.77072 0
M  V30 5138 N 484.817 1.37938 0.762283 0
M  V30 5139 C 485.764 1.34467 1.87583 0
M  V30 5140 C 486.734 0.208633 1.64785 0
M  V30 5141 O 487.919 0.399494 1.86571 0
M  V30 5142 C 485.059 1.16692 3.24772 0
M  V30 5143 C 484.172 2.39608 3.59461 0
M  V30 5144 C 483.307 2.14631 4.85908 0
M  V30 5145 C 482.346 3.33364 5.13357 0
M  V30 5146 N 481.483 3.07877 6.30996 0
M  V30 5147 H 486.323 2.29669 1.89885 0
M  V30 5148 H 483.86 1.14116 0.928219 0
M  V30 5149 H 485.818 1.04405 4.03925 0
M  V30 5150 H 484.448 0.251333 3.2182 0
M  V30 5151 H 483.5 2.626 2.75219 0
M  V30 5152 H 484.812 3.28128 3.75678 0
M  V30 5153 H 483.966 1.99429 5.72986 0
M  V30 5154 H 482.705 1.23463 4.71814 0
M  V30 5155 H 481.71 3.49094 4.24751 0
M  V30 5156 H 482.935 4.25395 5.29354 0
M  V30 5157 H 480.881 2.19348 6.18241 0
M  V30 5158 H 480.798 3.89944 6.47673 0
M  V30 5159 H 482.066 2.96313 7.20985 0
M  V30 5160 N 486.295 -0.989507 1.22664 0
M  V30 5161 C 487.541 -1.7321 1.05481 0
M  V30 5162 C 487.874 -1.89852 -0.408635 0
M  V30 5163 O 487.149 -1.44416 -1.30285 0
M  V30 5164 C 487.432 -3.1357 1.77047 0
M  V30 5165 C 487.285 -3.04555 3.31008 0
M  V30 5166 C 488.604 -4.12812 1.5256 0
M  V30 5167 H 485.723 -0.628697 0.384589 0
M  V30 5168 H 488.365 -1.15258 1.51049 0
M  V30 5169 H 486.515 -3.63046 1.3831 0
M  V30 5170 H 488.187 -2.62674 3.7921 0
M  V30 5171 H 486.43 -2.41278 3.6051 0
M  V30 5172 H 487.101 -4.03894 3.76263 0
M  V30 5173 H 489.577 -3.72106 1.86215 0
M  V30 5174 H 488.453 -5.09132 2.05124 0
M  V30 5175 H 488.714 -4.39711 0.458936 0
M  V30 5176 N 487.773 -1.03688 -1.18687 0
M  V30 5177 C 488.998 -0.757819 -1.93059 0
M  V30 5178 C 489.423 0.678353 -1.75442 0
M  V30 5179 O 488.781 1.46938 -1.06203 0
M  V30 5180 C 488.829 -1.12423 -3.42627 0
M  V30 5181 O 487.933 -0.247505 -4.11657 0
M  V30 5182 H 487.274 -0.279245 -0.602427 0
M  V30 5183 H 489.804 -1.3857 -1.5053 0
M  V30 5184 H 489.814 -1.08454 -3.93322 0
M  V30 5185 H 488.489 -2.17049 -3.54771 0
M  V30 5186 H 487.066 -0.34649 -3.71287 0
M  V30 5187 N 489.251 1.34841 -0.815825 0
M  V30 5188 C 490.528 1.92908 -0.323416 0
M  V30 5189 C 490.908 1.74479 1.18828 0
M  V30 5190 O 490.256 1.11928 1.99209 0
M  V30 5191 C 490.466 3.40957 -0.744952 0
M  V30 5192 C 491.814 4.18107 -0.739716 0
M  V30 5193 O 492.838 3.49511 -0.68708 0
M  V30 5194 O 491.697 5.40517 -0.806456 0
M  V30 5195 H 488.791 0.822436 -0.0867646 0
M  V30 5196 H 491.337 1.4386 -0.90014 0
M  V30 5197 H 490.109 3.4814 -1.78646 0
M  V30 5198 H 489.732 3.97341 -0.143535 0
M  V30 5199 N 490.729 0.570148 1.46925 0
M  V30 5200 C 491.976 0.0509529 2.02436 0
M  V30 5201 C 492.304 -1.30405 1.44308 0
M  V30 5202 O 491.559 -1.86493 0.593198 0
M  V30 5203 C 491.858 -0.0780336 3.57315 0
M  V30 5204 C 491.524 1.20775 4.34424 0
M  V30 5205 C 490.186 1.56004 4.5521 0
M  V30 5206 C 492.538 2.0592 4.78797 0
M  V30 5207 C 489.866 2.76201 5.17619 0
M  V30 5208 C 492.218 3.25332 5.42533 0
M  V30 5209 C 490.882 3.60859 5.61549 0
M  V30 5210 H 490.152 0.018645 0.740765 0
M  V30 5211 H 492.799 0.744262 1.76445 0
M  V30 5212 H 491.104 -0.854394 3.82371 0
M  V30 5213 H 492.801 -0.495312 3.97929 0
M  V30 5214 H 489.391 0.923469 4.18533 0
M  V30 5215 H 493.575 1.80008 4.62505 0
M  V30 5216 H 488.831 3.0388 5.30535 0
M  V30 5217 H 493.005 3.91586 5.75876 0
M  V30 5218 H 490.632 4.54088 6.09678 0
M  V30 5219 N 492.207 -1.54576 0.307264 0
M  V30 5220 C 493.455 -1.99867 -0.299574 0
M  V30 5221 C 493.776 -1.19714 -1.53927 0
M  V30 5222 O 493.046 -0.29472 -1.9367 0
M  V30 5223 H 491.626 -0.738299 -0.113683 0
M  V30 5224 H 494.288 -1.9032 0.420042 0
M  V30 5225 H 493.384 -3.06901 -0.567283 0
M  V30 5226 N 493.685 -0.035106 -1.57561 0
M  V30 5227 C 494.615 0.942993 -2.13612 0
M  V30 5228 C 495.596 1.33531 -1.05373 0
M  V30 5229 O 496.781 1.41287 -1.33235 0
M  V30 5230 C 493.911 2.22332 -2.66807 0
M  V30 5231 C 492.865 1.97156 -3.79886 0
M  V30 5232 C 492.191 3.31506 -4.19533 0
M  V30 5233 C 493.491 1.30596 -5.05709 0
M  V30 5234 H 495.185 0.476179 -2.95589 0
M  V30 5235 H 492.731 0.227602 -1.4219 0
M  V30 5236 H 494.684 2.91142 -3.04654 0
M  V30 5237 H 493.408 2.7119 -1.81999 0
M  V30 5238 H 492.067 1.30763 -3.42486 0
M  V30 5239 H 491.715 3.78134 -3.31698 0
M  V30 5240 H 491.415 3.15465 -4.95738 0
M  V30 5241 H 492.939 4.01574 -4.59968 0
M  V30 5242 H 494.353 1.89416 -5.41105 0
M  V30 5243 H 492.75 1.24934 -5.86951 0
M  V30 5244 H 493.82 0.279742 -4.84092 0
M  V30 5245 N 495.163 1.55791 0.238111 0
M  V30 5246 C 496.391 1.82098 0.982233 0
M  V30 5247 C 496.806 0.612025 1.78605 0
M  V30 5248 O 496.163 -0.419381 1.77616 0
M  V30 5249 C 496.214 3.0673 1.91309 0
M  V30 5250 O 495.935 4.2296 1.14179 0
M  V30 5251 C 497.436 3.45903 2.77248 0
M  V30 5252 H 494.656 0.605748 0.288635 0
M  V30 5253 H 497.2 2.02862 0.258341 0
M  V30 5254 H 495.355 2.87991 2.59114 0
M  V30 5255 H 495.769 4.93653 1.7722 0
M  V30 5256 H 497.243 4.36189 3.38295 0
M  V30 5257 H 497.72 2.66891 3.48806 0
M  V30 5258 H 498.326 3.67024 2.14881 0
M  V30 5259 N 496.642 -0.504142 1.49319 0
M  V30 5260 C 497.589 -1.60603 1.65756 0
M  V30 5261 C 498.559 -1.58425 0.499082 0
M  V30 5262 O 499.744 -1.76459 0.725728 0
M  V30 5263 C 496.884 -2.98764 1.72726 0
M  V30 5264 C 495.997 -3.10982 2.99857 0
M  V30 5265 C 495.132 -4.39857 2.97824 0
M  V30 5266 C 494.171 -4.45697 4.19548 0
M  V30 5267 N 493.308 -5.65995 4.15444 0
M  V30 5268 H 498.148 -1.45895 2.59843 0
M  V30 5269 H 495.685 -0.709891 1.28837 0
M  V30 5270 H 497.643 -3.78839 1.74747 0
M  V30 5271 H 496.273 -3.12183 0.821075 0
M  V30 5272 H 495.325 -2.23991 3.07461 0
M  V30 5273 H 496.637 -3.11157 3.89849 0
M  V30 5274 H 495.791 -5.2825 2.98391 0
M  V30 5275 H 494.53 -4.42242 2.05604 0
M  V30 5276 H 493.535 -3.55707 4.19229 0
M  V30 5277 H 494.76 -4.4503 5.12957 0
M  V30 5278 H 492.706 -5.69229 3.26059 0
M  V30 5279 H 492.623 -5.67773 4.99169 0
M  V30 5280 H 493.891 -6.56604 4.20109 0
M  V30 5281 N 498.12 -1.38341 -0.754957 0
M  V30 5282 C 499.03 -1.3769 -1.89944 0
M  V30 5283 C 500.046 -0.274194 -1.71826 0
M  V30 5284 O 501.222 -0.512391 -1.94773 0
M  V30 5285 C 498.287 -1.19938 -3.25293 0
M  V30 5286 C 497.348 -2.40001 -3.55946 0
M  V30 5287 C 496.581 -2.23087 -4.84838 0
M  V30 5288 O 496.804 -1.22386 -5.57116 0
M  V30 5289 O 495.738 -3.11646 -5.14937 0
M  V30 5290 H 499.564 -2.3412 -1.93446 0
M  V30 5291 H 497.149 -1.19246 -0.900044 0
M  V30 5292 H 499.031 -1.12093 -4.06218 0
M  V30 5293 H 497.706 -0.265919 -3.22606 0
M  V30 5294 H 496.613 -2.53421 -2.75188 0
M  V30 5295 H 497.946 -3.31973 -3.63394 0
M  V30 5296 N 499.598 0.982988 -1.23187 0
M  V30 5297 C 500.561 2.05649 -1.01198 0
M  V30 5298 C 501.561 1.6078 0.0252464 0
M  V30 5299 O 502.751 1.72878 -0.214243 0
M  V30 5300 C 499.883 3.36744 -0.530656 0
M  V30 5301 H 501.076 2.2659 -1.96461 0
M  V30 5302 H 498.629 1.15602 -1.05195 0
M  V30 5303 H 499.364 3.21492 0.425873 0
M  V30 5304 H 499.149 3.7065 -1.2791 0
M  V30 5305 H 500.639 4.15705 -0.397366 0
M  V30 5306 N 501.076 1.04316 1.18135 0
M  V30 5307 C 502.301 0.768047 1.92655 0
M  V30 5308 C 502.726 -0.66904 1.758 0
M  V30 5309 O 502.084 -1.46372 1.06981 0
M  V30 5310 C 502.132 1.14239 3.42026 0
M  V30 5311 O 501.236 0.269333 4.1152 0
M  V30 5312 H 500.577 0.282436 0.600937 0
M  V30 5313 H 503.107 1.39367 1.49793 0
M  V30 5314 H 503.117 1.10538 3.92741 0
M  V30 5315 H 501.792 2.18928 3.53615 0
M  V30 5316 H 500.369 0.366175 3.71098 0
M  V30 5317 N 502.554 -1.34406 0.822964 0
M  V30 5318 C 503.779 -2.0304 0.423034 0
M  V30 5319 C 504.204 -1.61568 -0.963196 0
M  V30 5320 O 503.562 -0.800339 -1.62678 0
M  V30 5321 C 503.61 -3.56636 0.53321 0
M  V30 5322 O 502.714 -4.09971 -0.446939 0
M  V30 5323 H 502.055 -0.64075 0.174171 0
M  V30 5324 H 504.585 -1.71653 1.11339 0
M  V30 5325 H 504.595 -4.05945 0.408991 0
M  V30 5326 H 503.27 -3.86168 1.54425 0
M  V30 5327 H 501.847 -3.71835 -0.281601 0
M  V30 5328 N 504.032 -0.577932 -1.46621 0
M  V30 5329 C 505.26 -0.0671642 -2.06791 0
M  V30 5330 C 505.675 1.23571 -1.42743 0
M  V30 5331 O 505.032 1.74602 -0.531062 0
M  V30 5332 C 505.083 0.110357 -3.61332 0
M  V30 5333 O 504.804 -1.14095 -4.22982 0
M  V30 5334 C 506.305 0.656025 -4.38419 0
M  V30 5335 H 503.525 -0.0552732 -0.66872 0
M  V30 5336 H 506.069 -0.797242 -1.8832 0
M  V30 5337 H 504.224 0.790637 -3.79246 0
M  V30 5338 H 504.638 -0.951742 -5.15793 0
M  V30 5339 H 506.112 0.729438 -5.47159 0
M  V30 5340 H 506.589 1.67195 -4.06131 0
M  V30 5341 H 507.195 0.0107692 -4.25299 0
M  V30 5342 N 505.51 1.54411 -0.315457 0
M  V30 5343 C 506.442 2.21527 0.588067 0
M  V30 5344 C 507.455 1.21263 1.08624 0
M  V30 5345 O 508.644 1.47777 1.00121 0
M  V30 5346 C 505.744 2.85963 1.81875 0
M  V30 5347 C 504.917 4.12291 1.46063 0
M  V30 5348 C 503.976 4.60396 2.54799 0
M  V30 5349 O 503.002 5.25265 2.19283 0
M  V30 5350 N 504.204 4.33935 3.85591 0
M  V30 5351 H 506.969 2.99697 0.013414 0
M  V30 5352 H 504.53 1.61308 -0.138295 0
M  V30 5353 H 506.522 3.15071 2.53993 0
M  V30 5354 H 505.092 2.11548 2.30144 0
M  V30 5355 H 504.312 3.90036 0.571445 0
M  V30 5356 H 505.6 4.9452 1.19695 0
M  V30 5357 H 504.998 3.81996 4.17248 0
M  V30 5358 H 503.555 4.67718 4.53964 0
M  V30 5359 N 506.988 0.0434614 1.5754 0
M  V30 5360 C 508.265 -0.671479 1.83713 0
M  V30 5361 C 508.645 -1.89495 0.930315 0
M  V30 5362 O 507.993 -2.28498 -0.0105639 0
M  V30 5363 C 508.203 -1.0361 3.33266 0
M  V30 5364 C 509.551 -1.42167 4.00092 0
M  V30 5365 O 510.575 -1.12866 3.37846 0
M  V30 5366 O 509.434 -1.96817 5.09829 0
M  V30 5367 H 506.528 -0.330726 0.75799 0
M  V30 5368 H 509.074 0.0722373 1.69546 0
M  V30 5369 H 507.846 -0.165938 3.90948 0
M  V30 5370 H 507.469 -1.83751 3.52592 0
M  V30 5371 N 508.466 -1.55915 -0.229846 0
M  V30 5372 C 509.694 -1.82617 -0.972562 0
M  V30 5373 C 510.109 -0.621488 -1.78278 0
M  V30 5374 O 509.466 0.409956 -1.77836 0
M  V30 5375 C 509.517 -3.0774 -1.89679 0
M  V30 5376 O 509.238 -4.23559 -1.11934 0
M  V30 5377 C 510.739 -3.47368 -2.75409 0
M  V30 5378 H 507.959 -0.60727 -0.285419 0
M  V30 5379 H 510.503 -2.02996 -0.247579 0
M  V30 5380 H 508.658 -2.89361 -2.57583 0
M  V30 5381 H 509.072 -4.94586 -1.74599 0
M  V30 5382 H 510.546 -4.37977 -3.35977 0
M  V30 5383 H 511.023 -2.68737 -3.47386 0
M  V30 5384 H 511.629 -3.68158 -2.12931 0
M  V30 5385 N 509.944 0.496216 -1.49584 0
M  V30 5386 C 511.192 1.24756 -1.58998 0
M  V30 5387 C 511.513 1.92968 -0.280775 0
M  V30 5388 O 510.783 1.82959 0.700198 0
M  V30 5389 H 509.363 0.463471 -0.585836 0
M  V30 5390 H 512.025 0.574678 -1.86235 0
M  V30 5391 H 511.121 2.00895 -2.38847 0
M  V30 5392 N 511.423 1.38739 0.74761 0
M  V30 5393 C 512.37 1.36449 1.86146 0
M  V30 5394 C 513.34 0.226098 1.64554 0
M  V30 5395 O 514.525 0.41926 1.86137 0
M  V30 5396 C 511.665 1.2013 3.23516 0
M  V30 5397 C 510.778 2.43407 3.56899 0
M  V30 5398 C 509.913 2.19773 4.83605 0
M  V30 5399 C 508.952 3.3879 5.09792 0
M  V30 5400 N 508.089 3.14553 6.27695 0
M  V30 5401 H 512.929 2.3167 1.87438 0
M  V30 5402 H 510.466 1.15094 0.916063 0
M  V30 5403 H 512.424 1.08683 4.02795 0
M  V30 5404 H 511.054 0.285453 3.21535 0
M  V30 5405 H 510.106 2.65504 2.72418 0
M  V30 5406 H 511.418 3.32094 3.72176 0
M  V30 5407 H 510.572 2.05496 5.70838 0
M  V30 5408 H 509.311 1.28461 4.70478 0
M  V30 5409 H 508.316 3.53579 4.21025 0
M  V30 5410 H 509.541 4.30986 5.24812 0
M  V30 5411 H 507.487 2.25893 6.1588 0
M  V30 5412 H 507.404 3.96791 6.435 0
M  V30 5413 H 508.672 3.03943 7.17801 0
M  V30 5414 N 512.901 -0.976442 1.23707 0
M  V30 5415 C 513.831 -2.08749 1.04624 0
M  V30 5416 C 514.812 -1.70057 -0.0380956 0
M  V30 5417 O 515.997 -1.93782 0.127308 0
M  V30 5418 C 513.127 -3.41335 0.640902 0
M  V30 5419 C 512.081 -3.93947 1.67302 0
M  V30 5420 C 511.407 -5.22774 1.12301 0
M  V30 5421 C 512.707 -4.22769 3.06697 0
M  V30 5422 H 514.401 -2.24972 1.97555 0
M  V30 5423 H 511.947 -1.08108 0.951247 0
M  V30 5424 H 513.9 -4.18489 0.494434 0
M  V30 5425 H 512.624 -3.24988 -0.324099 0
M  V30 5426 H 511.283 -3.18941 1.80755 0
M  V30 5427 H 510.931 -5.0278 0.148877 0
M  V30 5428 H 510.631 -5.58942 1.81267 0
M  V30 5429 H 512.155 -6.02546 0.988479 0
M  V30 5430 H 513.569 -4.90659 2.96524 0
M  V30 5431 H 511.966 -4.70147 3.72937 0
M  V30 5432 H 513.036 -3.29885 3.55392 0
M  V30 5433 N 514.379 -1.04941 -1.1758 0
M  V30 5434 C 515.79 -0.784501 -1.69418 0
M  V30 5435 C 516.141 0.693625 -1.8353 0
M  V30 5436 O 515.266 1.53925 -1.52106 0
M  V30 5437 C 515.861 -1.41746 -3.07723 0
M  V30 5438 C 514.42 -1.20066 -3.56737 0
M  V30 5439 C 513.567 -1.5026 -2.33061 0
M  V30 5440 H 516.518 -1.21469 -1.02133 0
M  V30 5441 H 516.539 -0.825381 -3.7144 0
M  V30 5442 H 516.051 -2.49325 -2.9742 0
M  V30 5443 H 514.152 -0.144006 -3.72322 0
M  V30 5444 H 514.265 -1.90384 -4.39648 0
M  V30 5445 H 512.629 -0.922598 -2.37403 0
M  V30 5446 H 513.412 -2.58967 -2.25368 0
M  V30 5447 N 515.857 1.33968 -0.830081 0
M  V30 5448 C 517.103 1.98357 -0.422191 0
M  V30 5449 C 517.436 1.65633 1.01387 0
M  V30 5450 O 516.711 0.931648 1.70735 0
M  V30 5451 C 516.994 3.54492 -0.633043 0
M  V30 5452 C 516.847 3.96934 -2.11574 0
M  V30 5453 C 518.166 4.40039 -0.0735584 0
M  V30 5454 H 515.285 0.720544 -0.154871 0
M  V30 5455 H 517.927 1.58749 -1.04397 0
M  V30 5456 H 516.077 3.88361 -0.103775 0
M  V30 5457 H 517.749 3.73363 -2.7092 0
M  V30 5458 H 515.992 3.46984 -2.60354 0
M  V30 5459 H 516.663 5.05651 -2.21406 0
M  V30 5460 H 519.139 4.12764 -0.52585 0
M  V30 5461 H 518.015 5.48327 -0.250841 0
M  V30 5462 H 518.276 4.30124 1.02202 0
M  V30 5463 N 517.335 0.585699 1.46312 0
M  V30 5464 C 518.282 -0.145835 2.30339 0
M  V30 5465 C 519.252 -0.881215 1.40797 0
M  V30 5466 O 520.437 -0.871293 1.69744 0
M  V30 5467 C 517.577 -1.15161 3.25318 0
M  V30 5468 C 516.69 -0.419367 4.2996 0
M  V30 5469 C 515.825 -1.41293 5.12064 0
M  V30 5470 C 514.864 -0.667261 6.08452 0
M  V30 5471 N 514.001 -1.60903 6.83414 0
M  V30 5472 H 518.841 0.576755 2.92365 0
M  V30 5473 H 516.378 0.296237 1.44086 0
M  V30 5474 H 518.336 -1.74763 3.78832 0
M  V30 5475 H 516.966 -1.84188 2.65094 0
M  V30 5476 H 516.018 0.291751 3.7928 0
M  V30 5477 H 517.33 0.163433 4.98532 0
M  V30 5478 H 516.484 -2.08167 5.6987 0
M  V30 5479 H 515.223 -2.02966 4.43459 0
M  V30 5480 H 514.228 0.0152356 5.49798 0
M  V30 5481 H 515.453 -0.0558817 6.79077 0
M  V30 5482 H 513.399 -2.21381 6.17516 0
M  V30 5483 H 513.316 -1.07911 7.48259 0
M  V30 5484 H 514.584 -2.26802 7.45775 0
M  V30 5485 N 518.813 -1.54241 0.323641 0
M  V30 5486 C 520.059 -2.01572 -0.272089 0
M  V30 5487 C 520.414 -1.20774 -1.49771 0
M  V30 5488 O 519.707 -0.281821 -1.89516 0
M  V30 5489 C 519.901 -3.5129 -0.658031 0
M  V30 5490 C 519.73 -4.46582 0.528645 0
M  V30 5491 C 518.5 -4.94737 1.02777 0
M  V30 5492 C 520.698 -4.95416 1.38086 0
M  V30 5493 N 518.68 -5.73933 2.17885 0
M  V30 5494 C 520.051 -5.72537 2.3791 0
M  V30 5495 C 522.106 -4.77559 1.40861 0
M  V30 5496 C 520.809 -6.33702 3.40314 0
M  V30 5497 C 522.835 -5.39559 2.42136 0
M  V30 5498 C 522.197 -6.16532 3.40688 0
M  V30 5499 H 518.296 -0.779425 -0.0634072 0
M  V30 5500 H 520.88 -1.8922 0.458697 0
M  V30 5501 H 519.051 -3.63888 -1.35795 0
M  V30 5502 H 520.783 -3.85388 -1.23524 0
M  V30 5503 H 517.538 -4.69796 0.599046 0
M  V30 5504 H 517.962 -6.18209 2.75947 0
M  V30 5505 H 522.604 -4.17611 0.660352 0
M  V30 5506 H 520.322 -6.9277 4.16047 0
M  V30 5507 H 523.908 -5.27659 2.45086 0
M  V30 5508 H 522.788 -6.63655 4.1777 0
M  V30 5509 N 520.291 -0.0518155 -1.57515 0
M  V30 5510 C 521.519 0.631395 -1.9703 0
M  V30 5511 C 521.934 1.64341 -0.92938 0
M  V30 5512 O 521.291 1.82296 0.0863266 0
M  V30 5513 C 521.342 1.31774 -3.36627 0
M  V30 5514 O 521.063 0.346247 -4.3673 0
M  V30 5515 C 522.564 2.09065 -3.90905 0
M  V30 5516 H 519.784 0.172576 -0.648428 0
M  V30 5517 H 522.328 -0.118306 -2.04158 0
M  V30 5518 H 520.483 2.01867 -3.30649 0
M  V30 5519 H 520.897 0.836226 -5.17791 0
M  V30 5520 H 522.371 2.52508 -4.9086 0
M  V30 5521 H 522.848 2.93908 -3.26366 0
M  V30 5522 H 523.454 1.43882 -4.00223 0
M  V30 5523 N 521.769 1.56035 0.221574 0
M  V30 5524 C 522.732 1.91584 1.2581 0
M  V30 5525 C 523.732 0.794425 1.39805 0
M  V30 5526 O 524.922 1.06217 1.38071 0
M  V30 5527 C 522.054 2.16663 2.63192 0
M  V30 5528 H 523.247 2.8429 0.954935 0
M  V30 5529 H 520.8 1.49316 0.461988 0
M  V30 5530 H 521.535 1.26508 2.98607 0
M  V30 5531 H 521.32 2.98358 2.5441 0
M  V30 5532 H 522.81 2.45262 3.37988 0
M  V30 5533 N 523.247 -0.488276 1.49845 0
M  V30 5534 C 524.658 -1.06955 1.53028 0
M  V30 5535 C 525.009 -1.9351 0.323797 0
M  V30 5536 O 524.134 -2.08891 -0.565116 0
M  V30 5537 C 524.729 -1.94643 2.77307 0
M  V30 5538 C 523.288 -2.4791 2.83227 0
M  V30 5539 C 522.435 -1.25833 2.47106 0
M  V30 5540 H 525.386 -0.271626 1.56358 0
M  V30 5541 H 525.407 -2.79496 2.5819 0
M  V30 5542 H 524.919 -1.31621 3.65099 0
M  V30 5543 H 523.02 -3.14535 1.99745 0
M  V30 5544 H 523.133 -2.84193 3.85709 0
M  V30 5545 H 521.497 -1.58764 1.99163 0
M  V30 5546 H 522.28 -0.644993 3.37186 0
M  V30 5547 N 524.725 -1.39134 -0.740242 0
M  V30 5548 C 525.635 -1.39697 -1.88473 0
M  V30 5549 C 526.651 -0.292403 -1.71526 0
M  V30 5550 O 527.827 -0.533021 -1.94219 0
M  V30 5551 C 524.892 -1.23382 -3.24003 0
M  V30 5552 C 523.953 -2.43763 -3.53381 0
M  V30 5553 C 523.186 -2.28216 -4.82445 0
M  V30 5554 O 523.409 -1.28288 -5.55786 0
M  V30 5555 O 522.343 -3.1709 -5.11603 0
M  V30 5556 H 526.169 -2.36159 -1.90952 0
M  V30 5557 H 523.754 -1.20194 -0.887346 0
M  V30 5558 H 525.636 -1.16395 -4.05006 0
M  V30 5559 H 524.311 -0.300121 -3.22306 0
M  V30 5560 H 523.218 -2.56325 -2.72485 0
M  V30 5561 H 524.551 -3.35808 -3.59852 0
M  V30 5562 N 526.204 0.969867 -1.24223 0
M  V30 5563 C 527.167 2.04564 -1.03373 0
M  V30 5564 C 528.167 1.60798 0.00819206 0
M  V30 5565 O 529.357 1.72641 -0.232567 0
M  V30 5566 C 526.489 3.36163 -0.566343 0
M  V30 5567 H 527.682 2.24494 -1.98853 0
M  V30 5568 H 525.235 1.1448 -1.06415 0
M  V30 5569 H 525.97 3.21925 0.391751 0
M  V30 5570 H 525.755 3.69273 -1.31834 0
M  V30 5571 H 527.245 4.1526 -0.441435 0
M  V30 5572 N 527.682 1.05563 1.17022 0
M  V30 5573 C 528.612 0.681026 2.23348 0
M  V30 5574 C 529.593 -0.322983 1.67005 0
M  V30 5575 O 530.778 -0.199746 1.9317 0
M  V30 5576 C 527.908 0.0589053 3.4725 0
M  V30 5577 C 526.862 0.988082 4.16438 0
M  V30 5578 C 526.188 0.229646 5.34207 0
M  V30 5579 C 527.488 2.31388 4.68249 0
M  V30 5580 H 529.182 1.56993 2.54938 0
M  V30 5581 H 526.728 0.756302 1.2254 0
M  V30 5582 H 528.681 -0.214982 4.20851 0
M  V30 5583 H 527.405 -0.864968 3.14938 0
M  V30 5584 H 526.064 1.24659 3.44754 0
M  V30 5585 H 525.712 -0.697111 4.98146 0
M  V30 5586 H 525.412 0.848815 5.81437 0
M  V30 5587 H 526.936 -0.0368694 6.10589 0
M  V30 5588 H 528.35 2.09964 5.33468 0
M  V30 5589 H 526.747 2.88736 5.26072 0
M  V30 5590 H 527.817 2.94982 3.84855 0
M  V30 5591 N 529.16 -1.33526 0.837174 0
M  V30 5592 C 530.576 -1.50727 0.524743 0
M  V30 5593 C 530.776 -1.77792 -0.948279 0
M  V30 5594 O 529.832 -1.83719 -1.73216 0
M  V30 5595 C 531.145 -2.66299 1.39661 0
M  V30 5596 C 532.693 -2.80183 1.39521 0
M  V30 5597 C 533.168 -3.98815 2.25189 0
M  V30 5598 N 534.659 -4.06047 2.2289 0
M  V30 5599 C 535.394 -4.97032 2.85915 0
M  V30 5600 N 534.89 -5.93143 3.57985 0
M  V30 5601 N 536.683 -4.90015 2.75394 0
M  V30 5602 H 528.834 -1.1422 1.79074 0
M  V30 5603 H 531.097 -0.561399 0.763894 0
M  V30 5604 H 530.803 -2.52974 2.4433 0
M  V30 5605 H 530.677 -3.61663 1.07145 0
M  V30 5606 H 533.064 -2.92942 0.356253 0
M  V30 5607 H 533.145 -1.85586 1.76044 0
M  V30 5608 H 532.789 -3.86817 3.29143 0
M  V30 5609 H 532.719 -4.92654 1.86009 0
M  V30 5610 H 535.21 -3.37262 1.70478 0
M  V30 5611 H 535.523 -6.59227 4.03286 0
M  V30 5612 H 533.868 -5.93223 3.62093 0
M  V30 5613 H 537.059 -4.13894 2.18654 0
M  V30 5614 H 537.232 -5.60724 3.24796 0
M  V30 5615 N 530.638 -0.59345 -1.46 0
M  V30 5616 C 531.548 0.135817 -2.34207 0
M  V30 5617 C 532.564 0.875008 -1.50398 0
M  V30 5618 O 533.74 0.835778 -1.83239 0
M  V30 5619 C 530.805 1.12977 -3.27776 0
M  V30 5620 C 529.866 0.394081 -4.27487 0
M  V30 5621 C 529.099 1.34068 -5.16586 0
M  V30 5622 O 529.322 2.5778 -5.08828 0
M  V30 5623 O 528.256 0.845426 -5.95933 0
M  V30 5624 H 532.082 -0.588691 -2.9794 0
M  V30 5625 H 529.667 -0.353784 -1.45151 0
M  V30 5626 H 531.549 1.70261 -3.85473 0
M  V30 5627 H 530.224 1.83556 -2.66625 0
M  V30 5628 H 529.131 -0.220869 -3.73447 0
M  V30 5629 H 530.464 -0.270939 -4.91454 0
M  V30 5630 N 532.116 1.54067 -0.331816 0
M  V30 5631 C 533.063 2.24623 0.530372 0
M  V30 5632 C 534.033 1.24009 1.10503 0
M  V30 5633 O 535.218 1.52712 1.14384 0
M  V30 5634 C 532.358 3.01374 1.68129 0
M  V30 5635 C 531.471 4.16821 1.13507 0
M  V30 5636 C 530.606 4.81085 2.25234 0
M  V30 5637 C 529.645 5.88621 1.67903 0
M  V30 5638 N 528.782 6.46713 2.73326 0
M  V30 5639 H 533.622 2.97898 -0.0778607 0
M  V30 5640 H 531.159 1.47014 -0.0501965 0
M  V30 5641 H 533.117 3.44125 2.35868 0
M  V30 5642 H 531.747 2.30419 2.26069 0
M  V30 5643 H 530.799 3.78796 0.348979 0
M  V30 5644 H 532.111 4.94203 0.675633 0
M  V30 5645 H 531.265 5.26846 3.00862 0
M  V30 5646 H 530.004 4.03102 2.74518 0
M  V30 5647 H 529.009 5.42254 0.907773 0
M  V30 5648 H 530.234 6.68506 1.19487 0
M  V30 5649 H 528.18 5.71599 3.21886 0
M  V30 5650 H 528.097 7.19532 2.3197 0
M  V30 5651 H 529.365 6.97129 3.48758 0
M  V30 5652 N 533.594 0.0601682 1.57485 0
M  V30 5653 C 534.541 -0.91112 2.12055 0
M  V30 5654 C 535.511 -1.30298 1.03013 0
M  V30 5655 O 536.696 -1.39087 1.30612 0
M  V30 5656 C 533.836 -2.1775 2.67729 0
M  V30 5657 C 532.949 -1.83933 3.90887 0
M  V30 5658 C 532.084 -3.05096 4.34845 0
M  V30 5659 C 531.123 -2.67241 5.5068 0
M  V30 5660 N 530.26 -3.81127 5.8965 0
M  V30 5661 H 535.1 -0.43888 2.9475 0
M  V30 5662 H 532.637 -0.204995 1.45665 0
M  V30 5663 H 534.595 -2.91866 2.98111 0
M  V30 5664 H 533.225 -2.62535 1.87816 0
M  V30 5665 H 532.277 -0.999287 3.6704 0
M  V30 5666 H 533.589 -1.52074 4.75052 0
M  V30 5667 H 532.743 -3.87502 4.66827 0
M  V30 5668 H 531.482 -3.40139 3.49509 0
M  V30 5669 H 530.487 -1.83254 5.18361 0
M  V30 5670 H 531.712 -2.3338 6.37738 0
M  V30 5671 H 529.658 -4.15954 5.07266 0
M  V30 5672 H 529.575 -3.52997 6.68528 0
M  V30 5673 H 530.843 -4.64145 6.2625 0
M  V30 5674 N 535.072 -1.5615 -0.213296 0
M  V30 5675 C 536.319 -1.79546 -0.936462 0
M  V30 5676 C 536.647 -0.630337 -1.84003 0
M  V30 5677 O 535.902 0.384883 -1.91878 0
M  V30 5678 C 536.201 -3.08772 -1.79985 0
M  V30 5679 C 535.867 -4.38532 -1.04882 0
M  V30 5680 C 534.529 -4.73787 -0.841393 0
M  V30 5681 C 536.881 -5.18609 -0.51907 0
M  V30 5682 C 534.209 -5.86627 -0.0924403 0
M  V30 5683 C 536.561 -6.32229 0.216581 0
M  V30 5684 C 535.225 -6.6608 0.435191 0
M  V30 5685 H 534.495 -0.657004 -0.342676 0
M  V30 5686 H 537.142 -1.9041 -0.204051 0
M  V30 5687 H 535.447 -2.93065 -2.60038 0
M  V30 5688 H 537.144 -3.24077 -2.36168 0
M  V30 5689 H 533.734 -4.10855 -1.22048 0
M  V30 5690 H 537.918 -4.91801 -0.666775 0
M  V30 5691 H 533.174 -6.11338 0.087081 0
M  V30 5692 H 537.348 -6.93503 0.634538 0
M  V30 5693 H 534.975 -7.5336 1.01746 0
M  V30 5694 N 536.55 0.480323 -1.50102 0
M  V30 5695 C 537.775 1.26126 -1.64642 0
M  V30 5696 C 538.2 1.85257 -0.325823 0
M  V30 5697 O 537.558 1.66854 0.709194 0
M  V30 5698 C 537.606 2.35243 -2.73301 0
M  V30 5699 O 536.71 3.39646 -2.33911 0
M  V30 5700 H 536.051 0.371463 -0.550374 0
M  V30 5701 H 538.581 0.572696 -1.96421 0
M  V30 5702 H 538.591 2.80695 -2.96098 0
M  V30 5703 H 537.266 1.91574 -3.6915 0
M  V30 5704 H 535.843 2.99969 -2.21525 0
M  V30 5705 N 538.028 1.39524 0.732853 0
M  V30 5706 C 539.256 1.40143 1.52209 0
M  V30 5707 C 539.671 -0.00348836 1.888 0
M  V30 5708 O 539.028 -0.975357 1.5425 0
M  V30 5709 C 539.079 2.27632 2.8083 0
M  V30 5710 O 538.8 3.62654 2.45792 0
M  V30 5711 C 540.301 2.36658 3.74844 0
M  V30 5712 H 537.521 0.478604 0.470297 0
M  V30 5713 H 540.065 1.83366 0.905388 0
M  V30 5714 H 538.22 1.87818 3.38826 0
M  V30 5715 H 538.634 4.08941 3.28431 0
M  V30 5716 H 540.108 3.02118 4.61984 0
M  V30 5717 H 540.585 1.38638 4.16745 0
M  V30 5718 H 541.191 2.76951 3.22766 0
M  V30 5719 N 539.506 -0.963266 1.24736 0
M  V30 5720 C 540.453 -2.05857 1.04363 0
M  V30 5721 C 541.423 -1.6604 -0.0444951 0
M  V30 5722 O 542.608 -1.90477 0.110999 0
M  V30 5723 C 539.748 -3.38745 0.659235 0
M  V30 5724 C 538.861 -3.9173 1.82131 0
M  V30 5725 C 537.996 -5.12906 1.38208 0
M  V30 5726 C 537.035 -5.58098 2.51382 0
M  V30 5727 N 536.172 -6.7049 2.08295 0
M  V30 5728 H 541.012 -2.22616 1.98107 0
M  V30 5729 H 538.549 -1.09103 0.986661 0
M  V30 5730 H 540.507 -4.15107 0.417371 0
M  V30 5731 H 539.137 -3.21898 -0.241201 0
M  V30 5732 H 538.189 -3.11966 2.17672 0
M  V30 5733 H 539.501 -4.21225 2.67153 0
M  V30 5734 H 538.655 -5.96657 1.09935 0
M  V30 5735 H 537.394 -4.85105 0.502456 0
M  V30 5736 H 536.399 -4.72917 2.80409 0
M  V30 5737 H 537.624 -5.87911 3.39909 0
M  V30 5738 H 535.57 -6.44416 1.22737 0
M  V30 5739 H 535.487 -6.99458 2.86869 0
M  V30 5740 H 536.755 -7.57672 1.83175 0
M  V30 5741 N 540.985 -1.06182 -1.16461 0
M  V30 5742 C 542.21 -0.798599 -1.91408 0
M  V30 5743 C 542.635 0.640987 -1.76842 0
M  V30 5744 O 541.993 1.44652 -1.09296 0
M  V30 5745 C 542.041 -1.19665 -3.40165 0
M  V30 5746 O 541.145 -0.334768 -4.11039 0
M  V30 5747 H 540.486 -0.291961 -0.596368 0
M  V30 5748 H 543.016 -1.41732 -1.47557 0
M  V30 5749 H 543.026 -1.16772 -3.90933 0
M  V30 5750 H 541.701 -2.24526 -3.50087 0
M  V30 5751 H 540.278 -0.425168 -3.70468 0
M  V30 5752 N 542.463 1.3308 -0.844243 0
M  V30 5753 C 543.74 1.92178 -0.364261 0
M  V30 5754 C 544.12 1.76961 1.15101 0
M  V30 5755 O 543.468 1.16128 1.9679 0
M  V30 5756 C 543.678 3.393 -0.817106 0
M  V30 5757 C 545.026 4.16444 -0.828236 0
M  V30 5758 O 546.05 3.47975 -0.761062 0
M  V30 5759 O 544.909 5.38685 -0.920926 0
M  V30 5760 H 542.003 0.820411 -0.10419 0
M  V30 5761 H 544.549 1.41918 -0.930453 0
M  V30 5762 H 543.321 3.44272 -1.85991 0
M  V30 5763 H 542.944 3.96947 -0.227785 0
M  V30 5764 N 543.941 0.601185 1.45683 0
M  V30 5765 C 545.187 0.0940202 2.02582 0
M  V30 5766 C 545.52 -1.26972 1.46941 0
M  V30 5767 O 544.795 -1.83613 0.641612 0
M  V30 5768 C 545.078 0.0481715 3.60068 0
M  V30 5769 C 544.931 1.44212 4.26055 0
M  V30 5770 C 546.25 -0.642975 4.35378 0
M  V30 5771 H 543.369 0.0356404 0.736138 0
M  V30 5772 H 546.011 0.771929 1.73612 0
M  V30 5773 H 544.161 -0.529128 3.8488 0
M  V30 5774 H 545.833 2.06601 4.12449 0
M  V30 5775 H 544.076 2.00465 3.84703 0
M  V30 5776 H 544.747 1.36234 5.34925 0
M  V30 5777 H 547.223 -0.152351 4.15821 0
M  V30 5778 H 546.099 -0.644141 5.45107 0
M  V30 5779 H 546.36 -1.70785 4.0778 0
M  V30 5780 N 545.419 -1.53889 0.339982 0
M  V30 5781 C 546.665 -2.01849 -0.250694 0
M  V30 5782 C 547.02 -1.22356 -1.48482 0
M  V30 5783 O 546.313 -0.301906 -1.89206 0
M  V30 5784 C 546.507 -3.51968 -0.620735 0
M  V30 5785 C 546.336 -4.45996 0.575981 0
M  V30 5786 C 545.106 -4.93619 1.08019 0
M  V30 5787 C 547.304 -4.93923 1.43332 0
M  V30 5788 N 545.286 -5.7159 2.2396 0
M  V30 5789 C 546.657 -5.69982 2.43969 0
M  V30 5790 C 548.712 -4.76038 1.45918 0
M  V30 5791 C 547.415 -6.30057 3.47016 0
M  V30 5792 C 549.441 -5.36961 2.47845 0
M  V30 5793 C 548.803 -6.12884 3.47208 0
M  V30 5794 H 544.902 -0.780054 -0.0551368 0
M  V30 5795 H 547.486 -1.88722 0.478741 0
M  V30 5796 H 545.657 -3.65308 -1.31928 0
M  V30 5797 H 547.389 -3.86677 -1.19429 0
M  V30 5798 H 544.144 -4.69134 0.64884 0
M  V30 5799 H 544.568 -6.15247 2.82489 0
M  V30 5800 H 549.21 -4.16887 0.704608 0
M  V30 5801 H 546.928 -6.88319 4.23371 0
M  V30 5802 H 550.514 -5.2503 2.50668 0
M  V30 5803 H 549.394 -6.59187 4.24785 0
M  V30 5804 N 546.897 -0.0685191 -1.57451 0
M  V30 5805 C 548.122 0.613919 -1.98106 0
M  V30 5806 C 548.547 1.62551 -0.946501 0
M  V30 5807 O 547.905 1.81085 0.0882824 0
M  V30 5808 C 547.953 1.26189 -3.378 0
M  V30 5809 O 547.057 2.37773 -3.36954 0
M  V30 5810 H 546.398 0.158163 -0.644888 0
M  V30 5811 H 548.928 -0.142063 -2.04106 0
M  V30 5812 H 548.938 1.60951 -3.74912 0
M  V30 5813 H 547.613 0.520625 -4.12629 0
M  V30 5814 H 546.19 2.04829 -3.11608 0
M  V30 5815 N 548.375 1.56261 0.205012 0
M  V30 5816 C 549.622 1.8004 0.926927 0
M  V30 5817 C 549.95 0.640086 1.83666 0
M  V30 5818 O 549.205 -0.374702 1.92079 0
M  V30 5819 C 549.504 3.09722 1.78345 0
M  V30 5820 C 549.17 4.39082 1.02555 0
M  V30 5821 C 547.832 4.74226 0.816256 0
M  V30 5822 C 550.184 5.18877 0.491559 0
M  V30 5823 C 547.512 5.86668 0.0613287 0
M  V30 5824 C 549.864 6.32105 -0.250107 0
M  V30 5825 C 548.528 6.6584 -0.470508 0
M  V30 5826 H 547.798 0.658812 0.339187 0
M  V30 5827 H 550.445 1.90515 0.19395 0
M  V30 5828 H 548.75 2.9444 2.5848 0
M  V30 5829 H 550.447 3.25324 2.34446 0
M  V30 5830 H 547.037 4.11497 1.19868 0
M  V30 5831 H 551.221 4.92147 0.640684 0
M  V30 5832 H 546.477 6.11283 -0.119501 0
M  V30 5833 H 550.651 6.93157 -0.671307 0
M  V30 5834 H 548.278 7.5281 -1.05739 0
M  V30 5835 N 549.853 -0.472356 1.50355 0
M  V30 5836 C 551.101 -1.22211 1.60962 0
M  V30 5837 C 551.422 -1.92497 0.311439 0
M  V30 5838 O 550.692 -1.8405 -0.671002 0
M  V30 5839 H 549.272 -0.454092 0.593135 0
M  V30 5840 H 551.934 -0.544977 1.87126 0
M  V30 5841 H 551.03 -1.9707 2.42012 0
M  V30 5842 N 551.331 -1.39911 -0.725443 0
M  V30 5843 C 552.58 -1.36963 -1.48068 0
M  V30 5844 C 552.893 0.0284478 -1.95579 0
M  V30 5845 O 554.099 0.180535 -2.70899 0
M  V30 5846 C 552.555 -2.40664 -2.67598 0
M  V30 5847 C 552.163 -3.86234 -2.26997 0
M  V30 5848 C 553.907 -2.46807 -3.45379 0
M  V30 5849 C 551.814 -4.81554 -3.43307 0
M  V30 5850 H 550.744 -0.509223 -0.556065 0
M  V30 5851 H 553.395 -1.65602 -0.790454 0
M  V30 5852 H 551.777 -2.05109 -3.38742 0
M  V30 5853 H 552.951 -4.3088 -1.63337 0
M  V30 5854 H 551.266 -3.83475 -1.62284 0
M  V30 5855 H 553.863 -3.15213 -4.31909 0
M  V30 5856 H 554.206 -1.49552 -3.8851 0
M  V30 5857 H 554.739 -2.81303 -2.81271 0
M  V30 5858 H 551.478 -5.80106 -3.05217 0
M  V30 5859 H 550.998 -4.4158 -4.05915 0
M  V30 5860 H 552.677 -5.0091 -4.0951 0
M  V30 5861 N 552.809 0.956637 -1.25245 0
M  V30 5862 C 553.739 2.07058 -1.07931 0
M  V30 5863 C 554.72 1.70096 0.0110361 0
M  V30 5864 O 555.905 1.93555 -0.158121 0
M  V30 5865 C 553.035 3.40272 -0.695124 0
M  V30 5866 C 551.989 3.91235 -1.73549 0
M  V30 5867 C 551.315 5.20921 -1.20604 0
M  V30 5868 C 552.615 4.17837 -3.13385 0
M  V30 5869 H 554.309 2.218 -2.01109 0
M  V30 5870 H 551.855 1.06581 -0.968326 0
M  V30 5871 H 553.808 4.1765 -0.560949 0
M  V30 5872 H 552.532 3.25462 0.272355 0
M  V30 5873 H 551.191 3.16025 -1.85807 0
M  V30 5874 H 550.839 5.02479 -0.228846 0
M  V30 5875 H 550.539 5.55987 -1.90136 0
M  V30 5876 H 552.063 6.00897 -1.08421 0
M  V30 5877 H 553.477 4.8588 -3.04292 0
M  V30 5878 H 551.874 4.64154 -3.80369 0
M  V30 5879 H 552.944 3.2419 -3.60595 0
M  V30 5880 N 554.287 1.06798 1.15896 0
M  V30 5881 C 555.217 0.704677 2.22613 0
M  V30 5882 C 556.198 -0.305252 1.67339 0
M  V30 5883 O 557.383 -0.179247 1.93371 0
M  V30 5884 C 554.513 0.0957325 3.47168 0
M  V30 5885 C 553.467 1.0322 4.15367 0
M  V30 5886 C 552.793 0.286293 5.33933 0
M  V30 5887 C 554.093 2.36341 4.65768 0
M  V30 5888 H 555.787 1.59688 2.53259 0
M  V30 5889 H 553.333 0.769257 1.21731 0
M  V30 5890 H 555.286 -0.170333 4.21056 0
M  V30 5891 H 554.01 -0.831516 3.15838 0
M  V30 5892 H 552.669 1.28309 3.43413 0
M  V30 5893 H 552.317 -0.644237 4.98857 0
M  V30 5894 H 552.017 0.910436 5.80504 0
M  V30 5895 H 553.541 0.0278938 6.10594 0
M  V30 5896 H 554.955 2.1561 5.31211 0
M  V30 5897 H 553.352 2.94299 5.2298 0
M  V30 5898 H 554.422 2.99047 3.81705 0
M  V30 5899 N 555.766 -1.3263 0.851289 0
M  V30 5900 C 557.012 -1.98061 0.462963 0
M  V30 5901 C 557.367 -1.66162 -0.969948 0
M  V30 5902 O 556.66 -0.937723 -1.67085 0
M  V30 5903 C 556.854 -3.51713 0.635015 0
M  V30 5904 C 556.683 -3.98544 2.0831 0
M  V30 5905 C 555.453 -4.25787 2.72091 0
M  V30 5906 C 557.651 -4.13858 3.0533 0
M  V30 5907 N 555.633 -4.58842 4.07845 0
M  V30 5908 C 557.004 -4.50412 4.26063 0
M  V30 5909 C 559.059 -3.96182 3.0157 0
M  V30 5910 C 557.762 -4.71136 5.43529 0
M  V30 5911 C 559.788 -4.18088 4.18278 0
M  V30 5912 C 559.15 -4.54956 5.37768 0
M  V30 5913 H 555.249 -0.750976 0.218082 0
M  V30 5914 H 557.833 -1.60514 1.10197 0
M  V30 5915 H 556.004 -3.88391 0.0257298 0
M  V30 5916 H 557.736 -4.04118 0.216915 0
M  V30 5917 H 554.491 -4.17734 2.23149 0
M  V30 5918 H 554.915 -4.7956 4.77862 0
M  V30 5919 H 559.557 -3.66783 2.1031 0
M  V30 5920 H 557.275 -4.9939 6.35323 0
M  V30 5921 H 560.861 -4.05918 4.168 0
M  V30 5922 H 559.741 -4.71567 6.26573 0
M  V30 5923 N 557.244 -0.608902 -1.45362 0
M  V30 5924 C 558.154 0.110969 -2.34337 0
M  V30 5925 C 559.17 0.859007 -1.51318 0
M  V30 5926 O 560.346 0.816296 -1.84116 0
M  V30 5927 C 557.411 1.09494 -3.28956 0
M  V30 5928 C 556.472 0.348718 -4.27881 0
M  V30 5929 C 555.705 1.28582 -5.17979 0
M  V30 5930 O 555.928 2.52369 -5.11533 0
M  V30 5931 O 554.862 0.782172 -5.96796 0
M  V30 5932 H 558.688 -0.620258 -2.97299 0
M  V30 5933 H 556.273 -0.36916 -1.44767 0
M  V30 5934 H 558.155 1.66163 -3.87257 0
M  V30 5935 H 556.83 1.80717 -2.68557 0
M  V30 5936 H 555.737 -0.260465 -3.73192 0
M  V30 5937 H 557.07 -0.323049 -4.91139 0
M  V30 5938 N 558.722 1.53707 -0.348139 0
M  V30 5939 C 559.971 2.0017 0.247992 0
M  V30 5940 C 560.284 1.23983 1.51286 0
M  V30 5941 O 561.49 1.60946 2.18652 0
M  V30 5942 C 559.946 3.56515 0.492459 0
M  V30 5943 C 559.554 4.41562 -0.756777 0
M  V30 5944 C 561.298 4.11381 1.0472 0
M  V30 5945 C 559.205 5.89426 -0.482856 0
M  V30 5946 H 558.135 0.747806 0.0964452 0
M  V30 5947 H 560.786 1.77532 -0.464179 0
M  V30 5948 H 559.168 3.75236 1.26545 0
M  V30 5949 H 560.342 4.34615 -1.53122 0
M  V30 5950 H 558.657 3.97711 -1.23348 0
M  V30 5951 H 561.254 5.19468 1.26717 0
M  V30 5952 H 561.597 3.64885 2.00411 0
M  V30 5953 H 562.13 3.96389 0.334801 0
M  V30 5954 H 558.869 6.40164 -1.40962 0
M  V30 5955 H 558.389 5.99264 0.253416 0
M  V30 5956 H 560.068 6.4692 -0.101816 0
M  V30 5957 N 560.2 0.0768682 1.57412 0
M  V30 5958 C 561.43 -0.5991 1.97723 0
M  V30 5959 C 561.838 -1.63378 0.954166 0
M  V30 5960 O 561.181 -1.83578 -0.0668706 0
M  V30 5961 C 561.243 -1.32078 3.34358 0
M  V30 5962 C 560.907 -0.438985 4.54887 0
M  V30 5963 C 561.904 0.305492 5.19002 0
M  V30 5964 C 559.589 -0.362378 5.00991 0
M  V30 5965 C 561.583 1.11475 6.27576 0
M  V30 5966 C 559.27 0.450543 6.09437 0
M  V30 5967 C 560.268 1.18777 6.72593 0
M  V30 5968 O 559.956 1.98727 7.7895 0
M  V30 5969 H 559.688 -0.166725 0.655117 0
M  V30 5970 H 562.242 0.147337 2.04871 0
M  V30 5971 H 560.472 -2.1134 3.2384 0
M  V30 5972 H 562.161 -1.88949 3.5924 0
M  V30 5973 H 562.927 0.25593 4.84324 0
M  V30 5974 H 558.806 -0.925832 4.51608 0
M  V30 5975 H 562.35 1.69068 6.76803 0
M  V30 5976 H 558.247 0.501651 6.43548 0
M  V30 5977 H 559.015 1.91214 7.95851 0
M  V30 5978 N 561.678 -1.56367 -0.196722 0
M  V30 5979 C 562.903 -1.84991 -0.937714 0
M  V30 5980 C 563.328 -0.660244 -1.76132 0
M  V30 5981 O 562.686 0.390967 -1.77034 0
M  V30 5982 C 562.734 -3.11828 -1.81096 0
M  V30 5983 O 561.838 -2.92266 -2.90955 0
M  V30 5984 H 561.179 -0.609193 -0.264159 0
M  V30 5985 H 563.709 -2.03595 -0.202529 0
M  V30 5986 H 563.719 -3.42579 -2.21594 0
M  V30 5987 H 562.394 -3.98037 -1.2058 0
M  V30 5988 H 560.971 -2.72809 -2.54224 0
M  V30 5989 N 563.156 0.464375 -1.50603 0
M  V30 5990 C 564.403 1.21596 -1.61928 0
M  V30 5991 C 564.731 1.91804 -0.322737 0
M  V30 5992 O 563.986 1.83065 0.691776 0
M  V30 5993 C 564.285 2.278 -2.75394 0
M  V30 5994 C 563.951 1.74797 -4.1564 0
M  V30 5995 C 562.613 1.60063 -4.53799 0
M  V30 5996 C 564.965 1.35548 -5.03266 0
M  V30 5997 C 562.293 1.04514 -5.77316 0
M  V30 5998 C 564.645 0.814381 -6.27336 0
M  V30 5999 C 563.309 0.653726 -6.64291 0
M  V30 6000 H 562.579 0.444951 -0.592536 0
M  V30 6001 H 565.226 0.510964 -1.84557 0
M  V30 6002 H 563.531 3.04233 -2.46879 0
M  V30 6003 H 565.228 2.85723 -2.81359 0
M  V30 6004 H 561.818 1.87234 -3.8554 0
M  V30 6005 H 566.002 1.45763 -4.74412 0
M  V30 6006 H 561.258 0.908186 -6.04617 0
M  V30 6007 H 565.432 0.501626 -6.94591 0
M  V30 6008 H 563.059 0.22114 -7.59878 0
M  V30 6009 N 564.634 1.40294 0.718013 0
M  V30 6010 C 565.882 1.38167 1.47494 0
M  V30 6011 C 566.203 -0.01607 1.94993 0
M  V30 6012 O 565.473 -0.970396 1.70177 0
M  V30 6013 H 564.053 0.508505 0.547203 0
M  V30 6014 H 566.715 1.75324 0.851322 0
M  V30 6015 H 565.811 2.05503 2.34894 0
M  V30 6016 N 566.112 -0.949982 1.2575 0
M  V30 6017 C 567.528 -1.22191 1.02672 0
M  V30 6018 C 567.728 -1.99898 -0.253588 0
M  V30 6019 O 566.784 -2.33329 -0.965076 0
M  V30 6020 C 568.097 -1.99175 2.25277 0
M  V30 6021 C 569.645 -2.12201 2.30087 0
M  V30 6022 C 570.12 -2.92586 3.5236 0
M  V30 6023 N 571.611 -3.00163 3.52784 0
M  V30 6024 C 572.346 -3.62766 4.44059 0
M  V30 6025 N 571.842 -4.26943 5.45611 0
M  V30 6026 N 573.635 -3.59953 4.3173 0
M  V30 6027 H 565.786 -0.430258 2.07996 0
M  V30 6028 H 568.049 -0.252844 0.91366 0
M  V30 6029 H 567.755 -1.49479 3.18354 0
M  V30 6030 H 567.629 -2.99868 2.28821 0
M  V30 6031 H 570.016 -2.61093 1.3753 0
M  V30 6032 H 570.097 -1.10799 2.30559 0
M  V30 6033 H 569.741 -2.44383 4.45241 0
M  V30 6034 H 569.671 -3.94224 3.49134 0
M  V30 6035 H 572.162 -2.54529 2.79327 0
M  V30 6036 H 572.475 -4.72583 6.11461 0
M  V30 6037 H 570.82 -4.25557 5.49478 0
M  V30 6038 H 574.011 -3.09003 3.51617 0
M  V30 6039 H 574.184 -4.08455 5.03059 0
M  V30 6040 N 567.59 -1.07411 -1.15328 0
M  V30 6041 C 568.836 -0.798831 -1.86404 0
M  V30 6042 C 569.169 0.673433 -1.8215 0
M  V30 6043 O 568.444 1.49428 -1.24505 0
M  V30 6044 C 568.727 -1.30846 -3.35487 0
M  V30 6045 C 568.58 -2.84532 -3.4837 0
M  V30 6046 C 569.899 -0.925486 -4.30259 0
M  V30 6047 H 567.018 -0.291659 -0.676834 0
M  V30 6048 H 569.66 -1.332 -1.35491 0
M  V30 6049 H 567.81 -0.854916 -3.78977 0
M  V30 6050 H 569.482 -3.3818 -3.13739 0
M  V30 6051 H 567.725 -3.22699 -2.8991 0
M  V30 6052 H 568.396 -3.15259 -4.53118 0
M  V30 6053 H 570.872 -1.3163 -3.94731 0
M  V30 6054 H 569.748 -1.3094 -5.33053 0
M  V30 6055 H 570.009 0.168525 -4.41779 0
M  V30 6056 N 569.068 1.32177 -0.85831 0
M  V30 6057 C 570.479 1.79381 -0.517621 0
M  V30 6058 C 570.83 1.70841 0.964769 0
M  V30 6059 O 569.955 1.26917 1.75274 0
M  V30 6060 C 570.55 3.25706 -0.932801 0
M  V30 6061 C 569.109 3.70851 -0.643953 0
M  V30 6062 C 568.256 2.53208 -1.13054 0
M  V30 6063 H 571.207 1.19424 -1.04516 0
M  V30 6064 H 571.228 3.79673 -0.250674 0
M  V30 6065 H 570.74 3.31889 -2.01174 0
M  V30 6066 H 568.841 3.70178 0.424112 0
M  V30 6067 H 568.954 4.63495 -1.21281 0
M  V30 6068 H 567.318 2.48676 -0.550679 0
M  V30 6069 H 568.101 2.62143 -2.21666 0
M  V30 6070 N 570.547 0.616602 1.45037 0
M  V30 6071 C 571.777 0.121791 2.06241 0
M  V30 6072 C 572.185 -1.20289 1.46038 0
M  V30 6073 O 571.528 -1.7456 0.572242 0
M  V30 6074 C 571.59 -0.0827345 3.59405 0
M  V30 6075 C 571.254 1.16153 4.41993 0
M  V30 6076 C 572.251 2.08183 4.76399 0
M  V30 6077 C 569.936 1.39288 4.82601 0
M  V30 6078 C 571.93 3.21668 5.5028 0
M  V30 6079 C 569.617 2.53073 5.56235 0
M  V30 6080 C 570.615 3.44091 5.89992 0
M  V30 6081 O 570.303 4.55894 6.6213 0
M  V30 6082 H 570.035 0.0701667 0.672349 0
M  V30 6083 H 572.589 0.846877 1.87129 0
M  V30 6084 H 570.819 -0.862812 3.76952 0
M  V30 6085 H 572.508 -0.530273 4.02421 0
M  V30 6086 H 573.274 1.91538 4.45576 0
M  V30 6087 H 569.153 0.693396 4.55755 0
M  V30 6088 H 572.697 3.92733 5.76547 0
M  V30 6089 H 568.594 2.69667 5.86472 0
M  V30 6090 H 569.362 4.5469 6.80587 0
M  V30 6091 N 572.025 -1.5352 0.356285 0
M  V30 6092 C 573.436 -1.86282 -0.12492 0
M  V30 6093 C 573.787 -1.27717 -1.48939 0
M  V30 6094 O 572.912 -0.595614 -2.08042 0
M  V30 6095 C 573.507 -3.37995 -0.23345 0
M  V30 6096 C 572.066 -3.70588 -0.658899 0
M  V30 6097 C 571.213 -2.76581 0.199596 0
M  V30 6098 H 574.164 -1.47901 0.575423 0
M  V30 6099 H 574.185 -3.65475 -1.0587 0
M  V30 6100 H 573.697 -3.8059 0.759776 0
M  V30 6101 H 571.798 -3.33544 -1.66069 0
M  V30 6102 H 571.911 -4.77076 -0.439957 0
M  V30 6103 H 570.275 -2.52552 -0.330076 0
M  V30 6104 H 571.058 -3.22008 1.19019 0
M  V30 6105 N 573.503 -0.0852151 -1.57369 0
M  V30 6106 C 574.919 0.271436 -1.57275 0
M  V30 6107 C 575.119 1.69109 -1.09565 0
M  V30 6108 O 574.175 2.40549 -0.767611 0
M  V30 6109 C 575.488 0.0688638 -3.00621 0
M  V30 6110 C 577.036 0.137373 -3.12698 0
M  V30 6111 C 577.511 -0.0370832 -4.57985 0
M  V30 6112 N 579.002 0.0180794 -4.63196 0
M  V30 6113 C 579.737 -0.0922953 -5.73326 0
M  V30 6114 N 579.233 -0.256948 -6.92323 0
M  V30 6115 N 581.026 -0.0342702 -5.6209 0
M  V30 6116 H 573.177 -1.01288 -1.86693 0
M  V30 6117 H 575.44 -0.396138 -0.861266 0
M  V30 6118 H 575.146 -0.911277 -3.39689 0
M  V30 6119 H 575.02 0.815442 -3.6828 0
M  V30 6120 H 577.407 1.10801 -2.73509 0
M  V30 6121 H 577.488 -0.640532 -2.47651 0
M  V30 6122 H 577.132 -1.00455 -4.97867 0
M  V30 6123 H 577.062 0.760392 -5.21081 0
M  V30 6124 H 579.553 0.143202 -3.77629 0
M  V30 6125 H 579.866 -0.332949 -7.72082 0
M  V30 6126 H 578.211 -0.292487 -6.94384 0
M  V30 6127 H 581.402 0.0931605 -4.68007 0
M  V30 6128 H 581.575 -0.12374 -6.47882 0
M  V30 6129 N 574.981 1.5647 0.188427 0
M  V30 6130 C 576.23 1.80207 0.905995 0
M  V30 6131 C 576.543 0.659579 1.84144 0
M  V30 6132 O 577.749 0.781431 2.60011 0
M  V30 6133 C 576.205 3.19255 1.66145 0
M  V30 6134 C 575.813 4.41324 0.770504 0
M  V30 6135 C 577.557 3.52298 2.36826 0
M  V30 6136 C 575.464 5.71394 1.52521 0
M  V30 6137 H 574.394 0.671953 0.342045 0
M  V30 6138 H 577.045 1.82808 0.159164 0
M  V30 6139 H 575.427 3.10922 2.45242 0
M  V30 6140 H 576.601 4.60797 0.0177261 0
M  V30 6141 H 574.916 4.16035 0.174199 0
M  V30 6142 H 577.513 4.46715 2.93854 0
M  V30 6143 H 577.856 2.76359 3.11338 0
M  V30 6144 H 578.389 3.62108 1.6469 0
M  V30 6145 H 575.128 6.50316 0.82275 0
M  V30 6146 H 574.648 5.55928 2.25175 0
M  V30 6147 H 576.327 6.12747 2.07725 0
M  V30 6148 N 576.459 -0.456382 1.50847 0
M  V30 6149 C 577.87 -1.03685 1.55262 0
M  V30 6150 C 578.221 -1.92779 0.364771 0
M  V30 6151 O 577.346 -2.10043 -0.52068 0
M  V30 6152 C 577.941 -1.88718 2.81374 0
M  V30 6153 C 576.5 -2.41847 2.88422 0
M  V30 6154 C 575.647 -1.20564 2.49719 0
M  V30 6155 H 578.598 -0.238399 1.56899 0
M  V30 6156 H 578.619 -2.73957 2.6406 0
M  V30 6157 H 578.131 -1.23847 3.67809 0
M  V30 6158 H 576.232 -3.10228 2.06372 0
M  V30 6159 H 576.345 -2.75947 3.9165 0
M  V30 6160 H 574.709 -1.54504 2.02486 0
M  V30 6161 H 575.492 -0.573326 3.38479 0
M  V30 6162 N 577.937 -1.40673 -0.710563 0
M  V30 6163 C 578.867 -1.44095 -1.83736 0
M  V30 6164 C 579.848 -0.301286 -1.67411 0
M  V30 6165 O 581.033 -0.510618 -1.87367 0
M  V30 6166 C 578.163 -1.30773 -3.21738 0
M  V30 6167 C 577.117 -2.42395 -3.52745 0
M  V30 6168 C 576.443 -2.14147 -4.89944 0
M  V30 6169 C 577.743 -3.84738 -3.53234 0
M  V30 6170 H 579.437 -2.38396 -1.81129 0
M  V30 6171 H 576.983 -1.14746 -0.870017 0
M  V30 6172 H 578.936 -1.31783 -4.00264 0
M  V30 6173 H 577.66 -0.329507 -3.24934 0
M  V30 6174 H 576.319 -2.40643 -2.76562 0
M  V30 6175 H 575.967 -1.14703 -4.89747 0
M  V30 6176 H 575.667 -2.88934 -5.11655 0
M  V30 6177 H 577.191 -2.16848 -5.70797 0
M  V30 6178 H 578.605 -3.88286 -4.2179 0
M  V30 6179 H 577.002 -4.59085 -3.86473 0
M  V30 6180 H 578.072 -4.13962 -2.52514 0
M  V30 6181 N 579.415 0.9433 -1.26252 0
M  V30 6182 C 580.362 2.0417 -1.07625 0
M  V30 6183 C 581.332 1.6609 0.0180738 0
M  V30 6184 O 582.517 1.90276 -0.141289 0
M  V30 6185 C 579.657 3.37653 -0.713043 0
M  V30 6186 C 578.77 3.88783 -1.8834 0
M  V30 6187 C 577.905 5.10642 -1.4635 0
M  V30 6188 C 576.944 5.54028 -2.60229 0
M  V30 6189 N 576.081 6.67092 -2.18936 0
M  V30 6190 H 580.921 2.19436 -2.01623 0
M  V30 6191 H 578.458 1.07519 -1.00389 0
M  V30 6192 H 580.416 4.14391 -0.483358 0
M  V30 6193 H 579.046 3.22241 0.18996 0
M  V30 6194 H 578.098 3.08464 -2.22608 0
M  V30 6195 H 579.41 4.16922 -2.73821 0
M  V30 6196 H 578.564 5.94832 -1.19414 0
M  V30 6197 H 577.303 4.84244 -0.579568 0
M  V30 6198 H 576.308 4.68396 -2.87898 0
M  V30 6199 H 577.533 5.82429 -3.49219 0
M  V30 6200 H 575.479 6.42381 -1.32974 0
M  V30 6201 H 575.396 6.94806 -2.97961 0
M  V30 6202 H 576.664 7.54662 -1.95206 0
M  V30 6203 N 580.893 1.08022 1.14757 0
M  V30 6204 C 582.17 0.720386 1.81851 0
M  V30 6205 C 582.55 -0.796375 1.95502 0
M  V30 6206 O 581.898 -1.71339 1.51179 0
M  V30 6207 C 582.108 1.44273 3.17783 0
M  V30 6208 C 583.456 1.59925 3.93331 0
M  V30 6209 O 584.48 1.40407 3.2736 0
M  V30 6210 O 583.339 1.92096 5.11626 0
M  V30 6211 H 580.433 0.257142 0.786007 0
M  V30 6212 H 582.979 1.18155 1.21809 0
M  V30 6213 H 581.751 2.47618 3.02987 0
M  V30 6214 H 581.374 0.97279 3.85516 0
M  V30 6215 N 582.371 -1.3172 0.865308 0
M  V30 6216 C 583.617 -1.97168 0.474633 0
M  V30 6217 C 583.95 -1.68263 -0.969604 0
M  V30 6218 O 583.225 -0.976588 -1.68205 0
M  V30 6219 C 583.508 -3.52689 0.726808 0
M  V30 6220 C 583.361 -3.91185 2.22024 0
M  V30 6221 C 584.68 -4.39689 0.190201 0
M  V30 6222 H 581.799 -0.716185 0.17392 0
M  V30 6223 H 584.441 -1.55925 1.08569 0
M  V30 6224 H 582.591 -3.8795 0.206705 0
M  V30 6225 H 584.263 -3.66049 2.80724 0
M  V30 6226 H 582.506 -3.3996 2.69462 0
M  V30 6227 H 583.177 -4.99604 2.34735 0
M  V30 6228 H 585.653 -4.11225 0.635103 0
M  V30 6229 H 584.529 -5.47469 0.396132 0
M  V30 6230 H 584.79 -4.32683 -0.907625 0
M  V30 6231 N 583.85 -0.624285 -1.44708 0
M  V30 6232 C 585.096 -0.126237 -2.02407 0
M  V30 6233 C 585.428 1.24618 -1.48943 0
M  V30 6234 O 584.704 1.82569 -0.670742 0
M  V30 6235 C 584.986 -0.105449 -3.59946 0
M  V30 6236 C 584.84 -1.50972 -4.23707 0
M  V30 6237 C 586.159 0.573629 -4.36346 0
M  V30 6238 H 583.278 -0.0473472 -0.735478 0
M  V30 6239 H 585.92 -0.799452 -1.72362 0
M  V30 6240 H 584.07 0.46783 -3.85673 0
M  V30 6241 H 585.742 -2.13136 -4.0911 0
M  V30 6242 H 583.985 -2.0656 -3.81465 0
M  V30 6243 H 584.656 -1.44727 -5.32689 0
M  V30 6244 H 587.132 0.0861787 -4.16011 0
M  V30 6245 H 586.008 0.557338 -5.46063 0
M  V30 6246 H 586.269 1.64276 -4.10446 0
M  V30 6247 N 585.328 1.53329 -0.364422 0
M  V30 6248 C 586.739 1.86345 0.115039 0
M  V30 6249 C 587.09 1.28505 1.4826 0
M  V30 6250 O 586.215 0.606639 2.07723 0
M  V30 6251 C 586.81 3.38114 0.215522 0
M  V30 6252 C 585.369 3.70932 0.639237 0
M  V30 6253 C 584.516 2.76471 -0.214261 0
M  V30 6254 H 587.467 1.47593 -0.583258 0
M  V30 6255 H 587.488 3.66031 1.0393 0
M  V30 6256 H 587 3.80182 -0.779948 0
M  V30 6257 H 585.101 3.3442 1.64298 0
M  V30 6258 H 585.214 4.77302 0.41465 0
M  V30 6259 H 583.578 2.52724 0.316678 0
M  V30 6260 H 584.361 3.21373 -1.20725 0
M  V30 6261 N 586.806 0.0935595 1.57322 0
M  V30 6262 C 588.222 -0.263091 1.57417 0
M  V30 6263 C 588.422 -1.68526 1.1046 0
M  V30 6264 O 587.478 -2.40139 0.780357 0
M  V30 6265 C 588.791 -0.0529201 3.00653 0
M  V30 6266 C 590.339 -0.120788 3.12767 0
M  V30 6267 C 590.814 0.0613707 4.57959 0
M  V30 6268 N 592.305 0.00648534 4.632 0
M  V30 6269 C 593.04 0.122699 5.73269 0
M  V30 6270 N 592.536 0.29366 6.92177 0
M  V30 6271 N 594.329 0.0640787 5.62063 0
M  V30 6272 H 586.48 1.02277 1.86154 0
M  V30 6273 H 588.743 0.4007 0.859153 0
M  V30 6274 H 588.449 0.929279 3.39201 0
M  V30 6275 H 588.323 -0.795899 3.68708 0
M  V30 6276 H 590.71 -1.09349 2.74093 0
M  V30 6277 H 590.791 0.653656 2.47307 0
M  V30 6278 H 590.435 1.03093 4.97327 0
M  V30 6279 H 590.365 -0.732748 5.21477 0
M  V30 6280 H 592.856 -0.123173 3.77699 0
M  V30 6281 H 593.169 0.37389 7.71895 0
M  V30 6282 H 591.514 0.329307 6.94219 0
M  V30 6283 H 594.705 -0.0683396 4.6805 0
M  V30 6284 H 594.878 0.158097 6.47807 0
M  V30 6285 N 588.284 -1.56567 -0.180126 0
M  V30 6286 C 589.53 -1.81761 -0.899497 0
M  V30 6287 C 589.863 -0.670015 -1.82276 0
M  V30 6288 O 589.138 0.328575 -1.91705 0
M  V30 6289 C 589.421 -3.17296 -1.7028 0
M  V30 6290 C 589.274 -4.4257 -0.803255 0
M  V30 6291 C 590.593 -3.49678 -2.67233 0
M  V30 6292 H 587.712 -0.661192 -0.325567 0
M  V30 6293 H 590.354 -1.89272 -0.16612 0
M  V30 6294 H 588.504 -3.11023 -2.32802 0
M  V30 6295 H 590.176 -4.60902 -0.191585 0
M  V30 6296 H 588.419 -4.33658 -0.110796 0
M  V30 6297 H 589.09 -5.33935 -1.40064 0
M  V30 6298 H 591.566 -3.56347 -2.14839 0
M  V30 6299 H 590.442 -4.45605 -3.20511 0
M  V30 6300 H 590.703 -2.73932 -3.47007 0
M  V30 6301 N 589.762 0.448376 -1.51087 0
M  V30 6302 C 590.672 1.56882 -1.74428 0
M  V30 6303 C 591.688 1.62268 -0.62809 0
M  V30 6304 O 592.864 1.79716 -0.909075 0
M  V30 6305 C 589.929 2.92947 -1.85426 0
M  V30 6306 C 588.99 2.97766 -3.09247 0
M  V30 6307 C 588.223 4.27341 -3.19711 0
M  V30 6308 O 588.446 5.19112 -2.36387 0
M  V30 6309 O 587.38 4.38219 -4.12611 0
M  V30 6310 H 591.206 1.40104 -2.69452 0
M  V30 6311 H 588.791 0.630247 -1.35456 0
M  V30 6312 H 590.673 3.73719 -1.94709 0
M  V30 6313 H 589.348 3.09876 -0.935887 0
M  V30 6314 H 588.255 2.15989 -3.0545 0
M  V30 6315 H 589.588 2.8578 -4.00738 0
M  V30 6316 N 591.24 1.41047 0.703093 0
M  V30 6317 C 592.187 1.42302 1.81711 0
M  V30 6318 C 593.157 0.278336 1.63751 0
M  V30 6319 O 594.342 0.478266 1.84709 0
M  V30 6320 C 591.482 1.30362 3.19531 0
M  V30 6321 C 590.595 2.54638 3.48975 0
M  V30 6322 C 589.73 2.35047 4.76368 0
M  V30 6323 C 588.769 3.54837 4.98756 0
M  V30 6324 N 587.906 3.34363 6.1737 0
M  V30 6325 H 592.746 2.37516 1.79973 0
M  V30 6326 H 590.283 1.1795 0.878983 0
M  V30 6327 H 592.241 1.21443 3.99134 0
M  V30 6328 H 590.871 0.387602 3.20464 0
M  V30 6329 H 589.923 2.74037 2.63833 0
M  V30 6330 H 591.235 3.43766 3.61423 0
M  V30 6331 H 590.389 2.23552 5.64012 0
M  V30 6332 H 589.128 1.43363 4.66153 0
M  V30 6333 H 588.133 3.66795 4.09563 0
M  V30 6334 H 589.358 4.47464 5.10835 0
M  V30 6335 H 587.304 2.45373 6.08382 0
M  V30 6336 H 587.221 4.17063 6.30551 0
M  V30 6337 H 588.489 3.26626 7.07768 0
M  V30 6338 N 592.718 -0.936591 1.26751 0
M  V30 6339 C 593.966 -1.67998 1.12343 0
M  V30 6340 C 594.287 -1.92137 -0.332938 0
M  V30 6341 O 593.557 -1.52132 -1.23421 0
M  V30 6342 H 592.137 -0.622609 0.412756 0
M  V30 6343 H 594.799 -1.12509 1.59147 0
M  V30 6344 H 593.895 -2.65185 1.64571 0
M  V30 6345 N 594.196 -1.08629 -1.14182 0
M  V30 6346 C 595.426 -0.837673 -1.88856 0
M  V30 6347 C 595.834 0.614024 -1.78959 0
M  V30 6348 O 595.177 1.43384 -1.14833 0
M  V30 6349 C 595.239 -1.18355 -3.39459 0
M  V30 6350 C 594.903 -2.63848 -3.73139 0
M  V30 6351 C 595.9 -3.62099 -3.73069 0
M  V30 6352 C 593.585 -2.99761 -4.03049 0
M  V30 6353 C 595.579 -4.94292 -4.02435 0
M  V30 6354 C 593.266 -4.32147 -4.32078 0
M  V30 6355 C 594.264 -5.29223 -4.31755 0
M  V30 6356 O 593.952 -6.59229 -4.60079 0
M  V30 6357 H 593.684 -0.301609 -0.604986 0
M  V30 6358 H 596.238 -1.44961 -1.45518 0
M  V30 6359 H 594.468 -0.514628 -3.8326 0
M  V30 6360 H 596.157 -0.915391 -3.95443 0
M  V30 6361 H 596.923 -3.35698 -3.50046 0
M  V30 6362 H 592.802 -2.2484 -4.02453 0
M  V30 6363 H 596.346 -5.70055 -4.02098 0
M  V30 6364 H 592.243 -4.58296 -4.54571 0
M  V30 6365 H 593.011 -6.64578 -4.77785 0
M  V30 6366 N 595.674 1.31259 -0.872281 0
M  V30 6367 C 596.621 2.28459 -0.327857 0
M  V30 6368 C 597.591 1.55831 0.574957 0
M  V30 6369 O 598.776 1.83965 0.506101 0
M  V30 6370 C 595.916 3.41985 0.462644 0
M  V30 6371 C 595.029 4.29458 -0.467949 0
M  V30 6372 C 594.164 5.30131 0.336903 0
M  V30 6373 C 593.203 6.0925 -0.58997 0
M  V30 6374 N 592.34 7.01872 0.178775 0
M  V30 6375 H 597.18 2.74414 -1.16193 0
M  V30 6376 H 594.717 1.34994 -0.584376 0
M  V30 6377 H 596.675 4.06547 0.936759 0
M  V30 6378 H 595.305 2.97134 1.2614 0
M  V30 6379 H 594.357 3.65318 -1.06052 0
M  V30 6380 H 595.669 4.84677 -1.17856 0
M  V30 6381 H 594.823 6.0038 0.873427 0
M  V30 6382 H 593.562 4.75573 1.08079 0
M  V30 6383 H 592.567 5.37889 -1.13823 0
M  V30 6384 H 593.792 6.65894 -1.33275 0
M  V30 6385 H 591.738 6.49721 0.905435 0
M  V30 6386 H 591.655 7.54522 -0.472452 0
M  V30 6387 H 592.923 7.76382 0.696454 0
M  V30 6388 N 597.152 0.631951 1.44375 0
M  V30 6389 C 598.085 -0.121822 2.27875 0
M  V30 6390 C 599.063 -0.850457 1.38586 0
M  V30 6391 O 600.247 -0.854378 1.68026 0
M  V30 6392 C 597.374 -1.17859 3.17533 0
M  V30 6393 C 596.42 -0.550391 4.22934 0
M  V30 6394 S 597.253 0.660145 5.31415 0
M  V30 6395 C 598.409 -0.396613 6.24642 0
M  V30 6396 H 598.642 0.586537 2.91457 0
M  V30 6397 H 596.175 0.420146 1.48574 0
M  V30 6398 H 598.133 -1.78335 3.69739 0
M  V30 6399 H 596.794 -1.85915 2.53169 0
M  V30 6400 H 595.987 -1.34631 4.85685 0
M  V30 6401 H 595.589 -0.0202306 3.73995 0
M  V30 6402 H 597.881 -1.26893 6.65511 0
M  V30 6403 H 598.824 0.195345 7.0783 0
M  V30 6404 H 599.232 -0.72288 5.59852 0
M  V30 6405 N 598.631 -1.53133 0.372548 0
M  V30 6406 C 599.908 -1.93704 -0.271693 0
M  V30 6407 C 600.288 -1.30667 -1.65799 0
M  V30 6408 O 599.636 -0.46838 -2.23648 0
M  V30 6409 C 599.846 -3.47576 -0.314903 0
M  V30 6410 C 601.194 -4.20998 -0.551912 0
M  V30 6411 O 602.218 -3.53994 -0.39582 0
M  V30 6412 O 601.077 -5.39748 -0.85639 0
M  V30 6413 H 598.171 -0.810457 -0.164586 0
M  V30 6414 H 600.717 -1.6427 0.425838 0
M  V30 6415 H 599.489 -3.85749 0.656792 0
M  V30 6416 H 599.112 -3.83264 -1.05804 0
M  V30 6417 N 600.109 -0.101901 -1.5727 0
M  V30 6418 C 601.072 0.840129 -2.13247 0
M  V30 6419 C 602.072 1.20625 -1.06331 0
M  V30 6420 O 603.262 1.13456 -1.32186 0
M  V30 6421 C 600.394 2.13372 -2.65867 0
M  V30 6422 H 601.587 0.353945 -2.97804 0
M  V30 6423 H 599.14 0.147167 -1.55606 0
M  V30 6424 H 599.875 2.66461 -1.84849 0
M  V30 6425 H 599.66 1.88085 -3.44044 0
M  V30 6426 H 601.15 2.80748 -3.09145 0
M  V30 6427 N 601.587 1.56661 0.17182 0
M  V30 6428 C 602.998 1.71652 0.734329 0
M  V30 6429 C 603.349 0.712335 1.82812 0
M  V30 6430 O 602.474 -0.126401 2.16031 0
M  V30 6431 C 603.069 3.11226 1.3388 0
M  V30 6432 C 601.628 3.27904 1.84813 0
M  V30 6433 C 600.775 2.67603 0.726917 0
M  V30 6434 H 603.726 1.5861 -0.0535665 0
M  V30 6435 H 603.747 3.09849 2.20849 0
M  V30 6436 H 603.259 3.8429 0.54249 0
M  V30 6437 H 601.36 2.59796 2.6709 0
M  V30 6438 H 601.473 4.35637 1.99392 0
M  V30 6439 H 599.837 2.274 1.14723 0
M  V30 6440 H 600.62 3.43252 -0.0575334 0
M  V30 6441 N 603.065 -0.440357 1.51323 0
M  V30 6442 C 604.342 -1.20109 1.5438 0
M  V30 6443 C 604.722 -2.08866 0.306303 0
M  V30 6444 O 604.07 -2.1723 -0.708773 0
M  V30 6445 C 604.28 -2.00555 2.8562 0
M  V30 6446 C 605.628 -2.577 3.37455 0
M  V30 6447 O 606.652 -2.10769 2.8715 0
M  V30 6448 O 605.511 -3.43289 4.25224 0
M  V30 6449 H 602.605 -0.546668 0.620551 0
M  V30 6450 H 605.151 -0.449672 1.63634 0
M  V30 6451 H 603.923 -1.35346 3.67147 0
M  V30 6452 H 603.546 -2.82768 2.79514 0
M  V30 6453 N 604.543 -1.41418 -0.695603 0
M  V30 6454 C 605.791 -1.40496 -1.45277 0
M  V30 6455 C 606.112 -0.0149538 -1.94994 0
M  V30 6456 O 605.382 0.9432 -1.71699 0
M  V30 6457 H 603.962 -0.517147 -0.539044 0
M  V30 6458 H 606.624 -1.76656 -0.823321 0
M  V30 6459 H 605.72 -2.09214 -2.31595 0
M  V30 6460 N 606.021 0.929856 -1.27246 0
M  V30 6461 C 607.261 1.6919 -1.14691 0
M  V30 6462 C 607.625 1.896 0.302621 0
M  V30 6463 O 608.826 2.63102 0.550543 0
M  V30 6464 C 607.097 3.02291 -1.9067 0
M  V30 6465 S 608.656 3.93436 -1.94303 0
M  V30 6466 H 605.474 0.581248 -0.409477 0
M  V30 6467 H 608.076 1.10722 -1.61124 0
M  V30 6468 H 606.78 2.85125 -2.95181 0
M  V30 6469 H 606.311 3.65813 -1.44723 0
M  V30 6470 H 608.326 4.85224 -1.0379 0
M  V30 6471 N 607.499 1.09233 1.13605 0
M  V30 6472 C 608.91 0.846839 1.6639 0
M  V30 6473 C 609.261 -0.625031 1.85978 0
M  V30 6474 O 608.386 -1.48173 1.57714 0
M  V30 6475 C 608.981 1.5307 3.0225 0
M  V30 6476 C 607.54 1.33223 3.52035 0
M  V30 6477 C 606.687 1.58806 2.27323 0
M  V30 6478 H 609.638 1.25175 0.975541 0
M  V30 6479 H 609.659 0.96267 3.68121 0
M  V30 6480 H 609.171 2.60192 2.87961 0
M  V30 6481 H 607.272 0.282091 3.71531 0
M  V30 6482 H 607.385 2.0657 4.32279 0
M  V30 6483 H 605.749 1.01007 2.33815 0
M  V30 6484 H 606.532 2.67153 2.15602 0
M  V30 6485 N 608.977 -1.30795 0.87923 0
M  V30 6486 C 610.388 -1.78535 0.546093 0
M  V30 6487 C 610.739 -1.72354 -0.937467 0
M  V30 6488 O 609.864 -1.2969 -1.73233 0
M  V30 6489 C 610.459 -3.24181 0.9845 0
M  V30 6490 C 609.018 -3.69779 0.702871 0
M  V30 6491 C 608.165 -2.51377 1.17068 0
M  V30 6492 H 611.116 -1.17746 1.06403 0
M  V30 6493 H 611.137 -3.79227 0.311045 0
M  V30 6494 H 610.649 -3.28647 2.06429 0
M  V30 6495 H 608.75 -3.70806 -0.365166 0
M  V30 6496 H 608.863 -4.61507 1.28639 0
M  V30 6497 H 607.227 -2.47768 0.590172 0
M  V30 6498 H 608.01 -2.58584 2.25808 0
M  V30 6499 N 610.455 -0.639598 -1.44038 0
M  V30 6500 C 611.418 0.0506628 -2.29144 0
M  V30 6501 C 612.418 0.764001 -1.41491 0
M  V30 6502 O 613.608 0.607309 -1.63271 0
M  V30 6503 C 610.74 1.0824 -3.2326 0
M  V30 6504 H 611.933 -0.697987 -2.91664 0
M  V30 6505 H 609.486 -0.400146 -1.51091 0
M  V30 6506 H 610.221 1.86075 -2.65606 0
M  V30 6507 H 610.006 0.574725 -3.87865 0
M  V30 6508 H 611.496 1.56487 -3.87171 0
M  V30 6509 N 611.933 1.52934 -0.380664 0
M  V30 6510 C 613.179 2.01765 0.20458 0
M  V30 6511 C 613.512 1.26696 1.47179 0
M  V30 6512 O 612.787 0.364936 1.91046 0
M  V30 6513 C 613.07 3.56869 0.481269 0
M  V30 6514 C 612.923 4.42617 -0.800629 0
M  V30 6515 C 614.242 4.2121 1.27554 0
M  V30 6516 H 611.361 0.733388 0.0728803 0
M  V30 6517 H 614.003 1.83068 -0.50853 0
M  V30 6518 H 612.153 3.72932 1.08875 0
M  V30 6519 H 613.825 4.38323 -1.43773 0
M  V30 6520 H 612.068 4.09977 -1.4178 0
M  V30 6521 H 612.739 5.49134 -0.561791 0
M  V30 6522 H 615.215 4.09072 0.761514 0
M  V30 6523 H 614.091 5.29732 1.43788 0
M  V30 6524 H 614.352 3.78269 2.28833 0
M  V30 6525 N 613.412 0.11024 1.57214 0
M  V30 6526 C 614.642 -0.557025 1.98949 0
M  V30 6527 C 615.05 -1.61317 0.988606 0
M  V30 6528 O 614.393 -1.83679 -0.0279159 0
M  V30 6529 C 614.455 -1.24956 3.37085 0
M  V30 6530 C 614.119 -0.342398 4.55716 0
M  V30 6531 C 615.116 0.415511 5.18237 0
M  V30 6532 C 612.801 -0.256029 5.01647 0
M  V30 6533 C 614.795 1.24761 6.25071 0
M  V30 6534 C 612.482 0.579713 6.08344 0
M  V30 6535 C 613.48 1.33017 6.69922 0
M  V30 6536 O 613.168 2.15205 7.74559 0
M  V30 6537 H 612.9 -0.152792 0.658506 0
M  V30 6538 H 615.454 0.19076 2.04512 0
M  V30 6539 H 613.684 -2.04424 3.2825 0
M  V30 6540 H 615.373 -1.81286 3.63167 0
M  V30 6541 H 616.139 0.358605 4.83672 0
M  V30 6542 H 612.018 -0.829831 4.5347 0
M  V30 6543 H 615.562 1.83386 6.73064 0
M  V30 6544 H 611.459 0.638044 6.42339 0
M  V30 6545 H 612.227 2.08052 7.91617 0
M  V30 6546 N 614.89 -1.56749 -0.16351 0
M  V30 6547 C 615.8 -2.00255 -1.2221 0
M  V30 6548 C 616.816 -0.915194 -1.47987 0
M  V30 6549 O 617.992 -1.22342 -1.59982 0
M  V30 6550 C 615.057 -2.36035 -2.53946 0
M  V30 6551 C 614.118 -3.58637 -2.35962 0
M  V30 6552 C 613.351 -3.92701 -3.61416 0
M  V30 6553 O 613.574 -3.27632 -4.66919 0
M  V30 6554 O 612.508 -4.86019 -3.55062 0
M  V30 6555 H 616.334 -2.90586 -0.882794 0
M  V30 6556 H 613.919 -1.44721 -0.370978 0
M  V30 6557 H 615.801 -2.59982 -3.31643 0
M  V30 6558 H 614.476 -1.48863 -2.8744 0
M  V30 6559 H 613.383 -3.39898 -1.5627 0
M  V30 6560 H 614.716 -4.46374 -2.0739 0
M  V30 6561 N 616.368 0.432326 -1.51554 0
M  V30 6562 C 617.614 1.18309 -1.64714 0
M  V30 6563 C 617.947 1.90745 -0.364696 0
M  V30 6564 O 617.222 1.8381 0.635936 0
M  V30 6565 C 617.505 2.1961 -2.85383 0
M  V30 6566 C 617.358 1.51223 -4.23617 0
M  V30 6567 C 618.677 3.20538 -3.01569 0
M  V30 6568 H 615.796 0.428751 -0.599451 0
M  V30 6569 H 618.438 0.471689 -1.84052 0
M  V30 6570 H 616.588 2.8028 -2.69027 0
M  V30 6571 H 618.26 0.938516 -4.51652 0
M  V30 6572 H 616.503 0.814501 -4.26085 0
M  V30 6573 H 617.174 2.25024 -5.04052 0
M  V30 6574 H 619.65 2.69926 -3.16669 0
M  V30 6575 H 618.526 3.88706 -3.87555 0
M  V30 6576 H 618.787 3.86933 -2.13859 0
M  V30 6577 N 617.846 1.41785 0.688094 0
M  V30 6578 C 618.779 1.38643 1.81255 0
M  V30 6579 C 619.757 0.252583 1.60626 0
M  V30 6580 O 620.941 0.440691 1.83276 0
M  V30 6581 C 618.068 1.16449 3.18053 0
M  V30 6582 C 617.114 2.32651 3.57457 0
M  V30 6583 S 617.947 3.95152 3.61407 0
M  V30 6584 C 619.103 3.75275 5.00919 0
M  V30 6585 H 619.336 2.33799 1.83644 0
M  V30 6586 H 616.869 1.28398 0.857513 0
M  V30 6587 H 618.827 1.0433 3.97021 0
M  V30 6588 H 617.488 0.229002 3.13264 0
M  V30 6589 H 616.681 2.12835 4.56856 0
M  V30 6590 H 616.283 2.41215 2.85817 0
M  V30 6591 H 618.575 3.35443 5.88629 0
M  V30 6592 H 619.518 4.74302 5.25778 0
M  V30 6593 H 619.926 3.08401 4.7281 0
M  V30 6594 N 619.324 -0.923095 1.27737 0
M  V30 6595 C 620.271 -2.02432 1.1086 0
M  V30 6596 C 621.241 -1.66098 0.00835195 0
M  V30 6597 O 622.426 -1.90027 0.171542 0
M  V30 6598 C 619.566 -3.36476 0.766671 0
M  V30 6599 C 618.679 -3.85737 1.94501 0
M  V30 6600 C 617.814 -5.08249 1.54455 0
M  V30 6601 C 616.853 -5.49818 2.6901 0
M  V30 6602 N 615.99 -6.63524 2.29521 0
M  V30 6603 H 620.83 -2.16201 2.05089 0
M  V30 6604 H 618.367 -1.05909 1.02087 0
M  V30 6605 H 620.325 -4.13569 0.549223 0
M  V30 6606 H 618.955 -3.22502 -0.13867 0
M  V30 6607 H 618.007 -3.04883 2.27487 0
M  V30 6608 H 619.319 -4.12513 2.80419 0
M  V30 6609 H 618.473 -5.92857 1.28862 0
M  V30 6610 H 617.212 -4.83261 0.656534 0
M  V30 6611 H 616.217 -4.63757 2.95313 0
M  V30 6612 H 617.442 -5.76799 3.5844 0
M  V30 6613 H 615.388 -6.40185 1.43177 0
M  V30 6614 H 615.305 -6.89978 3.08977 0
M  V30 6615 H 616.573 -7.51461 2.07187 0
M  V30 6616 N 620.802 -1.09834 -1.13024 0
M  V30 6617 C 621.75 -0.736283 -2.20639 0
M  V30 6618 C 622.744 0.264725 -1.67319 0
M  V30 6619 O 623.95 0.125745 -1.7956 0
M  V30 6620 H 620.325 -0.220136 -0.719058 0
M  V30 6621 H 622.296 -1.65295 -2.48436 0
M  V30 6622 C 621.045 -0.177544 -3.47246 0
M  V30 6623 H 620.368 -0.939009 -3.88616 0
M  V30 6624 H 621.808 0.0378007 -4.23983 0
M  V30 6625 C 620.267 1.08824 -3.1884 0
M  V30 6626 O 620.797 2.1708 -3.37993 0
M  V30 6627 N 619.003 1.00442 -2.7269 0
M  V30 6628 H 618.55 0.123383 -2.57304 0
M  V30 6629 H 618.508 1.85206 -2.5406 0
M  V30 6630 N 622.28 1.30327 -0.886154 0
M  V30 6631 C 623.52 1.97886 -0.511912 0
M  V30 6632 C 623.884 1.68417 0.921944 0
M  V30 6633 O 625.085 2.29319 1.40237 0
M  V30 6634 C 623.356 3.48775 -0.780444 0
M  V30 6635 S 624.915 4.35844 -0.508482 0
M  V30 6636 H 621.733 0.685024 -0.190428 0
M  V30 6637 H 624.335 1.58413 -1.14567 0
M  V30 6638 H 623.039 3.67714 -1.82248 0
M  V30 6639 H 622.57 3.93171 -0.134284 0
M  V30 6640 H 624.585 4.91893 0.65239 0
M  V30 6641 N 623.758 0.647228 1.43697 0
M  V30 6642 C 625.004 0.167001 2.02713 0
M  V30 6643 C 625.359 -1.20351 1.50111 0
M  V30 6644 O 624.652 -1.79047 0.682113 0
M  V30 6645 C 624.846 0.111481 3.57226 0
M  V30 6646 C 624.675 1.47507 4.2482 0
M  V30 6647 C 623.445 2.06594 4.61137 0
M  V30 6648 C 625.643 2.41224 4.54219 0
M  V30 6649 N 623.625 3.3602 5.13774 0
M  V30 6650 C 624.996 3.55278 5.08112 0
M  V30 6651 C 627.051 2.40102 4.36183 0
M  V30 6652 C 625.754 4.68426 5.45866 0
M  V30 6653 C 627.78 3.52326 4.74995 0
M  V30 6654 C 627.142 4.65104 5.29015 0
M  V30 6655 H 623.241 0.105402 0.774864 0
M  V30 6656 H 625.825 0.854229 1.7496 0
M  V30 6657 H 623.996 -0.545073 3.84556 0
M  V30 6658 H 625.728 -0.379063 4.02921 0
M  V30 6659 H 622.483 1.59366 4.45981 0
M  V30 6660 H 622.907 4.02233 5.44552 0
M  V30 6661 H 627.549 1.54151 3.93697 0
M  V30 6662 H 625.267 5.55074 5.87298 0
M  V30 6663 H 628.853 3.52652 4.6274 0
M  V30 6664 H 627.733 5.50506 5.58492 0
M  V30 6665 N 625.236 -1.5273 0.388769 0
M  V30 6666 C 626.186 -2.23238 -0.463567 0
M  V30 6667 C 627.17 -1.23606 -1.03007 0
M  V30 6668 O 628.362 -1.48945 -0.956261 0
M  V30 6669 C 625.491 -3.04228 -1.5906 0
M  V30 6670 C 624.577 -4.11255 -1.03587 0
M  V30 6671 N 624.968 -5.0538 -0.206038 0
M  V30 6672 C 623.266 -4.26376 -1.30841 0
M  V30 6673 C 623.967 -5.81613 0.100359 0
M  V30 6674 N 622.943 -5.41264 -0.503447 0
M  V30 6675 H 626.745 -2.93367 0.176978 0
M  V30 6676 H 624.259 -1.61188 0.198046 0
M  V30 6677 H 626.256 -3.53277 -2.21362 0
M  V30 6678 H 624.916 -2.35634 -2.23398 0
M  V30 6679 H 625.927 -5.17663 0.156659 0
M  V30 6680 H 622.604 -3.69011 -1.95287 0
M  V30 6681 H 623.994 -6.67442 0.772676 0
M  V30 6682 N 626.714 -0.118576 -1.57153 0
M  V30 6683 C 627.644 0.828436 -2.1831 0
M  V30 6684 C 628.625 1.27758 -1.12303 0
M  V30 6685 O 629.81 1.34026 -1.40537 0
M  V30 6686 C 626.94 2.07876 -2.78217 0
M  V30 6687 C 625.894 1.76742 -3.89803 0
M  V30 6688 C 625.22 3.08801 -4.36516 0
M  V30 6689 C 626.52 1.03606 -5.11921 0
M  V30 6690 H 628.214 0.318824 -2.97698 0
M  V30 6691 H 625.76 0.151911 -1.43196 0
M  V30 6692 H 627.713 2.74584 -3.19659 0
M  V30 6693 H 626.437 2.61161 -1.96118 0
M  V30 6694 H 625.096 1.12424 -3.48936 0
M  V30 6695 H 624.744 3.6002 -3.51276 0
M  V30 6696 H 624.444 2.88743 -5.11763 0
M  V30 6697 H 625.968 3.76627 -4.80608 0
M  V30 6698 H 627.382 1.60467 -5.50385 0
M  V30 6699 H 625.779 0.936454 -5.92748 0
M  V30 6700 H 626.849 0.0227421 -4.84895 0
M  V30 6701 N 628.193 1.56834 0.155195 0
M  V30 6702 C 629.47 1.73799 0.897395 0
M  V30 6703 C 629.85 0.684379 1.99698 0
M  V30 6704 O 629.198 -0.298111 2.26547 0
M  V30 6705 C 629.408 3.17572 1.44737 0
M  V30 6706 C 630.756 3.79014 1.91399 0
M  V30 6707 O 631.78 3.20951 1.54496 0
M  V30 6708 O 630.639 4.80998 2.59429 0
M  V30 6709 H 627.733 0.710329 0.423511 0
M  V30 6710 H 630.279 1.69107 0.141761 0
M  V30 6711 H 629.051 3.85749 0.656741 0
M  V30 6712 H 628.674 3.26657 2.26674 0
M  V30 6713 N 629.671 -0.424282 1.51781 0
M  V30 6714 C 630.634 -1.49848 1.73431 0
M  V30 6715 C 631.634 -1.49016 0.604225 0
M  V30 6716 O 632.824 -1.50808 0.871935 0
M  V30 6717 C 629.956 -2.89332 1.80277 0
M  V30 6718 H 631.149 -1.3195 2.69312 0
M  V30 6719 H 628.702 -0.653809 1.41968 0
M  V30 6720 H 629.437 -3.12618 0.862568 0
M  V30 6721 H 629.222 -2.9134 2.62419 0
M  V30 6722 H 630.712 -3.67233 1.98821 0
M  V30 6723 N 631.149 -1.42148 -0.680565 0
M  V30 6724 C 632.112 -1.4488 -1.77602 0
M  V30 6725 C 633.112 -0.337209 -1.57224 0
M  V30 6726 O 634.302 -0.597778 -1.63622 0
M  V30 6727 C 631.434 -1.27483 -3.16166 0
M  V30 6728 H 632.627 -2.42412 -1.76568 0
M  V30 6729 H 630.18 -1.28511 -0.889645 0
M  V30 6730 H 630.915 -0.30851 -3.22829 0
M  V30 6731 H 630.7 -2.08037 -3.3236 0
M  V30 6732 H 632.19 -1.32265 -3.96101 0
M  V30 6733 N 632.627 0.916307 -1.28225 0
M  V30 6734 C 633.56 2.01954 -1.06254 0
M  V30 6735 C 634.538 1.62587 0.0205983 0
M  V30 6736 O 635.722 1.88073 -0.126824 0
M  V30 6737 C 632.849 3.33086 -0.614141 0
M  V30 6738 C 631.895 3.91435 -1.69354 0
M  V30 6739 S 632.728 4.22603 -3.28887 0
M  V30 6740 C 633.884 5.568 -2.85876 0
M  V30 6741 H 634.117 2.20281 -1.99659 0
M  V30 6742 H 631.65 1.06085 -1.12184 0
M  V30 6743 H 633.608 4.089 -0.36213 0
M  V30 6744 H 632.269 3.12664 0.300036 0
M  V30 6745 H 631.462 4.86098 -1.33136 0
M  V30 6746 H 631.064 3.22248 -1.89821 0
M  V30 6747 H 633.356 6.3658 -2.31888 0
M  V30 6748 H 634.299 5.97927 -3.79326 0
M  V30 6749 H 634.707 5.17865 -2.24669 0
M  V30 6750 N 634.105 1.10431 1.1244 0
M  V30 6751 C 635.521 0.836096 1.35947 0
M  V30 6752 C 635.721 -0.544475 1.94004 0
M  V30 6753 O 634.777 -1.29735 2.16622 0
M  V30 6754 C 636.09 1.93575 2.30107 0
M  V30 6755 C 637.638 1.9642 2.43697 0
M  V30 6756 C 638.113 3.05559 3.41171 0
M  V30 6757 N 639.604 3.04865 3.48728 0
M  V30 6758 C 640.339 3.85954 4.24061 0
M  V30 6759 N 639.835 4.76977 5.02458 0
M  V30 6760 N 641.628 3.74172 4.19466 0
M  V30 6761 H 633.779 1.9942 0.731124 0
M  V30 6762 H 636.042 0.866607 0.384312 0
M  V30 6763 H 635.748 2.92943 1.94621 0
M  V30 6764 H 635.622 1.8229 3.30227 0
M  V30 6765 H 638.009 0.97685 2.78463 0
M  V30 6766 H 638.09 2.11782 1.43465 0
M  V30 6767 H 637.734 4.04513 3.07135 0
M  V30 6768 H 637.664 2.87438 4.41234 0
M  V30 6769 H 640.155 2.38908 2.92799 0
M  V30 6770 H 640.468 5.35409 5.57277 0
M  V30 6771 H 638.813 4.81006 5.01655 0
M  V30 6772 H 642.004 3.02412 3.57302 0
M  V30 6773 H 642.177 4.37602 4.77921 0
M  V30 6774 N 635.583 -1.29855 0.893053 0
M  V30 6775 C 636.994 -1.77946 0.564998 0
M  V30 6776 C 637.345 -1.73339 -0.919134 0
M  V30 6777 O 636.47 -1.3152 -1.71847 0
M  V30 6778 C 637.065 -3.23118 1.01883 0
M  V30 6779 C 635.624 -3.69013 0.742051 0
M  V30 6780 C 634.771 -2.50121 1.19727 0
M  V30 6781 H 637.722 -1.16611 1.07646 0
M  V30 6782 H 637.743 -3.78875 0.351249 0
M  V30 6783 H 637.255 -3.26439 2.09903 0
M  V30 6784 H 635.356 -3.71173 -0.325816 0
M  V30 6785 H 635.469 -4.60117 1.33527 0
M  V30 6786 H 633.833 -2.47128 0.616418 0
M  V30 6787 H 634.616 -2.56174 2.28538 0
M  V30 6788 N 637.061 -0.65484 -1.43351 0
M  V30 6789 C 638.286 -0.175046 -2.0666 0
M  V30 6790 C 638.711 1.15104 -1.4877 0
M  V30 6791 O 638.069 1.71144 -0.598279 0
M  V30 6792 C 638.117 -0.0991544 -3.60464 0
M  V30 6793 O 637.221 0.938169 -4.01587 0
M  V30 6794 H 636.562 -0.0956148 -0.65708 0
M  V30 6795 H 639.092 -0.898222 -1.83829 0
M  V30 6796 H 639.102 0.083632 -4.07914 0
M  V30 6797 H 637.777 -1.06719 -4.01975 0
M  V30 6798 H 636.354 0.72804 -3.65724 0
M  V30 6799 N 638.539 1.52521 -0.396863 0
M  V30 6800 C 639.786 2.01672 0.182898 0
M  V30 6801 C 640.114 1.28302 1.46181 0
M  V30 6802 O 639.369 0.374118 1.92091 0
M  V30 6803 C 639.668 3.5403 0.489677 0
M  V30 6804 C 639.334 4.45456 -0.698581 0
M  V30 6805 C 637.996 4.70166 -1.02454 0
M  V30 6806 C 640.348 4.99354 -1.49316 0
M  V30 6807 C 637.676 5.46024 -2.1465 0
M  V30 6808 C 640.028 5.76439 -2.60579 0
M  V30 6809 C 638.692 5.99426 -2.93675 0
M  V30 6810 H 637.962 0.737971 0.066927 0
M  V30 6811 H 640.609 1.83853 -0.535764 0
M  V30 6812 H 638.914 3.69963 1.28976 0
M  V30 6813 H 640.611 3.8956 0.951018 0
M  V30 6814 H 637.201 4.26392 -0.434525 0
M  V30 6815 H 641.385 4.80182 -1.25457 0
M  V30 6816 H 636.641 5.62046 -2.40654 0
M  V30 6817 H 640.815 6.17202 -3.22544 0
M  V30 6818 H 638.442 6.57988 -3.80731 0
M  V30 6819 N 640.017 0.126909 1.57088 0
M  V30 6820 C 640.947 -0.816847 2.18746 0
M  V30 6821 C 641.928 -1.27161 1.12979 0
M  V30 6822 O 643.113 -1.33279 1.41246 0
M  V30 6823 C 640.243 -2.06398 2.79315 0
M  V30 6824 C 639.197 -1.74673 3.90735 0
M  V30 6825 C 638.523 -3.06482 4.38147 0
M  V30 6826 C 639.823 -1.0089 5.12463 0
M  V30 6827 H 641.517 -0.303032 2.97863 0
M  V30 6828 H 639.063 -0.144314 1.43275 0
M  V30 6829 H 641.016 -2.72885 3.2111 0
M  V30 6830 H 639.74 -2.60118 1.975 0
M  V30 6831 H 638.399 -1.10572 3.49527 0
M  V30 6832 H 638.047 -3.58152 3.5318 0
M  V30 6833 H 637.747 -2.86025 5.13287 0
M  V30 6834 H 639.271 -3.74073 4.82599 0
M  V30 6835 H 640.685 -1.57546 5.51228 0
M  V30 6836 H 639.082 -0.905006 5.93237 0
M  V30 6837 H 640.152 0.00297335 4.849 0
M  V30 6838 N 641.495 -1.56914 -0.146875 0
M  V30 6839 C 642.427 -1.94878 -1.20645 0
M  V30 6840 C 643.44 -0.844633 -1.39175 0
M  V30 6841 O 644.629 -1.12304 -1.38744 0
M  V30 6842 C 641.729 -2.20769 -2.57127 0
M  V30 6843 C 640.902 -3.52053 -2.59572 0
M  V30 6844 C 639.961 -3.66482 -3.77594 0
M  V30 6845 O 638.987 -4.38873 -3.62462 0
M  V30 6846 N 640.189 -3.03156 -4.95052 0
M  V30 6847 H 642.954 -2.86374 -0.883757 0
M  V30 6848 H 640.515 -1.58366 -0.336436 0
M  V30 6849 H 642.507 -2.27664 -3.34591 0
M  V30 6850 H 641.077 -1.35538 -2.81688 0
M  V30 6851 H 640.297 -3.56598 -1.68023 0
M  V30 6852 H 641.585 -4.38396 -2.58238 0
M  V30 6853 H 640.983 -2.44258 -5.10249 0
M  V30 6854 H 639.54 -3.15611 -5.70292 0
M  V30 6855 N 642.974 0.416227 -1.52004 0
M  V30 6856 C 643.904 1.51365 -1.77795 0
M  V30 6857 C 644.885 1.58059 -0.628601 0
M  V30 6858 O 646.07 1.73447 -0.873478 0
M  V30 6859 C 643.2 2.89256 -1.92219 0
M  V30 6860 C 642.154 2.97415 -3.0778 0
M  V30 6861 C 641.48 4.37492 -3.07417 0
M  V30 6862 C 642.78 2.69551 -4.47369 0
M  V30 6863 H 644.474 1.30033 -2.69688 0
M  V30 6864 H 642.02 0.624112 -1.29772 0
M  V30 6865 H 643.973 3.66008 -2.08845 0
M  V30 6866 H 642.697 3.11866 -0.969917 0
M  V30 6867 H 641.356 2.23107 -2.90893 0
M  V30 6868 H 641.004 4.571 -2.09925 0
M  V30 6869 H 640.704 4.43877 -3.85029 0
M  V30 6870 H 642.228 5.16188 -3.26162 0
M  V30 6871 H 643.642 3.36028 -4.64497 0
M  V30 6872 H 642.039 2.87321 -5.26846 0
M  V30 6873 H 643.109 1.65029 -4.55953 0
M  V30 6874 N 644.452 1.42507 0.673017 0
M  V30 6875 C 645.868 1.25472 0.986355 0
M  V30 6876 C 646.068 0.160181 2.00862 0
M  V30 6877 O 645.124 -0.467993 2.48125 0
M  V30 6878 C 646.437 2.61219 1.48947 0
M  V30 6879 C 647.985 2.68589 1.60715 0
M  V30 6880 C 648.46 4.04707 2.14422 0
M  V30 6881 N 649.951 4.0667 2.21752 0
M  V30 6882 C 650.686 5.0881 2.64386 0
M  V30 6883 N 650.182 6.21332 3.0646 0
M  V30 6884 N 651.975 4.96166 2.64151 0
M  V30 6885 H 644.126 2.124 -0.00378532 0
M  V30 6886 H 646.389 0.946046 0.0608367 0
M  V30 6887 H 646.095 3.42179 0.812812 0
M  V30 6888 H 645.969 2.85261 2.46791 0
M  V30 6889 H 648.356 1.87974 2.27486 0
M  V30 6890 H 648.437 2.48333 0.613552 0
M  V30 6891 H 648.081 4.8578 1.48258 0
M  V30 6892 H 648.011 4.22315 3.14575 0
M  V30 6893 H 650.502 3.25438 1.92089 0
M  V30 6894 H 650.815 6.95118 3.37684 0
M  V30 6895 H 649.16 6.24835 3.04313 0
M  V30 6896 H 652.351 4.07334 2.30644 0
M  V30 6897 H 652.524 5.759 2.97057 0
M  V30 6898 N 645.93 -0.909495 1.28709 0
M  V30 6899 C 646.84 -2.04558 1.14861 0
M  V30 6900 C 647.856 -1.73842 0.0741621 0
M  V30 6901 O 649.032 -1.99383 0.2843 0
M  V30 6902 C 646.097 -3.36957 0.816148 0
M  V30 6903 C 645.158 -3.81255 1.97341 0
M  V30 6904 C 644.391 -5.07335 1.65671 0
M  V30 6905 O 644.614 -5.67514 0.573053 0
M  V30 6906 O 643.548 -5.47449 2.50167 0
M  V30 6907 H 647.374 -2.19161 2.10243 0
M  V30 6908 H 644.959 -1.03159 1.08068 0
M  V30 6909 H 646.841 -4.16436 0.644873 0
M  V30 6910 H 645.516 -3.2352 -0.107983 0
M  V30 6911 H 644.423 -3.02584 2.19986 0
M  V30 6912 H 645.756 -3.99261 2.87839 0
M  V30 6913 N 647.408 -1.11026 -1.11852 0
M  V30 6914 C 648.34 -0.72249 -2.17515 0
M  V30 6915 C 649.353 0.243782 -1.60964 0
M  V30 6916 O 650.542 0.0273252 -1.78479 0
M  V30 6917 C 647.642 -0.0463979 -3.38868 0
M  V30 6918 C 646.815 -1.0384 -4.24895 0
M  V30 6919 C 645.874 -0.392659 -5.24733 0
M  V30 6920 O 644.9 -1.0453 -5.5952 0
M  V30 6921 N 646.102 0.846296 -5.74298 0
M  V30 6922 H 648.867 -1.63161 -2.51393 0
M  V30 6923 H 646.428 -0.999899 -1.27333 0
M  V30 6924 H 648.42 0.397215 -4.02746 0
M  V30 6925 H 646.99 0.765231 -3.03089 0
M  V30 6926 H 646.21 -1.6601 -3.57539 0
M  V30 6927 H 647.498 -1.70968 -4.79215 0
M  V30 6928 H 646.896 1.39578 -5.4821 0
M  V30 6929 H 645.453 1.23296 -6.40032 0
M  V30 6930 N 648.886 1.2938 -0.899927 0
M  V30 6931 C 649.816 2.30144 -0.39446 0
M  V30 6932 C 650.797 1.61611 0.530639 0
M  V30 6933 O 651.982 1.89119 0.441319 0
M  V30 6934 C 649.112 3.45229 0.37868 0
M  V30 6935 C 648.066 4.25564 -0.456012 0
M  V30 6936 C 647.392 5.32848 0.444637 0
M  V30 6937 C 648.692 4.93651 -1.70605 0
M  V30 6938 H 650.386 2.72673 -1.23653 0
M  V30 6939 H 647.932 1.31086 -0.596034 0
M  V30 6940 H 649.885 4.14797 0.743037 0
M  V30 6941 H 648.609 3.01545 1.25453 0
M  V30 6942 H 647.268 3.57704 -0.802704 0
M  V30 6943 H 646.916 4.85408 1.31863 0
M  V30 6944 H 646.616 5.87497 -0.110154 0
M  V30 6945 H 648.14 6.05268 0.805182 0
M  V30 6946 H 649.554 5.55655 -1.41141 0
M  V30 6947 H 647.951 5.58233 -2.20217 0
M  V30 6948 H 649.021 4.18926 -2.4419 0
M  V30 6949 N 650.364 0.662433 1.43002 0
M  V30 6950 C 651.274 -0.0239199 2.34588 0
M  V30 6951 C 652.29 -0.802255 1.54402 0
M  V30 6952 O 653.466 -0.747401 1.87018 0
M  V30 6953 C 650.531 -0.972098 3.32793 0
M  V30 6954 C 649.592 -0.189673 4.28881 0
M  V30 6955 C 648.825 -1.09269 5.22395 0
M  V30 6956 O 649.048 -2.33209 5.20547 0
M  V30 6957 O 647.982 -0.560136 5.99288 0
M  V30 6958 H 651.808 0.730171 2.94792 0
M  V30 6959 H 649.393 0.422635 1.43297 0
M  V30 6960 H 651.275 -1.51676 3.93157 0
M  V30 6961 H 649.95 -1.70626 2.75079 0
M  V30 6962 H 648.857 0.398794 3.71968 0
M  V30 6963 H 650.19 0.50511 4.89601 0
M  V30 6964 N 651.842 -1.52309 0.404946 0
M  V30 6965 C 652.792 -2.23717 -0.439864 0
M  V30 6966 C 653.776 -1.24692 -1.0169 0
M  V30 6967 O 654.968 -1.49951 -0.940409 0
M  V30 6968 C 652.097 -3.05898 -1.55825 0
M  V30 6969 C 651.183 -4.12331 -0.992188 0
M  V30 6970 N 651.574 -5.0557 -0.152424 0
M  V30 6971 C 649.872 -4.2774 -1.26312 0
M  V30 6972 C 650.573 -5.81474 0.162041 0
M  V30 6973 N 649.549 -5.41767 -0.44601 0
M  V30 6974 H 653.351 -2.93162 0.208084 0
M  V30 6975 H 650.865 -1.60969 0.215131 0
M  V30 6976 H 652.862 -3.55605 -2.17603 0
M  V30 6977 H 651.522 -2.37991 -2.20886 0
M  V30 6978 H 652.533 -5.17468 0.211556 0
M  V30 6979 H 649.21 -3.71062 -1.91362 0
M  V30 6980 H 650.6 -6.66585 0.843423 0
M  V30 6981 N 653.32 -0.135238 -1.57019 0
M  V30 6982 C 654.569 0.518694 -1.94917 0
M  V30 6983 C 654.882 1.66783 -1.0219 0
M  V30 6984 O 656.088 2.38561 -1.29619 0
M  V30 6985 C 654.544 0.974123 -3.46466 0
M  V30 6986 C 654.152 -0.147439 -4.47757 0
M  V30 6987 C 655.896 1.59851 -3.93253 0
M  V30 6988 C 653.803 0.325599 -5.90503 0
M  V30 6989 H 652.733 0.19754 -0.727663 0
M  V30 6990 H 655.384 -0.217698 -1.82204 0
M  V30 6991 H 653.766 1.76542 -3.5447 0
M  V30 6992 H 654.94 -0.924122 -4.51438 0
M  V30 6993 H 653.255 -0.679496 -4.10818 0
M  V30 6994 H 655.852 1.96385 -4.9733 0
M  V30 6995 H 656.195 2.48306 -3.3414 0
M  V30 6996 H 656.728 0.872323 -3.88118 0
M  V30 6997 H 653.467 -0.523295 -6.53408 0
M  V30 6998 H 652.987 1.06841 -5.90208 0
M  V30 6999 H 654.666 0.781498 -6.42263 0
M  V30 7000 N 654.798 1.5699 0.138552 0
M  V30 7001 C 655.745 1.98899 1.17081 0
M  V30 7002 C 656.715 0.857922 1.42228 0
M  V30 7003 O 657.9 1.12065 1.54422 0
M  V30 7004 C 655.04 2.38189 2.4972 0
M  V30 7005 C 654.153 3.64624 2.31674 0
M  V30 7006 C 653.288 3.9298 3.57407 0
M  V30 7007 C 652.327 5.1266 3.34435 0
M  V30 7008 N 651.464 5.36983 4.5232 0
M  V30 7009 H 656.304 2.86881 0.80642 0
M  V30 7010 H 653.841 1.41925 0.386727 0
M  V30 7011 H 655.799 2.59 3.2707 0
M  V30 7012 H 654.429 1.53275 2.84089 0
M  V30 7013 H 653.481 3.51542 1.45337 0
M  V30 7014 H 654.793 4.52131 2.10664 0
M  V30 7015 H 653.947 4.14335 4.43183 0
M  V30 7016 H 652.686 3.03912 3.8143 0
M  V30 7017 H 651.691 4.9117 2.47048 0
M  V30 7018 H 652.916 6.03288 3.11802 0
M  V30 7019 H 650.862 4.50871 4.76499 0
M  V30 7020 H 650.779 6.18775 4.34343 0
M  V30 7021 H 652.047 5.62842 5.39285 0
M  V30 7022 N 656.276 -0.40816 1.52223 0
M  V30 7023 C 657.504 -1.17672 1.70179 0
M  V30 7024 C 657.919 -1.84257 0.411696 0
M  V30 7025 O 657.276 -1.7192 -0.612354 0
M  V30 7026 C 657.327 -2.23911 2.83806 0
M  V30 7027 O 657.048 -1.60044 4.0782 0
M  V30 7028 C 658.549 -3.1364 3.13281 0
M  V30 7029 H 655.769 -0.353562 0.570293 0
M  V30 7030 H 658.313 -0.480083 1.98785 0
M  V30 7031 H 656.468 -2.89242 2.57717 0
M  V30 7032 H 656.882 -2.30484 4.71145 0
M  V30 7033 H 658.356 -3.84255 3.96298 0
M  V30 7034 H 658.833 -3.76066 2.26872 0
M  V30 7035 H 659.439 -2.53977 3.41139 0
M  V30 7036 N 657.755 -1.42862 -0.66545 0
M  V30 7037 C 658.705 -1.43521 -1.7716 0
M  V30 7038 C 659.689 -0.305267 -1.57978 0
M  V30 7039 O 660.881 -0.548176 -1.68297 0
M  V30 7040 C 658.01 -1.34914 -3.15679 0
M  V30 7041 C 657.096 -2.5289 -3.40452 0
M  V30 7042 N 657.487 -3.78284 -3.3576 0
M  V30 7043 C 655.785 -2.47351 -3.71124 0
M  V30 7044 C 656.486 -4.56701 -3.60276 0
M  V30 7045 N 655.462 -3.87249 -3.81496 0
M  V30 7046 H 659.264 -2.38357 -1.7194 0
M  V30 7047 H 656.778 -1.37342 -0.866653 0
M  V30 7048 H 658.775 -1.33468 -3.94958 0
M  V30 7049 H 657.435 -0.410881 -3.2209 0
M  V30 7050 H 658.446 -4.10746 -3.15448 0
M  V30 7051 H 655.123 -1.62152 -3.84725 0
M  V30 7052 H 656.513 -5.65704 -3.6253 0
M  V30 7053 N 659.233 0.902656 -1.29189 0
M  V30 7054 C 660.143 2.03946 -1.15944 0
M  V30 7055 C 661.159 1.738 -0.0833803 0
M  V30 7056 O 662.335 1.9923 -0.29487 0
M  V30 7057 C 659.4 3.36519 -0.834006 0
M  V30 7058 C 658.461 3.80203 -1.9936 0
M  V30 7059 C 657.694 5.06449 -1.68359 0
M  V30 7060 O 657.917 5.67202 -0.603141 0
M  V30 7061 O 656.851 5.46114 -2.53067 0
M  V30 7062 H 660.677 2.18043 -2.11403 0
M  V30 7063 H 658.262 1.02584 -1.08613 0
M  V30 7064 H 660.144 4.16089 -0.666949 0
M  V30 7065 H 658.819 3.23573 0.0908245 0
M  V30 7066 H 657.726 3.01413 -2.21588 0
M  V30 7067 H 659.059 3.97729 -2.89952 0
M  V30 7068 N 660.711 1.11618 1.11262 0
M  V30 7069 C 661.641 0.79846 2.19424 0
M  V30 7070 C 662.622 -0.234003 1.68483 0
M  V30 7071 O 663.807 -0.0970704 1.93957 0
M  V30 7072 C 660.937 0.242892 3.4645 0
M  V30 7073 C 659.891 1.20744 4.10615 0
M  V30 7074 C 659.217 0.512494 5.32238 0
M  V30 7075 C 660.517 2.55884 4.55325 0
M  V30 7076 H 662.211 1.70286 2.46258 0
M  V30 7077 H 659.757 0.820195 1.18359 0
M  V30 7078 H 661.71 0.00840447 4.21399 0
M  V30 7079 H 660.434 -0.696811 3.1908 0
M  V30 7080 H 659.093 1.42759 3.37662 0
M  V30 7081 H 658.741 -0.432075 5.01141 0
M  V30 7082 H 658.441 1.15583 5.7612 0
M  V30 7083 H 659.965 0.286842 6.09926 0
M  V30 7084 H 661.379 2.37946 5.21588 0
M  V30 7085 H 659.776 3.16216 5.10027 0
M  V30 7086 H 660.846 3.14968 3.68678 0
M  V30 7087 N 662.189 -1.289 0.906776 0
M  V30 7088 C 663.139 -2.25122 0.361109 0
M  V30 7089 C 664.123 -1.52169 -0.52283 0
M  V30 7090 O 665.315 -1.73223 -0.363691 0
M  V30 7091 C 662.444 -3.40915 -0.403982 0
M  V30 7092 C 661.53 -4.21198 0.495279 0
M  V30 7093 N 661.921 -4.79636 1.60572 0
M  V30 7094 C 660.219 -4.45027 0.294372 0
M  V30 7095 C 660.92 -5.39977 2.16332 0
M  V30 7096 N 659.896 -5.23753 1.45546 0
M  V30 7097 H 663.698 -2.67869 1.20927 0
M  V30 7098 H 661.212 -1.43592 0.758632 0
M  V30 7099 H 663.209 -4.08922 -0.811695 0
M  V30 7100 H 661.869 -2.99703 -1.24932 0
M  V30 7101 H 662.88 -4.78209 1.98838 0
M  V30 7102 H 659.557 -4.14348 -0.512021 0
M  V30 7103 H 660.947 -5.96266 3.09704 0
M  V30 7104 N 663.667 -0.670007 -1.42649 0
M  V30 7105 C 664.597 -0.00258501 -2.335 0
M  V30 7106 C 665.578 0.794364 -1.50412 0
M  V30 7107 O 666.763 0.75248 -1.79029 0
M  V30 7108 C 663.893 0.952748 -3.33976 0
M  V30 7109 C 662.847 0.264733 -4.2718 0
M  V30 7110 C 662.173 1.33267 -5.17826 0
M  V30 7111 C 663.473 -0.853289 -5.15283 0
M  V30 7112 H 665.167 -0.761326 -2.89559 0
M  V30 7113 H 662.713 -0.367561 -1.3923 0
M  V30 7114 H 664.666 1.4287 -3.96442 0
M  V30 7115 H 663.39 1.74285 -2.7621 0
M  V30 7116 H 662.049 -0.190938 -3.66102 0
M  V30 7117 H 661.697 2.11464 -4.5639 0
M  V30 7118 H 661.397 0.877476 -5.81011 0
M  V30 7119 H 662.921 1.80965 -5.83167 0
M  V30 7120 H 664.335 -0.458763 -5.71462 0
M  V30 7121 H 662.732 -1.23398 -5.87276 0
M  V30 7122 H 663.802 -1.70412 -4.53969 0
M  V30 7123 O 665.184 1.51659 -0.55515 0
M  V30 7124 H 665.875 1.9363 -0.0521056 0
M  V30 END ATOM
M  V30 BEGIN BOND
M  V30 END BOND
M  V30 END CTAB
M  END
$$$$
