drugbank_target|Q96RQ9 L-amino-acid oxidase (DB03147; DB03214; DB04166; DB04272)
 OpenBabel12092120553D

  0  0  0     0  0            999 V3000
M  V30 BEGIN CTAB
M  V30 COUNTS 8878 8991 0 0 0
M  V30 BEGIN ATOM
M  V30 1 H -0.908 1.98254 -0.117106 0
M  V30 2 N 0 1.576 0 0
M  V30 3 C 0.933 2.03868 1.02534 0
M  V30 4 C 1.911 0.928543 1.3348 0
M  V30 5 O 3.095 1.19667 1.45644 0
M  V30 6 C 0.222 2.43627 2.35294 0
M  V30 7 C -0.732 3.65373 2.2001 0
M  V30 8 S 0.101 5.13292 1.52614 0
M  V30 9 C 1.257 5.56322 2.86805 0
M  V30 10 H 1.49 2.90518 0.631377 0
M  V30 11 H -0.977 1.52953 0.210867 0
M  V30 12 H 0.981 2.67203 3.11629 0
M  V30 13 H -0.358 1.57376 2.7183 0
M  V30 14 H -1.165 3.90944 3.18086 0
M  V30 15 H -1.563 3.418 1.51819 0
M  V30 16 H 0.729 5.58782 3.83104 0
M  V30 17 H 1.672 6.56266 2.65933 0
M  V30 18 H 2.08 4.83886 2.90714 0
M  V30 19 N 1.4781 -0.272755 1.55222 0
M  V30 20 C 2.4411 -1.32041 1.87344 0
M  V30 21 C 3.4411 -1.42342 0.74803 0
M  V30 22 O 4.6311 -1.41488 1.0162 0
M  V30 23 C 1.7631 -2.70173 2.07893 0
M  V30 24 H 2.9561 -1.04789 2.80997 0
M  V30 25 H 0.5091 -0.51083 1.47717 0
M  V30 26 H 1.2441 -3.02605 1.16622 0
M  V30 27 H 1.0291 -2.64082 2.89833 0
M  V30 28 H 2.5191 -3.45869 2.34017 0
M  V30 29 N 2.9562 -1.48159 -0.537278 0
M  V30 30 C 4.3672 -1.49429 -1.11928 0
M  V30 31 C 4.7182 -0.26 -1.9447 0
M  V30 32 O 3.8432 0.633489 -2.0692 0
M  V30 33 C 4.4382 -2.70758 -2.03656 0
M  V30 34 C 2.9972 -2.74923 -2.57088 0
M  V30 35 C 2.1442 -2.42835 -1.3389 0
M  V30 36 H 5.0952 -1.55381 -0.322886 0
M  V30 37 H 5.1162 -2.48861 -2.87834 0
M  V30 38 H 4.6282 -3.60575 -1.43553 0
M  V30 39 H 2.7292 -1.89296 -3.20933 0
M  V30 40 H 2.8422 -3.76157 -2.9672 0
M  V30 41 H 1.2062 -1.93836 -1.65226 0
M  V30 42 H 1.9892 -3.34884 -0.755504 0
M  V30 43 N 4.4343 0.785586 -1.36625 0
M  V30 44 C 5.3643 1.91259 -1.33949 0
M  V30 45 C 6.3453 1.68795 -0.210325 0
M  V30 46 O 7.5303 1.89854 -0.408561 0
M  V30 47 C 4.6603 3.28339 -1.13186 0
M  V30 48 C 3.6143 3.65335 -2.22967 0
M  V30 49 C 2.9403 5.00806 -1.87342 0
M  V30 50 C 4.2403 3.7352 -3.65075 0
M  V30 51 H 5.9343 1.93755 -2.28253 0
M  V30 52 H 3.4803 0.930788 -1.09874 0
M  V30 53 H 5.4333 4.06804 -1.09948 0
M  V30 54 H 4.1573 3.2624 -0.153332 0
M  V30 55 H 2.8163 2.89169 -2.25337 0
M  V30 56 H 2.4643 4.95233 -0.880545 0
M  V30 57 H 2.1643 5.26529 -2.60846 0
M  V30 58 H 3.6883 5.81687 -1.85667 0
M  V30 59 H 5.1023 4.42168 -3.64911 0
M  V30 60 H 3.4993 4.10731 -4.37516 0
M  V30 61 H 4.5693 2.74527 -3.99703 0
M  V30 62 N 5.9124 1.20967 1.01018 0
M  V30 63 C 6.8754 0.965918 2.07853 0
M  V30 64 C 7.8754 -0.0610545 1.60684 0
M  V30 65 O 9.0654 0.175681 1.73312 0
M  V30 66 C 6.1974 0.455513 3.37843 0
M  V30 67 H 7.3904 1.91365 2.3091 0
M  V30 68 H 4.9434 1.02594 1.17916 0
M  V30 69 H 5.6784 -0.497381 3.20463 0
M  V30 70 H 5.4634 1.19622 3.73407 0
M  V30 71 H 6.9534 0.304667 4.16487 0
M  V30 72 N 7.3905 -1.2043 1.01659 0
M  V30 73 C 8.3205 -2.25466 0.607226 0
M  V30 74 C 9.3015 -1.65853 -0.377716 0
M  V30 75 O 10.4865 -1.92409 -0.263149 0
M  V30 76 C 7.6165 -3.47256 -0.0552949 0
M  V30 77 C 6.5705 -4.19462 0.850632 0
M  V30 78 C 5.8965 -5.34673 0.0538859 0
M  V30 79 C 7.1965 -4.75603 2.15868 0
M  V30 80 H 8.8905 -2.59962 1.48526 0
M  V30 81 H 6.4365 -1.2496 0.715605 0
M  V30 82 H 8.3895 -4.19917 -0.353233 0
M  V30 83 H 7.1135 -3.11924 -0.968045 0
M  V30 84 H 5.7725 -3.48667 1.13257 0
M  V30 85 H 5.4205 -4.95585 -0.860514 0
M  V30 86 H 5.1205 -5.83913 0.657192 0
M  V30 87 H 6.6445 -6.10138 -0.237598 0
M  V30 88 H 8.0585 -5.40083 1.92311 0
M  V30 89 H 6.4555 -5.3528 2.71284 0
M  V30 90 H 7.5255 -3.94346 2.82169 0
M  V30 91 N 8.8686 -0.792821 -1.36206 0
M  V30 92 C 9.8186 -0.166598 -2.27391 0
M  V30 93 C 10.8026 0.651479 -1.47121 0
M  V30 94 O 11.9946 0.510994 -1.69463 0
M  V30 95 C 9.1236 0.695033 -3.36191 0
M  V30 96 C 8.2096 -0.132019 -4.23894 0
M  V30 97 N 8.6006 -1.18822 -4.91645 0
M  V30 98 C 6.8986 0.0885952 -4.45912 0
M  V30 99 C 7.5996 -1.69198 -5.56549 0
M  V30 100 N 6.5756 -1.00065 -5.34311 0
M  V30 101 H 10.3776 -0.974947 -2.77258 0
M  V30 102 H 7.8916 -0.632616 -1.49572 0
M  V30 103 H 9.8886 1.1596 -4.00448 0
M  V30 104 H 8.5486 1.50189 -2.87877 0
M  V30 105 H 9.5596 -1.57069 -4.93507 0
M  V30 106 H 6.2366 0.865688 -4.08426 0
M  V30 107 H 7.6266 -2.57395 -6.20643 0
M  V30 108 N 10.3467 1.47872 -0.545128 0
M  V30 109 C 11.2767 2.32661 0.197793 0
M  V30 110 C 12.2577 1.43041 0.920504 0
M  V30 111 O 13.4427 1.71912 0.90333 0
M  V30 112 C 10.5727 3.24569 1.23582 0
M  V30 113 C 9.5267 4.23333 0.630323 0
M  V30 114 C 8.8527 5.0448 1.77211 0
M  V30 115 C 10.1527 5.20704 -0.407974 0
M  V30 116 H 11.8467 2.95024 -0.510045 0
M  V30 117 H 9.3927 1.4187 -0.246731 0
M  V30 118 H 11.3457 3.8272 1.76362 0
M  V30 119 H 10.0697 2.60236 1.97344 0
M  V30 120 H 8.7287 3.6639 0.123922 0
M  V30 121 H 8.3767 4.36561 2.49847 0
M  V30 122 H 8.0767 5.71339 1.37281 0
M  V30 123 H 9.6007 5.65487 2.3034 0
M  V30 124 H 11.0147 5.7329 0.033305 0
M  V30 125 H 9.4117 5.95699 -0.725486 0
M  V30 126 H 10.4817 4.66917 -1.30828 0
M  V30 127 N 11.8248 0.280983 1.55075 0
M  V30 128 C 12.7548 -0.597469 2.25727 0
M  V30 129 C 13.7358 -1.15417 1.24952 0
M  V30 130 O 14.9208 -1.18722 1.53684 0
M  V30 131 C 12.0508 -1.7789 2.98283 0
M  V30 132 C 11.0048 -1.35347 4.06036 0
M  V30 133 C 10.3308 -2.61846 4.66198 0
M  V30 134 C 11.6308 -0.499354 5.19907 0
M  V30 135 H 13.3248 -0.00824265 2.99399 0
M  V30 136 H 10.8708 -0.0025244 1.44 0
M  V30 137 H 12.8238 -2.39937 3.46422 0
M  V30 138 H 11.5478 -2.39405 2.22155 0
M  V30 139 H 10.2068 -0.756156 3.58717 0
M  V30 140 H 9.8548 -3.21632 3.86732 0
M  V30 141 H 9.5548 -2.3409 5.38958 0
M  V30 142 H 11.0788 -3.24732 5.1709 0
M  V30 143 H 12.4928 -1.02498 5.64063 0
M  V30 144 H 10.8898 -0.316424 5.99265 0
M  V30 145 H 11.9598 0.480459 4.82514 0
M  V30 146 N 13.3029 -1.57598 0.00835791 0
M  V30 147 C 14.5489 -1.91211 -0.675732 0
M  V30 148 C 14.8819 -0.883139 -1.72958 0
M  V30 149 O 14.1569 0.097016 -1.94258 0
M  V30 150 C 14.4399 -3.35379 -1.31123 0
M  V30 151 C 14.2929 -4.48999 -0.268356 0
M  V30 152 C 15.6119 -3.7912 -2.23508 0
M  V30 153 H 12.7309 -0.695374 -0.244179 0
M  V30 154 H 15.3729 -1.89901 0.0613655 0
M  V30 155 H 13.5229 -3.36626 -1.93946 0
M  V30 156 H 15.1949 -4.59887 0.360844 0
M  V30 157 H 13.4379 -4.31873 0.408482 0
M  V30 158 H 14.1089 -5.46851 -0.752218 0
M  V30 159 H 16.5849 -3.79477 -1.70693 0
M  V30 160 H 15.4609 -4.80729 -2.64936 0
M  V30 161 H 15.7219 -3.13455 -3.11766 0
M  V30 162 N 14.781 0.264519 -1.55364 0
M  V30 163 C 15.711 1.33121 -1.91836 0
M  V30 164 C 16.692 1.51101 -0.781192 0
M  V30 165 O 17.877 1.64003 -1.04003 0
M  V30 166 C 15.007 2.68921 -2.19769 0
M  V30 167 C 13.961 2.65661 -3.35571 0
M  V30 168 C 13.287 4.05093 -3.49004 0
M  V30 169 C 14.587 2.24187 -4.71739 0
M  V30 170 H 16.281 1.02844 -2.81182 0
M  V30 171 H 13.827 0.493286 -1.35287 0
M  V30 172 H 15.78 3.43663 -2.43872 0
M  V30 173 H 14.504 3.00799 -1.27231 0
M  V30 174 H 13.163 1.93377 -3.1145 0
M  V30 175 H 12.811 4.34206 -2.53917 0
M  V30 176 H 12.511 4.03804 -4.26868 0
M  V30 177 H 14.035 4.81561 -3.75408 0
M  V30 178 H 15.449 2.88654 -4.9533 0
M  V30 179 H 13.846 2.34044 -5.52579 0
M  V30 180 H 14.916 1.19327 -4.69988 0
M  V30 181 N 16.2591 1.48442 0.529413 0
M  V30 182 C 17.5051 1.5672 1.28711 0
M  V30 183 C 17.8381 0.2406 1.92704 0
M  V30 184 O 17.1131 -0.753454 1.79313 0
M  V30 185 C 17.3961 2.70587 2.37603 0
M  V30 186 C 17.2491 4.12953 1.78297 0
M  V30 187 C 18.5681 2.80212 3.39366 0
M  V30 188 H 15.6871 0.570474 0.466613 0
M  V30 189 H 18.3291 1.80617 0.589706 0
M  V30 190 H 16.4791 2.50342 2.97088 0
M  V30 191 H 18.1511 4.44639 1.22858 0
M  V30 192 H 16.3941 4.19927 1.0883 0
M  V30 193 H 17.0651 4.88448 2.57144 0
M  V30 194 H 19.5411 2.98553 2.89836 0
M  V30 195 H 18.4171 3.61611 4.12951 0
M  V30 196 H 18.6781 1.88393 3.99951 0
M  V30 197 N 17.7372 -0.778329 1.37039 0
M  V30 198 C 19.1482 -1.35421 1.28523 0
M  V30 199 C 19.4992 -1.96075 -0.0700901 0
M  V30 200 O 18.6242 -1.93352 -0.971801 0
M  V30 201 C 19.2192 -2.46211 2.32735 0
M  V30 202 C 17.7782 -2.99585 2.27873 0
M  V30 203 C 16.9252 -1.72748 2.16918 0
M  V30 204 H 19.8762 -0.5791 1.47757 0
M  V30 205 H 19.8972 -3.2552 1.9702 0
M  V30 206 H 19.4092 -2.02036 3.31365 0
M  V30 207 H 17.5102 -3.48152 1.32745 0
M  V30 208 H 17.6232 -3.55646 3.21018 0
M  V30 209 H 15.9872 -1.95416 1.63354 0
M  V30 210 H 16.7702 -1.30686 3.17452 0
M  V30 211 N 19.2153 -1.21501 -1.00376 0
M  V30 212 C 20.4643 -1.02718 -1.73586 0
M  V30 213 C 20.7773 0.439589 -1.90596 0
M  V30 214 O 21.9833 0.746848 -2.61026 0
M  V30 215 C 20.4393 -1.78929 -3.1227 0
M  V30 216 C 20.0473 -3.29783 -3.03228 0
M  V30 217 C 21.7913 -1.68557 -3.89601 0
M  V30 218 C 19.6983 -3.98479 -4.36999 0
M  V30 219 H 18.6283 -0.380733 -0.650814 0
M  V30 220 H 21.2793 -1.45248 -1.1214 0
M  V30 221 H 19.6613 -1.29192 -3.74333 0
M  V30 222 H 20.8353 -3.86832 -2.50395 0
M  V30 223 H 19.1503 -3.40711 -2.39385 0
M  V30 224 H 21.7473 -2.17211 -4.88593 0
M  V30 225 H 22.0903 -0.644021 -4.11288 0
M  V30 226 H 22.6233 -2.15778 -3.34193 0
M  V30 227 H 19.3623 -5.02841 -4.20513 0
M  V30 228 H 18.8823 -3.46219 -4.89788 0
M  V30 229 H 20.5613 -4.03462 -5.05794 0
M  V30 230 N 20.6934 1.19889 -1.02296 0
M  V30 231 C 21.6234 2.25141 -0.619174 0
M  V30 232 C 22.6044 1.66051 0.368915 0
M  V30 233 O 23.7894 1.92546 0.252941 0
M  V30 234 C 20.9194 3.4728 0.0368783 0
M  V30 235 C 19.8734 4.19005 -0.872865 0
M  V30 236 C 19.1994 5.34637 -0.0822402 0
M  V30 237 C 20.4994 4.74452 -2.18387 0
M  V30 238 H 22.1934 2.59171 -1.49903 0
M  V30 239 H 19.7394 1.24579 -0.722222 0
M  V30 240 H 21.6924 4.20098 0.330958 0
M  V30 241 H 20.4164 3.12433 0.95149 0
M  V30 242 H 19.0754 3.48061 -1.15105 0
M  V30 243 H 18.7234 4.96034 0.83422 0
M  V30 244 H 18.4234 5.83557 -0.688149 0
M  V30 245 H 19.9474 6.10255 0.205238 0
M  V30 246 H 21.3614 5.39055 -1.95172 0
M  V30 247 H 19.7584 5.33834 -2.74119 0
M  V30 248 H 20.8284 3.92844 -2.84257 0
M  V30 249 N 22.1715 0.800033 1.35784 0
M  V30 250 C 23.1015 0.220184 2.3246 0
M  V30 251 C 24.0825 -0.65073 1.57161 0
M  V30 252 O 25.2675 -0.582359 1.85263 0
M  V30 253 C 22.3975 -0.637353 3.41402 0
M  V30 254 C 21.3515 0.134531 4.27789 0
M  V30 255 C 20.6775 -0.844285 5.27992 0
M  V30 256 C 21.9775 1.32979 5.05088 0
M  V30 257 H 23.6715 1.02787 2.81203 0
M  V30 258 H 21.2175 0.495717 1.35199 0
M  V30 259 H 23.1705 -1.05302 4.08031 0
M  V30 260 H 21.8945 -1.47785 2.91251 0
M  V30 261 H 20.5535 0.531296 3.6273 0
M  V30 262 H 20.2015 -1.68011 4.74111 0
M  V30 263 H 19.9015 -0.332184 5.8666 0
M  V30 264 H 21.4255 -1.2583 5.97494 0
M  V30 265 H 22.8395 0.98934 5.64699 0
M  V30 266 H 21.2365 1.77593 5.7322 0
M  V30 267 H 22.3065 2.11978 4.36111 0
M  V30 268 N 23.6496 -1.47581 0.552962 0
M  V30 269 C 24.8746 -2.07378 0.0300593 0
M  V30 270 C 25.2996 -1.40355 -1.25229 0
M  V30 271 O 24.6576 -0.477099 -1.7491 0
M  V30 272 C 24.7056 -3.60274 -0.153231 0
M  V30 273 O 23.8096 -3.94041 -1.21678 0
M  V30 274 H 23.1506 -0.662158 0.0494182 0
M  V30 275 H 25.6806 -1.89662 0.767434 0
M  V30 276 H 25.6906 -4.0633 -0.368761 0
M  V30 277 H 24.3656 -4.08455 0.783397 0
M  V30 278 H 22.9426 -3.59735 -0.982079 0
M  V30 279 N 25.1277 -0.289203 -1.54924 0
M  V30 280 C 26.0577 0.58549 -2.2604 0
M  V30 281 C 27.0387 1.14753 -1.25562 0
M  V30 282 O 28.2237 1.17906 -1.54311 0
M  V30 283 C 25.3537 1.76305 -2.99222 0
M  V30 284 C 24.3077 1.33191 -4.06748 0
M  V30 285 C 23.6337 2.5937 -4.6758 0
M  V30 286 C 24.9337 0.471775 -5.20165 0
M  V30 287 H 26.6277 -0.00763532 -2.99399 0
M  V30 288 H 24.1737 -0.00511229 -1.43999 0
M  V30 289 H 26.1267 2.38097 -3.47689 0
M  V30 290 H 24.8507 2.38223 -2.23422 0
M  V30 291 H 23.5097 0.737121 -3.59113 0
M  V30 292 H 23.1577 3.19576 -3.88433 0
M  V30 293 H 22.8577 2.31228 -5.40192 0
M  V30 294 H 24.3817 3.21985 -5.18804 0
M  V30 295 H 25.7957 0.995056 -5.64599 0
M  V30 296 H 24.1927 0.284639 -5.99425 0
M  V30 297 H 25.2627 -0.506041 -4.82252 0
M  V30 298 N 26.6058 1.57591 -0.0167156 0
M  V30 299 C 27.8518 1.91567 0.665582 0
M  V30 300 C 28.1848 0.892298 1.72487 0
M  V30 301 O 27.4598 -0.0867127 1.94307 0
M  V30 302 C 27.7428 3.36069 1.29342 0
M  V30 303 C 27.5958 4.49135 0.244541 0
M  V30 304 C 28.9148 3.803 2.21495 0
M  V30 305 H 26.0338 0.69666 0.240488 0
M  V30 306 H 28.6758 1.89866 -0.0714356 0
M  V30 307 H 26.8258 3.3765 1.92158 0
M  V30 308 H 28.4978 4.59689 -0.385228 0
M  V30 309 H 26.7408 4.3165 -0.431379 0
M  V30 310 H 27.4118 5.47242 0.723207 0
M  V30 311 H 29.8878 3.80377 1.68678 0
M  V30 312 H 28.7638 4.82127 2.62382 0
M  V30 313 H 29.0248 3.15104 3.101 0
M  V30 314 N 28.0839 -0.256276 1.55502 0
M  V30 315 C 29.0469 -1.30047 1.88734 0
M  V30 316 C 30.0469 -1.4154 0.763086 0
M  V30 317 O 31.2369 -1.40403 1.03115 0
M  V30 318 C 28.3689 -2.67953 2.10747 0
M  V30 319 H 29.5619 -1.01802 2.82093 0
M  V30 320 H 27.1149 -0.495134 1.4825 0
M  V30 321 H 27.8499 -3.01351 1.19825 0
M  V30 322 H 27.6349 -2.60993 2.92617 0
M  V30 323 H 29.1249 -3.43368 2.37673 0
M  V30 324 N 29.562 -1.4872 -0.521534 0
M  V30 325 C 30.787 -1.61101 -1.30618 0
M  V30 326 C 31.212 -0.274611 -1.86085 0
M  V30 327 O 30.57 0.754937 -1.64834 0
M  V30 328 C 30.618 -2.66709 -2.4269 0
M  V30 329 O 29.722 -2.24456 -3.45967 0
M  V30 330 H 29.063 -0.539921 -0.386499 0
M  V30 331 H 31.593 -1.94767 -0.626645 0
M  V30 332 H 31.603 -2.88245 -2.88754 0
M  V30 333 H 30.278 -3.63727 -2.01682 0
M  V30 334 H 28.855 -2.13168 -3.05964 0
M  V30 335 N 31.0401 0.771051 -1.3745 0
M  V30 336 C 31.9721 1.89352 -1.29146 0
M  V30 337 C 32.9851 1.61477 -0.207124 0
M  V30 338 O 34.1741 1.72382 -0.463324 0
M  V30 339 C 31.2741 3.24596 -0.974195 0
M  V30 340 C 30.4471 3.80111 -2.16413 0
M  V30 341 C 29.5061 4.93832 -1.81703 0
M  V30 342 O 28.5321 5.09382 -2.54006 0
M  V30 343 N 29.7341 5.75483 -0.761573 0
M  V30 344 H 32.4991 1.96991 -2.25864 0
M  V30 345 H 30.0601 0.950191 -1.31084 0
M  V30 346 H 32.0521 3.98193 -0.722828 0
M  V30 347 H 30.6221 3.12454 -0.0955527 0
M  V30 348 H 29.8421 2.98284 -2.57721 0
M  V30 349 H 31.1301 4.13932 -2.95867 0
M  V30 350 H 30.5281 5.65469 -0.161609 0
M  V30 351 H 29.0851 6.49302 -0.570064 0
M  V30 352 N 32.5182 1.22032 0.997298 0
M  V30 353 C 33.7952 0.950823 1.70935 0
M  V30 354 C 34.1752 -0.535292 2.042 0
M  V30 355 O 33.5232 -1.50217 1.72183 0
M  V30 356 C 33.7332 1.84386 2.96315 0
M  V30 357 C 35.0812 2.09732 3.69185 0
M  V30 358 O 36.1052 1.81798 3.06314 0
M  V30 359 O 34.9642 2.57018 4.82291 0
M  V30 360 H 32.0582 0.357204 0.745878 0
M  V30 361 H 34.6042 1.32997 1.05404 0
M  V30 362 H 33.3762 2.84928 2.68201 0
M  V30 363 H 32.9992 1.46602 3.69586 0
M  V30 364 N 33.9963 -1.19345 1.0293 0
M  V30 365 C 35.2423 -1.89585 0.736824 0
M  V30 366 C 35.5973 -1.78148 -0.726703 0
M  V30 367 O 34.8903 -1.16332 -1.52242 0
M  V30 368 C 35.0843 -3.39292 1.12319 0
M  V30 369 C 34.9133 -3.65298 2.62273 0
M  V30 370 C 33.6833 -3.83304 3.29251 0
M  V30 371 C 35.8813 -3.6682 3.60482 0
M  V30 372 N 33.8633 -3.96944 4.68304 0
M  V30 373 C 35.2343 -3.86037 4.85155 0
M  V30 374 C 37.2893 -3.49848 3.54275 0
M  V30 375 C 35.9923 -3.9004 6.04369 0
M  V30 376 C 38.0183 -3.55129 4.72903 0
M  V30 377 C 37.3803 -3.74831 5.9639 0
M  V30 378 H 33.4793 -0.712856 0.321497 0
M  V30 379 H 36.0633 -1.43427 1.31669 0
M  V30 380 H 34.2343 -3.84172 0.571524 0
M  V30 381 H 35.9663 -3.97055 0.78292 0
M  V30 382 H 32.7213 -3.82211 2.79663 0
M  V30 383 H 33.1453 -4.07613 5.40538 0
M  V30 384 H 37.7873 -3.33572 2.59788 0
M  V30 385 H 35.5053 -4.05108 6.99223 0
M  V30 386 H 39.0913 -3.43287 4.69729 0
M  V30 387 H 37.9713 -3.78792 6.86649 0
M  V30 388 N 35.4744 -0.807222 -1.35358 0
M  V30 389 C 36.4214 -0.216037 -2.29787 0
M  V30 390 C 37.3914 0.650278 -1.52842 0
M  V30 391 O 38.5764 0.595227 -1.81278 0
M  V30 392 C 35.7164 0.628893 -3.39321 0
M  V30 393 C 34.8294 -0.257927 -4.31229 0
M  V30 394 C 33.9644 0.595069 -5.27856 0
M  V30 395 C 33.0034 -0.292111 -6.11403 0
M  V30 396 N 32.1404 0.520895 -7.00165 0
M  V30 397 H 36.9804 -1.02671 -2.79755 0
M  V30 398 H 34.5174 -0.517839 -1.37684 0
M  V30 399 H 36.4754 1.13393 -4.01494 0
M  V30 400 H 35.1054 1.40482 -2.90628 0
M  V30 401 H 34.1574 -0.881076 -3.70056 0
M  V30 402 H 35.4694 -0.940759 -4.89848 0
M  V30 403 H 34.6234 1.16522 -5.95405 0
M  V30 404 H 33.3624 1.31146 -4.69736 0
M  V30 405 H 32.3674 -0.874525 -5.428 0
M  V30 406 H 33.5924 -1.00638 -6.71602 0
M  V30 407 H 31.5384 1.22125 -6.44532 0
M  V30 408 H 31.4554 -0.103877 -7.55929 0
M  V30 409 H 32.7234 1.0743 -7.72062 0
M  V30 410 N 36.9525 1.47285 -0.560781 0
M  V30 411 C 37.9155 2.28535 0.174488 0
M  V30 412 C 38.9155 1.37153 0.839388 0
M  V30 413 O 40.1055 1.59748 0.694702 0
M  V30 414 C 37.2375 3.16934 1.25561 0
M  V30 415 H 38.4305 2.95012 -0.539262 0
M  V30 416 H 35.9835 1.53034 -0.317865 0
M  V30 417 H 36.7185 2.55157 2.00164 0
M  V30 418 H 36.5035 3.8419 0.783604 0
M  V30 419 H 37.9935 3.78143 1.77193 0
M  V30 420 N 38.4306 0.297415 1.54768 0
M  V30 421 C 39.3406 -0.58983 2.27064 0
M  V30 422 C 40.3566 -1.15144 1.30453 0
M  V30 423 O 41.5326 -1.17699 1.63428 0
M  V30 424 C 38.5976 -1.74714 2.9946 0
M  V30 425 C 37.6586 -1.21997 4.11601 0
M  V30 426 C 36.8916 -2.32212 4.80535 0
M  V30 427 O 37.1146 -3.52036 4.48806 0
M  V30 428 O 36.0486 -1.99106 5.68014 0
M  V30 429 H 39.8746 -0.00348199 3.037 0
M  V30 430 H 37.4596 0.0640035 1.49263 0
M  V30 431 H 39.3416 -2.42147 3.44881 0
M  V30 432 H 38.0166 -2.32016 2.25722 0
M  V30 433 H 36.9236 -0.511458 3.70587 0
M  V30 434 H 38.2566 -0.692419 4.87305 0
M  V30 435 N 39.9087 -1.5758 0.0250728 0
M  V30 436 C 41.3247 -1.56124 -0.331282 0
M  V30 437 C 41.5247 -1.03029 -1.73169 0
M  V30 438 O 40.5807 -0.675215 -2.43305 0
M  V30 439 C 41.8937 -3.00139 -0.183584 0
M  V30 440 C 43.4417 -3.11946 -0.256654 0
M  V30 441 C 43.9167 -4.57793 -0.137792 0
M  V30 442 N 45.4077 -4.6279 -0.194904 0
M  V30 443 C 46.1427 -5.7326 -0.126655 0
M  V30 444 N 45.6387 -6.928 -0.00755288 0
M  V30 445 N 47.4317 -5.61811 -0.180348 0
M  V30 446 H 39.5827 -1.90424 0.94087 0
M  V30 447 H 41.8457 -0.875761 0.362968 0
M  V30 448 H 41.5517 -3.4292 0.780927 0
M  V30 449 H 41.4257 -3.64899 -0.955448 0
M  V30 450 H 43.8127 -2.69079 -1.21162 0
M  V30 451 H 43.8937 -2.49915 0.545517 0
M  V30 452 H 43.5377 -5.01339 0.813739 0
M  V30 453 H 43.4677 -5.17798 -0.958775 0
M  V30 454 H 45.9587 -3.76807 -0.287267 0
M  V30 455 H 46.2717 -7.72791 0.0379428 0
M  V30 456 H 44.6167 -6.94995 0.0271731 0
M  V30 457 H 47.8077 -4.6731 -0.271767 0
M  V30 458 H 47.9807 -6.47882 -0.123697 0
M  V30 459 N 41.3868 0.248026 -1.55636 0
M  V30 460 C 42.6118 0.998028 -1.81808 0
M  V30 461 C 43.0368 1.78207 -0.601979 0
M  V30 462 O 42.3948 1.75653 0.448961 0
M  V30 463 C 42.4428 1.9125 -3.05705 0
M  V30 464 O 41.5468 3.00406 -2.82542 0
M  V30 465 H 40.8878 0.284045 -0.600179 0
M  V30 466 H 43.4178 0.269357 -2.02819 0
M  V30 467 H 43.4278 2.32737 -3.35108 0
M  V30 468 H 42.1028 1.33602 -3.93857 0
M  V30 469 H 40.6798 2.63056 -2.64303 0
M  V30 470 N 42.8649 1.48995 0.513639 0
M  V30 471 C 43.7969 1.60836 1.63293 0
M  V30 472 C 44.8099 0.491701 1.55197 0
M  V30 473 O 45.9989 0.763238 1.6136 0
M  V30 474 C 43.0989 1.53731 3.02027 0
M  V30 475 C 42.2719 2.80715 3.35437 0
M  V30 476 C 41.3309 2.66837 4.53525 0
M  V30 477 O 40.3569 3.40753 4.55934 0
M  V30 478 N 41.5589 1.77539 5.52684 0
M  V30 479 H 44.3239 2.57366 1.53566 0
M  V30 480 H 41.8849 1.45925 0.701259 0
M  V30 481 H 43.8769 1.42118 3.78926 0
M  V30 482 H 42.4469 0.651092 3.05744 0
M  V30 483 H 41.6669 3.06772 2.47557 0
M  V30 484 H 42.9549 3.64927 3.54551 0
M  V30 485 H 42.3529 1.16719 5.53528 0
M  V30 486 H 40.9099 1.71856 6.28736 0
M  V30 487 N 44.343 -0.763751 1.37857 0
M  V30 488 C 45.62 -1.51244 1.24035 0
M  V30 489 C 46 -2.10472 -0.162649 0
M  V30 490 O 45.348 -1.96206 -1.17112 0
M  V30 491 C 45.558 -2.58694 2.34261 0
M  V30 492 C 46.906 -3.25878 2.72193 0
M  V30 493 O 47.93 -2.68993 2.33497 0
M  V30 494 O 46.789 -4.2874 3.38887 0
M  V30 495 H 43.883 -0.670243 0.484462 0
M  V30 496 H 46.429 -0.800031 1.49658 0
M  V30 497 H 45.201 -2.13105 3.2818 0
M  V30 498 H 44.824 -3.37527 2.10146 0
M  V30 499 N 45.8211 -1.22559 -0.990812 0
M  V30 500 C 47.2321 -1.04791 -1.54518 0
M  V30 501 C 47.5831 0.387998 -1.92325 0
M  V30 502 O 46.7081 1.27328 -1.74976 0
M  V30 503 C 47.3031 -1.896 -2.80779 0
M  V30 504 C 45.8621 -1.76124 -3.32652 0
M  V30 505 C 45.0091 -1.8594 -2.05722 0
M  V30 506 H 47.9601 -1.36374 -0.811662 0
M  V30 507 H 47.9811 -1.41464 -3.53225 0
M  V30 508 H 47.4931 -2.94101 -2.53231 0
M  V30 509 H 45.5941 -0.743643 -3.65104 0
M  V30 510 H 45.7071 -2.58913 -4.03114 0
M  V30 511 H 44.0711 -1.29403 -2.19379 0
M  V30 512 H 44.8541 -2.91976 -1.80568 0
M  V30 513 N 47.2992 1.18797 -1.03562 0
M  V30 514 C 48.5462 1.8865 -0.736023 0
M  V30 515 C 48.8742 1.80041 0.735889 0
M  V30 516 O 48.1292 1.19179 1.55225 0
M  V30 517 C 48.4282 3.38692 -1.14117 0
M  V30 518 C 48.0942 3.67504 -2.6125 0
M  V30 519 C 46.7562 3.75078 -3.01447 0
M  V30 520 C 49.1082 3.80293 -3.56408 0
M  V30 521 C 46.4362 3.92915 -4.35701 0
M  V30 522 C 48.7882 3.99645 -4.90374 0
M  V30 523 C 47.4522 4.05453 -5.30249 0
M  V30 524 H 46.7222 0.690321 -0.26933 0
M  V30 525 H 49.3692 1.40641 -1.29971 0
M  V30 526 H 47.6742 3.88645 -0.496202 0
M  V30 527 H 49.3712 3.91072 -0.886789 0
M  V30 528 H 45.9612 3.62223 -2.29113 0
M  V30 529 H 50.1452 3.73779 -3.26501 0
M  V30 530 H 45.4012 3.95653 -4.66121 0
M  V30 531 H 49.5752 4.08482 -5.64017 0
M  V30 532 H 47.2022 4.19027 -6.34288 0
M  V30 533 N 48.7773 0.814389 1.34928 0
M  V30 534 C 49.6873 0.231978 2.3345 0
M  V30 535 C 50.7033 -0.629139 1.62228 0
M  V30 536 O 51.8793 -0.539052 1.94052 0
M  V30 537 C 48.9443 -0.603482 3.41407 0
M  V30 538 C 48.0053 0.279037 4.28392 0
M  V30 539 C 47.2383 -0.516643 5.31193 0
M  V30 540 O 47.4613 -1.75068 5.4287 0
M  V30 541 O 46.3953 0.0965652 6.01823 0
M  V30 542 H 50.2213 1.04721 2.85074 0
M  V30 543 H 47.8063 0.576343 1.37836 0
M  V30 544 H 49.6883 -1.07908 4.0735 0
M  V30 545 H 48.3633 -1.39618 2.92042 0
M  V30 546 H 47.2703 0.801948 3.65403 0
M  V30 547 H 48.6033 1.03588 4.81176 0
M  V30 548 N 50.2554 -1.46986 0.568584 0
M  V30 549 C 51.2024 -2.30153 -0.172707 0
M  V30 550 C 52.1724 -1.39759 -0.897586 0
M  V30 551 O 53.3574 -1.68716 -0.891044 0
M  V30 552 C 50.4974 -3.23952 -1.1895 0
M  V30 553 C 49.6104 -4.29441 -0.469517 0
M  V30 554 C 48.7454 -5.1038 -1.47259 0
M  V30 555 C 47.7844 -6.07632 -0.738225 0
M  V30 556 N 46.9214 -6.8149 -1.68868 0
M  V30 557 H 51.7614 -2.93019 0.542596 0
M  V30 558 H 49.2984 -1.44422 0.279401 0
M  V30 559 H 51.2564 -3.76767 -1.79173 0
M  V30 560 H 49.8864 -2.62926 -1.87269 0
M  V30 561 H 48.9384 -3.79594 0.247467 0
M  V30 562 H 50.2504 -4.98689 0.105241 0
M  V30 563 H 49.4044 -5.67402 -2.14803 0
M  V30 564 H 48.1434 -4.4106 -2.08128 0
M  V30 565 H 47.1484 -5.49778 -0.0489293 0
M  V30 566 H 48.3734 -6.78966 -0.135129 0
M  V30 567 H 46.3194 -6.14891 -2.28573 0
M  V30 568 H 46.2364 -7.46948 -1.16636 0
M  V30 569 H 47.5044 -7.43078 -2.3549 0
M  V30 570 N 51.7335 -0.305618 -1.54608 0
M  V30 571 C 52.9735 0.303114 -2.0214 0
M  V30 572 C 53.3375 1.50737 -1.18921 0
M  V30 573 O 54.5385 2.18778 -1.56172 0
M  V30 574 C 52.8095 0.646332 -3.51507 0
M  V30 575 S 54.3685 1.23727 -4.20995 0
M  V30 576 H 51.1865 0.0927643 -0.704923 0
M  V30 577 H 53.7885 -0.434566 -1.90609 0
M  V30 578 H 52.4925 -0.238541 -4.09706 0
M  V30 579 H 52.0235 1.41468 -3.67084 0
M  V30 580 H 54.0385 2.52489 -4.27158 0
M  V30 581 N 53.2116 1.57565 -0.0334293 0
M  V30 582 C 54.1446 2.05997 0.981866 0
M  V30 583 C 55.1226 0.956647 1.3148 0
M  V30 584 O 56.3066 1.22729 1.43073 0
M  V30 585 C 53.4336 2.48564 2.30074 0
M  V30 586 C 52.4796 3.69958 2.12211 0
M  V30 587 S 53.3126 5.16414 1.41692 0
M  V30 588 C 54.4686 5.6228 2.7494 0
M  V30 589 H 54.7016 2.91792 0.569612 0
M  V30 590 H 52.2346 1.53366 0.178376 0
M  V30 591 H 54.1926 2.73753 3.05892 0
M  V30 592 H 52.8536 1.63106 2.68431 0
M  V30 593 H 52.0466 3.97603 3.09722 0
M  V30 594 H 51.6486 3.44943 1.44535 0
M  V30 595 H 53.9406 5.66783 3.71165 0
M  V30 596 H 54.8836 6.61759 2.51953 0
M  V30 597 H 55.2916 4.89944 2.80384 0
M  V30 598 N 54.6897 -0.239769 1.55765 0
M  V30 599 C 55.6217 -1.32001 1.87372 0
M  V30 600 C 56.6347 -1.43944 0.760522 0
M  V30 601 O 57.8237 -1.45167 1.0387 0
M  V30 602 C 54.9237 -2.69779 2.05115 0
M  V30 603 C 54.0967 -2.80014 3.36022 0
M  V30 604 C 53.1557 -3.98684 3.4342 0
M  V30 605 O 52.1817 -3.87877 4.16582 0
M  V30 606 N 53.3837 -5.12176 2.73232 0
M  V30 607 H 56.1487 -1.0522 2.80622 0
M  V30 608 H 53.7097 -0.429857 1.56089 0
M  V30 609 H 55.7017 -3.47517 2.07399 0
M  V30 610 H 54.2717 -2.89237 1.18577 0
M  V30 611 H 53.4917 -1.88896 3.45994 0
M  V30 612 H 54.7797 -2.83808 4.22292 0
M  V30 613 H 54.1777 -5.2385 2.13536 0
M  V30 614 H 52.7347 -5.88022 2.81199 0
M  V30 615 N 56.1678 -1.49265 -0.50573 0
M  V30 616 C 57.4448 -1.49012 -1.26707 0
M  V30 617 C 57.8248 -0.215205 -2.1 0
M  V30 618 O 57.1728 0.802547 -2.13943 0
M  V30 619 C 57.3828 -2.7663 -2.12783 0
M  V30 620 C 58.7308 -3.25932 -2.72127 0
M  V30 621 O 59.7548 -2.77715 -2.23054 0
M  V30 622 O 58.6138 -4.09897 -3.61451 0
M  V30 623 H 55.7078 -0.596197 -0.57313 0
M  V30 624 H 58.2538 -1.61524 -0.52039 0
M  V30 625 H 57.0258 -3.60916 -1.5118 0
M  V30 626 H 56.6488 -2.66956 -2.94653 0
M  V30 627 N 57.6459 0.756429 -1.3826 0
M  V30 628 C 59.0569 1.33359 -1.30661 0
M  V30 629 C 59.4079 1.96161 0.0388875 0
M  V30 630 O 58.5329 1.94874 0.940918 0
M  V30 631 C 59.1279 2.42477 -2.36622 0
M  V30 632 C 57.6869 2.95922 -2.3261 0
M  V30 633 C 56.8339 1.69275 -2.19639 0
M  V30 634 H 59.7849 0.55552 -1.4866 0
M  V30 635 H 59.8059 3.22345 -2.02174 0
M  V30 636 H 59.3179 1.96739 -3.34538 0
M  V30 637 H 57.4189 3.45996 -1.38267 0
M  V30 638 H 57.5319 3.50494 -3.26636 0
M  V30 639 H 55.8959 1.92793 -1.66442 0
M  V30 640 H 56.6789 1.25619 -3.19491 0
M  V30 641 N 59.124 1.23083 0.984299 0
M  V30 642 C 60.401 0.9689 1.69917 0
M  V30 643 C 60.781 -0.513604 2.04757 0
M  V30 644 O 60.129 -1.48383 1.73767 0
M  V30 645 C 60.339 1.87518 2.94343 0
M  V30 646 C 61.687 2.13636 3.6694 0
M  V30 647 O 62.711 1.85036 3.04368 0
M  V30 648 O 61.57 2.62119 4.79537 0
M  V30 649 H 58.664 0.365095 0.742048 0
M  V30 650 H 61.21 1.34107 1.03987 0
M  V30 651 H 59.982 2.87756 2.65164 0
M  V30 652 H 59.605 1.50514 3.6801 0
M  V30 653 N 60.6021 -1.18246 1.0419 0
M  V30 654 C 61.8321 -1.91916 0.764961 0
M  V30 655 C 62.2401 -1.76485 -0.681898 0
M  V30 656 O 61.5831 -1.09275 -1.47664 0
M  V30 657 C 61.6451 -3.4373 1.05309 0
M  V30 658 C 61.3091 -3.8294 2.4941 0
M  V30 659 C 62.3061 -3.86621 3.47592 0
M  V30 660 C 59.9911 -4.142 2.84155 0
M  V30 661 C 61.9851 -4.21013 4.78568 0
M  V30 662 C 59.6721 -4.48262 4.15337 0
M  V30 663 C 60.6701 -4.51645 5.12353 0
M  V30 664 O 60.3581 -4.84911 6.41183 0
M  V30 665 H 60.0901 -0.61606 0.278292 0
M  V30 666 H 62.6441 -1.50947 1.39299 0
M  V30 667 H 60.8741 -3.84946 0.367933 0
M  V30 668 H 62.5631 -3.9865 0.763752 0
M  V30 669 H 63.3291 -3.62607 3.22089 0
M  V30 670 H 59.2081 -4.10743 2.09311 0
M  V30 671 H 62.7521 -4.23568 5.54289 0
M  V30 672 H 58.6491 -4.71737 4.40607 0
M  V30 673 H 59.4171 -5.02809 6.45852 0
M  V30 674 N 62.0802 -0.821533 -1.34494 0
M  V30 675 C 62.9902 -0.244355 -2.33324 0
M  V30 676 C 64.0062 0.620527 -1.62559 0
M  V30 677 O 65.1822 0.528754 -1.94335 0
M  V30 678 C 62.2472 0.585368 -3.41723 0
M  V30 679 C 61.3082 -0.301752 -4.28238 0
M  V30 680 C 60.5412 0.488466 -5.3146 0
M  V30 681 O 60.7642 1.72186 -5.4379 0
M  V30 682 O 59.6982 -0.12848 -6.01763 0
M  V30 683 H 63.5242 -1.06231 -2.84515 0
M  V30 684 H 61.1092 -0.583645 -1.37528 0
M  V30 685 H 62.9912 1.05747 -4.07916 0
M  V30 686 H 61.6662 1.38068 -2.92778 0
M  V30 687 H 60.5732 -0.821315 -3.64973 0
M  V30 688 H 61.9062 -1.06138 -4.8062 0
M  V30 689 N 63.5583 1.46682 -0.576371 0
M  V30 690 C 64.4903 2.28341 0.198231 0
M  V30 691 C 65.5033 1.38141 0.861453 0
M  V30 692 O 66.6923 1.62797 0.732082 0
M  V30 693 C 63.7923 3.12986 1.29972 0
M  V30 694 C 62.9653 4.31271 0.729639 0
M  V30 695 C 62.0243 4.97363 1.71803 0
M  V30 696 O 61.0503 5.55156 1.25658 0
M  V30 697 N 62.2523 4.93796 3.05198 0
M  V30 698 H 65.0173 2.9546 -0.502324 0
M  V30 699 H 62.5783 1.56525 -0.413715 0
M  V30 700 H 64.5703 3.54066 1.96008 0
M  V30 701 H 63.1403 2.47984 1.90323 0
M  V30 702 H 62.3603 3.94052 -0.108012 0
M  V30 703 H 63.6483 5.07739 0.328438 0
M  V30 704 H 63.0463 4.48077 3.45317 0
M  V30 705 H 61.6033 5.38837 3.6674 0
M  V30 706 N 65.0364 0.313813 1.54444 0
M  V30 707 C 65.9664 -0.549454 2.26943 0
M  V30 708 C 66.9474 -1.12741 1.27372 0
M  V30 709 O 68.1324 -1.15436 1.56167 0
M  V30 710 C 65.2624 -1.71523 3.01989 0
M  V30 711 C 64.2164 -1.26703 4.08816 0
M  V30 712 C 63.5424 -2.51898 4.71647 0
M  V30 713 C 64.8424 -0.388962 5.2085 0
M  V30 714 H 66.5364 0.0552661 2.99349 0
M  V30 715 H 64.0824 0.0280207 1.43973 0
M  V30 716 H 66.0354 -2.32535 3.51433 0
M  V30 717 H 64.7594 -2.34639 2.27183 0
M  V30 718 H 63.4184 -0.679896 3.6024 0
M  V30 719 H 63.0664 -3.13356 3.93468 0
M  V30 720 H 62.7664 -2.22605 5.43802 0
M  V30 721 H 64.2904 -3.1369 5.23861 0
M  V30 722 H 65.7044 -0.905107 5.6611 0
M  V30 723 H 64.1014 -0.18924 5.99802 0
M  V30 724 H 65.1714 0.582699 4.81386 0
M  V30 725 N 66.5145 -1.57545 0.0417849 0
M  V30 726 C 67.4445 -2.14009 -0.933929 0
M  V30 727 C 68.4255 -1.05938 -1.33083 0
M  V30 728 O 69.6105 -1.33833 -1.40721 0
M  V30 729 C 66.7405 -2.67747 -2.21199 0
M  V30 730 C 65.6945 -3.80718 -1.95544 0
M  V30 731 C 65.0205 -4.20935 -3.29724 0
M  V30 732 C 66.3205 -5.06258 -1.28452 0
M  V30 733 H 68.0145 -2.95788 -0.463645 0
M  V30 734 H 65.5605 -1.42285 -0.221573 0
M  V30 735 H 67.5135 -3.05886 -2.89848 0
M  V30 736 H 66.2375 -1.83147 -2.70416 0
M  V30 737 H 64.8965 -3.43037 -1.2931 0
M  V30 738 H 64.5445 -3.33298 -3.76724 0
M  V30 739 H 64.2445 -4.9707 -3.13361 0
M  V30 740 H 65.7685 -4.61666 -3.9962 0
M  V30 741 H 67.1825 -5.41903 -1.8712 0
M  V30 742 H 65.5795 -5.87475 -1.22445 0
M  V30 743 H 66.6495 -4.84207 -0.259219 0
M  V30 744 N 67.9926 0.231505 -1.5589 0
M  V30 745 C 68.9396 1.28682 -1.91598 0
M  V30 746 C 69.9096 1.47071 -0.771974 0
M  V30 747 O 71.0946 1.60802 -1.027 0
M  V30 748 C 68.2346 2.6342 -2.22944 0
M  V30 749 C 67.3476 2.52912 -3.50228 0
M  V30 750 C 66.4826 3.80106 -3.7107 0
M  V30 751 C 65.5216 3.64279 -4.91902 0
M  V30 752 N 64.6586 4.834 -5.09184 0
M  V30 753 H 69.4986 0.975305 -2.81588 0
M  V30 754 H 67.0356 0.470299 -1.39379 0
M  V30 755 H 68.9936 3.41869 -2.39126 0
M  V30 756 H 67.6236 2.92687 -1.36139 0
M  V30 757 H 66.6756 1.6595 -3.42294 0
M  V30 758 H 67.9876 2.37133 -4.38827 0
M  V30 759 H 67.1416 4.66999 -3.87295 0
M  V30 760 H 65.8806 3.98799 -2.80733 0
M  V30 761 H 64.8856 2.7577 -4.75637 0
M  V30 762 H 66.1106 3.47067 -5.83714 0
M  V30 763 H 64.0566 5.02425 -4.21788 0
M  V30 764 H 63.9736 4.70311 -5.91898 0
M  V30 765 H 65.2416 5.71747 -5.29835 0
M  V30 766 N 69.4707 1.49531 0.497807 0
M  V30 767 C 70.7167 1.59415 1.25358 0
M  V30 768 C 71.0497 0.281422 1.9215 0
M  V30 769 O 70.3247 -0.715249 1.80871 0
M  V30 770 C 70.6077 2.75566 2.3181 0
M  V30 771 C 70.4607 4.16642 1.69498 0
M  V30 772 C 71.7797 2.87347 3.33346 0
M  V30 773 H 68.8987 0.580244 0.454408 0
M  V30 774 H 71.5407 1.81827 0.551262 0
M  V30 775 H 69.6907 2.56587 2.91711 0
M  V30 776 H 71.3627 4.47145 1.13399 0
M  V30 777 H 69.6057 4.22141 0.998978 0
M  V30 778 H 70.2767 4.93792 2.46725 0
M  V30 779 H 72.7527 3.04634 2.83438 0
M  V30 780 H 71.6287 3.70289 4.05188 0
M  V30 781 H 71.8897 1.96834 3.95865 0
M  V30 782 N 70.9488 -0.749086 1.3866 0
M  V30 783 C 72.1948 -1.51056 1.35314 0
M  V30 784 C 72.5278 -1.94121 -0.0553751 0
M  V30 785 O 71.8028 -1.65763 -1.01749 0
M  V30 786 C 72.0858 -2.76003 2.31288 0
M  V30 787 C 71.9388 -2.39047 3.8102 0
M  V30 788 C 73.2578 -3.78046 2.2532 0
M  V30 789 H 70.3768 -0.547972 0.492844 0
M  V30 790 H 73.0188 -0.857628 1.69543 0
M  V30 791 H 71.1688 -3.31716 2.02229 0
M  V30 792 H 72.8408 -1.89074 4.20771 0
M  V30 793 H 71.0838 -1.71449 3.98482 0
M  V30 794 H 71.7548 -3.28462 4.4364 0
M  V30 795 H 74.2308 -3.31884 2.50983 0
M  V30 796 H 73.1068 -4.63159 2.94576 0
M  V30 797 H 73.3678 -4.23957 1.25352 0
M  V30 798 N 72.4269 -1.23603 -0.977757 0
M  V30 799 C 73.6549 -1.09646 -1.75458 0
M  V30 800 C 74.0699 0.351859 -1.85492 0
M  V30 801 O 73.4269 1.24327 -1.336 0
M  V30 802 C 73.4779 -1.71895 -3.18016 0
M  V30 803 O 73.1989 -3.11063 -3.08498 0
M  V30 804 C 74.6999 -1.63415 -4.12081 0
M  V30 805 H 71.9199 -0.38359 -0.550545 0
M  V30 806 H 74.4639 -1.63507 -1.22824 0
M  V30 807 H 72.6189 -1.22061 -3.67668 0
M  V30 808 H 73.0329 -3.41305 -3.9826 0
M  V30 809 H 74.5069 -2.11669 -5.09804 0
M  V30 810 H 74.9839 -0.593462 -4.35172 0
M  V30 811 H 75.5899 -2.12628 -3.68334 0
M  V30 812 N 73.905 1.17692 -1.04816 0
M  V30 813 C 75.151 1.88389 -0.766892 0
M  V30 814 C 75.506 1.79282 0.698269 0
M  V30 815 O 74.799 1.18739 1.50372 0
M  V30 816 C 74.993 3.37462 -1.17703 0
M  V30 817 C 74.822 3.6108 -2.68051 0
M  V30 818 C 73.592 3.78018 -3.35307 0
M  V30 819 C 75.79 3.61039 -3.66273 0
M  V30 820 N 73.772 3.89444 -4.74559 0
M  V30 821 C 75.143 3.78269 -4.91235 0
M  V30 822 C 77.198 3.44168 -3.59796 0
M  V30 823 C 75.901 3.80376 -6.10497 0
M  V30 824 C 77.927 3.4756 -4.78493 0
M  V30 825 C 77.289 3.65295 -6.02278 0
M  V30 826 H 73.388 0.707651 -0.332798 0
M  V30 827 H 75.972 1.41314 -1.33934 0
M  V30 828 H 74.143 3.83214 -0.63257 0
M  V30 829 H 75.875 3.95759 -0.845989 0
M  V30 830 H 72.63 3.77714 -2.85708 0
M  V30 831 H 73.054 3.98962 -5.46954 0
M  V30 832 H 77.696 3.29396 -2.65062 0
M  V30 833 H 75.414 3.93933 -7.05579 0
M  V30 834 H 79 3.3577 -4.75131 0
M  V30 835 H 77.88 3.6782 -6.92588 0
M  V30 836 N 75.3831 0.828654 1.34056 0
M  V30 837 C 76.6311 0.41863 1.97717 0
M  V30 838 C 76.9521 -1.02314 1.66002 0
M  V30 839 O 76.2221 -1.71119 0.953683 0
M  V30 840 H 74.8021 0.151809 0.731412 0
M  V30 841 H 77.4641 1.05936 1.63596 0
M  V30 842 H 76.5601 0.542318 3.07352 0
M  V30 843 N 76.8612 -1.46375 0.584142 0
M  V30 844 C 77.7912 -2.33103 -0.136037 0
M  V30 845 C 78.7722 -1.45431 -0.882255 0
M  V30 846 O 79.9572 -1.74246 -0.857434 0
M  V30 847 C 77.0872 -3.27731 -1.14933 0
M  V30 848 C 76.0412 -4.24855 -0.517862 0
M  V30 849 C 75.3672 -5.09001 -1.63773 0
M  V30 850 C 76.6672 -5.19439 0.545886 0
M  V30 851 H 78.3612 -2.93568 0.588086 0
M  V30 852 H 75.9072 -1.41166 0.284259 0
M  V30 853 H 77.8602 -3.87261 -1.66153 0
M  V30 854 H 76.5842 -2.65377 -1.90375 0
M  V30 855 H 75.2432 -3.6659 -0.0267361 0
M  V30 856 H 74.8912 -4.43031 -2.38185 0
M  V30 857 H 74.5912 -5.74777 -1.22085 0
M  V30 858 H 76.1152 -5.71396 -2.15266 0
M  V30 859 H 77.5292 -5.73177 0.118704 0
M  V30 860 H 75.9262 -5.93566 0.88317 0
M  V30 861 H 76.9962 -4.63285 1.43162 0
M  V30 862 N 78.3393 -0.321999 -1.54275 0
M  V30 863 C 79.2873 0.560206 -2.25753 0
M  V30 864 C 80.2813 1.11984 -1.27106 0
M  V30 865 O 81.4873 1.06806 -1.44888 0
M  V30 866 H 77.8623 0.199304 -0.725108 0
M  V30 867 H 79.8333 -0.0649365 -2.98329 0
M  V30 868 C 78.5823 1.71023 -3.02731 0
M  V30 869 H 77.9053 1.28885 -3.78456 0
M  V30 870 H 79.3453 2.30314 -3.55993 0
M  V30 871 C 77.8043 2.62692 -2.10938 0
M  V30 872 O 78.3343 3.64364 -1.6912 0
M  V30 873 N 76.5403 2.30891 -1.76459 0
M  V30 874 H 76.0873 1.48253 -2.10663 0
M  V30 875 H 76.0453 2.92487 -1.1532 0
M  V30 876 N 79.8174 1.5752 -0.0501392 0
M  V30 877 C 81.2334 1.56631 0.306402 0
M  V30 878 C 81.4334 1.0577 1.71508 0
M  V30 879 O 80.4894 0.713837 2.422 0
M  V30 880 C 81.8024 3.00393 0.135811 0
M  V30 881 C 83.3504 3.12315 0.206993 0
M  V30 882 C 83.8254 4.57954 0.064944 0
M  V30 883 N 85.3164 4.63041 0.121254 0
M  V30 884 C 86.0514 5.73389 0.0354381 0
M  V30 885 N 85.5474 6.92724 -0.102666 0
M  V30 886 N 87.3404 5.62026 0.090946 0
M  V30 887 H 79.4914 1.88903 -0.971046 0
M  V30 888 H 81.7544 0.869876 -0.376855 0
M  V30 889 H 81.4604 3.41635 -0.835384 0
M  V30 890 H 81.3344 3.66373 0.897275 0
M  V30 891 H 83.7214 2.70973 1.16866 0
M  V30 892 H 83.8024 2.49016 -0.585208 0
M  V30 893 H 83.4464 4.99981 -0.893394 0
M  V30 894 H 83.3764 5.19258 0.876277 0
M  V30 895 H 85.8674 3.77216 0.227284 0
M  V30 896 H 86.1804 7.72633 -0.160882 0
M  V30 897 H 84.5254 6.94864 -0.137737 0
M  V30 898 H 87.7164 4.67684 0.197388 0
M  V30 899 H 87.8894 6.47997 0.0206089 0
M  V30 900 N 81.2955 -0.223234 1.56011 0
M  V30 901 C 82.5235 -0.964812 1.83027 0
M  V30 902 C 82.9385 -1.78013 0.62904 0
M  V30 903 O 82.2955 -1.78008 -0.402414 0
M  V30 904 C 82.3465 -1.88373 3.08542 0
M  V30 905 O 82.0675 -1.10137 4.2403 0
M  V30 906 C 83.5685 -2.73934 3.48533 0
M  V30 907 H 80.7885 -0.282842 0.608475 0
M  V30 908 H 83.3325 -0.238971 2.03099 0
M  V30 909 H 81.4875 -2.56354 2.9045 0
M  V30 910 H 81.9015 -1.72501 4.95322 0
M  V30 911 H 83.3755 -3.34117 4.39397 0
M  V30 912 H 83.8525 -3.46244 2.70207 0
M  V30 913 H 84.4585 -2.11369 3.69057 0
M  V30 914 N 82.7736 -1.49793 -0.48987 0
M  V30 915 C 83.7036 -1.70201 -1.59856 0
M  V30 916 C 84.6846 -0.55076 -1.60937 0
M  V30 917 O 85.8696 -0.787841 -1.77501 0
M  V30 918 C 82.9996 -1.77882 -2.98287 0
M  V30 919 C 81.9536 -2.92907 -3.12073 0
M  V30 920 C 81.2796 -2.85712 -4.51965 0
M  V30 921 C 82.5796 -4.3369 -2.91051 0
M  V30 922 H 84.2736 -2.63025 -1.43032 0
M  V30 923 H 81.8196 -1.26574 -0.686664 0
M  V30 924 H 83.7726 -1.90744 -3.75759 0
M  V30 925 H 82.4966 -0.816653 -3.16225 0
M  V30 926 H 81.1556 -2.79665 -2.37029 0
M  V30 927 H 80.8036 -1.8738 -4.66795 0
M  V30 928 H 80.5036 -3.62921 -4.62128 0
M  V30 929 H 82.0276 -3.00598 -5.31482 0
M  V30 930 H 83.4416 -4.47555 -3.58284 0
M  V30 931 H 81.8386 -5.12205 -3.12675 0
M  V30 932 H 82.9086 -4.47362 -1.87071 0
M  V30 933 N 84.2517 0.741722 -1.39055 0
M  V30 934 C 85.1987 1.85566 -1.37237 0
M  V30 935 C 86.1687 1.64457 -0.233072 0
M  V30 936 O 87.3537 1.85957 -0.427147 0
M  V30 937 C 84.4937 3.23004 -1.215 0
M  V30 938 C 83.6067 3.55864 -2.44918 0
M  V30 939 C 82.7417 4.82669 -2.21821 0
M  V30 940 C 81.7807 5.08351 -3.40948 0
M  V30 941 N 80.9177 6.26356 -3.17211 0
M  V30 942 H 85.7577 1.86455 -2.32462 0
M  V30 943 H 83.2947 0.911176 -1.15482 0
M  V30 944 H 85.2527 4.02331 -1.10389 0
M  V30 945 H 83.8827 3.21411 -0.29908 0
M  V30 946 H 82.9347 2.7129 -2.66657 0
M  V30 947 H 84.2467 3.70765 -3.33668 0
M  V30 948 H 83.4007 5.69962 -2.07914 0
M  V30 949 H 82.1397 4.69929 -1.30454 0
M  V30 950 H 81.1447 4.19522 -3.55361 0
M  V30 951 H 82.3697 5.22981 -4.33207 0
M  V30 952 H 80.3157 6.14917 -2.28502 0
M  V30 953 H 80.2327 6.41813 -3.99515 0
M  V30 954 H 81.5007 7.16506 -3.06984 0
M  V30 955 N 85.7298 1.2412 0.971189 0
M  V30 956 C 87.1408 1.07236 1.52831 0
M  V30 957 C 87.4918 -0.357352 1.92918 0
M  V30 958 O 86.6168 -1.24528 1.76979 0
M  V30 959 C 87.2118 1.94043 2.77728 0
M  V30 960 C 85.7708 1.81394 3.29808 0
M  V30 961 C 84.9178 1.89189 2.02738 0
M  V30 962 H 87.8688 1.37648 0.789864 0
M  V30 963 H 87.8898 1.47066 3.5093 0
M  V30 964 H 87.4018 2.98093 2.4852 0
M  V30 965 H 85.5028 0.801634 3.63874 0
M  V30 966 H 85.6158 2.65294 3.98944 0
M  V30 967 H 83.9798 1.32877 2.17292 0
M  V30 968 H 84.7628 2.94812 1.759 0
M  V30 969 N 87.2079 -1.17134 1.05439 0
M  V30 970 C 88.1399 -2.2078 0.615539 0
M  V30 971 C 89.1529 -1.59584 -0.322001 0
M  V30 972 O 90.3419 -1.78133 -0.114344 0
M  V30 973 C 87.4419 -3.38691 -0.118938 0
M  V30 974 C 86.6149 -4.29454 0.829924 0
M  V30 975 C 85.6739 -5.26024 0.136258 0
M  V30 976 O 84.6999 -5.63952 0.77115 0
M  V30 977 N 85.9019 -5.69487 -1.1254 0
M  V30 978 H 88.6669 -2.59052 1.50705 0
M  V30 979 H 86.2279 -1.32058 0.936603 0
M  V30 980 H 88.2199 -4.00329 -0.593179 0
M  V30 981 H 86.7899 -2.98996 -0.91215 0
M  V30 982 H 86.0099 -3.65211 1.48373 0
M  V30 983 H 87.2979 -4.86984 1.47392 0
M  V30 984 H 86.6959 -5.4075 -1.6615 0
M  V30 985 H 85.2529 -6.33257 -1.54366 0
M  V30 986 N 88.686 -0.835752 -1.33615 0
M  V30 987 C 90.102 -0.523139 -1.50783 0
M  V30 988 C 90.302 0.950171 -1.77691 0
M  V30 989 O 89.358 1.73411 -1.83534 0
M  V30 990 C 90.671 -1.39378 -2.66448 0
M  V30 991 C 92.219 -1.39223 -2.80332 0
M  V30 992 C 92.694 -2.24765 -3.99055 0
M  V30 993 N 94.185 -2.22458 -4.06284 0
M  V30 994 C 94.92 -2.85386 -4.97336 0
M  V30 995 N 94.416 -3.57354 -5.93523 0
M  V30 996 N 96.209 -2.74872 -4.90308 0
M  V30 997 H 88.36 -1.78952 -1.14411 0
M  V30 998 H 90.623 -0.763297 -0.562212 0
M  V30 999 H 90.329 -2.44061 -2.53234 0
M  V30 1000 H 90.203 -1.0676 -3.61776 0
M  V30 1001 H 92.59 -0.353136 -2.92979 0
M  V30 1002 H 92.671 -1.75846 -1.85773 0
M  V30 1003 H 92.315 -3.28732 -3.87167 0
M  V30 1004 H 92.245 -1.85485 -4.92852 0
M  V30 1005 H 94.736 -1.70119 -3.37443 0
M  V30 1006 H 95.049 -4.02584 -6.59656 0
M  V30 1007 H 93.394 -3.61461 -5.93608 0
M  V30 1008 H 96.585 -2.18213 -4.14126 0
M  V30 1009 H 96.758 -3.24199 -5.61069 0
M  V30 1010 N 90.1641 1.46063 -0.591896 0
M  V30 1011 C 91.4101 2.02638 -0.0811191 0
M  V30 1012 C 91.7431 1.4613 1.27905 0
M  V30 1013 O 91.0181 0.629908 1.84017 0
M  V30 1014 C 91.3011 3.60091 -0.0252436 0
M  V30 1015 C 91.1541 4.26965 -1.41496 0
M  V30 1016 C 92.4731 4.3496 0.670685 0
M  V30 1017 H 89.5921 0.73635 -0.0309524 0
M  V30 1018 H 92.2341 1.741 -0.760859 0
M  V30 1019 H 90.3841 3.84535 0.553624 0
M  V30 1020 H 92.0561 4.13756 -2.0397 0
M  V30 1021 H 90.2991 3.85971 -1.98011 0
M  V30 1022 H 90.9701 5.35781 -1.32825 0
M  V30 1023 H 93.4461 4.15716 0.178825 0
M  V30 1024 H 92.3221 5.44686 0.678837 0
M  V30 1025 H 92.5831 4.06685 1.73379 0
M  V30 1026 N 91.6422 0.330177 1.54103 0
M  V30 1027 C 92.8912 -0.271336 1.99867 0
M  V30 1028 C 93.2042 -1.52723 1.22209 0
M  V30 1029 O 94.4102 -2.20515 1.58383 0
M  V30 1030 C 92.8662 -0.534032 3.55916 0
M  V30 1031 C 92.4742 0.705193 4.42415 0
M  V30 1032 C 94.2182 -1.09514 4.1013 0
M  V30 1033 C 92.1252 0.414035 5.89949 0
M  V30 1034 H 91.0552 -0.105166 0.74663 0
M  V30 1035 H 93.7062 0.443429 1.78062 0
M  V30 1036 H 92.0882 -1.30915 3.73734 0
M  V30 1037 H 93.2622 1.4804 4.36372 0
M  V30 1038 H 91.5772 1.18698 3.99124 0
M  V30 1039 H 94.1742 -1.3277 5.17954 0
M  V30 1040 H 94.5172 -2.04656 3.62521 0
M  V30 1041 H 95.0502 -0.381038 3.95971 0
M  V30 1042 H 91.7892 1.33481 6.41766 0
M  V30 1043 H 91.3092 -0.323336 5.98928 0
M  V30 1044 H 92.9882 0.0263105 6.46995 0
M  V30 1045 N 93.1203 -1.57491 0.0584922 0
M  V30 1046 C 94.3663 -1.93264 -0.614558 0
M  V30 1047 C 94.6993 -0.937717 -1.7006 0
M  V30 1048 O 93.9743 0.0351652 -1.94468 0
M  V30 1049 C 94.2573 -3.3938 -1.20386 0
M  V30 1050 C 94.1103 -4.49625 -0.125375 0
M  V30 1051 C 95.4293 -3.86039 -2.11334 0
M  V30 1052 H 92.5483 -0.702791 -0.221933 0
M  V30 1053 H 95.1903 -1.8961 0.12175 0
M  V30 1054 H 93.3403 -3.42626 -1.83139 0
M  V30 1055 H 95.0123 -4.58506 0.506971 0
M  V30 1056 H 93.2553 -4.30354 0.545672 0
M  V30 1057 H 93.9263 -5.48967 -0.577861 0
M  V30 1058 H 96.4023 -3.84716 -1.58534 0
M  V30 1059 H 95.2783 -4.88914 -2.49507 0
M  V30 1060 H 95.5393 -3.23215 -3.01636 0
M  V30 1061 N 94.5984 0.214957 -1.56127 0
M  V30 1062 C 95.8444 0.939762 -1.79712 0
M  V30 1063 C 96.1774 1.83723 -0.629247 0
M  V30 1064 O 95.4524 1.90925 0.371197 0
M  V30 1065 C 95.7354 1.77306 -3.13424 0
M  V30 1066 C 95.5884 0.90164 -4.40671 0
M  V30 1067 C 96.9074 2.74956 -3.43638 0
M  V30 1068 H 94.0264 0.340214 -0.653776 0
M  V30 1069 H 96.6684 0.20824 -1.88855 0
M  V30 1070 H 94.8184 2.39673 -3.0576 0
M  V30 1071 H 96.4904 0.294206 -4.60361 0
M  V30 1072 H 94.7334 0.207368 -4.33304 0
M  V30 1073 H 95.4044 1.51923 -5.30682 0
M  V30 1074 H 97.8804 2.22724 -3.51473 0
M  V30 1075 H 96.7564 3.30358 -4.38355 0
M  V30 1076 H 97.0174 3.53023 -2.66134 0
M  V30 1077 N 96.0765 1.50051 0.48192 0
M  V30 1078 C 97.3245 1.60181 1.23234 0
M  V30 1079 C 97.6455 0.299176 1.92691 0
M  V30 1080 O 96.9155 -0.682708 1.83619 0
M  V30 1081 H 95.4955 0.590232 0.457859 0
M  V30 1082 H 98.1575 1.86775 0.556881 0
M  V30 1083 H 97.2535 2.40753 1.98607 0
M  V30 1084 N 97.5546 -0.734337 1.39446 0
M  V30 1085 C 98.5176 -1.83004 1.37994 0
M  V30 1086 C 99.5176 -1.58397 0.276938 0
M  V30 1087 O 100.708 -1.65785 0.534875 0
M  V30 1088 C 97.8396 -3.20802 1.1532 0
M  V30 1089 H 99.0326 -1.85694 2.35494 0
M  V30 1090 H 96.5856 -0.938059 1.25021 0
M  V30 1091 H 97.3206 -3.23772 0.185036 0
M  V30 1092 H 97.1056 -3.4006 1.95197 0
M  V30 1093 H 98.5956 -4.00862 1.17046 0
M  V30 1094 N 99.0327 -1.24633 -0.964593 0
M  V30 1095 C 100.281 -1.08573 -1.70459 0
M  V30 1096 C 100.602 0.375655 -1.91347 0
M  V30 1097 O 99.8717 1.26779 -1.49345 0
M  V30 1098 H 98.4517 -0.398784 -0.631649 0
M  V30 1099 H 101.114 -1.56601 -1.16026 0
M  V30 1100 H 100.21 -1.58623 -2.68785 0
M  V30 1101 N 100.511 1.16574 -1.06058 0
M  V30 1102 C 101.757 1.87324 -0.777022 0
M  V30 1103 C 102.09 1.81351 0.694645 0
M  V30 1104 O 101.365 1.22753 1.50871 0
M  V30 1105 C 101.648 3.36991 -1.26922 0
M  V30 1106 C 101.501 3.51667 -2.80447 0
M  V30 1107 C 102.82 4.3131 -0.87521 0
M  V30 1108 H 99.9388 0.680191 -0.28374 0
M  V30 1109 H 102.581 1.37036 -1.3161 0
M  V30 1110 H 100.731 3.79949 -0.81063 0
M  V30 1111 H 102.403 3.17664 -3.34495 0
M  V30 1112 H 100.646 2.93656 -3.19294 0
M  V30 1113 H 101.317 4.56766 -3.0995 0
M  V30 1114 H 103.793 3.9624 -1.27014 0
M  V30 1115 H 102.669 5.34545 -1.2471 0
M  V30 1116 H 102.93 4.41552 0.220071 0
M  V30 1117 N 101.989 0.842826 1.3317 0
M  V30 1118 C 102.952 0.284065 2.27433 0
M  V30 1119 C 103.952 -0.54948 1.5112 0
M  V30 1120 O 105.142 -0.362699 1.70382 0
M  V30 1121 C 102.274 -0.599384 3.35589 0
M  V30 1122 H 103.467 1.11589 2.78366 0
M  V30 1123 H 101.02 0.616221 1.4364 0
M  V30 1124 H 101.755 -1.45349 2.89904 0
M  V30 1125 H 101.54 -0.00291266 3.921 0
M  V30 1126 H 103.03 -0.983488 4.05854 0
M  V30 1127 N 103.467 -1.45747 0.599634 0
M  V30 1128 C 104.715 -2.01893 0.0915472 0
M  V30 1129 C 105.036 -1.47155 -1.27946 0
M  V30 1130 O 104.306 -0.66273 -1.84349 0
M  V30 1131 H 102.886 -0.746363 0.0308524 0
M  V30 1132 H 105.548 -1.78645 0.779237 0
M  V30 1133 H 104.644 -3.1208 0.0353086 0
M  V30 1134 N 104.945 -0.338344 -1.53925 0
M  V30 1135 C 105.875 0.51328 -2.27789 0
M  V30 1136 C 106.856 1.107 -1.29149 0
M  V30 1137 O 108.041 1.12937 -1.57984 0
M  V30 1138 C 105.171 1.66697 -3.04679 0
M  V30 1139 C 104.125 1.20183 -4.1078 0
M  V30 1140 C 103.451 2.44363 -4.75595 0
M  V30 1141 C 104.751 0.30605 -5.21403 0
M  V30 1142 H 106.445 -0.102883 -2.99223 0
M  V30 1143 H 103.991 -0.0509219 -1.4391 0
M  V30 1144 H 105.944 2.26915 -3.55088 0
M  V30 1145 H 104.668 2.30995 -2.30887 0
M  V30 1146 H 103.327 0.622499 -3.61276 0
M  V30 1147 H 102.975 3.07057 -3.98403 0
M  V30 1148 H 102.675 2.13925 -5.47275 0
M  V30 1149 H 104.199 3.05317 -5.28786 0
M  V30 1150 H 105.613 0.814929 -5.67478 0
M  V30 1151 H 104.01 0.0937929 -6.00027 0
M  V30 1152 H 105.08 -0.65921 -4.80398 0
M  V30 1153 N 106.423 1.57458 -0.0668435 0
M  V30 1154 C 107.669 1.93587 0.6043 0
M  V30 1155 C 108.002 0.946722 1.69561 0
M  V30 1156 O 107.277 -0.0248516 1.94484 0
M  V30 1157 C 107.56 3.40014 1.18585 0
M  V30 1158 C 107.413 4.49685 0.101529 0
M  V30 1159 C 108.732 3.87154 2.09284 0
M  V30 1160 H 105.851 0.703958 0.218202 0
M  V30 1161 H 108.493 1.89542 -0.131804 0
M  V30 1162 H 106.643 3.43592 1.81319 0
M  V30 1163 H 108.315 4.5823 -0.531279 0
M  V30 1164 H 106.558 4.30059 -0.568487 0
M  V30 1165 H 107.229 5.49266 0.54874 0
M  V30 1166 H 109.705 3.85551 1.56491 0
M  V30 1167 H 108.581 4.90231 2.46911 0
M  V30 1168 H 108.842 3.2481 2.99918 0
M  V30 1169 N 107.901 -0.206675 1.56239 0
M  V30 1170 C 108.864 -1.23976 1.92776 0
M  V30 1171 C 109.864 -1.39041 0.807729 0
M  V30 1172 O 111.054 -1.37051 1.0753 0
M  V30 1173 C 108.186 -2.61112 2.19165 0
M  V30 1174 H 109.379 -0.927764 2.85189 0
M  V30 1175 H 106.932 -0.447718 1.4975 0
M  V30 1176 H 107.667 -2.97386 1.29352 0
M  V30 1177 H 107.452 -2.51552 3.00772 0
M  V30 1178 H 108.942 -3.35633 2.48476 0
M  V30 1179 N 109.379 -1.50304 -0.473955 0
M  V30 1180 C 110.342 -1.6841 -1.55469 0
M  V30 1181 C 111.342 -0.554905 -1.50922 0
M  V30 1182 O 112.532 -0.821882 -1.53593 0
M  V30 1183 C 109.664 -1.70667 -2.95102 0
M  V30 1184 H 110.857 -2.64828 -1.40733 0
M  V30 1185 H 108.41 -1.39742 -0.700132 0
M  V30 1186 H 109.145 -0.75932 -3.15285 0
M  V30 1187 H 108.93 -2.52698 -2.9981 0
M  V30 1188 H 110.42 -1.8664 -3.73571 0
M  V30 1189 N 110.857 0.726932 -1.39834 0
M  V30 1190 C 111.804 1.841 -1.39197 0
M  V30 1191 C 112.774 1.642 -0.250502 0
M  V30 1192 O 113.959 1.85494 -0.446846 0
M  V30 1193 C 111.099 3.21697 -1.24919 0
M  V30 1194 C 110.212 3.53247 -2.48678 0
M  V30 1195 C 109.347 4.80289 -2.26928 0
M  V30 1196 C 108.386 5.04707 -3.4632 0
M  V30 1197 N 107.523 6.22956 -3.23836 0
M  V30 1198 H 112.363 1.83979 -2.34427 0
M  V30 1199 H 109.9 0.898876 -1.16442 0
M  V30 1200 H 111.858 4.01137 -1.1465 0
M  V30 1201 H 110.488 3.21076 -0.333153 0
M  V30 1202 H 109.54 2.68447 -2.69519 0
M  V30 1203 H 110.852 3.67205 -3.37582 0
M  V30 1204 H 110.006 5.67725 -2.13947 0
M  V30 1205 H 108.745 4.68519 -1.35431 0
M  V30 1206 H 107.75 4.1573 -3.5979 0
M  V30 1207 H 108.975 5.18357 -4.38729 0
M  V30 1208 H 106.921 6.12459 -2.35011 0
M  V30 1209 H 106.838 6.37539 -4.063 0
M  V30 1210 H 108.106 7.1321 -3.14566 0
M  V30 1211 N 112.336 1.25143 0.95797 0
M  V30 1212 C 113.582 1.09855 1.70469 0
M  V30 1213 C 113.915 -0.360187 1.90831 0
M  V30 1214 O 113.19 -1.26568 1.47685 0
M  V30 1215 C 113.473 1.8497 3.08963 0
M  V30 1216 C 113.326 3.38652 2.96032 0
M  V30 1217 C 114.645 1.63016 4.08795 0
M  V30 1218 H 111.764 0.400465 0.618706 0
M  V30 1219 H 114.406 1.53933 1.11376 0
M  V30 1220 H 112.556 1.47505 3.59409 0
M  V30 1221 H 114.228 3.85772 2.52938 0
M  V30 1222 H 112.471 3.66534 2.32025 0
M  V30 1223 H 113.142 3.8642 3.94187 0
M  V30 1224 H 115.618 1.95625 3.67247 0
M  V30 1225 H 114.494 2.18015 5.03747 0
M  V30 1226 H 114.755 0.570692 4.38401 0
M  V30 1227 N 113.814 -1.1601 1.06675 0
M  V30 1228 C 114.744 -2.22688 0.702307 0
M  V30 1229 C 115.725 -1.67306 -0.307032 0
M  V30 1230 O 116.91 -1.93352 -0.181305 0
M  V30 1231 C 114.04 -3.47178 0.092038 0
M  V30 1232 C 112.994 -4.15477 1.02777 0
M  V30 1233 C 112.32 -5.33963 0.28061 0
M  V30 1234 C 113.62 -4.66019 2.35846 0
M  V30 1235 H 115.314 -2.53429 1.59419 0
M  V30 1236 H 112.86 -1.21813 0.767961 0
M  V30 1237 H 114.813 -4.21037 -0.174814 0
M  V30 1238 H 113.537 -3.15749 -0.834877 0
M  V30 1239 H 112.196 -3.43549 1.27944 0
M  V30 1240 H 111.844 -4.98788 -0.649545 0
M  V30 1241 H 111.544 -5.806 0.904258 0
M  V30 1242 H 113.068 -6.10596 0.021396 0
M  V30 1243 H 114.482 -5.3144 2.15045 0
M  V30 1244 H 112.879 -5.23293 2.93743 0
M  V30 1245 H 113.949 -3.82023 2.98641 0
M  V30 1246 N 115.292 -0.849877 -1.32721 0
M  V30 1247 C 116.517 -0.463856 -2.02146 0
M  V30 1248 C 116.942 0.930449 -1.63476 0
M  V30 1249 O 116.3 1.61033 -0.832952 0
M  V30 1250 C 116.348 -0.604955 -3.55489 0
M  V30 1251 O 115.452 0.36425 -4.10788 0
M  V30 1252 H 114.793 -0.187046 -0.637111 0
M  V30 1253 H 117.323 -1.14775 -1.69375 0
M  V30 1254 H 117.333 -0.490696 -4.05038 0
M  V30 1255 H 116.008 -1.62174 -3.82978 0
M  V30 1256 H 114.585 0.206628 -3.72327 0
M  V30 1257 N 116.77 1.45427 -0.607355 0
M  V30 1258 C 118.047 1.9557 -0.0344566 0
M  V30 1259 C 118.427 1.54979 1.43334 0
M  V30 1260 O 117.775 0.812241 2.13576 0
M  V30 1261 C 117.985 3.48226 -0.232321 0
M  V30 1262 C 119.333 4.2445 -0.113001 0
M  V30 1263 O 120.357 3.55829 -0.162431 0
M  V30 1264 O 119.216 5.465 0.00209442 0
M  V30 1265 H 116.31 0.826222 0.0358667 0
M  V30 1266 H 118.856 1.55594 -0.6774 0
M  V30 1267 H 117.628 3.70739 -1.25174 0
M  V30 1268 H 117.251 3.95092 0.445896 0
M  V30 1269 N 118.248 0.346503 1.53744 0
M  V30 1270 C 119.211 -0.496439 2.23759 0
M  V30 1271 C 120.211 -1.0252 1.2388 0
M  V30 1272 O 121.401 -0.913974 1.48297 0
M  V30 1273 C 118.533 -1.69187 2.95954 0
M  V30 1274 H 119.726 0.115952 2.99676 0
M  V30 1275 H 117.279 0.0978939 1.55993 0
M  V30 1276 H 118.014 -2.34288 2.24231 0
M  V30 1277 H 117.799 -1.31989 3.69217 0
M  V30 1278 H 119.289 -2.28969 3.49232 0
M  V30 1279 N 119.726 -1.57421 0.075193 0
M  V30 1280 C 120.974 -1.93236 -0.591974 0
M  V30 1281 C 121.295 -0.956241 -1.69944 0
M  V30 1282 O 120.565 -0.00494792 -1.95899 0
M  V30 1283 H 119.145 -0.713355 -0.22166 0
M  V30 1284 H 121.807 -1.9444 0.133848 0
M  V30 1285 H 120.903 -2.95131 -1.01509 0
M  V30 1286 N 121.204 0.198386 -1.56346 0
M  V30 1287 C 122.154 1.2499 -1.90687 0
M  V30 1288 C 123.138 1.41158 -0.772217 0
M  V30 1289 O 124.33 1.43584 -1.03502 0
M  V30 1290 C 121.459 2.59542 -2.24706 0
M  V30 1291 C 120.545 2.47181 -3.44619 0
M  V30 1292 N 120.936 2.04495 -4.62618 0
M  V30 1293 C 119.234 2.78082 -3.48692 0
M  V30 1294 C 119.935 2.03945 -5.44776 0
M  V30 1295 N 118.911 2.45323 -4.85095 0
M  V30 1296 H 122.713 0.911149 -2.7942 0
M  V30 1297 H 120.227 0.40684 -1.57221 0
M  V30 1298 H 122.224 3.3549 -2.47491 0
M  V30 1299 H 120.884 2.94244 -1.37298 0
M  V30 1300 H 121.895 1.75256 -4.87345 0
M  V30 1301 H 118.572 3.17002 -2.71691 0
M  V30 1302 H 119.962 1.72872 -6.4928 0
M  V30 1303 N 122.682 1.50554 0.465978 0
M  V30 1304 C 123.629 1.6979 1.56333 0
M  V30 1305 C 124.599 0.539239 1.57103 0
M  V30 1306 O 125.784 0.770401 1.74555 0
M  V30 1307 C 122.924 1.80273 2.94271 0
M  V30 1308 C 122.037 3.07674 3.0325 0
M  V30 1309 C 121.172 3.08922 4.32135 0
M  V30 1310 C 120.211 4.30755 4.34875 0
M  V30 1311 N 119.348 4.29714 5.55239 0
M  V30 1312 H 124.188 2.63472 1.39235 0
M  V30 1313 H 121.725 1.30602 0.676873 0
M  V30 1314 H 123.683 1.84332 3.74269 0
M  V30 1315 H 122.313 0.900258 3.09992 0
M  V30 1316 H 121.365 3.13062 2.16094 0
M  V30 1317 H 122.677 3.97642 3.01135 0
M  V30 1318 H 121.831 3.11738 5.20485 0
M  V30 1319 H 120.57 2.16792 4.36866 0
M  V30 1320 H 119.575 4.28146 3.44922 0
M  V30 1321 H 120.8 5.24117 4.31831 0
M  V30 1322 H 118.746 3.4044 5.60746 0
M  V30 1323 H 118.663 5.13456 5.54886 0
M  V30 1324 H 119.931 4.36683 6.457 0
M  V30 1325 N 124.16 -0.719506 1.40217 0
M  V30 1326 C 125.406 -1.48152 1.38488 0
M  V30 1327 C 125.739 -1.94195 -0.0141867 0
M  V30 1328 O 125.014 -1.67884 -0.982096 0
M  V30 1329 C 125.297 -2.71035 2.37091 0
M  V30 1330 C 125.15 -2.30912 3.86005 0
M  V30 1331 C 126.469 -3.73182 2.33288 0
M  V30 1332 H 123.588 -0.537395 0.504357 0
M  V30 1333 H 126.23 -0.821472 1.71324 0
M  V30 1334 H 124.38 -3.27352 2.0922 0
M  V30 1335 H 126.052 -1.80107 4.24687 0
M  V30 1336 H 124.295 -1.62958 4.02029 0
M  V30 1337 H 124.966 -3.18978 4.50508 0
M  V30 1338 H 127.442 -3.26485 2.57966 0
M  V30 1339 H 126.318 -4.56806 3.04334 0
M  V30 1340 H 126.579 -4.21202 1.34317 0
M  V30 1341 N 125.638 -1.25649 -0.95132 0
M  V30 1342 C 126.866 -1.13343 -1.73092 0
M  V30 1343 C 127.281 0.312434 -1.86197 0
M  V30 1344 O 126.638 1.21465 -1.36207 0
M  V30 1345 C 126.689 -1.78602 -3.14299 0
M  V30 1346 O 126.41 -3.17537 -3.01831 0
M  V30 1347 C 127.911 -1.72119 -4.08522 0
M  V30 1348 H 125.131 -0.395181 -0.542285 0
M  V30 1349 H 127.675 -1.66076 -1.19328 0
M  V30 1350 H 125.83 -1.29832 -3.64996 0
M  V30 1351 H 126.244 -3.49676 -3.90931 0
M  V30 1352 H 127.718 -2.22435 -5.052 0
M  V30 1353 H 128.195 -0.685635 -4.33815 0
M  V30 1354 H 128.801 -2.20393 -3.63741 0
M  V30 1355 N 127.117 1.15442 -1.07289 0
M  V30 1356 C 128.366 1.85557 -0.790669 0
M  V30 1357 C 128.679 1.83186 0.685739 0
M  V30 1358 O 129.885 2.48977 1.0827 0
M  V30 1359 C 128.341 3.33038 -1.36433 0
M  V30 1360 C 127.949 3.43856 -2.8717 0
M  V30 1361 C 129.693 4.0834 -1.1601 0
M  V30 1362 C 127.6 4.85482 -3.3773 0
M  V30 1363 H 126.53 0.695122 -0.292098 0
M  V30 1364 H 129.181 1.30219 -1.29287 0
M  V30 1365 H 127.563 3.88043 -0.789864 0
M  V30 1366 H 128.737 2.98961 -3.50655 0
M  V30 1367 H 127.052 2.81998 -3.06376 0
M  V30 1368 H 129.649 5.12859 -1.51262 0
M  V30 1369 H 129.992 4.16182 -0.0991007 0
M  V30 1370 H 130.525 3.59603 -1.70089 0
M  V30 1371 H 127.264 4.82823 -4.43353 0
M  V30 1372 H 126.784 5.30961 -2.78999 0
M  V30 1373 H 128.463 5.54335 -3.33648 0
M  V30 1374 N 128.595 0.856903 1.32268 0
M  V30 1375 C 129.525 0.31858 2.31316 0
M  V30 1376 C 130.506 -0.583487 1.59779 0
M  V30 1377 O 131.691 -0.503259 1.87566 0
M  V30 1378 C 128.821 -0.491979 3.43798 0
M  V30 1379 C 127.775 0.315849 4.26833 0
M  V30 1380 C 127.101 -0.619586 5.31098 0
M  V30 1381 C 128.401 1.54282 4.98993 0
M  V30 1382 H 130.095 1.14621 2.76591 0
M  V30 1383 H 127.641 0.552613 1.32974 0
M  V30 1384 H 129.594 -0.879012 4.1213 0
M  V30 1385 H 128.318 -1.35299 2.97257 0
M  V30 1386 H 126.977 0.684664 3.6015 0
M  V30 1387 H 126.625 -1.47751 4.8081 0
M  V30 1388 H 126.325 -0.0830621 5.87541 0
M  V30 1389 H 127.849 -1.00375 6.02293 0
M  V30 1390 H 129.263 1.22796 5.59995 0
M  V30 1391 H 127.66 2.01745 5.65172 0
M  V30 1392 H 128.73 2.30285 4.26728 0
M  V30 1393 N 130.073 -1.45103 0.615059 0
M  V30 1394 C 130.983 -2.34382 -0.101034 0
M  V30 1395 C 131.999 -1.51681 -0.852585 0
M  V30 1396 O 133.175 -1.8446 -0.808484 0
M  V30 1397 C 130.24 -3.29417 -1.08099 0
M  V30 1398 C 129.301 -4.28025 -0.330577 0
M  V30 1399 C 128.534 -5.1852 -1.26385 0
M  V30 1400 O 128.757 -5.12598 -2.50198 0
M  V30 1401 O 127.691 -5.97122 -0.756866 0
M  V30 1402 H 131.517 -2.97033 0.632855 0
M  V30 1403 H 129.102 -1.4461 0.375293 0
M  V30 1404 H 130.984 -3.87958 -1.6452 0
M  V30 1405 H 129.659 -2.69321 -1.79577 0
M  V30 1406 H 128.566 -3.73078 0.276283 0
M  V30 1407 H 129.899 -4.90997 0.343866 0
M  V30 1408 N 131.551 -0.354651 -1.53558 0
M  V30 1409 C 132.514 0.484566 -2.24019 0
M  V30 1410 C 133.514 1.01861 -1.24422 0
M  V30 1411 O 134.704 0.906097 -1.4878 0
M  V30 1412 C 131.836 1.67615 -2.96847 0
M  V30 1413 H 133.029 -0.131843 -2.9961 0
M  V30 1414 H 130.582 -0.106165 -1.55939 0
M  V30 1415 H 131.317 2.33095 -2.25471 0
M  V30 1416 H 131.102 1.30029 -3.69912 0
M  V30 1417 H 132.592 2.27114 -3.50441 0
M  V30 1418 N 133.029 1.57378 -0.0835403 0
M  V30 1419 C 134.306 1.85363 0.624507 0
M  V30 1420 C 134.686 0.978239 1.87066 0
M  V30 1421 O 134.034 0.0475908 2.2845 0
M  V30 1422 C 134.244 3.35795 0.950947 0
M  V30 1423 C 135.592 4.03581 1.31939 0
M  V30 1424 O 136.616 3.40609 1.04232 0
M  V30 1425 O 135.475 5.14672 1.83779 0
M  V30 1426 H 132.569 0.766162 0.311329 0
M  V30 1427 H 135.115 1.69307 -0.115362 0
M  V30 1428 H 133.887 3.91244 0.0663899 0
M  V30 1429 H 133.51 3.57154 1.74719 0
M  V30 1430 N 134.507 -0.190092 1.56449 0
M  V30 1431 C 135.455 -1.25501 1.95837 0
M  V30 1432 C 136.449 -1.4685 0.844485 0
M  V30 1433 O 137.655 -1.47651 1.02952 0
M  V30 1434 H 134.03 -0.421447 0.622805 0
M  V30 1435 H 136.001 -0.895821 2.84636 0
M  V30 1436 C 134.75 -2.59124 2.31841 0
M  V30 1437 H 134.073 -2.43514 3.17082 0
M  V30 1438 H 135.513 -3.32371 2.6326 0
M  V30 1439 C 133.972 -3.16488 1.15486 0
M  V30 1440 O 134.502 -3.99365 0.432535 0
M  V30 1441 N 132.708 -2.75305 0.930349 0
M  V30 1442 H 132.255 -2.08013 1.51948 0
M  V30 1443 H 132.213 -3.14024 0.153634 0
M  V30 1444 N 135.985 -1.50799 -0.457987 0
M  V30 1445 C 137.401 -1.38515 -0.792819 0
M  V30 1446 C 137.601 -0.451409 -1.96379 0
M  V30 1447 O 136.657 0.10112 -2.52297 0
M  V30 1448 C 137.97 -2.80149 -1.09258 0
M  V30 1449 C 139.518 -2.89156 -1.19825 0
M  V30 1450 C 139.993 -4.31651 -1.53106 0
M  V30 1451 N 141.484 -4.34662 -1.60072 0
M  V30 1452 C 142.219 -5.41928 -1.87354 0
M  V30 1453 N 141.715 -6.59384 -2.12568 0
M  V30 1454 N 143.508 -5.29385 -1.88965 0
M  V30 1455 H 135.659 -2.10073 0.313511 0
M  V30 1456 H 137.922 -0.944803 0.0777862 0
M  V30 1457 H 137.628 -3.50374 -0.305084 0
M  V30 1458 H 137.502 -3.18204 -2.02549 0
M  V30 1459 H 139.889 -2.19141 -1.97639 0
M  V30 1460 H 139.97 -2.54626 -0.244821 0
M  V30 1461 H 139.614 -5.02208 -0.758266 0
M  V30 1462 H 139.544 -4.63678 -2.49621 0
M  V30 1463 H 142.035 -3.49973 -1.42573 0
M  V30 1464 H 142.348 -7.36934 -2.32696 0
M  V30 1465 H 140.693 -6.62535 -2.09933 0
M  V30 1466 H 143.884 -4.36616 -1.68772 0
M  V30 1467 H 144.057 -6.13066 -2.09891 0
M  V30 1468 N 137.463 0.71206 -1.40597 0
M  V30 1469 C 138.712 1.46754 -1.38369 0
M  V30 1470 C 139.025 1.95598 0.0097839 0
M  V30 1471 O 140.231 2.71059 0.154677 0
M  V30 1472 C 138.687 2.65289 -2.43207 0
M  V30 1473 C 138.295 2.23301 -3.88382 0
M  V30 1474 C 140.039 3.43008 -2.50091 0
M  V30 1475 C 137.946 3.38696 -4.84808 0
M  V30 1476 H 136.876 0.55118 -0.514506 0
M  V30 1477 H 139.527 0.774616 -1.66349 0
M  V30 1478 H 137.909 3.36769 -2.08332 0
M  V30 1479 H 139.083 1.59218 -4.32419 0
M  V30 1480 H 137.398 1.58618 -3.85006 0
M  V30 1481 H 139.995 4.28881 -3.1932 0
M  V30 1482 H 140.338 3.87065 -1.53253 0
M  V30 1483 H 140.871 2.78574 -2.83974 0
M  V30 1484 H 137.61 2.99668 -5.82992 0
M  V30 1485 H 137.13 4.01683 -4.45433 0
M  V30 1486 H 138.809 4.04712 -5.04794 0
M  V30 1487 N 138.941 1.26152 0.944643 0
M  V30 1488 C 140.189 1.11271 1.6871 0
M  V30 1489 C 140.51 -0.345166 1.91921 0
M  V30 1490 O 139.78 -1.24387 1.51343 0
M  V30 1491 H 138.36 0.408783 0.625224 0
M  V30 1492 H 141.022 1.58427 1.1352 0
M  V30 1493 H 140.118 1.62879 2.66227 0
M  V30 1494 N 140.419 -1.14872 1.07899 0
M  V30 1495 C 141.667 -1.85422 0.803941 0
M  V30 1496 C 141.988 -1.83051 -0.67211 0
M  V30 1497 O 141.258 -1.27532 -1.48703 0
M  V30 1498 H 139.838 -0.686537 0.294408 0
M  V30 1499 H 142.5 -1.39226 1.3639 0
M  V30 1500 H 141.596 -2.90399 1.14346 0
M  V30 1501 N 141.898 -0.863906 -1.31812 0
M  V30 1502 C 143.314 -0.555004 -1.49639 0
M  V30 1503 C 143.514 0.912266 -1.79666 0
M  V30 1504 O 142.57 1.69479 -1.87171 0
M  V30 1505 C 143.883 -1.44998 -2.63431 0
M  V30 1506 C 145.431 -1.45138 -2.77316 0
M  V30 1507 C 145.906 -2.33179 -3.94197 0
M  V30 1508 N 147.397 -2.31025 -4.01474 0
M  V30 1509 C 148.132 -2.95871 -4.9117 0
M  V30 1510 N 147.628 -3.69863 -5.8581 0
M  V30 1511 N 149.421 -2.85211 -4.84367 0
M  V30 1512 H 141.572 -1.81339 -1.10589 0
M  V30 1513 H 143.835 -0.77505 -0.545895 0
M  V30 1514 H 143.541 -2.49377 -2.48 0
M  V30 1515 H 143.415 -1.14409 -3.59431 0
M  V30 1516 H 145.802 -0.415201 -2.92164 0
M  V30 1517 H 145.883 -1.79747 -1.82001 0
M  V30 1518 H 145.527 -3.3687 -3.80107 0
M  V30 1519 H 145.457 -1.95897 -4.88807 0
M  V30 1520 H 147.948 -1.77238 -3.33759 0
M  V30 1521 H 148.261 -4.16486 -6.50968 0
M  V30 1522 H 146.606 -3.73971 -5.85808 0
M  V30 1523 H 149.797 -2.26948 -4.09405 0
M  V30 1524 H 149.97 -3.36027 -5.54066 0
M  V30 1525 N 143.376 1.44774 -0.622745 0
M  V30 1526 C 144.625 2.01334 -0.121397 0
M  V30 1527 C 144.938 1.49505 1.26125 0
M  V30 1528 O 146.144 1.98139 1.85616 0
M  V30 1529 C 144.6 3.59516 -0.166298 0
M  V30 1530 C 144.208 4.20342 -1.54974 0
M  V30 1531 C 145.952 4.23582 0.279021 0
M  V30 1532 C 143.859 5.70721 -1.55021 0
M  V30 1533 H 142.789 0.752851 -0.0416172 0
M  V30 1534 H 145.44 1.66083 -0.780309 0
M  V30 1535 H 143.822 3.92027 0.559557 0
M  V30 1536 H 144.996 3.99381 -2.29851 0
M  V30 1537 H 143.311 3.68529 -1.93843 0
M  V30 1538 H 145.908 5.33868 0.298083 0
M  V30 1539 H 146.251 3.95327 1.30471 0
M  V30 1540 H 146.784 3.95843 -0.394063 0
M  V30 1541 H 143.523 6.03698 -2.55399 0
M  V30 1542 H 143.043 5.93829 -0.844245 0
M  V30 1543 H 144.722 6.34203 -1.28047 0
M  V30 1544 N 144.854 0.36279 1.53368 0
M  V30 1545 C 146.101 -0.227776 2.01215 0
M  V30 1546 C 146.429 -1.49003 1.25014 0
M  V30 1547 O 145.684 -1.92876 0.331236 0
M  V30 1548 C 145.983 -0.568417 3.52851 0
M  V30 1549 C 145.649 0.59918 4.46901 0
M  V30 1550 C 144.311 0.919559 4.72332 0
M  V30 1551 C 146.663 1.38156 5.02556 0
M  V30 1552 C 143.991 2.02434 5.5067 0
M  V30 1553 C 146.343 2.47674 5.821 0
M  V30 1554 C 145.007 2.8025 6.05819 0
M  V30 1555 H 144.277 -0.083349 0.736297 0
M  V30 1556 H 146.924 0.494677 1.85001 0
M  V30 1557 H 145.229 -1.37185 3.66998 0
M  V30 1558 H 146.926 -1.03756 3.87344 0
M  V30 1559 H 143.516 0.339437 4.27254 0
M  V30 1560 H 147.7 1.14729 4.82857 0
M  V30 1561 H 142.956 2.28075 5.67267 0
M  V30 1562 H 147.13 3.08716 6.24234 0
M  V30 1563 H 144.757 3.65979 6.66306 0
M  V30 1564 N 146.332 -1.57332 0.0918853 0
M  V30 1565 C 147.56 -1.98574 -0.581048 0
M  V30 1566 C 147.975 -0.970903 -1.61923 0
M  V30 1567 O 147.332 0.0399054 -1.82456 0
M  V30 1568 C 147.383 -3.39872 -1.23164 0
M  V30 1569 O 147.104 -4.37469 -0.234989 0
M  V30 1570 C 148.605 -3.96099 -1.99049 0
M  V30 1571 H 145.825 -0.65261 -0.156018 0
M  V30 1572 H 148.369 -2.0379 0.170225 0
M  V30 1573 H 146.524 -3.35679 -1.93386 0
M  V30 1574 H 146.938 -5.19751 -0.70418 0
M  V30 1575 H 148.412 -4.97127 -2.39934 0
M  V30 1576 H 148.889 -3.3374 -2.85507 0
M  V30 1577 H 149.495 -4.03755 -1.3365 0
M  V30 1578 N 147.81 0.181792 -1.56548 0
M  V30 1579 C 149.04 0.914618 -1.85252 0
M  V30 1580 C 149.448 1.76791 -0.673914 0
M  V30 1581 O 148.791 1.80009 0.366416 0
M  V30 1582 C 148.853 1.85019 -3.08234 0
M  V30 1583 C 148.517 1.17754 -4.41569 0
M  V30 1584 C 149.514 0.548035 -5.17003 0
M  V30 1585 C 147.199 1.17742 -4.88305 0
M  V30 1586 C 149.193 -0.0726128 -6.37359 0
M  V30 1587 C 146.88 0.552946 -6.08593 0
M  V30 1588 C 147.878 -0.070978 -6.82963 0
M  V30 1589 O 147.566 -0.685635 -8.00971 0
M  V30 1590 H 147.298 0.271695 -0.618998 0
M  V30 1591 H 149.852 0.189944 -2.0452 0
M  V30 1592 H 148.082 2.61491 -2.84885 0
M  V30 1593 H 149.771 2.45195 -3.23472 0
M  V30 1594 H 150.537 0.540174 -4.81982 0
M  V30 1595 H 146.416 1.65246 -4.30366 0
M  V30 1596 H 149.96 -0.560213 -6.95347 0
M  V30 1597 H 145.857 0.558354 -6.43081 0
M  V30 1598 H 146.625 -0.58385 -8.16415 0
M  V30 1599 N 149.288 1.51039 0.449983 0
M  V30 1600 C 150.704 1.38934 0.785462 0
M  V30 1601 C 150.904 0.461817 1.96136 0
M  V30 1602 O 149.96 -0.0877389 2.52348 0
M  V30 1603 C 151.273 2.80724 1.0777 0
M  V30 1604 C 152.821 2.89787 1.1829 0
M  V30 1605 C 153.296 4.32457 1.50815 0
M  V30 1606 N 154.787 4.35505 1.57764 0
M  V30 1607 C 155.522 5.42914 1.84477 0
M  V30 1608 N 155.018 6.60502 2.09068 0
M  V30 1609 N 156.811 5.3038 1.86155 0
M  V30 1610 H 148.962 2.09904 -0.324647 0
M  V30 1611 H 151.225 0.944378 -0.0827957 0
M  V30 1612 H 150.931 3.50531 0.286498 0
M  V30 1613 H 150.805 3.19273 2.00859 0
M  V30 1614 H 153.192 2.20186 1.96474 0
M  V30 1615 H 153.273 2.54752 0.231314 0
M  V30 1616 H 152.917 5.02603 0.731622 0
M  V30 1617 H 152.847 4.64995 2.47158 0
M  V30 1618 H 155.338 3.50724 1.40715 0
M  V30 1619 H 155.651 7.38158 2.28785 0
M  V30 1620 H 153.996 6.63639 2.06416 0
M  V30 1621 H 157.187 4.37505 1.66454 0
M  V30 1622 H 157.36 6.1417 2.06637 0
M  V30 1623 N 150.766 -0.704594 1.40972 0
M  V30 1624 C 152.043 -1.45847 1.30338 0
M  V30 1625 C 152.423 -2.10973 -0.0732344 0
M  V30 1626 O 151.771 -2.00997 -1.08685 0
M  V30 1627 C 151.981 -2.48525 2.45023 0
M  V30 1628 C 153.329 -3.1404 2.8577 0
M  V30 1629 O 154.353 -2.58848 2.44696 0
M  V30 1630 O 153.212 -4.13981 3.56766 0
M  V30 1631 H 150.306 -0.649092 0.512454 0
M  V30 1632 H 152.852 -0.735836 1.52917 0
M  V30 1633 H 151.624 -1.98994 3.36923 0
M  V30 1634 H 151.247 -3.2831 2.24272 0
M  V30 1635 N 152.244 -1.26651 -0.937939 0
M  V30 1636 C 153.176 -1.04283 -2.04102 0
M  V30 1637 C 154.189 -0.00221014 -1.628 0
M  V30 1638 O 155.378 -0.242645 -1.76843 0
M  V30 1639 C 152.478 -0.557846 -3.34277 0
M  V30 1640 C 151.651 -1.66843 -4.04329 0
M  V30 1641 C 150.71 -1.18095 -5.12777 0
M  V30 1642 O 149.736 -1.87865 -5.37304 0
M  V30 1643 N 150.938 -0.0311006 -5.80492 0
M  V30 1644 H 153.703 -1.9927 -2.23856 0
M  V30 1645 H 151.264 -1.1808 -1.10764 0
M  V30 1646 H 153.256 -0.215836 -4.04124 0
M  V30 1647 H 151.826 0.298523 -3.11171 0
M  V30 1648 H 151.046 -2.18123 -3.28353 0
M  V30 1649 H 152.334 -2.41408 -4.47883 0
M  V30 1650 H 151.732 0.551486 -5.63005 0
M  V30 1651 H 150.289 0.251809 -6.51313 0
M  V30 1652 N 153.722 1.14298 -1.08507 0
M  V30 1653 C 154.67 2.21483 -0.710483 0
M  V30 1654 C 155.664 1.66998 0.284234 0
M  V30 1655 O 156.87 1.79401 0.146692 0
M  V30 1656 H 153.245 0.721578 -0.211729 0
M  V30 1657 H 155.216 2.50348 -1.62384 0
M  V30 1658 C 153.965 3.4743 -0.137007 0
M  V30 1659 H 153.288 3.89686 -0.893592 0
M  V30 1660 H 154.728 4.2391 0.0872789 0
M  V30 1661 C 153.187 3.17548 1.12538 0
M  V30 1662 O 153.717 3.35437 2.21009 0
M  V30 1663 N 151.923 2.71499 1.03617 0
M  V30 1664 H 151.47 2.57143 0.153403 0
M  V30 1665 H 151.428 2.51881 1.88158 0
M  V30 1666 N 155.201 0.870884 1.31352 0
M  V30 1667 C 156.429 0.49677 2.00848 0
M  V30 1668 C 156.844 -0.910998 1.65367 0
M  V30 1669 O 156.201 -1.59696 0.883374 0
M  V30 1670 C 156.252 0.645308 3.55694 0
M  V30 1671 O 155.973 1.99764 3.89905 0
M  V30 1672 C 157.474 0.272326 4.42463 0
M  V30 1673 H 154.694 0.193462 0.642506 0
M  V30 1674 H 157.238 1.1723 1.67563 0
M  V30 1675 H 155.393 0.0173176 3.87396 0
M  V30 1676 H 155.807 2.00607 4.84621 0
M  V30 1677 H 157.281 0.427208 5.50344 0
M  V30 1678 H 157.758 -0.788587 4.32062 0
M  V30 1679 H 158.364 0.876054 4.1618 0
M  V30 1680 N 156.679 -1.44442 0.630414 0
M  V30 1681 C 157.927 -2.01653 0.134351 0
M  V30 1682 C 158.248 -1.49836 -1.24796 0
M  V30 1683 O 157.518 -0.701684 -1.82902 0
M  V30 1684 H 156.098 -0.74554 0.0466769 0
M  V30 1685 H 158.76 -1.76952 0.816955 0
M  V30 1686 H 157.856 -3.11935 0.101498 0
M  V30 1687 N 158.157 -0.370918 -1.53173 0
M  V30 1688 C 159.403 0.209976 -2.02313 0
M  V30 1689 C 159.758 1.45987 -1.25322 0
M  V30 1690 O 159.051 1.8856 -0.339965 0
M  V30 1691 C 159.245 0.549696 -3.53147 0
M  V30 1692 C 159.074 -0.665721 -4.44745 0
M  V30 1693 C 157.844 -1.17942 -4.91343 0
M  V30 1694 C 160.042 -1.53255 -4.90935 0
M  V30 1695 N 158.024 -2.35431 -5.66962 0
M  V30 1696 C 159.395 -2.55403 -5.64951 0
M  V30 1697 C 161.45 -1.5548 -4.73002 0
M  V30 1698 C 160.153 -3.5964 -6.22938 0
M  V30 1699 C 162.179 -2.58613 -5.31858 0
M  V30 1700 C 161.541 -3.59485 -6.05764 0
M  V30 1701 H 157.64 0.0394095 -0.781006 0
M  V30 1702 H 160.224 -0.516666 -1.8772 0
M  V30 1703 H 158.395 1.24541 -3.67891 0
M  V30 1704 H 160.127 1.11614 -3.89004 0
M  V30 1705 H 156.882 -0.743228 -4.67732 0
M  V30 1706 H 157.306 -2.94827 -6.09431 0
M  V30 1707 H 161.948 -0.788457 -4.15383 0
M  V30 1708 H 159.666 -4.37153 -6.79649 0
M  V30 1709 H 163.252 -2.61195 -5.19873 0
M  V30 1710 H 162.132 -4.3798 -6.50495 0
M  V30 1711 N 159.635 1.57281 -0.100228 0
M  V30 1712 C 160.884 1.93713 0.561984 0
M  V30 1713 C 161.197 0.984492 1.69018 0
M  V30 1714 O 162.403 1.24273 2.41389 0
M  V30 1715 C 160.859 3.4421 1.05106 0
M  V30 1716 C 160.467 4.47975 -0.0476628 0
M  V30 1717 C 162.211 3.89595 1.68571 0
M  V30 1718 C 160.118 5.89631 0.457055 0
M  V30 1719 H 159.048 0.723082 0.2137 0
M  V30 1720 H 161.699 1.82644 -0.177057 0
M  V30 1721 H 160.081 3.50449 1.84395 0
M  V30 1722 H 161.255 4.53385 -0.823333 0
M  V30 1723 H 159.57 4.1223 -0.587816 0
M  V30 1724 H 162.167 4.92832 2.07414 0
M  V30 1725 H 162.51 3.28526 2.55688 0
M  V30 1726 H 163.043 3.86078 0.958562 0
M  V30 1727 H 159.782 6.54411 -0.377616 0
M  V30 1728 H 159.302 5.87681 1.19962 0
M  V30 1729 H 160.981 6.40363 0.92437 0
M  V30 1730 N 161.113 -0.173488 1.56642 0
M  V30 1731 C 162.361 -0.888706 1.81512 0
M  V30 1732 C 162.682 -1.82875 0.676872 0
M  V30 1733 O 161.952 -1.93536 -0.303414 0
M  V30 1734 H 160.532 -0.331164 0.669582 0
M  V30 1735 H 163.194 -0.173823 1.94123 0
M  V30 1736 H 162.29 -1.46691 2.75478 0
M  V30 1737 N 162.591 -1.51276 -0.441967 0
M  V30 1738 C 163.501 -1.75092 -1.56141 0
M  V30 1739 C 164.517 -0.634963 -1.62001 0
M  V30 1740 O 165.693 -0.916686 -1.79329 0
M  V30 1741 C 162.758 -1.86666 -2.92158 0
M  V30 1742 C 161.819 -3.10506 -2.96453 0
M  V30 1743 C 161.052 -3.21519 -4.25982 0
M  V30 1744 O 161.275 -2.38586 -5.18105 0
M  V30 1745 O 160.209 -4.14465 -4.36466 0
M  V30 1746 H 164.035 -2.70044 -1.38961 0
M  V30 1747 H 161.62 -1.35722 -0.624499 0
M  V30 1748 H 163.502 -1.96292 -3.72891 0
M  V30 1749 H 162.177 -0.949014 -3.09476 0
M  V30 1750 H 161.084 -3.06363 -2.14692 0
M  V30 1751 H 162.417 -4.01945 -2.84079 0
M  V30 1752 N 164.069 0.697108 -1.41344 0
M  V30 1753 C 164.999 1.82353 -1.45841 0
M  V30 1754 C 165.98 1.67115 -0.317247 0
M  V30 1755 O 167.165 1.86871 -0.528474 0
M  V30 1756 C 164.295 3.20476 -1.33838 0
M  V30 1757 C 163.249 3.50415 -2.4575 0
M  V30 1758 C 162.575 4.87878 -2.18813 0
M  V30 1759 C 163.875 3.49546 -3.88091 0
M  V30 1760 H 165.569 1.78846 -2.40113 0
M  V30 1761 H 163.115 0.859028 -1.15571 0
M  V30 1762 H 165.068 3.98988 -1.35596 0
M  V30 1763 H 163.792 3.24604 -0.360498 0
M  V30 1764 H 162.451 2.74253 -2.43271 0
M  V30 1765 H 162.099 4.8863 -1.19371 0
M  V30 1766 H 161.799 5.08875 -2.93803 0
M  V30 1767 H 163.323 5.68702 -2.22284 0
M  V30 1768 H 164.737 4.18066 -3.92293 0
M  V30 1769 H 163.134 3.82075 -4.62751 0
M  V30 1770 H 164.204 2.48552 -4.16353 0
M  V30 1771 N 165.547 1.27147 0.931209 0
M  V30 1772 C 166.795 1.13055 1.6752 0
M  V30 1773 C 167.116 -0.324791 1.92276 0
M  V30 1774 O 166.386 -1.22775 1.52654 0
M  V30 1775 H 164.966 0.415391 0.620854 0
M  V30 1776 H 167.628 1.59623 1.11833 0
M  V30 1777 H 166.724 1.65694 2.64485 0
M  V30 1778 N 167.025 -1.13721 1.09112 0
M  V30 1779 C 167.988 -2.17222 0.731241 0
M  V30 1780 C 168.988 -1.59035 -0.237566 0
M  V30 1781 O 170.178 -1.74192 -0.0161704 0
M  V30 1782 C 167.31 -3.40804 0.0808443 0
M  V30 1783 H 168.503 -2.50573 1.64783 0
M  V30 1784 H 166.056 -1.28493 0.889897 0
M  V30 1785 H 166.791 -3.1304 -0.847127 0
M  V30 1786 H 166.576 -3.84306 0.777896 0
M  V30 1787 H 168.066 -4.1731 -0.155657 0
M  V30 1788 N 168.503 -0.877838 -1.30888 0
M  V30 1789 C 169.436 -0.283995 -2.26426 0
M  V30 1790 C 170.414 0.591361 -1.51465 0
M  V30 1791 O 171.598 0.54304 -1.80509 0
M  V30 1792 C 168.725 0.597129 -3.33395 0
M  V30 1793 C 167.771 -0.207937 -4.25993 0
M  V30 1794 S 168.604 -1.59158 -5.11301 0
M  V30 1795 C 169.76 -0.716791 -6.21782 0
M  V30 1796 H 169.993 -1.09383 -2.76446 0
M  V30 1797 H 167.526 -0.676828 -1.38775 0
M  V30 1798 H 169.484 1.09978 -3.95493 0
M  V30 1799 H 168.145 1.38099 -2.82113 0
M  V30 1800 H 167.338 0.464163 -5.01858 0
M  V30 1801 H 166.94 -0.642963 -3.68432 0
M  V30 1802 H 169.232 0.0692833 -6.77465 0
M  V30 1803 H 170.175 -1.44682 -6.93161 0
M  V30 1804 H 170.583 -0.280855 -5.63801 0
M  V30 1805 N 169.982 1.44106 -0.638065 0
M  V30 1806 C 171.398 1.56672 -0.304286 0
M  V30 1807 C 171.598 1.6244 1.19228 0
M  V30 1808 O 170.654 1.57121 1.9766 0
M  V30 1809 C 171.967 2.83503 -1.00231 0
M  V30 1810 C 173.515 2.97226 -0.981116 0
M  V30 1811 C 173.99 4.26868 -1.65974 0
M  V30 1812 N 175.481 4.33698 -1.62666 0
M  V30 1813 C 176.216 5.32745 -2.12063 0
M  V30 1814 N 175.712 6.38157 -2.6968 0
M  V30 1815 N 177.505 5.24299 -2.02651 0
M  V30 1816 H 169.656 1.38605 -1.60942 0
M  V30 1817 H 171.919 0.664661 -0.675965 0
M  V30 1818 H 171.625 2.85251 -2.0573 0
M  V30 1819 H 171.499 3.73251 -0.54439 0
M  V30 1820 H 173.886 2.95027 0.0654188 0
M  V30 1821 H 173.967 2.08808 -1.47759 0
M  V30 1822 H 173.611 4.29826 -2.70576 0
M  V30 1823 H 173.541 5.14156 -1.13804 0
M  V30 1824 H 176.032 3.58138 -1.20606 0
M  V30 1825 H 176.345 7.10029 -3.05087 0
M  V30 1826 H 174.69 6.38823 -2.73734 0
M  V30 1827 H 177.881 4.4086 -1.57353 0
M  V30 1828 H 178.054 6.01334 -2.41457 0
M  V30 1829 N 171.46 0.379036 1.52974 0
M  V30 1830 C 172.393 -0.504932 2.22544 0
M  V30 1831 C 173.371 -1.0723 1.22231 0
M  V30 1832 O 174.555 -1.12589 1.51182 0
M  V30 1833 C 171.682 -1.69794 2.93066 0
M  V30 1834 C 170.728 -1.25678 4.07563 0
M  V30 1835 S 171.561 -0.246852 5.34931 0
M  V30 1836 C 172.717 -1.44588 6.08971 0
M  V30 1837 H 172.95 0.0858666 2.97176 0
M  V30 1838 H 170.483 0.163183 1.53535 0
M  V30 1839 H 172.441 -2.38219 3.34308 0
M  V30 1840 H 171.102 -2.26002 2.18133 0
M  V30 1841 H 170.295 -2.14725 4.5597 0
M  V30 1842 H 169.897 -0.651584 3.6828 0
M  V30 1843 H 172.189 -2.37469 6.34519 0
M  V30 1844 H 173.132 -1.00292 7.00962 0
M  V30 1845 H 173.54 -1.65804 5.39601 0
M  V30 1846 N 172.938 -1.57226 0.108567 0
M  V30 1847 C 174.349 -1.8195 -0.418464 0
M  V30 1848 C 174.7 -1.02508 -1.67292 0
M  V30 1849 O 173.825 -0.258496 -2.14851 0
M  V30 1850 C 174.42 -3.30028 -0.765979 0
M  V30 1851 C 172.979 -3.55469 -1.23769 0
M  V30 1852 C 172.126 -2.7625 -0.241106 0
M  V30 1853 H 175.077 -1.55149 0.33384 0
M  V30 1854 H 175.098 -3.44086 -1.62434 0
M  V30 1855 H 174.61 -3.87821 0.147219 0
M  V30 1856 H 172.711 -3.03022 -2.16814 0
M  V30 1857 H 172.824 -4.6408 -1.19022 0
M  V30 1858 H 171.188 -2.44133 -0.72602 0
M  V30 1859 H 171.971 -3.36797 0.665007 0
M  V30 1860 N 174.416 0.165178 -1.56732 0
M  V30 1861 C 175.641 0.900253 -1.86843 0
M  V30 1862 C 176.066 1.74766 -0.695596 0
M  V30 1863 O 175.424 1.77786 0.35522 0
M  V30 1864 C 175.472 1.74777 -3.15413 0
M  V30 1865 O 174.576 2.85007 -2.98068 0
M  V30 1866 H 173.917 0.251832 -0.614391 0
M  V30 1867 H 176.447 0.161468 -2.03962 0
M  V30 1868 H 176.457 2.14646 -3.46974 0
M  V30 1869 H 175.132 1.12537 -4.00385 0
M  V30 1870 H 173.709 2.48676 -2.77875 0
M  V30 1871 N 175.894 1.51508 0.433938 0
M  V30 1872 C 177.119 1.68443 1.21003 0
M  V30 1873 C 177.544 0.382636 1.84167 0
M  V30 1874 O 176.902 -0.65755 1.68956 0
M  V30 1875 C 176.95 2.80405 2.26727 0
M  V30 1876 O 176.054 2.44245 3.32292 0
M  V30 1877 H 175.395 0.561536 0.354363 0
M  V30 1878 H 177.925 1.9809 0.512024 0
M  V30 1879 H 177.935 3.0459 2.71457 0
M  V30 1880 H 176.61 3.74867 1.80132 0
M  V30 1881 H 175.187 2.30644 2.93015 0
M  V30 1882 N 177.372 -0.689602 1.41712 0
M  V30 1883 C 178.322 -1.79571 1.40493 0
M  V30 1884 C 179.306 -1.58473 0.278409 0
M  V30 1885 O 180.498 -1.69204 0.519532 0
M  V30 1886 C 177.627 -3.17923 1.29536 0
M  V30 1887 C 176.713 -3.44695 2.47075 0
M  V30 1888 N 177.104 -3.42132 3.72531 0
M  V30 1889 C 175.402 -3.75269 2.41017 0
M  V30 1890 C 176.103 -3.67976 4.50521 0
M  V30 1891 N 175.079 -3.88014 3.80718 0
M  V30 1892 H 178.881 -1.75961 2.35404 0
M  V30 1893 H 176.395 -0.889839 1.35851 0
M  V30 1894 H 178.392 -3.97167 1.26745 0
M  V30 1895 H 177.052 -3.22741 0.356153 0
M  V30 1896 H 178.063 -3.22375 4.05333 0
M  V30 1897 H 174.74 -3.87421 1.55599 0
M  V30 1898 H 176.13 -3.7208 5.59469 0
M  V30 1899 N 178.85 -1.27639 -0.924453 0
M  V30 1900 C 180.266 -1.05113 -1.20097 0
M  V30 1901 C 180.466 0.213262 -2.00368 0
M  V30 1902 O 179.522 0.91787 -2.35226 0
M  V30 1903 C 180.835 -2.29244 -1.94596 0
M  V30 1904 C 182.383 -2.34315 -2.07522 0
M  V30 1905 C 182.858 -3.58183 -2.85427 0
M  V30 1906 N 184.349 -3.5876 -2.92994 0
M  V30 1907 C 185.084 -4.51277 -3.53746 0
M  V30 1908 N 184.58 -5.54102 -4.15863 0
M  V30 1909 N 186.373 -4.38894 -3.51181 0
M  V30 1910 H 178.524 -2.08821 -0.388264 0
M  V30 1911 H 180.787 -0.918568 -0.234385 0
M  V30 1912 H 180.493 -3.21301 -1.43034 0
M  V30 1913 H 180.367 -2.34816 -2.95197 0
M  V30 1914 H 182.754 -1.42762 -2.58269 0
M  V30 1915 H 182.835 -2.32744 -1.06131 0
M  V30 1916 H 182.479 -4.50074 -2.35363 0
M  V30 1917 H 182.409 -3.57006 -3.8711 0
M  V30 1918 H 184.9 -2.84398 -2.4885 0
M  V30 1919 H 185.213 -6.20859 -4.60168 0
M  V30 1920 H 183.558 -5.57941 -4.144 0
M  V30 1921 H 186.749 -3.57772 -3.01856 0
M  V30 1922 H 186.922 -5.11186 -3.98237 0
M  V30 1923 N 180.328 1.1314 -1.09713 0
M  V30 1924 C 181.577 1.83838 -0.829851 0
M  V30 1925 C 181.89 1.84599 0.646728 0
M  V30 1926 O 183.096 2.51218 1.02965 0
M  V30 1927 C 181.552 3.30069 -1.43466 0
M  V30 1928 C 181.16 3.37688 -2.94399 0
M  V30 1929 C 182.904 4.05788 -1.24645 0
M  V30 1930 C 180.811 4.78209 -3.47952 0
M  V30 1931 H 179.741 0.68877 -0.306777 0
M  V30 1932 H 182.392 1.27448 -1.3202 0
M  V30 1933 H 180.774 3.8628 -0.871996 0
M  V30 1934 H 181.948 2.91456 -3.56918 0
M  V30 1935 H 180.263 2.75436 -3.12289 0
M  V30 1936 H 182.86 5.09535 -1.62107 0
M  V30 1937 H 183.203 4.15878 -0.187357 0
M  V30 1938 H 183.736 3.55915 -1.77678 0
M  V30 1939 H 180.475 4.73311 -4.53495 0
M  V30 1940 H 179.995 5.24924 -2.90198 0
M  V30 1941 H 181.674 5.47133 -3.45332 0
M  V30 1942 N 181.806 0.884767 1.30421 0
M  V30 1943 C 182.736 0.367574 2.30589 0
M  V30 1944 C 183.717 -0.549464 1.60981 0
M  V30 1945 O 184.902 -0.46336 1.88591 0
M  V30 1946 C 182.032 -0.418944 3.44764 0
M  V30 1947 C 180.986 0.406316 4.26067 0
M  V30 1948 C 180.312 -0.506793 5.32293 0
M  V30 1949 C 181.612 1.64832 4.95608 0
M  V30 1950 H 183.306 1.20462 2.74097 0
M  V30 1951 H 180.852 0.580695 1.31772 0
M  V30 1952 H 182.805 -0.791395 4.13902 0
M  V30 1953 H 181.529 -1.28964 3.0006 0
M  V30 1954 H 180.188 0.760903 3.58617 0
M  V30 1955 H 179.836 -1.37519 4.83836 0
M  V30 1956 H 179.536 0.0415828 5.87585 0
M  V30 1957 H 181.06 -0.875764 6.04287 0
M  V30 1958 H 182.474 1.34646 5.57264 0
M  V30 1959 H 180.871 2.13688 5.60765 0
M  V30 1960 H 181.941 2.39284 4.21748 0
M  V30 1961 N 183.284 -1.43765 0.645699 0
M  V30 1962 C 184.234 -2.27884 -0.0726442 0
M  V30 1963 C 185.218 -1.39483 -0.802086 0
M  V30 1964 O 186.41 -1.63174 -0.685791 0
M  V30 1965 C 183.539 -3.27055 -1.04356 0
M  V30 1966 C 182.625 -4.22944 -0.312985 0
M  V30 1967 N 183.016 -5.01391 0.666386 0
M  V30 1968 C 181.314 -4.42528 -0.55546 0
M  V30 1969 C 182.015 -5.71217 1.09935 0
M  V30 1970 N 180.991 -5.41856 0.435137 0
M  V30 1971 H 184.793 -2.85949 0.678988 0
M  V30 1972 H 182.307 -1.55378 0.472368 0
M  V30 1973 H 184.304 -3.86089 -1.57292 0
M  V30 1974 H 182.964 -2.70551 -1.79534 0
M  V30 1975 H 183.975 -5.07252 1.04481 0
M  V30 1976 H 180.652 -3.97104 -1.28899 0
M  V30 1977 H 182.042 -6.44202 1.90929 0
M  V30 1978 N 184.763 -0.387143 -1.52771 0
M  V30 1979 C 185.71 0.449048 -2.26389 0
M  V30 1980 C 186.68 1.05961 -1.27912 0
M  V30 1981 O 187.865 1.08804 -1.56737 0
M  V30 1982 C 185.005 1.57155 -3.0724 0
M  V30 1983 C 184.118 0.984066 -4.20643 0
M  V30 1984 C 183.253 2.07745 -4.88892 0
M  V30 1985 C 182.292 1.46574 -5.94292 0
M  V30 1986 N 181.429 2.49834 -6.56146 0
M  V30 1987 H 186.269 -0.185205 -2.97424 0
M  V30 1988 H 183.806 -0.103164 -1.46738 0
M  V30 1989 H 185.764 2.23309 -3.52405 0
M  V30 1990 H 184.394 2.17615 -2.38419 0
M  V30 1991 H 183.446 0.212193 -3.79808 0
M  V30 1992 H 184.758 0.497029 -4.96318 0
M  V30 1993 H 183.912 2.81673 -5.3735 0
M  V30 1994 H 182.651 2.59807 -4.12737 0
M  V30 1995 H 181.656 0.711696 -5.45174 0
M  V30 1996 H 182.881 0.953088 -6.72379 0
M  V30 1997 H 180.827 3.0107 -5.82832 0
M  V30 1998 H 180.744 2.05879 -7.27427 0
M  V30 1999 H 182.012 3.23399 -7.09249 0
M  V30 2000 N 186.241 1.57166 -0.116904 0
M  V30 2001 C 187.171 2.18222 0.830759 0
M  V30 2002 C 188.152 1.12167 1.27877 0
M  V30 2003 O 189.337 1.40394 1.34176 0
M  V30 2004 C 186.467 2.77996 2.08172 0
M  V30 2005 C 185.421 3.89614 1.77157 0
M  V30 2006 C 184.747 4.36187 3.09265 0
M  V30 2007 C 186.047 5.1181 1.04151 0
M  V30 2008 H 187.741 2.97664 0.321992 0
M  V30 2009 H 185.287 1.4318 0.153434 0
M  V30 2010 H 187.24 3.19366 2.74924 0
M  V30 2011 H 185.964 1.9584 2.6137 0
M  V30 2012 H 184.623 3.48816 1.12796 0
M  V30 2013 H 184.271 3.50893 3.60393 0
M  V30 2014 H 183.971 5.11455 2.89288 0
M  V30 2015 H 185.495 4.80207 3.77139 0
M  V30 2016 H 186.909 5.50214 1.61052 0
M  V30 2017 H 185.306 5.92648 0.942762 0
M  V30 2018 H 186.376 4.84892 0.0279022 0
M  V30 2019 N 187.719 -0.156864 1.56817 0
M  V30 2020 C 188.959 -0.877453 1.84608 0
M  V30 2021 C 189.323 -1.78791 0.699845 0
M  V30 2022 O 190.524 -2.5472 0.858553 0
M  V30 2023 C 188.795 -1.63992 3.17555 0
M  V30 2024 S 190.354 -2.40729 3.66872 0
M  V30 2025 H 187.172 -0.293612 0.647544 0
M  V30 2026 H 189.774 -0.138099 1.95012 0
M  V30 2027 H 188.478 -0.962363 3.98957 0
M  V30 2028 H 188.009 -2.42038 3.10131 0
M  V30 2029 H 190.024 -3.65725 3.3535 0
M  V30 2030 N 189.197 -1.51736 -0.425897 0
M  V30 2031 C 190.129 -1.70083 -1.53638 0
M  V30 2032 C 191.142 -0.581349 -1.52066 0
M  V30 2033 O 192.331 -0.856017 -1.56635 0
M  V30 2034 C 189.431 -1.71078 -2.9255 0
M  V30 2035 C 188.604 -2.99795 -3.185 0
M  V30 2036 C 187.663 -2.92825 -4.37196 0
M  V30 2037 O 186.689 -3.66756 -4.35291 0
M  V30 2038 N 187.891 -2.0946 -5.41393 0
M  V30 2039 H 190.656 -2.65882 -1.383 0
M  V30 2040 H 188.217 -1.49765 -0.614988 0
M  V30 2041 H 190.209 -1.63969 -3.69995 0
M  V30 2042 H 188.779 -0.828242 -3.01428 0
M  V30 2043 H 187.999 -3.20684 -2.2925 0
M  V30 2044 H 189.287 -3.84977 -3.32671 0
M  V30 2045 H 188.685 -1.48792 -5.45781 0
M  V30 2046 H 187.242 -2.08221 -6.17647 0
M  V30 2047 N 190.675 0.682077 -1.42076 0
M  V30 2048 C 191.923 1.4393 -1.41876 0
M  V30 2049 C 192.244 1.94971 -0.0335599 0
M  V30 2050 O 191.514 1.72591 0.926773 0
M  V30 2051 H 190.094 0.534085 -0.522267 0
M  V30 2052 H 192.756 0.806427 -1.77434 0
M  V30 2053 H 191.852 2.29588 -2.11414 0
M  V30 2054 N 192.153 1.28127 0.917671 0
M  V30 2055 C 193.083 1.14248 2.03641 0
M  V30 2056 C 194.064 0.0412748 1.7005 0
M  V30 2057 O 195.249 0.217566 1.92977 0
M  V30 2058 C 192.379 0.799431 3.37974 0
M  V30 2059 C 191.333 1.85497 3.85713 0
M  V30 2060 C 190.659 1.36565 5.16966 0
M  V30 2061 C 191.959 3.26085 4.08002 0
M  V30 2062 H 193.653 2.07835 2.15511 0
M  V30 2063 H 191.199 1.00064 1.03553 0
M  V30 2064 H 193.152 0.689114 4.15727 0
M  V30 2065 H 191.876 -0.172145 3.26146 0
M  V30 2066 H 190.535 1.95437 3.10161 0
M  V30 2067 H 190.183 0.383253 5.01538 0
M  V30 2068 H 189.883 2.07143 5.49878 0
M  V30 2069 H 191.407 1.26848 5.97279 0
M  V30 2070 H 192.821 3.19089 4.76293 0
M  V30 2071 H 191.218 3.94462 4.52238 0
M  V30 2072 H 192.288 3.70394 3.12948 0
M  V30 2073 N 193.631 -1.12557 1.10312 0
M  V30 2074 C 194.879 -1.83675 0.843091 0
M  V30 2075 C 195.2 -1.84435 -0.633131 0
M  V30 2076 O 194.47 -1.30657 -1.45964 0
M  V30 2077 H 193.05 -0.680138 0.308904 0
M  V30 2078 H 195.712 -1.36301 1.39313 0
M  V30 2079 H 194.808 -2.87908 1.2048 0
M  V30 2080 N 195.109 -0.891671 -1.2995 0
M  V30 2081 C 196.039 -0.379797 -2.30391 0
M  V30 2082 C 197.02 0.540919 -1.6127 0
M  V30 2083 O 198.205 0.453352 -1.88834 0
M  V30 2084 C 195.335 0.400654 -3.44981 0
M  V30 2085 C 194.289 -0.428905 -4.25846 0
M  V30 2086 C 193.615 0.478557 -5.32554 0
M  V30 2087 C 194.915 -1.67458 -4.94727 0
M  V30 2088 H 196.609 -1.21914 -2.73454 0
M  V30 2089 H 194.155 -0.587675 -1.31462 0
M  V30 2090 H 196.108 0.769434 -4.14316 0
M  V30 2091 H 194.832 1.27371 -3.0074 0
M  V30 2092 H 193.491 -0.779911 -3.58208 0
M  V30 2093 H 193.139 1.34951 -4.84559 0
M  V30 2094 H 192.839 -0.0727433 -5.87555 0
M  V30 2095 H 194.363 0.843705 -6.04743 0
M  V30 2096 H 195.777 -1.376 -5.56542 0
M  V30 2097 H 194.174 -2.16659 -5.59624 0
M  V30 2098 H 195.244 -2.41518 -4.20473 0
M  V30 2099 N 196.587 1.43421 -0.653314 0
M  V30 2100 C 197.535 2.32546 0.0501531 0
M  V30 2101 C 198.529 1.48617 0.812985 0
M  V30 2102 O 199.735 1.64825 0.723375 0
M  V30 2103 H 196.11 0.751185 0.0350032 0
M  V30 2104 H 198.081 2.89602 -0.719261 0
M  V30 2105 C 196.83 3.32925 1.00279 0
M  V30 2106 H 196.153 3.97532 0.425236 0
M  V30 2107 H 197.593 3.9792 1.46409 0
M  V30 2108 C 196.052 2.63532 2.09886 0
M  V30 2109 O 196.582 2.45092 3.18265 0
M  V30 2110 N 194.788 2.22905 1.86445 0
M  V30 2111 H 194.335 2.38103 0.98309 0
M  V30 2112 H 194.293 1.76805 2.59976 0
M  V30 2113 N 198.065 0.39524 1.52563 0
M  V30 2114 C 198.995 -0.428384 2.29537 0
M  V30 2115 C 199.976 -1.05831 1.33169 0
M  V30 2116 O 201.161 -1.06995 1.62067 0
M  V30 2117 C 198.291 -1.55274 3.10656 0
M  V30 2118 C 197.245 -1.04855 4.14957 0
M  V30 2119 C 196.571 -2.26543 4.84337 0
M  V30 2120 C 197.871 -0.112324 5.22179 0
M  V30 2121 H 199.565 0.213867 2.98635 0
M  V30 2122 H 197.111 0.104298 1.43622 0
M  V30 2123 H 199.064 -2.1358 3.63265 0
M  V30 2124 H 197.788 -2.22266 2.39302 0
M  V30 2125 H 196.447 -0.487985 3.63338 0
M  V30 2126 H 196.095 -2.92059 4.09525 0
M  V30 2127 H 195.795 -1.93466 5.54837 0
M  V30 2128 H 197.319 -2.85481 5.39753 0
M  V30 2129 H 198.733 -0.603752 5.70112 0
M  V30 2130 H 197.13 0.128968 5.99961 0
M  V30 2131 H 198.2 0.837052 4.77621 0
M  V30 2132 N 199.544 -1.57102 0.125237 0
M  V30 2133 C 200.772 -1.99761 -0.538797 0
M  V30 2134 C 201.187 -1.00503 -1.59827 0
M  V30 2135 O 200.544 0.00119474 -1.825 0
M  V30 2136 C 200.595 -3.42408 -1.15927 0
M  V30 2137 O 200.316 -4.37869 -0.142143 0
M  V30 2138 C 201.817 -4.00232 -1.90602 0
M  V30 2139 H 199.037 -0.655772 -0.14214 0
M  V30 2140 H 201.581 -2.03383 0.213413 0
M  V30 2141 H 199.736 -3.39706 -1.86223 0
M  V30 2142 H 200.15 -5.21128 -0.593775 0
M  V30 2143 H 201.624 -5.02105 -2.29335 0
M  V30 2144 H 202.101 -3.39721 -2.78363 0
M  V30 2145 H 202.707 -4.06499 -1.25055 0
M  V30 2146 N 201.022 0.148545 -1.56898 0
M  V30 2147 C 201.969 1.18345 -1.98149 0
M  V30 2148 C 202.939 1.42772 -0.848848 0
M  V30 2149 O 204.124 1.55132 -1.11079 0
M  V30 2150 C 201.264 2.51231 -2.36594 0
M  V30 2151 C 200.377 2.33991 -3.63142 0
M  V30 2152 C 199.512 3.59902 -3.90697 0
M  V30 2153 C 198.551 3.37692 -5.1052 0
M  V30 2154 N 197.688 4.5573 -5.34092 0
M  V30 2155 H 202.528 0.82467 -2.86362 0
M  V30 2156 H 200.065 0.395756 -1.41676 0
M  V30 2157 H 202.023 3.28713 -2.56912 0
M  V30 2158 H 200.653 2.85059 -1.51463 0
M  V30 2159 H 199.705 1.47572 -3.50609 0
M  V30 2160 H 201.017 2.13539 -4.5078 0
M  V30 2161 H 200.171 4.45813 -4.11505 0
M  V30 2162 H 198.91 3.83357 -3.01477 0
M  V30 2163 H 197.915 2.5017 -4.89587 0
M  V30 2164 H 199.14 3.15637 -6.0129 0
M  V30 2165 H 197.086 4.79361 -4.47827 0
M  V30 2166 H 197.003 4.38274 -6.15996 0
M  V30 2167 H 198.271 5.42858 -5.59397 0
M  V30 2168 N 202.5 1.5196 0.417844 0
M  V30 2169 C 203.747 1.65591 1.16559 0
M  V30 2170 C 204.075 0.381565 1.90721 0
M  V30 2171 O 203.33 -0.635156 1.85106 0
M  V30 2172 C 203.629 2.82269 2.19223 0
M  V30 2173 C 203.295 4.20819 1.61933 0
M  V30 2174 C 201.957 4.58506 1.46033 0
M  V30 2175 C 204.309 5.07196 1.20008 0
M  V30 2176 C 201.637 5.80257 0.867113 0
M  V30 2177 C 203.989 6.29544 0.621086 0
M  V30 2178 C 202.653 6.65987 0.449144 0
M  V30 2179 H 201.923 0.605939 0.42652 0
M  V30 2180 H 204.57 1.86041 0.45397 0
M  V30 2181 H 202.875 2.56118 2.96498 0
M  V30 2182 H 204.572 2.90012 2.76936 0
M  V30 2183 H 201.162 3.91116 1.7529 0
M  V30 2184 H 205.346 4.7867 1.31105 0
M  V30 2185 H 200.602 6.07124 0.721833 0
M  V30 2186 H 204.776 6.95805 0.287798 0
M  V30 2187 H 202.403 7.60199 -0.012632 0
M  V30 2188 N 203.978 -0.674533 1.42435 0
M  V30 2189 C 205.206 -1.46283 1.46317 0
M  V30 2190 C 205.621 -1.88653 0.0745836 0
M  V30 2191 O 204.978 -1.58151 -0.91074 0
M  V30 2192 C 205.029 -2.71178 2.3905 0
M  V30 2193 O 204.75 -2.30586 3.72507 0
M  V30 2194 C 206.251 -3.64738 2.51955 0
M  V30 2195 H 203.471 -0.450104 0.497642 0
M  V30 2196 H 206.015 -0.828792 1.86953 0
M  V30 2197 H 204.17 -3.3077 2.01667 0
M  V30 2198 H 204.584 -3.11241 4.22172 0
M  V30 2199 H 206.058 -4.49096 3.20962 0
M  V30 2200 H 206.535 -4.10656 1.55752 0
M  V30 2201 H 207.141 -3.11038 2.90061 0
M  V30 2202 N 205.456 -1.28612 -0.910864 0
M  V30 2203 C 206.388 -1.08589 -2.01844 0
M  V30 2204 C 207.401 -0.0367419 -1.62759 0
M  V30 2205 O 208.59 -0.280101 -1.76289 0
M  V30 2206 C 205.69 -0.628626 -3.33019 0
M  V30 2207 C 204.863 -1.75382 -4.00699 0
M  V30 2208 C 203.922 -1.28945 -5.10156 0
M  V30 2209 O 202.948 -1.9922 -5.33198 0
M  V30 2210 N 204.15 -0.154224 -5.80295 0
M  V30 2211 H 206.915 -2.03973 -2.19579 0
M  V30 2212 H 204.476 -1.20403 -1.08234 0
M  V30 2213 H 206.468 -0.301508 -4.03575 0
M  V30 2214 H 205.038 0.232451 -3.11735 0
M  V30 2215 H 204.258 -2.25039 -3.23653 0
M  V30 2216 H 205.546 -2.50854 -4.42662 0
M  V30 2217 H 204.944 0.43194 -5.64049 0
M  V30 2218 H 203.501 0.113599 -6.51701 0
M  V30 2219 N 206.934 1.1197 -1.10907 0
M  V30 2220 C 208.164 1.8713 -0.875553 0
M  V30 2221 C 208.572 1.8016 0.577843 0
M  V30 2222 O 207.915 1.17699 1.41042 0
M  V30 2223 C 207.977 3.37005 -1.2517 0
M  V30 2224 C 207.641 3.67748 -2.71313 0
M  V30 2225 C 208.638 3.65698 -3.69542 0
M  V30 2226 C 206.323 3.96928 -3.07821 0
M  V30 2227 C 208.317 3.92395 -5.023 0
M  V30 2228 C 206.004 4.23284 -4.40765 0
M  V30 2229 C 207.002 4.21005 -5.37814 0
M  V30 2230 O 206.69 4.46704 -6.68364 0
M  V30 2231 H 206.422 0.598786 -0.313737 0
M  V30 2232 H 208.976 1.42568 -1.47863 0
M  V30 2233 H 207.206 3.82146 -0.591741 0
M  V30 2234 H 208.895 3.93519 -0.994877 0
M  V30 2235 H 209.661 3.43211 -3.42682 0
M  V30 2236 H 205.54 3.97841 -2.32902 0
M  V30 2237 H 209.084 3.90531 -5.78041 0
M  V30 2238 H 204.981 4.45246 -4.67361 0
M  V30 2239 H 205.749 4.64299 -6.74069 0
M  V30 2240 N 208.412 0.89855 1.29475 0
M  V30 2241 C 209.689 0.443416 1.90508 0
M  V30 2242 C 210.069 -1.07685 1.81569 0
M  V30 2243 O 209.417 -1.9182 1.24166 0
M  V30 2244 C 209.627 0.956708 3.35631 0
M  V30 2245 C 210.975 0.999728 4.12663 0
M  V30 2246 O 211.999 0.904299 3.4453 0
M  V30 2247 O 210.858 1.14289 5.34416 0
M  V30 2248 H 207.952 0.138025 0.815401 0
M  V30 2249 H 210.498 0.98834 1.37949 0
M  V30 2250 H 209.27 2.00067 3.36287 0
M  V30 2251 H 208.893 0.391728 3.95666 0
M  V30 2252 N 209.89 -1.43072 0.660911 0
M  V30 2253 C 210.837 -2.30785 -0.0259884 0
M  V30 2254 C 211.807 -1.45184 -0.806888 0
M  V30 2255 O 212.992 -1.74041 -0.781943 0
M  V30 2256 C 210.132 -3.30861 -0.981067 0
M  V30 2257 C 209.245 -4.31558 -0.195458 0
M  V30 2258 C 208.38 -5.18712 -1.14503 0
M  V30 2259 C 207.419 -6.11097 -0.350299 0
M  V30 2260 N 206.556 -6.90849 -1.25186 0
M  V30 2261 H 211.396 -2.88975 0.727846 0
M  V30 2262 H 208.933 -1.42353 0.370682 0
M  V30 2263 H 210.891 -3.87399 -1.54849 0
M  V30 2264 H 209.521 -2.74304 -1.70169 0
M  V30 2265 H 208.573 -3.77252 0.488374 0
M  V30 2266 H 209.885 -4.9701 0.422176 0
M  V30 2267 H 209.039 -5.79914 -1.78284 0
M  V30 2268 H 207.778 -4.53404 -1.79656 0
M  V30 2269 H 206.783 -5.48976 0.300808 0
M  V30 2270 H 208.008 -6.7845 0.296941 0
M  V30 2271 H 205.954 -6.28182 -1.89005 0
M  V30 2272 H 205.871 -7.52854 -0.688971 0
M  V30 2273 H 207.139 -7.5655 -1.87757 0
M  V30 2274 N 211.368 -0.403325 -1.52352 0
M  V30 2275 C 212.316 0.439752 -2.28405 0
M  V30 2276 C 213.31 1.05089 -1.32863 0
M  V30 2277 O 214.516 0.989759 -1.50345 0
M  V30 2278 H 210.891 0.160587 -0.734653 0
M  V30 2279 H 212.862 -0.222983 -2.97566 0
M  V30 2280 C 211.611 1.54736 -3.11371 0
M  V30 2281 H 210.934 1.08643 -3.84755 0
M  V30 2282 H 212.374 2.1112 -3.67701 0
M  V30 2283 C 210.833 2.51141 -2.24566 0
M  V30 2284 O 211.363 3.54887 -1.88196 0
M  V30 2285 N 209.569 2.21213 -1.8845 0
M  V30 2286 H 209.116 1.36878 -2.18225 0
M  V30 2287 H 209.074 2.85963 -1.30662 0
M  V30 2288 N 212.846 1.57033 -0.133567 0
M  V30 2289 C 214.074 2.00044 0.528195 0
M  V30 2290 C 214.489 1.01349 1.59291 0
M  V30 2291 O 213.846 0.00848369 1.82498 0
M  V30 2292 C 213.897 3.43018 1.1411 0
M  V30 2293 O 213.618 4.37939 0.11892 0
M  V30 2294 C 215.119 4.01237 1.88477 0
M  V30 2295 H 212.339 0.656517 0.138661 0
M  V30 2296 H 214.883 2.03267 -0.224196 0
M  V30 2297 H 213.038 3.40688 1.84418 0
M  V30 2298 H 213.452 5.21436 0.56613 0
M  V30 2299 H 214.926 5.03314 2.26669 0
M  V30 2300 H 215.403 3.41193 2.76558 0
M  V30 2301 H 216.009 4.07156 1.22898 0
M  V30 2302 N 214.325 -0.140222 1.56975 0
M  V30 2303 C 215.571 -0.848084 1.84876 0
M  V30 2304 C 215.926 -1.78481 0.718481 0
M  V30 2305 O 215.219 -1.89497 -0.283093 0
M  V30 2306 C 215.413 -1.65386 3.16832 0
M  V30 2307 C 215.242 -0.79665 4.42587 0
M  V30 2308 C 214.012 -0.459648 5.03205 0
M  V30 2309 C 216.21 -0.12389 5.14151 0
M  V30 2310 N 214.192 0.410446 6.12526 0
M  V30 2311 C 215.563 0.606064 6.17031 0
M  V30 2312 C 217.618 -0.0452654 4.97879 0
M  V30 2313 C 216.321 1.40723 7.054 0
M  V30 2314 C 218.347 0.742658 5.86718 0
M  V30 2315 C 217.709 1.46087 6.89085 0
M  V30 2316 H 213.808 -0.287946 0.727056 0
M  V30 2317 H 216.392 -0.11304 1.94372 0
M  V30 2318 H 214.563 -2.36009 3.08471 0
M  V30 2319 H 216.295 -2.30541 3.32615 0
M  V30 2320 H 213.05 -0.797006 4.66846 0
M  V30 2321 H 213.474 0.836716 6.7181 0
M  V30 2322 H 218.116 -0.586184 4.18717 0
M  V30 2323 H 215.834 1.95938 7.83986 0
M  V30 2324 H 219.42 0.805574 5.76196 0
M  V30 2325 H 218.3 2.06077 7.56639 0
M  V30 2326 N 215.803 -1.52179 -0.40978 0
M  V30 2327 C 217.031 -1.70054 -1.17853 0
M  V30 2328 C 217.446 -0.409735 -1.843 0
M  V30 2329 O 216.803 0.614183 -1.71855 0
M  V30 2330 C 216.854 -2.83568 -2.24213 0
M  V30 2331 O 216.575 -4.0765 -1.60478 0
M  V30 2332 C 218.076 -3.12947 -3.13973 0
M  V30 2333 H 215.296 -0.569917 -0.354169 0
M  V30 2334 H 217.84 -1.98734 -0.482198 0
M  V30 2335 H 215.995 -2.57409 -2.89516 0
M  V30 2336 H 216.409 -4.70899 -2.30986 0
M  V30 2337 H 217.883 -3.95889 -3.84677 0
M  V30 2338 H 218.36 -2.26472 -3.76307 0
M  V30 2339 H 218.966 -3.40868 -2.5434 0
M  V30 2340 N 217.281 0.66697 -1.42791 0
M  V30 2341 C 218.191 1.80962 -1.49299 0
M  V30 2342 C 219.207 1.69775 -0.381108 0
M  V30 2343 O 220.383 1.91188 -0.633188 0
M  V30 2344 C 217.448 3.17156 -1.40045 0
M  V30 2345 C 216.509 3.40242 -2.6179 0
M  V30 2346 C 215.742 4.69939 -2.52969 0
M  V30 2347 O 215.965 5.48372 -1.56985 0
M  V30 2348 O 214.899 4.94441 -3.43237 0
M  V30 2349 H 218.725 1.78427 -2.45759 0
M  V30 2350 H 216.31 0.823713 -1.24641 0
M  V30 2351 H 218.192 3.98413 -1.37276 0
M  V30 2352 H 216.867 3.20312 -0.467138 0
M  V30 2353 H 215.774 2.58802 -2.70134 0
M  V30 2354 H 217.107 3.41923 -3.54047 0
M  V30 2355 N 218.759 1.29093 0.90403 0
M  V30 2356 C 220.005 1.16986 1.65656 0
M  V30 2357 C 220.338 -0.278925 1.92186 0
M  V30 2358 O 219.613 -1.2019 1.5292 0
M  V30 2359 C 219.896 1.97908 3.0084 0
M  V30 2360 C 219.749 3.50903 2.81403 0
M  V30 2361 C 221.068 1.80208 4.01513 0
M  V30 2362 H 218.187 0.426346 0.601164 0
M  V30 2363 H 220.829 1.58518 1.04747 0
M  V30 2364 H 218.979 1.62616 3.52829 0
M  V30 2365 H 220.651 3.96153 2.36348 0
M  V30 2366 H 218.894 3.76045 2.1627 0
M  V30 2367 H 219.565 4.02791 3.77443 0
M  V30 2368 H 222.041 2.11025 3.58619 0
M  V30 2369 H 220.917 2.39184 4.94047 0
M  V30 2370 H 221.178 0.756119 4.35586 0
M  V30 2371 N 220.237 -1.11381 1.11499 0
M  V30 2372 C 221.187 -2.15555 0.74298 0
M  V30 2373 C 222.171 -1.58894 -0.253276 0
M  V30 2374 O 223.363 -1.76897 -0.0602918 0
M  V30 2375 C 220.492 -3.42782 0.188481 0
M  V30 2376 C 219.578 -4.064 1.21244 0
M  V30 2377 N 219.969 -4.44864 2.40685 0
M  V30 2378 C 218.267 -4.3333 1.05552 0
M  V30 2379 C 218.968 -4.94715 3.05994 0
M  V30 2380 N 217.944 -4.90909 2.33472 0
M  V30 2381 H 221.746 -2.43074 1.65203 0
M  V30 2382 H 219.26 -1.28401 0.994329 0
M  V30 2383 H 221.257 -4.16789 -0.0961693 0
M  V30 2384 H 219.917 -3.16727 -0.715149 0
M  V30 2385 H 220.928 -4.36876 2.78136 0
M  V30 2386 H 217.605 -4.1698 0.208372 0
M  V30 2387 H 218.995 -5.34103 4.07656 0
M  V30 2388 N 221.715 -0.905404 -1.28997 0
M  V30 2389 C 222.625 -0.392246 -2.31298 0
M  V30 2390 C 223.641 0.515889 -1.66176 0
M  V30 2391 O 224.817 0.404093 -1.97304 0
M  V30 2392 C 221.882 0.36686 -3.44754 0
M  V30 2393 C 220.943 -0.573485 -4.25452 0
M  V30 2394 C 220.176 0.149488 -5.33491 0
M  V30 2395 O 220.399 1.37255 -5.5364 0
M  V30 2396 O 219.333 -0.510919 -5.99728 0
M  V30 2397 H 223.159 -1.2411 -2.77183 0
M  V30 2398 H 220.744 -0.669926 -1.33538 0
M  V30 2399 H 222.626 0.795907 -4.13816 0
M  V30 2400 H 221.301 1.19169 -3.00966 0
M  V30 2401 H 220.208 -1.05176 -3.59011 0
M  V30 2402 H 221.541 -1.36489 -4.72897 0
M  V30 2403 N 223.193 1.4272 -0.668489 0
M  V30 2404 C 224.439 2.01923 -0.188419 0
M  V30 2405 C 224.772 1.52704 1.19979 0
M  V30 2406 O 224.047 0.726566 1.8042 0
M  V30 2407 C 224.33 3.59451 -0.216085 0
M  V30 2408 C 224.183 4.18864 -1.6393 0
M  V30 2409 C 225.502 4.37903 0.439179 0
M  V30 2410 H 222.621 0.733674 -0.0699412 0
M  V30 2411 H 225.263 1.69822 -0.852076 0
M  V30 2412 H 223.413 3.86929 0.349012 0
M  V30 2413 H 225.085 4.02362 -2.25616 0
M  V30 2414 H 223.328 3.74933 -2.18193 0
M  V30 2415 H 223.999 5.27987 -1.61039 0
M  V30 2416 H 226.475 4.16079 -0.0417878 0
M  V30 2417 H 225.351 5.47519 0.389157 0
M  V30 2418 H 225.612 4.15303 1.51577 0
M  V30 2419 N 224.671 0.411399 1.52136 0
M  V30 2420 C 225.618 -0.412975 2.27075 0
M  V30 2421 C 226.588 -1.03912 1.29582 0
M  V30 2422 O 227.773 -1.06296 1.58448 0
M  V30 2423 C 224.913 -1.52247 3.09701 0
M  V30 2424 C 224.026 -0.917021 4.22155 0
M  V30 2425 C 223.161 -1.9994 4.92135 0
M  V30 2426 C 222.2 -1.37101 5.96548 0
M  V30 2427 N 221.337 -2.39364 6.60038 0
M  V30 2428 H 226.177 0.232499 2.97092 0
M  V30 2429 H 223.714 0.126496 1.46555 0
M  V30 2430 H 225.672 -2.17674 3.55913 0
M  V30 2431 H 224.302 -2.13794 2.41851 0
M  V30 2432 H 223.354 -0.151742 3.80097 0
M  V30 2433 H 224.666 -0.418006 4.97045 0
M  V30 2434 H 223.82 -2.73088 5.41763 0
M  V30 2435 H 222.559 -2.53208 4.16818 0
M  V30 2436 H 221.564 -0.624873 5.46237 0
M  V30 2437 H 222.789 -0.845998 6.7381 0
M  V30 2438 H 220.735 -2.91759 5.87548 0
M  V30 2439 H 220.652 -1.9428 7.3061 0
M  V30 2440 H 221.92 -3.12074 7.14304 0
M  V30 2441 N 226.149 -1.5696 0.141893 0
M  V30 2442 C 227.079 -2.19516 -0.795936 0
M  V30 2443 C 228.06 -1.14187 -1.26077 0
M  V30 2444 O 229.245 -1.42511 -1.31925 0
M  V30 2445 C 226.375 -2.81272 -2.03723 0
M  V30 2446 C 225.329 -3.92384 -1.70936 0
M  V30 2447 C 224.655 -4.41052 -3.02287 0
M  V30 2448 C 225.955 -5.13403 -0.959954 0
M  V30 2449 H 227.649 -2.98138 -0.274596 0
M  V30 2450 H 225.195 -1.43406 -0.130636 0
M  V30 2451 H 227.148 -3.237 -2.69808 0
M  V30 2452 H 225.872 -1.99973 -2.58221 0
M  V30 2453 H 224.531 -3.50566 -1.07232 0
M  V30 2454 H 224.179 -3.56582 -3.54765 0
M  V30 2455 H 223.879 -5.15993 -2.81114 0
M  V30 2456 H 225.403 -4.86146 -3.69451 0
M  V30 2457 H 226.817 -5.52706 -1.52279 0
M  V30 2458 H 225.214 -5.94073 -0.848357 0
M  V30 2459 H 226.284 -4.84875 0.0492434 0
M  V30 2460 N 227.627 0.131896 -1.57047 0
M  V30 2461 C 229.043 0.485031 -1.52051 0
M  V30 2462 C 229.243 1.82563 -0.85281 0
M  V30 2463 O 228.299 2.48817 -0.429694 0
M  V30 2464 C 229.612 0.481409 -2.96821 0
M  V30 2465 C 231.16 0.565868 -3.07842 0
M  V30 2466 C 231.635 0.592762 -4.54148 0
M  V30 2467 N 233.126 0.654564 -4.58552 0
M  V30 2468 C 233.861 0.696608 -5.69153 0
M  V30 2469 N 233.357 0.697078 -6.89284 0
M  V30 2470 N 235.15 0.738639 -5.57226 0
M  V30 2471 H 227.301 -0.746664 -1.98843 0
M  V30 2472 H 229.564 -0.273999 -0.90754 0
M  V30 2473 H 229.27 -0.435731 -3.4899 0
M  V30 2474 H 229.144 1.3139 -3.53577 0
M  V30 2475 H 231.531 1.47343 -2.55684 0
M  V30 2476 H 231.612 -0.29406 -2.54104 0
M  V30 2477 H 231.256 -0.310701 -5.06949 0
M  V30 2478 H 231.186 1.46939 -5.05684 0
M  V30 2479 H 233.677 0.660887 -3.72076 0
M  V30 2480 H 233.99 0.731426 -7.69331 0
M  V30 2481 H 232.335 0.66471 -6.91814 0
M  V30 2482 H 235.526 0.735545 -4.62285 0
M  V30 2483 H 235.699 0.767938 -6.43434 0
M  V30 2484 N 229.106 1.52395 0.401703 0
M  V30 2485 C 230.054 1.7689 1.51039 0
M  V30 2486 C 231.048 0.636298 1.56996 0
M  V30 2487 O 232.254 0.818507 1.60314 0
M  V30 2488 H 228.629 0.559502 0.502456 0
M  V30 2489 H 230.6 2.69757 1.27568 0
M  V30 2490 C 229.349 1.94331 2.88324 0
M  V30 2491 H 228.672 2.80905 2.84486 0
M  V30 2492 H 230.112 2.15466 3.65172 0
M  V30 2493 C 228.571 0.712396 3.29282 0
M  V30 2494 O 229.101 -0.116218 4.01532 0
M  V30 2495 N 227.307 0.546154 2.85422 0
M  V30 2496 H 226.854 1.22156 2.26794 0
M  V30 2497 H 226.812 -0.276113 3.13185 0
M  V30 2498 N 230.584 -0.659388 1.43143 0
M  V30 2499 C 231.814 -1.44513 1.47646 0
M  V30 2500 C 232.222 -1.88981 0.0910095 0
M  V30 2501 O 231.565 -1.59702 -0.907789 0
M  V30 2502 C 231.627 -2.71663 2.35456 0
M  V30 2503 C 231.291 -2.49175 3.83094 0
M  V30 2504 C 232.288 -2.1279 4.74359 0
M  V30 2505 C 229.973 -2.63691 4.27519 0
M  V30 2506 C 231.967 -1.9121 6.08044 0
M  V30 2507 C 229.654 -2.41726 5.61259 0
M  V30 2508 C 230.652 -2.0554 6.51339 0
M  V30 2509 O 230.34 -1.838 7.82606 0
M  V30 2510 H 230.072 -0.45064 0.503884 0
M  V30 2511 H 232.626 -0.816248 1.88485 0
M  V30 2512 H 230.856 -3.37089 1.89493 0
M  V30 2513 H 232.545 -3.33595 2.31235 0
M  V30 2514 H 233.311 -2.01157 4.41317 0
M  V30 2515 H 229.19 -2.90832 3.57684 0
M  V30 2516 H 232.734 -1.62889 6.78316 0
M  V30 2517 H 228.631 -2.52959 5.9387 0
M  V30 2518 H 229.399 -1.98275 7.94122 0
M  V30 2519 N 232.062 -1.29571 -0.897171 0
M  V30 2520 C 233.308 -1.17863 -1.65034 0
M  V30 2521 C 233.641 0.268729 -1.92332 0
M  V30 2522 O 232.916 1.19378 -1.53555 0
M  V30 2523 C 233.199 -1.995 -2.99786 0
M  V30 2524 C 233.052 -3.5239 -2.79538 0
M  V30 2525 C 234.371 -1.82335 -4.00552 0
M  V30 2526 H 231.49 -0.429528 -0.598895 0
M  V30 2527 H 234.132 -1.59072 -1.03905 0
M  V30 2528 H 232.282 -1.64485 -3.51962 0
M  V30 2529 H 233.954 -3.97401 -2.34244 0
M  V30 2530 H 232.197 -3.77187 -2.14273 0
M  V30 2531 H 232.868 -4.04787 -3.75302 0
M  V30 2532 H 235.344 -2.12924 -3.57495 0
M  V30 2533 H 234.22 -2.41801 -4.92771 0
M  V30 2534 H 234.481 -0.779209 -4.35179 0
M  V30 2535 N 233.54 1.10788 -1.12088 0
M  V30 2536 C 234.786 1.82942 -0.875226 0
M  V30 2537 C 235.119 1.84779 0.597538 0
M  V30 2538 O 234.394 1.30578 1.44152 0
M  V30 2539 C 234.677 3.29789 -1.44606 0
M  V30 2540 C 234.53 3.36307 -2.98693 0
M  V30 2541 C 235.849 4.26064 -1.10261 0
M  V30 2542 H 232.968 0.664195 -0.319397 0
M  V30 2543 H 235.61 1.29867 -1.38689 0
M  V30 2544 H 233.76 3.75118 -1.01089 0
M  V30 2545 H 235.432 2.99487 -3.50864 0
M  V30 2546 H 233.675 2.76318 -3.34411 0
M  V30 2547 H 234.346 4.39694 -3.33726 0
M  V30 2548 H 236.822 3.88951 -1.4784 0
M  V30 2549 H 235.698 5.27183 -1.52869 0
M  V30 2550 H 235.959 4.42098 -0.0142953 0
M  V30 2551 N 235.018 0.912232 1.28515 0
M  V30 2552 C 235.928 0.404506 2.31086 0
M  V30 2553 C 236.944 -0.50707 1.66448 0
M  V30 2554 O 238.12 -0.393624 1.97516 0
M  V30 2555 C 235.185 -0.348572 3.44943 0
M  V30 2556 C 234.246 0.59604 4.25142 0
M  V30 2557 C 233.479 -0.121194 5.33562 0
M  V30 2558 O 233.702 -1.34317 5.5436 0
M  V30 2559 O 232.636 0.542716 5.99448 0
M  V30 2560 H 236.462 1.25579 2.76521 0
M  V30 2561 H 234.047 0.676998 1.33181 0
M  V30 2562 H 235.929 -0.77395 4.14232 0
M  V30 2563 H 234.604 -1.17571 3.01594 0
M  V30 2564 H 233.511 1.07079 3.58448 0
M  V30 2565 H 234.844 1.38995 4.72167 0
M  V30 2566 N 236.496 -1.42363 0.676048 0
M  V30 2567 C 237.443 -2.308 -0.00150904 0
M  V30 2568 C 238.413 -1.46032 -0.791444 0
M  V30 2569 O 239.598 -1.74861 -0.76344 0
M  V30 2570 C 236.738 -3.31883 -0.945919 0
M  V30 2571 C 235.851 -4.31741 -0.149675 0
M  V30 2572 C 234.986 -5.19898 -1.08995 0
M  V30 2573 C 234.025 -6.11434 -0.285465 0
M  V30 2574 N 233.162 -6.92138 -1.17851 0
M  V30 2575 H 238.002 -2.88187 0.758455 0
M  V30 2576 H 235.539 -1.41952 0.38576 0
M  V30 2577 H 237.497 -3.89019 -1.50731 0
M  V30 2578 H 236.127 -2.76093 -1.6725 0
M  V30 2579 H 235.179 -3.76713 0.528359 0
M  V30 2580 H 236.491 -4.96534 0.474866 0
M  V30 2581 H 235.645 -5.81772 -1.72123 0
M  V30 2582 H 234.384 -4.55284 -1.74837 0
M  V30 2583 H 233.389 -5.48627 0.359018 0
M  V30 2584 H 234.614 -6.78097 0.368883 0
M  V30 2585 H 232.56 -6.30152 -1.82332 0
M  V30 2586 H 232.477 -7.53542 -0.609082 0
M  V30 2587 H 233.745 -7.58499 -1.79722 0
M  V30 2588 N 237.974 -0.419461 -1.51915 0
M  V30 2589 C 239.22 0.153166 -2.02221 0
M  V30 2590 C 239.553 1.43907 -1.30401 0
M  V30 2591 O 238.828 1.90055 -0.413438 0
M  V30 2592 C 239.111 0.390291 -3.57979 0
M  V30 2593 C 238.964 -0.913014 -4.40436 0
M  V30 2594 C 240.283 1.16794 -4.2432 0
M  V30 2595 H 237.402 0.0541924 -0.735005 0
M  V30 2596 H 240.044 -0.554955 -1.81715 0
M  V30 2597 H 238.194 0.993491 -3.75582 0
M  V30 2598 H 239.866 -1.54882 -4.34522 0
M  V30 2599 H 238.109 -1.52168 -4.06236 0
M  V30 2600 H 238.78 -0.701361 -5.47526 0
M  V30 2601 H 241.256 0.657161 -4.10878 0
M  V30 2602 H 240.132 1.3026 -5.3322 0
M  V30 2603 H 240.393 2.19132 -3.83971 0
M  V30 2604 N 239.452 1.56882 -0.150215 0
M  V30 2605 C 240.863 1.82995 0.370076 0
M  V30 2606 C 241.214 1.06907 1.64515 0
M  V30 2607 O 240.339 0.315369 2.1409 0
M  V30 2608 C 240.934 3.31942 0.678208 0
M  V30 2609 C 239.493 3.58625 1.14301 0
M  V30 2610 C 238.64 2.76792 0.167778 0
M  V30 2611 H 241.591 1.54209 -0.374858 0
M  V30 2612 H 241.612 3.48272 1.53254 0
M  V30 2613 H 241.124 3.87294 -0.249991 0
M  V30 2614 H 239.225 3.08664 2.08704 0
M  V30 2615 H 239.338 4.67073 1.06676 0
M  V30 2616 H 237.702 2.45972 0.661037 0
M  V30 2617 H 238.485 3.34916 -0.754069 0
M  V30 2618 N 240.93 -0.123565 1.57115 0
M  V30 2619 C 241.84 -1.17074 2.033 0
M  V30 2620 C 242.856 -1.4561 0.952559 0
M  V30 2621 O 244.032 -1.56817 1.26374 0
M  V30 2622 C 241.097 -2.47857 2.42421 0
M  V30 2623 C 240.158 -2.26758 3.64526 0
M  V30 2624 C 239.391 -3.51305 4.01771 0
M  V30 2625 O 239.614 -4.5843 3.39409 0
M  V30 2626 O 238.548 -3.42578 4.94898 0
M  V30 2627 H 242.374 -0.808555 2.92739 0
M  V30 2628 H 239.959 -0.334027 1.45618 0
M  V30 2629 H 241.841 -3.2492 2.68338 0
M  V30 2630 H 240.516 -2.83558 1.5613 0
M  V30 2631 H 239.423 -1.47569 3.43765 0
M  V30 2632 H 240.756 -1.95963 4.51508 0
M  V30 2633 N 242.408 -1.52605 -0.393616 0
M  V30 2634 C 243.355 -1.77055 -1.48054 0
M  V30 2635 C 244.325 -0.61358 -1.54352 0
M  V30 2636 O 245.51 -0.852806 -1.70681 0
M  V30 2637 C 242.65 -1.94108 -2.85335 0
M  V30 2638 C 241.763 -3.21792 -2.88226 0
M  V30 2639 C 240.898 -3.29188 -4.16904 0
M  V30 2640 C 239.937 -4.51013 -4.13828 0
M  V30 2641 N 239.074 -4.55716 -5.34105 0
M  V30 2642 H 243.914 -2.69815 -1.26506 0
M  V30 2643 H 241.451 -1.33683 -0.61379 0
M  V30 2644 H 243.409 -2.01979 -3.65049 0
M  V30 2645 H 242.039 -1.04713 -3.05344 0
M  V30 2646 H 241.091 -3.23015 -2.00911 0
M  V30 2647 H 242.403 -4.11557 -2.8182 0
M  V30 2648 H 241.557 -3.36216 -5.05018 0
M  V30 2649 H 240.296 -2.37389 -4.26026 0
M  V30 2650 H 239.301 -4.44115 -3.24102 0
M  V30 2651 H 240.526 -5.44123 -4.06333 0
M  V30 2652 H 238.472 -3.66807 -5.43865 0
M  V30 2653 H 238.389 -5.39346 -5.29756 0
M  V30 2654 H 239.657 -4.66993 -6.2413 0
M  V30 2655 N 243.887 0.651787 -1.4349 0
M  V30 2656 C 244.817 1.77621 -1.51569 0
M  V30 2657 C 245.798 1.66022 -0.370253 0
M  V30 2658 O 246.983 1.85095 -0.587658 0
M  V30 2659 C 244.113 3.16056 -1.43966 0
M  V30 2660 C 243.067 3.4242 -2.56774 0
M  V30 2661 C 242.393 4.8067 -2.34223 0
M  V30 2662 C 243.693 3.37023 -3.99015 0
M  V30 2663 H 245.387 1.71117 -2.45681 0
M  V30 2664 H 242.933 0.821825 -1.18246 0
M  V30 2665 H 244.886 3.94472 -1.48221 0
M  V30 2666 H 243.61 3.23293 -0.463586 0
M  V30 2667 H 242.269 2.66375 -2.51873 0
M  V30 2668 H 241.917 4.84585 -1.34856 0
M  V30 2669 H 241.617 4.9927 -3.09844 0
M  V30 2670 H 243.141 5.61342 -2.40265 0
M  V30 2671 H 244.555 4.05374 -4.05395 0
M  V30 2672 H 242.952 3.67159 -4.74673 0
M  V30 2673 H 244.022 2.3518 -4.2405 0
M  V30 2674 N 245.365 1.30045 0.890287 0
M  V30 2675 C 246.613 1.18327 1.63839 0
M  V30 2676 C 246.934 -0.263455 1.93212 0
M  V30 2677 O 246.204 -1.17856 1.56482 0
M  V30 2678 H 244.784 0.434933 0.607324 0
M  V30 2679 H 247.446 1.631 1.06698 0
M  V30 2680 H 246.542 1.74024 2.59079 0
M  V30 2681 N 246.843 -1.10192 1.12674 0
M  V30 2682 C 248.073 -1.85713 0.905213 0
M  V30 2683 C 248.481 -1.81056 -0.549108 0
M  V30 2684 O 247.824 -1.19927 -1.39151 0
M  V30 2685 C 247.886 -3.34972 1.30516 0
M  V30 2686 C 247.55 -3.63385 2.77129 0
M  V30 2687 C 248.547 -3.59772 3.75313 0
M  V30 2688 C 246.232 -3.91981 3.14096 0
M  V30 2689 C 248.226 -3.84354 5.08479 0
M  V30 2690 C 245.913 -4.16218 4.47443 0
M  V30 2691 C 246.911 -4.12395 5.44444 0
M  V30 2692 O 246.599 -4.36014 6.75387 0
M  V30 2693 H 246.331 -0.593719 0.323223 0
M  V30 2694 H 248.885 -1.40198 1.50112 0
M  V30 2695 H 247.115 -3.81156 0.652463 0
M  V30 2696 H 248.804 -3.91886 1.05736 0
M  V30 2697 H 249.57 -3.37716 3.48099 0
M  V30 2698 H 245.449 -3.94085 2.39202 0
M  V30 2699 H 248.993 -3.81285 5.84181 0
M  V30 2700 H 244.89 -4.37754 4.74386 0
M  V30 2701 H 245.658 -4.53516 6.8137 0
M  V30 2702 N 248.321 -0.919034 -1.28029 0
M  V30 2703 C 249.284 -0.416182 -2.2539 0
M  V30 2704 C 250.284 0.460438 -1.54067 0
M  V30 2705 O 251.474 0.262744 -1.72207 0
M  V30 2706 C 248.606 0.402707 -3.38513 0
M  V30 2707 H 249.799 -1.27629 -2.71387 0
M  V30 2708 H 247.352 -0.698919 -1.39803 0
M  V30 2709 H 248.087 1.282 -2.97885 0
M  V30 2710 H 247.872 -0.225698 -3.9145 0
M  V30 2711 H 249.362 0.745191 -4.10897 0
M  V30 2712 N 249.799 1.42003 -0.683588 0
M  V30 2713 C 250.729 2.33487 -0.024866 0
M  V30 2714 C 251.71 1.51163 0.779975 0
M  V30 2715 O 252.895 1.79739 0.735362 0
M  V30 2716 C 250.025 3.3487 0.920836 0
M  V30 2717 C 248.979 4.27414 0.223958 0
M  V30 2718 C 248.305 5.19074 1.2832 0
M  V30 2719 C 249.605 5.14445 -0.90242 0
M  V30 2720 H 251.299 2.88819 -0.788921 0
M  V30 2721 H 248.845 1.38873 -0.38083 0
M  V30 2722 H 250.798 3.97787 1.39081 0
M  V30 2723 H 249.522 2.77861 1.71642 0
M  V30 2724 H 248.181 3.65904 -0.225864 0
M  V30 2725 H 247.829 4.58387 2.071 0
M  V30 2726 H 247.529 5.81822 0.821995 0
M  V30 2727 H 249.053 5.84867 1.75392 0
M  V30 2728 H 250.467 5.70998 -0.513272 0
M  V30 2729 H 248.864 5.86072 -1.28997 0
M  V30 2730 H 249.934 4.52322 -1.74737 0
M  V30 2731 N 251.277 0.427512 1.51691 0
M  V30 2732 C 252.693 0.0792977 1.59403 0
M  V30 2733 C 252.893 -1.41035 1.43914 0
M  V30 2734 O 251.949 -2.17922 1.27539 0
M  V30 2735 C 253.262 0.590636 2.94842 0
M  V30 2736 C 254.81 0.550215 3.08126 0
M  V30 2737 C 255.285 1.03836 4.46074 0
M  V30 2738 N 256.776 0.995943 4.52366 0
M  V30 2739 C 257.511 1.34463 5.57411 0
M  V30 2740 N 257.007 1.76569 6.69922 0
M  V30 2741 N 258.8 1.26343 5.47717 0
M  V30 2742 H 250.951 1.39687 1.60004 0
M  V30 2743 H 253.214 0.575003 0.753708 0
M  V30 2744 H 252.92 1.63251 3.11516 0
M  V30 2745 H 252.794 0.0102061 3.77199 0
M  V30 2746 H 255.181 -0.482654 2.91126 0
M  V30 2747 H 255.262 1.16693 2.27632 0
M  V30 2748 H 254.906 2.06965 4.63819 0
M  V30 2749 H 254.836 0.398286 5.25092 0
M  V30 2750 H 257.327 0.68661 3.7161 0
M  V30 2751 H 257.64 2.01438 7.46085 0
M  V30 2752 H 255.985 1.80488 6.71155 0
M  V30 2753 H 259.176 0.933209 4.58703 0
M  V30 2754 H 259.349 1.53846 6.29472 0
M  V30 2755 N 252.755 -1.56801 0.158532 0
M  V30 2756 C 254.166 -1.83189 -0.360366 0
M  V30 2757 C 254.517 -1.07778 -1.63946 0
M  V30 2758 O 253.642 -0.326718 -2.13919 0
M  V30 2759 C 254.237 -3.32297 -0.660595 0
M  V30 2760 C 252.796 -3.59227 -1.12398 0
M  V30 2761 C 251.943 -2.76877 -0.153097 0
M  V30 2762 H 254.894 -1.54008 0.383031 0
M  V30 2763 H 254.915 -3.4908 -1.51405 0
M  V30 2764 H 254.427 -3.87156 0.270527 0
M  V30 2765 H 252.528 -3.09766 -2.07064 0
M  V30 2766 H 252.641 -4.67632 -1.04197 0
M  V30 2767 H 251.005 -2.46319 -0.647983 0
M  V30 2768 H 251.788 -3.34511 0.77182 0
M  V30 2769 N 254.233 0.115231 -1.57178 0
M  V30 2770 C 255.165 1.16694 -1.97269 0
M  V30 2771 C 256.178 1.37445 -0.872502 0
M  V30 2772 O 257.367 1.36454 -1.15077 0
M  V30 2773 C 254.467 2.52627 -2.25905 0
M  V30 2774 C 253.64 2.52427 -3.57211 0
M  V30 2775 C 252.699 3.70134 -3.74016 0
M  V30 2776 O 251.725 3.53546 -4.46087 0
M  V30 2777 N 252.927 4.88844 -3.13068 0
M  V30 2778 H 255.692 0.82588 -2.88096 0
M  V30 2779 H 253.253 0.304461 -1.59011 0
M  V30 2780 H 255.245 3.29937 -2.34359 0
M  V30 2781 H 253.815 2.789 -1.41186 0
M  V30 2782 H 253.035 1.60805 -3.5991 0
M  V30 2783 H 254.323 2.49353 -4.43509 0
M  V30 2784 H 253.721 5.05225 -2.54489 0
M  V30 2785 H 252.278 5.63817 -3.27037 0
M  V30 2786 N 255.711 1.52812 0.385517 0
M  V30 2787 C 256.621 1.80766 1.49535 0
M  V30 2788 C 257.637 0.694651 1.59532 0
M  V30 2789 O 258.813 0.982611 1.75803 0
M  V30 2790 C 255.878 1.97381 2.85029 0
M  V30 2791 C 254.939 3.21295 2.84724 0
M  V30 2792 C 254.172 3.37108 4.13756 0
M  V30 2793 O 254.395 2.5765 5.08893 0
M  V30 2794 O 253.329 4.30378 4.20783 0
M  V30 2795 H 257.155 2.75015 1.28842 0
M  V30 2796 H 254.74 1.37946 0.573697 0
M  V30 2797 H 256.622 2.09996 3.65349 0
M  V30 2798 H 255.297 1.06322 3.05741 0
M  V30 2799 H 254.204 3.1412 2.03174 0
M  V30 2800 H 255.537 4.12212 2.68965 0
M  V30 2801 N 257.189 -0.644168 1.43834 0
M  V30 2802 C 258.136 -1.75671 1.49694 0
M  V30 2803 C 259.106 -1.6246 0.345809 0
M  V30 2804 O 260.291 -1.82573 0.554234 0
M  V30 2805 C 257.431 -3.13867 1.43463 0
M  V30 2806 C 256.544 -3.38147 2.6885 0
M  V30 2807 C 255.679 -4.66241 2.54544 0
M  V30 2808 C 254.718 -4.83657 3.75157 0
M  V30 2809 N 253.855 -6.03016 3.59605 0
M  V30 2810 H 258.695 -1.69998 2.44754 0
M  V30 2811 H 256.232 -0.829458 1.21484 0
M  V30 2812 H 258.19 -3.9377 1.37843 0
M  V30 2813 H 256.82 -3.18588 0.519783 0
M  V30 2814 H 255.872 -2.52276 2.84712 0
M  V30 2815 H 257.184 -3.46899 3.58417 0
M  V30 2816 H 256.338 -5.54285 2.46683 0
M  V30 2817 H 255.077 -4.59826 1.62516 0
M  V30 2818 H 254.082 -3.94046 3.83416 0
M  V30 2819 H 255.307 -4.91896 4.68204 0
M  V30 2820 H 253.253 -5.97715 2.7032 0
M  V30 2821 H 253.17 -6.12766 4.42779 0
M  V30 2822 H 254.438 -6.93657 3.55613 0
M  V30 2823 N 258.668 -1.30515 -0.883378 0
M  V30 2824 C 259.916 -1.19194 -1.63209 0
M  V30 2825 C 260.237 0.253205 -1.93349 0
M  V30 2826 O 259.507 1.17025 -1.57105 0
M  V30 2827 H 258.087 -0.438148 -0.605009 0
M  V30 2828 H 260.749 -1.63663 -1.05832 0
M  V30 2829 H 259.845 -1.75396 -2.58153 0
M  V30 2830 N 260.146 1.09593 -1.13257 0
M  V30 2831 C 261.096 2.14345 -0.777179 0
M  V30 2832 C 262.08 1.59277 0.227966 0
M  V30 2833 O 263.272 1.76971 0.0321413 0
M  V30 2834 C 260.401 3.42439 -0.242991 0
M  V30 2835 C 259.487 4.04419 -1.27694 0
M  V30 2836 N 259.878 4.40979 -2.47732 0
M  V30 2837 C 258.176 4.31596 -1.12432 0
M  V30 2838 C 258.877 4.89784 -3.13826 0
M  V30 2839 N 257.853 4.87133 -2.41252 0
M  V30 2840 H 261.655 2.40415 -1.69049 0
M  V30 2841 H 259.169 1.26803 -1.01463 0
M  V30 2842 H 261.166 4.16889 0.0298496 0
M  V30 2843 H 259.826 3.17824 0.66467 0
M  V30 2844 H 260.837 4.32396 -2.85051 0
M  V30 2845 H 257.514 4.16595 -0.274684 0
M  V30 2846 H 258.904 5.2755 -4.16102 0
M  V30 2847 N 261.624 0.925811 1.2754 0
M  V30 2848 C 262.849 0.580924 1.99098 0
M  V30 2849 C 263.274 -0.833555 1.68622 0
M  V30 2850 O 262.632 -1.55903 0.925422 0
M  V30 2851 C 262.68 0.811186 3.51358 0
M  V30 2852 O 261.784 -0.124129 4.12213 0
M  V30 2853 H 261.125 0.223873 0.625122 0
M  V30 2854 H 263.655 1.24455 1.62395 0
M  V30 2855 H 263.665 0.72601 4.01489 0
M  V30 2856 H 262.34 1.84227 3.72872 0
M  V30 2857 H 260.917 0.0108006 3.72898 0
M  V30 2858 N 263.102 -1.41638 0.69111 0
M  V30 2859 C 264.513 -1.84346 0.295517 0
M  V30 2860 C 264.864 -1.57833 -1.16547 0
M  V30 2861 O 263.989 -1.04648 -1.89414 0
M  V30 2862 C 264.584 -3.34636 0.529575 0
M  V30 2863 C 263.143 -3.7593 0.187944 0
M  V30 2864 C 262.29 -2.65082 0.814052 0
M  V30 2865 H 265.241 -1.31253 0.892092 0
M  V30 2866 H 265.262 -3.79903 -0.213148 0
M  V30 2867 H 264.774 -3.53901 1.59297 0
M  V30 2868 H 262.875 -3.62268 -0.871367 0
M  V30 2869 H 262.988 -4.74808 0.63985 0
M  V30 2870 H 261.352 -2.53528 0.244017 0
M  V30 2871 H 262.135 -2.87167 1.88123 0
M  V30 2872 N 264.58 -0.43555 -1.51462 0
M  V30 2873 C 265.49 0.383001 -2.31453 0
M  V30 2874 C 266.506 1.02931 -1.4029 0
M  V30 2875 O 267.682 1.02507 -1.73362 0
M  V30 2876 C 264.747 1.47043 -3.13973 0
M  V30 2877 C 263.808 0.844433 -4.20913 0
M  V30 2878 C 263.041 1.88004 -4.9949 0
M  V30 2879 O 263.264 3.10199 -4.78678 0
M  V30 2880 O 262.198 1.47157 -5.83634 0
M  V30 2881 H 266.024 -0.269964 -3.02498 0
M  V30 2882 H 263.609 -0.19813 -1.4808 0
M  V30 2883 H 265.491 2.10113 -3.65281 0
M  V30 2884 H 264.166 2.10751 -2.45695 0
M  V30 2885 H 263.073 0.175729 -3.73687 0
M  V30 2886 H 264.406 0.250869 -4.9156 0
M  V30 2887 N 266.058 1.56714 -0.166846 0
M  V30 2888 C 267.335 1.88412 0.525373 0
M  V30 2889 C 267.715 1.07602 1.81618 0
M  V30 2890 O 267.063 0.168621 2.27877 0
M  V30 2891 C 267.273 3.40363 0.771613 0
M  V30 2892 C 268.621 4.10007 1.1036 0
M  V30 2893 O 269.645 3.45655 0.860304 0
M  V30 2894 O 268.504 5.2369 1.56239 0
M  V30 2895 H 265.598 0.781587 0.270278 0
M  V30 2896 H 268.144 1.68458 -0.204946 0
M  V30 2897 H 266.916 3.91046 -0.141093 0
M  V30 2898 H 266.539 3.65914 1.55541 0
M  V30 2899 N 267.536 -0.106894 1.57237 0
M  V30 2900 C 268.785 -0.811163 1.8467 0
M  V30 2901 C 269.098 -1.80469 0.754342 0
M  V30 2902 O 270.304 -2.55601 0.915439 0
M  V30 2903 C 268.76 -1.49337 3.27454 0
M  V30 2904 C 268.368 -0.540217 4.44731 0
M  V30 2905 C 270.112 -2.18206 3.64124 0
M  V30 2906 C 268.019 -1.22634 5.78545 0
M  V30 2907 H 266.949 -0.306679 0.688813 0
M  V30 2908 H 269.6 -0.0639887 1.83388 0
M  V30 2909 H 267.982 -2.2876 3.23241 0
M  V30 2910 H 269.156 0.221659 4.60267 0
M  V30 2911 H 267.471 0.042146 4.16379 0
M  V30 2912 H 270.068 -2.70253 4.61376 0
M  V30 2913 H 270.411 -2.96562 2.92158 0
M  V30 2914 H 270.944 -1.45658 3.70174 0
M  V30 2915 H 267.683 -0.483832 6.53712 0
M  V30 2916 H 267.203 -1.95993 5.66874 0
M  V30 2917 H 268.882 -1.75615 6.2271 0
M  V30 2918 N 269.014 -1.53014 -0.377408 0
M  V30 2919 C 270.244 -1.72265 -1.14054 0
M  V30 2920 C 270.652 -0.44601 -1.83868 0
M  V30 2921 O 269.995 0.590095 -1.73964 0
M  V30 2922 C 270.057 -2.82492 -2.22348 0
M  V30 2923 C 269.721 -4.23233 -1.72402 0
M  V30 2924 C 270.718 -5.05992 -1.19448 0
M  V30 2925 C 268.403 -4.696 -1.78273 0
M  V30 2926 C 270.397 -6.33203 -0.730268 0
M  V30 2927 C 268.084 -5.96792 -1.31464 0
M  V30 2928 C 269.082 -6.78424 -0.789297 0
M  V30 2929 O 268.77 -8.0323 -0.328077 0
M  V30 2930 H 268.502 -0.579873 -0.347453 0
M  V30 2931 H 271.056 -2.00502 -0.445882 0
M  V30 2932 H 269.286 -2.49702 -2.95272 0
M  V30 2933 H 270.975 -2.90034 -2.83963 0
M  V30 2934 H 271.741 -4.71349 -1.14259 0
M  V30 2935 H 267.62 -4.06142 -2.18106 0
M  V30 2936 H 271.164 -6.96868 -0.319542 0
M  V30 2937 H 267.061 -6.30937 -1.36342 0
M  V30 2938 H 267.829 -8.1727 -0.448493 0
M  V30 2939 N 270.492 0.636531 -1.44174 0
M  V30 2940 C 271.424 1.7618 -1.46606 0
M  V30 2941 C 272.437 1.58768 -0.360091 0
M  V30 2942 O 273.626 1.67181 -0.625518 0
M  V30 2943 C 270.726 3.13833 -1.27915 0
M  V30 2944 C 269.899 3.57753 -2.51658 0
M  V30 2945 C 268.958 4.74265 -2.27945 0
M  V30 2946 O 267.984 4.82852 -3.01401 0
M  V30 2947 N 269.186 5.65604 -1.30662 0
M  V30 2948 H 271.951 1.74567 -2.43612 0
M  V30 2949 H 269.512 0.820924 -1.39544 0
M  V30 2950 H 271.504 3.8949 -1.09907 0
M  V30 2951 H 270.074 3.10121 -0.39293 0
M  V30 2952 H 269.294 2.72362 -2.84978 0
M  V30 2953 H 270.582 3.83847 -3.33974 0
M  V30 2954 H 269.98 5.61354 -0.699844 0
M  V30 2955 H 268.537 6.40913 -1.18634 0
M  V30 2956 N 271.97 1.30982 0.876444 0
M  V30 2957 C 272.903 1.12414 1.98591 0
M  V30 2958 C 273.881 0.0294078 1.62573 0
M  V30 2959 O 275.065 0.184598 1.87594 0
M  V30 2960 C 272.192 0.716276 3.3104 0
M  V30 2961 C 271.238 1.81311 3.86042 0
M  V30 2962 S 272.071 3.41727 4.1229 0
M  V30 2963 C 273.227 3.02863 5.47745 0
M  V30 2964 H 273.46 2.06338 2.14037 0
M  V30 2965 H 270.993 1.15393 1.02586 0
M  V30 2966 H 272.951 0.487697 4.07593 0
M  V30 2967 H 271.612 -0.203749 3.13438 0
M  V30 2968 H 270.805 1.48021 4.81774 0
M  V30 2969 H 270.407 1.99641 3.16259 0
M  V30 2970 H 272.699 2.51353 6.29148 0
M  V30 2971 H 273.642 3.97533 5.8598 0
M  V30 2972 H 274.05 2.40487 5.10711 0
M  V30 2973 N 273.449 -1.08991 1.13837 0
M  V30 2974 C 274.412 -2.13925 0.822715 0
M  V30 2975 C 275.412 -1.599 -0.1699 0
M  V30 2976 O 276.602 -1.74104 0.0577251 0
M  V30 2977 C 273.734 -3.40155 0.225318 0
M  V30 2978 H 274.927 -2.43358 1.75262 0
M  V30 2979 H 272.48 -1.24603 0.943594 0
M  V30 2980 H 273.215 -3.16352 -0.713594 0
M  V30 2981 H 273 -3.80661 0.940193 0
M  V30 2982 H 274.49 -4.17594 0.0214784 0
M  V30 2983 N 274.927 -0.932562 -1.27047 0
M  V30 2984 C 275.857 -0.452902 -2.29066 0
M  V30 2985 C 276.838 0.489338 -1.62909 0
M  V30 2986 O 278.023 0.393046 -1.90181 0
M  V30 2987 C 275.153 0.290698 -3.46081 0
M  V30 2988 C 274.107 -0.564168 -4.24265 0
M  V30 2989 C 273.433 0.308886 -5.33807 0
M  V30 2990 C 274.733 -1.83112 -4.89149 0
M  V30 2991 H 276.427 -1.30552 -2.69437 0
M  V30 2992 H 273.973 -0.629201 -1.29526 0
M  V30 2993 H 275.926 0.637233 -4.16554 0
M  V30 2994 H 274.65 1.17738 -3.0464 0
M  V30 2995 H 273.309 -0.893477 -3.55545 0
M  V30 2996 H 272.957 1.19467 -4.88607 0
M  V30 2997 H 272.657 -0.259633 -5.87026 0
M  V30 2998 H 274.181 0.650884 -6.07121 0
M  V30 2999 H 275.595 -1.55236 -5.51883 0
M  V30 3000 H 273.992 -2.34353 -5.52448 0
M  V30 3001 H 275.062 -2.54772 -4.12576 0
M  V30 3002 N 276.405 1.4127 -0.698611 0
M  V30 3003 C 277.353 2.32588 -0.023855 0
M  V30 3004 C 278.347 1.51128 0.765292 0
M  V30 3005 O 279.553 1.67043 0.670571 0
M  V30 3006 H 275.928 0.751918 0.0110871 0
M  V30 3007 H 277.899 2.87167 -0.811031 0
M  V30 3008 C 276.648 3.35947 0.896369 0
M  V30 3009 H 275.971 3.98684 0.298548 0
M  V30 3010 H 277.411 4.02376 1.33676 0
M  V30 3011 C 275.87 2.70076 2.01396 0
M  V30 3012 O 276.4 2.55093 3.10307 0
M  V30 3013 N 274.606 2.28724 1.79259 0
M  V30 3014 H 274.153 2.4111 0.906841 0
M  V30 3015 H 274.111 1.84986 2.54219 0
M  V30 3016 N 277.883 0.443576 1.51229 0
M  V30 3017 C 278.815 -0.400608 2.25672 0
M  V30 3018 C 279.828 -0.980945 1.29928 0
M  V30 3019 O 281.017 -0.874024 1.55638 0
M  V30 3020 C 278.117 -1.57304 3.00181 0
M  V30 3021 C 277.29 -1.11046 4.23069 0
M  V30 3022 C 276.349 -2.15374 4.80105 0
M  V30 3023 O 275.375 -1.74554 5.41774 0
M  V30 3024 N 276.577 -3.47922 4.64683 0
M  V30 3025 H 279.342 0.23745 2.98758 0
M  V30 3026 H 276.903 0.272809 1.59585 0
M  V30 3027 H 278.895 -2.26733 3.35223 0
M  V30 3028 H 277.465 -2.11632 2.30066 0
M  V30 3029 H 276.685 -0.243019 3.9345 0
M  V30 3030 H 277.973 -0.778888 5.02803 0
M  V30 3031 H 277.371 -3.83815 4.15575 0
M  V30 3032 H 275.928 -4.13228 5.0407 0
M  V30 3033 N 279.361 -1.56624 0.175154 0
M  V30 3034 C 280.324 -2.16934 -0.739738 0
M  V30 3035 C 281.324 -1.11842 -1.15533 0
M  V30 3036 O 282.514 -1.37335 -1.07167 0
M  V30 3037 C 279.646 -2.75531 -2.00738 0
M  V30 3038 H 280.839 -2.99131 -0.214639 0
M  V30 3039 H 278.392 -1.56123 -0.0744197 0
M  V30 3040 H 279.127 -1.97078 -2.57548 0
M  V30 3041 H 278.912 -3.52444 -1.71831 0
M  V30 3042 H 280.402 -3.21904 -2.66021 0
M  V30 3043 N 280.839 0.0985539 -1.57292 0
M  V30 3044 C 281.769 1.12064 -2.04851 0
M  V30 3045 C 282.75 1.41981 -0.936767 0
M  V30 3046 O 283.935 1.52071 -1.20781 0
M  V30 3047 C 281.065 2.44144 -2.47004 0
M  V30 3048 C 280.019 2.28643 -3.6181 0
M  V30 3049 C 279.345 3.65869 -3.89929 0
M  V30 3050 C 280.645 1.72986 -4.92822 0
M  V30 3051 H 282.339 0.724979 -2.9049 0
M  V30 3052 H 279.885 0.34729 -1.39749 0
M  V30 3053 H 281.838 3.15914 -2.78884 0
M  V30 3054 H 280.562 2.85639 -1.5836 0
M  V30 3055 H 279.221 1.59318 -3.30172 0
M  V30 3056 H 278.869 4.04885 -2.98458 0
M  V30 3057 H 278.569 3.56344 -4.67218 0
M  V30 3058 H 280.093 4.39112 -4.2428 0
M  V30 3059 H 281.507 2.34593 -5.23105 0
M  V30 3060 H 279.904 1.74229 -5.74251 0
M  V30 3061 H 280.974 0.689007 -4.7998 0
M  V30 3062 N 282.317 1.53212 0.369288 0
M  V30 3063 C 283.264 1.79388 1.45219 0
M  V30 3064 C 284.234 0.638059 1.53356 0
M  V30 3065 O 285.419 0.879852 1.69302 0
M  V30 3066 C 282.559 1.98623 2.82211 0
M  V30 3067 C 281.672 3.26337 2.8307 0
M  V30 3068 C 280.807 3.35779 4.11614 0
M  V30 3069 C 279.846 4.5754 4.06601 0
M  V30 3070 N 278.983 4.64155 5.26787 0
M  V30 3071 H 283.823 2.71794 1.22198 0
M  V30 3072 H 281.36 1.34642 0.592444 0
M  V30 3073 H 283.318 2.07761 3.61789 0
M  V30 3074 H 281.948 1.09558 3.03639 0
M  V30 3075 H 281 3.26171 1.95747 0
M  V30 3076 H 282.312 4.15988 2.75237 0
M  V30 3077 H 281.466 3.44208 4.99606 0
M  V30 3078 H 280.205 2.44137 4.22195 0
M  V30 3079 H 279.21 4.49215 3.16996 0
M  V30 3080 H 280.435 5.50519 3.97625 0
M  V30 3081 H 278.381 3.75413 5.3796 0
M  V30 3082 H 278.298 5.47706 5.21109 0
M  V30 3083 H 279.566 4.76863 6.16621 0
M  V30 3084 N 283.795 -0.628877 1.44509 0
M  V30 3085 C 285.072 -1.38733 1.37886 0
M  V30 3086 C 285.452 -2.11065 0.0387008 0
M  V30 3087 O 284.8 -2.06476 -0.97878 0
M  V30 3088 C 285.01 -2.35188 2.57852 0
M  V30 3089 C 286.358 -2.9845 3.02014 0
M  V30 3090 O 287.382 -2.45513 2.58073 0
M  V30 3091 O 286.241 -3.94487 3.78209 0
M  V30 3092 H 283.335 -0.621015 0.54614 0
M  V30 3093 H 285.881 -0.653744 1.56602 0
M  V30 3094 H 284.653 -1.80855 3.46998 0
M  V30 3095 H 284.276 -3.1596 2.4136 0
M  V30 3096 N 285.273 -1.31445 -0.869486 0
M  V30 3097 C 286.203 -1.21727 -1.99261 0
M  V30 3098 C 287.184 -0.104359 -1.6978 0
M  V30 3099 O 288.369 -0.289038 -1.92037 0
M  V30 3100 C 285.499 -0.924317 -3.34774 0
M  V30 3101 C 284.453 -1.99685 -3.78563 0
M  V30 3102 C 283.779 -1.55658 -5.11541 0
M  V30 3103 C 285.079 -3.41003 -3.95619 0
M  V30 3104 H 286.773 -2.1569 -2.07649 0
M  V30 3105 H 284.319 -1.03839 -0.997675 0
M  V30 3106 H 286.272 -0.842934 -4.12883 0
M  V30 3107 H 284.996 0.0509793 -3.2656 0
M  V30 3108 H 283.655 -2.06813 -3.02694 0
M  V30 3109 H 283.303 -0.569132 -4.9977 0
M  V30 3110 H 283.003 -2.27409 -5.41811 0
M  V30 3111 H 284.527 -1.48928 -5.92159 0
M  V30 3112 H 285.941 -3.36547 -4.64122 0
M  V30 3113 H 284.338 -4.10975 -4.37286 0
M  V30 3114 H 285.408 -3.81754 -2.98985 0
M  V30 3115 N 286.751 1.08385 -1.14413 0
M  V30 3116 C 287.698 2.15311 -0.831265 0
M  V30 3117 C 288.668 1.64751 0.211292 0
M  V30 3118 O 289.853 1.90627 0.0811674 0
M  V30 3119 C 286.993 3.43658 -0.315143 0
M  V30 3120 C 286.106 4.08064 -1.41802 0
M  V30 3121 C 285.241 5.24207 -0.859126 0
M  V30 3122 C 284.28 5.80554 -1.93967 0
M  V30 3123 N 283.417 6.88042 -1.39793 0
M  V30 3124 H 288.257 2.41415 -1.74708 0
M  V30 3125 H 285.794 1.18474 -0.871909 0
M  V30 3126 H 287.752 4.172 0.00230884 0
M  V30 3127 H 286.382 3.17839 0.56378 0
M  V30 3128 H 285.434 3.3228 -1.85187 0
M  V30 3129 H 286.746 4.45962 -2.23427 0
M  V30 3130 H 285.9 6.04689 -0.49359 0
M  V30 3131 H 284.639 4.87699 -0.011932 0
M  V30 3132 H 283.644 4.98725 -2.31415 0
M  V30 3133 H 284.869 6.19121 -2.79046 0
M  V30 3134 H 282.815 6.53493 -0.572919 0
M  V30 3135 H 282.732 7.24767 -2.15054 0
M  V30 3136 H 284 7.72255 -1.0603 0
M  V30 3137 N 288.23 0.939286 1.26551 0
M  V30 3138 C 289.193 0.451987 2.24699 0
M  V30 3139 C 290.193 -0.435869 1.5478 0
M  V30 3140 O 291.383 -0.235314 1.72603 0
M  V30 3141 C 288.515 -0.348801 3.39111 0
M  V30 3142 H 289.708 1.3193 2.69322 0
M  V30 3143 H 287.261 0.721072 1.38673 0
M  V30 3144 H 287.996 -1.23444 2.99887 0
M  V30 3145 H 287.781 0.287945 3.91041 0
M  V30 3146 H 289.271 -0.679726 4.12031 0
M  V30 3147 N 289.708 -1.40897 0.706093 0
M  V30 3148 C 290.638 -2.33418 0.0620085 0
M  V30 3149 C 291.619 -1.52385 -0.755827 0
M  V30 3150 O 292.804 -1.80886 -0.706674 0
M  V30 3151 C 289.934 -3.36293 -0.867445 0
M  V30 3152 C 288.888 -4.27716 -0.155932 0
M  V30 3153 C 288.214 -5.2105 -1.20046 0
M  V30 3154 C 289.514 -5.12944 0.984149 0
M  V30 3155 H 291.208 -2.87527 0.83477 0
M  V30 3156 H 288.754 -1.38249 0.402875 0
M  V30 3157 H 290.707 -3.99949 -1.32735 0
M  V30 3158 H 289.431 -2.80556 -1.67199 0
M  V30 3159 H 288.09 -3.65498 0.284047 0
M  V30 3160 H 287.738 -4.61624 -1.99781 0
M  V30 3161 H 287.438 -5.83056 -0.729328 0
M  V30 3162 H 288.962 -5.87584 -1.66066 0
M  V30 3163 H 290.376 -5.70109 0.604048 0
M  V30 3164 H 288.773 -5.83945 1.38304 0
M  V30 3165 H 289.843 -4.49485 1.81911 0
M  V30 3166 N 291.186 -0.45159 -1.50991 0
M  V30 3167 C 292.434 0.109857 -2.01801 0
M  V30 3168 C 292.755 1.41958 -1.3369 0
M  V30 3169 O 292.025 1.9003 -0.475951 0
M  V30 3170 H 290.605 0.0435884 -0.745727 0
M  V30 3171 H 293.267 -0.597557 -1.85514 0
M  V30 3172 H 292.363 0.275489 -3.10882 0
M  V30 3173 N 292.664 1.56529 -0.183458 0
M  V30 3174 C 293.904 1.99141 0.460667 0
M  V30 3175 C 294.268 1.06736 1.59597 0
M  V30 3176 O 295.469 1.38538 2.30349 0
M  V30 3177 C 293.74 3.45358 0.919939 0
M  V30 3178 S 295.299 4.09999 1.56354 0
M  V30 3179 H 292.117 0.695479 0.147748 0
M  V30 3180 H 294.719 1.93429 -0.283782 0
M  V30 3181 H 293.423 4.10315 0.0834208 0
M  V30 3182 H 292.954 3.54862 1.69814 0
M  V30 3183 H 294.969 4.06046 2.85203 0
M  V30 3184 N 294.142 -0.090211 1.57342 0
M  V30 3185 C 295.558 -0.444547 1.53284 0
M  V30 3186 C 295.758 -1.80238 0.900914 0
M  V30 3187 O 294.814 -2.4759 0.495513 0
M  V30 3188 C 296.127 -0.402543 2.97993 0
M  V30 3189 C 297.675 -0.48405 3.09234 0
M  V30 3190 C 298.15 -0.472144 4.5556 0
M  V30 3191 N 299.641 -0.532757 4.60126 0
M  V30 3192 C 300.376 -0.545462 5.708 0
M  V30 3193 N 299.872 -0.514082 6.9089 0
M  V30 3194 N 301.665 -0.59064 5.58988 0
M  V30 3195 H 293.816 0.799121 1.96794 0
M  V30 3196 H 296.079 0.297965 0.899956 0
M  V30 3197 H 295.785 0.528106 3.47712 0
M  V30 3198 H 295.659 -1.21969 3.56936 0
M  V30 3199 H 298.046 -1.40512 2.595 0
M  V30 3200 H 298.127 0.361328 2.53235 0
M  V30 3201 H 297.771 0.445 5.05947 0
M  V30 3202 H 297.701 -1.3348 5.09402 0
M  V30 3203 H 300.192 -0.562006 3.73698 0
M  V30 3204 H 300.505 -0.527195 7.71 0
M  V30 3205 H 298.85 -0.481054 6.93333 0
M  V30 3206 H 302.041 -0.61272 4.64073 0
M  V30 3207 H 302.214 -0.597073 6.45243 0
M  V30 3208 N 295.62 -1.53406 -0.361157 0
M  V30 3209 C 296.567 -1.80156 -1.44265 0
M  V30 3210 C 297.537 -0.646183 -1.53015 0
M  V30 3211 O 298.722 -0.888818 -1.68833 0
M  V30 3212 C 295.862 -2.00116 -2.81154 0
M  V30 3213 C 294.975 -3.27833 -2.81335 0
M  V30 3214 C 294.11 -3.37957 -4.09828 0
M  V30 3215 C 293.149 -4.59689 -4.04168 0
M  V30 3216 N 292.286 -4.66942 -5.24318 0
M  V30 3217 H 297.126 -2.72438 -1.20754 0
M  V30 3218 H 294.663 -1.34954 -0.585296 0
M  V30 3219 H 296.621 -2.09677 -3.60682 0
M  V30 3220 H 295.251 -1.11167 -3.03054 0
M  V30 3221 H 294.303 -3.27204 -1.94014 0
M  V30 3222 H 295.615 -4.17442 -2.73027 0
M  V30 3223 H 294.769 -3.46853 -4.97773 0
M  V30 3224 H 293.508 -2.46372 -4.20894 0
M  V30 3225 H 292.513 -4.50889 -3.14609 0
M  V30 3226 H 293.738 -5.5262 -3.947 0
M  V30 3227 H 291.684 -3.7826 -5.35962 0
M  V30 3228 H 291.601 -5.50462 -5.18197 0
M  V30 3229 H 292.869 -4.80127 -6.14084 0
M  V30 3230 N 297.098 0.621204 -1.44841 0
M  V30 3231 C 298.061 1.71459 -1.521 0
M  V30 3232 C 299.061 1.55696 -0.401933 0
M  V30 3233 O 300.251 1.61011 -0.664925 0
M  V30 3234 C 297.383 3.10624 -1.40447 0
M  V30 3235 H 298.576 1.66394 -2.49506 0
M  V30 3236 H 296.129 0.835745 -1.3208 0
M  V30 3237 H 296.864 3.21277 -0.441737 0
M  V30 3238 H 296.649 3.23473 -2.21602 0
M  V30 3239 H 298.139 3.90293 -1.4853 0
M  V30 3240 N 298.576 1.31904 0.862503 0
M  V30 3241 C 299.509 1.14514 1.97388 0
M  V30 3242 C 300.487 0.0466493 1.62533 0
M  V30 3243 O 301.671 0.204484 1.87388 0
M  V30 3244 C 298.798 0.751347 3.30261 0
M  V30 3245 C 297.844 1.85395 3.84098 0
M  V30 3246 S 298.677 3.46081 4.08642 0
M  V30 3247 C 299.833 3.08655 5.44502 0
M  V30 3248 H 300.066 2.08597 2.11836 0
M  V30 3249 H 297.599 1.16475 1.01356 0
M  V30 3250 H 299.557 0.530901 4.07052 0
M  V30 3251 H 298.218 -0.170493 3.13637 0
M  V30 3252 H 297.411 1.53122 4.80177 0
M  V30 3253 H 297.013 2.02984 3.14123 0
M  V30 3254 H 299.305 2.58012 6.26447 0
M  V30 3255 H 300.248 4.03726 5.81731 0
M  V30 3256 H 300.656 2.45891 5.08132 0
M  V30 3257 N 300.054 -1.07777 1.14986 0
M  V30 3258 C 301.001 -2.14867 0.842672 0
M  V30 3259 C 301.971 -1.6486 -0.202552 0
M  V30 3260 O 303.156 -1.90668 -0.0710568 0
M  V30 3261 C 300.296 -3.43486 0.333363 0
M  V30 3262 C 299.409 -4.07306 1.43965 0
M  V30 3263 C 298.544 -5.23744 0.886914 0
M  V30 3264 C 297.583 -5.79517 1.97043 0
M  V30 3265 N 296.72 -6.87291 1.4344 0
M  V30 3266 H 301.56 -2.40485 1.75986 0
M  V30 3267 H 299.097 -1.1801 0.878179 0
M  V30 3268 H 301.055 -4.17195 0.0198163 0
M  V30 3269 H 299.685 -3.18133 -0.546916 0
M  V30 3270 H 298.737 -3.31293 1.86946 0
M  V30 3271 H 300.049 -4.44771 2.25788 0
M  V30 3272 H 299.203 -6.04419 0.525651 0
M  V30 3273 H 297.942 -4.87685 0.0377957 0
M  V30 3274 H 296.947 -4.97491 2.34057 0
M  V30 3275 H 298.172 -6.17632 2.82325 0
M  V30 3276 H 296.118 -6.5318 0.607567 0
M  V30 3277 H 296.035 -7.23617 2.18895 0
M  V30 3278 H 297.303 -7.71682 1.10124 0
M  V30 3279 N 301.532 -0.945985 -1.26051 0
M  V30 3280 C 302.479 -0.45809 -2.26208 0
M  V30 3281 C 303.449 0.484816 -1.58867 0
M  V30 3282 O 304.634 0.399969 -1.86561 0
M  V30 3283 C 301.774 0.266131 -3.44072 0
M  V30 3284 C 300.887 -0.713005 -4.26075 0
M  V30 3285 C 300.022 0.0329013 -5.3119 0
M  V30 3286 C 299.061 -0.93774 -6.04874 0
M  V30 3287 N 298.198 -0.223274 -7.01745 0
M  V30 3288 H 303.038 -1.3171 -2.67313 0
M  V30 3289 H 300.575 -0.66069 -1.31428 0
M  V30 3290 H 302.533 0.702514 -4.11243 0
M  V30 3291 H 301.163 1.08925 -3.03867 0
M  V30 3292 H 300.215 -1.26789 -3.58648 0
M  V30 3293 H 301.527 -1.45406 -4.77136 0
M  V30 3294 H 300.681 0.528335 -6.04395 0
M  V30 3295 H 299.42 0.806801 -4.8098 0
M  V30 3296 H 298.425 -1.44425 -5.30492 0
M  V30 3297 H 299.65 -1.71172 -6.57173 0
M  V30 3298 H 297.596 0.532046 -6.53839 0
M  V30 3299 H 297.513 -0.90357 -7.50581 0
M  V30 3300 H 298.781 0.250907 -7.79096 0
M  V30 3301 N 303.011 1.40521 -0.713556 0
M  V30 3302 C 304.258 2.00923 -0.25219 0
M  V30 3303 C 304.586 1.56571 1.15395 0
M  V30 3304 O 303.841 0.775874 1.79663 0
M  V30 3305 C 304.14 3.56317 -0.278 0
M  V30 3306 C 303.806 4.20246 -1.63415 0
M  V30 3307 C 302.468 4.37422 -2.00538 0
M  V30 3308 C 304.82 4.55923 -2.52554 0
M  V30 3309 C 302.148 4.87558 -3.2635 0
M  V30 3310 C 304.5 5.07458 -3.77716 0
M  V30 3311 C 303.164 5.22843 -4.14959 0
M  V30 3312 H 302.434 0.735231 -0.0922829 0
M  V30 3313 H 305.081 1.68161 -0.916188 0
M  V30 3314 H 303.386 3.88976 0.469567 0
M  V30 3315 H 305.083 4.00883 0.0967819 0
M  V30 3316 H 301.673 4.07263 -1.33546 0
M  V30 3317 H 305.857 4.42291 -2.25149 0
M  V30 3318 H 301.113 4.97654 -3.55176 0
M  V30 3319 H 305.287 5.34041 -4.4696 0
M  V30 3320 H 302.914 5.61454 -5.12516 0
M  V30 3321 N 304.489 0.459591 1.5075 0
M  V30 3322 C 305.399 -0.34613 2.32033 0
M  V30 3323 C 306.415 -1.00686 1.41909 0
M  V30 3324 O 307.591 -0.997361 1.7497 0
M  V30 3325 C 304.656 -1.42029 3.16273 0
M  V30 3326 C 303.717 -0.777362 4.22203 0
M  V30 3327 C 302.95 -1.80034 5.02418 0
M  V30 3328 O 303.173 -3.02544 4.83553 0
M  V30 3329 O 302.107 -1.37853 5.85901 0
M  V30 3330 H 305.933 0.318054 3.0203 0
M  V30 3331 H 303.518 0.221663 1.47746 0
M  V30 3332 H 305.4 -2.04275 3.68578 0
M  V30 3333 H 304.075 -2.06815 2.49016 0
M  V30 3334 H 302.982 -0.116256 3.73919 0
M  V30 3335 H 304.315 -0.172634 4.91897 0
M  V30 3336 N 305.967 -1.56429 0.191757 0
M  V30 3337 C 307.383 -1.58754 -0.164137 0
M  V30 3338 C 307.583 -1.20782 -1.61288 0
M  V30 3339 O 306.639 -0.928999 -2.34789 0
M  V30 3340 C 307.952 -3.00396 0.135195 0
M  V30 3341 C 309.5 -3.1291 0.0750351 0
M  V30 3342 C 309.975 -4.56679 0.347632 0
M  V30 3343 N 311.466 -4.62252 0.296131 0
M  V30 3344 C 312.201 -5.71379 0.480948 0
M  V30 3345 N 311.697 -6.88986 0.725933 0
M  V30 3346 N 313.49 -5.60563 0.415435 0
M  V30 3347 H 305.641 -1.79393 1.13718 0
M  V30 3348 H 307.904 -0.832414 0.453643 0
M  V30 3349 H 307.61 -3.32726 1.13958 0
M  V30 3350 H 307.484 -3.72963 -0.563773 0
M  V30 3351 H 309.871 -2.80394 -0.919948 0
M  V30 3352 H 309.952 -2.42736 0.807029 0
M  V30 3353 H 309.596 -4.89907 1.33992 0
M  V30 3354 H 309.526 -5.25039 -0.405212 0
M  V30 3355 H 312.017 -3.7773 0.113259 0
M  V30 3356 H 312.33 -7.68046 0.855857 0
M  V30 3357 H 310.675 -6.90801 0.762788 0
M  V30 3358 H 313.866 -4.67561 0.224486 0
M  V30 3359 H 314.039 -6.45551 0.562889 0
M  V30 3360 N 307.445 0.0818655 -1.57387 0
M  V30 3361 C 308.395 1.10501 -1.99433 0
M  V30 3362 C 309.379 1.35041 -0.874798 0
M  V30 3363 O 310.571 1.35511 -1.13868 0
M  V30 3364 C 307.7 2.42159 -2.43339 0
M  V30 3365 C 306.786 2.20937 -3.62005 0
M  V30 3366 N 307.177 1.69616 -4.76512 0
M  V30 3367 C 305.475 2.51451 -3.68359 0
M  V30 3368 C 306.176 1.62973 -5.58404 0
M  V30 3369 N 305.152 2.08664 -5.01956 0
M  V30 3370 H 308.954 0.701373 -2.85408 0
M  V30 3371 H 306.468 0.289096 -1.59806 0
M  V30 3372 H 308.465 3.16208 -2.71695 0
M  V30 3373 H 307.125 2.83249 -1.58746 0
M  V30 3374 H 308.136 1.38624 -4.99003 0
M  V30 3375 H 304.813 2.95975 -2.94457 0
M  V30 3376 H 306.203 1.24233 -6.60315 0
M  V30 3377 N 308.923 1.53595 0.353017 0
M  V30 3378 C 310.151 1.74311 1.1146 0
M  V30 3379 C 310.566 0.477854 1.82653 0
M  V30 3380 O 309.923 -0.549977 1.74016 0
M  V30 3381 C 309.974 2.91694 2.13534 0
M  V30 3382 O 309.695 4.13325 1.45238 0
M  V30 3383 C 311.196 3.24384 3.02142 0
M  V30 3384 H 308.416 0.582669 0.332773 0
M  V30 3385 H 310.96 2.00386 0.408107 0
M  V30 3386 H 309.115 2.67977 2.79763 0
M  V30 3387 H 309.529 4.79148 2.13349 0
M  V30 3388 H 311.003 4.09893 3.69718 0
M  V30 3389 H 311.48 2.40282 3.67643 0
M  V30 3390 H 312.086 3.50073 2.41514 0
M  V30 3391 N 310.401 -0.613514 1.45168 0
M  V30 3392 C 311.331 -1.7354 1.56225 0
M  V30 3393 C 312.312 -1.64981 0.41414 0
M  V30 3394 O 313.497 -1.83472 0.636526 0
M  V30 3395 C 310.627 -3.12128 1.52295 0
M  V30 3396 C 309.581 -3.35491 2.65762 0
M  V30 3397 C 308.907 -4.74291 2.46885 0
M  V30 3398 C 310.207 -3.26325 4.0781 0
M  V30 3399 H 311.901 -1.64543 2.50132 0
M  V30 3400 H 309.447 -0.790185 1.20383 0
M  V30 3401 H 311.4 -3.90404 1.58628 0
M  V30 3402 H 310.124 -3.2195 0.549139 0
M  V30 3403 H 308.783 -2.59603 2.58847 0
M  V30 3404 H 308.431 -4.80839 1.47657 0
M  V30 3405 H 308.131 -4.9088 3.22972 0
M  V30 3406 H 309.655 -5.54775 2.55063 0
M  V30 3407 H 311.069 -3.94483 4.16 0
M  V30 3408 H 309.466 -3.54445 4.8424 0
M  V30 3409 H 310.536 -2.23855 4.30136 0
M  V30 3410 N 311.879 -1.3236 -0.855495 0
M  V30 3411 C 312.809 -1.23833 -1.97958 0
M  V30 3412 C 313.79 -0.122361 -1.69659 0
M  V30 3413 O 314.975 -0.30939 -1.9172 0
M  V30 3414 C 312.105 -0.959772 -3.33775 0
M  V30 3415 C 311.059 -2.03689 -3.76424 0
M  V30 3416 C 310.385 -1.61075 -5.09862 0
M  V30 3417 C 311.685 -3.4518 -3.9198 0
M  V30 3418 H 313.379 -2.1788 -2.0535 0
M  V30 3419 H 310.925 -1.04891 -0.986605 0
M  V30 3420 H 312.878 -0.886678 -4.11966 0
M  V30 3421 H 311.602 0.0163404 -3.26596 0
M  V30 3422 H 310.261 -2.10012 -3.00484 0
M  V30 3423 H 309.909 -0.622107 -4.99138 0
M  V30 3424 H 309.609 -2.33143 -5.39368 0
M  V30 3425 H 311.133 -1.55201 -5.90546 0
M  V30 3426 H 312.547 -3.4145 -4.60526 0
M  V30 3427 H 310.944 -4.1559 -4.32903 0
M  V30 3428 H 312.014 -3.84903 -2.94919 0
M  V30 3429 N 313.357 1.07166 -1.15556 0
M  V30 3430 C 314.267 2.17947 -0.868116 0
M  V30 3431 C 315.283 1.73297 0.156297 0
M  V30 3432 O 316.459 2.01392 -0.0182327 0
M  V30 3433 C 313.524 3.44789 -0.36355 0
M  V30 3434 C 312.585 4.03996 -1.45209 0
M  V30 3435 C 311.818 5.24783 -0.971508 0
M  V30 3436 O 312.041 5.70109 0.182194 0
M  V30 3437 O 310.975 5.75715 -1.75603 0
M  V30 3438 H 314.801 2.4503 -1.79427 0
M  V30 3439 H 312.386 1.16539 -0.934824 0
M  V30 3440 H 314.268 4.21307 -0.0887113 0
M  V30 3441 H 312.943 3.19253 0.534708 0
M  V30 3442 H 311.85 3.29009 -1.78056 0
M  V30 3443 H 313.183 4.33808 -2.32533 0
M  V30 3444 N 314.835 0.952656 1.25548 0
M  V30 3445 C 316.065 0.622592 1.96996 0
M  V30 3446 C 316.473 -0.809112 1.71026 0
M  V30 3447 O 315.816 -1.55258 0.981861 0
M  V30 3448 C 315.878 0.798946 3.5051 0
M  V30 3449 C 315.542 2.20744 4.00151 0
M  V30 3450 C 316.539 3.18394 4.11001 0
M  V30 3451 C 314.224 2.5311 4.33867 0
M  V30 3452 C 316.218 4.46504 4.54877 0
M  V30 3453 C 313.905 3.8145 4.7743 0
M  V30 3454 C 314.903 4.77959 4.87897 0
M  V30 3455 O 314.591 6.04012 5.30494 0
M  V30 3456 H 314.323 0.232503 0.634758 0
M  V30 3457 H 316.877 1.2789 1.60728 0
M  V30 3458 H 315.107 0.0854903 3.86605 0
M  V30 3459 H 316.796 0.47023 4.03167 0
M  V30 3460 H 317.562 2.94715 3.85186 0
M  V30 3461 H 313.441 1.78719 4.24948 0
M  V30 3462 H 316.985 5.21835 4.62962 0
M  V30 3463 H 312.882 4.04936 5.0269 0
M  V30 3464 H 313.65 6.0736 5.48685 0
M  V30 3465 N 316.313 -1.40141 0.720998 0
M  V30 3466 C 317.243 -2.33339 0.0867621 0
M  V30 3467 C 318.224 -1.53178 -0.739622 0
M  V30 3468 O 319.409 -1.81625 -0.687449 0
M  V30 3469 C 316.539 -3.37194 -0.831728 0
M  V30 3470 C 315.493 -4.27857 -0.110558 0
M  V30 3471 C 314.819 -5.22294 -1.14513 0
M  V30 3472 C 316.119 -5.11872 1.0385 0
M  V30 3473 H 317.813 -2.86626 0.865219 0
M  V30 3474 H 315.359 -1.37814 0.417516 0
M  V30 3475 H 317.312 -4.01335 -1.28485 0
M  V30 3476 H 316.036 -2.82314 -1.64214 0
M  V30 3477 H 314.695 -3.65176 0.322797 0
M  V30 3478 H 314.343 -4.63717 -1.94874 0
M  V30 3479 H 314.043 -5.83797 -0.667446 0
M  V30 3480 H 315.567 -5.89312 -1.59824 0
M  V30 3481 H 316.981 -5.69436 0.664482 0
M  V30 3482 H 315.378 -5.82445 1.4449 0
M  V30 3483 H 316.448 -4.4753 1.86668 0
M  V30 3484 N 317.792 -0.46758 -1.50504 0
M  V30 3485 C 318.722 0.318381 -2.31319 0
M  V30 3486 C 319.703 0.993564 -1.38066 0
M  V30 3487 O 320.888 0.991411 -1.66987 0
M  V30 3488 C 318.018 1.40275 -3.17711 0
M  V30 3489 C 316.972 0.849373 -4.19487 0
M  V30 3490 C 316.298 2.03177 -4.94594 0
M  V30 3491 C 317.598 -0.136942 -5.2212 0
M  V30 3492 H 319.292 -0.356106 -2.97275 0
M  V30 3493 H 316.838 -0.172703 -1.42961 0
M  V30 3494 H 318.791 1.96004 -3.73042 0
M  V30 3495 H 317.515 2.10596 -2.49634 0
M  V30 3496 H 316.174 0.314076 -3.65252 0
M  V30 3497 H 315.822 2.72187 -4.22993 0
M  V30 3498 H 315.522 1.66774 -5.63436 0
M  V30 3499 H 317.046 2.59403 -5.52759 0
M  V30 3500 H 318.46 0.331056 -5.72343 0
M  V30 3501 H 316.857 -0.41507 -5.98663 0
M  V30 3502 H 317.927 -1.06398 -4.73083 0
M  V30 3503 N 319.27 1.56325 -0.20005 0
M  V30 3504 C 320.518 1.97329 0.436547 0
M  V30 3505 C 320.839 1.08826 1.61808 0
M  V30 3506 O 320.109 0.160604 1.95241 0
M  V30 3507 H 318.689 0.728714 0.164272 0
M  V30 3508 H 321.351 1.92761 -0.287937 0
M  V30 3509 H 320.447 3.02264 0.777353 0
M  V30 3510 N 320.748 -0.0735177 1.57428 0
M  V30 3511 C 321.658 -1.10547 2.06922 0
M  V30 3512 C 322.674 -1.42506 0.998402 0
M  V30 3513 O 323.85 -1.52717 1.31299 0
M  V30 3514 C 320.915 -2.40019 2.50184 0
M  V30 3515 C 319.976 -2.15046 3.71556 0
M  V30 3516 C 319.209 -3.38345 4.12745 0
M  V30 3517 O 319.432 -4.47399 3.53822 0
M  V30 3518 O 318.366 -3.2666 5.05546 0
M  V30 3519 H 322.192 -0.715013 2.95163 0
M  V30 3520 H 319.777 -0.287531 1.46607 0
M  V30 3521 H 321.659 -3.16218 2.78539 0
M  V30 3522 H 320.334 -2.78447 1.65072 0
M  V30 3523 H 319.241 -1.36558 3.48285 0
M  V30 3524 H 320.574 -1.81499 4.57514 0
M  V30 3525 N 322.226 -1.5378 -0.344866 0
M  V30 3526 C 323.474 -1.70625 -1.08311 0
M  V30 3527 C 323.795 -0.471447 -1.89215 0
M  V30 3528 O 323.065 0.514616 -1.8902 0
M  V30 3529 H 321.645 -0.629058 -0.402859 0
M  V30 3530 H 324.307 -1.9103 -0.386459 0
M  V30 3531 H 323.403 -2.57656 -1.76124 0
M  V30 3532 N 323.704 0.605807 -1.45491 0
M  V30 3533 C 324.652 1.73754 -1.54636 0
M  V30 3534 C 325.646 1.64207 -0.416219 0
M  V30 3535 O 326.852 1.69979 -0.592199 0
M  V30 3536 H 323.227 0.574073 -0.485741 0
M  V30 3537 H 325.198 1.63169 -2.49837 0
M  V30 3538 C 323.947 3.12135 -1.53189 0
M  V30 3539 H 323.27 3.20141 -2.39478 0
M  V30 3540 H 324.71 3.91147 -1.63645 0
M  V30 3541 C 323.169 3.35921 -0.256616 0
M  V30 3542 O 323.699 3.96194 0.662798 0
M  V30 3543 N 321.905 2.90204 -0.151751 0
M  V30 3544 H 321.452 2.41336 -0.90081 0
M  V30 3545 H 321.41 3.06492 0.700699 0
M  V30 3546 N 325.182 1.32811 0.848464 0
M  V30 3547 C 326.112 1.24882 1.97299 0
M  V30 3548 C 327.093 0.131357 1.69592 0
M  V30 3549 O 328.278 0.319553 1.91553 0
M  V30 3550 C 325.408 0.97746 3.33261 0
M  V30 3551 C 324.362 2.05682 3.75338 0
M  V30 3552 C 323.688 1.63777 5.09 0
M  V30 3553 C 324.988 3.47254 3.90144 0
M  V30 3554 H 326.682 2.18966 2.04191 0
M  V30 3555 H 324.228 1.05413 0.981029 0
M  V30 3556 H 326.181 0.908513 4.1149 0
M  V30 3557 H 324.905 0.000980011 3.266 0
M  V30 3558 H 323.564 2.11603 2.99366 0
M  V30 3559 H 323.212 0.648569 4.98801 0
M  V30 3560 H 322.912 2.36 5.38124 0
M  V30 3561 H 324.436 1.5833 5.89715 0
M  V30 3562 H 325.85 3.43888 4.58709 0
M  V30 3563 H 324.247 4.1788 4.30693 0
M  V30 3564 H 325.317 3.86462 2.92874 0
M  V30 3565 N 326.66 -1.06551 1.16123 0
M  V30 3566 C 327.885 -1.83544 0.965735 0
M  V30 3567 C 328.31 -1.81843 -0.481102 0
M  V30 3568 O 327.668 -1.21732 -1.34354 0
M  V30 3569 C 327.716 -3.28169 1.49457 0
M  V30 3570 O 326.82 -4.0643 0.699157 0
M  V30 3571 H 326.161 -0.568026 0.343864 0
M  V30 3572 H 328.691 -1.34362 1.54299 0
M  V30 3573 H 328.701 -3.78992 1.51092 0
M  V30 3574 H 327.376 -3.28722 2.54784 0
M  V30 3575 H 325.953 -3.65216 0.7531 0
M  V30 3576 N 328.138 -0.959301 -1.25041 0
M  V30 3577 C 329.554 -0.664474 -1.4511 0
M  V30 3578 C 329.754 0.776481 -1.85938 0
M  V30 3579 O 328.81 1.55128 -1.99227 0
M  V30 3580 C 330.123 -1.64139 -2.5195 0
M  V30 3581 C 331.671 -1.65309 -2.65786 0
M  V30 3582 C 332.146 -2.61777 -3.75815 0
M  V30 3583 N 333.637 -2.60169 -3.83231 0
M  V30 3584 C 334.372 -3.31489 -4.6787 0
M  V30 3585 N 333.868 -4.12298 -5.56761 0
M  V30 3586 N 335.661 -3.20354 -4.61876 0
M  V30 3587 H 327.812 -1.89043 -0.968332 0
M  V30 3588 H 330.075 -0.813408 -0.4869 0
M  V30 3589 H 329.781 -2.67086 -2.28819 0
M  V30 3590 H 329.655 -1.40756 -3.49954 0
M  V30 3591 H 332.042 -0.630778 -2.8828 0
M  V30 3592 H 332.123 -1.92753 -1.68167 0
M  V30 3593 H 331.767 -3.64137 -3.54071 0
M  V30 3594 H 331.697 -2.31616 -4.72929 0
M  V30 3595 H 334.188 -2.01507 -3.19692 0
M  V30 3596 H 334.501 -4.63625 -6.18281 0
M  V30 3597 H 332.846 -4.16395 -5.56454 0
M  V30 3598 H 336.037 -2.56692 -3.91442 0
M  V30 3599 H 336.21 -3.76201 -5.27614 0
M  V30 3600 N 329.616 1.39756 -0.72842 0
M  V30 3601 C 331.027 1.83498 -0.344289 0
M  V30 3602 C 331.378 1.60868 1.12321 0
M  V30 3603 O 330.503 1.09634 1.86573 0
M  V30 3604 C 331.098 3.33114 -0.618112 0
M  V30 3605 C 329.657 3.753 -0.287549 0
M  V30 3606 C 328.804 2.62831 -0.884048 0
M  V30 3607 H 331.755 1.28842 -0.926578 0
M  V30 3608 H 331.776 3.80334 0.112349 0
M  V30 3609 H 331.288 3.49553 -1.68625 0
M  V30 3610 H 329.389 3.64451 0.775012 0
M  V30 3611 H 329.502 4.72945 -0.765512 0
M  V30 3612 H 327.866 2.52792 -0.311149 0
M  V30 3613 H 328.649 2.82078 -1.95671 0
M  V30 3614 N 331.094 0.475555 1.50254 0
M  V30 3615 C 332.057 -0.305016 2.27161 0
M  V30 3616 C 333.057 -0.916519 1.32123 0
M  V30 3617 O 334.247 -0.785003 1.5551 0
M  V30 3618 C 331.379 -1.43496 3.09227 0
M  V30 3619 H 332.572 0.369511 2.97615 0
M  V30 3620 H 330.125 0.229747 1.54602 0
M  V30 3621 H 330.86 -2.14441 2.43281 0
M  V30 3622 H 330.645 -1.00223 3.79075 0
M  V30 3623 H 332.135 -1.98548 3.67381 0
M  V30 3624 N 332.573 -1.56217 0.208337 0
M  V30 3625 C 333.819 -1.98242 -0.427552 0
M  V30 3626 C 334.152 -1.09554 -1.60348 0
M  V30 3627 O 333.427 -0.15035 -1.93918 0
M  V30 3628 C 333.71 -3.4931 -0.874907 0
M  V30 3629 C 333.563 -4.48773 0.303751 0
M  V30 3630 C 334.882 -4.04424 -1.73577 0
M  V30 3631 H 332.001 -0.720744 -0.153936 0
M  V30 3632 H 334.643 -1.87586 0.30192 0
M  V30 3633 H 332.793 -3.58522 -1.49648 0
M  V30 3634 H 334.465 -4.51586 0.941682 0
M  V30 3635 H 332.708 -4.23194 0.953375 0
M  V30 3636 H 333.379 -5.51976 -0.0519883 0
M  V30 3637 H 335.855 -3.98075 -1.21143 0
M  V30 3638 H 334.731 -5.1047 -2.01771 0
M  V30 3639 H 334.992 -3.50494 -2.69456 0
M  V30 3640 N 334.051 0.0651679 -1.57465 0
M  V30 3641 C 334.983 1.10359 -2.00882 0
M  V30 3642 C 335.996 1.346 -0.915788 0
M  V30 3643 O 337.185 1.32723 -1.1936 0
M  V30 3644 C 334.285 2.45312 -2.33828 0
M  V30 3645 C 333.458 2.40934 -3.65061 0
M  V30 3646 C 332.517 3.58047 -3.85602 0
M  V30 3647 O 331.543 3.39175 -4.57109 0
M  V30 3648 N 332.745 4.78637 -3.28462 0
M  V30 3649 H 335.51 0.733807 -2.90578 0
M  V30 3650 H 333.071 0.253719 -1.599 0
M  V30 3651 H 335.063 3.22314 -2.44737 0
M  V30 3652 H 333.633 2.74267 -1.49988 0
M  V30 3653 H 332.853 1.49273 -3.64844 0
M  V30 3654 H 334.141 2.35117 -4.51218 0
M  V30 3655 H 333.539 4.96872 -2.70433 0
M  V30 3656 H 332.096 5.53127 -3.44809 0
M  V30 3657 N 335.529 1.53961 0.336706 0
M  V30 3658 C 336.459 1.85417 1.41925 0
M  V30 3659 C 337.44 0.709856 1.5458 0
M  V30 3660 O 338.625 0.962396 1.68676 0
M  V30 3661 C 335.755 2.06985 2.78881 0
M  V30 3662 C 334.709 3.22813 2.81026 0
M  V30 3663 C 334.035 3.29727 4.20932 0
M  V30 3664 C 335.335 4.60767 2.45949 0
M  V30 3665 H 337.029 2.76079 1.15848 0
M  V30 3666 H 334.575 1.32839 0.555859 0
M  V30 3667 H 336.528 2.27575 3.54665 0
M  V30 3668 H 335.252 1.13061 3.06406 0
M  V30 3669 H 333.911 3.0209 2.07695 0
M  V30 3670 H 333.559 2.33385 4.45579 0
M  V30 3671 H 333.259 4.07566 4.23277 0
M  V30 3672 H 334.783 3.52536 4.98549 0
M  V30 3673 H 336.197 4.81325 3.11446 0
M  V30 3674 H 334.594 5.4106 2.59566 0
M  V30 3675 H 335.664 4.6391 1.41122 0
M  V30 3676 N 337.007 -0.598083 1.45811 0
M  V30 3677 C 337.937 -1.71873 1.58057 0
M  V30 3678 C 338.918 -1.64533 0.431615 0
M  V30 3679 O 340.103 -1.82787 0.65595 0
M  V30 3680 C 337.233 -3.10495 1.55597 0
M  V30 3681 C 336.187 -3.32654 2.69305 0
M  V30 3682 C 335.513 -4.71646 2.51902 0
M  V30 3683 C 336.813 -3.21981 4.11248 0
M  V30 3684 H 338.507 -1.61881 2.51863 0
M  V30 3685 H 336.053 -0.777372 1.21214 0
M  V30 3686 H 338.006 -3.88699 1.6276 0
M  V30 3687 H 336.73 -3.2135 0.583255 0
M  V30 3688 H 335.389 -2.56843 2.61586 0
M  V30 3689 H 335.037 -4.79246 1.52748 0
M  V30 3690 H 334.737 -4.87426 3.2816 0
M  V30 3691 H 336.261 -5.52038 2.60933 0
M  V30 3692 H 337.675 -3.90049 4.20161 0
M  V30 3693 H 336.072 -3.49289 4.87972 0
M  V30 3694 H 337.142 -2.1928 4.32486 0
M  V30 3695 N 338.485 -1.33259 -0.841409 0
M  V30 3696 C 339.733 -1.24326 -1.59334 0
M  V30 3697 C 340.054 0.191564 -1.94057 0
M  V30 3698 O 339.324 1.11967 -1.60749 0
M  V30 3699 H 337.904 -0.457174 -0.590763 0
M  V30 3700 H 340.566 -1.66947 -1.00571 0
M  V30 3701 H 339.662 -1.8352 -2.52442 0
M  V30 3702 N 339.963 1.05934 -1.16686 0
M  V30 3703 C 341.24 1.75643 -0.860747 0
M  V30 3704 C 341.62 2.01144 0.640641 0
M  V30 3705 O 340.968 1.64147 1.58959 0
M  V30 3706 C 341.178 3.05493 -1.68745 0
M  V30 3707 C 342.526 3.79581 -1.90271 0
M  V30 3708 O 343.55 3.15344 -1.65641 0
M  V30 3709 O 342.409 4.9499 -2.31618 0
M  V30 3710 H 339.503 0.763426 -0.317977 0
M  V30 3711 H 342.049 1.1217 -1.27342 0
M  V30 3712 H 340.821 2.8264 -2.70611 0
M  V30 3713 H 340.444 3.76702 -1.27206 0
M  V30 3714 N 341.441 0.965919 1.2453 0
M  V30 3715 C 342.687 0.62776 1.92839 0
M  V30 3716 C 343.02 -0.834694 1.75347 0
M  V30 3717 O 342.295 -1.60031 1.10546 0
M  V30 3718 C 342.578 1.00109 3.45905 0
M  V30 3719 C 342.431 2.52011 3.72573 0
M  V30 3720 C 343.75 0.53435 4.36844 0
M  V30 3721 H 340.869 0.229537 0.700344 0
M  V30 3722 H 343.511 1.2046 1.46933 0
M  V30 3723 H 341.661 0.510238 3.85135 0
M  V30 3724 H 343.333 3.08559 3.42912 0
M  V30 3725 H 341.576 2.95287 3.17786 0
M  V30 3726 H 342.247 2.73183 4.79661 0
M  V30 3727 H 344.723 0.955565 4.04979 0
M  V30 3728 H 343.599 0.824152 5.42678 0
M  V30 3729 H 343.86 -0.565589 4.38467 0
M  V30 3730 N 342.919 -1.39368 0.735821 0
M  V30 3731 C 343.852 -2.28155 0.0451175 0
M  V30 3732 C 344.83 -1.44433 -0.746852 0
M  V30 3733 O 346.014 -1.73823 -0.729237 0
M  V30 3734 C 343.141 -3.253 -0.943266 0
M  V30 3735 C 342.187 -4.25826 -0.239685 0
M  V30 3736 S 343.02 -5.25166 1.04693 0
M  V30 3737 C 344.176 -6.2587 0.0611639 0
M  V30 3738 H 344.409 -2.86388 0.79807 0
M  V30 3739 H 341.942 -1.45104 0.527653 0
M  V30 3740 H 343.9 -3.81789 -1.50824 0
M  V30 3741 H 342.561 -2.66085 -1.66906 0
M  V30 3742 H 341.754 -4.94229 -0.987596 0
M  V30 3743 H 341.356 -3.73141 0.253274 0
M  V30 3744 H 343.648 -6.73007 -0.778941 0
M  V30 3745 H 344.591 -7.04508 0.712362 0
M  V30 3746 H 344.999 -5.63639 -0.311602 0
M  V30 3747 N 344.397 -0.483516 -1.5 0
M  V30 3748 C 345.622 0.0667119 -2.07293 0
M  V30 3749 C 346.047 1.3164 -1.3436 0
M  V30 3750 O 345.405 1.76945 -0.394987 0
M  V30 3751 C 345.453 0.321126 -3.59167 0
M  V30 3752 O 344.557 1.39927 -3.87936 0
M  V30 3753 H 343.898 -0.0184758 -0.663743 0
M  V30 3754 H 346.428 -0.678125 -1.93035 0
M  V30 3755 H 346.438 0.557906 -4.04168 0
M  V30 3756 H 345.113 -0.592007 -4.11665 0
M  V30 3757 H 343.69 1.14882 -3.54763 0
M  V30 3758 N 345.875 1.56104 -0.216619 0
M  V30 3759 C 346.785 2.23694 0.706982 0
M  V30 3760 C 347.801 1.24295 1.21765 0
M  V30 3761 O 348.977 1.57094 1.2603 0
M  V30 3762 C 346.042 2.8998 1.90033 0
M  V30 3763 C 345.103 4.04708 1.43213 0
M  V30 3764 C 344.336 4.67824 2.56859 0
M  V30 3765 O 344.559 4.29913 3.74874 0
M  V30 3766 O 343.493 5.56905 2.28343 0
M  V30 3767 H 347.319 3.03272 0.161235 0
M  V30 3768 H 344.904 1.49394 0.0136177 0
M  V30 3769 H 346.786 3.31837 2.59735 0
M  V30 3770 H 345.461 2.13365 2.43428 0
M  V30 3771 H 344.368 3.6743 0.70327 0
M  V30 3772 H 345.701 4.83051 0.944615 0
M  V30 3773 N 347.353 -0.0568162 1.57498 0
M  V30 3774 C 348.63 -0.786954 1.79071 0
M  V30 3775 C 349.01 -1.95028 0.80792 0
M  V30 3776 O 348.358 -2.27968 -0.155858 0
M  V30 3777 C 348.568 -1.24594 3.26002 0
M  V30 3778 C 349.916 -1.67323 3.90241 0
M  V30 3779 O 350.94 -1.34124 3.29984 0
M  V30 3780 O 349.799 -2.28842 4.9628 0
M  V30 3781 H 346.893 -0.378262 0.735423 0
M  V30 3782 H 349.439 -0.035734 1.69662 0
M  V30 3783 H 348.211 -0.41423 3.89101 0
M  V30 3784 H 347.834 -2.05803 3.40192 0
M  V30 3785 N 348.832 -1.54138 -0.328536 0
M  V30 3786 C 350.08 -1.71765 -1.06496 0
M  V30 3787 C 350.401 -0.49149 -1.88704 0
M  V30 3788 O 349.671 0.494539 -1.89555 0
M  V30 3789 H 348.251 -0.633295 -0.396164 0
M  V30 3790 H 350.913 -1.91429 -0.366176 0
M  V30 3791 H 350.009 -2.5951 -1.73381 0
M  V30 3792 N 350.31 0.590341 -1.46126 0
M  V30 3793 C 351.557 1.34882 -1.5104 0
M  V30 3794 C 351.885 1.93849 -0.159021 0
M  V30 3795 O 351.14 1.76544 0.844436 0
M  V30 3796 C 351.439 2.5032 -2.55097 0
M  V30 3797 C 351.105 2.09394 -3.99331 0
M  V30 3798 C 349.767 1.97947 -4.38601 0
M  V30 3799 C 352.119 1.77712 -4.89967 0
M  V30 3800 C 349.447 1.53065 -5.66381 0
M  V30 3801 C 351.799 1.34312 -6.18177 0
M  V30 3802 C 350.463 1.21436 -6.56361 0
M  V30 3803 H 349.733 0.493568 -0.552695 0
M  V30 3804 H 352.38 0.665539 -1.79563 0
M  V30 3805 H 350.685 3.24062 -2.20207 0
M  V30 3806 H 352.382 3.08541 -2.56132 0
M  V30 3807 H 348.972 2.19235 -3.68285 0
M  V30 3808 H 353.156 1.85445 -4.60352 0
M  V30 3809 H 348.412 1.41733 -5.94745 0
M  V30 3810 H 352.586 1.08849 -6.87841 0
M  V30 3811 H 350.213 0.864345 -7.5527 0
M  V30 3812 N 351.788 1.33704 0.83433 0
M  V30 3813 C 353.035 1.25417 1.58987 0
M  V30 3814 C 353.363 -0.178869 1.93676 0
M  V30 3815 O 352.618 -1.13723 1.59265 0
M  V30 3816 C 352.917 2.07926 2.90692 0
M  V30 3817 C 352.583 3.57066 2.75345 0
M  V30 3818 C 351.245 3.97724 2.70867 0
M  V30 3819 C 353.597 4.51817 2.59828 0
M  V30 3820 C 350.925 5.31344 2.48778 0
M  V30 3821 C 353.277 5.85604 2.39272 0
M  V30 3822 C 351.941 6.25439 2.33199 0
M  V30 3823 H 351.211 0.458934 0.581774 0
M  V30 3824 H 353.858 1.65335 0.966261 0
M  V30 3825 H 352.163 1.608 3.57282 0
M  V30 3826 H 353.86 1.98868 3.48213 0
M  V30 3827 H 350.45 3.24785 2.79665 0
M  V30 3828 H 354.634 4.21311 2.62319 0
M  V30 3829 H 349.89 5.61241 2.42526 0
M  V30 3830 H 354.064 6.58623 2.2625 0
M  V30 3831 H 351.691 7.28914 2.15843 0
M  V30 3832 N 353.266 -1.05314 1.17247 0
M  V30 3833 C 354.496 -1.81707 0.983166 0
M  V30 3834 C 354.904 -1.83222 -0.471822 0
M  V30 3835 O 354.247 -1.25721 -1.3394 0
M  V30 3836 C 354.309 -3.29134 1.44606 0
M  V30 3837 C 353.973 -3.51304 2.92292 0
M  V30 3838 C 354.97 -3.4353 3.90235 0
M  V30 3839 C 352.655 -3.78306 3.30439 0
M  V30 3840 C 354.649 -3.62442 5.24323 0
M  V30 3841 C 352.336 -3.96866 4.64694 0
M  V30 3842 C 353.334 -3.88933 5.61445 0
M  V30 3843 O 353.022 -4.06976 6.93272 0
M  V30 3844 H 352.754 -0.579476 0.348114 0
M  V30 3845 H 355.308 -1.33705 1.55924 0
M  V30 3846 H 353.538 -3.78046 0.813537 0
M  V30 3847 H 355.227 -3.87049 1.22262 0
M  V30 3848 H 355.993 -3.22648 3.62109 0
M  V30 3849 H 351.872 -3.83585 2.55702 0
M  V30 3850 H 355.416 -3.56165 5.99827 0
M  V30 3851 H 351.313 -4.1724 4.92525 0
M  V30 3852 H 352.081 -4.24209 6.99992 0
M  V30 3853 N 354.744 -0.972509 -1.24016 0
M  V30 3854 C 355.674 -0.525548 -2.27509 0
M  V30 3855 C 356.655 0.437262 -1.64384 0
M  V30 3856 O 357.84 0.332343 -1.91335 0
M  V30 3857 C 354.97 0.180448 -3.46831 0
M  V30 3858 C 353.924 -0.698859 -4.22256 0
M  V30 3859 C 353.25 0.138903 -5.3452 0
M  V30 3860 C 354.55 -1.98582 -4.83076 0
M  V30 3861 H 356.244 -1.39058 -2.65148 0
M  V30 3862 H 353.79 -0.67009 -1.27459 0
M  V30 3863 H 355.743 0.504387 -4.18371 0
M  V30 3864 H 354.467 1.07987 -3.08231 0
M  V30 3865 H 353.126 -1.00614 -3.52523 0
M  V30 3866 H 352.774 1.03862 -4.9216 0
M  V30 3867 H 352.474 -0.446259 -5.85903 0
M  V30 3868 H 353.998 0.457404 -6.08884 0
M  V30 3869 H 355.412 -1.72715 -5.46665 0
M  V30 3870 H 353.809 -2.5181 -5.44713 0
M  V30 3871 H 354.879 -2.67769 -4.04262 0
M  V30 3872 N 356.222 1.38976 -0.743202 0
M  V30 3873 C 357.447 2.05161 -0.303936 0
M  V30 3874 C 357.872 1.55677 1.05576 0
M  V30 3875 O 357.23 0.704131 1.67068 0
M  V30 3876 C 357.278 3.59138 -0.324373 0
M  V30 3877 O 356.382 4.06668 0.685204 0
M  V30 3878 H 355.723 0.649815 -0.136518 0
M  V30 3879 H 358.253 1.77852 -1.01142 0
M  V30 3880 H 358.263 4.07639 -0.171618 0
M  V30 3881 H 356.938 3.94515 -1.31647 0
M  V30 3882 H 355.515 3.69561 0.497913 0
M  V30 3883 N 357.7 0.491464 1.49741 0
M  V30 3884 C 358.947 -0.0564256 2.02421 0
M  V30 3885 C 359.275 -1.37872 1.37192 0
M  V30 3886 O 358.53 -1.89375 0.493508 0
M  V30 3887 C 358.829 -0.267329 3.56399 0
M  V30 3888 C 358.495 0.975775 4.40215 0
M  V30 3889 C 357.157 1.31655 4.62839 0
M  V30 3890 C 359.509 1.80251 4.89039 0
M  V30 3891 C 356.837 2.48375 5.31532 0
M  V30 3892 C 359.189 2.96116 5.59015 0
M  V30 3893 C 357.853 3.30585 5.79888 0
M  V30 3894 H 357.123 -0.0206476 0.740712 0
M  V30 3895 H 359.77 0.649686 1.80143 0
M  V30 3896 H 358.075 -1.05588 3.77304 0
M  V30 3897 H 359.772 -0.705549 3.94744 0
M  V30 3898 H 356.362 0.700315 4.2284 0
M  V30 3899 H 360.546 1.55239 4.71396 0
M  V30 3900 H 355.802 2.7533 5.45897 0
M  V30 3901 H 359.976 3.60509 5.95824 0
M  V30 3902 H 357.603 4.21132 6.32892 0
M  V30 3903 N 359.178 -1.55987 0.224894 0
M  V30 3904 C 360.141 -2.19178 -0.670348 0
M  V30 3905 C 361.141 -1.15461 -1.11917 0
M  V30 3906 O 362.331 -1.40675 -1.02743 0
M  V30 3907 C 359.463 -2.81777 -1.9187 0
M  V30 3908 H 360.656 -2.99662 -0.119364 0
M  V30 3909 H 358.209 -1.5628 -0.0247128 0
M  V30 3910 H 358.944 -2.05172 -2.51147 0
M  V30 3911 H 358.729 -3.57732 -1.60531 0
M  V30 3912 H 360.219 -3.30205 -2.55645 0
M  V30 3913 N 360.656 0.0484629 -1.57525 0
M  V30 3914 C 361.566 1.07241 -2.08654 0
M  V30 3915 C 362.582 1.409 -1.02095 0
M  V30 3916 O 363.758 1.50609 -1.33712 0
M  V30 3917 C 360.823 2.36008 -2.5397 0
M  V30 3918 C 359.884 2.09108 -3.7493 0
M  V30 3919 C 359.117 3.31736 -4.18075 0
M  V30 3920 O 359.34 4.41714 -3.60895 0
M  V30 3921 O 358.274 3.18576 -5.10679 0
M  V30 3922 H 362.1 0.667965 -2.96263 0
M  V30 3923 H 359.685 0.26417 -1.47046 0
M  V30 3924 H 361.567 3.11747 -2.83535 0
M  V30 3925 H 360.242 2.75786 -1.69481 0
M  V30 3926 H 359.149 1.31 -3.50414 0
M  V30 3927 H 360.482 1.74198 -4.60343 0
M  V30 3928 N 362.134 1.5431 0.320358 0
M  V30 3929 C 363.097 1.83195 1.3774 0
M  V30 3930 C 364.097 0.703906 1.44575 0
M  V30 3931 O 365.287 0.972214 1.44546 0
M  V30 3932 C 362.419 1.99487 2.76438 0
M  V30 3933 H 363.612 2.77642 1.1338 0
M  V30 3934 H 361.165 1.46076 0.556012 0
M  V30 3935 H 361.9 1.07262 3.06048 0
M  V30 3936 H 361.685 2.81575 2.7287 0
M  V30 3937 H 363.175 2.23271 3.52902 0
M  V30 3938 N 363.613 -0.582584 1.46437 0
M  V30 3939 C 364.543 -1.70187 1.59871 0
M  V30 3940 C 365.524 -1.64066 0.449042 0
M  V30 3941 O 366.709 -1.82081 0.6753 0
M  V30 3942 C 363.839 -3.08827 1.58881 0
M  V30 3943 C 362.793 -3.29779 2.72819 0
M  V30 3944 C 362.119 -4.68947 2.5689 0
M  V30 3945 C 363.419 -3.17601 4.1464 0
M  V30 3946 H 365.113 -1.592 2.53566 0
M  V30 3947 H 362.659 -0.764472 1.22032 0
M  V30 3948 H 364.612 -3.86951 1.66873 0
M  V30 3949 H 363.336 -3.20713 0.617306 0
M  V30 3950 H 361.995 -2.54054 2.64296 0
M  V30 3951 H 361.643 -4.77599 1.57823 0
M  V30 3952 H 361.343 -4.83919 3.33312 0
M  V30 3953 H 362.867 -5.4924 2.66773 0
M  V30 3954 H 364.281 -3.8557 4.24274 0
M  V30 3955 H 362.678 -3.44094 4.9165 0
M  V30 3956 H 363.748 -2.14681 4.34788 0
M  V30 3957 N 365.091 -1.34144 -0.827227 0
M  V30 3958 C 366.507 -1.13732 -1.11969 0
M  V30 3959 C 366.707 0.0640463 -2.01398 0
M  V30 3960 O 365.763 0.740856 -2.41387 0
M  V30 3961 C 367.076 -2.43047 -1.77055 0
M  V30 3962 C 368.624 -2.49063 -1.89569 0
M  V30 3963 C 369.099 -3.78369 -2.58072 0
M  V30 3964 N 370.59 -3.79505 -2.65575 0
M  V30 3965 C 371.325 -4.76274 -3.19297 0
M  V30 3966 N 370.821 -5.83424 -3.73616 0
M  V30 3967 N 372.614 -4.63735 -3.17658 0
M  V30 3968 H 364.765 -2.11126 -0.232296 0
M  V30 3969 H 367.028 -0.933424 -0.165602 0
M  V30 3970 H 366.734 -3.31025 -1.18807 0
M  V30 3971 H 366.608 -2.56066 -2.76966 0
M  V30 3972 H 368.995 -1.61527 -2.46968 0
M  V30 3973 H 369.076 -2.39975 -0.885745 0
M  V30 3974 H 368.72 -4.66293 -2.01329 0
M  V30 3975 H 368.65 -3.84737 -3.59562 0
M  V30 3976 H 371.141 -3.02074 -2.27068 0
M  V30 3977 H 371.454 -6.53282 -4.12846 0
M  V30 3978 H 369.799 -5.87143 -3.71871 0
M  V30 3979 H 372.99 -3.79177 -2.74486 0
M  V30 3980 H 373.163 -5.39318 -3.59221 0
M  V30 3981 N 366.569 1.04691 -1.17803 0
M  V30 3982 C 367.532 2.10724 -0.901545 0
M  V30 3983 C 368.532 1.6042 0.110437 0
M  V30 3984 O 369.722 1.7377 -0.122303 0
M  V30 3985 C 366.854 3.39084 -0.351409 0
M  V30 3986 H 368.047 2.36686 -1.84174 0
M  V30 3987 H 365.6 1.21015 -0.98919 0
M  V30 3988 H 366.335 3.18782 0.59569 0
M  V30 3989 H 366.12 3.76909 -1.08083 0
M  V30 3990 H 367.61 4.17227 -0.176451 0
M  V30 3991 N 368.047 0.979072 1.23499 0
M  V30 3992 C 368.997 0.489378 2.22686 0
M  V30 3993 C 369.981 -0.434871 1.54912 0
M  V30 3994 O 371.173 -0.263941 1.75021 0
M  V30 3995 C 368.302 -0.208178 3.42668 0
M  V30 3996 C 367.388 0.735563 4.17672 0
M  V30 3997 N 367.779 1.87763 4.69658 0
M  V30 3998 C 366.077 0.548625 4.42613 0
M  V30 3999 C 366.778 2.46886 5.26709 0
M  V30 4000 N 365.754 1.75287 5.14563 0
M  V30 4001 H 369.556 1.36062 2.60508 0
M  V30 4002 H 367.07 0.83958 1.39014 0
M  V30 4003 H 369.067 -0.576295 4.12898 0
M  V30 4004 H 367.727 -1.07572 3.06363 0
M  V30 4005 H 368.738 2.25885 4.66043 0
M  V30 4006 H 365.415 -0.274006 4.166 0
M  V30 4007 H 366.805 3.43326 5.77561 0
M  V30 4008 N 369.525 -1.3858 0.750561 0
M  V30 4009 C 370.75 -2.04997 0.314812 0
M  V30 4010 C 371.175 -1.56235 -1.04749 0
M  V30 4011 O 370.533 -0.712981 -1.66692 0
M  V30 4012 C 370.581 -3.58961 0.343415 0
M  V30 4013 O 369.685 -4.07025 -0.663628 0
M  V30 4014 H 369.026 -0.649081 0.139962 0
M  V30 4015 H 371.556 -1.77313 1.02084 0
M  V30 4016 H 371.566 -4.07542 0.193233 0
M  V30 4017 H 370.241 -3.93811 1.33738 0
M  V30 4018 H 368.818 -3.6982 -0.478307 0
M  V30 4019 N 371.003 -0.499398 -1.49478 0
M  V30 4020 C 372.243 0.0440751 -2.04352 0
M  V30 4021 C 372.607 1.34423 -1.37093 0
M  V30 4022 O 373.808 1.97184 -1.82679 0
M  V30 4023 C 372.079 0.194918 -3.56868 0
M  V30 4024 S 373.638 0.69287 -4.33295 0
M  V30 4025 H 370.456 0.00253458 -0.710995 0
M  V30 4026 H 373.058 -0.673 -1.83551 0
M  V30 4027 H 371.762 -0.756672 -4.03364 0
M  V30 4028 H 371.293 0.93728 -3.82071 0
M  V30 4029 H 373.308 1.96226 -4.55752 0
M  V30 4030 N 372.481 1.55866 -0.233164 0
M  V30 4031 C 373.411 2.23783 0.666599 0
M  V30 4032 C 374.392 1.21343 1.19205 0
M  V30 4033 O 375.577 1.4996 1.23392 0
M  V30 4034 C 372.707 2.92671 1.86978 0
M  V30 4035 C 371.661 4.01682 1.47768 0
M  V30 4036 C 370.987 4.57926 2.76058 0
M  V30 4037 C 372.287 5.18126 0.658993 0
M  V30 4038 H 373.981 2.99232 0.100306 0
M  V30 4039 H 371.527 1.43924 0.046804 0
M  V30 4040 H 373.48 3.3888 2.50476 0
M  V30 4041 H 372.204 2.14688 2.46123 0
M  V30 4042 H 370.863 3.56222 0.866106 0
M  V30 4043 H 370.511 3.76659 3.33372 0
M  V30 4044 H 370.211 5.31505 2.50552 0
M  V30 4045 H 371.735 5.06859 3.40479 0
M  V30 4046 H 373.149 5.60644 1.19795 0
M  V30 4047 H 371.546 5.98009 0.500552 0
M  V30 4048 H 372.616 4.83763 -0.331856 0
M  V30 4049 N 373.959 -0.0401083 1.57549 0
M  V30 4050 C 375.184 -0.748931 1.93406 0
M  V30 4051 C 375.609 -1.68686 0.832274 0
M  V30 4052 O 374.967 -1.80047 -0.212818 0
M  V30 4053 C 375.015 -1.4916 3.28304 0
M  V30 4054 O 374.119 -2.6042 3.19774 0
M  V30 4055 H 373.46 -0.202212 0.63246 0
M  V30 4056 H 375.99 0.00112086 2.046 0
M  V30 4057 H 376 -1.86395 3.62934 0
M  V30 4058 H 374.675 -0.80364 4.08062 0
M  V30 4059 H 373.252 -2.25808 2.96758 0
M  V30 4060 N 375.437 -1.54477 -0.31217 0
M  V30 4061 C 376.714 -1.63891 -1.06767 0
M  V30 4062 C 377.094 -0.480028 -2.0557 0
M  V30 4063 O 376.442 0.524487 -2.22399 0
M  V30 4064 C 376.652 -3.01402 -1.75948 0
M  V30 4065 C 378 -3.57838 -2.28554 0
M  V30 4066 O 379.024 -3.03782 -1.85998 0
M  V30 4067 O 377.883 -4.52462 -3.06497 0
M  V30 4068 H 374.977 -0.664125 -0.492816 0
M  V30 4069 H 377.523 -1.66823 -0.311149 0
M  V30 4070 H 376.295 -3.77187 -1.04144 0
M  V30 4071 H 375.918 -3.02199 -2.58383 0
M  V30 4072 N 376.915 0.57481 -1.46744 0
M  V30 4073 C 378.331 0.898981 -1.31873 0
M  V30 4074 C 378.531 1.99313 -0.29605 0
M  V30 4075 O 377.587 2.50728 0.298621 0
M  V30 4076 C 378.9 1.30886 -2.7072 0
M  V30 4077 C 380.448 1.42127 -2.78871 0
M  V30 4078 C 380.923 1.86478 -4.18318 0
M  V30 4079 N 382.414 1.93658 -4.20774 0
M  V30 4080 C 383.149 2.29267 -5.2557 0
M  V30 4081 N 382.645 2.63612 -6.40688 0
M  V30 4082 N 384.438 2.29889 -5.1294 0
M  V30 4083 H 376.589 -0.147839 -2.11885 0
M  V30 4084 H 378.852 -0.00347013 -0.947994 0
M  V30 4085 H 378.558 0.578853 -3.46904 0
M  V30 4086 H 378.432 2.26874 -3.01343 0
M  V30 4087 H 380.819 2.14213 -2.0297 0
M  V30 4088 H 380.9 0.443705 -2.51922 0
M  V30 4089 H 380.544 1.14968 -4.94717 0
M  V30 4090 H 380.474 2.85207 -4.42679 0
M  V30 4091 H 382.965 1.69574 -3.37718 0
M  V30 4092 H 383.278 2.89759 -7.16421 0
M  V30 4093 H 381.623 2.61232 -6.44036 0
M  V30 4094 H 384.814 2.02485 -4.22039 0
M  V30 4095 H 384.987 2.57312 -5.94722 0
M  V30 4096 N 378.394 1.34581 0.820102 0
M  V30 4097 C 379.324 1.29038 1.94606 0
M  V30 4098 C 380.305 0.1673 1.69275 0
M  V30 4099 O 381.49 0.360112 1.90832 0
M  V30 4100 C 378.62 1.04793 3.31113 0
M  V30 4101 C 377.574 2.13597 3.70891 0
M  V30 4102 C 376.9 1.74537 5.05412 0
M  V30 4103 C 378.2 3.55451 3.8269 0
M  V30 4104 H 379.894 2.23248 1.99501 0
M  V30 4105 H 377.44 1.0747 0.958449 0
M  V30 4106 H 379.393 0.995592 4.0947 0
M  V30 4107 H 378.117 0.0702565 3.26524 0
M  V30 4108 H 376.776 2.17905 2.9481 0
M  V30 4109 H 376.424 0.754226 4.97313 0
M  V30 4110 H 376.124 2.47361 5.32997 0
M  V30 4111 H 377.648 1.70803 5.86224 0
M  V30 4112 H 379.062 3.5354 4.51312 0
M  V30 4113 H 377.459 4.26922 4.21732 0
M  V30 4114 H 378.529 3.92587 2.84611 0
M  V30 4115 N 379.872 -1.04064 1.18357 0
M  V30 4116 C 380.804 -2.12114 0.868358 0
M  V30 4117 C 381.817 -1.62247 -0.134045 0
M  V30 4118 O 383.006 -1.78253 0.0937933 0
M  V30 4119 C 380.106 -3.37773 0.276132 0
M  V30 4120 C 379.279 -4.16874 1.3242 0
M  V30 4121 C 378.338 -5.20861 0.747662 0
M  V30 4122 O 377.364 -5.51141 1.42239 0
M  V30 4123 N 378.566 -5.78715 -0.454823 0
M  V30 4124 H 381.331 -2.39748 1.79836 0
M  V30 4125 H 378.892 -1.20258 1.08396 0
M  V30 4126 H 380.884 -4.04513 -0.123133 0
M  V30 4127 H 379.454 -3.07581 -0.557895 0
M  V30 4128 H 378.674 -3.45456 1.89878 0
M  V30 4129 H 379.962 -4.66516 2.03078 0
M  V30 4130 H 379.36 -5.56415 -1.02073 0
M  V30 4131 H 377.917 -6.46921 -0.79601 0
M  V30 4132 N 381.35 -0.985608 -1.22978 0
M  V30 4133 C 382.58 -0.674603 -1.95276 0
M  V30 4134 C 382.988 0.763483 -1.73111 0
M  V30 4135 O 382.331 1.52601 -1.02268 0
M  V30 4136 C 382.393 -0.891597 -3.48268 0
M  V30 4137 C 382.057 -2.31275 -3.94158 0
M  V30 4138 C 383.054 -3.29179 -4.02415 0
M  V30 4139 C 380.739 -2.64524 -4.27004 0
M  V30 4140 C 382.733 -4.58407 -4.42879 0
M  V30 4141 C 380.42 -3.93974 -4.67149 0
M  V30 4142 C 381.418 -4.90727 -4.75053 0
M  V30 4143 O 381.106 -6.17865 -5.14294 0
M  V30 4144 H 380.838 -0.249251 -0.628371 0
M  V30 4145 H 383.392 -1.32106 -1.5728 0
M  V30 4146 H 381.622 -0.187962 -3.86243 0
M  V30 4147 H 383.311 -0.576957 -4.01779 0
M  V30 4148 H 384.077 -3.04823 -3.77237 0
M  V30 4149 H 379.956 -1.89923 -4.2006 0
M  V30 4150 H 383.5 -5.33926 -4.48964 0
M  V30 4151 H 379.397 -4.18122 -4.91777 0
M  V30 4152 H 380.165 -6.21694 -5.32389 0
M  V30 4153 N 382.828 1.3818 -0.7579 0
M  V30 4154 C 384.053 2.04827 -0.325679 0
M  V30 4155 C 384.478 1.56788 1.03919 0
M  V30 4156 O 383.836 0.721811 1.66312 0
M  V30 4157 C 383.884 3.58774 -0.362447 0
M  V30 4158 O 382.988 4.07372 0.642033 0
M  V30 4159 H 382.329 0.64833 -0.143402 0
M  V30 4160 H 384.859 1.7677 -1.03023 0
M  V30 4161 H 384.869 4.07434 -0.214844 0
M  V30 4162 H 383.544 3.93096 -1.35824 0
M  V30 4163 H 382.121 3.70068 0.458688 0
M  V30 4164 N 384.306 0.507319 1.49211 0
M  V30 4165 C 385.722 0.163682 1.58758 0
M  V30 4166 C 385.922 -1.33208 1.51188 0
M  V30 4167 O 384.978 -2.10855 1.38911 0
M  V30 4168 C 386.291 0.746095 2.91297 0
M  V30 4169 C 387.839 0.712773 3.04776 0
M  V30 4170 C 388.314 1.27336 4.39943 0
M  V30 4171 N 389.805 1.23433 4.46451 0
M  V30 4172 C 390.54 1.63821 5.495 0
M  V30 4173 N 390.036 2.11832 6.5962 0
M  V30 4174 N 391.829 1.55198 5.4025 0
M  V30 4175 H 383.98 1.47972 1.52375 0
M  V30 4176 H 386.243 0.614147 0.722168 0
M  V30 4177 H 385.949 1.79534 3.02424 0
M  V30 4178 H 385.823 0.210137 3.76614 0
M  V30 4179 H 388.21 -0.327656 2.93275 0
M  V30 4180 H 388.291 1.28595 2.21127 0
M  V30 4181 H 387.935 2.3126 4.52196 0
M  V30 4182 H 387.865 0.676066 5.22242 0
M  V30 4183 H 390.356 0.882627 3.67448 0
M  V30 4184 H 390.669 2.40703 7.34358 0
M  V30 4185 H 389.014 2.1581 6.60644 0
M  V30 4186 H 392.205 1.17505 4.53112 0
M  V30 4187 H 392.378 1.86997 6.20432 0
M  V30 4188 N 385.784 -1.5574 0.241426 0
M  V30 4189 C 387.033 -1.97986 -0.385295 0
M  V30 4190 C 387.346 -1.13267 -1.59468 0
M  V30 4191 O 388.552 -1.45501 -2.2922 0
M  V30 4192 C 387.008 -3.52275 -0.736884 0
M  V30 4193 C 386.616 -4.45726 0.450796 0
M  V30 4194 C 388.36 -4.03189 -1.3281 0
M  V30 4195 C 386.267 -5.91352 0.0756662 0
M  V30 4196 H 385.197 -0.739386 -0.147731 0
M  V30 4197 H 387.848 -1.80308 0.340779 0
M  V30 4198 H 386.23 -3.65628 -1.52094 0
M  V30 4199 H 387.404 -4.44131 1.22819 0
M  V30 4200 H 385.719 -4.05264 0.956573 0
M  V30 4201 H 388.316 -5.09505 -1.62201 0
M  V30 4202 H 388.659 -3.50212 -2.25071 0
M  V30 4203 H 389.192 -3.93141 -0.607069 0
M  V30 4204 H 385.931 -6.48354 0.965272 0
M  V30 4205 H 385.451 -5.96095 -0.665635 0
M  V30 4206 H 387.13 -6.46084 -0.344075 0
M  V30 4207 N 387.262 0.0317525 -1.57568 0
M  V30 4208 C 388.508 0.724175 -1.8943 0
M  V30 4209 C 388.841 1.75149 -0.838836 0
M  V30 4210 O 388.116 1.93948 0.146422 0
M  V30 4211 C 388.399 1.39615 -3.31933 0
M  V30 4212 C 388.252 0.382537 -4.4817 0
M  V30 4213 C 389.571 2.33084 -3.73309 0
M  V30 4214 H 386.69 0.261797 -0.688935 0
M  V30 4215 H 389.332 -0.013017 -1.89996 0
M  V30 4216 H 387.482 2.02451 -3.31581 0
M  V30 4217 H 389.154 -0.243689 -4.60656 0
M  V30 4218 H 387.397 -0.29844 -4.32772 0
M  V30 4219 H 388.068 0.891145 -5.44759 0
M  V30 4220 H 390.544 1.80295 -3.7501 0
M  V30 4221 H 389.42 2.77084 -4.73831 0
M  V30 4222 H 389.681 3.19643 -3.05419 0
M  V30 4223 N 388.74 1.54641 0.303973 0
M  V30 4224 C 389.988 1.73437 1.0375 0
M  V30 4225 C 390.309 0.521449 1.87899 0
M  V30 4226 O 389.579 -0.46432 1.90318 0
M  V30 4227 H 388.159 0.639518 0.386039 0
M  V30 4228 H 390.821 1.91988 0.335675 0
M  V30 4229 H 389.917 2.62235 1.69231 0
M  V30 4230 N 390.218 -0.567019 1.47046 0
M  V30 4231 C 391.466 -1.322 1.52864 0
M  V30 4232 C 391.787 -1.94088 0.188388 0
M  V30 4233 O 391.057 -1.7941 -0.786693 0
M  V30 4234 H 389.637 -0.490894 0.563056 0
M  V30 4235 H 392.299 -0.662879 1.83281 0
M  V30 4236 H 391.395 -2.12062 2.2899 0
M  V30 4237 N 391.696 -1.35014 -0.812953 0
M  V30 4238 C 392.942 -1.29129 -1.57154 0
M  V30 4239 C 393.297 0.134922 -1.91926 0
M  V30 4240 O 392.59 1.08373 -1.58006 0
M  V30 4241 C 392.784 -2.12524 -2.87347 0
M  V30 4242 C 392.613 -3.6311 -2.65294 0
M  V30 4243 C 391.383 -4.32363 -2.61516 0
M  V30 4244 C 393.581 -4.56897 -2.36114 0
M  V30 4245 N 391.563 -5.68735 -2.31113 0
M  V30 4246 C 392.934 -5.81345 -2.15494 0
M  V30 4247 C 394.989 -4.45706 -2.21925 0
M  V30 4248 C 393.692 -6.95862 -1.82122 0
M  V30 4249 C 395.718 -5.60066 -1.89948 0
M  V30 4250 C 395.08 -6.83539 -1.7016 0
M  V30 4251 H 391.179 -0.527764 -0.577052 0
M  V30 4252 H 393.763 -1.6983 -0.952146 0
M  V30 4253 H 391.934 -1.74104 -3.47192 0
M  V30 4254 H 393.666 -1.98207 -3.5284 0
M  V30 4255 H 390.421 -3.84907 -2.75941 0
M  V30 4256 H 390.845 -6.40694 -2.18724 0
M  V30 4257 H 395.487 -3.50855 -2.35925 0
M  V30 4258 H 393.205 -7.90685 -1.6686 0
M  V30 4259 H 396.791 -5.53357 -1.79687 0
M  V30 4260 H 395.671 -7.70531 -1.45777 0
M  V30 4261 N 393.175 1.03435 -1.18907 0
M  V30 4262 C 394.452 1.73778 -0.89781 0
M  V30 4263 C 394.832 2.02458 0.597832 0
M  V30 4264 O 394.18 1.67482 1.55441 0
M  V30 4265 C 394.39 3.01845 -1.75187 0
M  V30 4266 C 395.738 3.7546 -1.9828 0
M  V30 4267 O 396.762 3.11759 -1.72293 0
M  V30 4268 O 395.621 4.89966 -2.42065 0
M  V30 4269 H 392.715 0.75651 -0.334098 0
M  V30 4270 H 395.261 1.09444 -1.29693 0
M  V30 4271 H 394.033 2.76836 -2.76545 0
M  V30 4272 H 393.656 3.73919 -1.35167 0
M  V30 4273 N 394.653 0.992116 1.22453 0
M  V30 4274 C 395.583 0.561677 2.26644 0
M  V30 4275 C 396.564 -0.411055 1.65059 0
M  V30 4276 O 397.749 -0.301861 1.9184 0
M  V30 4277 C 394.879 -0.125247 3.47074 0
M  V30 4278 C 393.833 0.765948 4.21091 0
M  V30 4279 C 393.159 -0.0538484 5.34673 0
M  V30 4280 C 394.459 2.06242 4.79856 0
M  V30 4281 H 396.153 1.43259 2.62902 0
M  V30 4282 H 393.699 0.690283 1.26377 0
M  V30 4283 H 395.652 -0.437764 4.1912 0
M  V30 4284 H 394.376 -1.03069 3.0991 0
M  V30 4285 H 393.035 1.0621 3.50878 0
M  V30 4286 H 392.683 -0.960188 4.9375 0
M  V30 4287 H 392.383 0.539415 5.85119 0
M  V30 4288 H 393.907 -0.360477 6.09535 0
M  V30 4289 H 395.321 1.8139 5.43848 0
M  V30 4290 H 393.718 2.60444 5.40638 0
M  V30 4291 H 394.788 2.74167 3.99951 0
M  V30 4292 N 396.131 -1.37776 0.765217 0
M  V30 4293 C 397.061 -2.32945 0.160953 0
M  V30 4294 C 398.042 -1.55454 -0.690516 0
M  V30 4295 O 399.227 -1.83721 -0.629318 0
M  V30 4296 C 396.357 -3.39669 -0.724031 0
M  V30 4297 C 395.311 -4.27992 0.0256173 0
M  V30 4298 C 394.637 -5.25673 -0.978383 0
M  V30 4299 C 395.937 -5.08309 1.20082 0
M  V30 4300 H 397.631 -2.83728 0.955969 0
M  V30 4301 H 395.177 -1.36416 0.461149 0
M  V30 4302 H 397.13 -4.05219 -1.15652 0
M  V30 4303 H 395.854 -2.87396 -1.5515 0
M  V30 4304 H 394.513 -3.63964 0.438812 0
M  V30 4305 H 394.161 -4.69682 -1.80022 0
M  V30 4306 H 393.861 -5.85625 -0.481378 0
M  V30 4307 H 395.385 -5.94098 -1.40995 0
M  V30 4308 H 396.799 -5.67034 0.845307 0
M  V30 4309 H 395.196 -5.77554 1.62947 0
M  V30 4310 H 396.266 -4.41365 2.00811 0
M  V30 4311 N 397.609 -0.515225 -1.4894 0
M  V30 4312 C 399.02 -0.0710067 -1.86565 0
M  V30 4313 C 399.371 1.34733 -1.42623 0
M  V30 4314 O 398.496 2.00653 -0.810379 0
M  V30 4315 C 399.091 -0.122083 -3.3858 0
M  V30 4316 C 397.65 0.266863 -3.75453 0
M  V30 4317 C 396.797 -0.488376 -2.72966 0
M  V30 4318 H 399.748 -0.727266 -1.41055 0
M  V30 4319 H 399.769 0.669818 -3.74558 0
M  V30 4320 H 399.281 -1.15448 -3.70531 0
M  V30 4321 H 397.382 1.30196 -3.49113 0
M  V30 4322 H 397.495 -0.0624811 -4.79059 0
M  V30 4323 H 395.859 0.0635622 -2.54621 0
M  V30 4324 H 396.642 -1.52113 -3.07761 0
M  V30 4325 N 399.087 1.5561 -0.249682 0
M  V30 4326 C 400.503 1.59254 0.105103 0
M  V30 4327 C 400.703 1.26685 1.56694 0
M  V30 4328 O 399.759 1.0155 2.31179 0
M  V30 4329 C 401.072 2.99687 -0.246592 0
M  V30 4330 C 402.62 3.12416 -0.191118 0
M  V30 4331 C 403.095 4.55074 -0.516885 0
M  V30 4332 N 404.586 4.60835 -0.467489 0
M  V30 4333 C 405.321 5.69201 -0.69268 0
M  V30 4334 N 404.817 6.85817 -0.981146 0
M  V30 4335 N 406.61 5.58635 -0.623198 0
M  V30 4336 H 398.761 1.75049 -1.20298 0
M  V30 4337 H 401.024 0.815003 -0.484225 0
M  V30 4338 H 400.73 3.28267 -1.26228 0
M  V30 4339 H 400.604 3.74798 0.424962 0
M  V30 4340 H 402.991 2.83615 0.815247 0
M  V30 4341 H 403.072 2.39573 -0.896563 0
M  V30 4342 H 402.716 4.84596 -1.52082 0
M  V30 4343 H 402.646 5.26181 0.210068 0
M  V30 4344 H 405.137 3.7705 -0.253373 0
M  V30 4345 H 405.45 7.64341 -1.14032 0
M  V30 4346 H 403.795 6.87494 -1.01865 0
M  V30 4347 H 406.986 4.66406 -0.397863 0
M  V30 4348 H 407.159 6.43017 -0.802093 0
M  V30 4349 N 400.565 -0.0233959 1.57583 0
M  V30 4350 C 401.528 -1.00693 2.05897 0
M  V30 4351 C 402.528 -1.28693 0.964092 0
M  V30 4352 O 403.718 -1.23602 1.22753 0
M  V30 4353 C 400.85 -2.33825 2.4807 0
M  V30 4354 H 402.043 -0.589476 2.9405 0
M  V30 4355 H 399.596 -0.270354 1.53944 0
M  V30 4356 H 400.331 -2.80307 1.6309 0
M  V30 4357 H 400.116 -2.1483 3.2801 0
M  V30 4358 H 401.606 -3.04426 2.85857 0
M  V30 4359 N 402.043 -1.548 -0.295768 0
M  V30 4360 C 402.973 -1.89115 -1.36959 0
M  V30 4361 C 403.954 -0.75059 -1.52644 0
M  V30 4362 O 405.139 -1.00678 -1.66065 0
M  V30 4363 C 402.269 -2.14307 -2.73295 0
M  V30 4364 C 401.223 -3.30151 -2.72368 0
M  V30 4365 C 400.549 -3.40772 -4.12042 0
M  V30 4366 C 401.849 -4.67126 -2.33646 0
M  V30 4367 H 403.543 -2.79053 -1.08488 0
M  V30 4368 H 401.089 -1.34266 -0.520443 0
M  V30 4369 H 403.042 -2.36898 -3.48507 0
M  V30 4370 H 401.766 -1.21145 -3.03301 0
M  V30 4371 H 400.425 -3.0749 -1.99613 0
M  V30 4372 H 400.073 -2.45117 -4.39234 0
M  V30 4373 H 399.773 -4.18645 -4.12322 0
M  V30 4374 H 401.297 -3.6563 -4.89027 0
M  V30 4375 H 402.711 -4.89414 -2.98575 0
M  V30 4376 H 401.108 -5.47751 -2.45129 0
M  V30 4377 H 402.178 -4.67489 -1.28772 0
M  V30 4378 N 403.521 0.559213 -1.47345 0
M  V30 4379 C 404.451 1.67622 -1.62558 0
M  V30 4380 C 405.432 1.63331 -0.475087 0
M  V30 4381 O 406.617 1.80983 -0.704182 0
M  V30 4382 C 403.747 3.0626 -1.63774 0
M  V30 4383 C 402.701 3.25397 -2.7803 0
M  V30 4384 C 402.027 4.64801 -2.64318 0
M  V30 4385 C 403.327 3.10965 -4.19641 0
M  V30 4386 H 405.021 1.55146 -2.56067 0
M  V30 4387 H 402.567 0.744961 -1.23233 0
M  V30 4388 H 404.52 3.84247 -1.73008 0
M  V30 4389 H 403.244 3.1969 -0.66825 0
M  V30 4390 H 401.903 2.49817 -2.68304 0
M  V30 4391 H 401.551 4.75028 -1.65401 0
M  V30 4392 H 401.251 4.78555 -3.40968 0
M  V30 4393 H 402.775 5.44926 -2.75478 0
M  V30 4394 H 404.189 3.78772 -4.30354 0
M  V30 4395 H 402.586 3.36229 -4.97062 0
M  V30 4396 H 403.656 2.07736 -4.38148 0
M  V30 4397 N 404.999 1.35443 0.805782 0
M  V30 4398 C 406.224 1.32037 1.59941 0
M  V30 4399 C 406.649 -0.0994215 1.87837 0
M  V30 4400 O 406.007 -1.06648 1.46615 0
M  V30 4401 C 406.055 2.13354 2.90711 0
M  V30 4402 O 405.159 1.5148 3.83572 0
M  V30 4403 H 404.5 0.452666 0.485787 0
M  V30 4404 H 407.03 1.78496 1.00002 0
M  V30 4405 H 407.04 2.25338 3.40128 0
M  V30 4406 H 405.715 3.16572 2.69732 0
M  V30 4407 H 404.292 1.4834 3.42125 0
M  V30 4408 N 406.477 -1.02803 1.19454 0
M  V30 4409 C 407.702 -1.80378 1.02364 0
M  V30 4410 C 408.127 -1.83282 -0.423007 0
M  V30 4411 O 407.485 -1.25945 -1.30413 0
M  V30 4412 C 407.533 -3.23248 1.59821 0
M  V30 4413 O 406.637 -4.04 0.828105 0
M  V30 4414 H 405.978 -0.556799 0.361761 0
M  V30 4415 H 408.508 -1.29385 1.58495 0
M  V30 4416 H 408.518 -3.73994 1.63073 0
M  V30 4417 H 407.193 -3.2045 2.65113 0
M  V30 4418 H 405.77 -3.62635 0.86891 0
M  V30 4419 N 407.956 -0.998596 -1.21925 0
M  V30 4420 C 408.886 -0.573688 -2.26343 0
M  V30 4421 C 409.867 0.402296 -1.65274 0
M  V30 4422 O 411.052 0.291683 -1.91997 0
M  V30 4423 C 408.182 0.106839 -3.47136 0
M  V30 4424 C 407.136 -0.788269 -4.20678 0
M  V30 4425 C 406.462 0.0254927 -5.34694 0
M  V30 4426 C 407.762 -2.08784 -4.78755 0
M  V30 4427 H 409.456 -1.44651 -2.62138 0
M  V30 4428 H 407.002 -0.696975 -1.26009 0
M  V30 4429 H 408.955 0.415531 -4.19346 0
M  V30 4430 H 407.679 1.01424 -3.10452 0
M  V30 4431 H 406.338 -1.08069 -3.50309 0
M  V30 4432 H 405.986 0.933989 -4.94253 0
M  V30 4433 H 405.686 -0.570437 -5.84825 0
M  V30 4434 H 407.21 0.328147 -6.09718 0
M  V30 4435 H 408.624 -1.84272 -5.42878 0
M  V30 4436 H 407.021 -2.63307 -5.39249 0
M  V30 4437 H 408.091 -2.76284 -3.98491 0
M  V30 4438 N 409.434 1.37368 -0.772513 0
M  V30 4439 C 410.659 2.0447 -0.347386 0
M  V30 4440 C 411.084 1.57882 1.0225 0
M  V30 4441 O 410.442 0.73941 1.65537 0
M  V30 4442 C 410.49 3.58369 -0.400479 0
M  V30 4443 O 409.594 4.0803 0.598789 0
M  V30 4444 H 408.935 0.646773 -0.15027 0
M  V30 4445 H 411.465 1.75667 -1.04892 0
M  V30 4446 H 411.475 4.07183 -0.258045 0
M  V30 4447 H 410.15 3.91633 -1.39986 0
M  V30 4448 H 408.727 3.70534 0.419411 0
M  V30 4449 N 410.912 0.523116 1.48665 0
M  V30 4450 C 412.16 -0.0134497 2.02096 0
M  V30 4451 C 412.481 -1.35418 1.40311 0
M  V30 4452 O 411.751 -1.87543 0.566074 0
M  V30 4453 H 410.331 -0.00795915 0.746958 0
M  V30 4454 H 412.993 0.685388 1.82451 0
M  V30 4455 H 412.089 -0.126849 3.11842 0
M  V30 4456 N 412.39 -1.55475 0.257931 0
M  V30 4457 C 413.32 -2.24815 -0.630912 0
M  V30 4458 C 414.301 -1.23224 -1.17259 0
M  V30 4459 O 415.486 -1.51904 -1.20991 0
M  V30 4460 C 412.616 -2.95609 -1.82298 0
M  V30 4461 C 411.57 -4.03982 -1.41359 0
M  V30 4462 C 410.896 -4.6226 -2.68738 0
M  V30 4463 C 412.196 -5.19109 -0.57648 0
M  V30 4464 H 413.89 -2.99354 -0.0526878 0
M  V30 4465 H 411.436 -1.4398 -0.023901 0
M  V30 4466 H 413.389 -3.42822 -2.45054 0
M  V30 4467 H 412.113 -2.18577 -2.42676 0
M  V30 4468 H 410.772 -3.57555 -0.809324 0
M  V30 4469 H 410.42 -3.81915 -3.27338 0
M  V30 4470 H 410.12 -5.35424 -2.42065 0
M  V30 4471 H 411.644 -5.12212 -3.32372 0
M  V30 4472 H 413.058 -5.62479 -1.10861 0
M  V30 4473 H 411.455 -5.98729 -0.405351 0
M  V30 4474 H 412.525 -4.83174 0.408776 0
M  V30 4475 N 413.868 0.0150385 -1.57593 0
M  V30 4476 C 415.114 0.704043 -1.90187 0
M  V30 4477 C 415.447 1.74249 -0.857366 0
M  V30 4478 O 414.722 1.94092 0.125843 0
M  V30 4479 C 415.005 1.36087 -3.33395 0
M  V30 4480 C 414.858 0.334981 -4.48551 0
M  V30 4481 C 416.177 2.29112 -3.7576 0
M  V30 4482 H 413.296 0.254475 -0.691673 0
M  V30 4483 H 415.938 -0.0331678 -1.89971 0
M  V30 4484 H 414.088 1.98922 -3.3371 0
M  V30 4485 H 415.76 -0.292534 -4.60372 0
M  V30 4486 H 414.003 -0.344325 -4.32431 0
M  V30 4487 H 414.674 0.833316 -5.45674 0
M  V30 4488 H 417.15 1.76308 -3.76902 0
M  V30 4489 H 416.026 2.72043 -4.76743 0
M  V30 4490 H 416.287 3.16385 -3.08793 0
M  V30 4491 N 415.346 1.54954 0.287554 0
M  V30 4492 C 416.276 1.89839 1.35954 0
M  V30 4493 C 417.257 0.758675 1.52244 0
M  V30 4494 O 418.442 1.01557 1.65529 0
M  V30 4495 C 415.572 2.15753 2.72154 0
M  V30 4496 C 414.526 3.3159 2.70614 0
M  V30 4497 C 413.852 3.42952 4.10229 0
M  V30 4498 C 415.152 4.68359 2.31165 0
M  V30 4499 H 416.846 2.79625 1.07007 0
M  V30 4500 H 414.392 1.3454 0.513316 0
M  V30 4501 H 416.345 2.38743 3.47246 0
M  V30 4502 H 415.069 1.22752 3.02654 0
M  V30 4503 H 413.728 3.08545 1.97979 0
M  V30 4504 H 413.376 2.47443 4.37928 0
M  V30 4505 H 413.076 4.20826 4.10097 0
M  V30 4506 H 414.6 3.68218 4.87081 0
M  V30 4507 H 416.014 4.9099 2.95976 0
M  V30 4508 H 414.411 5.49044 2.42221 0
M  V30 4509 H 415.481 4.68165 1.26291 0
M  V30 4510 N 416.824 -0.551391 1.4764 0
M  V30 4511 C 417.754 -1.66757 1.63445 0
M  V30 4512 C 418.735 -1.63077 0.483742 0
M  V30 4513 O 419.92 -1.80607 0.71377 0
M  V30 4514 C 417.05 -3.05387 1.65396 0
M  V30 4515 C 416.004 -3.23918 2.79752 0
M  V30 4516 C 415.33 -4.63393 2.66779 0
M  V30 4517 C 416.63 -3.08735 4.21284 0
M  V30 4518 H 418.324 -1.53786 2.56886 0
M  V30 4519 H 415.87 -0.738415 1.23626 0
M  V30 4520 H 417.823 -3.83325 1.75043 0
M  V30 4521 H 416.547 -3.19332 0.685195 0
M  V30 4522 H 415.206 -2.48391 2.69625 0
M  V30 4523 H 414.854 -4.74144 1.67918 0
M  V30 4524 H 414.554 -4.7674 3.43501 0
M  V30 4525 H 416.078 -5.43458 2.78364 0
M  V30 4526 H 417.492 -3.76484 4.32357 0
M  V30 4527 H 415.889 -3.33588 4.98838 0
M  V30 4528 H 416.959 -2.0541 4.39243 0
M  V30 4529 N 418.302 -1.35869 -0.798587 0
M  V30 4530 C 419.25 -1.29491 -1.93222 0
M  V30 4531 C 420.244 -0.18836 -1.6835 0
M  V30 4532 O 421.45 -0.354822 -1.76468 0
M  V30 4533 H 417.825 -0.402901 -0.63496 0
M  V30 4534 H 419.796 -2.25247 -1.9572 0
M  V30 4535 C 418.545 -1.09184 -3.30112 0
M  V30 4536 H 417.868 -1.93574 -3.49813 0
M  V30 4537 H 419.308 -1.08766 -4.09812 0
M  V30 4538 C 417.767 0.203959 -3.36282 0
M  V30 4539 O 418.297 1.19699 -3.83451 0
M  V30 4540 N 416.503 0.245488 -2.89561 0
M  V30 4541 H 416.05 -0.563223 -2.51367 0
M  V30 4542 H 416.008 1.11219 -2.94071 0
M  V30 4543 N 419.78 1.02168 -1.19998 0
M  V30 4544 C 420.743 2.08765 -0.94604 0
M  V30 4545 C 421.743 1.60618 0.0763846 0
M  V30 4546 O 422.933 1.73472 -0.159135 0
M  V30 4547 C 420.065 3.38262 -0.423255 0
M  V30 4548 H 421.258 2.32726 -1.89153 0
M  V30 4549 H 418.811 1.1889 -1.01464 0
M  V30 4550 H 419.546 3.19974 0.527938 0
M  V30 4551 H 419.331 3.74532 -1.16053 0
M  V30 4552 H 420.821 4.16759 -0.264911 0
M  V30 4553 N 421.258 1.00505 1.21394 0
M  V30 4554 C 422.669 0.721082 1.72213 0
M  V30 4555 C 423.02 -0.761263 1.80829 0
M  V30 4556 O 422.145 -1.59464 1.46288 0
M  V30 4557 C 422.74 1.30228 3.12772 0
M  V30 4558 C 421.299 1.06743 3.60947 0
M  V30 4559 C 420.446 1.41507 2.38477 0
M  V30 4560 H 423.397 1.17594 1.06571 0
M  V30 4561 H 423.418 0.686955 3.74247 0
M  V30 4562 H 422.93 2.38115 3.06468 0
M  V30 4563 H 421.031 0.00572162 3.726 0
M  V30 4564 H 421.144 1.73936 4.46411 0
M  V30 4565 H 419.508 0.833852 2.40664 0
M  V30 4566 H 420.291 2.50424 2.34824 0
M  V30 4567 N 422.737 -1.36956 0.779787 0
M  V30 4568 C 423.983 -1.99787 0.348281 0
M  V30 4569 C 424.316 -1.61756 -1.07465 0
M  V30 4570 O 423.591 -0.867639 -1.74075 0
M  V30 4571 C 423.874 -3.56597 0.50104 0
M  V30 4572 C 423.727 -4.04513 1.96697 0
M  V30 4573 C 425.046 -4.40008 -0.0898097 0
M  V30 4574 H 422.165 -0.725796 0.128022 0
M  V30 4575 H 424.807 -1.62514 0.984331 0
M  V30 4576 H 422.957 -3.88479 -0.0404347 0
M  V30 4577 H 424.629 -3.83161 2.56876 0
M  V30 4578 H 422.872 -3.56408 2.47297 0
M  V30 4579 H 423.543 -5.1352 2.02486 0
M  V30 4580 H 426.019 -4.14431 0.372293 0
M  V30 4581 H 424.895 -5.4888 0.0471605 0
M  V30 4582 H 425.156 -4.26035 -1.18096 0
M  V30 4583 N 424.215 -0.530993 -1.48385 0
M  V30 4584 C 425.461 0.00274135 -2.028 0
M  V30 4585 C 425.794 1.33838 -1.40716 0
M  V30 4586 O 425.069 1.86465 -0.553277 0
M  V30 4587 C 425.352 0.123676 -3.59888 0
M  V30 4588 C 425.205 -1.2372 -4.3245 0
M  V30 4589 C 426.524 0.849967 -4.31814 0
M  V30 4590 H 423.643 -0.000477758 -0.737 0
M  V30 4591 H 426.285 -0.688217 -1.77098 0
M  V30 4592 H 424.435 0.712157 -3.81917 0
M  V30 4593 H 426.107 -1.86687 -4.21836 0
M  V30 4594 H 424.35 -1.81882 -3.93829 0
M  V30 4595 H 425.021 -1.10557 -5.40815 0
M  V30 4596 H 427.497 0.350572 -4.14621 0
M  V30 4597 H 426.373 0.903486 -5.41413 0
M  V30 4598 H 426.634 1.90047 -3.99167 0
M  V30 4599 N 425.693 1.55336 -0.266172 0
M  V30 4600 C 426.656 2.20878 0.612001 0
M  V30 4601 C 427.656 1.18388 1.08816 0
M  V30 4602 O 428.846 1.4335 0.989774 0
M  V30 4603 C 425.978 2.86765 1.84332 0
M  V30 4604 H 427.171 2.99873 0.0398718 0
M  V30 4605 H 424.724 1.56291 -0.0167309 0
M  V30 4606 H 425.459 2.11759 2.45619 0
M  V30 4607 H 425.244 3.61862 1.5099 0
M  V30 4608 H 426.734 3.36867 2.46801 0
M  V30 4609 N 427.171 -0.0066808 1.57599 0
M  V30 4610 C 428.104 -1.03397 2.03431 0
M  V30 4611 C 429.082 -1.33872 0.922877 0
M  V30 4612 O 430.266 -1.4615 1.19048 0
M  V30 4613 C 427.393 -2.36325 2.42628 0
M  V30 4614 C 426.439 -2.21557 3.64438 0
M  V30 4615 S 427.272 -1.54789 5.12641 0
M  V30 4616 C 428.428 -2.8916 5.55101 0
M  V30 4617 H 428.661 -0.643687 2.90248 0
M  V30 4618 H 426.194 -0.217349 1.52863 0
M  V30 4619 H 428.152 -3.12759 2.65879 0
M  V30 4620 H 426.813 -2.72495 1.56222 0
M  V30 4621 H 426.006 -3.1974 3.89592 0
M  V30 4622 H 425.608 -1.53267 3.41153 0
M  V30 4623 H 427.9 -3.8547 5.57153 0
M  V30 4624 H 428.843 -2.68713 6.55133 0
M  V30 4625 H 429.251 -2.92762 4.82649 0
M  V30 4626 N 428.649 -1.55105 -0.279332 0
M  V30 4627 C 429.877 -1.7943 -1.03017 0
M  V30 4628 C 430.292 -0.564456 -1.80165 0
M  V30 4629 O 429.649 0.466326 -1.76442 0
M  V30 4630 C 429.7 -3.0155 -1.99374 0
M  V30 4631 O 429.421 -4.19784 -1.25352 0
M  V30 4632 C 430.922 -3.3843 -2.86321 0
M  V30 4633 H 428.142 -0.597882 -0.304594 0
M  V30 4634 H 430.686 -2.02105 -0.312035 0
M  V30 4635 H 428.841 -2.81019 -2.66659 0
M  V30 4636 H 429.255 -4.88781 -1.90246 0
M  V30 4637 H 430.729 -4.27066 -3.49741 0
M  V30 4638 H 431.206 -2.57549 -3.5576 0
M  V30 4639 H 431.812 -3.61197 -2.24536 0
M  V30 4640 N 430.127 0.543554 -1.4793 0
M  V30 4641 C 431.059 1.665 -1.57513 0
M  V30 4642 C 432.072 1.56156 -0.460333 0
M  V30 4643 O 433.261 1.62865 -0.730573 0
M  V30 4644 C 430.361 3.05063 -1.47614 0
M  V30 4645 C 429.534 3.41024 -2.739 0
M  V30 4646 C 428.593 4.58809 -2.57645 0
M  V30 4647 O 427.619 4.62707 -3.31498 0
M  V30 4648 N 428.821 5.56149 -1.66368 0
M  V30 4649 H 431.586 1.5872 -2.5422 0
M  V30 4650 H 429.147 0.730517 -1.44482 0
M  V30 4651 H 431.139 3.81712 -1.34455 0
M  V30 4652 H 429.709 3.06994 -0.589359 0
M  V30 4653 H 428.929 2.53687 -3.01723 0
M  V30 4654 H 430.217 3.61831 -3.57709 0
M  V30 4655 H 429.615 5.55767 -1.05543 0
M  V30 4656 H 428.172 6.32071 -1.59154 0
M  V30 4657 N 431.605 1.3629 0.791371 0
M  V30 4658 C 432.853 1.30154 1.5461 0
M  V30 4659 C 433.174 -0.119409 1.94634 0
M  V30 4660 O 432.444 -1.05924 1.64794 0
M  V30 4661 H 431.024 0.478784 0.573389 0
M  V30 4662 H 433.686 1.70565 0.94306 0
M  V30 4663 H 432.782 1.92762 2.45457 0
M  V30 4664 N 433.083 -1.0153 1.20538 0
M  V30 4665 C 434.494 -1.56598 1.01657 0
M  V30 4666 C 434.845 -1.91505 -0.426668 0
M  V30 4667 O 433.97 -1.72375 -1.30827 0
M  V30 4668 C 434.565 -2.84542 1.83905 0
M  V30 4669 C 433.124 -3.36133 1.69386 0
M  V30 4670 C 432.271 -2.09427 1.81757 0
M  V30 4671 H 435.222 -0.838974 1.34711 0
M  V30 4672 H 435.243 -3.56004 1.34319 0
M  V30 4673 H 434.755 -2.59105 2.8894 0
M  V30 4674 H 432.856 -3.66528 0.669933 0
M  V30 4675 H 432.969 -4.08248 2.50739 0
M  V30 4676 H 431.333 -2.21941 1.24957 0
M  V30 4677 H 432.116 -1.86414 2.88279 0
M  V30 4678 N 434.561 -1.01147 -1.20859 0
M  V30 4679 C 435.511 -0.548247 -2.2131 0
M  V30 4680 C 436.495 0.393646 -1.5601 0
M  V30 4681 O 437.687 0.217445 -1.75659 0
M  V30 4682 C 434.816 0.117252 -3.431 0
M  V30 4683 C 433.902 -0.846043 -4.15575 0
M  V30 4684 N 434.293 -2.00149 -4.64515 0
M  V30 4685 C 432.591 -0.665783 -4.41003 0
M  V30 4686 C 433.292 -2.60764 -5.19978 0
M  V30 4687 N 432.268 -1.88868 -5.09735 0
M  V30 4688 H 436.07 -1.42921 -2.56809 0
M  V30 4689 H 433.584 -0.876142 -1.36739 0
M  V30 4690 H 435.581 0.46662 -4.1428 0
M  V30 4691 H 434.241 0.994115 -3.09107 0
M  V30 4692 H 435.252 -2.38162 -4.5989 0
M  V30 4693 H 431.929 0.163456 -4.1718 0
M  V30 4694 H 433.319 -3.58519 -5.68255 0
M  V30 4695 N 436.039 1.36541 -0.78704 0
M  V30 4696 C 437.316 1.9355 -0.282424 0
M  V30 4697 C 437.696 1.71919 1.22503 0
M  V30 4698 O 437.044 1.07677 2.01539 0
M  V30 4699 C 437.254 3.4246 -0.672462 0
M  V30 4700 C 438.602 4.19582 -0.650863 0
M  V30 4701 O 439.626 3.50889 -0.612789 0
M  V30 4702 O 438.485 5.42106 -0.691623 0
M  V30 4703 H 435.579 0.824091 -0.0693 0
M  V30 4704 H 438.125 1.45736 -0.869423 0
M  V30 4705 H 436.897 3.51851 -1.71221 0
M  V30 4706 H 436.52 3.97556 -0.0592211 0
M  V30 4707 N 437.518 0.538854 1.48102 0
M  V30 4708 C 438.764 0.00801365 2.02798 0
M  V30 4709 C 439.097 -1.3309 1.41424 0
M  V30 4710 O 438.372 -1.86169 0.563158 0
M  V30 4711 C 438.655 -0.104589 3.59948 0
M  V30 4712 C 438.508 1.26012 4.31788 0
M  V30 4713 C 439.827 -0.827055 4.32259 0
M  V30 4714 H 436.946 0.00438624 0.736987 0
M  V30 4715 H 439.588 0.6976 1.7673 0
M  V30 4716 H 437.738 -0.691893 3.82289 0
M  V30 4717 H 439.41 1.88922 4.2084 0
M  V30 4718 H 437.653 1.83968 3.92859 0
M  V30 4719 H 438.324 1.13424 5.40221 0
M  V30 4720 H 440.8 -0.328578 4.14801 0
M  V30 4721 H 439.676 -0.87476 5.41885 0
M  V30 4722 H 439.937 -1.87927 4.0017 0
M  V30 4723 N 438.996 -1.55193 0.274407 0
M  V30 4724 C 439.946 -2.19184 -0.627882 0
M  V30 4725 C 440.93 -1.15625 -1.11892 0
M  V30 4726 O 442.122 -1.41441 -1.06411 0
M  V30 4727 C 439.251 -2.91591 -1.81189 0
M  V30 4728 C 438.337 -4.02438 -1.33807 0
M  V30 4729 N 438.728 -5.0246 -0.580349 0
M  V30 4730 C 437.026 -4.15496 -1.62109 0
M  V30 4731 C 437.727 -5.80756 -0.331344 0
M  V30 4732 N 436.703 -5.36038 -0.903556 0
M  V30 4733 H 440.505 -2.93871 -0.0411216 0
M  V30 4734 H 438.019 -1.62213 0.0779348 0
M  V30 4735 H 440.016 -3.35883 -2.46957 0
M  V30 4736 H 438.676 -2.18414 -2.40261 0
M  V30 4737 H 439.687 -5.17399 -0.227762 0
M  V30 4738 H 436.364 -3.53509 -2.22121 0
M  V30 4739 H 437.754 -6.71335 0.275454 0
M  V30 4740 N 440.474 -0.00167713 -1.576 0
M  V30 4741 C 441.72 0.683832 -1.90923 0
M  V30 4742 C 442.053 1.7333 -0.875799 0
M  V30 4743 O 441.328 1.94215 0.10525 0
M  V30 4744 C 441.611 1.32543 -3.3482 0
M  V30 4745 C 441.464 0.287387 -4.48881 0
M  V30 4746 C 442.783 2.25114 -3.78169 0
M  V30 4747 H 439.902 0.247125 -0.694333 0
M  V30 4748 H 442.544 -0.0533149 -1.89925 0
M  V30 4749 H 440.694 1.95372 -3.35801 0
M  V30 4750 H 442.366 -0.341346 -4.60035 0
M  V30 4751 H 440.609 -0.39017 -4.32042 0
M  V30 4752 H 441.28 0.775393 -5.46527 0
M  V30 4753 H 443.756 1.723 -3.7875 0
M  V30 4754 H 442.632 2.66971 -4.79602 0
M  V30 4755 H 442.893 3.13092 -3.12131 0
M  V30 4756 N 441.952 1.55251 0.271103 0
M  V30 4757 C 442.884 1.84675 1.35749 0
M  V30 4758 C 443.897 0.731366 1.45447 0
M  V30 4759 O 445.086 1.00924 1.4723 0
M  V30 4760 C 442.186 1.99638 2.73857 0
M  V30 4761 C 441.359 3.30312 2.86727 0
M  V30 4762 C 440.418 3.35318 4.05522 0
M  V30 4763 O 439.444 4.08682 3.96191 0
M  V30 4764 N 440.646 2.62857 5.17577 0
M  V30 4765 H 443.411 2.78445 1.10853 0
M  V30 4766 H 440.972 1.55191 0.461218 0
M  V30 4767 H 442.964 2.00355 3.51625 0
M  V30 4768 H 441.534 1.12725 2.91568 0
M  V30 4769 H 440.754 3.42118 1.95829 0
M  V30 4770 H 442.042 4.16488 2.92258 0
M  V30 4771 H 441.44 2.02939 5.28046 0
M  V30 4772 H 439.997 2.69295 5.93568 0
M  V30 4773 N 443.43 -0.535701 1.48216 0
M  V30 4774 C 444.679 -1.28828 1.55197 0
M  V30 4775 C 444.992 -1.94263 0.228278 0
M  V30 4776 O 446.198 -2.70927 0.176278 0
M  V30 4777 C 444.654 -2.33727 2.73678 0
M  V30 4778 C 444.262 -1.74386 4.12666 0
M  V30 4779 C 446.006 -3.1003 2.89968 0
M  V30 4780 C 443.913 -2.77192 5.22416 0
M  V30 4781 H 442.843 -0.484484 0.577747 0
M  V30 4782 H 445.494 -0.56646 1.74538 0
M  V30 4783 H 443.876 -3.08919 2.4776 0
M  V30 4784 H 445.05 -1.05421 4.48579 0
M  V30 4785 H 443.365 -1.10595 4.01445 0
M  V30 4786 H 445.962 -3.86842 3.6913 0
M  V30 4787 H 446.305 -3.65542 1.9921 0
M  V30 4788 H 446.838 -2.41952 3.15759 0
M  V30 4789 H 443.577 -2.26507 6.15122 0
M  V30 4790 H 443.097 -3.44502 4.90998 0
M  V30 4791 H 444.776 -3.40285 5.50286 0
M  V30 4792 N 444.908 -1.36708 -0.784132 0
M  V30 4793 C 445.818 -1.3363 -1.92822 0
M  V30 4794 C 446.834 -0.237686 -1.72369 0
M  V30 4795 O 448.01 -0.470962 -1.95816 0
M  V30 4796 C 445.075 -1.13011 -3.27764 0
M  V30 4797 C 444.136 -2.32397 -3.60957 0
M  V30 4798 C 443.369 -2.12752 -4.89461 0
M  V30 4799 O 443.592 -1.10541 -5.59586 0
M  V30 4800 O 442.526 -3.00653 -5.21432 0
M  V30 4801 H 446.352 -2.29964 -1.98369 0
M  V30 4802 H 443.937 -1.1731 -0.925136 0
M  V30 4803 H 445.819 -1.03451 -4.08504 0
M  V30 4804 H 444.494 -0.19743 -3.23097 0
M  V30 4805 H 443.401 -2.47527 -2.80502 0
M  V30 4806 H 444.734 -3.2419 -3.70354 0
M  V30 4807 N 446.386 1.0089 -1.21074 0
M  V30 4808 C 447.614 1.78191 -1.05145 0
M  V30 4809 C 448.029 1.84537 0.398952 0
M  V30 4810 O 447.386 1.30393 1.27687 0
M  V30 4811 C 447.437 3.22288 -1.63746 0
M  V30 4812 O 447.158 3.16315 -3.03111 0
M  V30 4813 C 448.659 4.16106 -1.52875 0
M  V30 4814 H 445.879 0.560129 -0.369454 0
M  V30 4815 H 448.423 1.26945 -1.60328 0
M  V30 4816 H 446.578 3.70655 -1.12664 0
M  V30 4817 H 446.992 4.06817 -3.31059 0
M  V30 4818 H 448.466 5.15026 -1.98626 0
M  V30 4819 H 448.943 4.36541 -0.482521 0
M  V30 4820 H 449.549 3.73625 -2.03185 0
M  V30 4821 N 447.864 1.01787 1.20321 0
M  V30 4822 C 449.089 0.727009 1.9424 0
M  V30 4823 C 449.514 -0.706179 1.74341 0
M  V30 4824 O 448.872 -1.48609 1.03852 0
M  V30 4825 C 448.92 1.06958 3.44372 0
M  V30 4826 O 448.024 0.181983 4.11998 0
M  V30 4827 H 447.365 0.269626 0.606793 0
M  V30 4828 H 449.895 1.36158 1.52716 0
M  V30 4829 H 449.905 1.02182 3.94997 0
M  V30 4830 H 448.58 2.11378 3.58179 0
M  V30 4831 H 447.157 0.287378 3.71791 0
M  V30 4832 N 449.342 -1.36122 0.79427 0
M  V30 4833 C 450.753 -1.81646 0.431446 0
M  V30 4834 C 451.104 -1.66043 -1.04518 0
M  V30 4835 O 450.229 -1.1841 -1.8113 0
M  V30 4836 C 450.824 -3.29785 0.776341 0
M  V30 4837 C 449.383 -3.73501 0.466282 0
M  V30 4838 C 448.53 -2.58313 1.00844 0
M  V30 4839 H 451.481 -1.24274 0.986995 0
M  V30 4840 H 451.502 -3.80437 0.0692413 0
M  V30 4841 H 451.014 -3.4111 1.8511 0
M  V30 4842 H 449.115 -3.67733 -0.600245 0
M  V30 4843 H 449.228 -4.68754 0.990288 0
M  V30 4844 H 447.592 -2.5102 0.431406 0
M  V30 4845 H 448.375 -2.72421 2.08906 0
M  V30 4846 N 450.82 -0.546701 -1.47814 0
M  V30 4847 C 452.231 -0.110564 -1.86372 0
M  V30 4848 C 452.582 1.31678 -1.45449 0
M  V30 4849 O 451.707 1.98889 -0.852758 0
M  V30 4850 C 452.302 -0.193873 -3.38245 0
M  V30 4851 C 450.861 0.187164 -3.75934 0
M  V30 4852 C 450.008 -0.546166 -2.71868 0
M  V30 4853 H 452.959 -0.757022 -1.39481 0
M  V30 4854 H 452.98 0.590218 -3.75895 0
M  V30 4855 H 452.492 -1.23282 -3.67999 0
M  V30 4856 H 450.593 1.22762 -3.51796 0
M  V30 4857 H 450.706 -0.164083 -4.78819 0
M  V30 4858 H 449.07 0.00953904 -2.54698 0
M  V30 4859 H 449.853 -1.58606 -3.04465 0
M  V30 4860 N 452.299 1.55045 -0.282633 0
M  V30 4861 C 453.262 2.21515 0.588539 0
M  V30 4862 C 454.262 1.19535 1.07554 0
M  V30 4863 O 455.452 1.44391 0.974514 0
M  V30 4864 C 452.584 2.88704 1.8128 0
M  V30 4865 H 453.777 2.99899 0.00806397 0
M  V30 4866 H 451.33 1.56265 -0.0333067 0
M  V30 4867 H 452.065 2.14352 2.43359 0
M  V30 4868 H 451.85 3.63443 1.47144 0
M  V30 4869 H 453.34 3.39465 2.43214 0
M  V30 4870 N 453.777 0.010035 1.57597 0
M  V30 4871 C 455.193 -0.346164 1.55801 0
M  V30 4872 C 455.393 -1.74144 1.01371 0
M  V30 4873 O 454.449 -2.43938 0.651968 0
M  V30 4874 C 455.762 -0.212216 2.9995 0
M  V30 4875 C 457.31 -0.286409 3.11687 0
M  V30 4876 C 457.785 -0.18147 4.5764 0
M  V30 4877 N 459.276 -0.239056 4.62583 0
M  V30 4878 C 460.011 -0.181351 5.73113 0
M  V30 4879 N 459.507 -0.073661 6.92761 0
M  V30 4880 N 461.3 -0.233949 5.61613 0
M  V30 4881 H 453.451 0.922657 1.91313 0
M  V30 4882 H 455.714 0.354595 0.879185 0
M  V30 4883 H 455.42 0.748169 3.4365 0
M  V30 4884 H 455.294 -0.990224 3.6397 0
M  V30 4885 H 457.681 -1.23724 2.67911 0
M  V30 4886 H 457.762 0.521645 2.50425 0
M  V30 4887 H 457.406 0.765863 5.02093 0
M  V30 4888 H 457.336 -1.00814 5.1686 0
M  V30 4889 H 459.827 -0.32321 3.76515 0
M  V30 4890 H 460.14 -0.0358003 7.72792 0
M  V30 4891 H 458.485 -0.0391461 6.94989 0
M  V30 4892 H 461.676 -0.316347 4.6703 0
M  V30 4893 H 461.849 -0.185514 6.47734 0
M  V30 4894 N 455.255 -1.55392 -0.262866 0
M  V30 4895 C 456.203 -1.8977 -1.345 0
M  V30 4896 C 457.197 -0.775063 -1.50629 0
M  V30 4897 O 458.403 -0.959519 -1.52293 0
M  V30 4898 H 454.778 -0.602467 -0.450041 0
M  V30 4899 H 456.749 -2.80147 -1.02762 0
M  V30 4900 C 455.498 -2.19501 -2.69657 0
M  V30 4901 H 454.821 -3.05378 -2.5804 0
M  V30 4902 H 456.261 -2.47469 -3.44289 0
M  V30 4903 C 454.72 -1.00597 -3.21531 0
M  V30 4904 O 455.25 -0.245768 -4.00947 0
M  V30 4905 N 453.456 -0.800911 -2.79345 0
M  V30 4906 H 453.003 -1.42079 -2.14875 0
M  V30 4907 H 452.961 -0.00697996 -3.14399 0
M  V30 4908 N 456.733 0.527833 -1.48498 0
M  V30 4909 C 457.663 1.64136 -1.66077 0
M  V30 4910 C 458.644 1.62286 -0.509625 0
M  V30 4911 O 459.829 1.79449 -0.742413 0
M  V30 4912 C 456.959 3.02717 -1.70234 0
M  V30 4913 C 455.913 3.19426 -2.8487 0
M  V30 4914 C 455.239 4.5909 -2.74118 0
M  V30 4915 C 456.539 3.01993 -4.26142 0
M  V30 4916 H 458.233 1.4968 -2.593 0
M  V30 4917 H 455.779 0.718654 -1.24785 0
M  V30 4918 H 457.732 3.80491 -1.8112 0
M  V30 4919 H 456.456 3.18201 -0.735911 0
M  V30 4920 H 455.115 2.4407 -2.73542 0
M  V30 4921 H 454.763 4.71413 -1.7544 0
M  V30 4922 H 454.463 4.71214 -3.51042 0
M  V30 4923 H 455.987 5.3896 -2.86974 0
M  V30 4924 H 457.401 3.69558 -4.38292 0
M  V30 4925 H 455.798 3.2561 -5.04082 0
M  V30 4926 H 456.868 1.98396 -4.42456 0
M  V30 4927 N 458.211 1.37122 0.776871 0
M  V30 4928 C 459.158 1.3247 1.88998 0
M  V30 4929 C 460.128 0.191143 1.64997 0
M  V30 4930 O 461.313 0.379683 1.86984 0
M  V30 4931 C 458.453 1.13241 3.25992 0
M  V30 4932 C 457.566 2.35782 3.61982 0
M  V30 4933 C 456.701 2.09465 4.88158 0
M  V30 4934 C 455.74 3.279 5.16864 0
M  V30 4935 N 454.877 3.01167 6.34226 0
M  V30 4936 H 459.717 2.27642 1.9231 0
M  V30 4937 H 457.254 1.13125 0.94027 0
M  V30 4938 H 459.212 1.00115 4.0501 0
M  V30 4939 H 457.842 0.217186 3.22069 0
M  V30 4940 H 456.894 2.59666 2.77989 0
M  V30 4941 H 458.206 3.24125 3.79137 0
M  V30 4942 H 457.36 1.93341 5.75069 0
M  V30 4943 H 456.099 1.18452 4.73097 0
M  V30 4944 H 455.104 3.44569 4.2843 0
M  V30 4945 H 456.329 4.19757 5.33836 0
M  V30 4946 H 454.275 2.12779 6.20533 0
M  V30 4947 H 454.192 3.83052 6.51772 0
M  V30 4948 H 455.46 2.88649 7.24087 0
M  V30 4949 N 459.689 -1.00246 1.21608 0
M  V30 4950 C 460.935 -1.74319 1.03638 0
M  V30 4951 C 461.268 -1.89408 -0.428749 0
M  V30 4952 O 460.543 -1.43026 -1.3181 0
M  V30 4953 C 460.826 -3.15431 1.73711 0
M  V30 4954 C 460.679 -3.08049 3.27759 0
M  V30 4955 C 461.998 -4.14407 1.48173 0
M  V30 4956 H 459.117 -0.632741 0.377899 0
M  V30 4957 H 461.759 -1.16853 1.49818 0
M  V30 4958 H 459.909 -3.64493 1.34452 0
M  V30 4959 H 461.581 -2.66681 3.76403 0
M  V30 4960 H 459.824 -2.45088 3.57931 0
M  V30 4961 H 460.495 -4.07862 3.71958 0
M  V30 4962 H 462.971 -3.74061 1.82258 0
M  V30 4963 H 461.847 -5.11279 1.99713 0
M  V30 4964 H 462.108 -4.40174 0.412273 0
M  V30 4965 N 461.167 -1.02423 -1.1978 0
M  V30 4966 C 462.097 -0.62157 -2.25075 0
M  V30 4967 C 463.078 0.367148 -1.6609 0
M  V30 4968 O 464.263 0.250892 -1.92573 0
M  V30 4969 C 461.393 0.0331826 -3.47284 0
M  V30 4970 C 460.347 -0.877323 -4.18912 0
M  V30 4971 C 459.673 -0.0879296 -5.34628 0
M  V30 4972 C 460.973 -2.18892 -4.74219 0
M  V30 4973 H 462.667 -1.50179 -2.59011 0
M  V30 4974 H 460.213 -0.723547 -1.24502 0
M  V30 4975 H 462.166 0.326488 -4.20133 0
M  V30 4976 H 460.89 0.948164 -3.12534 0
M  V30 4977 H 459.549 -1.15475 -3.47938 0
M  V30 4978 H 459.197 0.828941 -4.96123 0
M  V30 4979 H 458.897 -0.694359 -5.83483 0
M  V30 4980 H 460.421 0.198743 -6.10276 0
M  V30 4981 H 461.835 -1.95746 -5.38847 0
M  V30 4982 H 460.232 -2.74686 -5.33542 0
M  V30 4983 H 461.302 -2.84674 -3.92541 0
M  V30 4984 N 462.645 1.35699 -0.801477 0
M  V30 4985 C 463.592 2.29876 -0.206294 0
M  V30 4986 C 464.562 1.52565 0.656752 0
M  V30 4987 O 465.747 1.81024 0.602906 0
M  V30 4988 C 462.887 3.39052 0.643272 0
M  V30 4989 C 462 4.31335 -0.239644 0
M  V30 4990 C 461.135 5.27599 0.61744 0
M  V30 4991 C 460.174 6.11521 -0.26619 0
M  V30 4992 N 459.311 6.99938 0.550571 0
M  V30 4993 H 464.151 2.80187 -1.01484 0
M  V30 4994 H 461.688 1.37902 -0.511997 0
M  V30 4995 H 463.646 4.0101 1.15094 0
M  V30 4996 H 462.276 2.9003 1.41713 0
M  V30 4997 H 461.328 3.70426 -0.865381 0
M  V30 4998 H 462.64 4.90243 -0.919985 0
M  V30 4999 H 461.794 5.94906 1.19045 0
M  V30 5000 H 460.533 4.69176 1.33137 0
M  V30 5001 H 459.538 5.43166 -0.851507 0
M  V30 5002 H 460.763 6.72022 -0.9779 0
M  V30 5003 H 458.709 6.44008 1.24856 0
M  V30 5004 H 458.626 7.55966 -0.071832 0
M  V30 5005 H 459.894 7.71599 1.10702 0
M  V30 5006 N 464.123 0.554532 1.47522 0
M  V30 5007 C 465.086 -0.184174 2.28459 0
M  V30 5008 C 466.086 -0.845195 1.36796 0
M  V30 5009 O 467.276 -0.701467 1.59452 0
M  V30 5010 C 464.408 -1.26903 3.16399 0
M  V30 5011 H 465.601 0.526751 2.95238 0
M  V30 5012 H 463.154 0.311375 1.53167 0
M  V30 5013 H 463.889 -2.01244 2.54306 0
M  V30 5014 H 463.674 -0.799883 3.83854 0
M  V30 5015 H 465.164 -1.78794 3.77389 0
M  V30 5016 N 465.601 -1.54893 0.290851 0
M  V30 5017 C 466.878 -1.91991 -0.373989 0
M  V30 5018 C 467.258 -1.21694 -1.72493 0
M  V30 5019 O 466.606 -0.34917 -2.25816 0
M  V30 5020 C 466.816 -3.45419 -0.498703 0
M  V30 5021 C 468.164 -4.1748 -0.774298 0
M  V30 5022 O 469.188 -3.51398 -0.582908 0
M  V30 5023 O 468.047 -5.3445 -1.14129 0
M  V30 5024 H 465.141 -0.800593 -0.207315 0
M  V30 5025 H 467.687 -1.66297 0.338164 0
M  V30 5026 H 466.459 -3.88688 0.451392 0
M  V30 5027 H 466.082 -3.77117 -1.25972 0
M  V30 5028 N 467.08 -0.0183926 -1.57589 0
M  V30 5029 C 468.326 0.663543 -1.91638 0
M  V30 5030 C 468.659 1.72392 -0.894134 0
M  V30 5031 O 467.934 1.94316 0.0846449 0
M  V30 5032 C 468.217 1.28984 -3.36207 0
M  V30 5033 C 468.07 0.239761 -4.49161 0
M  V30 5034 C 469.389 2.2109 -3.80536 0
M  V30 5035 H 466.508 0.239746 -0.696915 0
M  V30 5036 H 469.15 -0.073456 -1.89858 0
M  V30 5037 H 467.3 1.91799 -3.37854 0
M  V30 5038 H 468.972 -0.390119 -4.59647 0
M  V30 5039 H 467.215 -0.435972 -4.31604 0
M  V30 5040 H 467.886 0.717383 -5.47319 0
M  V30 5041 H 470.362 1.68273 -3.80557 0
M  V30 5042 H 469.238 2.61869 -4.82406 0
M  V30 5043 H 469.499 3.09764 -3.15434 0
M  V30 5044 N 468.558 1.5553 0.254621 0
M  V30 5045 C 469.804 1.77262 0.985193 0
M  V30 5046 C 470.137 0.582286 1.85265 0
M  V30 5047 O 469.412 -0.419666 1.89919 0
M  V30 5048 C 469.695 3.0881 1.85225 0
M  V30 5049 C 469.548 4.38233 1.0135 0
M  V30 5050 C 470.867 3.3653 2.83612 0
M  V30 5051 H 467.986 0.644906 0.356742 0
M  V30 5052 H 470.628 1.88264 0.256236 0
M  V30 5053 H 468.778 2.99562 2.47376 0
M  V30 5054 H 470.45 4.59463 0.411269 0
M  V30 5055 H 468.693 4.32636 0.317574 0
M  V30 5056 H 469.364 5.26644 1.65379 0
M  V30 5057 H 471.84 3.45691 2.31596 0
M  V30 5058 H 470.716 4.29805 3.41407 0
M  V30 5059 H 470.977 2.57064 3.59681 0
M  V30 5060 N 470.036 -0.519951 1.48776 0
M  V30 5061 C 470.966 -1.63253 1.66945 0
M  V30 5062 C 471.947 -1.62014 0.518224 0
M  V30 5063 O 473.132 -1.79053 0.751919 0
M  V30 5064 C 470.262 -3.0181 1.71836 0
M  V30 5065 C 469.216 -3.17911 2.8656 0
M  V30 5066 C 468.542 -4.5763 2.76548 0
M  V30 5067 C 469.842 -2.99729 4.27738 0
M  V30 5068 H 471.536 -1.48302 2.6009 0
M  V30 5069 H 469.082 -0.712026 1.25165 0
M  V30 5070 H 471.035 -3.79525 1.83135 0
M  V30 5071 H 469.759 -3.17806 0.752775 0
M  V30 5072 H 468.418 -2.42616 2.74833 0
M  V30 5073 H 468.066 -4.70476 1.77937 0
M  V30 5074 H 467.766 -4.69346 3.53536 0
M  V30 5075 H 469.29 -5.37431 2.89828 0
M  V30 5076 H 470.704 -3.67228 4.40246 0
M  V30 5077 H 469.101 -3.22932 5.05801 0
M  V30 5078 H 470.171 -1.96047 4.43502 0
M  V30 5079 N 471.514 -1.37532 -0.769588 0
M  V30 5080 C 472.444 -1.36172 -1.89682 0
M  V30 5081 C 473.425 -0.23001 -1.68538 0
M  V30 5082 O 474.61 -0.43069 -1.89364 0
M  V30 5083 C 471.74 -1.1701 -3.26995 0
M  V30 5084 C 470.694 -2.27216 -3.62708 0
M  V30 5085 C 470.02 -1.93174 -4.98586 0
M  V30 5086 C 471.32 -3.6941 -3.69234 0
M  V30 5087 H 473.014 -2.30499 -1.91078 0
M  V30 5088 H 470.56 -1.10953 -0.917902 0
M  V30 5089 H 472.513 -1.14688 -4.05493 0
M  V30 5090 H 471.237 -0.191395 -3.26039 0
M  V30 5091 H 469.896 -2.28697 -2.86519 0
M  V30 5092 H 469.544 -0.938281 -4.94171 0
M  V30 5093 H 469.244 -2.66973 -5.23449 0
M  V30 5094 H 470.768 -1.92443 -5.79481 0
M  V30 5095 H 472.182 -3.70047 -4.37879 0
M  V30 5096 H 470.579 -4.4228 -4.05597 0
M  V30 5097 H 471.649 -4.0288 -2.69844 0
M  V30 5098 N 472.992 0.995999 -1.22138 0
M  V30 5099 C 474.22 1.77066 -1.07029 0
M  V30 5100 C 474.635 1.8495 0.379357 0
M  V30 5101 O 473.992 1.3174 1.26297 0
M  V30 5102 C 474.043 3.20533 -1.67155 0
M  V30 5103 O 473.764 3.13082 -3.06449 0
M  V30 5104 C 475.265 4.14461 -1.5728 0
M  V30 5105 H 472.485 0.556179 -0.375374 0
M  V30 5106 H 475.029 1.25238 -1.61666 0
M  V30 5107 H 473.184 3.6944 -1.16589 0
M  V30 5108 H 473.598 4.03283 -3.35355 0
M  V30 5109 H 475.072 5.1289 -2.04078 0
M  V30 5110 H 475.549 4.36005 -0.528795 0
M  V30 5111 H 476.155 3.71449 -2.07136 0
M  V30 5112 N 474.47 1.03057 1.19235 0
M  V30 5113 C 475.433 0.617418 2.20727 0
M  V30 5114 C 476.433 -0.319856 1.57587 0
M  V30 5115 O 477.623 -0.106633 1.73873 0
M  V30 5116 C 474.755 -0.096296 3.40764 0
M  V30 5117 H 475.948 1.51544 2.58794 0
M  V30 5118 H 473.501 0.821949 1.32942 0
M  V30 5119 H 474.236 -1.00859 3.08217 0
M  V30 5120 H 474.021 0.577217 3.87828 0
M  V30 5121 H 475.511 -0.372219 4.15938 0
M  V30 5122 N 475.948 -1.35272 0.808662 0
M  V30 5123 C 477.173 -2.03477 0.401475 0
M  V30 5124 C 477.598 -1.60537 -0.980279 0
M  V30 5125 O 476.956 -0.78304 -1.63518 0
M  V30 5126 C 477.004 -3.57181 0.495354 0
M  V30 5127 O 476.108 -4.09474 -0.490397 0
M  V30 5128 H 475.449 -0.642561 0.167366 0
M  V30 5129 H 477.979 -1.72824 1.09512 0
M  V30 5130 H 477.989 -4.06356 0.365912 0
M  V30 5131 H 476.664 -3.87784 1.5032 0
M  V30 5132 H 475.241 -3.71516 -0.321023 0
M  V30 5133 N 477.426 -0.562348 -1.47226 0
M  V30 5134 C 478.674 -0.0401371 -2.0206 0
M  V30 5135 C 478.995 1.3165 -1.43852 0
M  V30 5136 O 478.265 1.85976 -0.615599 0
M  V30 5137 H 476.845 -0.0118479 -0.746906 0
M  V30 5138 H 479.507 -0.73352 -1.8057 0
M  V30 5139 H 478.603 0.0441254 -3.12069 0
M  V30 5140 N 478.904 1.54736 -0.299062 0
M  V30 5141 C 480.315 1.8569 0.193971 0
M  V30 5142 C 480.666 1.22101 1.53577 0
M  V30 5143 O 479.791 0.51799 2.10109 0
M  V30 5144 C 480.386 3.36895 0.358733 0
M  V30 5145 C 478.945 3.67887 0.795986 0
M  V30 5146 C 478.092 2.77131 -0.096807 0
M  V30 5147 H 481.043 1.49934 -0.520134 0
M  V30 5148 H 481.064 3.61294 1.19361 0
M  V30 5149 H 480.576 3.83148 -0.617998 0
M  V30 5150 H 478.677 3.27151 1.78334 0
M  V30 5151 H 478.79 4.75114 0.616718 0
M  V30 5152 H 477.154 2.51153 0.423581 0
M  V30 5153 H 477.937 3.26204 -1.06986 0
M  V30 5154 N 480.382 0.0267497 1.57577 0
M  V30 5155 C 481.345 -0.940916 2.08996 0
M  V30 5156 C 482.345 -1.25561 1.00455 0
M  V30 5157 O 483.535 -1.19634 1.26623 0
M  V30 5158 C 480.667 -2.25814 2.55384 0
M  V30 5159 H 481.86 -0.495628 2.95776 0
M  V30 5160 H 479.413 -0.221241 1.54726 0
M  V30 5161 H 480.148 -2.74976 1.71926 0
M  V30 5162 H 479.933 -2.04285 3.34679 0
M  V30 5163 H 481.423 -2.95178 2.95398 0
M  V30 5164 N 481.861 -1.55662 -0.24637 0
M  V30 5165 C 483.107 -1.77782 -0.975779 0
M  V30 5166 C 483.44 -0.592103 -1.84953 0
M  V30 5167 O 482.715 0.409588 -1.90138 0
M  V30 5168 C 482.998 -3.09788 -1.83584 0
M  V30 5169 C 482.851 -4.38764 -0.990241 0
M  V30 5170 C 484.17 -3.38029 -2.81823 0
M  V30 5171 H 481.289 -0.646789 -0.353317 0
M  V30 5172 H 483.931 -1.88398 -0.246248 0
M  V30 5173 H 482.081 -3.00869 -2.45784 0
M  V30 5174 H 483.753 -4.59675 -0.386897 0
M  V30 5175 H 481.996 -4.32798 -0.294626 0
M  V30 5176 H 482.667 -5.27514 -1.62584 0
M  V30 5177 H 485.143 -3.46915 -2.2976 0
M  V30 5178 H 484.019 -4.3161 -3.39122 0
M  V30 5179 H 484.28 -2.58968 -3.58313 0
M  V30 5180 N 483.339 0.512053 -1.4905 0
M  V30 5181 C 484.286 1.6148 -1.64902 0
M  V30 5182 C 485.256 1.58687 -0.490673 0
M  V30 5183 O 486.441 1.76842 -0.71636 0
M  V30 5184 C 483.581 2.99676 -1.71139 0
M  V30 5185 C 482.694 3.12568 -2.98203 0
M  V30 5186 C 481.829 4.4143 -2.95487 0
M  V30 5187 C 480.868 4.47916 -4.17179 0
M  V30 5188 N 480.005 5.68191 -4.12437 0
M  V30 5189 H 484.845 1.47271 -2.59066 0
M  V30 5190 H 482.382 0.716713 -1.28459 0
M  V30 5191 H 484.34 3.79761 -1.72736 0
M  V30 5192 H 482.97 3.12614 -0.804508 0
M  V30 5193 H 482.022 2.25618 -3.06269 0
M  V30 5194 H 483.334 3.1322 -3.88194 0
M  V30 5195 H 482.488 5.29825 -2.95585 0
M  V30 5196 H 481.227 4.43326 -2.03256 0
M  V30 5197 H 480.232 3.57925 -4.17337 0
M  V30 5198 H 481.457 4.47744 -5.1059 0
M  V30 5199 H 479.403 5.7095 -3.23036 0
M  V30 5200 H 479.32 5.70413 -4.96151 0
M  V30 5201 H 480.588 6.58823 -4.16621 0
M  V30 5202 N 484.817 1.37938 0.762283 0
M  V30 5203 C 486.233 1.18945 1.06415 0
M  V30 5204 C 486.433 0.0321163 2.01474 0
M  V30 5205 O 485.489 -0.624844 2.44647 0
M  V30 5206 C 486.802 2.51218 1.65258 0
M  V30 5207 C 488.35 2.57824 1.7747 0
M  V30 5208 C 488.825 3.90251 2.39725 0
M  V30 5209 N 490.316 3.91744 2.47166 0
M  V30 5210 C 491.051 4.90966 2.96209 0
M  V30 5211 N 490.547 6.00585 3.45354 0
M  V30 5212 N 492.34 4.78363 2.9517 0
M  V30 5213 H 484.491 2.11994 0.131301 0
M  V30 5214 H 486.754 0.940262 0.120879 0
M  V30 5215 H 486.46 3.36317 1.02878 0
M  V30 5216 H 486.334 2.68989 2.64433 0
M  V30 5217 H 488.721 1.73126 2.3898 0
M  V30 5218 H 488.802 2.43928 0.770241 0
M  V30 5219 H 488.446 4.75368 1.78852 0
M  V30 5220 H 488.376 4.01454 3.40796 0
M  V30 5221 H 490.867 3.12563 2.12397 0
M  V30 5222 H 491.18 6.72236 3.81207 0
M  V30 5223 H 489.525 6.04217 3.43434 0
M  V30 5224 H 492.716 3.91841 2.56082 0
M  V30 5225 H 492.889 5.55843 3.33081 0
M  V30 5226 N 486.295 -0.989507 1.22664 0
M  V30 5227 C 487.544 -1.72375 1.04737 0
M  V30 5228 C 487.857 -1.91096 -0.417316 0
M  V30 5229 O 489.063 -2.6188 -0.716334 0
M  V30 5230 C 487.519 -3.10161 1.82561 0
M  V30 5231 C 487.127 -2.99358 3.333 0
M  V30 5232 C 488.871 -3.87607 1.73093 0
M  V30 5233 C 486.778 -4.32319 4.03552 0
M  V30 5234 H 485.708 -0.646326 0.388302 0
M  V30 5235 H 488.359 -1.10437 1.46546 0
M  V30 5236 H 486.741 -3.728 1.33552 0
M  V30 5237 H 487.915 -2.45863 3.89728 0
M  V30 5238 H 486.23 -2.35392 3.43481 0
M  V30 5239 H 488.827 -4.86025 2.22899 0
M  V30 5240 H 489.17 -4.10509 0.691976 0
M  V30 5241 H 489.703 -3.31652 2.19663 0
M  V30 5242 H 486.442 -4.14616 5.07714 0
M  V30 5243 H 485.962 -4.85714 3.51911 0
M  V30 5244 H 487.641 -5.01051 4.09337 0
M  V30 5245 N 487.773 -1.03688 -1.18687 0
M  V30 5246 C 489.001 -0.757918 -1.92518 0
M  V30 5247 C 489.416 0.684398 -1.75959 0
M  V30 5248 O 488.773 1.46617 -1.08673 0
M  V30 5249 C 488.824 -1.10985 -3.44042 0
M  V30 5250 O 488.545 -2.49554 -3.60076 0
M  V30 5251 C 490.046 -0.854844 -4.3498 0
M  V30 5252 H 487.266 -0.276699 -0.611293 0
M  V30 5253 H 489.81 -1.38352 -1.50595 0
M  V30 5254 H 487.965 -0.529279 -3.83767 0
M  V30 5255 H 488.379 -2.6291 -4.53849 0
M  V30 5256 H 489.853 -1.15098 -5.39867 0
M  V30 5257 H 490.33 0.210507 -4.38695 0
M  V30 5258 H 490.936 -1.41853 -4.00946 0
M  V30 5259 N 489.251 1.34841 -0.815825 0
M  V30 5260 C 490.498 1.98499 -0.400535 0
M  V30 5261 C 490.826 1.64699 1.03463 0
M  V30 5262 O 490.081 0.907006 1.73412 0
M  V30 5263 C 490.38 3.53273 -0.541541 0
M  V30 5264 C 490.046 4.06966 -1.94138 0
M  V30 5265 C 488.708 4.21341 -2.32433 0
M  V30 5266 C 491.06 4.35933 -2.85677 0
M  V30 5267 C 488.388 4.62007 -3.61617 0
M  V30 5268 C 490.74 4.78042 -4.14317 0
M  V30 5269 C 489.404 4.90622 -4.52599 0
M  V30 5270 H 488.674 0.72636 -0.146566 0
M  V30 5271 H 491.321 1.60902 -1.0384 0
M  V30 5272 H 489.626 3.91387 0.179741 0
M  V30 5273 H 491.323 4.00497 -0.20085 0
M  V30 5274 H 487.913 3.96235 -1.63388 0
M  V30 5275 H 492.097 4.24372 -2.57337 0
M  V30 5276 H 487.353 4.69937 -3.91113 0
M  V30 5277 H 491.527 4.99415 -4.85342 0
M  V30 5278 H 489.154 5.2189 -5.52752 0
M  V30 5279 N 490.729 0.570148 1.46925 0
M  V30 5280 C 491.954 0.0542592 2.07329 0
M  V30 5281 C 492.379 -1.23582 1.41806 0
M  V30 5282 O 491.737 -1.74341 0.497479 0
M  V30 5283 C 491.785 -0.111175 3.60429 0
M  V30 5284 O 490.889 -1.17071 3.95434 0
M  V30 5285 H 490.23 0.0571425 0.661537 0
M  V30 5286 H 492.76 0.789516 1.88753 0
M  V30 5287 H 492.77 -0.321315 4.06733 0
M  V30 5288 H 491.445 0.831012 4.07513 0
M  V30 5289 H 490.022 -0.940029 3.60857 0
M  V30 5290 N 492.207 -1.54576 0.307264 0
M  V30 5291 C 493.618 -1.8579 -0.184121 0
M  V30 5292 C 493.969 -1.22914 -1.52927 0
M  V30 5293 O 493.094 -0.529126 -2.09831 0
M  V30 5294 C 493.689 -3.37081 -0.340862 0
M  V30 5295 C 492.248 -3.68304 -0.776465 0
M  V30 5296 C 491.395 -2.77076 0.111503 0
M  V30 5297 H 494.346 -1.49656 0.528078 0
M  V30 5298 H 494.367 -3.61922 -1.17443 0
M  V30 5299 H 493.879 -3.82815 0.638309 0
M  V30 5300 H 491.98 -3.28092 -1.76596 0
M  V30 5301 H 492.093 -4.75434 -0.591512 0
M  V30 5302 H 490.457 -2.51374 -0.410256 0
M  V30 5303 H 491.24 -3.25632 1.08714 0
M  V30 5304 N 493.685 -0.035106 -1.57561 0
M  V30 5305 C 495.096 0.502885 -1.798 0
M  V30 5306 C 495.447 1.71892 -0.945921 0
M  V30 5307 O 494.572 2.15822 -0.157991 0
M  V30 5308 C 495.167 0.919097 -3.26095 0
M  V30 5309 C 493.726 1.40216 -3.49308 0
M  V30 5310 C 492.873 0.369709 -2.74824 0
M  V30 5311 H 495.824 -0.261102 -1.56537 0
M  V30 5312 H 495.845 1.78308 -3.36135 0
M  V30 5313 H 495.357 0.0338526 -3.88085 0
M  V30 5314 H 493.458 2.30714 -2.92578 0
M  V30 5315 H 493.571 1.40541 -4.58023 0
M  V30 5316 H 491.935 0.839113 -2.40481 0
M  V30 5317 H 492.718 -0.507173 -3.39533 0
M  V30 5318 N 495.163 1.55791 0.238111 0
M  V30 5319 C 496.093 1.94068 1.29846 0
M  V30 5320 C 497.074 0.806726 1.49753 0
M  V30 5321 O 498.259 1.06772 1.62214 0
M  V30 5322 C 495.389 2.24302 2.65153 0
M  V30 5323 C 494.343 3.40032 2.59927 0
M  V30 5324 C 493.669 3.55829 3.99111 0
M  V30 5325 C 494.969 4.75476 2.16148 0
M  V30 5326 H 496.663 2.82887 0.980563 0
M  V30 5327 H 494.209 1.36105 0.470253 0
M  V30 5328 H 496.162 2.4967 3.39475 0
M  V30 5329 H 494.886 1.32318 2.98596 0
M  V30 5330 H 493.545 3.14687 1.88063 0
M  V30 5331 H 493.193 2.6125 4.29834 0
M  V30 5332 H 492.893 4.3366 3.96501 0
M  V30 5333 H 494.417 3.83528 4.7512 0
M  V30 5334 H 495.831 5.00158 2.80205 0
M  V30 5335 H 494.228 5.56472 2.24631 0
M  V30 5336 H 495.298 4.71946 1.11333 0
M  V30 5337 N 496.642 -0.504142 1.49319 0
M  V30 5338 C 498.053 -1.08572 1.51885 0
M  V30 5339 C 498.404 -1.93842 0.303255 0
M  V30 5340 O 497.529 -2.0828 -0.58724 0
M  V30 5341 C 498.124 -1.97574 2.75227 0
M  V30 5342 C 496.683 -2.509 2.80581 0
M  V30 5343 C 495.83 -1.28447 2.45757 0
M  V30 5344 H 498.781 -0.288194 1.56061 0
M  V30 5345 H 498.802 -2.82219 2.55211 0
M  V30 5346 H 498.314 -1.35486 3.63683 0
M  V30 5347 H 496.415 -3.16636 1.96398 0
M  V30 5348 H 496.528 -2.88268 3.82673 0
M  V30 5349 H 494.892 -1.60868 1.97468 0
M  V30 5350 H 495.675 -0.68072 3.36483 0
M  V30 5351 N 498.12 -1.38341 -0.754957 0
M  V30 5352 C 499.536 -1.19508 -1.05783 0
M  V30 5353 C 499.736 -0.0428005 -2.01455 0
M  V30 5354 O 498.792 0.611861 -2.44975 0
M  V30 5355 C 500.105 -2.52091 -1.63923 0
M  V30 5356 C 501.653 -2.58762 -1.76101 0
M  V30 5357 C 502.128 -3.91517 -2.37652 0
M  V30 5358 N 503.619 -3.93049 -2.45085 0
M  V30 5359 C 504.354 -4.9253 -2.93602 0
M  V30 5360 N 503.85 -6.02408 -3.42165 0
M  V30 5361 N 505.643 -4.79921 -2.92629 0
M  V30 5362 H 497.794 -2.1206 -0.120056 0
M  V30 5363 H 500.057 -0.94089 -0.11589 0
M  V30 5364 H 499.763 -3.36858 -1.01093 0
M  V30 5365 H 499.637 -2.70388 -2.63003 0
M  V30 5366 H 502.024 -1.74391 -2.38058 0
M  V30 5367 H 502.105 -2.44333 -0.757294 0
M  V30 5368 H 501.749 -4.76309 -1.76329 0
M  V30 5369 H 501.679 -4.03256 -3.38662 0
M  V30 5370 H 504.17 -3.13685 -2.10736 0
M  V30 5371 H 504.483 -6.74248 -3.77637 0
M  V30 5372 H 502.828 -6.0603 -3.40225 0
M  V30 5373 H 506.019 -3.93194 -2.54001 0
M  V30 5374 H 506.192 -5.57601 -3.30128 0
M  V30 5375 N 499.598 0.982988 -1.23187 0
M  V30 5376 C 500.548 2.05962 -0.977942 0
M  V30 5377 C 501.532 1.60725 0.0751148 0
M  V30 5378 O 502.724 1.76471 -0.136683 0
M  V30 5379 C 499.853 3.38564 -0.568276 0
M  V30 5380 C 498.939 3.90407 -1.6566 0
M  V30 5381 N 499.33 4.15359 -2.88635 0
M  V30 5382 C 497.628 4.18915 -1.53058 0
M  V30 5383 C 498.329 4.57642 -3.5908 0
M  V30 5384 N 497.305 4.6192 -2.86584 0
M  V30 5385 H 501.107 2.23208 -1.91195 0
M  V30 5386 H 498.621 1.16555 -1.13087 0
M  V30 5387 H 500.618 4.15276 -0.36764 0
M  V30 5388 H 499.278 3.22712 0.358713 0
M  V30 5389 H 500.289 4.03258 -3.24966 0
M  V30 5390 H 496.966 4.12081 -0.670506 0
M  V30 5391 H 498.356 4.85488 -4.6449 0
M  V30 5392 N 501.076 1.04316 1.18135 0
M  V30 5393 C 502.009 0.580823 2.20685 0
M  V30 5394 C 502.987 -0.385943 1.57953 0
M  V30 5395 O 504.171 -0.299654 1.86103 0
M  V30 5396 C 501.298 -0.151162 3.38363 0
M  V30 5397 C 500.344 0.769247 4.19505 0
M  V30 5398 S 501.177 2.25352 4.85774 0
M  V30 5399 C 502.333 1.53246 6.0685 0
M  V30 5400 H 502.566 1.44968 2.5956 0
M  V30 5401 H 500.099 0.85434 1.28609 0
M  V30 5402 H 502.057 -0.567315 4.06561 0
M  V30 5403 H 500.718 -0.995936 2.97892 0
M  V30 5404 H 499.911 0.203335 5.0359 0
M  V30 5405 H 499.513 1.12436 3.56699 0
M  V30 5406 H 501.805 0.82689 6.72435 0
M  V30 5407 H 502.748 2.35044 6.67952 0
M  V30 5408 H 503.156 1.0237 5.5514 0
M  V30 5409 N 502.554 -1.34406 0.822964 0
M  V30 5410 C 503.486 -2.28305 0.202375 0
M  V30 5411 C 504.499 -1.5103 -0.60777 0
M  V30 5412 O 505.688 -1.73057 -0.437444 0
M  V30 5413 C 502.788 -3.30836 -0.734911 0
M  V30 5414 C 501.961 -4.37388 0.0324177 0
M  V30 5415 C 501.02 -5.1968 -0.825803 0
M  V30 5416 O 500.046 -5.68556 -0.270771 0
M  V30 5417 N 501.248 -5.39393 -2.14558 0
M  V30 5418 H 504.013 -2.82201 1.00909 0
M  V30 5419 H 501.574 -1.4693 0.67993 0
M  V30 5420 H 503.566 -3.82786 -1.31365 0
M  V30 5421 H 502.136 -2.77334 -1.44238 0
M  V30 5422 H 501.356 -3.86152 0.792469 0
M  V30 5423 H 502.644 -5.05702 0.560633 0
M  V30 5424 H 502.042 -5.01357 -2.62025 0
M  V30 5425 H 500.599 -5.94461 -2.67318 0
M  V30 5426 N 504.032 -0.577932 -1.46621 0
M  V30 5427 C 504.942 0.160651 -2.34049 0
M  V30 5428 C 505.958 0.890911 -1.49462 0
M  V30 5429 O 507.134 0.855166 -1.82343 0
M  V30 5430 C 504.199 1.16447 -3.26559 0
M  V30 5431 C 503.26 0.4394 -4.27045 0
M  V30 5432 C 502.493 1.3954 -5.15135 0
M  V30 5433 O 502.716 2.63162 -5.06065 0
M  V30 5434 O 501.65 0.908585 -5.95003 0
M  V30 5435 H 505.476 -0.557057 -2.98547 0
M  V30 5436 H 503.061 -0.338369 -1.45518 0
M  V30 5437 H 504.943 1.7434 -3.83645 0
M  V30 5438 H 503.618 1.86373 -2.64663 0
M  V30 5439 H 502.525 -0.181247 -3.73661 0
M  V30 5440 H 503.858 -0.218799 -4.91713 0
M  V30 5441 N 505.51 1.54411 -0.315457 0
M  V30 5442 C 506.473 2.22713 0.54142 0
M  V30 5443 C 507.473 1.2179 1.04995 0
M  V30 5444 O 508.663 1.46426 0.943667 0
M  V30 5445 C 505.795 2.92485 1.75116 0
M  V30 5446 H 506.988 2.99849 -0.0555508 0
M  V30 5447 H 504.541 1.56159 -0.0664453 0
M  V30 5448 H 505.276 2.19466 2.38758 0
M  V30 5449 H 505.061 3.66483 1.39401 0
M  V30 5450 H 506.551 3.44548 2.35959 0
M  V30 5451 N 506.988 0.0434614 1.5754 0
M  V30 5452 C 507.918 -0.931651 2.14109 0
M  V30 5453 C 508.899 -1.32971 1.06079 0
M  V30 5454 O 510.084 -1.40579 1.33982 0
M  V30 5455 C 507.214 -2.20914 2.67982 0
M  V30 5456 C 506.168 -1.95139 3.80926 0
M  V30 5457 C 505.494 -3.29276 4.21285 0
M  V30 5458 C 506.794 -1.27913 5.06395 0
M  V30 5459 H 508.488 -0.460497 2.95837 0
M  V30 5460 H 506.034 -0.220058 1.42309 0
M  V30 5461 H 507.987 -2.89522 3.06194 0
M  V30 5462 H 506.711 -2.70221 1.83434 0
M  V30 5463 H 505.37 -1.28945 3.43175 0
M  V30 5464 H 505.018 -3.76369 3.33699 0
M  V30 5465 H 504.718 -3.12831 4.97404 0
M  V30 5466 H 506.242 -3.99129 4.62091 0
M  V30 5467 H 507.656 -1.86544 5.42102 0
M  V30 5468 H 506.053 -1.2182 5.87605 0
M  V30 5469 H 507.123 -0.254066 4.84234 0
M  V30 5470 N 508.466 -1.55915 -0.229846 0
M  V30 5471 C 509.882 -1.48721 -0.579166 0
M  V30 5472 C 510.082 -0.736976 -1.87539 0
M  V30 5473 O 509.138 -0.273258 -2.51017 0
M  V30 5474 C 510.451 -2.9323 -0.666082 0
M  V30 5475 C 511.999 -3.03701 -0.757267 0
M  V30 5476 C 512.474 -4.49552 -0.8756 0
M  V30 5477 N 513.965 -4.53561 -0.940035 0
M  V30 5478 C 514.7 -5.63683 -1.05116 0
M  V30 5479 N 514.196 -6.83576 -1.12675 0
M  V30 5480 N 515.989 -5.51516 -1.08565 0
M  V30 5481 H 508.14 -2.03123 0.620857 0
M  V30 5482 H 510.403 -0.922898 0.21671 0
M  V30 5483 H 510.109 -3.51032 0.21664 0
M  V30 5484 H 509.983 -3.44668 -1.53243 0
M  V30 5485 H 512.37 -2.45969 -1.63043 0
M  V30 5486 H 512.451 -2.55446 0.134583 0
M  V30 5487 H 512.095 -5.079 -0.00692351 0
M  V30 5488 H 512.025 -4.95506 -1.78274 0
M  V30 5489 H 514.516 -3.67215 -0.892269 0
M  V30 5490 H 514.829 -7.63251 -1.21109 0
M  V30 5491 H 513.174 -6.86303 -1.09603 0
M  V30 5492 H 516.365 -4.5678 -1.02319 0
M  V30 5493 H 516.538 -6.37372 -1.1688 0
M  V30 5494 N 509.944 0.496216 -1.49584 0
M  V30 5495 C 511.36 0.827814 -1.36453 0
M  V30 5496 C 511.56 1.97464 -0.401285 0
M  V30 5497 O 510.616 2.51958 0.165296 0
M  V30 5498 C 511.929 1.16352 -2.77277 0
M  V30 5499 C 513.477 1.27145 -2.86013 0
M  V30 5500 C 513.952 1.64042 -4.27615 0
M  V30 5501 N 515.443 1.71082 -4.30448 0
M  V30 5502 C 516.178 2.01085 -5.36984 0
M  V30 5503 N 515.674 2.2928 -6.5376 0
M  V30 5504 N 517.467 2.02376 -5.24405 0
M  V30 5505 H 509.618 -0.259947 -2.10803 0
M  V30 5506 H 511.881 -0.0537163 -0.946477 0
M  V30 5507 H 511.587 0.394153 -3.49484 0
M  V30 5508 H 511.461 2.10582 -3.12946 0
M  V30 5509 H 513.848 2.03152 -2.1404 0
M  V30 5510 H 513.929 0.309542 -2.5392 0
M  V30 5511 H 513.573 0.88583 -5.00115 0
M  V30 5512 H 513.503 2.6134 -4.57175 0
M  V30 5513 H 515.994 1.51434 -3.46232 0
M  V30 5514 H 516.307 2.51376 -7.30774 0
M  V30 5515 H 514.652 2.26726 -6.56978 0
M  V30 5516 H 517.843 1.79829 -4.32179 0
M  V30 5517 H 518.016 2.25425 -6.07526 0
M  V30 5518 N 511.423 1.38739 0.74761 0
M  V30 5519 C 512.353 1.39173 1.87492 0
M  V30 5520 C 513.334 0.256794 1.6815 0
M  V30 5521 O 514.519 0.460762 1.88655 0
M  V30 5522 C 511.649 1.22197 3.25093 0
M  V30 5523 C 510.603 2.32957 3.59047 0
M  V30 5524 C 509.929 2.01082 4.95449 0
M  V30 5525 C 511.229 3.75237 3.6331 0
M  V30 5526 H 512.923 2.3351 1.87386 0
M  V30 5527 H 510.469 1.12399 0.900134 0
M  V30 5528 H 512.422 1.21124 4.03617 0
M  V30 5529 H 511.146 0.243241 3.25693 0
M  V30 5530 H 509.805 2.33226 2.82845 0
M  V30 5531 H 509.453 1.01678 4.92616 0
M  V30 5532 H 509.153 2.75267 5.19136 0
M  V30 5533 H 510.677 2.01638 5.76346 0
M  V30 5534 H 512.091 3.76966 4.31937 0
M  V30 5535 H 510.488 4.48677 3.98509 0
M  V30 5536 H 511.558 4.07122 2.634 0
M  V30 5537 N 512.901 -0.976442 1.23707 0
M  V30 5538 C 513.851 -2.0544 0.988851 0
M  V30 5539 C 514.835 -1.60762 -0.0665901 0
M  V30 5540 O 516.027 -1.76396 0.14604 0
M  V30 5541 C 513.156 -3.38258 0.586223 0
M  V30 5542 C 512.242 -3.89523 1.67728 0
M  V30 5543 N 512.633 -4.13823 2.90834 0
M  V30 5544 C 510.931 -4.18097 1.55277 0
M  V30 5545 C 511.632 -4.55731 3.61502 0
M  V30 5546 N 510.608 -4.60394 2.8903 0
M  V30 5547 H 514.41 -2.22191 1.92376 0
M  V30 5548 H 511.924 -1.15954 1.13704 0
M  V30 5549 H 513.921 -4.15075 0.389658 0
M  V30 5550 H 512.581 -3.22898 -0.341594 0
M  V30 5551 H 513.592 -4.01529 3.271 0
M  V30 5552 H 510.269 -4.11719 0.692351 0
M  V30 5553 H 511.659 -4.83018 4.67059 0
M  V30 5554 N 514.379 -1.04941 -1.1758 0
M  V30 5555 C 515.609 -0.777166 -1.91425 0
M  V30 5556 C 516.017 0.670647 -1.76915 0
M  V30 5557 O 515.36 1.46965 -1.10213 0
M  V30 5558 C 515.422 -1.07495 -3.43052 0
M  V30 5559 C 515.086 -2.51844 -3.81345 0
M  V30 5560 C 516.083 -3.50047 -3.844 0
M  V30 5561 C 513.768 -2.86787 -4.12382 0
M  V30 5562 C 515.762 -4.81239 -4.17957 0
M  V30 5563 C 513.449 -4.18182 -4.45608 0
M  V30 5564 C 514.447 -5.15219 -4.48373 0
M  V30 5565 O 514.135 -6.44258 -4.80819 0
M  V30 5566 H 513.867 -0.282209 -0.614275 0
M  V30 5567 H 516.421 -1.40258 -1.50056 0
M  V30 5568 H 514.651 -0.392437 -3.84704 0
M  V30 5569 H 516.34 -0.78912 -3.98155 0
M  V30 5570 H 517.106 -3.24391 -3.60548 0
M  V30 5571 H 512.985 -2.11922 -4.09402 0
M  V30 5572 H 516.529 -5.56974 -4.2003 0
M  V30 5573 H 512.426 -4.43602 -4.68922 0
M  V30 5574 H 513.194 -6.49041 -4.98686 0
M  V30 5575 N 515.857 1.33968 -0.830081 0
M  V30 5576 C 517.103 1.98357 -0.422191 0
M  V30 5577 C 517.436 1.65633 1.01387 0
M  V30 5578 O 516.711 0.931648 1.70735 0
M  V30 5579 C 516.994 3.54492 -0.633043 0
M  V30 5580 C 516.847 3.96934 -2.11574 0
M  V30 5581 C 518.166 4.40039 -0.0735584 0
M  V30 5582 H 515.285 0.720544 -0.154871 0
M  V30 5583 H 517.927 1.58749 -1.04397 0
M  V30 5584 H 516.077 3.88361 -0.103775 0
M  V30 5585 H 517.749 3.73363 -2.7092 0
M  V30 5586 H 515.992 3.46984 -2.60354 0
M  V30 5587 H 516.663 5.05651 -2.21406 0
M  V30 5588 H 519.139 4.12764 -0.52585 0
M  V30 5589 H 518.015 5.48327 -0.250841 0
M  V30 5590 H 518.276 4.30124 1.02202 0
M  V30 5591 N 517.335 0.585699 1.46312 0
M  V30 5592 C 518.746 0.159938 1.86014 0
M  V30 5593 C 519.097 -1.27775 1.48889 0
M  V30 5594 O 518.222 -1.96559 0.90519 0
M  V30 5595 C 518.817 0.283485 3.37612 0
M  V30 5596 C 517.376 -0.0874256 3.76298 0
M  V30 5597 C 516.523 0.618055 2.70325 0
M  V30 5598 H 519.474 0.793737 1.37425 0
M  V30 5599 H 519.495 -0.490348 3.77327 0
M  V30 5600 H 519.007 1.32995 3.64601 0
M  V30 5601 H 517.108 -1.13391 3.54927 0
M  V30 5602 H 517.221 0.290975 4.78216 0
M  V30 5603 H 515.585 0.057993 2.54634 0
M  V30 5604 H 516.368 1.66623 3.00153 0
M  V30 5605 N 518.813 -1.54241 0.323641 0
M  V30 5606 C 519.776 -2.22997 -0.529602 0
M  V30 5607 C 520.776 -1.22345 -1.04347 0
M  V30 5608 O 521.966 -1.46924 -0.935889 0
M  V30 5609 C 519.098 -2.93409 -1.73562 0
M  V30 5610 H 520.291 -2.99815 0.0714518 0
M  V30 5611 H 517.844 -1.56121 0.0747258 0
M  V30 5612 H 518.579 -2.20729 -2.37591 0
M  V30 5613 H 518.364 -3.67217 -1.37456 0
M  V30 5614 H 519.854 -3.45794 -2.34128 0
M  V30 5615 N 520.291 -0.0518155 -1.57515 0
M  V30 5616 C 521.519 0.631395 -1.9703 0
M  V30 5617 C 521.934 1.64341 -0.92938 0
M  V30 5618 O 521.291 1.82296 0.0863266 0
M  V30 5619 C 521.342 1.31774 -3.36627 0
M  V30 5620 O 521.063 0.346247 -4.3673 0
M  V30 5621 C 522.564 2.09065 -3.90905 0
M  V30 5622 H 519.784 0.172576 -0.648428 0
M  V30 5623 H 522.328 -0.118306 -2.04158 0
M  V30 5624 H 520.483 2.01867 -3.30649 0
M  V30 5625 H 520.897 0.836226 -5.17791 0
M  V30 5626 H 522.371 2.52508 -4.9086 0
M  V30 5627 H 522.848 2.93908 -3.26366 0
M  V30 5628 H 523.454 1.43882 -4.00223 0
M  V30 5629 N 521.769 1.56035 0.221574 0
M  V30 5630 C 522.716 1.92413 1.27459 0
M  V30 5631 C 523.686 0.781323 1.46576 0
M  V30 5632 O 524.871 1.03721 1.60145 0
M  V30 5633 C 522.011 2.24617 2.61995 0
M  V30 5634 C 521.124 3.51831 2.50677 0
M  V30 5635 C 520.259 3.73482 3.77736 0
M  V30 5636 C 519.298 4.94211 3.6114 0
M  V30 5637 N 518.435 5.12252 4.80148 0
M  V30 5638 H 523.275 2.82203 0.957355 0
M  V30 5639 H 520.812 1.39676 0.461415 0
M  V30 5640 H 522.77 2.41298 3.40339 0
M  V30 5641 H 521.4 1.38 2.91815 0
M  V30 5642 H 520.452 3.43343 1.63767 0
M  V30 5643 H 521.764 4.40328 2.34334 0
M  V30 5644 H 520.918 3.9026 4.64523 0
M  V30 5645 H 519.657 2.83266 3.97003 0
M  V30 5646 H 518.662 4.77384 2.72736 0
M  V30 5647 H 519.887 5.85912 3.43343 0
M  V30 5648 H 517.833 4.24978 4.99729 0
M  V30 5649 H 517.75 5.94881 4.66532 0
M  V30 5650 H 519.018 5.33465 5.68362 0
M  V30 5651 N 523.247 -0.488276 1.49845 0
M  V30 5652 C 524.493 -1.24341 1.6021 0
M  V30 5653 C 524.826 -1.91967 0.293651 0
M  V30 5654 O 524.101 -1.81323 -0.703718 0
M  V30 5655 C 524.384 -2.3005 2.77036 0
M  V30 5656 C 524.237 -1.66842 4.17713 0
M  V30 5657 C 525.556 -3.31509 2.89464 0
M  V30 5658 H 522.675 -0.450704 0.583125 0
M  V30 5659 H 525.317 -0.539673 1.82174 0
M  V30 5660 H 523.467 -2.90071 2.58439 0
M  V30 5661 H 525.139 -1.1055 4.47858 0
M  V30 5662 H 523.382 -0.972079 4.22768 0
M  V30 5663 H 524.053 -2.43576 4.95353 0
M  V30 5664 H 526.529 -2.81493 3.06433 0
M  V30 5665 H 525.405 -4.02822 3.72861 0
M  V30 5666 H 525.666 -3.94603 1.99351 0
M  V30 5667 N 524.725 -1.39134 -0.740242 0
M  V30 5668 C 525.972 -1.36071 -1.49969 0
M  V30 5669 C 526.3 0.0450245 -1.94448 0
M  V30 5670 O 525.555 1.02482 -1.66721 0
M  V30 5671 C 525.854 -2.27457 -2.75678 0
M  V30 5672 C 525.52 -3.75185 -2.50094 0
M  V30 5673 C 524.182 -4.15439 -2.42825 0
M  V30 5674 C 526.534 -4.68643 -2.28086 0
M  V30 5675 C 523.862 -5.4722 -2.11584 0
M  V30 5676 C 526.214 -6.00695 -1.98363 0
M  V30 5677 C 524.878 -6.40018 -1.8956 0
M  V30 5678 H 524.148 -0.497921 -0.548777 0
M  V30 5679 H 526.795 -1.71599 -0.85007 0
M  V30 5680 H 525.1 -1.8503 -3.45356 0
M  V30 5681 H 526.797 -2.22384 -3.33686 0
M  V30 5682 H 523.387 -3.43279 -2.56627 0
M  V30 5683 H 527.571 -4.3838 -2.32672 0
M  V30 5684 H 522.827 -5.76615 -2.03287 0
M  V30 5685 H 527.001 -6.72644 -1.80341 0
M  V30 5686 H 524.628 -7.42051 -1.65117 0
M  V30 5687 N 526.204 0.969867 -1.24223 0
M  V30 5688 C 527.134 2.08191 -1.05729 0
M  V30 5689 C 528.115 1.70075 0.0290765 0
M  V30 5690 O 529.3 1.93712 -0.137583 0
M  V30 5691 C 526.43 3.40991 -0.658995 0
M  V30 5692 C 525.384 3.93054 -1.69389 0
M  V30 5693 C 524.71 5.22171 -1.15072 0
M  V30 5694 C 526.01 4.21137 -3.08935 0
M  V30 5695 H 527.704 2.23921 -1.98746 0
M  V30 5696 H 525.25 1.07602 -0.956967 0
M  V30 5697 H 527.203 4.18221 -0.51662 0
M  V30 5698 H 525.927 3.25155 0.30686 0
M  V30 5699 H 524.586 3.17977 -1.82444 0
M  V30 5700 H 524.234 5.02694 -0.175539 0
M  V30 5701 H 523.934 5.57973 -1.84229 0
M  V30 5702 H 525.458 6.02013 -1.02042 0
M  V30 5703 H 526.872 4.8908 -2.99121 0
M  V30 5704 H 525.269 4.68163 -3.75425 0
M  V30 5705 H 526.339 3.27996 -3.57137 0
M  V30 5706 N 527.682 1.05563 1.17022 0
M  V30 5707 C 528.907 0.788437 1.91829 0
M  V30 5708 C 529.332 -0.650356 1.76499 0
M  V30 5709 O 528.69 -1.45229 1.08527 0
M  V30 5710 C 528.738 1.1786 3.40795 0
M  V30 5711 O 527.842 0.312965 4.11211 0
M  V30 5712 H 527.183 0.288794 0.597908 0
M  V30 5713 H 529.713 1.40948 1.48307 0
M  V30 5714 H 529.723 1.14697 3.91546 0
M  V30 5715 H 528.398 2.22666 3.51273 0
M  V30 5716 H 526.975 0.405515 3.70689 0
M  V30 5717 N 529.16 -1.33526 0.837174 0
M  V30 5718 C 530.407 -1.97837 0.432064 0
M  V30 5719 C 530.735 -1.66324 -1.00829 0
M  V30 5720 O 529.99 -0.93448 -1.71948 0
M  V30 5721 C 530.289 -3.52367 0.597675 0
M  V30 5722 C 529.955 -4.03826 2.00587 0
M  V30 5723 C 528.617 -4.1759 2.39106 0
M  V30 5724 C 530.969 -4.31333 2.92576 0
M  V30 5725 C 528.297 -4.56195 3.68921 0
M  V30 5726 C 530.649 -4.7139 4.2187 0
M  V30 5727 C 529.313 -4.8336 4.60347 0
M  V30 5728 H 528.583 -0.723937 0.158104 0
M  V30 5729 H 531.23 -1.5923 1.06387 0
M  V30 5730 H 529.535 -3.91624 -0.117452 0
M  V30 5731 H 531.232 -4.00126 0.26454 0
M  V30 5732 H 527.822 -3.93586 1.69671 0
M  V30 5733 H 532.006 -4.20224 2.64056 0
M  V30 5734 H 527.262 -4.63655 3.9854 0
M  V30 5735 H 531.436 -4.91631 4.93226 0
M  V30 5736 H 529.063 -5.1303 5.60985 0
M  V30 5737 N 530.638 -0.59345 -1.46 0
M  V30 5738 C 532.054 -0.255965 -1.57534 0
M  V30 5739 C 532.254 1.24167 -1.58697 0
M  V30 5740 O 531.31 2.02398 -1.50968 0
M  V30 5741 C 532.623 -0.91466 -2.86451 0
M  V30 5742 C 534.171 -0.889253 -3.00102 0
M  V30 5743 C 534.646 -1.52769 -4.3177 0
M  V30 5744 N 536.137 -1.49253 -4.38495 0
M  V30 5745 C 536.872 -1.9558 -5.39014 0
M  V30 5746 N 536.368 -2.49929 -6.46148 0
M  V30 5747 N 538.161 -1.86432 -5.30282 0
M  V30 5748 H 530.312 -1.56604 -1.43489 0
M  V30 5749 H 532.575 -0.655207 -0.685133 0
M  V30 5750 H 532.281 -1.96861 -2.91442 0
M  V30 5751 H 532.155 -0.429356 -3.74748 0
M  V30 5752 H 534.542 0.156111 -2.94687 0
M  V30 5753 H 534.623 -1.41268 -2.13253 0
M  V30 5754 H 534.267 -2.57231 -4.37944 0
M  V30 5755 H 534.197 -0.979398 -5.17412 0
M  V30 5756 H 536.688 -1.09536 -3.61677 0
M  V30 5757 H 537.001 -2.83109 -7.19075 0
M  V30 5758 H 535.346 -2.53961 -6.46938 0
M  V30 5759 H 538.537 -1.43722 -4.4549 0
M  V30 5760 H 538.71 -2.22852 -6.08474 0
M  V30 5761 N 532.116 1.54067 -0.331816 0
M  V30 5762 C 533.532 1.59587 0.0205388 0
M  V30 5763 C 533.732 1.34813 1.49759 0
M  V30 5764 O 532.788 1.13661 2.25471 0
M  V30 5765 C 534.101 2.97959 -0.405103 0
M  V30 5766 C 535.649 3.10964 -0.356454 0
M  V30 5767 C 536.124 4.51694 -0.757384 0
M  V30 5768 N 537.615 4.57709 -0.71111 0
M  V30 5769 C 538.35 5.64729 -0.993427 0
M  V30 5770 N 537.846 6.79652 -1.3433 0
M  V30 5771 N 539.639 5.54546 -0.918442 0
M  V30 5772 H 531.79 1.68426 -1.29407 0
M  V30 5773 H 534.053 0.78819 -0.526745 0
M  V30 5774 H 533.759 3.21115 -1.43451 0
M  V30 5775 H 533.633 3.76524 0.225692 0
M  V30 5776 H 536.02 2.87538 0.663763 0
M  V30 5777 H 536.101 2.34484 -1.02229 0
M  V30 5778 H 535.745 4.75853 -1.77555 0
M  V30 5779 H 535.675 5.26555 -0.0691444 0
M  V30 5780 H 538.166 3.75176 -0.452883 0
M  V30 5781 H 538.479 7.57221 -1.54388 0
M  V30 5782 H 536.824 6.81128 -1.38164 0
M  V30 5783 H 540.015 4.63641 -0.644536 0
M  V30 5784 H 540.188 6.37861 -1.14181 0
M  V30 5785 N 533.594 0.0601682 1.57485 0
M  V30 5786 C 535.005 -0.474217 1.80577 0
M  V30 5787 C 535.356 -1.70365 0.973147 0
M  V30 5788 O 534.481 -2.15544 0.192306 0
M  V30 5789 C 535.076 -0.867102 3.27516 0
M  V30 5790 C 533.635 -1.34642 3.51495 0
M  V30 5791 C 532.782 -0.32594 2.75378 0
M  V30 5792 H 535.733 0.285973 1.56102 0
M  V30 5793 H 535.754 -1.72938 3.38929 0
M  V30 5794 H 535.266 0.0278927 3.8809 0
M  V30 5795 H 533.367 -2.2603 2.96212 0
M  V30 5796 H 533.48 -1.33237 4.60201 0
M  V30 5797 H 531.844 -0.800749 2.41785 0
M  V30 5798 H 532.627 0.561125 3.38683 0
M  V30 5799 N 535.072 -1.5615 -0.213296 0
M  V30 5800 C 536.319 -1.79546 -0.936462 0
M  V30 5801 C 536.647 -0.630337 -1.84003 0
M  V30 5802 O 535.902 0.384883 -1.91878 0
M  V30 5803 C 536.201 -3.08772 -1.79985 0
M  V30 5804 C 535.867 -4.38532 -1.04882 0
M  V30 5805 C 534.529 -4.73787 -0.841393 0
M  V30 5806 C 536.881 -5.18609 -0.51907 0
M  V30 5807 C 534.209 -5.86627 -0.0924403 0
M  V30 5808 C 536.561 -6.32229 0.216581 0
M  V30 5809 C 535.225 -6.6608 0.435191 0
M  V30 5810 H 534.495 -0.657004 -0.342676 0
M  V30 5811 H 537.142 -1.9041 -0.204051 0
M  V30 5812 H 535.447 -2.93065 -2.60038 0
M  V30 5813 H 537.144 -3.24077 -2.36168 0
M  V30 5814 H 533.734 -4.10855 -1.22048 0
M  V30 5815 H 537.918 -4.91801 -0.666775 0
M  V30 5816 H 533.174 -6.11338 0.087081 0
M  V30 5817 H 537.348 -6.93503 0.634538 0
M  V30 5818 H 534.975 -7.5336 1.01746 0
M  V30 5819 N 536.55 0.480323 -1.50102 0
M  V30 5820 C 537.796 1.23208 -1.61837 0
M  V30 5821 C 538.151 1.89878 -0.310509 0
M  V30 5822 O 537.444 1.7871 0.690897 0
M  V30 5823 C 537.638 2.30708 -2.72963 0
M  V30 5824 C 537.467 1.74583 -4.14428 0
M  V30 5825 C 536.237 1.54964 -4.80951 0
M  V30 5826 C 538.435 1.24597 -4.98979 0
M  V30 5827 N 536.417 0.939855 -6.06663 0
M  V30 5828 C 537.788 0.758834 -6.15339 0
M  V30 5829 C 539.843 1.13365 -4.84822 0
M  V30 5830 C 538.546 0.17046 -7.19098 0
M  V30 5831 C 540.572 0.559221 -5.8875 0
M  V30 5832 C 539.934 0.082415 -7.04352 0
M  V30 5833 H 536.033 0.440065 -0.646426 0
M  V30 5834 H 538.617 0.535632 -1.87187 0
M  V30 5835 H 536.788 2.9779 -2.4935 0
M  V30 5836 H 538.52 2.97738 -2.74106 0
M  V30 5837 H 535.275 1.79926 -4.38091 0
M  V30 5838 H 535.699 0.653641 -6.73837 0
M  V30 5839 H 540.341 1.48823 -3.95742 0
M  V30 5840 H 538.059 -0.196347 -8.07861 0
M  V30 5841 H 541.645 0.474804 -5.79859 0
M  V30 5842 H 540.525 -0.355119 -7.83396 0
M  V30 5843 N 538.028 1.39524 0.732853 0
M  V30 5844 C 539.444 1.21176 1.03868 0
M  V30 5845 C 539.644 0.0748448 2.01361 0
M  V30 5846 O 538.7 -0.57281 2.45917 0
M  V30 5847 C 540.013 2.54667 1.59892 0
M  V30 5848 C 541.561 2.6153 1.71962 0
M  V30 5849 C 542.036 3.95248 2.31394 0
M  V30 5850 N 543.527 3.96899 2.38801 0
M  V30 5851 C 544.262 4.97138 2.85729 0
M  V30 5852 N 543.758 6.07775 3.32537 0
M  V30 5853 N 545.551 4.84516 2.84957 0
M  V30 5854 H 537.702 2.12225 0.086304 0
M  V30 5855 H 539.965 0.942614 0.100907 0
M  V30 5856 H 539.671 3.38423 0.95721 0
M  V30 5857 H 539.545 2.74538 2.58668 0
M  V30 5858 H 541.932 1.78156 2.35254 0
M  V30 5859 H 542.013 2.45507 0.718327 0
M  V30 5860 H 541.657 4.79054 1.68729 0
M  V30 5861 H 541.587 4.08593 3.32204 0
M  V30 5862 H 544.078 3.16998 2.05719 0
M  V30 5863 H 544.391 6.8017 3.66862 0
M  V30 5864 H 542.736 6.11366 3.30541 0
M  V30 5865 H 545.927 3.97185 2.47713 0
M  V30 5866 H 546.1 5.62783 3.21215 0
M  V30 5867 N 539.506 -0.963266 1.24736 0
M  V30 5868 C 540.416 -2.09246 1.06082 0
M  V30 5869 C 541.432 -1.74 0.000363101 0
M  V30 5870 O 542.608 -2.0041 0.199479 0
M  V30 5871 C 539.673 -3.40115 0.672498 0
M  V30 5872 C 538.734 -3.89282 1.80993 0
M  V30 5873 C 537.967 -5.13905 1.44004 0
M  V30 5874 O 538.19 -5.69434 0.331835 0
M  V30 5875 O 537.124 -5.57566 2.26723 0
M  V30 5876 H 540.95 -2.27881 2.00759 0
M  V30 5877 H 538.535 -1.07649 1.03595 0
M  V30 5878 H 540.417 -4.18797 0.467668 0
M  V30 5879 H 539.092 -3.22771 -0.245102 0
M  V30 5880 H 537.999 -3.11642 2.06955 0
M  V30 5881 H 539.332 -4.1111 2.70646 0
M  V30 5882 N 540.985 -1.06182 -1.16461 0
M  V30 5883 C 541.895 -0.682671 -2.24448 0
M  V30 5884 C 542.911 0.30078 -1.71381 0
M  V30 5885 O 544.087 0.150376 -2.00838 0
M  V30 5886 C 541.152 -0.0737202 -3.46622 0
M  V30 5887 C 540.213 -1.10889 -4.14731 0
M  V30 5888 C 539.446 -0.528908 -5.31073 0
M  V30 5889 O 539.669 0.65868 -5.66584 0
M  V30 5890 O 538.603 -1.26805 -5.88391 0
M  V30 5891 H 542.429 -1.58291 -2.59187 0
M  V30 5892 H 540.014 -0.834013 -1.23954 0
M  V30 5893 H 541.896 0.264192 -4.20571 0
M  V30 5894 H 540.571 0.800015 -3.13658 0
M  V30 5895 H 539.478 -1.49896 -3.42756 0
M  V30 5896 H 540.811 -1.95412 -4.51747 0
M  V30 5897 N 542.463 1.3308 -0.844243 0
M  V30 5898 C 543.413 2.26589 -0.253289 0
M  V30 5899 C 544.397 1.49501 0.594836 0
M  V30 5900 O 545.589 1.71291 0.445924 0
M  V30 5901 C 542.718 3.38599 0.566176 0
M  V30 5902 C 541.804 4.23081 -0.293756 0
M  V30 5903 N 542.195 4.86751 -1.37505 0
M  V30 5904 C 540.493 4.45925 -0.0817086 0
M  V30 5905 C 541.194 5.49684 -1.90323 0
M  V30 5906 N 540.17 5.30101 -1.20391 0
M  V30 5907 H 543.972 2.73334 -1.08009 0
M  V30 5908 H 541.486 1.47048 -0.689258 0
M  V30 5909 H 543.483 4.04584 1.00587 0
M  V30 5910 H 542.143 2.93401 1.39089 0
M  V30 5911 H 543.154 4.87151 -1.75796 0
M  V30 5912 H 539.831 4.11434 0.709129 0
M  V30 5913 H 541.221 6.10363 -2.80902 0
M  V30 5914 N 543.941 0.601185 1.45683 0
M  V30 5915 C 545.19 0.0914953 2.01492 0
M  V30 5916 C 545.503 -1.28331 1.47616 0
M  V30 5917 O 546.709 -1.88537 1.95362 0
M  V30 5918 C 545.165 0.11291 3.59723 0
M  V30 5919 C 544.773 1.48717 4.22596 0
M  V30 5920 C 546.517 -0.341871 4.23121 0
M  V30 5921 C 544.424 1.46531 5.7296 0
M  V30 5922 H 543.354 0.0304365 0.753385 0
M  V30 5923 H 546.005 0.755568 1.67223 0
M  V30 5924 H 544.387 -0.617692 3.91153 0
M  V30 5925 H 545.561 2.23897 4.02749 0
M  V30 5926 H 543.876 1.88351 3.71366 0
M  V30 5927 H 546.473 -0.377304 5.33367 0
M  V30 5928 H 546.816 -1.36325 3.93346 0
M  V30 5929 H 547.349 0.335256 3.96385 0
M  V30 5930 H 544.088 2.46408 6.07423 0
M  V30 5931 H 543.608 0.755997 5.95017 0
M  V30 5932 H 545.287 1.18618 6.36034 0
M  V30 5933 N 545.419 -1.53889 0.339982 0
M  V30 5934 C 546.329 -2.28604 -0.526988 0
M  V30 5935 C 547.345 -1.33578 -1.11503 0
M  V30 5936 O 548.521 -1.66612 -1.13148 0
M  V30 5937 C 545.586 -3.04164 -1.66389 0
M  V30 5938 C 544.647 -4.14809 -1.10599 0
M  V30 5939 C 543.88 -4.86756 -2.18871 0
M  V30 5940 O 544.103 -4.58343 -3.39526 0
M  V30 5941 O 543.037 -5.73289 -1.83366 0
M  V30 5942 H 546.863 -3.03594 0.0802707 0
M  V30 5943 H 544.448 -1.4903 0.105141 0
M  V30 5944 H 546.33 -3.51427 -2.32544 0
M  V30 5945 H 545.005 -2.32035 -2.25703 0
M  V30 5946 H 543.912 -3.71857 -0.409067 0
M  V30 5947 H 545.245 -4.89029 -0.557771 0
M  V30 5948 N 546.897 -0.0685191 -1.57451 0
M  V30 5949 C 548.145 0.60016 -1.92983 0
M  V30 5950 C 548.466 1.70348 -0.949028 0
M  V30 5951 O 547.736 1.959 0.00335647 0
M  V30 5952 H 546.316 0.224682 -0.712409 0
M  V30 5953 H 548.978 -0.125605 -1.94495 0
M  V30 5954 H 548.074 1.02759 -2.94698 0
M  V30 5955 N 548.375 1.56261 0.205012 0
M  V30 5956 C 549.623 1.79684 0.925096 0
M  V30 5957 C 549.944 0.63989 1.84202 0
M  V30 5958 O 549.214 -0.342345 1.92885 0
M  V30 5959 H 547.794 0.662774 0.344587 0
M  V30 5960 H 550.456 1.93734 0.212899 0
M  V30 5961 H 549.552 2.72467 1.52211 0
M  V30 5962 N 549.853 -0.472356 1.50355 0
M  V30 5963 C 550.803 -1.56809 1.65514 0
M  V30 5964 C 551.787 -1.5261 0.509801 0
M  V30 5965 O 552.979 -1.59655 0.764145 0
M  V30 5966 C 550.108 -2.9526 1.75146 0
M  V30 5967 C 549.194 -3.04348 2.95353 0
M  V30 5968 N 549.585 -2.83253 4.19048 0
M  V30 5969 C 547.883 -3.35482 2.93884 0
M  V30 5970 C 548.584 -2.97273 5.00003 0
M  V30 5971 N 547.56 -3.27418 4.33934 0
M  V30 5972 H 551.362 -1.39197 2.58846 0
M  V30 5973 H 548.876 -0.67906 1.47521 0
M  V30 5974 H 550.873 -3.74044 1.8411 0
M  V30 5975 H 549.533 -3.1392 0.829717 0
M  V30 5976 H 550.544 -2.5886 4.48567 0
M  V30 5977 H 547.221 -3.60138 2.11204 0
M  V30 5978 H 548.611 -2.85214 6.08361 0
M  V30 5979 N 551.331 -1.39911 -0.725443 0
M  V30 5980 C 552.556 -1.41137 -1.5197 0
M  V30 5981 C 552.981 -0.010262 -1.88097 0
M  V30 5982 O 552.339 0.979184 -1.52583 0
M  V30 5983 C 552.387 -2.2994 -2.77777 0
M  V30 5984 O 551.491 -1.73586 -3.74088 0
M  V30 5985 H 550.832 -0.480219 -0.458569 0
M  V30 5986 H 553.362 -1.84023 -0.894249 0
M  V30 5987 H 553.372 -2.44785 -3.26411 0
M  V30 5988 H 552.047 -3.31759 -2.50816 0
M  V30 5989 H 550.624 -1.68035 -3.32894 0
M  V30 5990 N 552.809 0.956637 -1.25245 0
M  V30 5991 C 553.757 2.0743 -1.0524 0
M  V30 5992 C 554.751 1.69392 0.0160725 0
M  V30 5993 O 555.957 1.7946 -0.139382 0
M  V30 5994 H 552.332 0.678921 -0.323373 0
M  V30 5995 H 554.303 2.2146 -1.99995 0
M  V30 5996 C 553.052 3.40872 -0.685702 0
M  V30 5997 H 552.375 3.70607 -1.49968 0
M  V30 5998 H 553.815 4.19939 -0.585415 0
M  V30 5999 C 552.274 3.31367 0.608082 0
M  V30 6000 O 552.804 3.66214 1.65076 0
M  V30 6001 N 551.01 2.84486 0.592955 0
M  V30 6002 H 550.557 2.56326 -0.25592 0
M  V30 6003 H 550.515 2.78509 1.45877 0
M  V30 6004 N 554.287 1.06798 1.15896 0
M  V30 6005 C 555.515 0.808694 1.90441 0
M  V30 6006 C 555.93 -0.637506 1.77711 0
M  V30 6007 O 555.287 -1.43684 1.12522 0
M  V30 6008 C 555.338 1.20068 3.40978 0
M  V30 6009 O 555.059 2.59013 3.53333 0
M  V30 6010 C 556.56 0.96987 4.3256 0
M  V30 6011 H 553.78 0.292809 0.603742 0
M  V30 6012 H 556.324 1.42296 1.46874 0
M  V30 6013 H 554.479 0.630842 3.82229 0
M  V30 6014 H 554.893 2.7485 4.46719 0
M  V30 6015 H 556.367 1.29371 5.36626 0
M  V30 6016 H 556.844 -0.0941209 4.39099 0
M  V30 6017 H 557.45 1.52433 3.97044 0
M  V30 6018 N 555.766 -1.3263 0.851289 0
M  V30 6019 C 557.043 -1.91982 0.374448 0
M  V30 6020 C 557.423 -1.77568 -1.14161 0
M  V30 6021 O 556.771 -1.1717 -1.96172 0
M  V30 6022 C 556.981 -3.38862 0.835088 0
M  V30 6023 C 558.329 -4.15999 0.850309 0
M  V30 6024 O 559.353 -3.47566 0.779505 0
M  V30 6025 O 558.212 -5.38189 0.949481 0
M  V30 6026 H 555.306 -0.819846 0.10854 0
M  V30 6027 H 557.852 -1.41422 0.937966 0
M  V30 6028 H 556.624 -3.43281 1.87814 0
M  V30 6029 H 556.247 -3.96821 0.248833 0
M  V30 6030 N 557.244 -0.608902 -1.45362 0
M  V30 6031 C 558.66 -0.272659 -1.57254 0
M  V30 6032 C 558.86 1.22477 -1.60005 0
M  V30 6033 O 557.916 2.00785 -1.53106 0
M  V30 6034 C 559.229 -0.944991 -2.85465 0
M  V30 6035 C 560.777 -0.921033 -2.99142 0
M  V30 6036 C 561.252 -1.5734 -4.30126 0
M  V30 6037 N 562.743 -1.53895 -4.36887 0
M  V30 6038 C 563.478 -2.01286 -5.36909 0
M  V30 6039 N 562.974 -2.56768 -6.43461 0
M  V30 6040 N 564.767 -1.92046 -5.28275 0
M  V30 6041 H 556.918 -1.58117 -1.4182 0
M  V30 6042 H 559.181 -0.662437 -0.678146 0
M  V30 6043 H 558.887 -1.99941 -2.89338 0
M  V30 6044 H 558.761 -0.469079 -3.74272 0
M  V30 6045 H 561.148 0.124846 -2.94836 0
M  V30 6046 H 561.229 -1.43522 -2.11743 0
M  V30 6047 H 560.873 -2.61862 -4.35191 0
M  V30 6048 H 560.803 -1.03422 -5.16344 0
M  V30 6049 H 563.294 -1.13366 -3.60495 0
M  V30 6050 H 563.607 -2.9072 -7.16032 0
M  V30 6051 H 561.952 -2.60808 -6.44208 0
M  V30 6052 H 565.143 -1.48439 -4.43941 0
M  V30 6053 H 565.316 -2.29293 -6.06077 0
M  V30 6054 N 558.722 1.53707 -0.348139 0
M  V30 6055 C 560.133 1.86213 0.134797 0
M  V30 6056 C 560.484 1.26925 1.49614 0
M  V30 6057 O 559.609 0.584573 2.08355 0
M  V30 6058 C 560.204 3.37866 0.251371 0
M  V30 6059 C 558.763 3.70233 0.678543 0
M  V30 6060 C 557.91 2.76683 -0.184925 0
M  V30 6061 H 560.861 1.48204 -0.567571 0
M  V30 6062 H 560.882 3.64908 1.07806 0
M  V30 6063 H 560.394 3.80988 -0.739581 0
M  V30 6064 H 558.495 3.32659 1.67835 0
M  V30 6065 H 558.608 4.76836 0.465251 0
M  V30 6066 H 556.972 2.52374 0.343465 0
M  V30 6067 H 557.755 3.22635 -1.1731 0
M  V30 6068 N 560.2 0.0768682 1.57412 0
M  V30 6069 C 561.425 -0.603404 1.98428 0
M  V30 6070 C 561.85 -1.62047 0.955108 0
M  V30 6071 O 561.208 -1.81129 -0.0786778 0
M  V30 6072 C 561.256 -1.24396 3.38464 0
M  V30 6073 O 560.36 -2.35982 3.3821 0
M  V30 6074 H 559.701 -0.154741 0.645718 0
M  V30 6075 H 562.231 0.152885 2.04028 0
M  V30 6076 H 562.241 -1.5896 3.7576 0
M  V30 6077 H 560.916 -0.498735 4.12899 0
M  V30 6078 H 559.493 -2.03173 3.1269 0
M  V30 6079 N 561.678 -1.56367 -0.196722 0
M  V30 6080 C 563.094 -1.49916 -0.54749 0
M  V30 6081 C 563.294 -0.77659 -1.85934 0
M  V30 6082 O 562.35 -0.32644 -2.50381 0
M  V30 6083 C 563.663 -2.94577 -0.603734 0
M  V30 6084 C 565.211 -3.05239 -0.692677 0
M  V30 6085 C 565.686 -4.51308 -0.780046 0
M  V30 6086 N 567.177 -4.55453 -0.843616 0
M  V30 6087 C 567.912 -5.65786 -0.931358 0
M  V30 6088 N 567.408 -6.85812 -0.981503 0
M  V30 6089 N 569.201 -5.53695 -0.968421 0
M  V30 6090 H 561.352 -2.01761 0.663803 0
M  V30 6091 H 563.615 -0.918094 0.236238 0
M  V30 6092 H 563.321 -3.50494 0.29105 0
M  V30 6093 H 563.195 -3.47841 -1.45898 0
M  V30 6094 H 565.582 -2.49372 -1.57789 0
M  V30 6095 H 565.663 -2.55103 0.188736 0
M  V30 6096 H 565.307 -5.078 0.100811 0
M  V30 6097 H 565.237 -4.99176 -1.67724 0
M  V30 6098 H 567.728 -3.69025 -0.814176 0
M  V30 6099 H 568.041 -7.65648 -1.04892 0
M  V30 6100 H 566.386 -6.88474 -0.950208 0
M  V30 6101 H 569.577 -4.58848 -0.926072 0
M  V30 6102 H 569.75 -6.39708 -1.03334 0
M  V30 6103 N 563.156 0.464375 -1.50603 0
M  V30 6104 C 564.089 1.58052 -1.64605 0
M  V30 6105 C 565.067 1.54914 -0.494016 0
M  V30 6106 O 566.251 1.74438 -0.714393 0
M  V30 6107 C 563.378 2.96634 -1.63481 0
M  V30 6108 C 562.424 3.17901 -2.84325 0
M  V30 6109 S 563.257 2.97083 -4.45536 0
M  V30 6110 C 564.413 4.37994 -4.47115 0
M  V30 6111 H 564.646 1.45937 -2.59017 0
M  V30 6112 H 562.179 0.652189 -1.39949 0
M  V30 6113 H 564.137 3.76527 -1.63517 0
M  V30 6114 H 562.798 3.06134 -0.702928 0
M  V30 6115 H 561.991 4.19158 -2.79862 0
M  V30 6116 H 561.593 2.45792 -2.81891 0
M  V30 6117 H 563.885 5.30743 -4.21091 0
M  V30 6118 H 564.828 4.47499 -5.48772 0
M  V30 6119 H 565.236 4.20386 -3.76743 0
M  V30 6120 N 564.634 1.40294 0.718013 0
M  V30 6121 C 565.883 1.37746 1.4734 0
M  V30 6122 C 566.196 -0.0180754 1.95592 0
M  V30 6123 O 567.402 -0.166166 2.70991 0
M  V30 6124 C 565.858 2.4208 2.66318 0
M  V30 6125 C 565.466 3.87432 2.24945 0
M  V30 6126 C 567.21 2.48635 3.44065 0
M  V30 6127 C 565.117 4.83368 3.40748 0
M  V30 6128 H 564.047 0.512165 0.553356 0
M  V30 6129 H 566.698 1.66019 0.781661 0
M  V30 6130 H 565.08 2.06903 3.3765 0
M  V30 6131 H 566.254 4.3174 1.6105 0
M  V30 6132 H 564.569 3.8433 1.60249 0
M  V30 6133 H 567.166 3.17499 4.30231 0
M  V30 6134 H 567.509 1.51611 3.87711 0
M  V30 6135 H 568.042 2.82791 2.79775 0
M  V30 6136 H 564.781 5.81716 3.02136 0
M  V30 6137 H 564.301 4.43726 4.03568 0
M  V30 6138 H 565.98 5.03074 4.06848 0
M  V30 6139 N 566.112 -0.949982 1.2575 0
M  V30 6140 C 567.359 -1.69515 1.10774 0
M  V30 6141 C 567.687 -1.91316 -0.350479 0
M  V30 6142 O 566.942 -1.48515 -1.27443 0
M  V30 6143 C 567.241 -3.08039 1.81237 0
M  V30 6144 C 566.907 -3.06023 3.31151 0
M  V30 6145 C 565.569 -3.0518 3.72047 0
M  V30 6146 C 567.921 -2.98998 4.26907 0
M  V30 6147 C 565.249 -2.95067 5.07102 0
M  V30 6148 C 567.601 -2.90426 5.61992 0
M  V30 6149 C 566.265 -2.87922 6.0221 0
M  V30 6150 H 565.535 -0.6203 0.405351 0
M  V30 6151 H 568.182 -1.10953 1.56082 0
M  V30 6152 H 566.487 -3.70172 1.28373 0
M  V30 6153 H 568.184 -3.64526 1.67098 0
M  V30 6154 H 564.774 -3.07453 2.98614 0
M  V30 6155 H 568.958 -2.98764 3.963 0
M  V30 6156 H 564.214 -2.915 5.37436 0
M  V30 6157 H 568.388 -2.83952 6.35881 0
M  V30 6158 H 566.015 -2.79841 7.06819 0
M  V30 6159 N 567.59 -1.07411 -1.15328 0
M  V30 6160 C 568.82 -0.817595 -1.89734 0
M  V30 6161 C 569.228 0.63297 -1.78298 0
M  V30 6162 O 568.571 1.44594 -1.13306 0
M  V30 6163 C 568.633 -1.14748 -3.40695 0
M  V30 6164 C 568.297 -2.59876 -3.75917 0
M  V30 6165 C 569.294 -3.58122 -3.76888 0
M  V30 6166 C 566.979 -2.95469 -4.06206 0
M  V30 6167 C 568.973 -4.89996 -4.07655 0
M  V30 6168 C 566.66 -4.2754 -4.36638 0
M  V30 6169 C 567.658 -5.24614 -4.37344 0
M  V30 6170 O 567.346 -6.54312 -4.67045 0
M  V30 6171 H 567.078 -0.295175 -0.608151 0
M  V30 6172 H 569.632 -1.43409 -1.47048 0
M  V30 6173 H 567.862 -0.47395 -3.83785 0
M  V30 6174 H 569.551 -0.873397 -3.96392 0
M  V30 6175 H 570.317 -3.31966 -3.53587 0
M  V30 6176 H 566.196 -2.20558 -4.04815 0
M  V30 6177 H 569.74 -5.65759 -4.08121 0
M  V30 6178 H 565.637 -4.53449 -4.59407 0
M  V30 6179 H 566.405 -6.59473 -4.84807 0
M  V30 6180 N 569.068 1.32177 -0.85831 0
M  V30 6181 C 570.479 1.79381 -0.517621 0
M  V30 6182 C 570.83 1.70841 0.964769 0
M  V30 6183 O 569.955 1.26917 1.75274 0
M  V30 6184 C 570.55 3.25706 -0.932801 0
M  V30 6185 C 569.109 3.70851 -0.643953 0
M  V30 6186 C 568.256 2.53208 -1.13054 0
M  V30 6187 H 571.207 1.19424 -1.04516 0
M  V30 6188 H 571.228 3.79673 -0.250674 0
M  V30 6189 H 570.74 3.31889 -2.01174 0
M  V30 6190 H 568.841 3.70178 0.424112 0
M  V30 6191 H 568.954 4.63495 -1.21281 0
M  V30 6192 H 567.318 2.48676 -0.550679 0
M  V30 6193 H 568.101 2.62143 -2.21666 0
M  V30 6194 N 570.547 0.616602 1.45037 0
M  V30 6195 C 571.958 0.199359 1.85633 0
M  V30 6196 C 572.309 -1.24588 1.51566 0
M  V30 6197 O 571.434 -1.94594 0.94668 0
M  V30 6198 C 572.029 0.355033 3.36935 0
M  V30 6199 C 570.588 -0.00758748 3.76399 0
M  V30 6200 C 569.735 0.675256 2.68953 0
M  V30 6201 H 572.686 0.822708 1.3571 0
M  V30 6202 H 572.707 -0.410201 3.78282 0
M  V30 6203 H 572.219 1.40699 3.61698 0
M  V30 6204 H 570.32 -1.05837 3.57252 0
M  V30 6205 H 570.433 0.392346 4.77491 0
M  V30 6206 H 568.797 0.111992 2.54454 0
M  V30 6207 H 569.58 1.72952 2.96551 0
M  V30 6208 N 572.025 -1.5352 0.356285 0
M  V30 6209 C 573.436 -1.86282 -0.12492 0
M  V30 6210 C 573.787 -1.27717 -1.48939 0
M  V30 6211 O 572.912 -0.595614 -2.08042 0
M  V30 6212 C 573.507 -3.37995 -0.23345 0
M  V30 6213 C 572.066 -3.70588 -0.658899 0
M  V30 6214 C 571.213 -2.76581 0.199596 0
M  V30 6215 H 574.164 -1.47901 0.575423 0
M  V30 6216 H 574.185 -3.65475 -1.0587 0
M  V30 6217 H 573.697 -3.8059 0.759776 0
M  V30 6218 H 571.798 -3.33544 -1.66069 0
M  V30 6219 H 571.911 -4.77076 -0.439957 0
M  V30 6220 H 570.275 -2.52552 -0.330076 0
M  V30 6221 H 571.058 -3.22008 1.19019 0
M  V30 6222 N 573.503 -0.0852151 -1.57369 0
M  V30 6223 C 574.919 0.271436 -1.57275 0
M  V30 6224 C 575.119 1.69109 -1.09565 0
M  V30 6225 O 574.175 2.40549 -0.767611 0
M  V30 6226 C 575.488 0.0688638 -3.00621 0
M  V30 6227 C 577.036 0.137373 -3.12698 0
M  V30 6228 C 577.511 -0.0370832 -4.57985 0
M  V30 6229 N 579.002 0.0180794 -4.63196 0
M  V30 6230 C 579.737 -0.0922953 -5.73326 0
M  V30 6231 N 579.233 -0.256948 -6.92323 0
M  V30 6232 N 581.026 -0.0342702 -5.6209 0
M  V30 6233 H 573.177 -1.01288 -1.86693 0
M  V30 6234 H 575.44 -0.396138 -0.861266 0
M  V30 6235 H 575.146 -0.911277 -3.39689 0
M  V30 6236 H 575.02 0.815442 -3.6828 0
M  V30 6237 H 577.407 1.10801 -2.73509 0
M  V30 6238 H 577.488 -0.640532 -2.47651 0
M  V30 6239 H 577.132 -1.00455 -4.97867 0
M  V30 6240 H 577.062 0.760392 -5.21081 0
M  V30 6241 H 579.553 0.143202 -3.77629 0
M  V30 6242 H 579.866 -0.332949 -7.72082 0
M  V30 6243 H 578.211 -0.292487 -6.94384 0
M  V30 6244 H 581.402 0.0931605 -4.68007 0
M  V30 6245 H 581.575 -0.12374 -6.47882 0
M  V30 6246 N 574.981 1.5647 0.188427 0
M  V30 6247 C 575.891 1.98285 1.2538 0
M  V30 6248 C 576.907 0.891535 1.49424 0
M  V30 6249 O 578.083 1.19782 1.61908 0
M  V30 6250 C 575.148 2.31965 2.57669 0
M  V30 6251 C 574.209 3.54838 2.41638 0
M  V30 6252 C 573.442 3.86901 3.67618 0
M  V30 6253 O 573.665 3.20163 4.72072 0
M  V30 6254 O 572.599 4.80309 3.62749 0
M  V30 6255 H 576.425 2.89145 0.928912 0
M  V30 6256 H 574.01 1.44112 0.393955 0
M  V30 6257 H 575.892 2.54673 3.35737 0
M  V30 6258 H 574.567 1.44271 2.89771 0
M  V30 6259 H 573.474 3.37369 1.61658 0
M  V30 6260 H 574.807 4.43019 2.14465 0
M  V30 6261 N 576.459 -0.456382 1.50847 0
M  V30 6262 C 577.707 -1.20497 1.62249 0
M  V30 6263 C 578.028 -1.92156 0.331839 0
M  V30 6264 O 577.298 -1.84751 -0.651443 0
M  V30 6265 H 575.878 -0.447775 0.597918 0
M  V30 6266 H 578.54 -0.525099 1.87693 0
M  V30 6267 H 577.636 -1.94492 2.44089 0
M  V30 6268 N 577.937 -1.40673 -0.710563 0
M  V30 6269 C 578.9 -1.4108 -1.80635 0
M  V30 6270 C 579.9 -0.303783 -1.57904 0
M  V30 6271 O 581.09 -0.562937 -1.64853 0
M  V30 6272 C 578.222 -1.20748 -3.18799 0
M  V30 6273 H 579.415 -2.38612 -1.81671 0
M  V30 6274 H 576.968 -1.26595 -0.916704 0
M  V30 6275 H 577.703 -0.239964 -3.23411 0
M  V30 6276 H 577.488 -2.00941 -3.36698 0
M  V30 6277 H 578.978 -1.23833 -3.98817 0
M  V30 6278 N 579.415 0.9433 -1.26252 0
M  V30 6279 C 580.345 2.05902 -1.10122 0
M  V30 6280 C 581.326 1.70099 -0.00700552 0
M  V30 6281 O 582.511 1.93377 -0.178641 0
M  V30 6282 C 579.641 3.39516 -0.731175 0
M  V30 6283 C 578.595 3.89372 -1.77688 0
M  V30 6284 C 577.921 5.19613 -1.26122 0
M  V30 6285 C 579.221 4.14489 -3.17799 0
M  V30 6286 H 580.915 2.19655 -2.03451 0
M  V30 6287 H 578.461 1.05548 -0.979576 0
M  V30 6288 H 580.414 4.17031 -0.605215 0
M  V30 6289 H 579.138 3.25733 0.23782 0
M  V30 6290 H 577.797 3.14036 -1.89148 0
M  V30 6291 H 577.445 5.02208 -0.282128 0
M  V30 6292 H 577.145 5.53939 -1.96023 0
M  V30 6293 H 578.669 5.99713 -1.14789 0
M  V30 6294 H 580.083 4.82625 -3.09428 0
M  V30 6295 H 578.48 4.60094 -3.85271 0
M  V30 6296 H 579.55 3.20347 -3.64014 0
M  V30 6297 N 580.893 1.08022 1.14757 0
M  V30 6298 C 581.823 0.728248 2.21853 0
M  V30 6299 C 582.804 -0.287486 1.67653 0
M  V30 6300 O 583.989 -0.158727 1.9355 0
M  V30 6301 C 581.119 0.132549 3.47047 0
M  V30 6302 C 580.073 1.07619 4.14249 0
M  V30 6303 C 579.399 0.342907 5.33599 0
M  V30 6304 C 580.699 2.41268 4.63235 0
M  V30 6305 H 582.393 1.62365 2.51551 0
M  V30 6306 H 579.939 0.782125 1.20908 0
M  V30 6307 H 581.892 -0.125665 4.21213 0
M  V30 6308 H 580.616 -0.797971 3.16702 0
M  V30 6309 H 579.275 1.31944 3.42033 0
M  V30 6310 H 578.923 -0.59129 4.99513 0
M  V30 6311 H 578.623 0.971955 5.79506 0
M  V30 6312 H 580.147 0.0926538 6.1053 0
M  V30 6313 H 581.561 2.21232 5.28894 0
M  V30 6314 H 579.958 2.9983 5.19829 0
M  V30 6315 H 581.028 3.03079 3.78512 0
M  V30 6316 N 582.371 -1.3172 0.865308 0
M  V30 6317 C 583.301 -2.31109 0.333302 0
M  V30 6318 C 584.282 -1.60148 -0.573301 0
M  V30 6319 O 585.467 -1.87882 -0.491305 0
M  V30 6320 C 582.597 -3.44104 -0.470078 0
M  V30 6321 C 581.551 -4.26623 0.343021 0
M  V30 6322 C 580.877 -5.31482 -0.585756 0
M  V30 6323 C 582.177 -4.98001 1.57456 0
M  V30 6324 H 583.871 -2.75855 1.1638 0
M  V30 6325 H 581.417 -1.3262 0.561069 0
M  V30 6326 H 583.37 -4.12682 -0.852752 0
M  V30 6327 H 582.094 -2.98112 -1.33404 0
M  V30 6328 H 580.753 -3.59707 0.707583 0
M  V30 6329 H 580.401 -4.81741 -1.44686 0
M  V30 6330 H 580.101 -5.87582 -0.0456494 0
M  V30 6331 H 581.625 -6.0292 -0.965375 0
M  V30 6332 H 583.039 -5.59201 1.26359 0
M  V30 6333 H 581.436 -5.63876 2.05339 0
M  V30 6334 H 582.506 -4.25253 2.32997 0
M  V30 6335 N 583.85 -0.624285 -1.44708 0
M  V30 6336 C 584.812 0.0749638 -2.29077 0
M  V30 6337 C 585.812 0.778965 -1.40673 0
M  V30 6338 O 587.003 0.624591 -1.62618 0
M  V30 6339 C 584.135 1.11663 -3.22094 0
M  V30 6340 H 585.327 -0.667013 -2.92388 0
M  V30 6341 H 582.88 -0.384098 -1.51507 0
M  V30 6342 H 583.615 1.88881 -2.63618 0
M  V30 6343 H 583.401 0.61583 -3.87234 0
M  V30 6344 H 584.891 1.60585 -3.8549 0
M  V30 6345 N 585.328 1.53329 -0.364422 0
M  V30 6346 C 586.553 2.06132 0.229033 0
M  V30 6347 C 586.978 1.23625 1.41769 0
M  V30 6348 O 586.336 0.255038 1.79497 0
M  V30 6349 C 586.384 3.55544 0.60174 0
M  V30 6350 O 585.488 3.75771 1.69912 0
M  V30 6351 H 584.829 0.663148 0.0336213 0
M  V30 6352 H 587.359 1.97758 -0.524689 0
M  V30 6353 H 587.369 3.98549 0.873073 0
M  V30 6354 H 586.044 4.15039 -0.267421 0
M  V30 6355 H 584.621 3.44663 1.42343 0
M  V30 6356 N 586.806 0.0935595 1.57322 0
M  V30 6357 C 588.036 -0.578095 1.98347 0
M  V30 6358 C 588.444 -1.62357 0.971441 0
M  V30 6359 O 587.787 -1.83639 -0.0473959 0
M  V30 6360 C 587.849 -1.28525 3.3574 0
M  V30 6361 C 587.513 -0.390714 4.55327 0
M  V30 6362 C 588.51 0.360522 5.18648 0
M  V30 6363 C 586.195 -0.309221 5.01347 0
M  V30 6364 C 588.189 1.18125 6.26359 0
M  V30 6365 C 585.876 0.515157 6.08925 0
M  V30 6366 C 586.874 1.25904 6.71295 0
M  V30 6367 O 586.562 2.06978 7.76798 0
M  V30 6368 H 586.294 -0.159767 0.656849 0
M  V30 6369 H 588.848 0.169058 2.04703 0
M  V30 6370 H 587.078 -2.07894 3.26063 0
M  V30 6371 H 588.767 -1.85128 3.61223 0
M  V30 6372 H 589.533 0.307285 4.84026 0
M  V30 6373 H 585.412 -0.877881 4.52564 0
M  V30 6374 H 588.956 1.76236 6.74971 0
M  V30 6375 H 584.853 0.56988 6.42979 0
M  V30 6376 H 585.621 1.99644 7.93779 0
M  V30 6377 N 588.284 -1.56567 -0.180126 0
M  V30 6378 C 589.512 -1.85618 -0.913972 0
M  V30 6379 C 589.927 -0.677892 -1.7621 0
M  V30 6380 O 589.284 0.353171 -1.7905 0
M  V30 6381 C 589.335 -3.13619 -1.79793 0
M  V30 6382 O 589.056 -4.26906 -0.98402 0
M  V30 6383 C 590.557 -3.55954 -2.64219 0
M  V30 6384 H 587.777 -0.616043 -0.265954 0
M  V30 6385 H 590.321 -2.03681 -0.182872 0
M  V30 6386 H 588.476 -2.97409 -2.48247 0
M  V30 6387 H 588.89 -4.9989 -1.58776 0
M  V30 6388 H 590.364 -4.48444 -3.21873 0
M  V30 6389 H 590.841 -2.79653 -3.38661 0
M  V30 6390 H 591.447 -3.74746 -2.01111 0
M  V30 6391 N 589.762 0.448376 -1.51087 0
M  V30 6392 C 591.008 1.19748 -1.64414 0
M  V30 6393 C 591.363 1.89177 -0.350715 0
M  V30 6394 O 590.656 1.80135 0.652834 0
M  V30 6395 C 590.85 2.24866 -2.77795 0
M  V30 6396 C 590.679 1.65753 -4.18038 0
M  V30 6397 C 589.449 1.44728 -4.8413 0
M  V30 6398 C 591.647 1.13985 -5.0151 0
M  V30 6399 N 589.629 0.810962 -6.0852 0
M  V30 6400 C 591 0.628141 -6.1681 0
M  V30 6401 C 593.055 1.03055 -4.87118 0
M  V30 6402 C 591.758 0.0178906 -7.19298 0
M  V30 6403 C 593.784 0.434212 -5.89804 0
M  V30 6404 C 593.146 -0.0670069 -7.04368 0
M  V30 6405 H 589.245 0.426254 -0.655615 0
M  V30 6406 H 591.829 0.495806 -1.88281 0
M  V30 6407 H 590 2.92434 -2.55611 0
M  V30 6408 H 591.732 2.91857 -2.8036 0
M  V30 6409 H 588.487 1.70593 -4.41809 0
M  V30 6410 H 588.911 0.510563 -6.75072 0
M  V30 6411 H 593.553 1.40395 -3.9881 0
M  V30 6412 H 591.271 -0.367662 -8.07263 0
M  V30 6413 H 594.857 0.3517 -5.80736 0
M  V30 6414 H 593.737 -0.521209 -7.82466 0
M  V30 6415 N 591.24 1.41047 0.703093 0
M  V30 6416 C 592.465 1.43537 1.49706 0
M  V30 6417 C 592.89 0.0401853 1.88057 0
M  V30 6418 O 592.248 -0.954785 1.54122 0
M  V30 6419 C 592.296 2.3433 2.74084 0
M  V30 6420 O 591.4 1.79515 3.71279 0
M  V30 6421 H 590.741 0.487454 0.450871 0
M  V30 6422 H 593.271 1.85422 0.86486 0
M  V30 6423 H 593.281 2.49947 3.22476 0
M  V30 6424 H 591.956 3.35708 2.45506 0
M  V30 6425 H 590.533 1.7331 3.30179 0
M  V30 6426 N 592.718 -0.936591 1.26751 0
M  V30 6427 C 593.995 -1.66094 1.03306 0
M  V30 6428 C 594.375 -2.06568 -0.435058 0
M  V30 6429 O 593.723 -1.79305 -1.41641 0
M  V30 6430 C 593.933 -2.86969 1.98619 0
M  V30 6431 C 595.281 -3.58516 2.27489 0
M  V30 6432 O 596.305 -2.97082 1.96522 0
M  V30 6433 O 595.164 -4.69181 2.80235 0
M  V30 6434 H 592.258 -0.727568 0.393158 0
M  V30 6435 H 594.804 -0.987914 1.3798 0
M  V30 6436 H 593.576 -2.53985 2.9767 0
M  V30 6437 H 593.199 -3.61996 1.64454 0
M  V30 6438 N 594.196 -1.08629 -1.14182 0
M  V30 6439 C 595.159 -0.722027 -2.1753 0
M  V30 6440 C 596.159 0.244305 -1.58933 0
M  V30 6441 O 597.349 0.0235545 -1.74184 0
M  V30 6442 C 594.481 -0.0663966 -3.40835 0
M  V30 6443 H 595.674 -1.63719 -2.51269 0
M  V30 6444 H 593.227 -0.884442 -1.28869 0
M  V30 6445 H 593.962 0.860389 -3.12678 0
M  V30 6446 H 593.747 -0.761598 -3.84632 0
M  V30 6447 H 595.237 0.173346 -4.1724 0
M  V30 6448 N 595.674 1.31259 -0.872281 0
M  V30 6449 C 596.637 2.26744 -0.334656 0
M  V30 6450 C 597.637 1.52307 0.515681 0
M  V30 6451 O 598.827 1.71148 0.324656 0
M  V30 6452 C 595.959 3.36841 0.524482 0
M  V30 6453 H 597.152 2.75812 -1.17762 0
M  V30 6454 H 594.705 1.42232 -0.648064 0
M  V30 6455 H 595.44 2.93069 1.38855 0
M  V30 6456 H 595.225 3.92009 -0.0844299 0
M  V30 6457 H 596.715 4.07944 0.892838 0
M  V30 6458 N 597.152 0.631951 1.44375 0
M  V30 6459 C 598.115 -0.0628142 2.29114 0
M  V30 6460 C 599.115 -0.771494 1.41084 0
M  V30 6461 O 600.305 -0.615959 1.62947 0
M  V30 6462 C 597.437 -1.09953 3.22681 0
M  V30 6463 H 598.63 0.682509 2.92031 0
M  V30 6464 H 596.183 0.392128 1.51301 0
M  V30 6465 H 596.918 -1.87481 2.64616 0
M  V30 6466 H 596.703 -0.595286 3.87555 0
M  V30 6467 H 598.193 -1.58538 3.86336 0
M  V30 6468 N 598.631 -1.53133 0.372548 0
M  V30 6469 C 599.594 -2.24569 -0.458389 0
M  V30 6470 C 600.594 -1.25603 -1.00402 0
M  V30 6471 O 601.784 -1.49827 -0.888672 0
M  V30 6472 C 598.916 -2.98783 -1.6414 0
M  V30 6473 H 600.109 -2.99436 0.166799 0
M  V30 6474 H 597.662 -1.55805 0.124357 0
M  V30 6475 H 598.397 -2.28176 -2.30448 0
M  V30 6476 H 598.182 -3.71404 -1.25704 0
M  V30 6477 H 599.672 -3.53068 -2.23008 0
M  V30 6478 N 600.109 -0.101901 -1.5727 0
M  V30 6479 C 601.356 0.560197 -1.94597 0
M  V30 6480 C 601.684 1.67767 -0.984101 0
M  V30 6481 O 600.939 1.95699 -0.00489193 0
M  V30 6482 C 601.238 1.14898 -3.38427 0
M  V30 6483 C 600.904 0.154613 -4.50635 0
M  V30 6484 C 599.566 -0.118861 -4.81053 0
M  V30 6485 C 601.918 -0.523979 -5.18559 0
M  V30 6486 C 599.246 -1.0775 -5.76721 0
M  V30 6487 C 601.598 -1.47114 -6.15256 0
M  V30 6488 C 600.262 -1.75278 -6.44076 0
M  V30 6489 H 599.532 0.204991 -0.712081 0
M  V30 6490 H 602.179 -0.17918 -1.9066 0
M  V30 6491 H 600.484 1.96476 -3.38976 0
M  V30 6492 H 602.181 1.66909 -3.64613 0
M  V30 6493 H 598.771 0.377948 -4.2693 0
M  V30 6494 H 602.955 -0.325851 -4.95229 0
M  V30 6495 H 598.211 -1.30263 -5.97362 0
M  V30 6496 H 602.385 -2.00274 -6.66981 0
M  V30 6497 H 600.012 -2.49717 -7.18015 0
M  V30 6498 N 601.587 1.56661 0.17182 0
M  V30 6499 C 602.55 1.9549 1.19651 0
M  V30 6500 C 603.55 0.838501 1.37207 0
M  V30 6501 O 604.74 1.10556 1.34622 0
M  V30 6502 C 601.872 2.24927 2.56166 0
M  V30 6503 H 603.065 2.87184 0.864007 0
M  V30 6504 H 600.618 1.50711 0.41425 0
M  V30 6505 H 601.353 1.35944 2.94431 0
M  V30 6506 H 601.138 3.06301 2.4479 0
M  V30 6507 H 602.628 2.55891 3.30014 0
M  V30 6508 N 603.065 -0.440357 1.51323 0
M  V30 6509 C 604.313 -1.18769 1.63518 0
M  V30 6510 C 604.634 -1.91793 0.352201 0
M  V30 6511 O 603.904 -1.85432 -0.631811 0
M  V30 6512 H 602.484 -0.441408 0.602634 0
M  V30 6513 H 605.146 -0.505162 1.8824 0
M  V30 6514 H 604.242 -1.91892 2.46138 0
M  V30 6515 N 604.543 -1.41418 -0.695603 0
M  V30 6516 C 605.473 -1.46035 -1.82197 0
M  V30 6517 C 606.454 -0.319025 -1.67082 0
M  V30 6518 O 607.639 -0.530462 -1.86815 0
M  V30 6519 C 604.769 -1.34179 -3.20333 0
M  V30 6520 C 603.723 -2.46123 -3.50154 0
M  V30 6521 C 603.049 -2.19332 -4.87645 0
M  V30 6522 C 604.349 -3.88463 -3.49133 0
M  V30 6523 H 606.043 -2.40303 -1.78591 0
M  V30 6524 H 603.589 -1.15663 -0.857797 0
M  V30 6525 H 605.542 -1.36021 -3.98844 0
M  V30 6526 H 604.266 -0.363952 -3.24566 0
M  V30 6527 H 602.925 -2.43563 -2.73994 0
M  V30 6528 H 602.573 -1.19891 -4.88503 0
M  V30 6529 H 602.273 -2.94344 -5.08562 0
M  V30 6530 H 603.797 -2.22889 -5.68465 0
M  V30 6531 H 605.211 -3.92738 -4.17648 0
M  V30 6532 H 603.608 -4.63158 -3.81582 0
M  V30 6533 H 604.678 -4.16617 -2.48109 0
M  V30 6534 N 606.021 0.929856 -1.27246 0
M  V30 6535 C 607.246 1.71674 -1.16374 0
M  V30 6536 C 607.671 1.86064 0.276024 0
M  V30 6537 O 607.029 1.3591 1.19992 0
M  V30 6538 C 607.077 3.09526 -1.85003 0
M  V30 6539 O 606.181 3.96142 -1.14653 0
M  V30 6540 H 605.522 0.52629 -0.404863 0
M  V30 6541 H 608.052 1.16381 -1.68276 0
M  V30 6542 H 608.062 3.59852 -1.92276 0
M  V30 6543 H 606.737 2.98369 -2.89739 0
M  V30 6544 H 605.314 3.54584 -1.15433 0
M  V30 6545 N 607.499 1.09233 1.13605 0
M  V30 6546 C 608.915 0.82163 1.36826 0
M  V30 6547 C 609.115 -0.565021 1.93416 0
M  V30 6548 O 608.171 -1.32026 2.15234 0
M  V30 6549 C 609.484 1.91124 2.32147 0
M  V30 6550 C 611.032 1.93824 2.45767 0
M  V30 6551 C 611.507 3.01923 3.44393 0
M  V30 6552 N 612.998 3.01149 3.51942 0
M  V30 6553 C 613.733 3.81434 4.2813 0
M  V30 6554 N 613.229 4.71621 5.07489 0
M  V30 6555 N 615.022 3.69702 4.23411 0
M  V30 6556 H 607.173 1.98633 0.752234 0
M  V30 6557 H 609.436 0.862482 0.393482 0
M  V30 6558 H 609.142 2.90862 1.97717 0
M  V30 6559 H 609.016 1.78777 3.32142 0
M  V30 6560 H 611.403 0.94726 2.79483 0
M  V30 6561 H 611.484 2.10248 1.45703 0
M  V30 6562 H 611.128 4.01232 3.11408 0
M  V30 6563 H 611.058 2.82742 4.44257 0
M  V30 6564 H 613.549 2.35789 2.95317 0
M  V30 6565 H 613.862 5.29468 5.62924 0
M  V30 6566 H 612.207 4.75658 5.06729 0
M  V30 6567 H 615.398 2.98606 3.60489 0
M  V30 6568 H 615.571 4.32509 4.82535 0
M  V30 6569 N 608.977 -1.30795 0.87923 0
M  V30 6570 C 609.887 -2.32041 0.345565 0
M  V30 6571 C 610.903 -1.65103 -0.549265 0
M  V30 6572 O 612.079 -1.9645 -0.443763 0
M  V30 6573 C 609.144 -3.43944 -0.436245 0
M  V30 6574 C 608.205 -4.26521 0.48765 0
M  V30 6575 C 607.438 -5.33081 -0.256943 0
M  V30 6576 O 607.661 -5.50762 -1.48381 0
M  V30 6577 O 606.595 -6.00635 0.389985 0
M  V30 6578 H 610.421 -2.79627 1.18501 0
M  V30 6579 H 608.006 -1.3486 0.642885 0
M  V30 6580 H 609.888 -4.12128 -0.879119 0
M  V30 6581 H 608.563 -2.98504 -1.25208 0
M  V30 6582 H 607.47 -3.61057 0.979216 0
M  V30 6583 H 608.803 -4.75551 1.26933 0
M  V30 6584 N 610.455 -0.639598 -1.44038 0
M  V30 6585 C 611.365 0.0612377 -2.3452 0
M  V30 6586 C 612.381 0.826717 -1.53106 0
M  V30 6587 O 613.557 0.777059 -1.85806 0
M  V30 6588 C 610.622 1.02492 -3.31204 0
M  V30 6589 C 609.683 0.25788 -4.28525 0
M  V30 6590 C 608.916 1.17566 -5.2059 0
M  V30 6591 O 609.139 2.41461 -5.16771 0
M  V30 6592 O 608.073 0.655407 -5.98321 0
M  V30 6593 H 611.899 -0.68318 -2.95916 0
M  V30 6594 H 609.484 -0.399784 -1.43952 0
M  V30 6595 H 611.366 1.57911 -3.90694 0
M  V30 6596 H 610.041 1.7498 -2.7233 0
M  V30 6597 H 608.948 -0.339566 -3.72556 0
M  V30 6598 H 610.281 -0.427154 -4.90343 0
M  V30 6599 N 611.933 1.52934 -0.380664 0
M  V30 6600 C 612.896 2.24809 0.446473 0
M  V30 6601 C 613.896 1.26133 0.997347 0
M  V30 6602 O 615.086 1.50297 0.880714 0
M  V30 6603 C 612.218 2.99649 1.62553 0
M  V30 6604 H 613.411 2.99343 -0.182677 0
M  V30 6605 H 610.964 1.55736 -0.132618 0
M  V30 6606 H 611.699 2.29395 2.29235 0
M  V30 6607 H 611.484 3.72066 1.23732 0
M  V30 6608 H 612.974 3.54246 2.21133 0
M  V30 6609 N 613.412 0.11024 1.57214 0
M  V30 6610 C 614.342 -0.840002 2.17867 0
M  V30 6611 C 615.323 -1.28352 1.11624 0
M  V30 6612 O 616.508 -1.3477 1.39824 0
M  V30 6613 C 613.638 -2.09349 2.77111 0
M  V30 6614 C 612.592 -1.78807 3.8886 0
M  V30 6615 C 611.918 -3.11112 4.34872 0
M  V30 6616 C 613.218 -1.0632 5.11364 0
M  V30 6617 H 614.912 -0.334608 2.97524 0
M  V30 6618 H 612.458 -0.159502 1.43114 0
M  V30 6619 H 614.411 -2.76275 3.18198 0
M  V30 6620 H 613.135 -2.62198 1.9473 0
M  V30 6621 H 611.794 -1.14273 3.48335 0
M  V30 6622 H 611.442 -3.61877 3.49362 0
M  V30 6623 H 611.142 -2.91453 5.10224 0
M  V30 6624 H 612.666 -3.79171 4.78604 0
M  V30 6625 H 614.08 -1.63383 5.49526 0
M  V30 6626 H 612.477 -0.967876 5.92243 0
M  V30 6627 H 613.547 -0.0484569 4.84876 0
M  V30 6628 N 614.89 -1.56749 -0.16351 0
M  V30 6629 C 616.306 -1.51043 -0.515567 0
M  V30 6630 C 616.506 -0.815855 -1.84245 0
M  V30 6631 O 615.562 -0.379477 -2.49632 0
M  V30 6632 C 616.875 -2.95791 -0.541114 0
M  V30 6633 C 618.423 -3.0664 -0.627776 0
M  V30 6634 C 618.898 -4.52861 -0.684141 0
M  V30 6635 N 620.389 -4.5714 -0.746818 0
M  V30 6636 C 621.124 -5.67634 -0.811137 0
M  V30 6637 N 620.62 -6.8774 -0.835811 0
M  V30 6638 N 622.413 -5.55624 -0.850756 0
M  V30 6639 H 614.564 -2.00307 0.70645 0
M  V30 6640 H 616.827 -0.912876 0.255659 0
M  V30 6641 H 616.533 -3.49797 0.365329 0
M  V30 6642 H 616.407 -3.50858 -1.38487 0
M  V30 6643 H 618.794 -2.52663 -1.52464 0
M  V30 6644 H 618.875 -2.54645 0.242805 0
M  V30 6645 H 618.519 -5.07472 0.2085 0
M  V30 6646 H 618.449 -5.02621 -1.57098 0
M  V30 6647 H 620.94 -3.70669 -0.735717 0
M  V30 6648 H 621.253 -7.67701 -0.886279 0
M  V30 6649 H 619.598 -6.90334 -0.803958 0
M  V30 6650 H 622.789 -4.60709 -0.828535 0
M  V30 6651 H 622.962 -6.41756 -0.897418 0
M  V30 6652 N 616.368 0.432326 -1.51554 0
M  V30 6653 C 617.298 1.53242 -1.76179 0
M  V30 6654 C 618.279 1.58717 -0.611801 0
M  V30 6655 O 619.464 1.74364 -0.855033 0
M  V30 6656 C 616.594 2.91278 -1.89141 0
M  V30 6657 C 615.548 3.00663 -3.04608 0
M  V30 6658 C 614.874 4.40728 -3.02759 0
M  V30 6659 C 616.174 2.74281 -4.44485 0
M  V30 6660 H 617.868 1.32886 -2.68294 0
M  V30 6661 H 615.414 0.637841 -1.29103 0
M  V30 6662 H 617.367 3.68203 -2.04951 0
M  V30 6663 H 616.091 3.12877 -0.936785 0
M  V30 6664 H 614.75 2.26179 -2.88511 0
M  V30 6665 H 614.398 4.59301 -2.05065 0
M  V30 6666 H 614.098 4.47936 -3.80299 0
M  V30 6667 H 615.622 5.19619 -3.20669 0
M  V30 6668 H 617.036 3.40936 -4.60907 0
M  V30 6669 H 615.433 2.92893 -5.23769 0
M  V30 6670 H 616.503 1.69856 -4.54177 0
M  V30 6671 N 617.846 1.41785 0.688094 0
M  V30 6672 C 618.809 1.43936 1.78368 0
M  V30 6673 C 619.809 0.328866 1.57401 0
M  V30 6674 O 620.999 0.589093 1.63937 0
M  V30 6675 C 618.131 1.25804 3.16838 0
M  V30 6676 H 619.324 2.41472 1.77852 0
M  V30 6677 H 616.877 1.28037 0.896448 0
M  V30 6678 H 617.612 0.291386 3.22988 0
M  V30 6679 H 617.397 2.06272 3.33458 0
M  V30 6680 H 618.887 1.30162 3.96797 0
M  V30 6681 N 619.324 -0.923095 1.27737 0
M  V30 6682 C 620.254 -2.04124 1.13383 0
M  V30 6683 C 621.235 -1.70066 0.0340658 0
M  V30 6684 O 622.42 -1.93068 0.209383 0
M  V30 6685 C 619.55 -3.3831 0.785097 0
M  V30 6686 C 618.504 -3.86496 1.8386 0
M  V30 6687 C 617.83 -5.1754 1.34373 0
M  V30 6688 C 619.13 -4.09381 3.24353 0
M  V30 6689 H 620.824 -2.1639 2.06919 0
M  V30 6690 H 618.37 -1.03976 0.996243 0
M  V30 6691 H 620.323 -4.16016 0.671485 0
M  V30 6692 H 619.047 -3.2607 -0.185969 0
M  V30 6693 H 617.706 -3.10987 1.9412 0
M  V30 6694 H 617.354 -5.01696 0.361989 0
M  V30 6695 H 617.054 -5.50751 2.04811 0
M  V30 6696 H 618.578 -5.97811 1.24315 0
M  V30 6697 H 619.992 -4.77641 3.17067 0
M  V30 6698 H 618.389 -4.53906 3.92542 0
M  V30 6699 H 619.459 -3.14515 3.69064 0
M  V30 6700 N 620.802 -1.09834 -1.13024 0
M  V30 6701 C 622.079 -0.749225 -1.80682 0
M  V30 6702 C 622.459 0.765171 -1.96744 0
M  V30 6703 O 621.807 1.68912 -1.53886 0
M  V30 6704 C 622.017 -1.49311 -3.15448 0
M  V30 6705 C 623.365 -1.66162 -3.90737 0
M  V30 6706 O 624.389 -1.45597 -3.25085 0
M  V30 6707 O 623.248 -2.00211 -5.08505 0
M  V30 6708 H 620.342 -0.269614 -0.781817 0
M  V30 6709 H 622.888 -1.20078 -1.19914 0
M  V30 6710 H 621.66 -2.52407 -2.99009 0
M  V30 6711 H 621.283 -1.034 -3.8392 0
M  V30 6712 N 622.28 1.30327 -0.886154 0
M  V30 6713 C 623.557 1.90922 -0.425217 0
M  V30 6714 C 623.937 1.80533 1.09413 0
M  V30 6715 O 623.285 1.2233 1.92996 0
M  V30 6716 C 623.495 3.36529 -0.924638 0
M  V30 6717 C 624.843 4.13598 -0.960305 0
M  V30 6718 O 625.867 3.45377 -0.871382 0
M  V30 6719 O 624.726 5.35482 -1.09184 0
M  V30 6720 H 621.82 0.81668 -0.130238 0
M  V30 6721 H 624.366 1.38886 -0.975132 0
M  V30 6722 H 623.138 3.38181 -1.96849 0
M  V30 6723 H 622.761 3.96021 -0.353955 0
M  V30 6724 N 623.758 0.647228 1.43697 0
M  V30 6725 C 625.004 0.158422 2.0218 0
M  V30 6726 C 625.337 -1.22233 1.50907 0
M  V30 6727 O 624.612 -1.81478 0.699702 0
M  V30 6728 C 624.895 0.1627 3.59732 0
M  V30 6729 C 624.748 1.57694 4.21251 0
M  V30 6730 C 626.067 -0.504138 4.37203 0
M  V30 6731 H 623.186 0.059042 0.734631 0
M  V30 6732 H 625.828 0.826772 1.71069 0
M  V30 6733 H 623.978 -0.406414 3.86368 0
M  V30 6734 H 625.65 2.19618 4.05667 0
M  V30 6735 H 623.893 2.12603 3.7813 0
M  V30 6736 H 624.564 1.53183 5.3032 0
M  V30 6737 H 627.04 -0.0199841 4.16095 0
M  V30 6738 H 625.916 -0.470394 5.46881 0
M  V30 6739 H 626.177 -1.57726 4.13007 0
M  V30 6740 N 625.236 -1.5273 0.388769 0
M  V30 6741 C 626.199 -2.25043 -0.434544 0
M  V30 6742 C 627.199 -1.26661 -0.990644 0
M  V30 6743 O 628.389 -1.50762 -0.872731 0
M  V30 6744 C 625.521 -3.00507 -1.60961 0
M  V30 6745 H 626.714 -2.99242 0.198549 0
M  V30 6746 H 624.267 -1.55664 0.140875 0
M  V30 6747 H 625.002 -2.30607 -2.28015 0
M  V30 6748 H 624.787 -3.72716 -1.21757 0
M  V30 6749 H 626.277 -3.55413 -2.19251 0
M  V30 6750 N 626.714 -0.118576 -1.57153 0
M  V30 6751 C 627.677 0.817464 -2.14127 0
M  V30 6752 C 628.677 1.1949 -1.07604 0
M  V30 6753 O 629.867 1.12048 -1.33382 0
M  V30 6754 C 626.999 2.10541 -2.68115 0
M  V30 6755 H 628.192 0.322339 -2.98163 0
M  V30 6756 H 625.745 0.130655 -1.55753 0
M  V30 6757 H 626.48 2.64485 -1.87665 0
M  V30 6758 H 626.265 1.84425 -3.4602 0
M  V30 6759 H 627.755 2.77453 -3.12105 0
M  V30 6760 N 628.193 1.56834 0.155195 0
M  V30 6761 C 629.123 2.00678 1.19376 0
M  V30 6762 C 630.104 0.884973 1.45266 0
M  V30 6763 O 631.289 1.1522 1.56326 0
M  V30 6764 C 628.419 2.38042 2.5289 0
M  V30 6765 C 627.373 3.53332 2.41538 0
M  V30 6766 C 626.699 3.76485 3.79688 0
M  V30 6767 C 627.999 4.86265 1.9064 0
M  V30 6768 H 629.693 2.87688 0.829232 0
M  V30 6769 H 627.239 1.38407 0.397445 0
M  V30 6770 H 629.192 2.67314 3.25763 0
M  V30 6771 H 627.916 1.4796 2.91162 0
M  V30 6772 H 626.575 3.24213 1.71117 0
M  V30 6773 H 626.223 2.83667 4.15382 0
M  V30 6774 H 625.923 4.54068 3.72956 0
M  V30 6775 H 627.447 4.08174 4.54122 0
M  V30 6776 H 628.861 5.14308 2.53299 0
M  V30 6777 H 627.258 5.67597 1.94818 0
M  V30 6778 H 628.328 4.77184 0.861596 0
M  V30 6779 N 629.671 -0.424282 1.51781 0
M  V30 6780 C 630.621 -1.51464 1.70419 0
M  V30 6781 C 631.605 -1.50911 0.558094 0
M  V30 6782 O 632.797 -1.57143 0.814552 0
M  V30 6783 C 629.926 -2.89539 1.84451 0
M  V30 6784 C 629.012 -2.94798 3.04886 0
M  V30 6785 N 629.403 -2.69778 4.27848 0
M  V30 6786 C 627.701 -3.25962 3.04408 0
M  V30 6787 C 628.402 -2.81216 5.09208 0
M  V30 6788 N 627.378 -3.13447 4.44131 0
M  V30 6789 H 631.18 -1.30892 2.63144 0
M  V30 6790 H 628.694 -0.631783 1.49607 0
M  V30 6791 H 630.691 -3.67998 1.95917 0
M  V30 6792 H 629.351 -3.11121 0.929168 0
M  V30 6793 H 630.362 -2.44458 4.56575 0
M  V30 6794 H 627.039 -3.53236 2.22555 0
M  V30 6795 H 628.429 -2.65715 6.17127 0
M  V30 6796 N 631.149 -1.42148 -0.680565 0
M  V30 6797 C 632.397 -1.42029 -1.43779 0
M  V30 6798 C 632.718 -0.0356347 -1.94967 0
M  V30 6799 O 631.988 0.924936 -1.7269 0
M  V30 6800 H 630.568 -0.522835 -0.533529 0
M  V30 6801 H 633.23 -1.7752 -0.804538 0
M  V30 6802 H 632.326 -2.11658 -2.29363 0
M  V30 6803 N 632.627 0.916307 -1.28225 0
M  V30 6804 C 634.038 1.48024 -1.13779 0
M  V30 6805 C 634.389 1.94289 0.273139 0
M  V30 6806 O 633.514 1.82226 1.16716 0
M  V30 6807 C 634.109 2.69029 -2.05935 0
M  V30 6808 C 632.668 3.2161 -1.95561 0
M  V30 6809 C 631.815 1.94321 -1.97825 0
M  V30 6810 H 634.766 0.729272 -1.40951 0
M  V30 6811 H 634.787 3.44204 -1.62184 0
M  V30 6812 H 634.299 2.35325 -3.08616 0
M  V30 6813 H 632.4 3.60045 -0.959076 0
M  V30 6814 H 632.513 3.87032 -2.82388 0
M  V30 6815 H 630.877 2.1131 -1.42198 0
M  V30 6816 H 631.66 1.62917 -3.0218 0
M  V30 6817 N 634.105 1.10431 1.1244 0
M  V30 6818 C 635.351 0.847972 1.84221 0
M  V30 6819 C 635.684 -0.624903 1.83871 0
M  V30 6820 O 634.959 -1.46074 1.28423 0
M  V30 6821 C 635.242 1.39695 3.319 0
M  V30 6822 C 635.095 2.93668 3.40704 0
M  V30 6823 C 636.414 1.03924 4.27654 0
M  V30 6824 H 633.533 0.309502 0.668863 0
M  V30 6825 H 636.175 1.36745 1.31912 0
M  V30 6826 H 634.325 0.955095 3.76577 0
M  V30 6827 H 635.997 3.46379 3.04662 0
M  V30 6828 H 634.24 3.30272 2.81252 0
M  V30 6829 H 634.911 3.27162 4.446 0
M  V30 6830 H 637.387 1.42049 3.91102 0
M  V30 6831 H 636.263 1.45027 5.29394 0
M  V30 6832 H 636.524 -0.051336 4.4207 0
M  V30 6833 N 635.583 -1.29855 0.893053 0
M  V30 6834 C 636.829 -1.96116 0.516349 0
M  V30 6835 C 637.162 -1.70281 -0.933695 0
M  V30 6836 O 636.437 -1.01205 -1.66096 0
M  V30 6837 C 636.72 -3.51068 0.801455 0
M  V30 6838 C 636.573 -3.86387 2.30272 0
M  V30 6839 C 637.892 -4.39186 0.283423 0
M  V30 6840 H 635.011 -0.712335 0.189072 0
M  V30 6841 H 637.653 -1.53587 1.11852 0
M  V30 6842 H 635.803 -3.87424 0.288949 0
M  V30 6843 H 637.475 -3.60012 2.88425 0
M  V30 6844 H 635.718 -3.34167 2.76613 0
M  V30 6845 H 636.389 -4.94512 2.45279 0
M  V30 6846 H 638.865 -4.09785 0.722187 0
M  V30 6847 H 637.741 -5.46505 0.512169 0
M  V30 6848 H 638.002 -4.34511 -0.815643 0
M  V30 6849 N 637.061 -0.65484 -1.43351 0
M  V30 6850 C 638.477 -0.32255 -1.56307 0
M  V30 6851 C 638.677 1.17324 -1.63821 0
M  V30 6852 O 637.733 1.95813 -1.59417 0
M  V30 6853 C 639.046 -1.03533 -2.82314 0
M  V30 6854 C 640.594 -1.01574 -2.9606 0
M  V30 6855 C 641.069 -1.70945 -4.24902 0
M  V30 6856 N 642.56 -1.67716 -4.3177 0
M  V30 6857 C 643.295 -2.18265 -5.30234 0
M  V30 6858 N 642.791 -2.7711 -6.34966 0
M  V30 6859 N 644.584 -2.08756 -5.21898 0
M  V30 6860 H 636.735 -1.62549 -1.36717 0
M  V30 6861 H 638.998 -0.683676 -0.656727 0
M  V30 6862 H 638.704 -2.09045 -2.8283 0
M  V30 6863 H 638.578 -0.587913 -3.7259 0
M  V30 6864 H 640.965 0.0309834 -2.95084 0
M  V30 6865 H 641.046 -1.50186 -2.07069 0
M  V30 6866 H 640.69 -2.75574 -4.26639 0
M  V30 6867 H 640.62 -1.19797 -5.12793 0
M  V30 6868 H 643.111 -1.24777 -3.56706 0
M  V30 6869 H 643.424 -3.13353 -7.06421 0
M  V30 6870 H 641.769 -2.81171 -6.35585 0
M  V30 6871 H 644.96 -1.62488 -4.38994 0
M  V30 6872 H 645.133 -2.48459 -5.98475 0
M  V30 6873 N 638.539 1.52521 -0.396863 0
M  V30 6874 C 639.471 2.24333 0.469814 0
M  V30 6875 C 640.484 1.2685 1.02043 0
M  V30 6876 O 641.673 1.52876 0.92147 0
M  V30 6877 C 638.773 2.95202 1.66461 0
M  V30 6878 C 637.946 4.19454 1.24003 0
M  V30 6879 C 637.005 4.73255 2.30036 0
M  V30 6880 O 636.031 5.36151 1.91131 0
M  V30 6881 N 637.233 4.53765 3.62047 0
M  V30 6882 H 639.998 2.99347 -0.145468 0
M  V30 6883 H 637.559 1.60348 -0.223606 0
M  V30 6884 H 639.551 3.28092 2.36934 0
M  V30 6885 H 638.121 2.2345 2.18607 0
M  V30 6886 H 637.341 3.92517 0.363892 0
M  V30 6887 H 638.629 5.0017 0.933135 0
M  V30 6888 H 638.027 4.03576 3.96412 0
M  V30 6889 H 636.584 4.91124 4.28533 0
M  V30 6890 N 640.017 0.126909 1.57088 0
M  V30 6891 C 640.947 -0.816847 2.18746 0
M  V30 6892 C 641.928 -1.27161 1.12979 0
M  V30 6893 O 643.113 -1.33279 1.41246 0
M  V30 6894 C 640.243 -2.06398 2.79315 0
M  V30 6895 C 639.197 -1.74673 3.90735 0
M  V30 6896 C 638.523 -3.06482 4.38147 0
M  V30 6897 C 639.823 -1.0089 5.12463 0
M  V30 6898 H 641.517 -0.303032 2.97863 0
M  V30 6899 H 639.063 -0.144314 1.43275 0
M  V30 6900 H 641.016 -2.72885 3.2111 0
M  V30 6901 H 639.74 -2.60118 1.975 0
M  V30 6902 H 638.399 -1.10572 3.49527 0
M  V30 6903 H 638.047 -3.58152 3.5318 0
M  V30 6904 H 637.747 -2.86025 5.13287 0
M  V30 6905 H 639.271 -3.74073 4.82599 0
M  V30 6906 H 640.685 -1.57546 5.51228 0
M  V30 6907 H 639.082 -0.905006 5.93237 0
M  V30 6908 H 640.152 0.00297335 4.849 0
M  V30 6909 N 641.495 -1.56914 -0.146875 0
M  V30 6910 C 642.741 -1.84515 -0.855914 0
M  V30 6911 C 643.096 -0.710909 -1.78784 0
M  V30 6912 O 642.389 0.291123 -1.89375 0
M  V30 6913 C 642.583 -3.16128 -1.66727 0
M  V30 6914 C 642.412 -4.42246 -0.815405 0
M  V30 6915 C 641.182 -5.03006 -0.480976 0
M  V30 6916 C 643.38 -5.14094 -0.145684 0
M  V30 6917 N 641.362 -6.12695 0.384476 0
M  V30 6918 C 642.733 -6.17282 0.579902 0
M  V30 6919 C 644.788 -4.97856 -0.0663705 0
M  V30 6920 C 643.491 -7.0599 1.37731 0
M  V30 6921 C 645.517 -5.87028 0.71778 0
M  V30 6922 C 644.879 -6.89698 1.43165 0
M  V30 6923 H 640.978 -0.725829 -0.291026 0
M  V30 6924 H 643.562 -1.94322 -0.121279 0
M  V30 6925 H 641.733 -3.07468 -2.37315 0
M  V30 6926 H 643.465 -3.31635 -2.31949 0
M  V30 6927 H 640.22 -4.66504 -0.816789 0
M  V30 6928 H 640.644 -6.72158 0.80823 0
M  V30 6929 H 645.286 -4.18465 -0.603929 0
M  V30 6930 H 643.004 -7.84809 1.92613 0
M  V30 6931 H 646.59 -5.76532 0.781141 0
M  V30 6932 H 645.47 -7.57505 2.02868 0
M  V30 6933 N 642.974 0.416227 -1.52004 0
M  V30 6934 C 644.251 1.17637 -1.56272 0
M  V30 6935 C 644.631 2.08352 -0.339493 0
M  V30 6936 O 643.979 2.1833 0.674124 0
M  V30 6937 C 644.189 1.95986 -2.88774 0
M  V30 6938 C 645.537 2.52299 -3.41512 0
M  V30 6939 O 646.561 2.06174 -2.90467 0
M  V30 6940 O 645.42 3.3648 -4.30631 0
M  V30 6941 H 642.514 0.536726 -0.629169 0
M  V30 6942 H 645.06 0.423583 -1.64329 0
M  V30 6943 H 643.832 1.29487 -3.69254 0
M  V30 6944 H 643.455 2.78285 -2.83978 0
M  V30 6945 N 644.452 1.42507 0.673017 0
M  V30 6946 C 645.7 1.42789 1.43023 0
M  V30 6947 C 646.021 0.0459738 1.94946 0
M  V30 6948 O 645.291 -0.915765 1.73178 0
M  V30 6949 H 643.871 0.525657 0.530748 0
M  V30 6950 H 646.533 1.77944 0.795113 0
M  V30 6951 H 645.629 2.12872 2.28237 0
M  V30 6952 N 645.93 -0.909495 1.28709 0
M  V30 6953 C 647.158 -1.69272 1.18973 0
M  V30 6954 C 647.573 -1.87123 -0.251048 0
M  V30 6955 O 646.93 -1.40127 -1.16922 0
M  V30 6956 C 646.981 -3.08257 1.88839 0
M  V30 6957 O 646.702 -2.91228 3.27289 0
M  V30 6958 C 648.203 -4.02642 1.85457 0
M  V30 6959 H 645.423 -0.528999 0.412797 0
M  V30 6960 H 647.967 -1.13803 1.69909 0
M  V30 6961 H 646.122 -3.6053 1.41762 0
M  V30 6962 H 646.536 -3.79223 3.6234 0
M  V30 6963 H 648.01 -4.97613 2.38925 0
M  V30 6964 H 648.487 -4.31327 0.827893 0
M  V30 6965 H 649.093 -3.56298 2.32233 0
M  V30 6966 N 647.408 -1.11026 -1.11852 0
M  V30 6967 C 648.656 -0.854769 -1.83134 0
M  V30 6968 C 648.977 0.621375 -1.84835 0
M  V30 6969 O 648.247 1.45129 -1.31584 0
M  V30 6970 H 646.827 -0.313229 -0.678157 0
M  V30 6971 H 649.489 -1.40178 -1.35411 0
M  V30 6972 H 648.585 -1.22311 -2.87135 0
M  V30 6973 N 648.886 1.2938 -0.899927 0
M  V30 6974 C 650.132 1.9584 -0.526742 0
M  V30 6975 C 650.465 1.70774 0.924651 0
M  V30 6976 O 649.74 1.02084 1.65557 0
M  V30 6977 C 650.023 3.50638 -0.820062 0
M  V30 6978 C 649.876 3.85161 -2.32317 0
M  V30 6979 C 651.195 4.3903 -0.30671 0
M  V30 6980 H 648.314 0.711322 -0.192848 0
M  V30 6981 H 650.956 1.52992 -1.12665 0
M  V30 6982 H 649.106 3.87265 -0.309491 0
M  V30 6983 H 650.778 3.58477 -2.9033 0
M  V30 6984 H 649.021 3.32696 -2.78381 0
M  V30 6985 H 649.692 4.93204 -2.47898 0
M  V30 6986 H 652.168 4.09396 -0.743908 0
M  V30 6987 H 651.044 5.46226 -0.541144 0
M  V30 6988 H 651.305 4.34937 0.792588 0
M  V30 6989 N 650.364 0.662433 1.43002 0
M  V30 6990 C 651.61 0.179857 2.02001 0
M  V30 6991 C 651.943 -1.20625 1.52195 0
M  V30 6992 O 651.218 -1.80726 0.718911 0
M  V30 6993 C 651.501 0.200845 3.59539 0
M  V30 6994 C 651.354 1.62153 4.19555 0
M  V30 6995 C 652.673 -0.457738 4.37713 0
M  V30 6996 H 649.792 0.0668305 0.733964 0
M  V30 6997 H 652.434 0.84487 1.70182 0
M  V30 6998 H 650.584 -0.365411 3.86778 0
M  V30 6999 H 652.256 2.23908 4.03315 0
M  V30 7000 H 650.499 2.16601 3.75854 0
M  V30 7001 H 651.17 1.58799 5.28665 0
M  V30 7002 H 653.646 0.0241495 4.16093 0
M  V30 7003 H 652.522 -0.412363 5.47349 0
M  V30 7004 H 652.783 -1.53336 4.14657 0
M  V30 7005 N 651.842 -1.52309 0.404946 0
M  V30 7006 C 652.789 -2.26898 -0.422597 0
M  V30 7007 C 653.759 -1.2914 -1.04461 0
M  V30 7008 O 654.944 -1.57996 -1.06967 0
M  V30 7009 C 652.084 -3.09053 -1.53559 0
M  V30 7010 C 651.197 -4.21762 -0.934908 0
M  V30 7011 C 650.332 -4.91283 -2.02025 0
M  V30 7012 C 649.371 -5.95962 -1.39628 0
M  V30 7013 N 648.508 -6.59017 -2.42159 0
M  V30 7014 H 653.348 -2.97188 0.219903 0
M  V30 7015 H 650.885 -1.46607 0.120282 0
M  V30 7016 H 652.843 -3.54987 -2.19181 0
M  V30 7017 H 651.473 -2.40942 -2.14818 0
M  V30 7018 H 650.525 -3.80029 -0.167854 0
M  V30 7019 H 651.837 -4.96864 -0.439073 0
M  V30 7020 H 650.991 -5.40601 -2.75383 0
M  V30 7021 H 649.73 -4.15741 -2.54973 0
M  V30 7022 H 648.735 -5.45968 -0.648023 0
M  V30 7023 H 649.96 -6.73445 -0.874553 0
M  V30 7024 H 647.906 -5.86306 -2.94247 0
M  V30 7025 H 647.823 -7.2978 -1.97376 0
M  V30 7026 H 649.091 -7.12974 -3.15099 0
M  V30 7027 N 653.32 -0.135238 -1.57019 0
M  V30 7028 C 654.736 0.221262 -1.58059 0
M  V30 7029 C 654.936 1.65538 -1.14889 0
M  V30 7030 O 653.992 2.37985 -0.843751 0
M  V30 7031 C 655.305 -0.0268114 -3.00688 0
M  V30 7032 C 656.853 0.0378206 -3.12977 0
M  V30 7033 C 657.328 -0.182769 -4.57635 0
M  V30 7034 N 658.819 -0.129292 -4.6302 0
M  V30 7035 C 659.554 -0.274648 -5.72742 0
M  V30 7036 N 659.05 -0.477075 -6.91155 0
M  V30 7037 N 660.843 -0.213077 -5.61696 0
M  V30 7038 H 652.994 -1.07177 -1.83376 0
M  V30 7039 H 655.257 -0.423338 -0.848227 0
M  V30 7040 H 654.963 -1.01889 -3.36618 0
M  V30 7041 H 654.837 0.697863 -3.70688 0
M  V30 7042 H 657.224 1.02043 -2.76896 0
M  V30 7043 H 657.305 -0.718996 -2.45487 0
M  V30 7044 H 656.949 -1.16243 -4.94419 0
M  V30 7045 H 656.879 0.59423 -5.23237 0
M  V30 7046 H 659.37 0.0229896 -3.77893 0
M  V30 7047 H 659.683 -0.578413 -7.70632 0
M  V30 7048 H 658.028 -0.513252 -6.93102 0
M  V30 7049 H 661.219 -0.0557796 -4.68067 0
M  V30 7050 H 661.392 -0.329796 -6.4716 0
M  V30 7051 N 654.798 1.5699 0.138552 0
M  V30 7052 C 656.044 1.84966 0.846116 0
M  V30 7053 C 656.399 0.72038 1.78405 0
M  V30 7054 O 655.692 -0.281076 1.89527 0
M  V30 7055 C 655.886 3.17007 1.65049 0
M  V30 7056 C 655.715 4.42672 0.79194 0
M  V30 7057 C 654.485 5.03254 0.454293 0
M  V30 7058 C 656.683 5.14164 0.118419 0
M  V30 7059 N 654.665 6.12482 -0.416964 0
M  V30 7060 C 656.036 6.16966 -0.61263 0
M  V30 7061 C 658.091 4.97884 0.0399671 0
M  V30 7062 C 656.794 7.0525 -1.41473 0
M  V30 7063 C 658.82 5.86639 -0.748901 0
M  V30 7064 C 658.182 6.88929 -1.4682 0
M  V30 7065 H 654.281 0.727362 0.287172 0
M  V30 7066 H 656.865 1.94383 0.110972 0
M  V30 7067 H 655.036 3.08722 2.35681 0
M  V30 7068 H 656.768 3.3286 2.30187 0
M  V30 7069 H 653.523 4.6693 0.792038 0
M  V30 7070 H 653.947 6.7172 -0.843865 0
M  V30 7071 H 658.589 4.18779 0.581728 0
M  V30 7072 H 656.307 7.83777 -1.96772 0
M  V30 7073 H 659.893 5.7611 -0.811705 0
M  V30 7074 H 658.773 7.56419 -2.06882 0
M  V30 7075 N 656.276 -0.40816 1.52223 0
M  V30 7076 C 657.239 -1.48 1.7501 0
M  V30 7077 C 658.239 -1.48367 0.619996 0
M  V30 7078 O 659.429 -1.49874 0.887881 0
M  V30 7079 C 656.561 -2.87403 1.83336 0
M  V30 7080 H 657.754 -1.29086 2.70697 0
M  V30 7081 H 655.307 -0.638715 1.42654 0
M  V30 7082 H 656.042 -3.11686 0.895677 0
M  V30 7083 H 655.827 -2.8854 2.65494 0
M  V30 7084 H 657.317 -3.65103 2.02705 0
M  V30 7085 N 657.755 -1.42862 -0.66545 0
M  V30 7086 C 658.665 -1.49491 -1.80803 0
M  V30 7087 C 659.681 -0.382914 -1.69734 0
M  V30 7088 O 660.857 -0.635223 -1.9112 0
M  V30 7089 C 657.922 -1.40383 -3.17007 0
M  V30 7090 C 656.983 -2.62152 -3.39963 0
M  V30 7091 C 656.216 -2.53469 -4.69669 0
M  V30 7092 O 656.439 -1.57568 -5.48205 0
M  V30 7093 O 655.373 -3.43763 -4.94075 0
M  V30 7094 H 659.199 -2.45949 -1.78165 0
M  V30 7095 H 656.784 -1.24728 -0.822387 0
M  V30 7096 H 658.666 -1.377 -3.98267 0
M  V30 7097 H 657.341 -0.470546 -3.20262 0
M  V30 7098 H 656.248 -2.70409 -2.58515 0
M  V30 7099 H 657.581 -3.54411 -3.41546 0
M  V30 7100 N 659.233 0.902656 -1.29189 0
M  V30 7101 C 660.51 1.63296 -1.07674 0
M  V30 7102 C 660.89 2.07649 0.380137 0
M  V30 7103 O 660.238 1.82997 1.36837 0
M  V30 7104 C 660.448 2.81603 -2.06158 0
M  V30 7105 C 661.796 3.52359 -2.36914 0
M  V30 7106 O 662.82 2.91767 -2.04329 0
M  V30 7107 O 661.679 4.61586 -2.92576 0
M  V30 7108 H 658.773 0.716889 -0.41231 0
M  V30 7109 H 661.319 0.950984 -1.4055 0
M  V30 7110 H 660.091 2.46004 -3.04299 0
M  V30 7111 H 659.714 3.57508 -1.73993 0
M  V30 7112 N 660.711 1.11618 1.11262 0
M  V30 7113 C 661.643 0.734015 2.17129 0
M  V30 7114 C 662.656 -0.235243 1.61091 0
M  V30 7115 O 663.845 -0.0178597 1.78491 0
M  V30 7116 C 660.945 0.0643682 3.38839 0
M  V30 7117 C 660.118 1.06092 4.24339 0
M  V30 7118 C 659.177 0.420482 5.24517 0
M  V30 7119 O 658.203 1.07495 5.58957 0
M  V30 7120 N 659.405 -0.815828 5.74739 0
M  V30 7121 H 662.17 1.64492 2.50524 0
M  V30 7122 H 659.731 1.00664 1.26801 0
M  V30 7123 H 661.723 -0.375851 4.02951 0
M  V30 7124 H 660.293 -0.749147 3.03491 0
M  V30 7125 H 659.513 1.67903 3.56654 0
M  V30 7126 H 660.801 1.73507 4.78302 0
M  V30 7127 H 660.199 -1.36668 5.48943 0
M  V30 7128 H 658.756 -1.199 6.40677 0
M  V30 7129 N 662.189 -1.289 0.906776 0
M  V30 7130 C 663.139 -2.25122 0.361109 0
M  V30 7131 C 664.123 -1.52169 -0.52283 0
M  V30 7132 O 665.315 -1.73223 -0.363691 0
M  V30 7133 C 662.444 -3.40915 -0.403982 0
M  V30 7134 C 661.53 -4.21198 0.495279 0
M  V30 7135 N 661.921 -4.79636 1.60572 0
M  V30 7136 C 660.219 -4.45027 0.294372 0
M  V30 7137 C 660.92 -5.39977 2.16332 0
M  V30 7138 N 659.896 -5.23753 1.45546 0
M  V30 7139 H 663.698 -2.67869 1.20927 0
M  V30 7140 H 661.212 -1.43592 0.758632 0
M  V30 7141 H 663.209 -4.08922 -0.811695 0
M  V30 7142 H 661.869 -2.99703 -1.24932 0
M  V30 7143 H 662.88 -4.78209 1.98838 0
M  V30 7144 H 659.557 -4.14348 -0.512021 0
M  V30 7145 H 660.947 -5.96266 3.09704 0
M  V30 7146 N 663.667 -0.670007 -1.42649 0
M  V30 7147 C 664.892 -0.196955 -2.06463 0
M  V30 7148 C 665.317 1.1352 -1.49983 0
M  V30 7149 O 664.675 1.705 -0.616397 0
M  V30 7150 C 664.723 -0.137381 -3.60338 0
M  V30 7151 O 663.827 0.895523 -4.02559 0
M  V30 7152 H 663.168 -0.102579 -0.656029 0
M  V30 7153 H 665.698 -0.917669 -1.82866 0
M  V30 7154 H 665.708 0.0403625 -4.0798 0
M  V30 7155 H 664.383 -1.10977 -4.0082 0
M  V30 7156 H 662.96 0.689209 -3.66476 0
M  V30 7157 N 665.145 1.52092 -0.413018 0
M  V30 7158 C 666.077 2.24819 0.445994 0
M  V30 7159 C 667.09 1.27925 1.00692 0
M  V30 7160 O 668.279 1.53845 0.905204 0
M  V30 7161 C 665.379 2.96951 1.6332 0
M  V30 7162 C 664.552 4.20746 1.19548 0
M  V30 7163 C 663.611 4.75668 2.25003 0
M  V30 7164 O 662.637 5.38148 1.85434 0
M  V30 7165 N 663.839 4.57579 3.57214 0
M  V30 7166 H 666.604 2.99176 -0.177209 0
M  V30 7167 H 664.165 1.60102 -0.240601 0
M  V30 7168 H 666.157 3.30586 2.33441 0
M  V30 7169 H 664.727 2.25756 2.16225 0
M  V30 7170 H 663.947 3.92881 0.32224 0
M  V30 7171 H 665.235 5.01132 0.880033 0
M  V30 7172 H 664.633 4.07758 3.92109 0
M  V30 7173 H 663.19 4.95642 4.23299 0
M  V30 7174 N 666.623 0.143563 1.56945 0
M  V30 7175 C 667.871 -0.507402 1.95627 0
M  V30 7176 C 668.192 -1.65626 1.02922 0
M  V30 7177 O 667.462 -1.95693 0.0901136 0
M  V30 7178 H 666.042 -0.190436 0.722318 0
M  V30 7179 H 668.704 0.218257 1.93674 0
M  V30 7180 H 667.8 -0.885816 2.99265 0
M  V30 7181 N 668.101 -1.57061 -0.130224 0
M  V30 7182 C 669.349 -1.83893 -0.838313 0
M  V30 7183 C 669.67 -0.727046 -1.80939 0
M  V30 7184 O 668.94 0.249927 -1.94299 0
M  V30 7185 H 667.52 -0.67846 -0.312573 0
M  V30 7186 H 670.182 -1.94529 -0.120224 0
M  V30 7187 H 669.278 -2.79419 -1.39038 0
M  V30 7188 N 669.579 0.400081 -1.52437 0
M  V30 7189 C 670.826 1.14619 -1.6694 0
M  V30 7190 C 671.154 1.90262 -0.403797 0
M  V30 7191 O 670.409 1.85835 0.61351 0
M  V30 7192 C 670.708 2.15914 -2.84808 0
M  V30 7193 C 670.374 1.57011 -4.2268 0
M  V30 7194 C 669.036 1.40672 -4.60179 0
M  V30 7195 C 671.388 1.14081 -5.08562 0
M  V30 7196 C 668.716 0.799335 -5.81229 0
M  V30 7197 C 671.068 0.547573 -6.30226 0
M  V30 7198 C 669.732 0.371389 -6.66466 0
M  V30 7199 H 669.002 0.419419 -0.610875 0
M  V30 7200 H 671.649 0.432227 -1.86558 0
M  V30 7201 H 669.954 2.93488 -2.59561 0
M  V30 7202 H 671.651 2.73533 -2.93225 0
M  V30 7203 H 668.241 1.70713 -3.93135 0
M  V30 7204 H 672.425 1.2551 -4.80168 0
M  V30 7205 H 667.681 0.65093 -6.07925 0
M  V30 7206 H 671.855 0.206575 -6.96094 0
M  V30 7207 H 669.482 -0.10135 -7.60132 0
M  V30 7208 N 671.057 1.43213 0.657864 0
M  V30 7209 C 672.303 1.44798 1.41991 0
M  V30 7210 C 672.636 0.070256 1.94073 0
M  V30 7211 O 671.911 -0.908177 1.71995 0
M  V30 7212 C 672.194 2.4865 2.60471 0
M  V30 7213 C 672.047 3.95679 2.13911 0
M  V30 7214 C 673.366 2.49292 3.62686 0
M  V30 7215 H 670.485 0.527244 0.514959 0
M  V30 7216 H 673.127 1.74733 0.74621 0
M  V30 7217 H 671.277 2.23254 3.17946 0
M  V30 7218 H 672.949 4.32116 1.61472 0
M  V30 7219 H 671.192 4.08733 1.45325 0
M  V30 7220 H 671.863 4.6395 2.99089 0
M  V30 7221 H 674.339 2.71917 3.14961 0
M  V30 7222 H 673.215 3.23907 4.43143 0
M  V30 7223 H 673.476 1.52502 4.14964 0
M  V30 7224 N 672.536 -0.895792 1.29666 0
M  V30 7225 C 673.782 -1.64908 1.18039 0
M  V30 7226 C 674.115 -1.9236 -0.266682 0
M  V30 7227 O 673.39 -1.53682 -1.19214 0
M  V30 7228 C 673.673 -2.99574 1.99819 0
M  V30 7229 C 673.526 -2.79163 3.52687 0
M  V30 7230 C 674.845 -4.00358 1.82761 0
M  V30 7231 H 671.964 -0.598437 0.430165 0
M  V30 7232 H 674.606 -1.03736 1.59182 0
M  V30 7233 H 672.756 -3.51786 1.64859 0
M  V30 7234 H 674.428 -2.33821 3.9765 0
M  V30 7235 H 672.671 -2.13871 3.77414 0
M  V30 7236 H 673.342 -3.74871 4.05186 0
M  V30 7237 H 675.818 -3.57268 2.13304 0
M  V30 7238 H 674.694 -4.92514 2.42325 0
M  V30 7239 H 674.955 -4.35096 0.783839 0
M  V30 7240 N 674.014 -1.12206 -1.10668 0
M  V30 7241 C 674.946 -0.74552 -2.16736 0
M  V30 7242 C 675.959 0.226696 -1.61214 0
M  V30 7243 O 677.148 0.0083936 -1.78498 0
M  V30 7244 C 674.248 -0.0823368 -3.388 0
M  V30 7245 C 673.421 -1.08341 -4.2377 0
M  V30 7246 C 672.48 -0.448292 -5.24287 0
M  V30 7247 O 671.506 -1.10458 -5.58379 0
M  V30 7248 N 672.708 0.785336 -5.75163 0
M  V30 7249 H 675.473 -1.65818 -2.49649 0
M  V30 7250 H 673.034 -1.01335 -1.26265 0
M  V30 7251 H 675.026 0.354476 -4.03145 0
M  V30 7252 H 673.596 0.733041 -3.03884 0
M  V30 7253 H 672.816 -1.69792 -3.55759 0
M  V30 7254 H 674.104 -1.76042 -4.77375 0
M  V30 7255 H 673.502 1.33755 -5.4966 0
M  V30 7256 H 672.059 1.16501 -6.41304 0
M  V30 7257 N 675.492 1.28418 -0.913599 0
M  V30 7258 C 676.903 1.77024 -0.593237 0
M  V30 7259 C 677.254 1.74779 0.891441 0
M  V30 7260 O 676.379 1.34237 1.69733 0
M  V30 7261 C 676.974 3.21456 -1.07011 0
M  V30 7262 C 675.533 3.67786 -0.800664 0
M  V30 7263 C 674.68 2.48185 -1.23691 0
M  V30 7264 H 677.631 1.14883 -1.09487 0
M  V30 7265 H 677.652 3.78269 -0.411481 0
M  V30 7266 H 677.164 3.23058 -2.1507 0
M  V30 7267 H 675.265 3.71644 0.266725 0
M  V30 7268 H 675.378 4.57934 -1.4083 0
M  V30 7269 H 673.742 2.46116 -0.655655 0
M  V30 7270 H 674.525 2.52506 -2.32585 0
M  V30 7271 N 676.97 0.677563 1.42291 0
M  V30 7272 C 678.381 0.277912 1.8462 0
M  V30 7273 C 678.732 -1.18048 1.56714 0
M  V30 7274 O 677.857 -1.90404 1.02836 0
M  V30 7275 C 678.452 0.497619 3.35126 0
M  V30 7276 C 677.011 0.152063 3.76093 0
M  V30 7277 C 676.158 0.78872 2.65847 0
M  V30 7278 H 679.109 0.879527 1.32098 0
M  V30 7279 H 679.13 -0.24939 3.79682 0
M  V30 7280 H 678.642 1.55913 3.55405 0
M  V30 7281 H 676.743 -0.905896 3.6142 0
M  V30 7282 H 676.856 0.594514 4.75397 0
M  V30 7283 H 675.22 0.219813 2.5375 0
M  V30 7284 H 676.003 1.85374 2.88949 0
M  V30 7285 N 678.448 -1.51871 0.421078 0
M  V30 7286 C 679.411 -2.25914 -0.386712 0
M  V30 7287 C 680.411 -1.28733 -0.963555 0
M  V30 7288 O 681.601 -1.52579 -0.840556 0
M  V30 7289 C 678.733 -3.03853 -1.54551 0
M  V30 7290 H 679.926 -2.98754 0.261978 0
M  V30 7291 H 677.479 -1.5533 0.173862 0
M  V30 7292 H 678.214 -2.35392 -2.23072 0
M  V30 7293 H 677.999 -3.75215 -1.13824 0
M  V30 7294 H 679.489 -3.59984 -2.11663 0
M  V30 7295 N 679.926 -0.151884 -1.56866 0
M  V30 7296 C 680.856 0.781943 -2.20018 0
M  V30 7297 C 681.837 1.25347 -1.14987 0
M  V30 7298 O 683.022 1.31015 -1.43348 0
M  V30 7299 C 680.152 2.01928 -2.82564 0
M  V30 7300 C 679.106 1.68434 -3.93464 0
M  V30 7301 C 678.432 2.99472 -4.42968 0
M  V30 7302 C 679.732 0.927244 -5.14003 0
M  V30 7303 H 681.426 0.255607 -2.98307 0
M  V30 7304 H 678.972 0.121502 -1.43486 0
M  V30 7305 H 680.925 2.67741 -3.25411 0
M  V30 7306 H 679.649 2.56943 -2.01614 0
M  V30 7307 H 678.308 1.04998 -3.51242 0
M  V30 7308 H 677.956 3.52488 -3.58834 0
M  V30 7309 H 677.656 2.77823 -5.17772 0
M  V30 7310 H 679.18 3.66348 -4.88489 0
M  V30 7311 H 680.594 1.48756 -5.53665 0
M  V30 7312 H 678.991 0.810513 -5.94601 0
M  V30 7313 H 680.061 -0.0801163 -4.84834 0
M  V30 7314 N 681.404 1.57128 0.121893 0
M  V30 7315 C 682.65 1.85853 0.826451 0
M  V30 7316 C 683.005 0.739262 1.77631 0
M  V30 7317 O 682.298 -0.260959 1.89815 0
M  V30 7318 C 682.492 3.1874 1.61677 0
M  V30 7319 C 682.321 4.43487 0.744944 0
M  V30 7320 C 681.091 5.03707 0.400891 0
M  V30 7321 C 683.289 5.1426 0.0638779 0
M  V30 7322 N 681.271 6.12006 -0.481902 0
M  V30 7323 C 682.642 6.16281 -0.678033 0
M  V30 7324 C 684.697 4.97898 -0.0128424 0
M  V30 7325 C 683.4 7.0371 -1.48946 0
M  V30 7326 C 685.426 5.85812 -0.81108 0
M  V30 7327 C 684.788 6.87333 -1.54119 0
M  V30 7328 H 680.887 0.730367 0.279442 0
M  V30 7329 H 683.471 1.9449 0.0903486 0
M  V30 7330 H 681.642 3.11204 2.32393 0
M  V30 7331 H 683.374 3.35283 2.26644 0
M  V30 7332 H 680.129 4.67744 0.742469 0
M  V30 7333 H 680.553 6.70787 -0.915063 0
M  V30 7334 H 685.195 4.19372 0.537278 0
M  V30 7335 H 682.913 7.81646 -2.05074 0
M  V30 7336 H 686.499 5.75217 -0.872764 0
M  V30 7337 H 685.379 7.54182 -2.14893 0
M  V30 7338 N 682.882 -0.391992 1.52647 0
M  V30 7339 C 683.814 -1.49811 1.73463 0
M  V30 7340 C 684.827 -1.50734 0.615078 0
M  V30 7341 O 686.016 -1.5469 0.890696 0
M  V30 7342 C 683.116 -2.88667 1.77552 0
M  V30 7343 C 682.289 -3.11743 3.06815 0
M  V30 7344 C 681.348 -4.30564 3.02491 0
M  V30 7345 O 680.374 -4.27014 3.76361 0
M  V30 7346 N 681.576 -5.36593 2.21468 0
M  V30 7347 H 684.341 -1.32343 2.68897 0
M  V30 7348 H 681.902 -0.581475 1.51098 0
M  V30 7349 H 683.894 -3.66251 1.7217 0
M  V30 7350 H 682.464 -2.99508 0.895181 0
M  V30 7351 H 681.684 -2.2205 3.25711 0
M  V30 7352 H 682.972 -3.24013 3.92292 0
M  V30 7353 H 682.37 -5.42332 1.60913 0
M  V30 7354 H 680.927 -6.12855 2.21928 0
M  V30 7355 N 684.36 -1.4356 -0.65026 0
M  V30 7356 C 685.588 -1.48779 -1.43779 0
M  V30 7357 C 686.003 -0.106593 -1.88499 0
M  V30 7358 O 685.36 0.883766 -1.59674 0
M  V30 7359 C 685.411 -2.43618 -2.67081 0
M  V30 7360 O 685.132 -3.76367 -2.24231 0
M  V30 7361 C 686.633 -2.5811 -3.60409 0
M  V30 7362 H 683.853 -0.50521 -0.441593 0
M  V30 7363 H 686.397 -1.88332 -0.796941 0
M  V30 7364 H 684.552 -2.07253 -3.273 0
M  V30 7365 H 684.966 -4.27394 -3.0403 0
M  V30 7366 H 686.44 -3.28539 -4.43583 0
M  V30 7367 H 686.917 -1.627 -4.07953 0
M  V30 7368 H 687.523 -2.95298 -3.0607 0
M  V30 7369 N 685.838 0.888903 -1.30139 0
M  V30 7370 C 686.748 2.02705 -1.18101 0
M  V30 7371 C 687.764 1.73702 -0.101809 0
M  V30 7372 O 688.94 1.98906 -0.315984 0
M  V30 7373 C 686.005 3.35616 -0.869651 0
M  V30 7374 C 685.066 3.78067 -2.03381 0
M  V30 7375 C 684.299 5.04635 -1.73721 0
M  V30 7376 O 684.522 5.66531 -0.663267 0
M  V30 7377 O 683.456 5.43399 -2.58845 0
M  V30 7378 H 687.282 2.15788 -2.13704 0
M  V30 7379 H 684.867 1.01426 -1.09695 0
M  V30 7380 H 686.749 4.15358 -0.711043 0
M  V30 7381 H 685.424 3.23651 0.0565002 0
M  V30 7382 H 684.331 2.99046 -2.24772 0
M  V30 7383 H 685.664 3.94631 -2.94155 0
M  V30 7384 N 687.317 1.12792 1.10072 0
M  V30 7385 C 688.264 0.79921 2.16521 0
M  V30 7386 C 689.234 -0.235726 1.64419 0
M  V30 7387 O 690.419 -0.109457 1.90486 0
M  V30 7388 C 687.559 0.264091 3.44088 0
M  V30 7389 C 686.672 1.35729 4.10124 0
M  V30 7390 C 685.807 0.781212 5.25424 0
M  V30 7391 C 684.846 1.85327 5.8337 0
M  V30 7392 N 683.983 1.29564 6.90042 0
M  V30 7393 H 688.823 1.71105 2.43981 0
M  V30 7394 H 686.36 0.854225 1.19756 0
M  V30 7395 H 688.318 -0.0642423 4.17151 0
M  V30 7396 H 686.948 -0.610901 3.16967 0
M  V30 7397 H 686 1.80234 3.34993 0
M  V30 7398 H 687.312 2.16782 4.4923 0
M  V30 7399 H 686.466 0.403769 6.05355 0
M  V30 7400 H 685.205 -0.0604686 4.87663 0
M  V30 7401 H 684.21 2.23986 5.02106 0
M  V30 7402 H 685.435 2.69824 6.23195 0
M  V30 7403 H 683.381 0.475844 6.54272 0
M  V30 7404 H 683.298 2.04271 7.2788 0
M  V30 7405 H 684.566 0.945545 7.73744 0
M  V30 7406 N 688.795 -1.27931 0.920396 0
M  V30 7407 C 690.072 -1.89728 0.475687 0
M  V30 7408 C 690.452 -1.8337 -1.04588 0
M  V30 7409 O 689.8 -1.27404 -1.89685 0
M  V30 7410 C 690.01 -3.33959 1.01354 0
M  V30 7411 C 691.358 -4.10907 1.06963 0
M  V30 7412 O 692.382 -3.42945 0.962646 0
M  V30 7413 O 691.241 -5.32399 1.23343 0
M  V30 7414 H 688.335 -0.81294 0.151845 0
M  V30 7415 H 690.881 -1.36252 1.01161 0
M  V30 7416 H 689.653 -3.32843 2.05746 0
M  V30 7417 H 689.276 -3.94944 0.458829 0
M  V30 7418 N 690.273 -0.685099 -1.4193 0
M  V30 7419 C 691.55 -0.140152 -1.95097 0
M  V30 7420 C 691.93 1.34745 -1.62502 0
M  V30 7421 O 691.278 2.08872 -0.926534 0
M  V30 7422 C 691.488 -0.420268 -3.4646 0
M  V30 7423 C 692.836 -0.342338 -4.23218 0
M  V30 7424 O 693.86 -0.354592 -3.54431 0
M  V30 7425 O 692.719 -0.293404 -5.45712 0
M  V30 7426 H 689.813 -0.00885998 -0.826953 0
M  V30 7427 H 692.359 -0.760539 -1.51703 0
M  V30 7428 H 691.131 -1.45037 -3.63428 0
M  V30 7429 H 690.754 0.231616 -3.96925 0
M  V30 7430 N 691.751 1.51645 -0.429126 0
M  V30 7431 C 692.997 2.02967 0.132584 0
M  V30 7432 C 693.352 1.30804 1.41096 0
M  V30 7433 O 692.645 0.411705 1.87124 0
M  V30 7434 C 692.839 3.54989 0.414472 0
M  V30 7435 C 692.668 4.41879 -0.83503 0
M  V30 7436 C 691.438 4.86482 -1.36614 0
M  V30 7437 C 693.636 4.84727 -1.71886 0
M  V30 7438 N 691.618 5.5756 -2.56904 0
M  V30 7439 C 692.989 5.54788 -2.76786 0
M  V30 7440 C 695.044 4.66721 -1.73425 0
M  V30 7441 C 693.747 6.08753 -3.8316 0
M  V30 7442 C 695.773 5.21597 -2.7873 0
M  V30 7443 C 695.135 5.91598 -3.8235 0
M  V30 7444 H 691.234 0.781942 0.00956367 0
M  V30 7445 H 693.818 1.8561 -0.587957 0
M  V30 7446 H 691.989 3.72378 1.10405 0
M  V30 7447 H 693.721 3.92982 0.966817 0
M  V30 7448 H 690.476 4.64553 -0.921255 0
M  V30 7449 H 690.9 5.97731 -3.17879 0
M  V30 7450 H 695.542 4.1207 -0.946467 0
M  V30 7451 H 693.26 6.62464 -4.62782 0
M  V30 7452 H 696.846 5.09522 -2.80853 0
M  V30 7453 H 695.726 6.33299 -4.62495 0
M  V30 7454 N 693.229 0.160201 1.56784 0
M  V30 7455 C 694.457 -0.494165 2.00912 0
M  V30 7456 C 694.872 -1.57548 1.04038 0
M  V30 7457 O 694.229 -1.82457 0.0394581 0
M  V30 7458 C 694.28 -1.08271 3.44905 0
M  V30 7459 O 694.001 -0.0445704 4.38077 0
M  V30 7460 C 695.502 -1.8164 4.04378 0
M  V30 7461 H 692.722 -0.127498 0.658776 0
M  V30 7462 H 695.266 0.258665 2.02858 0
M  V30 7463 H 693.421 -1.78609 3.4377 0
M  V30 7464 H 693.835 -0.477544 5.22322 0
M  V30 7465 H 695.309 -2.18094 5.07089 0
M  V30 7466 H 695.786 -2.70727 3.45838 0
M  V30 7467 H 696.392 -1.15969 4.09184 0
M  V30 7468 N 694.707 -1.5719 -0.113559 0
M  V30 7469 C 695.953 -1.85412 -0.821597 0
M  V30 7470 C 696.286 -0.746722 -1.7927 0
M  V30 7471 O 695.561 0.246971 -1.92926 0
M  V30 7472 C 695.844 -3.24233 -1.56669 0
M  V30 7473 C 695.697 -4.45578 -0.614823 0
M  V30 7474 C 697.016 -3.60697 -2.52161 0
M  V30 7475 H 694.135 -0.674406 -0.29723 0
M  V30 7476 H 696.777 -1.89807 -0.085694 0
M  V30 7477 H 694.927 -3.20617 -2.19401 0
M  V30 7478 H 696.599 -4.613 0.00407137 0
M  V30 7479 H 694.842 -4.33738 0.0732332 0
M  V30 7480 H 695.513 -5.39395 -1.17292 0
M  V30 7481 H 697.989 -3.65139 -1.99532 0
M  V30 7482 H 696.865 -4.58798 -3.01323 0
M  V30 7483 H 697.126 -2.88403 -3.35076 0
M  V30 7484 N 696.185 0.383891 -1.52853 0
M  V30 7485 C 697.596 0.961591 -1.60032 0
M  V30 7486 C 697.947 1.90819 -0.456333 0
M  V30 7487 O 697.072 2.12288 0.419873 0
M  V30 7488 C 697.667 1.75078 -2.90057 0
M  V30 7489 C 696.226 2.2781 -2.99632 0
M  V30 7490 C 695.373 1.08512 -2.55187 0
M  V30 7491 H 698.324 0.163269 -1.57858 0
M  V30 7492 H 698.345 2.61046 -2.7683 0
M  V30 7493 H 697.857 1.06157 -3.73299 0
M  V30 7494 H 695.958 3.00028 -2.20939 0
M  V30 7495 H 696.071 2.56947 -4.0437 0
M  V30 7496 H 694.435 1.44667 -2.09627 0
M  V30 7497 H 695.218 0.41118 -3.40829 0
M  V30 7498 N 697.663 1.43903 0.642637 0
M  V30 7499 C 698.893 1.49323 1.4278 0
M  V30 7500 C 699.301 0.113058 1.88862 0
M  V30 7501 O 698.644 -0.889089 1.60751 0
M  V30 7502 C 698.706 2.3861 2.68897 0
M  V30 7503 C 698.37 3.85976 2.44687 0
M  V30 7504 C 699.367 4.7681 2.07239 0
M  V30 7505 C 697.052 4.30567 2.58683 0
M  V30 7506 C 699.046 6.10234 1.841 0
M  V30 7507 C 696.733 5.64042 2.35159 0
M  V30 7508 C 697.731 6.53693 1.97925 0
M  V30 7509 O 697.419 7.84698 1.74654 0
M  V30 7510 H 697.151 0.509109 0.444729 0
M  V30 7511 H 699.705 1.89425 0.794195 0
M  V30 7512 H 697.935 1.93415 3.34855 0
M  V30 7513 H 699.624 2.35112 3.30873 0
M  V30 7514 H 700.39 4.43635 1.95993 0
M  V30 7515 H 696.269 3.61054 2.86637 0
M  V30 7516 H 699.813 6.80171 1.54962 0
M  V30 7517 H 695.71 5.96782 2.46011 0
M  V30 7518 H 696.478 7.96382 1.88993 0
M  V30 7519 N 699.141 -0.881989 1.30609 0
M  V30 7520 C 700.389 -1.63082 1.19368 0
M  V30 7521 C 700.71 -1.93376 -0.251147 0
M  V30 7522 O 699.98 -1.5723 -1.16857 0
M  V30 7523 H 698.56 -0.604542 0.438791 0
M  V30 7524 H 701.222 -1.05658 1.63776 0
M  V30 7525 H 700.318 -2.57966 1.7567 0
M  V30 7526 N 700.619 -1.13374 -1.09472 0
M  V30 7527 C 702.035 -0.871846 -1.33682 0
M  V30 7528 C 702.235 0.492847 -1.9538 0
M  V30 7529 O 701.291 1.23946 -2.19985 0
M  V30 7530 C 702.604 -1.99608 -2.24893 0
M  V30 7531 C 704.152 -2.02812 -2.38404 0
M  V30 7532 C 704.627 -3.14497 -3.3295 0
M  V30 7533 N 706.118 -3.14004 -3.40523 0
M  V30 7534 C 706.853 -3.97061 -4.13679 0
M  V30 7535 N 706.349 -4.90131 -4.89636 0
M  V30 7536 N 708.142 -3.85162 -4.09398 0
M  V30 7537 H 700.293 -2.01288 -0.677995 0
M  V30 7538 H 702.556 -0.876492 -0.361201 0
M  V30 7539 H 702.262 -2.98 -1.86786 0
M  V30 7540 H 702.136 -1.90981 -3.25278 0
M  V30 7541 H 704.523 -1.05034 -2.75775 0
M  V30 7542 H 704.604 -2.15511 -1.37799 0
M  V30 7543 H 704.248 -4.12514 -2.96302 0
M  V30 7544 H 704.178 -2.99035 -4.33458 0
M  V30 7545 H 706.669 -2.46587 -2.86362 0
M  V30 7546 H 706.982 -5.49996 -5.42885 0
M  V30 7547 H 705.327 -4.94138 -4.88726 0
M  V30 7548 H 708.518 -3.11779 -3.49158 0
M  V30 7549 H 708.691 -4.5012 -4.6615 0
M  V30 7550 N 702.098 1.27442 -0.927168 0
M  V30 7551 C 703.347 1.93679 -0.563146 0
M  V30 7552 C 703.66 1.73673 0.899837 0
M  V30 7553 O 704.866 2.34247 1.37262 0
M  V30 7554 C 703.322 3.46961 -0.95636 0
M  V30 7555 C 702.93 3.75724 -2.43999 0
M  V30 7556 C 704.674 4.19282 -0.663565 0
M  V30 7557 C 702.581 5.22378 -2.77263 0
M  V30 7558 H 701.511 0.725059 -0.206894 0
M  V30 7559 H 704.162 1.44743 -1.12791 0
M  V30 7560 H 702.544 3.94703 -0.320254 0
M  V30 7561 H 703.718 3.38741 -3.12396 0
M  V30 7562 H 702.033 3.16605 -2.70463 0
M  V30 7563 H 704.63 5.27265 -0.888596 0
M  V30 7564 H 704.973 4.14382 0.399198 0
M  V30 7565 H 705.506 3.7736 -1.25875 0
M  V30 7566 H 702.245 5.32367 -3.82446 0
M  V30 7567 H 701.765 5.6051 -2.13516 0
M  V30 7568 H 703.444 5.9025 -2.64979 0
M  V30 7569 N 703.576 0.692616 1.41565 0
M  V30 7570 C 704.806 0.230943 2.05305 0
M  V30 7571 C 705.214 -1.12379 1.52209 0
M  V30 7572 O 704.557 -1.71281 0.663968 0
M  V30 7573 C 704.619 0.107894 3.59338 0
M  V30 7574 C 704.283 1.39419 4.35214 0
M  V30 7575 C 705.28 2.33143 4.64694 0
M  V30 7576 C 702.965 1.64674 4.74539 0
M  V30 7577 C 704.959 3.50385 5.32456 0
M  V30 7578 C 702.646 2.82202 5.42038 0
M  V30 7579 C 703.644 3.74881 5.70923 0
M  V30 7580 O 703.332 4.90351 6.37033 0
M  V30 7581 H 703.064 0.105708 0.667684 0
M  V30 7582 H 705.618 0.94488 1.82376 0
M  V30 7583 H 703.848 -0.661785 3.80995 0
M  V30 7584 H 705.537 -0.316213 4.04666 0
M  V30 7585 H 706.303 2.14887 4.34797 0
M  V30 7586 H 702.182 0.934007 4.51439 0
M  V30 7587 H 705.726 4.22743 5.54918 0
M  V30 7588 H 701.623 3.00376 5.71353 0
M  V30 7589 H 702.391 4.90128 6.55528 0
M  V30 7590 N 705.054 -1.51416 0.437162 0
M  V30 7591 C 706.301 -2.02086 -0.129364 0
M  V30 7592 C 706.629 -1.32133 -1.42728 0
M  V30 7593 O 705.884 -0.424916 -1.91031 0
M  V30 7594 C 706.183 -3.55203 -0.39564 0
M  V30 7595 C 705.849 -4.43447 0.81644 0
M  V30 7596 C 704.511 -4.67285 1.14884 0
M  V30 7597 C 706.863 -4.95219 1.62503 0
M  V30 7598 C 704.191 -5.40141 2.29052 0
M  V30 7599 C 706.543 -5.69327 2.7577 0
M  V30 7600 C 705.207 -5.91429 3.09464 0
M  V30 7601 H 704.477 -0.739486 -0.0473375 0
M  V30 7602 H 707.124 -1.82368 0.584321 0
M  V30 7603 H 705.429 -3.73252 -1.19121 0
M  V30 7604 H 707.126 -3.91944 -0.847399 0
M  V30 7605 H 703.716 -4.2509 0.547422 0
M  V30 7606 H 707.9 -4.76686 1.38144 0
M  V30 7607 H 703.156 -5.55468 2.55471 0
M  V30 7608 H 707.33 -6.08433 3.38795 0
M  V30 7609 H 704.957 -6.47662 3.98042 0
M  V30 7610 N 706.532 -0.168513 -1.56696 0
M  V30 7611 C 707.495 0.748928 -2.16619 0
M  V30 7612 C 708.495 1.16007 -1.11351 0
M  V30 7613 O 709.685 1.07748 -1.3688 0
M  V30 7614 C 706.817 2.01904 -2.74677 0
M  V30 7615 H 708.01 0.227317 -2.99037 0
M  V30 7616 H 705.563 0.0810372 -1.5609 0
M  V30 7617 H 706.298 2.58381 -1.95985 0
M  V30 7618 H 706.083 1.73323 -3.51712 0
M  V30 7619 H 707.573 2.67383 -3.20774 0
M  V30 7620 N 708.01 1.57248 0.105221 0
M  V30 7621 C 709.258 1.85204 0.808951 0
M  V30 7622 C 709.579 0.75574 1.7976 0
M  V30 7623 O 708.849 -0.218984 1.94672 0
M  V30 7624 H 707.429 0.683346 0.301739 0
M  V30 7625 H 710.091 1.94695 0.0892605 0
M  V30 7626 H 709.187 2.81595 1.34575 0
M  V30 7627 N 709.488 -0.375779 1.53054 0
M  V30 7628 C 710.398 -1.48381 1.81715 0
M  V30 7629 C 711.414 -1.59087 0.704795 0
M  V30 7630 O 712.59 -1.75174 0.993785 0
M  V30 7631 C 709.655 -2.83767 1.99192 0
M  V30 7632 C 708.716 -2.82673 3.23102 0
M  V30 7633 C 707.949 -4.11601 3.39736 0
M  V30 7634 O 708.172 -5.07243 2.60885 0
M  V30 7635 O 707.106 -4.18034 4.33049 0
M  V30 7636 H 710.932 -1.27089 2.7583 0
M  V30 7637 H 708.517 -0.564902 1.38308 0
M  V30 7638 H 710.399 -3.64004 2.12318 0
M  V30 7639 H 709.074 -3.05057 1.08267 0
M  V30 7640 H 707.981 -2.0117 3.15407 0
M  V30 7641 H 709.314 -2.66335 4.13916 0
M  V30 7642 N 710.966 -1.44241 -0.634997 0
M  V30 7643 C 711.916 -1.47247 -1.74076 0
M  V30 7644 C 712.9 -0.338708 -1.57295 0
M  V30 7645 O 714.092 -0.583751 -1.67097 0
M  V30 7646 C 711.221 -1.41579 -3.12746 0
M  V30 7647 C 710.307 -2.60055 -3.35011 0
M  V30 7648 N 710.698 -3.85321 -3.27661 0
M  V30 7649 C 708.996 -2.55168 -3.65794 0
M  V30 7650 C 709.697 -4.64241 -3.50508 0
M  V30 7651 N 708.673 -3.95254 -3.73196 0
M  V30 7652 H 712.475 -2.4195 -1.66845 0
M  V30 7653 H 709.989 -1.3915 -0.837326 0
M  V30 7654 H 711.986 -1.41816 -3.92038 0
M  V30 7655 H 710.646 -0.479108 -3.21146 0
M  V30 7656 H 711.657 -4.17345 -3.06665 0
M  V30 7657 H 708.334 -1.70276 -3.81198 0
M  V30 7658 H 709.724 -5.73267 -3.50449 0
M  V30 7659 N 712.444 0.87505 -1.31075 0
M  V30 7660 C 713.672 1.66058 -1.23419 0
M  V30 7661 C 714.087 1.87723 0.201347 0
M  V30 7662 O 713.444 1.43178 1.13165 0
M  V30 7663 C 713.495 3.03142 -1.96945 0
M  V30 7664 O 713.216 2.82448 -3.34895 0
M  V30 7665 C 714.717 3.97583 -1.96067 0
M  V30 7666 H 711.937 0.517868 -0.426677 0
M  V30 7667 H 714.481 1.09258 -1.72867 0
M  V30 7668 H 712.636 3.56645 -1.51271 0
M  V30 7669 H 713.05 3.69483 -3.72267 0
M  V30 7670 H 714.524 4.91104 -2.52034 0
M  V30 7671 H 715.001 4.2898 -0.941961 0
M  V30 7672 H 715.607 3.50015 -2.41597 0
M  V30 7673 N 713.922 1.13953 1.08869 0
M  V30 7674 C 714.885 0.824991 2.13838 0
M  V30 7675 C 715.885 -0.168198 1.59918 0
M  V30 7676 O 717.075 0.0595778 1.74098 0
M  V30 7677 C 714.207 0.228938 3.4013 0
M  V30 7678 H 715.4 1.75521 2.43171 0
M  V30 7679 H 712.953 0.94492 1.24503 0
M  V30 7680 H 713.688 -0.710227 3.16427 0
M  V30 7681 H 713.473 0.944243 3.80561 0
M  V30 7682 H 714.963 0.0259223 4.17592 0
M  V30 7683 N 715.4 -1.26948 0.933913 0
M  V30 7684 C 716.63 -1.97898 0.593279 0
M  V30 7685 C 717.038 -1.69806 -0.834412 0
M  V30 7686 O 716.381 -0.958704 -1.56699 0
M  V30 7687 C 716.443 -3.51657 0.746825 0
M  V30 7688 C 716.107 -4.03384 2.14779 0
M  V30 7689 C 717.104 -4.15682 3.12257 0
M  V30 7690 C 714.789 -4.37577 2.46641 0
M  V30 7691 C 716.783 -4.61455 4.39702 0
M  V30 7692 C 714.47 -4.8304 3.7432 0
M  V30 7693 C 715.468 -4.94939 4.70664 0
M  V30 7694 O 715.156 -5.39403 5.96071 0
M  V30 7695 H 714.888 -0.63814 0.223055 0
M  V30 7696 H 717.442 -1.62608 1.2549 0
M  V30 7697 H 715.672 -3.8669 0.0280889 0
M  V30 7698 H 717.361 -4.03821 0.410328 0
M  V30 7699 H 718.127 -3.89519 2.88964 0
M  V30 7700 H 714.006 -4.27554 1.72391 0
M  V30 7701 H 717.55 -4.70658 5.14905 0
M  V30 7702 H 713.447 -5.08646 3.97429 0
M  V30 7703 H 714.215 -5.57641 5.99148 0
M  V30 7704 N 716.879 -0.700114 -1.41195 0
M  V30 7705 C 718.29 -0.307249 -1.84154 0
M  V30 7706 C 718.641 1.15539 -1.58572 0
M  V30 7707 O 717.766 1.88744 -1.05852 0
M  V30 7708 C 718.361 -0.550872 -3.34292 0
M  V30 7709 C 716.92 -0.211877 -3.75803 0
M  V30 7710 C 716.067 -0.830915 -2.64558 0
M  V30 7711 H 719.018 -0.900431 -1.30683 0
M  V30 7712 H 719.039 0.188954 -3.80031 0
M  V30 7713 H 718.551 -1.61548 -3.5288 0
M  V30 7714 H 716.652 0.848283 -3.62815 0
M  V30 7715 H 716.765 -0.67007 -4.74391 0
M  V30 7716 H 715.129 -0.260155 -2.53368 0
M  V30 7717 H 715.912 -1.89948 -2.85963 0
M  V30 7718 N 718.357 1.51182 -0.445186 0
M  V30 7719 C 719.307 2.24804 0.380394 0
M  V30 7720 C 720.291 1.27344 0.983482 0
M  V30 7721 O 721.483 1.52392 0.900322 0
M  V30 7722 C 718.612 3.09922 1.4766 0
M  V30 7723 C 717.698 4.14816 0.882517 0
M  V30 7724 N 718.089 5.05797 0.0183278 0
M  V30 7725 C 716.387 4.30938 1.14927 0
M  V30 7726 C 717.088 5.8084 -0.316152 0
M  V30 7727 N 716.064 5.42759 0.302214 0
M  V30 7728 H 719.866 2.92508 -0.285737 0
M  V30 7729 H 717.38 1.60342 -0.257733 0
M  V30 7730 H 719.377 3.61249 2.08098 0
M  V30 7731 H 718.037 2.43763 2.14498 0
M  V30 7732 H 719.048 5.16725 -0.348679 0
M  V30 7733 H 715.725 3.76005 1.81457 0
M  V30 7734 H 717.115 6.64115 -1.01986 0
M  V30 7735 N 719.835 0.176821 1.56605 0
M  V30 7736 C 721.083 -0.465793 1.96659 0
M  V30 7737 C 721.404 -1.63406 1.06412 0
M  V30 7738 O 720.674 -1.95457 0.131603 0
M  V30 7739 H 719.254 -0.175072 0.726195 0
M  V30 7740 H 721.916 0.25929 1.93168 0
M  V30 7741 H 721.012 -0.822138 3.01077 0
M  V30 7742 N 721.313 -1.57302 -0.09688 0
M  V30 7743 C 722.559 -1.87144 -0.796778 0
M  V30 7744 C 722.914 -0.767428 -1.76432 0
M  V30 7745 O 722.207 0.230728 -1.90206 0
M  V30 7746 C 722.401 -3.21272 -1.56586 0
M  V30 7747 C 722.23 -4.44616 -0.674295 0
M  V30 7748 C 721 -5.04281 -0.320705 0
M  V30 7749 C 723.198 -5.14297 0.0179445 0
M  V30 7750 N 721.18 -6.11162 0.579206 0
M  V30 7751 C 722.551 -6.15125 0.775992 0
M  V30 7752 C 724.606 -4.97815 0.0920521 0
M  V30 7753 C 723.309 -7.01251 1.60122 0
M  V30 7754 C 725.335 -5.84447 0.904175 0
M  V30 7755 C 724.697 -6.84794 1.65035 0
M  V30 7756 H 720.796 -0.734721 -0.267787 0
M  V30 7757 H 723.38 -1.94609 -0.0593955 0
M  V30 7758 H 721.551 -3.14862 -2.27413 0
M  V30 7759 H 723.283 -3.38846 -2.21281 0
M  V30 7760 H 720.038 -4.68866 -0.667961 0
M  V30 7761 H 720.462 -6.69247 1.02166 0
M  V30 7762 H 725.104 -4.20174 -0.470492 0
M  V30 7763 H 722.822 -7.78284 2.17484 0
M  V30 7764 H 726.408 -5.73755 0.964165 0
M  V30 7765 H 725.288 -7.50668 2.26864 0
M  V30 7766 N 722.791 0.367657 -1.53252 0
M  V30 7767 C 724.037 1.11216 -1.69584 0
M  V30 7768 C 724.37 1.89026 -0.445269 0
M  V30 7769 O 723.645 1.86342 0.557404 0
M  V30 7770 C 723.928 2.07308 -2.94441 0
M  V30 7771 C 723.781 1.3312 -4.2965 0
M  V30 7772 C 725.1 3.07459 -3.14892 0
M  V30 7773 H 722.219 0.40294 -0.617096 0
M  V30 7774 H 724.861 0.393201 -1.85887 0
M  V30 7775 H 723.011 2.68617 -2.80673 0
M  V30 7776 H 724.683 0.746111 -4.55226 0
M  V30 7777 H 722.926 0.633051 -4.29156 0
M  V30 7778 H 723.597 2.03443 -5.13142 0
M  V30 7779 H 726.073 2.56252 -3.27832 0
M  V30 7780 H 724.949 3.71919 -4.03693 0
M  V30 7781 H 725.21 3.77514 -2.30077 0
M  V30 7782 N 724.269 1.44576 0.627338 0
M  V30 7783 C 725.179 1.54232 1.76776 0
M  V30 7784 C 726.195 0.427782 1.6866 0
M  V30 7785 O 727.371 0.685671 1.89369 0
M  V30 7786 C 724.436 1.48738 3.13174 0
M  V30 7787 C 723.497 2.71074 3.32893 0
M  V30 7788 C 722.73 2.65832 4.62784 0
M  V30 7789 O 722.953 1.72048 5.43834 0
M  V30 7790 O 721.887 3.56742 4.84787 0
M  V30 7791 H 725.713 2.50586 1.71582 0
M  V30 7792 H 723.298 1.26865 0.789028 0
M  V30 7793 H 725.18 1.48211 3.94476 0
M  V30 7794 H 723.855 0.555292 3.18902 0
M  V30 7795 H 722.762 2.77168 2.51254 0
M  V30 7796 H 724.095 3.63342 3.32029 0
M  V30 7797 N 725.747 -0.868086 1.31537 0
M  V30 7798 C 726.975 -1.65402 1.24298 0
M  V30 7799 C 727.39 -1.87827 -0.191389 0
M  V30 7800 O 726.747 -1.43776 -1.12404 0
M  V30 7801 C 726.798 -3.02093 1.9855 0
M  V30 7802 O 726.519 -2.80668 3.36388 0
M  V30 7803 C 728.02 -3.96538 1.98173 0
M  V30 7804 H 725.24 -0.515598 0.429417 0
M  V30 7805 H 727.784 -1.0834 1.73444 0
M  V30 7806 H 725.939 -3.55838 1.53161 0
M  V30 7807 H 726.353 -3.67504 3.74221 0
M  V30 7808 H 727.827 -4.8976 2.54635 0
M  V30 7809 H 728.304 -4.28474 0.964697 0
M  V30 7810 H 728.91 -3.48729 2.4345 0
M  V30 7811 N 727.225 -1.14528 -1.08264 0
M  V30 7812 C 728.188 -0.83632 -2.13397 0
M  V30 7813 C 729.188 0.159715 -1.60005 0
M  V30 7814 O 730.378 -0.0688098 -1.74064 0
M  V30 7815 C 727.51 -0.246973 -3.40004 0
M  V30 7816 H 728.703 -1.76808 -2.42237 0
M  V30 7817 H 726.256 -0.951509 -1.24 0
M  V30 7818 H 726.991 0.693436 -3.168 0
M  V30 7819 H 726.776 -0.964412 -3.80055 0
M  V30 7820 H 728.266 -0.0480679 -4.17572 0
M  V30 7821 N 728.703 1.26451 -0.940633 0
M  V30 7822 C 729.949 1.94065 -0.58878 0
M  V30 7823 C 730.282 1.7363 0.869853 0
M  V30 7824 O 729.557 1.073 1.62225 0
M  V30 7825 C 729.84 3.47852 -0.931199 0
M  V30 7826 C 729.693 3.77575 -2.44453 0
M  V30 7827 C 731.012 4.37832 -0.446229 0
M  V30 7828 H 728.131 0.704827 -0.21538 0
M  V30 7829 H 730.773 1.4933 -1.17475 0
M  V30 7830 H 728.923 3.86085 -0.432539 0
M  V30 7831 H 730.595 3.49059 -3.01588 0
M  V30 7832 H 728.838 3.23671 -2.88825 0
M  V30 7833 H 729.509 4.85068 -2.63464 0
M  V30 7834 H 731.985 4.06822 -0.873778 0
M  V30 7835 H 730.861 5.44228 -0.714648 0
M  V30 7836 H 731.122 4.37239 0.653815 0
M  V30 7837 N 730.181 0.707592 1.40822 0
M  V30 7838 C 731.128 0.0499029 2.30746 0
M  V30 7839 C 732.098 -0.758718 1.47759 0
M  V30 7840 O 733.283 -0.724299 1.76518 0
M  V30 7841 C 730.423 -0.871756 3.33908 0
M  V30 7842 C 729.536 -0.0534655 4.31967 0
M  V30 7843 C 728.671 -0.973869 5.22197 0
M  V30 7844 C 727.71 -0.149194 6.11918 0
M  V30 7845 N 726.847 -1.02404 6.94592 0
M  V30 7846 H 731.687 0.822461 2.86426 0
M  V30 7847 H 729.224 0.417285 1.41057 0
M  V30 7848 H 731.182 -1.42028 3.9228 0
M  V30 7849 H 729.812 -1.61058 2.7975 0
M  V30 7850 H 728.864 0.612142 3.75442 0
M  V30 7851 H 730.176 0.585354 4.95353 0
M  V30 7852 H 729.33 -1.59121 5.85462 0
M  V30 7853 H 728.069 -1.64652 4.59065 0
M  V30 7854 H 727.074 0.481137 5.47691 0
M  V30 7855 H 728.299 0.519841 6.77107 0
M  V30 7856 H 726.245 -1.6825 6.34057 0
M  V30 7857 H 726.162 -0.441076 7.54712 0
M  V30 7858 H 727.43 -1.62782 7.62314 0
M  V30 7859 N 731.66 -1.50943 0.453197 0
M  V30 7860 C 732.885 -2.07116 -0.108463 0
M  V30 7861 C 733.31 -1.31681 -1.3432 0
M  V30 7862 O 732.668 -0.359256 -1.77705 0
M  V30 7863 C 732.716 -3.58447 -0.393424 0
M  V30 7864 O 731.82 -3.85038 -1.47714 0
M  V30 7865 H 731.161 -0.66398 0.0050993 0
M  V30 7866 H 733.691 -1.94362 0.639095 0
M  V30 7867 H 733.701 -4.02961 -0.639222 0
M  V30 7868 H 732.376 -4.12774 0.508946 0
M  V30 7869 H 730.953 -3.52376 -1.22006 0
M  V30 7870 N 733.138 -0.185124 -1.56509 0
M  V30 7871 C 734.101 0.72591 -2.17401 0
M  V30 7872 C 735.101 1.14819 -1.12575 0
M  V30 7873 O 736.291 1.0629 -1.38015 0
M  V30 7874 C 733.423 1.98979 -2.76803 0
M  V30 7875 H 734.616 0.195588 -2.99262 0
M  V30 7876 H 732.169 0.0644772 -1.56167 0
M  V30 7877 H 732.904 2.56287 -1.98714 0
M  V30 7878 H 732.689 1.69583 -3.53531 0
M  V30 7879 H 734.179 2.63966 -3.23592 0
M  V30 7880 N 734.616 1.57351 0.0885366 0
M  V30 7881 C 735.546 2.05561 1.10757 0
M  V30 7882 C 736.527 0.945789 1.41382 0
M  V30 7883 O 737.712 1.21747 1.51299 0
M  V30 7884 C 734.842 2.48554 2.42566 0
M  V30 7885 C 733.796 3.63259 2.26334 0
M  V30 7886 C 733.122 3.9225 3.63378 0
M  V30 7887 C 734.422 4.93913 1.69844 0
M  V30 7888 H 736.116 2.90946 0.706468 0
M  V30 7889 H 733.662 1.39968 0.338385 0
M  V30 7890 H 735.615 2.8089 3.14132 0
M  V30 7891 H 734.339 1.60176 2.84625 0
M  V30 7892 H 732.998 3.31179 1.57213 0
M  V30 7893 H 732.646 3.0103 4.02976 0
M  V30 7894 H 732.346 4.69478 3.53362 0
M  V30 7895 H 733.87 4.27067 4.36401 0
M  V30 7896 H 735.284 5.24588 2.31258 0
M  V30 7897 H 733.681 5.75349 1.70569 0
M  V30 7898 H 734.751 4.80409 0.65843 0
M  V30 7899 N 736.094 -0.359525 1.53444 0
M  V30 7900 C 737.51 -0.701599 1.43352 0
M  V30 7901 C 737.71 -1.93049 0.577439 0
M  V30 7902 O 736.766 -2.52423 0.0622224 0
M  V30 7903 C 738.079 -0.90915 2.86627 0
M  V30 7904 C 739.627 -1.00878 2.96298 0
M  V30 7905 C 740.102 -1.24876 4.40647 0
M  V30 7906 N 741.593 -1.31632 4.44103 0
M  V30 7907 C 742.328 -1.51922 5.52908 0
M  V30 7908 N 741.824 -1.69489 6.71748 0
M  V30 7909 N 743.617 -1.54341 5.40496 0
M  V30 7910 H 735.768 0.448685 2.07607 0
M  V30 7911 H 738.031 0.138713 0.937797 0
M  V30 7912 H 737.737 -0.0778997 3.51614 0
M  V30 7913 H 737.611 -1.81551 3.30634 0
M  V30 7914 H 739.998 -1.83057 2.31461 0
M  V30 7915 H 740.079 -0.0796721 2.55676 0
M  V30 7916 H 739.723 -0.431961 5.0606 0
M  V30 7917 H 739.653 -2.19118 4.78848 0
M  V30 7918 H 742.144 -1.19646 3.5846 0
M  V30 7919 H 742.457 -1.84561 7.50438 0
M  V30 7920 H 740.802 -1.66655 6.74723 0
M  V30 7921 H 743.993 -1.40188 4.46615 0
M  V30 7922 H 744.166 -1.69812 6.25354 0
M  V30 7923 N 737.572 -1.44907 -0.619662 0
M  V30 7924 C 738.535 -1.52282 -1.71297 0
M  V30 7925 C 739.535 -0.40359 -1.55653 0
M  V30 7926 O 740.725 -0.666638 -1.6094 0
M  V30 7927 C 737.857 -1.40778 -3.10474 0
M  V30 7928 H 739.05 -2.49683 -1.66128 0
M  V30 7929 H 736.603 -1.32168 -0.834339 0
M  V30 7930 H 737.338 -0.445156 -3.2123 0
M  V30 7931 H 737.123 -2.21947 -3.23237 0
M  V30 7932 H 738.613 -1.48946 -3.90135 0
M  V30 7933 N 739.05 0.861098 -1.31996 0
M  V30 7934 C 740.013 1.95068 -1.20338 0
M  V30 7935 C 741.013 1.60289 -0.128114 0
M  V30 7936 O 742.203 1.70048 -0.378044 0
M  V30 7937 C 739.335 3.30153 -0.849205 0
M  V30 7938 H 740.528 2.06833 -2.17164 0
M  V30 7939 H 738.081 1.05049 -1.15734 0
M  V30 7940 H 738.816 3.24087 0.117508 0
M  V30 7941 H 738.601 3.56771 -1.62655 0
M  V30 7942 H 740.091 4.10025 -0.791782 0
M  V30 7943 N 740.528 1.15101 1.07655 0
M  V30 7944 C 741.777 0.918528 1.79572 0
M  V30 7945 C 742.09 -0.555922 1.87534 0
M  V30 7946 O 743.296 -0.905893 2.55941 0
M  V30 7947 C 741.752 1.59394 3.22679 0
M  V30 7948 C 741.36 3.1052 3.22927 0
M  V30 7949 C 743.104 1.44289 3.99225 0
M  V30 7950 C 741.011 3.70862 4.60668 0
M  V30 7951 H 739.941 0.340006 0.672987 0
M  V30 7952 H 742.592 1.38079 1.20857 0
M  V30 7953 H 740.974 1.05936 3.81567 0
M  V30 7954 H 742.148 3.70708 2.737 0
M  V30 7955 H 740.463 3.25351 2.59876 0
M  V30 7956 H 743.06 1.86766 5.01022 0
M  V30 7957 H 743.403 0.389975 4.14469 0
M  V30 7958 H 743.936 1.94826 3.46825 0
M  V30 7959 H 740.675 4.7604 4.50628 0
M  V30 7960 H 740.195 3.15456 5.10145 0
M  V30 7961 H 741.874 3.71607 5.29639 0
M  V30 7962 N 742.006 -1.2595 0.947325 0
M  V30 7963 C 742.953 -2.26159 0.460497 0
M  V30 7964 C 743.923 -1.58919 -0.483125 0
M  V30 7965 O 745.108 -1.86603 -0.397983 0
M  V30 7966 C 742.248 -3.441 -0.26247 0
M  V30 7967 C 741.361 -4.25999 0.717539 0
M  V30 7968 C 740.496 -5.31193 -0.0272486 0
M  V30 7969 C 739.535 -6.04774 0.944177 0
M  V30 7970 N 738.672 -7.01721 0.230741 0
M  V30 7971 H 743.512 -2.67173 1.31995 0
M  V30 7972 H 741.049 -1.31358 0.662088 0
M  V30 7973 H 743.007 -4.11317 -0.698137 0
M  V30 7974 H 741.637 -3.03983 -1.08602 0
M  V30 7975 H 740.689 -3.58513 1.27171 0
M  V30 7976 H 742.001 -4.76981 1.45913 0
M  V30 7977 H 741.155 -6.04451 -0.521903 0
M  V30 7978 H 739.894 -4.81066 -0.801682 0
M  V30 7979 H 738.899 -5.30338 1.4499 0
M  V30 7980 H 740.124 -6.56991 1.71872 0
M  V30 7981 H 738.07 -6.53895 -0.525088 0
M  V30 7982 H 737.987 -7.50484 0.911556 0
M  V30 7983 H 739.255 -7.79122 -0.242616 0
M  V30 7984 N 743.484 -0.715051 -1.40445 0
M  V30 7985 C 744.733 -0.251322 -2.00128 0
M  V30 7986 C 745.046 1.16194 -1.57347 0
M  V30 7987 O 746.252 1.72416 -2.09726 0
M  V30 7988 C 744.708 -0.398407 -3.57688 0
M  V30 7989 C 744.316 -1.81828 -4.09442 0
M  V30 7990 C 746.06 0.00455625 -4.245 0
M  V30 7991 C 743.967 -1.91598 -5.59503 0
M  V30 7992 H 742.897 -0.0902081 -0.748584 0
M  V30 7993 H 745.548 -0.886062 -1.6069 0
M  V30 7994 H 743.93 0.304908 -3.94824 0
M  V30 7995 H 745.104 -2.55193 -3.83684 0
M  V30 7996 H 743.419 -2.17266 -3.55225 0
M  V30 7997 H 746.016 -0.0477303 -5.34679 0
M  V30 7998 H 746.359 1.04636 -4.02935 0
M  V30 7999 H 746.892 -0.649184 -3.92467 0
M  V30 8000 H 743.631 -2.93898 -5.85922 0
M  V30 8001 H 743.151 -1.22644 -5.87127 0
M  V30 8002 H 744.83 -1.68785 -6.24596 0
M  V30 8003 N 744.962 1.50701 -0.461195 0
M  V30 8004 C 745.91 2.29918 0.352231 0
M  V30 8005 C 746.904 1.36778 0.999403 0
M  V30 8006 O 748.11 1.54015 0.931639 0
M  V30 8007 H 744.485 0.740249 0.132423 0
M  V30 8008 H 746.456 2.96497 -0.336424 0
M  V30 8009 C 745.205 3.17052 1.42736 0
M  V30 8010 H 744.528 3.88623 0.938747 0
M  V30 8011 H 745.968 3.75493 1.96928 0
M  V30 8012 C 744.427 2.3399 2.42384 0
M  V30 8013 O 744.957 2.01608 3.47444 0
M  V30 8014 N 743.163 1.96758 2.13857 0
M  V30 8015 H 742.71 2.23292 1.28447 0
M  V30 8016 H 742.668 1.41484 2.80766 0
M  V30 8017 N 746.441 0.193421 1.56409 0
M  V30 8018 C 747.666 -0.454552 2.02358 0
M  V30 8019 C 748.091 -1.54516 1.07268 0
M  V30 8020 O 747.449 -1.81214 0.0558962 0
M  V30 8021 C 747.497 -0.989469 3.46759 0
M  V30 8022 O 746.601 -2.10244 3.54783 0
M  V30 8023 H 745.942 -0.106417 0.655417 0
M  V30 8024 H 748.472 0.303807 2.02332 0
M  V30 8025 H 748.482 -1.30649 3.86516 0
M  V30 8026 H 747.157 -0.191083 4.15461 0
M  V30 8027 H 745.734 -1.79419 3.26899 0
M  V30 8028 N 747.919 -1.57396 -0.0801906 0
M  V30 8029 C 749.335 -1.53564 -0.434778 0
M  V30 8030 C 749.535 -0.912372 -1.79661 0
M  V30 8031 O 748.591 -0.511268 -2.4727 0
M  V30 8032 C 749.904 -2.98244 -0.383561 0
M  V30 8033 C 751.452 -3.09536 -0.46435 0
M  V30 8034 C 751.927 -4.55851 -0.443128 0
M  V30 8035 N 753.418 -4.60456 -0.503448 0
M  V30 8036 C 754.153 -5.71135 -0.509106 0
M  V30 8037 N 753.649 -6.91203 -0.47008 0
M  V30 8038 N 755.442 -5.59353 -0.555035 0
M  V30 8039 H 747.593 -1.96281 0.811635 0
M  V30 8040 H 749.856 -0.898041 0.303689 0
M  V30 8041 H 749.562 -3.47369 0.550236 0
M  V30 8042 H 749.436 -3.57705 -1.19694 0
M  V30 8043 H 751.823 -2.6039 -1.38857 0
M  V30 8044 H 751.904 -2.53 0.377445 0
M  V30 8045 H 751.548 -5.05653 0.477207 0
M  V30 8046 H 751.478 -5.10242 -1.30234 0
M  V30 8047 H 753.969 -3.74048 -0.538199 0
M  V30 8048 H 754.282 -7.7132 -0.478091 0
M  V30 8049 H 752.627 -6.93625 -0.436897 0
M  V30 8050 H 755.818 -4.64453 -0.583158 0
M  V30 8051 H 755.991 -6.4561 -0.555976 0
M  V30 8052 N 749.397 0.351382 -1.53633 0
M  V30 8053 C 750.344 1.43115 -1.81071 0
M  V30 8054 C 751.314 1.52601 -0.655913 0
M  V30 8055 O 752.499 1.68264 -0.89955 0
M  V30 8056 C 749.639 2.79874 -2.01903 0
M  V30 8057 C 748.752 2.79242 -3.29618 0
M  V30 8058 C 747.887 4.07667 -3.40559 0
M  V30 8059 C 746.926 4.01233 -4.62254 0
M  V30 8060 N 746.063 5.21334 -4.70271 0
M  V30 8061 H 750.903 1.19017 -2.73201 0
M  V30 8062 H 748.44 0.576691 -1.35324 0
M  V30 8063 H 750.398 3.5934 -2.11969 0
M  V30 8064 H 749.028 3.0234 -1.13094 0
M  V30 8065 H 748.08 1.91927 -3.28433 0
M  V30 8066 H 749.392 2.70363 -4.19172 0
M  V30 8067 H 748.546 4.95555 -3.50015 0
M  V30 8068 H 747.285 4.19317 -2.49047 0
M  V30 8069 H 746.29 3.11732 -4.52884 0
M  V30 8070 H 747.515 3.91173 -5.55122 0
M  V30 8071 H 745.461 5.33543 -3.81665 0
M  V30 8072 H 745.378 5.14681 -5.5375 0
M  V30 8073 H 746.646 6.11014 -4.84027 0
M  V30 8074 N 750.875 1.45233 0.611969 0
M  V30 8075 C 752.123 1.48727 1.36838 0
M  V30 8076 C 752.444 0.128616 1.94575 0
M  V30 8077 O 751.714 -0.84149 1.76906 0
M  V30 8078 H 750.294 0.547695 0.507976 0
M  V30 8079 H 752.956 1.81156 0.718925 0
M  V30 8080 H 752.052 2.2236 2.19003 0
M  V30 8081 N 752.353 -0.854086 1.3245 0
M  V30 8082 C 753.764 -1.42427 1.20712 0
M  V30 8083 C 754.115 -1.95371 -0.18013 0
M  V30 8084 O 753.24 -1.87587 -1.07889 0
M  V30 8085 C 753.835 -2.58897 2.18536 0
M  V30 8086 C 752.394 -3.11913 2.10683 0
M  V30 8087 C 751.541 -1.84661 2.06871 0
M  V30 8088 H 754.492 -0.661192 1.4427 0
M  V30 8089 H 754.513 -3.36074 1.78422 0
M  V30 8090 H 754.025 -2.20333 3.19492 0
M  V30 8091 H 752.126 -3.55059 1.12977 0
M  V30 8092 H 752.239 -3.73119 3.00532 0
M  V30 8093 H 750.603 -2.04285 1.52118 0
M  V30 8094 H 751.386 -1.48314 3.09609 0
M  V30 8095 N 753.831 -1.1567 -1.07043 0
M  V30 8096 C 754.794 -0.858906 -2.12498 0
M  V30 8097 C 755.794 0.142735 -1.60165 0
M  V30 8098 O 756.984 -0.0872678 -1.73981 0
M  V30 8099 C 754.116 -0.283021 -3.39723 0
M  V30 8100 H 755.309 -1.79368 -2.40348 0
M  V30 8101 H 752.862 -0.964608 -1.22984 0
M  V30 8102 H 753.597 0.659796 -3.17517 0
M  V30 8103 H 753.382 -1.00467 -3.7901 0
M  V30 8104 H 754.872 -0.0923543 -4.17498 0
M  V30 8105 N 755.309 1.25446 -0.953992 0
M  V30 8106 C 756.534 1.97755 -0.625129 0
M  V30 8107 C 756.959 1.70437 0.795787 0
M  V30 8108 O 756.317 0.95992 1.53803 0
M  V30 8109 C 756.365 3.49463 -0.889251 0
M  V30 8110 O 755.469 4.12387 0.0322757 0
M  V30 8111 H 754.81 0.61998 -0.237742 0
M  V30 8112 H 757.34 1.59582 -1.28041 0
M  V30 8113 H 757.35 3.99772 -0.815263 0
M  V30 8114 H 756.025 3.68676 -1.92487 0
M  V30 8115 H 754.602 3.72782 -0.0938625 0
M  V30 8116 N 756.787 0.722489 1.40064 0
M  V30 8117 C 758.064 0.191829 1.94657 0
M  V30 8118 C 758.444 -1.30389 1.66018 0
M  V30 8119 O 757.792 -2.06342 0.981588 0
M  V30 8120 C 758.002 0.511978 3.45224 0
M  V30 8121 C 759.35 0.454426 4.22161 0
M  V30 8122 O 760.374 0.448438 3.53366 0
M  V30 8123 O 759.233 0.437986 5.44742 0
M  V30 8124 H 756.327 0.0307821 0.826427 0
M  V30 8125 H 758.873 0.800493 1.49634 0
M  V30 8126 H 757.645 1.54622 3.59455 0
M  V30 8127 H 757.268 -0.126296 3.97399 0
M  V30 8128 N 758.265 -1.50454 0.469181 0
M  V30 8129 C 759.493 -2.06729 -0.0842134 0
M  V30 8130 C 759.908 -1.33326 -1.33677 0
M  V30 8131 O 759.265 -0.401977 -1.78018 0
M  V30 8132 C 759.316 -3.59557 -0.374253 0
M  V30 8133 O 759.037 -4.30192 0.828622 0
M  V30 8134 C 760.538 -4.32449 -0.974824 0
M  V30 8135 H 757.758 -0.670971 0.006231 0
M  V30 8136 H 760.302 -1.93645 0.657415 0
M  V30 8137 H 758.457 -3.7245 -1.06581 0
M  V30 8138 H 758.871 -5.21371 0.572066 0
M  V30 8139 H 760.345 -5.40361 -1.12755 0
M  V30 8140 H 760.822 -3.92819 -1.96442 0
M  V30 8141 H 761.428 -4.24082 -0.321703 0
M  V30 8142 N 759.743 -0.201713 -1.56304 0
M  V30 8143 C 760.706 0.702811 -2.18159 0
M  V30 8144 C 761.706 1.13619 -1.13787 0
M  V30 8145 O 762.896 1.0482 -1.39134 0
M  V30 8146 C 760.028 1.96032 -2.78898 0
M  V30 8147 H 761.221 0.163836 -2.99452 0
M  V30 8148 H 758.774 0.04791 -1.56227 0
M  V30 8149 H 759.509 2.54165 -2.01421 0
M  V30 8150 H 759.294 1.65824 -3.55309 0
M  V30 8151 H 760.784 2.60519 -3.26373 0
M  V30 8152 N 761.222 1.57436 0.0718424 0
M  V30 8153 C 762.447 1.91858 0.787745 0
M  V30 8154 C 762.872 0.798119 1.70328 0
M  V30 8155 O 762.23 -0.24905 1.79581 0
M  V30 8156 C 762.278 3.25232 1.55744 0
M  V30 8157 O 761.382 3.14462 2.6681 0
M  V30 8158 H 760.723 0.628258 0.214914 0
M  V30 8159 H 763.253 2.04561 0.0401012 0
M  V30 8160 H 763.263 3.59105 1.9367 0
M  V30 8161 H 761.938 4.0636 0.885691 0
M  V30 8162 H 760.515 2.92148 2.31741 0
M  V30 8163 N 762.7 -0.34323 1.53817 0
M  V30 8164 C 764.111 -0.918823 1.62525 0
M  V30 8165 C 764.462 -1.89542 0.506765 0
M  V30 8166 O 763.587 -2.13326 -0.363441 0
M  V30 8167 C 764.182 -1.67326 2.94597 0
M  V30 8168 C 762.741 -2.19786 3.05567 0
M  V30 8169 C 761.888 -1.01708 2.57974 0
M  V30 8170 H 764.839 -0.121358 1.58235 0
M  V30 8171 H 764.86 -2.53615 2.83654 0
M  V30 8172 H 764.372 -0.962223 3.75983 0
M  V30 8173 H 762.473 -2.94065 2.28816 0
M  V30 8174 H 762.586 -2.46135 4.1104 0
M  V30 8175 H 760.95 -1.39058 2.13389 0
M  V30 8176 H 761.733 -0.320671 3.41799 0
M  V30 8177 N 764.178 -1.45556 -0.604258 0
M  V30 8178 C 765.088 -1.57025 -1.74299 0
M  V30 8179 C 766.104 -0.45456 -1.67958 0
M  V30 8180 O 767.28 -0.715711 -1.88254 0
M  V30 8181 C 764.345 -1.53702 -3.10768 0
M  V30 8182 C 763.406 -2.76335 -3.28538 0
M  V30 8183 C 762.639 -2.73161 -4.58496 0
M  V30 8184 O 762.862 -1.80678 -5.41028 0
M  V30 8185 O 761.796 -3.64409 -4.79051 0
M  V30 8186 H 765.622 -2.53284 -1.67573 0
M  V30 8187 H 763.207 -1.28104 -0.768745 0
M  V30 8188 H 765.089 -1.54468 -3.92068 0
M  V30 8189 H 763.764 -0.605957 -3.17978 0
M  V30 8190 H 762.671 -2.8113 -2.46813 0
M  V30 8191 H 764.004 -3.68578 -3.26207 0
M  V30 8192 N 765.656 0.84705 -1.32902 0
M  V30 8193 C 766.904 1.5986 -1.2365 0
M  V30 8194 C 767.225 1.93974 0.199789 0
M  V30 8195 O 766.495 1.60273 1.12648 0
M  V30 8196 H 765.075 0.592696 -0.454665 0
M  V30 8197 H 767.737 1.01278 -1.66519 0
M  V30 8198 H 766.833 2.53218 -1.82448 0
M  V30 8199 N 767.134 1.16236 1.06428 0
M  V30 8200 C 768.084 0.835994 2.12121 0
M  V30 8201 C 769.068 -0.183955 1.59845 0
M  V30 8202 O 770.26 0.0166741 1.76992 0
M  V30 8203 C 767.389 0.337333 3.41639 0
M  V30 8204 C 766.475 1.38798 4.00744 0
M  V30 8205 N 766.866 2.59799 4.3398 0
M  V30 8206 C 765.164 1.24292 4.28331 0
M  V30 8207 C 765.865 3.27213 4.80943 0
M  V30 8208 N 764.841 2.54594 4.80294 0
M  V30 8209 H 768.643 1.75615 2.35662 0
M  V30 8210 H 766.157 1.04921 1.23957 0
M  V30 8211 H 768.154 0.0851274 4.16813 0
M  V30 8212 H 766.814 -0.57677 3.19536 0
M  V30 8213 H 767.825 2.96867 4.24371 0
M  V30 8214 H 764.502 0.389464 4.15679 0
M  V30 8215 H 765.892 4.30492 5.15874 0
M  V30 8216 N 768.612 -1.24939 0.960631 0
M  V30 8217 C 769.575 -2.239 0.49006 0
M  V30 8218 C 770.575 -1.55497 -0.409535 0
M  V30 8219 O 771.765 -1.72978 -0.205984 0
M  V30 8220 C 768.897 -3.39654 -0.291193 0
M  V30 8221 H 770.09 -2.67044 1.36482 0
M  V30 8222 H 767.643 -1.37429 0.744505 0
M  V30 8223 H 768.378 -3.01939 -1.18336 0
M  V30 8224 H 768.163 -3.90496 0.354276 0
M  V30 8225 H 769.653 -4.13125 -0.609693 0
M  V30 8226 N 770.09 -0.729906 -1.39679 0
M  V30 8227 C 771.315 -0.284345 -2.05442 0
M  V30 8228 C 771.74 1.07056 -1.54663 0
M  V30 8229 O 771.098 1.67732 -0.688157 0
M  V30 8230 C 771.146 -0.290089 -3.59431 0
M  V30 8231 O 770.25 0.723978 -4.05995 0
M  V30 8232 H 769.591 -0.130311 -0.651088 0
M  V30 8233 H 772.121 -0.994403 -1.78809 0
M  V30 8234 H 772.131 -0.132712 -4.07784 0
M  V30 8235 H 770.806 -1.27877 -3.95753 0
M  V30 8236 H 769.383 0.533154 -3.69069 0
M  V30 8237 N 771.568 1.50203 -0.477153 0
M  V30 8238 C 772.845 1.95115 0.137609 0
M  V30 8239 C 773.225 1.41778 1.56404 0
M  V30 8240 O 772.573 0.621333 2.1989 0
M  V30 8241 C 772.783 3.4892 0.0747168 0
M  V30 8242 C 774.131 4.238 0.260585 0
M  V30 8243 O 775.155 3.5588 0.151021 0
M  V30 8244 O 774.014 5.44366 0.482534 0
M  V30 8245 H 771.108 0.81987 0.108364 0
M  V30 8246 H 773.654 1.60946 -0.537989 0
M  V30 8247 H 772.426 3.80308 -0.920966 0
M  V30 8248 H 772.049 3.89642 0.791509 0
M  V30 8249 N 773.046 0.209999 1.56195 0
M  V30 8250 C 773.979 -0.744546 2.15712 0
M  V30 8251 C 774.957 -1.19917 1.09812 0
M  V30 8252 O 776.141 -1.284 1.38006 0
M  V30 8253 C 773.268 -2.00733 2.72807 0
M  V30 8254 C 772.314 -1.69363 3.91431 0
M  V30 8255 S 773.147 -0.828579 5.29051 0
M  V30 8256 C 774.303 -2.10118 5.89577 0
M  V30 8257 H 774.536 -0.238636 2.96341 0
M  V30 8258 H 772.069 -0.00517877 1.54399 0
M  V30 8259 H 774.027 -2.73246 3.06344 0
M  V30 8260 H 772.688 -2.48436 1.92193 0
M  V30 8261 H 771.881 -2.63157 4.29842 0
M  V30 8262 H 771.483 -1.04921 3.58981 0
M  V30 8263 H 773.775 -3.05231 6.04847 0
M  V30 8264 H 774.718 -1.76116 6.85849 0
M  V30 8265 H 775.126 -2.23644 5.18308 0
M  V30 8266 N 774.524 -1.57472 -0.0634922 0
M  V30 8267 C 775.434 -2.07621 -1.09227 0
M  V30 8268 C 776.45 -1.00746 -1.41867 0
M  V30 8269 O 777.626 -1.32269 -1.51878 0
M  V30 8270 C 774.691 -2.51707 -2.38421 0
M  V30 8271 C 773.752 -3.72917 -2.12676 0
M  V30 8272 C 772.985 -4.14891 -3.3571 0
M  V30 8273 O 773.208 -3.56663 -4.45137 0
M  V30 8274 O 772.142 -5.07616 -3.23434 0
M  V30 8275 H 775.968 -2.95612 -0.696205 0
M  V30 8276 H 773.553 -1.46787 -0.27819 0
M  V30 8277 H 775.435 -2.80547 -3.14438 0
M  V30 8278 H 774.11 -1.66842 -2.77391 0
M  V30 8279 H 773.017 -3.49148 -1.34337 0
M  V30 8280 H 774.35 -4.5866 -1.78583 0
M  V30 8281 N 776.003 0.335068 -1.53997 0
M  V30 8282 C 777.251 1.07223 -1.71312 0
M  V30 8283 C 777.572 1.88911 -0.483486 0
M  V30 8284 O 776.842 1.89344 0.50257 0
M  V30 8285 H 775.422 0.398846 -0.63161 0
M  V30 8286 H 778.084 0.374288 -1.91272 0
M  V30 8287 H 777.18 1.7448 -2.58772 0
M  V30 8288 N 777.481 1.45874 0.596531 0
M  V30 8289 C 778.413 1.51408 1.7207 0
M  V30 8290 C 779.426 0.403738 1.57714 0
M  V30 8291 O 780.615 0.671384 1.65393 0
M  V30 8292 C 777.715 1.3652 3.10186 0
M  V30 8293 C 776.888 2.61428 3.50677 0
M  V30 8294 C 775.947 2.40937 4.67799 0
M  V30 8295 O 774.973 3.14602 4.74357 0
M  V30 8296 N 776.175 1.4621 5.61785 0
M  V30 8297 H 778.94 2.48333 1.67782 0
M  V30 8298 H 776.501 1.41755 0.782129 0
M  V30 8299 H 778.493 1.20606 3.86311 0
M  V30 8300 H 777.063 0.478302 3.08919 0
M  V30 8301 H 776.283 2.92381 2.644 0
M  V30 8302 H 777.571 3.44432 3.74491 0
M  V30 8303 H 776.969 0.854382 5.59211 0
M  V30 8304 H 775.526 1.36264 6.37397 0
M  V30 8305 N 778.959 -0.83999 1.33349 0
M  V30 8306 C 780.207 -1.59202 1.24496 0
M  V30 8307 C 780.528 -1.94077 -0.189499 0
M  V30 8308 O 779.798 -1.60868 -1.11796 0
M  V30 8309 H 778.378 -0.590276 0.457802 0
M  V30 8310 H 781.04 -1.00394 1.67054 0
M  V30 8311 H 780.136 -2.52247 1.83788 0
M  V30 8312 N 780.437 -1.16799 -1.0581 0
M  V30 8313 C 781.387 -0.847231 -2.11674 0
M  V30 8314 C 782.371 0.175476 -1.5994 0
M  V30 8315 O 783.563 -0.0260602 -1.76981 0
M  V30 8316 C 780.692 -0.355446 -3.41455 0
M  V30 8317 C 779.778 -1.40922 -4.00002 0
M  V30 8318 N 780.169 -2.62096 -4.32596 0
M  V30 8319 C 778.467 -1.26562 -4.27666 0
M  V30 8320 C 779.168 -3.29759 -4.79201 0
M  V30 8321 N 778.144 -2.57138 -4.78938 0
M  V30 8322 H 781.946 -1.76862 -2.34727 0
M  V30 8323 H 779.46 -1.05577 -1.23399 0
M  V30 8324 H 781.457 -0.107231 -4.16762 0
M  V30 8325 H 780.117 0.559817 -3.19838 0
M  V30 8326 H 781.128 -2.99113 -4.22791 0
M  V30 8327 H 777.805 -0.411503 -4.15467 0
M  V30 8328 H 779.195 -4.33222 -5.13584 0
M  V30 8329 N 781.915 1.24427 -0.967243 0
M  V30 8330 C 783.161 1.92772 -0.629812 0
M  V30 8331 C 783.494 1.75436 0.832827 0
M  V30 8332 O 782.769 1.10716 1.59913 0
M  V30 8333 C 783.052 3.45798 -1.00477 0
M  V30 8334 C 782.905 3.72304 -2.52407 0
M  V30 8335 C 784.224 4.36787 -0.538999 0
M  V30 8336 H 781.343 0.700099 -0.230282 0
M  V30 8337 H 783.985 1.46805 -1.20616 0
M  V30 8338 H 782.135 3.8508 -0.514336 0
M  V30 8339 H 783.807 3.42584 -3.08924 0
M  V30 8340 H 782.05 3.17472 -2.95625 0
M  V30 8341 H 782.721 4.7937 -2.73693 0
M  V30 8342 H 785.197 4.04877 -0.959874 0
M  V30 8343 H 784.073 5.4259 -0.829926 0
M  V30 8344 H 784.334 4.38527 0.560923 0
M  V30 8345 N 783.393 0.737304 1.3929 0
M  V30 8346 C 784.343 0.0748537 2.27877 0
M  V30 8347 C 785.327 -0.71022 1.44377 0
M  V30 8348 O 786.519 -0.578851 1.67267 0
M  V30 8349 C 783.648 -0.82991 3.33118 0
M  V30 8350 C 782.734 -0.0388619 4.24082 0
M  V30 8351 N 783.125 0.989182 4.96033 0
M  V30 8352 C 781.423 -0.268167 4.45193 0
M  V30 8353 C 782.124 1.46639 5.62914 0
M  V30 8354 N 781.1 0.784581 5.37908 0
M  V30 8355 H 784.902 0.862457 2.80961 0
M  V30 8356 H 782.416 0.571845 1.51999 0
M  V30 8357 H 784.413 -1.31999 3.95452 0
M  V30 8358 H 783.073 -1.61665 2.81593 0
M  V30 8359 H 784.084 1.3706 4.99435 0
M  V30 8360 H 780.761 -1.02953 4.04607 0
M  V30 8361 H 782.151 2.32182 6.30508 0
M  V30 8362 N 784.871 -1.49948 0.485112 0
M  V30 8363 C 786.119 -2.01996 -0.0648775 0
M  V30 8364 C 786.44 -1.36819 -1.38945 0
M  V30 8365 O 785.71 -0.518163 -1.88923 0
M  V30 8366 H 784.29 -0.746513 -0.0269662 0
M  V30 8367 H 786.952 -1.84136 0.638733 0
M  V30 8368 H 786.048 -3.11418 -0.20617 0
M  V30 8369 N 786.349 -0.21828 -1.56081 0
M  V30 8370 C 787.595 0.414921 -1.9851 0
M  V30 8371 C 787.928 1.59648 -1.10573 0
M  V30 8372 O 787.203 1.93818 -0.162695 0
M  V30 8373 C 787.486 0.852647 -3.4986 0
M  V30 8374 C 787.339 -0.33232 -4.48571 0
M  V30 8375 C 788.658 1.70998 -4.05521 0
M  V30 8376 H 785.777 0.149344 -0.72171 0
M  V30 8377 H 788.419 -0.313858 -1.8739 0
M  V30 8378 H 786.569 1.47362 -3.59467 0
M  V30 8379 H 788.241 -0.970418 -4.50977 0
M  V30 8380 H 786.484 -0.980302 -4.22578 0
M  V30 8381 H 787.155 0.0168407 -5.51997 0
M  V30 8382 H 789.631 1.18606 -3.98838 0
M  V30 8383 H 788.507 1.98517 -5.11744 0
M  V30 8384 H 788.768 2.67219 -3.52202 0
M  V30 8385 N 787.827 1.57504 0.0551401 0
M  V30 8386 C 788.79 2.03826 1.04821 0
M  V30 8387 C 789.79 0.937968 1.30609 0
M  V30 8388 O 790.98 1.20237 1.2605 0
M  V30 8389 C 788.112 2.43309 2.38775 0
M  V30 8390 H 789.305 2.92802 0.6486 0
M  V30 8391 H 786.858 1.53368 0.301315 0
M  V30 8392 H 787.593 1.5741 2.83536 0
M  V30 8393 H 787.378 3.23615 2.21395 0
M  V30 8394 H 788.868 2.79666 3.10124 0
M  V30 8395 N 789.305 -0.326896 1.54172 0
M  V30 8396 C 790.53 -1.08924 1.76494 0
M  V30 8397 C 790.955 -1.81039 0.510523 0
M  V30 8398 O 790.313 -1.73141 -0.537756 0
M  V30 8399 C 790.361 -2.06558 2.95578 0
M  V30 8400 O 789.465 -3.14394 2.6689 0
M  V30 8401 H 788.806 -0.314216 0.584948 0
M  V30 8402 H 791.336 -0.372207 2.01186 0
M  V30 8403 H 791.346 -2.49487 3.22832 0
M  V30 8404 H 790.021 -1.53469 3.86549 0
M  V30 8405 H 788.598 -2.76164 2.50576 0
M  V30 8406 N 790.784 -1.46188 -0.588786 0
M  V30 8407 C 792.009 -1.5498 -1.37826 0
M  V30 8408 C 792.434 -0.189498 -1.87143 0
M  V30 8409 O 791.792 0.829293 -1.61222 0
M  V30 8410 C 791.84 -2.55369 -2.54596 0
M  V30 8411 O 790.944 -2.08452 -3.55839 0
M  V30 8412 H 790.285 -0.521741 -0.41071 0
M  V30 8413 H 792.815 -1.91708 -0.714779 0
M  V30 8414 H 792.825 -2.74782 -3.01594 0
M  V30 8415 H 791.5 -3.54155 -2.18052 0
M  V30 8416 H 790.077 -1.98999 -3.15363 0
M  V30 8417 N 792.262 0.832906 -1.33792 0
M  V30 8418 C 793.673 1.40489 -1.22963 0
M  V30 8419 C 794.024 1.95633 0.149026 0
M  V30 8420 O 793.149 1.8928 1.04891 0
M  V30 8421 C 793.744 2.55387 -2.22627 0
M  V30 8422 C 792.303 3.08522 -2.15618 0
M  V30 8423 C 791.45 1.81347 -2.09782 0
M  V30 8424 H 794.401 0.638156 -1.45304 0
M  V30 8425 H 794.422 3.33193 -1.83746 0
M  V30 8426 H 793.934 2.15222 -3.22957 0
M  V30 8427 H 792.035 3.53217 -1.18611 0
M  V30 8428 H 792.148 3.6829 -3.0643 0
M  V30 8429 H 790.512 2.01839 -1.55349 0
M  V30 8430 H 791.295 1.43369 -3.1193 0
M  V30 8431 N 793.74 1.17359 1.05189 0
M  V30 8432 C 794.965 0.98709 1.82404 0
M  V30 8433 C 795.39 -0.459848 1.82392 0
M  V30 8434 O 794.748 -1.32924 1.23292 0
M  V30 8435 C 794.796 1.53276 3.26403 0
M  V30 8436 O 793.9 0.746541 4.05587 0
M  V30 8437 H 793.241 0.35047 0.563974 0
M  V30 8438 H 795.771 1.55856 1.32552 0
M  V30 8439 H 795.781 1.55504 3.77203 0
M  V30 8440 H 794.456 2.58603 3.25726 0
M  V30 8441 H 793.033 0.795671 3.64312 0
M  V30 8442 N 795.218 -1.23913 0.973828 0
M  V30 8443 C 796.168 -2.22892 0.479933 0
M  V30 8444 C 797.152 -1.54726 -0.441434 0
M  V30 8445 O 798.344 -1.74908 -0.271358 0
M  V30 8446 C 795.473 -3.42577 -0.222702 0
M  V30 8447 C 794.559 -4.17981 0.717851 0
M  V30 8448 N 794.95 -4.7045 1.8577 0
M  V30 8449 C 793.248 -4.42841 0.529858 0
M  V30 8450 C 793.949 -5.27751 2.44651 0
M  V30 8451 N 792.925 -5.15302 1.73104 0
M  V30 8452 H 796.727 -2.61083 1.34956 0
M  V30 8453 H 794.241 -1.39368 0.83368 0
M  V30 8454 H 796.238 -4.1265 -0.593793 0
M  V30 8455 H 794.898 -3.05904 -1.0887 0
M  V30 8456 H 795.909 -4.66997 2.23908 0
M  V30 8457 H 792.586 -4.1648 -0.291664 0
M  V30 8458 H 793.976 -5.79011 3.40875 0
M  V30 8459 N 796.696 -0.74468 -1.38897 0
M  V30 8460 C 797.973 -0.222773 -1.94327 0
M  V30 8461 C 798.353 1.27731 -1.68071 0
M  V30 8462 O 797.701 2.04754 -1.01429 0
M  V30 8463 C 797.911 -0.566836 -3.44366 0
M  V30 8464 C 799.259 -0.521531 -4.21385 0
M  V30 8465 O 800.283 -0.504599 -3.52608 0
M  V30 8466 O 799.142 -0.524595 -5.43976 0
M  V30 8467 H 796.236 -0.0439259 -0.825833 0
M  V30 8468 H 798.782 -0.824197 -1.48341 0
M  V30 8469 H 797.554 -1.60321 -3.56949 0
M  V30 8470 H 797.177 0.0630577 -3.9755 0
M  V30 8471 N 798.174 1.49689 -0.493057 0
M  V30 8472 C 799.104 2.31826 0.279073 0
M  V30 8473 C 800.085 1.39733 0.969987 0
M  V30 8474 O 801.27 1.68646 0.962925 0
M  V30 8475 C 798.4 3.20046 1.34862 0
M  V30 8476 C 797.354 4.20869 0.77805 0
M  V30 8477 C 796.68 4.97971 1.94753 0
M  V30 8478 C 797.98 5.21813 -0.225543 0
M  V30 8479 H 799.674 2.96627 -0.406512 0
M  V30 8480 H 797.22 1.42647 -0.196943 0
M  V30 8481 H 799.173 3.76315 1.89645 0
M  V30 8482 H 797.897 2.53172 2.06328 0
M  V30 8483 H 796.556 3.65733 0.252036 0
M  V30 8484 H 796.204 4.27552 2.64969 0
M  V30 8485 H 795.904 5.66186 1.57187 0
M  V30 8486 H 797.428 5.57082 2.49984 0
M  V30 8487 H 798.842 5.72823 0.233864 0
M  V30 8488 H 797.239 5.97872 -0.516622 0
M  V30 8489 H 798.309 4.71209 -1.14412 0
M  V30 8490 N 799.652 0.226554 1.55963 0
M  V30 8491 C 800.615 -0.668015 2.19249 0
M  V30 8492 C 801.615 -1.11794 1.1558 0
M  V30 8493 O 802.805 -1.02593 1.40784 0
M  V30 8494 C 799.937 -1.91571 2.81981 0
M  V30 8495 H 801.13 -0.116175 2.99675 0
M  V30 8496 H 798.683 -0.0230497 1.56283 0
M  V30 8497 H 799.418 -2.50929 2.05439 0
M  V30 8498 H 799.203 -1.6015 3.57903 0
M  V30 8499 H 800.693 -2.55294 3.30477 0
M  V30 8500 N 801.13 -1.57531 -0.0467866 0
M  V30 8501 C 802.077 -2.05387 -1.05285 0
M  V30 8502 C 803.047 -0.939385 -1.36985 0
M  V30 8503 O 804.232 -1.20877 -1.47626 0
M  V30 8504 C 801.372 -2.52343 -2.35408 0
M  V30 8505 C 800.485 -3.77512 -2.10022 0
M  V30 8506 C 799.62 -4.1315 -3.33887 0
M  V30 8507 C 798.659 -5.31286 -3.03976 0
M  V30 8508 N 797.796 -5.62441 -4.20243 0
M  V30 8509 H 802.636 -2.91095 -0.637788 0
M  V30 8510 H 800.173 -1.43939 -0.303322 0
M  V30 8511 H 802.131 -2.77628 -3.11413 0
M  V30 8512 H 800.761 -1.69577 -2.7467 0
M  V30 8513 H 799.813 -3.59417 -1.24594 0
M  V30 8514 H 801.125 -4.63644 -1.83945 0
M  V30 8515 H 800.279 -4.39469 -4.18273 0
M  V30 8516 H 799.018 -3.25634 -3.63062 0
M  V30 8517 H 798.023 -5.04738 -2.17991 0
M  V30 8518 H 799.248 -6.20441 -2.76098 0
M  V30 8519 H 797.194 -4.77885 -4.49402 0
M  V30 8520 H 797.111 -6.43046 -3.97528 0
M  V30 8521 H 798.379 -5.93327 -5.05553 0
M  V30 8522 N 802.608 0.318715 -1.54344 0
M  V30 8523 C 803.518 1.41535 -1.87097 0
M  V30 8524 C 804.534 1.56361 -0.763353 0
M  V30 8525 O 805.71 1.71365 -1.05811 0
M  V30 8526 C 802.775 2.76178 -2.09587 0
M  V30 8527 C 801.836 2.70486 -3.3337 0
M  V30 8528 C 801.069 3.98708 -3.54778 0
M  V30 8529 O 801.292 4.9721 -2.79532 0
M  V30 8530 O 800.226 4.01674 -4.48266 0
M  V30 8531 H 804.052 1.16764 -2.80357 0
M  V30 8532 H 801.637 0.51318 -1.4031 0
M  V30 8533 H 803.519 3.55873 -2.25682 0
M  V30 8534 H 802.194 3.00829 -1.19514 0
M  V30 8535 H 801.101 1.89325 -3.22656 0
M  V30 8536 H 802.434 2.50789 -4.23516 0
M  V30 8537 N 804.086 1.46499 0.581025 0
M  V30 8538 C 804.996 1.59778 1.71779 0
M  V30 8539 C 806.012 0.481223 1.67213 0
M  V30 8540 O 807.188 0.74557 1.87091 0
M  V30 8541 C 804.253 1.58626 3.08283 0
M  V30 8542 C 803.314 2.81527 3.241 0
M  V30 8543 C 802.547 2.80421 4.54092 0
M  V30 8544 O 802.77 1.89262 5.38085 0
M  V30 8545 O 801.704 3.71984 4.73193 0
M  V30 8546 H 805.53 2.55918 1.63523 0
M  V30 8547 H 803.115 1.29311 0.748267 0
M  V30 8548 H 804.997 1.60686 3.89561 0
M  V30 8549 H 803.672 0.656467 3.16973 0
M  V30 8550 H 802.579 2.85021 2.42309 0
M  V30 8551 H 803.912 3.73721 3.20302 0
M  V30 8552 N 805.565 -0.825799 1.34232 0
M  V30 8553 C 806.813 -1.57873 1.26177 0
M  V30 8554 C 807.134 -1.94267 -0.168904 0
M  V30 8555 O 806.404 -1.62045 -1.10084 0
M  V30 8556 H 804.984 -0.585388 0.464037 0
M  V30 8557 H 807.646 -0.986163 1.6811 0
M  V30 8558 H 806.742 -2.50283 1.86453 0
M  V30 8559 N 807.043 -1.17915 -1.04565 0
M  V30 8560 C 808.268 -0.996749 -1.81878 0
M  V30 8561 C 808.693 0.450169 -1.82634 0
M  V30 8562 O 808.051 1.32268 -1.23995 0
M  V30 8563 C 808.099 -1.55005 -3.25585 0
M  V30 8564 O 807.203 -0.76804 -4.05185 0
M  V30 8565 H 806.544 -0.353456 -0.562108 0
M  V30 8566 H 809.074 -1.56557 -1.31723 0
M  V30 8567 H 809.084 -1.57503 -3.76373 0
M  V30 8568 H 807.759 -2.60327 -3.2435 0
M  V30 8569 H 806.336 -0.81498 -3.63885 0
M  V30 8570 N 808.521 1.23394 -0.980386 0
M  V30 8571 C 809.471 2.22634 -0.491747 0
M  V30 8572 C 810.455 1.54958 0.433222 0
M  V30 8573 O 811.647 1.75049 0.262078 0
M  V30 8574 C 808.776 3.4269 0.204531 0
M  V30 8575 C 807.862 4.17594 -0.740007 0
M  V30 8576 N 808.253 4.69458 -1.88263 0
M  V30 8577 C 806.551 4.42554 -0.553335 0
M  V30 8578 C 807.252 5.26446 -2.47446 0
M  V30 8579 N 806.228 5.14377 -1.75834 0
M  V30 8580 H 810.03 2.60363 -1.36339 0
M  V30 8581 H 807.544 1.38924 -0.841059 0
M  V30 8582 H 809.541 4.12959 0.571901 0
M  V30 8583 H 808.201 3.06477 1.07246 0
M  V30 8584 H 809.212 4.65803 -2.26381 0
M  V30 8585 H 805.889 4.16629 0.269573 0
M  V30 8586 H 807.279 5.77195 -3.43941 0
M  V30 8587 N 809.999 0.752036 1.385 0
M  V30 8588 C 811.41 0.375385 1.82887 0
M  V30 8589 C 811.761 -1.09575 1.62751 0
M  V30 8590 O 810.886 -1.84685 1.12785 0
M  V30 8591 C 811.481 0.674563 3.32017 0
M  V30 8592 C 810.04 0.351208 3.74758 0
M  V30 8593 C 809.187 0.928531 2.61292 0
M  V30 8594 H 812.138 0.948313 1.27251 0
M  V30 8595 H 812.159 -0.0477781 3.8047 0
M  V30 8596 H 811.671 1.74533 3.46641 0
M  V30 8597 H 809.772 -0.713042 3.65714 0
M  V30 8598 H 809.885 0.845675 4.71577 0
M  V30 8599 H 808.249 0.354012 2.52228 0
M  V30 8600 H 809.032 2.0043 2.78716 0
M  V30 8601 N 811.477 -1.49425 0.500989 0
M  V30 8602 C 812.888 -1.86624 0.0532011 0
M  V30 8603 C 813.239 -1.41331 -1.36088 0
M  V30 8604 O 812.364 -0.791195 -2.01418 0
M  V30 8605 C 812.959 -3.38681 0.0897693 0
M  V30 8606 C 811.518 -3.75181 -0.302677 0
M  V30 8607 C 810.665 -2.73419 0.462307 0
M  V30 8608 H 813.616 -1.41743 0.713773 0
M  V30 8609 H 813.637 -3.73902 -0.705528 0
M  V30 8610 H 813.149 -3.71616 1.11907 0
M  V30 8611 H 811.25 -3.47855 -1.33521 0
M  V30 8612 H 811.363 -4.79097 0.0167653 0
M  V30 8613 H 809.727 -2.54548 -0.0878557 0
M  V30 8614 H 810.51 -3.09198 1.49169 0
M  V30 8615 N 812.955 -0.234822 -1.55841 0
M  V30 8616 C 814.201 0.393843 -1.98939 0
M  V30 8617 C 814.534 1.58466 -1.1226 0
M  V30 8618 O 813.809 1.93635 -0.183242 0
M  V30 8619 C 814.092 0.815492 -3.50745 0
M  V30 8620 C 813.945 -0.379878 -4.48193 0
M  V30 8621 C 815.264 1.66687 -4.07312 0
M  V30 8622 H 812.383 0.141681 -0.723253 0
M  V30 8623 H 815.025 -0.333716 -1.87046 0
M  V30 8624 H 813.175 1.43541 -3.6101 0
M  V30 8625 H 814.847 -1.0182 -4.49923 0
M  V30 8626 H 813.09 -1.02507 -4.21515 0
M  V30 8627 H 813.761 -0.0417069 -5.51984 0
M  V30 8628 H 816.237 1.14369 -4.00074 0
M  V30 8629 H 815.113 1.93078 -5.13821 0
M  V30 8630 H 815.374 2.63468 -3.55017 0
M  V30 8631 N 814.433 1.57553 0.0384317 0
M  V30 8632 C 815.365 2.02726 1.06934 0
M  V30 8633 C 816.378 0.938502 1.33026 0
M  V30 8634 O 817.567 1.21595 1.30678 0
M  V30 8635 C 814.667 2.37958 2.41308 0
M  V30 8636 C 813.84 3.69098 2.34703 0
M  V30 8637 C 812.899 3.91623 3.51451 0
M  V30 8638 O 811.925 4.628 3.31368 0
M  V30 8639 N 813.127 3.36538 4.72993 0
M  V30 8640 H 815.892 2.91781 0.684381 0
M  V30 8641 H 813.453 1.60307 0.226542 0
M  V30 8642 H 815.445 2.50172 3.18113 0
M  V30 8643 H 814.015 1.54621 2.71682 0
M  V30 8644 H 813.235 3.67325 1.43059 0
M  V30 8645 H 814.523 4.55144 2.27424 0
M  V30 8646 H 813.921 2.78828 4.92211 0
M  V30 8647 H 812.478 3.54148 5.47195 0
M  V30 8648 N 815.911 -0.310526 1.54511 0
M  V30 8649 C 817.159 -1.04484 1.72996 0
M  V30 8650 C 817.48 -1.88118 0.513479 0
M  V30 8651 O 816.75 -1.90119 -0.472384 0
M  V30 8652 H 815.33 -0.388747 0.637875 0
M  V30 8653 H 817.992 -0.343811 1.91844 0
M  V30 8654 H 817.088 -1.70341 2.61515 0
M  V30 8655 N 817.389 -1.46805 -0.573248 0
M  V30 8656 C 818.321 -1.54127 -1.6964 0
M  V30 8657 C 819.334 -0.428778 -1.57052 0
M  V30 8658 O 820.523 -0.697612 -1.64303 0
M  V30 8659 C 817.623 -1.41438 -3.07975 0
M  V30 8660 C 816.796 -2.66974 -3.46474 0
M  V30 8661 C 815.855 -2.48349 -4.63906 0
M  V30 8662 O 814.881 -3.22109 -4.69292 0
M  V30 8663 N 816.083 -1.55129 -5.59388 0
M  V30 8664 H 818.848 -2.50971 -1.6381 0
M  V30 8665 H 816.409 -1.42981 -0.759479 0
M  V30 8666 H 818.401 -1.26737 -3.84343 0
M  V30 8667 H 816.971 -0.527388 -3.08119 0
M  V30 8668 H 816.191 -2.9655 -2.59715 0
M  V30 8669 H 817.479 -3.50347 -3.68964 0
M  V30 8670 H 816.877 -0.94324 -5.57781 0
M  V30 8671 H 815.434 -1.46387 -6.35149 0
M  V30 8672 N 818.867 0.818669 -1.34668 0
M  V30 8673 C 819.797 1.94468 -1.29245 0
M  V30 8674 C 820.778 1.69257 -0.169101 0
M  V30 8675 O 821.963 1.90794 -0.362143 0
M  V30 8676 C 819.093 3.31001 -1.05145 0
M  V30 8677 C 818.047 3.70663 -2.13992 0
M  V30 8678 C 817.373 5.05226 -1.75074 0
M  V30 8679 C 818.673 3.82312 -3.55858 0
M  V30 8680 H 820.367 1.99263 -2.2346 0
M  V30 8681 H 817.913 0.957304 -1.07572 0
M  V30 8682 H 819.866 4.09364 -0.999949 0
M  V30 8683 H 818.59 3.26517 -0.0737312 0
M  V30 8684 H 817.249 2.94578 -2.18219 0
M  V30 8685 H 816.897 4.97233 -0.759518 0
M  V30 8686 H 816.597 5.32734 -2.47928 0
M  V30 8687 H 818.121 5.86042 -1.71427 0
M  V30 8688 H 819.535 4.50935 -3.5402 0
M  V30 8689 H 817.932 4.21278 -4.2737 0
M  V30 8690 H 819.002 2.84193 -3.9289 0
M  V30 8691 N 820.346 1.18468 1.03938 0
M  V30 8692 C 821.571 1.00638 1.81347 0
M  V30 8693 C 821.996 -0.440477 1.8287 0
M  V30 8694 O 821.354 -1.31609 1.24695 0
M  V30 8695 C 821.402 1.5673 3.24759 0
M  V30 8696 O 820.506 0.789517 4.04772 0
M  V30 8697 H 819.847 0.356432 0.560225 0
M  V30 8698 H 822.377 1.57253 1.30891 0
M  V30 8699 H 822.387 1.59496 3.75533 0
M  V30 8700 H 821.062 2.62043 3.22965 0
M  V30 8701 H 819.639 0.834267 3.63448 0
M  V30 8702 N 821.824 -1.22873 0.986916 0
M  V30 8703 C 822.754 -2.2688 0.552064 0
M  V30 8704 C 823.735 -1.64883 -0.418048 0
M  V30 8705 O 824.92 -1.9171 -0.30999 0
M  V30 8706 C 822.05 -3.47018 -0.139959 0
M  V30 8707 C 821.004 -4.21411 0.748091 0
M  V30 8708 C 820.33 -5.34645 -0.0765132 0
M  V30 8709 C 821.63 -4.80726 2.04206 0
M  V30 8710 H 823.324 -2.63507 1.42143 0
M  V30 8711 H 820.87 -1.26668 0.68492 0
M  V30 8712 H 822.823 -4.18931 -0.455527 0
M  V30 8713 H 821.547 -3.0947 -1.04382 0
M  V30 8714 H 820.206 -3.51325 1.04721 0
M  V30 8715 H 819.854 -4.93339 -0.981109 0
M  V30 8716 H 819.554 -5.85342 0.514606 0
M  V30 8717 H 821.078 -6.09377 -0.386313 0
M  V30 8718 H 822.492 -5.44612 1.79083 0
M  V30 8719 H 820.889 -5.41737 2.5815 0
M  V30 8720 H 821.959 -4.01109 2.72469 0
M  V30 8721 N 823.302 -0.75937 -1.38099 0
M  V30 8722 C 824.234 -0.0956547 -2.29 0
M  V30 8723 C 825.247 0.677561 -1.4803 0
M  V30 8724 O 826.436 0.517696 -1.70828 0
M  V30 8725 C 823.536 0.88844 -3.27047 0
M  V30 8726 C 822.709 0.171652 -4.37063 0
M  V30 8727 C 821.768 1.06733 -5.15262 0
M  V30 8728 O 820.794 0.535698 -5.66674 0
M  V30 8729 N 821.996 2.39486 -5.28797 0
M  V30 8730 H 824.761 -0.876354 -2.86601 0
M  V30 8731 H 822.322 -0.61065 -1.49942 0
M  V30 8732 H 824.314 1.49079 -3.76241 0
M  V30 8733 H 822.884 1.57018 -2.70304 0
M  V30 8734 H 822.104 -0.611473 -3.89429 0
M  V30 8735 H 823.392 -0.324121 -5.07767 0
M  V30 8736 H 822.79 2.85127 -4.88589 0
M  V30 8737 H 821.347 2.94758 -5.81344 0
M  V30 8738 N 824.78 1.49157 -0.508906 0
M  V30 8739 C 825.728 2.30922 0.278906 0
M  V30 8740 C 826.722 1.39889 0.955382 0
M  V30 8741 O 827.928 1.56901 0.882169 0
M  V30 8742 H 824.303 0.744087 0.108805 0
M  V30 8743 H 826.274 2.95277 -0.430583 0
M  V30 8744 C 825.023 3.21432 1.32576 0
M  V30 8745 H 824.346 3.91413 0.814634 0
M  V30 8746 H 825.786 3.81568 1.84882 0
M  V30 8747 C 824.245 2.41583 2.34817 0
M  V30 8748 O 824.775 2.1256 3.40854 0
M  V30 8749 N 822.981 2.03462 2.07489 0
M  V30 8750 H 822.528 2.27265 1.21278 0
M  V30 8751 H 822.486 1.50345 2.76123 0
M  V30 8752 N 826.258 0.243083 1.55714 0
M  V30 8753 C 827.486 -0.386971 2.03249 0
M  V30 8754 C 827.901 -1.51812 1.12243 0
M  V30 8755 O 827.258 -1.81992 0.136119 0
M  V30 8756 C 827.309 -0.898361 3.5016 0
M  V30 8757 O 827.03 0.187708 4.37698 0
M  V30 8758 C 828.531 -1.59949 4.13438 0
M  V30 8759 H 825.751 -0.0923981 0.664608 0
M  V30 8760 H 828.295 0.365832 2.01201 0
M  V30 8761 H 826.45 -1.60136 3.52754 0
M  V30 8762 H 826.864 -0.200001 5.24119 0
M  V30 8763 H 828.338 -1.90907 5.17937 0
M  V30 8764 H 828.815 -2.52014 3.59702 0
M  V30 8765 H 829.421 -0.941163 4.14756 0
M  V30 8766 N 827.736 -1.57571 -0.0300757 0
M  V30 8767 C 828.964 -1.93485 -0.732891 0
M  V30 8768 C 829.379 -0.842758 -1.68947 0
M  V30 8769 O 828.736 0.180904 -1.81601 0
M  V30 8770 C 828.787 -3.29328 -1.49082 0
M  V30 8771 O 828.508 -4.34341 -0.572639 0
M  V30 8772 C 830.009 -3.79517 -2.29088 0
M  V30 8773 H 827.229 -0.638588 -0.206026 0
M  V30 8774 H 829.773 -2.04496 0.0120966 0
M  V30 8775 H 827.928 -3.19716 -2.1877 0
M  V30 8776 H 828.342 -5.12748 -1.10406 0
M  V30 8777 H 829.816 -4.77081 -2.77665 0
M  V30 8778 H 830.293 -3.10659 -3.10464 0
M  V30 8779 H 830.899 -3.92208 -1.64477 0
M  V30 8780 N 829.214 0.302327 -1.54673 0
M  V30 8781 C 830.164 1.37443 -1.81916 0
M  V30 8782 C 831.148 1.45999 -0.676251 0
M  V30 8783 O 832.34 1.50174 -0.93685 0
M  V30 8784 C 829.469 2.73966 -2.06876 0
M  V30 8785 C 828.555 2.69637 -3.27348 0
M  V30 8786 N 828.946 2.34926 -4.47933 0
M  V30 8787 C 827.244 3.00742 -3.29348 0
M  V30 8788 C 827.945 2.39862 -5.29944 0
M  V30 8789 N 826.921 2.77163 -4.67634 0
M  V30 8790 H 830.723 1.09567 -2.72713 0
M  V30 8791 H 828.237 0.5109 -1.54154 0
M  V30 8792 H 830.234 3.51265 -2.2454 0
M  V30 8793 H 828.894 3.02754 -1.17346 0
M  V30 8794 H 829.905 2.07403 -4.74557 0
M  V30 8795 H 826.582 3.34434 -2.49921 0
M  V30 8796 H 827.972 2.15835 -6.3629 0
M  V30 8797 N 830.692 1.47107 0.565454 0
M  V30 8798 C 831.92 1.56909 1.3486 0
M  V30 8799 C 832.335 0.216312 1.87557 0
M  V30 8800 O 831.692 -0.789168 1.64555 0
M  V30 8801 C 831.743 2.58776 2.52423 0
M  V30 8802 O 831.464 3.888 2.01906 0
M  V30 8803 C 832.965 2.78683 3.44747 0
M  V30 8804 H 830.185 0.530096 0.411387 0
M  V30 8805 H 832.729 1.92658 0.685782 0
M  V30 8806 H 830.884 2.25983 3.1466 0
M  V30 8807 H 831.298 4.44393 2.78595 0
M  V30 8808 H 832.772 3.53842 4.23674 0
M  V30 8809 H 833.249 1.86208 3.97773 0
M  V30 8810 H 833.855 3.12641 2.88333 0
M  V30 8811 N 832.17 -0.811516 1.35101 0
M  V30 8812 C 833.586 -1.10634 1.15031 0
M  V30 8813 C 833.786 -2.01459 -0.0405379 0
M  V30 8814 O 832.842 -2.42235 -0.712635 0
M  V30 8815 C 834.155 -1.74207 2.45097 0
M  V30 8816 C 835.703 -1.8665 2.51258 0
M  V30 8817 C 836.178 -2.53638 3.81355 0
M  V30 8818 N 837.669 -2.61128 3.82579 0
M  V30 8819 C 838.404 -3.13717 4.79968 0
M  V30 8820 N 837.9 -3.66782 5.87744 0
M  V30 8821 N 839.693 -3.12224 4.67411 0
M  V30 8822 H 831.844 -0.207641 2.11383 0
M  V30 8823 H 834.107 -0.154697 0.935293 0
M  V30 8824 H 833.813 -1.14936 3.32389 0
M  V30 8825 H 833.687 -2.73958 2.59281 0
M  V30 8826 H 836.074 -2.45066 1.64398 0
M  V30 8827 H 836.155 -0.857678 2.40993 0
M  V30 8828 H 835.799 -1.95873 4.68611 0
M  V30 8829 H 835.729 -3.55047 3.88907 0
M  V30 8830 H 838.22 -2.23527 3.04703 0
M  V30 8831 H 838.533 -4.05194 6.58056 0
M  V30 8832 H 836.878 -3.64994 5.91443 0
M  V30 8833 H 840.069 -2.70042 3.82354 0
M  V30 8834 H 840.242 -3.52903 5.43474 0
M  V30 8835 N 833.648 -1.19017 -1.03309 0
M  V30 8836 C 834.876 -1.01534 -1.80273 0
M  V30 8837 C 835.291 0.43605 -1.83696 0
M  V30 8838 O 834.648 1.30288 -1.27794 0
M  V30 8839 C 834.699 -1.5722 -3.25522 0
M  V30 8840 O 834.42 -2.96677 -3.22358 0
M  V30 8841 C 835.921 -1.4446 -4.19102 0
M  V30 8842 H 833.141 -0.358094 -0.567459 0
M  V30 8843 H 835.685 -1.57738 -1.3015 0
M  V30 8844 H 833.84 -1.05174 -3.7285 0
M  V30 8845 H 834.254 -3.22795 -4.13405 0
M  V30 8846 H 835.728 -1.88209 -5.18923 0
M  V30 8847 H 836.205 -0.394471 -4.37425 0
M  V30 8848 H 836.811 -1.95616 -3.77643 0
M  V30 8849 N 835.127 1.22348 -0.993418 0
M  V30 8850 C 836.352 1.95666 -0.687727 0
M  V30 8851 C 836.777 1.72883 0.741161 0
M  V30 8852 O 836.135 1.00837 1.50671 0
M  V30 8853 C 836.183 3.46457 -0.99998 0
M  V30 8854 O 835.287 4.12281 -0.0989386 0
M  V30 8855 H 834.628 0.612102 -0.257346 0
M  V30 8856 H 837.158 1.55428 -1.33054 0
M  V30 8857 H 837.168 3.96976 -0.942035 0
M  V30 8858 H 835.843 3.62365 -2.04118 0
M  V30 8859 H 834.42 3.72295 -0.212413 0
M  V30 8860 N 836.605 0.766683 1.37694 0
M  V30 8861 C 837.555 0.123173 2.27667 0
M  V30 8862 C 838.539 -0.679436 1.45851 0
M  V30 8863 O 839.731 -0.54324 1.68457 0
M  V30 8864 C 836.86 -0.759064 3.34803 0
M  V30 8865 C 835.946 0.0511009 4.24069 0
M  V30 8866 N 836.337 1.09418 4.93823 0
M  V30 8867 C 834.635 -0.173675 4.45662 0
M  V30 8868 C 835.336 1.58546 5.59677 0
M  V30 8869 N 834.312 0.898503 5.36123 0
M  V30 8870 H 838.114 0.921859 2.79068 0
M  V30 8871 H 835.628 0.603957 1.50752 0
M  V30 8872 H 837.625 -1.23581 3.98163 0
M  V30 8873 H 836.285 -1.55655 2.84959 0
M  V30 8874 H 837.296 1.47623 4.96415 0
M  V30 8875 H 833.973 -0.943473 4.067 0
M  V30 8876 H 835.363 2.45504 6.25442 0
M  V30 8877 O 838.122 -1.47474 0.658306 0
M  V30 8878 H 838.813 -1.92811 0.185369 0
M  V30 END ATOM
M  V30 BEGIN BOND
M  V30 END BOND
M  V30 END CTAB
M  END
$$$$
