drugbank_drug|DB00038 DB00038 sequence
 OpenBabel12092119123D

  0  0  0     0  0            999 V3000
M  V30 BEGIN CTAB
M  V30 COUNTS 2762 2794 0 0 0
M  V30 BEGIN ATOM
M  V30 1 H -0.908 1.98254 -0.117106 0
M  V30 2 N 0 1.576 0 0
M  V30 3 C 1.248 1.90191 0.683495 0
M  V30 4 C 1.569 0.874069 1.74313 0
M  V30 5 O 0.839 -0.0885238 1.957 0
M  V30 6 H -0.581 0.701967 0.255443 0
M  V30 7 H 2.081 1.94857 -0.040926 0
M  V30 8 H 1.177 2.89952 1.15474 0
M  V30 9 N 1.4781 -0.272755 1.55222 0
M  V30 10 C 2.8891 -0.84378 1.66545 0
M  V30 11 C 3.2401 -1.87035 0.592641 0
M  V30 12 O 2.3651 -2.14761 -0.265818 0
M  V30 13 C 2.9601 -1.53723 3.01918 0
M  V30 14 C 1.5191 -2.05628 3.15268 0
M  V30 15 C 0.6661 -0.898424 2.62343 0
M  V30 16 H 3.6171 -0.0490998 1.58624 0
M  V30 17 H 3.6381 -2.40421 2.94921 0
M  V30 18 H 3.1501 -0.78983 3.79978 0
M  V30 19 H 1.2511 -2.83329 2.41983 0
M  V30 20 H 1.3641 -2.27142 4.21833 0
M  V30 21 H -0.2719 -1.29186 2.19506 0
M  V30 22 H 0.5111 -0.164528 3.42906 0
M  V30 23 N 2.9562 -1.48159 -0.537278 0
M  V30 24 C 4.3672 -1.49429 -1.11928 0
M  V30 25 C 4.7182 -0.26 -1.9447 0
M  V30 26 O 3.8432 0.633489 -2.0692 0
M  V30 27 C 4.4382 -2.70758 -2.03656 0
M  V30 28 C 2.9972 -2.74923 -2.57088 0
M  V30 29 C 2.1442 -2.42835 -1.3389 0
M  V30 30 H 5.0952 -1.55381 -0.322886 0
M  V30 31 H 5.1162 -2.48861 -2.87834 0
M  V30 32 H 4.6282 -3.60575 -1.43553 0
M  V30 33 H 2.7292 -1.89296 -3.20933 0
M  V30 34 H 2.8422 -3.76157 -2.9672 0
M  V30 35 H 1.2062 -1.93836 -1.65226 0
M  V30 36 H 1.9892 -3.34884 -0.755504 0
M  V30 37 N 4.4343 0.785586 -1.36625 0
M  V30 38 C 5.8453 1.36101 -1.27803 0
M  V30 39 C 6.1963 1.96035 0.0804875 0
M  V30 40 O 5.3213 1.92834 0.982042 0
M  V30 41 C 5.9163 2.47442 -2.31426 0
M  V30 42 C 4.4753 3.00789 -2.26281 0
M  V30 43 C 3.6223 1.73896 -2.15999 0
M  V30 44 H 6.5733 0.586928 -1.47448 0
M  V30 45 H 6.5943 3.2656 -1.95291 0
M  V30 46 H 6.1063 2.03791 -3.30289 0
M  V30 47 H 4.2073 3.48851 -1.30896 0
M  V30 48 H 4.3203 3.57343 -3.19128 0
M  V30 49 H 2.6843 1.9628 -1.62316 0
M  V30 50 H 3.4673 1.32368 -3.16755 0
M  V30 51 N 5.9124 1.20967 1.01018 0
M  V30 52 C 7.1604 1.02172 1.74371 0
M  V30 53 C 7.4814 -0.446414 1.89821 0
M  V30 54 O 6.7514 -1.32234 1.44537 0
M  V30 55 H 5.3314 0.375066 0.646014 0
M  V30 56 H 7.9934 1.52187 1.21758 0
M  V30 57 H 7.0894 1.48538 2.74487 0
M  V30 58 N 7.3905 -1.2043 1.01659 0
M  V30 59 C 8.8015 -1.71517 0.737482 0
M  V30 60 C 9.1525 -1.81547 -0.743973 0
M  V30 61 O 8.2775 -1.47803 -1.58061 0
M  V30 62 C 8.8725 -3.11515 1.33206 0
M  V30 63 C 7.4315 -3.59912 1.10183 0
M  V30 64 C 6.5785 -2.37116 1.43776 0
M  V30 65 H 9.5295 -1.05444 1.18606 0
M  V30 66 H 9.5505 -3.73575 0.722636 0
M  V30 67 H 9.0625 -3.04182 2.41028 0
M  V30 68 H 7.1635 -3.72577 0.0412756 0
M  V30 69 H 7.2765 -4.44731 1.78188 0
M  V30 70 H 5.6405 -2.39857 0.856778 0
M  V30 71 H 6.4235 -2.32424 2.52654 0
M  V30 72 N 8.8686 -0.792821 -1.36206 0
M  V30 73 C 10.2796 -0.429513 -1.81692 0
M  V30 74 C 10.6306 1.04695 -1.65932 0
M  V30 75 O 9.7556 1.81256 -1.18218 0
M  V30 76 C 10.3506 -0.772831 -3.29868 0
M  V30 77 C 8.9096 -0.462307 -3.7355 0
M  V30 78 C 8.0566 -1.00569 -2.5842 0
M  V30 79 H 11.0076 -0.985672 -1.24379 0
M  V30 80 H 11.0286 -0.0651928 -3.80444 0
M  V30 81 H 10.5406 -1.84747 -3.41307 0
M  V30 82 H 8.6416 0.604158 -3.67669 0
M  V30 83 H 8.7546 -0.985299 -4.68859 0
M  V30 84 H 7.1186 -0.428734 -2.51066 0
M  V30 85 H 7.9016 -2.08616 -2.72643 0
M  V30 86 N 10.3467 1.47872 -0.545128 0
M  V30 87 C 11.7627 1.5829 -0.204032 0
M  V30 88 C 11.9627 1.54529 1.29317 0
M  V30 89 O 11.0187 1.44232 2.07252 0
M  V30 90 C 12.3317 2.89304 -0.819987 0
M  V30 91 C 13.8797 3.02864 -0.790105 0
M  V30 92 C 14.3547 4.3656 -1.38491 0
M  V30 93 N 15.8457 4.43165 -1.34755 0
M  V30 94 C 16.5807 5.45153 -1.77753 0
M  V30 95 N 16.0767 6.54016 -2.2855 0
M  V30 96 N 17.8697 5.36125 -1.68897 0
M  V30 97 H 10.0207 1.4856 -1.51802 0
M  V30 98 H 12.2837 0.706305 -0.632327 0
M  V30 99 H 11.9897 2.97757 -1.87173 0
M  V30 100 H 11.8637 3.75957 -0.305915 0
M  V30 101 H 14.2507 2.94014 0.252913 0
M  V30 102 H 14.3317 2.17782 -1.34181 0
M  V30 103 H 13.9757 4.46164 -2.42693 0
M  V30 104 H 13.9057 5.20353 -0.808754 0
M  V30 105 H 16.3967 3.65083 -0.975855 0
M  V30 106 H 16.7097 7.27994 -2.59314 0
M  V30 107 H 15.0547 6.54938 -2.32553 0
M  V30 108 H 18.2457 4.49975 -1.28998 0
M  V30 109 H 18.4187 6.15472 -2.02726 0
M  V30 110 N 11.8248 0.280983 1.55075 0
M  V30 111 C 13.0708 -0.33461 2.00021 0
M  V30 112 C 13.4038 -1.55063 1.16915 0
M  V30 113 O 12.6788 -1.93006 0.240646 0
M  V30 114 C 12.9618 -0.711007 3.53011 0
M  V30 115 C 12.8148 0.512766 4.46868 0
M  V30 116 C 14.1338 -1.54522 4.12081 0
M  V30 117 H 11.2528 -0.120147 0.727141 0
M  V30 118 H 13.8948 0.389097 1.85973 0
M  V30 119 H 12.0448 -1.32761 3.65112 0
M  V30 120 H 13.7168 1.15131 4.46702 0
M  V30 121 H 11.9598 1.14975 4.18286 0
M  V30 122 H 12.6308 0.205556 5.51617 0
M  V30 123 H 15.1068 -1.02442 4.03293 0
M  V30 124 H 13.9828 -1.77739 5.19327 0
M  V30 125 H 14.2438 -2.52813 3.62682 0
M  V30 126 N 13.3029 -1.57598 0.00835791 0
M  V30 127 C 14.5279 -1.95617 -0.689103 0
M  V30 128 C 14.9529 -0.883753 -1.66046 0
M  V30 129 O 14.3109 0.157352 -1.80616 0
M  V30 130 C 14.3589 -3.32736 -1.38994 0
M  V30 131 O 13.4629 -3.27631 -2.50463 0
M  V30 132 H 12.8039 -0.638379 -0.182668 0
M  V30 133 H 15.3339 -2.045 0.064036 0
M  V30 134 H 15.3439 -3.68494 -1.75147 0
M  V30 135 H 14.0189 -4.1034 -0.677778 0
M  V30 136 H 12.5959 -3.03561 -2.16576 0
M  V30 137 N 14.781 0.264519 -1.55364 0
M  V30 138 C 16.192 0.834936 -1.6699 0
M  V30 139 C 16.543 1.86718 -0.602552 0
M  V30 140 O 15.668 2.14899 0.254425 0
M  V30 141 C 16.263 1.5212 -3.02729 0
M  V30 142 C 14.822 2.03954 -3.16354 0
M  V30 143 C 13.969 0.884498 -2.62815 0
M  V30 144 H 16.92 0.0406869 -1.58648 0
M  V30 145 H 16.941 2.38853 -2.96191 0
M  V30 146 H 16.453 0.769668 -3.80392 0
M  V30 147 H 14.554 2.82041 -2.43482 0
M  V30 148 H 14.667 2.24902 -4.23032 0
M  V30 149 H 13.031 1.2802 -2.20188 0
M  V30 150 H 13.814 0.14634 -3.42988 0
M  V30 151 N 16.2591 1.48442 0.529413 0
M  V30 152 C 17.5361 1.46978 1.29062 0
M  V30 153 C 17.9161 0.181769 2.10316 0
M  V30 154 O 17.2641 -0.836481 2.12639 0
M  V30 155 C 17.4741 2.7321 2.17157 0
M  V30 156 C 18.8221 3.21562 2.77278 0
M  V30 157 O 19.8461 2.74131 2.27444 0
M  V30 158 O 18.7051 4.04094 3.67927 0
M  V30 159 H 15.7991 0.587003 0.582543 0
M  V30 160 H 18.3451 1.60676 0.546021 0
M  V30 161 H 17.1171 3.58465 1.56903 0
M  V30 162 H 16.7401 2.62235 2.98862 0
M  V30 163 N 17.7372 -0.778329 1.37039 0
M  V30 164 C 19.1482 -1.35421 1.28523 0
M  V30 165 C 19.4992 -1.96075 -0.0700901 0
M  V30 166 O 18.6242 -1.93352 -0.971801 0
M  V30 167 C 19.2192 -2.46211 2.32735 0
M  V30 168 C 17.7782 -2.99585 2.27873 0
M  V30 169 C 16.9252 -1.72748 2.16918 0
M  V30 170 H 19.8762 -0.5791 1.47757 0
M  V30 171 H 19.8972 -3.2552 1.9702 0
M  V30 172 H 19.4092 -2.02036 3.31365 0
M  V30 173 H 17.5102 -3.48152 1.32745 0
M  V30 174 H 17.6232 -3.55646 3.21018 0
M  V30 175 H 15.9872 -1.95416 1.63354 0
M  V30 176 H 16.7702 -1.30686 3.17452 0
M  V30 177 N 19.2153 -1.21501 -1.00376 0
M  V30 178 C 20.6313 -0.972629 -1.26539 0
M  V30 179 C 20.8313 0.340257 -1.98606 0
M  V30 180 O 19.8873 1.06561 -2.28913 0
M  V30 181 C 21.2003 -2.16404 -2.08781 0
M  V30 182 C 22.7483 -2.20643 -2.22004 0
M  V30 183 C 23.2233 -3.39306 -3.07629 0
M  V30 184 N 24.7143 -3.39401 -3.15217 0
M  V30 185 C 25.4493 -4.27867 -3.81729 0
M  V30 186 N 24.9453 -5.26533 -4.5026 0
M  V30 187 N 26.7383 -4.15672 -3.78382 0
M  V30 188 H 18.8893 -2.05929 -0.520281 0
M  V30 189 H 21.1523 -0.901803 -0.292328 0
M  V30 190 H 20.8583 -3.11554 -1.63178 0
M  V30 191 H 20.7323 -2.15567 -3.09533 0
M  V30 192 H 23.1193 -1.26048 -2.66825 0
M  V30 193 H 23.2003 -2.25523 -1.20718 0
M  V30 194 H 22.8443 -4.34195 -2.63509 0
M  V30 195 H 22.7743 -3.31665 -4.09031 0
M  V30 196 H 25.2653 -2.67997 -2.66432 0
M  V30 197 H 25.5783 -5.90337 -4.98721 0
M  V30 198 H 23.9233 -5.30457 -4.49044 0
M  V30 199 H 27.1143 -3.3785 -3.23998 0
M  V30 200 H 27.2873 -4.84825 -4.2994 0
M  V30 201 N 20.6934 1.19889 -1.02296 0
M  V30 202 C 21.6564 2.21116 -0.603351 0
M  V30 203 C 22.6564 1.5738 0.329884 0
M  V30 204 O 23.8464 1.73802 0.117702 0
M  V30 205 C 20.9784 3.40696 0.117992 0
M  V30 206 H 22.1714 2.59754 -1.49893 0
M  V30 207 H 19.7244 1.33463 -0.813468 0
M  V30 208 H 20.4594 3.07569 1.0282 0
M  V30 209 H 20.2444 3.88188 -0.552511 0
M  V30 210 H 21.7344 4.15692 0.398696 0
M  V30 211 N 22.1715 0.800033 1.35784 0
M  V30 212 C 23.0815 0.207204 2.33683 0
M  V30 213 C 24.0975 -0.64631 1.61551 0
M  V30 214 O 25.2735 -0.559604 1.93469 0
M  V30 215 C 22.3385 -0.639659 3.40748 0
M  V30 216 C 21.3995 0.233585 4.28664 0
M  V30 217 C 20.6325 -0.572954 5.30616 0
M  V30 218 O 20.8555 -1.80816 5.40982 0
M  V30 219 O 19.7895 0.0327285 6.01891 0
M  V30 220 H 23.6155 1.01692 2.86169 0
M  V30 221 H 21.2005 0.561691 1.38439 0
M  V30 222 H 23.0825 -1.12223 4.06182 0
M  V30 223 H 21.7575 -1.42708 2.90544 0
M  V30 224 H 20.6645 0.763147 3.66233 0
M  V30 225 H 21.9975 0.984784 4.82248 0
M  V30 226 N 23.6496 -1.47581 0.552962 0
M  V30 227 C 24.5796 -2.32762 -0.185451 0
M  V30 228 C 25.5606 -1.43527 -0.912905 0
M  V30 229 O 26.7456 -1.72388 -0.894201 0
M  V30 230 C 23.8756 -3.25219 -1.21859 0
M  V30 231 C 22.8296 -4.23661 -0.607864 0
M  V30 232 C 22.1556 -5.05413 -1.74533 0
M  V30 233 C 23.4556 -5.20481 0.435582 0
M  V30 234 H 25.1496 -2.94749 0.525684 0
M  V30 235 H 22.6956 -1.41738 0.254251 0
M  V30 236 H 24.6486 -3.8365 -1.7433 0
M  V30 237 H 23.3726 -2.61279 -1.95961 0
M  V30 238 H 22.0316 -3.66451 -0.104489 0
M  V30 239 H 21.6796 -4.3788 -2.47529 0
M  V30 240 H 21.3796 -5.72059 -1.34249 0
M  V30 241 H 22.9036 -5.66701 -2.27338 0
M  V30 242 H 24.3176 -5.733 -0.00290157 0
M  V30 243 H 22.7146 -5.95305 0.757067 0
M  V30 244 H 23.7846 -4.66217 1.33303 0
M  V30 245 N 25.1277 -0.289203 -1.54924 0
M  V30 246 C 26.4047 0.376032 -1.91951 0
M  V30 247 C 26.7847 1.72622 -1.21511 0
M  V30 248 O 26.1327 2.25853 -0.346767 0
M  V30 249 C 26.3427 0.502378 -3.45365 0
M  V30 250 C 27.6907 0.778741 -4.17398 0
M  V30 251 O 28.7147 0.586647 -3.51336 0
M  V30 252 O 27.5737 1.14698 -5.34328 0
M  V30 253 H 24.6677 0.208167 -0.800372 0
M  V30 254 H 27.2137 -0.336394 -1.66332 0
M  V30 255 H 25.9857 -0.447255 -3.88736 0
M  V30 256 H 25.6087 1.26373 -3.76982 0
M  V30 257 N 26.6058 1.57591 -0.0167156 0
M  V30 258 C 27.8308 1.9598 0.67872 0
M  V30 259 C 28.2558 0.892546 1.65575 0
M  V30 260 O 27.6138 -0.147772 1.80697 0
M  V30 261 C 27.6618 3.33468 1.37227 0
M  V30 262 O 26.7658 3.28954 2.48722 0
M  V30 263 H 26.1068 0.639339 0.17928 0
M  V30 264 H 28.6368 2.04463 -0.0748802 0
M  V30 265 H 28.6468 3.69417 1.7319 0
M  V30 266 H 27.3218 4.10694 0.656007 0
M  V30 267 H 25.8988 3.04705 2.14963 0
M  V30 268 N 28.0839 -0.256276 1.55502 0
M  V30 269 C 29.3119 -1.00342 1.8094 0
M  V30 270 C 29.7269 -1.79307 0.59114 0
M  V30 271 O 29.0839 -1.77114 -0.440081 0
M  V30 272 C 29.1349 -1.94875 3.04476 0
M  V30 273 O 28.8559 -1.19107 4.21598 0
M  V30 274 C 30.3569 -2.81266 3.42644 0
M  V30 275 H 27.5769 -0.295685 0.602338 0
M  V30 276 H 30.1209 -0.281998 2.02546 0
M  V30 277 H 28.2759 -2.62457 2.84947 0
M  V30 278 H 28.6899 -1.82969 4.91551 0
M  V30 279 H 30.1639 -3.43362 4.32211 0
M  V30 280 H 30.6409 -3.51897 2.62802 0
M  V30 281 H 31.2469 -2.1915 3.64491 0
M  V30 282 N 29.562 -1.4872 -0.521534 0
M  V30 283 C 30.808 -1.574 -1.27879 0
M  V30 284 C 31.141 -0.250817 -1.92573 0
M  V30 285 O 30.416 0.743934 -1.79711 0
M  V30 286 C 30.699 -2.71843 -2.36164 0
M  V30 287 C 30.552 -4.13893 -1.76105 0
M  V30 288 C 31.871 -2.82008 -3.37875 0
M  V30 289 H 28.99 -0.572941 -0.463581 0
M  V30 290 H 31.632 -1.80927 -0.580119 0
M  V30 291 H 29.782 -2.51914 -2.95756 0
M  V30 292 H 31.454 -4.45284 -1.20499 0
M  V30 293 H 29.697 -4.20498 -1.06601 0
M  V30 294 H 30.368 -4.89804 -2.5455 0
M  V30 295 H 32.844 -3.00086 -2.88249 0
M  V30 296 H 31.72 -3.63796 -4.11028 0
M  V30 297 H 31.981 -1.90511 -3.98946 0
M  V30 298 N 31.0401 0.771051 -1.3745 0
M  V30 299 C 31.9701 1.89827 -1.3597 0
M  V30 300 C 32.9511 1.68562 -0.228216 0
M  V30 301 O 34.1361 1.8941 -0.428675 0
M  V30 302 C 31.2661 3.2712 -1.16662 0
M  V30 303 C 30.2201 3.6295 -2.2683 0
M  V30 304 C 29.5461 4.98791 -1.92644 0
M  V30 305 C 30.8461 3.69627 -3.69017 0
M  V30 306 H 32.5401 1.91323 -2.30295 0
M  V30 307 H 30.0861 0.919082 -1.10855 0
M  V30 308 H 32.0391 4.05615 -1.14256 0
M  V30 309 H 30.7631 3.26059 -0.187926 0
M  V30 310 H 29.4221 2.86763 -2.28392 0
M  V30 311 H 29.0701 4.94271 -0.933021 0
M  V30 312 H 28.7701 5.23733 -2.66416 0
M  V30 313 H 30.2941 5.79685 -1.91826 0
M  V30 314 H 31.7081 4.38273 -3.69581 0
M  V30 315 H 30.1051 4.06067 -4.41848 0
M  V30 316 H 31.1751 2.70273 -4.02592 0
M  V30 317 N 32.5182 1.22032 0.997298 0
M  V30 318 C 33.4482 1.01065 2.10495 0
M  V30 319 C 34.4292 -0.0669542 1.69968 0
M  V30 320 O 35.6142 0.0943987 1.9397 0
M  V30 321 C 32.7442 0.582874 3.42374 0
M  V30 322 C 31.6982 1.60592 3.96729 0
M  V30 323 C 31.0242 1.03412 5.24605 0
M  V30 324 C 32.3242 2.99478 4.27914 0
M  V30 325 H 34.0182 1.93708 2.28292 0
M  V30 326 H 31.5642 0.932761 1.09707 0
M  V30 327 H 33.5172 0.423332 4.19268 0
M  V30 328 H 32.2412 -0.379213 3.24391 0
M  V30 329 H 30.9002 1.75316 3.21963 0
M  V30 330 H 30.5482 0.063518 5.0296 0
M  V30 331 H 30.2482 1.71754 5.61938 0
M  V30 332 H 31.7722 0.886066 6.04137 0
M  V30 333 H 33.1862 2.88153 4.95622 0
M  V30 334 H 31.5832 3.64903 4.76409 0
M  V30 335 H 32.6532 3.49742 3.3587 0
M  V30 336 N 33.9963 -1.19345 1.0293 0
M  V30 337 C 35.2243 -1.92997 0.745644 0
M  V30 338 C 35.6393 -1.75519 -0.695589 0
M  V30 339 O 34.9963 -1.07737 -1.47306 0
M  V30 340 C 35.0473 -3.44741 1.08792 0
M  V30 341 O 34.7683 -3.61658 2.47256 0
M  V30 342 C 36.2693 -4.35515 0.827129 0
M  V30 343 H 33.4893 -0.613042 0.272801 0
M  V30 344 H 36.0333 -1.51473 1.3739 0
M  V30 345 H 34.1883 -3.84097 0.504832 0
M  V30 346 H 34.6023 -4.55514 2.60015 0
M  V30 347 H 36.0763 -5.40589 1.11658 0
M  V30 348 H 36.5533 -4.38552 -0.238436 0
M  V30 349 H 37.1593 -4.01841 1.39297 0
M  V30 350 N 35.4744 -0.807222 -1.35358 0
M  V30 351 C 36.8904 -0.491038 -1.51858 0
M  V30 352 C 37.0904 0.987648 -1.75635 0
M  V30 353 O 36.1464 1.77265 -1.79815 0
M  V30 354 C 37.4594 -1.33695 -2.69344 0
M  V30 355 C 39.0074 -1.33246 -2.83222 0
M  V30 356 C 39.4824 -2.1625 -4.03733 0
M  V30 357 N 40.9734 -2.1379 -4.10911 0
M  V30 358 C 41.7084 -2.74772 -5.03277 0
M  V30 359 N 41.2044 -3.44684 -6.0097 0
M  V30 360 N 42.9974 -2.6441 -4.96028 0
M  V30 361 H 35.1484 -1.76485 -1.18181 0
M  V30 362 H 37.4114 -0.751199 -0.578276 0
M  V30 363 H 37.1174 -2.38634 -2.58354 0
M  V30 364 H 36.9914 -0.990618 -3.6396 0
M  V30 365 H 39.3784 -0.290911 -2.93663 0
M  V30 366 H 39.4594 -1.71866 -1.89461 0
M  V30 367 H 39.1034 -3.20445 -3.94052 0
M  V30 368 H 39.0334 -1.74989 -4.96675 0
M  V30 369 H 41.5244 -1.62923 -3.40976 0
M  V30 370 H 41.8374 -3.88501 -6.68047 0
M  V30 371 H 40.1824 -3.48788 -6.01142 0
M  V30 372 H 43.3734 -2.0938 -4.18662 0
M  V30 373 H 43.5464 -3.12225 -5.6782 0
M  V30 374 N 36.9525 1.47285 -0.560781 0
M  V30 375 C 38.1775 2.07359 -0.0410566 0
M  V30 376 C 38.6025 1.41017 1.24483 0
M  V30 377 O 37.9605 0.486368 1.74654 0
M  V30 378 C 38.0085 3.6035 0.134123 0
M  V30 379 O 37.1125 3.94681 1.19587 0
M  V30 380 H 36.4535 0.661887 -0.0529291 0
M  V30 381 H 38.9835 1.89252 -0.777482 0
M  V30 382 H 38.9935 4.0652 0.347207 0
M  V30 383 H 37.6685 4.08034 -0.805047 0
M  V30 384 H 36.2455 3.60251 0.962987 0
M  V30 385 N 38.4306 0.297415 1.54768 0
M  V30 386 C 39.3606 -0.573494 2.26348 0
M  V30 387 C 40.3416 -1.14085 1.26169 0
M  V30 388 O 41.5266 -1.17086 1.54934 0
M  V30 389 C 38.6566 -1.74716 3.00153 0
M  V30 390 C 37.6106 -1.31032 4.07449 0
M  V30 391 C 36.9366 -2.56887 4.68949 0
M  V30 392 C 38.2366 -0.444183 5.20408 0
M  V30 393 H 39.9306 0.0235131 2.99391 0
M  V30 394 H 37.4766 0.0127488 1.43994 0
M  V30 395 H 39.4296 -2.3625 3.48947 0
M  V30 396 H 38.1536 -2.37035 2.24682 0
M  V30 397 H 36.8126 -0.718066 3.59499 0
M  V30 398 H 36.4606 -3.17512 3.90122 0
M  V30 399 H 36.1606 -2.2836 5.41411 0
M  V30 400 H 37.6846 -3.19229 5.20505 0
M  V30 401 H 39.0986 -0.9651 5.65118 0
M  V30 402 H 37.4956 -0.252846 5.99567 0
M  V30 403 H 38.5656 0.531609 4.81977 0
M  V30 404 N 39.9087 -1.5758 0.0250728 0
M  V30 405 C 40.8387 -2.13007 -0.956575 0
M  V30 406 C 41.8197 -1.0452 -1.342 0
M  V30 407 O 43.0047 -1.32332 -1.42133 0
M  V30 408 C 40.1347 -2.65386 -2.24026 0
M  V30 409 C 39.0887 -3.78623 -1.99571 0
M  V30 410 C 38.4147 -4.17414 -3.3417 0
M  V30 411 C 39.7147 -5.04867 -1.33814 0
M  V30 412 H 41.4087 -2.9528 -0.494991 0
M  V30 413 H 38.9547 -1.42042 -0.236651 0
M  V30 414 H 40.9077 -3.02794 -2.93076 0
M  V30 415 H 39.6317 -1.80268 -2.72343 0
M  V30 416 H 38.2907 -3.41646 -1.32941 0
M  V30 417 H 37.9387 -3.29284 -3.80238 0
M  V30 418 H 37.6387 -4.93719 -3.18615 0
M  V30 419 H 39.1627 -4.57402 -4.04495 0
M  V30 420 H 40.5767 -5.39888 -1.92857 0
M  V30 421 H 38.9737 -5.86144 -1.28669 0
M  V30 422 H 40.0437 -4.83904 -0.310561 0
M  V30 423 N 41.3868 0.248026 -1.55636 0
M  V30 424 C 42.3498 1.29044 -1.89421 0
M  V30 425 C 43.3498 1.41134 -0.770581 0
M  V30 426 O 44.5398 1.39854 -1.03858 0
M  V30 427 C 41.6718 2.66831 -2.12165 0
M  V30 428 H 42.8648 1.00305 -2.82629 0
M  V30 429 H 40.4178 0.487265 -1.48511 0
M  V30 430 H 41.1528 3.00711 -1.21422 0
M  V30 431 H 40.9378 2.59438 -2.93997 0
M  V30 432 H 42.4278 3.42103 -2.3949 0
M  V30 433 N 42.8649 1.48995 0.513639 0
M  V30 434 C 44.1419 1.48338 1.27495 0
M  V30 435 C 44.5219 0.204065 2.10111 0
M  V30 436 O 43.8699 -0.813881 2.13514 0
M  V30 437 C 44.0799 2.75498 2.14247 0
M  V30 438 C 45.4279 3.24484 2.73852 0
M  V30 439 O 46.4519 2.76528 2.24523 0
M  V30 440 O 45.3109 4.07974 3.6362 0
M  V30 441 H 42.4049 0.593149 0.576284 0
M  V30 442 H 44.9509 1.61246 0.528948 0
M  V30 443 H 43.7229 3.60109 1.53092 0
M  V30 444 H 43.3459 2.6539 2.96064 0
M  V30 445 N 44.343 -0.763751 1.37857 0
M  V30 446 C 45.571 -1.55293 1.36718 0
M  V30 447 C 45.986 -1.88745 -0.0455434 0
M  V30 448 O 45.343 -1.52039 -1.00947 0
M  V30 449 C 45.394 -2.85831 2.2132 0
M  V30 450 O 45.115 -2.5381 3.57089 0
M  V30 451 C 46.616 -3.80023 2.28249 0
M  V30 452 H 43.836 -0.480841 0.468009 0
M  V30 453 H 46.38 -0.946009 1.81303 0
M  V30 454 H 44.535 -3.42926 1.80223 0
M  V30 455 H 44.949 -3.37459 4.01524 0
M  V30 456 H 46.423 -4.68599 2.91752 0
M  V30 457 H 46.9 -4.1973 1.2932 0
M  V30 458 H 47.506 -3.28855 2.69693 0
M  V30 459 N 45.8211 -1.22559 -0.990812 0
M  V30 460 C 47.2371 -0.985996 -1.255 0
M  V30 461 C 47.4371 0.319173 -1.98956 0
M  V30 462 O 46.4931 1.04127 -2.3003 0
M  V30 463 C 47.8061 -2.18607 -2.06474 0
M  V30 464 C 49.3541 -2.22985 -2.19651 0
M  V30 465 C 49.8291 -3.4255 -3.04012 0
M  V30 466 N 51.3201 -3.42725 -3.11599 0
M  V30 467 C 52.0551 -4.31892 -3.7717 0
M  V30 468 N 51.5511 -5.31279 -4.44651 0
M  V30 469 N 53.3441 -4.19662 -3.73952 0
M  V30 470 H 45.4951 -2.06469 -0.49841 0
M  V30 471 H 47.7581 -0.904853 -0.282747 0
M  V30 472 H 47.4641 -3.13267 -1.59865 0
M  V30 473 H 47.3381 -2.18838 -3.07229 0
M  V30 474 H 49.7251 -1.28871 -2.65474 0
M  V30 475 H 49.8061 -2.26791 -1.18319 0
M  V30 476 H 49.4501 -4.36965 -2.58889 0
M  V30 477 H 49.3801 -3.35984 -4.0549 0
M  V30 478 H 51.8711 -2.70807 -2.63575 0
M  V30 479 H 52.1841 -5.95593 -4.92431 0
M  V30 480 H 50.5291 -5.3519 -4.43392 0
M  V30 481 H 53.7201 -3.41268 -3.20396 0
M  V30 482 H 53.8931 -4.89358 -4.24774 0
M  V30 483 N 47.2992 1.18797 -1.03562 0
M  V30 484 C 48.2312 2.21731 -0.580337 0
M  V30 485 C 49.2442 1.59051 0.347349 0
M  V30 486 O 50.4332 1.77929 0.142669 0
M  V30 487 C 47.5332 3.38459 0.172805 0
M  V30 488 C 46.7062 4.3072 -0.761496 0
M  V30 489 C 45.7652 5.26174 -0.0525547 0
M  V30 490 O 44.7912 5.65108 -0.681333 0
M  V30 491 N 45.9932 5.67624 1.21586 0
M  V30 492 H 48.7582 2.61417 -1.46565 0
M  V30 493 H 46.3192 1.33531 -0.915476 0
M  V30 494 H 48.3112 3.99335 0.656793 0
M  V30 495 H 46.8812 2.97507 0.959602 0
M  V30 496 H 46.1012 3.67525 -1.42544 0
M  V30 497 H 47.3892 4.89267 -1.39626 0
M  V30 498 H 46.7872 5.38038 1.74732 0
M  V30 499 H 45.3442 6.30721 1.64421 0
M  V30 500 N 48.7773 0.814389 1.34928 0
M  V30 501 C 49.7073 0.244827 2.32213 0
M  V30 502 C 50.6883 -0.634024 1.57842 0
M  V30 503 O 51.8733 -0.562676 1.8587 0
M  V30 504 C 49.0033 -0.601106 3.42058 0
M  V30 505 C 47.9573 0.179896 4.27622 0
M  V30 506 C 47.2833 -0.788237 5.28858 0
M  V30 507 C 48.5833 1.38329 5.03649 0
M  V30 508 H 50.2773 1.05763 2.80097 0
M  V30 509 H 47.8233 0.510029 1.34665 0
M  V30 510 H 49.7763 -1.00968 4.09125 0
M  V30 511 H 48.5003 -1.44688 2.92802 0
M  V30 512 H 47.1593 0.569739 3.62146 0
M  V30 513 H 46.8073 -1.62973 4.75866 0
M  V30 514 H 46.5073 -0.269942 5.8698 0
M  V30 515 H 48.0313 -1.19485 5.98795 0
M  V30 516 H 49.4453 1.04918 5.63618 0
M  V30 517 H 47.8423 1.83662 5.71304 0
M  V30 518 H 48.9123 2.16592 4.33839 0
M  V30 519 N 50.2554 -1.46986 0.568584 0
M  V30 520 C 51.2184 -2.28624 -0.162366 0
M  V30 521 C 52.2184 -1.37596 -0.832103 0
M  V30 522 O 53.4084 -1.60115 -0.68622 0
M  V30 523 C 50.5404 -3.17596 -1.23878 0
M  V30 524 H 51.7334 -2.94722 0.554899 0
M  V30 525 H 49.2864 -1.52863 0.325976 0
M  V30 526 H 50.0214 -2.56214 -1.98808 0
M  V30 527 H 49.8064 -3.846 -0.763219 0
M  V30 528 H 51.2964 -3.79078 -1.75185 0
M  V30 529 N 51.7335 -0.305618 -1.54608 0
M  V30 530 C 52.6965 0.555591 -2.22364 0
M  V30 531 C 53.6965 1.05768 -1.21119 0
M  V30 532 O 54.8865 0.952972 -1.45822 0
M  V30 533 C 52.0185 1.76974 -2.91364 0
M  V30 534 H 53.2115 -0.0364572 -2.99878 0
M  V30 535 H 50.7645 -0.0565007 -1.56198 0
M  V30 536 H 51.4995 2.40151 -2.17941 0
M  V30 537 H 51.2845 1.41732 -3.65588 0
M  V30 538 H 52.7745 2.38148 -3.43038 0
M  V30 539 N 53.2116 1.57565 -0.0334293 0
M  V30 540 C 54.1436 2.0739 0.975811 0
M  V30 541 C 55.1566 0.998166 1.2861 0
M  V30 542 O 56.3456 1.27426 1.25 0
M  V30 543 C 53.4456 2.4871 2.30209 0
M  V30 544 C 52.6186 3.79413 2.17634 0
M  V30 545 C 51.6776 4.07237 3.33233 0
M  V30 546 O 50.7036 4.77425 3.09927 0
M  V30 547 N 51.9056 3.5775 4.5716 0
M  V30 548 H 54.6706 2.94598 0.55066 0
M  V30 549 H 52.2316 1.61173 0.15323 0
M  V30 550 H 54.2236 2.64413 3.06378 0
M  V30 551 H 52.7936 1.66845 2.64351 0
M  V30 552 H 52.0136 3.73465 1.26165 0
M  V30 553 H 53.3016 4.65038 2.0644 0
M  V30 554 H 52.6996 3.00976 4.78989 0
M  V30 555 H 51.2566 3.78724 5.30482 0
M  V30 556 N 54.6897 -0.239769 1.55765 0
M  V30 557 C 55.6197 -1.30052 1.9393 0
M  V30 558 C 56.6007 -1.49839 0.805132 0
M  V30 559 O 57.7857 -1.62328 1.06599 0
M  V30 560 C 54.9157 -2.65391 2.2402 0
M  V30 561 C 53.8697 -2.60289 3.39755 0
M  V30 562 C 53.1957 -3.99489 3.55405 0
M  V30 563 C 54.4957 -2.16654 4.75246 0
M  V30 564 H 56.1897 -0.983573 2.82783 0
M  V30 565 H 53.7357 -0.471701 1.36055 0
M  V30 566 H 55.6887 -3.3974 2.49308 0
M  V30 567 H 54.4127 -2.98736 1.32 0
M  V30 568 H 53.0717 -1.88398 3.14487 0
M  V30 569 H 52.7197 -4.30112 2.60793 0
M  V30 570 H 52.4197 -3.96962 4.33238 0
M  V30 571 H 53.9437 -4.75528 3.83022 0
M  V30 572 H 55.3577 -2.80737 4.99859 0
M  V30 573 H 53.7547 -2.25223 5.56232 0
M  V30 574 H 54.8247 -1.11835 4.71827 0
M  V30 575 N 56.1678 -1.49265 -0.50573 0
M  V30 576 C 57.5838 -1.35923 -0.836486 0
M  V30 577 C 57.7838 -0.388704 -1.97715 0
M  V30 578 O 56.8398 0.181336 -2.51848 0
M  V30 579 C 58.1528 -2.76531 -1.18115 0
M  V30 580 C 59.7008 -2.85197 -1.28964 0
M  V30 581 C 60.1758 -4.26561 -1.66761 0
M  V30 582 N 61.6668 -4.2935 -1.73819 0
M  V30 583 C 62.4018 -5.35693 -2.045 0
M  V30 584 N 61.8978 -6.52287 -2.33438 0
M  V30 585 N 63.6908 -5.23105 -2.05711 0
M  V30 586 H 55.8418 -2.10965 0.246519 0
M  V30 587 H 58.1048 -0.9468 0.0476887 0
M  V30 588 H 57.8108 -3.49226 -0.416398 0
M  V30 589 H 57.6848 -3.11599 -2.1257 0
M  V30 590 H 60.0718 -2.12742 -2.04511 0
M  V30 591 H 60.1528 -2.53718 -0.325704 0
M  V30 592 H 59.7968 -4.99541 -0.917656 0
M  V30 593 H 59.7268 -4.55502 -2.64246 0
M  V30 594 H 62.2178 -3.4526 -1.53635 0
M  V30 595 H 62.5308 -7.29158 -2.56024 0
M  V30 596 H 60.8758 -6.55521 -2.30905 0
M  V30 597 H 64.0668 -4.31026 -1.82577 0
M  V30 598 H 64.2398 -6.06078 -2.29289 0
M  V30 599 N 57.6459 0.756429 -1.3826 0
M  V30 600 C 58.9229 1.50584 -1.24835 0
M  V30 601 C 59.3029 2.10556 0.151485 0
M  V30 602 O 58.6509 1.96825 1.1607 0
M  V30 603 C 58.8609 2.57448 -2.3563 0
M  V30 604 C 60.2089 3.24429 -2.73917 0
M  V30 605 O 61.2329 2.67751 -2.34921 0
M  V30 606 O 60.0919 4.26937 -3.41156 0
M  V30 607 H 57.1859 0.667664 -0.48801 0
M  V30 608 H 59.7319 0.792083 -1.5008 0
M  V30 609 H 58.5039 2.11362 -3.29305 0
M  V30 610 H 58.1269 3.36408 -2.11933 0
M  V30 611 N 59.124 1.23083 0.984299 0
M  V30 612 C 60.071 1.00854 2.07598 0
M  V30 613 C 61.041 -0.0726709 1.65941 0
M  V30 614 O 62.226 0.0786535 1.90638 0
M  V30 615 C 59.366 0.601645 3.39815 0
M  V30 616 C 58.479 1.75456 3.94765 0
M  V30 617 C 57.614 1.29482 5.15177 0
M  V30 618 C 56.653 2.41873 5.62284 0
M  V30 619 N 55.79 1.96885 6.73929 0
M  V30 620 H 60.63 1.943 2.25946 0
M  V30 621 H 58.167 0.968001 1.10762 0
M  V30 622 H 60.125 0.346854 4.15756 0
M  V30 623 H 58.755 -0.295803 3.21442 0
M  V30 624 H 57.807 2.12346 3.15616 0
M  V30 625 H 59.119 2.59965 4.25699 0
M  V30 626 H 58.273 0.997923 5.98437 0
M  V30 627 H 57.012 0.420046 4.85888 0
M  V30 628 H 56.017 2.72342 4.77608 0
M  V30 629 H 57.242 3.29881 5.93595 0
M  V30 630 H 55.188 1.11782 6.46406 0
M  V30 631 H 55.105 2.74956 7.04227 0
M  V30 632 H 56.373 1.70289 7.60672 0
M  V30 633 N 60.6021 -1.18246 1.0419 0
M  V30 634 C 61.8491 -1.88257 0.746017 0
M  V30 635 C 62.1771 -1.80429 -0.726331 0
M  V30 636 O 61.4321 -1.2 -1.54591 0
M  V30 637 C 61.7311 -3.38082 1.15911 0
M  V30 638 C 61.3971 -3.66114 2.63195 0
M  V30 639 C 60.0591 -3.73474 3.03432 0
M  V30 640 C 62.4111 -3.78398 3.5842 0
M  V30 641 C 59.7391 -3.90599 4.37778 0
M  V30 642 C 62.0911 -3.97039 4.92487 0
M  V30 643 C 60.7551 -4.02635 5.32392 0
M  V30 644 H 60.0251 -0.688883 0.272987 0
M  V30 645 H 62.6721 -1.3995 1.30715 0
M  V30 646 H 60.9771 -3.88377 0.516806 0
M  V30 647 H 62.6741 -3.90596 0.907516 0
M  V30 648 H 59.2641 -3.61003 2.3103 0
M  V30 649 H 63.4481 -3.72042 3.28479 0
M  V30 650 H 58.7041 -3.93175 4.68213 0
M  V30 651 H 62.8781 -4.05486 5.66175 0
M  V30 652 H 60.5051 -4.15657 6.36501 0
M  V30 653 N 62.0802 -0.821533 -1.34494 0
M  V30 654 C 63.4912 -0.467956 -1.8074 0
M  V30 655 C 63.8422 1.01151 -1.68116 0
M  V30 656 O 62.9672 1.78707 -1.22036 0
M  V30 657 C 63.5622 -0.842627 -3.28154 0
M  V30 658 C 62.1212 -0.541439 -3.72485 0
M  V30 659 C 61.2682 -1.06028 -2.56229 0
M  V30 660 H 64.2192 -1.01183 -1.22261 0
M  V30 661 H 64.2402 -0.145876 -3.8022 0
M  V30 662 H 63.7522 -1.91945 -3.37311 0
M  V30 663 H 61.8532 0.526034 -3.68868 0
M  V30 664 H 61.9662 -1.08453 -4.66663 0
M  V30 665 H 60.3302 -0.481892 -2.501 0
M  V30 666 H 61.1132 -2.14352 -2.68157 0
M  V30 667 N 63.5583 1.46682 -0.576371 0
M  V30 668 C 64.5213 2.28707 0.150239 0
M  V30 669 C 65.5213 1.38035 0.824794 0
M  V30 670 O 66.7113 1.60476 0.677719 0
M  V30 671 C 63.8433 3.18248 1.22192 0
M  V30 672 H 65.0363 2.94423 -0.570521 0
M  V30 673 H 62.5893 1.52688 -0.334078 0
M  V30 674 H 63.3243 2.57265 1.97447 0
M  V30 675 H 63.1093 3.85 0.742812 0
M  V30 676 H 64.5993 3.80001 1.73172 0
M  V30 677 N 65.0364 0.313813 1.54444 0
M  V30 678 C 66.3134 -0.345447 1.92525 0
M  V30 679 C 66.6934 -1.70667 1.24242 0
M  V30 680 O 66.0414 -2.25273 0.382654 0
M  V30 681 C 66.2514 -0.44737 3.46121 0
M  V30 682 C 67.5994 -0.712238 4.18584 0
M  V30 683 O 68.6234 -0.530678 3.52225 0
M  V30 684 O 67.4824 -1.06183 5.36085 0
M  V30 685 H 64.5764 -0.195407 0.803583 0
M  V30 686 H 67.1224 0.362813 1.65776 0
M  V30 687 H 65.8944 0.509043 3.87975 0
M  V30 688 H 65.5174 -1.20359 3.78945 0
M  V30 689 N 66.5145 -1.57545 0.0417849 0
M  V30 690 C 67.7625 -1.91937 -0.632829 0
M  V30 691 C 68.0835 -0.919978 -1.71934 0
M  V30 692 O 67.3535 0.0366064 -1.95866 0
M  V30 693 H 65.9335 -0.708493 -0.236742 0
M  V30 694 H 68.5955 -1.9468 0.0925745 0
M  V30 695 H 67.6915 -2.92912 -1.07746 0
M  V30 696 N 67.9926 0.231505 -1.5589 0
M  V30 697 C 69.2696 0.981096 -1.69215 0
M  V30 698 C 69.6496 2.02799 -0.586164 0
M  V30 699 O 68.9976 2.24823 0.408253 0
M  V30 700 C 69.2076 1.60054 -3.10135 0
M  V30 701 C 70.5556 2.09658 -3.69227 0
M  V30 702 O 71.5796 1.69967 -3.13033 0
M  V30 703 O 70.4386 2.8258 -4.67772 0
M  V30 704 H 67.5326 0.457653 -0.688827 0
M  V30 705 H 70.0786 0.224073 -1.68214 0
M  V30 706 H 68.8506 0.844105 -3.82087 0
M  V30 707 H 68.4736 2.42336 -3.15212 0
M  V30 708 N 69.4707 1.49531 0.497807 0
M  V30 709 C 70.4207 1.62829 1.59596 0
M  V30 710 C 71.4047 0.483824 1.53453 0
M  V30 711 O 72.5967 0.736937 1.60929 0
M  V30 712 C 69.7257 1.7011 2.98191 0
M  V30 713 C 68.8117 2.90144 3.09317 0
M  V30 714 N 69.2027 4.1418 2.90324 0
M  V30 715 C 67.5007 2.88148 3.40422 0
M  V30 716 C 68.2017 4.94886 3.05717 0
M  V30 717 N 67.1777 4.28314 3.34736 0
M  V30 718 H 70.9797 2.56446 1.4357 0
M  V30 719 H 68.4937 1.46347 0.704001 0
M  V30 720 H 70.4907 1.77735 3.77115 0
M  V30 721 H 69.1507 0.776315 3.15283 0
M  V30 722 H 70.1617 4.44109 2.66436 0
M  V30 723 H 66.8387 2.05061 3.63671 0
M  V30 724 H 68.2287 6.03432 2.95499 0
M  V30 725 N 70.9488 -0.749086 1.3866 0
M  V30 726 C 71.8968 -1.88428 1.36373 0
M  V30 727 C 72.8908 -1.67561 0.248929 0
M  V30 728 O 74.0968 -1.75074 0.41821 0
M  V30 729 H 70.4718 -0.620023 0.42553 0
M  V30 730 H 72.4428 -1.87473 2.32156 0
M  V30 731 C 71.1918 -3.25961 1.21014 0
M  V30 732 H 70.5148 -3.42607 2.06059 0
M  V30 733 H 71.9548 -4.05625 1.23469 0
M  V30 734 C 70.4138 -3.36799 -0.0825941 0
M  V30 735 O 70.9438 -3.87517 -1.05797 0
M  V30 736 N 69.1498 -2.90258 -0.140939 0
M  V30 737 H 68.6968 -2.49174 0.653477 0
M  V30 738 H 68.6548 -2.97889 -1.00545 0
M  V30 739 N 72.4269 -1.23603 -0.977757 0
M  V30 740 C 73.3569 -1.04401 -2.0886 0
M  V30 741 C 74.3379 0.0399052 -1.70053 0
M  V30 742 O 75.5229 -0.125246 -1.93796 0
M  V30 743 C 72.6529 -0.637269 -3.41403 0
M  V30 744 C 71.6069 -1.66883 -3.94124 0
M  V30 745 C 70.9329 -1.11745 -5.22893 0
M  V30 746 C 72.2329 -3.06247 -4.23096 0
M  V30 747 H 73.9269 -1.97316 -2.25182 0
M  V30 748 H 71.4729 -0.950096 -1.08209 0
M  V30 749 H 73.4259 -0.48998 -4.18542 0
M  V30 750 H 72.1499 0.327557 -3.24953 0
M  V30 751 H 70.8089 -1.80416 -3.19133 0
M  V30 752 H 70.4569 -0.143527 -5.02795 0
M  V30 753 H 70.1569 -1.80672 -5.59134 0
M  V30 754 H 71.6809 -0.982067 -6.02651 0
M  V30 755 H 73.0949 -2.96001 -4.90975 0
M  V30 756 H 71.4919 -3.72436 -4.70544 0
M  V30 757 H 72.5619 -3.55041 -3.30263 0
M  V30 758 N 73.905 1.17692 -1.04816 0
M  V30 759 C 75.182 1.83768 -0.669963 0
M  V30 760 C 75.562 1.93232 0.849986 0
M  V30 761 O 74.91 1.46397 1.75443 0
M  V30 762 C 75.12 3.21641 -1.35455 0
M  V30 763 C 76.468 3.97592 -1.49017 0
M  V30 764 O 77.492 3.31107 -1.31326 0
M  V30 765 O 76.351 5.16729 -1.77914 0
M  V30 766 H 73.445 0.792799 -0.235368 0
M  V30 767 H 75.991 1.25021 -1.14751 0
M  V30 768 H 74.763 3.097 -2.39168 0
M  V30 769 H 74.386 3.88052 -0.866107 0
M  V30 770 N 75.3831 0.828654 1.34056 0
M  V30 771 C 76.6081 0.431637 2.02859 0
M  V30 772 C 77.0331 -0.956339 1.61975 0
M  V30 773 O 76.3911 -1.62338 0.807228 0
M  V30 774 C 76.4391 0.548323 3.56407 0
M  V30 775 O 75.5431 -0.429556 4.10157 0
M  V30 776 H 74.8841 0.176886 0.640006 0
M  V30 777 H 77.4141 1.12066 1.71179 0
M  V30 778 H 77.4241 0.426196 4.05768 0
M  V30 779 H 76.0991 1.5606 3.8551 0
M  V30 780 H 74.6761 -0.265836 3.71951 0
M  V30 781 N 76.8612 -1.46375 0.584142 0
M  V30 782 C 77.7912 -2.33103 -0.136037 0
M  V30 783 C 78.7722 -1.45431 -0.882255 0
M  V30 784 O 79.9572 -1.74246 -0.857434 0
M  V30 785 C 77.0872 -3.27731 -1.14933 0
M  V30 786 C 76.0412 -4.24855 -0.517862 0
M  V30 787 C 75.3672 -5.09001 -1.63773 0
M  V30 788 C 76.6672 -5.19439 0.545886 0
M  V30 789 H 78.3612 -2.93568 0.588086 0
M  V30 790 H 75.9072 -1.41166 0.284259 0
M  V30 791 H 77.8602 -3.87261 -1.66153 0
M  V30 792 H 76.5842 -2.65377 -1.90375 0
M  V30 793 H 75.2432 -3.6659 -0.0267361 0
M  V30 794 H 74.8912 -4.43031 -2.38185 0
M  V30 795 H 74.5912 -5.74777 -1.22085 0
M  V30 796 H 76.1152 -5.71396 -2.15266 0
M  V30 797 H 77.5292 -5.73177 0.118704 0
M  V30 798 H 75.9262 -5.93566 0.88317 0
M  V30 799 H 76.9962 -4.63285 1.43162 0
M  V30 800 N 78.3393 -0.321999 -1.54275 0
M  V30 801 C 79.7503 0.166384 -1.85957 0
M  V30 802 C 80.1013 1.51747 -1.24367 0
M  V30 803 O 79.2263 2.09317 -0.549124 0
M  V30 804 C 79.8213 0.308681 -3.37391 0
M  V30 805 C 78.3803 0.741286 -3.69028 0
M  V30 806 C 77.5273 -0.137937 -2.76957 0
M  V30 807 H 80.4783 -0.542335 -1.49146 0
M  V30 808 H 80.4993 1.13984 -3.63026 0
M  V30 809 H 80.0113 -0.674809 -3.82188 0
M  V30 810 H 78.1123 1.73458 -3.29762 0
M  V30 811 H 78.2253 0.546118 -4.75977 0
M  V30 812 H 76.5893 0.386251 -2.51754 0
M  V30 813 H 77.3723 -1.11816 -3.2458 0
M  V30 814 N 79.8174 1.5752 -0.0501392 0
M  V30 815 C 81.0454 1.96963 0.633492 0
M  V30 816 C 81.4604 0.927631 1.6444 0
M  V30 817 O 80.8174 -0.0882665 1.82286 0
M  V30 818 C 80.8684 3.36487 1.32132 0
M  V30 819 O 80.5894 4.36693 0.350894 0
M  V30 820 C 82.0904 3.90682 2.09481 0
M  V30 821 H 79.3104 0.648244 0.173266 0
M  V30 822 H 81.8544 2.0417 -0.116134 0
M  V30 823 H 80.0094 3.30434 2.02218 0
M  V30 824 H 80.4234 5.17702 0.841735 0
M  V30 825 H 81.8974 4.90591 2.5303 0
M  V30 826 H 82.3744 3.26053 2.94255 0
M  V30 827 H 82.9804 4.00069 1.44307 0
M  V30 828 N 81.2955 -0.223234 1.56011 0
M  V30 829 C 82.2255 -1.27988 1.95298 0
M  V30 830 C 83.2065 -1.48976 0.820979 0
M  V30 831 O 84.3915 -1.61188 1.08315 0
M  V30 832 C 81.5215 -2.63 2.26822 0
M  V30 833 C 80.4755 -2.56671 3.42497 0
M  V30 834 C 79.8015 -3.95697 3.59622 0
M  V30 835 C 81.1015 -2.11601 4.77517 0
M  V30 836 H 82.7955 -0.953525 2.8381 0
M  V30 837 H 80.3415 -0.457244 1.36548 0
M  V30 838 H 82.2945 -3.37077 2.52898 0
M  V30 839 H 81.0185 -2.9732 1.35161 0
M  V30 840 H 79.6775 -1.85051 3.16467 0
M  V30 841 H 79.3255 -4.27322 2.6534 0
M  V30 842 H 79.0255 -3.92345 4.37424 0
M  V30 843 H 80.5495 -4.71438 3.88044 0
M  V30 844 H 81.9635 -2.7542 5.02809 0
M  V30 845 H 80.3605 -2.19311 5.5859 0
M  V30 846 H 81.4305 -1.06824 4.72987 0
M  V30 847 N 82.7736 -1.49793 -0.48987 0
M  V30 848 C 83.7366 -1.66752 -1.57246 0
M  V30 849 C 84.7366 -0.538867 -1.51502 0
M  V30 850 O 85.9266 -0.805545 -1.54456 0
M  V30 851 C 83.0586 -1.67528 -2.96896 0
M  V30 852 H 84.2516 -2.63321 -1.43534 0
M  V30 853 H 81.8046 -1.38992 -0.714914 0
M  V30 854 H 82.5396 -0.725837 -3.16073 0
M  V30 855 H 82.3246 -2.49504 -3.02473 0
M  V30 856 H 83.8146 -1.82667 -3.7553 0
M  V30 857 N 84.2517 0.741722 -1.39055 0
M  V30 858 C 85.1847 1.86416 -1.31622 0
M  V30 859 C 86.1627 1.61473 -0.191076 0
M  V30 860 O 87.3467 1.84825 -0.370399 0
M  V30 861 C 84.4737 3.22266 -1.04221 0
M  V30 862 C 83.5197 3.66079 -2.18834 0
M  V30 863 S 84.3527 3.7623 -3.81066 0
M  V30 864 C 85.5087 5.14881 -3.55877 0
M  V30 865 H 85.7417 1.92437 -2.26617 0
M  V30 866 H 83.2747 0.905907 -1.25031 0
M  V30 867 H 85.2327 4.00714 -0.890964 0
M  V30 868 H 83.8937 3.1391 -0.109237 0
M  V30 869 H 83.0867 4.64648 -1.95238 0
M  V30 870 H 82.6887 2.94817 -2.30128 0
M  V30 871 H 84.9807 6.01006 -3.12726 0
M  V30 872 H 85.9237 5.43503 -4.53884 0
M  V30 873 H 86.3317 4.84239 -2.90126 0
M  V30 874 N 85.7298 1.2412 0.971189 0
M  V30 875 C 86.9548 1.10667 1.75407 0
M  V30 876 C 87.3798 -0.337048 1.85056 0
M  V30 877 O 86.7378 -1.24396 1.31892 0
M  V30 878 C 86.7858 1.74726 3.15441 0
M  V30 879 O 85.8898 1.01566 3.99697 0
M  V30 880 H 85.2308 0.387341 0.539317 0
M  V30 881 H 87.7608 1.64358 1.2185 0
M  V30 882 H 87.7708 1.80341 3.6598 0
M  V30 883 H 86.4458 2.79773 3.07734 0
M  V30 884 H 85.0228 1.03713 3.58187 0
M  V30 885 N 87.2079 -1.17134 1.05439 0
M  V30 886 C 88.1709 -2.19439 0.661764 0
M  V30 887 C 89.1709 -1.58199 -0.288042 0
M  V30 888 O 90.3609 -1.74053 -0.0715803 0
M  V30 889 C 87.4929 -3.40889 -0.0276209 0
M  V30 890 H 88.6859 -2.55688 1.56728 0
M  V30 891 H 86.2389 -1.31259 0.848567 0
M  V30 892 H 86.9739 -3.10187 -0.94629 0
M  V30 893 H 86.7589 -3.86586 0.655238 0
M  V30 894 H 88.2489 -4.16603 -0.288342 0
M  V30 895 N 88.686 -0.835752 -1.33615 0
M  V30 896 C 89.934 -0.429109 -1.97492 0
M  V30 897 C 90.255 1.01433 -1.66543 0
M  V30 898 O 89.525 1.70611 -0.962744 0
M  V30 899 H 88.105 -0.155686 -0.730596 0
M  V30 900 H 90.767 -1.06802 -1.63031 0
M  V30 901 H 89.863 -0.55861 -3.0706 0
M  V30 902 N 90.1641 1.46063 -0.591896 0
M  V30 903 C 91.1271 2.28854 0.125973 0
M  V30 904 C 92.1271 1.38903 0.810107 0
M  V30 905 O 93.3171 1.61186 0.66066 0
M  V30 906 C 90.4491 3.19526 1.1881 0
M  V30 907 H 91.6421 2.93802 -0.601717 0
M  V30 908 H 89.1951 1.52325 -0.350254 0
M  V30 909 H 89.9301 2.59345 1.94707 0
M  V30 910 H 89.7151 3.85766 0.701936 0
M  V30 911 H 91.2051 3.81817 1.69132 0
M  V30 912 N 91.6422 0.330177 1.54103 0
M  V30 913 C 92.5722 -0.525353 2.27513 0
M  V30 914 C 93.5532 -1.11383 1.2856 0
M  V30 915 O 94.7382 -1.13773 1.57383 0
M  V30 916 C 91.8682 -1.6831 3.03791 0
M  V30 917 C 90.8222 -1.2236 4.10137 0
M  V30 918 C 90.1482 -2.46882 4.74293 0
M  V30 919 C 91.4482 -0.333697 5.21233 0
M  V30 920 H 93.1422 0.087013 2.99274 0
M  V30 921 H 90.6882 0.0432893 1.43935 0
M  V30 922 H 92.6412 -2.28795 3.5388 0
M  V30 923 H 91.3652 -2.32216 2.29659 0
M  V30 924 H 90.0242 -0.64165 3.60941 0
M  V30 925 H 89.6722 -3.09165 3.96769 0
M  V30 926 H 89.3722 -2.16825 5.46133 0
M  V30 927 H 90.8962 -3.08117 5.27159 0
M  V30 928 H 92.3102 -0.845013 5.67038 0
M  V30 929 H 90.7072 -0.125612 5.99969 0
M  V30 930 H 91.7772 0.633724 4.80741 0
M  V30 931 N 93.1203 -1.57491 0.0584922 0
M  V30 932 C 94.3683 -1.92597 -0.612436 0
M  V30 933 C 94.6893 -0.938162 -1.70949 0
M  V30 934 O 93.9593 0.0158301 -1.95894 0
M  V30 935 H 92.5393 -0.710964 -0.229214 0
M  V30 936 H 95.2013 -1.94571 0.113218 0
M  V30 937 H 94.2973 -2.94038 -1.04633 0
M  V30 938 N 94.5984 0.214957 -1.56127 0
M  V30 939 C 95.5614 1.24997 -1.92116 0
M  V30 940 C 96.5614 1.39467 -0.800344 0
M  V30 941 O 97.7514 1.37619 -1.06802 0
M  V30 942 C 94.8834 2.62271 -2.17777 0
M  V30 943 H 96.0764 0.942875 -2.84693 0
M  V30 944 H 93.6294 0.455654 -1.49511 0
M  V30 945 H 94.3644 2.98068 -1.27773 0
M  V30 946 H 94.1494 2.53143 -2.99434 0
M  V30 947 H 95.6394 3.36946 -2.46693 0
M  V30 948 N 96.0765 1.50051 0.48192 0
M  V30 949 C 97.0065 1.71046 1.58951 0
M  V30 950 C 97.9875 0.559288 1.60642 0
M  V30 951 O 99.1725 0.797243 1.77081 0
M  V30 952 C 96.3025 1.79462 2.97339 0
M  V30 953 C 95.2565 2.94558 3.10515 0
M  V30 954 C 94.5825 2.88105 4.50444 0
M  V30 955 C 95.8825 4.35227 2.88747 0
M  V30 956 H 97.5765 2.6378 1.41635 0
M  V30 957 H 95.1225 1.26936 0.679942 0
M  V30 958 H 97.0755 1.92734 3.74742 0
M  V30 959 H 95.7995 0.833412 3.15788 0
M  V30 960 H 94.4585 2.80918 2.35543 0
M  V30 961 H 94.1065 1.89853 4.65795 0
M  V30 962 H 93.8065 3.65366 4.60197 0
M  V30 963 H 95.3305 3.03412 5.29881 0
M  V30 964 H 96.7445 4.49449 3.55905 0
M  V30 965 H 95.1415 5.13856 3.09955 0
M  V30 966 H 96.2115 4.48347 1.84696 0
M  V30 967 N 97.5546 -0.734337 1.39446 0
M  V30 968 C 98.4866 -1.85861 1.34121 0
M  V30 969 C 99.4996 -1.60871 0.249864 0
M  V30 970 O 100.689 -1.71093 0.508865 0
M  V30 971 C 97.7886 -3.21899 1.05991 0
M  V30 972 C 96.9616 -3.74239 2.26415 0
M  V30 973 C 96.0206 -4.88841 1.94733 0
M  V30 974 O 95.0466 -5.02468 2.67422 0
M  V30 975 N 96.2486 -5.73261 0.913884 0
M  V30 976 H 99.0136 -1.90934 2.31007 0
M  V30 977 H 96.5746 -0.915102 1.33557 0
M  V30 978 H 98.5666 -3.96136 0.828147 0
M  V30 979 H 97.1366 -3.12091 0.178361 0
M  V30 980 H 96.3566 -2.91347 2.65539 0
M  V30 981 H 97.6446 -4.05942 3.06738 0
M  V30 982 H 97.0426 -5.64842 0.311476 0
M  V30 983 H 95.5996 -6.47563 0.742015 0
M  V30 984 N 99.0327 -1.24633 -0.964593 0
M  V30 985 C 99.9627 -1.06611 -2.07741 0
M  V30 986 C 100.944 0.0218666 -1.70086 0
M  V30 987 O 102.129 -0.145793 -1.93652 0
M  V30 988 C 99.2587 -0.673444 -3.40708 0
M  V30 989 C 98.2127 -1.71054 -3.92332 0
M  V30 990 C 97.5387 -1.17285 -5.21678 0
M  V30 991 C 98.8387 -3.10718 -4.19824 0
M  V30 992 H 100.533 -1.99693 -2.23076 0
M  V30 993 H 98.0787 -0.96152 -1.07195 0
M  V30 994 H 100.032 -0.534345 -4.17998 0
M  V30 995 H 98.7557 0.293073 -3.25282 0
M  V30 996 H 97.4147 -1.83791 -3.17201 0
M  V30 997 H 97.0627 -0.196847 -5.02615 0
M  V30 998 H 96.7627 -1.86592 -5.57187 0
M  V30 999 H 98.2867 -1.04593 -6.01575 0
M  V30 1000 H 99.7007 -3.01192 -4.87808 0
M  V30 1001 H 98.0977 -3.77406 -4.66567 0
M  V30 1002 H 99.1677 -3.58524 -3.26479 0
M  V30 1003 N 100.511 1.16574 -1.06058 0
M  V30 1004 C 101.922 1.68662 -0.800632 0
M  V30 1005 C 102.273 1.84184 0.67608 0
M  V30 1006 O 101.398 1.53568 1.52466 0
M  V30 1007 C 101.993 3.06356 -1.44676 0
M  V30 1008 C 100.552 3.55575 -1.23465 0
M  V30 1009 C 99.6988 2.31616 -1.52477 0
M  V30 1010 H 102.65 1.00969 -1.22438 0
M  V30 1011 H 102.671 3.70636 -0.860788 0
M  V30 1012 H 102.183 2.95027 -2.52152 0
M  V30 1013 H 100.284 3.72167 -0.179527 0
M  V30 1014 H 100.397 4.37812 -1.94571 0
M  V30 1015 H 98.7608 2.36512 -0.945209 0
M  V30 1016 H 99.5438 2.22887 -2.61106 0
M  V30 1017 N 101.989 0.842826 1.3317 0
M  V30 1018 C 103.237 0.439577 1.97262 0
M  V30 1019 C 103.558 -1.00548 1.67078 0
M  V30 1020 O 102.828 -1.70098 0.971779 0
M  V30 1021 H 101.408 0.159558 0.72976 0
M  V30 1022 H 104.07 1.07665 1.62463 0
M  V30 1023 H 103.166 0.574886 3.0676 0
M  V30 1024 N 103.467 -1.45747 0.599634 0
M  V30 1025 C 104.713 -2.02592 0.0918643 0
M  V30 1026 C 105.046 -1.46806 -1.27128 0
M  V30 1027 O 104.321 -0.639658 -1.83681 0
M  V30 1028 C 104.604 -3.60073 0.0443398 0
M  V30 1029 C 104.457 -4.26208 1.43759 0
M  V30 1030 C 105.776 -4.35309 -0.647608 0
M  V30 1031 H 102.895 -0.736175 0.034857 0
M  V30 1032 H 105.537 -1.73694 0.770081 0
M  V30 1033 H 103.687 -3.84823 -0.533224 0
M  V30 1034 H 105.359 -4.12668 2.06162 0
M  V30 1035 H 103.602 -3.84916 2.00056 0
M  V30 1036 H 104.273 -5.35069 1.35665 0
M  V30 1037 H 106.749 -4.15805 -0.156776 0
M  V30 1038 H 105.625 -5.45038 -0.649942 0
M  V30 1039 H 105.886 -4.07598 -1.71219 0
M  V30 1040 N 104.945 -0.338344 -1.53925 0
M  V30 1041 C 105.875 0.51328 -2.27789 0
M  V30 1042 C 106.856 1.107 -1.29149 0
M  V30 1043 O 108.041 1.12937 -1.57984 0
M  V30 1044 C 105.171 1.66697 -3.04679 0
M  V30 1045 C 104.125 1.20183 -4.1078 0
M  V30 1046 C 103.451 2.44363 -4.75595 0
M  V30 1047 C 104.751 0.30605 -5.21403 0
M  V30 1048 H 106.445 -0.102883 -2.99223 0
M  V30 1049 H 103.991 -0.0509219 -1.4391 0
M  V30 1050 H 105.944 2.26915 -3.55088 0
M  V30 1051 H 104.668 2.30995 -2.30887 0
M  V30 1052 H 103.327 0.622499 -3.61276 0
M  V30 1053 H 102.975 3.07057 -3.98403 0
M  V30 1054 H 102.675 2.13925 -5.47275 0
M  V30 1055 H 104.199 3.05317 -5.28786 0
M  V30 1056 H 105.613 0.814929 -5.67478 0
M  V30 1057 H 104.01 0.0937929 -6.00027 0
M  V30 1058 H 105.08 -0.65921 -4.80398 0
M  V30 1059 N 106.423 1.57458 -0.0668435 0
M  V30 1060 C 107.651 1.97624 0.612565 0
M  V30 1061 C 108.066 0.94502 1.63447 0
M  V30 1062 O 107.423 -0.0689276 1.8237 0
M  V30 1063 C 107.474 3.37869 1.28555 0
M  V30 1064 O 107.195 4.3704 0.304557 0
M  V30 1065 C 108.696 3.92882 2.05325 0
M  V30 1066 H 105.916 0.650045 0.166381 0
M  V30 1067 H 108.46 2.04035 -0.137782 0
M  V30 1068 H 106.615 3.3256 1.98702 0
M  V30 1069 H 107.029 5.18565 0.786779 0
M  V30 1070 H 108.503 4.93247 2.47812 0
M  V30 1071 H 108.98 3.29156 2.9078 0
M  V30 1072 H 109.586 4.01577 1.40056 0
M  V30 1073 N 107.901 -0.206675 1.56239 0
M  V30 1074 C 109.317 -0.557025 1.49564 0
M  V30 1075 C 109.517 -1.86424 0.764735 0
M  V30 1076 O 108.573 -2.50584 0.310491 0
M  V30 1077 C 109.886 -0.622478 2.94186 0
M  V30 1078 C 111.434 -0.712099 3.04792 0
M  V30 1079 C 111.909 -0.808767 4.50803 0
M  V30 1080 N 113.4 -0.8726 4.54907 0
M  V30 1081 C 114.135 -0.967365 5.65181 0
M  V30 1082 N 113.631 -1.02515 6.85173 0
M  V30 1083 N 115.424 -1.00366 5.53067 0
M  V30 1084 H 107.575 0.650943 2.02179 0
M  V30 1085 H 109.838 0.230387 0.919579 0
M  V30 1086 H 109.544 0.268727 3.50672 0
M  V30 1087 H 109.418 -1.4811 3.46905 0
M  V30 1088 H 111.805 -1.59374 2.48363 0
M  V30 1089 H 111.886 0.172489 2.55218 0
M  V30 1090 H 111.53 0.0684754 5.07854 0
M  V30 1091 H 111.46 -1.70899 4.98098 0
M  V30 1092 H 113.951 -0.837657 3.68499 0
M  V30 1093 H 114.264 -1.09765 7.64965 0
M  V30 1094 H 112.609 -0.994026 6.87855 0
M  V30 1095 H 115.8 -0.95527 4.58249 0
M  V30 1096 H 115.973 -1.07405 6.39037 0
M  V30 1097 N 109.379 -1.50304 -0.473955 0
M  V30 1098 C 110.309 -1.71886 -1.58042 0
M  V30 1099 C 111.29 -0.567799 -1.60344 0
M  V30 1100 O 112.475 -0.806623 -1.76656 0
M  V30 1101 C 109.605 -1.81036 -2.96384 0
M  V30 1102 C 108.559 -2.962 -3.08949 0
M  V30 1103 C 107.885 -2.9049 -4.48909 0
M  V30 1104 C 109.185 -4.36752 -2.86434 0
M  V30 1105 H 110.879 -2.64527 -1.40234 0
M  V30 1106 H 108.425 -1.27295 -0.673201 0
M  V30 1107 H 110.378 -1.94719 -3.73714 0
M  V30 1108 H 109.102 -0.850147 -3.15341 0
M  V30 1109 H 107.761 -2.82164 -2.3405 0
M  V30 1110 H 107.409 -1.92321 -4.64781 0
M  V30 1111 H 107.109 -3.67802 -4.58253 0
M  V30 1112 H 108.633 -3.06218 -5.28264 0
M  V30 1113 H 110.047 -4.5133 -3.53517 0
M  V30 1114 H 108.444 -5.15493 -3.07225 0
M  V30 1115 H 109.514 -4.49321 -1.82316 0
M  V30 1116 N 110.857 0.726932 -1.39834 0
M  V30 1117 C 112.273 1.03354 -1.21615 0
M  V30 1118 C 112.473 2.01327 -0.08338 0
M  V30 1119 O 111.529 2.46158 0.56238 0
M  V30 1120 C 112.842 1.58811 -2.55342 0
M  V30 1121 C 114.39 1.70851 -2.62257 0
M  V30 1122 C 114.865 2.29716 -3.96225 0
M  V30 1123 N 116.356 2.37116 -3.97907 0
M  V30 1124 C 117.091 2.83619 -4.98345 0
M  V30 1125 N 116.587 3.29958 -6.09179 0
M  V30 1126 N 118.38 2.82901 -4.8572 0
M  V30 1127 H 110.531 0.0773069 -2.12259 0
M  V30 1128 H 112.794 0.0969102 -0.943034 0
M  V30 1129 H 112.5 0.942855 -3.38826 0
M  V30 1130 H 112.374 2.57502 -2.75632 0
M  V30 1131 H 114.761 2.34497 -1.79152 0
M  V30 1132 H 114.842 0.707913 -2.45809 0
M  V30 1133 H 114.486 1.66696 -4.79765 0
M  V30 1134 H 114.416 3.30469 -4.09997 0
M  V30 1135 H 116.907 2.04374 -3.17868 0
M  V30 1136 H 117.22 3.63976 -6.8172 0
M  V30 1137 H 115.565 3.27946 -6.12761 0
M  V30 1138 H 118.756 2.46027 -3.98231 0
M  V30 1139 H 118.929 3.18827 -5.6414 0
M  V30 1140 N 112.336 1.25143 0.95797 0
M  V30 1141 C 113.299 1.05321 2.03569 0
M  V30 1142 C 114.299 0.007152 1.60798 0
M  V30 1143 O 115.489 0.24903 1.72411 0
M  V30 1144 C 112.621 0.598394 3.35607 0
M  V30 1145 H 113.814 2.00986 2.22586 0
M  V30 1146 H 111.367 1.07502 1.13459 0
M  V30 1147 H 112.102 -0.361014 3.22284 0
M  V30 1148 H 111.887 1.35351 3.67998 0
M  V30 1149 H 113.377 0.48104 4.1482 0
M  V30 1150 N 113.814 -1.1601 1.06675 0
M  V30 1151 C 115.091 -1.82679 0.699114 0
M  V30 1152 C 115.471 -1.94559 -0.819137 0
M  V30 1153 O 114.819 -1.49169 -1.73092 0
M  V30 1154 C 115.029 -3.19445 1.40555 0
M  V30 1155 C 116.377 -3.95171 1.55323 0
M  V30 1156 O 117.401 -3.28976 1.36577 0
M  V30 1157 O 116.26 -5.13833 1.86112 0
M  V30 1158 H 113.354 -0.788954 0.247951 0
M  V30 1159 H 115.9 -1.23179 1.16726 0
M  V30 1160 H 114.672 -3.05856 2.44065 0
M  V30 1161 H 114.295 -3.86625 0.927733 0
M  V30 1162 N 115.292 -0.849877 -1.32721 0
M  V30 1163 C 116.222 -0.306308 -2.31482 0
M  V30 1164 C 117.203 0.591952 -1.59468 0
M  V30 1165 O 118.388 0.513199 -1.87296 0
M  V30 1166 C 115.518 0.510204 -3.43532 0
M  V30 1167 C 114.472 -0.293209 -4.26994 0
M  V30 1168 C 113.798 0.647743 -5.30762 0
M  V30 1169 C 115.098 -1.51634 -4.99804 0
M  V30 1170 H 116.792 -1.13153 -2.77195 0
M  V30 1171 H 114.338 -0.545553 -1.33266 0
M  V30 1172 H 116.291 0.900856 -4.11658 0
M  V30 1173 H 115.015 1.36874 -2.96535 0
M  V30 1174 H 113.674 -0.665555 -3.60508 0
M  V30 1175 H 113.322 1.50299 -4.8002 0
M  V30 1176 H 113.022 0.11422 -5.87489 0
M  V30 1177 H 114.546 1.03567 -6.01753 0
M  V30 1178 H 115.96 -1.19824 -5.60638 0
M  V30 1179 H 114.357 -1.98745 -5.66234 0
M  V30 1180 H 115.427 -2.28018 -4.27943 0
M  V30 1181 N 116.77 1.45427 -0.607355 0
M  V30 1182 C 117.7 2.3329 0.0989352 0
M  V30 1183 C 118.681 1.46816 0.859007 0
M  V30 1184 O 119.866 1.75588 0.829604 0
M  V30 1185 C 116.996 3.29518 1.09705 0
M  V30 1186 C 115.95 4.25626 0.450206 0
M  V30 1187 C 115.276 5.11542 1.55655 0
M  V30 1188 C 116.576 5.18505 -0.628455 0
M  V30 1189 H 118.27 2.92595 -0.634716 0
M  V30 1190 H 115.816 1.40696 -0.306681 0
M  V30 1191 H 117.769 3.89855 1.59971 0
M  V30 1192 H 116.493 2.68372 1.86129 0
M  V30 1193 H 115.152 3.66586 -0.0315886 0
M  V30 1194 H 114.8 4.46765 2.31107 0
M  V30 1195 H 114.5 5.76647 1.12925 0
M  V30 1196 H 116.024 5.74748 2.06148 0
M  V30 1197 H 117.438 5.72916 -0.209877 0
M  V30 1198 H 115.835 5.92085 -0.977489 0
M  V30 1199 H 116.905 4.60948 -1.50514 0
M  V30 1200 N 118.248 0.346503 1.53744 0
M  V30 1201 C 119.473 -0.253074 2.0585 0
M  V30 1202 C 119.898 -1.43202 1.21962 0
M  V30 1203 O 119.256 -1.79783 0.234073 0
M  V30 1204 C 119.304 -0.643193 3.54817 0
M  V30 1205 O 118.408 -1.74286 3.73762 0
M  V30 1206 H 117.749 -0.0413583 0.662711 0
M  V30 1207 H 120.279 0.501574 1.98357 0
M  V30 1208 H 120.289 -0.919526 3.97503 0
M  V30 1209 H 118.964 0.218966 4.15323 0
M  V30 1210 H 117.541 -1.46356 3.42979 0
M  V30 1211 N 119.726 -1.57421 0.075193 0
M  V30 1212 C 120.956 -1.97659 -0.601203 0
M  V30 1213 C 121.364 -0.952427 -1.63479 0
M  V30 1214 O 120.707 0.0688241 -1.83571 0
M  V30 1215 C 120.769 -3.34218 -1.32434 0
M  V30 1216 C 120.433 -4.5484 -0.443826 0
M  V30 1217 C 121.43 -5.19034 0.299969 0
M  V30 1218 C 119.115 -5.00952 -0.367709 0
M  V30 1219 C 121.109 -6.27695 1.10807 0
M  V30 1220 C 118.796 -6.09484 0.444058 0
M  V30 1221 C 119.794 -6.72719 1.18061 0
M  V30 1222 O 119.482 -7.79161 1.97898 0
M  V30 1223 H 119.214 -0.65494 -0.167422 0
M  V30 1224 H 121.768 -2.04886 0.145157 0
M  V30 1225 H 119.998 -3.23615 -2.11685 0
M  V30 1226 H 121.687 -3.59038 -1.89331 0
M  V30 1227 H 122.453 -4.84351 0.250776 0
M  V30 1228 H 118.332 -4.51509 -0.930638 0
M  V30 1229 H 121.876 -6.76982 1.68347 0
M  V30 1230 H 117.773 -6.43601 0.494803 0
M  V30 1231 H 118.541 -7.96055 1.90367 0
M  V30 1232 N 121.204 0.198386 -1.56346 0
M  V30 1233 C 122.134 1.24865 -1.9731 0
M  V30 1234 C 123.115 1.47651 -0.844576 0
M  V30 1235 O 124.3 1.59444 -1.10866 0
M  V30 1236 C 121.43 2.59358 -2.30977 0
M  V30 1237 C 120.384 2.5119 -3.46537 0
M  V30 1238 C 119.71 3.89926 -3.65871 0
M  V30 1239 C 121.01 2.03977 -4.80823 0
M  V30 1240 H 122.704 0.908252 -2.85291 0
M  V30 1241 H 120.25 0.435462 -1.37258 0
M  V30 1242 H 122.203 3.33011 -2.58228 0
M  V30 1243 H 120.927 2.95132 -1.39874 0
M  V30 1244 H 119.586 1.79993 -3.19371 0
M  V30 1245 H 119.234 4.23046 -2.72105 0
M  V30 1246 H 118.934 3.85336 -4.4361 0
M  V30 1247 H 120.458 4.65205 -3.95495 0
M  V30 1248 H 121.872 2.67386 -5.07127 0
M  V30 1249 H 120.269 2.10397 -5.62008 0
M  V30 1250 H 121.339 0.992861 -4.74626 0
M  V30 1251 N 122.682 1.50554 0.465978 0
M  V30 1252 C 124.098 1.38093 0.800154 0
M  V30 1253 C 124.298 0.440988 1.96615 0
M  V30 1254 O 123.354 -0.114499 2.5224 0
M  V30 1255 C 124.667 2.79565 1.10742 0
M  V30 1256 C 126.215 2.88516 1.21357 0
M  V30 1257 C 126.69 4.30833 1.55393 0
M  V30 1258 N 128.181 4.33807 1.62375 0
M  V30 1259 C 128.916 5.40927 1.90225 0
M  V30 1260 N 128.412 6.58247 2.16062 0
M  V30 1261 N 130.205 5.28376 1.9177 0
M  V30 1262 H 122.356 2.10237 -0.302366 0
M  V30 1263 H 124.619 0.945203 -0.0727746 0
M  V30 1264 H 124.325 3.50208 0.323661 0
M  V30 1265 H 124.199 3.17125 2.04234 0
M  V30 1266 H 126.586 2.1809 1.98799 0
M  V30 1267 H 126.667 2.54492 0.258321 0
M  V30 1268 H 126.311 5.01799 0.784889 0
M  V30 1269 H 126.241 4.62347 2.52076 0
M  V30 1270 H 128.732 3.49212 1.44427 0
M  V30 1271 H 129.045 7.3569 2.36601 0
M  V30 1272 H 127.39 6.61413 2.13444 0
M  V30 1273 H 130.581 4.35715 1.71085 0
M  V30 1274 H 130.754 6.11944 2.13139 0
M  V30 1275 N 124.16 -0.719506 1.40217 0
M  V30 1276 C 125.11 -1.8251 1.36653 0
M  V30 1277 C 126.094 -1.59028 0.244732 0
M  V30 1278 O 127.286 -1.70268 0.483524 0
M  V30 1279 C 124.415 -3.20599 1.22763 0
M  V30 1280 C 123.501 -3.49858 2.39708 0
M  V30 1281 N 123.892 -3.49957 3.6519 0
M  V30 1282 C 122.19 -3.80297 2.33002 0
M  V30 1283 C 122.891 -3.77449 4.42614 0
M  V30 1284 N 121.867 -3.96002 3.72402 0
M  V30 1285 H 125.669 -1.80914 2.31619 0
M  V30 1286 H 123.183 -0.918455 1.33933 0
M  V30 1287 H 125.18 -3.99766 1.18292 0
M  V30 1288 H 123.84 -3.23424 0.287614 0
M  V30 1289 H 124.851 -3.309 3.98404 0
M  V30 1290 H 121.528 -3.90635 1.47346 0
M  V30 1291 H 122.918 -3.83863 5.51451 0
M  V30 1292 N 125.638 -1.25649 -0.95132 0
M  V30 1293 C 126.884 -1.10757 -1.69884 0
M  V30 1294 C 127.217 0.350061 -1.91019 0
M  V30 1295 O 126.492 1.25783 -1.48354 0
M  V30 1296 C 126.775 -1.86606 -3.07978 0
M  V30 1297 C 126.628 -3.40217 -2.94232 0
M  V30 1298 C 127.947 -1.65182 -4.07925 0
M  V30 1299 H 125.066 -0.40374 -0.616574 0
M  V30 1300 H 127.708 -1.54521 -1.10558 0
M  V30 1301 H 125.858 -1.49409 -3.58621 0
M  V30 1302 H 127.53 -3.87108 -2.50889 0
M  V30 1303 H 125.773 -3.67759 -2.30078 0
M  V30 1304 H 126.444 -3.88505 -3.92133 0
M  V30 1305 H 128.92 -1.9757 -3.66204 0
M  V30 1306 H 127.796 -2.20683 -5.02583 0
M  V30 1307 H 128.057 -0.593933 -4.38092 0
M  V30 1308 N 127.117 1.15442 -1.07289 0
M  V30 1309 C 128.049 2.19773 -0.650585 0
M  V30 1310 C 129.062 1.60076 0.296572 0
M  V30 1311 O 130.251 1.78293 0.0859905 0
M  V30 1312 C 127.351 3.38838 0.0650398 0
M  V30 1313 C 126.524 4.2808 -0.898141 0
M  V30 1314 C 125.583 5.2574 -0.219926 0
M  V30 1315 O 124.609 5.62654 -0.860773 0
M  V30 1316 N 125.811 5.71205 1.03466 0
M  V30 1317 H 128.576 2.56622 -1.54808 0
M  V30 1318 H 126.137 1.30551 -0.957494 0
M  V30 1319 H 128.129 4.01222 0.529415 0
M  V30 1320 H 126.699 3.00409 0.864466 0
M  V30 1321 H 125.919 3.62804 -1.54165 0
M  V30 1322 H 127.207 4.84577 -1.5512 0
M  V30 1323 H 126.605 5.43325 1.57526 0
M  V30 1324 H 125.162 6.35633 1.44272 0
M  V30 1325 N 128.595 0.856903 1.32268 0
M  V30 1326 C 129.841 0.471355 1.97863 0
M  V30 1327 C 130.196 -0.962896 1.66572 0
M  V30 1328 O 129.489 -1.66686 0.944797 0
M  V30 1329 C 129.683 0.649919 3.51441 0
M  V30 1330 C 129.512 2.09997 3.97657 0
M  V30 1331 C 128.282 2.73893 4.2463 0
M  V30 1332 C 130.48 3.07081 4.1256 0
M  V30 1333 N 128.462 4.09786 4.57109 0
M  V30 1334 C 129.833 4.27968 4.48602 0
M  V30 1335 C 131.888 3.03247 3.949 0
M  V30 1336 C 130.591 5.45521 4.68827 0
M  V30 1337 C 132.617 4.20046 4.16311 0
M  V30 1338 C 131.979 5.39692 4.52672 0
M  V30 1339 H 128.078 0.221263 0.750044 0
M  V30 1340 H 130.662 1.10876 1.60045 0
M  V30 1341 H 128.833 0.0421938 3.88377 0
M  V30 1342 H 130.565 0.234044 4.04023 0
M  V30 1343 H 127.32 2.24918 4.16784 0
M  V30 1344 H 127.744 4.7989 4.7753 0
M  V30 1345 H 132.386 2.11863 3.65888 0
M  V30 1346 H 130.104 6.37434 4.96693 0
M  V30 1347 H 133.69 4.18517 4.04147 0
M  V30 1348 H 132.57 6.28566 4.68907 0
M  V30 1349 N 130.073 -1.45103 0.615059 0
M  V30 1350 C 131.003 -2.33339 -0.0865619 0
M  V30 1351 C 131.984 -1.4727 -0.851209 0
M  V30 1352 O 133.169 -1.76026 -0.820281 0
M  V30 1353 C 130.299 -3.30095 -1.07956 0
M  V30 1354 C 129.253 -4.25858 -0.427628 0
M  V30 1355 C 128.579 -5.12361 -1.5294 0
M  V30 1356 C 129.879 -5.18165 0.655944 0
M  V30 1357 H 131.573 -2.92254 0.650224 0
M  V30 1358 H 129.119 -1.40532 0.314138 0
M  V30 1359 H 131.072 -3.90698 -1.57901 0
M  V30 1360 H 129.796 -2.69355 -1.84703 0
M  V30 1361 H 128.455 -3.66564 0.0510292 0
M  V30 1362 H 128.103 -4.47984 -2.28734 0
M  V30 1363 H 127.803 -5.77238 -1.09865 0
M  V30 1364 H 129.327 -5.75833 -2.03098 0
M  V30 1365 H 130.741 -5.72796 0.240257 0
M  V30 1366 H 129.138 -5.91559 1.00888 0
M  V30 1367 H 130.208 -4.60144 1.52957 0
M  V30 1368 N 131.551 -0.354651 -1.53558 0
M  V30 1369 C 132.967 -0.00315426 -1.596 0
M  V30 1370 C 133.167 1.47741 -1.37021 0
M  V30 1371 O 132.223 2.23759 -1.16996 0
M  V30 1372 C 133.536 -0.44929 -2.97325 0
M  V30 1373 C 135.084 -0.402578 -3.104 0
M  V30 1374 C 135.559 -0.824355 -4.5052 0
M  V30 1375 N 137.05 -0.778979 -4.56603 0
M  V30 1376 C 137.785 -1.07715 -5.63192 0
M  V30 1377 N 137.281 -1.44405 -6.77583 0
M  V30 1378 N 139.074 -1.00066 -5.53121 0
M  V30 1379 H 131.225 -1.31893 -1.66487 0
M  V30 1380 H 133.488 -0.538388 -0.780284 0
M  V30 1381 H 133.194 -1.48202 -3.1895 0
M  V30 1382 H 133.068 0.169772 -3.76818 0
M  V30 1383 H 135.455 0.621004 -2.88492 0
M  V30 1384 H 135.536 -1.05699 -2.32941 0
M  V30 1385 H 135.18 -1.846 -4.73165 0
M  V30 1386 H 135.11 -0.147304 -5.26394 0
M  V30 1387 H 137.601 -0.508528 -3.74463 0
M  V30 1388 H 137.914 -1.65612 -7.54846 0
M  V30 1389 H 136.259 -1.4826 -6.79002 0
M  V30 1390 H 139.45 -0.713293 -4.62633 0
M  V30 1391 H 139.623 -1.23638 -6.36096 0
M  V30 1392 N 133.029 1.57378 -0.0835403 0
M  V30 1393 C 134.445 1.57246 0.273109 0
M  V30 1394 C 134.645 1.09385 1.69225 0
M  V30 1395 O 133.701 0.765051 2.40631 0
M  V30 1396 C 135.014 3.00614 0.0720628 0
M  V30 1397 C 136.562 3.12684 0.1407 0
M  V30 1398 C 137.037 4.57989 -0.0322094 0
M  V30 1399 N 138.528 4.63194 0.0230085 0
M  V30 1400 C 139.263 5.73335 -0.0861941 0
M  V30 1401 N 138.759 6.9235 -0.24958 0
M  V30 1402 N 140.552 5.62093 -0.0282886 0
M  V30 1403 H 132.703 1.86801 -1.0109 0
M  V30 1404 H 134.966 0.861687 -0.395222 0
M  V30 1405 H 134.672 3.39786 -0.907662 0
M  V30 1406 H 134.546 3.68193 0.81936 0
M  V30 1407 H 136.933 2.73391 1.11092 0
M  V30 1408 H 137.014 2.47719 -0.637896 0
M  V30 1409 H 136.658 4.97973 -0.999247 0
M  V30 1410 H 136.588 5.21 0.765937 0
M  V30 1411 H 139.079 3.77613 0.14722 0
M  V30 1412 H 139.392 7.72117 -0.324733 0
M  V30 1413 H 137.737 6.94415 -0.285097 0
M  V30 1414 H 140.928 4.67997 0.0981408 0
M  V30 1415 H 141.101 6.47895 -0.116845 0
M  V30 1416 N 134.507 -0.190092 1.56449 0
M  V30 1417 C 135.47 -1.21925 1.9408 0
M  V30 1418 C 136.47 -1.38176 0.822431 0
M  V30 1419 O 137.66 -1.35903 1.08977 0
M  V30 1420 C 134.792 -2.58773 2.21922 0
M  V30 1421 H 135.985 -0.897464 2.86157 0
M  V30 1422 H 133.538 -0.43181 1.50217 0
M  V30 1423 H 134.273 -2.95998 1.32499 0
M  V30 1424 H 134.058 -2.48348 3.03424 0
M  V30 1425 H 135.548 -3.32978 2.52022 0
M  V30 1426 N 135.985 -1.50799 -0.457987 0
M  V30 1427 C 137.233 -1.62121 -1.2067 0
M  V30 1428 C 137.554 -0.329793 -1.92191 0
M  V30 1429 O 136.824 0.653409 -1.84682 0
M  V30 1430 H 135.404 -0.597441 -0.448411 0
M  V30 1431 H 138.066 -1.87637 -0.527096 0
M  V30 1432 H 137.162 -2.43882 -1.94751 0
M  V30 1433 N 137.463 0.71206 -1.40597 0
M  V30 1434 C 138.711 1.46907 -1.38791 0
M  V30 1435 C 139.032 1.94998 0.00780391 0
M  V30 1436 O 138.302 1.70587 0.963174 0
M  V30 1437 H 136.882 0.545043 -0.51082 0
M  V30 1438 H 139.544 0.843882 -1.75683 0
M  V30 1439 H 138.64 2.34021 -2.06496 0
M  V30 1440 N 138.941 1.26152 0.944643 0
M  V30 1441 C 140.166 1.14363 1.7302 0
M  V30 1442 C 140.591 -0.29772 1.85729 0
M  V30 1443 O 139.949 -1.2157 1.34501 0
M  V30 1444 C 139.997 1.81378 3.11664 0
M  V30 1445 O 139.101 1.10022 3.97453 0
M  V30 1446 H 138.442 0.398694 0.53098 0
M  V30 1447 H 140.972 1.66906 1.18337 0
M  V30 1448 H 140.982 1.88064 3.62072 0
M  V30 1449 H 139.657 2.86237 3.0173 0
M  V30 1450 H 138.234 1.11287 3.55907 0
M  V30 1451 N 140.419 -1.14872 1.07899 0
M  V30 1452 C 141.644 -1.90202 0.826926 0
M  V30 1453 C 142.069 -1.77774 -0.614664 0
M  V30 1454 O 141.427 -1.11431 -1.43013 0
M  V30 1455 C 141.475 -3.38352 1.24702 0
M  V30 1456 O 140.579 -4.10497 0.39575 0
M  V30 1457 H 139.92 -0.591968 0.300782 0
M  V30 1458 H 142.45 -1.45437 1.43907 0
M  V30 1459 H 142.46 -3.89156 1.22563 0
M  V30 1460 H 141.135 -3.46715 2.29698 0
M  V30 1461 H 139.712 -3.69796 0.480117 0
M  V30 1462 N 141.898 -0.863906 -1.31812 0
M  V30 1463 C 142.828 -0.330843 -2.31144 0
M  V30 1464 C 143.809 0.575005 -1.60087 0
M  V30 1465 O 144.994 0.493304 -1.8783 0
M  V30 1466 C 142.124 0.47374 -3.44054 0
M  V30 1467 C 141.078 -0.338481 -4.26659 0
M  V30 1468 C 140.404 0.591412 -5.31419 0
M  V30 1469 C 141.704 -1.56926 -4.98168 0
M  V30 1470 H 143.398 -1.16086 -2.75979 0
M  V30 1471 H 140.944 -0.559657 -1.32679 0
M  V30 1472 H 142.897 0.857143 -4.12591 0
M  V30 1473 H 141.621 1.33721 -2.9797 0
M  V30 1474 H 140.28 -0.703754 -3.59782 0
M  V30 1475 H 139.928 1.45199 -4.81587 0
M  V30 1476 H 139.628 0.0519022 -5.87577 0
M  V30 1477 H 141.152 0.97179 -6.02817 0
M  V30 1478 H 142.566 -1.25764 -5.59336 0
M  V30 1479 H 140.963 -2.04739 -5.64094 0
M  V30 1480 H 142.033 -2.32544 -4.25501 0
M  V30 1481 N 143.376 1.44774 -0.622745 0
M  V30 1482 C 144.323 2.30635 0.0871679 0
M  V30 1483 C 145.293 1.42994 0.845097 0
M  V30 1484 O 146.478 1.71907 0.827812 0
M  V30 1485 C 143.618 3.28144 1.06844 0
M  V30 1486 C 142.731 4.30888 0.309809 0
M  V30 1487 C 141.866 5.15494 1.28215 0
M  V30 1488 C 140.905 6.09953 0.512198 0
M  V30 1489 N 140.042 6.87287 1.43458 0
M  V30 1490 H 144.882 2.90803 -0.650974 0
M  V30 1491 H 142.419 1.43286 -0.33281 0
M  V30 1492 H 144.377 3.83157 1.65066 0
M  V30 1493 H 143.007 2.69695 1.77382 0
M  V30 1494 H 142.059 3.78414 -0.388181 0
M  V30 1495 H 143.371 4.97955 -0.290254 0
M  V30 1496 H 142.525 5.74983 1.93596 0
M  V30 1497 H 141.264 4.48481 1.91614 0
M  V30 1498 H 140.269 5.49581 -0.155151 0
M  V30 1499 H 141.494 6.78999 -0.116958 0
M  V30 1500 H 139.44 6.2295 2.05594 0
M  V30 1501 H 139.357 7.50763 0.888335 0
M  V30 1502 H 140.625 7.51306 2.07749 0
M  V30 1503 N 144.854 0.36279 1.53368 0
M  V30 1504 C 146.082 -0.228613 2.05633 0
M  V30 1505 C 146.497 -1.42676 1.23649 0
M  V30 1506 O 145.854 -1.80394 0.27647 0
M  V30 1507 C 145.905 -0.624845 3.56059 0
M  V30 1508 O 145.626 0.525675 4.34935 0
M  V30 1509 C 147.127 -1.27493 4.24571 0
M  V30 1510 H 144.347 -0.0407183 0.669763 0
M  V30 1511 H 146.891 0.520352 1.97769 0
M  V30 1512 H 145.046 -1.32373 3.64083 0
M  V30 1513 H 145.46 0.205969 5.24095 0
M  V30 1514 H 146.934 -1.50277 5.31151 0
M  V30 1515 H 147.411 -2.23439 3.78116 0
M  V30 1516 H 148.017 -0.617558 4.20792 0
M  V30 1517 N 146.332 -1.57332 0.0918853 0
M  V30 1518 C 147.262 -2.16872 -0.865371 0
M  V30 1519 C 148.243 -1.10118 -1.29646 0
M  V30 1520 O 149.428 -1.38242 -1.36392 0
M  V30 1521 C 146.558 -2.74649 -2.12569 0
M  V30 1522 C 145.512 -3.86747 -1.83333 0
M  V30 1523 C 144.838 -4.31212 -3.16166 0
M  V30 1524 C 146.138 -5.10089 -1.1228 0
M  V30 1525 H 147.832 -2.97114 -0.369307 0
M  V30 1526 H 145.378 -1.42918 -0.176194 0
M  V30 1527 H 147.331 -3.14952 -2.7997 0
M  V30 1528 H 146.055 -1.91657 -2.64452 0
M  V30 1529 H 144.714 -3.46978 -1.18331 0
M  V30 1530 H 144.362 -3.45115 -3.6593 0
M  V30 1531 H 144.062 -5.06788 -2.97388 0
M  V30 1532 H 145.586 -4.74146 -3.84731 0
M  V30 1533 H 147 -5.47582 -1.69785 0
M  V30 1534 H 145.397 -5.91073 -1.03693 0
M  V30 1535 H 146.467 -4.84786 -0.105041 0
M  V30 1536 N 147.81 0.181792 -1.56548 0
M  V30 1537 C 148.72 1.24538 -1.98815 0
M  V30 1538 C 149.736 1.49045 -0.897861 0
M  V30 1539 O 150.912 1.61399 -1.20467 0
M  V30 1540 C 147.977 2.56683 -2.33055 0
M  V30 1541 C 147.038 2.40131 -3.55859 0
M  V30 1542 C 146.271 3.65975 -3.88456 0
M  V30 1543 O 146.494 4.70711 -3.22161 0
M  V30 1544 O 145.428 3.6071 -4.81842 0
M  V30 1545 H 149.254 0.916647 -2.89536 0
M  V30 1546 H 146.839 0.387842 -1.44278 0
M  V30 1547 H 148.721 3.34655 -2.56094 0
M  V30 1548 H 147.396 2.89157 -1.45498 0
M  V30 1549 H 146.303 1.60226 -3.38051 0
M  V30 1550 H 147.636 2.12585 -4.43924 0
M  V30 1551 N 149.288 1.51039 0.449983 0
M  V30 1552 C 150.699 1.557 1.03026 0
M  V30 1553 C 151.05 0.372939 1.92623 0
M  V30 1554 O 150.175 -0.511771 2.10261 0
M  V30 1555 C 150.77 2.82171 1.87523 0
M  V30 1556 C 149.329 2.89444 2.40622 0
M  V30 1557 C 148.476 2.50228 1.19504 0
M  V30 1558 H 151.427 1.56999 0.231745 0
M  V30 1559 H 151.448 2.65219 2.72835 0
M  V30 1560 H 150.96 3.68331 1.22286 0
M  V30 1561 H 149.061 2.07685 3.0935 0
M  V30 1562 H 149.174 3.92816 2.74285 0
M  V30 1563 H 147.538 2.03139 1.53644 0
M  V30 1564 H 148.321 3.38719 0.558972 0
M  V30 1565 N 150.766 -0.704594 1.40972 0
M  V30 1566 C 151.676 -1.84856 1.44448 0
M  V30 1567 C 152.692 -1.70726 0.335961 0
M  V30 1568 O 153.868 -1.92799 0.582276 0
M  V30 1569 C 150.933 -3.20758 1.31587 0
M  V30 1570 C 149.994 -3.47063 2.52677 0
M  V30 1571 C 149.227 -4.76481 2.4042 0
M  V30 1572 O 149.45 -5.52341 1.42391 0
M  V30 1573 O 148.384 -5.03367 3.30007 0
M  V30 1574 H 152.21 -1.8488 2.40942 0
M  V30 1575 H 149.795 -0.85647 1.22413 0
M  V30 1576 H 151.677 -4.01913 1.26665 0
M  V30 1577 H 150.352 -3.21438 0.382049 0
M  V30 1578 H 149.259 -2.65873 2.63177 0
M  V30 1579 H 150.592 -3.5119 3.44858 0
M  V30 1580 N 152.244 -1.26651 -0.937939 0
M  V30 1581 C 153.174 -1.10993 -2.05433 0
M  V30 1582 C 154.155 -0.0142161 -1.70094 0
M  V30 1583 O 155.34 -0.186837 -1.93299 0
M  V30 1584 C 152.47 -0.745561 -3.39203 0
M  V30 1585 C 151.424 -1.79337 -3.88616 0
M  V30 1586 C 150.75 -1.28324 -5.19073 0
M  V30 1587 C 152.05 -3.19553 -4.13138 0
M  V30 1588 H 153.744 -2.0438 -2.1879 0
M  V30 1589 H 151.29 -0.984041 -1.05131 0
M  V30 1590 H 153.243 -0.622888 -4.16771 0
M  V30 1591 H 151.967 0.22401 -3.25831 0
M  V30 1592 H 150.626 -1.90477 -3.13231 0
M  V30 1593 H 150.274 -0.303414 -5.02084 0
M  V30 1594 H 149.974 -1.98369 -5.53103 0
M  V30 1595 H 151.498 -1.1733 -5.99221 0
M  V30 1596 H 152.912 -3.11471 -4.81309 0
M  V30 1597 H 151.309 -3.87218 -4.58457 0
M  V30 1598 H 152.379 -3.65368 -3.18801 0
M  V30 1599 N 153.722 1.14298 -1.08507 0
M  V30 1600 C 154.97 1.84993 -0.813763 0
M  V30 1601 C 155.291 1.83405 0.662393 0
M  V30 1602 O 154.561 1.28319 1.48024 0
M  V30 1603 H 153.141 0.684966 -0.298045 0
M  V30 1604 H 155.803 1.385 -1.37126 0
M  V30 1605 H 154.899 2.89788 -1.15884 0
M  V30 1606 N 155.201 0.870884 1.31352 0
M  V30 1607 C 156.429 0.49677 2.00848 0
M  V30 1608 C 156.844 -0.910998 1.65367 0
M  V30 1609 O 156.201 -1.59696 0.883374 0
M  V30 1610 C 156.252 0.645308 3.55694 0
M  V30 1611 O 155.973 1.99764 3.89905 0
M  V30 1612 C 157.474 0.272326 4.42463 0
M  V30 1613 H 154.694 0.193462 0.642506 0
M  V30 1614 H 157.238 1.1723 1.67563 0
M  V30 1615 H 155.393 0.0173176 3.87396 0
M  V30 1616 H 155.807 2.00607 4.84621 0
M  V30 1617 H 157.281 0.427208 5.50344 0
M  V30 1618 H 157.758 -0.788587 4.32062 0
M  V30 1619 H 158.364 0.876054 4.1618 0
M  V30 1620 N 156.679 -1.44442 0.630414 0
M  V30 1621 C 157.609 -2.33418 -0.0618083 0
M  V30 1622 C 158.59 -1.48165 -0.835541 0
M  V30 1623 O 159.775 -1.76886 -0.801564 0
M  V30 1624 C 156.905 -3.31222 -1.04449 0
M  V30 1625 C 155.859 -4.26288 -0.382436 0
M  V30 1626 C 155.185 -5.13954 -1.47497 0
M  V30 1627 C 156.485 -5.1744 0.710865 0
M  V30 1628 H 158.179 -2.91548 0.681184 0
M  V30 1629 H 155.725 -1.40191 0.329026 0
M  V30 1630 H 157.678 -3.92351 -1.53748 0
M  V30 1631 H 156.402 -2.71299 -1.81836 0
M  V30 1632 H 155.061 -3.6649 0.0899054 0
M  V30 1633 H 154.709 -4.50385 -2.2397 0
M  V30 1634 H 154.409 -5.7837 -1.03737 0
M  V30 1635 H 155.933 -5.77955 -1.96979 0
M  V30 1636 H 157.347 -5.72509 0.300996 0
M  V30 1637 H 155.744 -5.90455 1.07156 0
M  V30 1638 H 156.814 -4.58496 1.57829 0
M  V30 1639 N 158.157 -0.370918 -1.53173 0
M  V30 1640 C 159.089 0.507823 -2.23503 0
M  V30 1641 C 160.102 1.04182 -1.251 0
M  V30 1642 O 161.291 0.947286 -1.5129 0
M  V30 1643 C 158.391 1.71447 -2.92334 0
M  V30 1644 C 157.564 1.31105 -4.17289 0
M  V30 1645 C 156.623 2.38035 -4.69282 0
M  V30 1646 O 155.649 2.00204 -5.32829 0
M  V30 1647 N 156.851 3.69697 -4.47554 0
M  V30 1648 H 159.616 -0.0946382 -2.99551 0
M  V30 1649 H 157.177 -0.196358 -1.60705 0
M  V30 1650 H 159.169 2.42469 -3.24023 0
M  V30 1651 H 157.739 2.22368 -2.19707 0
M  V30 1652 H 156.959 0.430462 -3.91843 0
M  V30 1653 H 158.247 1.0179 -4.98514 0
M  V30 1654 H 157.645 4.03205 -3.9679 0
M  V30 1655 H 156.202 4.36807 -4.8378 0
M  V30 1656 N 159.635 1.57281 -0.100228 0
M  V30 1657 C 160.598 2.13158 0.842398 0
M  V30 1658 C 161.598 1.06202 1.20738 0
M  V30 1659 O 162.788 1.32066 1.13597 0
M  V30 1660 C 159.92 2.65639 2.13655 0
M  V30 1661 H 161.113 2.97766 0.357114 0
M  V30 1662 H 158.666 1.5559 0.148823 0
M  V30 1663 H 159.401 1.84566 2.66657 0
M  V30 1664 H 159.186 3.43844 1.88451 0
M  V30 1665 H 160.676 3.08846 2.81077 0
M  V30 1666 N 161.113 -0.173488 1.56642 0
M  V30 1667 C 162.529 -0.525174 1.50712 0
M  V30 1668 C 162.729 -1.8476 0.804107 0
M  V30 1669 O 161.785 -2.49869 0.363574 0
M  V30 1670 C 163.098 -0.559937 2.95441 0
M  V30 1671 C 164.646 -0.647288 3.06234 0
M  V30 1672 C 165.121 -0.712963 4.52417 0
M  V30 1673 N 166.612 -0.775911 4.56655 0
M  V30 1674 C 167.347 -0.847264 5.67106 0
M  V30 1675 N 166.843 -0.879585 6.87194 0
M  V30 1676 N 168.636 -0.886117 5.55071 0
M  V30 1677 H 160.787 0.693681 2.00753 0
M  V30 1678 H 163.05 0.249841 0.914485 0
M  V30 1679 H 162.756 0.343049 3.50023 0
M  V30 1680 H 162.63 -1.40718 3.49969 0
M  V30 1681 H 165.017 -1.5407 2.51687 0
M  V30 1682 H 165.098 0.226586 2.54794 0
M  V30 1683 H 164.742 0.176183 5.07594 0
M  V30 1684 H 164.672 -1.60295 5.0161 0
M  V30 1685 H 167.163 -0.759304 3.70193 0
M  V30 1686 H 167.476 -0.935144 7.67121 0
M  V30 1687 H 165.821 -0.847898 6.89808 0
M  V30 1688 H 169.012 -0.857853 4.60172 0
M  V30 1689 H 169.185 -0.938263 6.41171 0
M  V30 1690 N 162.591 -1.51276 -0.441967 0
M  V30 1691 C 163.521 -1.752 -1.54361 0
M  V30 1692 C 164.502 -0.601682 -1.59103 0
M  V30 1693 O 165.687 -0.843913 -1.74905 0
M  V30 1694 C 162.817 -1.87282 -2.92477 0
M  V30 1695 C 161.771 -3.02687 -3.02596 0
M  V30 1696 C 161.097 -2.99947 -4.42647 0
M  V30 1697 C 162.397 -4.4273 -2.77106 0
M  V30 1698 H 164.091 -2.67442 -1.34592 0
M  V30 1699 H 161.637 -1.28694 -0.646048 0
M  V30 1700 H 163.59 -2.02602 -3.695 0
M  V30 1701 H 162.314 -0.916844 -3.13467 0
M  V30 1702 H 160.973 -2.87065 -2.28012 0
M  V30 1703 H 160.621 -2.02136 -4.60597 0
M  V30 1704 H 160.321 -3.77439 -4.50348 0
M  V30 1705 H 161.845 -3.17354 -5.2165 0
M  V30 1706 H 163.259 -4.58727 -3.43864 0
M  V30 1707 H 161.656 -5.21893 -2.96222 0
M  V30 1708 H 162.726 -4.53087 -1.72744 0
M  V30 1709 N 164.069 0.697108 -1.41344 0
M  V30 1710 C 165.346 1.45154 -1.31109 0
M  V30 1711 C 165.726 2.11009 0.0620449 0
M  V30 1712 O 165.074 2.01571 1.07618 0
M  V30 1713 C 165.284 2.47223 -2.46337 0
M  V30 1714 C 166.632 3.1252 -2.87431 0
M  V30 1715 O 167.656 2.57547 -2.46065 0
M  V30 1716 O 166.515 4.12083 -3.58957 0
M  V30 1717 H 163.609 0.646365 -0.515889 0
M  V30 1718 H 166.155 0.727716 -1.53305 0
M  V30 1719 H 164.927 1.97204 -3.37974 0
M  V30 1720 H 164.55 3.27116 -2.2601 0
M  V30 1721 N 165.547 1.27147 0.931209 0
M  V30 1722 C 166.963 1.04475 1.20653 0
M  V30 1723 C 167.163 -0.223885 2.00252 0
M  V30 1724 O 166.219 -0.930332 2.34736 0
M  V30 1725 C 167.532 2.28209 1.95809 0
M  V30 1726 C 169.08 2.33211 2.08762 0
M  V30 1727 C 169.555 3.56665 2.87323 0
M  V30 1728 N 171.046 3.57201 2.94892 0
M  V30 1729 C 171.781 4.49395 3.56134 0
M  V30 1730 N 171.277 5.51889 4.18796 0
M  V30 1731 N 173.07 4.37026 3.53504 0
M  V30 1732 H 165.221 2.08612 0.399333 0
M  V30 1733 H 167.484 0.917312 0.239253 0
M  V30 1734 H 167.19 3.20538 1.44736 0
M  V30 1735 H 167.064 2.33247 2.96438 0
M  V30 1736 H 169.451 1.41391 2.59023 0
M  V30 1737 H 169.532 2.32178 1.07364 0
M  V30 1738 H 169.176 4.4882 2.37746 0
M  V30 1739 H 169.106 3.54948 3.88998 0
M  V30 1740 H 171.597 2.83074 2.50354 0
M  V30 1741 H 171.91 6.18409 4.63454 0
M  V30 1742 H 170.255 5.55735 4.17353 0
M  V30 1743 H 173.446 3.56166 3.03749 0
M  V30 1744 H 173.619 5.09067 4.00942 0
M  V30 1745 N 167.025 -1.13721 1.09112 0
M  V30 1746 C 167.955 -2.21148 0.749385 0
M  V30 1747 C 168.936 -1.6792 -0.271475 0
M  V30 1748 O 170.121 -1.93693 -0.140251 0
M  V30 1749 C 167.251 -3.46905 0.165659 0
M  V30 1750 C 166.205 -4.13203 1.11567 0
M  V30 1751 C 165.531 -5.33248 0.393809 0
M  V30 1752 C 166.831 -4.60912 2.45678 0
M  V30 1753 H 168.525 -2.4999 1.64758 0
M  V30 1754 H 166.071 -1.20156 0.793626 0
M  V30 1755 H 168.024 -4.21313 -0.085466 0
M  V30 1756 H 166.748 -3.17449 -0.767714 0
M  V30 1757 H 165.407 -3.40758 1.35202 0
M  V30 1758 H 165.055 -5.00054 -0.543599 0
M  V30 1759 H 164.755 -5.78552 1.02721 0
M  V30 1760 H 166.279 -6.10413 0.150908 0
M  V30 1761 H 167.693 -5.26759 2.26269 0
M  V30 1762 H 166.09 -5.16944 3.04776 0
M  V30 1763 H 167.16 -3.75603 3.06677 0
M  V30 1764 N 168.503 -0.877838 -1.30888 0
M  V30 1765 C 169.433 -0.35534 -2.3078 0
M  V30 1766 C 170.414 0.557994 -1.60687 0
M  V30 1767 O 171.599 0.473355 -1.88343 0
M  V30 1768 C 168.729 0.437221 -3.44537 0
M  V30 1769 C 167.683 -0.383715 -4.26276 0
M  V30 1770 C 167.009 0.535014 -5.32017 0
M  V30 1771 C 168.309 -1.62201 -4.96476 0
M  V30 1772 H 170.003 -1.19007 -2.74732 0
M  V30 1773 H 167.549 -0.573698 -1.32078 0
M  V30 1774 H 169.502 0.813334 -4.13477 0
M  V30 1775 H 168.226 1.30553 -2.99372 0
M  V30 1776 H 166.885 -0.741874 -3.59015 0
M  V30 1777 H 166.533 1.40083 -4.831 0
M  V30 1778 H 166.233 -0.0104211 -5.87599 0
M  V30 1779 H 167.757 0.907799 -6.03814 0
M  V30 1780 H 169.171 -1.31689 -5.5797 0
M  V30 1781 H 167.568 -2.10711 -5.61891 0
M  V30 1782 H 168.638 -2.37044 -4.23011 0
M  V30 1783 N 169.982 1.44106 -0.638065 0
M  V30 1784 C 171.398 1.56672 -0.304286 0
M  V30 1785 C 171.598 1.6244 1.19228 0
M  V30 1786 O 170.654 1.57121 1.9766 0
M  V30 1787 C 171.967 2.83503 -1.00231 0
M  V30 1788 C 173.515 2.97226 -0.981116 0
M  V30 1789 C 173.99 4.26868 -1.65974 0
M  V30 1790 N 175.481 4.33698 -1.62666 0
M  V30 1791 C 176.216 5.32745 -2.12063 0
M  V30 1792 N 175.712 6.38157 -2.6968 0
M  V30 1793 N 177.505 5.24299 -2.02651 0
M  V30 1794 H 169.656 1.38605 -1.60942 0
M  V30 1795 H 171.919 0.664661 -0.675965 0
M  V30 1796 H 171.625 2.85251 -2.0573 0
M  V30 1797 H 171.499 3.73251 -0.54439 0
M  V30 1798 H 173.886 2.95027 0.0654188 0
M  V30 1799 H 173.967 2.08808 -1.47759 0
M  V30 1800 H 173.611 4.29826 -2.70576 0
M  V30 1801 H 173.541 5.14156 -1.13804 0
M  V30 1802 H 176.032 3.58138 -1.20606 0
M  V30 1803 H 176.345 7.10029 -3.05087 0
M  V30 1804 H 174.69 6.38823 -2.73734 0
M  V30 1805 H 177.881 4.4086 -1.57353 0
M  V30 1806 H 178.054 6.01334 -2.41457 0
M  V30 1807 N 171.46 0.379036 1.52974 0
M  V30 1808 C 172.876 0.0285448 1.59574 0
M  V30 1809 C 173.076 -1.45542 1.39355 0
M  V30 1810 O 172.132 -2.2187 1.20541 0
M  V30 1811 C 173.445 0.496535 2.96572 0
M  V30 1812 C 174.993 0.451909 3.0972 0
M  V30 1813 C 175.468 0.895924 4.49152 0
M  V30 1814 N 176.959 0.851522 4.55306 0
M  V30 1815 C 177.694 1.16661 5.61407 0
M  V30 1816 N 177.19 1.55166 6.752 0
M  V30 1817 N 178.983 1.08853 5.51459 0
M  V30 1818 H 171.134 1.34525 1.64367 0
M  V30 1819 H 173.397 0.550733 0.771619 0
M  V30 1820 H 173.103 1.53258 3.16552 0
M  V30 1821 H 172.977 -0.109802 3.7704 0
M  V30 1822 H 175.364 -0.575029 2.89443 0
M  V30 1823 H 175.445 1.09392 2.3123 0
M  V30 1824 H 175.089 1.92104 4.70168 0
M  V30 1825 H 175.019 0.23103 5.26093 0
M  V30 1826 H 177.51 0.568038 3.73606 0
M  V30 1827 H 177.823 1.776 7.52116 0
M  V30 1828 H 176.168 1.59044 6.76557 0
M  V30 1829 H 179.359 0.786803 4.6144 0
M  V30 1830 H 179.532 1.33742 6.34048 0
M  V30 1831 N 172.938 -1.57226 0.108567 0
M  V30 1832 C 173.868 -2.17778 -0.84232 0
M  V30 1833 C 174.849 -1.11487 -1.2847 0
M  V30 1834 O 176.034 -1.39681 -1.34918 0
M  V30 1835 C 173.164 -2.76888 -2.09644 0
M  V30 1836 C 172.118 -3.88669 -1.79221 0
M  V30 1837 C 171.444 -4.34541 -3.11574 0
M  V30 1838 C 172.744 -5.11251 -1.06864 0
M  V30 1839 H 174.438 -2.97489 -0.337774 0
M  V30 1840 H 171.984 -1.43097 -0.161025 0
M  V30 1841 H 173.937 -3.17904 -2.76614 0
M  V30 1842 H 172.661 -1.94451 -2.62405 0
M  V30 1843 H 171.32 -3.48213 -1.14644 0
M  V30 1844 H 170.968 -3.48977 -3.62249 0
M  V30 1845 H 170.668 -5.09914 -2.91996 0
M  V30 1846 H 172.192 -4.782 -3.7968 0
M  V30 1847 H 173.606 -5.49352 -1.63968 0
M  V30 1848 H 172.003 -5.9214 -0.974178 0
M  V30 1849 H 173.073 -4.8487 -0.0536168 0
M  V30 1850 N 174.416 0.165178 -1.56732 0
M  V30 1851 C 175.348 1.22911 -1.93457 0
M  V30 1852 C 176.361 1.40152 -0.828333 0
M  V30 1853 O 177.55 1.40046 -1.10677 0
M  V30 1854 C 174.65 2.59686 -2.17753 0
M  V30 1855 C 173.823 2.63663 -3.48999 0
M  V30 1856 C 172.882 3.81845 -3.62051 0
M  V30 1857 O 171.908 3.67559 -4.34613 0
M  V30 1858 N 173.11 4.98557 -2.97357 0
M  V30 1859 H 175.875 0.917118 -2.85323 0
M  V30 1860 H 173.436 0.354895 -1.57962 0
M  V30 1861 H 175.428 3.37225 -2.23743 0
M  V30 1862 H 173.998 2.83251 -1.32242 0
M  V30 1863 H 173.218 1.72173 -3.54612 0
M  V30 1864 H 174.506 2.63336 -4.35352 0
M  V30 1865 H 173.904 5.13065 -2.38287 0
M  V30 1866 H 172.461 5.73936 -3.08934 0
M  V30 1867 N 175.894 1.51508 0.433938 0
M  V30 1868 C 176.824 1.76016 1.53429 0
M  V30 1869 C 177.805 0.610112 1.58782 0
M  V30 1870 O 178.99 0.853177 1.74455 0
M  V30 1871 C 176.12 1.88831 2.9148 0
M  V30 1872 C 175.074 3.04288 3.00987 0
M  V30 1873 C 174.4 3.0229 4.4105 0
M  V30 1874 C 175.7 4.44193 2.74754 0
M  V30 1875 H 177.394 2.68152 1.33171 0
M  V30 1876 H 174.94 1.29035 0.639214 0
M  V30 1877 H 176.893 2.04559 3.6842 0
M  V30 1878 H 175.617 0.933455 3.12976 0
M  V30 1879 H 174.276 2.8827 2.26486 0
M  V30 1880 H 173.924 2.04576 4.59519 0
M  V30 1881 H 173.624 3.79822 4.4834 0
M  V30 1882 H 175.148 3.20116 5.1996 0
M  V30 1883 H 176.562 4.60544 3.41426 0
M  V30 1884 H 174.959 5.23457 2.9345 0
M  V30 1885 H 176.029 4.53996 1.70339 0
M  V30 1886 N 177.372 -0.689602 1.41712 0
M  V30 1887 C 178.302 -1.81577 1.46806 0
M  V30 1888 C 179.283 -1.66945 0.326105 0
M  V30 1889 O 180.468 -1.86588 0.538377 0
M  V30 1890 C 177.598 -3.19762 1.35535 0
M  V30 1891 C 176.552 -3.49107 2.47605 0
M  V30 1892 C 175.878 -4.86711 2.21397 0
M  V30 1893 C 177.178 -3.47483 3.89939 0
M  V30 1894 H 178.872 -1.7757 2.41058 0
M  V30 1895 H 176.418 -0.852887 1.16025 0
M  V30 1896 H 178.371 -3.98263 1.3771 0
M  V30 1897 H 177.095 -3.24409 0.377708 0
M  V30 1898 H 175.754 -2.72959 2.44722 0
M  V30 1899 H 175.402 -4.8799 1.21961 0
M  V30 1900 H 175.102 -5.0731 2.96497 0
M  V30 1901 H 176.626 -5.67515 2.25297 0
M  V30 1902 H 178.04 -4.1598 3.94505 0
M  V30 1903 H 176.437 -3.79615 4.64771 0
M  V30 1904 H 177.507 -2.46341 4.17665 0
M  V30 1905 N 178.85 -1.27639 -0.924453 0
M  V30 1906 C 179.783 -1.04966 -2.02626 0
M  V30 1907 C 180.761 0.0309505 -1.62571 0
M  V30 1908 O 181.945 -0.114846 -1.8815 0
M  V30 1909 C 179.072 -0.59292 -3.3347 0
M  V30 1910 C 178.118 -1.66858 -3.92506 0
M  V30 1911 S 178.951 -3.2619 -4.24689 0
M  V30 1912 C 180.107 -2.82325 -5.58609 0
M  V30 1913 H 180.34 -1.98252 -2.21547 0
M  V30 1914 H 177.873 -1.11506 -1.06798 0
M  V30 1915 H 179.831 -0.336086 -4.09122 0
M  V30 1916 H 178.492 0.319939 -3.12466 0
M  V30 1917 H 177.685 -1.30038 -4.86935 0
M  V30 1918 H 177.287 -1.87766 -3.2345 0
M  V30 1919 H 179.579 -2.2783 -6.38044 0
M  V30 1920 H 180.522 -3.75511 -6.00331 0
M  V30 1921 H 180.93 -2.21367 -5.19285 0
M  V30 1922 N 180.328 1.1314 -1.09713 0
M  V30 1923 C 181.553 1.88862 -0.857081 0
M  V30 1924 C 181.978 1.78729 0.586304 0
M  V30 1925 O 181.336 1.13692 1.41222 0
M  V30 1926 C 181.384 3.36325 -1.30069 0
M  V30 1927 O 180.488 4.09815 -0.461007 0
M  V30 1928 H 179.829 0.587108 -0.310162 0
M  V30 1929 H 182.359 1.43129 -1.46203 0
M  V30 1930 H 182.369 3.87157 -1.28738 0
M  V30 1931 H 181.044 3.43017 -2.35185 0
M  V30 1932 H 179.621 3.68986 -0.538888 0
M  V30 1933 N 181.806 0.884767 1.30421 0
M  V30 1934 C 183.222 0.57874 1.48737 0
M  V30 1935 C 183.422 -0.883567 1.81095 0
M  V30 1936 O 182.478 -1.6648 1.89844 0
M  V30 1937 C 183.791 1.49171 2.61091 0
M  V30 1938 C 185.339 1.49532 2.74971 0
M  V30 1939 C 185.814 2.39421 3.90438 0
M  V30 1940 N 187.305 2.37383 3.97748 0
M  V30 1941 C 188.04 3.03647 4.86401 0
M  V30 1942 N 187.536 3.79136 5.79852 0
M  V30 1943 N 189.329 2.9288 4.79768 0
M  V30 1944 H 181.48 1.83075 1.0769 0
M  V30 1945 H 183.743 0.783637 0.533495 0
M  V30 1946 H 183.449 2.53291 2.44001 0
M  V30 1947 H 183.323 1.20113 3.57565 0
M  V30 1948 H 185.71 0.46163 2.91467 0
M  V30 1949 H 185.791 1.8262 1.79119 0
M  V30 1950 H 185.435 3.42874 3.74699 0
M  V30 1951 H 185.365 2.03649 4.85628 0
M  V30 1952 H 187.856 1.82525 3.30897 0
M  V30 1953 H 188.169 4.26789 6.4426 0
M  V30 1954 H 186.514 3.83243 5.79784 0
M  V30 1955 H 189.705 2.33433 4.05742 0
M  V30 1956 H 189.878 3.448 5.4865 0
M  V30 1957 N 183.284 -1.43765 0.645699 0
M  V30 1958 C 184.214 -2.33471 -0.0370477 0
M  V30 1959 C 185.195 -1.49042 -0.819779 0
M  V30 1960 O 186.38 -1.77726 -0.782758 0
M  V30 1961 C 183.51 -3.32311 -1.0093 0
M  V30 1962 C 182.464 -4.2667 -0.337201 0
M  V30 1963 C 181.79 -5.1549 -1.42037 0
M  V30 1964 C 183.09 -5.16657 0.765706 0
M  V30 1965 H 184.784 -2.90809 0.712069 0
M  V30 1966 H 182.33 -1.39834 0.343876 0
M  V30 1967 H 184.283 -3.9396 -1.49578 0
M  V30 1968 H 183.007 -2.73213 -1.78948 0
M  V30 1969 H 181.666 -3.66374 0.128771 0
M  V30 1970 H 181.314 -4.52735 -2.1918 0
M  V30 1971 H 181.014 -5.79438 -0.975966 0
M  V30 1972 H 182.538 -5.80012 -1.90838 0
M  V30 1973 H 183.952 -5.72158 0.361702 0
M  V30 1974 H 182.349 -5.89286 1.13413 0
M  V30 1975 H 183.419 -4.56796 1.62683 0
M  V30 1976 N 184.763 -0.387143 -1.52771 0
M  V30 1977 C 185.726 0.436939 -2.24997 0
M  V30 1978 C 186.726 0.991991 -1.26555 0
M  V30 1979 O 187.916 0.874335 -1.50669 0
M  V30 1980 C 185.048 1.61281 -3.00335 0
M  V30 1981 H 186.241 -0.195365 -2.99263 0
M  V30 1982 H 183.794 -0.139218 -1.55679 0
M  V30 1983 H 184.529 2.2826 -2.30364 0
M  V30 1984 H 184.314 1.22154 -3.72587 0
M  V30 1985 H 185.804 2.19629 -3.5518 0
M  V30 1986 N 186.241 1.57166 -0.116904 0
M  V30 1987 C 187.171 2.18222 0.830759 0
M  V30 1988 C 188.152 1.12167 1.27877 0
M  V30 1989 O 189.337 1.40394 1.34176 0
M  V30 1990 C 186.467 2.77996 2.08172 0
M  V30 1991 C 185.421 3.89614 1.77157 0
M  V30 1992 C 184.747 4.36187 3.09265 0
M  V30 1993 C 186.047 5.1181 1.04151 0
M  V30 1994 H 187.741 2.97664 0.321992 0
M  V30 1995 H 185.287 1.4318 0.153434 0
M  V30 1996 H 187.24 3.19366 2.74924 0
M  V30 1997 H 185.964 1.9584 2.6137 0
M  V30 1998 H 184.623 3.48816 1.12796 0
M  V30 1999 H 184.271 3.50893 3.60393 0
M  V30 2000 H 183.971 5.11455 2.89288 0
M  V30 2001 H 185.495 4.80207 3.77139 0
M  V30 2002 H 186.909 5.50214 1.61052 0
M  V30 2003 H 185.306 5.92648 0.942762 0
M  V30 2004 H 186.376 4.84892 0.0279022 0
M  V30 2005 N 187.719 -0.156864 1.56817 0
M  V30 2006 C 189.13 -0.717916 1.72345 0
M  V30 2007 C 189.481 -1.82124 0.729747 0
M  V30 2008 O 188.606 -2.16141 -0.105781 0
M  V30 2009 C 189.201 -1.30904 3.12489 0
M  V30 2010 C 187.76 -1.81676 3.29653 0
M  V30 2011 C 186.907 -0.701349 2.68284 0
M  V30 2012 H 189.858 0.0686989 1.58551 0
M  V30 2013 H 189.879 -2.17882 3.11942 0
M  V30 2014 H 189.391 -0.505796 3.8479 0
M  V30 2015 H 187.492 -2.64598 2.62333 0
M  V30 2016 H 187.605 -1.95226 4.3752 0
M  V30 2017 H 185.969 -1.12548 2.28484 0
M  V30 2018 H 186.752 0.0902846 3.43181 0
M  V30 2019 N 189.197 -1.51736 -0.425897 0
M  V30 2020 C 190.129 -1.70083 -1.53638 0
M  V30 2021 C 191.142 -0.581349 -1.52066 0
M  V30 2022 O 192.331 -0.856017 -1.56635 0
M  V30 2023 C 189.431 -1.71078 -2.9255 0
M  V30 2024 C 188.604 -2.99795 -3.185 0
M  V30 2025 C 187.663 -2.92825 -4.37196 0
M  V30 2026 O 186.689 -3.66756 -4.35291 0
M  V30 2027 N 187.891 -2.0946 -5.41393 0
M  V30 2028 H 190.656 -2.65882 -1.383 0
M  V30 2029 H 188.217 -1.49765 -0.614988 0
M  V30 2030 H 190.209 -1.63969 -3.69995 0
M  V30 2031 H 188.779 -0.828242 -3.01428 0
M  V30 2032 H 187.999 -3.20684 -2.2925 0
M  V30 2033 H 189.287 -3.84977 -3.32671 0
M  V30 2034 H 188.685 -1.48792 -5.45781 0
M  V30 2035 H 187.242 -2.08221 -6.17647 0
M  V30 2036 N 190.675 0.682077 -1.42076 0
M  V30 2037 C 192.086 1.26246 -1.37546 0
M  V30 2038 C 192.437 1.96092 -0.0651481 0
M  V30 2039 O 191.562 1.99587 0.836297 0
M  V30 2040 C 192.157 2.29594 -2.49143 0
M  V30 2041 C 190.716 2.83175 -2.47969 0
M  V30 2042 C 189.863 1.57395 -2.28303 0
M  V30 2043 H 192.814 0.475937 -1.51395 0
M  V30 2044 H 192.835 3.11175 -2.18976 0
M  V30 2045 H 192.347 1.78729 -3.44496 0
M  V30 2046 H 190.448 3.3818 -1.56413 0
M  V30 2047 H 190.561 3.32687 -3.44755 0
M  V30 2048 H 188.925 1.83699 -1.76428 0
M  V30 2049 H 189.708 1.08507 -3.25701 0
M  V30 2050 N 192.153 1.28127 0.917671 0
M  V30 2051 C 193.564 1.13622 1.48145 0
M  V30 2052 C 193.915 -0.275207 1.9426 0
M  V30 2053 O 193.04 -1.1691 1.82102 0
M  V30 2054 C 193.635 2.05648 2.69248 0
M  V30 2055 C 192.194 1.95219 3.21818 0
M  V30 2056 C 191.341 1.97618 1.94532 0
M  V30 2057 H 194.292 1.40874 0.730772 0
M  V30 2058 H 194.313 1.61818 3.44377 0
M  V30 2059 H 193.825 3.08365 2.35653 0
M  V30 2060 H 191.926 0.955244 3.60147 0
M  V30 2061 H 192.039 2.81976 3.87333 0
M  V30 2062 H 190.403 1.41973 2.11461 0
M  V30 2063 H 191.186 3.02007 1.63238 0
M  V30 2064 N 193.631 -1.12557 1.10312 0
M  V30 2065 C 195.042 -1.65574 0.862678 0
M  V30 2066 C 195.393 -1.86566 -0.607256 0
M  V30 2067 O 194.518 -1.59121 -1.46662 0
M  V30 2068 C 195.113 -3.00776 1.55947 0
M  V30 2069 C 193.672 -3.50748 1.36576 0
M  V30 2070 C 192.819 -2.25797 1.60968 0
M  V30 2071 H 195.77 -0.963552 1.26101 0
M  V30 2072 H 195.791 -3.67185 0.997753 0
M  V30 2073 H 195.303 -2.85465 2.62928 0
M  V30 2074 H 193.404 -3.71245 0.317531 0
M  V30 2075 H 193.517 -4.30289 2.10686 0
M  V30 2076 H 191.881 -2.32841 1.03234 0
M  V30 2077 H 192.664 -2.13043 2.69198 0
M  V30 2078 N 195.109 -0.891671 -1.2995 0
M  V30 2079 C 196.386 -0.433307 -1.9074 0
M  V30 2080 C 196.766 1.08646 -1.80995 0
M  V30 2081 O 196.114 1.92476 -1.23147 0
M  V30 2082 C 196.324 -0.938895 -3.36134 0
M  V30 2083 C 197.672 -0.977829 -4.13187 0
M  V30 2084 O 198.696 -0.886015 -3.45005 0
M  V30 2085 O 197.555 -1.11453 -5.35015 0
M  V30 2086 H 194.649 -0.133699 -0.816121 0
M  V30 2087 H 197.195 -0.981011 -1.38471 0
M  V30 2088 H 195.967 -1.98281 -3.37343 0
M  V30 2089 H 195.59 -0.37074 -3.95868 0
M  V30 2090 N 196.587 1.43421 -0.653314 0
M  V30 2091 C 197.998 1.85065 -0.246537 0
M  V30 2092 C 198.349 1.54688 1.2069 0
M  V30 2093 O 197.474 0.995896 1.92122 0
M  V30 2094 C 198.069 3.35922 -0.440666 0
M  V30 2095 C 196.628 3.76297 -0.0882064 0
M  V30 2096 C 195.775 2.67147 -0.743484 0
M  V30 2097 H 198.726 1.33572 -0.856979 0
M  V30 2098 H 198.747 3.79204 0.313798 0
M  V30 2099 H 198.259 3.58 -1.49858 0
M  V30 2100 H 196.36 3.5983 0.96711 0
M  V30 2101 H 196.473 4.76338 -0.513738 0
M  V30 2102 H 194.837 2.54086 -0.176712 0
M  V30 2103 H 195.62 2.92053 -1.80443 0
M  V30 2104 N 198.065 0.39524 1.52563 0
M  V30 2105 C 199.476 -0.0774719 1.86539 0
M  V30 2106 C 199.827 -1.45641 1.31466 0
M  V30 2107 O 198.952 -2.06459 0.648367 0
M  V30 2108 C 199.547 -0.147356 3.38479 0
M  V30 2109 C 198.106 -0.564373 3.72145 0
M  V30 2110 C 197.253 0.269919 2.75983 0
M  V30 2111 H 200.204 0.612876 1.46388 0
M  V30 2112 H 200.225 -0.965343 3.68051 0
M  V30 2113 H 199.737 0.856387 3.78534 0
M  V30 2114 H 197.838 -1.57527 3.37663 0
M  V30 2115 H 197.951 -0.318402 4.78041 0
M  V30 2116 H 196.315 -0.265696 2.5331 0
M  V30 2117 H 197.098 1.27175 3.18875 0
M  V30 2118 N 199.544 -1.57102 0.125237 0
M  V30 2119 C 200.507 -2.14471 -0.80838 0
M  V30 2120 C 201.507 -1.0811 -1.19033 0
M  V30 2121 O 202.697 -1.33856 -1.11482 0
M  V30 2122 C 199.829 -2.69005 -2.09402 0
M  V30 2123 H 201.022 -2.98297 -0.309696 0
M  V30 2124 H 198.575 -1.55807 -0.124051 0
M  V30 2125 H 199.31 -1.88785 -2.63687 0
M  V30 2126 H 199.095 -3.46799 -1.82957 0
M  V30 2127 H 200.585 -3.13278 -2.76128 0
M  V30 2128 N 201.022 0.148545 -1.56898 0
M  V30 2129 C 202.433 0.708766 -1.72723 0
M  V30 2130 C 202.784 1.81734 -0.739395 0
M  V30 2131 O 201.909 2.16194 0.0943169 0
M  V30 2132 C 202.504 1.29245 -3.13179 0
M  V30 2133 C 201.063 1.79925 -3.30611 0
M  V30 2134 C 200.21 0.687111 -2.68652 0
M  V30 2135 H 203.161 -0.0771063 -1.58513 0
M  V30 2136 H 203.182 2.16224 -3.13093 0
M  V30 2137 H 202.694 0.485382 -3.85053 0
M  V30 2138 H 200.795 2.63203 -2.63732 0
M  V30 2139 H 200.908 1.92903 -4.38549 0
M  V30 2140 H 199.272 1.11335 -2.29078 0
M  V30 2141 H 200.055 -0.108483 -3.43129 0
M  V30 2142 N 202.5 1.5196 0.417844 0
M  V30 2143 C 203.911 1.57851 0.997 0
M  V30 2144 C 204.262 0.413714 1.91789 0
M  V30 2145 O 203.387 -0.467057 2.113 0
M  V30 2146 C 203.982 2.86085 1.81496 0
M  V30 2147 C 202.541 2.94483 2.34428 0
M  V30 2148 C 201.688 2.52707 1.14169 0
M  V30 2149 H 204.639 1.57455 0.198392 0
M  V30 2150 H 204.66 2.70947 2.67148 0
M  V30 2151 H 204.172 3.70842 1.14446 0
M  V30 2152 H 202.273 2.142 3.04875 0
M  V30 2153 H 202.386 3.98546 2.65891 0
M  V30 2154 H 200.75 2.06353 1.49301 0
M  V30 2155 H 201.533 3.39828 0.486999 0
M  V30 2156 N 203.978 -0.674533 1.42435 0
M  V30 2157 C 204.908 -1.80009 1.48724 0
M  V30 2158 C 205.889 -1.6659 0.343793 0
M  V30 2159 O 207.074 -1.86007 0.558137 0
M  V30 2160 C 204.204 -3.18306 1.38919 0
M  V30 2161 C 203.158 -3.46461 2.51294 0
M  V30 2162 C 202.484 -4.84335 2.26547 0
M  V30 2163 C 203.784 -3.43328 3.93603 0
M  V30 2164 H 205.478 -1.75004 2.42928 0
M  V30 2165 H 203.024 -0.840533 1.16923 0
M  V30 2166 H 204.977 -3.9678 1.41927 0
M  V30 2167 H 203.701 -3.2399 0.412094 0
M  V30 2168 H 202.36 -2.70348 2.47604 0
M  V30 2169 H 202.008 -4.86669 1.2713 0
M  V30 2170 H 201.708 -5.04136 3.01861 0
M  V30 2171 H 203.232 -5.65094 2.31304 0
M  V30 2172 H 204.646 -4.11772 3.98894 0
M  V30 2173 H 203.043 -3.74664 4.68771 0
M  V30 2174 H 204.113 -2.41897 4.20255 0
M  V30 2175 N 205.456 -1.28612 -0.910864 0
M  V30 2176 C 206.419 -1.12803 -1.9952 0
M  V30 2177 C 207.419 -0.0668264 -1.60661 0
M  V30 2178 O 208.609 -0.312847 -1.71368 0
M  V30 2179 C 205.741 -0.72254 -3.33155 0
M  V30 2180 H 206.934 -2.09109 -2.14973 0
M  V30 2181 H 204.487 -1.11639 -1.09391 0
M  V30 2182 H 205.222 0.241152 -3.23402 0
M  V30 2183 H 205.007 -1.48916 -3.62721 0
M  V30 2184 H 206.497 -0.634666 -4.12749 0
M  V30 2185 N 206.934 1.1197 -1.10907 0
M  V30 2186 C 208.345 1.65114 -0.871446 0
M  V30 2187 C 208.696 1.86885 0.597353 0
M  V30 2188 O 207.821 1.59896 1.45816 0
M  V30 2189 C 208.416 2.99944 -1.5754 0
M  V30 2190 C 206.975 3.50018 -1.38435 0
M  V30 2191 C 206.122 2.24941 -1.62164 0
M  V30 2192 H 209.073 0.956851 -1.2661 0
M  V30 2193 H 209.094 3.66651 -1.01721 0
M  V30 2194 H 208.606 2.84067 -2.64438 0
M  V30 2195 H 206.707 3.71071 -0.337214 0
M  V30 2196 H 206.82 4.29165 -2.12965 0
M  V30 2197 H 205.184 2.3229 -1.04467 0
M  V30 2198 H 205.967 2.11612 -2.70324 0
M  V30 2199 N 208.412 0.89855 1.29475 0
M  V30 2200 C 209.823 0.572537 1.77705 0
M  V30 2201 C 210.174 -0.911778 1.73727 0
M  V30 2202 O 209.299 -1.71288 1.32247 0
M  V30 2203 C 209.894 1.03252 3.22683 0
M  V30 2204 C 208.453 0.757687 3.68695 0
M  V30 2205 C 207.6 1.20787 2.49612 0
M  V30 2206 H 210.551 1.08139 1.16153 0
M  V30 2207 H 210.572 0.367307 3.78723 0
M  V30 2208 H 210.084 2.11285 3.25546 0
M  V30 2209 H 208.185 -0.310079 3.71308 0
M  V30 2210 H 208.298 1.35476 4.59547 0
M  V30 2211 H 206.662 0.626888 2.46865 0
M  V30 2212 H 207.445 2.29622 2.55203 0
M  V30 2213 N 209.89 -1.43072 0.660911 0
M  V30 2214 C 211.115 -2.06584 0.183805 0
M  V30 2215 C 211.54 -1.49257 -1.14472 0
M  V30 2216 O 210.898 -0.605528 -1.70889 0
M  V30 2217 C 210.946 -3.60418 0.114434 0
M  V30 2218 O 210.05 -4.01981 -0.921137 0
M  V30 2219 H 209.391 -0.656669 0.0983994 0
M  V30 2220 H 211.921 -1.83447 0.906006 0
M  V30 2221 H 211.931 -4.07946 -0.0663394 0
M  V30 2222 H 210.606 -4.01519 1.08422 0
M  V30 2223 H 209.183 -3.66029 -0.71253 0
M  V30 2224 N 211.368 -0.403325 -1.52352 0
M  V30 2225 C 212.593 0.176499 -2.06648 0
M  V30 2226 C 213.018 1.38577 -1.27193 0
M  V30 2227 O 212.376 1.7879 -0.300637 0
M  V30 2228 C 212.424 0.511061 -3.5696 0
M  V30 2229 O 211.528 1.60294 -3.79973 0
M  V30 2230 H 210.869 0.0167337 -0.663789 0
M  V30 2231 H 213.399 -0.574848 -1.96359 0
M  V30 2232 H 213.409 0.771362 -4.00642 0
M  V30 2233 H 212.084 -0.37296 -4.14224 0
M  V30 2234 H 210.661 1.33526 -3.48174 0
M  V30 2235 N 212.846 1.57033 -0.133567 0
M  V30 2236 C 213.809 2.14897 0.796995 0
M  V30 2237 C 214.809 1.0874 1.18458 0
M  V30 2238 O 215.999 1.34446 1.1077 0
M  V30 2239 C 213.131 2.70112 2.07973 0
M  V30 2240 H 214.324 2.98457 0.293873 0
M  V30 2241 H 211.877 1.55871 0.115787 0
M  V30 2242 H 212.612 1.9018 2.62682 0
M  V30 2243 H 212.397 3.47764 1.81115 0
M  V30 2244 H 213.887 3.14738 2.74462 0
M  V30 2245 N 214.325 -0.140222 1.56975 0
M  V30 2246 C 215.571 -0.848084 1.84876 0
M  V30 2247 C 215.926 -1.78481 0.718481 0
M  V30 2248 O 215.219 -1.89497 -0.283093 0
M  V30 2249 C 215.413 -1.65386 3.16832 0
M  V30 2250 C 215.242 -0.79665 4.42587 0
M  V30 2251 C 214.012 -0.459648 5.03205 0
M  V30 2252 C 216.21 -0.12389 5.14151 0
M  V30 2253 N 214.192 0.410446 6.12526 0
M  V30 2254 C 215.563 0.606064 6.17031 0
M  V30 2255 C 217.618 -0.0452654 4.97879 0
M  V30 2256 C 216.321 1.40723 7.054 0
M  V30 2257 C 218.347 0.742658 5.86718 0
M  V30 2258 C 217.709 1.46087 6.89085 0
M  V30 2259 H 213.808 -0.287946 0.727056 0
M  V30 2260 H 216.392 -0.11304 1.94372 0
M  V30 2261 H 214.563 -2.36009 3.08471 0
M  V30 2262 H 216.295 -2.30541 3.32615 0
M  V30 2263 H 213.05 -0.797006 4.66846 0
M  V30 2264 H 213.474 0.836716 6.7181 0
M  V30 2265 H 218.116 -0.586184 4.18717 0
M  V30 2266 H 215.834 1.95938 7.83986 0
M  V30 2267 H 219.42 0.805574 5.76196 0
M  V30 2268 H 218.3 2.06077 7.56639 0
M  V30 2269 N 215.803 -1.52179 -0.40978 0
M  V30 2270 C 217.051 -1.65878 -1.15451 0
M  V30 2271 C 217.372 -0.390771 -1.91044 0
M  V30 2272 O 216.642 0.594323 -1.86667 0
M  V30 2273 H 215.222 -0.611405 -0.429177 0
M  V30 2274 H 217.884 -1.89219 -0.467134 0
M  V30 2275 H 216.98 -2.49954 -1.86894 0
M  V30 2276 N 217.281 0.66697 -1.42791 0
M  V30 2277 C 218.529 1.42417 -1.43394 0
M  V30 2278 C 218.85 1.94925 -0.0542373 0
M  V30 2279 O 218.12 1.73564 0.908415 0
M  V30 2280 H 216.7 0.528515 -0.527902 0
M  V30 2281 H 219.362 0.787562 -1.78279 0
M  V30 2282 H 218.458 2.27333 -2.13837 0
M  V30 2283 N 218.759 1.29093 0.90403 0
M  V30 2284 C 220.008 1.16187 1.64874 0
M  V30 2285 C 220.321 -0.286742 1.93487 0
M  V30 2286 O 221.527 -0.537062 2.66135 0
M  V30 2287 C 219.983 2.03177 2.97064 0
M  V30 2288 C 219.591 3.52836 2.76062 0
M  V30 2289 C 221.335 1.98984 3.74974 0
M  V30 2290 C 219.242 4.31945 4.03952 0
M  V30 2291 H 218.172 0.431246 0.618501 0
M  V30 2292 H 220.823 1.53699 1.00243 0
M  V30 2293 H 219.205 1.5853 3.62883 0
M  V30 2294 H 220.379 4.05507 2.18863 0
M  V30 2295 H 218.694 3.58656 2.11553 0
M  V30 2296 H 221.291 2.55351 4.69787 0
M  V30 2297 H 221.634 0.968815 4.0487 0
M  V30 2298 H 222.167 2.41652 3.15989 0
M  V30 2299 H 218.906 5.34667 3.79225 0
M  V30 2300 H 218.426 3.84045 4.60727 0
M  V30 2301 H 220.105 4.42379 4.72133 0
M  V30 2302 N 220.237 -1.11381 1.11499 0
M  V30 2303 C 221.653 -1.35143 0.849031 0
M  V30 2304 C 221.853 -1.94515 -0.525938 0
M  V30 2305 O 220.909 -2.1785 -1.27662 0
M  V30 2306 C 222.222 -2.28249 1.95762 0
M  V30 2307 C 223.77 -2.41812 1.98736 0
M  V30 2308 C 224.245 -3.3824 3.088 0
M  V30 2309 N 225.736 -3.45803 3.08179 0
M  V30 2310 C 226.471 -4.20358 3.89982 0
M  V30 2311 N 225.967 -4.97884 4.8175 0
M  V30 2312 N 227.76 -4.15877 3.78157 0
M  V30 2313 H 219.911 -0.712062 2.00109 0
M  V30 2314 H 222.174 -0.376025 0.870235 0
M  V30 2315 H 221.88 -1.91817 2.94787 0
M  V30 2316 H 221.754 -3.28473 1.85433 0
M  V30 2317 H 224.141 -2.77518 1.00338 0
M  V30 2318 H 224.222 -1.41437 2.13141 0
M  V30 2319 H 223.866 -3.03261 4.07425 0
M  V30 2320 H 223.796 -4.38471 2.91635 0
M  V30 2321 H 226.287 -2.90506 2.41691 0
M  V30 2322 H 226.6 -5.52142 5.40702 0
M  V30 2323 H 224.945 -4.97043 4.85771 0
M  V30 2324 H 228.136 -3.544 3.05808 0
M  V30 2325 H 228.309 -4.73723 4.42143 0
M  V30 2326 N 221.715 -0.905404 -1.28997 0
M  V30 2327 C 222.678 -0.392253 -2.25819 0
M  V30 2328 C 223.678 0.476753 -1.5357 0
M  V30 2329 O 224.868 0.280994 -1.71919 0
M  V30 2330 C 222 0.438588 -3.38067 0
M  V30 2331 H 223.193 -1.24743 -2.72725 0
M  V30 2332 H 220.746 -0.684051 -1.40536 0
M  V30 2333 H 221.481 1.31352 -2.96508 0
M  V30 2334 H 221.266 -0.184167 -3.91667 0
M  V30 2335 H 222.756 0.78873 -4.10084 0
M  V30 2336 N 223.193 1.4272 -0.668489 0
M  V30 2337 C 224.156 2.292 0.00448567 0
M  V30 2338 C 225.156 1.43001 0.735339 0
M  V30 2339 O 226.346 1.64461 0.57429 0
M  V30 2340 C 223.478 3.25375 1.01705 0
M  V30 2341 H 224.671 2.90199 -0.756608 0
M  V30 2342 H 222.224 1.50254 -0.430506 0
M  V30 2343 H 222.959 2.69301 1.80686 0
M  V30 2344 H 222.744 3.88944 0.496463 0
M  V30 2345 H 224.234 3.90245 1.48655 0
M  V30 2346 N 224.671 0.411399 1.52136 0
M  V30 2347 C 225.621 -0.430376 2.23901 0
M  V30 2348 C 226.605 -1.0116 1.25121 0
M  V30 2349 O 227.797 -0.934044 1.50348 0
M  V30 2350 C 224.926 -1.54527 3.06556 0
M  V30 2351 C 224.012 -0.9747 4.12747 0
M  V30 2352 N 224.403 -0.130991 5.0563 0
M  V30 2353 C 222.701 -1.24497 4.28271 0
M  V30 2354 C 223.402 0.186689 5.814 0
M  V30 2355 N 222.378 -0.42304 5.41951 0
M  V30 2356 H 226.18 0.220509 2.93072 0
M  V30 2357 H 223.694 0.221952 1.60876 0
M  V30 2358 H 225.691 -2.16093 3.56524 0
M  V30 2359 H 224.351 -2.19875 2.38925 0
M  V30 2360 H 225.362 0.23349 5.17373 0
M  V30 2361 H 222.039 -1.89787 3.7187 0
M  V30 2362 H 223.429 0.871673 6.66222 0
M  V30 2363 N 226.149 -1.5696 0.141893 0
M  V30 2364 C 227.112 -2.15316 -0.785587 0
M  V30 2365 C 228.112 -1.09366 -1.1788 0
M  V30 2366 O 229.302 -1.35031 -1.10056 0
M  V30 2367 C 226.434 -2.71211 -2.06537 0
M  V30 2368 H 227.627 -2.98608 -0.278041 0
M  V30 2369 H 225.18 -1.5593 -0.107519 0
M  V30 2370 H 225.915 -1.91571 -2.6167 0
M  V30 2371 H 225.7 -3.4872 -1.79268 0
M  V30 2372 H 227.19 -3.16189 -2.72789 0
M  V30 2373 N 227.627 0.131896 -1.57047 0
M  V30 2374 C 228.876 0.84044 -1.83356 0
M  V30 2375 C 229.189 1.81646 -0.725535 0
M  V30 2376 O 230.395 2.57025 -0.874659 0
M  V30 2377 C 228.851 1.54528 -3.25037 0
M  V30 2378 C 228.459 0.610902 -4.43815 0
M  V30 2379 C 230.203 2.23972 -3.60606 0
M  V30 2380 C 228.11 1.31823 -5.76521 0
M  V30 2381 H 227.04 0.317599 -0.683847 0
M  V30 2382 H 229.691 0.0931561 -1.83263 0
M  V30 2383 H 228.073 2.33873 -3.19561 0
M  V30 2384 H 229.247 -0.148407 -4.60561 0
M  V30 2385 H 227.562 0.0241016 -4.16393 0
M  V30 2386 H 230.159 2.77558 -4.57018 0
M  V30 2387 H 230.502 3.01173 -2.87403 0
M  V30 2388 H 231.035 1.51529 -3.6781 0
M  V30 2389 H 227.774 0.587771 -6.52859 0
M  V30 2390 H 227.294 2.04987 -5.63685 0
M  V30 2391 H 228.973 1.855 -6.19838 0
M  V30 2392 N 229.106 1.52395 0.401703 0
M  V30 2393 C 230.036 1.79231 1.49661 0
M  V30 2394 C 231.017 0.643654 1.57452 0
M  V30 2395 O 232.202 0.889989 1.72606 0
M  V30 2396 C 229.332 1.94971 2.87409 0
M  V30 2397 C 228.286 3.10604 2.94465 0
M  V30 2398 C 227.612 3.11577 4.34538 0
M  V30 2399 C 228.912 4.49921 2.6527 0
M  V30 2400 H 230.606 2.70917 1.27454 0
M  V30 2401 H 228.152 1.30362 0.6117 0
M  V30 2402 H 230.105 2.12328 3.63999 0
M  V30 2403 H 228.829 0.999632 3.10926 0
M  V30 2404 H 227.488 2.93009 2.20321 0
M  V30 2405 H 227.136 2.14277 4.55076 0
M  V30 2406 H 226.836 3.89247 4.40183 0
M  V30 2407 H 228.36 3.31073 5.13053 0
M  V30 2408 H 229.774 4.67683 3.31581 0
M  V30 2409 H 228.171 5.29564 2.82281 0
M  V30 2410 H 229.241 4.57507 1.60671 0
M  V30 2411 N 230.584 -0.659388 1.43143 0
M  V30 2412 C 231.832 -1.41654 1.44147 0
M  V30 2413 C 232.153 -1.94893 0.0645739 0
M  V30 2414 O 231.423 -1.74044 -0.899198 0
M  V30 2415 H 230.003 -0.525708 0.530697 0
M  V30 2416 H 232.665 -0.778097 1.78694 0
M  V30 2417 H 231.761 -2.26195 2.1504 0
M  V30 2418 N 232.062 -1.29571 -0.897171 0
M  V30 2419 C 233.31 -1.17456 -1.64464 0
M  V30 2420 C 233.631 0.273698 -1.9307 0
M  V30 2421 O 232.901 1.18684 -1.55855 0
M  V30 2422 H 231.481 -0.431706 -0.609622 0
M  V30 2423 H 234.143 -1.62531 -1.07562 0
M  V30 2424 H 233.239 -1.72648 -2.59998 0
M  V30 2425 N 233.54 1.10788 -1.12088 0
M  V30 2426 C 234.47 2.19083 -0.807755 0
M  V30 2427 C 235.451 1.6858 0.226859 0
M  V30 2428 O 236.636 1.93997 0.0888475 0
M  V30 2429 C 233.766 3.46344 -0.257576 0
M  V30 2430 C 232.72 4.101 -1.22483 0
M  V30 2431 C 232.046 5.32016 -0.535052 0
M  V30 2432 C 233.346 4.54236 -2.57811 0
M  V30 2433 H 235.04 2.45534 -1.71328 0
M  V30 2434 H 232.586 1.1801 -0.825205 0
M  V30 2435 H 234.539 4.21392 -0.0262679 0
M  V30 2436 H 233.263 3.19373 0.683278 0
M  V30 2437 H 231.922 3.37054 -1.44189 0
M  V30 2438 H 231.57 5.01319 0.410827 0
M  V30 2439 H 231.27 5.75625 -1.18024 0
M  V30 2440 H 232.794 6.09799 -0.312695 0
M  V30 2441 H 234.208 5.20575 -2.40155 0
M  V30 2442 H 232.605 5.08682 -3.18375 0
M  V30 2443 H 233.675 3.6734 -3.16528 0
M  V30 2444 N 235.018 0.912232 1.28515 0
M  V30 2445 C 235.968 0.370649 2.24967 0
M  V30 2446 C 236.952 -0.516375 1.52389 0
M  V30 2447 O 238.144 -0.356345 1.73376 0
M  V30 2448 C 235.273 -0.389526 3.41083 0
M  V30 2449 C 234.359 0.51313 4.20984 0
M  V30 2450 N 234.75 1.62604 4.78951 0
M  V30 2451 C 233.048 0.313235 4.44899 0
M  V30 2452 C 233.749 2.18619 5.39055 0
M  V30 2453 N 232.725 1.47765 5.23132 0
M  V30 2454 H 236.527 1.22061 2.67354 0
M  V30 2455 H 234.041 0.764712 1.43269 0
M  V30 2456 H 236.038 -0.794353 4.09262 0
M  V30 2457 H 234.698 -1.2366 3.0023 0
M  V30 2458 H 235.709 2.00864 4.77362 0
M  V30 2459 H 232.386 -0.494452 4.14562 0
M  V30 2460 H 233.776 3.12228 5.94948 0
M  V30 2461 N 236.496 -1.42363 0.676048 0
M  V30 2462 C 237.426 -2.33497 0.0124832 0
M  V30 2463 C 238.407 -1.50748 -0.787981 0
M  V30 2464 O 239.592 -1.79346 -0.744884 0
M  V30 2465 C 236.722 -3.34377 -0.938582 0
M  V30 2466 C 235.676 -4.27289 -0.246622 0
M  V30 2467 C 235.002 -5.18386 -1.31071 0
M  V30 2468 C 236.302 -5.14916 0.875125 0
M  V30 2469 H 237.996 -2.89233 0.773593 0
M  V30 2470 H 235.542 -1.39073 0.37346 0
M  V30 2471 H 237.495 -3.97044 -1.41188 0
M  V30 2472 H 236.219 -2.76947 -1.73113 0
M  V30 2473 H 234.878 -3.66018 0.206456 0
M  V30 2474 H 234.526 -4.57282 -2.09528 0
M  V30 2475 H 234.226 -5.81378 -0.852839 0
M  V30 2476 H 235.75 -5.83929 -1.78492 0
M  V30 2477 H 237.164 -5.71262 0.482983 0
M  V30 2478 H 235.561 -5.86747 1.25887 0
M  V30 2479 H 236.631 -4.53242 1.72335 0
M  V30 2480 N 237.974 -0.419461 -1.51915 0
M  V30 2481 C 239.202 0.152136 -2.0634 0
M  V30 2482 C 239.617 1.37988 -1.28859 0
M  V30 2483 O 238.974 1.79243 -0.343232 0
M  V30 2484 C 239.025 0.492266 -3.58133 0
M  V30 2485 O 238.746 -0.686736 -4.32684 0
M  V30 2486 C 240.247 1.11648 -4.2901 0
M  V30 2487 H 237.467 0.0158325 -0.670813 0
M  V30 2488 H 240.011 -0.593394 -1.95702 0
M  V30 2489 H 238.166 1.18769 -3.68745 0
M  V30 2490 H 238.58 -0.400341 -5.2297 0
M  V30 2491 H 240.054 1.3046 -5.36362 0
M  V30 2492 H 240.531 2.09251 -3.86148 0
M  V30 2493 H 241.137 0.460958 -4.22795 0
M  V30 2494 N 239.452 1.56882 -0.150215 0
M  V30 2495 C 240.382 2.19935 0.784284 0
M  V30 2496 C 241.363 1.14854 1.25469 0
M  V30 2497 O 242.548 1.43209 1.31168 0
M  V30 2498 C 239.678 2.82349 2.02229 0
M  V30 2499 C 238.632 3.93285 1.68853 0
M  V30 2500 C 237.958 4.42649 2.99944 0
M  V30 2501 C 239.258 5.13904 0.932714 0
M  V30 2502 H 240.952 2.9828 0.258781 0
M  V30 2503 H 238.498 1.43473 0.123029 0
M  V30 2504 H 240.451 3.25126 2.68088 0
M  V30 2505 H 239.175 2.0134 2.57157 0
M  V30 2506 H 237.834 3.5113 1.05371 0
M  V30 2507 H 237.482 3.58458 3.52869 0
M  V30 2508 H 237.182 5.17476 2.78374 0
M  V30 2509 H 238.706 4.88099 3.66868 0
M  V30 2510 H 240.12 5.53506 1.49345 0
M  V30 2511 H 238.517 5.94515 0.81684 0
M  V30 2512 H 239.587 4.84842 -0.0749568 0
M  V30 2513 N 240.93 -0.123565 1.57115 0
M  V30 2514 C 242.207 -0.862196 1.75572 0
M  V30 2515 C 242.587 -1.98279 0.724475 0
M  V30 2516 O 241.935 -2.27102 -0.252407 0
M  V30 2517 C 242.145 -1.38309 3.20424 0
M  V30 2518 C 243.493 -1.83724 3.82793 0
M  V30 2519 O 244.517 -1.47999 3.23998 0
M  V30 2520 O 243.376 -2.49685 4.86127 0
M  V30 2521 H 240.47 -0.409113 0.718718 0
M  V30 2522 H 243.016 -0.107661 1.69358 0
M  V30 2523 H 241.788 -0.578889 3.86994 0
M  V30 2524 H 241.411 -2.20046 3.31158 0
M  V30 2525 N 242.408 -1.52605 -0.393616 0
M  V30 2526 C 243.654 -1.68624 -1.13743 0
M  V30 2527 C 244.009 -0.418687 -1.87789 0
M  V30 2528 O 243.302 0.58747 -1.82371 0
M  V30 2529 C 243.496 -2.85721 -2.14705 0
M  V30 2530 C 243.325 -4.23742 -1.50575 0
M  V30 2531 C 242.095 -4.89033 -1.2718 0
M  V30 2532 C 244.293 -5.05293 -0.958311 0
M  V30 2533 N 242.275 -6.11048 -0.591058 0
M  V30 2534 C 243.646 -6.18673 -0.405367 0
M  V30 2535 C 245.701 -4.90517 -0.854274 0
M  V30 2536 C 244.404 -7.18895 0.241434 0
M  V30 2537 C 246.43 -5.90986 -0.221301 0
M  V30 2538 C 245.792 -7.03669 0.320894 0
M  V30 2539 H 241.891 -0.670556 -0.402342 0
M  V30 2540 H 244.475 -1.89946 -0.427607 0
M  V30 2541 H 242.646 -2.65987 -2.83029 0
M  V30 2542 H 244.378 -2.90699 -2.8156 0
M  V30 2543 H 241.133 -4.47672 -1.54554 0
M  V30 2544 H 241.557 -6.76474 -0.266862 0
M  V30 2545 H 246.199 -4.03612 -1.25926 0
M  V30 2546 H 243.917 -8.05413 0.658448 0
M  V30 2547 H 247.503 -5.81626 -0.142111 0
M  V30 2548 H 246.383 -7.80078 0.802956 0
M  V30 2549 N 243.887 0.651787 -1.4349 0
M  V30 2550 C 244.85 1.74647 -1.48429 0
M  V30 2551 C 245.85 1.56513 -0.368817 0
M  V30 2552 O 247.04 1.62385 -0.630623 0
M  V30 2553 C 244.172 3.13533 -1.33827 0
M  V30 2554 H 245.365 1.71649 -2.4592 0
M  V30 2555 H 242.918 0.863573 -1.30277 0
M  V30 2556 H 243.653 3.22142 -0.37349 0
M  V30 2557 H 243.438 3.28101 -2.14691 0
M  V30 2558 H 244.928 3.93356 -1.40218 0
M  V30 2559 N 245.365 1.30045 0.890287 0
M  V30 2560 C 246.611 1.18737 1.64406 0
M  V30 2561 C 246.944 -0.258525 1.92472 0
M  V30 2562 O 246.219 -1.18562 1.54186 0
M  V30 2563 C 246.502 2.01087 2.98724 0
M  V30 2564 C 246.355 3.53867 2.77665 0
M  V30 2565 C 247.674 1.84457 3.9958 0
M  V30 2566 H 244.793 0.432698 0.596608 0
M  V30 2567 H 247.435 1.5962 1.0306 0
M  V30 2568 H 245.585 1.66349 3.51084 0
M  V30 2569 H 247.257 3.98637 2.32133 0
M  V30 2570 H 245.5 3.78318 2.12269 0
M  V30 2571 H 246.171 4.06772 3.7315 0
M  V30 2572 H 248.647 2.14817 3.56361 0
M  V30 2573 H 247.523 2.44411 4.91482 0
M  V30 2574 H 247.784 0.802276 4.3476 0
M  V30 2575 N 246.843 -1.10192 1.12674 0
M  V30 2576 C 248.259 -1.34235 0.863317 0
M  V30 2577 C 248.459 -1.95062 -0.505277 0
M  V30 2578 O 247.515 -2.19192 -1.25345 0
M  V30 2579 C 248.828 -2.2616 1.98172 0
M  V30 2580 C 250.376 -2.3969 2.0129 0
M  V30 2581 C 250.851 -3.34946 3.1237 0
M  V30 2582 N 252.342 -3.42515 3.11829 0
M  V30 2583 C 253.077 -4.16199 3.94419 0
M  V30 2584 N 252.573 -4.92747 4.87004 0
M  V30 2585 N 254.366 -4.11843 3.82547 0
M  V30 2586 H 246.517 -0.690798 2.00853 0
M  V30 2587 H 248.78 -0.366774 0.874174 0
M  V30 2588 H 248.486 -1.8868 2.96804 0
M  V30 2589 H 248.36 -3.26488 1.88906 0
M  V30 2590 H 250.747 -2.76438 1.03276 0
M  V30 2591 H 250.828 -1.39169 2.14629 0
M  V30 2592 H 250.472 -2.98923 4.10619 0
M  V30 2593 H 250.402 -4.35353 2.96269 0
M  V30 2594 H 252.893 -2.87926 2.44759 0
M  V30 2595 H 253.206 -5.46376 5.46528 0
M  V30 2596 H 251.551 -4.91862 4.91016 0
M  V30 2597 H 254.742 -3.51136 3.0955 0
M  V30 2598 H 254.915 -4.69007 4.47142 0
M  V30 2599 N 248.321 -0.919034 -1.28029 0
M  V30 2600 C 249.569 -0.553838 -1.94363 0
M  V30 2601 C 249.89 0.906357 -1.72656 0
M  V30 2602 O 249.16 1.64143 -1.0693 0
M  V30 2603 H 247.74 -0.201834 -0.719216 0
M  V30 2604 H 250.402 -1.16954 -1.55909 0
M  V30 2605 H 249.498 -0.752758 -3.02886 0
M  V30 2606 N 249.799 1.42003 -0.683588 0
M  V30 2607 C 250.729 2.33487 -0.024866 0
M  V30 2608 C 251.71 1.51163 0.779975 0
M  V30 2609 O 252.895 1.79739 0.735362 0
M  V30 2610 C 250.025 3.3487 0.920836 0
M  V30 2611 C 248.979 4.27414 0.223958 0
M  V30 2612 C 248.305 5.19074 1.2832 0
M  V30 2613 C 249.605 5.14445 -0.90242 0
M  V30 2614 H 251.299 2.88819 -0.788921 0
M  V30 2615 H 248.845 1.38873 -0.38083 0
M  V30 2616 H 250.798 3.97787 1.39081 0
M  V30 2617 H 249.522 2.77861 1.71642 0
M  V30 2618 H 248.181 3.65904 -0.225864 0
M  V30 2619 H 247.829 4.58387 2.071 0
M  V30 2620 H 247.529 5.81822 0.821995 0
M  V30 2621 H 249.053 5.84867 1.75392 0
M  V30 2622 H 250.467 5.70998 -0.513272 0
M  V30 2623 H 248.864 5.86072 -1.28997 0
M  V30 2624 H 249.934 4.52322 -1.74737 0
M  V30 2625 N 251.277 0.427512 1.51691 0
M  V30 2626 C 252.207 -0.3796 2.30394 0
M  V30 2627 C 253.188 -1.02982 1.35384 0
M  V30 2628 O 254.373 -1.03534 1.643 0
M  V30 2629 C 251.503 -1.48649 3.1388 0
M  V30 2630 C 250.457 -0.960294 4.17088 0
M  V30 2631 C 249.783 -2.16219 4.89033 0
M  V30 2632 C 251.083 -0.00153679 5.223 0
M  V30 2633 H 252.777 0.277164 2.98114 0
M  V30 2634 H 250.323 0.134739 1.43368 0
M  V30 2635 H 252.276 -2.05826 3.67714 0
M  V30 2636 H 251 -2.1714 2.43962 0
M  V30 2637 H 249.659 -0.410806 3.64291 0
M  V30 2638 H 249.307 -2.83307 4.15628 0
M  V30 2639 H 249.007 -1.81654 5.58816 0
M  V30 2640 H 250.531 -2.73968 5.45687 0
M  V30 2641 H 251.945 -0.482687 5.71264 0
M  V30 2642 H 250.342 0.256199 5.99553 0
M  V30 2643 H 251.412 0.938174 4.75738 0
M  V30 2644 N 252.755 -1.56801 0.158532 0
M  V30 2645 C 253.685 -2.20347 -0.772609 0
M  V30 2646 C 254.666 -1.15518 -1.24859 0
M  V30 2647 O 255.851 -1.43902 -1.30406 0
M  V30 2648 C 252.981 -2.83417 -2.00729 0
M  V30 2649 C 251.935 -3.94174 -1.66765 0
M  V30 2650 C 251.261 -4.44233 -2.97592 0
M  V30 2651 C 252.561 -5.14392 -0.905447 0
M  V30 2652 H 254.255 -2.98413 -0.242959 0
M  V30 2653 H 251.801 -1.43537 -0.115419 0
M  V30 2654 H 253.754 -3.26543 -2.6636 0
M  V30 2655 H 252.478 -2.02701 -2.56086 0
M  V30 2656 H 251.137 -3.51684 -1.03508 0
M  V30 2657 H 250.785 -3.60325 -3.50963 0
M  V30 2658 H 250.485 -5.18945 -2.75626 0
M  V30 2659 H 252.009 -4.90037 -3.64274 0
M  V30 2660 H 253.423 -5.5429 -1.46408 0
M  V30 2661 H 251.82 -5.9494 -0.7853 0
M  V30 2662 H 252.89 -4.84795 0.100668 0
M  V30 2663 N 254.233 0.115231 -1.57178 0
M  V30 2664 C 255.163 1.1423 -2.03651 0
M  V30 2665 C 256.144 1.42967 -0.921655 0
M  V30 2666 O 257.329 1.53343 -1.19162 0
M  V30 2667 C 254.459 2.4675 -2.44401 0
M  V30 2668 C 253.413 2.32467 -3.59365 0
M  V30 2669 C 252.739 3.69984 -3.86026 0
M  V30 2670 C 254.039 1.78203 -4.90959 0
M  V30 2671 H 255.733 0.755749 -2.89705 0
M  V30 2672 H 253.279 0.362093 -1.39373 0
M  V30 2673 H 255.232 3.18854 -2.75517 0
M  V30 2674 H 253.956 2.87302 -1.55322 0
M  V30 2675 H 252.615 1.62811 -3.28463 0
M  V30 2676 H 252.263 4.08028 -2.94147 0
M  V30 2677 H 251.963 3.61279 -4.63412 0
M  V30 2678 H 253.487 4.43587 -4.19599 0
M  V30 2679 H 254.901 2.40128 -5.20587 0
M  V30 2680 H 253.298 1.8031 -5.72371 0
M  V30 2681 H 254.368 0.739876 -4.79222 0
M  V30 2682 N 255.711 1.52812 0.385517 0
M  V30 2683 C 256.658 1.77838 1.47113 0
M  V30 2684 C 257.628 0.621757 1.54024 0
M  V30 2685 O 258.813 0.861846 1.70226 0
M  V30 2686 C 255.953 1.95618 2.84302 0
M  V30 2687 C 255.066 3.23316 2.86515 0
M  V30 2688 C 254.201 3.31394 4.15152 0
M  V30 2689 C 253.24 4.53201 4.1143 0
M  V30 2690 N 252.377 4.58542 5.3168 0
M  V30 2691 H 257.217 2.70482 1.25073 0
M  V30 2692 H 254.754 1.34006 0.606692 0
M  V30 2693 H 256.712 2.03912 3.63972 0
M  V30 2694 H 255.342 1.06331 3.04784 0
M  V30 2695 H 254.394 3.24076 1.99195 0
M  V30 2696 H 255.706 4.13045 2.79634 0
M  V30 2697 H 254.86 3.3889 5.03228 0
M  V30 2698 H 253.599 2.39645 4.24761 0
M  V30 2699 H 252.604 4.45827 3.21742 0
M  V30 2700 H 253.829 5.46271 4.03442 0
M  V30 2701 H 251.775 3.69686 5.41912 0
M  V30 2702 H 251.692 5.42148 5.26889 0
M  V30 2703 H 252.96 4.70296 6.21644 0
M  V30 2704 N 257.189 -0.644168 1.43834 0
M  V30 2705 C 258.417 -1.43147 1.49387 0
M  V30 2706 C 258.832 -1.88452 0.114583 0
M  V30 2707 O 258.189 -1.60047 -0.876989 0
M  V30 2708 C 258.24 -2.66046 2.44748 0
M  V30 2709 O 257.961 -2.22633 3.77314 0
M  V30 2710 C 259.462 -3.59311 2.59635 0
M  V30 2711 H 256.682 -0.439447 0.507077 0
M  V30 2712 H 259.226 -0.78895 1.88669 0
M  V30 2713 H 257.381 -3.26418 2.08638 0
M  V30 2714 H 257.795 -3.02216 4.28679 0
M  V30 2715 H 259.269 -4.42187 3.30416 0
M  V30 2716 H 259.746 -4.07259 1.64427 0
M  V30 2717 H 260.352 -3.04816 2.96593 0
M  V30 2718 N 258.668 -1.30515 -0.883378 0
M  V30 2719 C 260.084 -1.08881 -1.16692 0
M  V30 2720 C 260.284 0.149409 -2.00945 0
M  V30 2721 O 259.34 0.84257 -2.38027 0
M  V30 2722 C 260.653 -2.35319 -1.87204 0
M  V30 2723 C 262.201 -2.40799 -1.99962 0
M  V30 2724 C 262.676 -3.67083 -2.73887 0
M  V30 2725 N 264.167 -3.679 -2.81432 0
M  V30 2726 C 264.902 -4.62303 -3.3921 0
M  V30 2727 N 264.398 -5.67052 -3.98025 0
M  V30 2728 N 266.191 -4.49845 -3.3704 0
M  V30 2729 H 258.342 -2.09951 -0.321633 0
M  V30 2730 H 260.605 -0.92556 -0.205043 0
M  V30 2731 H 260.311 -3.25689 -1.3274 0
M  V30 2732 H 260.185 -2.44089 -2.87577 0
M  V30 2733 H 262.572 -1.50907 -2.53597 0
M  V30 2734 H 262.653 -2.36003 -0.98673 0
M  V30 2735 H 262.297 -4.57334 -2.20925 0
M  V30 2736 H 262.227 -3.69141 -3.75556 0
M  V30 2737 H 264.718 -2.92171 -2.39676 0
M  V30 2738 H 265.031 -6.35184 -4.40183 0
M  V30 2739 H 263.376 -5.70842 -3.96439 0
M  V30 2740 H 266.567 -3.67194 -2.90321 0
M  V30 2741 H 266.74 -5.23597 -3.81772 0
M  V30 2742 N 260.146 1.09593 -1.13257 0
M  V30 2743 C 261.076 2.18214 -0.830946 0
M  V30 2744 C 262.057 1.68812 0.208966 0
M  V30 2745 O 263.242 1.9408 0.0682666 0
M  V30 2746 C 260.372 3.46051 -0.294296 0
M  V30 2747 C 259.326 4.08778 -1.26826 0
M  V30 2748 C 258.652 5.31419 -0.591449 0
M  V30 2749 C 259.952 4.51476 -2.62615 0
M  V30 2750 H 261.646 2.43703 -1.73923 0
M  V30 2751 H 259.192 1.17128 -0.837675 0
M  V30 2752 H 261.145 4.2134 -0.0709606 0
M  V30 2753 H 259.869 3.20079 0.649366 0
M  V30 2754 H 258.528 3.35505 -1.47756 0
M  V30 2755 H 258.176 5.01727 0.357633 0
M  V30 2756 H 257.876 5.74341 -1.24123 0
M  V30 2757 H 259.4 6.09433 -0.377355 0
M  V30 2758 H 260.814 5.17999 -2.45663 0
M  V30 2759 H 259.211 5.05277 -3.23752 0
M  V30 2760 H 260.281 3.63962 -3.20406 0
M  V30 2761 O 261.663 1.05716 1.22092 0
M  V30 2762 H 262.354 0.735773 1.79182 0
M  V30 END ATOM
M  V30 BEGIN BOND
M  V30 END BOND
M  V30 END CTAB
M  END
$$$$
