drugbank_target|P41052 Membrane-bound lytic murein transglycosylase B (DB02595; DB03709)
 OpenBabel12092119563D

  0  0  0     0  0            999 V3000
M  V30 BEGIN CTAB
M  V30 COUNTS 5623 5701 0 0 0
M  V30 BEGIN ATOM
M  V30 1 H -0.908 1.98254 -0.117106 0
M  V30 2 N 0 1.576 0 0
M  V30 3 C 0.933 2.03868 1.02534 0
M  V30 4 C 1.911 0.928543 1.3348 0
M  V30 5 O 3.095 1.19667 1.45644 0
M  V30 6 C 0.222 2.43627 2.35294 0
M  V30 7 C -0.732 3.65373 2.2001 0
M  V30 8 S 0.101 5.13292 1.52614 0
M  V30 9 C 1.257 5.56322 2.86805 0
M  V30 10 H 1.49 2.90518 0.631377 0
M  V30 11 H -0.977 1.52953 0.210867 0
M  V30 12 H 0.981 2.67203 3.11629 0
M  V30 13 H -0.358 1.57376 2.7183 0
M  V30 14 H -1.165 3.90944 3.18086 0
M  V30 15 H -1.563 3.418 1.51819 0
M  V30 16 H 0.729 5.58782 3.83104 0
M  V30 17 H 1.672 6.56266 2.65933 0
M  V30 18 H 2.08 4.83886 2.90714 0
M  V30 19 N 1.4781 -0.272755 1.55222 0
M  V30 20 C 2.7251 -1.00433 1.7584 0
M  V30 21 C 3.0531 -1.86275 0.559629 0
M  V30 22 O 2.3081 -1.90269 -0.457857 0
M  V30 23 C 2.6071 -1.91642 3.01675 0
M  V30 24 C 2.2731 -1.21548 4.34208 0
M  V30 25 C 0.9351 -1.02166 4.70229 0
M  V30 26 C 3.2871 -0.716684 5.16249 0
M  V30 27 C 0.6151 -0.316334 5.85847 0
M  V30 28 C 2.9671 -0.0249476 6.32595 0
M  V30 29 C 1.6311 0.180579 6.67256 0
M  V30 30 H 0.9011 -0.367509 0.643443 0
M  V30 31 H 3.5481 -0.276596 1.89492 0
M  V30 32 H 1.8531 -2.71037 2.82924 0
M  V30 33 H 3.5501 -2.48369 3.14824 0
M  V30 34 H 0.1401 -1.37645 4.05896 0
M  V30 35 H 4.3241 -0.854047 4.88896 0
M  V30 36 H -0.4199 -0.146378 6.11225 0
M  V30 37 H 3.7541 0.369311 6.9542 0
M  V30 38 H 1.3811 0.729098 7.56696 0
M  V30 39 N 2.9562 -1.48159 -0.537278 0
M  V30 40 C 3.9032 -1.62138 -1.64256 0
M  V30 41 C 4.8732 -0.463668 -1.59497 0
M  V30 42 O 6.0582 -0.686241 -1.78032 0
M  V30 43 C 3.1982 -1.66028 -3.02537 0
M  V30 44 C 2.3112 -2.92855 -3.17585 0
M  V30 45 C 1.4462 -2.87952 -4.46382 0
M  V30 46 C 0.4852 -4.09516 -4.54932 0
M  V30 47 N -0.3778 -4.02733 -5.75109 0
M  V30 48 H 4.4622 -2.56529 -1.51647 0
M  V30 49 H 1.9992 -1.27224 -0.738414 0
M  V30 50 H 3.9572 -1.66265 -3.82638 0
M  V30 51 H 2.5872 -0.751331 -3.13934 0
M  V30 52 H 1.6392 -3.02395 -2.30784 0
M  V30 53 H 2.9512 -3.82822 -3.19764 0
M  V30 54 H 2.1052 -2.8655 -5.34765 0
M  V30 55 H 0.8442 -1.95702 -4.46712 0
M  V30 56 H -0.1508 -4.11201 -3.64957 0
M  V30 57 H 1.0742 -5.02917 -4.56346 0
M  V30 58 H -0.9798 -3.13299 -5.76351 0
M  V30 59 H -1.0628 -4.86397 -5.78752 0
M  V30 60 H 0.2052 -4.05379 -6.65799 0
M  V30 61 N 4.4343 0.785586 -1.36625 0
M  V30 62 C 5.8503 1.08419 -1.17122 0
M  V30 63 C 6.0503 2.015 0.00208491 0
M  V30 64 O 5.1063 2.43551 0.666278 0
M  V30 65 C 6.4193 1.69498 -2.48377 0
M  V30 66 C 7.9673 1.81821 -2.54775 0
M  V30 67 C 8.4423 2.46315 -3.86126 0
M  V30 68 N 9.9333 2.53779 -3.87492 0
M  V30 69 C 10.6683 3.045 -4.85868 0
M  V30 70 N 10.1643 3.55499 -5.94637 0
M  V30 71 N 11.9573 3.03247 -4.73284 0
M  V30 72 H 4.1083 0.167264 -2.1174 0
M  V30 73 H 6.3713 0.13682 -0.938075 0
M  V30 74 H 6.0773 1.08571 -3.34522 0
M  V30 75 H 5.9513 2.6896 -2.64462 0
M  V30 76 H 8.3383 2.41884 -1.69045 0
M  V30 77 H 8.4193 0.811532 -2.42586 0
M  V30 78 H 8.0633 1.86895 -4.72263 0
M  V30 79 H 7.9933 3.47561 -3.95612 0
M  V30 80 H 10.4843 2.17672 -3.08913 0
M  V30 81 H 10.7973 3.92562 -6.65669 0
M  V30 82 H 9.1423 3.5364 -5.98301 0
M  V30 83 H 12.3333 2.62696 -3.87438 0
M  V30 84 H 12.5063 3.42467 -5.50109 0
M  V30 85 N 5.9124 1.20967 1.01018 0
M  V30 86 C 7.3284 0.965905 1.27053 0
M  V30 87 C 7.5284 -0.350785 1.98423 0
M  V30 88 O 6.5844 -1.07773 2.28344 0
M  V30 89 C 7.8974 2.15294 2.09926 0
M  V30 90 C 9.4454 2.19463 2.23171 0
M  V30 91 C 9.9204 3.3767 3.09424 0
M  V30 92 N 11.4114 3.37724 3.17012 0
M  V30 93 C 12.1464 4.25837 3.83993 0
M  V30 94 N 11.6424 5.24138 4.53047 0
M  V30 95 N 13.4354 4.1366 3.80581 0
M  V30 96 H 5.5864 2.0565 0.531194 0
M  V30 97 H 7.8494 0.90024 0.297106 0
M  V30 98 H 7.5554 3.10684 1.64828 0
M  V30 99 H 7.4294 2.13923 3.10672 0
M  V30 100 H 9.8164 1.24632 2.6749 0
M  V30 101 H 9.8974 2.2488 1.21912 0
M  V30 102 H 9.5414 4.32791 2.65808 0
M  V30 103 H 9.4714 3.29491 4.10784 0
M  V30 104 H 11.9624 2.6658 2.6785 0
M  V30 105 H 12.2754 5.87684 5.01844 0
M  V30 106 H 10.6204 5.28068 4.5185 0
M  V30 107 H 13.8114 3.36127 3.25785 0
M  V30 108 H 13.9844 4.82538 4.32505 0
M  V30 109 N 7.3905 -1.2043 1.01659 0
M  V30 110 C 8.6205 -1.93496 0.724081 0
M  V30 111 C 9.0285 -1.74998 -0.71918 0
M  V30 112 O 8.3715 -1.06118 -1.49949 0
M  V30 113 C 8.4335 -3.45886 0.97994 0
M  V30 114 C 8.0975 -3.88145 2.41232 0
M  V30 115 C 9.0945 -3.93907 3.39313 0
M  V30 116 C 6.7795 -4.20134 2.75305 0
M  V30 117 C 8.7735 -4.31069 4.6953 0
M  V30 118 C 6.4605 -4.56971 4.05735 0
M  V30 119 C 7.4585 -4.62411 5.02658 0
M  V30 120 O 7.1465 -4.98403 6.30754 0
M  V30 121 H 6.8785 -0.621824 0.265162 0
M  V30 122 H 9.4325 -1.53867 1.36066 0
M  V30 123 H 7.6625 -3.85639 0.286198 0
M  V30 124 H 9.3515 -4.0018 0.679021 0
M  V30 125 H 10.1175 -3.69357 3.14325 0
M  V30 126 H 5.9965 -4.1509 2.00551 0
M  V30 127 H 9.5405 -4.3523 5.45179 0
M  V30 128 H 5.4375 -4.80977 4.30502 0
M  V30 129 H 6.2055 -5.16395 6.35042 0
M  V30 130 N 8.8686 -0.792821 -1.36206 0
M  V30 131 C 10.1146 -0.36733 -1.99446 0
M  V30 132 C 10.4476 1.05917 -1.62774 0
M  V30 133 O 9.7226 1.7324 -0.88421 0
M  V30 134 C 10.0056 -0.535044 -3.56103 0
M  V30 135 C 9.8586 -2.00548 -4.02617 0
M  V30 136 C 11.1776 0.0478191 -4.40074 0
M  V30 137 H 8.2966 -0.134941 -0.724541 0
M  V30 138 H 10.9386 -0.999794 -1.61568 0
M  V30 139 H 9.0886 0.00336329 -3.885 0
M  V30 140 H 10.7606 -2.60521 -3.80692 0
M  V30 141 H 9.0036 -2.50686 -3.54032 0
M  V30 142 H 9.6746 -2.07377 -5.11565 0
M  V30 143 H 12.1506 -0.411822 -4.14057 0
M  V30 144 H 11.0266 -0.0995336 -5.4881 0
M  V30 145 H 11.2876 1.14025 -4.27142 0
M  V30 146 N 10.3467 1.47872 -0.545128 0
M  V30 147 C 11.5747 2.06889 -0.021084 0
M  V30 148 C 11.9897 1.39955 1.2672 0
M  V30 149 O 11.3467 0.492036 1.75742 0
M  V30 150 C 11.3977 3.60996 0.190817 0
M  V30 151 O 11.1187 4.25419 -1.04644 0
M  V30 152 C 12.6197 4.36849 0.753521 0
M  V30 153 H 9.8397 0.669785 -0.0403635 0
M  V30 154 H 12.3837 1.90049 -0.755095 0
M  V30 155 H 10.5387 3.77391 0.87492 0
M  V30 156 H 10.9527 5.17785 -0.836611 0
M  V30 157 H 12.4267 5.45399 0.851139 0
M  V30 158 H 12.9037 4.02306 1.762 0
M  V30 159 H 13.5097 4.25169 0.105503 0
M  V30 160 N 11.8248 0.280983 1.55075 0
M  V30 161 C 12.7548 -0.597469 2.25727 0
M  V30 162 C 13.7358 -1.15417 1.24952 0
M  V30 163 O 14.9208 -1.18722 1.53684 0
M  V30 164 C 12.0508 -1.7789 2.98283 0
M  V30 165 C 11.0048 -1.35347 4.06036 0
M  V30 166 C 10.3308 -2.61846 4.66198 0
M  V30 167 C 11.6308 -0.499354 5.19907 0
M  V30 168 H 13.3248 -0.00824265 2.99399 0
M  V30 169 H 10.8708 -0.0025244 1.44 0
M  V30 170 H 12.8238 -2.39937 3.46422 0
M  V30 171 H 11.5478 -2.39405 2.22155 0
M  V30 172 H 10.2068 -0.756156 3.58717 0
M  V30 173 H 9.8548 -3.21632 3.86732 0
M  V30 174 H 9.5548 -2.3409 5.38958 0
M  V30 175 H 11.0788 -3.24732 5.1709 0
M  V30 176 H 12.4928 -1.02498 5.64063 0
M  V30 177 H 10.8898 -0.316424 5.99265 0
M  V30 178 H 11.9598 0.480459 4.82514 0
M  V30 179 N 13.3029 -1.57598 0.00835791 0
M  V30 180 C 14.2329 -2.1198 -0.979113 0
M  V30 181 C 15.2139 -1.03091 -1.35301 0
M  V30 182 O 16.3989 -1.30818 -1.43528 0
M  V30 183 C 13.5289 -2.62995 -2.26828 0
M  V30 184 C 12.4829 -3.76485 -2.03576 0
M  V30 185 C 11.8089 -4.13846 -3.38579 0
M  V30 186 C 13.1089 -5.0342 -1.39161 0
M  V30 187 H 14.8029 -2.94738 -0.526281 0
M  V30 188 H 12.3489 -1.41783 -0.251704 0
M  V30 189 H 14.3019 -2.99669 -2.96271 0
M  V30 190 H 13.0259 -1.7737 -2.7424 0
M  V30 191 H 11.6849 -3.40217 -1.36557 0
M  V30 192 H 11.3329 -3.25232 -3.83709 0
M  V30 193 H 11.0329 -4.90312 -3.23834 0
M  V30 194 H 12.5569 -4.53086 -4.09323 0
M  V30 195 H 13.9709 -5.37812 -1.98573 0
M  V30 196 H 12.3679 -5.84746 -1.34878 0
M  V30 197 H 13.4379 -4.83548 -0.361868 0
M  V30 198 N 14.781 0.264519 -1.55364 0
M  V30 199 C 16.192 0.834936 -1.6699 0
M  V30 200 C 16.543 1.86718 -0.602552 0
M  V30 201 O 15.668 2.14899 0.254425 0
M  V30 202 C 16.263 1.5212 -3.02729 0
M  V30 203 C 14.822 2.03954 -3.16354 0
M  V30 204 C 13.969 0.884498 -2.62815 0
M  V30 205 H 16.92 0.0406869 -1.58648 0
M  V30 206 H 16.941 2.38853 -2.96191 0
M  V30 207 H 16.453 0.769668 -3.80392 0
M  V30 208 H 14.554 2.82041 -2.43482 0
M  V30 209 H 14.667 2.24902 -4.23032 0
M  V30 210 H 13.031 1.2802 -2.20188 0
M  V30 211 H 13.814 0.14634 -3.42988 0
M  V30 212 N 16.2591 1.48442 0.529413 0
M  V30 213 C 17.1891 1.65902 1.64313 0
M  V30 214 C 18.1701 0.507897 1.6234 0
M  V30 215 O 19.3551 0.740503 1.79528 0
M  V30 216 C 16.4851 1.69911 3.02898 0
M  V30 217 C 15.4391 2.8453 3.19729 0
M  V30 218 C 14.7651 2.73629 4.59381 0
M  V30 219 C 16.0651 4.25821 3.02447 0
M  V30 220 H 17.7591 2.5914 1.49955 0
M  V30 221 H 15.3051 1.24709 0.719982 0
M  V30 222 H 17.2581 1.80715 3.80684 0
M  V30 223 H 15.9821 0.732524 3.18279 0
M  V30 224 H 14.6411 2.73283 2.44361 0
M  V30 225 H 14.2891 1.74938 4.71599 0
M  V30 226 H 13.9891 3.50541 4.71588 0
M  V30 227 H 15.5131 2.86401 5.39265 0
M  V30 228 H 16.9271 4.37898 3.70024 0
M  V30 229 H 15.3241 5.03735 3.26146 0
M  V30 230 H 16.3941 4.42244 1.98867 0
M  V30 231 N 17.7372 -0.778329 1.37039 0
M  V30 232 C 18.9842 -1.53665 1.31884 0
M  V30 233 C 19.3122 -1.9425 -0.0986303 0
M  V30 234 O 18.5672 -1.63832 -1.07041 0
M  V30 235 C 18.8662 -2.81845 2.19768 0
M  V30 236 C 18.5322 -2.60345 3.68146 0
M  V30 237 C 17.1942 -2.5419 4.08584 0
M  V30 238 C 19.5462 -2.40923 4.62175 0
M  V30 239 C 16.8742 -2.26594 5.41177 0
M  V30 240 C 19.2262 -2.14852 5.94997 0
M  V30 241 C 17.8902 -2.07137 6.34547 0
M  V30 242 H 17.1602 -0.562299 0.482598 0
M  V30 243 H 19.8072 -0.897069 1.69189 0
M  V30 244 H 18.1122 -3.50328 1.75436 0
M  V30 245 H 19.8092 -3.39692 2.13097 0
M  V30 246 H 16.3992 -2.65996 3.36072 0
M  V30 247 H 20.5832 -2.44673 4.31797 0
M  V30 248 H 15.8392 -2.19111 5.70789 0
M  V30 249 H 20.0132 -1.98822 6.67415 0
M  V30 250 H 17.6402 -1.85518 7.37216 0
M  V30 251 N 19.2153 -1.21501 -1.00376 0
M  V30 252 C 20.4613 -1.03452 -1.74429 0
M  V30 253 C 20.7943 0.430764 -1.89362 0
M  V30 254 O 20.0693 1.31962 -1.42886 0
M  V30 255 C 20.3523 -1.73375 -3.15615 0
M  V30 256 C 20.2053 -3.27431 -3.08397 0
M  V30 257 C 21.5243 -1.47732 -4.14564 0
M  V30 258 H 18.6433 -0.377226 -0.633143 0
M  V30 259 H 21.2853 -1.49693 -1.17013 0
M  V30 260 H 19.4353 -1.34064 -3.64636 0
M  V30 261 H 21.1073 -3.76119 -2.67081 0
M  V30 262 H 19.3503 -3.5767 -2.45468 0
M  V30 263 H 20.0213 -3.71524 -4.08258 0
M  V30 264 H 22.4973 -1.8186 -3.74254 0
M  V30 265 H 21.3733 -1.99169 -5.11491 0
M  V30 266 H 21.6343 -0.407589 -4.40217 0
M  V30 267 N 20.6934 1.19889 -1.02296 0
M  V30 268 C 21.6234 2.25141 -0.619174 0
M  V30 269 C 22.6044 1.66051 0.368915 0
M  V30 270 O 23.7894 1.92546 0.252941 0
M  V30 271 C 20.9194 3.4728 0.0368783 0
M  V30 272 C 19.8734 4.19005 -0.872865 0
M  V30 273 C 19.1994 5.34637 -0.0822402 0
M  V30 274 C 20.4994 4.74452 -2.18387 0
M  V30 275 H 22.1934 2.59171 -1.49903 0
M  V30 276 H 19.7394 1.24579 -0.722222 0
M  V30 277 H 21.6924 4.20098 0.330958 0
M  V30 278 H 20.4164 3.12433 0.95149 0
M  V30 279 H 19.0754 3.48061 -1.15105 0
M  V30 280 H 18.7234 4.96034 0.83422 0
M  V30 281 H 18.4234 5.83557 -0.688149 0
M  V30 282 H 19.9474 6.10255 0.205238 0
M  V30 283 H 21.3614 5.39055 -1.95172 0
M  V30 284 H 19.7584 5.33834 -2.74119 0
M  V30 285 H 20.8284 3.92844 -2.84257 0
M  V30 286 N 22.1715 0.800033 1.35784 0
M  V30 287 C 23.1015 0.220184 2.3246 0
M  V30 288 C 24.0825 -0.65073 1.57161 0
M  V30 289 O 25.2675 -0.582359 1.85263 0
M  V30 290 C 22.3975 -0.637353 3.41402 0
M  V30 291 C 21.3515 0.134531 4.27789 0
M  V30 292 C 20.6775 -0.844285 5.27992 0
M  V30 293 C 21.9775 1.32979 5.05088 0
M  V30 294 H 23.6715 1.02787 2.81203 0
M  V30 295 H 21.2175 0.495717 1.35199 0
M  V30 296 H 23.1705 -1.05302 4.08031 0
M  V30 297 H 21.8945 -1.47785 2.91251 0
M  V30 298 H 20.5535 0.531296 3.6273 0
M  V30 299 H 20.2015 -1.68011 4.74111 0
M  V30 300 H 19.9015 -0.332184 5.8666 0
M  V30 301 H 21.4255 -1.2583 5.97494 0
M  V30 302 H 22.8395 0.98934 5.64699 0
M  V30 303 H 21.2365 1.77593 5.7322 0
M  V30 304 H 22.3065 2.11978 4.36111 0
M  V30 305 N 23.6496 -1.47581 0.552962 0
M  V30 306 C 24.6126 -2.28439 -0.186605 0
M  V30 307 C 25.6126 -1.36706 -0.84665 0
M  V30 308 O 26.8026 -1.59378 -0.703164 0
M  V30 309 C 23.9346 -3.16264 -1.2724 0
M  V30 310 H 25.1276 -2.95294 0.523609 0
M  V30 311 H 22.6806 -1.532 0.309745 0
M  V30 312 H 23.4156 -2.54091 -2.01514 0
M  V30 313 H 23.2006 -3.83769 -0.803968 0
M  V30 314 H 24.6906 -3.77198 -1.79196 0
M  V30 315 N 25.1277 -0.289203 -1.54924 0
M  V30 316 C 26.0907 0.579144 -2.21762 0
M  V30 317 C 27.0907 1.07047 -1.1999 0
M  V30 318 O 28.2807 0.968384 -1.44803 0
M  V30 319 C 25.4127 1.80055 -2.8947 0
M  V30 320 H 26.6057 -0.00464908 -2.999 0
M  V30 321 H 24.1587 -0.0399306 -1.56249 0
M  V30 322 H 24.8937 2.42449 -2.15381 0
M  V30 323 H 24.6787 1.45602 -3.64064 0
M  V30 324 H 26.1687 2.41773 -3.40493 0
M  V30 325 N 26.6058 1.57591 -0.0167156 0
M  V30 326 C 27.8458 1.93145 0.668902 0
M  V30 327 C 28.2098 0.892406 1.7 0
M  V30 328 O 29.4108 1.13373 2.43721 0
M  V30 329 C 27.6818 3.33678 1.28039 0
M  V30 330 S 29.2408 3.91142 1.9888 0
M  V30 331 H 26.0588 0.67593 0.220545 0
M  V30 332 H 28.6608 1.95347 -0.0774105 0
M  V30 333 H 27.3648 4.07126 0.517339 0
M  V30 334 H 26.8958 3.3489 2.06427 0
M  V30 335 H 28.9108 3.73571 3.26587 0
M  V30 336 N 28.0839 -0.256276 1.55502 0
M  V30 337 C 29.3089 -1.00766 1.81276 0
M  V30 338 C 29.7339 -1.78524 0.59252 0
M  V30 339 O 29.0919 -1.75413 -0.45827 0
M  V30 340 C 29.1399 -1.92869 3.04687 0
M  V30 341 O 28.2439 -3.019 2.80945 0
M  V30 342 H 27.5849 -0.287224 0.598664 0
M  V30 343 H 30.1149 -0.280109 2.02674 0
M  V30 344 H 30.1249 -2.34511 3.33869 0
M  V30 345 H 28.7999 -1.35689 3.93143 0
M  V30 346 H 27.3769 -2.64454 2.62904 0
M  V30 347 N 29.562 -1.4872 -0.521534 0
M  V30 348 C 30.787 -1.61101 -1.30618 0
M  V30 349 C 31.212 -0.274611 -1.86085 0
M  V30 350 O 30.57 0.754937 -1.64834 0
M  V30 351 C 30.618 -2.66709 -2.4269 0
M  V30 352 O 29.722 -2.24456 -3.45967 0
M  V30 353 H 29.063 -0.539921 -0.386499 0
M  V30 354 H 31.593 -1.94767 -0.626645 0
M  V30 355 H 31.603 -2.88245 -2.88754 0
M  V30 356 H 30.278 -3.63727 -2.01682 0
M  V30 357 H 28.855 -2.13168 -3.05964 0
M  V30 358 N 31.0401 0.771051 -1.3745 0
M  V30 359 C 31.9871 1.88435 -1.3327 0
M  V30 360 C 32.9571 1.64914 -0.198136 0
M  V30 361 O 34.1421 1.86821 -0.387606 0
M  V30 362 C 31.2821 3.25509 -1.14622 0
M  V30 363 C 30.3951 3.60979 -2.37314 0
M  V30 364 C 29.5301 4.87265 -2.11533 0
M  V30 365 C 28.5691 5.15469 -3.30088 0
M  V30 366 N 27.7061 6.32944 -3.03853 0
M  V30 367 H 32.5461 1.91344 -2.28455 0
M  V30 368 H 30.0831 0.935466 -1.13523 0
M  V30 369 H 32.0411 4.04582 -1.01831 0
M  V30 370 H 30.6711 3.21974 -0.230837 0
M  V30 371 H 29.7231 2.76885 -2.60842 0
M  V30 372 H 31.0351 3.77759 -3.25729 0
M  V30 373 H 30.1891 5.74244 -1.95777 0
M  V30 374 H 28.9281 4.7259 -1.20457 0
M  V30 375 H 27.9331 4.26966 -3.46382 0
M  V30 376 H 29.1581 5.32052 -4.22016 0
M  V30 377 H 27.1041 6.19625 -2.15407 0
M  V30 378 H 27.0211 6.50143 -3.85812 0
M  V30 379 H 28.2891 7.22857 -2.91716 0
M  V30 380 N 32.5182 1.22032 0.997298 0
M  V30 381 C 33.9292 1.0397 1.55071 0
M  V30 382 C 34.2802 -0.398192 1.92117 0
M  V30 383 O 33.4052 -1.28254 1.74298 0
M  V30 384 C 34.0002 1.88109 2.81781 0
M  V30 385 C 32.5592 1.74357 3.33581 0
M  V30 386 C 31.7062 1.84846 2.06706 0
M  V30 387 H 34.6572 1.35941 0.818883 0
M  V30 388 H 34.6782 1.39589 3.53971 0
M  V30 389 H 34.1902 2.92754 2.54787 0
M  V30 390 H 32.2912 0.72427 3.65493 0
M  V30 391 H 32.4042 2.56772 4.04481 0
M  V30 392 H 30.7682 1.28238 2.20062 0
M  V30 393 H 31.5512 2.91014 1.82114 0
M  V30 394 N 33.9963 -1.19345 1.0293 0
M  V30 395 C 34.9433 -2.2258 0.610464 0
M  V30 396 C 35.9133 -1.6179 -0.375946 0
M  V30 397 O 37.0983 -1.88844 -0.272511 0
M  V30 398 C 34.2383 -3.45085 -0.0321473 0
M  V30 399 C 33.3513 -4.20258 1.00035 0
M  V30 400 C 32.4863 -5.3019 0.32746 0
M  V30 401 C 31.5253 -5.97121 1.34584 0
M  V30 402 N 30.6623 -6.98615 0.698726 0
M  V30 403 H 35.5023 -2.57764 1.49538 0
M  V30 404 H 33.0393 -1.26644 0.748311 0
M  V30 405 H 34.9973 -4.15061 -0.421966 0
M  V30 406 H 33.6273 -3.10555 -0.88064 0
M  V30 407 H 32.6793 -3.49223 1.50823 0
M  V30 408 H 33.9913 -4.66175 1.77433 0
M  V30 409 H 33.1453 -6.06587 -0.11718 0
M  V30 410 H 31.8843 -4.85345 -0.478713 0
M  V30 411 H 30.8893 -5.19474 1.80074 0
M  V30 412 H 32.1143 -6.4405 2.15352 0
M  V30 413 H 30.0603 -6.55942 -0.0873471 0
M  V30 414 H 29.9773 -7.42724 1.41058 0
M  V30 415 H 31.2453 -7.79004 0.278102 0
M  V30 416 N 35.4744 -0.807222 -1.35358 0
M  V30 417 C 36.8854 -0.44876 -1.81226 0
M  V30 418 C 37.2364 1.02929 -1.67033 0
M  V30 419 O 36.3614 1.79991 -1.20133 0
M  V30 420 C 36.9564 -0.807774 -3.2903 0
M  V30 421 C 35.5154 -0.501901 -3.73039 0
M  V30 422 C 34.6624 -1.03304 -2.57339 0
M  V30 423 H 37.6134 -0.998808 -1.23327 0
M  V30 424 H 37.6344 -0.10554 -3.80354 0
M  V30 425 H 37.1464 -1.88357 -3.39328 0
M  V30 426 H 35.2474 0.565128 -3.68289 0
M  V30 427 H 35.3604 -1.03497 -4.67787 0
M  V30 428 H 33.7244 -0.455339 -2.50597 0
M  V30 429 H 34.5074 -2.11496 -2.70415 0
M  V30 430 N 36.9525 1.47285 -0.560781 0
M  V30 431 C 38.1805 2.06855 -0.0430262 0
M  V30 432 C 38.5955 1.41291 1.25229 0
M  V30 433 O 37.9525 0.510648 1.7521 0
M  V30 434 C 38.0035 3.61178 0.152518 0
M  V30 435 O 37.7245 4.24285 -1.0915 0
M  V30 436 C 39.2255 4.37624 0.707145 0
M  V30 437 H 36.4455 0.669319 -0.0474652 0
M  V30 438 H 38.9895 1.89237 -0.77521 0
M  V30 439 H 37.1445 3.78298 0.834843 0
M  V30 440 H 37.5585 5.16868 -0.891482 0
M  V30 441 H 39.0325 5.46271 0.793244 0
M  V30 442 H 39.5095 4.04152 1.71923 0
M  V30 443 H 40.1155 4.25257 0.0604027 0
M  V30 444 N 38.4306 0.297415 1.54768 0
M  V30 445 C 39.3406 -0.58983 2.27064 0
M  V30 446 C 40.3566 -1.15144 1.30453 0
M  V30 447 O 41.5326 -1.17699 1.63428 0
M  V30 448 C 38.5976 -1.74714 2.9946 0
M  V30 449 C 37.6586 -1.21997 4.11601 0
M  V30 450 C 36.8916 -2.32212 4.80535 0
M  V30 451 O 37.1146 -3.52036 4.48806 0
M  V30 452 O 36.0486 -1.99106 5.68014 0
M  V30 453 H 39.8746 -0.00348199 3.037 0
M  V30 454 H 37.4596 0.0640035 1.49263 0
M  V30 455 H 39.3416 -2.42147 3.44881 0
M  V30 456 H 38.0166 -2.32016 2.25722 0
M  V30 457 H 36.9236 -0.511458 3.70587 0
M  V30 458 H 38.2566 -0.692419 4.87305 0
M  V30 459 N 39.9087 -1.5758 0.0250728 0
M  V30 460 C 41.1367 -1.9593 -0.664747 0
M  V30 461 C 41.5517 -0.901352 -1.65895 0
M  V30 462 O 40.9087 0.117255 -1.82123 0
M  V30 463 C 40.9597 -3.34342 -1.37468 0
M  V30 464 O 40.6807 -4.36079 -0.420324 0
M  V30 465 C 42.1817 -3.873 -2.1567 0
M  V30 466 H 39.4017 -0.645405 -0.183557 0
M  V30 467 H 41.9457 -2.04329 0.0836372 0
M  V30 468 H 40.1007 -3.27175 -2.0745 0
M  V30 469 H 40.5147 -5.16297 -0.923991 0
M  V30 470 H 41.9887 -4.86504 -2.60803 0
M  V30 471 H 42.4657 -3.21331 -2.99405 0
M  V30 472 H 43.0717 -3.97723 -1.50654 0
M  V30 473 N 41.3868 0.248026 -1.55636 0
M  V30 474 C 42.6638 0.998988 -1.68165 0
M  V30 475 C 43.0438 2.03409 -0.564621 0
M  V30 476 O 42.3918 2.24378 0.432076 0
M  V30 477 C 42.6018 1.63334 -3.0842 0
M  V30 478 C 43.9498 2.13562 -3.66983 0
M  V30 479 O 44.9738 1.73277 -3.11213 0
M  V30 480 O 43.8328 2.87526 -4.64749 0
M  V30 481 H 40.9268 0.464933 -0.683935 0
M  V30 482 H 43.4728 0.241902 -1.67967 0
M  V30 483 H 42.2448 0.884583 -3.8117 0
M  V30 484 H 41.8678 2.45666 -3.12624 0
M  V30 485 N 42.8649 1.48995 0.513639 0
M  V30 486 C 44.0929 1.61531 1.29288 0
M  V30 487 C 44.5079 0.281801 1.86685 0
M  V30 488 O 43.8649 -0.731111 1.67215 0
M  V30 489 C 43.9159 2.67449 2.43215 0
M  V30 490 O 43.6369 3.95626 1.88179 0
M  V30 491 C 45.1379 2.90575 3.34785 0
M  V30 492 H 42.3579 0.544165 0.392588 0
M  V30 493 H 44.9019 1.9494 0.617956 0
M  V30 494 H 43.0569 2.36853 3.0656 0
M  V30 495 H 43.4709 4.53868 2.62876 0
M  V30 496 H 44.9449 3.68449 4.11035 0
M  V30 497 H 45.4219 2.00011 3.91015 0
M  V30 498 H 46.0279 3.22538 2.77218 0
M  V30 499 N 44.343 -0.763751 1.37857 0
M  V30 500 C 45.571 -1.55293 1.36718 0
M  V30 501 C 45.986 -1.88745 -0.0455434 0
M  V30 502 O 45.343 -1.52039 -1.00947 0
M  V30 503 C 45.394 -2.85831 2.2132 0
M  V30 504 O 45.115 -2.5381 3.57089 0
M  V30 505 C 46.616 -3.80023 2.28249 0
M  V30 506 H 43.836 -0.480841 0.468009 0
M  V30 507 H 46.38 -0.946009 1.81303 0
M  V30 508 H 44.535 -3.42926 1.80223 0
M  V30 509 H 44.949 -3.37459 4.01524 0
M  V30 510 H 46.423 -4.68599 2.91752 0
M  V30 511 H 46.9 -4.1973 1.2932 0
M  V30 512 H 47.506 -3.28855 2.69693 0
M  V30 513 N 45.8211 -1.22559 -0.990812 0
M  V30 514 C 47.0491 -1.07779 -1.76611 0
M  V30 515 C 47.4641 0.371513 -1.85109 0
M  V30 516 O 46.8211 1.25737 -1.32274 0
M  V30 517 C 46.8721 -1.68512 -3.19822 0
M  V30 518 O 46.5931 -3.07774 -3.1178 0
M  V30 519 C 48.0941 -1.59035 -4.13791 0
M  V30 520 H 45.3141 -0.377729 -0.554583 0
M  V30 521 H 47.8581 -1.62195 -1.24551 0
M  V30 522 H 46.0131 -1.18154 -3.68942 0
M  V30 523 H 46.4271 -3.37062 -4.01858 0
M  V30 524 H 47.9011 -2.0625 -5.1202 0
M  V30 525 H 48.3781 -0.547273 -4.35777 0
M  V30 526 H 48.9841 -2.08709 -3.70568 0
M  V30 527 N 47.2992 1.18797 -1.03562 0
M  V30 528 C 48.5472 1.88278 -0.734569 0
M  V30 529 C 48.8682 1.8043 0.739586 0
M  V30 530 O 48.1382 1.21925 1.53333 0
M  V30 531 H 46.7182 0.696991 -0.268725 0
M  V30 532 H 49.3802 1.44192 -1.31129 0
M  V30 533 H 48.4762 2.94443 -1.03489 0
M  V30 534 N 48.7773 0.814389 1.34928 0
M  V30 535 C 50.0053 0.411136 2.02774 0
M  V30 536 C 50.4203 -0.980316 1.61354 0
M  V30 537 O 49.7773 -1.63299 0.814847 0
M  V30 538 C 49.8283 0.493865 3.58111 0
M  V30 539 O 49.5493 1.83047 3.98027 0
M  V30 540 C 51.0503 0.0844174 4.4322 0
M  V30 541 H 48.2703 0.166037 0.650133 0
M  V30 542 H 50.8143 1.10018 1.72384 0
M  V30 543 H 48.9693 -0.147006 3.87121 0
M  V30 544 H 49.3833 1.79872 4.92693 0
M  V30 545 H 50.8573 0.193404 5.51661 0
M  V30 546 H 51.3343 -0.97113 4.28329 0
M  V30 547 H 51.9403 0.69875 4.19521 0
M  V30 548 N 50.2554 -1.46986 0.568584 0
M  V30 549 C 51.6664 -1.86188 0.138219 0
M  V30 550 C 52.0174 -1.47388 -1.29504 0
M  V30 551 O 51.1424 -0.88219 -1.97602 0
M  V30 552 C 51.7374 -3.3792 0.244065 0
M  V30 553 C 50.2964 -3.76171 -0.131335 0
M  V30 554 C 49.4434 -2.71027 0.586465 0
M  V30 555 H 52.3944 -1.38342 0.777645 0
M  V30 556 H 52.4154 -3.76729 -0.534351 0
M  V30 557 H 51.9274 -3.66128 1.28731 0
M  V30 558 H 50.0284 -3.5358 -1.17526 0
M  V30 559 H 50.1414 -4.78523 0.235146 0
M  V30 560 H 48.5054 -2.54684 0.0282722 0
M  V30 561 H 49.2884 -3.02077 1.63109 0
M  V30 562 N 51.7335 -0.305618 -1.54608 0
M  V30 563 C 52.9585 0.307562 -2.05107 0
M  V30 564 C 53.3835 1.46385 -1.18123 0
M  V30 565 O 52.7415 1.8034 -0.186324 0
M  V30 566 C 52.7895 0.73704 -3.52987 0
M  V30 567 O 51.8935 1.84134 -3.6901 0
M  V30 568 H 51.2345 0.0589143 -0.661381 0
M  V30 569 H 53.7645 -0.448807 -1.99617 0
M  V30 570 H 53.7745 1.02459 -3.94925 0
M  V30 571 H 52.4495 -0.108773 -4.15758 0
M  V30 572 H 51.0265 1.55398 -3.38978 0
M  V30 573 N 53.2116 1.57565 -0.0334293 0
M  V30 574 C 54.4596 1.91598 0.642999 0
M  V30 575 C 54.7806 0.910847 1.7242 0
M  V30 576 O 54.0506 -0.0469931 1.95844 0
M  V30 577 H 52.6306 0.707228 0.240496 0
M  V30 578 H 55.2926 1.94726 -0.0822488 0
M  V30 579 H 54.3886 2.92336 1.09298 0
M  V30 580 N 54.6897 -0.239769 1.55765 0
M  V30 581 C 55.9377 -0.964892 1.77579 0
M  V30 582 C 56.2587 -1.85582 0.598699 0
M  V30 583 O 55.5287 -1.92075 -0.385226 0
M  V30 584 H 54.1087 -0.359265 0.654933 0
M  V30 585 H 56.7707 -0.256001 1.93211 0
M  V30 586 H 55.8667 -1.58243 2.69009 0
M  V30 587 N 56.1678 -1.49265 -0.50573 0
M  V30 588 C 57.4148 -1.58513 -1.26015 0
M  V30 589 C 57.7428 -0.26972 -1.92621 0
M  V30 590 O 56.9978 0.741997 -1.81088 0
M  V30 591 C 57.2968 -2.69008 -2.35308 0
M  V30 592 C 56.9628 -4.10662 -1.86192 0
M  V30 593 C 55.6248 -4.49212 -1.72516 0
M  V30 594 C 57.9768 -4.99336 -1.49375 0
M  V30 595 C 55.3048 -5.74214 -1.20394 0
M  V30 596 C 57.6568 -6.24852 -0.987072 0
M  V30 597 C 56.3208 -6.62236 -0.836669 0
M  V30 598 H 55.5908 -0.580041 -0.461122 0
M  V30 599 H 58.2378 -1.83078 -0.561665 0
M  V30 600 H 56.5428 -2.38396 -3.10926 0
M  V30 601 H 58.2398 -2.73373 -2.93374 0
M  V30 602 H 54.8298 -3.8023 -1.97795 0
M  V30 603 H 59.0138 -4.70212 -1.5879 0
M  V30 604 H 54.2698 -6.01883 -1.07458 0
M  V30 605 H 58.4438 -6.92944 -0.692983 0
M  V30 606 H 56.0708 -7.58979 -0.430607 0
M  V30 607 N 57.6459 0.756429 -1.3826 0
M  V30 608 C 58.5759 1.88374 -1.37976 0
M  V30 609 C 59.5569 1.68311 -0.246082 0
M  V30 610 O 60.7419 1.88944 -0.44874 0
M  V30 611 C 57.8719 3.25864 -1.20125 0
M  V30 612 C 56.8259 3.60523 -2.30666 0
M  V30 613 C 56.1519 4.9672 -1.97923 0
M  V30 614 C 57.4519 3.65692 -3.72916 0
M  V30 615 H 59.1459 1.88869 -2.32312 0
M  V30 616 H 56.6919 0.907272 -1.11824 0
M  V30 617 H 58.6449 4.0438 -1.18552 0
M  V30 618 H 57.3689 3.25841 -0.222498 0
M  V30 619 H 56.0279 2.84324 -2.3142 0
M  V30 620 H 55.6759 4.93253 -0.985393 0
M  V30 621 H 55.3759 5.20878 -2.71955 0
M  V30 622 H 56.8999 5.77618 -1.97964 0
M  V30 623 H 58.3139 4.34328 -3.74208 0
M  V30 624 H 56.7109 4.01358 -4.4613 0
M  V30 625 H 57.7809 2.65987 -4.05436 0
M  V30 626 N 59.124 1.23083 0.984299 0
M  V30 627 C 60.054 1.03292 2.09411 0
M  V30 628 C 61.035 -0.048923 1.7003 0
M  V30 629 O 62.22 0.114967 1.93859 0
M  V30 630 C 59.35 0.619155 3.41736 0
M  V30 631 C 58.304 1.64791 3.95004 0
M  V30 632 C 57.63 1.0897 5.23478 0
M  V30 633 C 58.93 3.03999 4.24714 0
M  V30 634 H 60.624 1.96119 2.26225 0
M  V30 635 H 58.17 0.944344 1.08711 0
M  V30 636 H 60.123 0.467777 4.18796 0
M  V30 637 H 58.847 -0.344786 3.24775 0
M  V30 638 H 57.506 1.78721 3.20085 0
M  V30 639 H 57.154 0.11686 5.02864 0
M  V30 640 H 56.854 1.77704 5.60085 0
M  V30 641 H 58.378 0.950093 6.03163 0
M  V30 642 H 59.792 2.93393 4.92538 0
M  V30 643 H 58.189 3.69936 4.72512 0
M  V30 644 H 59.259 3.53285 3.32142 0
M  V30 645 N 60.6021 -1.18246 1.0419 0
M  V30 646 C 61.5121 -2.25574 0.644476 0
M  V30 647 C 62.5281 -1.70845 -0.329826 0
M  V30 648 O 63.7041 -2.00554 -0.184443 0
M  V30 649 C 60.7691 -3.46697 0.014877 0
M  V30 650 C 59.8301 -4.16554 1.03834 0
M  V30 651 C 59.0631 -5.31894 0.438692 0
M  V30 652 O 59.2861 -5.65385 -0.754752 0
M  V30 653 O 58.2201 -5.90459 1.168 0
M  V30 654 H 62.0461 -2.61836 1.53869 0
M  V30 655 H 59.6311 -1.25352 0.812854 0
M  V30 656 H 61.5131 -4.20062 -0.335538 0
M  V30 657 H 60.1881 -3.12255 -0.853138 0
M  V30 658 H 59.0951 -3.45251 1.44057 0
M  V30 659 H 60.4281 -4.54998 1.87716 0
M  V30 660 N 62.0802 -0.821533 -1.34494 0
M  V30 661 C 63.4912 -0.467956 -1.8074 0
M  V30 662 C 63.8422 1.01151 -1.68116 0
M  V30 663 O 62.9672 1.78707 -1.22036 0
M  V30 664 C 63.5622 -0.842627 -3.28154 0
M  V30 665 C 62.1212 -0.541439 -3.72485 0
M  V30 666 C 61.2682 -1.06028 -2.56229 0
M  V30 667 H 64.2192 -1.01183 -1.22261 0
M  V30 668 H 64.2402 -0.145876 -3.8022 0
M  V30 669 H 63.7522 -1.91945 -3.37311 0
M  V30 670 H 61.8532 0.526034 -3.68868 0
M  V30 671 H 61.9662 -1.08453 -4.66663 0
M  V30 672 H 60.3302 -0.481892 -2.501 0
M  V30 673 H 61.1132 -2.14352 -2.68157 0
M  V30 674 N 63.5583 1.46682 -0.576371 0
M  V30 675 C 64.4903 2.28341 0.198231 0
M  V30 676 C 65.5033 1.38141 0.861453 0
M  V30 677 O 66.6923 1.62797 0.732082 0
M  V30 678 C 63.7923 3.12986 1.29972 0
M  V30 679 C 62.9653 4.31271 0.729639 0
M  V30 680 C 62.0243 4.97363 1.71803 0
M  V30 681 O 61.0503 5.55156 1.25658 0
M  V30 682 N 62.2523 4.93796 3.05198 0
M  V30 683 H 65.0173 2.9546 -0.502324 0
M  V30 684 H 62.5783 1.56525 -0.413715 0
M  V30 685 H 64.5703 3.54066 1.96008 0
M  V30 686 H 63.1403 2.47984 1.90323 0
M  V30 687 H 62.3603 3.94052 -0.108012 0
M  V30 688 H 63.6483 5.07739 0.328438 0
M  V30 689 H 63.0463 4.48077 3.45317 0
M  V30 690 H 61.6033 5.38837 3.6674 0
M  V30 691 N 65.0364 0.313813 1.54444 0
M  V30 692 C 65.9864 -0.571898 2.20711 0
M  V30 693 C 66.9704 -1.08913 1.18435 0
M  V30 694 O 68.1624 -1.02777 1.44104 0
M  V30 695 C 65.2914 -1.7371 2.96108 0
M  V30 696 C 64.3774 -1.23522 4.05713 0
M  V30 697 N 64.7684 -0.452288 5.03774 0
M  V30 698 C 63.0664 -1.51482 4.19487 0
M  V30 699 C 63.7674 -0.183438 5.81411 0
M  V30 700 N 62.7434 -0.766845 5.38164 0
M  V30 701 H 66.5454 0.0336802 2.93881 0
M  V30 702 H 64.0594 0.119192 1.61962 0
M  V30 703 H 66.0564 -2.38329 3.4206 0
M  V30 704 H 64.7164 -2.34625 2.24458 0
M  V30 705 H 65.7274 -0.0960131 5.17811 0
M  V30 706 H 62.4044 -2.13053 3.59047 0
M  V30 707 H 63.7944 0.446216 6.70417 0
M  V30 708 N 66.5145 -1.57545 0.0417849 0
M  V30 709 C 67.4625 -2.12148 -0.953723 0
M  V30 710 C 68.4565 -1.05104 -1.32852 0
M  V30 711 O 69.6625 -1.23524 -1.30927 0
M  V30 712 H 66.0375 -0.677957 -0.325389 0
M  V30 713 H 68.0085 -2.94707 -0.467991 0
M  V30 714 C 66.7575 -2.6739 -2.22257 0
M  V30 715 H 66.0805 -3.49413 -1.94295 0
M  V30 716 H 67.5205 -3.09227 -2.90094 0
M  V30 717 C 65.9795 -1.60723 -2.96091 0
M  V30 718 O 66.5095 -1.01449 -3.88679 0
M  V30 719 N 64.7155 -1.32466 -2.58652 0
M  V30 720 H 64.2625 -1.80856 -1.83437 0
M  V30 721 H 64.2205 -0.61325 -3.08361 0
M  V30 722 N 67.9926 0.231505 -1.5589 0
M  V30 723 C 69.2386 0.95877 -1.78705 0
M  V30 724 C 69.5716 1.8438 -0.609725 0
M  V30 725 O 68.8466 1.90521 0.391426 0
M  V30 726 C 69.1296 1.8062 -3.11526 0
M  V30 727 C 68.9826 0.948328 -4.39689 0
M  V30 728 C 70.3016 2.78585 -3.40703 0
M  V30 729 H 67.4206 0.347129 -0.650131 0
M  V30 730 H 70.0626 0.228259 -1.88624 0
M  V30 731 H 68.2126 2.42902 -3.03201 0
M  V30 732 H 69.8846 0.343016 -4.60023 0
M  V30 733 H 68.1276 0.253314 -4.3306 0
M  V30 734 H 68.7986 1.57543 -5.29041 0
M  V30 735 H 71.2746 2.26439 -3.49091 0
M  V30 736 H 70.1506 3.34988 -4.34826 0
M  V30 737 H 70.4116 3.55825 -2.62375 0
M  V30 738 N 69.4707 1.49531 0.497807 0
M  V30 739 C 70.4037 1.61043 1.6168 0
M  V30 740 C 71.3817 0.459386 1.55976 0
M  V30 741 O 72.5657 0.675358 1.75986 0
M  V30 742 C 69.6927 1.56833 3.00202 0
M  V30 743 C 68.7387 2.77173 3.24156 0
M  V30 744 S 69.5717 4.38808 3.06933 0
M  V30 745 C 70.7277 4.37248 4.47845 0
M  V30 746 H 70.9607 2.55702 1.51671 0
M  V30 747 H 68.4937 1.38462 0.683201 0
M  V30 748 H 70.4517 1.55089 3.80076 0
M  V30 749 H 69.1127 0.634561 3.07623 0
M  V30 750 H 68.3057 2.70456 4.25288 0
M  V30 751 H 67.9077 2.76346 2.5201 0
M  V30 752 H 70.1997 4.09164 5.39992 0
M  V30 753 H 71.1427 5.38668 4.59612 0
M  V30 754 H 71.5507 3.67286 4.28674 0
M  V30 755 N 70.9488 -0.749086 1.3866 0
M  V30 756 C 71.8808 -1.87273 1.32142 0
M  V30 757 C 72.8938 -1.61127 0.232787 0
M  V30 758 O 74.0828 -1.71623 0.49069 0
M  V30 759 C 71.1828 -3.23005 1.02571 0
M  V30 760 C 70.3558 -3.7662 2.22433 0
M  V30 761 C 69.4148 -4.90879 1.89537 0
M  V30 762 O 68.4408 -5.05276 2.62078 0
M  V30 763 N 69.6428 -5.74198 0.853031 0
M  V30 764 H 72.4078 -1.93373 2.28969 0
M  V30 765 H 69.9688 -0.929216 1.32579 0
M  V30 766 H 71.9608 -3.96992 0.786085 0
M  V30 767 H 70.5308 -3.12262 0.145249 0
M  V30 768 H 69.7508 -2.94147 2.62434 0
M  V30 769 H 71.0388 -4.09173 3.02415 0
M  V30 770 H 70.4368 -5.6514 0.25155 0
M  V30 771 H 68.9938 -6.48313 0.67329 0
M  V30 772 N 72.4269 -1.23603 -0.977757 0
M  V30 773 C 73.3599 -0.962772 -2.06896 0
M  V30 774 C 74.3379 0.0998743 -1.62293 0
M  V30 775 O 75.5219 -0.0349421 -1.88468 0
M  V30 776 C 72.6489 -0.45095 -3.35685 0
M  V30 777 C 71.6949 -1.50061 -3.99229 0
M  V30 778 S 72.5279 -3.07884 -4.38142 0
M  V30 779 C 73.6839 -2.58378 -5.7008 0
M  V30 780 H 73.9169 -1.88677 -2.29757 0
M  V30 781 H 71.4499 -1.06876 -1.11431 0
M  V30 782 H 73.4079 -0.162261 -4.10179 0
M  V30 783 H 72.0689 0.452179 -3.10828 0
M  V30 784 H 71.2619 -1.09269 -4.92013 0
M  V30 785 H 70.8639 -1.73878 -3.31123 0
M  V30 786 H 73.1559 -2.00563 -6.47133 0
M  V30 787 H 74.0989 -3.49711 -6.15717 0
M  V30 788 H 74.5069 -1.99143 -5.28207 0
M  V30 789 N 73.905 1.17692 -1.04816 0
M  V30 790 C 75.153 1.87488 -0.754497 0
M  V30 791 C 75.474 1.81205 0.720407 0
M  V30 792 O 74.744 1.23544 1.52032 0
M  V30 793 H 73.324 0.694101 -0.276102 0
M  V30 794 H 75.986 1.42793 -1.32651 0
M  V30 795 H 75.082 2.93328 -1.06606 0
M  V30 796 N 75.3831 0.828654 1.34056 0
M  V30 797 C 76.6311 0.41863 1.97717 0
M  V30 798 C 76.9521 -1.02314 1.66002 0
M  V30 799 O 76.2221 -1.71119 0.953683 0
M  V30 800 H 74.8021 0.151809 0.731412 0
M  V30 801 H 77.4641 1.05936 1.63596 0
M  V30 802 H 76.5601 0.542318 3.07352 0
M  V30 803 N 76.8612 -1.46375 0.584142 0
M  V30 804 C 78.1382 -1.956 0.0033388 0
M  V30 805 C 78.5182 -1.52679 -1.45782 0
M  V30 806 O 77.8662 -0.77816 -2.14842 0
M  V30 807 C 78.0762 -3.48551 0.176891 0
M  V30 808 C 79.4242 -4.24576 0.0454609 0
M  V30 809 O 80.4482 -3.56043 0.105801 0
M  V30 810 O 79.3072 -5.46427 -0.0890376 0
M  V30 811 H 76.4012 -0.825547 -0.0490066 0
M  V30 812 H 78.9472 -1.56652 0.65256 0
M  V30 813 H 77.7192 -3.72683 1.1926 0
M  V30 814 H 77.3422 -3.94332 -0.508695 0
M  V30 815 N 78.3393 -0.321999 -1.54275 0
M  V30 816 C 79.5863 0.281044 -2.0054 0
M  V30 817 C 79.9143 1.52265 -1.21019 0
M  V30 818 O 79.1693 1.93687 -0.279982 0
M  V30 819 C 79.4683 0.661769 -3.5122 0
M  V30 820 C 79.1343 -0.480482 -4.48333 0
M  V30 821 C 77.7963 -0.794005 -4.74604 0
M  V30 822 C 80.1483 -1.24783 -5.06042 0
M  V30 823 C 77.4763 -1.87763 -5.55844 0
M  V30 824 C 79.8283 -2.32153 -5.88462 0
M  V30 825 C 78.4923 -2.64089 -6.13036 0
M  V30 826 H 77.7623 0.102841 -0.733829 0
M  V30 827 H 80.4093 -0.445453 -1.86247 0
M  V30 828 H 78.7143 1.46867 -3.63232 0
M  V30 829 H 80.4113 1.13989 -3.84457 0
M  V30 830 H 77.0013 -0.226039 -4.28004 0
M  V30 831 H 81.1853 -1.01887 -4.85729 0
M  V30 832 H 76.4413 -2.12954 -5.73115 0
M  V30 833 H 80.6153 -2.92057 -6.32199 0
M  V30 834 H 78.2423 -3.48185 -6.75775 0
M  V30 835 N 79.8174 1.5752 -0.0501392 0
M  V30 836 C 80.7804 2.1037 0.909786 0
M  V30 837 C 81.7804 1.02308 1.24056 0
M  V30 838 O 82.9704 1.28385 1.17741 0
M  V30 839 C 80.1024 2.58708 2.21998 0
M  V30 840 H 81.2954 2.96479 0.451665 0
M  V30 841 H 78.8484 1.55038 0.198248 0
M  V30 842 H 79.5834 1.75989 2.72394 0
M  V30 843 H 79.3684 3.37675 1.99295 0
M  V30 844 H 80.8584 2.99747 2.9076 0
M  V30 845 N 81.2955 -0.223234 1.56011 0
M  V30 846 C 82.2435 -1.29627 1.93131 0
M  V30 847 C 83.2375 -1.48608 0.813146 0
M  V30 848 O 84.4435 -1.49802 0.997966 0
M  V30 849 H 80.8185 -0.434563 0.613726 0
M  V30 850 H 82.7895 -0.955995 2.82672 0
M  V30 851 C 81.5385 -2.63983 2.26292 0
M  V30 852 H 80.8615 -2.50185 3.11846 0
M  V30 853 H 82.3015 -3.3788 2.56151 0
M  V30 854 C 80.7605 -3.18866 1.08747 0
M  V30 855 O 81.2905 -4.00192 0.347727 0
M  V30 856 N 79.4965 -2.77217 0.871743 0
M  V30 857 H 79.0435 -2.1119 1.47501 0
M  V30 858 H 79.0015 -3.1428 0.0869905 0
M  V30 859 N 82.7736 -1.49793 -0.48987 0
M  V30 860 C 83.7216 -1.67783 -1.61095 0
M  V30 861 C 84.7156 -0.543683 -1.60438 0
M  V30 862 O 85.9216 -0.723647 -1.64813 0
M  V30 863 H 82.2966 -0.529255 -0.534222 0
M  V30 864 H 84.2676 -2.61861 -1.43078 0
M  V30 865 C 83.0166 -1.77191 -2.99164 0
M  V30 866 H 82.3396 -2.63841 -3.0038 0
M  V30 867 H 83.7796 -1.93809 -3.77113 0
M  V30 868 C 82.2386 -0.519203 -3.32875 0
M  V30 869 O 82.7686 0.350124 -4.00171 0
M  V30 870 N 80.9746 -0.378816 -2.8812 0
M  V30 871 H 80.5216 -1.08725 -2.33531 0
M  V30 872 H 80.4796 0.458239 -3.11043 0
M  V30 873 N 84.2517 0.741722 -1.39055 0
M  V30 874 C 85.6627 1.31966 -1.32068 0
M  V30 875 C 86.0137 1.96192 0.0180797 0
M  V30 876 O 85.1387 1.95861 0.920196 0
M  V30 877 C 85.7337 2.39954 -2.39181 0
M  V30 878 C 84.2927 2.93438 -2.35735 0
M  V30 879 C 83.4397 1.66936 -2.21422 0
M  V30 880 H 86.3907 0.539721 -1.4924 0
M  V30 881 H 86.4117 3.20182 -2.05581 0
M  V30 882 H 85.9237 1.9318 -3.36605 0
M  V30 883 H 84.0247 3.4451 -1.41929 0
M  V30 884 H 84.1377 3.4701 -3.30335 0
M  V30 885 H 82.5017 1.91016 -1.68478 0
M  V30 886 H 83.2847 1.22224 -3.20806 0
M  V30 887 N 85.7298 1.2412 0.971189 0
M  V30 888 C 86.6778 1.02812 2.08644 0
M  V30 889 C 87.6718 -0.0358403 1.69362 0
M  V30 890 O 88.8778 0.118429 1.7961 0
M  V30 891 H 85.2528 0.315428 0.682649 0
M  V30 892 H 87.2238 1.97397 2.23779 0
M  V30 893 C 85.9728 0.645874 3.41649 0
M  V30 894 H 85.2958 1.45632 3.72332 0
M  V30 895 H 86.7358 0.536366 4.20594 0
M  V30 896 C 85.1948 -0.646713 3.30635 0
M  V30 897 O 85.7248 -1.69338 3.64263 0
M  V30 898 N 83.9308 -0.626115 2.83775 0
M  V30 899 H 83.4778 0.225988 2.56607 0
M  V30 900 H 83.4358 -1.49117 2.76788 0
M  V30 901 N 87.2079 -1.17134 1.05439 0
M  V30 902 C 88.1709 -2.19439 0.661764 0
M  V30 903 C 89.1709 -1.58199 -0.288042 0
M  V30 904 O 90.3609 -1.74053 -0.0715803 0
M  V30 905 C 87.4929 -3.40889 -0.0276209 0
M  V30 906 H 88.6859 -2.55688 1.56728 0
M  V30 907 H 86.2389 -1.31259 0.848567 0
M  V30 908 H 86.9739 -3.10187 -0.94629 0
M  V30 909 H 86.7589 -3.86586 0.655238 0
M  V30 910 H 88.2489 -4.16603 -0.288342 0
M  V30 911 N 88.686 -0.835752 -1.33615 0
M  V30 912 C 89.618 -0.224151 -2.28101 0
M  V30 913 C 90.631 0.593331 -1.51603 0
M  V30 914 O 91.82 0.420911 -1.73466 0
M  V30 915 C 88.92 0.703309 -3.31522 0
M  V30 916 C 88.093 -0.0741528 -4.37337 0
M  V30 917 C 87.152 0.776176 -5.20444 0
M  V30 918 O 86.178 0.216506 -5.68788 0
M  V30 919 N 87.38 2.09401 -5.41416 0
M  V30 920 H 90.145 -1.03598 -2.81225 0
M  V30 921 H 87.706 -0.69392 -1.46275 0
M  V30 922 H 89.698 1.27707 -3.84022 0
M  V30 923 H 88.268 1.41585 -2.78698 0
M  V30 924 H 87.488 -0.82928 -3.85378 0
M  V30 925 H 88.776 -0.608863 -5.05144 0
M  V30 926 H 88.174 2.57229 -5.03835 0
M  V30 927 H 86.731 2.61633 -5.96985 0
M  V30 928 N 90.1641 1.46063 -0.591896 0
M  V30 929 C 91.0961 2.28539 0.174001 0
M  V30 930 C 92.1091 1.39047 0.846753 0
M  V30 931 O 93.2981 1.63564 0.714774 0
M  V30 932 C 90.3981 3.14347 1.26645 0
M  V30 933 C 89.5711 4.32021 0.683856 0
M  V30 934 C 88.6301 4.99157 1.66518 0
M  V30 935 O 87.6561 5.56458 1.19763 0
M  V30 936 N 88.8581 4.97005 2.99943 0
M  V30 937 H 91.6231 2.94911 -0.533633 0
M  V30 938 H 89.1841 1.56077 -0.430294 0
M  V30 939 H 91.1761 3.56125 1.92242 0
M  V30 940 H 89.7461 2.49988 1.87682 0
M  V30 941 H 88.9661 3.93915 -0.1498 0
M  V30 942 H 90.2541 5.08059 0.274567 0
M  V30 943 H 89.6521 4.51714 3.40545 0
M  V30 944 H 88.2091 5.42696 3.61004 0
M  V30 945 N 91.6422 0.330177 1.54103 0
M  V30 946 C 92.8892 -0.270405 2.00686 0
M  V30 947 C 93.2172 -1.51621 1.21825 0
M  V30 948 O 92.4722 -1.93536 0.29025 0
M  V30 949 C 92.7712 -0.643134 3.51566 0
M  V30 950 C 92.4372 0.504251 4.48072 0
M  V30 951 C 91.0992 0.819163 4.74176 0
M  V30 952 C 93.4512 1.27465 5.05373 0
M  V30 953 C 90.7792 1.90708 5.5484 0
M  V30 954 C 93.1312 2.35271 5.87223 0
M  V30 955 C 91.7952 2.67336 6.11627 0
M  V30 956 H 91.0652 -0.0989482 0.734364 0
M  V30 957 H 93.7122 0.455324 1.86008 0
M  V30 958 H 92.0172 -1.44938 3.64006 0
M  V30 959 H 93.7142 -1.11949 3.85056 0
M  V30 960 H 90.3042 0.248733 4.27878 0
M  V30 961 H 94.4882 1.04462 4.85182 0
M  V30 962 H 89.7442 2.15991 5.71977 0
M  V30 963 H 93.9182 2.95405 6.30641 0
M  V30 964 H 91.5452 3.51763 6.73919 0
M  V30 965 N 93.1203 -1.57491 0.0584922 0
M  V30 966 C 94.3693 -1.92155 -0.613146 0
M  V30 967 C 94.6823 -0.939334 -1.71569 0
M  V30 968 O 95.8883 -1.17829 -2.44599 0
M  V30 969 C 94.3443 -3.41303 -1.14195 0
M  V30 970 C 93.9523 -4.47944 -0.0711265 0
M  V30 971 C 95.6963 -3.84988 -1.78841 0
M  V30 972 C 93.6033 -5.88212 -0.613225 0
M  V30 973 H 92.5333 -0.717162 -0.232796 0
M  V30 974 H 95.1843 -1.83049 0.12857 0
M  V30 975 H 93.5663 -3.45437 -1.93621 0
M  V30 976 H 94.7403 -4.55408 0.702836 0
M  V30 977 H 93.0553 -4.13644 0.478313 0
M  V30 978 H 95.6523 -4.87159 -2.20408 0
M  V30 979 H 95.9953 -3.21632 -2.64308 0
M  V30 980 H 96.5283 -3.83401 -1.06059 0
M  V30 981 H 93.2673 -6.55183 0.203978 0
M  V30 982 H 92.7873 -5.84294 -1.35501 0
M  V30 983 H 94.4663 -6.37687 -1.09383 0
M  V30 984 N 94.5984 0.214957 -1.56127 0
M  V30 985 C 95.8754 0.963093 -1.70247 0
M  V30 986 C 96.2554 2.02166 -0.60764 0
M  V30 987 O 95.6034 2.25244 0.384385 0
M  V30 988 C 95.8134 1.56756 -3.11815 0
M  V30 989 C 97.1614 2.0573 -3.7143 0
M  V30 990 O 98.1854 1.66637 -3.14818 0
M  V30 991 O 97.0444 2.77603 -4.70743 0
M  V30 992 H 94.1384 0.450321 -0.693643 0
M  V30 993 H 96.6844 0.206219 -1.68442 0
M  V30 994 H 95.4564 0.803533 -3.82961 0
M  V30 995 H 95.0794 2.3898 -3.17765 0
M  V30 996 N 96.0765 1.50051 0.48192 0
M  V30 997 C 97.0235 1.68122 1.58125 0
M  V30 998 C 97.9935 0.522545 1.57666 0
M  V30 999 O 99.1785 0.751844 1.75362 0
M  V30 1000 C 96.3185 1.77142 2.96167 0
M  V30 1001 C 95.4315 3.0444 3.06497 0
M  V30 1002 C 94.5665 3.04321 4.35387 0
M  V30 1003 C 93.6055 4.26118 4.3942 0
M  V30 1004 N 92.7425 4.238 5.59766 0
M  V30 1005 H 97.5825 2.6198 1.42022 0
M  V30 1006 H 95.1195 1.29877 0.690687 0
M  V30 1007 H 97.0775 1.80352 3.76203 0
M  V30 1008 H 95.7075 0.867329 3.1093 0
M  V30 1009 H 94.7595 3.10752 2.19402 0
M  V30 1010 H 96.0715 3.94426 3.05336 0
M  V30 1011 H 95.2255 3.062 5.23762 0
M  V30 1012 H 93.9645 2.12147 4.39141 0
M  V30 1013 H 92.9695 4.24463 3.49444 0
M  V30 1014 H 94.1945 5.19507 4.37366 0
M  V30 1015 H 92.1405 3.34474 5.64326 0
M  V30 1016 H 92.0575 5.07542 5.60301 0
M  V30 1017 H 93.3255 4.2981 6.50295 0
M  V30 1018 N 97.5546 -0.734337 1.39446 0
M  V30 1019 C 98.4876 -1.85715 1.32609 0
M  V30 1020 C 99.4656 -1.6137 0.199636 0
M  V30 1021 O 100.65 -1.84626 0.380195 0
M  V30 1022 C 97.7766 -3.21709 1.05929 0
M  V30 1023 C 96.8226 -3.64913 2.20773 0
M  V30 1024 S 97.6556 -3.74203 3.83056 0
M  V30 1025 C 98.8116 -5.12986 3.58603 0
M  V30 1026 H 99.0446 -1.91232 2.27635 0
M  V30 1027 H 96.5776 -0.899263 1.25509 0
M  V30 1028 H 98.5356 -4.00236 0.912203 0
M  V30 1029 H 97.1966 -3.13848 0.125883 0
M  V30 1030 H 96.3896 -4.63606 1.97699 0
M  V30 1031 H 95.9916 -2.93593 2.31688 0
M  V30 1032 H 98.2836 -5.99339 3.15909 0
M  V30 1033 H 99.2266 -5.41088 4.5676 0
M  V30 1034 H 99.6346 -4.82694 2.9269 0
M  V30 1035 N 99.0327 -1.24633 -0.964593 0
M  V30 1036 C 100.279 -1.08949 -1.71049 0
M  V30 1037 C 100.612 0.370302 -1.90637 0
M  V30 1038 O 99.8867 1.27349 -1.47011 0
M  V30 1039 C 100.17 -1.83329 -3.0994 0
M  V30 1040 C 100.023 -3.37077 -2.97824 0
M  V30 1041 C 101.342 -1.60846 -4.09654 0
M  V30 1042 H 98.4607 -0.397178 -0.620821 0
M  V30 1043 H 101.103 -1.5334 -1.12191 0
M  V30 1044 H 99.2527 -1.45597 -3.60186 0
M  V30 1045 H 100.925 -3.84425 -2.5498 0
M  V30 1046 H 99.1677 -3.65298 -2.33965 0
M  V30 1047 H 99.8387 -3.84324 -3.96231 0
M  V30 1048 H 102.315 -1.93674 -3.68279 0
M  V30 1049 H 101.191 -2.1534 -5.04896 0
M  V30 1050 H 101.452 -0.547434 -4.38698 0
M  V30 1051 N 100.511 1.16574 -1.06058 0
M  V30 1052 C 101.459 2.22941 -0.663343 0
M  V30 1053 C 102.453 1.66358 0.319593 0
M  V30 1054 O 103.659 1.7905 0.184713 0
M  V30 1055 H 100.034 0.725907 -0.196376 0
M  V30 1056 H 102.005 2.53736 -1.57037 0
M  V30 1057 C 100.754 3.47642 -0.0632808 0
M  V30 1058 H 100.077 3.91493 -0.810733 0
M  V30 1059 H 101.517 4.2363 0.177177 0
M  V30 1060 C 99.9758 3.1509 1.19248 0
M  V30 1061 O 100.506 3.30673 2.28075 0
M  V30 1062 N 98.7118 2.6924 1.09353 0
M  V30 1063 H 98.2588 2.5676 0.207912 0
M  V30 1064 H 98.2168 2.47833 1.93458 0
M  V30 1065 N 101.989 0.842826 1.3317 0
M  V30 1066 C 102.936 0.276885 2.29133 0
M  V30 1067 C 103.906 -0.609527 1.54512 0
M  V30 1068 O 105.091 -0.546955 1.82792 0
M  V30 1069 C 102.231 -0.538707 3.40869 0
M  V30 1070 C 101.344 0.372169 4.30394 0
M  V30 1071 C 100.479 -0.454908 5.29249 0
M  V30 1072 C 99.5179 0.45411 6.10413 0
M  V30 1073 N 98.6549 -0.335075 7.013 0
M  V30 1074 H 103.495 1.10052 2.76934 0
M  V30 1075 H 101.032 0.554161 1.36262 0
M  V30 1076 H 102.99 -1.02709 4.0436 0
M  V30 1077 H 101.62 -1.32727 2.9425 0
M  V30 1078 H 100.672 0.97888 3.6759 0
M  V30 1079 H 101.984 1.0703 4.87182 0
M  V30 1080 H 101.138 -1.00695 5.98285 0
M  V30 1081 H 99.8769 -1.18646 4.73048 0
M  V30 1082 H 98.8819 1.01813 5.40291 0
M  V30 1083 H 100.107 1.18409 6.68697 0
M  V30 1084 H 98.0529 -1.04994 6.47543 0
M  V30 1085 H 97.9699 0.304262 7.55387 0
M  V30 1086 H 99.2379 -0.869224 7.74638 0
M  V30 1087 N 103.467 -1.45747 0.599634 0
M  V30 1088 C 104.417 -2.27538 -0.145107 0
M  V30 1089 C 105.401 -1.3686 -0.846055 0
M  V30 1090 O 106.593 -1.6091 -0.737357 0
M  V30 1091 C 103.722 -3.23569 -1.14708 0
M  V30 1092 C 102.808 -4.21734 -0.447383 0
M  V30 1093 N 103.199 -5.03257 0.506535 0
M  V30 1094 C 101.497 -4.40536 -0.695966 0
M  V30 1095 C 102.198 -5.74426 0.917068 0
M  V30 1096 N 101.174 -5.42966 0.26253 0
M  V30 1097 H 104.976 -2.87965 0.587672 0
M  V30 1098 H 102.49 -1.56803 0.422697 0
M  V30 1099 H 104.487 -3.8089 -1.69495 0
M  V30 1100 H 103.147 -2.64702 -1.8805 0
M  V30 1101 H 104.158 -5.10319 0.882899 0
M  V30 1102 H 100.835 -3.92802 -1.41467 0
M  V30 1103 H 102.225 -6.4995 1.70338 0
M  V30 1104 N 104.945 -0.338344 -1.53925 0
M  V30 1105 C 106.193 0.259245 -2.0043 0
M  V30 1106 C 106.514 1.51484 -1.22791 0
M  V30 1107 O 105.784 1.93037 -0.33368 0
M  V30 1108 H 104.364 0.0987845 -0.740439 0
M  V30 1109 H 107.026 -0.458302 -1.89435 0
M  V30 1110 H 106.122 0.505334 -3.07982 0
M  V30 1111 N 106.423 1.57458 -0.0668435 0
M  V30 1112 C 107.67 1.93301 0.603406 0
M  V30 1113 C 107.998 0.946486 1.69917 0
M  V30 1114 O 107.253 -0.0387021 1.95662 0
M  V30 1115 C 107.552 3.35784 1.22409 0
M  V30 1116 C 107.218 4.50179 0.254955 0
M  V30 1117 C 105.88 4.81199 -0.0116746 0
M  V30 1118 C 108.232 5.19598 -0.408338 0
M  V30 1119 C 105.56 5.78978 -0.94877 0
M  V30 1120 C 107.912 6.18381 -1.33372 0
M  V30 1121 C 106.576 6.47821 -1.60887 0
M  V30 1122 H 105.846 0.707338 0.220802 0
M  V30 1123 H 108.493 1.91012 -0.136665 0
M  V30 1124 H 106.798 3.34515 2.03978 0
M  V30 1125 H 108.495 3.60804 1.74989 0
M  V30 1126 H 105.085 4.25983 0.472954 0
M  V30 1127 H 109.269 4.95832 -0.215456 0
M  V30 1128 H 104.525 6.00115 -1.16925 0
M  V30 1129 H 108.699 6.71277 -1.85367 0
M  V30 1130 H 106.326 7.23399 -2.33661 0
M  V30 1131 N 107.901 -0.206675 1.56239 0
M  V30 1132 C 109.178 -0.954051 1.70755 0
M  V30 1133 C 109.558 -2.01841 0.618353 0
M  V30 1134 O 108.906 -2.25444 -0.372434 0
M  V30 1135 C 109.116 -1.551 3.12642 0
M  V30 1136 C 110.464 -2.03757 3.72516 0
M  V30 1137 O 111.488 -1.64965 3.15698 0
M  V30 1138 O 110.347 -2.75103 4.72208 0
M  V30 1139 H 107.441 -0.446636 0.696021 0
M  V30 1140 H 109.987 -0.197283 1.68549 0
M  V30 1141 H 108.759 -0.783212 3.83382 0
M  V30 1142 H 108.382 -2.37291 3.19028 0
M  V30 1143 N 109.379 -1.50304 -0.473955 0
M  V30 1144 C 110.795 -1.37667 -0.807466 0
M  V30 1145 C 110.995 -0.430555 -1.96846 0
M  V30 1146 O 110.051 0.127874 -2.52176 0
M  V30 1147 C 111.364 -2.78974 -1.12223 0
M  V30 1148 C 112.912 -2.87868 -1.22885 0
M  V30 1149 C 113.387 -4.30003 -1.57676 0
M  V30 1150 N 114.878 -4.3294 -1.64673 0
M  V30 1151 C 115.613 -5.3991 -1.93091 0
M  V30 1152 N 115.109 -6.57092 -2.1955 0
M  V30 1153 N 116.902 -5.27351 -1.94569 0
M  V30 1154 H 109.053 -2.10394 0.291212 0
M  V30 1155 H 111.316 -0.945575 0.0677609 0
M  V30 1156 H 111.022 -3.50031 -0.342229 0
M  V30 1157 H 110.896 -3.16038 -2.05913 0
M  V30 1158 H 113.283 -2.17032 -1.99953 0
M  V30 1159 H 113.364 -2.54352 -0.271814 0
M  V30 1160 H 113.008 -5.01375 -0.81149 0
M  V30 1161 H 112.938 -4.61004 -2.54525 0
M  V30 1162 H 115.429 -3.48441 -1.46277 0
M  V30 1163 H 115.742 -7.34425 -2.405 0
M  V30 1164 H 114.087 -6.60272 -2.16948 0
M  V30 1165 H 117.278 -4.34801 -1.73394 0
M  V30 1166 H 117.451 -6.10805 -2.16381 0
M  V30 1167 N 110.857 0.726932 -1.39834 0
M  V30 1168 C 111.789 1.85147 -1.35104 0
M  V30 1169 C 112.802 1.60736 -0.258392 0
M  V30 1170 O 113.991 1.70821 -0.517931 0
M  V30 1171 C 111.091 3.21332 -1.07697 0
M  V30 1172 C 110.264 3.73033 -2.28396 0
M  V30 1173 C 109.323 4.87802 -1.97322 0
M  V30 1174 O 108.349 5.01043 -2.70083 0
M  V30 1175 N 109.551 5.72768 -0.944273 0
M  V30 1176 H 112.316 1.89706 -2.32017 0
M  V30 1177 H 109.877 0.908006 -1.3404 0
M  V30 1178 H 111.869 3.95691 -0.849144 0
M  V30 1179 H 110.439 3.11992 -0.194909 0
M  V30 1180 H 109.659 2.89934 -2.6708 0
M  V30 1181 H 110.947 4.0431 -3.08887 0
M  V30 1182 H 110.345 5.64669 -0.341427 0
M  V30 1183 H 108.902 6.4716 -0.776346 0
M  V30 1184 N 112.336 1.25143 0.95797 0
M  V30 1185 C 113.268 1.01023 2.05735 0
M  V30 1186 C 114.281 -0.0236902 1.62783 0
M  V30 1187 O 115.47 0.21448 1.77207 0
M  V30 1188 C 112.57 0.504595 3.35122 0
M  V30 1189 C 111.743 1.6039 4.06932 0
M  V30 1190 C 110.802 1.09922 5.14591 0
M  V30 1191 O 109.828 1.79293 5.40225 0
M  V30 1192 N 111.03 -0.0612545 5.80468 0
M  V30 1193 H 113.795 1.95683 2.26998 0
M  V30 1194 H 111.356 1.16303 1.12629 0
M  V30 1195 H 113.348 0.151516 4.04416 0
M  V30 1196 H 111.918 -0.347989 3.10657 0
M  V30 1197 H 111.138 2.12872 3.31782 0
M  V30 1198 H 112.426 2.34252 4.51667 0
M  V30 1199 H 111.824 -0.640985 5.62057 0
M  V30 1200 H 110.381 -0.355395 6.5083 0
M  V30 1201 N 113.814 -1.1601 1.06675 0
M  V30 1202 C 114.744 -2.22688 0.702307 0
M  V30 1203 C 115.725 -1.67306 -0.307032 0
M  V30 1204 O 116.91 -1.93352 -0.181305 0
M  V30 1205 C 114.04 -3.47178 0.092038 0
M  V30 1206 C 112.994 -4.15477 1.02777 0
M  V30 1207 C 112.32 -5.33963 0.28061 0
M  V30 1208 C 113.62 -4.66019 2.35846 0
M  V30 1209 H 115.314 -2.53429 1.59419 0
M  V30 1210 H 112.86 -1.21813 0.767961 0
M  V30 1211 H 114.813 -4.21037 -0.174814 0
M  V30 1212 H 113.537 -3.15749 -0.834877 0
M  V30 1213 H 112.196 -3.43549 1.27944 0
M  V30 1214 H 111.844 -4.98788 -0.649545 0
M  V30 1215 H 111.544 -5.806 0.904258 0
M  V30 1216 H 113.068 -6.10596 0.021396 0
M  V30 1217 H 114.482 -5.3144 2.15045 0
M  V30 1218 H 112.879 -5.23293 2.93743 0
M  V30 1219 H 113.949 -3.82023 2.98641 0
M  V30 1220 N 115.292 -0.849877 -1.32721 0
M  V30 1221 C 116.224 -0.248332 -2.27851 0
M  V30 1222 C 117.237 0.577218 -1.52224 0
M  V30 1223 O 118.426 0.402489 -1.73903 0
M  V30 1224 C 115.526 0.668107 -3.32249 0
M  V30 1225 C 114.699 -0.120534 -4.37234 0
M  V30 1226 C 113.758 0.720932 -5.21238 0
M  V30 1227 O 112.784 0.156166 -5.68986 0
M  V30 1228 N 113.986 2.03647 -5.43607 0
M  V30 1229 H 116.751 -1.06575 -2.80111 0
M  V30 1230 H 114.312 -0.709395 -1.45531 0
M  V30 1231 H 116.304 1.23627 -3.85355 0
M  V30 1232 H 114.874 1.38621 -2.80184 0
M  V30 1233 H 114.094 -0.870108 -3.84477 0
M  V30 1234 H 115.382 -0.662406 -5.0447 0
M  V30 1235 H 114.78 2.51871 -5.06535 0
M  V30 1236 H 113.337 2.55287 -5.99727 0
M  V30 1237 N 116.77 1.45427 -0.607355 0
M  V30 1238 C 117.68 2.34325 0.113463 0
M  V30 1239 C 118.696 1.51226 0.860617 0
M  V30 1240 O 119.872 1.84029 0.818255 0
M  V30 1241 C 116.937 3.28839 1.09844 0
M  V30 1242 C 115.998 4.27844 0.353271 0
M  V30 1243 C 115.231 5.17842 1.29133 0
M  V30 1244 O 115.454 5.11264 2.52913 0
M  V30 1245 O 114.388 5.96713 0.788523 0
M  V30 1246 H 118.214 2.97364 -0.617094 0
M  V30 1247 H 115.799 1.44807 -0.367619 0
M  V30 1248 H 117.681 3.8708 1.66575 0
M  V30 1249 H 116.356 2.68365 1.81003 0
M  V30 1250 H 115.263 3.7322 -0.256494 0
M  V30 1251 H 116.596 4.91173 -0.317822 0
M  V30 1252 N 118.248 0.346503 1.53744 0
M  V30 1253 C 119.497 -0.250122 2.00143 0
M  V30 1254 C 119.81 -1.51418 1.23822 0
M  V30 1255 O 121.016 -2.18823 1.60713 0
M  V30 1256 C 119.472 -0.496252 3.56462 0
M  V30 1257 C 119.08 0.752077 4.41642 0
M  V30 1258 C 120.824 -1.05157 4.11269 0
M  V30 1259 C 118.731 0.476583 5.89477 0
M  V30 1260 H 117.661 -0.0972409 0.747703 0
M  V30 1261 H 120.312 0.46229 1.77581 0
M  V30 1262 H 118.694 -1.26944 3.75102 0
M  V30 1263 H 119.868 1.5266 4.34778 0
M  V30 1264 H 118.183 1.22925 3.97842 0
M  V30 1265 H 120.78 -1.27269 5.19333 0
M  V30 1266 H 121.123 -2.00799 3.64672 0
M  V30 1267 H 121.656 -0.339019 3.96353 0
M  V30 1268 H 118.395 1.4028 6.40314 0
M  V30 1269 H 117.915 -0.259794 5.99237 0
M  V30 1270 H 119.594 0.0949315 6.4693 0
M  V30 1271 N 119.726 -1.57421 0.075193 0
M  V30 1272 C 120.656 -2.15942 -0.888324 0
M  V30 1273 C 121.637 -1.08737 -1.30806 0
M  V30 1274 O 122.822 -1.36787 -1.37851 0
M  V30 1275 C 119.952 -2.72379 -2.1547 0
M  V30 1276 C 118.906 -3.8478 -1.87425 0
M  V30 1277 C 118.232 -4.27834 -3.20721 0
M  V30 1278 C 119.532 -5.08869 -1.17684 0
M  V30 1279 H 121.226 -2.96705 -0.400799 0
M  V30 1280 H 118.772 -1.42723 -0.191342 0
M  V30 1281 H 120.725 -3.11965 -2.83295 0
M  V30 1282 H 119.449 -1.88841 -2.6647 0
M  V30 1283 H 118.108 -3.45703 -1.22004 0
M  V30 1284 H 117.756 -3.41214 -3.6957 0
M  V30 1285 H 117.456 -5.03605 -3.02746 0
M  V30 1286 H 118.98 -4.70039 -3.89738 0
M  V30 1287 H 120.394 -5.4575 -1.75584 0
M  V30 1288 H 118.791 -5.8994 -1.09956 0
M  V30 1289 H 119.861 -4.84648 -0.156453 0
M  V30 1290 N 121.204 0.198386 -1.56346 0
M  V30 1291 C 122.429 0.939682 -1.84891 0
M  V30 1292 C 122.854 1.76202 -0.658369 0
M  V30 1293 O 122.212 1.76993 0.392851 0
M  V30 1294 C 122.26 1.81428 -3.11635 0
M  V30 1295 O 121.364 2.91265 -2.91956 0
M  V30 1296 H 120.705 0.264807 -0.608912 0
M  V30 1297 H 123.235 0.204695 -2.03573 0
M  V30 1298 H 123.245 2.21958 -3.42343 0
M  V30 1299 H 121.92 1.21004 -3.97908 0
M  V30 1300 H 120.497 2.54514 -2.72538 0
M  V30 1301 N 122.682 1.50554 0.465978 0
M  V30 1302 C 123.614 1.65949 1.58093 0
M  V30 1303 C 124.627 0.540827 1.53554 0
M  V30 1304 O 125.816 0.814187 1.5885 0
M  V30 1305 C 122.916 1.63261 2.96983 0
M  V30 1306 C 122.089 2.91245 3.26336 0
M  V30 1307 C 121.148 2.8113 4.44806 0
M  V30 1308 O 120.174 3.55086 4.44862 0
M  V30 1309 N 121.376 1.95032 5.46756 0
M  V30 1310 H 124.141 2.62122 1.45301 0
M  V30 1311 H 121.702 1.48082 0.65448 0
M  V30 1312 H 123.694 1.54101 3.74212 0
M  V30 1313 H 122.264 0.748032 3.03518 0
M  V30 1314 H 121.484 3.14493 2.37672 0
M  V30 1315 H 122.772 3.76022 3.42761 0
M  V30 1316 H 122.17 1.3427 5.49534 0
M  V30 1317 H 120.727 1.91772 6.2295 0
M  V30 1318 N 124.16 -0.719506 1.40217 0
M  V30 1319 C 125.123 -1.8153 1.39927 0
M  V30 1320 C 126.123 -1.58095 0.293723 0
M  V30 1321 O 127.313 -1.65209 0.552429 0
M  V30 1322 C 124.445 -3.19561 1.18716 0
M  V30 1323 H 125.638 -1.83186 2.37451 0
M  V30 1324 H 123.191 -0.924746 1.26008 0
M  V30 1325 H 123.926 -3.23557 0.219366 0
M  V30 1326 H 123.711 -3.3797 1.98793 0
M  V30 1327 H 125.201 -3.99598 1.21291 0
M  V30 1328 N 125.638 -1.25649 -0.95132 0
M  V30 1329 C 126.585 -1.06323 -2.04851 0
M  V30 1330 C 127.555 0.0286491 -1.66075 0
M  V30 1331 O 128.74 -0.12917 -1.90362 0
M  V30 1332 C 125.88 -0.691529 -3.381 0
M  V30 1333 C 124.993 -1.85861 -3.89974 0
M  V30 1334 C 124.128 -1.43096 -5.11563 0
M  V30 1335 C 123.167 -2.56696 -5.55674 0
M  V30 1336 N 122.304 -2.14684 -6.68472 0
M  V30 1337 H 127.144 -2.00222 -2.20715 0
M  V30 1338 H 124.681 -0.997027 -1.08156 0
M  V30 1339 H 126.639 -0.456963 -4.1469 0
M  V30 1340 H 125.269 0.210474 -3.22113 0
M  V30 1341 H 124.321 -2.20639 -3.09875 0
M  V30 1342 H 125.633 -2.71161 -4.18657 0
M  V30 1343 H 124.787 -1.15624 -5.9558 0
M  V30 1344 H 123.526 -0.548722 -4.84603 0
M  V30 1345 H 122.531 -2.84909 -4.7022 0
M  V30 1346 H 123.756 -3.45503 -5.8464 0
M  V30 1347 H 121.702 -1.28881 -6.43215 0
M  V30 1348 H 121.619 -2.9353 -6.96689 0
M  V30 1349 H 122.887 -1.90397 -7.5589 0
M  V30 1350 N 127.117 1.15442 -1.07289 0
M  V30 1351 C 128.533 1.38201 -0.798288 0
M  V30 1352 C 128.733 1.92429 0.597769 0
M  V30 1353 O 127.789 2.12962 1.3566 0
M  V30 1354 C 129.102 2.35357 -1.87156 0
M  V30 1355 C 130.65 2.49021 -1.89624 0
M  V30 1356 C 131.125 3.49468 -2.96034 0
M  V30 1357 N 132.616 3.57003 -2.95132 0
M  V30 1358 C 133.351 4.34543 -3.74112 0
M  V30 1359 N 132.847 5.15421 -4.6294 0
M  V30 1360 N 134.64 4.29625 -3.62462 0
M  V30 1361 H 126.791 0.78584 -1.97328 0
M  V30 1362 H 129.054 0.408065 -0.855679 0
M  V30 1363 H 128.76 2.02626 -2.87464 0
M  V30 1364 H 128.634 3.35129 -1.73114 0
M  V30 1365 H 131.021 2.81051 -0.899687 0
M  V30 1366 H 131.102 1.4925 -2.07745 0
M  V30 1367 H 130.746 3.18173 -3.95889 0
M  V30 1368 H 130.676 4.48992 -2.75161 0
M  V30 1369 H 133.167 2.99276 -2.30743 0
M  V30 1370 H 133.48 5.7183 -5.19837 0
M  V30 1371 H 131.825 5.14729 -4.66989 0
M  V30 1372 H 135.016 3.65505 -2.92444 0
M  V30 1373 H 135.189 4.89807 -4.24256 0
M  V30 1374 N 128.595 0.856903 1.32268 0
M  V30 1375 C 129.525 0.31858 2.31316 0
M  V30 1376 C 130.506 -0.583487 1.59779 0
M  V30 1377 O 131.691 -0.503259 1.87566 0
M  V30 1378 C 128.821 -0.491979 3.43798 0
M  V30 1379 C 127.775 0.315849 4.26833 0
M  V30 1380 C 127.101 -0.619586 5.31098 0
M  V30 1381 C 128.401 1.54282 4.98993 0
M  V30 1382 H 130.095 1.14621 2.76591 0
M  V30 1383 H 127.641 0.552613 1.32974 0
M  V30 1384 H 129.594 -0.879012 4.1213 0
M  V30 1385 H 128.318 -1.35299 2.97257 0
M  V30 1386 H 126.977 0.684664 3.6015 0
M  V30 1387 H 126.625 -1.47751 4.8081 0
M  V30 1388 H 126.325 -0.0830621 5.87541 0
M  V30 1389 H 127.849 -1.00375 6.02293 0
M  V30 1390 H 129.263 1.22796 5.59995 0
M  V30 1391 H 127.66 2.01745 5.65172 0
M  V30 1392 H 128.73 2.30285 4.26728 0
M  V30 1393 N 130.073 -1.45103 0.615059 0
M  V30 1394 C 131.35 -1.95549 0.0448276 0
M  V30 1395 C 131.73 -1.55737 -1.4251 0
M  V30 1396 O 131.078 -0.823556 -2.13143 0
M  V30 1397 C 131.288 -3.48098 0.250785 0
M  V30 1398 C 132.636 -4.24384 0.135509 0
M  V30 1399 O 133.66 -3.55738 0.181299 0
M  V30 1400 O 132.519 -5.46493 0.0268878 0
M  V30 1401 H 129.613 -0.8264 -0.0314845 0
M  V30 1402 H 132.159 -1.55232 0.685642 0
M  V30 1403 H 130.931 -3.7007 1.27139 0
M  V30 1404 H 130.554 -3.95323 -0.424937 0
M  V30 1405 N 131.551 -0.354651 -1.53558 0
M  V30 1406 C 132.776 0.242153 -2.05981 0
M  V30 1407 C 133.201 1.42553 -1.2272 0
M  V30 1408 O 132.559 1.79656 -0.243604 0
M  V30 1409 C 132.607 0.624367 -3.55154 0
M  V30 1410 O 131.711 1.72301 -3.74681 0
M  V30 1411 H 131.052 0.0378432 -0.662921 0
M  V30 1412 H 133.582 -0.512087 -1.98088 0
M  V30 1413 H 133.592 0.898433 -3.97985 0
M  V30 1414 H 132.267 -0.240989 -4.15201 0
M  V30 1415 H 130.844 1.44535 -3.4375 0
M  V30 1416 N 133.029 1.57378 -0.0835403 0
M  V30 1417 C 134.275 1.94217 0.583733 0
M  V30 1418 C 134.608 0.964653 1.68547 0
M  V30 1419 O 133.883 -0.00422258 1.945 0
M  V30 1420 C 134.166 3.41253 1.14972 0
M  V30 1421 C 134.019 4.49768 0.0538277 0
M  V30 1422 C 135.338 3.89352 2.05166 0
M  V30 1423 H 132.457 0.706233 0.210724 0
M  V30 1424 H 135.099 1.89392 -0.1519 0
M  V30 1425 H 133.249 3.45496 1.77665 0
M  V30 1426 H 134.921 4.57641 -0.579851 0
M  V30 1427 H 133.164 4.29432 -0.614068 0
M  V30 1428 H 133.835 5.49817 0.490452 0
M  V30 1429 H 136.311 3.87189 1.52393 0
M  V30 1430 H 135.187 4.92822 2.41698 0
M  V30 1431 H 135.448 3.27973 2.96456 0
M  V30 1432 N 134.507 -0.190092 1.56449 0
M  V30 1433 C 135.437 -1.23816 1.97969 0
M  V30 1434 C 136.418 -1.47201 0.852395 0
M  V30 1435 O 137.603 -1.58854 1.1171 0
M  V30 1436 C 134.733 -2.5813 2.3235 0
M  V30 1437 C 133.687 -2.49348 3.47864 0
M  V30 1438 C 133.013 -3.8798 3.67934 0
M  V30 1439 C 134.313 -2.01424 4.81898 0
M  V30 1440 H 136.007 -0.89311 2.85769 0
M  V30 1441 H 133.553 -0.428177 1.37487 0
M  V30 1442 H 135.506 -3.31637 2.59991 0
M  V30 1443 H 134.23 -2.94386 1.41438 0
M  V30 1444 H 132.889 -1.78297 3.20321 0
M  V30 1445 H 132.537 -4.21597 2.74344 0
M  V30 1446 H 132.237 -3.82978 4.45648 0
M  V30 1447 H 133.761 -4.63101 3.97957 0
M  V30 1448 H 135.175 -2.64693 5.08538 0
M  V30 1449 H 133.572 -2.07413 5.63116 0
M  V30 1450 H 134.642 -0.967677 4.75146 0
M  V30 1451 N 135.985 -1.50799 -0.457987 0
M  V30 1452 C 137.401 -1.38515 -0.792819 0
M  V30 1453 C 137.601 -0.451409 -1.96379 0
M  V30 1454 O 136.657 0.10112 -2.52297 0
M  V30 1455 C 137.97 -2.80149 -1.09258 0
M  V30 1456 C 139.518 -2.89156 -1.19825 0
M  V30 1457 C 139.993 -4.31651 -1.53106 0
M  V30 1458 N 141.484 -4.34662 -1.60072 0
M  V30 1459 C 142.219 -5.41928 -1.87354 0
M  V30 1460 N 141.715 -6.59384 -2.12568 0
M  V30 1461 N 143.508 -5.29385 -1.88965 0
M  V30 1462 H 135.659 -2.10073 0.313511 0
M  V30 1463 H 137.922 -0.944803 0.0777862 0
M  V30 1464 H 137.628 -3.50374 -0.305084 0
M  V30 1465 H 137.502 -3.18204 -2.02549 0
M  V30 1466 H 139.889 -2.19141 -1.97639 0
M  V30 1467 H 139.97 -2.54626 -0.244821 0
M  V30 1468 H 139.614 -5.02208 -0.758266 0
M  V30 1469 H 139.544 -4.63678 -2.49621 0
M  V30 1470 H 142.035 -3.49973 -1.42573 0
M  V30 1471 H 142.348 -7.36934 -2.32696 0
M  V30 1472 H 140.693 -6.62535 -2.09933 0
M  V30 1473 H 143.884 -4.36616 -1.68772 0
M  V30 1474 H 144.057 -6.13066 -2.09891 0
M  V30 1475 N 137.463 0.71206 -1.40597 0
M  V30 1476 C 138.393 1.83889 -1.43899 0
M  V30 1477 C 139.374 1.67442 -0.299504 0
M  V30 1478 O 140.559 1.87421 -0.508624 0
M  V30 1479 C 137.689 3.21877 -1.30431 0
M  V30 1480 C 136.643 3.53002 -2.42019 0
M  V30 1481 C 135.969 4.90172 -2.13626 0
M  V30 1482 C 137.269 3.53643 -3.84362 0
M  V30 1483 H 138.963 1.81383 -2.38203 0
M  V30 1484 H 136.509 0.871237 -1.14654 0
M  V30 1485 H 138.462 4.00404 -1.31357 0
M  V30 1486 H 137.186 3.24968 -0.326049 0
M  V30 1487 H 135.845 2.76818 -2.40349 0
M  V30 1488 H 135.493 4.89869 -1.14182 0
M  V30 1489 H 135.193 5.11962 -2.88389 0
M  V30 1490 H 136.717 5.71028 -2.1624 0
M  V30 1491 H 138.131 4.22203 -3.87837 0
M  V30 1492 H 136.528 3.86961 -4.58673 0
M  V30 1493 H 137.598 2.52954 -4.13693 0
M  V30 1494 N 138.941 1.26152 0.944643 0
M  V30 1495 C 139.874 1.01729 2.04271 0
M  V30 1496 C 140.852 -0.0568101 1.62501 0
M  V30 1497 O 142.036 0.0848987 1.88309 0
M  V30 1498 C 139.163 0.539792 3.34371 0
M  V30 1499 C 138.209 1.60593 3.9511 0
M  V30 1500 S 139.042 3.19392 4.29825 0
M  V30 1501 C 140.198 2.73402 5.63029 0
M  V30 1502 H 140.431 1.94703 2.24673 0
M  V30 1503 H 137.964 1.09793 1.08558 0
M  V30 1504 H 139.922 0.270956 4.09605 0
M  V30 1505 H 138.583 -0.369609 3.11918 0
M  V30 1506 H 137.776 1.22275 4.88943 0
M  V30 1507 H 137.378 1.82596 3.26397 0
M  V30 1508 H 139.67 2.1765 6.41588 0
M  V30 1509 H 140.613 3.65913 6.06229 0
M  V30 1510 H 141.021 2.13077 5.22741 0
M  V30 1511 N 140.419 -1.14872 1.07899 0
M  V30 1512 C 141.696 -1.81928 0.71845 0
M  V30 1513 C 142.076 -1.95417 -0.798455 0
M  V30 1514 O 141.424 -1.50997 -1.715 0
M  V30 1515 C 141.634 -3.17937 1.43935 0
M  V30 1516 C 142.982 -3.93501 1.59506 0
M  V30 1517 O 144.006 -3.27509 1.40058 0
M  V30 1518 O 142.865 -5.1183 1.91551 0
M  V30 1519 H 139.959 -0.78628 0.256305 0
M  V30 1520 H 142.505 -1.21934 1.18026 0
M  V30 1521 H 141.277 -3.0325 2.47295 0
M  V30 1522 H 140.9 -3.85619 0.968687 0
M  V30 1523 N 141.898 -0.863906 -1.31812 0
M  V30 1524 C 142.846 -0.30422 -2.30602 0
M  V30 1525 C 143.84 0.577419 -1.59255 0
M  V30 1526 O 145.046 0.464194 -1.73912 0
M  V30 1527 H 141.421 -0.0796877 -0.747766 0
M  V30 1528 H 143.392 -1.15148 -2.75288 0
M  V30 1529 C 142.141 0.484617 -3.44306 0
M  V30 1530 H 141.464 -0.18451 -3.99374 0
M  V30 1531 H 142.904 0.841664 -4.15562 0
M  V30 1532 C 141.363 1.6735 -2.92396 0
M  V30 1533 O 141.893 2.77273 -2.90659 0
M  V30 1534 N 140.099 1.50362 -2.48676 0
M  V30 1535 H 139.646 0.609402 -2.50288 0
M  V30 1536 H 139.604 2.30051 -2.14299 0
M  V30 1537 N 143.376 1.44774 -0.622745 0
M  V30 1538 C 144.308 2.28856 0.125485 0
M  V30 1539 C 145.321 1.40811 0.817069 0
M  V30 1540 O 146.51 1.65044 0.679918 0
M  V30 1541 C 143.61 3.16963 1.19949 0
M  V30 1542 C 142.783 4.33374 0.592064 0
M  V30 1543 C 141.842 5.02577 1.55893 0
M  V30 1544 O 140.868 5.58873 1.07933 0
M  V30 1545 N 142.07 5.03256 2.89334 0
M  V30 1546 H 144.835 2.93713 -0.596068 0
M  V30 1547 H 142.396 1.55129 -0.463303 0
M  V30 1548 H 144.388 3.60123 1.84644 0
M  V30 1549 H 142.958 2.53913 1.82337 0
M  V30 1550 H 142.178 3.93509 -0.233322 0
M  V30 1551 H 143.466 5.08527 0.166738 0
M  V30 1552 H 142.864 4.58836 3.30887 0
M  V30 1553 H 141.421 5.50232 3.49412 0
M  V30 1554 N 144.854 0.36279 1.53368 0
M  V30 1555 C 145.817 -0.472679 2.24273 0
M  V30 1556 C 146.817 -1.012 1.24961 0
M  V30 1557 O 148.007 -0.898194 1.49259 0
M  V30 1558 C 145.139 -1.66039 2.97731 0
M  V30 1559 H 146.332 0.14773 2.99536 0
M  V30 1560 H 143.885 0.114434 1.55881 0
M  V30 1561 H 144.62 -2.31896 2.26704 0
M  V30 1562 H 144.405 -1.28066 3.70596 0
M  V30 1563 H 145.895 -2.25252 3.51641 0
M  V30 1564 N 146.332 -1.57332 0.0918853 0
M  V30 1565 C 147.743 -1.81496 -0.437739 0
M  V30 1566 C 148.094 -1.00727 -1.6837 0
M  V30 1567 O 147.219 -0.235694 -2.15113 0
M  V30 1568 C 147.814 -3.29197 -0.800939 0
M  V30 1569 C 146.373 -3.54136 -1.27532 0
M  V30 1570 C 145.52 -2.75979 -0.270392 0
M  V30 1571 H 148.471 -1.55494 0.317366 0
M  V30 1572 H 148.492 -3.42344 -1.66074 0
M  V30 1573 H 148.004 -3.87955 0.106078 0
M  V30 1574 H 146.105 -3.00705 -2.20016 0
M  V30 1575 H 146.218 -4.62792 -1.23938 0
M  V30 1576 H 144.582 -2.43349 -0.751872 0
M  V30 1577 H 145.365 -3.37484 0.629248 0
M  V30 1578 N 147.81 0.181792 -1.56548 0
M  V30 1579 C 149.038 0.915947 -1.85521 0
M  V30 1580 C 149.453 1.76282 -0.676016 0
M  V30 1581 O 148.81 1.79012 0.355077 0
M  V30 1582 C 148.861 1.80126 -3.13427 0
M  V30 1583 O 148.582 0.988562 -4.26801 0
M  V30 1584 C 150.083 2.64597 -3.55673 0
M  V30 1585 H 147.303 0.26661 -0.61576 0
M  V30 1586 H 149.847 0.185039 -2.03661 0
M  V30 1587 H 148.002 2.48563 -2.97145 0
M  V30 1588 H 148.416 1.59308 -4.99721 0
M  V30 1589 H 149.89 3.2235 -4.48101 0
M  V30 1590 H 150.367 3.38958 -2.79292 0
M  V30 1591 H 150.973 2.0151 -3.74532 0
M  V30 1592 N 149.288 1.51039 0.449983 0
M  V30 1593 C 150.516 1.66869 1.2232 0
M  V30 1594 C 150.931 0.360727 1.85322 0
M  V30 1595 O 150.288 -0.659531 1.70166 0
M  V30 1596 C 150.339 2.77524 2.31652 0
M  V30 1597 O 150.06 4.03252 1.7123 0
M  V30 1598 C 151.561 3.04512 3.2216 0
M  V30 1599 H 148.781 0.560326 0.369155 0
M  V30 1600 H 151.325 1.97385 0.534719 0
M  V30 1601 H 149.48 2.49642 2.96239 0
M  V30 1602 H 149.894 4.64609 2.43389 0
M  V30 1603 H 151.368 3.85551 3.95038 0
M  V30 1604 H 151.845 2.16415 3.8218 0
M  V30 1605 H 152.451 3.34005 2.63288 0
M  V30 1606 N 150.766 -0.704594 1.40972 0
M  V30 1607 C 151.991 -1.49858 1.43378 0
M  V30 1608 C 152.416 -1.88061 0.038184 0
M  V30 1609 O 151.774 -1.5402 -0.956425 0
M  V30 1610 C 151.822 -2.74333 2.34038 0
M  V30 1611 O 150.926 -3.7147 1.7912 0
M  V30 1612 H 150.267 -0.45139 0.486974 0
M  V30 1613 H 152.797 -0.866832 1.8533 0
M  V30 1614 H 152.807 -3.22741 2.49604 0
M  V30 1615 H 151.482 -2.45863 3.35446 0
M  V30 1616 H 150.059 -3.30363 1.72958 0
M  V30 1617 N 152.244 -1.26651 -0.937939 0
M  V30 1618 C 153.49 -1.12553 -1.687 0
M  V30 1619 C 153.823 0.329782 -1.91379 0
M  V30 1620 O 153.098 1.24202 -1.4968 0
M  V30 1621 C 153.381 -1.89862 -3.05981 0
M  V30 1622 C 153.234 -3.43318 -2.90607 0
M  V30 1623 C 154.553 -1.69499 -4.0615 0
M  V30 1624 H 151.672 -0.410257 -0.612257 0
M  V30 1625 H 154.314 -1.55685 -1.08913 0
M  V30 1626 H 152.464 -1.53204 -3.57017 0
M  V30 1627 H 154.136 -3.89747 -2.46769 0
M  V30 1628 H 152.379 -3.70179 -2.26164 0
M  V30 1629 H 153.05 -3.92642 -3.8799 0
M  V30 1630 H 155.526 -2.01442 -3.64088 0
M  V30 1631 H 154.402 -2.26002 -5.00214 0
M  V30 1632 H 154.663 -0.640365 -4.37438 0
M  V30 1633 N 153.722 1.14298 -1.08507 0
M  V30 1634 C 154.669 2.19414 -0.715965 0
M  V30 1635 C 155.639 1.63399 0.298326 0
M  V30 1636 O 156.824 1.89929 0.182101 0
M  V30 1637 C 153.964 3.44845 -0.132534 0
M  V30 1638 C 153.077 4.15007 -1.19973 0
M  V30 1639 C 152.212 5.28024 -0.580048 0
M  V30 1640 C 151.251 5.9002 -1.62921 0
M  V30 1641 N 150.388 6.94485 -1.03125 0
M  V30 1642 H 155.228 2.50336 -1.61666 0
M  V30 1643 H 152.765 1.2293 -0.807882 0
M  V30 1644 H 154.723 4.16601 0.223454 0
M  V30 1645 H 153.353 3.14403 0.731467 0
M  V30 1646 H 152.405 3.41629 -1.67313 0
M  V30 1647 H 153.717 4.57178 -1.99473 0
M  V30 1648 H 152.871 6.06455 -0.172364 0
M  V30 1649 H 151.61 4.87076 0.246603 0
M  V30 1650 H 150.615 5.10291 -2.04654 0
M  V30 1651 H 151.84 6.33042 -2.45835 0
M  V30 1652 H 149.786 6.55612 -0.225711 0
M  V30 1653 H 149.703 7.35148 -1.76334 0
M  V30 1654 H 150.971 7.7679 -0.649458 0
M  V30 1655 N 155.201 0.870884 1.31352 0
M  V30 1656 C 156.612 0.534714 1.78879 0
M  V30 1657 C 156.963 -0.948423 1.71754 0
M  V30 1658 O 156.088 -1.74055 1.28584 0
M  V30 1659 C 156.683 0.963839 3.24801 0
M  V30 1660 C 155.242 0.679311 3.70219 0
M  V30 1661 C 154.389 1.15465 2.52117 0
M  V30 1662 H 157.34 1.05651 1.18421 0
M  V30 1663 H 157.361 0.286892 3.79417 0
M  V30 1664 H 156.873 2.04332 3.29955 0
M  V30 1665 H 154.974 -0.388769 3.70566 0
M  V30 1666 H 155.087 1.25698 4.62317 0
M  V30 1667 H 153.451 0.574383 2.48139 0
M  V30 1668 H 154.234 2.24157 2.60016 0
M  V30 1669 N 156.679 -1.44442 0.630414 0
M  V30 1670 C 158.09 -1.85434 0.217063 0
M  V30 1671 C 158.441 -1.52748 -1.23136 0
M  V30 1672 O 157.566 -0.965205 -1.93682 0
M  V30 1673 C 158.161 -3.36581 0.387168 0
M  V30 1674 C 156.72 -3.76389 0.0283297 0
M  V30 1675 C 155.867 -2.68296 0.700889 0
M  V30 1676 H 158.818 -1.34919 0.83562 0
M  V30 1677 H 158.839 -3.78657 -0.374086 0
M  V30 1678 H 158.351 -3.60339 1.44144 0
M  V30 1679 H 156.452 -3.58246 -1.02423 0
M  V30 1680 H 156.565 -4.77095 0.437892 0
M  V30 1681 H 154.929 -2.54335 0.136267 0
M  V30 1682 H 155.712 -2.94887 1.75774 0
M  V30 1683 N 158.157 -0.370918 -1.53173 0
M  V30 1684 C 159.382 0.220293 -2.06227 0
M  V30 1685 C 159.807 1.41243 -1.24225 0
M  V30 1686 O 159.165 1.79387 -0.262645 0
M  V30 1687 C 159.213 0.586663 -3.55796 0
M  V30 1688 O 158.317 1.68317 -3.76488 0
M  V30 1689 H 157.658 0.0308099 -0.663285 0
M  V30 1690 H 160.188 -0.533068 -1.97534 0
M  V30 1691 H 160.198 0.85617 -3.98916 0
M  V30 1692 H 158.873 -0.285013 -4.14922 0
M  V30 1693 H 157.45 1.40881 -3.45264 0
M  V30 1694 N 159.635 1.57281 -0.100228 0
M  V30 1695 C 160.883 1.94153 0.561157 0
M  V30 1696 C 161.204 0.983157 1.68401 0
M  V30 1697 O 160.474 0.0361132 1.95867 0
M  V30 1698 H 159.054 0.716791 0.210283 0
M  V30 1699 H 161.716 1.94202 -0.164765 0
M  V30 1700 H 160.812 2.96709 0.968008 0
M  V30 1701 N 161.113 -0.173488 1.56642 0
M  V30 1702 C 162.524 -0.736155 1.71574 0
M  V30 1703 C 162.875 -1.82888 0.710389 0
M  V30 1704 O 162 -2.16017 -0.1287 0
M  V30 1705 C 162.595 -1.34211 3.11083 0
M  V30 1706 C 161.154 -1.85162 3.27707 0
M  V30 1707 C 160.301 -0.729765 2.67525 0
M  V30 1708 H 163.252 0.0518786 1.58615 0
M  V30 1709 H 163.273 -2.21178 3.09613 0
M  V30 1710 H 162.785 -0.546579 3.84232 0
M  V30 1711 H 160.886 -2.67366 2.59512 0
M  V30 1712 H 160.999 -1.99855 4.35425 0
M  V30 1713 H 159.363 -1.14965 2.27278 0
M  V30 1714 H 160.146 0.0538806 3.43258 0
M  V30 1715 N 162.591 -1.51276 -0.441967 0
M  V30 1716 C 163.539 -1.72823 -1.55676 0
M  V30 1717 C 164.533 -0.59445 -1.58627 0
M  V30 1718 O 165.739 -0.775715 -1.62427 0
M  V30 1719 H 162.114 -0.545983 -0.517113 0
M  V30 1720 H 164.085 -2.6628 -1.34675 0
M  V30 1721 C 162.834 -1.86619 -2.93375 0
M  V30 1722 H 162.157 -2.73264 -2.91834 0
M  V30 1723 H 163.597 -2.05709 -3.70756 0
M  V30 1724 C 162.056 -0.624842 -3.31055 0
M  V30 1725 O 162.586 0.222636 -4.01083 0
M  V30 1726 N 160.792 -0.470288 -2.86769 0
M  V30 1727 H 160.339 -1.161 -2.29953 0
M  V30 1728 H 160.297 0.359051 -3.12343 0
M  V30 1729 N 164.069 0.697108 -1.41344 0
M  V30 1730 C 165.317 1.45426 -1.40341 0
M  V30 1731 C 165.638 1.94996 -0.0128787 0
M  V30 1732 O 164.908 1.71599 0.945027 0
M  V30 1733 H 163.488 0.539594 -0.516573 0
M  V30 1734 H 166.15 0.825201 -1.76569 0
M  V30 1735 H 165.246 2.31817 -2.08967 0
M  V30 1736 N 165.547 1.27147 0.931209 0
M  V30 1737 C 166.51 1.09615 2.01289 0
M  V30 1738 C 167.51 0.0412581 1.60747 0
M  V30 1739 O 168.7 0.285545 1.71844 0
M  V30 1740 C 165.832 0.669447 3.34262 0
M  V30 1741 H 167.025 2.05662 2.18273 0
M  V30 1742 H 164.578 1.09885 1.11153 0
M  V30 1743 H 165.313 -0.292572 3.22978 0
M  V30 1744 H 165.098 1.43127 3.65044 0
M  V30 1745 H 166.588 0.568921 4.13706 0
M  V30 1746 N 167.025 -1.13721 1.09112 0
M  V30 1747 C 168.271 -1.85413 0.836283 0
M  V30 1748 C 168.626 -1.8175 -0.631249 0
M  V30 1749 O 167.919 -1.24238 -1.45861 0
M  V30 1750 C 168.113 -3.32861 1.30146 0
M  V30 1751 C 167.942 -3.50882 2.81268 0
M  V30 1752 C 166.712 -3.65312 3.49106 0
M  V30 1753 C 168.91 -3.47196 3.7942 0
M  V30 1754 N 166.892 -3.71563 4.88686 0
M  V30 1755 C 168.263 -3.59777 5.04936 0
M  V30 1756 C 170.318 -3.30577 3.72321 0
M  V30 1757 C 169.021 -3.57455 6.24194 0
M  V30 1758 C 171.047 -3.29562 4.91063 0
M  V30 1759 C 170.409 -3.42691 6.15421 0
M  V30 1760 H 166.508 -0.694812 0.358832 0
M  V30 1761 H 169.092 -1.36246 1.39087 0
M  V30 1762 H 167.263 -3.80602 0.774361 0
M  V30 1763 H 168.995 -3.92346 0.99229 0
M  V30 1764 H 165.75 -3.6685 2.9953 0
M  V30 1765 H 166.174 -3.78387 5.61384 0
M  V30 1766 H 170.816 -3.19332 2.77105 0
M  V30 1767 H 168.534 -3.67475 7.19714 0
M  V30 1768 H 172.12 -3.17905 4.87266 0
M  V30 1769 H 171 -3.41862 7.05762 0
M  V30 1770 N 168.503 -0.877838 -1.30888 0
M  V30 1771 C 169.433 -0.35534 -2.3078 0
M  V30 1772 C 170.414 0.557994 -1.60687 0
M  V30 1773 O 171.599 0.473355 -1.88343 0
M  V30 1774 C 168.729 0.437221 -3.44537 0
M  V30 1775 C 167.683 -0.383715 -4.26276 0
M  V30 1776 C 167.009 0.535014 -5.32017 0
M  V30 1777 C 168.309 -1.62201 -4.96476 0
M  V30 1778 H 170.003 -1.19007 -2.74732 0
M  V30 1779 H 167.549 -0.573698 -1.32078 0
M  V30 1780 H 169.502 0.813334 -4.13477 0
M  V30 1781 H 168.226 1.30553 -2.99372 0
M  V30 1782 H 166.885 -0.741874 -3.59015 0
M  V30 1783 H 166.533 1.40083 -4.831 0
M  V30 1784 H 166.233 -0.0104211 -5.87599 0
M  V30 1785 H 167.757 0.907799 -6.03814 0
M  V30 1786 H 169.171 -1.31689 -5.5797 0
M  V30 1787 H 167.568 -2.10711 -5.61891 0
M  V30 1788 H 168.638 -2.37044 -4.23011 0
M  V30 1789 N 169.982 1.44106 -0.638065 0
M  V30 1790 C 171.398 1.56672 -0.304286 0
M  V30 1791 C 171.598 1.6244 1.19228 0
M  V30 1792 O 170.654 1.57121 1.9766 0
M  V30 1793 C 171.967 2.83503 -1.00231 0
M  V30 1794 C 173.515 2.97226 -0.981116 0
M  V30 1795 C 173.99 4.26868 -1.65974 0
M  V30 1796 N 175.481 4.33698 -1.62666 0
M  V30 1797 C 176.216 5.32745 -2.12063 0
M  V30 1798 N 175.712 6.38157 -2.6968 0
M  V30 1799 N 177.505 5.24299 -2.02651 0
M  V30 1800 H 169.656 1.38605 -1.60942 0
M  V30 1801 H 171.919 0.664661 -0.675965 0
M  V30 1802 H 171.625 2.85251 -2.0573 0
M  V30 1803 H 171.499 3.73251 -0.54439 0
M  V30 1804 H 173.886 2.95027 0.0654188 0
M  V30 1805 H 173.967 2.08808 -1.47759 0
M  V30 1806 H 173.611 4.29826 -2.70576 0
M  V30 1807 H 173.541 5.14156 -1.13804 0
M  V30 1808 H 176.032 3.58138 -1.20606 0
M  V30 1809 H 176.345 7.10029 -3.05087 0
M  V30 1810 H 174.69 6.38823 -2.73734 0
M  V30 1811 H 177.881 4.4086 -1.57353 0
M  V30 1812 H 178.054 6.01334 -2.41457 0
M  V30 1813 N 171.46 0.379036 1.52974 0
M  V30 1814 C 172.69 -0.20649 2.05566 0
M  V30 1815 C 173.098 -1.41906 1.25137 0
M  V30 1816 O 172.441 -1.81421 0.288464 0
M  V30 1817 C 172.503 -0.651086 3.53555 0
M  V30 1818 C 172.167 0.446626 4.54812 0
M  V30 1819 C 173.164 1.30079 5.03364 0
M  V30 1820 C 170.849 0.610719 4.98573 0
M  V30 1821 C 172.843 2.30426 5.94292 0
M  V30 1822 C 170.53 1.61754 5.89304 0
M  V30 1823 C 171.528 2.46274 6.37054 0
M  V30 1824 O 171.216 3.45237 7.25994 0
M  V30 1825 H 170.948 -0.0372381 0.674974 0
M  V30 1826 H 173.502 0.539718 1.98182 0
M  V30 1827 H 171.732 -1.44911 3.58522 0
M  V30 1828 H 173.421 -1.16112 3.88938 0
M  V30 1829 H 174.187 1.18527 4.70294 0
M  V30 1830 H 170.066 -0.0374044 4.60985 0
M  V30 1831 H 173.61 2.96432 6.31485 0
M  V30 1832 H 169.507 1.73348 6.21788 0
M  V30 1833 H 170.275 3.41124 7.44027 0
M  V30 1834 N 172.938 -1.57226 0.108567 0
M  V30 1835 C 174.354 -1.5766 -0.248058 0
M  V30 1836 C 174.554 -1.12063 -1.67464 0
M  V30 1837 O 173.61 -0.803236 -2.39383 0
M  V30 1838 C 174.923 -3.0069 -0.0242287 0
M  V30 1839 C 176.471 -3.12868 -0.0909372 0
M  V30 1840 C 176.946 -4.57879 0.105067 0
M  V30 1841 N 178.437 -4.63172 0.0506846 0
M  V30 1842 C 179.172 -5.73126 0.177396 0
M  V30 1843 N 178.668 -6.91866 0.359696 0
M  V30 1844 N 180.461 -5.61977 0.117709 0
M  V30 1845 H 172.612 -1.85169 1.04049 0
M  V30 1846 H 174.875 -0.85529 0.40888 0
M  V30 1847 H 174.581 -3.38299 0.961604 0
M  V30 1848 H 174.455 -3.6945 -0.76068 0
M  V30 1849 H 176.842 -2.75124 -1.06729 0
M  V30 1850 H 176.923 -2.46672 0.677225 0
M  V30 1851 H 176.567 -4.96321 1.07834 0
M  V30 1852 H 176.497 -5.22153 -0.682954 0
M  V30 1853 H 178.988 -3.778 -0.0871266 0
M  V30 1854 H 179.301 -7.71503 0.447529 0
M  V30 1855 H 177.646 -6.93874 0.395536 0
M  V30 1856 H 180.837 -4.68094 -0.0236741 0
M  V30 1857 H 181.01 -6.47627 0.219905 0
M  V30 1858 N 174.416 0.165178 -1.56732 0
M  V30 1859 C 175.363 1.2044 -1.96883 0
M  V30 1860 C 176.333 1.43664 -0.833657 0
M  V30 1861 O 177.518 1.56302 -1.09427 0
M  V30 1862 C 174.658 2.53727 -2.33916 0
M  V30 1863 C 173.771 2.3783 -3.6064 0
M  V30 1864 C 172.906 3.64026 -3.86857 0
M  V30 1865 C 171.945 3.43088 -5.06909 0
M  V30 1866 N 171.082 4.61369 -5.29229 0
M  V30 1867 H 175.922 0.854996 -2.85471 0
M  V30 1868 H 173.459 0.41076 -1.41249 0
M  V30 1869 H 175.417 3.31419 -2.53411 0
M  V30 1870 H 174.047 2.8665 -1.48431 0
M  V30 1871 H 173.099 1.51282 -3.49024 0
M  V30 1872 H 174.411 2.18308 -4.4849 0
M  V30 1873 H 173.565 4.50152 -4.06753 0
M  V30 1874 H 172.304 3.86533 -2.97394 0
M  V30 1875 H 171.309 2.55349 -4.86906 0
M  V30 1876 H 172.534 3.21997 -5.97909 0
M  V30 1877 H 170.48 4.84084 -4.42718 0
M  V30 1878 H 170.397 4.44783 -6.11313 0
M  V30 1879 H 171.665 5.48761 -5.53608 0
M  V30 1880 N 175.894 1.51508 0.433938 0
M  V30 1881 C 176.841 1.73068 1.52696 0
M  V30 1882 C 177.811 0.572441 1.55924 0
M  V30 1883 O 178.996 0.807253 1.72882 0
M  V30 1884 C 176.136 1.86474 2.90381 0
M  V30 1885 C 175.249 3.14037 2.96656 0
M  V30 1886 C 174.384 3.18019 4.25485 0
M  V30 1887 C 173.423 4.39882 4.2564 0
M  V30 1888 N 172.56 4.41394 5.45999 0
M  V30 1889 H 177.4 2.66366 1.33615 0
M  V30 1890 H 174.937 1.32008 0.649018 0
M  V30 1891 H 176.895 1.92229 3.70275 0
M  V30 1892 H 175.525 0.965809 3.08013 0
M  V30 1893 H 174.577 3.17575 2.09404 0
M  V30 1894 H 175.889 4.0394 2.92633 0
M  V30 1895 H 175.043 3.22708 5.13755 0
M  V30 1896 H 173.782 2.2601 4.3217 0
M  V30 1897 H 172.787 4.35366 3.35763 0
M  V30 1898 H 174.012 5.33159 4.20617 0
M  V30 1899 H 171.958 3.52258 5.53399 0
M  V30 1900 H 171.875 5.25111 5.4387 0
M  V30 1901 H 173.143 4.50281 6.36292 0
M  V30 1902 N 177.372 -0.689602 1.41712 0
M  V30 1903 C 178.619 -1.44966 1.4139 0
M  V30 1904 C 178.947 -1.94484 0.025105 0
M  V30 1905 O 178.202 -1.70307 -0.964048 0
M  V30 1906 C 178.501 -2.67298 2.37247 0
M  V30 1907 C 178.167 -2.36405 3.83958 0
M  V30 1908 C 176.829 -2.27691 4.23923 0
M  V30 1909 C 179.181 -2.11043 4.76561 0
M  V30 1910 C 176.509 -1.91719 5.54492 0
M  V30 1911 C 178.861 -1.76578 6.07456 0
M  V30 1912 C 177.525 -1.66363 6.46436 0
M  V30 1913 H 176.795 -0.53047 0.517381 0
M  V30 1914 H 179.442 -0.787655 1.74552 0
M  V30 1915 H 177.747 -3.38461 1.9736 0
M  V30 1916 H 179.444 -3.25452 2.34269 0
M  V30 1917 H 176.034 -2.44085 3.52308 0
M  V30 1918 H 180.218 -2.16717 4.46483 0
M  V30 1919 H 175.474 -1.82367 5.83568 0
M  V30 1920 H 179.648 -1.55974 6.78708 0
M  V30 1921 H 177.275 -1.38258 7.47522 0
M  V30 1922 N 178.85 -1.27639 -0.924453 0
M  V30 1923 C 180.099 -1.13549 -1.66702 0
M  V30 1924 C 180.412 0.317487 -1.93006 0
M  V30 1925 O 181.618 0.579333 -2.65247 0
M  V30 1926 C 180.074 -1.98426 -3.00259 0
M  V30 1927 C 179.682 -3.484 -2.81641 0
M  V30 1928 C 181.426 -1.92993 -3.78092 0
M  V30 1929 C 179.333 -4.25464 -4.10773 0
M  V30 1930 H 178.263 -0.421351 -0.625283 0
M  V30 1931 H 180.914 -1.52085 -1.02676 0
M  V30 1932 H 179.296 -1.52736 -3.6536 0
M  V30 1933 H 180.47 -4.01973 -2.25287 0
M  V30 1934 H 178.785 -3.55245 -2.17232 0
M  V30 1935 H 181.382 -2.47844 -4.7379 0
M  V30 1936 H 181.725 -0.904281 -4.0636 0
M  V30 1937 H 182.258 -2.36595 -3.19793 0
M  V30 1938 H 178.997 -5.28566 -3.87683 0
M  V30 1939 H 178.517 -3.76667 -4.66779 0
M  V30 1940 H 180.196 -4.34812 -4.79111 0
M  V30 1941 N 180.328 1.1314 -1.09713 0
M  V30 1942 C 181.556 1.88321 -0.856898 0
M  V30 1943 C 181.971 1.79276 0.592073 0
M  V30 1944 O 181.328 1.16142 1.40774 0
M  V30 1945 C 181.379 3.37812 -1.28706 0
M  V30 1946 O 181.1 3.46627 -2.67921 0
M  V30 1947 C 182.601 4.29952 -1.07964 0
M  V30 1948 H 179.821 0.596094 -0.308079 0
M  V30 1949 H 182.365 1.43205 -1.45988 0
M  V30 1950 H 180.52 3.805 -0.727912 0
M  V30 1951 H 180.934 4.39579 -2.8613 0
M  V30 1952 H 182.408 5.33159 -1.42986 0
M  V30 1953 H 182.885 4.39196 -0.0176577 0
M  V30 1954 H 183.491 3.93036 -1.62489 0
M  V30 1955 N 181.806 0.884767 1.30421 0
M  V30 1956 C 183.217 0.553656 1.78302 0
M  V30 1957 C 183.568 -0.930153 1.7275 0
M  V30 1958 O 182.693 -1.72681 1.30423 0
M  V30 1959 C 183.288 0.998234 3.2376 0
M  V30 1960 C 181.847 0.71854 3.69478 0
M  V30 1961 C 180.994 1.18132 2.50879 0
M  V30 1962 H 183.945 1.06901 1.17294 0
M  V30 1963 H 183.966 0.327118 3.79091 0
M  V30 1964 H 183.478 2.0782 3.27769 0
M  V30 1965 H 181.579 -0.349444 3.70958 0
M  V30 1966 H 181.692 1.30595 4.60958 0
M  V30 1967 H 180.056 0.600669 2.47516 0
M  V30 1968 H 180.839 2.26902 2.57624 0
M  V30 1969 N 183.284 -1.43765 0.645699 0
M  V30 1970 C 184.561 -1.9541 0.0862963 0
M  V30 1971 C 184.941 -1.58725 -1.39175 0
M  V30 1972 O 184.289 -0.868581 -2.11348 0
M  V30 1973 C 184.499 -3.47488 0.324565 0
M  V30 1974 C 185.847 -4.24001 0.225497 0
M  V30 1975 O 186.871 -3.55274 0.256715 0
M  V30 1976 O 185.73 -5.46313 0.142801 0
M  V30 1977 H 182.824 -0.826882 -0.0139483 0
M  V30 1978 H 185.37 -1.53743 0.718415 0
M  V30 1979 H 184.142 -3.67289 1.3496 0
M  V30 1980 H 183.765 -3.96135 -0.340987 0
M  V30 1981 N 184.763 -0.387143 -1.52771 0
M  V30 1982 C 185.711 0.463953 -2.27926 0
M  V30 1983 C 186.705 1.06493 -1.31741 0
M  V30 1984 O 187.911 1.00565 -1.49287 0
M  V30 1985 H 184.286 0.16837 -0.732909 0
M  V30 1986 H 186.257 -0.19141 -2.97785 0
M  V30 1987 C 185.006 1.5803 -3.09713 0
M  V30 1988 H 184.329 1.12718 -3.83581 0
M  V30 1989 H 185.769 2.15008 -3.65442 0
M  V30 1990 C 184.228 2.53509 -2.2189 0
M  V30 1991 O 184.758 3.56863 -1.84422 0
M  V30 1992 N 182.964 2.23199 -1.86093 0
M  V30 1993 H 182.511 1.39185 -2.16761 0
M  V30 1994 H 182.469 2.87333 -1.27621 0
M  V30 1995 N 186.241 1.57166 -0.116904 0
M  V30 1996 C 187.487 1.95412 0.542405 0
M  V30 1997 C 187.82 1.00019 1.66463 0
M  V30 1998 O 187.095 0.0370346 1.94465 0
M  V30 1999 C 187.378 3.43615 1.07708 0
M  V30 2000 C 187.231 4.49781 -0.0415868 0
M  V30 2001 C 188.55 3.93616 1.96861 0
M  V30 2002 H 185.669 0.710543 0.195696 0
M  V30 2003 H 188.311 1.89027 -0.192038 0
M  V30 2004 H 186.461 3.49187 1.70296 0
M  V30 2005 H 188.133 4.56308 -0.676793 0
M  V30 2006 H 186.376 4.28033 -0.705019 0
M  V30 2007 H 187.047 5.50733 0.373717 0
M  V30 2008 H 189.523 3.90335 1.44146 0
M  V30 2009 H 188.399 4.97838 2.3119 0
M  V30 2010 H 188.66 3.34188 2.89432 0
M  V30 2011 N 187.719 -0.156864 1.56817 0
M  V30 2012 C 188.651 -1.21883 1.94106 0
M  V30 2013 C 189.664 -1.3971 0.835754 0
M  V30 2014 O 190.853 -1.39457 1.11418 0
M  V30 2015 C 187.953 -2.58527 2.19127 0
M  V30 2016 C 187.126 -2.61809 3.50393 0
M  V30 2017 C 186.185 -3.7992 3.64071 0
M  V30 2018 O 185.211 -3.65249 4.36557 0
M  V30 2019 N 186.413 -4.96973 2.99997 0
M  V30 2020 H 189.178 -0.901974 2.85805 0
M  V30 2021 H 186.739 -0.346513 1.58148 0
M  V30 2022 H 188.731 -3.36034 2.25529 0
M  V30 2023 H 187.301 -2.82545 1.33742 0
M  V30 2024 H 186.521 -1.7029 3.5552 0
M  V30 2025 H 187.809 -2.61024 4.36742 0
M  V30 2026 H 187.207 -5.11794 2.41004 0
M  V30 2027 H 185.764 -5.7229 3.11974 0
M  V30 2028 N 189.197 -1.51736 -0.425897 0
M  V30 2029 C 190.145 -1.74464 -1.53834 0
M  V30 2030 C 191.139 -0.611241 -1.57988 0
M  V30 2031 O 192.345 -0.792899 -1.61596 0
M  V30 2032 H 188.72 -0.551437 -0.511293 0
M  V30 2033 H 190.691 -2.67694 -1.31843 0
M  V30 2034 C 189.44 -1.8972 -2.91379 0
M  V30 2035 H 188.763 -2.76344 -2.88919 0
M  V30 2036 H 190.203 -2.09629 -3.68553 0
M  V30 2037 C 188.662 -0.65992 -3.30374 0
M  V30 2038 O 189.192 0.180083 -4.01296 0
M  V30 2039 N 187.398 -0.500677 -2.86254 0
M  V30 2040 H 186.945 -1.18532 -2.28709 0
M  V30 2041 H 186.903 0.325903 -3.12706 0
M  V30 2042 N 190.675 0.682077 -1.42076 0
M  V30 2043 C 191.923 1.4393 -1.41876 0
M  V30 2044 C 192.244 1.94971 -0.0335599 0
M  V30 2045 O 191.514 1.72591 0.926773 0
M  V30 2046 H 190.094 0.534085 -0.522267 0
M  V30 2047 H 192.756 0.806427 -1.77434 0
M  V30 2048 H 191.852 2.29588 -2.11414 0
M  V30 2049 N 192.153 1.28127 0.917671 0
M  V30 2050 C 193.399 1.15223 1.66888 0
M  V30 2051 C 193.732 -0.299293 1.9188 0
M  V30 2052 O 193.007 -1.21805 1.51637 0
M  V30 2053 C 193.29 1.94706 3.02922 0
M  V30 2054 C 193.143 3.47898 2.85109 0
M  V30 2055 C 194.462 1.75939 4.03402 0
M  V30 2056 H 191.581 0.419946 0.605652 0
M  V30 2057 H 194.223 1.57398 1.06423 0
M  V30 2058 H 192.373 1.58864 3.54534 0
M  V30 2059 H 194.045 3.93624 2.40537 0
M  V30 2060 H 192.288 3.7373 2.20246 0
M  V30 2061 H 192.959 3.98765 3.81694 0
M  V30 2062 H 195.435 2.07209 3.60837 0
M  V30 2063 H 194.311 2.33931 4.96556 0
M  V30 2064 H 194.572 0.709877 4.36364 0
M  V30 2065 N 193.631 -1.12557 1.10312 0
M  V30 2066 C 194.877 -1.84311 0.846011 0
M  V30 2067 C 195.21 -1.83805 -0.626859 0
M  V30 2068 O 194.485 -1.28268 -1.46211 0
M  V30 2069 C 194.768 -3.32048 1.39341 0
M  V30 2070 C 194.621 -3.41016 2.93305 0
M  V30 2071 C 195.94 -4.27764 1.03468 0
M  V30 2072 H 193.059 -0.669192 0.30879 0
M  V30 2073 H 195.701 -1.32057 1.36605 0
M  V30 2074 H 193.851 -3.76678 0.951087 0
M  V30 2075 H 195.523 -3.05031 3.46055 0
M  V30 2076 H 193.766 -2.81603 3.29973 0
M  V30 2077 H 194.437 -4.44948 3.26689 0
M  V30 2078 H 196.913 -3.91253 1.41633 0
M  V30 2079 H 195.789 -5.29549 1.44463 0
M  V30 2080 H 196.05 -4.42064 -0.0560404 0
M  V30 2081 N 195.109 -0.891671 -1.2995 0
M  V30 2082 C 196.356 -0.513501 -1.95881 0
M  V30 2083 C 196.684 0.938655 -1.70351 0
M  V30 2084 O 195.939 1.67936 -1.00478 0
M  V30 2085 C 196.238 -0.742868 -3.49594 0
M  V30 2086 C 195.904 -2.17114 -3.95186 0
M  V30 2087 C 194.566 -2.56169 -4.07346 0
M  V30 2088 C 196.918 -3.10162 -4.18866 0
M  V30 2089 C 194.246 -3.87469 -4.4055 0
M  V30 2090 C 196.598 -4.41001 -4.53542 0
M  V30 2091 C 195.262 -4.79941 -4.63911 0
M  V30 2092 H 194.532 -0.187903 -0.71678 0
M  V30 2093 H 197.179 -1.1288 -1.54694 0
M  V30 2094 H 195.484 -0.044586 -3.91775 0
M  V30 2095 H 197.181 -0.429767 -3.9869 0
M  V30 2096 H 193.771 -1.85801 -3.86233 0
M  V30 2097 H 197.955 -2.81206 -4.08946 0
M  V30 2098 H 193.211 -4.17371 -4.46779 0
M  V30 2099 H 197.385 -5.13133 -4.70815 0
M  V30 2100 H 195.012 -5.81719 -4.89395 0
M  V30 2101 N 196.587 1.43421 -0.653314 0
M  V30 2102 C 197.833 2.02641 -0.175593 0
M  V30 2103 C 198.188 1.5062 1.19713 0
M  V30 2104 O 197.481 0.689697 1.78756 0
M  V30 2105 C 197.675 3.57176 -0.126623 0
M  V30 2106 C 197.504 4.24191 -1.49306 0
M  V30 2107 C 196.274 4.60257 -2.08547 0
M  V30 2108 C 198.472 4.53193 -2.43148 0
M  V30 2109 N 196.454 5.12345 -3.38194 0
M  V30 2110 C 197.825 5.06601 -3.57429 0
M  V30 2111 C 199.88 4.35161 -2.41949 0
M  V30 2112 C 198.583 5.43875 -4.70736 0
M  V30 2113 C 200.609 4.73498 -3.54336 0
M  V30 2114 C 199.971 5.27039 -4.67343 0
M  V30 2115 H 196.07 0.77441 -0.108686 0
M  V30 2116 H 198.654 1.74596 -0.861638 0
M  V30 2117 H 196.825 3.84784 0.528766 0
M  V30 2118 H 198.557 4.03078 0.36198 0
M  V30 2119 H 195.312 4.45302 -1.61255 0
M  V30 2120 H 195.736 5.42842 -4.04538 0
M  V30 2121 H 200.378 3.9304 -1.55818 0
M  V30 2122 H 198.096 5.8494 -5.57558 0
M  V30 2123 H 201.682 4.61241 -3.5461 0
M  V30 2124 H 200.562 5.56153 -5.52868 0
M  V30 2125 N 198.065 0.39524 1.52563 0
M  V30 2126 C 199.013 -0.451859 2.28169 0
M  V30 2127 C 200.007 -1.05792 1.32304 0
M  V30 2128 O 201.213 -0.997718 1.49818 0
M  V30 2129 H 197.588 -0.164481 0.733792 0
M  V30 2130 H 199.559 0.207199 2.9768 0
M  V30 2131 C 198.308 -1.56385 3.10546 0
M  V30 2132 H 197.631 -1.10682 3.84174 0
M  V30 2133 H 199.071 -2.13067 3.66577 0
M  V30 2134 C 197.53 -2.52328 2.23231 0
M  V30 2135 O 198.06 -3.5588 1.86312 0
M  V30 2136 N 196.266 -2.22209 1.87274 0
M  V30 2137 H 195.813 -1.38033 2.17496 0
M  V30 2138 H 195.771 -2.86652 1.29143 0
M  V30 2139 N 199.544 -1.57102 0.125237 0
M  V30 2140 C 200.476 -2.12726 -0.853237 0
M  V30 2141 C 201.489 -1.07145 -1.22571 0
M  V30 2142 O 202.678 -1.34497 -1.17358 0
M  V30 2143 C 199.778 -2.61709 -2.15317 0
M  V30 2144 C 198.951 -3.91456 -1.95143 0
M  V30 2145 C 198.01 -4.25973 -3.08923 0
M  V30 2146 O 197.036 -4.94682 -2.81564 0
M  V30 2147 N 198.238 -3.83795 -4.35524 0
M  V30 2148 H 201.003 -2.97307 -0.377964 0
M  V30 2149 H 198.564 -1.61792 -0.0590011 0
M  V30 2150 H 200.556 -2.81826 -2.90441 0
M  V30 2151 H 199.126 -1.81974 -2.54174 0
M  V30 2152 H 198.346 -3.80185 -1.04177 0
M  V30 2153 H 199.634 -4.76283 -1.78976 0
M  V30 2154 H 199.032 -3.2839 -4.60626 0
M  V30 2155 H 197.589 -4.09008 -5.07499 0
M  V30 2156 N 201.022 0.148545 -1.56898 0
M  V30 2157 C 202.252 0.875118 -1.8715 0
M  V30 2158 C 202.66 1.75322 -0.711262 0
M  V30 2159 O 202.003 1.80745 0.328151 0
M  V30 2160 C 202.065 1.7844 -3.12089 0
M  V30 2161 C 201.729 1.08361 -4.43967 0
M  V30 2162 C 202.726 0.438247 -5.1805 0
M  V30 2163 C 200.411 1.07358 -4.90693 0
M  V30 2164 C 202.405 -0.20779 -6.37061 0
M  V30 2165 C 200.092 0.42373 -6.09629 0
M  V30 2166 C 201.09 -0.215829 -6.82659 0
M  V30 2167 O 200.778 -0.855378 -7.99336 0
M  V30 2168 H 200.51 0.258504 -0.624621 0
M  V30 2169 H 203.064 0.14652 -2.04877 0
M  V30 2170 H 201.294 2.55389 -2.90367 0
M  V30 2171 H 202.983 2.38279 -3.286 0
M  V30 2172 H 203.749 0.437817 -4.8302 0
M  V30 2173 H 199.628 1.5608 -4.33774 0
M  V30 2174 H 203.172 -0.70758 -6.94002 0
M  V30 2175 H 199.069 0.421822 -6.4412 0
M  V30 2176 H 199.837 -0.756892 -8.14993 0
M  V30 2177 N 202.5 1.5196 0.417844 0
M  V30 2178 C 203.41 1.77554 1.53336 0
M  V30 2179 C 204.426 0.660655 1.6097 0
M  V30 2180 O 205.602 0.945099 1.77848 0
M  V30 2181 C 202.667 1.91291 2.89152 0
M  V30 2182 C 201.728 3.15183 2.91475 0
M  V30 2183 C 200.961 3.28256 4.20813 0
M  V30 2184 O 201.184 2.46798 5.14244 0
M  V30 2185 O 200.118 4.21356 4.29817 0
M  V30 2186 H 203.944 2.7222 1.34647 0
M  V30 2187 H 201.529 1.36698 0.602828 0
M  V30 2188 H 203.411 2.02199 3.69721 0
M  V30 2189 H 202.086 0.998129 3.07927 0
M  V30 2190 H 200.993 3.09739 2.09791 0
M  V30 2191 H 202.326 4.06414 2.77648 0
M  V30 2192 N 203.978 -0.674533 1.42435 0
M  V30 2193 C 205.255 -1.4305 1.33402 0
M  V30 2194 C 205.635 -2.11081 -0.0284674 0
M  V30 2195 O 204.983 -2.03257 -1.04397 0
M  V30 2196 C 205.193 -2.43272 2.50239 0
M  V30 2197 C 206.541 -3.07907 2.92367 0
M  V30 2198 O 207.565 -2.53599 2.50132 0
M  V30 2199 O 206.424 -4.0632 3.65467 0
M  V30 2200 H 203.518 -0.638076 0.526106 0
M  V30 2201 H 206.064 -0.703235 1.54443 0
M  V30 2202 H 204.836 -1.91803 3.41068 0
M  V30 2203 H 204.459 -3.23479 2.31186 0
M  V30 2204 N 205.456 -1.28612 -0.910864 0
M  V30 2205 C 206.419 -1.12803 -1.9952 0
M  V30 2206 C 207.419 -0.0668264 -1.60661 0
M  V30 2207 O 208.609 -0.312847 -1.71368 0
M  V30 2208 C 205.741 -0.72254 -3.33155 0
M  V30 2209 H 206.934 -2.09109 -2.14973 0
M  V30 2210 H 204.487 -1.11639 -1.09391 0
M  V30 2211 H 205.222 0.241152 -3.23402 0
M  V30 2212 H 205.007 -1.48916 -3.62721 0
M  V30 2213 H 206.497 -0.634666 -4.12749 0
M  V30 2214 N 206.934 1.1197 -1.10907 0
M  V30 2215 C 207.864 2.19928 -0.784473 0
M  V30 2216 C 208.845 1.6833 0.244726 0
M  V30 2217 O 210.03 1.93892 0.109418 0
M  V30 2218 C 207.16 3.46597 -0.220827 0
M  V30 2219 C 206.114 4.11376 -1.18127 0
M  V30 2220 C 205.44 5.32554 -0.478594 0
M  V30 2221 C 206.74 4.56945 -2.52979 0
M  V30 2222 H 208.434 2.47337 -1.68715 0
M  V30 2223 H 205.98 1.18879 -0.812642 0
M  V30 2224 H 207.933 4.21396 0.0184278 0
M  V30 2225 H 206.657 3.1863 0.717113 0
M  V30 2226 H 205.316 3.38564 -1.40606 0
M  V30 2227 H 204.964 5.00856 0.463976 0
M  V30 2228 H 204.664 5.76844 -1.11912 0
M  V30 2229 H 206.188 6.10096 -0.248 0
M  V30 2230 H 207.602 5.23093 -2.3462 0
M  V30 2231 H 205.999 5.1203 -3.12962 0
M  V30 2232 H 207.069 3.70676 -3.12614 0
M  V30 2233 N 208.412 0.89855 1.29475 0
M  V30 2234 C 209.36 0.365253 2.29714 0
M  V30 2235 C 210.354 -0.534993 1.6073 0
M  V30 2236 O 211.56 -0.417921 1.75081 0
M  V30 2237 H 207.935 0.0994853 0.74539 0
M  V30 2238 H 209.906 1.22406 2.72138 0
M  V30 2239 C 208.655 -0.393159 3.4547 0
M  V30 2240 H 207.978 0.290332 3.98744 0
M  V30 2241 H 209.418 -0.731189 4.17648 0
M  V30 2242 C 207.877 -1.59539 2.9673 0
M  V30 2243 O 208.407 -2.69469 2.97908 0
M  V30 2244 N 206.613 -1.43716 2.52575 0
M  V30 2245 H 206.16 -0.542828 2.51816 0
M  V30 2246 H 206.118 -2.24288 2.20323 0
M  V30 2247 N 209.89 -1.43072 0.660911 0
M  V30 2248 C 211.306 -1.56169 0.329173 0
M  V30 2249 C 211.506 -1.64317 -1.16629 0
M  V30 2250 O 210.562 -1.60245 -1.95135 0
M  V30 2251 C 211.875 -2.81873 1.04729 0
M  V30 2252 C 213.423 -2.95627 1.02828 0
M  V30 2253 C 213.898 -4.24174 1.72744 0
M  V30 2254 N 215.389 -4.31055 1.69545 0
M  V30 2255 C 216.124 -5.29304 2.20511 0
M  V30 2256 N 215.62 -6.33786 2.79799 0
M  V30 2257 N 217.413 -5.21008 2.10966 0
M  V30 2258 H 209.564 -1.36027 1.63127 0
M  V30 2259 H 211.827 -0.653823 0.686454 0
M  V30 2260 H 211.533 -2.81942 2.10242 0
M  V30 2261 H 211.407 -3.72338 0.603702 0
M  V30 2262 H 213.794 -2.95094 -0.0184742 0
M  V30 2263 H 213.875 -2.06431 1.51063 0
M  V30 2264 H 213.519 -4.25467 2.7738 0
M  V30 2265 H 213.449 -5.1228 1.2197 0
M  V30 2266 H 215.94 -3.56174 1.26288 0
M  V30 2267 H 216.253 -7.05086 3.16344 0
M  V30 2268 H 214.598 -6.34387 2.83863 0
M  V30 2269 H 217.789 -4.38301 1.64347 0
M  V30 2270 H 217.962 -5.97416 2.50993 0
M  V30 2271 N 211.368 -0.403325 -1.52352 0
M  V30 2272 C 212.331 0.413051 -2.25447 0
M  V30 2273 C 213.331 0.978513 -1.276 0
M  V30 2274 O 214.521 0.858305 -1.51587 0
M  V30 2275 C 211.653 1.58087 -3.02029 0
M  V30 2276 H 212.846 -0.227094 -2.99039 0
M  V30 2277 H 210.399 -0.155722 -1.55522 0
M  V30 2278 H 211.134 2.25804 -2.32772 0
M  V30 2279 H 210.919 1.18195 -3.73861 0
M  V30 2280 H 212.409 2.1585 -3.57489 0
M  V30 2281 N 212.846 1.57033 -0.133567 0
M  V30 2282 C 214.092 1.96764 0.515326 0
M  V30 2283 C 214.447 1.01653 1.63353 0
M  V30 2284 O 213.74 0.0491374 1.91537 0
M  V30 2285 C 213.934 3.40674 1.08057 0
M  V30 2286 C 213.763 4.49696 0.0186522 0
M  V30 2287 C 212.533 5.03567 -0.418174 0
M  V30 2288 C 214.731 5.08536 -0.767809 0
M  V30 2289 N 212.713 5.9618 -1.46434 0
M  V30 2290 C 214.084 5.97231 -1.6648 0
M  V30 2291 C 216.139 4.9115 -0.817087 0
M  V30 2292 C 214.842 6.70401 -2.60681 0
M  V30 2293 C 216.868 5.65012 -1.74687 0
M  V30 2294 C 216.23 6.53403 -2.63141 0
M  V30 2295 H 212.329 0.765919 0.157771 0
M  V30 2296 H 214.913 1.93395 -0.22506 0
M  V30 2297 H 213.084 3.44662 1.79061 0
M  V30 2298 H 214.816 3.67495 1.69497 0
M  V30 2299 H 211.571 4.73594 -0.0229803 0
M  V30 2300 H 211.995 6.47191 -1.98678 0
M  V30 2301 H 216.637 4.22543 -0.147326 0
M  V30 2302 H 214.355 7.38245 -3.28664 0
M  V30 2303 H 217.941 5.53559 -1.79063 0
M  V30 2304 H 216.821 7.09556 -3.33917 0
M  V30 2305 N 214.325 -0.140222 1.56975 0
M  V30 2306 C 215.257 -1.19818 1.95388 0
M  V30 2307 C 216.27 -1.38816 0.850525 0
M  V30 2308 O 217.459 -1.38267 1.12891 0
M  V30 2309 C 214.559 -2.56189 2.21857 0
M  V30 2310 C 213.732 -2.58077 3.5315 0
M  V30 2311 C 212.791 -3.76037 3.6808 0
M  V30 2312 O 211.817 -3.60598 4.40406 0
M  V30 2313 N 213.019 -4.93763 3.05251 0
M  V30 2314 H 215.784 -0.871609 2.86746 0
M  V30 2315 H 213.345 -0.32972 1.58507 0
M  V30 2316 H 215.337 -3.33623 2.2908 0
M  V30 2317 H 213.907 -2.81111 1.36731 0
M  V30 2318 H 213.127 -1.6651 3.57307 0
M  V30 2319 H 214.415 -2.56377 4.39486 0
M  V30 2320 H 213.813 -5.09209 2.46419 0
M  V30 2321 H 212.37 -5.68949 3.18026 0
M  V30 2322 N 215.803 -1.52179 -0.40978 0
M  V30 2323 C 217.049 -1.66453 -1.15851 0
M  V30 2324 C 217.382 -0.392972 -1.90182 0
M  V30 2325 O 216.657 0.608579 -1.84734 0
M  V30 2326 C 216.94 -2.88612 -2.15349 0
M  V30 2327 C 216.793 -4.25815 -1.44918 0
M  V30 2328 C 218.112 -3.06294 -3.16026 0
M  V30 2329 H 215.231 -0.60575 -0.419805 0
M  V30 2330 H 217.873 -1.84732 -0.444314 0
M  V30 2331 H 216.023 -2.73158 -2.76255 0
M  V30 2332 H 217.695 -4.52995 -0.871365 0
M  V30 2333 H 215.938 -4.27247 -0.751159 0
M  V30 2334 H 216.609 -5.07337 -2.17516 0
M  V30 2335 H 219.085 -3.20641 -2.65195 0
M  V30 2336 H 217.961 -3.93283 -3.8291 0
M  V30 2337 H 218.222 -2.19579 -3.83715 0
M  V30 2338 N 217.281 0.66697 -1.42791 0
M  V30 2339 C 218.511 1.45294 -1.46878 0
M  V30 2340 C 218.919 1.89027 -0.0809861 0
M  V30 2341 O 218.262 1.59219 0.916246 0
M  V30 2342 C 218.324 2.72908 -2.34012 0
M  V30 2343 C 217.988 2.51203 -3.81767 0
M  V30 2344 C 218.985 2.15302 -4.73224 0
M  V30 2345 C 216.67 2.65954 -4.26115 0
M  V30 2346 C 218.664 1.94431 -6.07022 0
M  V30 2347 C 216.351 2.44699 -5.59969 0
M  V30 2348 C 217.349 2.08992 -6.5024 0
M  V30 2349 O 217.037 1.87948 -7.81621 0
M  V30 2350 H 216.769 0.453306 -0.501487 0
M  V30 2351 H 219.323 0.826232 -1.88049 0
M  V30 2352 H 217.553 3.38089 -1.87703 0
M  V30 2353 H 219.242 3.34816 -2.29462 0
M  V30 2354 H 220.008 2.03495 -4.40244 0
M  V30 2355 H 215.887 2.92724 -3.56137 0
M  V30 2356 H 219.431 1.66484 -6.77443 0
M  V30 2357 H 215.328 2.56105 -5.9252 0
M  V30 2358 H 216.096 2.02483 -7.93059 0
M  V30 2359 N 218.759 1.29093 0.90403 0
M  V30 2360 C 220.007 1.16583 1.65085 0
M  V30 2361 C 220.328 -0.283933 1.92922 0
M  V30 2362 O 219.598 -1.19509 1.55224 0
M  V30 2363 H 218.178 0.428467 0.611903 0
M  V30 2364 H 220.84 1.61959 1.08422 0
M  V30 2365 H 219.936 1.71266 2.6091 0
M  V30 2366 N 220.237 -1.11381 1.11499 0
M  V30 2367 C 221.483 -1.83403 0.865512 0
M  V30 2368 C 221.816 -1.84459 -0.607329 0
M  V30 2369 O 221.091 -1.29811 -1.44842 0
M  V30 2370 C 221.374 -3.30552 1.42855 0
M  V30 2371 C 221.227 -3.37886 2.96906 0
M  V30 2372 C 222.546 -4.26643 1.08 0
M  V30 2373 H 219.665 -0.665879 0.31587 0
M  V30 2374 H 222.307 -1.30601 1.37998 0
M  V30 2375 H 220.457 -3.75648 0.990985 0
M  V30 2376 H 222.129 -3.01343 3.49271 0
M  V30 2377 H 220.372 -2.78088 3.32941 0
M  V30 2378 H 221.043 -4.41458 3.31389 0
M  V30 2379 H 223.519 -3.89729 1.45775 0
M  V30 2380 H 222.395 -5.27986 1.50072 0
M  V30 2381 H 222.656 -4.42099 -0.00915037 0
M  V30 2382 N 221.715 -0.905404 -1.28997 0
M  V30 2383 C 223.126 -0.581953 -1.77398 0
M  V30 2384 C 223.477 0.902552 -1.74208 0
M  V30 2385 O 222.602 1.70584 -1.33154 0
M  V30 2386 C 223.197 -1.04961 -3.22131 0
M  V30 2387 C 221.756 -0.777229 -3.68288 0
M  V30 2388 C 220.903 -1.22109 -2.48967 0
M  V30 2389 H 223.854 -1.08754 -1.15578 0
M  V30 2390 H 223.875 -0.387387 -3.78523 0
M  V30 2391 H 223.387 -2.13008 -3.24421 0
M  V30 2392 H 221.488 0.290383 -3.71467 0
M  V30 2393 H 221.601 -1.37911 -4.58822 0
M  V30 2394 H 219.965 -0.639971 -2.46529 0
M  V30 2395 H 220.748 -2.30972 -2.53982 0
M  V30 2396 N 223.193 1.4272 -0.668489 0
M  V30 2397 C 224.604 1.84793 -0.266151 0
M  V30 2398 C 224.955 1.55959 1.19043 0
M  V30 2399 O 224.08 1.01622 1.91055 0
M  V30 2400 C 224.675 3.35436 -0.476271 0
M  V30 2401 C 223.234 3.76182 -0.128113 0
M  V30 2402 C 222.381 2.66344 -0.771777 0
M  V30 2403 H 225.332 1.32656 -0.871098 0
M  V30 2404 H 225.353 3.79515 0.273561 0
M  V30 2405 H 224.865 3.5639 -1.53647 0
M  V30 2406 H 222.966 3.60836 0.928891 0
M  V30 2407 H 223.079 4.75766 -0.564231 0
M  V30 2408 H 221.443 2.53885 -0.203652 0
M  V30 2409 H 222.226 2.90123 -1.83531 0
M  V30 2410 N 224.671 0.411399 1.52136 0
M  V30 2411 C 225.581 -0.419774 2.30814 0
M  V30 2412 C 226.597 -1.0515 1.38634 0
M  V30 2413 O 227.773 -1.05252 1.71709 0
M  V30 2414 C 224.838 -1.52019 3.11594 0
M  V30 2415 C 223.899 -0.91129 4.19516 0
M  V30 2416 C 223.132 -1.95927 4.96436 0
M  V30 2417 O 223.355 -3.17775 4.73683 0
M  V30 2418 O 222.289 -1.56423 5.81219 0
M  V30 2419 H 226.115 0.221805 3.02889 0
M  V30 2420 H 223.7 0.174547 1.48377 0
M  V30 2421 H 225.582 -2.15898 3.61892 0
M  V30 2422 H 224.257 -2.14633 2.42311 0
M  V30 2423 H 223.164 -0.235157 3.7336 0
M  V30 2424 H 224.497 -0.32904 4.91099 0
M  V30 2425 N 226.149 -1.5696 0.141893 0
M  V30 2426 C 227.398 -1.95135 -0.510427 0
M  V30 2427 C 227.711 -1.02896 -1.66348 0
M  V30 2428 O 228.917 -1.30629 -2.38009 0
M  V30 2429 C 227.373 -3.46876 -0.959427 0
M  V30 2430 C 226.981 -4.47691 0.166419 0
M  V30 2431 C 228.725 -3.93927 -1.58183 0
M  V30 2432 C 226.632 -5.90636 -0.300565 0
M  V30 2433 H 225.562 -0.728494 -0.194454 0
M  V30 2434 H 228.213 -1.8211 0.22542 0
M  V30 2435 H 226.595 -3.55215 -1.75038 0
M  V30 2436 H 227.769 -4.51043 0.94325 0
M  V30 2437 H 226.084 -4.10527 0.696905 0
M  V30 2438 H 228.681 -4.98158 -1.94275 0
M  V30 2439 H 229.024 -3.3519 -2.46888 0
M  V30 2440 H 229.557 -3.88484 -0.855863 0
M  V30 2441 H 226.296 -6.5318 0.550989 0
M  V30 2442 H 225.816 -5.90655 -1.04338 0
M  V30 2443 H 227.495 -6.42588 -0.754265 0
M  V30 2444 N 227.627 0.131896 -1.57047 0
M  V30 2445 C 228.876 0.84044 -1.83356 0
M  V30 2446 C 229.189 1.81646 -0.725535 0
M  V30 2447 O 230.395 2.57025 -0.874659 0
M  V30 2448 C 228.851 1.54528 -3.25037 0
M  V30 2449 C 228.459 0.610902 -4.43815 0
M  V30 2450 C 230.203 2.23972 -3.60606 0
M  V30 2451 C 228.11 1.31823 -5.76521 0
M  V30 2452 H 227.04 0.317599 -0.683847 0
M  V30 2453 H 229.691 0.0931561 -1.83263 0
M  V30 2454 H 228.073 2.33873 -3.19561 0
M  V30 2455 H 229.247 -0.148407 -4.60561 0
M  V30 2456 H 227.562 0.0241016 -4.16393 0
M  V30 2457 H 230.159 2.77558 -4.57018 0
M  V30 2458 H 230.502 3.01173 -2.87403 0
M  V30 2459 H 231.035 1.51529 -3.6781 0
M  V30 2460 H 227.774 0.587771 -6.52859 0
M  V30 2461 H 227.294 2.04987 -5.63685 0
M  V30 2462 H 228.973 1.855 -6.19838 0
M  V30 2463 N 229.106 1.52395 0.401703 0
M  V30 2464 C 230.352 1.67065 1.14966 0
M  V30 2465 C 230.685 0.403052 1.89971 0
M  V30 2466 O 229.96 -0.598774 1.85054 0
M  V30 2467 C 230.243 2.8975 2.13815 0
M  V30 2468 C 230.096 4.26578 1.42658 0
M  V30 2469 C 231.415 3.07965 3.14397 0
M  V30 2470 H 228.534 0.607968 0.416587 0
M  V30 2471 H 231.176 1.84965 0.434511 0
M  V30 2472 H 229.326 2.74619 2.74803 0
M  V30 2473 H 230.998 4.53451 0.847329 0
M  V30 2474 H 229.241 4.27639 0.72849 0
M  V30 2475 H 229.912 5.08483 2.14823 0
M  V30 2476 H 232.388 3.22043 2.63491 0
M  V30 2477 H 231.264 3.95308 3.80819 0
M  V30 2478 H 231.525 2.21611 3.82545 0
M  V30 2479 N 230.584 -0.659388 1.43143 0
M  V30 2480 C 231.832 -1.41654 1.44147 0
M  V30 2481 C 232.153 -1.94893 0.0645739 0
M  V30 2482 O 231.423 -1.74044 -0.899198 0
M  V30 2483 H 230.003 -0.525708 0.530697 0
M  V30 2484 H 232.665 -0.778097 1.78694 0
M  V30 2485 H 231.761 -2.26195 2.1504 0
M  V30 2486 N 232.062 -1.29571 -0.897171 0
M  V30 2487 C 233.311 -1.1706 -1.64256 0
M  V30 2488 C 233.624 0.276476 -1.93636 0
M  V30 2489 O 234.83 0.52294 -2.66416 0
M  V30 2490 C 233.286 -2.0475 -2.95982 0
M  V30 2491 C 232.894 -3.54295 -2.74187 0
M  V30 2492 C 234.638 -2.0097 -3.73914 0
M  V30 2493 C 232.545 -4.34081 -4.01656 0
M  V30 2494 H 231.475 -0.43452 -0.616205 0
M  V30 2495 H 234.126 -1.54229 -0.994268 0
M  V30 2496 H 232.508 -1.60452 -3.62038 0
M  V30 2497 H 233.682 -4.06662 -2.1671 0
M  V30 2498 H 231.997 -3.59773 -2.09648 0
M  V30 2499 H 234.594 -2.57838 -4.68427 0
M  V30 2500 H 234.937 -0.990273 -4.0435 0
M  V30 2501 H 235.47 -2.43325 -3.14703 0
M  V30 2502 H 232.209 -5.36671 -3.76384 0
M  V30 2503 H 231.729 -3.86483 -4.58684 0
M  V30 2504 H 233.408 -4.44877 -4.69781 0
M  V30 2505 N 233.54 1.10788 -1.12088 0
M  V30 2506 C 234.789 1.82036 -0.868659 0
M  V30 2507 C 235.102 1.85929 0.607426 0
M  V30 2508 O 236.308 2.53346 0.97613 0
M  V30 2509 C 234.764 3.26951 -1.50435 0
M  V30 2510 C 234.372 3.31367 -3.01496 0
M  V30 2511 C 236.116 4.03053 -1.33225 0
M  V30 2512 C 234.023 4.7072 -3.58017 0
M  V30 2513 H 232.953 0.682108 -0.321318 0
M  V30 2514 H 235.604 1.24618 -1.34694 0
M  V30 2515 H 233.986 3.84343 -0.953735 0
M  V30 2516 H 235.16 2.83819 -3.6302 0
M  V30 2517 H 233.475 2.6875 -3.18061 0
M  V30 2518 H 236.072 5.05981 -1.72878 0
M  V30 2519 H 236.415 4.15387 -0.275529 0
M  V30 2520 H 236.948 3.52066 -1.85188 0
M  V30 2521 H 233.687 4.63585 -4.63432 0
M  V30 2522 H 233.207 5.1865 -3.01268 0
M  V30 2523 H 234.886 5.39685 -3.56859 0
M  V30 2524 N 235.018 0.912232 1.28515 0
M  V30 2525 C 236.266 0.543523 1.94654 0
M  V30 2526 C 236.587 -0.9155 1.72173 0
M  V30 2527 O 235.857 -1.64708 1.06058 0
M  V30 2528 H 234.437 0.198017 0.720277 0
M  V30 2529 H 237.099 1.16126 1.56527 0
M  V30 2530 H 236.195 0.736684 3.03281 0
M  V30 2531 N 236.496 -1.42363 0.676048 0
M  V30 2532 C 237.742 -2.0182 0.199125 0
M  V30 2533 C 238.075 -1.53339 -1.19168 0
M  V30 2534 O 237.35 -0.736124 -1.80032 0
M  V30 2535 C 237.633 -3.59331 0.235144 0
M  V30 2536 C 237.486 -4.17989 1.66149 0
M  V30 2537 C 238.805 -4.3813 -0.41595 0
M  V30 2538 H 235.924 -0.733293 0.0738311 0
M  V30 2539 H 238.566 -1.69368 0.86107 0
M  V30 2540 H 236.716 -3.87109 -0.328487 0
M  V30 2541 H 238.388 -4.0116 2.27747 0
M  V30 2542 H 236.631 -3.7377 2.20178 0
M  V30 2543 H 237.302 -5.27126 1.63837 0
M  V30 2544 H 239.778 -4.16051 0.0638529 0
M  V30 2545 H 238.654 -5.47717 -0.360115 0
M  V30 2546 H 238.915 -4.16101 -1.49373 0
M  V30 2547 N 237.974 -0.419461 -1.51915 0
M  V30 2548 C 238.884 0.407528 -2.31033 0
M  V30 2549 C 239.9 1.04413 -1.3919 0
M  V30 2550 O 241.076 1.0434 -1.72265 0
M  V30 2551 C 238.141 1.50365 -3.12396 0
M  V30 2552 C 237.202 0.889029 -4.19994 0
M  V30 2553 C 236.435 1.93291 -4.97468 0
M  V30 2554 O 236.658 3.15259 -4.75361 0
M  V30 2555 O 235.592 1.53339 -5.8204 0
M  V30 2556 H 239.418 -0.237865 -3.02767 0
M  V30 2557 H 237.003 -0.182413 -1.48282 0
M  V30 2558 H 238.885 2.13975 -3.63032 0
M  V30 2559 H 237.56 2.13345 -2.43445 0
M  V30 2560 H 236.467 0.215353 -3.7348 0
M  V30 2561 H 237.8 0.302991 -4.91267 0
M  V30 2562 N 239.452 1.56882 -0.150215 0
M  V30 2563 C 240.68 2.00593 0.506948 0
M  V30 2564 C 241.095 1.03033 1.58208 0
M  V30 2565 O 240.452 0.0278396 1.82479 0
M  V30 2566 C 240.503 3.44209 1.10465 0
M  V30 2567 O 240.224 4.3804 0.0724636 0
M  V30 2568 C 241.725 4.03214 1.84211 0
M  V30 2569 H 238.945 0.65795 0.13169 0
M  V30 2570 H 241.489 2.03018 -0.245743 0
M  V30 2571 H 239.644 3.42625 1.80795 0
M  V30 2572 H 240.058 5.22007 0.510793 0
M  V30 2573 H 241.532 5.0569 2.21318 0
M  V30 2574 H 242.009 3.44107 2.72923 0
M  V30 2575 H 242.615 4.08437 1.18572 0
M  V30 2576 N 240.93 -0.123565 1.57115 0
M  V30 2577 C 242.346 -0.476961 1.52306 0
M  V30 2578 C 242.546 -1.82109 0.86248 0
M  V30 2579 O 241.602 -2.48586 0.442884 0
M  V30 2580 C 242.915 -0.465661 2.97073 0
M  V30 2581 C 244.463 -0.549534 3.08138 0
M  V30 2582 C 244.938 -0.568669 4.54456 0
M  V30 2583 N 246.429 -0.630237 4.58892 0
M  V30 2584 C 247.164 -0.666415 5.69514 0
M  V30 2585 N 246.66 -0.660514 6.89644 0
M  V30 2586 N 248.453 -0.709077 5.5761 0
M  V30 2587 H 240.604 0.757198 1.98445 0
M  V30 2588 H 242.867 0.278808 0.906074 0
M  V30 2589 H 242.573 0.454232 3.48754 0
M  V30 2590 H 242.447 -1.29513 3.54269 0
M  V30 2591 H 244.834 -1.45985 2.56461 0
M  V30 2592 H 244.915 0.307532 2.53945 0
M  V30 2593 H 244.559 0.337581 5.06777 0
M  V30 2594 H 244.489 -1.44256 5.06456 0
M  V30 2595 H 246.98 -0.641146 3.72421 0
M  V30 2596 H 247.293 -0.690616 7.69708 0
M  V30 2597 H 245.638 -0.628012 6.92157 0
M  V30 2598 H 248.829 -0.711019 4.62668 0
M  V30 2599 H 249.002 -0.733804 6.43832 0
M  V30 2600 N 242.408 -1.52605 -0.393616 0
M  V30 2601 C 243.654 -1.68624 -1.13743 0
M  V30 2602 C 244.009 -0.418687 -1.87789 0
M  V30 2603 O 243.302 0.58747 -1.82371 0
M  V30 2604 C 243.496 -2.85721 -2.14705 0
M  V30 2605 C 243.325 -4.23742 -1.50575 0
M  V30 2606 C 242.095 -4.89033 -1.2718 0
M  V30 2607 C 244.293 -5.05293 -0.958311 0
M  V30 2608 N 242.275 -6.11048 -0.591058 0
M  V30 2609 C 243.646 -6.18673 -0.405367 0
M  V30 2610 C 245.701 -4.90517 -0.854274 0
M  V30 2611 C 244.404 -7.18895 0.241434 0
M  V30 2612 C 246.43 -5.90986 -0.221301 0
M  V30 2613 C 245.792 -7.03669 0.320894 0
M  V30 2614 H 241.891 -0.670556 -0.402342 0
M  V30 2615 H 244.475 -1.89946 -0.427607 0
M  V30 2616 H 242.646 -2.65987 -2.83029 0
M  V30 2617 H 244.378 -2.90699 -2.8156 0
M  V30 2618 H 241.133 -4.47672 -1.54554 0
M  V30 2619 H 241.557 -6.76474 -0.266862 0
M  V30 2620 H 246.199 -4.03612 -1.25926 0
M  V30 2621 H 243.917 -8.05413 0.658448 0
M  V30 2622 H 247.503 -5.81626 -0.142111 0
M  V30 2623 H 246.383 -7.80078 0.802956 0
M  V30 2624 N 243.887 0.651787 -1.4349 0
M  V30 2625 C 245.135 1.40888 -1.44897 0
M  V30 2626 C 245.456 1.94856 -0.0749086 0
M  V30 2627 O 244.726 1.74518 0.889956 0
M  V30 2628 H 243.306 0.522887 -0.533478 0
M  V30 2629 H 245.968 0.768609 -1.79104 0
M  V30 2630 H 245.064 2.25052 -2.16236 0
M  V30 2631 N 245.365 1.30045 0.890287 0
M  V30 2632 C 246.781 1.08261 1.17268 0
M  V30 2633 C 246.981 -0.160063 2.00863 0
M  V30 2634 O 246.037 -0.855181 2.37577 0
M  V30 2635 C 247.35 2.34323 1.8845 0
M  V30 2636 C 248.898 2.39735 2.01237 0
M  V30 2637 C 249.373 3.65625 2.7583 0
M  V30 2638 N 250.864 3.66402 2.83379 0
M  V30 2639 C 251.599 4.60498 3.41657 0
M  V30 2640 N 251.095 5.64933 4.01026 0
M  V30 2641 N 252.888 4.48051 3.39421 0
M  V30 2642 H 245.039 2.09777 0.332762 0
M  V30 2643 H 247.302 0.92446 0.209948 0
M  V30 2644 H 247.008 3.2498 1.34465 0
M  V30 2645 H 246.882 2.4256 2.88867 0
M  V30 2646 H 249.269 1.4956 2.54393 0
M  V30 2647 H 249.35 2.35476 0.999232 0
M  V30 2648 H 248.994 4.56156 2.23347 0
M  V30 2649 H 248.924 3.67144 3.77509 0
M  V30 2650 H 251.415 2.90896 2.41222 0
M  V30 2651 H 251.728 6.32841 4.43545 0
M  V30 2652 H 250.073 5.68732 3.99461 0
M  V30 2653 H 253.264 3.65649 2.92264 0
M  V30 2654 H 253.437 5.21565 3.84544 0
M  V30 2655 N 246.843 -1.10192 1.12674 0
M  V30 2656 C 248.089 -1.82475 0.884915 0
M  V30 2657 C 248.422 -1.85093 -0.58773 0
M  V30 2658 O 247.697 -1.3134 -1.43457 0
M  V30 2659 C 247.98 -3.29018 1.46353 0
M  V30 2660 C 247.833 -3.34718 3.00473 0
M  V30 2661 C 249.152 -4.25473 1.12519 0
M  V30 2662 H 246.271 -0.662492 0.322915 0
M  V30 2663 H 248.913 -1.2913 1.39375 0
M  V30 2664 H 247.063 -3.74576 1.03077 0
M  V30 2665 H 248.735 -2.97622 3.52447 0
M  V30 2666 H 246.978 -2.74541 3.35872 0
M  V30 2667 H 247.649 -4.37918 3.36053 0
M  V30 2668 H 250.125 -3.88161 1.499 0
M  V30 2669 H 249.001 -5.26365 1.55663 0
M  V30 2670 H 249.262 -4.42084 0.0377407 0
M  V30 2671 N 248.321 -0.919034 -1.28029 0
M  V30 2672 C 249.254 -0.355887 -2.25408 0
M  V30 2673 C 250.232 0.542874 -1.5327 0
M  V30 2674 O 251.416 0.485338 -1.82145 0
M  V30 2675 C 248.543 0.490759 -3.35126 0
M  V30 2676 C 247.589 -0.343358 -4.25116 0
M  V30 2677 S 248.422 -1.75344 -5.05979 0
M  V30 2678 C 249.578 -0.914244 -6.19187 0
M  V30 2679 H 249.811 -1.18123 -2.72826 0
M  V30 2680 H 247.344 -0.720636 -1.36551 0
M  V30 2681 H 249.302 0.973404 -3.98792 0
M  V30 2682 H 247.963 1.29054 -2.86363 0
M  V30 2683 H 247.156 0.304266 -5.03081 0
M  V30 2684 H 246.758 -0.759851 -3.662 0
M  V30 2685 H 249.05 -0.146282 -6.77342 0
M  V30 2686 H 249.993 -1.66661 -6.88208 0
M  V30 2687 H 250.401 -0.460082 -5.62622 0
M  V30 2688 N 249.799 1.42003 -0.683588 0
M  V30 2689 C 251.047 2.01015 -0.209101 0
M  V30 2690 C 251.368 1.54365 1.19149 0
M  V30 2691 O 250.638 0.769083 1.80172 0
M  V30 2692 H 249.218 0.743294 -0.074315 0
M  V30 2693 H 251.88 1.73798 -0.882066 0
M  V30 2694 H 250.976 3.11343 -0.2172 0
M  V30 2695 N 251.277 0.427512 1.51691 0
M  V30 2696 C 252.224 -0.388867 2.275 0
M  V30 2697 C 253.194 -1.02532 1.30677 0
M  V30 2698 O 254.379 -1.0461 1.59566 0
M  V30 2699 C 251.519 -1.48954 3.11298 0
M  V30 2700 C 250.632 -0.872194 4.23104 0
M  V30 2701 C 249.767 -1.94709 4.94228 0
M  V30 2702 C 248.806 -1.30766 5.97969 0
M  V30 2703 N 247.943 -2.32349 6.62539 0
M  V30 2704 H 252.783 0.263997 2.96828 0
M  V30 2705 H 250.32 0.142033 1.46413 0
M  V30 2706 H 252.278 -2.13887 3.58201 0
M  V30 2707 H 250.908 -2.11217 2.44105 0
M  V30 2708 H 249.96 -0.111419 3.80237 0
M  V30 2709 H 251.272 -0.365264 4.97461 0
M  V30 2710 H 250.426 -2.67327 5.44629 0
M  V30 2711 H 249.165 -2.48773 4.1948 0
M  V30 2712 H 248.17 -0.566902 5.4687 0
M  V30 2713 H 249.395 -0.774483 6.74669 0
M  V30 2714 H 247.341 -2.85511 5.90609 0
M  V30 2715 H 247.258 -1.8652 7.3263 0
M  V30 2716 H 248.526 -3.04481 7.17574 0
M  V30 2717 N 252.755 -1.56801 0.158532 0
M  V30 2718 C 253.983 -2.00859 -0.496303 0
M  V30 2719 C 254.398 -1.03871 -1.57659 0
M  V30 2720 O 253.755 -0.0375165 -1.82461 0
M  V30 2721 C 253.806 -3.4479 -1.08638 0
M  V30 2722 O 253.527 -4.38072 -0.0492322 0
M  V30 2723 C 255.028 -4.04185 -1.8207 0
M  V30 2724 H 252.248 -0.65864 -0.128199 0
M  V30 2725 H 254.792 -2.02885 0.256506 0
M  V30 2726 H 252.947 -3.43579 -1.78975 0
M  V30 2727 H 253.361 -5.2227 -0.483102 0
M  V30 2728 H 254.835 -5.06857 -2.18633 0
M  V30 2729 H 255.312 -3.45549 -2.71095 0
M  V30 2730 H 255.918 -4.0906 -1.16405 0
M  V30 2731 N 254.233 0.115231 -1.57178 0
M  V30 2732 C 255.649 0.468877 -1.52557 0
M  V30 2733 C 255.849 1.81649 -0.872125 0
M  V30 2734 O 254.905 2.48347 -0.45606 0
M  V30 2735 C 256.218 0.4499 -2.97315 0
M  V30 2736 C 257.766 0.533185 -3.08425 0
M  V30 2737 C 258.241 0.54456 -4.54751 0
M  V30 2738 N 259.732 0.605892 -4.5922 0
M  V30 2739 C 260.467 0.636203 -5.6986 0
M  V30 2740 N 259.963 0.623931 -6.89985 0
M  V30 2741 N 261.756 0.679496 -5.57978 0
M  V30 2742 H 253.907 -0.767712 -1.9804 0
M  V30 2743 H 256.17 -0.283609 -0.904583 0
M  V30 2744 H 255.876 -0.472721 -3.48509 0
M  V30 2745 H 255.75 1.27632 -3.5495 0
M  V30 2746 H 258.137 1.44623 -2.57232 0
M  V30 2747 H 258.218 -0.320995 -2.53778 0
M  V30 2748 H 257.862 -0.364452 -5.06591 0
M  V30 2749 H 257.792 1.41568 -5.07214 0
M  V30 2750 H 260.283 0.621386 -3.72756 0
M  V30 2751 H 260.596 0.649787 -7.70063 0
M  V30 2752 H 258.941 0.591296 -6.9248 0
M  V30 2753 H 262.132 0.686472 -4.63039 0
M  V30 2754 H 262.305 0.69965 -6.44212 0
M  V30 2755 N 255.711 1.52812 0.385517 0
M  V30 2756 C 256.96 1.67249 1.12741 0
M  V30 2757 C 257.273 0.4205 1.91027 0
M  V30 2758 O 258.479 0.445064 2.67827 0
M  V30 2759 C 256.935 2.95583 2.05326 0
M  V30 2760 C 256.543 4.27974 1.32447 0
M  V30 2761 C 258.287 3.19386 2.7963 0
M  V30 2762 C 256.194 5.47412 2.23818 0
M  V30 2763 H 255.124 0.6231 0.424573 0
M  V30 2764 H 257.775 1.79309 0.389924 0
M  V30 2765 H 256.157 2.77277 2.82725 0
M  V30 2766 H 257.331 4.56844 0.602495 0
M  V30 2767 H 255.646 4.10459 0.700885 0
M  V30 2768 H 258.243 4.05801 3.48181 0
M  V30 2769 H 258.586 2.34604 3.43899 0
M  V30 2770 H 259.119 3.38274 2.09322 0
M  V30 2771 H 255.858 6.34612 1.64157 0
M  V30 2772 H 255.378 5.22849 2.93921 0
M  V30 2773 H 257.057 5.81423 2.83824 0
M  V30 2774 N 257.189 -0.644168 1.43834 0
M  V30 2775 C 258.119 -1.76814 1.52509 0
M  V30 2776 C 259.1 -1.65823 0.379052 0
M  V30 2777 O 260.285 -1.84781 0.597466 0
M  V30 2778 C 257.415 -3.15288 1.4564 0
M  V30 2779 C 256.369 -3.41053 2.58586 0
M  V30 2780 C 255.695 -4.79421 2.36769 0
M  V30 2781 C 256.995 -3.34902 4.00797 0
M  V30 2782 H 258.689 -1.69812 2.46586 0
M  V30 2783 H 256.235 -0.815542 1.1868 0
M  V30 2784 H 258.188 -3.93681 1.50311 0
M  V30 2785 H 256.912 -3.23043 0.480725 0
M  V30 2786 H 255.571 -2.65035 2.53282 0
M  V30 2787 H 255.219 -4.83863 1.37424 0
M  V30 2788 H 254.919 -4.9762 3.12487 0
M  V30 2789 H 256.443 -5.6006 2.43238 0
M  V30 2790 H 257.857 -4.03218 4.07539 0
M  V30 2791 H 256.254 -3.64637 4.76613 0
M  V30 2792 H 257.324 -2.32928 4.25291 0
M  V30 2793 N 258.668 -1.30515 -0.883378 0
M  V30 2794 C 259.945 -1.10086 -1.6168 0
M  V30 2795 C 260.325 0.349269 -2.08191 0
M  V30 2796 O 259.673 1.34105 -1.85008 0
M  V30 2797 C 259.883 -2.10315 -2.78511 0
M  V30 2798 C 261.231 -2.42119 -3.48803 0
M  V30 2799 O 262.255 -2.08638 -2.88702 0
M  V30 2800 O 261.114 -2.99396 -4.57192 0
M  V30 2801 H 258.208 -0.422907 -0.710689 0
M  V30 2802 H 260.754 -1.41947 -0.930015 0
M  V30 2803 H 259.526 -3.07917 -2.41459 0
M  V30 2804 H 259.149 -1.79282 -3.54886 0
M  V30 2805 N 260.146 1.09593 -1.13257 0
M  V30 2806 C 261.109 2.14359 -0.811358 0
M  V30 2807 C 262.109 1.59808 0.178377 0
M  V30 2808 O 263.299 1.74132 -0.0484911 0
M  V30 2809 C 260.431 3.40269 -0.207276 0
M  V30 2810 H 261.624 2.44284 -1.73969 0
M  V30 2811 H 259.177 1.25102 -0.936973 0
M  V30 2812 H 259.912 3.15969 0.73036 0
M  V30 2813 H 259.697 3.81154 -0.919992 0
M  V30 2814 H 261.187 4.176 0.000667944 0
M  V30 2815 N 261.624 0.925811 1.2754 0
M  V30 2816 C 262.554 0.440748 2.29303 0
M  V30 2817 C 263.535 -0.497971 1.62648 0
M  V30 2818 O 264.72 -0.403126 1.8997 0
M  V30 2819 C 261.85 -0.309048 3.45922 0
M  V30 2820 C 260.804 0.54166 4.24559 0
M  V30 2821 C 260.13 -0.337191 5.33636 0
M  V30 2822 C 261.43 1.80516 4.90114 0
M  V30 2823 H 263.124 1.29121 2.70126 0
M  V30 2824 H 260.67 0.622323 1.29858 0
M  V30 2825 H 262.623 -0.659315 4.1621 0
M  V30 2826 H 261.347 -1.19352 3.04011 0
M  V30 2827 H 260.006 0.874609 3.56014 0
M  V30 2828 H 259.654 -1.22056 4.87966 0
M  V30 2829 H 259.354 0.228497 5.87156 0
M  V30 2830 H 260.878 -0.683072 6.06767 0
M  V30 2831 H 262.292 1.52307 5.52698 0
M  V30 2832 H 260.689 2.3142 5.53683 0
M  V30 2833 H 261.759 2.52581 4.13921 0
M  V30 2834 N 263.102 -1.41638 0.69111 0
M  V30 2835 C 264.065 -2.29178 0.0319786 0
M  V30 2836 C 265.065 -1.44153 -0.712496 0
M  V30 2837 O 266.255 -1.65354 -0.548053 0
M  V30 2838 C 263.387 -3.26952 -0.965161 0
M  V30 2839 H 264.58 -2.88959 0.802681 0
M  V30 2840 H 262.133 -1.4955 0.454356 0
M  V30 2841 H 262.868 -2.72142 -1.76378 0
M  V30 2842 H 262.653 -3.89685 -0.434522 0
M  V30 2843 H 264.143 -3.92561 -1.42428 0
M  V30 2844 N 264.58 -0.43555 -1.51462 0
M  V30 2845 C 265.808 0.130242 -2.0649 0
M  V30 2846 C 266.223 1.36614 -1.30315 0
M  V30 2847 O 265.58 1.78869 -0.362223 0
M  V30 2848 C 265.631 0.454253 -3.58635 0
M  V30 2849 O 265.352 -0.73259 -4.31931 0
M  V30 2850 C 266.853 1.07091 -4.3017 0
M  V30 2851 H 264.073 0.00871669 -0.670943 0
M  V30 2852 H 266.617 -0.614117 -1.95061 0
M  V30 2853 H 264.772 1.14851 -3.69984 0
M  V30 2854 H 265.186 -0.455787 -5.22516 0
M  V30 2855 H 266.66 1.24764 -5.37716 0
M  V30 2856 H 267.137 2.05144 -3.88346 0
M  V30 2857 H 267.743 0.416089 -4.2326 0
M  V30 2858 N 266.058 1.56714 -0.166846 0
M  V30 2859 C 266.988 2.20754 0.760913 0
M  V30 2860 C 267.969 1.16178 1.24244 0
M  V30 2861 O 269.154 1.44592 1.29641 0
M  V30 2862 C 266.284 2.84478 1.99223 0
M  V30 2863 C 265.238 3.95053 1.64672 0
M  V30 2864 C 264.564 4.45805 2.95232 0
M  V30 2865 C 265.864 5.14865 0.878155 0
M  V30 2866 H 267.558 2.98537 0.22713 0
M  V30 2867 H 265.104 1.43596 0.107805 0
M  V30 2868 H 267.057 3.27951 2.64624 0
M  V30 2869 H 265.781 2.04056 2.55007 0
M  V30 2870 H 264.44 3.52228 1.01641 0
M  V30 2871 H 264.088 3.62181 3.49047 0
M  V30 2872 H 263.788 5.204 2.7287 0
M  V30 2873 H 265.312 4.91962 3.6167 0
M  V30 2874 H 266.726 5.55059 1.43466 0
M  V30 2875 H 265.123 5.95348 0.753738 0
M  V30 2876 H 266.193 4.84735 -0.126377 0
M  V30 2877 N 267.536 -0.106894 1.57237 0
M  V30 2878 C 268.761 -0.830287 1.90055 0
M  V30 2879 C 269.186 -1.72064 0.75998 0
M  V30 2880 O 268.544 -1.78982 -0.288991 0
M  V30 2881 C 268.592 -1.6295 3.21683 0
M  V30 2882 O 267.696 -2.73748 3.08441 0
M  V30 2883 H 267.037 -0.228855 0.623315 0
M  V30 2884 H 269.567 -0.085658 2.04421 0
M  V30 2885 H 269.577 -2.01621 3.54701 0
M  V30 2886 H 268.252 -0.975989 4.04286 0
M  V30 2887 H 266.829 -2.38192 2.86913 0
M  V30 2888 N 269.014 -1.53014 -0.377408 0
M  V30 2889 C 270.261 -1.68623 -1.12128 0
M  V30 2890 C 270.589 -0.431997 -1.89642 0
M  V30 2891 O 269.844 0.585855 -1.86725 0
M  V30 2892 C 270.143 -2.87982 -2.11663 0
M  V30 2893 C 269.809 -4.24964 -1.50719 0
M  V30 2894 C 268.471 -4.62217 -1.33825 0
M  V30 2895 C 270.823 -5.10199 -1.06519 0
M  V30 2896 C 268.151 -5.82352 -0.712963 0
M  V30 2897 C 270.503 -6.30969 -0.453955 0
M  V30 2898 C 269.167 -6.66944 -0.272411 0
M  V30 2899 H 268.437 -0.617034 -0.410305 0
M  V30 2900 H 271.084 -1.8718 -0.404484 0
M  V30 2901 H 269.389 -2.63889 -2.89603 0
M  V30 2902 H 271.086 -2.97253 -2.6915 0
M  V30 2903 H 267.676 -3.95626 -1.64858 0
M  V30 2904 H 271.86 -4.81978 -1.18368 0
M  V30 2905 H 267.116 -6.08824 -0.560611 0
M  V30 2906 H 271.29 -6.96324 -0.103217 0
M  V30 2907 H 268.917 -7.59898 0.214181 0
M  V30 2908 N 270.492 0.636531 -1.44174 0
M  V30 2909 C 271.44 1.76995 -1.50915 0
M  V30 2910 C 272.434 1.65053 -0.381295 0
M  V30 2911 O 273.64 1.71197 -0.55601 0
M  V30 2912 H 270.015 0.584247 -0.473455 0
M  V30 2913 H 271.986 1.68432 -2.4632 0
M  V30 2914 C 270.735 3.15314 -1.46534 0
M  V30 2915 H 270.058 3.25149 -2.32633 0
M  V30 2916 H 271.498 3.9453 -1.55312 0
M  V30 2917 C 269.957 3.3639 -0.185305 0
M  V30 2918 O 270.487 3.94699 0.746688 0
M  V30 2919 N 268.693 2.9046 -0.0901606 0
M  V30 2920 H 268.24 2.43193 -0.849416 0
M  V30 2921 H 268.198 3.04937 0.765553 0
M  V30 2922 N 271.97 1.30982 0.876444 0
M  V30 2923 C 273.2 1.23063 1.65949 0
M  V30 2924 C 273.608 -0.207537 1.88058 0
M  V30 2925 O 272.951 -1.14781 1.43426 0
M  V30 2926 C 273.013 1.89768 3.05333 0
M  V30 2927 C 272.677 3.39106 3.0636 0
M  V30 2928 C 273.674 4.3496 2.84791 0
M  V30 2929 C 271.359 3.80693 3.27686 0
M  V30 2930 C 273.353 5.70375 2.84519 0
M  V30 2931 C 271.04 5.16223 3.27043 0
M  V30 2932 C 272.038 6.10875 3.05485 0
M  V30 2933 O 271.726 7.43928 3.04674 0
M  V30 2934 H 271.458 0.426685 0.524324 0
M  V30 2935 H 274.012 1.7329 1.10271 0
M  V30 2936 H 272.242 1.34082 3.6271 0
M  V30 2937 H 273.931 1.75853 3.65829 0
M  V30 2938 H 274.697 4.0416 2.68103 0
M  V30 2939 H 270.576 3.07457 3.43499 0
M  V30 2940 H 274.12 6.44228 2.67611 0
M  V30 2941 H 270.017 5.4666 3.43269 0
M  V30 2942 H 270.785 7.53022 3.2078 0
M  V30 2943 N 273.449 -1.08991 1.13837 0
M  V30 2944 C 274.86 -1.62746 0.914917 0
M  V30 2945 C 275.211 -1.88403 -0.547594 0
M  V30 2946 O 274.336 -1.63706 -1.41525 0
M  V30 2947 C 274.931 -2.95662 1.65437 0
M  V30 2948 C 273.49 -3.46225 1.47666 0
M  V30 2949 C 272.637 -2.20562 1.6807 0
M  V30 2950 H 275.588 -0.922946 1.29102 0
M  V30 2951 H 275.609 -3.63825 1.11407 0
M  V30 2952 H 275.121 -2.76956 2.71877 0
M  V30 2953 H 273.222 -3.70046 0.435478 0
M  V30 2954 H 273.335 -4.23368 2.24268 0
M  V30 2955 H 271.699 -2.29439 1.10589 0
M  V30 2956 H 272.482 -2.0437 2.7584 0
M  V30 2957 N 274.927 -0.932562 -1.27047 0
M  V30 2958 C 276.343 -0.633544 -1.46487 0
M  V30 2959 C 276.543 0.815746 -1.84249 0
M  V30 2960 O 275.599 1.59319 -1.95892 0
M  V30 2961 C 276.912 -1.58758 -2.55375 0
M  V30 2962 C 278.46 -1.59634 -2.69232 0
M  V30 2963 C 278.935 -2.53747 -3.81283 0
M  V30 2964 N 280.426 -2.51982 -3.88664 0
M  V30 2965 C 281.161 -3.21491 -4.74796 0
M  V30 2966 N 280.657 -4.00395 -5.65381 0
M  V30 2967 N 282.45 -3.10485 -4.68568 0
M  V30 2968 H 274.601 -1.86946 -1.00821 0
M  V30 2969 H 276.864 -0.802897 -0.504044 0
M  V30 2970 H 276.57 -2.62172 -2.34432 0
M  V30 2971 H 276.444 -1.33301 -3.52861 0
M  V30 2972 H 278.831 -0.569488 -2.89553 0
M  V30 2973 H 278.912 -1.89142 -1.72218 0
M  V30 2974 H 278.556 -3.56545 -3.61715 0
M  V30 2975 H 278.486 -2.21532 -4.77735 0
M  V30 2976 H 280.977 -1.94681 -3.23895 0
M  V30 2977 H 281.29 -4.50406 -6.27976 0
M  V30 2978 H 279.635 -4.04498 -5.65161 0
M  V30 2979 H 282.826 -2.48331 -3.96799 0
M  V30 2980 H 282.999 -3.64925 -5.35475 0
M  V30 2981 N 276.405 1.4127 -0.698611 0
M  V30 2982 C 277.821 1.55241 -0.370462 0
M  V30 2983 C 278.021 1.67351 1.12231 0
M  V30 2984 O 277.077 1.65363 1.90818 0
M  V30 2985 C 278.39 2.78997 -1.12165 0
M  V30 2986 C 279.938 2.92797 -1.1063 0
M  V30 2987 C 280.413 4.19445 -1.8393 0
M  V30 2988 N 281.904 4.26409 -1.80914 0
M  V30 2989 C 282.639 5.23271 -2.34467 0
M  V30 2990 N 282.135 6.26145 -2.96504 0
M  V30 2991 N 283.928 5.15232 -2.24706 0
M  V30 2992 H 276.079 1.31654 -1.66676 0
M  V30 2993 H 278.342 0.635393 -0.703548 0
M  V30 2994 H 278.048 2.76268 -2.17644 0
M  V30 2995 H 277.922 3.70606 -0.702209 0
M  V30 2996 H 280.309 2.95039 -0.0597713 0
M  V30 2997 H 280.39 2.02353 -1.56483 0
M  V30 2998 H 280.034 4.17964 -2.88563 0
M  V30 2999 H 279.964 5.08866 -1.35509 0
M  V30 3000 H 282.455 3.527 -1.35687 0
M  V30 3001 H 282.768 6.96451 -3.34927 0
M  V30 3002 H 281.113 6.26638 -3.00583 0
M  V30 3003 H 284.304 4.33789 -1.7591 0
M  V30 3004 H 284.477 5.90552 -2.66745 0
M  V30 3005 N 277.883 0.443576 1.51229 0
M  V30 3006 C 278.846 -0.353132 2.26463 0
M  V30 3007 C 279.846 -0.944338 1.3015 0
M  V30 3008 O 281.036 -0.817813 1.5381 0
M  V30 3009 C 278.168 -1.50023 3.06114 0
M  V30 3010 H 279.361 0.3063 2.98332 0
M  V30 3011 H 276.914 0.196902 1.55055 0
M  V30 3012 H 277.649 -2.19553 2.38677 0
M  V30 3013 H 277.434 -1.08241 3.76864 0
M  V30 3014 H 278.924 -2.06296 3.63087 0
M  V30 3015 N 279.361 -1.56624 0.175154 0
M  V30 3016 C 280.271 -2.21741 -0.766042 0
M  V30 3017 C 281.287 -1.21023 -1.25018 0
M  V30 3018 O 282.463 -1.53697 -1.3015 0
M  V30 3019 C 279.528 -2.84839 -1.97655 0
M  V30 3020 C 278.589 -4.00769 -1.53892 0
M  V30 3021 C 277.822 -4.60849 -2.69173 0
M  V30 3022 O 278.045 -4.19823 -3.86141 0
M  V30 3023 O 276.979 -5.50655 -2.43028 0
M  V30 3024 H 280.805 -3.02738 -0.241585 0
M  V30 3025 H 278.39 -1.49305 -0.053222 0
M  V30 3026 H 280.272 -3.24834 -2.68442 0
M  V30 3027 H 278.947 -2.06836 -2.48999 0
M  V30 3028 H 277.854 -3.65436 -0.80044 0
M  V30 3029 H 279.187 -4.80376 -1.07236 0
M  V30 3030 N 280.839 0.0985539 -1.57292 0
M  V30 3031 C 282.069 0.815135 -1.8984 0
M  V30 3032 C 282.477 1.7297 -0.766679 0
M  V30 3033 O 281.82 1.81698 0.270483 0
M  V30 3034 C 281.882 1.6842 -3.17608 0
M  V30 3035 C 281.546 0.94182 -4.4719 0
M  V30 3036 C 282.543 0.273212 -5.19182 0
M  V30 3037 C 280.228 0.916927 -4.9386 0
M  V30 3038 C 282.222 -0.410361 -6.36078 0
M  V30 3039 C 279.909 0.229567 -6.10669 0
M  V30 3040 C 280.907 -0.432902 -6.81627 0
M  V30 3041 O 280.595 -1.10925 -7.9621 0
M  V30 3042 H 280.327 0.238501 -0.632529 0
M  V30 3043 H 282.881 0.0812659 -2.05239 0
M  V30 3044 H 281.111 2.46022 -2.98345 0
M  V30 3045 H 282.8 2.27704 -3.36015 0
M  V30 3046 H 283.566 0.283927 -4.84168 0
M  V30 3047 H 279.445 1.42201 -4.3852 0
M  V30 3048 H 282.989 -0.928013 -6.914 0
M  V30 3049 H 278.886 0.216686 -6.45136 0
M  V30 3050 H 279.654 -1.01579 -8.12172 0
M  V30 3051 N 282.317 1.53212 0.369288 0
M  V30 3052 C 283.564 1.69215 1.11232 0
M  V30 3053 C 283.892 0.442048 1.8941 0
M  V30 3054 O 283.147 -0.575944 1.87033 0
M  V30 3055 C 283.446 2.89101 2.10132 0
M  V30 3056 C 283.112 4.25758 1.48463 0
M  V30 3057 C 281.774 4.6292 1.31372 0
M  V30 3058 C 284.126 5.10757 1.03811 0
M  V30 3059 C 281.454 5.82722 0.68207 0
M  V30 3060 C 283.806 6.31201 0.420487 0
M  V30 3061 C 282.47 6.67079 0.237038 0
M  V30 3062 H 281.74 0.619201 0.407027 0
M  V30 3063 H 284.387 1.87391 0.394552 0
M  V30 3064 H 282.692 2.65421 2.88199 0
M  V30 3065 H 284.389 2.98676 2.6757 0
M  V30 3066 H 280.979 3.96494 1.62758 0
M  V30 3067 H 285.163 4.82599 1.1581 0
M  V30 3068 H 280.419 6.09113 0.528316 0
M  V30 3069 H 284.593 6.96368 0.0662874 0
M  V30 3070 H 282.22 7.59774 -0.254477 0
M  V30 3071 N 283.795 -0.628877 1.44509 0
M  V30 3072 C 285.02 -1.42048 1.5112 0
M  V30 3073 C 285.445 -1.87594 0.137818 0
M  V30 3074 O 284.803 -1.58873 -0.873437 0
M  V30 3075 C 284.851 -2.61541 2.48251 0
M  V30 3076 O 283.955 -3.61453 1.98559 0
M  V30 3077 H 283.296 -0.424942 0.510216 0
M  V30 3078 H 285.826 -0.767374 1.89664 0
M  V30 3079 H 285.836 -3.09057 2.66361 0
M  V30 3080 H 284.511 -2.27736 3.48007 0
M  V30 3081 H 283.088 -3.20731 1.90227 0
M  V30 3082 N 285.273 -1.31445 -0.869486 0
M  V30 3083 C 286.521 -1.20918 -1.61936 0
M  V30 3084 C 286.842 0.232683 -1.93607 0
M  V30 3085 O 286.112 1.15352 -1.58338 0
M  V30 3086 H 284.692 -0.44454 -0.600328 0
M  V30 3087 H 287.354 -1.64776 -1.0409 0
M  V30 3088 H 286.45 -1.78124 -2.56278 0
M  V30 3089 N 286.751 1.08385 -1.14413 0
M  V30 3090 C 287.661 2.18856 -0.844951 0
M  V30 3091 C 288.677 1.73121 0.174668 0
M  V30 3092 O 289.853 2.014 0.00312857 0
M  V30 3093 C 286.918 3.45155 -0.32696 0
M  V30 3094 C 285.979 4.05513 -1.40916 0
M  V30 3095 C 285.212 5.25784 -0.915793 0
M  V30 3096 O 285.435 5.69884 0.242651 0
M  V30 3097 O 284.369 5.77545 -1.69487 0
M  V30 3098 H 288.195 2.46919 -1.76818 0
M  V30 3099 H 285.78 1.17524 -0.922411 0
M  V30 3100 H 287.662 4.21377 -0.0440211 0
M  V30 3101 H 286.337 3.18668 0.568539 0
M  V30 3102 H 285.244 3.30879 -1.74556 0
M  V30 3103 H 286.577 4.3625 -2.27919 0
M  V30 3104 N 288.23 0.939286 1.26551 0
M  V30 3105 C 289.16 0.465044 2.28822 0
M  V30 3106 C 290.141 -0.480692 1.63167 0
M  V30 3107 O 291.326 -0.382955 1.90387 0
M  V30 3108 C 288.456 -0.27234 3.46231 0
M  V30 3109 C 287.41 0.58666 4.2396 0
M  V30 3110 C 286.736 -0.280573 5.33963 0
M  V30 3111 C 288.036 1.85704 4.88171 0
M  V30 3112 H 289.73 1.31979 2.68741 0
M  V30 3113 H 287.276 0.636061 1.29191 0
M  V30 3114 H 289.229 -0.615133 4.16886 0
M  V30 3115 H 287.953 -1.16121 3.0526 0
M  V30 3116 H 286.612 0.91232 3.55067 0
M  V30 3117 H 286.26 -1.16874 4.89234 0
M  V30 3118 H 285.96 0.29076 5.8688 0
M  V30 3119 H 287.484 -0.618678 6.07458 0
M  V30 3120 H 288.898 1.58161 5.51052 0
M  V30 3121 H 287.295 2.37279 5.51197 0
M  V30 3122 H 288.365 2.56957 4.11219 0
M  V30 3123 N 289.708 -1.40897 0.706093 0
M  V30 3124 C 290.618 -2.3455 0.0482286 0
M  V30 3125 C 291.634 -1.56796 -0.754396 0
M  V30 3126 O 292.81 -1.89228 -0.689538 0
M  V30 3127 C 289.875 -3.35625 -0.869303 0
M  V30 3128 C 288.936 -4.29261 -0.0576994 0
M  V30 3129 C 288.169 -5.25508 -0.931531 0
M  V30 3130 O 288.392 -5.27472 -2.17092 0
M  V30 3131 O 287.326 -6.00727 -0.375587 0
M  V30 3132 H 291.152 -2.92407 0.820476 0
M  V30 3133 H 288.737 -1.4193 0.4665 0
M  V30 3134 H 290.619 -3.97635 -1.39514 0
M  V30 3135 H 289.294 -2.80196 -1.62086 0
M  V30 3136 H 288.201 -3.70566 0.512988 0
M  V30 3137 H 289.534 -4.87817 0.655426 0
M  V30 3138 N 291.186 -0.45159 -1.50991 0
M  V30 3139 C 292.414 0.108334 -2.06616 0
M  V30 3140 C 292.829 1.35224 -1.31757 0
M  V30 3141 O 292.186 1.78475 -0.381174 0
M  V30 3142 C 292.237 0.41619 -3.59096 0
M  V30 3143 O 291.958 -0.778361 -4.3113 0
M  V30 3144 C 293.459 1.02523 -4.31282 0
M  V30 3145 H 290.679 0.00159995 -0.670998 0
M  V30 3146 H 293.223 -0.634771 -1.94399 0
M  V30 3147 H 291.378 1.10921 -3.71181 0
M  V30 3148 H 291.792 -0.511181 -5.22003 0
M  V30 3149 H 293.266 1.19053 -5.39009 0
M  V30 3150 H 293.743 2.01013 -3.905 0
M  V30 3151 H 294.349 0.371173 -4.23677 0
M  V30 3152 N 292.664 1.56529 -0.183458 0
M  V30 3153 C 293.911 1.97244 0.458357 0
M  V30 3154 C 294.239 1.06992 1.62428 0
M  V30 3155 O 293.494 0.106542 1.9541 0
M  V30 3156 C 293.793 3.43939 0.971637 0
M  V30 3157 C 293.459 4.5083 -0.0796784 0
M  V30 3158 C 292.121 4.79786 -0.368584 0
M  V30 3159 C 294.473 5.15138 -0.792638 0
M  V30 3160 C 291.801 5.70345 -1.37563 0
M  V30 3161 C 294.153 6.06784 -1.78875 0
M  V30 3162 C 292.817 6.34102 -2.08497 0
M  V30 3163 H 292.087 0.721768 0.167725 0
M  V30 3164 H 294.734 1.89472 -0.277976 0
M  V30 3165 H 293.039 3.48724 1.78602 0
M  V30 3166 H 294.736 3.72791 1.47744 0
M  V30 3167 H 291.326 4.28317 0.155668 0
M  V30 3168 H 295.51 4.92868 -0.582659 0
M  V30 3169 H 290.766 5.89789 -1.61118 0
M  V30 3170 H 294.94 6.55677 -2.3465 0
M  V30 3171 H 292.567 7.04074 -2.86678 0
M  V30 3172 N 294.142 -0.090211 1.57342 0
M  V30 3173 C 295.072 -1.10976 2.05443 0
M  V30 3174 C 296.053 -1.41482 0.944284 0
M  V30 3175 O 297.238 -1.51428 1.21586 0
M  V30 3176 C 294.368 -2.42831 2.48295 0
M  V30 3177 C 293.322 -2.26721 3.63018 0
M  V30 3178 C 292.648 -3.63796 3.91863 0
M  V30 3179 C 293.948 -1.7037 4.93732 0
M  V30 3180 H 295.642 -0.709564 2.9087 0
M  V30 3181 H 293.188 -0.339874 1.39932 0
M  V30 3182 H 295.141 -3.14431 2.80555 0
M  V30 3183 H 293.865 -2.84795 1.59873 0
M  V30 3184 H 292.524 -1.57565 3.31012 0
M  V30 3185 H 292.172 -4.03297 3.00601 0
M  V30 3186 H 291.872 -3.53861 4.69101 0
M  V30 3187 H 293.396 -4.36855 4.26603 0
M  V30 3188 H 294.81 -2.31816 5.24342 0
M  V30 3189 H 293.207 -1.71181 5.75167 0
M  V30 3190 H 294.277 -0.663542 4.80339 0
M  V30 3191 N 295.62 -1.53406 -0.361157 0
M  V30 3192 C 296.55 -1.83136 -1.44857 0
M  V30 3193 C 297.531 -0.685174 -1.5569 0
M  V30 3194 O 298.716 -0.93544 -1.70186 0
M  V30 3195 C 295.846 -2.02522 -2.82138 0
M  V30 3196 C 294.8 -3.18302 -2.86126 0
M  V30 3197 C 294.126 -3.22989 -4.26125 0
M  V30 3198 C 295.426 -4.56796 -2.53248 0
M  V30 3199 H 297.12 -2.74201 -1.20226 0
M  V30 3200 H 294.666 -1.31938 -0.576922 0
M  V30 3201 H 296.619 -2.21904 -3.58241 0
M  V30 3202 H 295.343 -1.08172 -3.08166 0
M  V30 3203 H 294.002 -2.98747 -2.12475 0
M  V30 3204 H 293.65 -2.26267 -4.49235 0
M  V30 3205 H 293.35 -4.00781 -4.29708 0
M  V30 3206 H 294.874 -3.44559 -5.04094 0
M  V30 3207 H 296.288 -4.7631 -3.19064 0
M  V30 3208 H 294.685 -5.36862 -2.68141 0
M  V30 3209 H 295.755 -4.61606 -1.48484 0
M  V30 3210 N 297.098 0.621204 -1.44841 0
M  V30 3211 C 298.031 1.7459 -1.46947 0
M  V30 3212 C 299.009 1.59273 -0.327238 0
M  V30 3213 O 300.193 1.81021 -0.525706 0
M  V30 3214 C 297.32 3.12274 -1.31159 0
M  V30 3215 C 296.366 3.46216 -2.49072 0
M  V30 3216 S 297.199 3.4258 -4.11581 0
M  V30 3217 C 298.355 4.82867 -3.98233 0
M  V30 3218 H 298.588 1.72538 -2.42111 0
M  V30 3219 H 296.121 0.796683 -1.32259 0
M  V30 3220 H 298.079 3.91722 -1.22737 0
M  V30 3221 H 296.74 3.11855 -0.374885 0
M  V30 3222 H 295.933 4.4643 -2.33915 0
M  V30 3223 H 295.535 2.74253 -2.54286 0
M  V30 3224 H 297.827 5.7234 -3.62537 0
M  V30 3225 H 298.77 5.0308 -4.98313 0
M  V30 3226 H 299.178 4.57908 -3.30121 0
M  V30 3227 N 298.576 1.31904 0.862503 0
M  V30 3228 C 299.539 1.20131 1.95195 0
M  V30 3229 C 300.539 0.126409 1.60302 0
M  V30 3230 O 301.729 0.376234 1.70089 0
M  V30 3231 C 298.861 0.845691 3.30244 0
M  V30 3232 H 300.054 2.16943 2.07064 0
M  V30 3233 H 297.607 1.15622 1.05172 0
M  V30 3234 H 298.342 -0.120957 3.24074 0
M  V30 3235 H 298.127 1.62276 3.56944 0
M  V30 3236 H 299.617 0.787418 4.10109 0
M  V30 3237 N 300.054 -1.07777 1.14986 0
M  V30 3238 C 301.47 -1.32373 0.891596 0
M  V30 3239 C 301.67 -1.9609 -0.463788 0
M  V30 3240 O 300.726 -2.21801 -1.20667 0
M  V30 3241 C 302.039 -2.21905 2.02925 0
M  V30 3242 C 303.587 -2.35367 2.06329 0
M  V30 3243 C 304.062 -3.28245 3.19405 0
M  V30 3244 N 305.553 -3.35824 3.19024 0
M  V30 3245 C 306.288 -4.07739 4.03158 0
M  V30 3246 N 305.784 -4.82306 4.97346 0
M  V30 3247 N 307.577 -4.03635 3.91197 0
M  V30 3248 H 299.728 -0.648039 2.02273 0
M  V30 3249 H 301.991 -0.348149 0.881757 0
M  V30 3250 H 301.697 -1.82342 3.0074 0
M  V30 3251 H 301.571 -3.22407 1.95789 0
M  V30 3252 H 303.958 -2.74186 1.09116 0
M  V30 3253 H 304.039 -1.34585 2.17533 0
M  V30 3254 H 303.683 -2.90146 4.16867 0
M  V30 3255 H 303.613 -4.28971 3.05437 0
M  V30 3256 H 306.104 -2.8267 2.50811 0
M  V30 3257 H 306.417 -5.34661 5.57994 0
M  V30 3258 H 304.762 -4.81337 5.01338 0
M  V30 3259 H 307.953 -3.44491 3.16928 0
M  V30 3260 H 308.126 -4.59417 4.5699 0
M  V30 3261 N 301.532 -0.945985 -1.26051 0
M  V30 3262 C 302.809 -0.513816 -1.88731 0
M  V30 3263 C 303.189 1.00872 -1.8544 0
M  V30 3264 O 302.537 1.8708 -1.312 0
M  V30 3265 C 302.747 -1.08062 -3.31849 0
M  V30 3266 C 304.095 -1.1522 -4.08668 0
M  V30 3267 O 305.119 -1.03155 -3.40936 0
M  V30 3268 O 303.978 -1.34044 -5.29806 0
M  V30 3269 H 301.072 -0.168193 -0.809716 0
M  V30 3270 H 303.618 -1.03886 -1.34186 0
M  V30 3271 H 302.39 -2.1241 -3.2863 0
M  V30 3272 H 302.013 -0.538307 -3.93939 0
M  V30 3273 N 303.011 1.40521 -0.713556 0
M  V30 3274 C 303.921 2.34522 -0.0606667 0
M  V30 3275 C 304.937 1.57193 0.74607 0
M  V30 3276 O 306.113 1.89591 0.679493 0
M  V30 3277 C 303.178 3.36081 0.851491 0
M  V30 3278 C 302.239 4.29286 0.0349339 0
M  V30 3279 C 301.472 5.25994 0.903649 0
M  V30 3280 O 301.695 5.28616 2.14292 0
M  V30 3281 O 300.629 6.00918 0.343723 0
M  V30 3282 H 304.455 2.91968 -0.835972 0
M  V30 3283 H 302.04 1.41681 -0.47402 0
M  V30 3284 H 303.922 3.98369 1.37404 0
M  V30 3285 H 302.597 2.81052 1.60598 0
M  V30 3286 H 301.504 3.70289 -0.532633 0
M  V30 3287 H 302.837 4.87462 -0.681287 0
M  V30 3288 N 304.489 0.459591 1.5075 0
M  V30 3289 C 305.421 -0.37665 2.26084 0
M  V30 3290 C 306.434 -0.967109 1.30961 0
M  V30 3291 O 307.623 -0.857468 1.56556 0
M  V30 3292 C 304.723 -1.54112 3.01832 0
M  V30 3293 C 303.896 -1.06553 4.24223 0
M  V30 3294 C 302.955 -2.1027 4.82362 0
M  V30 3295 O 301.981 -1.68798 5.43595 0
M  V30 3296 N 303.183 -3.42974 4.68347 0
M  V30 3297 H 305.948 0.269124 2.98489 0
M  V30 3298 H 303.509 0.28972 1.59287 0
M  V30 3299 H 305.501 -2.23165 3.37608 0
M  V30 3300 H 304.071 -2.0918 2.32298 0
M  V30 3301 H 303.291 -0.201274 3.93686 0
M  V30 3302 H 304.579 -0.725516 5.03601 0
M  V30 3303 H 303.977 -3.79385 4.19623 0
M  V30 3304 H 302.534 -4.07858 5.08424 0
M  V30 3305 N 305.967 -1.56429 0.191757 0
M  V30 3306 C 307.244 -1.89224 -0.495332 0
M  V30 3307 C 307.624 -1.10478 -1.79883 0
M  V30 3308 O 306.972 -0.204852 -2.2758 0
M  V30 3309 C 307.182 -3.41548 -0.717367 0
M  V30 3310 C 308.53 -4.11711 -1.03823 0
M  V30 3311 O 309.554 -3.4698 -0.805204 0
M  V30 3312 O 308.413 -5.2611 -1.47887 0
M  V30 3313 H 305.507 -0.785788 -0.25781 0
M  V30 3314 H 308.053 -1.68111 0.231721 0
M  V30 3315 H 306.825 -3.90772 0.203287 0
M  V30 3316 H 306.448 -3.68342 -1.497 0
M  V30 3317 N 307.445 0.0818655 -1.57387 0
M  V30 3318 C 308.722 0.815343 -1.77796 0
M  V30 3319 C 309.102 1.96289 -0.77679 0
M  V30 3320 O 308.45 2.27691 0.192106 0
M  V30 3321 C 308.66 1.29765 -3.23978 0
M  V30 3322 C 310.008 1.7351 -3.8753 0
M  V30 3323 O 311.032 1.39356 -3.27808 0
M  V30 3324 O 309.891 2.36708 -4.92576 0
M  V30 3325 H 306.985 0.389914 -0.729312 0
M  V30 3326 H 309.531 0.0627213 -1.69584 0
M  V30 3327 H 308.303 0.47608 -3.88393 0
M  V30 3328 H 307.926 2.11189 -3.36875 0
M  V30 3329 N 308.923 1.53595 0.353017 0
M  V30 3330 C 310.334 1.61937 0.929153 0
M  V30 3331 C 310.685 0.494686 1.89861 0
M  V30 3332 O 309.81 -0.377017 2.1309 0
M  V30 3333 C 310.405 2.93526 1.69199 0
M  V30 3334 C 308.964 3.04161 2.21727 0
M  V30 3335 C 308.111 2.57322 1.03348 0
M  V30 3336 H 311.062 1.58155 0.131431 0
M  V30 3337 H 311.083 2.82034 2.55416 0
M  V30 3338 H 310.595 3.75362 0.986144 0
M  V30 3339 H 308.696 2.26938 2.95516 0
M  V30 3340 H 308.809 4.09465 2.48748 0
M  V30 3341 H 307.173 2.12499 1.40414 0
M  V30 3342 H 307.956 3.41588 0.342428 0
M  V30 3343 N 310.401 -0.613514 1.45168 0
M  V30 3344 C 311.331 -1.7354 1.56225 0
M  V30 3345 C 312.312 -1.64981 0.41414 0
M  V30 3346 O 313.497 -1.83472 0.636526 0
M  V30 3347 C 310.627 -3.12128 1.52295 0
M  V30 3348 C 309.581 -3.35491 2.65762 0
M  V30 3349 C 308.907 -4.74291 2.46885 0
M  V30 3350 C 310.207 -3.26325 4.0781 0
M  V30 3351 H 311.901 -1.64543 2.50132 0
M  V30 3352 H 309.447 -0.790185 1.20383 0
M  V30 3353 H 311.4 -3.90404 1.58628 0
M  V30 3354 H 310.124 -3.2195 0.549139 0
M  V30 3355 H 308.783 -2.59603 2.58847 0
M  V30 3356 H 308.431 -4.80839 1.47657 0
M  V30 3357 H 308.131 -4.9088 3.22972 0
M  V30 3358 H 309.655 -5.54775 2.55063 0
M  V30 3359 H 311.069 -3.94483 4.16 0
M  V30 3360 H 309.466 -3.54445 4.8424 0
M  V30 3361 H 310.536 -2.23855 4.30136 0
M  V30 3362 N 311.879 -1.3236 -0.855495 0
M  V30 3363 C 312.827 -1.2118 -1.9854 0
M  V30 3364 C 313.821 -0.116788 -1.68997 0
M  V30 3365 O 315.027 -0.279657 -1.77814 0
M  V30 3366 H 311.402 -0.375608 -0.651477 0
M  V30 3367 H 313.373 -2.16743 -2.05098 0
M  V30 3368 C 312.122 -0.950849 -3.34446 0
M  V30 3369 H 311.445 -1.78563 -3.57708 0
M  V30 3370 H 312.885 -0.912863 -4.14057 0
M  V30 3371 C 311.344 0.346404 -3.35114 0
M  V30 3372 O 311.874 1.35855 -3.7803 0
M  V30 3373 N 310.08 0.36808 -2.88259 0
M  V30 3374 H 309.627 -0.456102 -2.5353 0
M  V30 3375 H 309.585 1.23591 -2.89089 0
M  V30 3376 N 313.357 1.07166 -1.15556 0
M  V30 3377 C 314.287 2.16403 -0.877046 0
M  V30 3378 C 315.268 1.69217 0.173111 0
M  V30 3379 O 316.453 1.94181 0.027084 0
M  V30 3380 C 313.583 3.45349 -0.367632 0
M  V30 3381 C 312.537 4.05995 -1.35468 0
M  V30 3382 C 311.863 5.30045 -0.704038 0
M  V30 3383 C 313.163 4.45804 -2.72132 0
M  V30 3384 H 314.857 2.39959 -1.79053 0
M  V30 3385 H 312.403 1.15325 -0.862331 0
M  V30 3386 H 314.356 4.21095 -0.160317 0
M  V30 3387 H 313.08 3.21385 0.581326 0
M  V30 3388 H 311.739 3.32296 -1.54839 0
M  V30 3389 H 311.387 5.02373 0.251128 0
M  V30 3390 H 311.087 5.71579 -1.36277 0
M  V30 3391 H 312.611 6.08495 -0.50654 0
M  V30 3392 H 314.025 5.12671 -2.56595 0
M  V30 3393 H 312.422 4.98296 -3.34397 0
M  V30 3394 H 313.492 3.57083 -3.28054 0
M  V30 3395 N 314.835 0.952656 1.25548 0
M  V30 3396 C 315.782 0.47008 2.25962 0
M  V30 3397 C 316.752 -0.476384 1.59122 0
M  V30 3398 O 317.937 -0.39007 1.8677 0
M  V30 3399 C 315.077 -0.247881 3.44209 0
M  V30 3400 C 314.19 0.735591 4.25691 0
M  V30 3401 C 313.325 -0.0047306 5.312 0
M  V30 3402 C 312.364 0.969805 6.04368 0
M  V30 3403 N 311.501 0.260486 7.01617 0
M  V30 3404 H 316.341 1.33126 2.66611 0
M  V30 3405 H 313.878 0.66765 1.31076 0
M  V30 3406 H 315.836 -0.680695 4.1161 0
M  V30 3407 H 314.466 -1.07312 3.0444 0
M  V30 3408 H 313.518 1.28689 3.57971 0
M  V30 3409 H 314.83 1.47934 4.76358 0
M  V30 3410 H 313.984 -0.496275 6.04667 0
M  V30 3411 H 312.723 -0.781282 4.81401 0
M  V30 3412 H 311.728 1.47237 5.29718 0
M  V30 3413 H 312.953 1.74655 6.56256 0
M  V30 3414 H 310.899 -0.497364 6.54112 0
M  V30 3415 H 310.816 0.943362 7.50091 0
M  V30 3416 H 312.084 -0.209587 7.79218 0
M  V30 3417 N 316.313 -1.40141 0.720998 0
M  V30 3418 C 317.561 -2.0039 0.262323 0
M  V30 3419 C 317.882 -1.57469 -1.15015 0
M  V30 3420 O 317.152 -0.816582 -1.78069 0
M  V30 3421 H 315.732 -0.741063 0.093996 0
M  V30 3422 H 318.394 -1.71398 0.927835 0
M  V30 3423 H 317.49 -3.10658 0.299671 0
M  V30 3424 N 317.792 -0.46758 -1.50504 0
M  V30 3425 C 319.017 0.0886943 -2.0721 0
M  V30 3426 C 319.442 1.33057 -1.32956 0
M  V30 3427 O 318.8 1.77354 -0.376197 0
M  V30 3428 C 318.848 0.359202 -3.58806 0
M  V30 3429 O 317.952 1.44034 -3.8643 0
M  V30 3430 H 317.293 -0.0114349 -0.663902 0
M  V30 3431 H 319.823 -0.657613 -1.93744 0
M  V30 3432 H 319.833 0.600742 -4.03553 0
M  V30 3433 H 318.508 -0.548311 -4.1227 0
M  V30 3434 H 317.085 1.18638 -3.53524 0
M  V30 3435 N 319.27 1.56325 -0.20005 0
M  V30 3436 C 320.517 1.97719 0.437411 0
M  V30 3437 C 320.845 1.08709 1.61284 0
M  V30 3438 O 320.1 0.127261 1.95286 0
M  V30 3439 C 320.399 3.4495 0.935103 0
M  V30 3440 C 320.065 4.5072 -0.12749 0
M  V30 3441 C 318.727 4.79368 -0.419451 0
M  V30 3442 C 321.079 5.14268 -0.847231 0
M  V30 3443 C 318.407 5.68854 -1.43604 0
M  V30 3444 C 320.759 6.04852 -1.85301 0
M  V30 3445 C 319.423 6.31855 -2.15211 0
M  V30 3446 H 318.693 0.723507 0.16006 0
M  V30 3447 H 321.34 1.89166 -0.298056 0
M  V30 3448 H 319.645 3.50599 1.74894 0
M  V30 3449 H 321.342 3.74337 1.43781 0
M  V30 3450 H 317.932 4.28458 0.11023 0
M  V30 3451 H 322.116 4.92222 -0.634901 0
M  V30 3452 H 317.372 5.88047 -1.67364 0
M  V30 3453 H 321.546 6.53152 -2.41591 0
M  V30 3454 H 319.173 7.00994 -2.94129 0
M  V30 3455 N 320.748 -0.0735177 1.57428 0
M  V30 3456 C 321.711 -1.07192 2.02589 0
M  V30 3457 C 322.711 -1.31695 0.922661 0
M  V30 3458 O 323.901 -1.27445 1.18758 0
M  V30 3459 C 321.033 -2.41599 2.40506 0
M  V30 3460 H 322.226 -0.682727 2.92025 0
M  V30 3461 H 319.779 -0.319193 1.53006 0
M  V30 3462 H 320.514 -2.85354 1.5409 0
M  V30 3463 H 320.299 -2.25156 3.21009 0
M  V30 3464 H 321.789 -3.13367 2.76027 0
M  V30 3465 N 322.226 -1.5378 -0.344866 0
M  V30 3466 C 323.474 -1.70625 -1.08311 0
M  V30 3467 C 323.795 -0.471447 -1.89215 0
M  V30 3468 O 323.065 0.514616 -1.8902 0
M  V30 3469 H 321.645 -0.629058 -0.402859 0
M  V30 3470 H 324.307 -1.9103 -0.386459 0
M  V30 3471 H 323.403 -2.57656 -1.76124 0
M  V30 3472 N 323.704 0.605807 -1.45491 0
M  V30 3473 C 324.667 1.69836 -1.5391 0
M  V30 3474 C 325.667 1.55261 -0.418424 0
M  V30 3475 O 326.857 1.60296 -0.681965 0
M  V30 3476 C 323.989 3.09117 -1.43734 0
M  V30 3477 H 325.182 1.63738 -2.51257 0
M  V30 3478 H 322.735 0.821689 -1.32959 0
M  V30 3479 H 323.47 3.20791 -0.475788 0
M  V30 3480 H 323.255 3.21104 -2.25021 0
M  V30 3481 H 324.745 3.88696 -1.52661 0
M  V30 3482 N 325.182 1.32811 0.848464 0
M  V30 3483 C 326.115 1.16601 1.96162 0
M  V30 3484 C 327.093 0.0638855 1.62474 0
M  V30 3485 O 328.277 0.224348 1.8716 0
M  V30 3486 C 325.404 0.786333 3.29446 0
M  V30 3487 C 324.45 1.89459 3.8211 0
M  V30 3488 S 325.283 3.50395 4.04949 0
M  V30 3489 C 326.439 3.14413 5.41198 0
M  V30 3490 H 326.672 2.10832 2.09612 0
M  V30 3491 H 324.205 1.17543 1.00115 0
M  V30 3492 H 326.163 0.574044 4.06466 0
M  V30 3493 H 324.824 -0.137218 3.138 0
M  V30 3494 H 324.017 1.58207 4.78526 0
M  V30 3495 H 323.619 2.06304 3.11953 0
M  V30 3496 H 325.911 2.64642 6.23675 0
M  V30 3497 H 326.854 4.09874 5.77416 0
M  V30 3498 H 327.262 2.51266 5.05495 0
M  V30 3499 N 326.66 -1.06551 1.16123 0
M  V30 3500 C 327.908 -1.78947 0.939267 0
M  V30 3501 C 328.229 -1.87532 -0.534476 0
M  V30 3502 O 327.499 -1.38211 -1.38833 0
M  V30 3503 H 326.079 -0.662807 0.344523 0
M  V30 3504 H 328.741 -1.28725 1.46342 0
M  V30 3505 H 327.837 -2.81117 1.35572 0
M  V30 3506 N 328.138 -0.959301 -1.25041 0
M  V30 3507 C 329.368 -0.63303 -1.96663 0
M  V30 3508 C 329.776 0.800031 -1.71453 0
M  V30 3509 O 329.119 1.54736 -0.99008 0
M  V30 3510 C 329.181 -0.817523 -3.50081 0
M  V30 3511 C 328.845 -2.22863 -3.98975 0
M  V30 3512 C 329.842 -3.20569 -4.09306 0
M  V30 3513 C 327.527 -2.55407 -4.32519 0
M  V30 3514 C 329.521 -4.4891 -4.52503 0
M  V30 3515 C 327.208 -3.83976 -4.754 0
M  V30 3516 C 328.206 -4.8054 -4.85356 0
M  V30 3517 O 327.894 -6.06817 -5.27284 0
M  V30 3518 H 327.626 -0.235866 -0.633516 0
M  V30 3519 H 330.18 -1.2874 -1.60047 0
M  V30 3520 H 328.41 -0.105992 -3.86555 0
M  V30 3521 H 330.099 -0.491604 -4.02912 0
M  V30 3522 H 330.865 -2.96753 -3.83618 0
M  V30 3523 H 326.744 -1.8097 -4.23994 0
M  V30 3524 H 330.288 -5.24283 -4.60188 0
M  V30 3525 H 326.185 -4.07596 -5.00535 0
M  V30 3526 H 326.953 -6.10262 -5.45457 0
M  V30 3527 N 329.616 1.39756 -0.72842 0
M  V30 3528 C 330.864 2.00248 -0.272946 0
M  V30 3529 C 331.185 1.58077 1.14178 0
M  V30 3530 O 330.455 0.826014 1.77634 0
M  V30 3531 H 329.035 0.740554 -0.0979247 0
M  V30 3532 H 331.697 1.70903 -0.936912 0
M  V30 3533 H 330.793 3.10495 -0.316142 0
M  V30 3534 N 331.094 0.475555 1.50254 0
M  V30 3535 C 332.026 -0.352649 2.26471 0
M  V30 3536 C 333.039 -0.953165 1.3198 0
M  V30 3537 O 334.228 -0.840815 1.57457 0
M  V30 3538 C 331.328 -1.50902 3.0345 0
M  V30 3539 C 330.501 -1.02047 4.25329 0
M  V30 3540 C 329.56 -2.05142 4.84565 0
M  V30 3541 O 328.586 -1.63023 5.45355 0
M  V30 3542 N 329.788 -3.37987 4.71959 0
M  V30 3543 H 332.553 0.300767 2.98187 0
M  V30 3544 H 330.114 0.306598 1.5897 0
M  V30 3545 H 332.106 -2.19572 3.39956 0
M  V30 3546 H 330.676 -2.06705 2.34504 0
M  V30 3547 H 329.896 -0.159507 3.93877 0
M  V30 3548 H 331.184 -0.672061 5.04342 0
M  V30 3549 H 330.582 -3.74913 4.23623 0
M  V30 3550 H 329.139 -4.02443 5.12721 0
M  V30 3551 N 332.573 -1.56217 0.208337 0
M  V30 3552 C 333.82 -1.97949 -0.42692 0
M  V30 3553 C 334.148 -1.09562 -1.60706 0
M  V30 3554 O 333.403 -0.137616 -1.95216 0
M  V30 3555 C 333.702 -3.45441 -0.916797 0
M  V30 3556 C 333.368 -4.50646 0.151391 0
M  V30 3557 C 332.03 -4.79139 0.444867 0
M  V30 3558 C 334.382 -5.13811 0.874492 0
M  V30 3559 C 331.71 -5.68084 1.46619 0
M  V30 3560 C 334.062 -6.03861 1.88506 0
M  V30 3561 C 332.726 -6.30704 2.18559 0
M  V30 3562 H 331.996 -0.724345 -0.156221 0
M  V30 3563 H 334.643 -1.89006 0.308084 0
M  V30 3564 H 332.948 -3.51521 -1.73032 0
M  V30 3565 H 334.645 -3.75094 -1.41794 0
M  V30 3566 H 331.235 -4.28511 -0.0875068 0
M  V30 3567 H 335.419 -4.91879 0.660996 0
M  V30 3568 H 330.675 -5.87151 1.7048 0
M  V30 3569 H 334.849 -6.51861 2.45051 0
M  V30 3570 H 332.476 -6.99424 2.97843 0
M  V30 3571 N 334.051 0.0651679 -1.57465 0
M  V30 3572 C 334.984 1.10876 -1.99453 0
M  V30 3573 C 335.962 1.37205 -0.872555 0
M  V30 3574 O 337.146 1.50468 -1.13542 0
M  V30 3575 C 334.273 2.45167 -2.3369 0
M  V30 3576 C 333.319 2.3493 -3.55964 0
M  V30 3577 S 334.152 1.73708 -5.06543 0
M  V30 3578 C 335.308 3.09563 -5.43987 0
M  V30 3579 H 335.541 0.750967 -2.87659 0
M  V30 3580 H 333.074 0.273933 -1.51951 0
M  V30 3581 H 335.032 3.22412 -2.54088 0
M  V30 3582 H 333.693 2.78105 -1.46001 0
M  V30 3583 H 332.886 3.3398 -3.77457 0
M  V30 3584 H 332.488 1.65823 -3.3523 0
M  V30 3585 H 334.78 4.05882 -5.42463 0
M  V30 3586 H 335.723 2.92843 -6.44708 0
M  V30 3587 H 336.131 3.10474 -4.71451 0
M  V30 3588 N 335.529 1.53961 0.336706 0
M  V30 3589 C 336.94 1.62914 0.911925 0
M  V30 3590 C 337.291 0.514795 1.89326 0
M  V30 3591 O 336.416 -0.354395 2.13478 0
M  V30 3592 C 337.011 2.95304 1.66076 0
M  V30 3593 C 335.57 3.06496 2.18489 0
M  V30 3594 C 334.717 2.58403 1.00613 0
M  V30 3595 H 337.668 1.58285 0.114649 0
M  V30 3596 H 337.689 2.84727 2.5241 0
M  V30 3597 H 337.201 3.76387 0.946276 0
M  V30 3598 H 335.302 2.3006 2.93092 0
M  V30 3599 H 335.415 4.1208 2.44391 0
M  V30 3600 H 333.779 2.13977 1.38152 0
M  V30 3601 H 334.562 3.41932 0.306179 0
M  V30 3602 N 337.007 -0.598083 1.45811 0
M  V30 3603 C 338.232 -1.3881 1.54099 0
M  V30 3604 C 338.657 -1.8726 0.177578 0
M  V30 3605 O 338.015 -1.6069 -0.839541 0
M  V30 3606 C 338.063 -2.56217 2.53743 0
M  V30 3607 O 337.167 -3.5716 2.06182 0
M  V30 3608 H 336.508 -0.414024 0.519115 0
M  V30 3609 H 339.038 -0.726971 1.91249 0
M  V30 3610 H 339.048 -3.03337 2.72856 0
M  V30 3611 H 337.723 -2.20303 3.5276 0
M  V30 3612 H 336.3 -3.16624 1.96987 0
M  V30 3613 N 338.485 -1.33259 -0.841409 0
M  V30 3614 C 339.71 -1.2775 -1.63385 0
M  V30 3615 C 340.135 0.149188 -1.87507 0
M  V30 3616 O 339.493 1.10498 -1.43736 0
M  V30 3617 C 339.541 -2.05571 -2.96265 0
M  V30 3618 O 338.645 -1.41257 -3.87453 0
M  V30 3619 H 337.986 -0.439627 -0.497618 0
M  V30 3620 H 340.516 -1.75782 -1.04699 0
M  V30 3621 H 340.526 -2.16241 -3.45982 0
M  V30 3622 H 339.201 -3.09309 -2.7803 0
M  V30 3623 H 337.778 -1.39217 -3.45938 0
M  V30 3624 N 339.963 1.05934 -1.16686 0
M  V30 3625 C 341.193 1.82226 -0.973515 0
M  V30 3626 C 341.601 1.8297 0.481532 0
M  V30 3627 O 340.944 1.25009 1.34604 0
M  V30 3628 C 341.006 3.29897 -1.42858 0
M  V30 3629 C 340.67 3.52849 -2.90425 0
M  V30 3630 C 341.667 3.45595 -3.88407 0
M  V30 3631 C 339.352 3.80053 -3.28428 0
M  V30 3632 C 341.346 3.65217 -5.22394 0
M  V30 3633 C 339.033 3.99325 -4.62583 0
M  V30 3634 C 340.031 3.91905 -5.59374 0
M  V30 3635 O 339.719 4.10647 -6.91104 0
M  V30 3636 H 339.451 0.581314 -0.345036 0
M  V30 3637 H 342.005 1.3453 -1.55212 0
M  V30 3638 H 340.235 3.78472 -0.793477 0
M  V30 3639 H 341.924 3.87692 -1.20207 0
M  V30 3640 H 342.69 3.24564 -3.60393 0
M  V30 3641 H 338.569 3.84936 -2.53664 0
M  V30 3642 H 342.113 3.59341 -5.9793 0
M  V30 3643 H 338.01 4.19846 -4.90306 0
M  V30 3644 H 338.778 4.27915 -6.97733 0
M  V30 3645 N 341.441 0.965919 1.2453 0
M  V30 3646 C 342.388 0.49402 2.25451 0
M  V30 3647 C 343.358 -0.45948 1.59618 0
M  V30 3648 O 344.543 -0.370238 1.87173 0
M  V30 3649 C 341.683 -0.211359 3.44452 0
M  V30 3650 C 340.796 0.7807 4.24887 0
M  V30 3651 C 339.931 0.0516105 5.31175 0
M  V30 3652 C 338.97 1.03385 6.03306 0
M  V30 3653 N 338.107 0.334887 7.01301 0
M  V30 3654 H 342.947 1.35946 2.65184 0
M  V30 3655 H 340.484 0.681515 1.3036 0
M  V30 3656 H 342.442 -0.637 4.12308 0
M  V30 3657 H 341.072 -1.04077 3.05562 0
M  V30 3658 H 340.124 1.32479 3.56586 0
M  V30 3659 H 341.436 1.52978 4.74762 0
M  V30 3660 H 340.59 -0.432114 6.05159 0
M  V30 3661 H 339.329 -0.730179 4.82203 0
M  V30 3662 H 338.334 1.52847 5.28127 0
M  V30 3663 H 339.559 1.81606 6.54367 0
M  V30 3664 H 337.505 -0.427959 6.54603 0
M  V30 3665 H 337.422 1.02287 7.49048 0
M  V30 3666 H 338.69 -0.126928 7.79397 0
M  V30 3667 N 342.919 -1.39368 0.735821 0
M  V30 3668 C 343.851 -2.2913 0.0567723 0
M  V30 3669 C 344.864 -1.46859 -0.702589 0
M  V30 3670 O 346.053 -1.69925 -0.546616 0
M  V30 3671 C 343.153 -3.25492 -0.943823 0
M  V30 3672 C 342.326 -4.36709 -0.24581 0
M  V30 3673 C 341.385 -5.13376 -1.15463 0
M  V30 3674 O 340.411 -5.65683 -0.631803 0
M  V30 3675 N 341.613 -5.24656 -2.48427 0
M  V30 3676 H 344.378 -2.88047 0.827582 0
M  V30 3677 H 341.939 -1.50957 0.585112 0
M  V30 3678 H 343.931 -3.73657 -1.55443 0
M  V30 3679 H 342.501 -2.676 -1.61583 0
M  V30 3680 H 341.721 -3.9041 0.545286 0
M  V30 3681 H 343.009 -5.08244 0.237891 0
M  V30 3682 H 342.407 -4.83679 -2.93379 0
M  V30 3683 H 340.964 -5.76258 -3.04582 0
M  V30 3684 N 344.397 -0.483516 -1.5 0
M  V30 3685 C 345.627 0.0643896 -2.065 0
M  V30 3686 C 346.035 1.32949 -1.34615 0
M  V30 3687 O 345.378 1.79003 -0.412756 0
M  V30 3688 C 345.44 0.405983 -3.572 0
M  V30 3689 C 345.104 -0.758875 -4.50655 0
M  V30 3690 C 346.101 -1.64445 -4.93208 0
M  V30 3691 C 343.786 -0.952725 -4.93182 0
M  V30 3692 C 345.78 -2.70818 -5.77006 0
M  V30 3693 C 343.467 -2.01966 -5.76761 0
M  V30 3694 C 344.465 -2.89574 -6.18576 0
M  V30 3695 O 344.153 -3.94429 -7.00486 0
M  V30 3696 H 343.885 -0.00934786 -0.675935 0
M  V30 3697 H 346.439 -0.674959 -1.93993 0
M  V30 3698 H 344.669 1.19869 -3.67652 0
M  V30 3699 H 346.358 0.890433 -3.96013 0
M  V30 3700 H 347.124 -1.50643 -4.61012 0
M  V30 3701 H 343.003 -0.280247 -4.60147 0
M  V30 3702 H 346.547 -3.3923 -6.09565 0
M  V30 3703 H 342.444 -2.1577 -6.0837 0
M  V30 3704 H 343.212 -3.91568 -7.1876 0
M  V30 3705 N 345.875 1.56104 -0.216619 0
M  V30 3706 C 346.838 2.18819 0.681962 0
M  V30 3707 C 347.838 1.14866 1.12528 0
M  V30 3708 O 349.028 1.40128 1.03488 0
M  V30 3709 C 346.16 2.80756 1.93362 0
M  V30 3710 H 347.353 2.99595 0.135254 0
M  V30 3711 H 344.906 1.56265 0.0330003 0
M  V30 3712 H 345.641 2.03837 2.52232 0
M  V30 3713 H 345.426 3.56876 1.62426 0
M  V30 3714 H 346.916 3.28844 2.57393 0
M  V30 3715 N 347.353 -0.0568162 1.57498 0
M  V30 3716 C 348.599 -0.75422 1.88253 0
M  V30 3717 C 348.932 -1.76461 0.810865 0
M  V30 3718 O 348.207 -1.93691 -0.177259 0
M  V30 3719 C 348.49 -1.44878 3.2967 0
M  V30 3720 C 348.343 -0.453789 4.47505 0
M  V30 3721 C 349.662 -2.38994 3.69554 0
M  V30 3722 H 346.781 -0.272724 0.684683 0
M  V30 3723 H 349.423 -0.0172113 1.89992 0
M  V30 3724 H 347.573 -2.077 3.28318 0
M  V30 3725 H 349.245 0.170371 4.60985 0
M  V30 3726 H 347.488 0.229552 4.33192 0
M  V30 3727 H 348.159 -0.977699 5.43273 0
M  V30 3728 H 350.635 -1.86239 3.72095 0
M  V30 3729 H 349.511 -2.84587 4.69363 0
M  V30 3730 H 349.772 -3.24461 3.00296 0
M  V30 3731 N 348.832 -1.54138 -0.328536 0
M  V30 3732 C 350.109 -1.62749 -1.08499 0
M  V30 3733 C 350.489 -0.458198 -2.06067 0
M  V30 3734 O 349.837 0.548046 -2.2183 0
M  V30 3735 C 350.047 -2.99519 -1.79135 0
M  V30 3736 C 351.395 -3.55394 -2.32337 0
M  V30 3737 O 352.419 -3.01792 -1.89209 0
M  V30 3738 O 351.278 -4.49186 -3.11279 0
M  V30 3739 H 348.372 -0.65886 -0.499832 0
M  V30 3740 H 350.918 -1.66484 -0.328826 0
M  V30 3741 H 349.69 -3.76061 -1.08139 0
M  V30 3742 H 349.313 -2.99441 -2.61574 0
M  V30 3743 N 350.31 0.590341 -1.46126 0
M  V30 3744 C 351.557 1.34882 -1.5104 0
M  V30 3745 C 351.885 1.93849 -0.159021 0
M  V30 3746 O 351.14 1.76544 0.844436 0
M  V30 3747 C 351.439 2.5032 -2.55097 0
M  V30 3748 C 351.105 2.09394 -3.99331 0
M  V30 3749 C 349.767 1.97947 -4.38601 0
M  V30 3750 C 352.119 1.77712 -4.89967 0
M  V30 3751 C 349.447 1.53065 -5.66381 0
M  V30 3752 C 351.799 1.34312 -6.18177 0
M  V30 3753 C 350.463 1.21436 -6.56361 0
M  V30 3754 H 349.733 0.493568 -0.552695 0
M  V30 3755 H 352.38 0.665539 -1.79563 0
M  V30 3756 H 350.685 3.24062 -2.20207 0
M  V30 3757 H 352.382 3.08541 -2.56132 0
M  V30 3758 H 348.972 2.19235 -3.68285 0
M  V30 3759 H 353.156 1.85445 -4.60352 0
M  V30 3760 H 348.412 1.41733 -5.94745 0
M  V30 3761 H 352.586 1.08849 -6.87841 0
M  V30 3762 H 350.213 0.864345 -7.5527 0
M  V30 3763 N 351.788 1.33704 0.83433 0
M  V30 3764 C 353.013 1.28615 1.62705 0
M  V30 3765 C 353.438 -0.139242 1.87584 0
M  V30 3766 O 352.796 -1.09734 1.4432 0
M  V30 3767 C 352.844 2.07139 2.95171 0
M  V30 3768 O 351.948 1.4331 3.86699 0
M  V30 3769 H 351.289 0.44226 0.49528 0
M  V30 3770 H 353.819 1.76335 1.03766 0
M  V30 3771 H 353.829 2.18073 3.44831 0
M  V30 3772 H 352.504 3.10779 2.76386 0
M  V30 3773 H 351.081 1.4105 3.45195 0
M  V30 3774 N 353.266 -1.05314 1.17247 0
M  V30 3775 C 354.514 -1.77941 0.958194 0
M  V30 3776 C 354.835 -1.88089 -0.514556 0
M  V30 3777 O 354.105 -1.39676 -1.37359 0
M  V30 3778 H 352.685 -0.659116 0.351533 0
M  V30 3779 H 355.347 -1.27166 1.47699 0
M  V30 3780 H 354.443 -2.79663 1.38546 0
M  V30 3781 N 354.744 -0.972509 -1.24016 0
M  V30 3782 C 356.021 -0.553733 -1.87598 0
M  V30 3783 C 356.401 0.969158 -1.87538 0
M  V30 3784 O 355.749 1.84255 -1.35139 0
M  V30 3785 C 355.959 -1.15076 -3.29482 0
M  V30 3786 C 357.307 -1.23862 -4.06132 0
M  V30 3787 O 358.331 -1.10363 -3.38672 0
M  V30 3788 O 357.19 -1.45252 -5.26844 0
M  V30 3789 H 354.284 -0.185331 -0.805966 0
M  V30 3790 H 356.83 -1.06709 -1.31952 0
M  V30 3791 H 355.602 -2.19333 -3.2405 0
M  V30 3792 H 355.225 -0.621746 -3.92709 0
M  V30 3793 N 356.222 1.38976 -0.743202 0
M  V30 3794 C 357.47 1.99948 -0.29417 0
M  V30 3795 C 357.791 1.59279 1.12495 0
M  V30 3796 O 357.061 0.844808 1.76748 0
M  V30 3797 H 355.641 0.739473 -0.105774 0
M  V30 3798 H 358.303 1.699 -0.954986 0
M  V30 3799 H 357.399 3.10142 -0.349056 0
M  V30 3800 N 357.7 0.491464 1.49741 0
M  V30 3801 C 358.65 -0.311086 2.25868 0
M  V30 3802 C 359.634 -0.943857 1.30308 0
M  V30 3803 O 360.826 -0.853035 1.55088 0
M  V30 3804 C 357.955 -1.38059 3.14316 0
M  V30 3805 C 357.041 -0.754541 4.17334 0
M  V30 3806 N 357.432 0.137216 5.05614 0
M  V30 3807 C 355.73 -1.01621 4.34269 0
M  V30 3808 C 356.431 0.494614 5.79593 0
M  V30 3809 N 355.407 -0.135169 5.43432 0
M  V30 3810 H 359.209 0.37555 2.91491 0
M  V30 3811 H 356.723 0.306917 1.59473 0
M  V30 3812 H 358.72 -1.96891 3.67477 0
M  V30 3813 H 357.38 -2.06901 2.50244 0
M  V30 3814 H 358.391 0.50741 5.15408 0
M  V30 3815 H 355.068 -1.69808 3.81407 0
M  V30 3816 H 356.458 1.2236 6.60665 0
M  V30 3817 N 359.178 -1.55987 0.224894 0
M  V30 3818 C 360.427 -1.97566 -0.406273 0
M  V30 3819 C 360.74 -1.11569 -1.6066 0
M  V30 3820 O 361.946 -1.43062 -2.3075 0
M  V30 3821 C 360.402 -3.51474 -0.774207 0
M  V30 3822 C 360.01 -4.46179 0.403496 0
M  V30 3823 C 361.754 -4.01758 -1.37079 0
M  V30 3824 C 359.661 -5.91399 0.0129412 0
M  V30 3825 H 358.591 -0.737777 -0.155565 0
M  V30 3826 H 361.242 -1.80659 0.321635 0
M  V30 3827 H 359.624 -3.63994 -1.55963 0
M  V30 3828 H 360.798 -4.45409 1.18101 0
M  V30 3829 H 359.113 -4.06255 0.913536 0
M  V30 3830 H 361.71 -5.07756 -1.67596 0
M  V30 3831 H 362.053 -3.47805 -2.28773 0
M  V30 3832 H 362.586 -3.92475 -0.648733 0
M  V30 3833 H 359.325 -6.49341 0.896451 0
M  V30 3834 H 358.845 -5.95356 -0.728821 0
M  V30 3835 H 360.524 -6.45683 -0.412582 0
M  V30 3836 N 360.656 0.0484629 -1.57525 0
M  V30 3837 C 361.604 1.07359 -2.06341 0
M  V30 3838 C 362.598 1.3865 -0.973269 0
M  V30 3839 O 363.804 1.37783 -1.15827 0
M  V30 3840 H 360.179 0.363662 -0.65822 0
M  V30 3841 H 362.15 0.635916 -2.91545 0
M  V30 3842 C 360.899 2.37198 -2.54229 0
M  V30 3843 H 360.222 2.13977 -3.37719 0
M  V30 3844 H 361.662 3.07319 -2.92115 0
M  V30 3845 C 360.121 3.04805 -1.43511 0
M  V30 3846 O 360.651 3.93848 -0.79034 0
M  V30 3847 N 358.857 2.65811 -1.17444 0
M  V30 3848 H 358.404 1.93488 -1.70059 0
M  V30 3849 H 358.362 3.11366 -0.435737 0
M  V30 3850 N 362.134 1.5431 0.320358 0
M  V30 3851 C 363.064 1.86912 1.3995 0
M  V30 3852 C 364.045 0.726211 1.53819 0
M  V30 3853 O 365.23 0.980233 1.67646 0
M  V30 3854 C 362.36 2.09932 2.7667 0
M  V30 3855 C 361.314 3.25776 2.77586 0
M  V30 3856 C 360.64 3.34173 4.17412 0
M  V30 3857 C 361.94 4.6335 2.41048 0
M  V30 3858 H 363.634 2.77292 1.12914 0
M  V30 3859 H 361.18 1.33421 0.541738 0
M  V30 3860 H 363.133 2.31324 3.52232 0
M  V30 3861 H 361.857 1.16304 3.0519 0
M  V30 3862 H 360.516 3.04276 2.04479 0
M  V30 3863 H 360.164 2.38098 4.43078 0
M  V30 3864 H 359.864 4.12033 4.18931 0
M  V30 3865 H 361.388 3.57803 4.94782 0
M  V30 3866 H 362.802 4.84602 3.06324 0
M  V30 3867 H 361.199 5.43782 2.53813 0
M  V30 3868 H 362.269 4.65381 1.36193 0
M  V30 3869 N 363.613 -0.582584 1.46437 0
M  V30 3870 C 364.859 -1.34064 1.52965 0
M  V30 3871 C 365.214 -1.91566 0.178968 0
M  V30 3872 O 364.507 -1.73526 -0.812365 0
M  V30 3873 C 364.701 -2.48964 2.56421 0
M  V30 3874 C 364.53 -2.02717 4.01417 0
M  V30 3875 C 363.3 -1.87728 4.69134 0
M  V30 3876 C 365.498 -1.58675 4.8921 0
M  V30 3877 N 363.48 -1.35554 5.98747 0
M  V30 3878 C 364.851 -1.18093 6.08649 0
M  V30 3879 C 366.906 -1.46494 4.75861 0
M  V30 3880 C 365.609 -0.665427 7.16215 0
M  V30 3881 C 367.635 -0.96347 5.83499 0
M  V30 3882 C 366.997 -0.567432 7.02111 0
M  V30 3883 H 363.096 -0.483551 0.614575 0
M  V30 3884 H 365.68 -0.663309 1.83053 0
M  V30 3885 H 363.851 -3.1426 2.28244 0
M  V30 3886 H 365.583 -3.15913 2.52944 0
M  V30 3887 H 362.338 -2.09678 4.24655 0
M  V30 3888 H 362.762 -1.11628 6.67734 0
M  V30 3889 H 367.404 -1.75731 3.8455 0
M  V30 3890 H 365.122 -0.360639 8.07295 0
M  V30 3891 H 368.708 -0.873129 5.75211 0
M  V30 3892 H 367.588 -0.185389 7.83981 0
M  V30 3893 N 365.091 -1.34144 -0.827227 0
M  V30 3894 C 366.368 -1.16844 -1.56865 0
M  V30 3895 C 366.748 0.260654 -2.09485 0
M  V30 3896 O 366.096 1.26138 -1.9053 0
M  V30 3897 C 366.306 -2.21939 -2.6934 0
M  V30 3898 C 367.654 -2.56695 -3.3822 0
M  V30 3899 O 368.678 -2.20695 -2.79593 0
M  V30 3900 O 367.537 -3.18518 -4.44082 0
M  V30 3901 H 364.631 -0.452669 -0.692112 0
M  V30 3902 H 367.177 -1.45763 -0.868973 0
M  V30 3903 H 365.949 -3.17882 -2.28182 0
M  V30 3904 H 365.572 -1.94172 -3.46962 0
M  V30 3905 N 366.569 1.04691 -1.17803 0
M  V30 3906 C 367.98 1.59238 -0.974689 0
M  V30 3907 C 368.331 1.90306 0.477292 0
M  V30 3908 O 367.456 1.68846 1.35352 0
M  V30 3909 C 368.051 2.89318 -1.76296 0
M  V30 3910 C 366.61 3.40506 -1.60414 0
M  V30 3911 C 365.757 2.14172 -1.76141 0
M  V30 3912 H 368.708 0.874395 -1.32439 0
M  V30 3913 H 368.729 3.5944 -1.24833 0
M  V30 3914 H 368.241 2.66675 -2.81968 0
M  V30 3915 H 366.342 3.68175 -0.572519 0
M  V30 3916 H 366.455 4.14753 -2.39827 0
M  V30 3917 H 364.819 2.25176 -1.19028 0
M  V30 3918 H 365.602 1.93992 -2.83235 0
M  V30 3919 N 368.047 0.979072 1.23499 0
M  V30 3920 C 369.293 0.648178 1.92163 0
M  V30 3921 C 369.626 -0.816049 1.76222 0
M  V30 3922 O 368.901 -1.58849 1.12237 0
M  V30 3923 C 369.184 1.03773 3.44824 0
M  V30 3924 C 369.037 2.55948 3.69879 0
M  V30 3925 C 370.356 0.580653 4.36253 0
M  V30 3926 H 367.475 0.236952 0.69787 0
M  V30 3927 H 370.117 1.22012 1.45647 0
M  V30 3928 H 368.267 0.551058 3.84572 0
M  V30 3929 H 369.939 3.12179 3.3962 0
M  V30 3930 H 368.182 2.98641 3.14636 0
M  V30 3931 H 368.853 2.78255 4.76737 0
M  V30 3932 H 371.329 0.998465 4.03943 0
M  V30 3933 H 370.205 0.881663 5.41773 0
M  V30 3934 H 370.466 -0.519052 4.39042 0
M  V30 3935 N 369.525 -1.3858 0.750561 0
M  V30 3936 C 370.802 -1.94231 0.231009 0
M  V30 3937 C 371.182 -1.68611 -1.27018 0
M  V30 3938 O 370.53 -1.02296 -2.04323 0
M  V30 3939 C 370.74 -3.44123 0.581428 0
M  V30 3940 C 372.088 -4.2116 0.539389 0
M  V30 3941 O 373.112 -3.52391 0.519541 0
M  V30 3942 O 371.971 -5.43749 0.54765 0
M  V30 3943 H 369.065 -0.825639 0.0474263 0
M  V30 3944 H 371.611 -1.4799 0.830478 0
M  V30 3945 H 370.383 -3.56267 1.61833 0
M  V30 3946 H 370.006 -3.97573 -0.0462047 0
M  V30 3947 N 371.003 -0.499398 -1.49478 0
M  V30 3948 C 371.966 0.268838 -2.27618 0
M  V30 3949 C 372.966 0.895383 -1.33565 0
M  V30 3950 O 374.156 0.760164 -1.56739 0
M  V30 3951 C 371.288 1.38559 -3.11471 0
M  V30 3952 H 372.481 -0.416812 -2.96989 0
M  V30 3953 H 370.034 -0.254313 -1.54217 0
M  V30 3954 H 370.769 2.10544 -2.46661 0
M  V30 3955 H 370.554 0.941797 -3.80621 0
M  V30 3956 H 372.044 1.92678 -3.70493 0
M  V30 3957 N 372.481 1.55866 -0.233164 0
M  V30 3958 C 373.73 1.97779 0.39579 0
M  V30 3959 C 374.043 1.12419 1.60066 0
M  V30 3960 O 375.249 1.44283 2.29988 0
M  V30 3961 C 373.705 3.5188 0.755556 0
M  V30 3962 C 373.313 4.45959 -0.427152 0
M  V30 3963 C 375.057 4.02479 1.34946 0
M  V30 3964 C 372.964 5.91383 -0.0443043 0
M  V30 3965 H 371.894 0.738592 0.15165 0
M  V30 3966 H 374.545 1.80486 -0.331212 0
M  V30 3967 H 372.927 3.64816 1.5403 0
M  V30 3968 H 374.101 4.44776 -1.20462 0
M  V30 3969 H 372.416 4.05765 -0.935068 0
M  V30 3970 H 375.013 5.08637 1.649 0
M  V30 3971 H 375.356 3.49014 2.26925 0
M  V30 3972 H 375.889 3.92813 0.62791 0
M  V30 3973 H 372.628 6.48857 -0.930874 0
M  V30 3974 H 372.148 5.95734 0.697238 0
M  V30 3975 H 373.827 6.45893 0.378334 0
M  V30 3976 N 373.959 -0.0401083 1.57549 0
M  V30 3977 C 375.207 -0.731677 1.8839 0
M  V30 3978 C 375.528 -1.76481 0.829425 0
M  V30 3979 O 374.798 -1.95411 -0.1383 0
M  V30 3980 H 373.378 -0.273225 0.695239 0
M  V30 3981 H 376.04 -0.00867725 1.94898 0
M  V30 3982 H 375.136 -1.22816 2.86919 0
M  V30 3983 N 375.437 -1.54477 -0.31217 0
M  V30 3984 C 376.662 -1.77526 -1.07235 0
M  V30 3985 C 377.087 -0.527775 -1.80544 0
M  V30 3986 O 376.445 0.52121 -1.73646 0
M  V30 3987 C 376.493 -2.97535 -2.03728 0
M  V30 3988 O 375.597 -2.69878 -3.11833 0
M  V30 3989 H 374.938 -0.58792 -0.30862 0
M  V30 3990 H 377.468 -2.01532 -0.352993 0
M  V30 3991 H 377.478 -3.25198 -2.46395 0
M  V30 3992 H 376.153 -3.87996 -1.49774 0
M  V30 3993 H 374.73 -2.53199 -2.7376 0
M  V30 3994 N 376.915 0.57481 -1.46744 0
M  V30 3995 C 378.161 1.3347 -1.52688 0
M  V30 3996 C 378.494 1.93353 -0.181229 0
M  V30 3997 O 377.769 1.76912 0.808237 0
M  V30 3998 C 378.052 2.45811 -2.63152 0
M  V30 3999 C 377.905 1.90912 -4.07275 0
M  V30 4000 C 379.224 3.47822 -2.69644 0
M  V30 4001 H 376.343 0.483935 -0.555856 0
M  V30 4002 H 378.985 0.644968 -1.78718 0
M  V30 4003 H 377.135 3.04646 -2.41088 0
M  V30 4004 H 378.807 1.36473 -4.4065 0
M  V30 4005 H 377.05 1.21691 -4.16382 0
M  V30 4006 H 377.721 2.72042 -4.80309 0
M  V30 4007 H 380.197 2.9888 -2.895 0
M  V30 4008 H 379.073 4.23876 -3.48742 0
M  V30 4009 H 379.334 4.05555 -1.76005 0
M  V30 4010 N 378.394 1.34581 0.820102 0
M  V30 4011 C 379.357 1.2628 1.91275 0
M  V30 4012 C 380.357 0.177344 1.59819 0
M  V30 4013 O 381.547 0.430156 1.68806 0
M  V30 4014 C 378.679 0.950327 3.27386 0
M  V30 4015 H 379.872 2.23421 2.00057 0
M  V30 4016 H 377.425 1.1891 1.0144 0
M  V30 4017 H 378.16 -0.0177938 3.24295 0
M  V30 4018 H 377.945 1.73549 3.51601 0
M  V30 4019 H 379.435 0.917492 4.07396 0
M  V30 4020 N 379.872 -1.04064 1.18357 0
M  V30 4021 C 380.82 -2.14187 0.907007 0
M  V30 4022 C 381.814 -1.68879 -0.132725 0
M  V30 4023 O 383.02 -1.79993 0.0154248 0
M  V30 4024 H 379.395 -0.699585 0.275835 0
M  V30 4025 H 381.366 -2.34711 1.84264 0
M  V30 4026 C 380.115 -3.44785 0.449254 0
M  V30 4027 H 379.438 -3.80058 1.24081 0
M  V30 4028 H 380.878 -4.22974 0.294737 0
M  V30 4029 C 379.337 -3.26391 -0.834909 0
M  V30 4030 O 379.867 -3.53973 -1.89911 0
M  V30 4031 N 378.073 -2.79726 -0.787523 0
M  V30 4032 H 377.62 -2.5748 0.0787347 0
M  V30 4033 H 377.578 -2.67798 -1.64716 0
M  V30 4034 N 381.35 -0.985608 -1.22978 0
M  V30 4035 C 382.58 -0.674603 -1.95276 0
M  V30 4036 C 382.988 0.763483 -1.73111 0
M  V30 4037 O 382.331 1.52601 -1.02268 0
M  V30 4038 C 382.393 -0.891597 -3.48268 0
M  V30 4039 C 382.057 -2.31275 -3.94158 0
M  V30 4040 C 383.054 -3.29179 -4.02415 0
M  V30 4041 C 380.739 -2.64524 -4.27004 0
M  V30 4042 C 382.733 -4.58407 -4.42879 0
M  V30 4043 C 380.42 -3.93974 -4.67149 0
M  V30 4044 C 381.418 -4.90727 -4.75053 0
M  V30 4045 O 381.106 -6.17865 -5.14294 0
M  V30 4046 H 380.838 -0.249251 -0.628371 0
M  V30 4047 H 383.392 -1.32106 -1.5728 0
M  V30 4048 H 381.622 -0.187962 -3.86243 0
M  V30 4049 H 383.311 -0.576957 -4.01779 0
M  V30 4050 H 384.077 -3.04823 -3.77237 0
M  V30 4051 H 379.956 -1.89923 -4.2006 0
M  V30 4052 H 383.5 -5.33926 -4.48964 0
M  V30 4053 H 379.397 -4.18122 -4.91777 0
M  V30 4054 H 380.165 -6.21694 -5.32389 0
M  V30 4055 N 382.828 1.3818 -0.7579 0
M  V30 4056 C 384.075 2.00019 -0.315985 0
M  V30 4057 C 384.403 1.60163 1.10355 0
M  V30 4058 O 383.658 0.83264 1.77103 0
M  V30 4059 C 383.957 3.55252 -0.391218 0
M  V30 4060 C 383.623 4.14834 -1.76702 0
M  V30 4061 C 382.285 4.30821 -2.14353 0
M  V30 4062 C 384.637 4.47658 -2.66931 0
M  V30 4063 C 381.965 4.76928 -3.41696 0
M  V30 4064 C 384.317 4.95184 -3.93669 0
M  V30 4065 C 382.981 5.09377 -4.31383 0
M  V30 4066 H 382.251 0.731923 -0.115627 0
M  V30 4067 H 384.898 1.65161 -0.969223 0
M  V30 4068 H 383.203 3.90273 0.34558 0
M  V30 4069 H 384.9 4.00988 -0.030805 0
M  V30 4070 H 381.49 4.02808 -1.46435 0
M  V30 4071 H 385.674 4.34904 -2.39106 0
M  V30 4072 H 380.93 4.86103 -3.70829 0
M  V30 4073 H 385.104 5.19551 -4.63724 0
M  V30 4074 H 382.731 5.44865 -5.30119 0
M  V30 4075 N 384.306 0.507319 1.49211 0
M  V30 4076 C 385.253 -0.267728 2.29242 0
M  V30 4077 C 386.223 -0.954609 1.35928 0
M  V30 4078 O 387.408 -0.960046 1.64887 0
M  V30 4079 C 384.548 -1.32243 3.18756 0
M  V30 4080 C 383.661 -0.64669 4.27132 0
M  V30 4081 C 382.796 -1.68238 5.03855 0
M  V30 4082 C 381.835 -0.98885 6.0406 0
M  V30 4083 N 380.972 -1.96903 6.73924 0
M  V30 4084 H 385.812 0.420968 2.95012 0
M  V30 4085 H 383.349 0.219443 1.45454 0
M  V30 4086 H 385.307 -1.94599 3.69036 0
M  V30 4087 H 383.937 -1.97981 2.54958 0
M  V30 4088 H 382.989 0.0902926 3.80293 0
M  V30 4089 H 384.301 -0.101058 4.98698 0
M  V30 4090 H 383.455 -2.38081 5.58034 0
M  V30 4091 H 382.194 -2.26187 4.32077 0
M  V30 4092 H 381.199 -0.276222 5.49106 0
M  V30 4093 H 382.424 -0.415767 6.77826 0
M  V30 4094 H 380.37 -2.53803 6.04913 0
M  V30 4095 H 380.287 -1.47423 7.41487 0
M  V30 4096 H 381.555 -2.66015 7.32705 0
M  V30 4097 N 385.784 -1.5574 0.241426 0
M  V30 4098 C 386.747 -2.19877 -0.647063 0
M  V30 4099 C 387.747 -1.16642 -1.10686 0
M  V30 4100 O 388.937 -1.41757 -1.01245 0
M  V30 4101 C 386.069 -2.83797 -1.88871 0
M  V30 4102 H 387.262 -2.99772 -0.087574 0
M  V30 4103 H 384.815 -1.56298 -0.00813574 0
M  V30 4104 H 385.55 -2.07824 -2.48957 0
M  V30 4105 H 385.335 -3.59414 -1.56728 0
M  V30 4106 H 386.825 -3.32898 -2.52129 0
M  V30 4107 N 387.262 0.0317525 -1.57568 0
M  V30 4108 C 388.212 1.04101 -2.02847 0
M  V30 4109 C 389.196 1.3219 -0.917317 0
M  V30 4110 O 390.388 1.31819 -1.18121 0
M  V30 4111 C 387.517 2.34295 -2.5092 0
M  V30 4112 C 386.603 2.09308 -3.68851 0
M  V30 4113 N 386.994 1.5437 -4.81667 0
M  V30 4114 C 385.292 2.39604 -3.76172 0
M  V30 4115 C 385.993 1.45126 -5.63306 0
M  V30 4116 N 384.969 1.92589 -5.08341 0
M  V30 4117 H 388.771 0.610217 -2.87495 0
M  V30 4118 H 386.285 0.238108 -1.60645 0
M  V30 4119 H 388.282 3.07404 -2.81617 0
M  V30 4120 H 386.942 2.78055 -1.67677 0
M  V30 4121 H 387.953 1.22678 -5.03161 0
M  V30 4122 H 384.63 2.86457 -3.03724 0
M  V30 4123 H 386.02 1.03163 -6.63933 0
M  V30 4124 N 388.74 1.54641 0.303973 0
M  V30 4125 C 389.988 1.73437 1.0375 0
M  V30 4126 C 390.309 0.521449 1.87899 0
M  V30 4127 O 389.579 -0.46432 1.90318 0
M  V30 4128 H 388.159 0.639518 0.386039 0
M  V30 4129 H 390.821 1.91988 0.335675 0
M  V30 4130 H 389.917 2.62235 1.69231 0
M  V30 4131 N 390.218 -0.567019 1.47046 0
M  V30 4132 C 391.464 -1.32434 1.54379 0
M  V30 4133 C 391.819 -1.91365 0.199276 0
M  V30 4134 O 391.112 -1.74378 -0.793915 0
M  V30 4135 C 391.306 -2.4623 2.59047 0
M  V30 4136 C 391.135 -1.98448 4.03545 0
M  V30 4137 C 389.905 -1.82741 4.71098 0
M  V30 4138 C 392.103 -1.53477 4.90866 0
M  V30 4139 N 390.085 -1.29196 6.00151 0
M  V30 4140 C 391.456 -1.1163 6.09868 0
M  V30 4141 C 393.511 -1.41438 4.77388 0
M  V30 4142 C 392.214 -0.589425 7.16881 0
M  V30 4143 C 394.24 -0.901528 5.84488 0
M  V30 4144 C 393.602 -0.492932 7.02673 0
M  V30 4145 H 389.701 -0.477005 0.61967 0
M  V30 4146 H 392.285 -0.643856 1.83746 0
M  V30 4147 H 390.456 -3.11821 2.31564 0
M  V30 4148 H 392.188 -3.13213 2.56281 0
M  V30 4149 H 388.943 -2.05162 4.26855 0
M  V30 4150 H 389.367 -1.0454 6.6888 0
M  V30 4151 H 394.009 -1.71643 3.86392 0
M  V30 4152 H 391.727 -0.274994 8.07632 0
M  V30 4153 H 395.313 -0.812071 5.76105 0
M  V30 4154 H 394.193 -0.102227 7.84133 0
M  V30 4155 N 391.696 -1.35014 -0.812953 0
M  V30 4156 C 392.942 -1.2812 -1.57204 0
M  V30 4157 C 393.275 0.145869 -1.93651 0
M  V30 4158 O 392.55 1.0937 -1.60836 0
M  V30 4159 C 392.833 -2.18162 -2.86492 0
M  V30 4160 C 392.686 -3.69454 -2.56561 0
M  V30 4161 C 394.005 -2.07439 -3.88145 0
M  V30 4162 H 391.124 -0.466746 -0.570366 0
M  V30 4163 H 393.766 -1.65357 -0.935783 0
M  V30 4164 H 391.916 -1.86535 -3.40789 0
M  V30 4165 H 393.588 -4.11493 -2.08497 0
M  V30 4166 H 391.831 -3.9005 -1.89851 0
M  V30 4167 H 392.502 -4.27835 -3.48799 0
M  V30 4168 H 394.978 -2.35228 -3.4323 0
M  V30 4169 H 393.854 -2.7265 -4.76396 0
M  V30 4170 H 394.115 -1.05439 -4.29343 0
M  V30 4171 N 393.175 1.03435 -1.18907 0
M  V30 4172 C 394.122 2.11591 -0.921837 0
M  V30 4173 C 395.092 1.65499 0.141226 0
M  V30 4174 O 396.277 1.908 0.000242829 0
M  V30 4175 C 393.417 3.42012 -0.460616 0
M  V30 4176 C 392.53 4.01682 -1.58982 0
M  V30 4177 C 391.665 5.20091 -1.08069 0
M  V30 4178 C 390.704 5.71805 -2.18416 0
M  V30 4179 N 389.841 6.81494 -1.68849 0
M  V30 4180 H 394.681 2.33787 -1.8479 0
M  V30 4181 H 392.218 1.1467 -0.921373 0
M  V30 4182 H 394.176 4.16834 -0.174642 0
M  V30 4183 H 392.806 3.19944 0.428467 0
M  V30 4184 H 391.858 3.24127 -1.99113 0
M  V30 4185 H 393.17 4.36084 -2.4214 0
M  V30 4186 H 392.324 6.02051 -0.749615 0
M  V30 4187 H 391.063 4.87209 -0.218771 0
M  V30 4188 H 390.068 4.88461 -2.5236 0
M  V30 4189 H 391.293 6.06728 -3.05054 0
M  V30 4190 H 389.239 6.50475 -0.849572 0
M  V30 4191 H 389.156 7.14994 -2.45601 0
M  V30 4192 H 390.424 7.67063 -1.38689 0
M  V30 4193 N 394.653 0.992116 1.22453 0
M  V30 4194 C 395.901 0.666215 1.90804 0
M  V30 4195 C 396.222 -0.804152 1.77647 0
M  V30 4196 O 395.492 -1.57629 1.16318 0
M  V30 4197 H 394.072 0.243423 0.706225 0
M  V30 4198 H 396.734 1.25845 1.48825 0
M  V30 4199 H 395.83 0.928069 2.97982 0
M  V30 4200 N 396.131 -1.37776 0.765217 0
M  V30 4201 C 397.408 -1.93975 0.251596 0
M  V30 4202 C 397.788 -1.69949 -1.25222 0
M  V30 4203 O 397.136 -1.04457 -2.03226 0
M  V30 4204 C 397.346 -3.43487 0.617895 0
M  V30 4205 C 398.694 -4.20564 0.584029 0
M  V30 4206 O 399.718 -3.5182 0.556888 0
M  V30 4207 O 398.577 -5.43138 0.605291 0
M  V30 4208 H 395.671 -0.82509 0.0561806 0
M  V30 4209 H 398.217 -1.47101 0.846128 0
M  V30 4210 H 396.989 -3.5453 1.65602 0
M  V30 4211 H 396.612 -3.976 -0.00403411 0
M  V30 4212 N 397.609 -0.515225 -1.4894 0
M  V30 4213 C 398.541 0.292481 -2.27326 0
M  V30 4214 C 399.554 0.917838 -1.3446 0
M  V30 4215 O 400.743 0.798772 -1.5963 0
M  V30 4216 C 397.843 1.42803 -3.07344 0
M  V30 4217 C 397.016 0.907347 -4.27885 0
M  V30 4218 C 396.075 1.92222 -4.89834 0
M  V30 4219 O 395.101 1.48506 -5.49486 0
M  V30 4220 N 396.303 3.25355 -4.80754 0
M  V30 4221 H 399.068 -0.379721 -2.97285 0
M  V30 4222 H 396.629 -0.348638 -1.58102 0
M  V30 4223 H 398.621 2.10481 -3.45658 0
M  V30 4224 H 397.191 2.00414 -2.39902 0
M  V30 4225 H 396.411 0.0550218 -3.94162 0
M  V30 4226 H 397.699 0.538108 -5.05946 0
M  V30 4227 H 397.097 3.6355 -4.33414 0
M  V30 4228 H 395.654 3.88707 -5.23211 0
M  V30 4229 N 399.087 1.5561 -0.249682 0
M  V30 4230 C 400.333 1.99306 0.374841 0
M  V30 4231 C 400.666 1.13767 1.57387 0
M  V30 4232 O 399.941 0.201711 1.93451 0
M  V30 4233 C 400.224 3.51507 0.781986 0
M  V30 4234 C 400.077 4.4781 -0.422629 0
M  V30 4235 C 401.396 4.08884 1.62793 0
M  V30 4236 H 398.515 0.724572 0.134773 0
M  V30 4237 H 401.157 1.86719 -0.351549 0
M  V30 4238 H 399.307 3.62363 1.4009 0
M  V30 4239 H 400.979 4.48931 -1.06108 0
M  V30 4240 H 399.222 4.20518 -1.06524 0
M  V30 4241 H 399.893 5.51919 -0.0943766 0
M  V30 4242 H 402.369 4.01147 1.10547 0
M  V30 4243 H 401.245 5.1564 1.88166 0
M  V30 4244 H 401.506 3.57515 2.60068 0
M  V30 4245 N 400.565 -0.0233959 1.57583 0
M  V30 4246 C 401.528 -1.00693 2.05897 0
M  V30 4247 C 402.528 -1.28693 0.964092 0
M  V30 4248 O 403.718 -1.23602 1.22753 0
M  V30 4249 C 400.85 -2.33825 2.4807 0
M  V30 4250 H 402.043 -0.589476 2.9405 0
M  V30 4251 H 399.596 -0.270354 1.53944 0
M  V30 4252 H 400.331 -2.80307 1.6309 0
M  V30 4253 H 400.116 -2.1483 3.2801 0
M  V30 4254 H 401.606 -3.04426 2.85857 0
M  V30 4255 N 402.043 -1.548 -0.295768 0
M  V30 4256 C 403.289 -1.74588 -1.03184 0
M  V30 4257 C 403.622 -0.532962 -1.86744 0
M  V30 4258 O 402.897 0.469872 -1.88739 0
M  V30 4259 C 403.18 -3.03791 -1.93347 0
M  V30 4260 C 403.033 -4.35392 -1.12933 0
M  V30 4261 C 404.352 -3.28892 -2.92435 0
M  V30 4262 H 401.471 -0.635221 -0.373715 0
M  V30 4263 H 404.113 -1.87519 -0.30606 0
M  V30 4264 H 402.263 -2.92898 -2.55232 0
M  V30 4265 H 403.935 -4.58211 -0.532943 0
M  V30 4266 H 402.178 -4.31642 -0.432168 0
M  V30 4267 H 402.849 -5.22074 -1.79284 0
M  V30 4268 H 405.325 -3.39429 -2.4068 0
M  V30 4269 H 404.201 -4.20603 -3.52682 0
M  V30 4270 H 404.462 -2.47437 -3.6637 0
M  V30 4271 N 403.521 0.559213 -1.47345 0
M  V30 4272 C 404.454 1.68201 -1.5422 0
M  V30 4273 C 405.432 1.57742 -0.394497 0
M  V30 4274 O 406.616 1.78628 -0.60201 0
M  V30 4275 C 403.743 3.0643 -1.44285 0
M  V30 4276 C 402.789 3.3534 -2.63532 0
M  V30 4277 S 403.622 3.24816 -4.25741 0
M  V30 4278 C 404.778 4.65542 -4.18355 0
M  V30 4279 H 405.011 1.62114 -2.49211 0
M  V30 4280 H 402.544 0.739871 -1.35519 0
M  V30 4281 H 404.502 3.86164 -1.3924 0
M  V30 4282 H 403.163 3.09984 -0.506816 0
M  V30 4283 H 402.356 4.36107 -2.52639 0
M  V30 4284 H 401.958 2.63221 -2.65689 0
M  V30 4285 H 404.25 5.56449 -3.86485 0
M  V30 4286 H 405.193 4.81493 -5.19202 0
M  V30 4287 H 405.601 4.43495 -3.49246 0
M  V30 4288 N 404.999 1.35443 0.805782 0
M  V30 4289 C 405.962 1.28301 1.89925 0
M  V30 4290 C 406.962 0.194285 1.59622 0
M  V30 4291 O 408.152 0.448036 1.6834 0
M  V30 4292 C 405.284 0.984997 3.2636 0
M  V30 4293 H 406.477 2.2553 1.97677 0
M  V30 4294 H 404.03 1.19979 1.00173 0
M  V30 4295 H 404.765 0.016603 3.24296 0
M  V30 4296 H 404.55 1.77269 3.4974 0
M  V30 4297 H 406.04 0.960651 4.064 0
M  V30 4298 N 406.477 -1.02803 1.19454 0
M  V30 4299 C 407.425 -2.13213 0.929673 0
M  V30 4300 C 408.419 -1.69011 -0.114806 0
M  V30 4301 O 409.625 -1.79967 0.0345147 0
M  V30 4302 H 406 -0.69662 0.28324 0
M  V30 4303 H 407.971 -2.32744 1.86743 0
M  V30 4304 C 406.72 -3.4429 0.485797 0
M  V30 4305 H 406.043 -3.7872 1.28105 0
M  V30 4306 H 407.483 -4.22638 0.339582 0
M  V30 4307 C 405.942 -3.27258 -0.800244 0
M  V30 4308 O 406.472 -3.55967 -1.86146 0
M  V30 4309 N 404.678 -2.80545 -0.75781 0
M  V30 4310 H 404.225 -2.57382 0.106039 0
M  V30 4311 H 404.183 -2.6953 -1.61867 0
M  V30 4312 N 407.956 -0.998596 -1.21925 0
M  V30 4313 C 409.204 -0.676325 -1.90448 0
M  V30 4314 C 409.525 0.794719 -1.78071 0
M  V30 4315 O 408.795 1.5701 -1.17152 0
M  V30 4316 H 407.375 -0.247165 -0.704925 0
M  V30 4317 H 410.037 -1.26633 -1.48156 0
M  V30 4318 H 409.133 -0.943858 -2.97486 0
M  V30 4319 N 409.434 1.37368 -0.772513 0
M  V30 4320 C 410.366 2.28899 -0.117502 0
M  V30 4321 C 411.379 1.4867 0.663405 0
M  V30 4322 O 412.568 1.71314 0.501372 0
M  V30 4323 C 409.668 3.2788 0.857192 0
M  V30 4324 C 408.841 4.37207 0.129938 0
M  V30 4325 C 407.9 5.16257 1.01811 0
M  V30 4326 O 406.926 5.67159 0.481601 0
M  V30 4327 N 408.128 5.31058 2.3443 0
M  V30 4328 H 410.893 2.85752 -0.903662 0
M  V30 4329 H 408.454 1.49353 -0.62493 0
M  V30 4330 H 410.446 3.77647 1.45482 0
M  V30 4331 H 409.016 2.7179 1.54432 0
M  V30 4332 H 408.236 3.88827 -0.648605 0
M  V30 4333 H 409.524 5.07434 -0.372559 0
M  V30 4334 H 408.922 4.91287 2.80452 0
M  V30 4335 H 407.479 5.84131 2.89197 0
M  V30 4336 N 410.912 0.523116 1.48665 0
M  V30 4337 C 411.875 -0.232592 2.28017 0
M  V30 4338 C 412.875 -0.874021 1.34972 0
M  V30 4339 O 414.065 -0.735132 1.57929 0
M  V30 4340 C 411.197 -1.33586 3.13636 0
M  V30 4341 H 412.39 0.464008 2.96289 0
M  V30 4342 H 409.943 0.278816 1.53793 0
M  V30 4343 H 410.678 -2.06593 2.4998 0
M  V30 4344 H 410.463 -0.881125 3.82071 0
M  V30 4345 H 411.953 -1.86759 3.73511 0
M  V30 4346 N 412.39 -1.55475 0.257931 0
M  V30 4347 C 413.801 -1.8511 -0.243135 0
M  V30 4348 C 414.152 -1.17986 -1.5676 0
M  V30 4349 O 413.277 -0.462102 -2.11409 0
M  V30 4350 C 413.872 -3.35826 -0.447929 0
M  V30 4351 C 412.431 -3.65647 -0.893245 0
M  V30 4352 C 411.578 -2.7729 0.0232965 0
M  V30 4353 H 414.529 -1.51261 0.480199 0
M  V30 4354 H 414.55 -3.58002 -1.28898 0
M  V30 4355 H 414.062 -3.84652 0.516196 0
M  V30 4356 H 412.163 -3.22308 -1.86945 0
M  V30 4357 H 412.276 -4.73312 -0.742469 0
M  V30 4358 H 410.64 -2.49942 -0.490021 0
M  V30 4359 H 411.423 -3.28926 0.982994 0
M  V30 4360 N 413.868 0.0150385 -1.57593 0
M  V30 4361 C 415.116 0.701613 -1.8953 0
M  V30 4362 C 415.437 1.75139 -0.857396 0
M  V30 4363 O 414.707 1.95607 0.107194 0
M  V30 4364 H 413.287 0.26213 -0.699498 0
M  V30 4365 H 415.949 -0.0223304 -1.94887 0
M  V30 4366 H 415.045 1.18236 -2.88837 0
M  V30 4367 N 415.346 1.54954 0.287554 0
M  V30 4368 C 416.276 1.89839 1.35954 0
M  V30 4369 C 417.257 0.758675 1.52244 0
M  V30 4370 O 418.442 1.01557 1.65529 0
M  V30 4371 C 415.572 2.15753 2.72154 0
M  V30 4372 C 414.526 3.3159 2.70614 0
M  V30 4373 C 413.852 3.42952 4.10229 0
M  V30 4374 C 415.152 4.68359 2.31165 0
M  V30 4375 H 416.846 2.79625 1.07007 0
M  V30 4376 H 414.392 1.3454 0.513316 0
M  V30 4377 H 416.345 2.38743 3.47246 0
M  V30 4378 H 415.069 1.22752 3.02654 0
M  V30 4379 H 413.728 3.08545 1.97979 0
M  V30 4380 H 413.376 2.47443 4.37928 0
M  V30 4381 H 413.076 4.20826 4.10097 0
M  V30 4382 H 414.6 3.68218 4.87081 0
M  V30 4383 H 416.014 4.9099 2.95976 0
M  V30 4384 H 414.411 5.49044 2.42221 0
M  V30 4385 H 415.481 4.68165 1.26291 0
M  V30 4386 N 416.824 -0.551391 1.4764 0
M  V30 4387 C 418.235 -1.13349 1.48354 0
M  V30 4388 C 418.586 -1.94709 0.241432 0
M  V30 4389 O 417.711 -2.06306 -0.653205 0
M  V30 4390 C 418.306 -2.0623 2.68802 0
M  V30 4391 C 416.865 -2.597 2.72457 0
M  V30 4392 C 416.012 -1.36201 2.41546 0
M  V30 4393 H 418.963 -0.337698 1.55065 0
M  V30 4394 H 418.984 -2.90196 2.46103 0
M  V30 4395 H 418.496 -1.46987 3.59188 0
M  V30 4396 H 416.597 -3.22724 1.86225 0
M  V30 4397 H 416.71 -3.00296 3.73308 0
M  V30 4398 H 415.074 -1.67068 1.9225 0
M  V30 4399 H 415.857 -0.787425 3.34147 0
M  V30 4400 N 418.302 -1.35869 -0.798587 0
M  V30 4401 C 419.25 -1.29491 -1.93222 0
M  V30 4402 C 420.244 -0.18836 -1.6835 0
M  V30 4403 O 421.45 -0.354822 -1.76468 0
M  V30 4404 H 417.825 -0.402901 -0.63496 0
M  V30 4405 H 419.796 -2.25247 -1.9572 0
M  V30 4406 C 418.545 -1.09184 -3.30112 0
M  V30 4407 H 417.868 -1.93574 -3.49813 0
M  V30 4408 H 419.308 -1.08766 -4.09812 0
M  V30 4409 C 417.767 0.203959 -3.36282 0
M  V30 4410 O 418.297 1.19699 -3.83451 0
M  V30 4411 N 416.503 0.245488 -2.89561 0
M  V30 4412 H 416.05 -0.563223 -2.51367 0
M  V30 4413 H 416.008 1.11219 -2.94071 0
M  V30 4414 N 419.78 1.02168 -1.19998 0
M  V30 4415 C 421.028 1.75338 -1.00504 0
M  V30 4416 C 421.349 1.89387 0.464506 0
M  V30 4417 O 420.619 1.43268 1.33608 0
M  V30 4418 H 419.199 0.649564 -0.368885 0
M  V30 4419 H 421.861 1.23205 -1.51018 0
M  V30 4420 H 420.957 2.75892 -1.45912 0
M  V30 4421 N 421.258 1.00505 1.21394 0
M  V30 4422 C 422.505 0.687774 1.90462 0
M  V30 4423 C 422.833 -0.78147 1.7811 0
M  V30 4424 O 422.088 -1.58208 1.1519 0
M  V30 4425 C 422.387 1.0546 3.41486 0
M  V30 4426 C 422.053 2.51812 3.74034 0
M  V30 4427 C 420.715 2.91804 3.82628 0
M  V30 4428 C 423.067 3.46614 3.8924 0
M  V30 4429 C 420.395 4.2556 4.03876 0
M  V30 4430 C 422.747 4.80044 4.11995 0
M  V30 4431 C 421.411 5.19759 4.18816 0
M  V30 4432 H 420.681 0.251674 0.696951 0
M  V30 4433 H 423.328 1.26349 1.43903 0
M  V30 4434 H 421.633 0.397133 3.89782 0
M  V30 4435 H 423.33 0.786976 3.93202 0
M  V30 4436 H 419.92 2.1982 3.67936 0
M  V30 4437 H 424.104 3.16883 3.81967 0
M  V30 4438 H 419.36 4.55901 4.07387 0
M  V30 4439 H 423.534 5.53439 4.22704 0
M  V30 4440 H 421.161 6.23418 4.35033 0
M  V30 4441 N 422.737 -1.36956 0.779787 0
M  V30 4442 C 423.684 -2.30175 0.169697 0
M  V30 4443 C 424.654 -1.51501 -0.68094 0
M  V30 4444 O 425.839 -1.80042 -0.631629 0
M  V30 4445 C 422.979 -3.37985 -0.697131 0
M  V30 4446 C 422.092 -4.31661 0.170992 0
M  V30 4447 C 421.227 -5.2655 -0.701298 0
M  V30 4448 C 420.266 -6.11867 0.168869 0
M  V30 4449 N 419.403 -6.98973 -0.661855 0
M  V30 4450 H 424.243 -2.81767 0.970135 0
M  V30 4451 H 421.78 -1.38699 0.489994 0
M  V30 4452 H 423.738 -3.99128 -1.2146 0
M  V30 4453 H 422.368 -2.87739 -1.46309 0
M  V30 4454 H 421.42 -3.71756 0.80634 0
M  V30 4455 H 422.732 -4.91644 0.841875 0
M  V30 4456 H 421.886 -5.92937 -1.28494 0
M  V30 4457 H 420.625 -4.66998 -1.40584 0
M  V30 4458 H 419.63 -5.44452 0.764986 0
M  V30 4459 H 420.855 -6.73493 0.870863 0
M  V30 4460 H 418.801 -6.41941 -1.35086 0
M  V30 4461 H 418.718 -7.55984 -0.0484447 0
M  V30 4462 H 419.986 -7.6974 -1.22963 0
M  V30 4463 N 424.215 -0.530993 -1.48385 0
M  V30 4464 C 425.443 -0.00134122 -2.069 0
M  V30 4465 C 425.858 1.2805 -1.3874 0
M  V30 4466 O 425.215 1.76204 -0.475244 0
M  V30 4467 C 425.266 0.225256 -3.60798 0
M  V30 4468 O 424.987 -1.0058 -4.26398 0
M  V30 4469 C 426.488 0.795172 -4.3611 0
M  V30 4470 H 423.708 -0.0339704 -0.67014 0
M  V30 4471 H 426.252 -0.736926 -1.90761 0
M  V30 4472 H 424.407 0.910891 -3.76539 0
M  V30 4473 H 424.821 -0.787165 -5.1856 0
M  V30 4474 H 426.295 0.903143 -5.44562 0
M  V30 4475 H 426.772 1.80031 -4.00606 0
M  V30 4476 H 427.378 0.146069 -4.25049 0
M  V30 4477 N 425.693 1.55336 -0.266172 0
M  V30 4478 C 426.64 2.22172 0.625165 0
M  V30 4479 C 427.61 1.19211 1.15663 0
M  V30 4480 O 428.795 1.47723 1.20758 0
M  V30 4481 C 425.935 2.93972 1.8076 0
M  V30 4482 C 425.048 4.11632 1.31084 0
M  V30 4483 C 424.183 4.71099 2.45436 0
M  V30 4484 C 423.222 5.8097 1.92718 0
M  V30 4485 N 422.359 6.34538 3.00509 0
M  V30 4486 H 427.199 2.9796 0.0485582 0
M  V30 4487 H 424.736 1.47095 0.0122024 0
M  V30 4488 H 426.694 3.33811 2.50251 0
M  V30 4489 H 425.324 2.20623 2.35638 0
M  V30 4490 H 424.376 3.76975 0.509326 0
M  V30 4491 H 425.688 4.90893 0.884633 0
M  V30 4492 H 424.842 5.13612 3.22936 0
M  V30 4493 H 423.581 3.91096 2.91368 0
M  V30 4494 H 422.586 5.37916 1.13695 0
M  V30 4495 H 423.811 6.62836 1.47733 0
M  V30 4496 H 421.757 5.57433 3.45839 0
M  V30 4497 H 421.674 7.09046 2.62279 0
M  V30 4498 H 422.942 6.81709 3.78011 0
M  V30 4499 N 427.171 -0.0066808 1.57599 0
M  V30 4500 C 428.401 -0.703066 1.94269 0
M  V30 4501 C 428.809 -1.68206 0.866222 0
M  V30 4502 O 428.152 -1.82966 -0.164087 0
M  V30 4503 C 428.214 -1.49616 3.26887 0
M  V30 4504 C 427.878 -0.679494 4.5192 0
M  V30 4505 C 428.875 0.0299508 5.19891 0
M  V30 4506 C 426.56 -0.627433 4.98366 0
M  V30 4507 C 428.554 0.780514 6.32603 0
M  V30 4508 C 426.241 0.126861 6.10968 0
M  V30 4509 C 427.239 0.829574 6.77943 0
M  V30 4510 O 426.927 1.57157 7.88389 0
M  V30 4511 H 426.659 -0.201217 0.645359 0
M  V30 4512 H 429.213 0.0385326 2.05364 0
M  V30 4513 H 427.443 -2.28209 3.12182 0
M  V30 4514 H 429.132 -2.07726 3.48719 0
M  V30 4515 H 429.898 -0.00115963 4.85 0
M  V30 4516 H 425.777 -1.16392 4.46065 0
M  V30 4517 H 429.321 1.32954 6.84813 0
M  V30 4518 H 425.218 0.159815 6.45302 0
M  V30 4519 H 425.986 1.48758 8.04868 0
M  V30 4520 N 428.649 -1.55105 -0.279332 0
M  V30 4521 C 429.874 -1.7976 -1.03446 0
M  V30 4522 C 430.299 -0.565952 -1.79384 0
M  V30 4523 O 429.657 0.484259 -1.74713 0
M  V30 4524 C 429.705 -3.0179 -1.97371 0
M  V30 4525 O 428.809 -2.76432 -3.06038 0
M  V30 4526 H 428.15 -0.594334 -0.29608 0
M  V30 4527 H 430.68 -2.02235 -0.310165 0
M  V30 4528 H 430.69 -3.30351 -2.39441 0
M  V30 4529 H 429.365 -3.91085 -1.4151 0
M  V30 4530 H 427.942 -2.58949 -2.68328 0
M  V30 4531 N 430.127 0.543554 -1.4793 0
M  V30 4532 C 431.376 1.29649 -1.54512 0
M  V30 4533 C 431.689 1.94382 -0.217973 0
M  V30 4534 O 432.895 2.71017 -0.161908 0
M  V30 4535 C 431.351 2.35175 -2.72435 0
M  V30 4536 C 430.959 1.76572 -4.11736 0
M  V30 4537 C 432.703 3.11564 -2.8832 0
M  V30 4538 C 430.61 2.79958 -5.20939 0
M  V30 4539 H 429.54 0.487541 -0.57517 0
M  V30 4540 H 432.191 0.575708 -1.74235 0
M  V30 4541 H 430.573 3.10229 -2.46118 0
M  V30 4542 H 431.747 1.07799 -4.48013 0
M  V30 4543 H 430.062 1.12722 -4.00852 0
M  V30 4544 H 432.659 3.88794 -3.67074 0
M  V30 4545 H 433.002 3.66594 -1.97268 0
M  V30 4546 H 433.535 2.43623 -3.14472 0
M  V30 4547 H 430.274 2.29766 -6.13912 0
M  V30 4548 H 429.794 3.47101 -4.89164 0
M  V30 4549 H 431.473 3.43198 -5.48474 0
M  V30 4550 N 431.605 1.3629 0.791371 0
M  V30 4551 C 432.83 1.33726 1.58531 0
M  V30 4552 C 433.255 -0.0794933 1.87932 0
M  V30 4553 O 432.613 -1.05087 1.47738 0
M  V30 4554 C 432.661 2.16425 2.88431 0
M  V30 4555 O 431.765 1.5554 3.81944 0
M  V30 4556 H 431.106 0.457793 0.480959 0
M  V30 4557 H 433.636 1.79547 0.981031 0
M  V30 4558 H 433.646 2.28933 3.37718 0
M  V30 4559 H 432.321 3.19415 2.66359 0
M  V30 4560 H 430.898 1.51961 3.40532 0
M  V30 4561 N 433.083 -1.0153 1.20538 0
M  V30 4562 C 434.015 -2.10224 0.913155 0
M  V30 4563 C 435.028 -1.62495 -0.0995998 0
M  V30 4564 O 436.217 -1.78014 0.131582 0
M  V30 4565 C 433.317 -3.37111 0.347717 0
M  V30 4566 C 432.49 -4.13971 1.41233 0
M  V30 4567 C 431.549 -5.19158 0.857976 0
M  V30 4568 O 430.575 -5.48 1.53897 0
M  V30 4569 N 431.777 -5.7955 -0.331966 0
M  V30 4570 H 434.542 -2.35879 1.84881 0
M  V30 4571 H 432.103 -1.17931 1.10923 0
M  V30 4572 H 434.095 -4.04683 -0.0373026 0
M  V30 4573 H 432.665 -3.08696 -0.492527 0
M  V30 4574 H 431.885 -3.41351 1.97163 0
M  V30 4575 H 433.173 -4.62103 2.12928 0
M  V30 4576 H 432.571 -5.58455 -0.902478 0
M  V30 4577 H 431.128 -6.48464 -0.65861 0
M  V30 4578 N 434.561 -1.01147 -1.20859 0
M  V30 4579 C 435.491 -0.597663 -2.25722 0
M  V30 4580 C 436.472 0.384744 -1.65692 0
M  V30 4581 O 437.657 0.271303 -1.92296 0
M  V30 4582 C 434.787 0.0700149 -3.47229 0
M  V30 4583 C 433.741 -0.832843 -4.19819 0
M  V30 4584 C 433.067 -0.0312202 -5.34691 0
M  V30 4585 C 434.367 -2.1385 -4.76514 0
M  V30 4586 H 436.061 -1.47423 -2.60589 0
M  V30 4587 H 433.607 -0.710301 -1.25263 0
M  V30 4588 H 435.56 0.37103 -4.19763 0
M  V30 4589 H 434.284 0.981259 -3.11511 0
M  V30 4590 H 432.943 -1.11778 -3.49144 0
M  V30 4591 H 432.591 0.881515 -4.95215 0
M  V30 4592 H 432.291 -0.632434 -5.84187 0
M  V30 4593 H 433.815 0.26346 -6.10031 0
M  V30 4594 H 435.229 -1.9002 -5.40893 0
M  V30 4595 H 433.626 -2.69012 -5.36426 0
M  V30 4596 H 434.696 -2.80495 -3.95538 0
M  V30 4597 N 436.039 1.36541 -0.78704 0
M  V30 4598 C 437.002 2.28413 -0.189778 0
M  V30 4599 C 438.002 1.48719 0.611499 0
M  V30 4600 O 439.192 1.68737 0.432842 0
M  V30 4601 C 436.324 3.32824 0.737638 0
M  V30 4602 H 437.517 2.82743 -0.999831 0
M  V30 4603 H 435.07 1.46065 -0.556298 0
M  V30 4604 H 435.805 2.83646 1.57212 0
M  V30 4605 H 435.59 3.91752 0.165044 0
M  V30 4606 H 437.08 4.0144 1.15047 0
M  V30 4607 N 437.518 0.538854 1.48102 0
M  V30 4608 C 438.481 -0.208395 2.28251 0
M  V30 4609 C 439.481 -0.859656 1.35892 0
M  V30 4610 O 440.671 -0.71834 1.58699 0
M  V30 4611 C 437.803 -1.30252 3.15035 0
M  V30 4612 H 438.996 0.495407 2.9578 0
M  V30 4613 H 436.549 0.295112 1.53489 0
M  V30 4614 H 437.284 -2.0393 2.52157 0
M  V30 4615 H 437.069 -0.840551 3.82985 0
M  V30 4616 H 438.559 -1.82787 3.75471 0
M  V30 4617 N 438.996 -1.55193 0.274407 0
M  V30 4618 C 439.959 -2.212 -0.600279 0
M  V30 4619 C 440.959 -1.18963 -1.08187 0
M  V30 4620 O 442.149 -1.43873 -0.982158 0
M  V30 4621 C 439.281 -2.87739 -1.82809 0
M  V30 4622 H 440.474 -2.9989 -0.0239682 0
M  V30 4623 H 438.027 -1.5628 0.0250192 0
M  V30 4624 H 438.762 -2.13058 -2.44493 0
M  V30 4625 H 438.547 -3.62658 -1.49069 0
M  V30 4626 H 440.037 -3.38171 -2.45011 0
M  V30 4627 N 440.474 -0.00167713 -1.576 0
M  V30 4628 C 441.722 0.681471 -1.90264 0
M  V30 4629 C 442.043 1.7422 -0.875924 0
M  V30 4630 O 441.313 1.95709 0.0864412 0
M  V30 4631 H 439.893 0.254696 -0.702239 0
M  V30 4632 H 442.555 -0.0429996 -1.94853 0
M  V30 4633 H 441.651 1.15166 -2.90075 0
M  V30 4634 N 441.952 1.55251 0.271103 0
M  V30 4635 C 442.882 1.9127 1.33933 0
M  V30 4636 C 443.863 0.77478 1.5143 0
M  V30 4637 O 445.048 1.03307 1.64442 0
M  V30 4638 C 442.178 2.18627 2.69851 0
M  V30 4639 C 441.132 3.34442 2.67081 0
M  V30 4640 C 440.458 3.47284 4.06569 0
M  V30 4641 C 441.758 4.70784 2.26185 0
M  V30 4642 H 443.452 2.80744 1.04035 0
M  V30 4643 H 440.998 1.35077 0.499017 0
M  V30 4644 H 442.951 2.42413 3.44694 0
M  V30 4645 H 441.675 1.25955 3.01335 0
M  V30 4646 H 440.334 3.10627 1.94695 0
M  V30 4647 H 439.982 2.52074 4.35279 0
M  V30 4648 H 439.682 4.25152 4.0561 0
M  V30 4649 H 441.206 3.73363 4.83148 0
M  V30 4650 H 442.62 4.94102 2.90751 0
M  V30 4651 H 441.017 5.51582 2.36384 0
M  V30 4652 H 442.087 4.69478 1.21319 0
M  V30 4653 N 443.43 -0.535701 1.48216 0
M  V30 4654 C 444.658 -1.31671 1.59594 0
M  V30 4655 C 445.073 -1.87083 0.254056 0
M  V30 4656 O 444.43 -1.66112 -0.755854 0
M  V30 4657 C 444.481 -2.47158 2.63809 0
M  V30 4658 O 444.202 -1.94032 3.92789 0
M  V30 4659 C 445.703 -3.39062 2.85573 0
M  V30 4660 H 442.923 -0.400623 0.538277 0
M  V30 4661 H 445.467 -0.646827 1.94001 0
M  V30 4662 H 443.622 -3.10043 2.32276 0
M  V30 4663 H 444.036 -2.69585 4.49916 0
M  V30 4664 H 445.51 -4.16459 3.62306 0
M  V30 4665 H 445.987 -3.93941 1.94184 0
M  V30 4666 H 446.593 -2.81975 3.18387 0
M  V30 4667 N 444.908 -1.36708 -0.784132 0
M  V30 4668 C 446.319 -1.27947 -1.35965 0
M  V30 4669 C 446.67 0.0784013 -1.96043 0
M  V30 4670 O 445.795 0.979989 -1.92938 0
M  V30 4671 C 446.39 -2.31689 -2.47195 0
M  V30 4672 C 444.949 -2.26601 -3.00548 0
M  V30 4673 C 444.096 -2.16184 -1.73666 0
M  V30 4674 H 447.047 -1.4751 -0.585358 0
M  V30 4675 H 447.068 -1.95638 -3.26352 0
M  V30 4676 H 446.58 -3.30506 -2.03439 0
M  V30 4677 H 444.681 -1.31268 -3.48711 0
M  V30 4678 H 444.794 -3.19508 -3.57004 0
M  V30 4679 H 443.158 -1.62524 -1.96107 0
M  V30 4680 H 443.941 -3.16896 -1.32031 0
M  V30 4681 N 446.386 1.0089 -1.21074 0
M  V30 4682 C 447.318 2.09737 -0.924291 0
M  V30 4683 C 448.331 1.62546 0.0909809 0
M  V30 4684 O 449.52 1.77942 -0.141021 0
M  V30 4685 C 446.62 3.36922 -0.36559 0
M  V30 4686 C 445.793 4.13216 -1.43426 0
M  V30 4687 C 444.852 5.18696 -0.885496 0
M  V30 4688 O 443.878 5.47176 -1.56801 0
M  V30 4689 N 445.08 5.79718 0.301227 0
M  V30 4690 H 447.845 2.34895 -1.8613 0
M  V30 4691 H 445.406 1.17341 -1.11546 0
M  V30 4692 H 447.398 4.04697 0.0158407 0
M  V30 4693 H 445.968 3.08952 0.476149 0
M  V30 4694 H 445.188 3.40301 -1.9897 0
M  V30 4695 H 446.476 4.60967 -2.15376 0
M  V30 4696 H 445.874 5.58926 0.872849 0
M  V30 4697 H 444.431 6.48804 0.624211 0
M  V30 4698 N 447.864 1.01787 1.20321 0
M  V30 4699 C 448.796 0.547357 2.22568 0
M  V30 4700 C 449.809 -0.370922 1.58518 0
M  V30 4701 O 450.998 -0.169067 1.77698 0
M  V30 4702 C 448.098 -0.223031 3.38165 0
M  V30 4703 C 447.271 0.697472 4.31803 0
M  V30 4704 C 446.33 -0.025562 5.26194 0
M  V30 4705 O 445.356 0.597367 5.66057 0
M  V30 4706 N 446.558 -1.29999 5.65757 0
M  V30 4707 H 449.323 1.42668 2.63564 0
M  V30 4708 H 446.884 0.895552 1.34876 0
M  V30 4709 H 448.876 -0.716002 3.98316 0
M  V30 4710 H 447.446 -1.00366 2.9605 0
M  V30 4711 H 446.666 1.37073 3.69601 0
M  V30 4712 H 447.954 1.32347 4.91286 0
M  V30 4713 H 447.352 -1.827 5.35385 0
M  V30 4714 H 445.909 -1.73766 6.28211 0
M  V30 4715 N 449.342 -1.36122 0.79427 0
M  V30 4716 C 450.753 -1.81646 0.431446 0
M  V30 4717 C 451.104 -1.66043 -1.04518 0
M  V30 4718 O 450.229 -1.1841 -1.8113 0
M  V30 4719 C 450.824 -3.29785 0.776341 0
M  V30 4720 C 449.383 -3.73501 0.466282 0
M  V30 4721 C 448.53 -2.58313 1.00844 0
M  V30 4722 H 451.481 -1.24274 0.986995 0
M  V30 4723 H 451.502 -3.80437 0.0692413 0
M  V30 4724 H 451.014 -3.4111 1.8511 0
M  V30 4725 H 449.115 -3.67733 -0.600245 0
M  V30 4726 H 449.228 -4.68754 0.990288 0
M  V30 4727 H 447.592 -2.5102 0.431406 0
M  V30 4728 H 448.375 -2.72421 2.08906 0
M  V30 4729 N 450.82 -0.546701 -1.47814 0
M  V30 4730 C 451.75 0.195317 -2.32682 0
M  V30 4731 C 452.731 0.918981 -1.43139 0
M  V30 4732 O 453.916 0.901501 -1.72008 0
M  V30 4733 C 451.046 1.23237 -3.247 0
M  V30 4734 C 450 0.625818 -4.234 0
M  V30 4735 C 449.326 1.76674 -5.04669 0
M  V30 4736 C 450.626 -0.413515 -5.2066 0
M  V30 4737 H 452.32 -0.513184 -2.94969 0
M  V30 4738 H 449.866 -0.248241 -1.41844 0
M  V30 4739 H 451.819 1.75955 -3.82907 0
M  V30 4740 H 450.543 1.97067 -2.60446 0
M  V30 4741 H 449.202 0.120023 -3.66403 0
M  V30 4742 H 448.85 2.49383 -4.36826 0
M  V30 4743 H 448.55 1.36673 -5.71484 0
M  V30 4744 H 450.074 2.29738 -5.65732 0
M  V30 4745 H 451.488 0.0272042 -5.73294 0
M  V30 4746 H 449.885 -0.731825 -5.95621 0
M  V30 4747 H 450.955 -1.31325 -4.66778 0
M  V30 4748 N 452.299 1.55045 -0.282633 0
M  V30 4749 C 453.547 1.99365 0.331334 0
M  V30 4750 C 453.868 1.1725 1.55812 0
M  V30 4751 O 453.138 0.263871 1.94115 0
M  V30 4752 H 451.718 0.736397 0.125414 0
M  V30 4753 H 454.38 1.90964 -0.389711 0
M  V30 4754 H 453.476 3.0596 0.616036 0
M  V30 4755 N 453.777 0.010035 1.57597 0
M  V30 4756 C 454.725 -0.996272 2.10184 0
M  V30 4757 C 455.719 -1.34942 1.02406 0
M  V30 4758 O 456.925 -1.33389 1.20861 0
M  V30 4759 H 453.3 -0.338982 0.671264 0
M  V30 4760 H 455.271 -0.527272 2.93705 0
M  V30 4761 C 454.02 -2.27599 2.62857 0
M  V30 4762 H 453.343 -2.01295 3.45428 0
M  V30 4763 H 454.783 -2.96265 3.0332 0
M  V30 4764 C 453.242 -2.99269 1.54725 0
M  V30 4765 O 453.772 -3.90644 0.93597 0
M  V30 4766 N 451.978 -2.61269 1.27228 0
M  V30 4767 H 451.525 -1.87043 1.77123 0
M  V30 4768 H 451.483 -3.09534 0.550999 0
M  V30 4769 N 455.255 -1.55392 -0.262866 0
M  V30 4770 C 456.205 -1.85355 -1.32768 0
M  V30 4771 C 457.189 -0.713188 -1.44231 0
M  V30 4772 O 458.381 -0.974765 -1.47741 0
M  V30 4773 C 455.51 -2.13781 -2.68612 0
M  V30 4774 C 454.596 -3.34104 -2.61219 0
M  V30 4775 N 454.987 -4.53766 -2.2345 0
M  V30 4776 C 453.285 -3.36895 -2.92263 0
M  V30 4777 C 453.986 -5.35877 -2.26298 0
M  V30 4778 N 452.962 -4.74536 -2.65172 0
M  V30 4779 H 456.764 -2.75413 -1.02591 0
M  V30 4780 H 454.278 -1.55405 -0.471503 0
M  V30 4781 H 456.275 -2.33407 -3.45437 0
M  V30 4782 H 454.935 -1.25013 -2.99669 0
M  V30 4783 H 455.946 -4.79682 -1.95258 0
M  V30 4784 H 452.623 -2.58351 -3.27965 0
M  V30 4785 H 454.013 -6.41577 -1.99572 0
M  V30 4786 N 456.733 0.527833 -1.48498 0
M  V30 4787 C 457.665 1.6482 -1.5927 0
M  V30 4788 C 458.678 1.55659 -0.476869 0
M  V30 4789 O 459.867 1.62081 -0.747806 0
M  V30 4790 C 456.967 3.0348 -1.50842 0
M  V30 4791 C 456.14 3.381 -2.77502 0
M  V30 4792 C 455.199 4.5605 -2.62497 0
M  V30 4793 O 454.225 4.59165 -3.36387 0
M  V30 4794 N 455.427 5.54353 -1.72257 0
M  V30 4795 H 458.192 1.56015 -2.55889 0
M  V30 4796 H 455.753 0.715152 -1.45249 0
M  V30 4797 H 457.745 3.80264 -1.38496 0
M  V30 4798 H 456.315 3.06352 -0.621887 0
M  V30 4799 H 455.535 2.50473 -3.04396 0
M  V30 4800 H 456.823 3.58017 -3.61527 0
M  V30 4801 H 456.221 5.54617 -1.11431 0
M  V30 4802 H 454.778 6.30347 -1.65849 0
M  V30 4803 N 458.211 1.37122 0.776871 0
M  V30 4804 C 459.143 1.28342 1.89897 0
M  V30 4805 C 460.156 0.200277 1.61563 0
M  V30 4806 O 461.345 0.456012 1.72577 0
M  V30 4807 C 458.445 0.960427 3.25006 0
M  V30 4808 C 457.618 2.148 3.81025 0
M  V30 4809 C 456.677 1.79608 4.94598 0
M  V30 4810 O 455.703 2.51845 5.10454 0
M  V30 4811 N 456.905 0.737171 5.758 0
M  V30 4812 H 459.67 2.25027 1.97947 0
M  V30 4813 H 457.231 1.3068 0.955739 0
M  V30 4814 H 459.223 0.705942 3.98495 0
M  V30 4815 H 457.793 0.0823066 3.12492 0
M  V30 4816 H 457.013 2.56454 2.99374 0
M  V30 4817 H 458.301 2.9411 4.15183 0
M  V30 4818 H 457.699 0.137637 5.65533 0
M  V30 4819 H 456.256 0.542534 6.49538 0
M  V30 4820 N 459.689 -1.00246 1.21608 0
M  V30 4821 C 460.652 -2.07233 0.979133 0
M  V30 4822 C 461.652 -1.6072 -0.0508219 0
M  V30 4823 O 462.842 -1.73196 0.186712 0
M  V30 4824 C 459.974 -3.37546 0.477016 0
M  V30 4825 H 461.167 -2.29687 1.92831 0
M  V30 4826 H 458.72 -1.17261 1.03342 0
M  V30 4827 H 459.455 -3.20773 -0.476966 0
M  V30 4828 H 459.24 -3.72638 1.21997 0
M  V30 4829 H 460.73 -4.16285 0.331181 0
M  V30 4830 N 461.167 -1.02423 -1.1978 0
M  V30 4831 C 462.392 -0.7373 -1.93852 0
M  V30 4832 C 462.817 0.696923 -1.74713 0
M  V30 4833 O 462.175 1.48056 -1.04638 0
M  V30 4834 C 462.223 -1.08783 -3.438 0
M  V30 4835 O 461.327 -0.20383 -4.11896 0
M  V30 4836 H 460.668 -0.27284 -0.605355 0
M  V30 4837 H 463.198 -1.36966 -1.51992 0
M  V30 4838 H 463.208 -1.04276 -3.9445 0
M  V30 4839 H 461.883 -2.13274 -3.57053 0
M  V30 4840 H 460.46 -0.307091 -3.71633 0
M  V30 4841 N 462.645 1.35699 -0.801477 0
M  V30 4842 C 463.575 2.32436 -0.222658 0
M  V30 4843 C 464.556 1.5723 0.649057 0
M  V30 4844 O 465.741 1.85324 0.580387 0
M  V30 4845 C 462.871 3.41469 0.633719 0
M  V30 4846 C 461.825 4.27774 -0.139083 0
M  V30 4847 C 461.151 5.28082 0.838666 0
M  V30 4848 C 462.451 5.04946 -1.33517 0
M  V30 4849 H 464.145 2.81094 -1.03086 0
M  V30 4850 H 461.691 1.35146 -0.497155 0
M  V30 4851 H 463.644 4.08143 1.04868 0
M  V30 4852 H 462.368 2.91408 1.47475 0
M  V30 4853 H 461.027 3.62673 -0.535156 0
M  V30 4854 H 460.675 4.7429 1.67506 0
M  V30 4855 H 460.375 5.86695 0.32594 0
M  V30 4856 H 461.899 5.97628 1.25194 0
M  V30 4857 H 463.313 5.64593 -0.995349 0
M  V30 4858 H 461.71 5.7303 -1.78202 0
M  V30 4859 H 462.78 4.35886 -2.12442 0
M  V30 4860 N 464.123 0.554532 1.47522 0
M  V30 4861 C 465.053 -0.182974 2.32782 0
M  V30 4862 C 466.034 -0.911377 1.43624 0
M  V30 4863 O 467.219 -0.892366 1.72483 0
M  V30 4864 C 464.349 -1.21513 3.25349 0
M  V30 4865 C 463.303 -0.603355 4.23726 0
M  V30 4866 C 462.629 -1.73995 5.05598 0
M  V30 4867 C 463.929 0.441121 5.20434 0
M  V30 4868 H 465.623 0.52882 2.94693 0
M  V30 4869 H 463.169 0.255759 1.41711 0
M  V30 4870 H 465.122 -1.73922 3.83835 0
M  V30 4871 H 463.846 -1.95683 2.61487 0
M  V30 4872 H 462.505 -0.10059 3.66462 0
M  V30 4873 H 462.153 -2.47063 4.38143 0
M  V30 4874 H 461.853 -1.3364 5.72201 0
M  V30 4875 H 463.377 -2.26735 5.66942 0
M  V30 4876 H 464.791 0.00319931 5.733 0
M  V30 4877 H 463.188 0.763402 5.95224 0
M  V30 4878 H 464.258 1.33799 4.66075 0
M  V30 4879 N 465.601 -1.54893 0.290851 0
M  V30 4880 C 467.017 -1.59476 -0.0628432 0
M  V30 4881 C 467.217 -1.30795 -1.5328 0
M  V30 4882 O 466.273 -1.07644 -2.28406 0
M  V30 4883 C 467.586 -2.98928 0.325962 0
M  V30 4884 C 469.134 -3.11799 0.273882 0
M  V30 4885 C 469.609 -4.53544 0.637359 0
M  V30 4886 N 471.1 -4.59433 0.589507 0
M  V30 4887 C 471.835 -5.67164 0.84335 0
M  V30 4888 N 471.331 -6.82975 1.16263 0
M  V30 4889 N 473.124 -5.56786 0.771091 0
M  V30 4890 H 465.275 -1.71798 1.24896 0
M  V30 4891 H 467.538 -0.801879 0.505663 0
M  V30 4892 H 467.244 -3.24805 1.34887 0
M  V30 4893 H 467.118 -3.75793 -0.325441 0
M  V30 4894 H 469.505 -2.85677 -0.739765 0
M  V30 4895 H 469.586 -2.37112 0.959766 0
M  V30 4896 H 469.23 -4.80394 1.64877 0
M  V30 4897 H 469.16 -5.26553 -0.0704866 0
M  V30 4898 H 471.651 -3.76245 0.353252 0
M  V30 4899 H 471.964 -7.61048 1.34257 0
M  V30 4900 H 470.309 -6.84552 1.20057 0
M  V30 4901 H 473.5 -4.65187 0.521383 0
M  V30 4902 H 473.673 -6.40664 0.972295 0
M  V30 4903 N 467.08 -0.0183926 -1.57589 0
M  V30 4904 C 468.01 0.965596 -2.12599 0
M  V30 4905 C 468.991 1.34641 -1.0395 0
M  V30 4906 O 470.176 1.42693 -1.31729 0
M  V30 4907 C 467.306 2.25149 -2.64434 0
M  V30 4908 C 466.26 2.01175 -3.77773 0
M  V30 4909 C 465.586 3.35937 -4.15994 0
M  V30 4910 C 466.886 1.35953 -5.04296 0
M  V30 4911 H 468.58 0.507504 -2.95067 0
M  V30 4912 H 466.126 0.242671 -1.41941 0
M  V30 4913 H 468.079 2.94357 -3.01549 0
M  V30 4914 H 466.803 2.73105 -1.79112 0
M  V30 4915 H 465.462 1.34388 -3.4108 0
M  V30 4916 H 465.11 3.81631 -3.27669 0
M  V30 4917 H 464.81 3.20705 -4.92364 0
M  V30 4918 H 466.334 4.0643 -4.55683 0
M  V30 4919 H 467.748 1.95144 -5.39065 0
M  V30 4920 H 466.145 1.31152 -5.85593 0
M  V30 4921 H 467.215 0.331071 -4.83768 0
M  V30 4922 N 468.558 1.5553 0.254621 0
M  V30 4923 C 469.835 1.6774 1.00611 0
M  V30 4924 C 470.215 0.555993 2.03647 0
M  V30 4925 O 469.563 -0.441583 2.24193 0
M  V30 4926 C 469.773 3.07725 1.6464 0
M  V30 4927 C 471.121 3.66074 2.15116 0
M  V30 4928 O 472.145 3.10476 1.74595 0
M  V30 4929 O 471.004 4.63526 2.89493 0
M  V30 4930 H 468.098 0.681958 0.467828 0
M  V30 4931 H 470.644 1.67863 0.24902 0
M  V30 4932 H 469.416 3.80792 0.900734 0
M  V30 4933 H 469.039 3.1158 2.46989 0
M  V30 4934 N 470.036 -0.519951 1.48776 0
M  V30 4935 C 471.282 -1.27711 1.57536 0
M  V30 4936 C 471.615 -1.92547 0.252866 0
M  V30 4937 O 470.89 -1.7979 -0.742021 0
M  V30 4938 C 471.173 -2.35875 2.72094 0
M  V30 4939 C 471.026 -1.75664 4.1408 0
M  V30 4940 C 472.345 -3.37575 2.82367 0
M  V30 4941 H 469.464 -0.462971 0.573434 0
M  V30 4942 H 472.106 -0.578194 1.80989 0
M  V30 4943 H 470.256 -2.95488 2.52228 0
M  V30 4944 H 471.928 -1.20025 4.45412 0
M  V30 4945 H 470.171 -1.06154 4.20611 0
M  V30 4946 H 470.842 -2.54029 4.90075 0
M  V30 4947 H 473.318 -2.87929 3.00393 0
M  V30 4948 H 472.194 -4.1064 3.64233 0
M  V30 4949 H 472.455 -3.98743 1.90936 0
M  V30 4950 N 471.514 -1.37532 -0.769588 0
M  V30 4951 C 472.762 -1.32597 -1.5252 0
M  V30 4952 C 473.083 0.0884294 -1.94799 0
M  V30 4953 O 472.353 1.03289 -1.66458 0
M  V30 4954 H 470.933 -0.487846 -0.565699 0
M  V30 4955 H 473.595 -1.72044 -0.915806 0
M  V30 4956 H 472.691 -1.96643 -2.42359 0
M  V30 4957 N 472.992 0.995999 -1.22138 0
M  V30 4958 C 474.22 1.77066 -1.07029 0
M  V30 4959 C 474.635 1.8495 0.379357 0
M  V30 4960 O 473.992 1.3174 1.26297 0
M  V30 4961 C 474.043 3.20533 -1.67155 0
M  V30 4962 O 473.764 3.13082 -3.06449 0
M  V30 4963 C 475.265 4.14461 -1.5728 0
M  V30 4964 H 472.485 0.556179 -0.375374 0
M  V30 4965 H 475.029 1.25238 -1.61666 0
M  V30 4966 H 473.184 3.6944 -1.16589 0
M  V30 4967 H 473.598 4.03283 -3.35355 0
M  V30 4968 H 475.072 5.1289 -2.04078 0
M  V30 4969 H 475.549 4.36005 -0.528795 0
M  V30 4970 H 476.155 3.71449 -2.07136 0
M  V30 4971 N 474.47 1.03057 1.19235 0
M  V30 4972 C 475.718 0.726581 1.88587 0
M  V30 4973 C 476.039 -0.747227 1.80115 0
M  V30 4974 O 475.309 -1.53849 1.21274 0
M  V30 4975 H 473.889 0.265768 0.698124 0
M  V30 4976 H 476.551 1.30516 1.44746 0
M  V30 4977 H 475.647 1.0224 2.94879 0
M  V30 4978 N 475.948 -1.35272 0.808662 0
M  V30 4979 C 477.178 -2.02652 0.401953 0
M  V30 4980 C 477.586 -1.6108 -0.992462 0
M  V30 4981 O 476.929 -0.804984 -1.65123 0
M  V30 4982 C 476.991 -3.57174 0.408246 0
M  V30 4983 C 476.655 -4.22019 1.75353 0
M  V30 4984 C 477.652 -4.43552 2.71215 0
M  V30 4985 C 475.337 -4.59093 2.03811 0
M  V30 4986 C 477.331 -5.01264 3.93717 0
M  V30 4987 C 475.018 -5.16519 3.26576 0
M  V30 4988 C 476.016 -5.37546 4.21347 0
M  V30 4989 O 475.704 -5.93761 5.41944 0
M  V30 4990 H 475.436 -0.656495 0.161216 0
M  V30 4991 H 477.99 -1.73829 1.0942 0
M  V30 4992 H 476.22 -3.85197 -0.340608 0
M  V30 4993 H 477.909 -4.05893 0.0235623 0
M  V30 4994 H 478.675 -4.15288 2.50522 0
M  V30 4995 H 474.554 -4.42039 1.30854 0
M  V30 4996 H 478.098 -5.17592 4.67701 0
M  V30 4997 H 473.995 -5.4421 3.47139 0
M  V30 4998 H 474.763 -6.1221 5.43269 0
M  V30 4999 N 477.426 -0.562348 -1.47226 0
M  V30 5000 C 478.358 0.220011 -2.28142 0
M  V30 5001 C 479.371 0.874596 -1.37312 0
M  V30 5002 O 480.56 0.747583 -1.62091 0
M  V30 5003 C 477.66 1.32953 -3.11732 0
M  V30 5004 C 476.833 0.770759 -4.30556 0
M  V30 5005 C 475.892 1.76541 -4.95701 0
M  V30 5006 O 474.918 1.3095 -5.53932 0
M  V30 5007 N 476.12 3.09896 -4.90861 0
M  V30 5008 H 478.885 -0.474107 -2.95926 0
M  V30 5009 H 476.446 -0.398761 -1.56912 0
M  V30 5010 H 478.438 1.99378 -3.5218 0
M  V30 5011 H 477.008 1.92681 -2.46156 0
M  V30 5012 H 476.228 -0.0704056 -3.94137 0
M  V30 5013 H 477.516 0.376872 -5.07402 0
M  V30 5014 H 476.914 3.49577 -4.44761 0
M  V30 5015 H 475.471 3.71865 -5.35313 0
M  V30 5016 N 478.904 1.54736 -0.299062 0
M  V30 5017 C 480.134 2.04215 0.312992 0
M  V30 5018 C 480.542 1.17596 1.48215 0
M  V30 5019 O 479.885 0.193835 1.82674 0
M  V30 5020 C 479.947 3.49696 0.833862 0
M  V30 5021 C 479.611 4.56518 -0.20977 0
M  V30 5022 C 480.608 5.09442 -1.03756 0
M  V30 5023 C 478.293 5.01073 -0.35091 0
M  V30 5024 C 480.287 6.05459 -1.99244 0
M  V30 5025 C 477.974 5.9691 -1.30924 0
M  V30 5026 C 478.972 6.48987 -2.1285 0
M  V30 5027 O 478.66 7.42947 -3.07059 0
M  V30 5028 H 478.392 0.672128 0.0722494 0
M  V30 5029 H 480.946 2.00718 -0.436043 0
M  V30 5030 H 479.176 3.5051 1.63339 0
M  V30 5031 H 480.865 3.82381 1.36159 0
M  V30 5032 H 481.631 4.75816 -0.939376 0
M  V30 5033 H 477.51 4.60168 0.276813 0
M  V30 5034 H 481.054 6.46031 -2.63229 0
M  V30 5035 H 476.951 6.29953 -1.40815 0
M  V30 5036 H 477.719 7.60743 -3.02015 0
M  V30 5037 N 480.382 0.0267497 1.57577 0
M  V30 5038 C 481.628 -0.647596 1.92815 0
M  V30 5039 C 481.983 -1.69872 0.903396 0
M  V30 5040 O 481.276 -1.91429 -0.0808881 0
M  V30 5041 C 481.47 -1.30914 3.3256 0
M  V30 5042 C 481.299 -0.323621 4.48534 0
M  V30 5043 C 480.069 0.0756607 5.05243 0
M  V30 5044 C 482.267 0.42112 5.12573 0
M  V30 5045 N 480.249 1.0566 6.04739 0
M  V30 5046 C 481.62 1.25589 6.07147 0
M  V30 5047 C 483.675 0.482077 4.95561 0
M  V30 5048 C 482.378 2.1461 6.86538 0
M  V30 5049 C 484.404 1.35962 5.75559 0
M  V30 5050 C 483.766 2.18217 6.69747 0
M  V30 5051 H 479.865 -0.209357 0.753454 0
M  V30 5052 H 482.449 0.0933695 1.94476 0
M  V30 5053 H 480.62 -2.02026 3.31723 0
M  V30 5054 H 482.352 -1.94033 3.55153 0
M  V30 5055 H 479.107 -0.298294 4.7266 0
M  V30 5056 H 479.531 1.54324 6.59176 0
M  V30 5057 H 484.173 -0.139609 4.22569 0
M  V30 5058 H 481.891 2.77835 7.58837 0
M  V30 5059 H 485.477 1.41105 5.6443 0
M  V30 5060 H 484.357 2.85022 7.3057 0
M  V30 5061 N 481.861 -1.55662 -0.24637 0
M  V30 5062 C 483.091 -1.81312 -0.990438 0
M  V30 5063 C 483.499 -0.600234 -1.79426 0
M  V30 5064 O 482.842 0.440537 -1.78339 0
M  V30 5065 C 482.904 -3.0032 -1.97607 0
M  V30 5066 C 482.568 -4.36322 -1.35912 0
M  V30 5067 C 483.565 -5.14295 -0.761348 0
M  V30 5068 C 481.25 -4.83019 -1.37833 0
M  V30 5069 C 483.244 -6.37114 -0.190998 0
M  V30 5070 C 480.931 -6.05786 -0.804128 0
M  V30 5071 C 481.929 -6.82672 -0.211489 0
M  V30 5072 O 481.617 -8.03121 0.353845 0
M  V30 5073 H 481.349 -0.607233 -0.297058 0
M  V30 5074 H 483.903 -2.0356 -0.274351 0
M  V30 5075 H 482.133 -2.73829 -2.73047 0
M  V30 5076 H 483.822 -3.13057 -2.58361 0
M  V30 5077 H 484.588 -4.79337 -0.739013 0
M  V30 5078 H 480.467 -4.23165 -1.829 0
M  V30 5079 H 484.011 -6.97069 0.272206 0
M  V30 5080 H 479.908 -6.40222 -0.823792 0
M  V30 5081 H 480.676 -8.18131 0.245761 0
M  V30 5082 N 483.339 0.512053 -1.4905 0
M  V30 5083 C 484.587 1.26436 -1.57665 0
M  V30 5084 C 484.908 1.93255 -0.260293 0
M  V30 5085 O 484.178 1.82206 0.719564 0
M  V30 5086 H 482.758 0.469658 -0.580888 0
M  V30 5087 H 485.42 0.594398 -1.85615 0
M  V30 5088 H 484.516 2.03417 -2.36702 0
M  V30 5089 N 484.817 1.37938 0.762283 0
M  V30 5090 C 485.747 1.37176 1.88958 0
M  V30 5091 C 486.728 0.238945 1.68413 0
M  V30 5092 O 487.913 0.440726 1.89133 0
M  V30 5093 C 485.043 1.18742 3.2637 0
M  V30 5094 C 483.997 2.29136 3.61498 0
M  V30 5095 C 483.323 1.95816 4.97554 0
M  V30 5096 C 484.623 3.71363 3.6727 0
M  V30 5097 H 486.317 2.31509 1.89853 0
M  V30 5098 H 483.863 1.11438 0.912005 0
M  V30 5099 H 485.816 1.16837 4.04879 0
M  V30 5100 H 484.54 0.208683 3.25933 0
M  V30 5101 H 483.199 2.30213 2.85303 0
M  V30 5102 H 482.847 0.964475 4.93667 0
M  V30 5103 H 482.547 2.69745 5.22026 0
M  V30 5104 H 484.071 1.95513 5.78452 0
M  V30 5105 H 485.485 3.72364 4.35911 0
M  V30 5106 H 483.882 4.44425 4.03245 0
M  V30 5107 H 484.952 4.04305 2.67704 0
M  V30 5108 N 486.295 -0.989507 1.22664 0
M  V30 5109 C 487.706 -1.54406 1.04955 0
M  V30 5110 C 488.057 -1.92366 -0.385951 0
M  V30 5111 O 487.182 -1.75111 -1.27142 0
M  V30 5112 C 487.777 -2.80578 1.89899 0
M  V30 5113 C 486.336 -3.32464 1.76478 0
M  V30 5114 C 485.483 -2.05524 1.86159 0
M  V30 5115 H 488.434 -0.810211 1.3646 0
M  V30 5116 H 488.455 -3.53075 1.4184 0
M  V30 5117 H 487.967 -2.52918 2.94371 0
M  V30 5118 H 486.068 -3.65024 0.747528 0
M  V30 5119 H 486.181 -4.02838 2.59342 0
M  V30 5120 H 484.545 -2.19241 1.29636 0
M  V30 5121 H 485.328 -1.80258 2.92168 0
M  V30 5122 N 487.773 -1.03688 -1.18687 0
M  V30 5123 C 488.721 -0.618292 -2.24232 0
M  V30 5124 C 489.715 0.353045 -1.6568 0
M  V30 5125 O 490.921 0.220749 -1.78641 0
M  V30 5126 H 487.296 -0.181711 -0.729716 0
M  V30 5127 H 489.267 -1.51893 -2.56848 0
M  V30 5128 C 488.016 0.00677342 -3.47699 0
M  V30 5129 H 487.339 -0.731692 -3.93047 0
M  V30 5130 H 488.779 0.262492 -4.23187 0
M  V30 5131 C 487.238 1.25572 -3.12623 0
M  V30 5132 O 487.768 2.34691 -3.26011 0
M  V30 5133 N 485.974 1.14755 -2.66982 0
M  V30 5134 H 485.521 0.259601 -2.56289 0
M  V30 5135 H 485.479 1.98412 -2.43885 0
M  V30 5136 N 489.251 1.34841 -0.815825 0
M  V30 5137 C 490.498 1.98499 -0.400535 0
M  V30 5138 C 490.826 1.64699 1.03463 0
M  V30 5139 O 490.081 0.907006 1.73412 0
M  V30 5140 C 490.38 3.53273 -0.541541 0
M  V30 5141 C 490.046 4.06966 -1.94138 0
M  V30 5142 C 488.708 4.21341 -2.32433 0
M  V30 5143 C 491.06 4.35933 -2.85677 0
M  V30 5144 C 488.388 4.62007 -3.61617 0
M  V30 5145 C 490.74 4.78042 -4.14317 0
M  V30 5146 C 489.404 4.90622 -4.52599 0
M  V30 5147 H 488.674 0.72636 -0.146566 0
M  V30 5148 H 491.321 1.60902 -1.0384 0
M  V30 5149 H 489.626 3.91387 0.179741 0
M  V30 5150 H 491.323 4.00497 -0.20085 0
M  V30 5151 H 487.913 3.96235 -1.63388 0
M  V30 5152 H 492.097 4.24372 -2.57337 0
M  V30 5153 H 487.353 4.69937 -3.91113 0
M  V30 5154 H 491.527 4.99415 -4.85342 0
M  V30 5155 H 489.154 5.2189 -5.52752 0
M  V30 5156 N 490.729 0.570148 1.46925 0
M  V30 5157 C 491.959 0.0561151 2.06524 0
M  V30 5158 C 492.367 -1.24874 1.42137 0
M  V30 5159 O 491.71 -1.76292 0.516417 0
M  V30 5160 C 491.772 -0.197035 3.5896 0
M  V30 5161 C 491.436 1.02033 4.45464 0
M  V30 5162 C 492.433 1.92921 4.82781 0
M  V30 5163 C 490.118 1.23864 4.86788 0
M  V30 5164 C 492.112 3.03999 5.60235 0
M  V30 5165 C 489.799 2.35249 5.64004 0
M  V30 5166 C 490.797 3.25146 6.0064 0
M  V30 5167 O 490.485 4.34598 6.76299 0
M  V30 5168 H 490.217 0.0487409 0.674241 0
M  V30 5169 H 492.771 0.786915 1.89728 0
M  V30 5170 H 491.001 -0.982299 3.74016 0
M  V30 5171 H 492.69 -0.658032 4.00531 0
M  V30 5172 H 493.456 1.77265 4.51444 0
M  V30 5173 H 489.335 0.54805 4.57731 0
M  V30 5174 H 492.879 3.74192 5.8875 0
M  V30 5175 H 488.776 2.50873 5.94755 0
M  V30 5176 H 489.544 4.32808 6.94708 0
M  V30 5177 N 492.207 -1.54576 0.307264 0
M  V30 5178 C 493.435 -2.04675 -0.302597 0
M  V30 5179 C 493.85 -1.18425 -1.47041 0
M  V30 5180 O 493.207 -0.211257 -1.81273 0
M  V30 5181 C 493.258 -3.53575 -0.752801 0
M  V30 5182 O 492.979 -4.36547 0.368536 0
M  V30 5183 C 494.48 -4.19699 -1.42717 0
M  V30 5184 H 491.7 -0.66786 -0.0648374 0
M  V30 5185 H 494.244 -1.99516 0.448716 0
M  V30 5186 H 492.399 -3.59074 -1.45412 0
M  V30 5187 H 492.813 -5.24497 0.0168937 0
M  V30 5188 H 494.287 -5.25388 -1.69327 0
M  V30 5189 H 494.764 -3.69815 -2.36925 0
M  V30 5190 H 495.37 -4.18293 -0.768856 0
M  V30 5191 N 493.685 -0.035106 -1.57561 0
M  V30 5192 C 494.934 0.641604 -1.91223 0
M  V30 5193 C 495.247 1.72944 -0.913761 0
M  V30 5194 O 496.453 2.46321 -1.14185 0
M  V30 5195 C 494.909 1.19249 -3.3957 0
M  V30 5196 C 494.517 0.137616 -4.47789 0
M  V30 5197 C 496.261 1.84537 -3.82291 0
M  V30 5198 C 494.168 0.700478 -5.87237 0
M  V30 5199 H 493.098 0.243417 -0.713627 0
M  V30 5200 H 495.749 -0.101382 -1.8322 0
M  V30 5201 H 494.131 1.98728 -3.42525 0
M  V30 5202 H 495.305 -0.635153 -4.56402 0
M  V30 5203 H 493.62 -0.416855 -4.14308 0
M  V30 5204 H 496.217 2.27616 -4.83834 0
M  V30 5205 H 496.56 2.69054 -3.17672 0
M  V30 5206 H 497.093 1.11739 -3.81784 0
M  V30 5207 H 493.832 -0.106693 -6.55413 0
M  V30 5208 H 493.352 1.4416 -5.82218 0
M  V30 5209 H 495.031 1.18837 -6.35993 0
M  V30 5210 N 495.163 1.55791 0.238111 0
M  V30 5211 C 496.391 1.82098 0.982233 0
M  V30 5212 C 496.806 0.612025 1.78605 0
M  V30 5213 O 496.163 -0.419381 1.77616 0
M  V30 5214 C 496.214 3.0673 1.91309 0
M  V30 5215 O 495.935 4.2296 1.14179 0
M  V30 5216 C 497.436 3.45903 2.77248 0
M  V30 5217 H 494.656 0.605748 0.288635 0
M  V30 5218 H 497.2 2.02862 0.258341 0
M  V30 5219 H 495.355 2.87991 2.59114 0
M  V30 5220 H 495.769 4.93653 1.7722 0
M  V30 5221 H 497.243 4.36189 3.38295 0
M  V30 5222 H 497.72 2.66891 3.48806 0
M  V30 5223 H 498.326 3.67024 2.14881 0
M  V30 5224 N 496.642 -0.504142 1.49319 0
M  V30 5225 C 498.058 -0.835039 1.36012 0
M  V30 5226 C 498.258 -1.97674 0.390808 0
M  V30 5227 O 497.314 -2.51867 -0.178655 0
M  V30 5228 C 498.627 -1.17821 2.76656 0
M  V30 5229 C 500.175 -1.2866 2.85334 0
M  V30 5230 C 500.65 -1.66307 4.26739 0
M  V30 5231 N 502.141 -1.73362 4.29534 0
M  V30 5232 C 502.876 -2.0393 5.35911 0
M  V30 5233 N 502.372 -2.32744 6.52535 0
M  V30 5234 N 504.165 -2.05155 5.23324 0
M  V30 5235 H 496.316 0.248764 2.10938 0
M  V30 5236 H 498.579 0.0486962 0.946748 0
M  V30 5237 H 498.285 -0.412682 3.4927 0
M  V30 5238 H 498.159 -2.12239 3.11825 0
M  V30 5239 H 500.546 -2.04285 2.1296 0
M  V30 5240 H 500.627 -0.323004 2.53752 0
M  V30 5241 H 500.271 -0.91234 4.99639 0
M  V30 5242 H 500.201 -2.63761 4.55782 0
M  V30 5243 H 502.692 -1.53268 3.45424 0
M  V30 5244 H 503.005 -2.55248 7.2943 0
M  V30 5245 H 501.35 -2.30207 6.55767 0
M  V30 5246 H 504.541 -1.82119 4.3122 0
M  V30 5247 H 504.714 -2.28644 6.06322 0
M  V30 5248 N 498.12 -1.38341 -0.754957 0
M  V30 5249 C 499.35 -1.37504 -1.54195 0
M  V30 5250 C 499.758 0.0373787 -1.89163 0
M  V30 5251 O 499.101 1.01402 -1.53178 0
M  V30 5252 C 499.163 -2.16488 -2.87008 0
M  V30 5253 C 498.827 -3.65311 -2.74585 0
M  V30 5254 C 499.824 -4.58834 -2.44474 0
M  V30 5255 C 497.509 -4.08649 -2.9208 0
M  V30 5256 C 499.503 -5.93675 -2.32011 0
M  V30 5257 C 497.19 -5.43571 -2.79237 0
M  V30 5258 C 498.188 -6.35898 -2.49245 0
M  V30 5259 O 497.876 -7.68338 -2.36458 0
M  V30 5260 H 497.608 -0.472159 -0.483779 0
M  V30 5261 H 500.162 -1.82515 -0.94221 0
M  V30 5262 H 498.392 -1.66194 -3.49166 0
M  V30 5263 H 500.081 -2.08076 -3.4851 0
M  V30 5264 H 500.847 -4.26657 -2.30627 0
M  V30 5265 H 496.726 -3.37134 -3.14422 0
M  V30 5266 H 500.27 -6.65706 -2.08522 0
M  V30 5267 H 496.167 -5.75345 -2.92657 0
M  V30 5268 H 496.935 -7.78845 -2.5168 0
M  V30 5269 N 499.598 0.982988 -1.23187 0
M  V30 5270 C 500.546 2.09616 -1.00817 0
M  V30 5271 C 501.54 1.6932 0.0519995 0
M  V30 5272 O 502.746 1.79715 -0.101284 0
M  V30 5273 H 499.121 0.685628 -0.308899 0
M  V30 5274 H 501.092 2.25652 -1.95253 0
M  V30 5275 C 499.841 3.42249 -0.613243 0
M  V30 5276 H 499.164 3.73705 -1.42073 0
M  V30 5277 H 500.604 4.21086 -0.496208 0
M  V30 5278 C 499.063 3.30002 0.678233 0
M  V30 5279 O 499.593 3.6263 1.72807 0
M  V30 5280 N 497.799 2.83164 0.653165 0
M  V30 5281 H 497.346 2.56811 -0.201492 0
M  V30 5282 H 497.304 2.75352 1.51752 0
M  V30 5283 N 501.076 1.04316 1.18135 0
M  V30 5284 C 502.026 0.606731 2.19779 0
M  V30 5285 C 503.01 -0.352144 1.56999 0
M  V30 5286 O 504.202 -0.170795 1.76174 0
M  V30 5287 C 501.331 -0.0262443 3.4329 0
M  V30 5288 C 500.417 0.955928 4.13186 0
M  V30 5289 N 500.808 2.12395 4.59045 0
M  V30 5290 C 499.106 0.782473 4.39082 0
M  V30 5291 C 499.807 2.74458 5.12882 0
M  V30 5292 N 498.783 2.02316 5.04548 0
M  V30 5293 H 502.585 1.49679 2.5293 0
M  V30 5294 H 500.099 0.912088 1.34368 0
M  V30 5295 H 502.096 -0.356617 4.15372 0
M  V30 5296 H 500.756 -0.911811 3.11635 0
M  V30 5297 H 501.767 2.50272 4.53414 0
M  V30 5298 H 498.444 -0.0527906 4.17467 0
M  V30 5299 H 499.834 3.73459 5.5855 0
M  V30 5300 N 502.554 -1.34406 0.822964 0
M  V30 5301 C 503.779 -2.0304 0.423034 0
M  V30 5302 C 504.204 -1.61568 -0.963196 0
M  V30 5303 O 503.562 -0.800339 -1.62678 0
M  V30 5304 C 503.61 -3.56636 0.53321 0
M  V30 5305 O 502.714 -4.09971 -0.446939 0
M  V30 5306 H 502.055 -0.64075 0.174171 0
M  V30 5307 H 504.585 -1.71653 1.11339 0
M  V30 5308 H 504.595 -4.05945 0.408991 0
M  V30 5309 H 503.27 -3.86168 1.54425 0
M  V30 5310 H 501.847 -3.71835 -0.281601 0
M  V30 5311 N 504.032 -0.577932 -1.46621 0
M  V30 5312 C 505.26 -0.0671642 -2.06791 0
M  V30 5313 C 505.675 1.23571 -1.42743 0
M  V30 5314 O 505.032 1.74602 -0.531062 0
M  V30 5315 C 505.083 0.110357 -3.61332 0
M  V30 5316 O 504.804 -1.14095 -4.22982 0
M  V30 5317 C 506.305 0.656025 -4.38419 0
M  V30 5318 H 503.525 -0.0552732 -0.66872 0
M  V30 5319 H 506.069 -0.797242 -1.8832 0
M  V30 5320 H 504.224 0.790637 -3.79246 0
M  V30 5321 H 504.638 -0.951742 -5.15793 0
M  V30 5322 H 506.112 0.729438 -5.47159 0
M  V30 5323 H 506.589 1.67195 -4.06131 0
M  V30 5324 H 507.195 0.0107692 -4.25299 0
M  V30 5325 N 505.51 1.54411 -0.315457 0
M  V30 5326 C 506.46 2.20772 0.569549 0
M  V30 5327 C 507.444 1.18551 1.08787 0
M  V30 5328 O 508.636 1.44213 1.02624 0
M  V30 5329 C 505.765 2.96293 1.73394 0
M  V30 5330 C 504.851 4.05844 1.2309 0
M  V30 5331 N 505.242 5.03822 0.446927 0
M  V30 5332 C 503.54 4.19648 1.51035 0
M  V30 5333 C 504.241 5.8143 0.17725 0
M  V30 5334 N 503.217 5.38245 0.761118 0
M  V30 5335 H 507.019 2.93877 -0.0368076 0
M  V30 5336 H 504.533 1.61949 -0.120915 0
M  V30 5337 H 506.53 3.42313 2.37965 0
M  V30 5338 H 505.19 2.24708 2.34386 0
M  V30 5339 H 506.201 5.17821 0.0905027 0
M  V30 5340 H 502.878 3.59274 2.1267 0
M  V30 5341 H 504.268 6.70369 -0.45335 0
M  V30 5342 N 506.988 0.0434614 1.5754 0
M  V30 5343 C 508.218 -0.640905 1.96408 0
M  V30 5344 C 508.626 -1.65365 0.919297 0
M  V30 5345 O 507.969 -1.83395 -0.105795 0
M  V30 5346 C 508.031 -1.39141 3.31482 0
M  V30 5347 C 507.695 -0.535375 4.53853 0
M  V30 5348 C 508.692 0.195335 5.19533 0
M  V30 5349 C 506.377 -0.468564 5.0011 0
M  V30 5350 C 508.371 0.981377 6.298 0
M  V30 5351 C 506.058 0.321171 6.10255 0
M  V30 5352 C 507.056 1.04484 6.74961 0
M  V30 5353 O 506.744 1.8216 7.8299 0
M  V30 5354 H 506.476 -0.180584 0.651433 0
M  V30 5355 H 509.03 0.103848 2.05137 0
M  V30 5356 H 507.26 -2.18162 3.19284 0
M  V30 5357 H 508.949 -1.96526 3.55151 0
M  V30 5358 H 509.715 0.15314 4.84758 0
M  V30 5359 H 505.594 -1.02142 4.49542 0
M  V30 5360 H 509.138 1.54674 6.80237 0
M  V30 5361 H 505.035 0.365032 6.44467 0
M  V30 5362 H 505.803 1.74289 7.99728 0
M  V30 5363 N 508.466 -1.55915 -0.229846 0
M  V30 5364 C 509.429 -1.90914 -1.26824 0
M  V30 5365 C 510.429 -0.786999 -1.40225 0
M  V30 5366 O 511.619 -1.05484 -1.38632 0
M  V30 5367 C 508.751 -2.15264 -2.64337 0
M  V30 5368 H 509.944 -2.8378 -0.969998 0
M  V30 5369 H 507.497 -1.49069 -0.4699 0
M  V30 5370 H 508.232 -1.24923 -2.99274 0
M  V30 5371 H 508.017 -2.97005 -2.55989 0
M  V30 5372 H 509.507 -2.43467 -3.39284 0
M  V30 5373 N 509.944 0.496216 -1.49584 0
M  V30 5374 C 510.877 1.61508 -1.61215 0
M  V30 5375 C 511.855 1.55927 -0.461045 0
M  V30 5376 O 513.039 1.75914 -0.677231 0
M  V30 5377 C 510.166 3.00035 -1.57152 0
M  V30 5378 C 509.212 3.23861 -2.77518 0
M  V30 5379 S 510.045 3.06466 -4.39134 0
M  V30 5380 C 511.201 4.4738 -4.37724 0
M  V30 5381 H 511.434 1.51398 -2.55863 0
M  V30 5382 H 508.967 0.681727 -1.38535 0
M  V30 5383 H 510.925 3.7991 -1.55494 0
M  V30 5384 H 509.586 3.07556 -0.637834 0
M  V30 5385 H 508.779 4.25 -2.70908 0
M  V30 5386 H 508.381 2.51716 -2.76614 0
M  V30 5387 H 510.673 5.39556 -4.09738 0
M  V30 5388 H 511.616 4.59038 -5.39156 0
M  V30 5389 H 512.024 4.28283 -3.67742 0
M  V30 5390 N 511.423 1.38739 0.74761 0
M  V30 5391 C 512.386 1.36241 1.84312 0
M  V30 5392 C 513.386 0.261811 1.58654 0
M  V30 5393 O 514.576 0.519031 1.66288 0
M  V30 5394 C 511.708 1.12253 3.21888 0
M  V30 5395 H 512.901 2.33712 1.87933 0
M  V30 5396 H 510.454 1.2412 0.949946 0
M  V30 5397 H 511.189 0.154133 3.23934 0
M  V30 5398 H 510.974 1.91943 3.41907 0
M  V30 5399 H 512.464 1.13215 4.0196 0
M  V30 5400 N 512.901 -0.976442 1.23707 0
M  V30 5401 C 514.147 -1.72081 1.07312 0
M  V30 5402 C 514.48 -1.90275 -0.388476 0
M  V30 5403 O 513.755 -1.4579 -1.28746 0
M  V30 5404 C 514.038 -3.11675 1.80363 0
M  V30 5405 C 513.891 -3.01027 3.3422 0
M  V30 5406 C 515.21 -4.1117 1.5693 0
M  V30 5407 H 512.329 -0.624583 0.391236 0
M  V30 5408 H 514.971 -1.13649 1.52263 0
M  V30 5409 H 513.121 -3.61559 1.42153 0
M  V30 5410 H 514.793 -2.58637 3.81975 0
M  V30 5411 H 513.036 -2.3744 3.63049 0
M  V30 5412 H 513.707 -3.9988 3.80525 0
M  V30 5413 H 516.183 -3.7011 1.90151 0
M  V30 5414 H 515.059 -5.06928 2.10513 0
M  V30 5415 H 515.32 -4.392 0.505548 0
M  V30 5416 N 514.379 -1.04941 -1.1758 0
M  V30 5417 C 515.625 -0.768896 -1.88307 0
M  V30 5418 C 515.98 0.696361 -1.79356 0
M  V30 5419 O 515.273 1.50245 -1.18899 0
M  V30 5420 C 515.467 -1.18062 -3.37337 0
M  V30 5421 C 515.296 -2.68436 -3.60794 0
M  V30 5422 C 514.066 -3.35709 -3.77661 0
M  V30 5423 C 516.264 -3.66657 -3.60649 0
M  V30 5424 N 514.246 -4.74974 -3.88939 0
M  V30 5425 C 515.617 -4.91638 -3.77747 0
M  V30 5426 C 517.672 -3.60162 -3.43785 0
M  V30 5427 C 516.375 -6.10902 -3.79726 0
M  V30 5428 C 518.401 -4.78863 -3.47051 0
M  V30 5429 C 517.763 -6.02666 -3.64654 0
M  V30 5430 H 513.862 -0.33355 -0.707296 0
M  V30 5431 H 516.446 -1.34085 -1.41171 0
M  V30 5432 H 514.617 -0.636648 -3.83147 0
M  V30 5433 H 516.349 -0.8502 -3.95669 0
M  V30 5434 H 513.104 -2.8611 -3.77409 0
M  V30 5435 H 513.528 -5.47378 -3.98379 0
M  V30 5436 H 518.17 -2.65412 -3.29114 0
M  V30 5437 H 515.888 -7.05998 -3.93182 0
M  V30 5438 H 519.474 -4.75488 -3.35265 0
M  V30 5439 H 518.354 -6.92979 -3.67083 0
M  V30 5440 N 515.857 1.33968 -0.830081 0
M  V30 5441 C 516.789 2.28194 -0.21448 0
M  V30 5442 C 517.802 1.5135 0.599752 0
M  V30 5443 O 518.991 1.73286 0.42826 0
M  V30 5444 C 516.091 3.31221 0.717356 0
M  V30 5445 C 515.264 4.37365 -0.055613 0
M  V30 5446 C 514.323 5.2011 0.798231 0
M  V30 5447 O 513.349 5.68691 0.240616 0
M  V30 5448 N 514.551 5.40523 2.11695 0
M  V30 5449 H 517.316 2.81662 -1.02405 0
M  V30 5450 H 514.877 1.46568 -0.687713 0
M  V30 5451 H 516.869 3.83477 1.29334 0
M  V30 5452 H 515.439 2.78095 1.42765 0
M  V30 5453 H 514.659 3.85727 -0.812936 0
M  V30 5454 H 515.947 5.05397 -0.587444 0
M  V30 5455 H 515.345 5.0274 2.59363 0
M  V30 5456 H 513.902 5.95871 2.64162 0
M  V30 5457 N 517.335 0.585699 1.46312 0
M  V30 5458 C 518.265 -0.133556 2.33118 0
M  V30 5459 C 519.246 -0.880707 1.45525 0
M  V30 5460 O 520.431 -0.855579 1.74337 0
M  V30 5461 C 517.561 -1.14585 3.27853 0
M  V30 5462 C 516.515 -0.513341 4.2491 0
M  V30 5463 C 515.841 -1.63231 5.09175 0
M  V30 5464 C 517.141 0.551413 5.19381 0
M  V30 5465 H 518.835 0.59121 2.93505 0
M  V30 5466 H 516.381 0.285761 1.41136 0
M  V30 5467 H 518.334 -1.65741 3.87438 0
M  V30 5468 H 517.058 -1.90093 2.65579 0
M  V30 5469 H 515.717 -0.0228349 3.66593 0
M  V30 5470 H 515.365 -2.37713 4.43285 0
M  V30 5471 H 515.065 -1.21473 5.74907 0
M  V30 5472 H 516.589 -2.14658 5.71624 0
M  V30 5473 H 518.003 0.124804 5.73164 0
M  V30 5474 H 516.4 0.889486 5.93471 0
M  V30 5475 H 517.47 1.43655 4.63132 0
M  V30 5476 N 518.813 -1.54241 0.323641 0
M  V30 5477 C 520.061 -2.00174 -0.278359 0
M  V30 5478 C 520.382 -1.2134 -1.52648 0
M  V30 5479 O 519.652 -0.315244 -1.93347 0
M  V30 5480 H 518.232 -0.739463 -0.105845 0
M  V30 5481 H 520.894 -1.89864 0.440204 0
M  V30 5482 H 519.99 -3.07486 -0.5347 0
M  V30 5483 N 520.291 -0.0518155 -1.57515 0
M  V30 5484 C 521.223 0.951542 -2.08515 0
M  V30 5485 C 522.236 1.27436 -1.01311 0
M  V30 5486 O 523.425 1.23504 -1.28876 0
M  V30 5487 C 520.525 2.27291 -2.5138 0
M  V30 5488 C 519.698 2.13191 -3.81927 0
M  V30 5489 C 518.757 3.28458 -4.11098 0
M  V30 5490 O 517.783 3.04334 -4.81009 0
M  V30 5491 N 518.985 4.52954 -3.63061 0
M  V30 5492 H 521.75 0.516242 -2.9522 0
M  V30 5493 H 519.311 0.13441 -1.61341 0
M  V30 5494 H 521.303 3.03272 -2.67971 0
M  V30 5495 H 519.873 2.62386 -1.69919 0
M  V30 5496 H 519.093 1.21798 -3.74912 0
M  V30 5497 H 520.381 2.00999 -4.67415 0
M  V30 5498 H 519.779 4.75444 -3.06545 0
M  V30 5499 H 518.336 5.26026 -3.84889 0
M  V30 5500 N 521.769 1.56035 0.221574 0
M  V30 5501 C 522.732 1.91584 1.2581 0
M  V30 5502 C 523.732 0.794425 1.39805 0
M  V30 5503 O 524.922 1.06217 1.38071 0
M  V30 5504 C 522.054 2.16663 2.63192 0
M  V30 5505 H 523.247 2.8429 0.954935 0
M  V30 5506 H 520.8 1.49316 0.461988 0
M  V30 5507 H 521.535 1.26508 2.98607 0
M  V30 5508 H 521.32 2.98358 2.5441 0
M  V30 5509 H 522.81 2.45262 3.37988 0
M  V30 5510 N 523.247 -0.488276 1.49845 0
M  V30 5511 C 524.493 -1.24341 1.6021 0
M  V30 5512 C 524.826 -1.91967 0.293651 0
M  V30 5513 O 524.101 -1.81323 -0.703718 0
M  V30 5514 C 524.384 -2.3005 2.77036 0
M  V30 5515 C 524.237 -1.66842 4.17713 0
M  V30 5516 C 525.556 -3.31509 2.89464 0
M  V30 5517 H 522.675 -0.450704 0.583125 0
M  V30 5518 H 525.317 -0.539673 1.82174 0
M  V30 5519 H 523.467 -2.90071 2.58439 0
M  V30 5520 H 525.139 -1.1055 4.47858 0
M  V30 5521 H 523.382 -0.972079 4.22768 0
M  V30 5522 H 524.053 -2.43576 4.95353 0
M  V30 5523 H 526.529 -2.81493 3.06433 0
M  V30 5524 H 525.405 -4.02822 3.72861 0
M  V30 5525 H 525.666 -3.94603 1.99351 0
M  V30 5526 N 524.725 -1.39134 -0.740242 0
M  V30 5527 C 525.688 -1.37217 -1.83587 0
M  V30 5528 C 526.688 -0.270221 -1.58513 0
M  V30 5529 O 527.878 -0.527843 -1.6601 0
M  V30 5530 C 525.01 -1.13959 -3.21288 0
M  V30 5531 H 526.203 -2.34705 -1.86691 0
M  V30 5532 H 523.756 -1.24622 -0.94335 0
M  V30 5533 H 524.491 -0.17131 -3.23847 0
M  V30 5534 H 524.276 -1.93754 -3.40884 0
M  V30 5535 H 525.766 -1.15346 -4.01354 0
M  V30 5536 N 526.204 0.969867 -1.24223 0
M  V30 5537 C 527.134 2.08191 -1.05729 0
M  V30 5538 C 528.115 1.70075 0.0290765 0
M  V30 5539 O 529.3 1.93712 -0.137583 0
M  V30 5540 C 526.43 3.40991 -0.658995 0
M  V30 5541 C 525.384 3.93054 -1.69389 0
M  V30 5542 C 524.71 5.22171 -1.15072 0
M  V30 5543 C 526.01 4.21137 -3.08935 0
M  V30 5544 H 527.704 2.23921 -1.98746 0
M  V30 5545 H 525.25 1.07602 -0.956967 0
M  V30 5546 H 527.203 4.18221 -0.51662 0
M  V30 5547 H 525.927 3.25155 0.30686 0
M  V30 5548 H 524.586 3.17977 -1.82444 0
M  V30 5549 H 524.234 5.02694 -0.175539 0
M  V30 5550 H 523.934 5.57973 -1.84229 0
M  V30 5551 H 525.458 6.02013 -1.02042 0
M  V30 5552 H 526.872 4.8908 -2.99121 0
M  V30 5553 H 525.269 4.68163 -3.75425 0
M  V30 5554 H 526.339 3.27996 -3.57137 0
M  V30 5555 N 527.682 1.05563 1.17022 0
M  V30 5556 C 528.645 0.664098 2.19368 0
M  V30 5557 C 529.645 -0.286358 1.5823 0
M  V30 5558 O 530.835 -0.069728 1.7406 0
M  V30 5559 C 527.967 -0.0239932 3.40892 0
M  V30 5560 H 529.16 1.57 2.55521 0
M  V30 5561 H 526.713 0.849964 1.31169 0
M  V30 5562 H 527.448 -0.942988 3.10287 0
M  V30 5563 H 527.233 0.659351 3.86516 0
M  V30 5564 H 528.723 -0.283909 4.16634 0
M  V30 5565 N 529.16 -1.33526 0.837174 0
M  V30 5566 C 530.576 -1.50727 0.524743 0
M  V30 5567 C 530.776 -1.77792 -0.948279 0
M  V30 5568 O 529.832 -1.83719 -1.73216 0
M  V30 5569 C 531.145 -2.66299 1.39661 0
M  V30 5570 C 532.693 -2.80183 1.39521 0
M  V30 5571 C 533.168 -3.98815 2.25189 0
M  V30 5572 N 534.659 -4.06047 2.2289 0
M  V30 5573 C 535.394 -4.97032 2.85915 0
M  V30 5574 N 534.89 -5.93143 3.57985 0
M  V30 5575 N 536.683 -4.90015 2.75394 0
M  V30 5576 H 528.834 -1.1422 1.79074 0
M  V30 5577 H 531.097 -0.561399 0.763894 0
M  V30 5578 H 530.803 -2.52974 2.4433 0
M  V30 5579 H 530.677 -3.61663 1.07145 0
M  V30 5580 H 533.064 -2.92942 0.356253 0
M  V30 5581 H 533.145 -1.85586 1.76044 0
M  V30 5582 H 532.789 -3.86817 3.29143 0
M  V30 5583 H 532.719 -4.92654 1.86009 0
M  V30 5584 H 535.21 -3.37262 1.70478 0
M  V30 5585 H 535.523 -6.59227 4.03286 0
M  V30 5586 H 533.868 -5.93223 3.62093 0
M  V30 5587 H 537.059 -4.13894 2.18654 0
M  V30 5588 H 537.232 -5.60724 3.24796 0
M  V30 5589 N 530.638 -0.59345 -1.46 0
M  V30 5590 C 531.884 -0.0832754 -2.02629 0
M  V30 5591 C 532.217 1.27749 -1.46266 0
M  V30 5592 O 531.492 1.8395 -0.631866 0
M  V30 5593 C 531.775 -0.0290756 -3.60088 0
M  V30 5594 C 531.628 -1.41951 -4.26814 0
M  V30 5595 C 532.947 0.666055 -4.35031 0
M  V30 5596 H 530.066 -0.031736 -0.736316 0
M  V30 5597 H 532.708 -0.762711 -1.74019 0
M  V30 5598 H 530.858 0.549532 -3.84594 0
M  V30 5599 H 532.53 -2.04411 -4.13538 0
M  V30 5600 H 530.773 -1.98422 -3.8576 0
M  V30 5601 H 531.444 -1.33395 -5.3564 0
M  V30 5602 H 533.92 0.174401 -4.15734 0
M  V30 5603 H 532.796 0.673041 -5.44758 0
M  V30 5604 H 533.057 1.72946 -4.06869 0
M  V30 5605 N 532.116 1.54067 -0.331816 0
M  V30 5606 C 533.048 2.22139 0.564538 0
M  V30 5607 C 534.061 1.22408 1.07332 0
M  V30 5608 O 535.25 1.4883 0.985481 0
M  V30 5609 C 532.35 2.87876 1.78831 0
M  V30 5610 C 531.523 4.13817 1.41682 0
M  V30 5611 C 530.582 4.63072 2.49901 0
M  V30 5612 O 529.608 5.27562 2.13699 0
M  V30 5613 N 530.81 4.38001 3.80967 0
M  V30 5614 H 533.575 2.99694 -0.0183736 0
M  V30 5615 H 531.136 1.61153 -0.155396 0
M  V30 5616 H 533.128 3.17747 2.50637 0
M  V30 5617 H 531.698 2.13977 2.27887 0
M  V30 5618 H 530.918 3.9062 0.530044 0
M  V30 5619 H 532.206 4.95762 1.14443 0
M  V30 5620 H 531.604 3.864 4.13173 0
M  V30 5621 H 530.161 4.72507 4.48977 0
M  V30 5622 O 533.633 0.19963 1.60261 0
M  V30 5623 H 534.324 -0.384961 1.89836 0
M  V30 END ATOM
M  V30 BEGIN BOND
M  V30 END BOND
M  V30 END CTAB
M  END
$$$$
