drugbank_target|P49257 Protein ERGIC-53 (DB00025; DB13998; DB13999)
 OpenBabel12092120063D

  0  0  0     0  0            999 V3000
M  V30 BEGIN CTAB
M  V30 COUNTS 8022 8117 0 0 0
M  V30 BEGIN ATOM
M  V30 1 H -0.908 1.98254 -0.117106 0
M  V30 2 N 0 1.576 0 0
M  V30 3 C 0.933 2.03868 1.02534 0
M  V30 4 C 1.911 0.928543 1.3348 0
M  V30 5 O 3.095 1.19667 1.45644 0
M  V30 6 C 0.222 2.43627 2.35294 0
M  V30 7 C -0.732 3.65373 2.2001 0
M  V30 8 S 0.101 5.13292 1.52614 0
M  V30 9 C 1.257 5.56322 2.86805 0
M  V30 10 H 1.49 2.90518 0.631377 0
M  V30 11 H -0.977 1.52953 0.210867 0
M  V30 12 H 0.981 2.67203 3.11629 0
M  V30 13 H -0.358 1.57376 2.7183 0
M  V30 14 H -1.165 3.90944 3.18086 0
M  V30 15 H -1.563 3.418 1.51819 0
M  V30 16 H 0.729 5.58782 3.83104 0
M  V30 17 H 1.672 6.56266 2.65933 0
M  V30 18 H 2.08 4.83886 2.90714 0
M  V30 19 N 1.4781 -0.272755 1.55222 0
M  V30 20 C 2.4411 -1.32041 1.87344 0
M  V30 21 C 3.4411 -1.42342 0.74803 0
M  V30 22 O 4.6311 -1.41488 1.0162 0
M  V30 23 C 1.7631 -2.70173 2.07893 0
M  V30 24 H 2.9561 -1.04789 2.80997 0
M  V30 25 H 0.5091 -0.51083 1.47717 0
M  V30 26 H 1.2441 -3.02605 1.16622 0
M  V30 27 H 1.0291 -2.64082 2.89833 0
M  V30 28 H 2.5191 -3.45869 2.34017 0
M  V30 29 N 2.9562 -1.48159 -0.537278 0
M  V30 30 C 4.2042 -1.55497 -1.29094 0
M  V30 31 C 4.5252 -0.227454 -1.93669 0
M  V30 32 O 3.7952 0.750386 -1.80959 0
M  V30 33 H 2.3752 -0.572832 -0.47945 0
M  V30 34 H 5.0372 -1.84579 -0.625818 0
M  V30 35 H 4.1332 -2.33216 -2.07405 0
M  V30 36 N 4.4343 0.785586 -1.36625 0
M  V30 37 C 5.6593 1.57963 -1.34397 0
M  V30 38 C 6.0843 1.87964 0.071526 0
M  V30 39 O 5.4423 1.48182 1.0446 0
M  V30 40 C 5.4903 2.87511 -2.17646 0
M  V30 41 O 4.5943 3.81281 -1.57158 0
M  V30 42 H 3.9353 0.479014 -0.459828 0
M  V30 43 H 6.4653 0.973411 -1.79961 0
M  V30 44 H 6.4753 3.36745 -2.30362 0
M  V30 45 H 5.1503 2.65002 -3.20541 0
M  V30 46 H 3.7273 3.39885 -1.53403 0
M  V30 47 N 5.9124 1.20967 1.01018 0
M  V30 48 C 7.3284 0.965905 1.27053 0
M  V30 49 C 7.5284 -0.350785 1.98423 0
M  V30 50 O 6.5844 -1.07773 2.28344 0
M  V30 51 C 7.8974 2.15294 2.09926 0
M  V30 52 C 9.4454 2.19463 2.23171 0
M  V30 53 C 9.9204 3.3767 3.09424 0
M  V30 54 N 11.4114 3.37724 3.17012 0
M  V30 55 C 12.1464 4.25837 3.83993 0
M  V30 56 N 11.6424 5.24138 4.53047 0
M  V30 57 N 13.4354 4.1366 3.80581 0
M  V30 58 H 5.5864 2.0565 0.531194 0
M  V30 59 H 7.8494 0.90024 0.297106 0
M  V30 60 H 7.5554 3.10684 1.64828 0
M  V30 61 H 7.4294 2.13923 3.10672 0
M  V30 62 H 9.8164 1.24632 2.6749 0
M  V30 63 H 9.8974 2.2488 1.21912 0
M  V30 64 H 9.5414 4.32791 2.65808 0
M  V30 65 H 9.4714 3.29491 4.10784 0
M  V30 66 H 11.9624 2.6658 2.6785 0
M  V30 67 H 12.2754 5.87684 5.01844 0
M  V30 68 H 10.6204 5.28068 4.5185 0
M  V30 69 H 13.8114 3.36127 3.25785 0
M  V30 70 H 13.9844 4.82538 4.32505 0
M  V30 71 N 7.3905 -1.2043 1.01659 0
M  V30 72 C 8.3225 -2.22626 0.544988 0
M  V30 73 C 9.3355 -1.58479 -0.372609 0
M  V30 74 O 10.5245 -1.77679 -0.170958 0
M  V30 75 C 7.6245 -3.38141 -0.22663 0
M  V30 76 C 6.7975 -4.31877 0.692876 0
M  V30 77 C 5.8565 -5.26191 -0.0311616 0
M  V30 78 O 4.8825 -5.6612 0.591343 0
M  V30 79 N 6.0845 -5.65618 -1.30601 0
M  V30 80 H 8.8495 -2.63716 1.42388 0
M  V30 81 H 6.4105 -1.34971 0.894116 0
M  V30 82 H 8.4025 -3.98239 -0.72024 0
M  V30 83 H 6.9725 -2.95943 -1.00681 0
M  V30 84 H 6.1925 -3.69746 1.36679 0
M  V30 85 H 7.4805 -4.91426 1.31824 0
M  V30 86 H 6.8785 -5.3519 -1.83269 0
M  V30 87 H 5.4355 -6.28025 -1.74435 0
M  V30 88 N 8.8686 -0.792821 -1.36206 0
M  V30 89 C 10.2846 -0.474903 -1.52371 0
M  V30 90 C 10.4846 1.00622 -1.74578 0
M  V30 91 O 9.5406 1.79162 -1.77924 0
M  V30 92 C 10.8536 -1.3083 -2.70747 0
M  V30 93 C 12.4016 -1.30234 -2.84619 0
M  V30 94 C 12.8766 -2.11956 -4.06004 0
M  V30 95 N 14.3676 -2.09419 -4.13156 0
M  V30 96 C 15.1026 -2.69419 -5.06163 0
M  V30 97 N 14.5986 -3.3829 -6.04592 0
M  V30 98 N 16.3916 -2.59134 -4.98804 0
M  V30 99 H 8.5426 -1.75222 -1.20046 0
M  V30 100 H 10.8056 -0.745024 -0.586211 0
M  V30 101 H 10.5116 -2.35881 -2.6087 0
M  V30 102 H 10.3856 -0.95196 -3.6499 0
M  V30 103 H 12.7726 -0.259748 -2.93955 0
M  V30 104 H 12.8536 -1.69847 -1.91274 0
M  V30 105 H 12.4976 -3.16248 -3.97429 0
M  V30 106 H 12.4276 -1.69711 -4.98503 0
M  V30 107 H 14.9186 -1.59297 -3.42685 0
M  V30 108 H 15.2316 -3.81394 -6.7213 0
M  V30 109 H 13.5766 -3.42393 -6.04807 0
M  V30 110 H 16.7676 -2.04927 -4.20859 0
M  V30 111 H 16.9406 -3.06185 -5.711 0
M  V30 112 N 10.3467 1.47872 -0.545128 0
M  V30 113 C 11.5947 2.02093 -0.016553 0
M  V30 114 C 11.9157 1.42305 1.3332 0
M  V30 115 O 11.1857 0.593853 1.86682 0
M  V30 116 H 9.7657 0.746993 -0.00313038 0
M  V30 117 H 12.4277 1.81414 -0.712397 0
M  V30 118 H 11.5237 3.11996 0.0805422 0
M  V30 119 N 11.8248 0.280983 1.55075 0
M  V30 120 C 12.7548 -0.597469 2.25727 0
M  V30 121 C 13.7358 -1.15417 1.24952 0
M  V30 122 O 14.9208 -1.18722 1.53684 0
M  V30 123 C 12.0508 -1.7789 2.98283 0
M  V30 124 C 11.0048 -1.35347 4.06036 0
M  V30 125 C 10.3308 -2.61846 4.66198 0
M  V30 126 C 11.6308 -0.499354 5.19907 0
M  V30 127 H 13.3248 -0.00824265 2.99399 0
M  V30 128 H 10.8708 -0.0025244 1.44 0
M  V30 129 H 12.8238 -2.39937 3.46422 0
M  V30 130 H 11.5478 -2.39405 2.22155 0
M  V30 131 H 10.2068 -0.756156 3.58717 0
M  V30 132 H 9.8548 -3.21632 3.86732 0
M  V30 133 H 9.5548 -2.3409 5.38958 0
M  V30 134 H 11.0788 -3.24732 5.1709 0
M  V30 135 H 12.4928 -1.02498 5.64063 0
M  V30 136 H 10.8898 -0.316424 5.99265 0
M  V30 137 H 11.9598 0.480459 4.82514 0
M  V30 138 N 13.3029 -1.57598 0.00835791 0
M  V30 139 C 14.7189 -1.55764 -0.347822 0
M  V30 140 C 14.9189 -1.01186 -1.74252 0
M  V30 141 O 13.9749 -0.649371 -2.44007 0
M  V30 142 C 15.2879 -2.99927 -0.215407 0
M  V30 143 C 16.8359 -3.11656 -0.289725 0
M  V30 144 C 17.3109 -4.57621 -0.18634 0
M  V30 145 N 18.8019 -4.62557 -0.243978 0
M  V30 146 C 19.5369 -5.73094 -0.18745 0
M  V30 147 N 19.0329 -6.92753 -0.0810331 0
M  V30 148 N 20.8259 -5.61588 -0.239925 0
M  V30 149 H 12.9769 -1.91411 0.92062 0
M  V30 150 H 15.2399 -0.879562 0.353659 0
M  V30 151 H 14.9459 -3.43729 0.744512 0
M  V30 152 H 14.8199 -3.63865 -0.994097 0
M  V30 153 H 17.2069 -2.67779 -1.24009 0
M  V30 154 H 17.2879 -2.5048 0.51898 0
M  V30 155 H 16.9319 -5.02174 0.760519 0
M  V30 156 H 16.8619 -5.16752 -1.01364 0
M  V30 157 H 19.3529 -3.76481 -0.327217 0
M  V30 158 H 19.6659 -7.72787 -0.0440241 0
M  V30 159 H 18.0109 -6.94984 -0.0465419 0
M  V30 160 H 21.2019 -4.66996 -0.321317 0
M  V30 161 H 21.3749 -6.47714 -0.192407 0
M  V30 162 N 14.781 0.264519 -1.55364 0
M  V30 163 C 15.744 1.31046 -1.88042 0
M  V30 164 C 16.744 1.41943 -0.755569 0
M  V30 165 O 17.934 1.40947 -1.02369 0
M  V30 166 C 15.066 2.69067 -2.09323 0
M  V30 167 H 16.259 1.03297 -2.81549 0
M  V30 168 H 13.812 0.502989 -1.47986 0
M  V30 169 H 14.547 3.01982 -1.18226 0
M  V30 170 H 14.332 2.62542 -2.91229 0
M  V30 171 H 15.822 3.44623 -2.35848 0
M  V30 172 N 16.2591 1.48442 0.529413 0
M  V30 173 C 17.6751 1.34575 0.858004 0
M  V30 174 C 17.8751 0.3572 1.98309 0
M  V30 175 O 16.9311 -0.221379 2.51528 0
M  V30 176 C 18.2441 2.74617 1.22499 0
M  V30 177 C 19.7921 2.83109 1.33484 0
M  V30 178 C 20.2671 4.23854 1.73526 0
M  V30 179 N 21.7581 4.2653 1.80628 0
M  V30 180 C 22.4931 5.32372 2.12997 0
M  V30 181 N 21.9891 6.48491 2.43786 0
M  V30 182 N 23.7821 5.19766 2.14008 0
M  V30 183 H 15.9331 2.1133 -0.212925 0
M  V30 184 H 18.1961 0.947439 -0.0326199 0
M  V30 185 H 17.9021 3.4852 0.471905 0
M  V30 186 H 17.7761 3.08177 2.17501 0
M  V30 187 H 20.1631 2.09462 2.0787 0
M  V30 188 H 20.2441 2.53168 0.366027 0
M  V30 189 H 19.8881 4.98018 0.997013 0
M  V30 190 H 19.8181 4.5124 2.71459 0
M  V30 191 H 22.3091 3.42772 1.59108 0
M  V30 192 H 22.6221 7.24993 2.67592 0
M  V30 193 H 20.9671 6.51765 2.41304 0
M  V30 194 H 24.1581 4.28066 1.89412 0
M  V30 195 H 24.3311 6.02354 2.38902 0
M  V30 196 N 17.7372 -0.778329 1.37039 0
M  V30 197 C 18.9832 -1.53892 1.32079 0
M  V30 198 C 19.3162 -1.9396 -0.0965386 0
M  V30 199 O 18.5912 -1.63568 -1.05242 0
M  V30 200 C 18.8742 -2.80847 2.25382 0
M  V30 201 C 18.7272 -2.47076 3.75864 0
M  V30 202 C 20.0462 -3.82741 2.1725 0
M  V30 203 H 17.1652 -0.558303 0.48111 0
M  V30 204 H 19.8072 -0.893397 1.67685 0
M  V30 205 H 17.9572 -3.35931 1.95148 0
M  V30 206 H 19.6292 -1.97957 4.16666 0
M  V30 207 H 17.8722 -1.79863 3.94755 0
M  V30 208 H 18.5432 -3.37798 4.36574 0
M  V30 209 H 21.0192 -3.37133 2.43887 0
M  V30 210 H 19.8952 -4.69303 2.84686 0
M  V30 211 H 20.1562 -4.2652 1.16331 0
M  V30 212 N 19.2153 -1.21501 -1.00376 0
M  V30 213 C 20.6313 -0.972629 -1.26539 0
M  V30 214 C 20.8313 0.340257 -1.98606 0
M  V30 215 O 19.8873 1.06561 -2.28913 0
M  V30 216 C 21.2003 -2.16404 -2.08781 0
M  V30 217 C 22.7483 -2.20643 -2.22004 0
M  V30 218 C 23.2233 -3.39306 -3.07629 0
M  V30 219 N 24.7143 -3.39401 -3.15217 0
M  V30 220 C 25.4493 -4.27867 -3.81729 0
M  V30 221 N 24.9453 -5.26533 -4.5026 0
M  V30 222 N 26.7383 -4.15672 -3.78382 0
M  V30 223 H 18.8893 -2.05929 -0.520281 0
M  V30 224 H 21.1523 -0.901803 -0.292328 0
M  V30 225 H 20.8583 -3.11554 -1.63178 0
M  V30 226 H 20.7323 -2.15567 -3.09533 0
M  V30 227 H 23.1193 -1.26048 -2.66825 0
M  V30 228 H 23.2003 -2.25523 -1.20718 0
M  V30 229 H 22.8443 -4.34195 -2.63509 0
M  V30 230 H 22.7743 -3.31665 -4.09031 0
M  V30 231 H 25.2653 -2.67997 -2.66432 0
M  V30 232 H 25.5783 -5.90337 -4.98721 0
M  V30 233 H 23.9233 -5.30457 -4.49044 0
M  V30 234 H 27.1143 -3.3785 -3.23998 0
M  V30 235 H 27.2873 -4.84825 -4.2994 0
M  V30 236 N 20.6934 1.19889 -1.02296 0
M  V30 237 C 22.1044 1.71124 -0.746568 0
M  V30 238 C 22.4554 1.81939 0.734335 0
M  V30 239 O 21.5804 1.48639 1.57275 0
M  V30 240 C 22.1754 3.10804 -1.34857 0
M  V30 241 C 20.7344 3.59323 -1.1209 0
M  V30 242 C 19.8814 2.3635 -1.45031 0
M  V30 243 H 22.8324 1.04813 -1.19163 0
M  V30 244 H 22.8534 3.73186 -0.742437 0
M  V30 245 H 22.3654 3.029 -2.42638 0
M  V30 246 H 20.4664 3.7255 -0.0610337 0
M  V30 247 H 20.5794 4.4378 -1.80544 0
M  V30 248 H 18.9434 2.39399 -0.869487 0
M  V30 249 H 19.7264 2.31081 -2.53883 0
M  V30 250 N 22.1715 0.800033 1.35784 0
M  V30 251 C 23.1015 0.220184 2.3246 0
M  V30 252 C 24.0825 -0.65073 1.57161 0
M  V30 253 O 25.2675 -0.582359 1.85263 0
M  V30 254 C 22.3975 -0.637353 3.41402 0
M  V30 255 C 21.3515 0.134531 4.27789 0
M  V30 256 C 20.6775 -0.844285 5.27992 0
M  V30 257 C 21.9775 1.32979 5.05088 0
M  V30 258 H 23.6715 1.02787 2.81203 0
M  V30 259 H 21.2175 0.495717 1.35199 0
M  V30 260 H 23.1705 -1.05302 4.08031 0
M  V30 261 H 21.8945 -1.47785 2.91251 0
M  V30 262 H 20.5535 0.531296 3.6273 0
M  V30 263 H 20.2015 -1.68011 4.74111 0
M  V30 264 H 19.9015 -0.332184 5.8666 0
M  V30 265 H 21.4255 -1.2583 5.97494 0
M  V30 266 H 22.8395 0.98934 5.64699 0
M  V30 267 H 21.2365 1.77593 5.7322 0
M  V30 268 H 22.3065 2.11978 4.36111 0
M  V30 269 N 23.6496 -1.47581 0.552962 0
M  V30 270 C 24.8966 -2.02482 0.0273243 0
M  V30 271 C 25.2246 -1.42776 -1.32081 0
M  V30 272 O 24.4796 -0.571393 -1.87173 0
M  V30 273 C 24.7786 -3.57199 -0.119728 0
M  V30 274 C 24.4446 -4.35804 1.15697 0
M  V30 275 C 23.1066 -4.57 1.50681 0
M  V30 276 C 25.4586 -4.81167 2.00319 0
M  V30 277 C 22.7866 -5.20807 2.70142 0
M  V30 278 C 25.1386 -5.46293 3.18978 0
M  V30 279 C 23.8026 -5.65722 3.54281 0
M  V30 280 H 23.0726 -0.740933 0.00999866 0
M  V30 281 H 25.7196 -1.77302 0.72362 0
M  V30 282 H 24.0246 -3.81348 -0.89896 0
M  V30 283 H 25.7216 -3.97324 -0.541718 0
M  V30 284 H 22.3116 -4.19582 0.874561 0
M  V30 285 H 26.4956 -4.64574 1.74599 0
M  V30 286 H 21.7516 -5.34045 2.97668 0
M  V30 287 H 25.9256 -5.80407 3.84838 0
M  V30 288 H 23.5526 -6.14936 4.46942 0
M  V30 289 N 25.1277 -0.289203 -1.54924 0
M  V30 290 C 26.3677 0.324536 -2.01807 0
M  V30 291 C 26.7317 1.5199 -1.17316 0
M  V30 292 O 27.9327 2.20422 -1.53843 0
M  V30 293 C 26.2037 0.683578 -3.50802 0
M  V30 294 S 27.7627 1.28185 -4.19659 0
M  V30 295 H 24.5807 0.100236 -0.703899 0
M  V30 296 H 27.1827 -0.414325 -1.91059 0
M  V30 297 H 25.8867 -0.195073 -4.09936 0
M  V30 298 H 25.4177 1.45354 -3.65562 0
M  V30 299 H 27.4327 2.57006 -4.24456 0
M  V30 300 N 26.6058 1.57591 -0.0167156 0
M  V30 301 C 27.5688 2.08393 0.954204 0
M  V30 302 C 28.5688 0.996531 1.26198 0
M  V30 303 O 29.7588 1.25858 1.20438 0
M  V30 304 C 26.8908 2.5394 2.27436 0
M  V30 305 H 28.0838 2.95455 0.514451 0
M  V30 306 H 25.6368 1.54582 0.231089 0
M  V30 307 H 26.3718 1.70171 2.76066 0
M  V30 308 H 26.1568 3.33371 2.06412 0
M  V30 309 H 27.6468 2.93512 2.97053 0
M  V30 310 N 28.0839 -0.256276 1.55502 0
M  V30 311 C 29.0139 -1.32102 1.92539 0
M  V30 312 C 29.9949 -1.50684 0.789194 0
M  V30 313 O 31.1799 -1.63449 1.04872 0
M  V30 314 C 28.3099 -2.67752 2.21192 0
M  V30 315 C 27.2639 -2.63878 3.36975 0
M  V30 316 C 26.5899 -4.03236 3.51147 0
M  V30 317 C 27.8899 -2.21682 4.72921 0
M  V30 318 H 29.5839 -1.01351 2.81724 0
M  V30 319 H 27.1299 -0.486105 1.35547 0
M  V30 320 H 29.0829 -3.42365 2.45691 0
M  V30 321 H 27.8069 -3.0012 1.28824 0
M  V30 322 H 26.4659 -1.91722 3.12471 0
M  V30 323 H 26.1139 -4.32854 2.56216 0
M  V30 324 H 25.8139 -4.01535 4.29003 0
M  V30 325 H 27.3379 -4.79563 3.77957 0
M  V30 326 H 28.7519 -2.86023 4.96854 0
M  V30 327 H 27.1489 -2.3111 5.53812 0
M  V30 328 H 28.2189 -1.16833 4.70615 0
M  V30 329 N 29.562 -1.4872 -0.521534 0
M  V30 330 C 30.492 -1.66771 -1.63431 0
M  V30 331 C 31.473 -0.516499 -1.62069 0
M  V30 332 O 32.658 -0.750013 -1.79132 0
M  V30 333 C 29.788 -1.71515 -3.01993 0
M  V30 334 C 28.742 -2.86222 -3.18216 0
M  V30 335 C 28.068 -2.76061 -4.57924 0
M  V30 336 C 29.368 -4.27419 -3.00184 0
M  V30 337 H 31.062 -2.59932 -1.48579 0
M  V30 338 H 28.608 -1.25089 -0.713358 0
M  V30 339 H 30.561 -1.82731 -3.7972 0
M  V30 340 H 29.285 -0.749393 -3.17886 0
M  V30 341 H 27.944 -2.74575 -2.42908 0
M  V30 342 H 27.592 -1.77437 -4.70665 0
M  V30 343 H 27.292 -3.53037 -4.69722 0
M  V30 344 H 28.816 -2.89256 -5.37739 0
M  V30 345 H 30.23 -4.39855 -3.67697 0
M  V30 346 H 28.627 -5.05458 -3.2347 0
M  V30 347 H 29.697 -4.43293 -1.96518 0
M  V30 348 N 31.0401 0.771051 -1.3745 0
M  V30 349 C 31.9701 1.89827 -1.3597 0
M  V30 350 C 32.9511 1.68562 -0.228216 0
M  V30 351 O 34.1361 1.8941 -0.428675 0
M  V30 352 C 31.2661 3.2712 -1.16662 0
M  V30 353 C 30.2201 3.6295 -2.2683 0
M  V30 354 C 29.5461 4.98791 -1.92644 0
M  V30 355 C 30.8461 3.69627 -3.69017 0
M  V30 356 H 32.5401 1.91323 -2.30295 0
M  V30 357 H 30.0861 0.919082 -1.10855 0
M  V30 358 H 32.0391 4.05615 -1.14256 0
M  V30 359 H 30.7631 3.26059 -0.187926 0
M  V30 360 H 29.4221 2.86763 -2.28392 0
M  V30 361 H 29.0701 4.94271 -0.933021 0
M  V30 362 H 28.7701 5.23733 -2.66416 0
M  V30 363 H 30.2941 5.79685 -1.91826 0
M  V30 364 H 31.7081 4.38273 -3.69581 0
M  V30 365 H 30.1051 4.06067 -4.41848 0
M  V30 366 H 31.1751 2.70273 -4.02592 0
M  V30 367 N 32.5182 1.22032 0.997298 0
M  V30 368 C 33.7432 1.06921 1.77715 0
M  V30 369 C 34.1682 -0.376226 1.84299 0
M  V30 370 O 33.5262 -1.27165 1.29223 0
M  V30 371 C 33.5742 1.67996 3.19076 0
M  V30 372 O 32.6782 0.930653 4.01762 0
M  V30 373 H 32.0192 0.375814 0.547412 0
M  V30 374 H 34.5492 1.61737 1.25309 0
M  V30 375 H 34.5592 1.72538 3.69723 0
M  V30 376 H 33.2342 2.73182 3.13599 0
M  V30 377 H 31.8112 0.960917 3.60307 0
M  V30 378 N 33.9963 -1.19345 1.0293 0
M  V30 379 C 34.9263 -2.2481 0.631105 0
M  V30 380 C 35.9073 -1.66245 -0.360104 0
M  V30 381 O 37.0923 -1.92677 -0.242726 0
M  V30 382 C 34.2223 -3.47295 -0.0184607 0
M  V30 383 C 33.1763 -4.18536 0.895073 0
M  V30 384 C 32.5023 -5.34586 0.110592 0
M  V30 385 C 33.8023 -4.73287 2.209 0
M  V30 386 H 35.4963 -2.58372 1.51275 0
M  V30 387 H 33.0423 -1.24194 0.728818 0
M  V30 388 H 34.9953 -4.20268 -0.308675 0
M  V30 389 H 33.7193 -3.12933 -0.934907 0
M  V30 390 H 32.3783 -3.47446 1.16949 0
M  V30 391 H 32.0263 -4.96469 -0.807902 0
M  V30 392 H 31.7263 -5.83183 0.719087 0
M  V30 393 H 33.2503 -6.10355 -0.172871 0
M  V30 394 H 34.6643 -5.38013 1.98028 0
M  V30 395 H 33.0613 -5.32373 2.76946 0
M  V30 396 H 34.1313 -3.91331 2.86336 0
M  V30 397 N 35.4744 -0.807222 -1.35358 0
M  V30 398 C 36.7224 -0.387122 -1.98358 0
M  V30 399 C 37.0434 1.04942 -1.64354 0
M  V30 400 O 36.3134 1.72615 -0.926339 0
M  V30 401 H 34.8934 -0.140154 -0.733734 0
M  V30 402 H 37.5554 -1.0332 -1.6526 0
M  V30 403 H 36.6514 -0.493352 -3.08176 0
M  V30 404 N 36.9525 1.47285 -0.560781 0
M  V30 405 C 38.3685 1.58065 -0.22081 0
M  V30 406 C 38.5685 1.55892 1.27671 0
M  V30 407 O 37.6245 1.46422 2.0571 0
M  V30 408 C 38.9375 2.88418 -0.850625 0
M  V30 409 C 40.4855 3.02009 -0.822184 0
M  V30 410 C 40.9605 4.35066 -1.43113 0
M  V30 411 N 42.4515 4.41711 -1.39448 0
M  V30 412 C 43.1865 5.43237 -1.83525 0
M  V30 413 N 42.6825 6.51555 -2.35474 0
M  V30 414 N 44.4755 5.34304 -1.74574 0
M  V30 415 H 36.6265 1.46941 -1.53369 0
M  V30 416 H 38.8895 0.699558 -0.639783 0
M  V30 417 H 38.5955 2.95755 -1.9032 0
M  V30 418 H 38.4695 3.75612 -0.345773 0
M  V30 419 H 40.8565 2.94266 0.221714 0
M  V30 420 H 40.9375 2.16347 -1.36483 0
M  V30 421 H 40.5815 4.43565 -2.47412 0
M  V30 422 H 40.5115 5.19465 -0.863899 0
M  V30 423 H 43.0025 3.64027 -1.01452 0
M  V30 424 H 43.3155 7.25203 -2.67021 0
M  V30 425 H 41.6605 6.52435 -2.39487 0
M  V30 426 H 44.8515 4.48581 -1.33763 0
M  V30 427 H 45.0245 6.13288 -2.09242 0
M  V30 428 N 38.4306 0.297415 1.54768 0
M  V30 429 C 39.6776 -0.312913 2.00068 0
M  V30 430 C 40.0056 -1.54171 1.18582 0
M  V30 431 O 39.2606 -1.94108 0.249133 0
M  V30 432 C 39.5596 -0.717561 3.50123 0
M  V30 433 C 39.2256 0.409095 4.4904 0
M  V30 434 C 37.8876 0.718399 4.75807 0
M  V30 435 C 40.2396 1.16717 5.07963 0
M  V30 436 C 37.5676 1.78896 5.5876 0
M  V30 437 C 39.9196 2.22762 5.92081 0
M  V30 438 C 38.5836 2.54303 6.1716 0
M  V30 439 H 37.8536 -0.114503 0.7321 0
M  V30 440 H 40.5006 0.415767 1.86932 0
M  V30 441 H 38.8056 -1.52627 3.60849 0
M  V30 442 H 40.5026 -1.20091 3.82595 0
M  V30 443 H 37.0926 0.157918 4.28309 0
M  V30 444 H 41.2766 0.941466 4.87289 0
M  V30 445 H 36.5326 2.0381 5.7643 0
M  V30 446 H 40.7066 2.81962 6.36765 0
M  V30 447 H 38.3336 3.3739 6.81229 0
M  V30 448 N 39.9087 -1.5758 0.0250728 0
M  V30 449 C 41.1547 -1.91917 -0.655413 0
M  V30 450 C 41.4877 -0.901433 -1.72011 0
M  V30 451 O 40.7627 0.0764069 -1.9435 0
M  V30 452 C 41.0457 -3.36751 -1.27558 0
M  V30 453 C 40.8987 -4.49258 -0.220719 0
M  V30 454 C 42.2177 -3.81469 -2.19475 0
M  V30 455 H 39.3367 -0.697925 -0.23679 0
M  V30 456 H 41.9787 -1.89825 0.0815036 0
M  V30 457 H 40.1287 -3.38664 -1.90365 0
M  V30 458 H 41.8007 -4.59478 0.409601 0
M  V30 459 H 40.0437 -4.31415 0.454264 0
M  V30 460 H 40.7147 -5.47618 -0.694175 0
M  V30 461 H 43.1907 -3.81266 -1.66659 0
M  V30 462 H 42.0667 -4.83512 -2.59822 0
M  V30 463 H 42.3277 -3.16744 -3.08424 0
M  V30 464 N 41.3868 0.248026 -1.55636 0
M  V30 465 C 42.8028 0.596483 -1.48035 0
M  V30 466 C 43.0028 1.88386 -0.715039 0
M  V30 467 O 42.0588 2.51319 -0.243944 0
M  V30 468 C 43.3718 0.700258 -2.92433 0
M  V30 469 C 44.9198 0.792659 -3.02797 0
M  V30 470 C 45.3948 0.928005 -4.485 0
M  V30 471 N 46.8858 0.992903 -4.52433 0
M  V30 472 C 47.6208 1.11687 -5.62418 0
M  V30 473 N 47.1168 1.20645 -6.82214 0
M  V30 474 N 48.9098 1.14994 -5.50212 0
M  V30 475 H 41.0608 -0.597109 -2.03834 0
M  V30 476 H 43.3238 -0.205925 -0.925364 0
M  V30 477 H 43.0298 -0.175658 -3.51261 0
M  V30 478 H 42.9038 1.57255 -3.42857 0
M  V30 479 H 45.2908 1.65903 -2.4405 0
M  V30 480 H 45.3718 -0.104762 -2.55585 0
M  V30 481 H 45.0158 0.0661971 -5.07857 0
M  V30 482 H 44.9458 1.84045 -4.93391 0
M  V30 483 H 47.4368 0.935064 -3.66149 0
M  V30 484 H 47.7498 1.30008 -7.61786 0
M  V30 485 H 46.0948 1.17605 -6.84977 0
M  V30 486 H 49.2858 1.07643 -4.55555 0
M  V30 487 H 49.4588 1.24311 -6.35965 0
M  V30 488 N 42.8649 1.48995 0.513639 0
M  V30 489 C 44.1129 1.57531 1.26604 0
M  V30 490 C 44.4339 0.258236 1.93283 0
M  V30 491 O 43.7039 -0.721502 1.8213 0
M  V30 492 H 42.2839 0.580387 0.470276 0
M  V30 493 H 44.9459 1.85552 0.596373 0
M  V30 494 H 44.0419 2.36486 2.03669 0
M  V30 495 N 44.343 -0.763751 1.37857 0
M  V30 496 C 45.62 -1.51244 1.24035 0
M  V30 497 C 46 -2.10472 -0.162649 0
M  V30 498 O 45.348 -1.96206 -1.17112 0
M  V30 499 C 45.558 -2.58694 2.34261 0
M  V30 500 C 46.906 -3.25878 2.72193 0
M  V30 501 O 47.93 -2.68993 2.33497 0
M  V30 502 O 46.789 -4.2874 3.38887 0
M  V30 503 H 43.883 -0.670243 0.484462 0
M  V30 504 H 46.429 -0.800031 1.49658 0
M  V30 505 H 45.201 -2.13105 3.2818 0
M  V30 506 H 44.824 -3.37527 2.10146 0
M  V30 507 N 45.8211 -1.22559 -0.990812 0
M  V30 508 C 47.0691 -1.04933 -1.72724 0
M  V30 509 C 47.3901 0.416158 -1.90508 0
M  V30 510 O 46.6601 1.29918 -1.46622 0
M  V30 511 H 45.2401 -0.385296 -0.639965 0
M  V30 512 H 47.9021 -1.54105 -1.19322 0
M  V30 513 H 46.9981 -1.52886 -2.72089 0
M  V30 514 N 47.2992 1.18797 -1.03562 0
M  V30 515 C 48.5452 1.8893 -0.737113 0
M  V30 516 C 48.8782 1.79837 0.732956 0
M  V30 517 O 48.1532 1.19525 1.5344 0
M  V30 518 C 48.4362 3.39607 -1.19745 0
M  V30 519 C 48.2892 3.57537 -2.72924 0
M  V30 520 C 49.6082 4.33069 -0.783526 0
M  V30 521 H 46.7272 0.686057 -0.269249 0
M  V30 522 H 49.3692 1.39797 -1.28673 0
M  V30 523 H 47.5192 3.81583 -0.729855 0
M  V30 524 H 49.1912 3.24688 -3.27682 0
M  V30 525 H 47.4342 3.00363 -3.12993 0
M  V30 526 H 48.1052 4.63238 -3.00191 0
M  V30 527 H 50.5812 3.98846 -1.18581 0
M  V30 528 H 49.4572 5.3707 -1.13343 0
M  V30 529 H 49.7182 4.40986 0.313681 0
M  V30 530 N 48.7773 0.814389 1.34928 0
M  V30 531 C 50.0253 0.397636 1.9815 0
M  V30 532 C 50.3463 -1.04069 1.64908 0
M  V30 533 O 49.6163 -1.72121 0.93548 0
M  V30 534 H 48.1963 0.144043 0.732981 0
M  V30 535 H 50.8583 1.04195 1.6471 0
M  V30 536 H 49.9543 0.509688 3.0791 0
M  V30 537 N 50.2554 -1.46986 0.568584 0
M  V30 538 C 51.5034 -2.02041 0.0487022 0
M  V30 539 C 51.8244 -1.44408 -1.31039 0
M  V30 540 O 51.0944 -0.623477 -1.85714 0
M  V30 541 H 49.6744 -0.746849 0.015014 0
M  V30 542 H 52.3364 -1.80257 0.741168 0
M  V30 543 H 51.4324 -3.12085 -0.0308961 0
M  V30 544 N 51.7335 -0.305618 -1.54608 0
M  V30 545 C 53.0105 0.355652 -1.92339 0
M  V30 546 C 53.3905 1.71324 -1.23335 0
M  V30 547 O 52.7385 2.25473 -0.370702 0
M  V30 548 C 52.9485 0.46572 -3.45879 0
M  V30 549 C 54.2965 0.734426 -4.182 0
M  V30 550 O 55.3205 0.54935 -3.51938 0
M  V30 551 O 54.1795 1.09024 -5.35515 0
M  V30 552 H 51.2735 0.199666 -0.802535 0
M  V30 553 H 53.8195 -0.354017 -1.65966 0
M  V30 554 H 52.5915 -0.488461 -3.88239 0
M  V30 555 H 52.2145 1.22367 -3.78301 0
M  V30 556 N 53.2116 1.57565 -0.0334293 0
M  V30 557 C 54.6226 1.79746 0.504798 0
M  V30 558 C 54.9736 0.944091 1.71992 0
M  V30 559 O 54.0986 0.155694 2.15839 0
M  V30 560 C 54.6936 3.25997 0.922567 0
M  V30 561 C 53.2526 3.49159 1.40588 0
M  V30 562 C 52.3996 2.74785 0.372633 0
M  V30 563 H 55.3506 1.56565 -0.259436 0
M  V30 564 H 55.3716 3.35945 1.78666 0
M  V30 565 H 54.8836 3.88081 0.0379825 0
M  V30 566 H 52.9846 2.92332 2.31025 0
M  V30 567 H 53.0976 4.57873 1.41028 0
M  V30 568 H 51.4616 2.40391 0.841672 0
M  V30 569 H 52.2446 3.39587 -0.503559 0
M  V30 570 N 54.6897 -0.239769 1.55765 0
M  V30 571 C 55.6527 -1.28038 1.90103 0
M  V30 572 C 56.6527 -1.40723 0.778055 0
M  V30 573 O 57.8427 -1.39301 1.04599 0
M  V30 574 C 54.9747 -2.65702 2.13577 0
M  V30 575 H 56.1677 -0.988048 2.83157 0
M  V30 576 H 53.7207 -0.479382 1.48767 0
M  V30 577 H 54.4557 -3.00063 1.23015 0
M  V30 578 H 54.2407 -2.57875 2.95369 0
M  V30 579 H 55.7307 -3.40828 2.41301 0
M  V30 580 N 56.1678 -1.49265 -0.50573 0
M  V30 581 C 57.4138 -1.58748 -1.26202 0
M  V30 582 C 57.7468 -0.271227 -1.92297 0
M  V30 583 O 57.0218 0.724831 -1.80489 0
M  V30 584 C 57.3048 -2.74332 -2.33268 0
M  V30 585 C 57.1578 -4.15737 -1.71705 0
M  V30 586 C 58.4768 -2.85576 -3.34865 0
M  V30 587 H 55.5958 -0.577826 -0.457478 0
M  V30 588 H 58.2378 -1.81532 -0.560897 0
M  V30 589 H 56.3878 -2.55036 -2.93068 0
M  V30 590 H 58.0598 -4.46537 -1.15769 0
M  V30 591 H 56.3028 -4.21605 -1.02135 0
M  V30 592 H 56.9738 -4.92477 -2.49341 0
M  V30 593 H 59.4498 -3.03127 -2.8505 0
M  V30 594 H 58.3258 -3.68135 -4.07146 0
M  V30 595 H 58.5868 -1.94732 -3.96903 0
M  V30 596 N 57.6459 0.756429 -1.3826 0
M  V30 597 C 58.6089 1.85176 -1.35065 0
M  V30 598 C 59.6089 1.58818 -0.251703 0
M  V30 599 O 60.7989 1.66615 -0.508433 0
M  V30 600 C 57.9309 3.22596 -1.10201 0
M  V30 601 H 59.1239 1.89417 -2.3251 0
M  V30 602 H 56.6769 0.95783 -1.23512 0
M  V30 603 H 57.4119 3.24025 -0.133504 0
M  V30 604 H 57.1969 3.43122 -1.89762 0
M  V30 605 H 58.6869 4.02673 -1.10654 0
M  V30 606 N 59.124 1.23083 0.984299 0
M  V30 607 C 60.054 1.03292 2.09411 0
M  V30 608 C 61.035 -0.048923 1.7003 0
M  V30 609 O 62.22 0.114967 1.93859 0
M  V30 610 C 59.35 0.619155 3.41736 0
M  V30 611 C 58.304 1.64791 3.95004 0
M  V30 612 C 57.63 1.0897 5.23478 0
M  V30 613 C 58.93 3.03999 4.24714 0
M  V30 614 H 60.624 1.96119 2.26225 0
M  V30 615 H 58.17 0.944344 1.08711 0
M  V30 616 H 60.123 0.467777 4.18796 0
M  V30 617 H 58.847 -0.344786 3.24775 0
M  V30 618 H 57.506 1.78721 3.20085 0
M  V30 619 H 57.154 0.11686 5.02864 0
M  V30 620 H 56.854 1.77704 5.60085 0
M  V30 621 H 58.378 0.950093 6.03163 0
M  V30 622 H 59.792 2.93393 4.92538 0
M  V30 623 H 58.189 3.69936 4.72512 0
M  V30 624 H 59.259 3.53285 3.32142 0
M  V30 625 N 60.6021 -1.18246 1.0419 0
M  V30 626 C 62.0131 -1.69914 0.773698 0
M  V30 627 C 62.3641 -1.83085 -0.705297 0
M  V30 628 O 61.4891 -1.51123 -1.5489 0
M  V30 629 C 62.0841 -3.08619 1.39784 0
M  V30 630 C 60.6431 -3.57494 1.17792 0
M  V30 631 C 59.7901 -2.34013 1.48773 0
M  V30 632 H 62.7411 -1.02904 1.20816 0
M  V30 633 H 62.7621 -3.71958 0.801714 0
M  V30 634 H 62.2741 -2.99001 2.47426 0
M  V30 635 H 60.3751 -3.72406 0.120295 0
M  V30 636 H 60.4881 -4.40852 1.87581 0
M  V30 637 H 58.8521 -2.37986 0.907463 0
M  V30 638 H 59.6351 -2.27013 2.57527 0
M  V30 639 N 62.0802 -0.821533 -1.34494 0
M  V30 640 C 63.0302 -0.214793 -2.26986 0
M  V30 641 C 64.0142 0.620125 -1.4847 0
M  V30 642 O 65.2062 0.474933 -1.70509 0
M  V30 643 C 62.3352 0.623566 -3.37589 0
M  V30 644 C 61.4212 -0.221904 -4.23519 0
M  V30 645 N 61.8122 -1.29223 -4.89014 0
M  V30 646 C 60.1102 -0.00600922 -4.46 0
M  V30 647 C 60.8112 -1.80965 -5.52835 0
M  V30 648 N 59.7872 -1.11376 -5.32068 0
M  V30 649 H 63.5892 -1.03354 -2.75128 0
M  V30 650 H 61.1032 -0.6642 -1.48196 0
M  V30 651 H 63.1002 1.0744 -4.02818 0
M  V30 652 H 61.7602 1.44049 -2.90998 0
M  V30 653 H 62.7712 -1.67502 -4.90065 0
M  V30 654 H 59.4482 0.77886 -4.10171 0
M  V30 655 H 60.8382 -2.70502 -6.15043 0
M  V30 656 N 63.5583 1.46682 -0.576371 0
M  V30 657 C 64.9743 1.57822 -0.237562 0
M  V30 658 C 65.1743 1.57237 1.26011 0
M  V30 659 O 64.2303 1.48596 2.04146 0
M  V30 660 C 65.5433 2.87499 -0.881168 0
M  V30 661 C 67.0913 3.01119 -0.85417 0
M  V30 662 C 67.5663 4.33524 -1.4772 0
M  V30 663 N 69.0573 4.40207 -1.44125 0
M  V30 664 C 69.7923 5.4126 -1.89276 0
M  V30 665 N 69.2883 6.49021 -2.42371 0
M  V30 666 N 71.0813 5.32422 -1.80231 0
M  V30 667 H 63.2323 1.45306 -1.54919 0
M  V30 668 H 65.4953 0.692733 -0.647167 0
M  V30 669 H 65.2013 2.9372 -1.93447 0
M  V30 670 H 65.0753 3.75224 -0.385592 0
M  V30 671 H 67.4623 2.94485 0.190491 0
M  V30 672 H 67.5433 2.14887 -1.3877 0
M  V30 673 H 67.1873 4.40916 -2.52103 0
M  V30 674 H 67.1173 5.1852 -0.918947 0
M  V30 675 H 69.6083 3.62931 -1.05307 0
M  V30 676 H 69.9213 7.2233 -2.74698 0
M  V30 677 H 68.2663 6.49858 -2.46393 0
M  V30 678 H 71.4573 4.47137 -1.38514 0
M  V30 679 H 71.6303 6.11034 -2.15735 0
M  V30 680 N 65.0364 0.313813 1.54444 0
M  V30 681 C 66.4524 -0.0391619 1.59552 0
M  V30 682 C 66.6524 -1.51322 1.33056 0
M  V30 683 O 65.7084 -2.26782 1.11022 0
M  V30 684 C 67.0214 0.370302 2.98411 0
M  V30 685 C 68.5694 0.320139 3.11358 0
M  V30 686 C 69.0444 0.704617 4.52547 0
M  V30 687 N 70.5354 0.657645 4.58508 0
M  V30 688 C 71.2704 0.927453 5.6585 0
M  V30 689 N 70.7664 1.26389 6.81174 0
M  V30 690 N 72.5594 0.853662 5.5558 0
M  V30 691 H 64.7104 1.27433 1.69925 0
M  V30 692 H 66.9734 0.517511 0.794284 0
M  V30 693 H 66.6794 1.39694 3.22767 0
M  V30 694 H 66.5534 -0.269619 3.76235 0
M  V30 695 H 68.9404 -0.697275 2.86744 0
M  V30 696 H 69.0214 0.99486 2.35661 0
M  V30 697 H 68.6654 1.7199 4.77893 0
M  V30 698 H 68.5954 0.00768843 5.26599 0
M  V30 699 H 71.0864 0.409067 3.75679 0
M  V30 700 H 71.3994 1.4554 7.58972 0
M  V30 701 H 69.7444 1.30206 6.82694 0
M  V30 702 H 72.9354 0.590383 4.64362 0
M  V30 703 H 73.1084 1.0673 6.3915 0
M  V30 704 N 66.5145 -1.57545 0.0417849 0
M  V30 705 C 67.7615 -1.92317 -0.634082 0
M  V30 706 C 68.0895 -0.919334 -1.71402 0
M  V30 707 O 67.3445 0.0698253 -1.95575 0
M  V30 708 C 67.6435 -3.33794 -1.27735 0
M  V30 709 C 67.3095 -4.49716 -0.326543 0
M  V30 710 C 65.9715 -4.81156 -0.0648814 0
M  V30 711 C 68.3235 -5.20182 0.325623 0
M  V30 712 C 65.6515 -5.80414 0.856539 0
M  V30 713 C 68.0035 -6.20424 1.23518 0
M  V30 714 C 66.6675 -6.50298 1.5056 0
M  V30 715 H 65.9375 -0.703736 -0.232027 0
M  V30 716 H 68.5845 -1.91205 0.106259 0
M  V30 717 H 66.8895 -3.31228 -2.09274 0
M  V30 718 H 68.5865 -3.57975 -1.80707 0
M  V30 719 H 65.1765 -4.25176 -0.540665 0
M  V30 720 H 69.3605 -4.96112 0.136546 0
M  V30 721 H 64.6165 -6.019 1.07363 0
M  V30 722 H 68.7905 -6.74141 1.74664 0
M  V30 723 H 66.4175 -7.27025 2.22123 0
M  V30 724 N 67.9926 0.231505 -1.5589 0
M  V30 725 C 68.9026 1.308 -1.94752 0
M  V30 726 C 69.9186 1.51826 -0.849989 0
M  V30 727 O 71.0946 1.6515 -1.15271 0
M  V30 728 C 68.1596 2.63968 -2.24771 0
M  V30 729 C 67.2206 2.51331 -3.48039 0
M  V30 730 C 66.4536 3.78148 -3.76616 0
M  V30 731 O 66.6766 4.80722 -3.07022 0
M  V30 732 O 65.6106 3.75857 -4.70123 0
M  V30 733 H 69.4366 1.0083 -2.86474 0
M  V30 734 H 67.0216 0.433547 -1.42971 0
M  V30 735 H 68.9036 3.42633 -2.45318 0
M  V30 736 H 67.5786 2.9364 -1.36225 0
M  V30 737 H 66.4856 1.709 -3.32782 0
M  V30 738 H 67.8186 2.26601 -4.36936 0
M  V30 739 N 69.4707 1.49531 0.497807 0
M  V30 740 C 70.7007 1.62657 1.27382 0
M  V30 741 C 71.1087 0.298488 1.86831 0
M  V30 742 O 70.4517 -0.72647 1.68725 0
M  V30 743 C 70.5137 2.6393 2.44093 0
M  V30 744 C 70.1777 4.08195 2.05489 0
M  V30 745 C 71.1747 4.949 1.59279 0
M  V30 746 C 68.8597 4.53948 2.15026 0
M  V30 747 C 70.8537 6.25397 1.23113 0
M  V30 748 C 68.5407 5.84458 1.78473 0
M  V30 749 C 69.5387 6.70006 1.32591 0
M  V30 750 O 69.2267 7.98083 0.965327 0
M  V30 751 H 68.9587 0.550429 0.392434 0
M  V30 752 H 71.5127 1.96325 0.603801 0
M  V30 753 H 69.7427 2.25449 3.14181 0
M  V30 754 H 71.4317 2.66552 3.06113 0
M  V30 755 H 72.1977 4.60779 1.51354 0
M  V30 756 H 68.0767 3.87525 2.4969 0
M  V30 757 H 71.6207 6.92125 0.872299 0
M  V30 758 H 67.5177 6.18107 1.86048 0
M  V30 759 H 68.2857 8.11122 1.09652 0
M  V30 760 N 70.9488 -0.749086 1.3866 0
M  V30 761 C 71.8958 -1.86291 1.36251 0
M  V30 762 C 72.8658 -1.64578 0.224347 0
M  V30 763 O 74.0508 -1.86181 0.417279 0
M  V30 764 C 71.1908 -3.23644 1.19786 0
M  V30 765 C 70.3038 -3.57158 2.43027 0
M  V30 766 C 69.4388 -4.83838 2.19258 0
M  V30 767 C 68.4778 -5.10152 3.38247 0
M  V30 768 N 67.6148 -6.28029 3.13884 0
M  V30 769 H 72.4548 -1.87685 2.3147 0
M  V30 770 H 69.9918 -0.917287 1.14997 0
M  V30 771 H 71.9498 -4.0291 1.08254 0
M  V30 772 H 70.5798 -3.21566 0.282031 0
M  V30 773 H 69.6318 -2.72701 2.65214 0
M  V30 774 H 70.9438 -3.7253 3.31697 0
M  V30 775 H 70.0978 -5.71057 2.04888 0
M  V30 776 H 68.8368 -4.70614 1.2796 0
M  V30 777 H 67.8418 -4.21401 3.53131 0
M  V30 778 H 69.0668 -5.25271 4.30427 0
M  V30 779 H 67.0128 -6.1612 2.25238 0
M  V30 780 H 66.9298 -6.43922 3.96106 0
M  V30 781 H 68.1978 -7.18124 3.03179 0
M  V30 782 N 72.4269 -1.23603 -0.977757 0
M  V30 783 C 73.6569 -1.09487 -1.75203 0
M  V30 784 C 74.0649 0.356321 -1.85814 0
M  V30 785 O 73.4079 1.25816 -1.33851 0
M  V30 786 C 73.4699 -1.64905 -3.19447 0
M  V30 787 C 73.1339 -3.13688 -3.32338 0
M  V30 788 C 74.1309 -4.10953 -3.18455 0
M  V30 789 C 71.8159 -3.53449 -3.56902 0
M  V30 790 C 73.8099 -5.45962 -3.28944 0
M  V30 791 C 71.4969 -4.88602 -3.6703 0
M  V30 792 C 72.4949 -5.84668 -3.53062 0
M  V30 793 O 72.1829 -7.17365 -3.62826 0
M  V30 794 H 71.9149 -0.38367 -0.556573 0
M  V30 795 H 74.4689 -1.6398 -1.23693 0
M  V30 796 H 72.6989 -1.04835 -3.72218 0
M  V30 797 H 74.3879 -1.46226 -3.78646 0
M  V30 798 H 75.1539 -3.81577 -2.99372 0
M  V30 799 H 71.0329 -2.79188 -3.66844 0
M  V30 800 H 74.5769 -6.20925 -3.17958 0
M  V30 801 H 70.4739 -5.17653 -3.85623 0
M  V30 802 H 71.2419 -7.2515 -3.79605 0
M  V30 803 N 73.905 1.17692 -1.04816 0
M  V30 804 C 75.13 1.92327 -0.776207 0
M  V30 805 C 75.555 1.76082 0.661581 0
M  V30 806 O 74.913 1.076 1.45917 0
M  V30 807 C 74.961 3.41539 -1.15687 0
M  V30 808 O 74.065 4.11402 -0.286775 0
M  V30 809 H 73.406 0.599735 -0.284981 0
M  V30 810 H 75.936 1.49201 -1.4 0
M  V30 811 H 75.946 3.92269 -1.12202 0
M  V30 812 H 74.621 3.52684 -2.20425 0
M  V30 813 H 73.198 3.70939 -0.381903 0
M  V30 814 N 75.3831 0.828654 1.34056 0
M  V30 815 C 76.6301 0.419458 1.98108 0
M  V30 816 C 76.9581 -1.01886 1.65679 0
M  V30 817 O 76.2131 -1.72539 0.923512 0
M  V30 818 C 76.5121 0.575226 3.52741 0
M  V30 819 C 76.1781 1.98012 4.05095 0
M  V30 820 C 74.8401 2.36442 4.19104 0
M  V30 821 C 77.1921 2.89824 4.33188 0
M  V30 822 C 74.5201 3.66009 4.58535 0
M  V30 823 C 76.8721 4.1886 4.74066 0
M  V30 824 C 75.5361 4.5726 4.86281 0
M  V30 825 H 74.8061 0.153491 0.724929 0
M  V30 826 H 77.4531 1.05371 1.59904 0
M  V30 827 H 75.7581 -0.142385 3.91541 0
M  V30 828 H 77.4551 0.239057 4.00287 0
M  V30 829 H 74.0451 1.67162 3.94658 0
M  V30 830 H 78.2291 2.61375 4.21897 0
M  V30 831 H 73.4851 3.95579 4.66184 0
M  V30 832 H 77.6591 4.90086 4.94761 0
M  V30 833 H 75.2861 5.57707 5.16592 0
M  V30 834 N 76.8612 -1.46375 0.584142 0
M  V30 835 C 77.8082 -2.30323 -0.148286 0
M  V30 836 C 78.7782 -1.40703 -0.882713 0
M  V30 837 O 79.9632 -1.69651 -0.873099 0
M  V30 838 C 77.1032 -3.25196 -1.15507 0
M  V30 839 C 76.2162 -4.29915 -0.423943 0
M  V30 840 C 75.3512 -5.11914 -1.41838 0
M  V30 841 C 74.3902 -6.08381 -0.673736 0
M  V30 842 N 73.5272 -6.83242 -1.6163 0
M  V30 843 H 78.3672 -2.92427 0.573644 0
M  V30 844 H 75.9042 -1.44118 0.294703 0
M  V30 845 H 77.8622 -3.78646 -1.75166 0
M  V30 846 H 76.4922 -2.64898 -1.8447 0
M  V30 847 H 75.5442 -3.7931 0.287714 0
M  V30 848 H 76.8562 -4.98549 0.158128 0
M  V30 849 H 76.0102 -5.69648 -2.08773 0
M  V30 850 H 74.7492 -4.43243 -2.03438 0
M  V30 851 H 73.7542 -5.49799 0.00938483 0
M  V30 852 H 74.9792 -6.79071 -0.0631082 0
M  V30 853 H 72.9252 -6.1728 -2.22038 0
M  V30 854 H 72.8422 -7.48144 -1.08707 0
M  V30 855 H 74.1102 -7.45534 -2.27596 0
M  V30 856 N 78.3393 -0.321999 -1.54275 0
M  V30 857 C 79.5873 0.280489 -2.00144 0
M  V30 858 C 79.9083 1.52777 -1.21178 0
M  V30 859 O 79.1783 1.9338 -0.313187 0
M  V30 860 H 77.7583 0.106632 -0.73935 0
M  V30 861 H 80.4203 -0.438184 -1.8991 0
M  V30 862 H 79.5163 0.537972 -3.07428 0
M  V30 863 N 79.8174 1.5752 -0.0501392 0
M  V30 864 C 81.2284 1.80271 0.485705 0
M  V30 865 C 81.5794 0.96228 1.70981 0
M  V30 866 O 80.7044 0.178578 2.15662 0
M  V30 867 C 81.2994 3.26957 0.887938 0
M  V30 868 C 79.8584 3.5063 1.36877 0
M  V30 869 C 79.0054 2.75165 0.343468 0
M  V30 870 H 81.9564 1.56281 -0.276028 0
M  V30 871 H 81.9774 3.37821 1.75093 0
M  V30 872 H 81.4894 3.881 -0.0031809 0
M  V30 873 H 79.5904 2.94766 2.27911 0
M  V30 874 H 79.7034 4.59343 1.36164 0
M  V30 875 H 78.0674 2.4127 0.816128 0
M  V30 876 H 78.8504 3.39034 -0.539548 0
M  V30 877 N 81.2955 -0.223234 1.56011 0
M  V30 878 C 82.2455 -1.28008 1.88674 0
M  V30 879 C 83.2295 -1.42369 0.749663 0
M  V30 880 O 84.4215 -1.45212 1.01205 0
M  V30 881 C 81.5505 -2.63084 2.20548 0
M  V30 882 C 80.6365 -2.52632 3.40643 0
M  V30 883 N 81.0275 -2.11829 4.59306 0
M  V30 884 C 79.3255 -2.83594 3.44224 0
M  V30 885 C 80.0265 -2.12587 5.41463 0
M  V30 886 N 79.0025 -2.5301 4.81131 0
M  V30 887 H 82.8045 -0.955487 2.77935 0
M  V30 888 H 80.3185 -0.431801 1.56554 0
M  V30 889 H 82.3155 -3.39385 2.42122 0
M  V30 890 H 80.9755 -2.96391 1.32599 0
M  V30 891 H 81.9865 -1.82988 4.84496 0
M  V30 892 H 78.6635 -3.21284 2.66614 0
M  V30 893 H 80.0535 -1.83179 6.46448 0
M  V30 894 N 82.7736 -1.49793 -0.48987 0
M  V30 895 C 83.7036 -1.70201 -1.59856 0
M  V30 896 C 84.6846 -0.55076 -1.60937 0
M  V30 897 O 85.8696 -0.787841 -1.77501 0
M  V30 898 C 82.9996 -1.77882 -2.98287 0
M  V30 899 C 81.9536 -2.92907 -3.12073 0
M  V30 900 C 81.2796 -2.85712 -4.51965 0
M  V30 901 C 82.5796 -4.3369 -2.91051 0
M  V30 902 H 84.2736 -2.63025 -1.43032 0
M  V30 903 H 81.8196 -1.26574 -0.686664 0
M  V30 904 H 83.7726 -1.90744 -3.75759 0
M  V30 905 H 82.4966 -0.816653 -3.16225 0
M  V30 906 H 81.1556 -2.79665 -2.37029 0
M  V30 907 H 80.8036 -1.8738 -4.66795 0
M  V30 908 H 80.5036 -3.62921 -4.62128 0
M  V30 909 H 82.0276 -3.00598 -5.31482 0
M  V30 910 H 83.4416 -4.47555 -3.58284 0
M  V30 911 H 81.8386 -5.12205 -3.12675 0
M  V30 912 H 82.9086 -4.47362 -1.87071 0
M  V30 913 N 84.2517 0.741722 -1.39055 0
M  V30 914 C 85.4977 1.50336 -1.36113 0
M  V30 915 C 85.8307 1.94148 0.0450796 0
M  V30 916 O 85.1057 1.66301 1.00868 0
M  V30 917 C 85.3887 2.74773 -2.32749 0
M  V30 918 C 85.2417 2.37023 -3.82283 0
M  V30 919 C 86.5607 3.76846 -2.27322 0
M  V30 920 H 83.6797 0.545351 -0.495743 0
M  V30 921 H 86.3217 0.848624 -1.69995 0
M  V30 922 H 84.4717 3.30639 -2.03986 0
M  V30 923 H 86.1437 1.8684 -4.21768 0
M  V30 924 H 84.3867 1.69334 -3.99385 0
M  V30 925 H 85.0577 3.26104 -4.45376 0
M  V30 926 H 87.5337 3.30548 -2.5274 0
M  V30 927 H 86.4097 4.6159 -2.97028 0
M  V30 928 H 86.6707 4.23286 -1.27599 0
M  V30 929 N 85.7298 1.2412 0.971189 0
M  V30 930 C 86.6618 0.988349 2.06795 0
M  V30 931 C 87.6748 -0.0409541 1.62748 0
M  V30 932 O 88.8638 0.195673 1.77424 0
M  V30 933 C 85.9638 0.469023 3.35639 0
M  V30 934 C 85.1368 1.56065 4.08611 0
M  V30 935 C 84.1958 1.04458 5.15728 0
M  V30 936 O 83.2218 1.73553 5.42096 0
M  V30 937 N 84.4238 -0.122817 5.8037 0
M  V30 938 H 87.1888 1.93265 2.29061 0
M  V30 939 H 84.7498 1.15102 1.13856 0
M  V30 940 H 86.7418 0.108613 4.04554 0
M  V30 941 H 85.3118 -0.380919 3.1027 0
M  V30 942 H 84.5318 2.09341 3.34021 0
M  V30 943 H 85.8198 2.29449 4.54126 0
M  V30 944 H 85.2178 -0.700563 5.61345 0
M  V30 945 H 83.7748 -0.424404 6.50417 0
M  V30 946 N 87.2079 -1.17134 1.05439 0
M  V30 947 C 88.4329 -1.91913 0.786396 0
M  V30 948 C 88.8579 -1.7643 -0.652234 0
M  V30 949 O 88.2159 -1.08372 -1.45345 0
M  V30 950 C 88.2639 -3.40921 1.17497 0
M  V30 951 O 87.3679 -4.11244 0.308589 0
M  V30 952 H 86.7089 -0.598215 0.288158 0
M  V30 953 H 89.2389 -1.48457 1.4079 0
M  V30 954 H 89.2489 -3.91668 1.14281 0
M  V30 955 H 87.9239 -3.5151 2.22292 0
M  V30 956 H 86.5009 -3.70731 0.40157 0
M  V30 957 N 88.686 -0.835752 -1.33615 0
M  V30 958 C 89.963 -0.352017 -1.92406 0
M  V30 959 C 90.343 1.16225 -1.76224 0
M  V30 960 O 89.691 1.97526 -1.14873 0
M  V30 961 C 89.901 -0.795485 -3.39813 0
M  V30 962 C 91.249 -0.801703 -4.16963 0
M  V30 963 O 92.273 -0.738889 -3.48452 0
M  V30 964 O 91.132 -0.886607 -5.3926 0
M  V30 965 H 88.226 -0.0989641 -0.821057 0
M  V30 966 H 90.772 -0.921397 -1.42507 0
M  V30 967 H 89.544 -1.83795 -3.45449 0
M  V30 968 H 89.167 -0.202505 -3.97084 0
M  V30 969 N 90.1641 1.46063 -0.591896 0
M  V30 970 C 91.4121 2.01938 -0.0808391 0
M  V30 971 C 91.7331 1.46475 1.28725 0
M  V30 972 O 91.0031 0.652944 1.84698 0
M  V30 973 H 89.5831 0.746516 -0.0268938 0
M  V30 974 H 92.2451 1.79055 -0.769752 0
M  V30 975 H 91.3411 3.12094 -0.0187578 0
M  V30 976 N 91.6422 0.330177 1.54103 0
M  V30 977 C 92.8702 -0.272179 2.05102 0
M  V30 978 C 93.2852 -1.45267 1.20595 0
M  V30 979 O 92.6422 -1.8094 0.238144 0
M  V30 980 C 92.6932 -0.70023 3.54653 0
M  V30 981 O 92.4142 0.433301 4.35952 0
M  V30 982 C 93.9152 -1.3647 4.21771 0
M  V30 983 H 91.1352 -0.0549159 0.668749 0
M  V30 984 H 93.6792 0.478285 1.98828 0
M  V30 985 H 91.8342 -1.40066 3.61193 0
M  V30 986 H 92.2482 0.0947539 5.24414 0
M  V30 987 H 93.7222 -1.61509 5.27843 0
M  V30 988 H 94.1992 -2.31409 3.73292 0
M  V30 989 H 94.8052 -0.706675 4.19388 0
M  V30 990 N 93.1203 -1.57491 0.0584922 0
M  V30 991 C 94.3663 -1.93264 -0.614558 0
M  V30 992 C 94.6993 -0.937717 -1.7006 0
M  V30 993 O 93.9743 0.0351652 -1.94468 0
M  V30 994 C 94.2573 -3.3938 -1.20386 0
M  V30 995 C 94.1103 -4.49625 -0.125375 0
M  V30 996 C 95.4293 -3.86039 -2.11334 0
M  V30 997 H 92.5483 -0.702791 -0.221933 0
M  V30 998 H 95.1903 -1.8961 0.12175 0
M  V30 999 H 93.3403 -3.42626 -1.83139 0
M  V30 1000 H 95.0123 -4.58506 0.506971 0
M  V30 1001 H 93.2553 -4.30354 0.545672 0
M  V30 1002 H 93.9263 -5.48967 -0.577861 0
M  V30 1003 H 96.4023 -3.84716 -1.58534 0
M  V30 1004 H 95.2783 -4.88914 -2.49507 0
M  V30 1005 H 95.5393 -3.23215 -3.01636 0
M  V30 1006 N 94.5984 0.214957 -1.56127 0
M  V30 1007 C 96.0094 0.781386 -1.69562 0
M  V30 1008 C 96.3604 1.84707 -0.66165 0
M  V30 1009 O 95.4854 2.156 0.185927 0
M  V30 1010 C 96.0804 1.42411 -3.07416 0
M  V30 1011 C 94.6394 1.93786 -3.22683 0
M  V30 1012 C 93.7864 0.800438 -2.65496 0
M  V30 1013 H 96.7374 -0.00980633 -1.58697 0
M  V30 1014 H 96.7584 2.29309 -3.0364 0
M  V30 1015 H 96.2704 0.64826 -3.82648 0
M  V30 1016 H 94.3714 2.74152 -2.52332 0
M  V30 1017 H 94.4844 2.1133 -4.29973 0
M  V30 1018 H 92.8484 1.2095 -2.2415 0
M  V30 1019 H 93.6314 0.0371471 -3.4328 0
M  V30 1020 N 96.0765 1.50051 0.48192 0
M  V30 1021 C 97.3235 1.60498 1.23477 0
M  V30 1022 C 97.6515 0.300331 1.92167 0
M  V30 1023 O 96.9065 -0.713094 1.82246 0
M  V30 1024 C 97.2055 2.72717 2.30998 0
M  V30 1025 C 96.8715 4.13572 1.79636 0
M  V30 1026 C 95.5335 4.519 1.65348 0
M  V30 1027 C 97.8855 5.01649 1.41412 0
M  V30 1028 C 95.2135 5.76057 1.11244 0
M  V30 1029 C 97.5655 6.26343 0.887538 0
M  V30 1030 C 96.2295 6.63483 0.731207 0
M  V30 1031 H 95.4995 0.587303 0.451836 0
M  V30 1032 H 98.1465 1.83948 0.532468 0
M  V30 1033 H 96.4515 2.43312 3.07094 0
M  V30 1034 H 98.1485 2.78006 2.88988 0
M  V30 1035 H 94.7385 3.83329 1.91721 0
M  V30 1036 H 98.9225 4.72679 1.51289 0
M  V30 1037 H 94.1785 6.03516 0.978686 0
M  V30 1038 H 98.3525 6.93958 0.582654 0
M  V30 1039 H 95.9795 7.59568 0.309806 0
M  V30 1040 N 97.5546 -0.734337 1.39446 0
M  V30 1041 C 98.8006 -1.49505 1.37913 0
M  V30 1042 C 99.1556 -1.92384 -0.0248416 0
M  V30 1043 O 98.4486 -1.6395 -0.991506 0
M  V30 1044 C 98.6426 -2.74711 2.28623 0
M  V30 1045 C 98.4716 -2.44075 3.777 0
M  V30 1046 C 97.2416 -2.36338 4.46623 0
M  V30 1047 C 99.4396 -2.09574 4.69663 0
M  V30 1048 N 97.4216 -1.9818 5.81032 0
M  V30 1049 C 98.7926 -1.81865 5.92727 0
M  V30 1050 C 100.848 -1.96048 4.57678 0
M  V30 1051 C 99.5506 -1.41992 7.05146 0
M  V30 1052 C 101.577 -1.57579 5.7002 0
M  V30 1053 C 100.939 -1.30754 6.92158 0
M  V30 1054 H 97.0376 -0.545896 0.55993 0
M  V30 1055 H 99.6216 -0.853373 1.75002 0
M  V30 1056 H 97.7926 -3.36657 1.93692 0
M  V30 1057 H 99.5246 -3.40916 2.18078 0
M  V30 1058 H 96.2796 -2.53456 4.00071 0
M  V30 1059 H 96.7036 -1.81691 6.52163 0
M  V30 1060 H 101.346 -2.15455 3.63784 0
M  V30 1061 H 99.0636 -1.21327 7.9894 0
M  V30 1062 H 102.65 -1.47718 5.62735 0
M  V30 1063 H 101.53 -1.01432 7.77612 0
M  V30 1064 N 99.0327 -1.24633 -0.964593 0
M  V30 1065 C 99.9957 -1.0424 -2.04124 0
M  V30 1066 C 100.996 0.00137563 -1.608 0
M  V30 1067 O 102.186 -0.239883 -1.7254 0
M  V30 1068 C 99.3177 -0.580588 -3.3592 0
M  V30 1069 H 100.511 -1.99803 -2.23649 0
M  V30 1070 H 98.0637 -1.06899 -1.14027 0
M  V30 1071 H 98.7987 0.3781 -3.22088 0
M  V30 1072 H 98.5837 -1.33398 -3.6871 0
M  V30 1073 H 100.074 -0.459034 -4.15069 0
M  V30 1074 N 100.511 1.16574 -1.06058 0
M  V30 1075 C 101.461 2.18854 -0.63929 0
M  V30 1076 C 102.445 1.57505 0.328798 0
M  V30 1077 O 103.637 1.76408 0.144623 0
M  V30 1078 C 100.766 3.43291 -0.0247203 0
M  V30 1079 C 99.8518 4.11722 -1.01716 0
M  V30 1080 N 100.243 4.55841 -2.19186 0
M  V30 1081 C 98.5408 4.37872 -0.847569 0
M  V30 1082 C 99.2418 5.08751 -2.82042 0
M  V30 1083 N 98.2178 5.01489 -2.09784 0
M  V30 1084 H 102.02 2.5068 -1.53417 0
M  V30 1085 H 99.5338 1.32999 -0.931935 0
M  V30 1086 H 101.531 4.15856 0.294915 0
M  V30 1087 H 100.191 3.12954 0.865448 0
M  V30 1088 H 101.202 4.49649 -2.56975 0
M  V30 1089 H 97.8788 4.17499 -0.00918848 0
M  V30 1090 H 99.2688 5.52944 -3.81709 0
M  V30 1091 N 101.989 0.842826 1.3317 0
M  V30 1092 C 102.952 0.284065 2.27433 0
M  V30 1093 C 103.952 -0.54948 1.5112 0
M  V30 1094 O 105.142 -0.362699 1.70382 0
M  V30 1095 C 102.274 -0.599384 3.35589 0
M  V30 1096 H 103.467 1.11589 2.78366 0
M  V30 1097 H 101.02 0.616221 1.4364 0
M  V30 1098 H 101.755 -1.45349 2.89904 0
M  V30 1099 H 101.54 -0.00291266 3.921 0
M  V30 1100 H 103.03 -0.983488 4.05854 0
M  V30 1101 N 103.467 -1.45747 0.599634 0
M  V30 1102 C 104.715 -2.01893 0.0915472 0
M  V30 1103 C 105.036 -1.47155 -1.27946 0
M  V30 1104 O 104.306 -0.66273 -1.84349 0
M  V30 1105 H 102.886 -0.746363 0.0308524 0
M  V30 1106 H 105.548 -1.78645 0.779237 0
M  V30 1107 H 104.644 -3.1208 0.0353086 0
M  V30 1108 N 104.945 -0.338344 -1.53925 0
M  V30 1109 C 105.893 0.536231 -2.26335 0
M  V30 1110 C 106.887 1.1063 -1.28286 0
M  V30 1111 O 108.093 1.05264 -1.46012 0
M  V30 1112 H 104.468 0.191602 -0.727181 0
M  V30 1113 H 106.439 -0.0965747 -2.98244 0
M  V30 1114 C 105.188 1.67803 -3.04528 0
M  V30 1115 H 104.511 1.24864 -3.79801 0
M  V30 1116 H 105.951 2.26526 -3.58416 0
M  V30 1117 C 104.41 2.60439 -2.13712 0
M  V30 1118 O 104.94 3.6255 -1.72975 0
M  V30 1119 N 103.146 2.29006 -1.78898 0
M  V30 1120 H 102.693 1.46011 -2.12223 0
M  V30 1121 H 102.651 2.91248 -1.18416 0
M  V30 1122 N 106.423 1.57458 -0.0668435 0
M  V30 1123 C 107.386 2.11323 0.887422 0
M  V30 1124 C 108.386 1.03618 1.22964 0
M  V30 1125 O 109.576 1.29626 1.16373 0
M  V30 1126 C 106.708 2.61048 2.19242 0
M  V30 1127 H 107.901 2.96942 0.420194 0
M  V30 1128 H 105.454 1.55239 0.181793 0
M  V30 1129 H 106.189 1.78868 2.70512 0
M  V30 1130 H 105.974 3.39769 1.95702 0
M  V30 1131 H 107.464 3.02814 2.87565 0
M  V30 1132 N 107.901 -0.206675 1.56239 0
M  V30 1133 C 109.15 -0.926964 1.79138 0
M  V30 1134 C 109.463 -1.84901 0.638043 0
M  V30 1135 O 110.669 -2.60906 0.751033 0
M  V30 1136 C 109.125 -1.6986 3.17294 0
M  V30 1137 C 108.733 -0.821956 4.40395 0
M  V30 1138 C 110.477 -2.40922 3.4951 0
M  V30 1139 C 108.384 -1.59179 5.69575 0
M  V30 1140 H 107.314 -0.349864 0.667915 0
M  V30 1141 H 109.965 -0.180487 1.8261 0
M  V30 1142 H 108.347 -2.48853 3.08039 0
M  V30 1143 H 109.521 -0.0715019 4.60745 0
M  V30 1144 H 107.836 -0.222741 4.15804 0
M  V30 1145 H 110.433 -2.99047 4.43255 0
M  V30 1146 H 110.776 -3.14542 2.72707 0
M  V30 1147 H 111.309 -1.68905 3.60161 0
M  V30 1148 H 108.048 -0.898589 6.49312 0
M  V30 1149 H 107.568 -2.31648 5.53262 0
M  V30 1150 H 109.247 -2.14862 6.10281 0
M  V30 1151 N 109.379 -1.50304 -0.473955 0
M  V30 1152 C 110.79 -1.54042 -1.0549 0
M  V30 1153 C 111.141 -0.342248 -1.93192 0
M  V30 1154 O 110.266 0.545157 -2.09421 0
M  V30 1155 C 110.861 -2.79152 -1.91989 0
M  V30 1156 C 109.42 -2.8558 -2.45196 0
M  V30 1157 C 108.567 -2.48295 -1.2347 0
M  V30 1158 H 111.518 -1.5661 -0.256693 0
M  V30 1159 H 111.539 -2.60845 -2.7702 0
M  V30 1160 H 111.051 -3.66339 -1.28131 0
M  V30 1161 H 109.152 -2.02738 -3.12615 0
M  V30 1162 H 109.265 -3.88403 -2.80499 0
M  V30 1163 H 107.629 -2.00669 -1.56856 0
M  V30 1164 H 108.412 -3.37787 -0.612789 0
M  V30 1165 N 110.857 0.726932 -1.39834 0
M  V30 1166 C 112.082 1.52121 -1.40976 0
M  V30 1167 C 112.507 1.88098 -0.00826029 0
M  V30 1168 O 111.865 1.52479 0.980807 0
M  V30 1169 C 111.913 2.78021 -2.29644 0
M  V30 1170 O 111.017 3.74272 -1.73188 0
M  V30 1171 H 110.358 0.45908 -0.479731 0
M  V30 1172 H 112.888 0.896207 -1.83927 0
M  V30 1173 H 112.898 3.26671 -2.44438 0
M  V30 1174 H 111.573 2.51169 -3.31492 0
M  V30 1175 H 110.15 3.33073 -1.6768 0
M  V30 1176 N 112.336 1.25143 0.95797 0
M  V30 1177 C 113.561 1.12521 1.74223 0
M  V30 1178 C 113.986 -0.317402 1.85403 0
M  V30 1179 O 113.344 -1.2299 1.33204 0
M  V30 1180 C 113.392 1.78062 3.1357 0
M  V30 1181 O 112.496 1.058 3.98598 0
M  V30 1182 H 111.837 0.39304 0.535178 0
M  V30 1183 H 114.367 1.65641 1.201 0
M  V30 1184 H 114.377 1.84213 3.64046 0
M  V30 1185 H 113.052 2.83021 3.04749 0
M  V30 1186 H 111.629 1.07506 3.57067 0
M  V30 1187 N 113.814 -1.1601 1.06675 0
M  V30 1188 C 115.091 -1.82679 0.699114 0
M  V30 1189 C 115.471 -1.94559 -0.819137 0
M  V30 1190 O 114.819 -1.49169 -1.73092 0
M  V30 1191 C 115.029 -3.19445 1.40555 0
M  V30 1192 C 116.377 -3.95171 1.55323 0
M  V30 1193 O 117.401 -3.28976 1.36577 0
M  V30 1194 O 116.26 -5.13833 1.86112 0
M  V30 1195 H 113.354 -0.788954 0.247951 0
M  V30 1196 H 115.9 -1.23179 1.16726 0
M  V30 1197 H 114.672 -3.05856 2.44065 0
M  V30 1198 H 114.295 -3.86625 0.927733 0
M  V30 1199 N 115.292 -0.849877 -1.32721 0
M  V30 1200 C 116.224 -0.248332 -2.27851 0
M  V30 1201 C 117.237 0.577218 -1.52224 0
M  V30 1202 O 118.426 0.402489 -1.73903 0
M  V30 1203 C 115.526 0.668107 -3.32249 0
M  V30 1204 C 114.699 -0.120534 -4.37234 0
M  V30 1205 C 113.758 0.720932 -5.21238 0
M  V30 1206 O 112.784 0.156166 -5.68986 0
M  V30 1207 N 113.986 2.03647 -5.43607 0
M  V30 1208 H 116.751 -1.06575 -2.80111 0
M  V30 1209 H 114.312 -0.709395 -1.45531 0
M  V30 1210 H 116.304 1.23627 -3.85355 0
M  V30 1211 H 114.874 1.38621 -2.80184 0
M  V30 1212 H 114.094 -0.870108 -3.84477 0
M  V30 1213 H 115.382 -0.662406 -5.0447 0
M  V30 1214 H 114.78 2.51871 -5.06535 0
M  V30 1215 H 113.337 2.55287 -5.99727 0
M  V30 1216 N 116.77 1.45427 -0.607355 0
M  V30 1217 C 118.019 2.01452 -0.100036 0
M  V30 1218 C 118.332 1.48159 1.27704 0
M  V30 1219 O 119.538 1.96159 1.87707 0
M  V30 1220 C 117.994 3.59672 -0.128158 0
M  V30 1221 C 117.602 4.21962 -1.50507 0
M  V30 1222 C 119.346 4.23262 0.323932 0
M  V30 1223 C 117.253 5.72333 -1.48959 0
M  V30 1224 H 116.183 0.75325 -0.0336299 0
M  V30 1225 H 118.834 1.66901 -0.76265 0
M  V30 1226 H 117.216 3.91411 0.601105 0
M  V30 1227 H 118.39 4.01796 -2.25602 0
M  V30 1228 H 116.705 3.70565 -1.89923 0
M  V30 1229 H 119.302 5.33522 0.354691 0
M  V30 1230 H 119.645 3.93921 1.34656 0
M  V30 1231 H 120.178 3.96239 -0.352056 0
M  V30 1232 H 116.917 6.06373 -2.48981 0
M  V30 1233 H 116.437 5.94691 -0.781214 0
M  V30 1234 H 118.116 6.35525 -1.21313 0
M  V30 1235 N 118.248 0.346503 1.53744 0
M  V30 1236 C 119.664 -0.00530975 1.59599 0
M  V30 1237 C 119.864 -1.48465 1.36236 0
M  V30 1238 O 118.92 -2.24376 1.15808 0
M  V30 1239 C 120.233 0.433516 2.97559 0
M  V30 1240 C 121.781 0.386111 3.10609 0
M  V30 1241 C 122.256 0.800451 4.50951 0
M  V30 1242 N 123.747 0.754753 4.5701 0
M  V30 1243 C 124.482 1.04727 5.63755 0
M  V30 1244 N 123.978 1.4081 6.7834 0
M  V30 1245 N 125.771 0.971316 5.53644 0
M  V30 1246 H 117.922 1.31009 1.67184 0
M  V30 1247 H 120.185 0.534242 0.783128 0
M  V30 1248 H 119.891 1.46509 3.19731 0
M  V30 1249 H 119.765 -0.189753 3.76722 0
M  V30 1250 H 122.152 -0.636295 2.88158 0
M  V30 1251 H 122.233 1.04462 2.33498 0
M  V30 1252 H 121.877 1.82088 4.74137 0
M  V30 1253 H 121.807 0.119386 5.26465 0
M  V30 1254 H 124.298 0.488662 3.74727 0
M  V30 1255 H 124.611 1.61607 7.55714 0
M  V30 1256 H 122.956 1.44657 6.79779 0
M  V30 1257 H 126.147 0.688748 4.63005 0
M  V30 1258 H 126.32 1.20263 6.36742 0
M  V30 1259 N 119.726 -1.57421 0.075193 0
M  V30 1260 C 120.972 -1.93905 -0.594025 0
M  V30 1261 C 121.305 -0.955701 -1.69056 0
M  V30 1262 O 120.58 0.0145373 -1.94495 0
M  V30 1263 C 120.863 -3.40638 -1.1678 0
M  V30 1264 C 120.716 -4.49733 -0.0776792 0
M  V30 1265 C 122.035 -3.88259 -2.07228 0
M  V30 1266 H 119.154 -0.705105 -0.214466 0
M  V30 1267 H 121.796 -1.8947 0.141854 0
M  V30 1268 H 119.946 -3.44549 -1.79494 0
M  V30 1269 H 121.618 -4.57942 0.555573 0
M  V30 1270 H 119.861 -4.29751 0.591286 0
M  V30 1271 H 120.532 -5.49549 -0.519603 0
M  V30 1272 H 123.008 -3.86376 -1.54445 0
M  V30 1273 H 121.884 -4.91533 -2.44308 0
M  V30 1274 H 122.145 -3.26396 -2.98191 0
M  V30 1275 N 121.204 0.198386 -1.56346 0
M  V30 1276 C 122.167 1.22952 -1.93431 0
M  V30 1277 C 123.167 1.38611 -0.815092 0
M  V30 1278 O 124.357 1.36479 -1.08255 0
M  V30 1279 C 121.489 2.59946 -2.20546 0
M  V30 1280 H 122.682 0.912626 -2.85677 0
M  V30 1281 H 120.235 0.43977 -1.49986 0
M  V30 1282 H 120.97 2.96696 -1.30927 0
M  V30 1283 H 120.755 2.49953 -3.02102 0
M  V30 1284 H 122.245 3.3431 -2.50253 0
M  V30 1285 N 122.682 1.50554 0.465978 0
M  V30 1286 C 124.093 1.54599 1.04671 0
M  V30 1287 C 124.444 0.352488 1.93008 0
M  V30 1288 O 123.569 -0.534044 2.09707 0
M  V30 1289 C 124.164 2.80166 1.90505 0
M  V30 1290 C 122.723 2.86876 2.43678 0
M  V30 1291 C 121.87 2.48947 1.22151 0
M  V30 1292 H 124.821 1.56744 0.248384 0
M  V30 1293 H 124.842 2.62311 2.75633 0
M  V30 1294 H 124.354 3.67013 1.26186 0
M  V30 1295 H 122.455 2.04393 3.11536 0
M  V30 1296 H 122.568 3.89885 2.78436 0
M  V30 1297 H 120.932 2.01498 1.5579 0
M  V30 1298 H 121.715 3.38107 0.594866 0
M  V30 1299 N 124.16 -0.719506 1.40217 0
M  V30 1300 C 125.385 -1.51371 1.4178 0
M  V30 1301 C 125.81 -1.88091 0.0182355 0
M  V30 1302 O 125.168 -1.52997 -0.972707 0
M  V30 1303 C 125.216 -2.768 2.31115 0
M  V30 1304 O 124.32 -3.73349 1.7517 0
M  V30 1305 H 123.661 -0.456529 0.482159 0
M  V30 1306 H 126.191 -0.88644 1.844 0
M  V30 1307 H 126.201 -3.25371 2.46167 0
M  V30 1308 H 124.876 -2.49407 3.3282 0
M  V30 1309 H 123.453 -3.32179 1.69444 0
M  V30 1310 N 125.638 -1.25649 -0.95132 0
M  V30 1311 C 126.568 -1.08808 -2.06599 0
M  V30 1312 C 127.549 0.00382547 -1.701 0
M  V30 1313 O 128.734 -0.166325 -1.93486 0
M  V30 1314 C 125.864 -0.709542 -3.39975 0
M  V30 1315 C 124.818 -1.75206 -3.90496 0
M  V30 1316 C 124.144 -1.22811 -5.20405 0
M  V30 1317 C 125.444 -3.15153 -4.16504 0
M  V30 1318 H 127.138 -2.02048 -2.20946 0
M  V30 1319 H 124.684 -0.972835 -1.06169 0
M  V30 1320 H 126.637 -0.578649 -4.17408 0
M  V30 1321 H 125.361 0.258556 -3.25575 0
M  V30 1322 H 124.02 -1.87145 -3.15234 0
M  V30 1323 H 123.668 -0.250145 -5.02378 0
M  V30 1324 H 123.368 -1.92492 -5.55176 0
M  V30 1325 H 124.892 -1.10968 -6.00432 0
M  V30 1326 H 126.306 -3.06349 -4.84586 0
M  V30 1327 H 124.703 -3.82333 -4.62538 0
M  V30 1328 H 125.773 -3.61966 -3.22658 0
M  V30 1329 N 127.117 1.15442 -1.07289 0
M  V30 1330 C 128.064 2.20161 -0.692653 0
M  V30 1331 C 129.034 1.63073 0.31564 0
M  V30 1332 O 130.219 1.89725 0.202235 0
M  V30 1333 C 127.359 3.44967 -0.0959509 0
M  V30 1334 C 126.472 4.16256 -1.15564 0
M  V30 1335 C 125.607 5.28609 -0.524011 0
M  V30 1336 C 124.646 5.91715 -1.56653 0
M  V30 1337 N 123.783 6.9554 -0.957531 0
M  V30 1338 H 128.623 2.52037 -1.59002 0
M  V30 1339 H 126.16 1.2378 -0.794798 0
M  V30 1340 H 128.118 4.16341 0.267628 0
M  V30 1341 H 126.748 3.1361 0.764772 0
M  V30 1342 H 125.8 3.43385 -1.6368 0
M  V30 1343 H 127.112 4.59268 -1.94613 0
M  V30 1344 H 126.266 6.06604 -0.108032 0
M  V30 1345 H 125.005 4.86787 0.29825 0
M  V30 1346 H 124.01 5.12433 -1.9923 0
M  V30 1347 H 125.235 6.35614 -2.39107 0
M  V30 1348 H 123.181 6.55814 -0.156162 0
M  V30 1349 H 123.098 7.36977 -1.68526 0
M  V30 1350 H 124.366 7.77435 -0.567032 0
M  V30 1351 N 128.595 0.856903 1.32268 0
M  V30 1352 C 129.82 0.474569 2.01897 0
M  V30 1353 C 130.245 -0.921766 1.63967 0
M  V30 1354 O 129.603 -1.60589 0.84148 0
M  V30 1355 C 129.651 0.623799 3.55164 0
M  V30 1356 O 128.755 -0.342459 4.10976 0
M  V30 1357 H 128.096 0.190422 0.63611 0
M  V30 1358 H 130.626 1.15672 1.68764 0
M  V30 1359 H 130.636 0.512169 4.04773 0
M  V30 1360 H 129.311 1.64202 3.82113 0
M  V30 1361 H 127.888 -0.18688 3.72431 0
M  V30 1362 N 130.073 -1.45103 0.615059 0
M  V30 1363 C 131.005 -2.28786 -0.13762 0
M  V30 1364 C 132.018 -1.40376 -0.824525 0
M  V30 1365 O 133.207 -1.64681 -0.688662 0
M  V30 1366 C 130.307 -3.16322 -1.21628 0
M  V30 1367 C 129.48 -4.33054 -0.615039 0
M  V30 1368 C 128.539 -5.01743 -1.58556 0
M  V30 1369 O 127.565 -5.58293 -1.10895 0
M  V30 1370 N 128.767 -5.01714 -2.91998 0
M  V30 1371 H 131.532 -2.94025 0.580483 0
M  V30 1372 H 129.093 -1.55373 0.45507 0
M  V30 1373 H 131.085 -3.59139 -1.86552 0
M  V30 1374 H 129.655 -2.52943 -1.83681 0
M  V30 1375 H 128.875 -3.93627 0.21245 0
M  V30 1376 H 130.163 -5.08431 -0.193704 0
M  V30 1377 H 129.561 -4.57075 -3.33316 0
M  V30 1378 H 128.118 -5.48371 -3.52325 0
M  V30 1379 N 131.551 -0.354651 -1.53558 0
M  V30 1380 C 132.967 -0.00315426 -1.596 0
M  V30 1381 C 133.167 1.47741 -1.37021 0
M  V30 1382 O 132.223 2.23759 -1.16996 0
M  V30 1383 C 133.536 -0.44929 -2.97325 0
M  V30 1384 C 135.084 -0.402578 -3.104 0
M  V30 1385 C 135.559 -0.824355 -4.5052 0
M  V30 1386 N 137.05 -0.778979 -4.56603 0
M  V30 1387 C 137.785 -1.07715 -5.63192 0
M  V30 1388 N 137.281 -1.44405 -6.77583 0
M  V30 1389 N 139.074 -1.00066 -5.53121 0
M  V30 1390 H 131.225 -1.31893 -1.66487 0
M  V30 1391 H 133.488 -0.538388 -0.780284 0
M  V30 1392 H 133.194 -1.48202 -3.1895 0
M  V30 1393 H 133.068 0.169772 -3.76818 0
M  V30 1394 H 135.455 0.621004 -2.88492 0
M  V30 1395 H 135.536 -1.05699 -2.32941 0
M  V30 1396 H 135.18 -1.846 -4.73165 0
M  V30 1397 H 135.11 -0.147304 -5.26394 0
M  V30 1398 H 137.601 -0.508528 -3.74463 0
M  V30 1399 H 137.914 -1.65612 -7.54846 0
M  V30 1400 H 136.259 -1.4826 -6.79002 0
M  V30 1401 H 139.45 -0.713293 -4.62633 0
M  V30 1402 H 139.623 -1.23638 -6.36096 0
M  V30 1403 N 133.029 1.57378 -0.0835403 0
M  V30 1404 C 134.277 1.93547 0.581718 0
M  V30 1405 C 134.598 0.96524 1.69435 0
M  V30 1406 O 133.868 0.0153369 1.95894 0
M  V30 1407 H 132.448 0.714521 0.217874 0
M  V30 1408 H 135.11 1.94366 -0.144158 0
M  V30 1409 H 134.206 2.95665 0.999423 0
M  V30 1410 N 134.507 -0.190092 1.56449 0
M  V30 1411 C 135.732 -0.929864 1.85387 0
M  V30 1412 C 136.157 -1.7585 0.667704 0
M  V30 1413 O 135.515 -1.77198 -0.383459 0
M  V30 1414 C 135.563 -1.79773 3.12593 0
M  V30 1415 O 134.667 -2.89713 2.93496 0
M  V30 1416 H 134.008 -0.261574 0.610307 0
M  V30 1417 H 136.538 -0.193896 2.03679 0
M  V30 1418 H 136.548 -2.20139 3.43515 0
M  V30 1419 H 135.223 -1.18892 3.98544 0
M  V30 1420 H 133.8 -2.53065 2.73884 0
M  V30 1421 N 135.985 -1.50799 -0.457987 0
M  V30 1422 C 137.231 -1.62683 -1.21088 0
M  V30 1423 C 137.564 -0.332268 -1.91336 0
M  V30 1424 O 136.839 0.667043 -1.82704 0
M  V30 1425 C 137.122 -2.81615 -2.24422 0
M  V30 1426 C 136.975 -4.20989 -1.58392 0
M  V30 1427 C 138.294 -2.96085 -3.2561 0
M  V30 1428 H 135.413 -0.592087 -0.438864 0
M  V30 1429 H 138.055 -1.83225 -0.50286 0
M  V30 1430 H 136.205 -2.64231 -2.84806 0
M  V30 1431 H 137.877 -4.49994 -1.01504 0
M  V30 1432 H 136.12 -4.24641 -0.886704 0
M  V30 1433 H 136.791 -5.0016 -2.33547 0
M  V30 1434 H 139.267 -3.12042 -2.75262 0
M  V30 1435 H 138.143 -3.80902 -3.95228 0
M  V30 1436 H 138.404 -2.0726 -3.90507 0
M  V30 1437 N 137.463 0.71206 -1.40597 0
M  V30 1438 C 138.709 1.47292 -1.40274 0
M  V30 1439 C 139.064 1.92399 -0.00576812 0
M  V30 1440 O 138.357 1.65507 0.965297 0
M  V30 1441 C 138.551 2.71039 -2.32965 0
M  V30 1442 C 138.38 2.38035 -3.81536 0
M  V30 1443 C 137.15 2.29203 -4.50327 0
M  V30 1444 C 139.348 2.02076 -4.72938 0
M  V30 1445 N 137.33 1.88911 -5.84111 0
M  V30 1446 C 138.701 1.72412 -5.95545 0
M  V30 1447 C 140.756 1.88742 -4.60739 0
M  V30 1448 C 139.459 1.30756 -7.07316 0
M  V30 1449 C 141.485 1.4849 -5.72455 0
M  V30 1450 C 140.847 1.19726 -6.94151 0
M  V30 1451 H 136.946 0.536919 -0.568544 0
M  V30 1452 H 139.53 0.825424 -1.76337 0
M  V30 1453 H 137.701 3.33533 -1.99023 0
M  V30 1454 H 139.433 3.37404 -2.23474 0
M  V30 1455 H 136.188 2.47059 -4.04053 0
M  V30 1456 H 136.612 1.71293 -6.54972 0
M  V30 1457 H 141.254 2.0964 -3.67166 0
M  V30 1458 H 138.972 1.08601 -8.00769 0
M  V30 1459 H 142.558 1.38747 -5.65014 0
M  V30 1460 H 141.438 0.890482 -7.79128 0
M  V30 1461 N 138.941 1.26152 0.944643 0
M  V30 1462 C 140.169 1.14259 1.72489 0
M  V30 1463 C 140.584 -0.302555 1.8636 0
M  V30 1464 O 139.941 -1.20741 1.36849 0
M  V30 1465 C 139.992 1.80266 3.13347 0
M  V30 1466 O 139.713 3.19133 3.00143 0
M  V30 1467 C 141.214 1.74283 4.07603 0
M  V30 1468 H 138.434 0.398051 0.540181 0
M  V30 1469 H 140.978 1.66706 1.18446 0
M  V30 1470 H 139.133 1.31766 3.64303 0
M  V30 1471 H 139.547 3.51744 3.89071 0
M  V30 1472 H 141.021 2.25111 5.04013 0
M  V30 1473 H 141.498 0.708631 4.33446 0
M  V30 1474 H 142.104 2.22319 3.62567 0
M  V30 1475 N 140.419 -1.14872 1.07899 0
M  V30 1476 C 141.366 -2.19791 0.704319 0
M  V30 1477 C 142.336 -1.63238 -0.306987 0
M  V30 1478 O 143.521 -1.8983 -0.192171 0
M  V30 1479 C 140.661 -3.44911 0.114244 0
M  V30 1480 C 139.774 -4.15637 1.1777 0
M  V30 1481 C 138.909 -5.28324 0.552037 0
M  V30 1482 C 137.948 -5.90875 1.59789 0
M  V30 1483 N 137.085 -6.95022 0.994404 0
M  V30 1484 H 141.925 -2.5119 1.60336 0
M  V30 1485 H 139.462 -1.23356 0.801352 0
M  V30 1486 H 141.42 -4.16477 -0.245544 0
M  V30 1487 H 140.05 -3.14011 -0.74813 0
M  V30 1488 H 139.102 -3.42512 1.65499 0
M  V30 1489 H 140.414 -4.5823 1.97046 0
M  V30 1490 H 139.568 -6.06538 0.1402 0
M  V30 1491 H 138.307 -4.86939 -0.272431 0
M  V30 1492 H 137.312 -5.11369 2.01945 0
M  V30 1493 H 138.537 -6.34337 2.42474 0
M  V30 1494 H 136.483 -6.55722 0.190939 0
M  V30 1495 H 136.4 -7.36073 1.72432 0
M  V30 1496 H 137.668 -7.77123 0.608253 0
M  V30 1497 N 141.898 -0.863906 -1.31812 0
M  V30 1498 C 143.126 -0.486111 -2.01108 0
M  V30 1499 C 143.541 0.919755 -1.64882 0
M  V30 1500 O 142.898 1.60162 -0.874893 0
M  V30 1501 C 142.949 -0.626435 -3.56031 0
M  V30 1502 O 142.67 -1.97693 -3.90959 0
M  V30 1503 C 144.171 -0.248857 -4.42601 0
M  V30 1504 H 141.391 -0.190052 -0.643523 0
M  V30 1505 H 143.935 -1.1634 -1.68182 0
M  V30 1506 H 142.09 0.00322717 -3.874 0
M  V30 1507 H 142.504 -1.98034 -4.85678 0
M  V30 1508 H 143.978 -0.398016 -5.50563 0
M  V30 1509 H 144.455 0.811489 -4.31638 0
M  V30 1510 H 145.061 -0.853971 -4.16638 0
M  V30 1511 N 143.376 1.44774 -0.622745 0
M  V30 1512 C 144.323 2.30635 0.0871679 0
M  V30 1513 C 145.293 1.42994 0.845097 0
M  V30 1514 O 146.478 1.71907 0.827812 0
M  V30 1515 C 143.618 3.28144 1.06844 0
M  V30 1516 C 142.731 4.30888 0.309809 0
M  V30 1517 C 141.866 5.15494 1.28215 0
M  V30 1518 C 140.905 6.09953 0.512198 0
M  V30 1519 N 140.042 6.87287 1.43458 0
M  V30 1520 H 144.882 2.90803 -0.650974 0
M  V30 1521 H 142.419 1.43286 -0.33281 0
M  V30 1522 H 144.377 3.83157 1.65066 0
M  V30 1523 H 143.007 2.69695 1.77382 0
M  V30 1524 H 142.059 3.78414 -0.388181 0
M  V30 1525 H 143.371 4.97955 -0.290254 0
M  V30 1526 H 142.525 5.74983 1.93596 0
M  V30 1527 H 141.264 4.48481 1.91614 0
M  V30 1528 H 140.269 5.49581 -0.155151 0
M  V30 1529 H 141.494 6.78999 -0.116958 0
M  V30 1530 H 139.44 6.2295 2.05594 0
M  V30 1531 H 139.357 7.50763 0.888335 0
M  V30 1532 H 140.625 7.51306 2.07749 0
M  V30 1533 N 144.854 0.36279 1.53368 0
M  V30 1534 C 145.817 -0.472679 2.24273 0
M  V30 1535 C 146.817 -1.012 1.24961 0
M  V30 1536 O 148.007 -0.898194 1.49259 0
M  V30 1537 C 145.139 -1.66039 2.97731 0
M  V30 1538 H 146.332 0.14773 2.99536 0
M  V30 1539 H 143.885 0.114434 1.55881 0
M  V30 1540 H 144.62 -2.31896 2.26704 0
M  V30 1541 H 144.405 -1.28066 3.70596 0
M  V30 1542 H 145.895 -2.25252 3.51641 0
M  V30 1543 N 146.332 -1.57332 0.0918853 0
M  V30 1544 C 147.295 -2.12708 -0.85369 0
M  V30 1545 C 148.295 -1.05561 -1.213 0
M  V30 1546 O 149.485 -1.31461 -1.14296 0
M  V30 1547 C 146.617 -2.64503 -2.15061 0
M  V30 1548 H 147.81 -2.97573 -0.3729 0
M  V30 1549 H 145.363 -1.55509 -0.157072 0
M  V30 1550 H 146.098 -1.83149 -2.67632 0
M  V30 1551 H 145.883 -3.4284 -1.90272 0
M  V30 1552 H 147.373 -3.07351 -2.82711 0
M  V30 1553 N 147.81 0.181792 -1.56548 0
M  V30 1554 C 149.057 0.900097 -1.81396 0
M  V30 1555 C 149.385 1.82695 -0.667281 0
M  V30 1556 O 148.64 1.92614 0.346146 0
M  V30 1557 C 148.939 1.73728 -3.12335 0
M  V30 1558 C 148.605 0.960255 -4.40556 0
M  V30 1559 C 147.267 0.745766 -4.75386 0
M  V30 1560 C 149.619 0.414477 -5.19549 0
M  V30 1561 C 146.947 -0.0257694 -5.86694 0
M  V30 1562 C 149.299 -0.343916 -6.31664 0
M  V30 1563 C 147.963 -0.569301 -6.65068 0
M  V30 1564 H 147.233 0.329369 -0.663775 0
M  V30 1565 H 149.88 0.165647 -1.90782 0
M  V30 1566 H 148.185 2.54081 -2.98245 0
M  V30 1567 H 149.882 2.29591 -3.28769 0
M  V30 1568 H 146.472 1.13746 -4.13231 0
M  V30 1569 H 150.656 0.567554 -4.93044 0
M  V30 1570 H 145.912 -0.210233 -6.11038 0
M  V30 1571 H 150.086 -0.774133 -6.92084 0
M  V30 1572 H 147.713 -1.16903 -7.51158 0
M  V30 1573 N 149.288 1.51039 0.449983 0
M  V30 1574 C 150.198 1.74261 1.57067 0
M  V30 1575 C 151.214 0.626363 1.62335 0
M  V30 1576 O 152.39 0.907162 1.79812 0
M  V30 1577 C 149.455 1.85114 2.93144 0
M  V30 1578 C 148.516 3.0893 2.98095 0
M  V30 1579 C 147.749 3.19256 4.27681 0
M  V30 1580 O 147.972 2.35835 5.19363 0
M  V30 1581 O 146.906 4.12144 4.38658 0
M  V30 1582 H 150.732 2.69303 1.40391 0
M  V30 1583 H 148.317 1.35389 0.631688 0
M  V30 1584 H 150.199 1.94311 3.73926 0
M  V30 1585 H 148.874 0.932588 3.09975 0
M  V30 1586 H 147.781 3.0522 2.16314 0
M  V30 1587 H 149.114 4.00433 2.86206 0
M  V30 1588 N 150.766 -0.704594 1.40972 0
M  V30 1589 C 151.714 -1.83994 1.42299 0
M  V30 1590 C 152.708 -1.66684 0.302111 0
M  V30 1591 O 153.914 -1.73655 0.473697 0
M  V30 1592 H 150.289 -0.606171 0.44504 0
M  V30 1593 H 152.26 -1.79992 2.38003 0
M  V30 1594 C 151.009 -3.21946 1.31323 0
M  V30 1595 H 150.332 -3.35878 2.16855 0
M  V30 1596 H 151.772 -4.01491 1.36311 0
M  V30 1597 C 150.231 -3.36891 0.0245977 0
M  V30 1598 O 150.761 -3.90687 -0.934153 0
M  V30 1599 N 148.967 -2.90559 -0.0485243 0
M  V30 1600 H 148.514 -2.46968 0.732419 0
M  V30 1601 H 148.472 -3.00937 -0.910171 0
M  V30 1602 N 152.244 -1.26651 -0.937939 0
M  V30 1603 C 153.49 -1.13562 -1.68746 0
M  V30 1604 C 153.845 0.317241 -1.89767 0
M  V30 1605 O 153.138 1.22939 -1.46957 0
M  V30 1606 C 153.332 -1.84168 -3.06295 0
M  V30 1607 C 153.161 -3.36171 -2.98696 0
M  V30 1608 C 151.931 -4.05468 -3.01535 0
M  V30 1609 C 154.129 -4.32312 -2.78588 0
M  V30 1610 N 152.111 -5.44118 -2.84269 0
M  V30 1611 C 153.482 -5.58159 -2.69924 0
M  V30 1612 C 155.537 -4.22524 -2.63396 0
M  V30 1613 C 154.24 -6.75335 -2.47618 0
M  V30 1614 C 156.266 -5.39411 -2.42466 0
M  V30 1615 C 155.628 -6.64208 -2.34536 0
M  V30 1616 H 151.727 -0.470361 -0.624728 0
M  V30 1617 H 154.311 -1.59982 -1.10968 0
M  V30 1618 H 152.482 -1.40219 -3.62206 0
M  V30 1619 H 154.214 -1.63674 -3.70126 0
M  V30 1620 H 150.969 -3.56854 -3.11372 0
M  V30 1621 H 151.393 -6.1693 -2.78795 0
M  V30 1622 H 156.035 -3.26771 -2.68292 0
M  V30 1623 H 153.753 -7.71182 -2.41463 0
M  V30 1624 H 157.339 -5.33711 -2.31611 0
M  V30 1625 H 156.219 -7.53129 -2.18555 0
M  V30 1626 N 153.722 1.14298 -1.08507 0
M  V30 1627 C 154.632 2.23027 -0.727753 0
M  V30 1628 C 155.648 1.71952 0.26619 0
M  V30 1629 O 156.824 2.011 0.109882 0
M  V30 1630 C 153.889 3.46403 -0.143541 0
M  V30 1631 C 152.95 4.12413 -1.19223 0
M  V30 1632 C 152.183 5.29899 -0.635798 0
M  V30 1633 O 152.406 5.67796 0.544393 0
M  V30 1634 O 151.34 5.85717 -1.38634 0
M  V30 1635 H 155.166 2.55945 -1.63481 0
M  V30 1636 H 152.751 1.22248 -0.858817 0
M  V30 1637 H 154.633 4.21018 0.179404 0
M  V30 1638 H 153.308 3.15206 0.736659 0
M  V30 1639 H 152.215 3.39667 -1.56772 0
M  V30 1640 H 153.548 4.47718 -2.04474 0
M  V30 1641 N 155.201 0.870884 1.31352 0
M  V30 1642 C 156.447 0.482987 1.96965 0
M  V30 1643 C 156.78 -0.962462 1.68672 0
M  V30 1644 O 156.055 -1.6779 0.98371 0
M  V30 1645 C 156.338 0.741752 3.52378 0
M  V30 1646 C 156.191 2.2368 3.9024 0
M  V30 1647 C 157.51 0.208838 4.39604 0
M  V30 1648 H 154.629 0.176955 0.715441 0
M  V30 1649 H 157.271 1.09229 1.55464 0
M  V30 1650 H 155.421 0.223149 3.87859 0
M  V30 1651 H 157.093 2.82273 3.64856 0
M  V30 1652 H 155.336 2.70901 3.38814 0
M  V30 1653 H 156.007 2.3685 4.98604 0
M  V30 1654 H 158.483 0.652529 4.10952 0
M  V30 1655 H 157.359 0.419336 5.47296 0
M  V30 1656 H 157.62 -0.889275 4.33064 0
M  V30 1657 N 156.679 -1.44442 0.630414 0
M  V30 1658 C 157.589 -2.34476 -0.0761693 0
M  V30 1659 C 158.605 -1.52576 -0.836449 0
M  V30 1660 O 159.781 -1.85307 -0.788874 0
M  V30 1661 C 156.846 -3.30545 -1.04599 0
M  V30 1662 C 155.907 -4.28352 -0.28516 0
M  V30 1663 C 155.14 -5.19831 -1.20878 0
M  V30 1664 O 155.363 -5.15223 -2.44747 0
M  V30 1665 O 154.297 -5.97892 -0.693491 0
M  V30 1666 H 158.123 -2.96345 0.664324 0
M  V30 1667 H 155.708 -1.44203 0.39061 0
M  V30 1668 H 157.59 -3.89681 -1.60396 0
M  V30 1669 H 156.265 -2.7121 -1.76711 0
M  V30 1670 H 155.172 -3.72764 0.315837 0
M  V30 1671 H 156.505 -4.90605 0.395924 0
M  V30 1672 N 158.157 -0.370918 -1.53173 0
M  V30 1673 C 159.403 0.217423 -2.01631 0
M  V30 1674 C 159.736 1.47983 -1.25756 0
M  V30 1675 O 159.011 1.91274 -0.352764 0
M  V30 1676 C 159.294 0.503982 -3.56556 0
M  V30 1677 C 159.147 -0.77243 -4.43118 0
M  V30 1678 C 160.466 1.30234 -4.20389 0
M  V30 1679 H 157.585 0.0775486 -0.732909 0
M  V30 1680 H 160.227 -0.496863 -1.83388 0
M  V30 1681 H 158.377 1.11248 -3.72231 0
M  V30 1682 H 160.049 -1.4098 -4.39229 0
M  V30 1683 H 158.292 -1.39167 -4.10871 0
M  V30 1684 H 158.963 -0.526815 -5.4948 0
M  V30 1685 H 161.439 0.787546 -4.08579 0
M  V30 1686 H 160.315 1.47158 -5.28806 0
M  V30 1687 H 160.576 2.31237 -3.76805 0
M  V30 1688 N 159.635 1.57281 -0.100228 0
M  V30 1689 C 160.863 1.98879 0.570509 0
M  V30 1690 C 161.278 0.979476 1.61405 0
M  V30 1691 O 160.635 -0.0302288 1.82475 0
M  V30 1692 C 160.686 3.4052 1.2136 0
M  V30 1693 O 160.407 4.37588 0.211786 0
M  V30 1694 C 161.908 3.97149 1.96945 0
M  V30 1695 H 159.128 0.653428 0.152555 0
M  V30 1696 H 161.672 2.03697 -0.18103 0
M  V30 1697 H 159.827 3.367 1.91603 0
M  V30 1698 H 160.241 5.20118 0.676607 0
M  V30 1699 H 161.715 4.98393 2.37294 0
M  V30 1700 H 162.192 3.3525 2.83733 0
M  V30 1701 H 162.798 4.04458 1.31506 0
M  V30 1702 N 161.113 -0.173488 1.56642 0
M  V30 1703 C 162.36 -0.890465 1.81871 0
M  V30 1704 C 162.688 -1.82339 0.67696 0
M  V30 1705 O 161.943 -1.92795 -0.335926 0
M  V30 1706 C 162.242 -1.72069 3.13252 0
M  V30 1707 C 161.908 -0.936878 4.41059 0
M  V30 1708 C 160.57 -0.720545 4.75775 0
M  V30 1709 C 162.922 -0.386919 5.19762 0
M  V30 1710 C 160.25 0.0568829 5.86672 0
M  V30 1711 C 162.602 0.37741 6.31473 0
M  V30 1712 C 161.266 0.604563 6.64757 0
M  V30 1713 H 160.536 -0.325844 0.665512 0
M  V30 1714 H 163.183 -0.155527 1.90867 0
M  V30 1715 H 161.488 -2.52496 2.99588 0
M  V30 1716 H 163.185 -2.27844 3.29982 0
M  V30 1717 H 159.775 -1.11553 4.13828 0
M  V30 1718 H 163.959 -0.541398 4.93338 0
M  V30 1719 H 159.215 0.242635 6.10918 0
M  V30 1720 H 163.389 0.810825 6.91664 0
M  V30 1721 H 161.016 1.20885 7.50527 0
M  V30 1722 N 162.591 -1.51276 -0.441967 0
M  V30 1723 C 164.007 -1.39349 -0.778083 0
M  V30 1724 C 164.207 -0.472212 -1.95889 0
M  V30 1725 O 163.263 0.0743551 -2.5239 0
M  V30 1726 C 164.576 -2.81292 -1.0628 0
M  V30 1727 C 166.124 -2.9041 -1.16751 0
M  V30 1728 C 166.599 -4.33251 -1.48519 0
M  V30 1729 N 168.09 -4.36336 -1.55453 0
M  V30 1730 C 168.825 -5.43885 -1.81596 0
M  V30 1731 N 168.321 -6.61601 -2.05562 0
M  V30 1732 N 170.114 -5.3136 -1.8334 0
M  V30 1733 H 162.265 -2.09729 0.335774 0
M  V30 1734 H 164.528 -0.943925 0.0878028 0
M  V30 1735 H 164.234 -3.50678 -0.267905 0
M  V30 1736 H 164.108 -3.20334 -1.99163 0
M  V30 1737 H 166.495 -2.21225 -1.95304 0
M  V30 1738 H 166.576 -2.54871 -0.217801 0
M  V30 1739 H 166.22 -5.02984 -0.704958 0
M  V30 1740 H 166.15 -4.66299 -2.44689 0
M  V30 1741 H 168.641 -3.51466 -1.38853 0
M  V30 1742 H 168.954 -7.39361 -2.24867 0
M  V30 1743 H 167.299 -6.64725 -2.02894 0
M  V30 1744 H 170.49 -4.38382 -1.64132 0
M  V30 1745 H 170.663 -6.15258 -2.03377 0
M  V30 1746 N 164.069 0.697108 -1.41344 0
M  V30 1747 C 165.315 1.4593 -1.40827 0
M  V30 1748 C 165.648 1.94193 -0.0167098 0
M  V30 1749 O 164.923 1.69425 0.955263 0
M  V30 1750 C 165.206 2.67229 -2.41373 0
M  V30 1751 C 165.059 2.24741 -3.8963 0
M  V30 1752 C 166.378 3.69423 -2.39196 0
M  V30 1753 H 163.497 0.529303 -0.512842 0
M  V30 1754 H 166.139 0.794112 -1.72609 0
M  V30 1755 H 164.289 3.23982 -2.14401 0
M  V30 1756 H 165.961 1.73327 -4.27499 0
M  V30 1757 H 164.204 1.56542 -4.0457 0
M  V30 1758 H 164.875 3.1177 -4.55525 0
M  V30 1759 H 167.351 3.2234 -2.63128 0
M  V30 1760 H 166.227 4.51907 -3.11563 0
M  V30 1761 H 166.488 4.19012 -1.41001 0
M  V30 1762 N 165.547 1.27147 0.931209 0
M  V30 1763 C 166.775 1.16082 1.71267 0
M  V30 1764 C 167.19 -0.282772 1.8667 0
M  V30 1765 O 166.547 -1.19283 1.38122 0
M  V30 1766 C 166.598 1.8358 3.11417 0
M  V30 1767 O 166.319 3.22299 2.96741 0
M  V30 1768 C 167.82 1.78597 4.05732 0
M  V30 1769 H 165.04 0.403758 0.535929 0
M  V30 1770 H 167.584 1.67953 1.16671 0
M  V30 1771 H 165.739 1.35623 3.62885 0
M  V30 1772 H 166.153 3.55851 3.85319 0
M  V30 1773 H 167.627 2.30444 5.01597 0
M  V30 1774 H 168.104 0.754564 4.3267 0
M  V30 1775 H 168.71 2.26152 3.60188 0
M  V30 1776 N 167.025 -1.13721 1.09112 0
M  V30 1777 C 168.273 -1.84559 0.823562 0
M  V30 1778 C 168.594 -1.83754 -0.652658 0
M  V30 1779 O 167.864 -1.29102 -1.47342 0
M  V30 1780 H 166.444 -0.683376 0.301673 0
M  V30 1781 H 169.106 -1.37771 1.37859 0
M  V30 1782 H 168.202 -2.8917 1.17419 0
M  V30 1783 N 168.503 -0.877838 -1.30888 0
M  V30 1784 C 169.919 -0.570844 -1.49042 0
M  V30 1785 C 170.119 0.893159 -1.80624 0
M  V30 1786 O 169.175 1.67485 -1.88958 0
M  V30 1787 C 170.488 -1.47784 -2.61878 0
M  V30 1788 C 172.036 -1.48071 -2.75761 0
M  V30 1789 C 172.511 -2.37347 -3.91702 0
M  V30 1790 N 174.002 -2.35271 -3.99001 0
M  V30 1791 C 174.737 -3.01063 -4.88004 0
M  V30 1792 N 174.233 -3.76055 -5.81854 0
M  V30 1793 N 176.026 -2.90332 -4.81315 0
M  V30 1794 H 168.177 -1.82502 -1.0866 0
M  V30 1795 H 170.44 -0.780797 -0.537644 0
M  V30 1796 H 170.146 -2.51993 -2.45341 0
M  V30 1797 H 170.02 -1.18215 -3.58197 0
M  V30 1798 H 172.407 -0.446166 -2.91708 0
M  V30 1799 H 172.488 -1.81668 -1.80085 0
M  V30 1800 H 172.132 -3.40883 -3.76512 0
M  V30 1801 H 172.062 -2.01071 -4.86701 0
M  V30 1802 H 174.553 -1.80768 -3.3186 0
M  V30 1803 H 174.866 -4.23366 -6.46514 0
M  V30 1804 H 173.211 -3.80163 -5.81808 0
M  V30 1805 H 176.402 -2.31278 -4.06974 0
M  V30 1806 H 176.575 -3.41885 -5.50471 0
M  V30 1807 N 169.982 1.44106 -0.638065 0
M  V30 1808 C 171.23 2.01579 -0.145043 0
M  V30 1809 C 171.551 1.50496 1.24 0
M  V30 1810 O 170.821 0.711374 1.82527 0
M  V30 1811 H 169.401 0.745282 -0.05063 0
M  V30 1812 H 172.063 1.76516 -0.826327 0
M  V30 1813 H 171.159 3.11877 -0.118039 0
M  V30 1814 N 171.46 0.379036 1.52974 0
M  V30 1815 C 172.876 0.0285448 1.59574 0
M  V30 1816 C 173.076 -1.45542 1.39355 0
M  V30 1817 O 172.132 -2.2187 1.20541 0
M  V30 1818 C 173.445 0.496535 2.96572 0
M  V30 1819 C 174.993 0.451909 3.0972 0
M  V30 1820 C 175.468 0.895924 4.49152 0
M  V30 1821 N 176.959 0.851522 4.55306 0
M  V30 1822 C 177.694 1.16661 5.61407 0
M  V30 1823 N 177.19 1.55166 6.752 0
M  V30 1824 N 178.983 1.08853 5.51459 0
M  V30 1825 H 171.134 1.34525 1.64367 0
M  V30 1826 H 173.397 0.550733 0.771619 0
M  V30 1827 H 173.103 1.53258 3.16552 0
M  V30 1828 H 172.977 -0.109802 3.7704 0
M  V30 1829 H 175.364 -0.575029 2.89443 0
M  V30 1830 H 175.445 1.09392 2.3123 0
M  V30 1831 H 175.089 1.92104 4.70168 0
M  V30 1832 H 175.019 0.23103 5.26093 0
M  V30 1833 H 177.51 0.568038 3.73606 0
M  V30 1834 H 177.823 1.776 7.52116 0
M  V30 1835 H 176.168 1.59044 6.76557 0
M  V30 1836 H 179.359 0.786803 4.6144 0
M  V30 1837 H 179.532 1.33742 6.34048 0
M  V30 1838 N 172.938 -1.57226 0.108567 0
M  V30 1839 C 174.187 -1.94008 -0.551703 0
M  V30 1840 C 174.5 -0.993442 -1.68494 0
M  V30 1841 O 175.706 -1.25551 -2.40726 0
M  V30 1842 C 174.162 -3.44763 -1.03279 0
M  V30 1843 C 173.77 -4.47943 0.0714193 0
M  V30 1844 C 175.514 -3.90483 -1.66503 0
M  V30 1845 C 173.421 -5.89865 -0.425779 0
M  V30 1846 H 172.351 -0.724206 -0.209863 0
M  V30 1847 H 175.002 -1.82547 0.186741 0
M  V30 1848 H 173.384 -3.51422 -1.82533 0
M  V30 1849 H 174.558 -4.52942 0.847365 0
M  V30 1850 H 172.873 -4.11913 0.609669 0
M  V30 1851 H 175.47 -4.93925 -2.04798 0
M  V30 1852 H 175.813 -3.29877 -2.53942 0
M  V30 1853 H 176.346 -3.86581 -0.938074 0
M  V30 1854 H 173.085 -6.54202 0.412316 0
M  V30 1855 H 172.605 -5.88309 -1.16843 0
M  V30 1856 H 174.284 -6.40844 -0.890397 0
M  V30 1857 N 174.416 0.165178 -1.56732 0
M  V30 1858 C 175.664 0.879068 -1.8198 0
M  V30 1859 C 175.985 1.82514 -0.686561 0
M  V30 1860 O 175.255 1.93694 0.293146 0
M  V30 1861 H 173.835 0.327608 -0.671329 0
M  V30 1862 H 176.497 0.163526 -1.94213 0
M  V30 1863 H 175.593 1.45228 -2.76252 0
M  V30 1864 N 175.894 1.51508 0.433938 0
M  V30 1865 C 176.857 1.72473 1.50949 0
M  V30 1866 C 177.857 0.594725 1.49398 0
M  V30 1867 O 179.047 0.862315 1.5136 0
M  V30 1868 C 176.179 1.78431 2.90474 0
M  V30 1869 H 177.372 2.68467 1.33662 0
M  V30 1870 H 174.925 1.41549 0.662836 0
M  V30 1871 H 175.66 0.842645 3.13161 0
M  V30 1872 H 175.445 2.60558 2.93005 0
M  V30 1873 H 176.935 1.96479 3.68491 0
M  V30 1874 N 177.372 -0.689602 1.41712 0
M  V30 1875 C 178.649 -1.44457 1.31877 0
M  V30 1876 C 179.029 -2.11039 -0.0508537 0
M  V30 1877 O 178.377 -2.02138 -1.06547 0
M  V30 1878 C 178.587 -2.45913 2.47645 0
M  V30 1879 C 179.935 -3.10991 2.89084 0
M  V30 1880 O 180.959 -2.56238 2.47428 0
M  V30 1881 O 179.818 -4.10174 3.61137 0
M  V30 1882 H 176.912 -0.64362 0.519309 0
M  V30 1883 H 179.458 -0.719576 1.53689 0
M  V30 1884 H 178.23 -1.95409 3.39015 0
M  V30 1885 H 177.853 -3.25913 2.27742 0
M  V30 1886 N 178.85 -1.27639 -0.924453 0
M  V30 1887 C 180.098 -1.13941 -1.66918 0
M  V30 1888 C 180.419 0.314589 -1.92446 0
M  V30 1889 O 179.689 1.21964 -1.53303 0
M  V30 1890 H 178.269 -0.418678 -0.618642 0
M  V30 1891 H 180.931 -1.60213 -1.10985 0
M  V30 1892 H 180.027 -1.67094 -2.63602 0
M  V30 1893 N 180.328 1.1314 -1.09713 0
M  V30 1894 C 181.258 2.20748 -0.761102 0
M  V30 1895 C 182.239 1.68061 0.262566 0
M  V30 1896 O 183.424 1.93765 0.129977 0
M  V30 1897 C 180.554 3.46812 -0.184054 0
M  V30 1898 C 179.508 4.12606 -1.13757 0
M  V30 1899 C 178.834 5.33031 -0.422083 0
M  V30 1900 C 180.134 4.59603 -2.48118 0
M  V30 1901 H 181.828 2.49113 -1.66082 0
M  V30 1902 H 179.374 1.19734 -0.799987 0
M  V30 1903 H 181.327 4.21353 0.0631215 0
M  V30 1904 H 180.051 3.17851 0.750868 0
M  V30 1905 H 178.71 3.40036 -1.37007 0
M  V30 1906 H 178.358 5.00335 0.517072 0
M  V30 1907 H 178.058 5.77999 -1.05788 0
M  V30 1908 H 179.582 6.10325 -0.183277 0
M  V30 1909 H 180.996 5.25552 -2.29059 0
M  V30 1910 H 179.393 5.15321 -3.07514 0
M  V30 1911 H 180.463 3.73971 -3.08665 0
M  V30 1912 N 181.806 0.884767 1.30421 0
M  V30 1913 C 182.769 0.356277 2.26414 0
M  V30 1914 C 183.769 -0.501124 1.52792 0
M  V30 1915 O 184.959 -0.30831 1.7145 0
M  V30 1916 C 182.091 -0.492316 3.37326 0
M  V30 1917 H 183.284 1.20389 2.74675 0
M  V30 1918 H 180.837 0.661607 1.41607 0
M  V30 1919 H 181.572 -1.36052 2.94381 0
M  V30 1920 H 181.357 0.121832 3.91911 0
M  V30 1921 H 182.847 -0.853871 4.08777 0
M  V30 1922 N 183.284 -1.43765 0.645699 0
M  V30 1923 C 184.533 -2.01116 0.153412 0
M  V30 1924 C 184.846 -1.51493 -1.23731 0
M  V30 1925 O 186.052 -2.01067 -1.8244 0
M  V30 1926 C 184.508 -3.59206 0.223473 0
M  V30 1927 C 184.116 -4.17823 1.61642 0
M  V30 1928 C 185.86 -4.23972 -0.211597 0
M  V30 1929 C 183.767 -5.68183 1.64081 0
M  V30 1930 H 182.697 -0.752093 0.0535891 0
M  V30 1931 H 185.348 -1.6482 0.806633 0
M  V30 1932 H 183.73 -3.92867 -0.497118 0
M  V30 1933 H 184.904 -3.95674 2.36176 0
M  V30 1934 H 183.219 -3.65399 1.99681 0
M  V30 1935 H 185.816 -5.34275 -0.213112 0
M  V30 1936 H 186.159 -3.97352 -1.24165 0
M  V30 1937 H 186.692 -3.95166 0.456988 0
M  V30 1938 H 183.431 -5.99559 2.64971 0
M  V30 1939 H 182.951 -5.9241 0.938611 0
M  V30 1940 H 184.63 -6.32085 1.3812 0
M  V30 1941 N 184.763 -0.387143 -1.52771 0
M  V30 1942 C 186.009 0.188506 -2.02525 0
M  V30 1943 C 186.364 1.44649 -1.26864 0
M  V30 1944 O 185.657 1.88189 -0.359945 0
M  V30 1945 C 185.851 0.512209 -3.53711 0
M  V30 1946 C 185.68 -0.712855 -4.44014 0
M  V30 1947 C 184.45 -1.23147 -4.90064 0
M  V30 1948 C 186.648 -1.58453 -4.89282 0
M  V30 1949 N 184.63 -2.41431 -5.64433 0
M  V30 1950 C 186.001 -2.61381 -5.6221 0
M  V30 1951 C 188.056 -1.60488 -4.71326 0
M  V30 1952 C 186.759 -3.66227 -6.19088 0
M  V30 1953 C 188.785 -2.6424 -5.29085 0
M  V30 1954 C 188.147 -3.6589 -6.01917 0
M  V30 1955 H 184.246 0.0311236 -0.78138 0
M  V30 1956 H 186.83 -0.536548 -1.87161 0
M  V30 1957 H 185.001 1.20632 -3.69192 0
M  V30 1958 H 186.733 1.07482 -3.90166 0
M  V30 1959 H 183.488 -0.792795 -4.66917 0
M  V30 1960 H 183.912 -3.01274 -6.0627 0
M  V30 1961 H 188.554 -0.83247 -4.14524 0
M  V30 1962 H 186.272 -4.44337 -6.74974 0
M  V30 1963 H 189.858 -2.66695 -5.17074 0
M  V30 1964 H 188.738 -4.44855 -6.45813 0
M  V30 1965 N 186.241 1.57166 -0.116904 0
M  V30 1966 C 187.471 1.99184 0.548586 0
M  V30 1967 C 187.879 0.995436 1.60897 0
M  V30 1968 O 187.222 -0.0201293 1.83689 0
M  V30 1969 C 187.284 3.37611 1.23526 0
M  V30 1970 C 186.948 4.55857 0.323077 0
M  V30 1971 C 187.945 5.18056 -0.437476 0
M  V30 1972 C 185.63 5.01751 0.234761 0
M  V30 1973 C 187.624 6.24536 -1.2741 0
M  V30 1974 C 185.311 6.08093 -0.605496 0
M  V30 1975 C 186.309 6.69352 -1.35856 0
M  V30 1976 O 185.997 7.7364 -2.18487 0
M  V30 1977 H 185.729 0.659148 0.149999 0
M  V30 1978 H 188.283 2.0443 -0.199428 0
M  V30 1979 H 186.513 3.29113 2.0303 0
M  V30 1980 H 188.202 3.63932 1.79745 0
M  V30 1981 H 188.968 4.83516 -0.379105 0
M  V30 1982 H 184.847 4.53817 0.810601 0
M  V30 1983 H 188.391 6.72281 -1.86237 0
M  V30 1984 H 184.288 6.42063 -0.665268 0
M  V30 1985 H 185.056 7.90727 -2.11406 0
M  V30 1986 N 187.719 -0.156864 1.56817 0
M  V30 1987 C 188.682 -1.17781 1.96622 0
M  V30 1988 C 189.682 -1.36401 0.851555 0
M  V30 1989 O 190.872 -1.33561 1.11836 0
M  V30 1990 C 188.004 -2.54008 2.27361 0
M  V30 1991 H 189.197 -0.836564 2.87996 0
M  V30 1992 H 186.75 -0.39985 1.51099 0
M  V30 1993 H 187.485 -2.9312 1.38748 0
M  V30 1994 H 187.27 -2.41856 3.08623 0
M  V30 1995 H 188.76 -3.27558 2.59029 0
M  V30 1996 N 189.197 -1.51736 -0.425897 0
M  V30 1997 C 190.107 -1.76738 -1.54275 0
M  V30 1998 C 191.123 -0.65211 -1.61318 0
M  V30 1999 O 192.299 -0.935654 -1.78346 0
M  V30 2000 C 189.364 -1.89755 -2.90162 0
M  V30 2001 C 188.425 -3.13633 -2.93143 0
M  V30 2002 C 187.658 -3.2602 -4.22548 0
M  V30 2003 O 187.881 -2.44067 -5.15546 0
M  V30 2004 O 186.815 -4.19071 -4.32046 0
M  V30 2005 H 190.641 -2.71502 -1.36089 0
M  V30 2006 H 188.226 -1.36376 -0.610069 0
M  V30 2007 H 190.108 -2.00236 -3.70788 0
M  V30 2008 H 188.783 -0.981785 -3.08452 0
M  V30 2009 H 187.69 -3.08622 -2.11431 0
M  V30 2010 H 189.023 -4.04936 -2.798 0
M  V30 2011 N 190.675 0.682077 -1.42076 0
M  V30 2012 C 191.623 1.81707 -1.45208 0
M  V30 2013 C 192.617 1.66183 -0.328591 0
M  V30 2014 O 193.823 1.7288 -0.501264 0
M  V30 2015 H 190.198 0.599014 -0.454628 0
M  V30 2016 H 192.169 1.76183 -2.40836 0
M  V30 2017 C 190.918 3.19816 -1.36428 0
M  V30 2018 H 190.241 3.32385 -2.22171 0
M  V30 2019 H 191.681 3.99272 -1.42681 0
M  V30 2020 C 190.14 3.36809 -0.078191 0
M  V30 2021 O 190.67 3.92124 0.87188 0
M  V30 2022 N 188.876 2.906 0.00229266 0
M  V30 2023 H 188.423 2.45772 -0.771616 0
M  V30 2024 H 188.381 3.02347 0.862179 0
M  V30 2025 N 192.153 1.28127 0.917671 0
M  V30 2026 C 193.085 1.07517 2.02417 0
M  V30 2027 C 194.098 0.0281099 1.62776 0
M  V30 2028 O 195.287 0.270748 1.76435 0
M  V30 2029 C 192.387 0.610957 3.33347 0
M  V30 2030 C 191.56 1.73255 4.01624 0
M  V30 2031 C 190.619 1.26238 5.10833 0
M  V30 2032 O 189.645 1.96389 5.34247 0
M  V30 2033 N 190.847 0.123448 5.80369 0
M  V30 2034 H 193.612 2.02806 2.20658 0
M  V30 2035 H 191.173 1.19827 1.08871 0
M  V30 2036 H 193.165 0.280101 4.0373 0
M  V30 2037 H 191.735 -0.24898 3.11607 0
M  V30 2038 H 190.955 2.23319 3.24842 0
M  V30 2039 H 192.243 2.48503 4.43986 0
M  V30 2040 H 191.641 -0.461847 5.63812 0
M  V30 2041 H 190.198 -0.148158 6.51632 0
M  V30 2042 N 193.631 -1.12557 1.10312 0
M  V30 2043 C 194.879 -1.83675 0.843091 0
M  V30 2044 C 195.2 -1.84435 -0.633131 0
M  V30 2045 O 194.47 -1.30657 -1.45964 0
M  V30 2046 H 193.05 -0.680138 0.308904 0
M  V30 2047 H 195.712 -1.36301 1.39313 0
M  V30 2048 H 194.808 -2.87908 1.2048 0
M  V30 2049 N 195.109 -0.891671 -1.2995 0
M  V30 2050 C 196.039 -0.379797 -2.30391 0
M  V30 2051 C 197.02 0.540919 -1.6127 0
M  V30 2052 O 198.205 0.453352 -1.88834 0
M  V30 2053 C 195.335 0.400654 -3.44981 0
M  V30 2054 C 194.289 -0.428905 -4.25846 0
M  V30 2055 C 193.615 0.478557 -5.32554 0
M  V30 2056 C 194.915 -1.67458 -4.94727 0
M  V30 2057 H 196.609 -1.21914 -2.73454 0
M  V30 2058 H 194.155 -0.587675 -1.31462 0
M  V30 2059 H 196.108 0.769434 -4.14316 0
M  V30 2060 H 194.832 1.27371 -3.0074 0
M  V30 2061 H 193.491 -0.779911 -3.58208 0
M  V30 2062 H 193.139 1.34951 -4.84559 0
M  V30 2063 H 192.839 -0.0727433 -5.87555 0
M  V30 2064 H 194.363 0.843705 -6.04743 0
M  V30 2065 H 195.777 -1.376 -5.56542 0
M  V30 2066 H 194.174 -2.16659 -5.59624 0
M  V30 2067 H 195.244 -2.41518 -4.20473 0
M  V30 2068 N 196.587 1.43421 -0.653314 0
M  V30 2069 C 197.497 2.34568 0.0388565 0
M  V30 2070 C 198.513 1.53888 0.81207 0
M  V30 2071 O 199.689 1.86539 0.759294 0
M  V30 2072 C 196.754 3.32167 0.993269 0
M  V30 2073 C 195.815 4.28751 0.216977 0
M  V30 2074 C 195.048 5.21688 1.12593 0
M  V30 2075 O 195.271 5.19052 2.36519 0
M  V30 2076 O 194.205 5.98919 0.598284 0
M  V30 2077 H 198.031 2.95251 -0.711386 0
M  V30 2078 H 195.616 1.43564 -0.413502 0
M  V30 2079 H 197.498 3.92183 1.54176 0
M  V30 2080 H 196.173 2.73987 1.72374 0
M  V30 2081 H 195.08 3.72215 -0.375101 0
M  V30 2082 H 196.413 4.89913 -0.473924 0
M  V30 2083 N 198.065 0.39524 1.52563 0
M  V30 2084 C 199.313 -0.184678 2.01254 0
M  V30 2085 C 199.634 -1.46822 1.28329 0
M  V30 2086 O 198.904 -1.91666 0.405094 0
M  V30 2087 H 197.484 -0.0712355 0.743596 0
M  V30 2088 H 200.146 0.528293 1.87603 0
M  V30 2089 H 199.242 -0.390681 3.09645 0
M  V30 2090 N 199.544 -1.57102 0.125237 0
M  V30 2091 C 200.955 -1.82384 -0.399142 0
M  V30 2092 C 201.306 -1.04276 -1.66195 0
M  V30 2093 O 200.431 -0.281269 -2.14564 0
M  V30 2094 C 201.026 -3.30821 -0.730932 0
M  V30 2095 C 199.585 -3.56762 -1.19992 0
M  V30 2096 C 198.732 -2.7649 -0.211792 0
M  V30 2097 H 201.683 -1.54786 0.350277 0
M  V30 2098 H 201.704 -3.4579 -1.58775 0
M  V30 2099 H 201.216 -3.87643 0.188345 0
M  V30 2100 H 199.317 -3.05305 -2.13588 0
M  V30 2101 H 199.43 -4.65317 -1.14093 0
M  V30 2102 H 197.794 -2.4489 -0.700085 0
M  V30 2103 H 198.577 -3.36073 0.700691 0
M  V30 2104 N 201.022 0.148545 -1.56898 0
M  V30 2105 C 202.268 0.862694 -1.83536 0
M  V30 2106 C 202.601 1.80889 -0.706604 0
M  V30 2107 O 201.876 1.92328 0.289885 0
M  V30 2108 C 202.159 1.63853 -3.20662 0
M  V30 2109 C 202.012 0.713925 -4.44098 0
M  V30 2110 C 203.331 2.60133 -3.54991 0
M  V30 2111 H 200.45 0.312179 -0.667618 0
M  V30 2112 H 203.092 0.127953 -1.89569 0
M  V30 2113 H 201.242 2.26489 -3.1565 0
M  V30 2114 H 202.914 0.098686 -4.61194 0
M  V30 2115 H 201.157 0.0234019 -4.33794 0
M  V30 2116 H 201.828 1.29278 -5.36648 0
M  V30 2117 H 204.304 2.07616 -3.60603 0
M  V30 2118 H 203.18 3.11468 -4.51972 0
M  V30 2119 H 203.441 3.41417 -2.80868 0
M  V30 2120 N 202.5 1.5196 0.417844 0
M  V30 2121 C 203.747 1.65591 1.16559 0
M  V30 2122 C 204.075 0.381565 1.90721 0
M  V30 2123 O 203.33 -0.635156 1.85106 0
M  V30 2124 C 203.629 2.82269 2.19223 0
M  V30 2125 C 203.295 4.20819 1.61933 0
M  V30 2126 C 201.957 4.58506 1.46033 0
M  V30 2127 C 204.309 5.07196 1.20008 0
M  V30 2128 C 201.637 5.80257 0.867113 0
M  V30 2129 C 203.989 6.29544 0.621086 0
M  V30 2130 C 202.653 6.65987 0.449144 0
M  V30 2131 H 201.923 0.605939 0.42652 0
M  V30 2132 H 204.57 1.86041 0.45397 0
M  V30 2133 H 202.875 2.56118 2.96498 0
M  V30 2134 H 204.572 2.90012 2.76936 0
M  V30 2135 H 201.162 3.91116 1.7529 0
M  V30 2136 H 205.346 4.7867 1.31105 0
M  V30 2137 H 200.602 6.07124 0.721833 0
M  V30 2138 H 204.776 6.95805 0.287798 0
M  V30 2139 H 202.403 7.60199 -0.012632 0
M  V30 2140 N 203.978 -0.674533 1.42435 0
M  V30 2141 C 205.226 -1.43175 1.42637 0
M  V30 2142 C 205.547 -1.94951 0.0438992 0
M  V30 2143 O 204.817 -1.7308 -0.917607 0
M  V30 2144 H 203.397 -0.531307 0.525092 0
M  V30 2145 H 206.059 -0.797006 1.77859 0
M  V30 2146 H 205.155 -2.28463 2.12629 0
M  V30 2147 N 205.456 -1.28612 -0.910864 0
M  V30 2148 C 206.681 -1.1891 -1.69927 0
M  V30 2149 C 207.106 0.248372 -1.86453 0
M  V30 2150 O 206.464 1.17961 -1.37676 0
M  V30 2151 C 206.512 -1.89578 -3.06745 0
M  V30 2152 O 205.616 -1.20521 -3.94396 0
M  V30 2153 H 204.957 -0.412632 -0.520222 0
M  V30 2154 H 207.487 -1.69985 -1.1387 0
M  V30 2155 H 207.497 -1.97597 -3.56958 0
M  V30 2156 H 206.172 -2.94136 -2.94035 0
M  V30 2157 H 204.749 -1.20684 -3.52831 0
M  V30 2158 N 206.934 1.1197 -1.10907 0
M  V30 2159 C 207.897 2.16031 -0.765707 0
M  V30 2160 C 208.897 1.59393 0.212235 0
M  V30 2161 O 210.087 1.74196 -0.0115441 0
M  V30 2162 C 207.219 3.40632 -0.135053 0
M  V30 2163 H 208.412 2.47919 -1.68748 0
M  V30 2164 H 205.965 1.27061 -0.910226 0
M  V30 2165 H 206.7 3.14348 0.797218 0
M  V30 2166 H 206.485 3.8302 -0.838937 0
M  V30 2167 H 207.975 4.17505 0.0892469 0
M  V30 2168 N 208.412 0.89855 1.29475 0
M  V30 2169 C 209.689 0.443416 1.90508 0
M  V30 2170 C 210.069 -1.07685 1.81569 0
M  V30 2171 O 209.417 -1.9182 1.24166 0
M  V30 2172 C 209.627 0.956708 3.35631 0
M  V30 2173 C 210.975 0.999728 4.12663 0
M  V30 2174 O 211.999 0.904299 3.4453 0
M  V30 2175 O 210.858 1.14289 5.34416 0
M  V30 2176 H 207.952 0.138025 0.815401 0
M  V30 2177 H 210.498 0.98834 1.37949 0
M  V30 2178 H 209.27 2.00067 3.36287 0
M  V30 2179 H 208.893 0.391728 3.95666 0
M  V30 2180 N 209.89 -1.43072 0.660911 0
M  V30 2181 C 210.82 -2.33497 -0.0122829 0
M  V30 2182 C 211.801 -1.49903 -0.803925 0
M  V30 2183 O 212.986 -1.78546 -0.763864 0
M  V30 2184 C 210.116 -3.33363 -0.973994 0
M  V30 2185 C 209.07 -4.27003 -0.291928 0
M  V30 2186 C 208.396 -5.16967 -1.36562 0
M  V30 2187 C 209.696 -5.15816 0.820462 0
M  V30 2188 H 211.39 -2.90038 0.742873 0
M  V30 2189 H 208.936 -1.39461 0.358688 0
M  V30 2190 H 210.889 -3.95524 -1.45392 0
M  V30 2191 H 209.613 -2.75095 -1.7604 0
M  V30 2192 H 208.272 -3.66217 0.167623 0
M  V30 2193 H 207.92 -4.55034 -2.14366 0
M  V30 2194 H 207.62 -5.80441 -0.914454 0
M  V30 2195 H 209.144 -5.82003 -1.84675 0
M  V30 2196 H 210.558 -5.71742 0.422366 0
M  V30 2197 H 208.955 -5.8805 1.19656 0
M  V30 2198 H 210.025 -4.55045 1.67518 0
M  V30 2199 N 211.368 -0.403325 -1.52352 0
M  V30 2200 C 212.614 0.167015 -2.02713 0
M  V30 2201 C 212.969 1.43296 -1.28391 0
M  V30 2202 O 212.262 1.87796 -0.379885 0
M  V30 2203 C 212.456 0.474665 -3.54234 0
M  V30 2204 C 212.285 -0.759909 -4.43233 0
M  V30 2205 C 211.055 -1.28338 -4.88731 0
M  V30 2206 C 213.253 -1.63634 -4.87574 0
M  V30 2207 N 211.235 -2.47404 -5.6184 0
M  V30 2208 C 212.606 -2.67329 -5.59406 0
M  V30 2209 C 214.661 -1.65478 -4.69597 0
M  V30 2210 C 213.364 -3.72773 -6.15169 0
M  V30 2211 C 215.39 -2.69837 -5.26253 0
M  V30 2212 C 214.752 -3.72253 -5.98002 0
M  V30 2213 H 210.851 0.0228343 -0.781667 0
M  V30 2214 H 213.435 -0.556368 -1.86581 0
M  V30 2215 H 211.606 1.16709 -3.7045 0
M  V30 2216 H 213.338 1.03338 -3.91284 0
M  V30 2217 H 210.093 -0.842273 -4.6605 0
M  V30 2218 H 210.517 -3.07688 -6.0304 0
M  V30 2219 H 215.159 -0.876389 -4.13617 0
M  V30 2220 H 212.877 -4.51471 -6.70223 0
M  V30 2221 H 216.463 -2.72164 -5.14216 0
M  V30 2222 H 215.343 -4.51679 -6.41058 0
M  V30 2223 N 212.846 1.57033 -0.133567 0
M  V30 2224 C 213.794 2.17348 0.828412 0
M  V30 2225 C 214.788 1.12671 1.26498 0
M  V30 2226 O 215.994 1.30947 1.23502 0
M  V30 2227 H 212.369 0.695775 0.285309 0
M  V30 2228 H 214.34 2.96935 0.295372 0
M  V30 2229 C 213.089 2.79893 2.06289 0
M  V30 2230 H 212.412 3.60147 1.73592 0
M  V30 2231 H 213.852 3.25615 2.71572 0
M  V30 2232 C 212.311 1.77713 2.86216 0
M  V30 2233 O 212.841 1.23937 3.82103 0
M  V30 2234 N 211.047 1.47321 2.50489 0
M  V30 2235 H 210.594 1.91243 1.7258 0
M  V30 2236 H 210.552 0.79199 3.04261 0
M  V30 2237 N 214.325 -0.140222 1.56975 0
M  V30 2238 C 215.573 -0.850005 1.83356 0
M  V30 2239 C 215.894 -1.81399 0.71551 0
M  V30 2240 O 215.164 -1.94136 -0.262294 0
M  V30 2241 H 213.744 -0.316886 0.676456 0
M  V30 2242 H 216.406 -0.132608 1.94448 0
M  V30 2243 H 215.502 -1.40814 2.78528 0
M  V30 2244 N 215.803 -1.52179 -0.40978 0
M  V30 2245 C 217.049 -1.66453 -1.15851 0
M  V30 2246 C 217.382 -0.392972 -1.90182 0
M  V30 2247 O 216.657 0.608579 -1.84734 0
M  V30 2248 C 216.94 -2.88612 -2.15349 0
M  V30 2249 C 216.793 -4.25815 -1.44918 0
M  V30 2250 C 218.112 -3.06294 -3.16026 0
M  V30 2251 H 215.231 -0.60575 -0.419805 0
M  V30 2252 H 217.873 -1.84732 -0.444314 0
M  V30 2253 H 216.023 -2.73158 -2.76255 0
M  V30 2254 H 217.695 -4.52995 -0.871365 0
M  V30 2255 H 215.938 -4.27247 -0.751159 0
M  V30 2256 H 216.609 -5.07337 -2.17516 0
M  V30 2257 H 219.085 -3.20641 -2.65195 0
M  V30 2258 H 217.961 -3.93283 -3.8291 0
M  V30 2259 H 218.222 -2.19579 -3.83715 0
M  V30 2260 N 217.281 0.66697 -1.42791 0
M  V30 2261 C 218.529 1.42417 -1.43394 0
M  V30 2262 C 218.85 1.94925 -0.0542373 0
M  V30 2263 O 218.12 1.73564 0.908415 0
M  V30 2264 H 216.7 0.528515 -0.527902 0
M  V30 2265 H 219.362 0.787562 -1.78279 0
M  V30 2266 H 218.458 2.27333 -2.13837 0
M  V30 2267 N 218.759 1.29093 0.90403 0
M  V30 2268 C 220.008 1.16187 1.64874 0
M  V30 2269 C 220.321 -0.286742 1.93487 0
M  V30 2270 O 221.527 -0.537062 2.66135 0
M  V30 2271 C 219.983 2.03177 2.97064 0
M  V30 2272 C 219.591 3.52836 2.76062 0
M  V30 2273 C 221.335 1.98984 3.74974 0
M  V30 2274 C 219.242 4.31945 4.03952 0
M  V30 2275 H 218.172 0.431246 0.618501 0
M  V30 2276 H 220.823 1.53699 1.00243 0
M  V30 2277 H 219.205 1.5853 3.62883 0
M  V30 2278 H 220.379 4.05507 2.18863 0
M  V30 2279 H 218.694 3.58656 2.11553 0
M  V30 2280 H 221.291 2.55351 4.69787 0
M  V30 2281 H 221.634 0.968815 4.0487 0
M  V30 2282 H 222.167 2.41652 3.15989 0
M  V30 2283 H 218.906 5.34667 3.79225 0
M  V30 2284 H 218.426 3.84045 4.60727 0
M  V30 2285 H 220.105 4.42379 4.72133 0
M  V30 2286 N 220.237 -1.11381 1.11499 0
M  V30 2287 C 221.484 -1.83132 0.864231 0
M  V30 2288 C 221.812 -1.84683 -0.610114 0
M  V30 2289 O 221.067 -1.29589 -1.46646 0
M  V30 2290 C 221.366 -3.30026 1.37177 0
M  V30 2291 C 221.032 -3.48634 2.85946 0
M  V30 2292 C 219.694 -3.53421 3.26569 0
M  V30 2293 C 222.046 -3.54837 3.81759 0
M  V30 2294 C 219.374 -3.61967 4.61733 0
M  V30 2295 C 221.726 -3.64915 5.1674 0
M  V30 2296 C 220.39 -3.67962 5.5692 0
M  V30 2297 H 219.66 -0.670127 0.316245 0
M  V30 2298 H 222.307 -1.31354 1.3935 0
M  V30 2299 H 220.612 -3.84304 0.762753 0
M  V30 2300 H 222.309 -3.84034 1.15408 0
M  V30 2301 H 218.899 -3.45579 2.53521 0
M  V30 2302 H 223.083 -3.50399 3.51474 0
M  V30 2303 H 218.339 -3.62603 4.92269 0
M  V30 2304 H 222.513 -3.68658 5.90816 0
M  V30 2305 H 220.14 -3.74336 6.61647 0
M  V30 2306 N 221.715 -0.905404 -1.28997 0
M  V30 2307 C 222.962 -0.534248 -1.95325 0
M  V30 2308 C 223.29 0.920535 -1.71337 0
M  V30 2309 O 222.545 1.66861 -1.02254 0
M  V30 2310 C 222.844 -0.779906 -3.48787 0
M  V30 2311 C 222.51 -2.21293 -3.92861 0
M  V30 2312 C 221.172 -2.60475 -4.04606 0
M  V30 2313 C 223.524 -3.14587 -4.15553 0
M  V30 2314 C 220.852 -3.9212 -4.36416 0
M  V30 2315 C 223.204 -4.45787 -4.48839 0
M  V30 2316 C 221.868 -4.84834 -4.58794 0
M  V30 2317 H 221.138 -0.195495 -0.714747 0
M  V30 2318 H 223.785 -1.14514 -1.53488 0
M  V30 2319 H 222.09 -0.0861365 -3.91705 0
M  V30 2320 H 223.787 -0.472029 -3.98212 0
M  V30 2321 H 220.377 -1.89887 -3.84241 0
M  V30 2322 H 224.561 -2.85528 -4.0594 0
M  V30 2323 H 219.817 -4.22086 -4.42327 0
M  V30 2324 H 223.991 -5.18098 -4.65346 0
M  V30 2325 H 221.618 -5.86877 -4.83197 0
M  V30 2326 N 223.193 1.4272 -0.668489 0
M  V30 2327 C 224.47 1.95248 -0.117373 0
M  V30 2328 C 224.85 1.60919 1.36632 0
M  V30 2329 O 224.198 0.902095 2.09939 0
M  V30 2330 C 224.408 3.46927 -0.379806 0
M  V30 2331 C 225.756 4.23588 -0.292923 0
M  V30 2332 O 226.78 3.5482 -0.313204 0
M  V30 2333 O 225.639 5.46017 -0.229697 0
M  V30 2334 H 222.733 0.827 0.00079152 0
M  V30 2335 H 225.279 1.52581 -0.742783 0
M  V30 2336 H 224.051 3.65096 -1.40786 0
M  V30 2337 H 223.674 3.96627 0.277923 0
M  V30 2338 N 224.671 0.411399 1.52136 0
M  V30 2339 C 225.896 -0.165538 2.06738 0
M  V30 2340 C 226.321 -1.379 1.27926 0
M  V30 2341 O 225.679 -1.78628 0.310114 0
M  V30 2342 C 225.727 -0.492124 3.57226 0
M  V30 2343 O 224.831 -1.58276 3.80818 0
M  V30 2344 H 224.172 -0.0132132 0.663869 0
M  V30 2345 H 226.702 0.585253 1.96051 0
M  V30 2346 H 226.712 -0.750104 4.01045 0
M  V30 2347 H 225.387 0.394922 4.14021 0
M  V30 2348 H 223.964 -1.31677 3.48877 0
M  V30 2349 N 226.149 -1.5696 0.141893 0
M  V30 2350 C 227.396 -1.9596 -0.510492 0
M  V30 2351 C 227.724 -1.02648 -1.65208 0
M  V30 2352 O 226.979 -0.0546947 -1.95624 0
M  V30 2353 C 227.278 -3.41242 -1.06249 0
M  V30 2354 C 226.944 -4.50882 -0.0398791 0
M  V30 2355 C 225.606 -4.80595 0.241247 0
M  V30 2356 C 227.958 -5.17058 0.65578 0
M  V30 2357 C 225.286 -5.73792 1.22393 0
M  V30 2358 C 227.638 -6.11313 1.62724 0
M  V30 2359 C 226.302 -6.39407 1.91612 0
M  V30 2360 H 225.572 -0.717068 -0.186802 0
M  V30 2361 H 228.219 -1.90142 0.227643 0
M  V30 2362 H 226.524 -3.43866 -1.87785 0
M  V30 2363 H 228.221 -3.68742 -1.57576 0
M  V30 2364 H 224.811 -4.27754 -0.269174 0
M  V30 2365 H 228.995 -4.94239 0.451779 0
M  V30 2366 H 224.251 -5.93853 1.45424 0
M  V30 2367 H 228.425 -6.61668 2.17183 0
M  V30 2368 H 226.052 -7.11427 2.6791 0
M  V30 2369 N 227.627 0.131896 -1.57047 0
M  V30 2370 C 228.904 0.871495 -1.75112 0
M  V30 2371 C 229.284 1.9866 -0.713949 0
M  V30 2372 O 228.632 2.26965 0.264447 0
M  V30 2373 C 228.842 1.40007 -3.19686 0
M  V30 2374 C 230.19 1.85752 -3.81813 0
M  V30 2375 O 231.214 1.49715 -3.23209 0
M  V30 2376 O 230.073 2.5226 -4.84796 0
M  V30 2377 H 227.167 0.412919 -0.716538 0
M  V30 2378 H 229.713 0.116641 -1.69299 0
M  V30 2379 H 228.485 0.599404 -3.86682 0
M  V30 2380 H 228.108 2.218 -3.29986 0
M  V30 2381 N 229.106 1.52395 0.401703 0
M  V30 2382 C 230.054 1.7689 1.51039 0
M  V30 2383 C 231.048 0.636298 1.56996 0
M  V30 2384 O 232.254 0.818507 1.60314 0
M  V30 2385 H 228.629 0.559502 0.502456 0
M  V30 2386 H 230.6 2.69757 1.27568 0
M  V30 2387 C 229.349 1.94331 2.88324 0
M  V30 2388 H 228.672 2.80905 2.84486 0
M  V30 2389 H 230.112 2.15466 3.65172 0
M  V30 2390 C 228.571 0.712396 3.29282 0
M  V30 2391 O 229.101 -0.116218 4.01532 0
M  V30 2392 N 227.307 0.546154 2.85422 0
M  V30 2393 H 226.854 1.22156 2.26794 0
M  V30 2394 H 226.812 -0.276113 3.13185 0
M  V30 2395 N 230.584 -0.659388 1.43143 0
M  V30 2396 C 231.861 -1.41627 1.34912 0
M  V30 2397 C 232.241 -2.11099 -0.00607785 0
M  V30 2398 O 231.589 -2.04353 -1.02236 0
M  V30 2399 C 231.799 -2.40604 2.52805 0
M  V30 2400 C 233.147 -3.04789 2.95616 0
M  V30 2401 O 234.171 -2.50932 2.52807 0
M  V30 2402 O 233.03 -4.02421 3.69756 0
M  V30 2403 H 230.124 -0.63246 0.532844 0
M  V30 2404 H 232.67 -0.686814 1.5518 0
M  V30 2405 H 231.442 -1.88174 3.43083 0
M  V30 2406 H 231.065 -3.21009 2.34604 0
M  V30 2407 N 232.062 -1.29571 -0.897171 0
M  V30 2408 C 233.31 -1.17456 -1.64464 0
M  V30 2409 C 233.631 0.273698 -1.9307 0
M  V30 2410 O 232.901 1.18684 -1.55855 0
M  V30 2411 H 231.481 -0.431706 -0.609622 0
M  V30 2412 H 234.143 -1.62531 -1.07562 0
M  V30 2413 H 233.239 -1.72648 -2.59998 0
M  V30 2414 N 233.54 1.10788 -1.12088 0
M  V30 2415 C 234.487 2.17025 -0.785407 0
M  V30 2416 C 235.457 1.64265 0.246191 0
M  V30 2417 O 236.642 1.90412 0.121584 0
M  V30 2418 C 233.782 3.44249 -0.242177 0
M  V30 2419 C 232.895 4.1098 -1.33115 0
M  V30 2420 C 232.03 5.25911 -0.747741 0
M  V30 2421 C 231.069 5.84538 -1.81609 0
M  V30 2422 N 230.206 6.90853 -1.25167 0
M  V30 2423 H 235.046 2.45066 -1.69548 0
M  V30 2424 H 232.583 1.20297 -0.846582 0
M  V30 2425 H 234.541 4.17101 0.0908026 0
M  V30 2426 H 233.171 3.16571 0.631072 0
M  V30 2427 H 232.223 3.36133 -1.78097 0
M  V30 2428 H 233.535 4.50601 -2.13917 0
M  V30 2429 H 232.689 6.056 -0.365216 0
M  V30 2430 H 231.428 4.87614 0.0915188 0
M  V30 2431 H 230.433 5.03522 -2.20785 0
M  V30 2432 H 231.658 6.249 -2.6585 0
M  V30 2433 H 229.604 6.54562 -0.434174 0
M  V30 2434 H 229.521 7.29166 -1.99633 0
M  V30 2435 H 230.789 7.7433 -0.896259 0
M  V30 2436 N 235.018 0.912232 1.28515 0
M  V30 2437 C 235.965 0.397954 2.27343 0
M  V30 2438 C 236.935 -0.526766 1.57526 0
M  V30 2439 O 238.12 -0.449292 1.85435 0
M  V30 2440 C 235.26 -0.357263 3.43246 0
M  V30 2441 C 234.373 0.599788 4.27816 0
M  V30 2442 C 233.508 -0.173725 5.30916 0
M  V30 2443 C 232.547 0.777039 6.07148 0
M  V30 2444 N 231.684 0.0371398 7.0209 0
M  V30 2445 H 236.524 1.24577 2.70711 0
M  V30 2446 H 234.061 0.625612 1.33133 0
M  V30 2447 H 236.019 -0.8113 4.09236 0
M  V30 2448 H 234.649 -1.16943 3.00872 0
M  V30 2449 H 233.701 1.17235 3.61884 0
M  V30 2450 H 235.013 1.32704 4.80823 0
M  V30 2451 H 234.167 -0.688394 6.02782 0
M  V30 2452 H 232.906 -0.934041 4.78672 0
M  V30 2453 H 231.911 1.3031 5.34134 0
M  V30 2454 H 233.136 1.53689 6.61481 0
M  V30 2455 H 231.082 -0.705213 6.52198 0
M  V30 2456 H 230.999 0.704249 7.52713 0
M  V30 2457 H 232.267 -0.457383 7.78157 0
M  V30 2458 N 236.496 -1.42363 0.676048 0
M  V30 2459 C 237.444 -2.32596 -0.0131507 0
M  V30 2460 C 238.438 -1.49891 -0.789238 0
M  V30 2461 O 239.644 -1.65955 -0.697061 0
M  V30 2462 H 236.019 -0.751647 -0.0230481 0
M  V30 2463 H 237.99 -2.88421 0.765243 0
M  V30 2464 C 236.739 -3.34479 -0.949702 0
M  V30 2465 H 236.062 -3.98158 -0.361938 0
M  V30 2466 H 237.502 -4.00199 -1.4006 0
M  V30 2467 C 235.961 -2.66838 -2.05667 0
M  V30 2468 O 236.491 -2.50124 -3.14326 0
M  V30 2469 N 234.697 -2.25843 -1.82875 0
M  V30 2470 H 234.244 -2.39637 -0.945085 0
M  V30 2471 H 234.202 -1.80918 -2.5713 0
M  V30 2472 N 237.974 -0.419461 -1.51915 0
M  V30 2473 C 238.922 0.415502 -2.28859 0
M  V30 2474 C 239.916 1.03674 -1.3397 0
M  V30 2475 O 241.122 0.973757 -1.51387 0
M  V30 2476 H 237.497 0.152786 -0.736315 0
M  V30 2477 H 239.468 -0.254531 -2.97312 0
M  V30 2478 C 238.217 1.51425 -3.12995 0
M  V30 2479 H 237.54 1.04556 -3.85886 0
M  V30 2480 H 238.98 2.07208 -3.6992 0
M  V30 2481 C 237.439 2.48745 -2.27217 0
M  V30 2482 O 237.969 3.52871 -1.9195 0
M  V30 2483 N 236.175 2.19202 -1.90785 0
M  V30 2484 H 235.722 1.34556 -2.19664 0
M  V30 2485 H 235.68 2.84561 -1.33687 0
M  V30 2486 N 239.452 1.56882 -0.150215 0
M  V30 2487 C 240.863 1.82995 0.370076 0
M  V30 2488 C 241.214 1.06907 1.64515 0
M  V30 2489 O 240.339 0.315369 2.1409 0
M  V30 2490 C 240.934 3.31942 0.678208 0
M  V30 2491 C 239.493 3.58625 1.14301 0
M  V30 2492 C 238.64 2.76792 0.167778 0
M  V30 2493 H 241.591 1.54209 -0.374858 0
M  V30 2494 H 241.612 3.48272 1.53254 0
M  V30 2495 H 241.124 3.87294 -0.249991 0
M  V30 2496 H 239.225 3.08664 2.08704 0
M  V30 2497 H 239.338 4.67073 1.06676 0
M  V30 2498 H 237.702 2.45972 0.661037 0
M  V30 2499 H 238.485 3.34916 -0.754069 0
M  V30 2500 N 240.93 -0.123565 1.57115 0
M  V30 2501 C 241.893 -1.13583 1.99076 0
M  V30 2502 C 242.893 -1.34564 0.880296 0
M  V30 2503 O 244.083 -1.31158 1.14644 0
M  V30 2504 C 241.215 -2.49128 2.32698 0
M  V30 2505 H 242.408 -0.775287 2.89706 0
M  V30 2506 H 239.961 -0.36771 1.51913 0
M  V30 2507 H 240.696 -2.90111 1.44934 0
M  V30 2508 H 240.481 -2.35255 3.13684 0
M  V30 2509 H 241.971 -3.2199 2.65918 0
M  V30 2510 N 242.408 -1.52605 -0.393616 0
M  V30 2511 C 243.657 -1.66649 -1.13627 0
M  V30 2512 C 243.97 -0.410364 -1.91247 0
M  V30 2513 O 245.176 -0.430854 -2.68059 0
M  V30 2514 C 243.632 -2.9449 -2.06891 0
M  V30 2515 C 243.24 -4.27266 -1.34714 0
M  V30 2516 C 244.984 -3.17899 -2.81319 0
M  V30 2517 C 242.891 -5.46217 -2.26717 0
M  V30 2518 H 241.821 -0.62084 -0.427871 0
M  V30 2519 H 244.472 -1.791 -0.399428 0
M  V30 2520 H 242.854 -2.75774 -2.84191 0
M  V30 2521 H 244.028 -4.56518 -0.626714 0
M  V30 2522 H 242.343 -4.10081 -0.722643 0
M  V30 2523 H 244.94 -4.03949 -3.50328 0
M  V30 2524 H 245.283 -2.32777 -3.45139 0
M  V30 2525 H 245.816 -3.37159 -2.11113 0
M  V30 2526 H 242.555 -6.33733 -1.67521 0
M  V30 2527 H 242.075 -5.21283 -2.96689 0
M  V30 2528 H 243.754 -5.7991 -2.86903 0
M  V30 2529 N 243.887 0.651787 -1.4349 0
M  V30 2530 C 245.133 1.41376 -1.45398 0
M  V30 2531 C 245.466 1.94041 -0.0784823 0
M  V30 2532 O 244.741 1.72379 0.900878 0
M  V30 2533 C 245.024 2.59414 -2.49752 0
M  V30 2534 C 244.877 2.12232 -3.96582 0
M  V30 2535 C 246.196 3.61626 -2.50827 0
M  V30 2536 H 243.315 0.512719 -0.529422 0
M  V30 2537 H 245.957 0.738796 -1.75048 0
M  V30 2538 H 244.107 3.16997 -2.246 0
M  V30 2539 H 245.779 1.59639 -4.32797 0
M  V30 2540 H 244.022 1.43592 -4.09346 0
M  V30 2541 H 244.693 2.9712 -4.65214 0
M  V30 2542 H 247.169 3.13805 -2.7325 0
M  V30 2543 H 246.045 4.41766 -3.25783 0
M  V30 2544 H 246.306 4.14314 -1.5426 0
M  V30 2545 N 245.365 1.30045 0.890287 0
M  V30 2546 C 246.614 1.17929 1.63633 0
M  V30 2547 C 246.927 -0.266204 1.9378 0
M  V30 2548 O 248.133 -0.508804 2.6669 0
M  V30 2549 C 246.589 2.06317 2.94892 0
M  V30 2550 C 246.197 3.55745 2.72305 0
M  V30 2551 C 247.941 2.0295 3.72843 0
M  V30 2552 C 245.848 4.36205 3.99348 0
M  V30 2553 H 244.778 0.437782 0.613892 0
M  V30 2554 H 247.429 1.54754 0.986075 0
M  V30 2555 H 245.811 1.6237 3.61182 0
M  V30 2556 H 246.985 4.07805 2.1455 0
M  V30 2557 H 245.3 3.6088 2.07737 0
M  V30 2558 H 247.897 2.60319 4.67053 0
M  V30 2559 H 248.24 1.0117 4.0382 0
M  V30 2560 H 248.773 2.4499 3.13408 0
M  V30 2561 H 245.512 5.38659 3.73533 0
M  V30 2562 H 245.032 3.8891 4.56628 0
M  V30 2563 H 246.711 4.47362 4.67415 0
M  V30 2564 N 246.843 -1.10192 1.12674 0
M  V30 2565 C 248.092 -1.81573 0.8783 0
M  V30 2566 C 248.405 -1.86249 -0.597557 0
M  V30 2567 O 249.611 -2.5386 -0.962681 0
M  V30 2568 C 248.067 -3.26149 1.52167 0
M  V30 2569 C 247.675 -3.29763 3.03249 0
M  V30 2570 C 249.419 -4.0234 1.3536 0
M  V30 2571 C 247.326 -4.68815 3.60508 0
M  V30 2572 H 246.256 -0.680394 0.324931 0
M  V30 2573 H 248.907 -1.23902 1.35353 0
M  V30 2574 H 247.289 -3.83832 0.974104 0
M  V30 2575 H 248.463 -2.8189 3.6452 0
M  V30 2576 H 246.778 -2.67059 3.19481 0
M  V30 2577 H 249.375 -5.05058 1.75559 0
M  V30 2578 H 249.718 -4.15235 0.297554 0
M  V30 2579 H 250.251 -3.51079 1.87052 0
M  V30 2580 H 246.99 -4.61121 4.65884 0
M  V30 2581 H 246.51 -5.17045 3.04014 0
M  V30 2582 H 248.189 -5.37785 3.59717 0
M  V30 2583 N 248.321 -0.919034 -1.28029 0
M  V30 2584 C 249.569 -0.553838 -1.94363 0
M  V30 2585 C 249.89 0.906357 -1.72656 0
M  V30 2586 O 249.16 1.64143 -1.0693 0
M  V30 2587 H 247.74 -0.201834 -0.719216 0
M  V30 2588 H 250.402 -1.16954 -1.55909 0
M  V30 2589 H 249.498 -0.752758 -3.02886 0
M  V30 2590 N 249.799 1.42003 -0.683588 0
M  V30 2591 C 250.747 2.326 0.000815408 0
M  V30 2592 C 251.741 1.50308 0.781278 0
M  V30 2593 O 252.947 1.66322 0.688251 0
M  V30 2594 H 249.322 0.751758 0.0190616 0
M  V30 2595 H 251.293 2.88011 -0.780528 0
M  V30 2596 C 250.042 3.34978 0.93195 0
M  V30 2597 H 249.365 3.98345 0.340817 0
M  V30 2598 H 250.805 4.00936 1.37936 0
M  V30 2599 C 249.264 2.67925 2.04249 0
M  V30 2600 O 249.794 2.51788 3.12995 0
M  V30 2601 N 248 2.2681 1.81675 0
M  V30 2602 H 247.547 2.40135 0.932363 0
M  V30 2603 H 247.505 1.8228 2.56167 0
M  V30 2604 N 251.277 0.427512 1.51691 0
M  V30 2605 C 252.225 -0.403359 2.29076 0
M  V30 2606 C 253.219 -1.02962 1.34518 0
M  V30 2607 O 254.425 -0.965715 1.51901 0
M  V30 2608 H 250.8 -0.148879 0.737115 0
M  V30 2609 H 252.771 0.270295 2.97173 0
M  V30 2610 C 251.52 -1.49763 3.13794 0
M  V30 2611 H 250.843 -1.02508 3.86435 0
M  V30 2612 H 252.283 -2.05244 3.71014 0
M  V30 2613 C 250.742 -2.47536 2.28533 0
M  V30 2614 O 251.272 -3.51848 1.93819 0
M  V30 2615 N 249.478 -2.18187 1.91945 0
M  V30 2616 H 249.025 -1.33389 2.20375 0
M  V30 2617 H 248.983 -2.83848 1.35195 0
M  V30 2618 N 252.755 -1.56801 0.158532 0
M  V30 2619 C 254.003 -1.96102 -0.488712 0
M  V30 2620 C 254.324 -1.04498 -1.64636 0
M  V30 2621 O 253.594 -0.108783 -1.95598 0
M  V30 2622 H 252.174 -0.724102 -0.183535 0
M  V30 2623 H 254.836 -1.93457 0.236728 0
M  V30 2624 H 253.932 -3.00097 -0.857219 0
M  V30 2625 N 254.233 0.115231 -1.57178 0
M  V30 2626 C 255.165 1.16694 -1.97269 0
M  V30 2627 C 256.178 1.37445 -0.872502 0
M  V30 2628 O 257.367 1.36454 -1.15077 0
M  V30 2629 C 254.467 2.52627 -2.25905 0
M  V30 2630 C 253.64 2.52427 -3.57211 0
M  V30 2631 C 252.699 3.70134 -3.74016 0
M  V30 2632 O 251.725 3.53546 -4.46087 0
M  V30 2633 N 252.927 4.88844 -3.13068 0
M  V30 2634 H 255.692 0.82588 -2.88096 0
M  V30 2635 H 253.253 0.304461 -1.59011 0
M  V30 2636 H 255.245 3.29937 -2.34359 0
M  V30 2637 H 253.815 2.789 -1.41186 0
M  V30 2638 H 253.035 1.60805 -3.5991 0
M  V30 2639 H 254.323 2.49353 -4.43509 0
M  V30 2640 H 253.721 5.05225 -2.54489 0
M  V30 2641 H 252.278 5.63817 -3.27037 0
M  V30 2642 N 255.711 1.52812 0.385517 0
M  V30 2643 C 256.96 1.67249 1.12741 0
M  V30 2644 C 257.273 0.4205 1.91027 0
M  V30 2645 O 258.479 0.445064 2.67827 0
M  V30 2646 C 256.935 2.95583 2.05326 0
M  V30 2647 C 256.543 4.27974 1.32447 0
M  V30 2648 C 258.287 3.19386 2.7963 0
M  V30 2649 C 256.194 5.47412 2.23818 0
M  V30 2650 H 255.124 0.6231 0.424573 0
M  V30 2651 H 257.775 1.79309 0.389924 0
M  V30 2652 H 256.157 2.77277 2.82725 0
M  V30 2653 H 257.331 4.56844 0.602495 0
M  V30 2654 H 255.646 4.10459 0.700885 0
M  V30 2655 H 258.243 4.05801 3.48181 0
M  V30 2656 H 258.586 2.34604 3.43899 0
M  V30 2657 H 259.119 3.38274 2.09322 0
M  V30 2658 H 255.858 6.34612 1.64157 0
M  V30 2659 H 255.378 5.22849 2.93921 0
M  V30 2660 H 257.057 5.81423 2.83824 0
M  V30 2661 N 257.189 -0.644168 1.43834 0
M  V30 2662 C 258.139 -1.7501 1.46135 0
M  V30 2663 C 259.123 -1.57507 0.328685 0
M  V30 2664 O 260.315 -1.67465 0.5731 0
M  V30 2665 C 257.444 -3.13641 1.39585 0
M  V30 2666 C 256.53 -3.3666 2.57916 0
M  V30 2667 N 256.921 -3.30107 3.83227 0
M  V30 2668 C 255.219 -3.67411 2.52834 0
M  V30 2669 C 255.92 -3.53456 4.61999 0
M  V30 2670 N 254.896 -3.75705 3.9287 0
M  V30 2671 H 258.698 -1.68382 2.40883 0
M  V30 2672 H 256.212 -0.846169 1.38614 0
M  V30 2673 H 258.209 -3.92933 1.39317 0
M  V30 2674 H 256.869 -3.21444 0.45865 0
M  V30 2675 H 257.88 -3.09316 4.15384 0
M  V30 2676 H 254.557 -3.82275 1.67845 0
M  V30 2677 H 255.947 -3.54093 5.71024 0
M  V30 2678 N 258.668 -1.30515 -0.883378 0
M  V30 2679 C 259.898 -1.22182 -1.66599 0
M  V30 2680 C 260.306 0.217507 -1.87946 0
M  V30 2681 O 259.649 1.1554 -1.42815 0
M  V30 2682 C 259.711 -1.88146 -3.06335 0
M  V30 2683 C 259.375 -3.37476 -3.08154 0
M  V30 2684 C 260.372 -4.33443 -2.87094 0
M  V30 2685 C 258.057 -3.7895 -3.29701 0
M  V30 2686 C 260.051 -5.68858 -2.8754 0
M  V30 2687 C 257.738 -5.14482 -3.29776 0
M  V30 2688 C 258.736 -6.09246 -3.0872 0
M  V30 2689 O 258.424 -7.42302 -3.08615 0
M  V30 2690 H 258.156 -0.423898 -0.52658 0
M  V30 2691 H 260.71 -1.72703 -1.11188 0
M  V30 2692 H 258.94 -1.32157 -3.63416 0
M  V30 2693 H 260.629 -1.7391 -3.66756 0
M  V30 2694 H 261.395 -4.02733 -2.70243 0
M  V30 2695 H 257.274 -3.05631 -3.45124 0
M  V30 2696 H 260.818 -6.428 -2.71024 0
M  V30 2697 H 256.715 -5.44832 -3.46163 0
M  V30 2698 H 257.483 -7.5131 -3.24769 0
M  V30 2699 N 260.146 1.09593 -1.13257 0
M  V30 2700 C 261.423 1.78293 -0.804432 0
M  V30 2701 C 261.803 1.99004 0.70431 0
M  V30 2702 O 261.151 1.59007 1.641 0
M  V30 2703 C 261.361 3.10707 -1.5894 0
M  V30 2704 C 262.709 3.85443 -1.78099 0
M  V30 2705 O 263.733 3.20454 -1.55525 0
M  V30 2706 O 262.592 5.02108 -2.15753 0
M  V30 2707 H 259.686 0.773156 -0.293528 0
M  V30 2708 H 262.232 1.16164 -1.23709 0
M  V30 2709 H 261.004 2.91106 -2.61482 0
M  V30 2710 H 260.627 3.80558 -1.15157 0
M  V30 2711 N 261.624 0.925811 1.2754 0
M  V30 2712 C 262.574 0.394488 2.24561 0
M  V30 2713 C 263.558 -0.500183 1.52928 0
M  V30 2714 O 264.75 -0.337936 1.73744 0
M  V30 2715 C 261.879 -0.353328 3.41477 0
M  V30 2716 C 260.965 0.557752 4.20416 0
M  V30 2717 N 261.356 1.67674 4.77199 0
M  V30 2718 C 259.654 0.360404 4.44541 0
M  V30 2719 C 260.355 2.24324 5.36706 0
M  V30 2720 N 259.331 1.53305 5.21535 0
M  V30 2721 H 263.133 1.2489 2.66045 0
M  V30 2722 H 260.647 0.779864 1.4245 0
M  V30 2723 H 262.644 -0.7509 4.10082 0
M  V30 2724 H 261.304 -1.20469 3.01525 0
M  V30 2725 H 262.315 2.05915 4.75204 0
M  V30 2726 H 258.992 -0.450454 4.15063 0
M  V30 2727 H 260.382 3.18521 5.91603 0
M  V30 2728 N 263.102 -1.41638 0.69111 0
M  V30 2729 C 264.034 -2.29194 -0.0161523 0
M  V30 2730 C 265.047 -1.44549 -0.748955 0
M  V30 2731 O 266.236 -1.681 -0.6004 0
M  V30 2732 C 263.336 -3.22325 -1.0469 0
M  V30 2733 C 262.509 -4.35706 -0.384621 0
M  V30 2734 C 261.568 -5.09443 -1.31737 0
M  V30 2735 O 260.594 -5.63386 -0.811451 0
M  V30 2736 N 261.796 -5.16487 -2.64993 0
M  V30 2737 H 264.561 -2.90534 0.735523 0
M  V30 2738 H 262.122 -1.52742 0.53679 0
M  V30 2739 H 264.114 -3.68522 -1.67252 0
M  V30 2740 H 262.684 -2.62323 -1.70015 0
M  V30 2741 H 261.904 -3.91948 0.420804 0
M  V30 2742 H 263.192 -5.08743 0.0760765 0
M  V30 2743 H 262.59 -4.741 -3.08619 0
M  V30 2744 H 261.147 -5.66276 -3.22761 0
M  V30 2745 N 264.58 -0.43555 -1.51462 0
M  V30 2746 C 265.528 0.391205 -2.29287 0
M  V30 2747 C 266.522 1.02247 -1.35062 0
M  V30 2748 O 267.728 0.957646 -1.52411 0
M  V30 2749 H 264.103 0.144968 -0.737895 0
M  V30 2750 H 266.074 -0.286051 -2.97026 0
M  V30 2751 C 264.823 1.48096 -3.14583 0
M  V30 2752 H 264.146 1.00457 -3.86973 0
M  V30 2753 H 265.586 2.03273 -3.72097 0
M  V30 2754 C 264.045 2.46321 -2.29843 0
M  V30 2755 O 264.575 3.50815 -1.95682 0
M  V30 2756 N 262.781 2.17166 -1.931 0
M  V30 2757 H 262.328 1.32218 -2.21079 0
M  V30 2758 H 262.286 2.83127 -1.36698 0
M  V30 2759 N 266.058 1.56714 -0.166846 0
M  V30 2760 C 267.335 1.88412 0.525373 0
M  V30 2761 C 267.715 1.07602 1.81618 0
M  V30 2762 O 267.063 0.168621 2.27877 0
M  V30 2763 C 267.273 3.40363 0.771613 0
M  V30 2764 C 268.621 4.10007 1.1036 0
M  V30 2765 O 269.645 3.45655 0.860304 0
M  V30 2766 O 268.504 5.2369 1.56239 0
M  V30 2767 H 265.598 0.781587 0.270278 0
M  V30 2768 H 268.144 1.68458 -0.204946 0
M  V30 2769 H 266.916 3.91046 -0.141093 0
M  V30 2770 H 266.539 3.65914 1.55541 0
M  V30 2771 N 267.536 -0.106894 1.57237 0
M  V30 2772 C 268.784 -0.810921 1.85117 0
M  V30 2773 C 269.105 -1.7984 0.753827 0
M  V30 2774 O 268.375 -1.94649 -0.221056 0
M  V30 2775 H 266.955 -0.302466 0.683025 0
M  V30 2776 H 269.617 -0.0913324 1.94686 0
M  V30 2777 H 268.713 -1.34875 2.81452 0
M  V30 2778 N 269.014 -1.53014 -0.377408 0
M  V30 2779 C 269.977 -1.77957 -1.44444 0
M  V30 2780 C 270.977 -0.649763 -1.47087 0
M  V30 2781 O 272.167 -0.917897 -1.48055 0
M  V30 2782 C 269.299 -1.89089 -2.83651 0
M  V30 2783 H 270.492 -2.73243 -1.23606 0
M  V30 2784 H 268.045 -1.43912 -0.609844 0
M  V30 2785 H 268.78 -0.958293 -3.09818 0
M  V30 2786 H 268.565 -2.71254 -2.83132 0
M  V30 2787 H 270.055 -2.1002 -3.60945 0
M  V30 2788 N 270.492 0.636531 -1.44174 0
M  V30 2789 C 271.717 1.42847 -1.50364 0
M  V30 2790 C 272.142 1.87665 -0.127867 0
M  V30 2791 O 271.5 1.58408 0.88185 0
M  V30 2792 C 271.548 2.62854 -2.4686 0
M  V30 2793 O 270.652 3.62501 -1.9664 0
M  V30 2794 H 269.993 0.427642 -0.507955 0
M  V30 2795 H 272.523 0.777422 -1.89255 0
M  V30 2796 H 272.533 3.10465 -2.64718 0
M  V30 2797 H 271.208 2.29578 -3.46795 0
M  V30 2798 H 269.785 3.21735 -1.88523 0
M  V30 2799 N 271.97 1.30982 0.876444 0
M  V30 2800 C 272.902 1.13902 1.98894 0
M  V30 2801 C 273.915 0.0798815 1.62604 0
M  V30 2802 O 275.104 0.326743 1.75484 0
M  V30 2803 C 272.204 0.716699 3.31235 0
M  V30 2804 C 271.377 1.85945 3.95908 0
M  V30 2805 C 270.436 1.42426 5.06558 0
M  V30 2806 O 269.462 2.13287 5.27729 0
M  V30 2807 N 270.664 0.308025 5.79682 0
M  V30 2808 H 273.429 2.09724 2.14094 0
M  V30 2809 H 270.99 1.2323 1.05004 0
M  V30 2810 H 272.982 0.408403 4.02634 0
M  V30 2811 H 271.552 -0.149719 3.12241 0
M  V30 2812 H 270.772 2.33541 3.17573 0
M  V30 2813 H 272.06 2.62503 4.35855 0
M  V30 2814 H 271.458 -0.282241 5.64995 0
M  V30 2815 H 270.015 0.0592282 6.51773 0
M  V30 2816 N 273.449 -1.08991 1.13837 0
M  V30 2817 C 274.412 -2.13925 0.822715 0
M  V30 2818 C 275.412 -1.599 -0.1699 0
M  V30 2819 O 276.602 -1.74104 0.0577251 0
M  V30 2820 C 273.734 -3.40155 0.225318 0
M  V30 2821 H 274.927 -2.43358 1.75262 0
M  V30 2822 H 272.48 -1.24603 0.943594 0
M  V30 2823 H 273.215 -3.16352 -0.713594 0
M  V30 2824 H 273 -3.80661 0.940193 0
M  V30 2825 H 274.49 -4.17594 0.0214784 0
M  V30 2826 N 274.927 -0.932562 -1.27047 0
M  V30 2827 C 275.857 -0.452902 -2.29066 0
M  V30 2828 C 276.838 0.489338 -1.62909 0
M  V30 2829 O 278.023 0.393046 -1.90181 0
M  V30 2830 C 275.153 0.290698 -3.46081 0
M  V30 2831 C 274.107 -0.564168 -4.24265 0
M  V30 2832 C 273.433 0.308886 -5.33807 0
M  V30 2833 C 274.733 -1.83112 -4.89149 0
M  V30 2834 H 276.427 -1.30552 -2.69437 0
M  V30 2835 H 273.973 -0.629201 -1.29526 0
M  V30 2836 H 275.926 0.637233 -4.16554 0
M  V30 2837 H 274.65 1.17738 -3.0464 0
M  V30 2838 H 273.309 -0.893477 -3.55545 0
M  V30 2839 H 272.957 1.19467 -4.88607 0
M  V30 2840 H 272.657 -0.259633 -5.87026 0
M  V30 2841 H 274.181 0.650884 -6.07121 0
M  V30 2842 H 275.595 -1.55236 -5.51883 0
M  V30 2843 H 273.992 -2.34353 -5.52448 0
M  V30 2844 H 275.062 -2.54772 -4.12576 0
M  V30 2845 N 276.405 1.4127 -0.698611 0
M  V30 2846 C 277.368 2.29158 -0.044132 0
M  V30 2847 C 278.368 1.44529 0.704841 0
M  V30 2848 O 279.558 1.65643 0.539276 0
M  V30 2849 C 276.69 3.27459 0.947809 0
M  V30 2850 H 277.883 2.88529 -0.817994 0
M  V30 2851 H 275.436 1.49307 -0.46228 0
M  V30 2852 H 276.171 2.73073 1.74933 0
M  V30 2853 H 275.956 3.8991 0.41385 0
M  V30 2854 H 277.446 3.93311 1.40344 0
M  V30 2855 N 277.883 0.443576 1.51229 0
M  V30 2856 C 279.108 -0.121648 2.07043 0
M  V30 2857 C 279.533 -1.35156 1.30823 0
M  V30 2858 O 278.891 -1.7793 0.347934 0
M  V30 2859 C 278.939 -0.41624 3.5819 0
M  V30 2860 O 278.043 -1.50163 3.8409 0
M  V30 2861 H 277.384 0.000871367 0.663999 0
M  V30 2862 H 279.914 0.626706 1.94765 0
M  V30 2863 H 279.924 -0.664867 4.02546 0
M  V30 2864 H 278.599 0.482653 4.1309 0
M  V30 2865 H 277.176 -1.24248 3.51592 0
M  V30 2866 N 279.361 -1.56624 0.175154 0
M  V30 2867 C 280.601 -1.98894 -0.471221 0
M  V30 2868 C 280.965 -1.05889 -1.60161 0
M  V30 2869 O 282.166 -1.37315 -2.3108 0
M  V30 2870 C 280.437 -3.44865 -0.938241 0
M  V30 2871 S 281.996 -4.09164 -1.58526 0
M  V30 2872 H 278.814 -0.694686 -0.151434 0
M  V30 2873 H 281.416 -1.93577 0.27352 0
M  V30 2874 H 280.12 -4.10265 -0.10518 0
M  V30 2875 H 279.651 -3.53956 -1.71693 0
M  V30 2876 H 281.666 -4.04528 -2.87352 0
M  V30 2877 N 280.839 0.0985539 -1.57292 0
M  V30 2878 C 281.771 1.14595 -1.98496 0
M  V30 2879 C 282.784 1.36512 -0.887031 0
M  V30 2880 O 283.973 1.35225 -1.16518 0
M  V30 2881 C 281.073 2.50216 -2.28572 0
M  V30 2882 C 280.246 2.48624 -3.59868 0
M  V30 2883 C 279.305 3.66146 -3.7792 0
M  V30 2884 O 278.331 3.48795 -4.49812 0
M  V30 2885 N 279.533 4.85496 -3.18235 0
M  V30 2886 H 282.298 0.795277 -2.88956 0
M  V30 2887 H 279.859 0.287579 -1.59325 0
M  V30 2888 H 281.851 3.27432 -2.37845 0
M  V30 2889 H 280.421 2.77387 -1.44136 0
M  V30 2890 H 279.641 1.56978 -3.61596 0
M  V30 2891 H 280.929 2.44635 -4.46129 0
M  V30 2892 H 280.327 5.02497 -2.59833 0
M  V30 2893 H 278.884 5.60317 -3.32999 0
M  V30 2894 N 282.317 1.53212 0.369288 0
M  V30 2895 C 283.733 1.42902 0.710712 0
M  V30 2896 C 283.933 0.565135 1.93413 0
M  V30 2897 O 282.989 0.0461484 2.52458 0
M  V30 2898 C 284.302 2.86042 0.927382 0
M  V30 2899 C 285.85 2.9565 1.02762 0
M  V30 2900 C 286.325 4.39843 1.27679 0
M  V30 2901 N 287.816 4.43256 1.34457 0
M  V30 2902 C 288.551 5.51929 1.55439 0
M  V30 2903 N 288.047 6.70655 1.73762 0
M  V30 2904 N 289.84 5.39502 1.57779 0
M  V30 2905 H 281.991 2.07888 -0.435457 0
M  V30 2906 H 284.254 0.938661 -0.132739 0
M  V30 2907 H 283.96 3.51557 0.100287 0
M  V30 2908 H 283.834 3.29472 1.83653 0
M  V30 2909 H 286.221 2.30291 1.84527 0
M  V30 2910 H 286.302 2.5562 0.0959504 0
M  V30 2911 H 285.946 5.05774 0.464175 0
M  V30 2912 H 285.876 4.77443 2.22162 0
M  V30 2913 H 288.367 3.5769 1.21926 0
M  V30 2914 H 288.68 7.49248 1.89335 0
M  V30 2915 H 287.025 6.73648 1.70948 0
M  V30 2916 H 290.216 4.45713 1.43029 0
M  V30 2917 H 290.389 6.2426 1.7379 0
M  V30 2918 N 283.795 -0.628877 1.44509 0
M  V30 2919 C 285.072 -1.38733 1.37886 0
M  V30 2920 C 285.452 -2.11065 0.0387008 0
M  V30 2921 O 284.8 -2.06476 -0.97878 0
M  V30 2922 C 285.01 -2.35188 2.57852 0
M  V30 2923 C 286.358 -2.9845 3.02014 0
M  V30 2924 O 287.382 -2.45513 2.58073 0
M  V30 2925 O 286.241 -3.94487 3.78209 0
M  V30 2926 H 283.335 -0.621015 0.54614 0
M  V30 2927 H 285.881 -0.653744 1.56602 0
M  V30 2928 H 284.653 -1.80855 3.46998 0
M  V30 2929 H 284.276 -3.1596 2.4136 0
M  V30 2930 N 285.273 -1.31445 -0.869486 0
M  V30 2931 C 286.52 -1.21158 -1.62256 0
M  V30 2932 C 286.848 0.230155 -1.93133 0
M  V30 2933 O 286.103 1.17906 -1.56194 0
M  V30 2934 C 286.402 -2.00145 -2.96102 0
M  V30 2935 C 286.068 -3.4964 -2.84715 0
M  V30 2936 C 284.73 -3.90403 -2.81317 0
M  V30 2937 C 287.082 -4.44769 -2.71716 0
M  V30 2938 C 284.41 -5.24561 -2.62778 0
M  V30 2939 C 286.762 -5.79054 -2.54714 0
M  V30 2940 C 285.426 -6.19037 -2.49699 0
M  V30 2941 H 284.696 -0.443348 -0.593737 0
M  V30 2942 H 287.343 -1.62715 -1.00976 0
M  V30 2943 H 285.648 -1.5127 -3.6142 0
M  V30 2944 H 287.345 -1.89566 -3.53363 0
M  V30 2945 H 283.935 -3.17256 -2.88178 0
M  V30 2946 H 288.119 -4.14208 -2.73397 0
M  V30 2947 H 283.375 -5.54613 -2.57321 0
M  V30 2948 H 287.549 -6.52393 -2.43632 0
M  V30 2949 H 285.176 -7.22935 -2.35093 0
M  V30 2950 N 286.751 1.08385 -1.14413 0
M  V30 2951 C 288.167 1.32844 -0.884563 0
M  V30 2952 C 288.367 1.95841 0.474181 0
M  V30 2953 O 287.423 2.21158 1.21842 0
M  V30 2954 C 288.736 2.22978 -2.01745 0
M  V30 2955 C 290.284 2.36458 -2.05077 0
M  V30 2956 C 290.759 3.29934 -3.1766 0
M  V30 2957 N 292.25 3.37511 -3.17239 0
M  V30 2958 C 292.985 4.09871 -4.0099 0
M  V30 2959 N 292.481 4.84936 -4.94781 0
M  V30 2960 N 294.274 4.05704 -3.89051 0
M  V30 2961 H 286.425 0.658756 -2.01926 0
M  V30 2962 H 288.688 0.352821 -0.879899 0
M  V30 2963 H 288.394 1.83934 -2.99769 0
M  V30 2964 H 288.268 3.23441 -1.94077 0
M  V30 2965 H 290.655 2.7476 -1.0766 0
M  V30 2966 H 290.736 1.35736 -2.16816 0
M  V30 2967 H 290.38 2.92352 -4.15322 0
M  V30 2968 H 290.31 4.30584 -3.03158 0
M  V30 2969 H 292.801 2.83996 -2.49308 0
M  V30 2970 H 293.114 5.37612 -5.55151 0
M  V30 2971 H 291.459 4.83988 -4.98779 0
M  V30 2972 H 294.65 3.46167 -3.15097 0
M  V30 2973 H 294.823 4.61834 -4.54547 0
M  V30 2974 N 288.23 0.939286 1.26551 0
M  V30 2975 C 289.178 0.43815 2.28436 0
M  V30 2976 C 290.172 -0.483587 1.62351 0
M  V30 2977 O 291.378 -0.362009 1.76322 0
M  V30 2978 H 287.753 0.123149 0.741848 0
M  V30 2979 H 289.724 1.31002 2.68106 0
M  V30 2980 C 288.473 -0.283052 3.46546 0
M  V30 2981 H 287.796 0.417043 3.97619 0
M  V30 2982 H 289.236 -0.597948 4.19763 0
M  V30 2983 C 287.695 -1.50018 3.01656 0
M  V30 2984 O 288.225 -2.59855 3.0633 0
M  V30 2985 N 286.431 -1.35608 2.57019 0
M  V30 2986 H 285.978 -0.46244 2.53415 0
M  V30 2987 H 285.936 -2.17165 2.27347 0
M  V30 2988 N 289.708 -1.40897 0.706093 0
M  V30 2989 C 290.655 -2.30751 0.0474474 0
M  V30 2990 C 291.625 -1.47678 -0.76029 0
M  V30 2991 O 292.81 -1.76441 -0.726177 0
M  V30 2992 C 289.95 -3.33815 -0.875309 0
M  V30 2993 C 289.063 -4.31961 -0.0580623 0
M  V30 2994 C 288.198 -5.22093 -0.979425 0
M  V30 2995 C 287.237 -6.11902 -0.155706 0
M  V30 2996 N 286.374 -6.94482 -1.03144 0
M  V30 2997 H 291.214 -2.86513 0.819413 0
M  V30 2998 H 288.751 -1.41102 0.415783 0
M  V30 2999 H 290.709 -3.92129 -1.42446 0
M  V30 3000 H 289.339 -2.79579 -1.61356 0
M  V30 3001 H 288.391 -3.75507 0.608147 0
M  V30 3002 H 289.703 -4.95415 0.580082 0
M  V30 3003 H 288.857 -5.85292 -1.59744 0
M  V30 3004 H 287.596 -4.5889 -1.65141 0
M  V30 3005 H 286.601 -5.47742 0.475309 0
M  V30 3006 H 287.826 -6.77162 0.512635 0
M  V30 3007 H 285.772 -6.33877 -1.68924 0
M  V30 3008 H 285.689 -7.54665 -0.449108 0
M  V30 3009 H 286.957 -7.6214 -1.63593 0
M  V30 3010 N 291.186 -0.45159 -1.50991 0
M  V30 3011 C 292.597 0.00818571 -1.86698 0
M  V30 3012 C 292.948 1.40661 -1.3678 0
M  V30 3013 O 292.073 2.0391 -0.724546 0
M  V30 3014 C 292.668 0.0216303 -3.38793 0
M  V30 3015 C 291.227 0.425865 -3.73983 0
M  V30 3016 C 290.374 -0.372163 -2.74791 0
M  V30 3017 H 293.325 -0.666785 -1.44013 0
M  V30 3018 H 293.346 0.828078 -3.7138 0
M  V30 3019 H 292.858 -0.996288 -3.75094 0
M  V30 3020 H 290.959 1.44886 -3.43277 0
M  V30 3021 H 291.072 0.140761 -4.78893 0
M  V30 3022 H 289.436 0.171498 -2.54122 0
M  V30 3023 H 290.219 -1.38922 -3.13935 0
M  V30 3024 N 292.664 1.56529 -0.183458 0
M  V30 3025 C 293.894 2.01331 0.463612 0
M  V30 3026 C 294.302 1.06278 1.5653 0
M  V30 3027 O 293.645 0.0577976 1.83609 0
M  V30 3028 C 293.707 3.42547 1.09096 0
M  V30 3029 C 293.371 4.56817 0.129442 0
M  V30 3030 C 294.368 5.15734 -0.656807 0
M  V30 3031 C 292.053 5.02295 0.02174 0
M  V30 3032 C 294.047 6.1857 -1.53784 0
M  V30 3033 C 291.734 6.04978 -0.862864 0
M  V30 3034 C 292.732 6.62988 -1.64123 0
M  V30 3035 O 292.42 7.63677 -2.51103 0
M  V30 3036 H 292.152 0.664917 0.121907 0
M  V30 3037 H 294.706 2.034 -0.285954 0
M  V30 3038 H 292.936 3.37428 1.88889 0
M  V30 3039 H 294.625 3.71228 1.64148 0
M  V30 3040 H 295.391 4.81473 -0.583839 0
M  V30 3041 H 291.27 4.56847 0.617392 0
M  V30 3042 H 294.814 6.63777 -2.14583 0
M  V30 3043 H 290.711 6.38663 -0.93699 0
M  V30 3044 H 291.479 7.81049 -2.44753 0
M  V30 3045 N 294.142 -0.090211 1.57342 0
M  V30 3046 C 295.553 -0.644173 1.75235 0
M  V30 3047 C 295.904 -1.78865 0.806335 0
M  V30 3048 O 295.029 -2.16395 -0.0140128 0
M  V30 3049 C 295.624 -1.17532 3.1776 0
M  V30 3050 C 294.183 -1.67531 3.37061 0
M  V30 3051 C 293.33 -0.58693 2.71017 0
M  V30 3052 H 296.281 0.135884 1.58117 0
M  V30 3053 H 296.302 -2.04455 3.20902 0
M  V30 3054 H 295.814 -0.342138 3.86589 0
M  V30 3055 H 293.915 -2.53234 2.73319 0
M  V30 3056 H 294.028 -1.76493 4.45406 0
M  V30 3057 H 292.392 -1.02756 2.33052 0
M  V30 3058 H 293.175 0.235758 3.4249 0
M  V30 3059 N 295.62 -1.53406 -0.361157 0
M  V30 3060 C 296.866 -1.70054 -1.10496 0
M  V30 3061 C 297.199 -0.453278 -1.88836 0
M  V30 3062 O 296.474 0.5495 -1.86576 0
M  V30 3063 C 296.757 -2.95317 -2.06058 0
M  V30 3064 C 296.61 -4.3021 -1.31298 0
M  V30 3065 C 297.929 -3.16193 -3.06121 0
M  V30 3066 H 295.048 -0.618799 -0.400321 0
M  V30 3067 H 297.69 -1.86052 -0.385318 0
M  V30 3068 H 295.84 -2.81809 -2.67425 0
M  V30 3069 H 297.512 -4.55538 -0.726807 0
M  V30 3070 H 295.755 -4.29421 -0.614853 0
M  V30 3071 H 296.426 -5.14 -2.01265 0
M  V30 3072 H 298.902 -3.28916 -2.5486 0
M  V30 3073 H 297.778 -4.05266 -3.70204 0
M  V30 3074 H 298.039 -2.31676 -3.76535 0
M  V30 3075 N 297.098 0.621204 -1.44841 0
M  V30 3076 C 298.514 0.94048 -1.28946 0
M  V30 3077 C 298.714 2.00154 -0.23249 0
M  V30 3078 O 297.77 2.49651 0.378237 0
M  V30 3079 C 299.083 1.39433 -2.66419 0
M  V30 3080 C 300.631 1.50927 -2.74208 0
M  V30 3081 C 301.106 1.99692 -4.12174 0
M  V30 3082 N 302.597 2.06947 -4.144 0
M  V30 3083 C 303.332 2.45871 -5.1801 0
M  V30 3084 N 302.828 2.83862 -6.31977 0
M  V30 3085 N 304.621 2.46092 -5.05366 0
M  V30 3086 H 296.772 -0.0803548 -2.12248 0
M  V30 3087 H 299.035 0.0266913 -0.947624 0
M  V30 3088 H 298.741 0.688925 -3.44887 0
M  V30 3089 H 298.615 2.36347 -2.93973 0
M  V30 3090 H 301.002 2.20561 -1.96053 0
M  V30 3091 H 301.083 0.523627 -2.50383 0
M  V30 3092 H 300.727 1.30649 -4.90809 0
M  V30 3093 H 300.657 2.99146 -4.33381 0
M  V30 3094 H 303.148 1.80232 -3.32152 0
M  V30 3095 H 303.461 3.12405 -7.0684 0
M  V30 3096 H 301.806 2.8159 -6.35399 0
M  V30 3097 H 304.997 2.1581 -4.15384 0
M  V30 3098 H 305.17 2.76102 -5.86235 0
M  V30 3099 N 298.576 1.31904 0.862503 0
M  V30 3100 C 299.539 1.20131 1.95195 0
M  V30 3101 C 300.539 0.126409 1.60302 0
M  V30 3102 O 301.729 0.376234 1.70089 0
M  V30 3103 C 298.861 0.845691 3.30244 0
M  V30 3104 H 300.054 2.16943 2.07064 0
M  V30 3105 H 297.607 1.15622 1.05172 0
M  V30 3106 H 298.342 -0.120957 3.24074 0
M  V30 3107 H 298.127 1.62276 3.56944 0
M  V30 3108 H 299.617 0.787418 4.10109 0
M  V30 3109 N 300.054 -1.07777 1.14986 0
M  V30 3110 C 301.001 -2.14867 0.842672 0
M  V30 3111 C 301.971 -1.6486 -0.202552 0
M  V30 3112 O 303.156 -1.90668 -0.0710568 0
M  V30 3113 C 300.296 -3.43486 0.333363 0
M  V30 3114 C 299.409 -4.07306 1.43965 0
M  V30 3115 C 298.544 -5.23744 0.886914 0
M  V30 3116 C 297.583 -5.79517 1.97043 0
M  V30 3117 N 296.72 -6.87291 1.4344 0
M  V30 3118 H 301.56 -2.40485 1.75986 0
M  V30 3119 H 299.097 -1.1801 0.878179 0
M  V30 3120 H 301.055 -4.17195 0.0198163 0
M  V30 3121 H 299.685 -3.18133 -0.546916 0
M  V30 3122 H 298.737 -3.31293 1.86946 0
M  V30 3123 H 300.049 -4.44771 2.25788 0
M  V30 3124 H 299.203 -6.04419 0.525651 0
M  V30 3125 H 297.942 -4.87685 0.0377957 0
M  V30 3126 H 296.947 -4.97491 2.34057 0
M  V30 3127 H 298.172 -6.17632 2.82325 0
M  V30 3128 H 296.118 -6.5318 0.607567 0
M  V30 3129 H 296.035 -7.23617 2.18895 0
M  V30 3130 H 297.303 -7.71682 1.10124 0
M  V30 3131 N 301.532 -0.945985 -1.26051 0
M  V30 3132 C 302.781 -0.591836 -1.92822 0
M  V30 3133 C 303.094 0.873956 -1.7499 0
M  V30 3134 O 304.3 1.33769 -2.36259 0
M  V30 3135 C 302.756 -1.00776 -3.45503 0
M  V30 3136 C 302.364 -2.4955 -3.7206 0
M  V30 3137 C 304.108 -0.725735 -4.1825 0
M  V30 3138 C 302.015 -2.84988 -5.18205 0
M  V30 3139 H 300.945 -0.217635 -0.721908 0
M  V30 3140 H 303.596 -1.14927 -1.43052 0
M  V30 3141 H 301.978 -0.378812 -3.94184 0
M  V30 3142 H 303.152 -3.1739 -3.34066 0
M  V30 3143 H 301.467 -2.75133 -3.12555 0
M  V30 3144 H 304.064 -0.966771 -5.25887 0
M  V30 3145 H 304.407 0.337639 -4.14929 0
M  V30 3146 H 304.94 -1.31463 -3.7545 0
M  V30 3147 H 301.679 -3.90307 -5.26631 0
M  V30 3148 H 301.199 -2.21813 -5.57278 0
M  V30 3149 H 302.878 -2.73712 -5.86252 0
M  V30 3150 N 303.011 1.40521 -0.713556 0
M  V30 3151 C 304.239 2.05237 -0.261775 0
M  V30 3152 C 304.654 1.53755 1.09567 0
M  V30 3153 O 304.011 0.693268 1.6882 0
M  V30 3154 C 304.062 3.60763 -0.230706 0
M  V30 3155 O 303.783 4.10345 -1.53455 0
M  V30 3156 C 305.284 4.42651 0.239874 0
M  V30 3157 H 302.504 0.660533 -0.118057 0
M  V30 3158 H 305.048 1.79967 -0.971192 0
M  V30 3159 H 303.203 3.8501 0.429661 0
M  V30 3160 H 303.617 5.04526 -1.43366 0
M  V30 3161 H 305.091 5.51599 0.210468 0
M  V30 3162 H 305.568 4.20082 1.28171 0
M  V30 3163 H 306.174 4.23507 -0.390142 0
M  V30 3164 N 304.489 0.459591 1.5075 0
M  V30 3165 C 305.719 -0.0972338 2.06371 0
M  V30 3166 C 306.127 -1.35074 1.32483 0
M  V30 3167 O 305.47 -1.79637 0.384226 0
M  V30 3168 C 305.532 -0.462759 3.56509 0
M  V30 3169 C 305.196 0.687084 4.51805 0
M  V30 3170 C 306.193 1.56578 4.95761 0
M  V30 3171 C 303.878 0.874144 4.94635 0
M  V30 3172 C 305.872 2.61604 5.81242 0
M  V30 3173 C 303.559 1.92765 5.79901 0
M  V30 3174 C 304.557 2.79697 6.23104 0
M  V30 3175 O 304.245 3.83235 7.06673 0
M  V30 3176 H 303.977 -0.00140687 0.675999 0
M  V30 3177 H 306.531 0.644011 1.95043 0
M  V30 3178 H 304.761 -1.25703 3.65699 0
M  V30 3179 H 306.45 -0.953323 3.94546 0
M  V30 3180 H 307.216 1.4329 4.6335 0
M  V30 3181 H 303.095 0.207006 4.60535 0
M  V30 3182 H 306.639 3.29489 6.14884 0
M  V30 3183 H 302.536 2.06064 6.11725 0
M  V30 3184 H 303.304 3.80084 7.24899 0
M  V30 3185 N 305.967 -1.56429 0.191757 0
M  V30 3186 C 307.197 -2.01574 -0.452928 0
M  V30 3187 C 307.605 -1.07107 -1.55964 0
M  V30 3188 O 306.948 -0.067534 -1.83576 0
M  V30 3189 C 307.01 -3.43121 -1.07278 0
M  V30 3190 C 306.674 -4.56879 -0.105214 0
M  V30 3191 C 307.671 -5.15379 0.684149 0
M  V30 3192 C 305.356 -5.023 0.00489824 0
M  V30 3193 C 307.35 -6.17746 1.57062 0
M  V30 3194 C 305.037 -6.04511 0.894935 0
M  V30 3195 C 306.035 -6.62108 1.67637 0
M  V30 3196 O 305.723 -7.62335 2.55149 0
M  V30 3197 H 305.455 -0.665554 -0.118379 0
M  V30 3198 H 308.009 -2.03245 0.296737 0
M  V30 3199 H 306.239 -3.38425 -1.87097 0
M  V30 3200 H 307.928 -3.72093 -1.62177 0
M  V30 3201 H 308.694 -4.81157 0.609365 0
M  V30 3202 H 304.573 -4.57168 -0.593156 0
M  V30 3203 H 308.117 -6.6263 2.181 0
M  V30 3204 H 304.014 -6.38157 0.970847 0
M  V30 3205 H 304.782 -7.79741 2.48892 0
M  V30 3206 N 307.445 0.0818655 -1.57387 0
M  V30 3207 C 308.377 1.12484 -1.997 0
M  V30 3208 C 309.39 1.35564 -0.90146 0
M  V30 3209 O 310.579 1.33982 -1.17945 0
M  V30 3210 C 307.679 2.47778 -2.31213 0
M  V30 3211 C 306.852 2.44793 -3.62485 0
M  V30 3212 C 305.911 3.62117 -3.81782 0
M  V30 3213 O 304.937 3.44005 -4.53486 0
M  V30 3214 N 306.139 4.82094 -3.23367 0
M  V30 3215 H 308.904 0.764585 -2.89783 0
M  V30 3216 H 306.465 0.270664 -1.59621 0
M  V30 3217 H 308.457 3.24891 -2.41304 0
M  V30 3218 H 307.027 2.75843 -1.4707 0
M  V30 3219 H 306.247 1.53134 -3.6324 0
M  V30 3220 H 307.535 2.39889 -4.48699 0
M  V30 3221 H 306.933 4.99713 -2.65148 0
M  V30 3222 H 305.49 5.56753 -3.38923 0
M  V30 3223 N 308.923 1.53595 0.353017 0
M  V30 3224 C 309.871 1.81605 1.45335 0
M  V30 3225 C 310.865 0.685923 1.54892 0
M  V30 3226 O 312.071 0.869095 1.57628 0
M  V30 3227 H 308.446 0.575204 0.484401 0
M  V30 3228 H 310.417 2.73679 1.18921 0
M  V30 3229 C 309.166 2.03406 2.81995 0
M  V30 3230 H 308.489 2.89814 2.75405 0
M  V30 3231 H 309.929 2.26975 3.58132 0
M  V30 3232 C 308.388 0.816794 3.26849 0
M  V30 3233 O 308.918 0.0115856 4.01698 0
M  V30 3234 N 307.124 0.636682 2.8354 0
M  V30 3235 H 306.671 1.2931 2.22793 0
M  V30 3236 H 306.629 -0.176336 3.13905 0
M  V30 3237 N 310.401 -0.613514 1.45168 0
M  V30 3238 C 311.629 -1.39946 1.5239 0
M  V30 3239 C 312.044 -1.88167 0.154531 0
M  V30 3240 O 311.401 -1.61872 -0.842843 0
M  V30 3241 C 311.452 -2.60795 2.50337 0
M  V30 3242 O 311.173 -2.1458 3.81952 0
M  V30 3243 C 312.674 -3.53723 2.67198 0
M  V30 3244 H 309.894 -0.428593 0.516284 0
M  V30 3245 H 312.438 -0.748753 1.903 0
M  V30 3246 H 310.593 -3.21919 2.15515 0
M  V30 3247 H 311.007 -2.93055 4.34993 0
M  V30 3248 H 312.481 -4.35079 3.39721 0
M  V30 3249 H 312.958 -4.0368 1.73029 0
M  V30 3250 H 313.564 -2.98456 3.02992 0
M  V30 3251 N 311.879 -1.3236 -0.855495 0
M  V30 3252 C 312.809 -1.23833 -1.97958 0
M  V30 3253 C 313.79 -0.122361 -1.69659 0
M  V30 3254 O 314.975 -0.30939 -1.9172 0
M  V30 3255 C 312.105 -0.959772 -3.33775 0
M  V30 3256 C 311.059 -2.03689 -3.76424 0
M  V30 3257 C 310.385 -1.61075 -5.09862 0
M  V30 3258 C 311.685 -3.4518 -3.9198 0
M  V30 3259 H 313.379 -2.1788 -2.0535 0
M  V30 3260 H 310.925 -1.04891 -0.986605 0
M  V30 3261 H 312.878 -0.886678 -4.11966 0
M  V30 3262 H 311.602 0.0163404 -3.26596 0
M  V30 3263 H 310.261 -2.10012 -3.00484 0
M  V30 3264 H 309.909 -0.622107 -4.99138 0
M  V30 3265 H 309.609 -2.33143 -5.39368 0
M  V30 3266 H 311.133 -1.55201 -5.90546 0
M  V30 3267 H 312.547 -3.4145 -4.60526 0
M  V30 3268 H 310.944 -4.1559 -4.32903 0
M  V30 3269 H 312.014 -3.84903 -2.94919 0
M  V30 3270 N 313.357 1.07166 -1.15556 0
M  V30 3271 C 314.585 1.83514 -0.955519 0
M  V30 3272 C 315 1.82163 0.49621 0
M  V30 3273 O 314.357 1.23441 1.34419 0
M  V30 3274 C 314.408 3.30515 -1.46432 0
M  V30 3275 O 314.129 3.31937 -2.85918 0
M  V30 3276 C 315.63 4.23625 -1.30603 0
M  V30 3277 H 312.85 0.578926 -0.339244 0
M  V30 3278 H 315.394 1.35265 -1.53374 0
M  V30 3279 H 313.549 3.76106 -0.928584 0
M  V30 3280 H 313.963 4.23794 -3.09029 0
M  V30 3281 H 315.437 5.24831 -1.71047 0
M  V30 3282 H 315.914 4.38485 -0.250441 0
M  V30 3283 H 316.52 3.83871 -1.83094 0
M  V30 3284 N 314.835 0.952656 1.25548 0
M  V30 3285 C 316.081 0.607272 1.93494 0
M  V30 3286 C 316.414 -0.853245 1.74452 0
M  V30 3287 O 315.689 -1.61194 1.08843 0
M  V30 3288 C 315.972 0.96435 3.46947 0
M  V30 3289 C 315.825 2.48045 3.75225 0
M  V30 3290 C 317.144 0.487987 4.37386 0
M  V30 3291 H 314.263 0.222096 0.702739 0
M  V30 3292 H 316.905 1.18895 1.48203 0
M  V30 3293 H 315.055 0.469361 3.85654 0
M  V30 3294 H 316.727 3.04905 3.46166 0
M  V30 3295 H 314.97 2.919 3.209 0
M  V30 3296 H 315.641 2.6808 4.82532 0
M  V30 3297 H 318.117 0.912558 4.0597 0
M  V30 3298 H 316.993 0.766547 5.43521 0
M  V30 3299 H 317.254 -0.612063 4.37843 0
M  V30 3300 N 316.313 -1.40141 0.720998 0
M  V30 3301 C 317.246 -2.2819 0.020916 0
M  V30 3302 C 318.224 -1.43633 -0.762129 0
M  V30 3303 O 319.408 -1.7304 -0.747633 0
M  V30 3304 C 316.535 -3.24281 -0.977715 0
M  V30 3305 C 315.581 -4.25548 -0.284836 0
M  V30 3306 S 316.414 -5.26247 0.991169 0
M  V30 3307 C 317.57 -6.259 -0.0052214 0
M  V30 3308 H 317.803 -2.87218 0.767649 0
M  V30 3309 H 315.336 -1.45656 0.512233 0
M  V30 3310 H 317.294 -3.80167 -1.54865 0
M  V30 3311 H 315.955 -2.643 -1.69719 0
M  V30 3312 H 315.148 -4.93154 -1.03996 0
M  V30 3313 H 314.75 -3.73389 0.213684 0
M  V30 3314 H 317.042 -6.72143 -0.850279 0
M  V30 3315 H 317.985 -7.05224 0.637599 0
M  V30 3316 H 318.393 -5.63277 -0.371366 0
M  V30 3317 N 317.792 -0.46758 -1.50504 0
M  V30 3318 C 319.041 0.0902868 -2.01498 0
M  V30 3319 C 319.354 1.411 -1.35463 0
M  V30 3320 O 320.56 2.0536 -1.77594 0
M  V30 3321 C 319.016 0.21142 -3.59278 0
M  V30 3322 C 318.624 -1.10065 -4.34269 0
M  V30 3323 C 320.368 0.721433 -4.18325 0
M  V30 3324 C 318.275 -0.943505 -5.83825 0
M  V30 3325 H 317.205 0.037517 -0.753066 0
M  V30 3326 H 319.856 -0.601943 -1.73346 0
M  V30 3327 H 318.238 0.967352 -3.84003 0
M  V30 3328 H 319.412 -1.86726 -4.21272 0
M  V30 3329 H 317.727 -1.5415 -3.86816 0
M  V30 3330 H 320.324 0.85598 -5.27804 0
M  V30 3331 H 320.667 1.71186 -3.79475 0
M  V30 3332 H 321.2 0.0229843 -3.97793 0
M  V30 3333 H 317.939 -1.90719 -6.27141 0
M  V30 3334 H 317.459 -0.217213 -5.99407 0
M  V30 3335 H 319.138 -0.608715 -6.4413 0
M  V30 3336 N 319.27 1.56325 -0.20005 0
M  V30 3337 C 320.218 2.20666 0.735482 0
M  V30 3338 C 321.212 1.17934 1.21605 0
M  V30 3339 O 322.418 1.36068 1.17837 0
M  V30 3340 H 318.793 0.70725 0.255542 0
M  V30 3341 H 320.764 2.9792 0.169166 0
M  V30 3342 C 319.513 2.88391 1.94232 0
M  V30 3343 H 318.836 3.67185 1.58161 0
M  V30 3344 H 320.276 3.3684 2.57517 0
M  V30 3345 C 318.735 1.89692 2.78421 0
M  V30 3346 O 319.265 1.40032 3.76502 0
M  V30 3347 N 317.471 1.57813 2.44015 0
M  V30 3348 H 317.018 1.9839 1.64314 0
M  V30 3349 H 316.976 0.920325 3.00628 0
M  V30 3350 N 320.748 -0.0735177 1.57428 0
M  V30 3351 C 321.696 -1.10628 2.04607 0
M  V30 3352 C 322.69 -1.40181 0.951088 0
M  V30 3353 O 323.896 -1.39608 1.1362 0
M  V30 3354 H 320.271 -0.374088 0.652351 0
M  V30 3355 H 322.242 -0.682218 2.90497 0
M  V30 3356 C 320.991 -2.41212 2.50423 0
M  V30 3357 H 320.314 -2.19322 3.34272 0
M  V30 3358 H 321.754 -3.11927 2.87189 0
M  V30 3359 C 320.213 -3.0705 1.38644 0
M  V30 3360 O 320.743 -3.95056 0.727582 0
M  V30 3361 N 318.949 -2.67645 1.132 0
M  V30 3362 H 318.496 -1.96169 1.66959 0
M  V30 3363 H 318.454 -3.1202 0.386147 0
M  V30 3364 N 322.226 -1.5378 -0.344866 0
M  V30 3365 C 323.474 -1.70625 -1.08311 0
M  V30 3366 C 323.795 -0.471447 -1.89215 0
M  V30 3367 O 323.065 0.514616 -1.8902 0
M  V30 3368 H 321.645 -0.629058 -0.402859 0
M  V30 3369 H 324.307 -1.9103 -0.386459 0
M  V30 3370 H 323.403 -2.57656 -1.76124 0
M  V30 3371 N 323.704 0.605807 -1.45491 0
M  V30 3372 C 324.951 1.36476 -1.49601 0
M  V30 3373 C 325.279 1.94007 -0.138452 0
M  V30 3374 O 324.534 1.75638 0.863114 0
M  V30 3375 C 324.833 2.53012 -2.52428 0
M  V30 3376 C 324.499 2.13617 -3.97087 0
M  V30 3377 C 323.161 2.02587 -4.36477 0
M  V30 3378 C 325.513 1.82899 -4.88055 0
M  V30 3379 C 322.841 1.59064 -5.64726 0
M  V30 3380 C 325.193 1.40861 -6.16718 0
M  V30 3381 C 323.857 1.28391 -6.55036 0
M  V30 3382 H 323.127 0.499402 -0.547429 0
M  V30 3383 H 325.774 0.684546 -1.78847 0
M  V30 3384 H 324.079 3.26379 -2.16758 0
M  V30 3385 H 325.776 3.1124 -2.52845 0
M  V30 3386 H 322.366 2.23129 -3.65939 0
M  V30 3387 H 326.55 1.90317 -4.58359 0
M  V30 3388 H 321.806 1.48034 -5.93208 0
M  V30 3389 H 325.98 1.16138 -6.86648 0
M  V30 3390 H 323.607 0.944403 -7.54311 0
M  V30 3391 N 325.182 1.32811 0.848464 0
M  V30 3392 C 326.41 1.26739 1.63538 0
M  V30 3393 C 326.825 -0.163484 1.88091 0
M  V30 3394 O 326.182 -1.10258 1.45429 0
M  V30 3395 C 326.233 2.03013 2.99112 0
M  V30 3396 O 325.954 3.40518 2.75643 0
M  V30 3397 C 327.455 2.04038 3.93552 0
M  V30 3398 H 324.675 0.437024 0.509167 0
M  V30 3399 H 327.219 1.75033 1.05753 0
M  V30 3400 H 325.374 1.58426 3.53525 0
M  V30 3401 H 325.788 3.79635 3.61908 0
M  V30 3402 H 327.262 2.61877 4.85926 0
M  V30 3403 H 327.739 1.0282 4.26995 0
M  V30 3404 H 328.345 2.486 3.45077 0
M  V30 3405 N 326.66 -1.06551 1.16123 0
M  V30 3406 C 328.071 -1.60768 0.949232 0
M  V30 3407 C 328.422 -1.89523 -0.507508 0
M  V30 3408 O 327.547 -1.66671 -1.38021 0
M  V30 3409 C 328.142 -2.92086 1.71671 0
M  V30 3410 C 326.701 -3.43015 1.54977 0
M  V30 3411 C 325.848 -2.16947 1.72711 0
M  V30 3412 H 328.799 -0.895354 1.31031 0
M  V30 3413 H 328.82 -3.6138 1.19099 0
M  V30 3414 H 328.332 -2.71127 2.7769 0
M  V30 3415 H 326.433 -3.69039 0.513873 0
M  V30 3416 H 326.546 -4.18516 2.33198 0
M  V30 3417 H 324.91 -2.27041 1.15431 0
M  V30 3418 H 325.693 -1.98473 2.80113 0
M  V30 3419 N 328.138 -0.959301 -1.25041 0
M  V30 3420 C 329.415 -0.533805 -1.88175 0
M  V30 3421 C 329.795 0.988994 -1.865 0
M  V30 3422 O 329.143 1.85677 -1.33177 0
M  V30 3423 C 329.353 -1.11575 -3.30684 0
M  V30 3424 C 330.701 -1.19548 -4.07423 0
M  V30 3425 O 331.725 -1.06765 -3.39823 0
M  V30 3426 O 330.584 -1.39656 -5.28354 0
M  V30 3427 H 327.678 -0.176772 -0.807887 0
M  V30 3428 H 330.224 -1.05303 -1.33076 0
M  V30 3429 H 328.996 -2.15884 -3.26358 0
M  V30 3430 H 328.619 -0.580059 -3.93346 0
M  V30 3431 N 329.616 1.39756 -0.72842 0
M  V30 3432 C 330.563 2.30647 -0.0841519 0
M  V30 3433 C 331.533 1.48869 0.7367 0
M  V30 3434 O 332.718 1.77574 0.698015 0
M  V30 3435 C 329.858 3.35165 0.822091 0
M  V30 3436 C 328.971 4.31999 -0.0106663 0
M  V30 3437 C 328.106 5.23585 0.896241 0
M  V30 3438 C 327.145 6.12072 0.0583381 0
M  V30 3439 N 326.282 6.96035 0.920818 0
M  V30 3440 H 331.122 2.85173 -0.864891 0
M  V30 3441 H 328.659 1.40422 -0.438179 0
M  V30 3442 H 330.617 3.94345 1.36189 0
M  V30 3443 H 329.247 2.8211 1.56888 0
M  V30 3444 H 328.299 3.74492 -0.66781 0
M  V30 3445 H 329.611 4.9443 -0.658825 0
M  V30 3446 H 328.765 5.87759 1.50412 0
M  V30 3447 H 327.504 4.61459 1.57819 0
M  V30 3448 H 326.509 5.46916 -0.562389 0
M  V30 3449 H 327.734 6.76261 -0.6203 0
M  V30 3450 H 325.68 6.36485 1.58818 0
M  V30 3451 H 325.597 7.55284 0.32899 0
M  V30 3452 H 326.865 7.64646 1.51447 0
M  V30 3453 N 331.094 0.475555 1.50254 0
M  V30 3454 C 332.042 -0.330276 2.30243 0
M  V30 3455 C 333.036 -0.986306 1.37726 0
M  V30 3456 O 334.242 -0.9169 1.54897 0
M  V30 3457 H 330.617 -0.125353 0.741479 0
M  V30 3458 H 332.588 0.364702 2.96163 0
M  V30 3459 C 331.337 -1.39704 3.18399 0
M  V30 3460 H 330.66 -0.901621 3.89501 0
M  V30 3461 H 332.1 -1.93336 3.77355 0
M  V30 3462 C 330.559 -2.4014 2.36293 0
M  V30 3463 O 331.089 -3.45504 2.04914 0
M  V30 3464 N 329.295 -2.1197 1.98789 0
M  V30 3465 H 328.842 -1.2631 2.24507 0
M  V30 3466 H 328.8 -2.79403 1.44157 0
M  V30 3467 N 332.573 -1.56217 0.208337 0
M  V30 3468 C 333.85 -1.89739 -0.475234 0
M  V30 3469 C 334.23 -1.1238 -1.78701 0
M  V30 3470 O 333.578 -0.228979 -2.2735 0
M  V30 3471 C 333.788 -3.42289 -0.681101 0
M  V30 3472 C 335.136 -4.12789 -0.994507 0
M  V30 3473 O 336.16 -3.47814 -0.768357 0
M  V30 3474 O 335.019 -5.27649 -1.42299 0
M  V30 3475 H 332.113 -0.788478 -0.249461 0
M  V30 3476 H 334.659 -1.67855 0.249538 0
M  V30 3477 H 333.431 -3.90534 0.244722 0
M  V30 3478 H 333.054 -3.69909 -1.45785 0
M  V30 3479 N 334.051 0.0651679 -1.57465 0
M  V30 3480 C 335.281 0.774683 -1.91526 0
M  V30 3481 C 335.689 1.71305 -0.803196 0
M  V30 3482 O 335.032 1.82231 0.231881 0
M  V30 3483 C 335.094 1.61645 -3.21109 0
M  V30 3484 C 334.758 0.846753 -4.49087 0
M  V30 3485 C 335.755 0.163024 -5.19644 0
M  V30 3486 C 333.44 0.811966 -4.95694 0
M  V30 3487 C 335.434 -0.54519 -6.35064 0
M  V30 3488 C 333.121 0.0999836 -6.11018 0
M  V30 3489 C 334.119 -0.577388 -6.80555 0
M  V30 3490 O 333.807 -1.27789 -7.93678 0
M  V30 3491 H 333.539 0.225031 -0.637446 0
M  V30 3492 H 336.093 0.0377134 -2.05365 0
M  V30 3493 H 334.323 2.39638 -3.03497 0
M  V30 3494 H 336.012 2.20525 -3.40769 0
M  V30 3495 H 336.778 0.181163 -4.84662 0
M  V30 3496 H 332.657 1.32867 -4.41438 0
M  V30 3497 H 336.201 -1.07446 -6.89276 0
M  V30 3498 H 332.098 0.0797945 -6.45451 0
M  V30 3499 H 332.866 -1.18784 -8.09835 0
M  V30 3500 N 335.529 1.53961 0.336706 0
M  V30 3501 C 336.439 1.85432 1.43708 0
M  V30 3502 C 337.455 0.745053 1.57242 0
M  V30 3503 O 338.631 1.03804 1.72588 0
M  V30 3504 C 335.696 2.06349 2.78605 0
M  V30 3505 C 334.757 3.30191 2.74358 0
M  V30 3506 C 333.99 3.50101 4.02822 0
M  V30 3507 O 334.213 2.7371 5.00439 0
M  V30 3508 O 333.147 4.43547 4.06878 0
M  V30 3509 H 336.973 2.78975 1.20028 0
M  V30 3510 H 334.558 1.39701 0.52952 0
M  V30 3511 H 336.44 2.21513 3.58483 0
M  V30 3512 H 335.115 1.15995 3.02203 0
M  V30 3513 H 334.022 3.20425 1.93078 0
M  V30 3514 H 335.355 4.2056 2.55715 0
M  V30 3515 N 337.007 -0.598083 1.45811 0
M  V30 3516 C 338.254 -1.35681 1.50323 0
M  V30 3517 C 338.582 -1.9393 0.148739 0
M  V30 3518 O 337.837 -1.76094 -0.853787 0
M  V30 3519 C 338.136 -2.51669 2.53766 0
M  V30 3520 C 337.802 -2.11508 3.98215 0
M  V30 3521 C 336.464 -2.0027 4.37545 0
M  V30 3522 C 338.816 -1.80308 4.89018 0
M  V30 3523 C 336.144 -1.56067 5.65562 0
M  V30 3524 C 338.496 -1.37589 6.17456 0
M  V30 3525 C 337.16 -1.24916 6.55708 0
M  V30 3526 H 336.43 -0.496492 0.550069 0
M  V30 3527 H 339.077 -0.675052 1.79207 0
M  V30 3528 H 337.382 -3.25225 2.18486 0
M  V30 3529 H 339.079 -3.09895 2.54492 0
M  V30 3530 H 335.669 -2.21185 3.67117 0
M  V30 3531 H 339.853 -1.87884 4.59362 0
M  V30 3532 H 335.109 -1.44886 5.93985 0
M  V30 3533 H 339.283 -1.12495 6.87254 0
M  V30 3534 H 336.91 -0.904386 7.54801 0
M  V30 3535 N 338.485 -1.33259 -0.841409 0
M  V30 3536 C 339.725 -1.25902 -1.61022 0
M  V30 3537 C 340.089 0.173325 -1.91216 0
M  V30 3538 O 341.29 0.370824 -2.6623 0
M  V30 3539 C 339.561 -2.10735 -2.88662 0
M  V30 3540 S 341.12 -2.20541 -3.79351 0
M  V30 3541 H 337.938 -0.447958 -0.552137 0
M  V30 3542 H 340.54 -1.68263 -0.995382 0
M  V30 3543 H 339.244 -3.1384 -2.64448 0
M  V30 3544 H 338.775 -1.69201 -3.55154 0
M  V30 3545 H 340.79 -1.36462 -4.77067 0
M  V30 3546 N 339.963 1.05934 -1.16686 0
M  V30 3547 C 340.926 2.11669 -0.879144 0
M  V30 3548 C 341.926 1.60294 0.127445 0
M  V30 3549 O 343.116 1.7389 -0.103865 0
M  V30 3550 C 340.248 3.39438 -0.315425 0
M  V30 3551 H 341.441 2.38626 -1.81653 0
M  V30 3552 H 338.994 1.22058 -0.976299 0
M  V30 3553 H 339.729 3.18132 0.629468 0
M  V30 3554 H 339.514 3.78034 -1.04079 0
M  V30 3555 H 341.004 4.17391 -0.132189 0
M  V30 3556 N 341.441 0.965919 1.2453 0
M  V30 3557 C 342.388 0.49402 2.25451 0
M  V30 3558 C 343.358 -0.45948 1.59618 0
M  V30 3559 O 344.543 -0.370238 1.87173 0
M  V30 3560 C 341.683 -0.211359 3.44452 0
M  V30 3561 C 340.796 0.7807 4.24887 0
M  V30 3562 C 339.931 0.0516105 5.31175 0
M  V30 3563 C 338.97 1.03385 6.03306 0
M  V30 3564 N 338.107 0.334887 7.01301 0
M  V30 3565 H 342.947 1.35946 2.65184 0
M  V30 3566 H 340.484 0.681515 1.3036 0
M  V30 3567 H 342.442 -0.637 4.12308 0
M  V30 3568 H 341.072 -1.04077 3.05562 0
M  V30 3569 H 340.124 1.32479 3.56586 0
M  V30 3570 H 341.436 1.52978 4.74762 0
M  V30 3571 H 340.59 -0.432114 6.05159 0
M  V30 3572 H 339.329 -0.730179 4.82203 0
M  V30 3573 H 338.334 1.52847 5.28127 0
M  V30 3574 H 339.559 1.81606 6.54367 0
M  V30 3575 H 337.505 -0.427959 6.54603 0
M  V30 3576 H 337.422 1.02287 7.49048 0
M  V30 3577 H 338.69 -0.126928 7.79397 0
M  V30 3578 N 342.919 -1.39368 0.735821 0
M  V30 3579 C 344.165 -2.00794 0.284544 0
M  V30 3580 C 344.498 -1.58255 -1.12557 0
M  V30 3581 O 343.773 -0.811819 -1.76748 0
M  V30 3582 C 344.056 -3.58011 0.387337 0
M  V30 3583 C 343.909 -4.10566 1.83728 0
M  V30 3584 C 345.228 -4.395 -0.22975 0
M  V30 3585 H 342.347 -0.729501 0.104866 0
M  V30 3586 H 344.989 -1.65564 0.93213 0
M  V30 3587 H 343.139 -3.88154 -0.164006 0
M  V30 3588 H 344.811 -3.91139 2.44556 0
M  V30 3589 H 343.054 -3.64095 2.35833 0
M  V30 3590 H 343.725 -5.19702 1.86047 0
M  V30 3591 H 346.201 -4.15406 0.240257 0
M  V30 3592 H 345.077 -5.48752 -0.127485 0
M  V30 3593 H 345.338 -4.22062 -1.3159 0
M  V30 3594 N 344.397 -0.483516 -1.5 0
M  V30 3595 C 345.307 0.309172 -2.32554 0
M  V30 3596 C 346.323 0.984159 -1.43493 0
M  V30 3597 O 347.499 0.969399 -1.76535 0
M  V30 3598 C 344.564 1.36979 -3.18493 0
M  V30 3599 C 343.625 0.710095 -4.23387 0
M  V30 3600 C 342.858 1.72018 -5.05218 0
M  V30 3601 O 343.081 2.94813 -4.88305 0
M  V30 3602 O 342.015 1.28515 -5.8802 0
M  V30 3603 H 345.841 -0.366064 -3.01486 0
M  V30 3604 H 343.426 -0.24514 -1.47375 0
M  V30 3605 H 345.308 1.98385 -3.71781 0
M  V30 3606 H 343.983 2.02828 -2.52275 0
M  V30 3607 H 342.89 0.0567539 -3.74057 0
M  V30 3608 H 344.223 0.0943557 -4.9211 0
M  V30 3609 N 345.875 1.56104 -0.216619 0
M  V30 3610 C 346.823 2.21434 0.712036 0
M  V30 3611 C 347.817 1.19218 1.20348 0
M  V30 3612 O 349.023 1.3731 1.16387 0
M  V30 3613 H 345.398 0.70992 0.248026 0
M  V30 3614 H 347.369 2.98083 0.137558 0
M  V30 3615 C 346.118 2.90434 1.91163 0
M  V30 3616 H 345.441 3.68842 1.54258 0
M  V30 3617 H 346.881 3.39552 2.5393 0
M  V30 3618 C 345.34 1.92635 2.76394 0
M  V30 3619 O 345.87 1.44017 3.74996 0
M  V30 3620 N 344.076 1.60392 2.42328 0
M  V30 3621 H 343.623 2.00122 1.622 0
M  V30 3622 H 343.581 0.952159 2.99635 0
M  V30 3623 N 347.353 -0.0568162 1.57498 0
M  V30 3624 C 348.286 -1.09817 2.00039 0
M  V30 3625 C 349.264 -1.3674 0.879819 0
M  V30 3626 O 350.448 -1.49863 1.14338 0
M  V30 3627 C 347.575 -2.43924 2.34986 0
M  V30 3628 C 346.621 -2.33039 3.57204 0
M  V30 3629 S 347.454 -1.7102 5.07457 0
M  V30 3630 C 348.61 -3.06674 5.45621 0
M  V30 3631 H 348.843 -0.735701 2.88053 0
M  V30 3632 H 346.376 -0.265871 1.52094 0
M  V30 3633 H 348.334 -3.2106 2.55795 0
M  V30 3634 H 346.995 -2.77327 1.47474 0
M  V30 3635 H 346.188 -3.31973 3.79223 0
M  V30 3636 H 345.79 -1.64043 3.36104 0
M  V30 3637 H 348.082 -4.03 5.44608 0
M  V30 3638 H 349.025 -2.8942 6.46252 0
M  V30 3639 H 349.433 -3.07969 4.73091 0
M  V30 3640 N 348.832 -1.54138 -0.328536 0
M  V30 3641 C 350.081 -1.71318 -1.06456 0
M  V30 3642 C 350.394 -0.491109 -1.89334 0
M  V30 3643 O 351.6 -0.54416 -2.65991 0
M  V30 3644 C 350.056 -3.03 -1.94214 0
M  V30 3645 C 349.664 -4.32595 -1.16471 0
M  V30 3646 C 351.408 -3.29544 -2.67583 0
M  V30 3647 C 349.315 -5.55341 -2.03347 0
M  V30 3648 H 348.245 -0.638429 -0.401155 0
M  V30 3649 H 350.896 -1.80633 -0.323106 0
M  V30 3650 H 349.278 -2.87579 -2.72239 0
M  V30 3651 H 350.452 -4.58766 -0.432525 0
M  V30 3652 H 348.767 -4.12777 -0.548063 0
M  V30 3653 H 351.364 -4.18444 -3.3288 0
M  V30 3654 H 351.707 -2.47206 -3.34955 0
M  V30 3655 H 352.24 -3.45809 -1.96623 0
M  V30 3656 H 348.979 -6.40268 -1.40491 0
M  V30 3657 H 348.499 -5.33397 -2.74313 0
M  V30 3658 H 350.178 -5.91557 -2.62049 0
M  V30 3659 N 350.31 0.590341 -1.46126 0
M  V30 3660 C 351.559 1.34499 -1.50309 0
M  V30 3661 C 351.872 1.94977 -0.156021 0
M  V30 3662 O 353.078 2.71395 -0.0756037 0
M  V30 3663 C 351.534 2.43723 -2.64815 0
M  V30 3664 C 351.142 1.89582 -4.0591 0
M  V30 3665 C 352.886 3.20579 -2.78262 0
M  V30 3666 C 350.793 2.9639 -5.11769 0
M  V30 3667 H 349.723 0.505593 -0.559368 0
M  V30 3668 H 352.374 0.630848 -1.72315 0
M  V30 3669 H 350.756 3.17902 -2.36124 0
M  V30 3670 H 351.93 1.21997 -4.44357 0
M  V30 3671 H 350.245 1.25418 -3.97063 0
M  V30 3672 H 352.842 4.00276 -3.54519 0
M  V30 3673 H 353.185 3.72684 -1.85505 0
M  V30 3674 H 353.718 2.53505 -3.06562 0
M  V30 3675 H 350.457 2.49181 -6.06291 0
M  V30 3676 H 349.977 3.62487 -4.77873 0
M  V30 3677 H 351.656 3.60474 -5.37278 0
M  V30 3678 N 351.788 1.33704 0.83433 0
M  V30 3679 C 353.199 1.22813 1.4062 0
M  V30 3680 C 353.55 -0.151107 1.95617 0
M  V30 3681 O 352.675 -1.05092 1.89168 0
M  V30 3682 C 353.27 2.22355 2.55624 0
M  V30 3683 C 351.829 2.1529 3.08751 0
M  V30 3684 C 350.976 2.09589 1.8157 0
M  V30 3685 H 353.927 1.45236 0.639702 0
M  V30 3686 H 353.948 1.83391 3.33389 0
M  V30 3687 H 353.46 3.22728 2.15566 0
M  V30 3688 H 351.561 1.18235 3.53343 0
M  V30 3689 H 351.674 3.06038 3.68616 0
M  V30 3690 H 350.038 1.55134 2.02004 0
M  V30 3691 H 350.821 3.11777 1.43701 0
M  V30 3692 N 353.266 -1.05314 1.17247 0
M  V30 3693 C 354.229 -2.112 0.890357 0
M  V30 3694 C 355.229 -1.60359 -0.118943 0
M  V30 3695 O 356.419 -1.73833 0.113086 0
M  V30 3696 C 353.551 -3.39266 0.333422 0
M  V30 3697 H 354.744 -2.37659 1.82916 0
M  V30 3698 H 352.297 -1.21538 0.982758 0
M  V30 3699 H 353.032 -3.18462 -0.612587 0
M  V30 3700 H 352.817 -3.77477 1.06082 0
M  V30 3701 H 354.307 -4.17315 0.154322 0
M  V30 3702 N 354.744 -0.972509 -1.24016 0
M  V30 3703 C 355.676 -0.464375 -2.24446 0
M  V30 3704 C 356.689 0.4295 -1.57032 0
M  V30 3705 O 357.878 0.234902 -1.76948 0
M  V30 3706 C 354.978 0.348385 -3.37105 0
M  V30 3707 C 354.151 -0.53673 -4.34094 0
M  V30 3708 C 353.21 0.220838 -5.25736 0
M  V30 3709 O 352.236 -0.386867 -5.67884 0
M  V30 3710 N 353.438 1.50907 -5.60542 0
M  V30 3711 H 356.203 -1.32788 -2.68677 0
M  V30 3712 H 353.764 -0.844877 -1.38107 0
M  V30 3713 H 355.756 0.863341 -3.95384 0
M  V30 3714 H 354.326 1.11285 -2.92121 0
M  V30 3715 H 353.546 -1.23261 -3.74433 0
M  V30 3716 H 354.834 -1.14022 -4.95859 0
M  V30 3717 H 354.232 2.02444 -5.28236 0
M  V30 3718 H 352.789 1.96962 -6.21329 0
M  V30 3719 N 356.222 1.38976 -0.743202 0
M  V30 3720 C 357.47 1.99948 -0.29417 0
M  V30 3721 C 357.791 1.59279 1.12495 0
M  V30 3722 O 357.061 0.844808 1.76748 0
M  V30 3723 H 355.641 0.739473 -0.105774 0
M  V30 3724 H 358.303 1.699 -0.954986 0
M  V30 3725 H 357.399 3.10142 -0.349056 0
M  V30 3726 N 357.7 0.491464 1.49741 0
M  V30 3727 C 358.65 -0.311086 2.25868 0
M  V30 3728 C 359.634 -0.943857 1.30308 0
M  V30 3729 O 360.826 -0.853035 1.55088 0
M  V30 3730 C 357.955 -1.38059 3.14316 0
M  V30 3731 C 357.041 -0.754541 4.17334 0
M  V30 3732 N 357.432 0.137216 5.05614 0
M  V30 3733 C 355.73 -1.01621 4.34269 0
M  V30 3734 C 356.431 0.494614 5.79593 0
M  V30 3735 N 355.407 -0.135169 5.43432 0
M  V30 3736 H 359.209 0.37555 2.91491 0
M  V30 3737 H 356.723 0.306917 1.59473 0
M  V30 3738 H 358.72 -1.96891 3.67477 0
M  V30 3739 H 357.38 -2.06901 2.50244 0
M  V30 3740 H 358.391 0.50741 5.15408 0
M  V30 3741 H 355.068 -1.69808 3.81407 0
M  V30 3742 H 356.458 1.2236 6.60665 0
M  V30 3743 N 359.178 -1.55987 0.224894 0
M  V30 3744 C 360.425 -1.9839 -0.4059 0
M  V30 3745 C 360.753 -1.11261 -1.59535 0
M  V30 3746 O 360.008 -0.158314 -1.95059 0
M  V30 3747 C 360.307 -3.46394 -0.880106 0
M  V30 3748 C 359.973 -4.5046 0.19918 0
M  V30 3749 C 358.635 -4.7864 0.495661 0
M  V30 3750 C 360.987 -5.12855 0.928939 0
M  V30 3751 C 358.315 -5.66497 1.52636 0
M  V30 3752 C 360.667 -6.01828 1.949 0
M  V30 3753 C 359.331 -6.28351 2.25236 0
M  V30 3754 H 358.601 -0.725961 -0.148529 0
M  V30 3755 H 361.248 -1.88668 0.328113 0
M  V30 3756 H 359.553 -3.53337 -1.69294 0
M  V30 3757 H 361.25 -3.76577 -1.37808 0
M  V30 3758 H 357.84 -4.28579 -0.0420526 0
M  V30 3759 H 362.024 -4.9115 0.713129 0
M  V30 3760 H 357.28 -5.8531 1.76698 0
M  V30 3761 H 361.454 -6.49225 2.51951 0
M  V30 3762 H 359.081 -6.96226 3.05244 0
M  V30 3763 N 360.656 0.0484629 -1.57525 0
M  V30 3764 C 361.904 0.741657 -1.88 0
M  V30 3765 C 362.225 1.76918 -0.820054 0
M  V30 3766 O 361.495 1.95335 0.148661 0
M  V30 3767 H 360.075 0.276908 -0.69378 0
M  V30 3768 H 362.737 0.019013 -1.94891 0
M  V30 3769 H 361.833 1.24336 -2.86264 0
M  V30 3770 N 362.134 1.5431 0.320358 0
M  V30 3771 C 363.383 1.7188 1.05546 0
M  V30 3772 C 363.696 0.501143 1.89071 0
M  V30 3773 O 364.902 0.558258 2.65699 0
M  V30 3774 C 363.358 3.04025 1.92605 0
M  V30 3775 C 362.966 4.33207 1.14176 0
M  V30 3776 C 364.71 3.30959 2.65832 0
M  V30 3777 C 362.617 5.56412 2.00399 0
M  V30 3778 H 361.547 0.640547 0.397763 0
M  V30 3779 H 364.198 1.80802 0.313522 0
M  V30 3780 H 362.58 2.89019 2.7071 0
M  V30 3781 H 363.754 4.58989 0.40819 0
M  V30 3782 H 362.069 4.13062 0.526165 0
M  V30 3783 H 364.666 4.20203 3.30656 0
M  V30 3784 H 365.009 2.48979 3.33639 0
M  V30 3785 H 365.542 3.46847 1.94787 0
M  V30 3786 H 362.281 6.41004 1.37094 0
M  V30 3787 H 361.801 5.34844 2.7148 0
M  V30 3788 H 363.48 5.92938 2.58908 0
M  V30 3789 N 363.613 -0.582584 1.46437 0
M  V30 3790 C 364.838 -1.37168 1.55563 0
M  V30 3791 C 365.263 -1.87061 0.19743 0
M  V30 3792 O 364.621 -1.61572 -0.822451 0
M  V30 3793 C 364.669 -2.53511 2.56446 0
M  V30 3794 O 363.773 -3.54953 2.09958 0
M  V30 3795 H 363.114 -0.408494 0.523477 0
M  V30 3796 H 365.644 -0.706646 1.9201 0
M  V30 3797 H 365.654 -3.00426 2.76058 0
M  V30 3798 H 364.329 -2.16549 3.55076 0
M  V30 3799 H 362.906 -3.14516 2.00334 0
M  V30 3800 N 365.091 -1.34144 -0.827227 0
M  V30 3801 C 366.054 -1.25264 -1.91942 0
M  V30 3802 C 367.054 -0.168866 -1.59911 0
M  V30 3803 O 368.244 -0.421198 -1.69031 0
M  V30 3804 C 365.376 -0.932952 -3.27885 0
M  V30 3805 H 366.569 -2.22357 -2.0124 0
M  V30 3806 H 364.122 -1.1837 -1.0207 0
M  V30 3807 H 364.857 0.0349917 -3.24281 0
M  V30 3808 H 364.642 -1.71682 -3.52516 0
M  V30 3809 H 366.132 -0.895874 -4.07877 0
M  V30 3810 N 366.569 1.04691 -1.17803 0
M  V30 3811 C 367.532 2.10724 -0.901545 0
M  V30 3812 C 368.532 1.6042 0.110437 0
M  V30 3813 O 369.722 1.7377 -0.122303 0
M  V30 3814 C 366.854 3.39084 -0.351409 0
M  V30 3815 H 368.047 2.36686 -1.84174 0
M  V30 3816 H 365.6 1.21015 -0.98919 0
M  V30 3817 H 366.335 3.18782 0.59569 0
M  V30 3818 H 366.12 3.76909 -1.08083 0
M  V30 3819 H 367.61 4.17227 -0.176451 0
M  V30 3820 N 368.047 0.979072 1.23499 0
M  V30 3821 C 369.275 0.665202 1.95915 0
M  V30 3822 C 369.69 -0.767571 1.72493 0
M  V30 3823 O 369.047 -1.51635 1.01554 0
M  V30 3824 C 369.098 0.944438 3.48945 0
M  V30 3825 O 368.819 2.3209 3.71572 0
M  V30 3826 C 370.32 0.646336 4.38563 0
M  V30 3827 H 367.54 0.247218 0.623798 0
M  V30 3828 H 370.084 1.31009 1.57025 0
M  V30 3829 H 368.239 0.345575 3.85856 0
M  V30 3830 H 368.653 2.40957 4.65876 0
M  V30 3831 H 370.127 0.892091 5.44744 0
M  V30 3832 H 370.604 -0.419575 4.37191 0
M  V30 3833 H 371.21 1.22562 4.07258 0
M  V30 3834 N 369.525 -1.3858 0.750561 0
M  V30 3835 C 370.773 -1.99789 0.30477 0
M  V30 3836 C 371.094 -1.59874 -1.11649 0
M  V30 3837 O 370.364 -0.85417 -1.76297 0
M  V30 3838 H 368.944 -0.738902 0.109694 0
M  V30 3839 H 371.606 -1.69391 0.963983 0
M  V30 3840 H 370.702 -3.09952 0.365499 0
M  V30 3841 N 371.003 -0.499398 -1.49478 0
M  V30 3842 C 372.251 0.0455996 -2.02049 0
M  V30 3843 C 372.572 1.37633 -1.38138 0
M  V30 3844 O 371.842 1.8842 -0.536166 0
M  V30 3845 H 370.422 0.0198416 -0.746736 0
M  V30 3846 H 373.084 -0.656274 -1.83519 0
M  V30 3847 H 372.18 0.176445 -3.11601 0
M  V30 3848 N 372.481 1.55866 -0.233164 0
M  V30 3849 C 373.411 2.23783 0.666599 0
M  V30 3850 C 374.392 1.21343 1.19205 0
M  V30 3851 O 375.577 1.4996 1.23392 0
M  V30 3852 C 372.707 2.92671 1.86978 0
M  V30 3853 C 371.661 4.01682 1.47768 0
M  V30 3854 C 370.987 4.57926 2.76058 0
M  V30 3855 C 372.287 5.18126 0.658993 0
M  V30 3856 H 373.981 2.99232 0.100306 0
M  V30 3857 H 371.527 1.43924 0.046804 0
M  V30 3858 H 373.48 3.3888 2.50476 0
M  V30 3859 H 372.204 2.14688 2.46123 0
M  V30 3860 H 370.863 3.56222 0.866106 0
M  V30 3861 H 370.511 3.76659 3.33372 0
M  V30 3862 H 370.211 5.31505 2.50552 0
M  V30 3863 H 371.735 5.06859 3.40479 0
M  V30 3864 H 373.149 5.60644 1.19795 0
M  V30 3865 H 371.546 5.98009 0.500552 0
M  V30 3866 H 372.616 4.83763 -0.331856 0
M  V30 3867 N 373.959 -0.0401083 1.57549 0
M  V30 3868 C 374.922 -1.02871 2.04817 0
M  V30 3869 C 375.922 -1.29708 0.950388 0
M  V30 3870 O 377.112 -1.24897 1.21435 0
M  V30 3871 C 374.244 -2.36443 2.45576 0
M  V30 3872 H 375.437 -0.620631 2.93408 0
M  V30 3873 H 372.99 -0.286667 1.53649 0
M  V30 3874 H 373.725 -2.82021 1.60108 0
M  V30 3875 H 373.51 -2.18296 3.25713 0
M  V30 3876 H 375 -3.07441 2.82612 0
M  V30 3877 N 375.437 -1.54477 -0.31217 0
M  V30 3878 C 376.714 -1.63891 -1.06767 0
M  V30 3879 C 377.094 -0.480028 -2.0557 0
M  V30 3880 O 376.442 0.524487 -2.22399 0
M  V30 3881 C 376.652 -3.01402 -1.75948 0
M  V30 3882 C 378 -3.57838 -2.28554 0
M  V30 3883 O 379.024 -3.03782 -1.85998 0
M  V30 3884 O 377.883 -4.52462 -3.06497 0
M  V30 3885 H 374.977 -0.664125 -0.492816 0
M  V30 3886 H 377.523 -1.66823 -0.311149 0
M  V30 3887 H 376.295 -3.77187 -1.04144 0
M  V30 3888 H 375.918 -3.02199 -2.58383 0
M  V30 3889 N 376.915 0.57481 -1.46744 0
M  V30 3890 C 378.192 1.3352 -1.4294 0
M  V30 3891 C 378.572 2.10775 -0.117009 0
M  V30 3892 O 377.92 2.09966 0.901474 0
M  V30 3893 C 378.13 2.25456 -2.66403 0
M  V30 3894 C 379.478 2.87035 -3.12883 0
M  V30 3895 O 380.502 2.35766 -2.67007 0
M  V30 3896 O 379.361 3.80179 -3.92589 0
M  V30 3897 H 376.455 0.600318 -0.568812 0
M  V30 3898 H 379.001 0.595171 -1.58921 0
M  V30 3899 H 377.773 1.67851 -3.53471 0
M  V30 3900 H 377.396 3.06785 -2.52921 0
M  V30 3901 N 378.394 1.34581 0.820102 0
M  V30 3902 C 379.344 1.22943 1.92013 0
M  V30 3903 C 380.328 0.127802 1.60392 0
M  V30 3904 O 381.52 0.357737 1.73347 0
M  V30 3905 C 378.649 0.989938 3.28717 0
M  V30 3906 C 377.735 2.13486 3.66449 0
M  V30 3907 N 378.126 3.38625 3.75722 0
M  V30 3908 C 376.424 2.04573 3.96315 0
M  V30 3909 C 377.125 4.13832 4.08801 0
M  V30 3910 N 376.101 3.42451 4.22171 0
M  V30 3911 H 379.903 2.17771 1.97365 0
M  V30 3912 H 377.417 1.2686 1.01392 0
M  V30 3913 H 379.414 0.887462 4.07345 0
M  V30 3914 H 378.074 0.0503691 3.24661 0
M  V30 3915 H 379.085 3.73143 3.59144 0
M  V30 3916 H 375.762 1.1839 4.00362 0
M  V30 3917 H 377.152 5.21909 4.23156 0
M  V30 3918 N 379.872 -1.04064 1.18357 0
M  V30 3919 C 381.149 -1.74252 0.888581 0
M  V30 3920 C 381.529 -2.02138 -0.60856 0
M  V30 3921 O 380.877 -1.66656 -1.56327 0
M  V30 3922 C 381.087 -3.0277 1.73584 0
M  V30 3923 C 382.435 -3.76506 1.96286 0
M  V30 3924 O 383.459 -3.12668 1.70637 0
M  V30 3925 O 382.318 -4.91243 2.39464 0
M  V30 3926 H 379.412 -0.758271 0.330082 0
M  V30 3927 H 381.958 -1.1013 1.2911 0
M  V30 3928 H 380.73 -2.78299 2.75073 0
M  V30 3929 H 380.353 -3.74631 1.33183 0
M  V30 3930 N 381.35 -0.985608 -1.22978 0
M  V30 3931 C 382.596 -0.65836 -1.91816 0
M  V30 3932 C 382.929 0.806692 -1.76653 0
M  V30 3933 O 382.204 1.58252 -1.13078 0
M  V30 3934 C 382.487 -1.056 -3.44268 0
M  V30 3935 C 382.34 -2.57906 -3.68516 0
M  V30 3936 C 383.659 -0.603781 -4.35939 0
M  V30 3937 H 380.778 -0.24065 -0.696604 0
M  V30 3938 H 383.42 -1.22783 -1.44998 0
M  V30 3939 H 381.57 -0.571445 -3.84274 0
M  V30 3940 H 383.242 -3.13976 -3.3796 0
M  V30 3941 H 381.485 -3.00305 -3.13048 0
M  V30 3942 H 382.156 -2.80779 -4.75255 0
M  V30 3943 H 384.632 -1.01987 -4.03408 0
M  V30 3944 H 383.508 -0.910383 -5.41298 0
M  V30 3945 H 383.769 0.495761 -4.39312 0
M  V30 3946 N 382.828 1.3818 -0.7579 0
M  V30 3947 C 383.758 2.33027 -0.148597 0
M  V30 3948 C 384.739 1.55085 0.69875 0
M  V30 3949 O 385.924 1.83384 0.639053 0
M  V30 3950 C 383.054 3.3928 0.742034 0
M  V30 3951 C 382.008 4.28 -0.00291946 0
M  V30 3952 C 381.334 5.25146 1.00625 0
M  V30 3953 C 382.634 5.08938 -1.17385 0
M  V30 3954 H 384.328 2.84231 -0.940909 0
M  V30 3955 H 381.874 1.36659 -0.453908 0
M  V30 3956 H 383.827 4.046 1.17799 0
M  V30 3957 H 382.551 2.86569 1.56671 0
M  V30 3958 H 381.21 3.64192 -0.419504 0
M  V30 3959 H 380.858 4.68721 1.8251 0
M  V30 3960 H 380.558 5.85361 0.512428 0
M  V30 3961 H 382.082 5.93342 1.44143 0
M  V30 3962 H 383.496 5.67474 -0.815224 0
M  V30 3963 H 381.893 5.7841 -1.59882 0
M  V30 3964 H 382.963 4.42424 -1.98468 0
M  V30 3965 N 384.306 0.507319 1.49211 0
M  V30 3966 C 385.531 -0.033725 2.07373 0
M  V30 3967 C 385.956 -1.29485 1.36437 0
M  V30 3968 O 385.314 -1.76294 0.423087 0
M  V30 3969 C 385.362 -0.263945 3.59633 0
M  V30 3970 O 384.466 -1.33737 3.90113 0
M  V30 3971 H 383.807 0.0290331 0.663365 0
M  V30 3972 H 386.337 0.708749 1.91932 0
M  V30 3973 H 386.347 -0.493536 4.05004 0
M  V30 3974 H 385.022 0.657424 4.10671 0
M  V30 3975 H 383.599 -1.09224 3.56545 0
M  V30 3976 N 385.784 -1.5574 0.241426 0
M  V30 3977 C 387.031 -1.9881 -0.384836 0
M  V30 3978 C 387.359 -1.12947 -1.58346 0
M  V30 3979 O 386.614 -0.178993 -1.9488 0
M  V30 3980 C 386.913 -3.47308 -0.843317 0
M  V30 3981 C 386.579 -4.50223 0.246946 0
M  V30 3982 C 385.241 -4.78088 0.546399 0
M  V30 3983 C 387.593 -5.11841 0.983282 0
M  V30 3984 C 384.921 -5.64846 1.58636 0
M  V30 3985 C 387.273 -5.99727 2.01272 0
M  V30 3986 C 385.937 -6.25927 2.31888 0
M  V30 3987 H 385.207 -0.727496 -0.140821 0
M  V30 3988 H 387.854 -1.8831 0.348106 0
M  V30 3989 H 386.159 -3.55112 -1.65537 0
M  V30 3990 H 387.856 -3.78017 -1.33806 0
M  V30 3991 H 384.446 -4.286 0.00340639 0
M  V30 3992 H 388.63 -4.90366 0.765182 0
M  V30 3993 H 383.886 -5.83403 1.82896 0
M  V30 3994 H 388.06 -6.46517 2.58823 0
M  V30 3995 H 385.687 -6.92949 3.12611 0
M  V30 3996 N 387.262 0.0317525 -1.57568 0
M  V30 3997 C 388.192 1.03274 -2.0942 0
M  V30 3998 C 389.173 1.3788 -0.996143 0
M  V30 3999 O 390.358 1.46811 -1.27122 0
M  V30 4000 C 387.488 2.33448 -2.57137 0
M  V30 4001 C 386.442 2.13091 -3.71182 0
M  V30 4002 C 385.768 3.49001 -4.05095 0
M  V30 4003 C 387.068 1.51928 -4.99715 0
M  V30 4004 H 388.762 0.60112 -2.93303 0
M  V30 4005 H 386.308 0.287705 -1.41097 0
M  V30 4006 H 388.261 3.03802 -2.92032 0
M  V30 4007 H 386.985 2.78665 -1.70333 0
M  V30 4008 H 385.644 1.45171 -3.36632 0
M  V30 4009 H 385.292 3.91862 -3.15362 0
M  V30 4010 H 384.992 3.36207 -4.81911 0
M  V30 4011 H 386.516 4.20721 -4.42522 0
M  V30 4012 H 387.93 2.12196 -5.32584 0
M  V30 4013 H 386.327 1.49716 -5.81124 0
M  V30 4014 H 387.397 0.484811 -4.8247 0
M  V30 4015 N 388.74 1.54641 0.303973 0
M  V30 4016 C 389.968 1.77768 1.05858 0
M  V30 4017 C 390.383 0.535722 1.8104 0
M  V30 4018 O 389.74 -0.494337 1.75677 0
M  V30 4019 C 389.791 2.9834 2.04146 0
M  V30 4020 O 389.512 4.17736 1.32015 0
M  V30 4021 C 391.013 3.33832 2.91669 0
M  V30 4022 H 388.233 0.592961 0.314067 0
M  V30 4023 H 390.777 2.01583 0.344149 0
M  V30 4024 H 388.932 2.76742 2.71096 0
M  V30 4025 H 389.346 4.85693 1.97998 0
M  V30 4026 H 390.82 4.21448 3.56491 0
M  V30 4027 H 391.297 2.51857 3.59812 0
M  V30 4028 H 391.903 3.57579 2.30254 0
M  V30 4029 N 390.218 -0.567019 1.47046 0
M  V30 4030 C 391.465 -1.32462 1.53167 0
M  V30 4031 C 391.793 -1.93571 0.189841 0
M  V30 4032 O 391.048 -1.77865 -0.816243 0
M  V30 4033 C 391.347 -2.4623 2.59047 0
M  V30 4034 C 391.013 -2.03014 4.02612 0
M  V30 4035 C 389.675 -1.90944 4.41694 0
M  V30 4036 C 392.027 -1.69895 4.92732 0
M  V30 4037 C 389.355 -1.44035 5.68745 0
M  V30 4038 C 391.707 -1.2446 6.20236 0
M  V30 4039 C 390.371 -1.10979 6.5821 0
M  V30 4040 H 389.641 -0.484713 0.560477 0
M  V30 4041 H 392.288 -0.636888 1.80599 0
M  V30 4042 H 390.593 -3.20517 2.25335 0
M  V30 4043 H 392.29 -3.04427 2.61008 0
M  V30 4044 H 388.88 -2.13348 3.71726 0
M  V30 4045 H 393.064 -1.78098 4.63244 0
M  V30 4046 H 388.32 -1.32254 5.96925 0
M  V30 4047 H 392.494 -0.978924 6.89485 0
M  V30 4048 H 390.121 -0.744078 7.5655 0
M  V30 4049 N 391.696 -1.35014 -0.812953 0
M  V30 4050 C 392.628 -1.23262 -1.93233 0
M  V30 4051 C 393.641 -0.157371 -1.62038 0
M  V30 4052 O 394.83 -0.410096 -1.73725 0
M  V30 4053 C 391.93 -0.87392 -3.27438 0
M  V30 4054 C 391.103 -2.04622 -3.86586 0
M  V30 4055 C 390.162 -1.66432 -4.99186 0
M  V30 4056 O 389.188 -2.38222 -5.16951 0
M  V30 4057 N 390.39 -0.584248 -5.77552 0
M  V30 4058 H 393.155 -2.19699 -2.03844 0
M  V30 4059 H 390.716 -1.281 -0.99005 0
M  V30 4060 H 392.708 -0.600039 -4.00227 0
M  V30 4061 H 391.278 0.00057392 -3.126 0
M  V30 4062 H 390.498 -2.48427 -3.06068 0
M  V30 4063 H 391.786 -2.82999 -4.22835 0
M  V30 4064 H 391.184 0.0123526 -5.65699 0
M  V30 4065 H 389.741 -0.37013 -6.50748 0
M  V30 4066 N 393.175 1.03435 -1.18907 0
M  V30 4067 C 394.105 2.13503 -0.945448 0
M  V30 4068 C 395.086 1.69682 0.119189 0
M  V30 4069 O 396.271 1.94169 -0.034707 0
M  V30 4070 C 393.401 3.44004 -0.477316 0
M  V30 4071 C 392.355 4.0148 -1.48316 0
M  V30 4072 C 391.681 5.27537 -0.872311 0
M  V30 4073 C 392.981 4.36921 -2.86177 0
M  V30 4074 H 394.675 2.34141 -1.86597 0
M  V30 4075 H 392.221 1.12523 -0.898584 0
M  V30 4076 H 394.174 4.20372 -0.294204 0
M  V30 4077 H 392.898 3.23072 0.478786 0
M  V30 4078 H 391.557 3.27201 -1.65332 0
M  V30 4079 H 391.205 5.02917 0.0911752 0
M  V30 4080 H 390.905 5.66954 -1.54393 0
M  V30 4081 H 392.429 6.06576 -0.699871 0
M  V30 4082 H 393.843 5.04248 -2.72776 0
M  V30 4083 H 392.24 4.87405 -3.50081 0
M  V30 4084 H 393.31 3.46466 -3.39248 0
M  V30 4085 N 394.653 0.992116 1.22453 0
M  V30 4086 C 395.881 0.685944 1.95198 0
M  V30 4087 C 396.296 -0.749233 1.73297 0
M  V30 4088 O 395.653 -1.50549 1.03156 0
M  V30 4089 C 395.704 0.981395 3.47924 0
M  V30 4090 O 395.425 2.36018 3.6909 0
M  V30 4091 C 396.926 0.692815 4.37853 0
M  V30 4092 H 394.146 0.253821 0.621141 0
M  V30 4093 H 396.69 1.32668 1.55626 0
M  V30 4094 H 394.845 0.386481 3.85467 0
M  V30 4095 H 395.259 2.45884 4.63294 0
M  V30 4096 H 396.733 0.949818 5.43767 0
M  V30 4097 H 397.21 -0.373181 4.37612 0
M  V30 4098 H 397.816 1.26874 4.05935 0
M  V30 4099 N 396.131 -1.37776 0.765217 0
M  V30 4100 C 397.041 -2.34135 0.147666 0
M  V30 4101 C 398.057 -1.59854 -0.687215 0
M  V30 4102 O 399.233 -1.91983 -0.608659 0
M  V30 4103 C 396.298 -3.3901 -0.72617 0
M  V30 4104 C 395.359 -4.2912 0.124417 0
M  V30 4105 C 394.592 -5.28986 -0.707807 0
M  V30 4106 O 394.815 -5.36205 -1.94525 0
M  V30 4107 O 393.749 -6.01779 -0.12046 0
M  V30 4108 H 397.575 -2.88664 0.943758 0
M  V30 4109 H 395.16 -1.39824 0.526277 0
M  V30 4110 H 397.042 -4.03195 -1.22524 0
M  V30 4111 H 395.717 -2.86819 -1.50056 0
M  V30 4112 H 394.624 -3.68057 0.669696 0
M  V30 4113 H 395.957 -4.84598 0.861736 0
M  V30 4114 N 397.609 -0.515225 -1.4894 0
M  V30 4115 C 399.02 -0.0710067 -1.86565 0
M  V30 4116 C 399.371 1.34733 -1.42623 0
M  V30 4117 O 398.496 2.00653 -0.810379 0
M  V30 4118 C 399.091 -0.122083 -3.3858 0
M  V30 4119 C 397.65 0.266863 -3.75453 0
M  V30 4120 C 396.797 -0.488376 -2.72966 0
M  V30 4121 H 399.748 -0.727266 -1.41055 0
M  V30 4122 H 399.769 0.669818 -3.74558 0
M  V30 4123 H 399.281 -1.15448 -3.70531 0
M  V30 4124 H 397.382 1.30196 -3.49113 0
M  V30 4125 H 397.495 -0.0624811 -4.79059 0
M  V30 4126 H 395.859 0.0635622 -2.54621 0
M  V30 4127 H 396.642 -1.52113 -3.07761 0
M  V30 4128 N 399.087 1.5561 -0.249682 0
M  V30 4129 C 400.335 1.98618 0.373548 0
M  V30 4130 C 400.656 1.13919 1.58264 0
M  V30 4131 O 399.926 0.222637 1.94631 0
M  V30 4132 H 398.506 0.733571 0.141006 0
M  V30 4133 H 401.168 1.91748 -0.349117 0
M  V30 4134 H 400.264 3.04584 0.680796 0
M  V30 4135 N 400.565 -0.0233959 1.57583 0
M  V30 4136 C 401.512 -1.02224 2.06927 0
M  V30 4137 C 402.482 -1.35575 0.959617 0
M  V30 4138 O 403.667 -1.45815 1.23055 0
M  V30 4139 C 400.807 -2.31636 2.5581 0
M  V30 4140 C 399.92 -2.04394 3.80588 0
M  V30 4141 C 399.055 -3.27717 4.18061 0
M  V30 4142 C 398.094 -2.96056 5.3574 0
M  V30 4143 N 397.231 -4.11847 5.68618 0
M  V30 4144 H 402.071 -0.594504 2.9201 0
M  V30 4145 H 399.608 -0.281921 1.44373 0
M  V30 4146 H 401.566 -3.07258 2.82221 0
M  V30 4147 H 400.196 -2.72122 1.73636 0
M  V30 4148 H 399.248 -1.19244 3.61227 0
M  V30 4149 H 400.56 -1.77042 4.66323 0
M  V30 4150 H 399.714 -4.11702 4.4563 0
M  V30 4151 H 398.453 -3.58188 3.30988 0
M  V30 4152 H 397.458 -2.10474 5.07918 0
M  V30 4153 H 398.683 -2.66857 6.24471 0
M  V30 4154 H 396.629 -4.42258 4.84504 0
M  V30 4155 H 396.546 -3.87938 6.48876 0
M  V30 4156 H 397.814 -4.96689 6.00766 0
M  V30 4157 N 402.043 -1.548 -0.295768 0
M  V30 4158 C 402.953 -1.89177 -1.38742 0
M  V30 4159 C 403.969 -0.786481 -1.55211 0
M  V30 4160 O 405.145 -1.08344 -1.69775 0
M  V30 4161 C 402.21 -2.13663 -2.73036 0
M  V30 4162 C 401.271 -3.37349 -2.65508 0
M  V30 4163 C 400.504 -3.60658 -3.93398 0
M  V30 4164 O 400.727 -2.86882 -4.93006 0
M  V30 4165 O 399.661 -4.54179 -3.94975 0
M  V30 4166 H 403.487 -2.82059 -1.12589 0
M  V30 4167 H 401.072 -1.41056 -0.492295 0
M  V30 4168 H 402.954 -2.3094 -3.52484 0
M  V30 4169 H 401.629 -1.23967 -2.99022 0
M  V30 4170 H 400.536 -3.25431 -1.84514 0
M  V30 4171 H 401.869 -4.27192 -2.44474 0
M  V30 4172 N 403.521 0.559213 -1.47345 0
M  V30 4173 C 404.932 1.14134 -1.47751 0
M  V30 4174 C 405.283 1.94834 -0.231103 0
M  V30 4175 O 404.408 2.05957 0.664137 0
M  V30 4176 C 405.003 2.07653 -2.67705 0
M  V30 4177 C 403.562 2.61141 -2.71076 0
M  V30 4178 C 402.709 1.3748 -2.40821 0
M  V30 4179 H 405.66 0.345917 -1.54884 0
M  V30 4180 H 405.681 2.91497 -2.44561 0
M  V30 4181 H 405.193 1.4889 -3.58404 0
M  V30 4182 H 403.294 3.23707 -1.84511 0
M  V30 4183 H 403.407 3.02272 -3.7171 0
M  V30 4184 H 401.771 1.68086 -1.91362 0
M  V30 4185 H 402.554 0.805135 -3.33725 0
M  V30 4186 N 404.999 1.35443 0.805782 0
M  V30 4187 C 406.41 1.25768 1.37983 0
M  V30 4188 C 406.761 -0.10958 1.95894 0
M  V30 4189 O 405.886 -1.01056 1.91355 0
M  V30 4190 C 406.481 2.27727 2.5085 0
M  V30 4191 C 405.04 2.2179 3.04115 0
M  V30 4192 C 404.187 2.13393 1.77084 0
M  V30 4193 H 407.138 1.4656 0.608752 0
M  V30 4194 H 407.159 1.90422 3.29424 0
M  V30 4195 H 406.671 3.27227 2.08671 0
M  V30 4196 H 404.772 1.25703 3.50756 0
M  V30 4197 H 404.885 3.13788 3.62042 0
M  V30 4198 H 403.249 1.59384 1.98668 0
M  V30 4199 H 404.032 3.14755 1.37056 0
M  V30 4200 N 406.477 -1.02803 1.19454 0
M  V30 4201 C 407.705 -1.79841 1.02297 0
M  V30 4202 C 408.12 -1.83879 -0.428259 0
M  V30 4203 O 407.477 -1.28345 -1.29745 0
M  V30 4204 C 407.528 -3.24852 1.58598 0
M  V30 4205 O 407.249 -3.21097 2.98041 0
M  V30 4206 C 408.75 -4.18485 1.46236 0
M  V30 4207 H 405.97 -0.565936 0.360496 0
M  V30 4208 H 408.514 -1.2948 1.58288 0
M  V30 4209 H 406.669 -3.72401 1.06753 0
M  V30 4210 H 407.083 -4.12033 3.24545 0
M  V30 4211 H 408.557 -5.18121 1.90407 0
M  V30 4212 H 409.034 -4.37254 0.41301 0
M  V30 4213 H 409.64 -3.76811 1.97215 0
M  V30 4214 N 407.956 -0.998596 -1.21925 0
M  V30 4215 C 409.367 -0.711939 -1.72593 0
M  V30 4216 C 409.718 0.770842 -1.80423 0
M  V30 4217 O 408.843 1.60237 -1.4544 0
M  V30 4218 C 409.438 -1.28567 -3.13458 0
M  V30 4219 C 407.997 -1.04828 -3.61508 0
M  V30 4220 C 407.144 -1.4024 -2.39224 0
M  V30 4221 H 410.095 -1.17027 -1.07193 0
M  V30 4222 H 410.116 -0.667098 -3.74607 0
M  V30 4223 H 409.628 -2.36486 -3.07727 0
M  V30 4224 H 407.729 0.0140383 -3.72597 0
M  V30 4225 H 407.842 -1.71566 -4.47328 0
M  V30 4226 H 406.206 -0.821077 -2.41103 0
M  V30 4227 H 406.989 -2.49176 -2.36149 0
M  V30 4228 N 409.434 1.37368 -0.772513 0
M  V30 4229 C 410.711 1.93839 -0.26188 0
M  V30 4230 C 411.091 1.7061 1.24319 0
M  V30 4231 O 410.439 1.05534 2.02669 0
M  V30 4232 C 410.649 3.43154 -0.636102 0
M  V30 4233 C 411.997 4.20249 -0.606324 0
M  V30 4234 O 413.021 3.5152 -0.575538 0
M  V30 4235 O 411.88 5.42809 -0.634086 0
M  V30 4236 H 408.974 0.82478 -0.0605555 0
M  V30 4237 H 411.52 1.4665 -0.853917 0
M  V30 4238 H 410.292 3.53647 -1.6748 0
M  V30 4239 H 409.915 3.97596 -0.0170516 0
M  V30 4240 N 410.912 0.523116 1.48665 0
M  V30 4241 C 411.859 -0.243398 2.29513 0
M  V30 4242 C 412.829 -0.940139 1.36933 0
M  V30 4243 O 414.014 -0.942503 1.65896 0
M  V30 4244 C 411.154 -1.28855 3.20141 0
M  V30 4245 C 410.267 -0.60135 4.27794 0
M  V30 4246 C 409.402 -1.62884 5.05611 0
M  V30 4247 C 408.441 -0.924726 6.05075 0
M  V30 4248 N 407.578 -1.89744 6.75975 0
M  V30 4249 H 412.418 0.452234 2.94549 0
M  V30 4250 H 409.955 0.234858 1.45213 0
M  V30 4251 H 411.913 -1.90674 3.71079 0
M  V30 4252 H 410.543 -1.95266 2.57043 0
M  V30 4253 H 409.595 0.130623 3.80176 0
M  V30 4254 H 410.907 -0.0481585 4.98777 0
M  V30 4255 H 410.061 -2.32149 5.60528 0
M  V30 4256 H 408.8 -2.21592 4.34452 0
M  V30 4257 H 407.805 -0.217966 5.49368 0
M  V30 4258 H 409.03 -0.343851 6.78229 0
M  V30 4259 H 406.976 -2.47373 6.07571 0
M  V30 4260 H 406.893 -1.3955 7.43009 0
M  V30 4261 H 408.161 -2.58229 7.35485 0
M  V30 4262 N 412.39 -1.55475 0.257931 0
M  V30 4263 C 413.3 -2.2549 -0.647425 0
M  V30 4264 C 414.316 -1.2748 -1.18427 0
M  V30 4265 O 415.492 -1.6038 -1.2182 0
M  V30 4266 C 412.557 -2.94916 -1.82278 0
M  V30 4267 C 411.618 -4.08363 -1.32432 0
M  V30 4268 C 410.851 -4.74469 -2.44366 0
M  V30 4269 O 411.074 -4.39701 -3.63344 0
M  V30 4270 O 410.008 -5.62763 -2.13497 0
M  V30 4271 H 413.834 -3.03593 -0.0807707 0
M  V30 4272 H 411.419 -1.49377 0.0259962 0
M  V30 4273 H 413.301 -3.38606 -2.50846 0
M  V30 4274 H 411.976 -2.19744 -2.37685 0
M  V30 4275 H 410.883 -3.69166 -0.605605 0
M  V30 4276 H 412.216 -4.85385 -0.816211 0
M  V30 4277 N 413.868 0.0150385 -1.57593 0
M  V30 4278 C 415.117 0.702115 -1.89085 0
M  V30 4279 C 415.43 1.75764 -0.858277 0
M  V30 4280 O 416.636 2.49829 -1.0629 0
M  V30 4281 C 415.092 1.29992 -3.35604 0
M  V30 4282 C 414.7 0.280007 -4.47124 0
M  V30 4283 C 416.444 1.96606 -3.76227 0
M  V30 4284 C 414.351 0.886949 -5.84711 0
M  V30 4285 H 413.281 0.265997 -0.705522 0
M  V30 4286 H 415.932 -0.0430408 -1.8345 0
M  V30 4287 H 414.314 2.09525 -3.36029 0
M  V30 4288 H 415.488 -0.489631 -4.58191 0
M  V30 4289 H 413.803 -0.284835 -4.15425 0
M  V30 4290 H 416.4 2.42893 -4.76347 0
M  V30 4291 H 416.743 2.79024 -3.08952 0
M  V30 4292 H 417.276 1.23828 -3.78036 0
M  V30 4293 H 414.015 0.101876 -6.55421 0
M  V30 4294 H 413.535 1.6261 -5.77337 0
M  V30 4295 H 415.214 1.39011 -6.3189 0
M  V30 4296 N 415.346 1.54954 0.287554 0
M  V30 4297 C 416.571 1.79209 1.04397 0
M  V30 4298 C 416.996 0.556431 1.79682 0
M  V30 4299 O 416.354 -0.493518 1.74454 0
M  V30 4300 C 416.402 3.00739 1.98969 0
M  V30 4301 O 415.506 2.74805 3.075 0
M  V30 4302 H 414.847 0.592755 0.299227 0
M  V30 4303 H 417.377 2.02068 0.320886 0
M  V30 4304 H 417.387 3.29077 2.4119 0
M  V30 4305 H 416.062 3.90329 1.43582 0
M  V30 4306 H 414.639 2.57523 2.69697 0
M  V30 4307 N 416.824 -0.551391 1.4764 0
M  V30 4308 C 417.734 -1.68525 1.63207 0
M  V30 4309 C 418.75 -1.6621 0.514815 0
M  V30 4310 O 419.926 -1.85551 0.783113 0
M  V30 4311 C 416.991 -3.05025 1.64805 0
M  V30 4312 C 416.052 -3.18362 2.88 0
M  V30 4313 C 415.285 -4.4835 2.89513 0
M  V30 4314 O 415.508 -5.34163 2.00065 0
M  V30 4315 O 414.442 -4.65602 3.81443 0
M  V30 4316 H 418.268 -1.58333 2.59161 0
M  V30 4317 H 415.853 -0.722063 1.30792 0
M  V30 4318 H 417.735 -3.86245 1.68502 0
M  V30 4319 H 416.41 -3.15587 0.720197 0
M  V30 4320 H 415.317 -2.36518 2.89845 0
M  V30 4321 H 416.65 -3.12707 3.80099 0
M  V30 4322 N 418.302 -1.35869 -0.798587 0
M  V30 4323 C 419.249 -1.29446 -1.91082 0
M  V30 4324 C 420.219 -0.16487 -1.6528 0
M  V30 4325 O 421.404 -0.349888 -1.87564 0
M  V30 4326 C 418.544 -1.0804 -3.27752 0
M  V30 4327 C 417.657 -2.29993 -3.65687 0
M  V30 4328 C 416.792 -2.01673 -4.91428 0
M  V30 4329 C 415.831 -3.19636 -5.22015 0
M  V30 4330 N 414.968 -2.91039 -6.38937 0
M  V30 4331 H 419.808 -2.24553 -1.95907 0
M  V30 4332 H 417.345 -1.11615 -0.958148 0
M  V30 4333 H 419.303 -0.936586 -4.06551 0
M  V30 4334 H 417.933 -0.16592 -3.22373 0
M  V30 4335 H 416.985 -2.55211 -2.82085 0
M  V30 4336 H 418.297 -3.18052 -3.84245 0
M  V30 4337 H 417.451 -1.84168 -5.78072 0
M  V30 4338 H 416.19 -1.10911 -4.74921 0
M  V30 4339 H 415.195 -3.37709 -4.33858 0
M  V30 4340 H 416.42 -4.11211 -5.40447 0
M  V30 4341 H 414.366 -2.0288 -6.2384 0
M  V30 4342 H 414.283 -3.72635 -6.57784 0
M  V30 4343 H 415.551 -2.77093 -7.28587 0
M  V30 4344 N 419.78 1.02168 -1.19998 0
M  V30 4345 C 420.69 2.14069 -0.959774 0
M  V30 4346 C 421.706 1.73804 0.082655 0
M  V30 4347 O 422.882 2.01133 -0.103633 0
M  V30 4348 C 419.947 3.42936 -0.509459 0
M  V30 4349 C 419.008 3.97474 -1.62213 0
M  V30 4350 C 418.241 5.2019 -1.19321 0
M  V30 4351 O 418.464 5.70369 -0.0597726 0
M  V30 4352 O 417.398 5.67749 -1.99863 0
M  V30 4353 H 421.224 2.37199 -1.89658 0
M  V30 4354 H 418.809 1.12469 -0.983411 0
M  V30 4355 H 420.691 4.20551 -0.267322 0
M  V30 4356 H 419.366 3.21234 0.398821 0
M  V30 4357 H 418.273 3.21161 -1.9185 0
M  V30 4358 H 419.606 4.23555 -2.50723 0
M  V30 4359 N 421.258 1.00505 1.21394 0
M  V30 4360 C 422.205 0.565496 2.23765 0
M  V30 4361 C 423.175 -0.408466 1.60999 0
M  V30 4362 O 424.36 -0.310503 1.88257 0
M  V30 4363 C 421.5 -0.101667 3.4495 0
M  V30 4364 C 420.613 0.915479 4.22188 0
M  V30 4365 C 419.748 0.220574 5.30742 0
M  V30 4366 C 418.787 1.22527 5.99711 0
M  V30 4367 N 417.924 0.557831 6.9988 0
M  V30 4368 H 422.764 1.44314 2.60725 0
M  V30 4369 H 420.301 0.722643 1.28126 0
M  V30 4370 H 422.259 -0.505504 4.14126 0
M  V30 4371 H 420.889 -0.94303 3.08718 0
M  V30 4372 H 419.941 1.43756 3.52191 0
M  V30 4373 H 421.253 1.68005 4.69655 0
M  V30 4374 H 420.407 -0.239368 6.06228 0
M  V30 4375 H 419.146 -0.576401 4.84282 0
M  V30 4376 H 418.151 1.69571 5.22997 0
M  V30 4377 H 419.376 2.02332 6.48258 0
M  V30 4378 H 417.322 -0.219486 6.55633 0
M  V30 4379 H 417.239 1.26065 7.45415 0
M  V30 4380 H 418.507 0.121095 7.79406 0
M  V30 4381 N 422.737 -1.36956 0.779787 0
M  V30 4382 C 423.647 -2.33965 0.172491 0
M  V30 4383 C 424.663 -1.60574 -0.670222 0
M  V30 4384 O 425.839 -1.92617 -0.588263 0
M  V30 4385 C 422.904 -3.39761 -0.690173 0
M  V30 4386 C 421.965 -4.28964 0.169924 0
M  V30 4387 C 421.198 -5.29707 -0.651662 0
M  V30 4388 O 421.421 -5.38238 -1.88827 0
M  V30 4389 O 420.355 -6.01873 -0.0566264 0
M  V30 4390 H 424.181 -2.87647 0.974321 0
M  V30 4391 H 421.766 -1.39258 0.541078 0
M  V30 4392 H 423.648 -4.04471 -1.1824 0
M  V30 4393 H 422.323 -2.88394 -1.47006 0
M  V30 4394 H 421.23 -3.67326 0.708696 0
M  V30 4395 H 422.563 -4.83656 0.913085 0
M  V30 4396 N 424.215 -0.530993 -1.48385 0
M  V30 4397 C 425.162 0.231223 -2.29639 0
M  V30 4398 C 426.132 0.932864 -1.37429 0
M  V30 4399 O 427.317 0.933692 -1.66394 0
M  V30 4400 C 424.457 1.27155 -3.2082 0
M  V30 4401 C 423.57 0.578655 -4.28107 0
M  V30 4402 C 422.705 1.602 -5.06467 0
M  V30 4403 C 421.744 0.892625 -6.05556 0
M  V30 4404 N 420.881 1.86157 -6.76971 0
M  V30 4405 H 425.721 -0.467848 -2.94305 0
M  V30 4406 H 423.258 -0.242556 -1.45086 0
M  V30 4407 H 425.216 1.88703 -3.72085 0
M  V30 4408 H 423.846 1.939 -2.58075 0
M  V30 4409 H 422.898 -0.150782 -3.80101 0
M  V30 4410 H 424.21 0.0217065 -4.98795 0
M  V30 4411 H 423.364 2.29173 -5.61751 0
M  V30 4412 H 422.103 2.19285 -4.35621 0
M  V30 4413 H 421.108 0.188829 -5.49476 0
M  V30 4414 H 422.333 0.307878 -6.78402 0
M  V30 4415 H 420.279 2.44147 -6.08875 0
M  V30 4416 H 420.196 1.35608 -7.43738 0
M  V30 4417 H 421.464 2.54325 -7.36844 0
M  V30 4418 N 425.693 1.55336 -0.266172 0
M  V30 4419 C 426.923 2.03506 0.356239 0
M  V30 4420 C 427.331 1.14426 1.50676 0
M  V30 4421 O 426.674 0.155043 1.83045 0
M  V30 4422 C 426.736 3.47848 0.90785 0
M  V30 4423 C 426.4 4.56861 -0.112888 0
M  V30 4424 C 427.397 5.11528 -0.929264 0
M  V30 4425 C 425.082 5.01704 -0.244546 0
M  V30 4426 C 427.076 6.09549 -1.86357 0
M  V30 4427 C 424.763 5.99553 -1.18234 0
M  V30 4428 C 425.761 6.53356 -1.99036 0
M  V30 4429 O 425.449 7.49293 -2.91231 0
M  V30 4430 H 425.181 0.670444 0.08649 0
M  V30 4431 H 427.735 2.01598 -0.39337 0
M  V30 4432 H 425.965 3.46967 1.70737 0
M  V30 4433 H 427.654 3.79407 1.44239 0
M  V30 4434 H 428.42 4.77701 -0.838237 0
M  V30 4435 H 424.299 4.59477 0.374359 0
M  V30 4436 H 427.843 6.51469 -2.49467 0
M  V30 4437 H 423.74 6.32799 -1.27421 0
M  V30 4438 H 424.508 7.66978 -2.8581 0
M  V30 4439 N 427.171 -0.0066808 1.57599 0
M  V30 4440 C 428.103 -1.02827 2.04839 0
M  V30 4441 C 429.116 -1.31108 0.965113 0
M  V30 4442 O 430.305 -1.28202 1.24203 0
M  V30 4443 C 427.405 -2.36464 2.42771 0
M  V30 4444 C 426.578 -2.27219 3.73751 0
M  V30 4445 C 425.637 -3.43489 3.98625 0
M  V30 4446 O 424.663 -3.21976 4.69382 0
M  V30 4447 N 425.865 -4.66116 3.46 0
M  V30 4448 H 428.63 -0.625455 2.93101 0
M  V30 4449 H 426.191 -0.194198 1.60731 0
M  V30 4450 H 428.183 -3.13008 2.56531 0
M  V30 4451 H 426.753 -2.68512 1.60063 0
M  V30 4452 H 425.973 -1.35629 3.70133 0
M  V30 4453 H 427.261 -2.18208 4.59633 0
M  V30 4454 H 426.659 -4.86493 2.88688 0
M  V30 4455 H 425.216 -5.39949 3.65101 0
M  V30 4456 N 428.649 -1.55105 -0.279332 0
M  V30 4457 C 429.559 -1.90638 -1.36727 0
M  V30 4458 C 430.575 -0.802899 -1.54368 0
M  V30 4459 O 431.751 -1.10138 -1.68616 0
M  V30 4460 C 428.816 -2.16547 -2.70755 0
M  V30 4461 C 427.877 -3.40146 -2.61915 0
M  V30 4462 C 427.11 -3.6481 -3.8955 0
M  V30 4463 O 427.333 -2.92095 -4.89935 0
M  V30 4464 O 426.267 -4.58343 -3.90135 0
M  V30 4465 H 430.093 -2.83237 -1.09591 0
M  V30 4466 H 427.678 -1.4157 -0.477306 0
M  V30 4467 H 429.56 -2.34665 -3.50014 0
M  V30 4468 H 428.235 -1.27131 -2.9769 0
M  V30 4469 H 427.142 -3.2737 -1.81052 0
M  V30 4470 H 428.475 -4.29761 -2.3993 0
M  V30 4471 N 430.127 0.543554 -1.4793 0
M  V30 4472 C 431.037 1.67657 -1.64098 0
M  V30 4473 C 432.053 1.65934 -0.523622 0
M  V30 4474 O 433.229 1.85133 -0.792943 0
M  V30 4475 C 430.294 3.04146 -1.66421 0
M  V30 4476 C 429.355 3.16831 -2.89684 0
M  V30 4477 C 428.588 4.46809 -2.91886 0
M  V30 4478 O 428.811 5.33095 -2.02895 0
M  V30 4479 O 427.745 4.63573 -3.83906 0
M  V30 4480 H 431.571 1.56957 -2.59997 0
M  V30 4481 H 429.156 0.715116 -1.31173 0
M  V30 4482 H 431.038 3.85346 -1.70548 0
M  V30 4483 H 429.713 3.152 -0.736923 0
M  V30 4484 H 428.62 2.34977 -2.91095 0
M  V30 4485 H 429.953 3.10687 -3.81752 0
M  V30 4486 N 431.605 1.3629 0.791371 0
M  V30 4487 C 432.852 1.30412 1.54916 0
M  V30 4488 C 433.18 -0.117162 1.94147 0
M  V30 4489 O 432.435 -1.08599 1.62803 0
M  V30 4490 C 432.734 2.17068 2.8393 0
M  V30 4491 C 432.4 3.65645 2.63846 0
M  V30 4492 C 431.062 4.0614 2.58077 0
M  V30 4493 C 433.414 4.59855 2.45322 0
M  V30 4494 C 430.742 5.3899 2.31748 0
M  V30 4495 C 433.094 5.9292 2.2052 0
M  V30 4496 C 431.758 6.32542 2.13183 0
M  V30 4497 H 431.028 0.47721 0.566879 0
M  V30 4498 H 433.675 1.68325 0.913172 0
M  V30 4499 H 431.98 1.72085 3.51986 0
M  V30 4500 H 433.677 2.09846 3.4171 0
M  V30 4501 H 430.267 3.33518 2.69191 0
M  V30 4502 H 434.451 4.29443 2.48782 0
M  V30 4503 H 429.707 5.68672 2.24548 0
M  V30 4504 H 433.881 6.65487 2.05182 0
M  V30 4505 H 431.508 7.35412 1.92544 0
M  V30 4506 N 433.083 -1.0153 1.20538 0
M  V30 4507 C 433.993 -2.13557 0.971113 0
M  V30 4508 C 435.009 -1.73845 -0.0734366 0
M  V30 4509 O 436.185 -2.01075 0.114299 0
M  V30 4510 C 433.25 -3.42661 0.527639 0
M  V30 4511 C 432.311 -3.96608 1.64319 0
M  V30 4512 C 431.544 -5.1955 1.22078 0
M  V30 4513 O 431.767 -5.70329 0.0900198 0
M  V30 4514 O 430.701 -5.66681 2.02871 0
M  V30 4515 H 434.527 -2.3619 1.90913 0
M  V30 4516 H 432.112 -1.11946 0.989362 0
M  V30 4517 H 433.994 -4.20404 0.289621 0
M  V30 4518 H 432.669 -3.21441 -0.381779 0
M  V30 4519 H 431.576 -3.20139 1.93551 0
M  V30 4520 H 432.909 -4.22219 2.52966 0
M  V30 4521 N 434.561 -1.01147 -1.20859 0
M  V30 4522 C 435.511 -0.548247 -2.2131 0
M  V30 4523 C 436.495 0.393646 -1.5601 0
M  V30 4524 O 437.687 0.217445 -1.75659 0
M  V30 4525 C 434.816 0.117252 -3.431 0
M  V30 4526 C 433.902 -0.846043 -4.15575 0
M  V30 4527 N 434.293 -2.00149 -4.64515 0
M  V30 4528 C 432.591 -0.665783 -4.41003 0
M  V30 4529 C 433.292 -2.60764 -5.19978 0
M  V30 4530 N 432.268 -1.88868 -5.09735 0
M  V30 4531 H 436.07 -1.42921 -2.56809 0
M  V30 4532 H 433.584 -0.876142 -1.36739 0
M  V30 4533 H 435.581 0.46662 -4.1428 0
M  V30 4534 H 434.241 0.994115 -3.09107 0
M  V30 4535 H 435.252 -2.38162 -4.5989 0
M  V30 4536 H 431.929 0.163456 -4.1718 0
M  V30 4537 H 433.319 -3.58519 -5.68255 0
M  V30 4538 N 436.039 1.36541 -0.78704 0
M  V30 4539 C 437.286 1.99304 -0.358341 0
M  V30 4540 C 437.614 1.62467 1.06933 0
M  V30 4541 O 436.869 0.870019 1.75297 0
M  V30 4542 C 437.168 3.54343 -0.466485 0
M  V30 4543 C 436.834 4.10993 -1.85461 0
M  V30 4544 C 435.496 4.26177 -2.23443 0
M  V30 4545 C 437.848 4.41895 -2.76366 0
M  V30 4546 C 435.176 4.69573 -3.51736 0
M  V30 4547 C 437.528 4.86722 -4.04084 0
M  V30 4548 C 436.192 5.00112 -4.42091 0
M  V30 4549 H 435.462 0.729306 -0.131126 0
M  V30 4550 H 438.109 1.63068 -1.00404 0
M  V30 4551 H 436.414 3.90918 0.262719 0
M  V30 4552 H 438.111 4.00833 -0.115854 0
M  V30 4553 H 434.701 3.99612 -1.54946 0
M  V30 4554 H 438.885 4.29735 -2.48277 0
M  V30 4555 H 434.141 4.78127 -3.81057 0
M  V30 4556 H 438.315 5.09598 -4.7464 0
M  V30 4557 H 435.942 5.33498 -5.41557 0
M  V30 4558 N 437.518 0.538854 1.48102 0
M  V30 4559 C 438.45 -0.256278 2.27763 0
M  V30 4560 C 439.463 -0.89633 1.35904 0
M  V30 4561 O 440.652 -0.773275 1.60881 0
M  V30 4562 C 437.752 -1.37896 3.09577 0
M  V30 4563 C 436.925 -0.839159 4.29275 0
M  V30 4564 C 435.984 -1.84405 4.9283 0
M  V30 4565 O 435.01 -1.39746 5.51779 0
M  V30 4566 N 436.212 -3.17666 4.85869 0
M  V30 4567 H 438.977 0.426968 2.96643 0
M  V30 4568 H 436.538 0.373747 1.57527 0
M  V30 4569 H 438.53 -2.04955 3.48963 0
M  V30 4570 H 437.1 -1.96572 2.4306 0
M  V30 4571 H 436.32 0.00769287 3.94199 0
M  V30 4572 H 437.608 -0.457548 5.06739 0
M  V30 4573 H 437.006 -3.56609 4.39143 0
M  V30 4574 H 435.563 -3.80334 5.29329 0
M  V30 4575 N 438.996 -1.55193 0.274407 0
M  V30 4576 C 439.928 -2.1989 -0.646595 0
M  V30 4577 C 440.941 -1.1834 -1.11801 0
M  V30 4578 O 442.13 -1.4507 -1.04004 0
M  V30 4579 C 439.23 -2.8104 -1.89393 0
M  V30 4580 C 438.403 -4.08274 -1.56943 0
M  V30 4581 C 437.462 -4.53478 -2.66916 0
M  V30 4582 O 436.488 -5.19267 -2.33132 0
M  V30 4583 N 437.69 -4.2356 -3.9696 0
M  V30 4584 H 440.455 -2.99556 -0.0928686 0
M  V30 4585 H 438.016 -1.61618 0.0954783 0
M  V30 4586 H 440.008 -3.08226 -2.62257 0
M  V30 4587 H 438.578 -2.05372 -2.35672 0
M  V30 4588 H 437.798 -3.88384 -0.674655 0
M  V30 4589 H 439.086 -4.91173 -1.32764 0
M  V30 4590 H 438.484 -3.70799 -4.27229 0
M  V30 4591 H 437.041 -4.55518 -4.66205 0
M  V30 4592 N 440.474 -0.00167713 -1.576 0
M  V30 4593 C 441.384 1.00548 -2.1196 0
M  V30 4594 C 442.4 1.3758 -1.06526 0
M  V30 4595 O 443.576 1.46278 -1.38436 0
M  V30 4596 C 440.641 2.27809 -2.6135 0
M  V30 4597 C 439.702 1.97074 -3.81393 0
M  V30 4598 C 438.935 3.18267 -4.28417 0
M  V30 4599 O 439.158 4.30009 -3.74765 0
M  V30 4600 O 438.092 3.02167 -5.20556 0
M  V30 4601 H 441.918 0.573373 -2.98238 0
M  V30 4602 H 439.503 0.217255 -1.47812 0
M  V30 4603 H 441.385 3.02568 -2.93309 0
M  V30 4604 H 440.06 2.70254 -1.78169 0
M  V30 4605 H 438.967 1.19785 -3.54404 0
M  V30 4606 H 440.3 1.59464 -4.65652 0
M  V30 4607 N 441.952 1.55251 0.271103 0
M  V30 4608 C 442.882 1.9127 1.33933 0
M  V30 4609 C 443.863 0.77478 1.5143 0
M  V30 4610 O 445.048 1.03307 1.64442 0
M  V30 4611 C 442.178 2.18627 2.69851 0
M  V30 4612 C 441.132 3.34442 2.67081 0
M  V30 4613 C 440.458 3.47284 4.06569 0
M  V30 4614 C 441.758 4.70784 2.26185 0
M  V30 4615 H 443.452 2.80744 1.04035 0
M  V30 4616 H 440.998 1.35077 0.499017 0
M  V30 4617 H 442.951 2.42413 3.44694 0
M  V30 4618 H 441.675 1.25955 3.01335 0
M  V30 4619 H 440.334 3.10627 1.94695 0
M  V30 4620 H 439.982 2.52074 4.35279 0
M  V30 4621 H 439.682 4.25152 4.0561 0
M  V30 4622 H 441.206 3.73363 4.83148 0
M  V30 4623 H 442.62 4.94102 2.90751 0
M  V30 4624 H 441.017 5.51582 2.36384 0
M  V30 4625 H 442.087 4.69478 1.21319 0
M  V30 4626 N 443.43 -0.535701 1.48216 0
M  V30 4627 C 444.707 -1.29683 1.46429 0
M  V30 4628 C 445.087 -2.10391 0.172852 0
M  V30 4629 O 444.435 -2.12282 -0.845488 0
M  V30 4630 C 444.645 -2.18313 2.72287 0
M  V30 4631 C 445.993 -2.78639 3.20383 0
M  V30 4632 O 447.017 -2.28604 2.73164 0
M  V30 4633 O 445.876 -3.69636 4.02531 0
M  V30 4634 H 442.97 -0.585026 0.584529 0
M  V30 4635 H 445.516 -0.552827 1.60443 0
M  V30 4636 H 444.288 -1.58421 3.57797 0
M  V30 4637 H 443.911 -2.99971 2.60966 0
M  V30 4638 N 444.908 -1.36708 -0.784132 0
M  V30 4639 C 445.855 -1.31466 -1.89698 0
M  V30 4640 C 446.825 -0.18239 -1.65096 0
M  V30 4641 O 448.01 -0.369762 -1.87183 0
M  V30 4642 C 445.15 -1.1151 -3.26588 0
M  V30 4643 C 444.263 -2.33859 -3.63227 0
M  V30 4644 C 443.398 -2.06873 -4.89262 0
M  V30 4645 C 442.437 -3.25154 -5.18595 0
M  V30 4646 N 441.574 -2.978 -6.35814 0
M  V30 4647 H 446.414 -2.26619 -1.93515 0
M  V30 4648 H 443.951 -1.12625 -0.946256 0
M  V30 4649 H 445.909 -0.979653 -4.05535 0
M  V30 4650 H 444.539 -0.200103 -3.22179 0
M  V30 4651 H 443.591 -2.58188 -2.79362 0
M  V30 4652 H 444.903 -3.22109 -3.8085 0
M  V30 4653 H 444.057 -1.90289 -5.76086 0
M  V30 4654 H 442.796 -1.15942 -4.73718 0
M  V30 4655 H 441.801 -3.42292 -4.30251 0
M  V30 4656 H 443.026 -4.1692 -5.36055 0
M  V30 4657 H 440.972 -2.09485 -6.21653 0
M  V30 4658 H 440.889 -3.7959 -6.53794 0
M  V30 4659 H 442.157 -2.84805 -7.25607 0
M  V30 4660 N 446.386 1.0089 -1.21074 0
M  V30 4661 C 447.333 2.09588 -0.966512 0
M  V30 4662 C 448.303 1.65761 0.106089 0
M  V30 4663 O 449.488 1.90758 -0.0402287 0
M  V30 4664 C 446.628 3.40958 -0.533058 0
M  V30 4665 C 445.741 3.9822 -1.67467 0
M  V30 4666 C 444.876 5.17682 -1.19076 0
M  V30 4667 C 443.915 5.67043 -2.30496 0
M  V30 4668 N 443.052 6.77759 -1.83267 0
M  V30 4669 H 447.892 2.29815 -1.89708 0
M  V30 4670 H 445.429 1.12689 -0.945489 0
M  V30 4671 H 447.387 4.1637 -0.263019 0
M  V30 4672 H 446.017 3.20781 0.360505 0
M  V30 4673 H 445.069 3.1983 -2.05944 0
M  V30 4674 H 446.381 4.3085 -2.51336 0
M  V30 4675 H 445.535 6.00326 -0.877151 0
M  V30 4676 H 444.274 4.86635 -0.322066 0
M  V30 4677 H 443.279 4.82999 -2.62664 0
M  V30 4678 H 444.504 6.00121 -3.17855 0
M  V30 4679 H 442.45 6.48527 -0.987356 0
M  V30 4680 H 442.367 7.09624 -2.60711 0
M  V30 4681 H 443.635 7.63949 -1.54928 0
M  V30 4682 N 447.864 1.01787 1.20321 0
M  V30 4683 C 448.811 0.589197 2.23153 0
M  V30 4684 C 449.781 -0.391367 1.61423 0
M  V30 4685 O 450.966 -0.290518 1.88575 0
M  V30 4686 C 448.106 -0.0650747 3.45039 0
M  V30 4687 C 447.219 0.960207 4.21194 0
M  V30 4688 C 446.354 0.276854 5.30478 0
M  V30 4689 C 445.393 1.2888 5.98378 0
M  V30 4690 N 444.53 0.632031 6.99249 0
M  V30 4691 H 449.37 1.47071 2.59179 0
M  V30 4692 H 446.907 0.736192 1.27352 0
M  V30 4693 H 448.865 -0.461552 4.14639 0
M  V30 4694 H 447.495 -0.910233 3.09701 0
M  V30 4695 H 446.547 1.47484 3.50646 0
M  V30 4696 H 447.859 1.72977 4.67847 0
M  V30 4697 H 447.013 -0.175056 6.06447 0
M  V30 4698 H 445.752 -0.525004 4.84866 0
M  V30 4699 H 444.757 1.75109 5.21169 0
M  V30 4700 H 445.982 2.09196 6.46076 0
M  V30 4701 H 443.928 -0.149935 6.55829 0
M  V30 4702 H 443.845 1.33964 7.44036 0
M  V30 4703 H 445.113 0.203755 7.79234 0
M  V30 4704 N 449.342 -1.36122 0.79427 0
M  V30 4705 C 450.252 -2.33769 0.197296 0
M  V30 4706 C 451.268 -1.61276 -0.653153 0
M  V30 4707 O 452.444 -1.9323 -0.5678 0
M  V30 4708 C 449.509 -3.40474 -0.654098 0
M  V30 4709 C 448.57 -4.28759 0.215411 0
M  V30 4710 C 447.803 -5.30368 -0.595443 0
M  V30 4711 O 448.026 -5.40211 -1.83107 0
M  V30 4712 O 446.96 -6.019 0.00721351 0
M  V30 4713 H 450.786 -2.86597 1.00478 0
M  V30 4714 H 448.371 -1.38676 0.555818 0
M  V30 4715 H 450.253 -4.05703 -1.13944 0
M  V30 4716 H 448.928 -2.89937 -1.43938 0
M  V30 4717 H 447.835 -3.66554 0.747615 0
M  V30 4718 H 449.168 -4.82661 0.964332 0
M  V30 4719 N 450.82 -0.546701 -1.47814 0
M  V30 4720 C 451.73 0.21026 -2.33656 0
M  V30 4721 C 452.746 0.922413 -1.47538 0
M  V30 4722 O 453.922 0.893652 -1.80488 0
M  V30 4723 C 450.987 1.23348 -3.24016 0
M  V30 4724 C 450.048 0.529883 -4.26017 0
M  V30 4725 C 449.281 1.50435 -5.12059 0
M  V30 4726 O 449.504 2.73837 -5.00369 0
M  V30 4727 O 448.438 1.03459 -5.92942 0
M  V30 4728 H 452.264 -0.493605 -2.99662 0
M  V30 4729 H 449.849 -0.307427 -1.46203 0
M  V30 4730 H 451.731 1.82438 -3.79861 0
M  V30 4731 H 450.406 1.91945 -2.60651 0
M  V30 4732 H 449.313 -0.101948 -3.73961 0
M  V30 4733 H 450.646 -0.11445 -4.92067 0
M  V30 4734 N 452.299 1.55045 -0.282633 0
M  V30 4735 C 453.546 1.9976 0.33199 0
M  V30 4736 C 453.874 1.17105 1.55295 0
M  V30 4737 O 453.129 0.230599 1.94337 0
M  V30 4738 C 453.428 3.49422 0.750938 0
M  V30 4739 C 453.094 4.4941 -0.366228 0
M  V30 4740 C 451.756 4.76471 -0.672964 0
M  V30 4741 C 454.108 5.09054 -1.11864 0
M  V30 4742 C 451.436 5.60442 -1.73556 0
M  V30 4743 C 453.788 5.9418 -2.17102 0
M  V30 4744 C 452.452 6.19558 -2.48402 0
M  V30 4745 H 451.722 0.730974 0.121484 0
M  V30 4746 H 454.369 1.8732 -0.39791 0
M  V30 4747 H 452.674 3.59377 1.56063 0
M  V30 4748 H 454.371 3.81432 1.23736 0
M  V30 4749 H 450.961 4.2844 -0.117041 0
M  V30 4750 H 455.145 4.88165 -0.894925 0
M  V30 4751 H 450.401 5.78349 -1.983 0
M  V30 4752 H 454.575 6.39427 -2.75873 0
M  V30 4753 H 452.202 6.84417 -3.30874 0
M  V30 4754 N 453.777 0.010035 1.57597 0
M  V30 4755 C 454.709 -1.00649 2.05918 0
M  V30 4756 C 455.722 -1.30077 0.978964 0
M  V30 4757 O 456.911 -1.26878 1.25556 0
M  V30 4758 C 454.011 -2.33876 2.45265 0
M  V30 4759 C 453.184 -2.23242 3.7614 0
M  V30 4760 C 452.243 -3.39242 4.02245 0
M  V30 4761 O 451.269 -3.1698 4.72771 0
M  V30 4762 N 452.471 -4.6242 3.50924 0
M  V30 4763 H 455.236 -0.594333 2.93748 0
M  V30 4764 H 452.797 -0.17714 1.60928 0
M  V30 4765 H 454.789 -3.1027 2.59836 0
M  V30 4766 H 453.359 -2.66799 1.62902 0
M  V30 4767 H 452.579 -1.31696 3.71551 0
M  V30 4768 H 453.867 -2.13321 4.61922 0
M  V30 4769 H 453.265 -4.83404 2.93832 0
M  V30 4770 H 451.822 -5.36046 3.70807 0
M  V30 4771 N 455.255 -1.55392 -0.262866 0
M  V30 4772 C 456.202 -1.88966 -1.32516 0
M  V30 4773 C 457.172 -0.742187 -1.48596 0
M  V30 4774 O 458.357 -0.99439 -1.62839 0
M  V30 4775 C 455.497 -2.17592 -2.67858 0
M  V30 4776 C 454.61 -3.45061 -2.59917 0
M  V30 4777 C 453.745 -3.63336 -3.87505 0
M  V30 4778 C 452.784 -4.84462 -3.74116 0
M  V30 4779 N 451.921 -4.99342 -4.93561 0
M  V30 4780 H 456.761 -2.79566 -1.03184 0
M  V30 4781 H 454.298 -1.38404 -0.498285 0
M  V30 4782 H 456.256 -2.3219 -3.46617 0
M  V30 4783 H 454.886 -1.30215 -2.95371 0
M  V30 4784 H 453.938 -3.38881 -1.72812 0
M  V30 4785 H 455.25 -4.3396 -2.45926 0
M  V30 4786 H 454.404 -3.77807 -4.74707 0
M  V30 4787 H 453.143 -2.72641 -4.04374 0
M  V30 4788 H 452.148 -4.69985 -2.85297 0
M  V30 4789 H 453.373 -5.76603 -3.58757 0
M  V30 4790 H 451.319 -4.1158 -5.10821 0
M  V30 4791 H 451.236 -5.82303 -4.82141 0
M  V30 4792 H 452.504 -5.18208 -5.82306 0
M  V30 4793 N 456.733 0.527833 -1.48498 0
M  V30 4794 C 457.981 1.28101 -1.56316 0
M  V30 4795 C 458.302 1.9352 -0.239781 0
M  V30 4796 O 457.572 1.81433 0.738849 0
M  V30 4797 H 456.152 0.475793 -0.575873 0
M  V30 4798 H 458.814 0.614052 -1.84974 0
M  V30 4799 H 457.91 2.05916 -2.34532 0
M  V30 4800 N 458.211 1.37122 0.776871 0
M  V30 4801 C 459.161 1.28989 1.88005 0
M  V30 4802 C 460.145 0.178765 1.59904 0
M  V30 4803 O 461.337 0.412705 1.72121 0
M  V30 4804 C 458.466 1.09402 3.25402 0
M  V30 4805 C 457.552 2.25036 3.59471 0
M  V30 4806 N 457.943 3.50407 3.64759 0
M  V30 4807 C 456.241 2.17078 3.89607 0
M  V30 4808 C 456.942 4.26628 3.95428 0
M  V30 4809 N 455.918 3.55709 4.11062 0
M  V30 4810 H 459.72 2.2394 1.90337 0
M  V30 4811 H 457.234 1.30021 0.973052 0
M  V30 4812 H 459.231 1.01661 4.04315 0
M  V30 4813 H 457.891 0.153632 3.24336 0
M  V30 4814 H 458.902 3.8438 3.47091 0
M  V30 4815 H 455.579 1.31067 3.96393 0
M  V30 4816 H 456.969 5.35107 4.06338 0
M  V30 4817 N 459.689 -1.00246 1.21608 0
M  V30 4818 C 461.1 -1.55511 1.03312 0
M  V30 4819 C 461.451 -1.91946 -0.406332 0
M  V30 4820 O 460.576 -1.73753 -1.28992 0
M  V30 4821 C 461.171 -2.82576 1.86913 0
M  V30 4822 C 459.73 -3.34318 1.72941 0
M  V30 4823 C 458.877 -2.07487 1.83968 0
M  V30 4824 H 461.828 -0.824638 1.35593 0
M  V30 4825 H 461.849 -3.54559 1.38087 0
M  V30 4826 H 461.361 -2.56026 2.91672 0
M  V30 4827 H 459.462 -3.65797 0.70877 0
M  V30 4828 H 459.575 -4.05566 2.55055 0
M  V30 4829 H 457.939 -2.20603 1.27304 0
M  V30 4830 H 458.722 -1.83346 2.9024 0
M  V30 4831 N 461.167 -1.02423 -1.1978 0
M  V30 4832 C 462.444 -0.632802 -1.85081 0
M  V30 4833 C 462.824 0.888745 -1.9148 0
M  V30 4834 O 462.172 1.78357 -1.42832 0
M  V30 4835 C 462.382 -1.28947 -3.24305 0
M  V30 4836 C 463.73 -1.40976 -4.00513 0
M  V30 4837 O 464.754 -1.24628 -3.33686 0
M  V30 4838 O 463.613 -1.67467 -5.20209 0
M  V30 4839 H 460.707 -0.219348 -0.79738 0
M  V30 4840 H 463.253 -1.12209 -1.27307 0
M  V30 4841 H 462.025 -2.3288 -3.14456 0
M  V30 4842 H 461.648 -0.787748 -3.89718 0
M  V30 4843 N 462.645 1.35699 -0.801477 0
M  V30 4844 C 463.575 2.32436 -0.222658 0
M  V30 4845 C 464.556 1.5723 0.649057 0
M  V30 4846 O 465.741 1.85324 0.580387 0
M  V30 4847 C 462.871 3.41469 0.633719 0
M  V30 4848 C 461.825 4.27774 -0.139083 0
M  V30 4849 C 461.151 5.28082 0.838666 0
M  V30 4850 C 462.451 5.04946 -1.33517 0
M  V30 4851 H 464.145 2.81094 -1.03086 0
M  V30 4852 H 461.691 1.35146 -0.497155 0
M  V30 4853 H 463.644 4.08143 1.04868 0
M  V30 4854 H 462.368 2.91408 1.47475 0
M  V30 4855 H 461.027 3.62673 -0.535156 0
M  V30 4856 H 460.675 4.7429 1.67506 0
M  V30 4857 H 460.375 5.86695 0.32594 0
M  V30 4858 H 461.899 5.97628 1.25194 0
M  V30 4859 H 463.313 5.64593 -0.995349 0
M  V30 4860 H 461.71 5.7303 -1.78202 0
M  V30 4861 H 462.78 4.35886 -2.12442 0
M  V30 4862 N 464.123 0.554532 1.47522 0
M  V30 4863 C 465.055 -0.232106 2.28022 0
M  V30 4864 C 466.068 -0.881865 1.36847 0
M  V30 4865 O 467.257 -0.756168 1.61692 0
M  V30 4866 C 464.357 -1.34604 3.11022 0
M  V30 4867 C 463.53 -0.793582 4.30141 0
M  V30 4868 C 462.589 -1.79168 4.94758 0
M  V30 4869 O 461.615 -1.33886 5.5323 0
M  V30 4870 N 462.817 -3.12495 4.89211 0
M  V30 4871 H 465.582 0.458407 2.96173 0
M  V30 4872 H 463.143 0.390433 1.57122 0
M  V30 4873 H 465.135 -2.01243 3.51118 0
M  V30 4874 H 463.705 -1.93983 2.45131 0
M  V30 4875 H 462.925 0.0495025 3.94169 0
M  V30 4876 H 464.213 -0.403776 5.07195 0
M  V30 4877 H 463.611 -3.51931 4.42901 0
M  V30 4878 H 462.168 -3.74698 5.33333 0
M  V30 4879 N 465.601 -1.54893 0.290851 0
M  V30 4880 C 466.849 -1.99538 -0.320756 0
M  V30 4881 C 467.17 -1.18075 -1.55188 0
M  V30 4882 O 466.44 -0.274162 -1.93972 0
M  V30 4883 H 465.02 -0.737052 -0.121507 0
M  V30 4884 H 467.682 -1.90755 0.399832 0
M  V30 4885 H 466.778 -3.06282 -0.599802 0
M  V30 4886 N 467.08 -0.0183926 -1.57589 0
M  V30 4887 C 468.012 0.995557 -2.06449 0
M  V30 4888 C 469.025 1.29556 -0.985849 0
M  V30 4889 O 470.214 1.2621 -1.26227 0
M  V30 4890 C 467.314 2.32572 -2.46502 0
M  V30 4891 C 466.487 2.21245 -3.77319 0
M  V30 4892 C 465.546 3.37104 -4.04039 0
M  V30 4893 O 464.572 3.14468 -4.74445 0
M  V30 4894 N 465.774 4.60553 -3.53372 0
M  V30 4895 H 468.539 0.578746 -2.94059 0
M  V30 4896 H 466.1 0.168603 -1.6102 0
M  V30 4897 H 468.092 3.08887 -2.61478 0
M  V30 4898 H 466.662 2.65931 -1.64315 0
M  V30 4899 H 465.882 1.29723 -3.72244 0
M  V30 4900 H 467.17 2.10868 -4.63047 0
M  V30 4901 H 466.568 4.81839 -2.96391 0
M  V30 4902 H 465.125 5.34072 -3.73644 0
M  V30 4903 N 468.558 1.5553 0.254621 0
M  V30 4904 C 469.969 1.67518 0.824286 0
M  V30 4905 C 470.32 0.614429 1.86331 0
M  V30 4906 O 469.445 -0.240736 2.15057 0
M  V30 4907 C 470.04 3.03692 1.50189 0
M  V30 4908 C 468.599 3.17646 2.01935 0
M  V30 4909 C 467.746 2.63373 0.867746 0
M  V30 4910 H 470.697 1.58671 0.0305843 0
M  V30 4911 H 470.718 2.97706 2.36962 0
M  V30 4912 H 470.23 3.80874 0.745431 0
M  V30 4913 H 468.331 2.45273 2.80485 0
M  V30 4914 H 468.444 4.24455 2.22204 0
M  V30 4915 H 466.808 2.20999 1.26616 0
M  V30 4916 H 467.591 3.43074 0.124498 0
M  V30 4917 N 470.036 -0.519951 1.48776 0
M  V30 4918 C 470.999 -1.60574 1.6355 0
M  V30 4919 C 471.999 -1.52557 0.508234 0
M  V30 4920 O 473.189 -1.56047 0.774262 0
M  V30 4921 C 470.321 -3.00211 1.61512 0
M  V30 4922 H 471.514 -1.4881 2.60376 0
M  V30 4923 H 469.067 -0.742772 1.37523 0
M  V30 4924 H 469.802 -3.17471 0.662009 0
M  V30 4925 H 469.587 -3.07439 2.43359 0
M  V30 4926 H 471.077 -3.79134 1.75064 0
M  V30 4927 N 471.514 -1.37532 -0.769588 0
M  V30 4928 C 472.424 -1.35668 -1.91393 0
M  V30 4929 C 473.44 -0.255954 -1.72107 0
M  V30 4930 O 474.616 -0.491704 -1.95305 0
M  V30 4931 C 471.681 -1.16481 -3.26547 0
M  V30 4932 C 470.742 -2.36212 -3.58472 0
M  V30 4933 C 469.975 -2.17932 -4.87177 0
M  V30 4934 O 470.198 -1.1647 -5.58382 0
M  V30 4935 O 469.132 -3.06167 -5.18214 0
M  V30 4936 H 472.958 -2.32055 -1.95918 0
M  V30 4937 H 470.543 -1.18284 -0.912641 0
M  V30 4938 H 472.425 -1.07778 -4.07384 0
M  V30 4939 H 471.1 -0.231687 -3.2287 0
M  V30 4940 H 470.007 -2.50488 -2.77861 0
M  V30 4941 H 471.34 -3.281 -3.66894 0
M  V30 4942 N 472.992 0.995999 -1.22138 0
M  V30 4943 C 473.902 2.11985 -1.00496 0
M  V30 4944 C 474.918 1.7394 0.0457701 0
M  V30 4945 O 476.094 2.00868 -0.146273 0
M  V30 4946 C 473.159 3.41779 -0.582086 0
M  V30 4947 C 472.22 3.93943 -1.70608 0
M  V30 4948 C 471.453 5.17542 -1.30328 0
M  V30 4949 O 471.676 5.70114 -0.180743 0
M  V30 4950 O 470.61 5.63382 -2.11861 0
M  V30 4951 H 474.436 2.33123 -1.94647 0
M  V30 4952 H 472.021 1.10358 -1.00705 0
M  V30 4953 H 473.903 4.1989 -0.356467 0
M  V30 4954 H 472.578 3.22007 0.330592 0
M  V30 4955 H 471.485 3.17019 -1.98619 0
M  V30 4956 H 472.818 4.18141 -2.59651 0
M  V30 4957 N 474.47 1.03057 1.19235 0
M  V30 4958 C 475.719 0.72326 1.88287 0
M  V30 4959 C 476.032 -0.751333 1.80594 0
M  V30 4960 O 477.238 -1.17176 2.44912 0
M  V30 4961 C 475.694 1.24338 3.3774 0
M  V30 4962 C 475.302 2.74587 3.53986 0
M  V30 4963 C 477.046 1.01213 4.12257 0
M  V30 4964 C 474.953 3.20009 4.97341 0
M  V30 4965 H 473.883 0.266848 0.705201 0
M  V30 4966 H 476.534 1.24509 1.34795 0
M  V30 4967 H 474.916 0.649457 3.90638 0
M  V30 4968 H 476.09 3.39649 3.11408 0
M  V30 4969 H 474.405 2.9601 2.9286 0
M  V30 4970 H 477.002 1.32675 5.17978 0
M  V30 4971 H 477.345 -0.051001 4.16269 0
M  V30 4972 H 477.878 1.57014 3.65501 0
M  V30 4973 H 474.617 4.25659 4.98493 0
M  V30 4974 H 474.137 2.59676 5.40674 0
M  V30 4975 H 475.816 3.13447 5.66003 0
M  V30 4976 N 475.948 -1.35272 0.808662 0
M  V30 4977 C 477.195 -1.98709 0.390003 0
M  V30 4978 C 477.523 -1.64148 -1.04335 0
M  V30 4979 O 476.778 -0.897797 -1.73891 0
M  V30 4980 C 477.077 -3.53556 0.522798 0
M  V30 4981 C 476.743 -4.0799 1.91977 0
M  V30 4982 C 475.405 -4.22568 2.30195 0
M  V30 4983 C 477.757 -4.37442 2.83361 0
M  V30 4984 C 475.085 -4.63918 3.59162 0
M  V30 4985 C 477.437 -4.80232 4.11776 0
M  V30 4986 C 476.101 -4.93016 4.49991 0
M  V30 4987 H 475.371 -0.727127 0.142712 0
M  V30 4988 H 478.018 -1.6145 1.02985 0
M  V30 4989 H 476.323 -3.91287 -0.200494 0
M  V30 4990 H 478.02 -4.00598 0.179608 0
M  V30 4991 H 474.61 -3.97096 1.61284 0
M  V30 4992 H 478.794 -4.25731 2.55083 0
M  V30 4993 H 474.05 -4.72005 3.88615 0
M  V30 4994 H 478.224 -5.01982 4.82687 0
M  V30 4995 H 475.851 -5.24814 5.49976 0
M  V30 4996 N 477.426 -0.562348 -1.47226 0
M  V30 4997 C 478.336 0.185466 -2.33866 0
M  V30 4998 C 479.352 0.906713 -1.48508 0
M  V30 4999 O 480.528 0.874458 -1.81425 0
M  V30 5000 C 477.593 1.19904 -3.25306 0
M  V30 5001 C 476.654 0.484669 -4.26555 0
M  V30 5002 C 475.887 1.44996 -5.13626 0
M  V30 5003 O 476.11 2.68515 -5.03245 0
M  V30 5004 O 475.044 0.971642 -5.94006 0
M  V30 5005 H 478.87 -0.525361 -2.99121 0
M  V30 5006 H 476.455 -0.322916 -1.45868 0
M  V30 5007 H 478.337 1.78399 -3.81774 0
M  V30 5008 H 477.012 1.8917 -2.62672 0
M  V30 5009 H 475.919 -0.141605 -3.73832 0
M  V30 5010 H 477.252 -0.166634 -4.91918 0
M  V30 5011 N 478.904 1.54736 -0.299062 0
M  V30 5012 C 480.129 2.04975 0.316254 0
M  V30 5013 C 480.554 1.17501 1.46885 0
M  V30 5014 O 479.912 0.178678 1.80417 0
M  V30 5015 C 479.96 3.52672 0.751997 0
M  V30 5016 O 479.064 3.68226 1.85697 0
M  V30 5017 H 478.405 0.661126 0.0617175 0
M  V30 5018 H 480.935 1.99805 -0.440341 0
M  V30 5019 H 480.945 3.94488 1.04133 0
M  V30 5020 H 479.62 4.158 -0.0911482 0
M  V30 5021 H 478.197 3.38316 1.56834 0
M  V30 5022 N 480.382 0.0267497 1.57577 0
M  V30 5023 C 481.628 -0.653371 1.91987 0
M  V30 5024 C 481.961 -1.71915 0.903263 0
M  V30 5025 O 481.236 -1.94358 -0.0743387 0
M  V30 5026 C 481.519 -1.272 3.36886 0
M  V30 5027 C 481.372 -0.215938 4.49281 0
M  V30 5028 C 482.691 -2.19069 3.81703 0
M  V30 5029 H 479.81 -0.236047 0.698177 0
M  V30 5030 H 482.452 0.0835236 1.89816 0
M  V30 5031 H 480.602 -1.90005 3.38866 0
M  V30 5032 H 482.274 0.41449 4.59434 0
M  V30 5033 H 480.517 0.458855 4.31366 0
M  V30 5034 H 481.188 -0.688347 5.47691 0
M  V30 5035 H 483.664 -1.66253 3.81444 0
M  V30 5036 H 482.54 -2.59307 4.83788 0
M  V30 5037 H 482.801 -3.08087 3.17072 0
M  V30 5038 N 481.861 -1.55662 -0.24637 0
M  V30 5039 C 483.109 -1.77168 -0.972411 0
M  V30 5040 C 483.43 -0.590827 -1.85834 0
M  V30 5041 O 482.7 0.393365 -1.9191 0
M  V30 5042 H 481.28 -0.653405 -0.362038 0
M  V30 5043 H 483.942 -1.93101 -0.264189 0
M  V30 5044 H 483.038 -2.68335 -1.59382 0
M  V30 5045 N 483.339 0.512053 -1.4905 0
M  V30 5046 C 484.616 1.27337 -1.48474 0
M  V30 5047 C 484.996 2.1009 -0.206301 0
M  V30 5048 O 484.344 2.136 0.811609 0
M  V30 5049 C 484.554 2.13954 -2.75726 0
M  V30 5050 C 485.902 2.73507 -3.24776 0
M  V30 5051 O 486.926 2.24229 -2.76767 0
M  V30 5052 O 485.785 3.63186 -4.08361 0
M  V30 5053 H 482.879 0.575652 -0.593762 0
M  V30 5054 H 485.425 0.527232 -1.61302 0
M  V30 5055 H 484.197 1.52709 -3.60272 0
M  V30 5056 H 483.82 2.95782 -2.65705 0
M  V30 5057 N 484.817 1.37938 0.762283 0
M  V30 5058 C 486.233 1.18945 1.06415 0
M  V30 5059 C 486.433 0.0321163 2.01474 0
M  V30 5060 O 485.489 -0.624844 2.44647 0
M  V30 5061 C 486.802 2.51218 1.65258 0
M  V30 5062 C 488.35 2.57824 1.7747 0
M  V30 5063 C 488.825 3.90251 2.39725 0
M  V30 5064 N 490.316 3.91744 2.47166 0
M  V30 5065 C 491.051 4.90966 2.96209 0
M  V30 5066 N 490.547 6.00585 3.45354 0
M  V30 5067 N 492.34 4.78363 2.9517 0
M  V30 5068 H 484.491 2.11994 0.131301 0
M  V30 5069 H 486.754 0.940262 0.120879 0
M  V30 5070 H 486.46 3.36317 1.02878 0
M  V30 5071 H 486.334 2.68989 2.64433 0
M  V30 5072 H 488.721 1.73126 2.3898 0
M  V30 5073 H 488.802 2.43928 0.770241 0
M  V30 5074 H 488.446 4.75368 1.78852 0
M  V30 5075 H 488.376 4.01454 3.40796 0
M  V30 5076 H 490.867 3.12563 2.12397 0
M  V30 5077 H 491.18 6.72236 3.81207 0
M  V30 5078 H 489.525 6.04217 3.43434 0
M  V30 5079 H 492.716 3.91841 2.56082 0
M  V30 5080 H 492.889 5.55843 3.33081 0
M  V30 5081 N 486.295 -0.989507 1.22664 0
M  V30 5082 C 487.205 -2.11449 1.01619 0
M  V30 5083 C 488.221 -1.73962 -0.036545 0
M  V30 5084 O 489.397 -2.00788 0.156924 0
M  V30 5085 C 486.462 -3.41465 0.600204 0
M  V30 5086 C 485.523 -3.93033 1.72695 0
M  V30 5087 C 484.756 -5.16844 1.33071 0
M  V30 5088 O 484.979 -5.7001 0.210975 0
M  V30 5089 O 483.913 -5.6225 2.14845 0
M  V30 5090 H 487.739 -2.32088 1.9588 0
M  V30 5091 H 485.324 -1.09823 1.01289 0
M  V30 5092 H 487.206 -4.19695 0.37873 0
M  V30 5093 H 485.881 -3.22178 -0.313511 0
M  V30 5094 H 484.788 -3.15961 2.00298 0
M  V30 5095 H 486.121 -4.16758 2.61865 0
M  V30 5096 N 487.773 -1.03688 -1.18687 0
M  V30 5097 C 488.703 -0.645407 -2.24403 0
M  V30 5098 C 489.684 0.349511 -1.66471 0
M  V30 5099 O 490.869 0.230453 -1.92828 0
M  V30 5100 C 487.999 -0.00365337 -3.473 0
M  V30 5101 C 486.953 -0.921705 -4.17958 0
M  V30 5102 C 486.279 -0.144629 -5.34504 0
M  V30 5103 C 487.579 -2.23909 -4.71871 0
M  V30 5104 H 489.273 -1.52917 -2.57404 0
M  V30 5105 H 486.819 -0.736711 -1.23728 0
M  V30 5106 H 488.772 0.281908 -4.20456 0
M  V30 5107 H 487.496 0.914963 -3.13522 0
M  V30 5108 H 486.155 -1.19159 -3.46694 0
M  V30 5109 H 485.803 0.776274 -4.96974 0
M  V30 5110 H 485.503 -0.756206 -5.82714 0
M  V30 5111 H 487.027 0.134004 -6.10453 0
M  V30 5112 H 488.441 -2.0145 -5.36741 0
M  V30 5113 H 486.838 -2.8033 -5.30599 0
M  V30 5114 H 487.908 -2.88822 -3.895 0
M  V30 5115 N 489.251 1.34841 -0.815825 0
M  V30 5116 C 490.667 1.51543 -0.500697 0
M  V30 5117 C 490.867 1.76261 0.976444 0
M  V30 5118 O 489.923 1.8094 1.76117 0
M  V30 5119 C 491.236 2.68487 -1.35407 0
M  V30 5120 C 492.784 2.82368 -1.35046 0
M  V30 5121 C 493.259 4.02347 -2.18816 0
M  V30 5122 N 494.75 4.09542 -2.16402 0
M  V30 5123 C 495.485 5.01517 -2.77971 0
M  V30 5124 N 494.981 5.98763 -3.48503 0
M  V30 5125 N 496.774 4.94334 -2.67563 0
M  V30 5126 H 488.925 1.17055 -1.77234 0
M  V30 5127 H 491.188 0.573481 -0.754866 0
M  V30 5128 H 490.894 2.56829 -2.40274 0
M  V30 5129 H 490.768 3.63321 -1.01377 0
M  V30 5130 H 493.155 2.93471 -0.309604 0
M  V30 5131 H 493.236 1.88363 -1.73069 0
M  V30 5132 H 492.88 3.92004 -3.22948 0
M  V30 5133 H 492.81 4.95551 -1.78148 0
M  V30 5134 H 495.301 3.39932 -1.65091 0
M  V30 5135 H 495.614 6.6556 -3.92747 0
M  V30 5136 H 493.959 5.98909 -3.52609 0
M  V30 5137 H 497.15 4.1732 -2.12041 0
M  V30 5138 H 497.323 5.6582 -3.15834 0
M  V30 5139 N 490.729 0.570148 1.46925 0
M  V30 5140 C 491.661 -0.207909 2.28255 0
M  V30 5141 C 492.674 -0.867301 1.37774 0
M  V30 5142 O 493.863 -0.738976 1.62485 0
M  V30 5143 C 490.963 -1.31298 3.12433 0
M  V30 5144 C 490.136 -0.747915 4.30958 0
M  V30 5145 C 489.195 -1.7391 4.9663 0
M  V30 5146 O 488.221 -1.2801 5.54619 0
M  V30 5147 N 489.423 -3.07288 4.92498 0
M  V30 5148 H 492.188 0.489794 2.95671 0
M  V30 5149 H 489.749 0.407076 1.56699 0
M  V30 5150 H 491.741 -1.97507 3.53232 0
M  V30 5151 H 490.311 -1.91373 2.47175 0
M  V30 5152 H 489.531 0.0913066 3.94094 0
M  V30 5153 H 490.819 -0.349958 5.07595 0
M  V30 5154 H 490.217 -3.47213 4.46609 0
M  V30 5155 H 488.774 -3.69021 5.37277 0
M  V30 5156 N 492.207 -1.54576 0.307264 0
M  V30 5157 C 493.453 -2.0056 -0.300612 0
M  V30 5158 C 493.786 -1.1953 -1.53057 0
M  V30 5159 O 493.061 -0.27337 -1.92569 0
M  V30 5160 C 493.344 -3.54167 -0.650987 0
M  V30 5161 C 493.197 -4.45933 0.588539 0
M  V30 5162 C 494.516 -4.14645 -1.47506 0
M  V30 5163 H 491.635 -0.729075 -0.107788 0
M  V30 5164 H 494.277 -1.85286 0.420606 0
M  V30 5165 H 492.427 -3.67313 -1.26544 0
M  V30 5166 H 494.099 -4.44683 1.22697 0
M  V30 5167 H 492.342 -4.16274 1.22058 0
M  V30 5168 H 493.013 -5.51189 0.299153 0
M  V30 5169 H 495.489 -4.04973 -0.955821 0
M  V30 5170 H 494.365 -5.22269 -1.68899 0
M  V30 5171 H 494.626 -3.66921 -2.4662 0
M  V30 5172 N 493.685 -0.035106 -1.57561 0
M  V30 5173 C 494.932 0.642229 -1.92046 0
M  V30 5174 C 495.26 1.7179 -0.91206 0
M  V30 5175 O 494.515 1.95544 0.0781153 0
M  V30 5176 C 494.814 1.29149 -3.3325 0
M  V30 5177 C 494.48 0.345604 -4.49574 0
M  V30 5178 C 493.142 0.0852775 -4.81124 0
M  V30 5179 C 495.494 -0.303569 -5.20315 0
M  V30 5180 C 492.822 -0.831927 -5.80772 0
M  V30 5181 C 495.174 -1.20886 -6.20942 0
M  V30 5182 C 493.838 -1.47802 -6.50931 0
M  V30 5183 H 493.108 0.235008 -0.702746 0
M  V30 5184 H 495.755 -0.0981529 -1.91248 0
M  V30 5185 H 494.06 2.10676 -3.30337 0
M  V30 5186 H 495.757 1.82223 -3.57205 0
M  V30 5187 H 492.347 0.558683 -4.24943 0
M  V30 5188 H 496.531 -0.115515 -4.96166 0
M  V30 5189 H 491.787 -1.0481 -6.02349 0
M  V30 5190 H 495.961 -1.71804 -6.74875 0
M  V30 5191 H 493.588 -2.19039 -7.2796 0
M  V30 5192 N 495.163 1.55791 0.238111 0
M  V30 5193 C 496.073 1.94196 1.31625 0
M  V30 5194 C 497.089 0.843545 1.52185 0
M  V30 5195 O 498.265 1.1457 1.65637 0
M  V30 5196 C 495.33 2.2365 2.64918 0
M  V30 5197 C 494.391 3.46971 2.52804 0
M  V30 5198 C 493.624 3.7501 3.79741 0
M  V30 5199 O 493.847 3.04982 4.82019 0
M  V30 5200 O 492.781 4.68525 3.77846 0
M  V30 5201 H 496.607 2.86044 1.02043 0
M  V30 5202 H 494.192 1.42786 0.439603 0
M  V30 5203 H 496.074 2.43863 3.4367 0
M  V30 5204 H 494.749 1.34979 2.94215 0
M  V30 5205 H 493.656 3.32055 1.72309 0
M  V30 5206 H 494.989 4.35971 2.28451 0
M  V30 5207 N 496.642 -0.504142 1.49319 0
M  V30 5208 C 497.89 -1.25598 1.58334 0
M  V30 5209 C 498.211 -1.93114 0.270538 0
M  V30 5210 O 497.481 -1.82585 -0.709891 0
M  V30 5211 H 496.061 -0.466571 0.58337 0
M  V30 5212 H 498.723 -0.584547 1.85928 0
M  V30 5213 H 497.819 -2.02159 2.37778 0
M  V30 5214 N 498.12 -1.38341 -0.754957 0
M  V30 5215 C 499.052 -1.31347 -1.87831 0
M  V30 5216 C 500.065 -0.225955 -1.61224 0
M  V30 5217 O 501.254 -0.48341 -1.7183 0
M  V30 5218 C 498.354 -1.01201 -3.23437 0
M  V30 5219 C 497.527 -2.20834 -3.77559 0
M  V30 5220 C 496.586 -1.87454 -4.91678 0
M  V30 5221 O 495.612 -2.59934 -5.06382 0
M  V30 5222 N 496.814 -0.828682 -5.74555 0
M  V30 5223 H 499.579 -2.28147 -1.94342 0
M  V30 5224 H 497.14 -1.32184 -0.934828 0
M  V30 5225 H 499.132 -0.769249 -3.97322 0
M  V30 5226 H 497.702 -0.132011 -3.12321 0
M  V30 5227 H 496.922 -2.61184 -2.95256 0
M  V30 5228 H 498.21 -3.00678 -4.10451 0
M  V30 5229 H 497.608 -0.227591 -5.65242 0
M  V30 5230 H 496.165 -0.645802 -6.48593 0
M  V30 5231 N 499.598 0.982988 -1.23187 0
M  V30 5232 C 500.546 2.09616 -1.00817 0
M  V30 5233 C 501.54 1.6932 0.0519995 0
M  V30 5234 O 502.746 1.79715 -0.101284 0
M  V30 5235 H 499.121 0.685628 -0.308899 0
M  V30 5236 H 501.092 2.25652 -1.95253 0
M  V30 5237 C 499.841 3.42249 -0.613243 0
M  V30 5238 H 499.164 3.73705 -1.42073 0
M  V30 5239 H 500.604 4.21086 -0.496208 0
M  V30 5240 C 499.063 3.30002 0.678233 0
M  V30 5241 O 499.593 3.6263 1.72807 0
M  V30 5242 N 497.799 2.83164 0.653165 0
M  V30 5243 H 497.346 2.56811 -0.201492 0
M  V30 5244 H 497.304 2.75352 1.51752 0
M  V30 5245 N 501.076 1.04316 1.18135 0
M  V30 5246 C 502.492 0.762858 1.40188 0
M  V30 5247 C 502.692 -0.646547 1.90846 0
M  V30 5248 O 501.748 -1.41036 2.0944 0
M  V30 5249 C 503.061 1.81106 2.40044 0
M  V30 5250 C 504.609 1.83226 2.53766 0
M  V30 5251 C 505.084 2.87044 3.56889 0
M  V30 5252 N 506.575 2.85951 3.64398 0
M  V30 5253 C 507.31 3.62932 4.43923 0
M  V30 5254 N 506.806 4.49672 5.27036 0
M  V30 5255 N 508.599 3.51411 4.38711 0
M  V30 5256 H 500.75 1.95264 0.835805 0
M  V30 5257 H 503.013 0.845017 0.429709 0
M  V30 5258 H 502.719 2.82214 2.09876 0
M  V30 5259 H 502.593 1.64529 3.39426 0
M  V30 5260 H 504.98 0.827869 2.8325 0
M  V30 5261 H 505.061 2.03879 1.54489 0
M  V30 5262 H 504.705 3.87663 3.28145 0
M  V30 5263 H 504.635 2.63645 4.5585 0
M  V30 5264 H 507.126 2.23051 3.05052 0
M  V30 5265 H 507.439 5.05116 5.84874 0
M  V30 5266 H 505.784 4.53738 5.26447 0
M  V30 5267 H 508.975 2.83047 3.72829 0
M  V30 5268 H 509.148 4.11654 5.00445 0
M  V30 5269 N 502.554 -1.34406 0.822964 0
M  V30 5270 C 503.803 -1.97542 0.407458 0
M  V30 5271 C 504.116 -1.65973 -1.035 0
M  V30 5272 O 505.322 -2.22598 -1.55442 0
M  V30 5273 C 503.778 -3.53463 0.677623 0
M  V30 5274 C 503.386 -3.93925 2.1337 0
M  V30 5275 C 505.13 -4.23229 0.328284 0
M  V30 5276 C 503.037 -5.42759 2.34876 0
M  V30 5277 H 501.967 -0.739207 0.148623 0
M  V30 5278 H 504.618 -1.53248 1.00932 0
M  V30 5279 H 503 -3.96 0.00558965 0
M  V30 5280 H 504.174 -3.62494 2.8449 0
M  V30 5281 H 502.489 -3.37097 2.44448 0
M  V30 5282 H 505.086 -5.32659 0.466794 0
M  V30 5283 H 505.429 -4.09899 -0.727224 0
M  V30 5284 H 505.962 -3.86169 0.954896 0
M  V30 5285 H 502.701 -5.61075 3.38932 0
M  V30 5286 H 502.221 -5.75704 1.68299 0
M  V30 5287 H 503.9 -6.0944 2.17236 0
M  V30 5288 N 504.032 -0.577932 -1.46621 0
M  V30 5289 C 504.982 0.178869 -2.27297 0
M  V30 5290 C 505.966 0.866279 -1.35589 0
M  V30 5291 O 507.158 0.761163 -1.59798 0
M  V30 5292 C 504.287 1.19499 -3.2183 0
M  V30 5293 C 503.373 0.50994 -4.21023 0
M  V30 5294 N 503.764 -0.43177 -5.03954 0
M  V30 5295 C 502.062 0.761287 -4.39455 0
M  V30 5296 C 502.763 -0.831693 -5.75724 0
M  V30 5297 N 501.739 -0.181897 -5.43296 0
M  V30 5298 H 505.541 -0.544859 -2.88805 0
M  V30 5299 H 503.055 -0.399373 -1.57413 0
M  V30 5300 H 505.052 1.75131 -3.78332 0
M  V30 5301 H 503.712 1.91959 -2.61881 0
M  V30 5302 H 504.723 -0.807045 -5.11573 0
M  V30 5303 H 501.4 1.47282 -3.90659 0
M  V30 5304 H 502.79 -1.6067 -6.52407 0
M  V30 5305 N 505.51 1.54411 -0.315457 0
M  V30 5306 C 506.44 2.27002 0.547039 0
M  V30 5307 C 507.421 1.27492 1.12605 0
M  V30 5308 O 508.606 1.5629 1.15269 0
M  V30 5309 C 505.736 3.02171 1.71201 0
M  V30 5310 C 504.69 4.0895 1.26268 0
M  V30 5311 C 504.016 4.71915 2.51396 0
M  V30 5312 C 505.316 5.20891 0.383419 0
M  V30 5313 H 507.01 2.99343 -0.0584517 0
M  V30 5314 H 504.556 1.4397 -0.0295527 0
M  V30 5315 H 506.509 3.51681 2.32161 0
M  V30 5316 H 505.233 2.27433 2.34397 0
M  V30 5317 H 503.892 3.60312 0.676062 0
M  V30 5318 H 503.54 3.93801 3.12937 0
M  V30 5319 H 503.24 5.44039 2.22026 0
M  V30 5320 H 504.764 5.24195 3.13133 0
M  V30 5321 H 506.178 5.66206 0.899082 0
M  V30 5322 H 504.575 5.99821 0.182857 0
M  V30 5323 H 505.645 4.81324 -0.587821 0
M  V30 5324 N 506.988 0.0434614 1.5754 0
M  V30 5325 C 507.898 -0.94893 2.14552 0
M  V30 5326 C 508.914 -1.34707 1.10136 0
M  V30 5327 O 510.09 -1.42557 1.42266 0
M  V30 5328 C 507.155 -2.208 2.67298 0
M  V30 5329 C 506.216 -1.86893 3.86484 0
M  V30 5330 C 505.449 -3.06797 4.36705 0
M  V30 5331 O 505.672 -4.19921 3.86034 0
M  V30 5332 O 504.606 -2.8826 5.28384 0
M  V30 5333 H 508.432 -0.494099 2.99654 0
M  V30 5334 H 506.017 -0.177989 1.48336 0
M  V30 5335 H 507.899 -2.94686 3.01228 0
M  V30 5336 H 506.574 -2.65436 1.85272 0
M  V30 5337 H 505.481 -1.10347 3.57455 0
M  V30 5338 H 506.814 -1.47062 4.69716 0
M  V30 5339 N 508.466 -1.55915 -0.229846 0
M  V30 5340 C 509.715 -1.77742 -0.953455 0
M  V30 5341 C 510.028 -0.610524 -1.85828 0
M  V30 5342 O 511.234 -0.712219 -2.61992 0
M  V30 5343 C 509.69 -3.14738 -1.74551 0
M  V30 5344 C 509.298 -4.39126 -0.887242 0
M  V30 5345 C 511.042 -3.45895 -2.46084 0
M  V30 5346 C 508.949 -5.67149 -1.67617 0
M  V30 5347 H 507.879 -0.662648 -0.359741 0
M  V30 5348 H 510.53 -1.82322 -0.207576 0
M  V30 5349 H 508.912 -3.04311 -2.53399 0
M  V30 5350 H 510.086 -4.60588 -0.139892 0
M  V30 5351 H 508.401 -4.15427 -0.284443 0
M  V30 5352 H 510.998 -4.38767 -3.05594 0
M  V30 5353 H 511.341 -2.68007 -3.18556 0
M  V30 5354 H 511.874 -3.57614 -1.74233 0
M  V30 5355 H 508.613 -6.47906 -0.994881 0
M  V30 5356 H 508.133 -5.49763 -2.39836 0
M  V30 5357 H 509.812 -6.07025 -2.23898 0
M  V30 5358 N 509.944 0.496216 -1.49584 0
M  V30 5359 C 510.891 1.59722 -1.66606 0
M  V30 5360 C 511.861 1.58158 -0.507477 0
M  V30 5361 O 513.046 1.76072 -0.735076 0
M  V30 5362 C 510.186 2.97844 -1.74308 0
M  V30 5363 C 509.299 3.09388 -3.01502 0
M  V30 5364 C 508.434 4.38271 -3.00153 0
M  V30 5365 C 507.473 4.43466 -4.21906 0
M  V30 5366 N 506.61 5.63784 -4.1844 0
M  V30 5367 H 511.45 1.44515 -2.60613 0
M  V30 5368 H 508.987 0.703048 -1.29212 0
M  V30 5369 H 510.945 3.77907 -1.76754 0
M  V30 5370 H 509.575 3.11743 -0.837619 0
M  V30 5371 H 508.627 2.22357 -3.08645 0
M  V30 5372 H 509.939 3.09085 -3.91494 0
M  V30 5373 H 509.093 5.2666 -3.01188 0
M  V30 5374 H 507.832 4.41146 -2.07947 0
M  V30 5375 H 506.837 3.53478 -4.21109 0
M  V30 5376 H 508.062 4.42303 -5.1531 0
M  V30 5377 H 506.008 5.67491 -3.29074 0
M  V30 5378 H 505.925 5.65118 -5.02173 0
M  V30 5379 H 507.193 6.54367 -4.23585 0
M  V30 5380 N 511.423 1.38739 0.74761 0
M  V30 5381 C 512.355 1.32341 1.87132 0
M  V30 5382 C 513.368 0.234502 1.61102 0
M  V30 5383 O 514.557 0.492516 1.71571 0
M  V30 5384 C 511.657 1.02915 3.22896 0
M  V30 5385 C 510.83 2.22834 3.76383 0
M  V30 5386 C 509.889 1.90059 4.90677 0
M  V30 5387 O 508.915 2.62615 5.04997 0
M  V30 5388 N 510.117 0.859141 5.74107 0
M  V30 5389 H 512.882 2.29175 1.93129 0
M  V30 5390 H 510.443 1.32678 0.927805 0
M  V30 5391 H 512.435 0.79031 3.96908 0
M  V30 5392 H 511.005 0.148572 3.12247 0
M  V30 5393 H 510.225 2.62747 2.93867 0
M  V30 5394 H 511.513 3.02851 4.08851 0
M  V30 5395 H 510.911 0.257564 5.65113 0
M  V30 5396 H 509.468 0.680189 6.48241 0
M  V30 5397 N 512.901 -0.976442 1.23707 0
M  V30 5398 C 513.831 -2.08749 1.04624 0
M  V30 5399 C 514.812 -1.70057 -0.0380956 0
M  V30 5400 O 515.997 -1.93782 0.127308 0
M  V30 5401 C 513.127 -3.41335 0.640902 0
M  V30 5402 C 512.081 -3.93947 1.67302 0
M  V30 5403 C 511.407 -5.22774 1.12301 0
M  V30 5404 C 512.707 -4.22769 3.06697 0
M  V30 5405 H 514.401 -2.24972 1.97555 0
M  V30 5406 H 511.947 -1.08108 0.951247 0
M  V30 5407 H 513.9 -4.18489 0.494434 0
M  V30 5408 H 512.624 -3.24988 -0.324099 0
M  V30 5409 H 511.283 -3.18941 1.80755 0
M  V30 5410 H 510.931 -5.0278 0.148877 0
M  V30 5411 H 510.631 -5.58942 1.81267 0
M  V30 5412 H 512.155 -6.02546 0.988479 0
M  V30 5413 H 513.569 -4.90659 2.96524 0
M  V30 5414 H 511.966 -4.70147 3.72937 0
M  V30 5415 H 513.036 -3.29885 3.55392 0
M  V30 5416 N 514.379 -1.04941 -1.1758 0
M  V30 5417 C 515.327 -0.64204 -2.23563 0
M  V30 5418 C 516.321 0.335453 -1.66045 0
M  V30 5419 O 517.527 0.20179 -1.78865 0
M  V30 5420 H 513.902 -0.18944 -0.727748 0
M  V30 5421 H 515.873 -1.54609 -2.55223 0
M  V30 5422 C 514.622 -0.0301051 -3.47687 0
M  V30 5423 H 513.945 -0.773339 -3.92249 0
M  V30 5424 H 515.385 0.217592 -4.23441 0
M  V30 5425 C 513.844 1.2225 -3.13937 0
M  V30 5426 O 514.374 2.3122 -3.28482 0
M  V30 5427 N 512.58 1.11917 -2.68185 0
M  V30 5428 H 512.127 0.232403 -2.5655 0
M  V30 5429 H 512.085 1.95814 -2.45976 0
M  V30 5430 N 515.857 1.33968 -0.830081 0
M  V30 5431 C 517.273 1.51003 -0.516742 0
M  V30 5432 C 517.473 1.77286 0.957694 0
M  V30 5433 O 516.529 1.82797 1.74188 0
M  V30 5434 C 517.842 2.67036 -1.38247 0
M  V30 5435 C 519.39 2.80919 -1.38034 0
M  V30 5436 C 519.865 4.00004 -2.23071 0
M  V30 5437 N 521.356 4.07224 -2.20733 0
M  V30 5438 C 522.091 4.98541 -2.83275 0
M  V30 5439 N 521.587 5.95033 -3.54835 0
M  V30 5440 N 523.38 4.91469 -2.72791 0
M  V30 5441 H 515.531 1.15168 -1.78466 0
M  V30 5442 H 517.794 0.565443 -0.760906 0
M  V30 5443 H 517.5 2.54266 -2.42985 0
M  V30 5444 H 517.374 3.62226 -1.05225 0
M  V30 5445 H 519.761 2.93127 -0.340713 0
M  V30 5446 H 519.842 1.86517 -1.75057 0
M  V30 5447 H 519.486 3.88557 -3.27087 0
M  V30 5448 H 519.416 4.93634 -1.83394 0
M  V30 5449 H 521.907 3.38162 -1.68687 0
M  V30 5450 H 522.22 6.61357 -3.99784 0
M  V30 5451 H 520.565 5.95135 -3.58942 0
M  V30 5452 H 523.756 4.15048 -2.16456 0
M  V30 5453 H 523.929 5.62439 -3.21818 0
M  V30 5454 N 517.335 0.585699 1.46312 0
M  V30 5455 C 518.267 -0.183687 2.28463 0
M  V30 5456 C 519.28 -0.85264 1.38686 0
M  V30 5457 O 520.469 -0.721701 1.6326 0
M  V30 5458 C 517.569 -1.27977 3.13808 0
M  V30 5459 C 516.742 -0.702164 4.31727 0
M  V30 5460 C 515.801 -1.68633 4.98447 0
M  V30 5461 O 514.827 -1.22121 5.55945 0
M  V30 5462 N 516.029 -3.02047 4.95729 0
M  V30 5463 H 518.794 0.521127 2.95134 0
M  V30 5464 H 516.355 0.423673 1.56258 0
M  V30 5465 H 518.347 -1.9375 3.55307 0
M  V30 5466 H 516.917 -1.8874 2.4919 0
M  V30 5467 H 516.137 0.1331 3.93975 0
M  V30 5468 H 517.425 -0.296101 5.07938 0
M  V30 5469 H 516.823 -3.42457 4.50266 0
M  V30 5470 H 515.38 -3.63301 5.41161 0
M  V30 5471 N 518.813 -1.54241 0.323641 0
M  V30 5472 C 519.743 -2.27289 -0.534993 0
M  V30 5473 C 520.724 -1.28087 -1.11927 0
M  V30 5474 O 521.909 -1.56899 -1.14439 0
M  V30 5475 C 519.039 -3.03075 -1.69596 0
M  V30 5476 C 517.993 -4.09614 -1.24098 0
M  V30 5477 C 517.319 -4.73242 -2.4889 0
M  V30 5478 C 518.619 -5.21087 -0.355789 0
M  V30 5479 H 520.313 -2.99308 0.0743257 0
M  V30 5480 H 517.859 -1.43952 0.0371874 0
M  V30 5481 H 519.812 -3.52907 -2.30293 0
M  V30 5482 H 518.536 -2.28673 -2.33187 0
M  V30 5483 H 517.195 -3.60666 -0.656945 0
M  V30 5484 H 516.843 -3.95455 -3.10845 0
M  V30 5485 H 516.543 -5.45209 -2.19138 0
M  V30 5486 H 518.067 -5.25848 -3.10348 0
M  V30 5487 H 519.481 -5.66675 -0.869042 0
M  V30 5488 H 517.878 -5.9991 -0.151045 0
M  V30 5489 H 518.948 -4.81005 0.613339 0
M  V30 5490 N 520.291 -0.0518155 -1.57515 0
M  V30 5491 C 521.568 0.661727 -1.84067 0
M  V30 5492 C 521.948 1.88999 -0.940351 0
M  V30 5493 O 521.296 2.285 -0.00155404 0
M  V30 5494 C 521.506 1.01841 -3.3381 0
M  V30 5495 C 522.854 1.40043 -4.00841 0
M  V30 5496 O 523.878 1.11073 -3.38439 0
M  V30 5497 O 522.737 1.94111 -5.10865 0
M  V30 5498 H 519.831 0.326702 -0.759733 0
M  V30 5499 H 522.377 -0.0812277 -1.69505 0
M  V30 5500 H 521.149 0.145202 -3.91031 0
M  V30 5501 H 520.772 1.81879 -3.53562 0
M  V30 5502 N 521.769 1.56035 0.221574 0
M  V30 5503 C 522.702 1.87427 1.30178 0
M  V30 5504 C 523.68 0.731658 1.45209 0
M  V30 5505 O 524.864 0.980016 1.61022 0
M  V30 5506 C 521.991 2.08127 2.67209 0
M  V30 5507 C 521.037 3.30813 2.69194 0
M  V30 5508 S 521.87 4.86738 2.23263 0
M  V30 5509 C 523.026 5.10474 3.62171 0
M  V30 5510 H 523.259 2.78756 1.03355 0
M  V30 5511 H 520.792 1.48469 0.423813 0
M  V30 5512 H 522.75 2.20736 3.46101 0
M  V30 5513 H 521.411 1.17595 2.91256 0
M  V30 5514 H 520.604 3.42341 3.6989 0
M  V30 5515 H 520.206 3.1706 1.98366 0
M  V30 5516 H 522.498 4.9937 4.5786 0
M  V30 5517 H 523.441 6.12359 3.55558 0
M  V30 5518 H 523.849 4.38208 3.55857 0
M  V30 5519 N 523.247 -0.488276 1.49845 0
M  V30 5520 C 524.496 -1.23826 1.59217 0
M  V30 5521 C 524.809 -1.93439 0.289966 0
M  V30 5522 O 526.015 -2.70229 0.262382 0
M  V30 5523 C 524.471 -2.24902 2.80976 0
M  V30 5524 C 524.079 -1.6117 4.18005 0
M  V30 5525 C 525.823 -3.00648 2.99685 0
M  V30 5526 C 523.73 -2.60431 5.3097 0
M  V30 5527 H 522.66 -0.465858 0.592868 0
M  V30 5528 H 525.311 -0.510645 1.76252 0
M  V30 5529 H 523.693 -3.0088 2.57463 0
M  V30 5530 H 524.867 -0.910968 4.51706 0
M  V30 5531 H 523.182 -0.97767 4.0476 0
M  V30 5532 H 525.779 -3.74903 3.81251 0
M  V30 5533 H 526.122 -3.5902 2.10738 0
M  V30 5534 H 526.655 -2.31784 3.23297 0
M  V30 5535 H 523.394 -2.06823 6.22017 0
M  V30 5536 H 522.914 -3.28707 5.01709 0
M  V30 5537 H 524.593 -3.22606 5.60834 0
M  V30 5538 N 524.725 -1.39134 -0.740242 0
M  V30 5539 C 525.655 -1.40165 -1.86751 0
M  V30 5540 C 526.636 -0.265708 -1.68012 0
M  V30 5541 O 527.821 -0.47076 -1.88408 0
M  V30 5542 C 524.951 -1.2392 -3.2444 0
M  V30 5543 C 523.905 -2.34858 -3.57807 0
M  V30 5544 C 523.231 -2.03707 -4.94376 0
M  V30 5545 C 524.531 -3.77159 -3.61315 0
M  V30 5546 H 526.225 -2.345 -1.86145 0
M  V30 5547 H 523.771 -1.12875 -0.89416 0
M  V30 5548 H 525.724 -1.23263 -4.02969 0
M  V30 5549 H 524.448 -0.26051 -3.25559 0
M  V30 5550 H 523.107 -2.34723 -2.81604 0
M  V30 5551 H 522.755 -1.04289 -4.9207 0
M  V30 5552 H 522.455 -2.78016 -5.17669 0
M  V30 5553 H 523.979 -2.04691 -5.75268 0
M  V30 5554 H 525.393 -3.79252 -4.29931 0
M  V30 5555 H 523.79 -4.50784 -3.96124 0
M  V30 5556 H 524.86 -4.08513 -2.61238 0
M  V30 5557 N 526.204 0.969867 -1.24223 0
M  V30 5558 C 527.481 1.68774 -0.988664 0
M  V30 5559 C 527.861 2.05342 0.489673 0
M  V30 5560 O 527.209 1.75486 1.46345 0
M  V30 5561 C 527.419 2.92135 -1.90941 0
M  V30 5562 C 528.767 3.64422 -2.17903 0
M  V30 5563 O 529.791 3.02188 -1.88576 0
M  V30 5564 O 528.65 4.76446 -2.67697 0
M  V30 5565 H 525.744 0.737736 -0.37373 0
M  V30 5566 H 528.29 1.02415 -1.35312 0
M  V30 5567 H 527.062 2.61788 -2.90831 0
M  V30 5568 H 526.685 3.66228 -1.54798 0
M  V30 5569 N 527.682 1.05563 1.17022 0
M  V30 5570 C 528.592 0.670758 2.24807 0
M  V30 5571 C 529.608 -0.309865 1.71219 0
M  V30 5572 O 530.784 -0.161025 2.00755 0
M  V30 5573 C 527.849 0.055337 3.46656 0
M  V30 5574 C 526.91 1.08688 4.15314 0
M  V30 5575 C 526.143 0.500736 5.31346 0
M  V30 5576 O 526.366 -0.688718 5.66227 0
M  V30 5577 O 525.3 1.23683 5.89055 0
M  V30 5578 H 529.126 1.56914 2.60023 0
M  V30 5579 H 526.711 0.827428 1.24395 0
M  V30 5580 H 528.593 -0.286492 4.20425 0
M  V30 5581 H 527.268 -0.816638 3.13229 0
M  V30 5582 H 526.175 1.48077 3.43546 0
M  V30 5583 H 527.508 1.93014 4.52777 0
M  V30 5584 N 529.16 -1.33526 0.837174 0
M  V30 5585 C 530.092 -2.28077 0.226579 0
M  V30 5586 C 531.105 -1.51666 -0.591717 0
M  V30 5587 O 532.294 -1.73511 -0.419064 0
M  V30 5588 C 529.394 -3.31597 -0.69978 0
M  V30 5589 C 528.567 -4.37329 0.0788067 0
M  V30 5590 C 527.626 -5.20526 -0.770637 0
M  V30 5591 O 526.652 -5.68811 -0.210453 0
M  V30 5592 N 527.854 -5.41639 -2.08825 0
M  V30 5593 H 530.619 -2.81115 1.03897 0
M  V30 5594 H 528.18 -1.46201 0.695476 0
M  V30 5595 H 530.172 -3.84158 -1.27298 0
M  V30 5596 H 528.742 -2.78848 -1.41288 0
M  V30 5597 H 527.962 -3.8529 0.833381 0
M  V30 5598 H 529.25 -5.05079 0.614238 0
M  V30 5599 H 528.648 -5.04108 -2.56693 0
M  V30 5600 H 527.205 -5.97263 -2.60998 0
M  V30 5601 N 530.638 -0.59345 -1.46 0
M  V30 5602 C 532.054 -0.255965 -1.57534 0
M  V30 5603 C 532.254 1.24167 -1.58697 0
M  V30 5604 O 531.31 2.02398 -1.50968 0
M  V30 5605 C 532.623 -0.91466 -2.86451 0
M  V30 5606 C 534.171 -0.889253 -3.00102 0
M  V30 5607 C 534.646 -1.52769 -4.3177 0
M  V30 5608 N 536.137 -1.49253 -4.38495 0
M  V30 5609 C 536.872 -1.9558 -5.39014 0
M  V30 5610 N 536.368 -2.49929 -6.46148 0
M  V30 5611 N 538.161 -1.86432 -5.30282 0
M  V30 5612 H 530.312 -1.56604 -1.43489 0
M  V30 5613 H 532.575 -0.655207 -0.685133 0
M  V30 5614 H 532.281 -1.96861 -2.91442 0
M  V30 5615 H 532.155 -0.429356 -3.74748 0
M  V30 5616 H 534.542 0.156111 -2.94687 0
M  V30 5617 H 534.623 -1.41268 -2.13253 0
M  V30 5618 H 534.267 -2.57231 -4.37944 0
M  V30 5619 H 534.197 -0.979398 -5.17412 0
M  V30 5620 H 536.688 -1.09536 -3.61677 0
M  V30 5621 H 537.001 -2.83109 -7.19075 0
M  V30 5622 H 535.346 -2.53961 -6.46938 0
M  V30 5623 H 538.537 -1.43722 -4.4549 0
M  V30 5624 H 538.71 -2.22852 -6.08474 0
M  V30 5625 N 532.116 1.54067 -0.331816 0
M  V30 5626 C 533.532 1.59587 0.0205388 0
M  V30 5627 C 533.732 1.34813 1.49759 0
M  V30 5628 O 532.788 1.13661 2.25471 0
M  V30 5629 C 534.101 2.97959 -0.405103 0
M  V30 5630 C 535.649 3.10964 -0.356454 0
M  V30 5631 C 536.124 4.51694 -0.757384 0
M  V30 5632 N 537.615 4.57709 -0.71111 0
M  V30 5633 C 538.35 5.64729 -0.993427 0
M  V30 5634 N 537.846 6.79652 -1.3433 0
M  V30 5635 N 539.639 5.54546 -0.918442 0
M  V30 5636 H 531.79 1.68426 -1.29407 0
M  V30 5637 H 534.053 0.78819 -0.526745 0
M  V30 5638 H 533.759 3.21115 -1.43451 0
M  V30 5639 H 533.633 3.76524 0.225692 0
M  V30 5640 H 536.02 2.87538 0.663763 0
M  V30 5641 H 536.101 2.34484 -1.02229 0
M  V30 5642 H 535.745 4.75853 -1.77555 0
M  V30 5643 H 535.675 5.26555 -0.0691444 0
M  V30 5644 H 538.166 3.75176 -0.452883 0
M  V30 5645 H 538.479 7.57221 -1.54388 0
M  V30 5646 H 536.824 6.81128 -1.38164 0
M  V30 5647 H 540.015 4.63641 -0.644536 0
M  V30 5648 H 540.188 6.37861 -1.14181 0
M  V30 5649 N 533.594 0.0601682 1.57485 0
M  V30 5650 C 534.824 -0.620037 1.97076 0
M  V30 5651 C 535.232 -1.64381 0.936784 0
M  V30 5652 O 534.575 -1.83497 -0.0863377 0
M  V30 5653 C 534.637 -1.35617 3.32939 0
M  V30 5654 C 534.301 -0.487208 4.54396 0
M  V30 5655 C 535.298 0.250428 5.19297 0
M  V30 5656 C 532.983 -0.415494 5.00579 0
M  V30 5657 C 534.977 1.04812 6.28723 0
M  V30 5658 C 532.664 0.385879 6.0988 0
M  V30 5659 C 533.662 1.11637 6.73815 0
M  V30 5660 O 533.35 1.90454 7.81014 0
M  V30 5661 H 533.082 -0.173664 0.653312 0
M  V30 5662 H 535.636 0.1256 2.05016 0
M  V30 5663 H 533.866 -2.14763 3.2158 0
M  V30 5664 H 535.555 -1.92749 3.57215 0
M  V30 5665 H 536.321 0.204546 4.84568 0
M  V30 5666 H 532.2 -0.973679 4.506 0
M  V30 5667 H 535.744 1.6188 6.78558 0
M  V30 5668 H 531.641 0.433366 6.44044 0
M  V30 5669 H 532.409 1.82762 7.97835 0
M  V30 5670 N 535.072 -1.5615 -0.213296 0
M  V30 5671 C 536.318 -1.79812 -0.937849 0
M  V30 5672 C 536.651 -0.631201 -1.83656 0
M  V30 5673 O 535.926 0.369165 -1.90964 0
M  V30 5674 C 536.209 -3.13613 -1.76972 0
M  V30 5675 C 536.062 -4.40766 -0.89695 0
M  V30 5676 C 537.381 -3.43931 -2.7459 0
M  V30 5677 H 534.5 -0.654138 -0.339518 0
M  V30 5678 H 537.142 -1.88877 -0.20623 0
M  V30 5679 H 535.292 -3.06015 -2.39347 0
M  V30 5680 H 536.964 -4.60392 -0.289306 0
M  V30 5681 H 535.207 -4.33326 -0.202756 0
M  V30 5682 H 535.878 -5.30843 -1.51358 0
M  V30 5683 H 538.354 -3.5171 -2.22349 0
M  V30 5684 H 537.23 -4.38706 -3.29891 0
M  V30 5685 H 537.491 -2.6651 -3.52739 0
M  V30 5686 N 536.55 0.480323 -1.50102 0
M  V30 5687 C 537.775 1.26126 -1.64642 0
M  V30 5688 C 538.2 1.85257 -0.325823 0
M  V30 5689 O 537.558 1.66854 0.709194 0
M  V30 5690 C 537.606 2.35243 -2.73301 0
M  V30 5691 O 536.71 3.39646 -2.33911 0
M  V30 5692 H 536.051 0.371463 -0.550374 0
M  V30 5693 H 538.581 0.572696 -1.96421 0
M  V30 5694 H 538.591 2.80695 -2.96098 0
M  V30 5695 H 537.266 1.91574 -3.6915 0
M  V30 5696 H 535.843 2.99969 -2.21525 0
M  V30 5697 N 538.028 1.39524 0.732853 0
M  V30 5698 C 539.253 1.40329 1.52717 0
M  V30 5699 C 539.678 0.000286574 1.881 0
M  V30 5700 O 539.036 -0.987262 1.52062 0
M  V30 5701 C 539.084 2.28464 2.78992 0
M  V30 5702 O 538.188 1.716 3.75003 0
M  V30 5703 H 537.529 0.47778 0.461109 0
M  V30 5704 H 540.059 1.83546 0.903996 0
M  V30 5705 H 540.069 2.43051 3.27705 0
M  V30 5706 H 538.744 3.30425 2.52572 0
M  V30 5707 H 537.321 1.66267 3.33781 0
M  V30 5708 N 539.506 -0.963266 1.24736 0
M  V30 5709 C 540.436 -2.07628 1.06832 0
M  V30 5710 C 541.417 -1.70088 -0.0200566 0
M  V30 5711 O 542.602 -1.93636 0.147854 0
M  V30 5712 C 539.732 -3.40636 0.677069 0
M  V30 5713 C 538.686 -3.9215 1.71471 0
M  V30 5714 C 538.012 -5.21553 1.1784 0
M  V30 5715 C 539.312 -4.19493 3.11164 0
M  V30 5716 H 541.006 -2.22864 1.9993 0
M  V30 5717 H 538.552 -1.07093 0.96266 0
M  V30 5718 H 540.505 -4.17941 0.538792 0
M  V30 5719 H 539.229 -3.25313 -0.289612 0
M  V30 5720 H 537.888 -3.17005 1.84128 0
M  V30 5721 H 537.536 -5.02593 0.202195 0
M  V30 5722 H 537.236 -5.56988 1.87185 0
M  V30 5723 H 538.76 -6.01463 1.05233 0
M  V30 5724 H 540.174 -4.87487 3.01711 0
M  V30 5725 H 538.571 -4.66165 3.77902 0
M  V30 5726 H 539.641 -3.26097 3.58871 0
M  V30 5727 N 540.985 -1.06182 -1.16461 0
M  V30 5728 C 542.213 -0.798583 -1.90867 0
M  V30 5729 C 542.628 0.646921 -1.77371 0
M  V30 5730 O 541.985 1.44279 -1.11758 0
M  V30 5731 C 542.036 -1.18258 -3.4161 0
M  V30 5732 O 541.757 -2.57135 -3.54701 0
M  V30 5733 C 543.258 -0.946917 -4.33069 0
M  V30 5734 H 540.478 -0.289603 -0.605286 0
M  V30 5735 H 543.022 -1.41515 -1.47627 0
M  V30 5736 H 541.177 -0.610562 -3.82558 0
M  V30 5737 H 541.591 -2.72477 -4.4817 0
M  V30 5738 H 543.065 -1.26523 -5.37304 0
M  V30 5739 H 543.542 0.117406 -4.39043 0
M  V30 5740 H 544.148 -1.50326 -3.97847 0
M  V30 5741 N 542.463 1.3308 -0.844243 0
M  V30 5742 C 543.373 2.32876 -0.283922 0
M  V30 5743 C 544.389 1.63589 0.592846 0
M  V30 5744 O 545.565 1.95205 0.495693 0
M  V30 5745 C 542.63 3.42667 0.527283 0
M  V30 5746 C 541.691 4.27664 -0.374394 0
M  V30 5747 C 540.924 5.32212 0.39819 0
M  V30 5748 O 541.147 5.46635 1.62932 0
M  V30 5749 O 540.081 6.01458 -0.2306 0
M  V30 5750 H 543.907 2.82671 -1.11045 0
M  V30 5751 H 541.492 1.36518 -0.606903 0
M  V30 5752 H 543.374 4.09652 0.988078 0
M  V30 5753 H 542.049 2.95079 1.33078 0
M  V30 5754 H 540.956 3.63526 -0.883144 0
M  V30 5755 H 542.289 4.78749 -1.1428 0
M  V30 5756 N 543.941 0.601185 1.45683 0
M  V30 5757 C 544.851 -0.123395 2.34275 0
M  V30 5758 C 545.867 -0.86702 1.5086 0
M  V30 5759 O 547.043 -0.826049 1.8368 0
M  V30 5760 C 544.108 -1.11237 3.2837 0
M  V30 5761 C 543.169 -0.371405 4.2769 0
M  V30 5762 C 542.402 -1.31327 5.1729 0
M  V30 5763 O 542.625 -2.55078 5.10188 0
M  V30 5764 O 541.559 -0.813811 5.96373 0
M  V30 5765 H 545.385 0.604483 2.97623 0
M  V30 5766 H 542.97 0.361477 1.44961 0
M  V30 5767 H 544.852 -1.68214 3.8637 0
M  V30 5768 H 543.527 -1.82139 2.67595 0
M  V30 5769 H 542.434 0.24067 3.73325 0
M  V30 5770 H 543.767 0.296998 4.91303 0
M  V30 5771 N 545.419 -1.53889 0.339982 0
M  V30 5772 C 546.668 -2.00035 -0.258604 0
M  V30 5773 C 546.981 -1.23179 -1.51942 0
M  V30 5774 O 548.187 -1.59784 -2.19503 0
M  V30 5775 C 546.643 -3.56249 -0.511359 0
M  V30 5776 C 546.251 -4.41957 0.733349 0
M  V30 5777 C 547.995 -4.1082 -1.069 0
M  V30 5778 C 545.902 -5.89673 0.451591 0
M  V30 5779 H 544.832 -0.747284 -0.10041 0
M  V30 5780 H 547.483 -1.77776 0.454758 0
M  V30 5781 H 545.865 -3.7456 -1.28533 0
M  V30 5782 H 547.039 -4.35421 1.50815 0
M  V30 5783 H 545.354 -3.9836 1.21237 0
M  V30 5784 H 547.951 -5.18789 -1.2947 0
M  V30 5785 H 548.294 -3.63817 -2.02343 0
M  V30 5786 H 548.827 -3.96205 -0.355817 0
M  V30 5787 H 545.566 -6.40903 1.37565 0
M  V30 5788 H 545.086 -5.99122 -0.285193 0
M  V30 5789 H 546.765 -6.46965 0.0675067 0
M  V30 5790 N 546.897 -0.0685191 -1.57451 0
M  V30 5791 C 548.122 0.613919 -1.98106 0
M  V30 5792 C 548.547 1.62551 -0.946501 0
M  V30 5793 O 547.905 1.81085 0.0882824 0
M  V30 5794 C 547.953 1.26189 -3.378 0
M  V30 5795 O 547.057 2.37773 -3.36954 0
M  V30 5796 H 546.398 0.158163 -0.644888 0
M  V30 5797 H 548.928 -0.142063 -2.04106 0
M  V30 5798 H 548.938 1.60951 -3.74912 0
M  V30 5799 H 547.613 0.520625 -4.12629 0
M  V30 5800 H 546.19 2.04829 -3.11608 0
M  V30 5801 N 548.375 1.56261 0.205012 0
M  V30 5802 C 549.322 1.93754 1.25411 0
M  V30 5803 C 550.292 0.796826 1.45739 0
M  V30 5804 O 551.477 1.05414 1.59036 0
M  V30 5805 C 548.617 2.27383 2.59598 0
M  V30 5806 C 547.73 3.5447 2.46931 0
M  V30 5807 C 546.865 3.77468 3.73753 0
M  V30 5808 C 545.904 4.98014 3.55877 0
M  V30 5809 N 545.041 5.17316 4.74688 0
M  V30 5810 H 549.881 2.83203 0.92737 0
M  V30 5811 H 547.418 1.40158 0.446574 0
M  V30 5812 H 549.376 2.44895 3.37761 0
M  V30 5813 H 548.006 1.41088 2.90335 0
M  V30 5814 H 547.058 3.45061 1.60116 0
M  V30 5815 H 548.37 4.42789 2.29651 0
M  V30 5816 H 547.524 3.95165 4.60358 0
M  V30 5817 H 546.263 2.87461 3.93976 0
M  V30 5818 H 545.268 4.80249 2.67657 0
M  V30 5819 H 546.493 5.8952 3.37109 0
M  V30 5820 H 544.439 4.30255 4.95194 0
M  V30 5821 H 544.356 5.99796 4.60197 0
M  V30 5822 H 545.624 5.39463 5.62672 0
M  V30 5823 N 549.853 -0.472356 1.50355 0
M  V30 5824 C 551.269 -0.806001 1.37753 0
M  V30 5825 C 551.469 -1.968 0.432649 0
M  V30 5826 O 550.525 -2.52189 -0.12519 0
M  V30 5827 C 551.838 -1.11926 2.79093 0
M  V30 5828 C 553.386 -1.22579 2.87999 0
M  V30 5829 C 553.861 -1.57218 4.3017 0
M  V30 5830 N 555.352 -1.64212 4.33115 0
M  V30 5831 C 556.087 -1.92517 5.40116 0
M  V30 5832 N 555.583 -2.1885 6.57325 0
M  V30 5833 N 557.376 -1.94008 5.27558 0
M  V30 5834 H 549.527 0.293451 2.10363 0
M  V30 5835 H 551.79 0.0687672 0.945503 0
M  V30 5836 H 551.496 -0.338504 3.50067 0
M  V30 5837 H 551.37 -2.05577 3.16256 0
M  V30 5838 H 553.757 -1.99722 2.17245 0
M  V30 5839 H 553.838 -0.269107 2.54381 0
M  V30 5840 H 553.482 -0.806154 5.01461 0
M  V30 5841 H 553.412 -2.54034 4.61275 0
M  V30 5842 H 555.903 -1.45906 3.48597 0
M  V30 5843 H 556.216 -2.39718 7.3468 0
M  V30 5844 H 554.561 -2.16245 6.60502 0
M  V30 5845 H 557.752 -1.72931 4.34986 0
M  V30 5846 H 557.925 -2.15731 6.11035 0
M  V30 5847 N 551.331 -1.39911 -0.725443 0
M  V30 5848 C 552.579 -1.37382 -1.48224 0
M  V30 5849 C 552.9 0.0264107 -1.94982 0
M  V30 5850 O 552.17 0.979408 -1.6966 0
M  V30 5851 H 550.75 -0.505596 -0.549892 0
M  V30 5852 H 553.412 -1.7487 -0.860608 0
M  V30 5853 H 552.508 -2.04254 -2.3598 0
M  V30 5854 N 552.809 0.956637 -1.25245 0
M  V30 5855 C 553.772 2.03457 -1.05537 0
M  V30 5856 C 554.772 1.60798 -0.00886317 0
M  V30 5857 O 555.962 1.72384 -0.250865 0
M  V30 5858 C 553.094 3.35543 -0.601965 0
M  V30 5859 H 554.287 2.22372 -2.01223 0
M  V30 5860 H 551.84 1.13344 -1.07623 0
M  V30 5861 H 552.575 3.22323 0.357584 0
M  V30 5862 H 552.36 3.67854 -1.35743 0
M  V30 5863 H 553.85 4.14769 -0.485454 0
M  V30 5864 N 554.287 1.06798 1.15896 0
M  V30 5865 C 555.535 0.786211 1.8618 0
M  V30 5866 C 555.856 -0.689547 1.82401 0
M  V30 5867 O 555.126 -1.49913 1.26107 0
M  V30 5868 H 553.706 0.287843 0.689315 0
M  V30 5869 H 556.368 1.35055 1.40521 0
M  V30 5870 H 555.464 1.1157 2.91477 0
M  V30 5871 N 555.766 -1.3263 0.851289 0
M  V30 5872 C 556.699 -2.26952 0.238318 0
M  V30 5873 C 557.677 -1.50243 -0.621757 0
M  V30 5874 O 558.861 -1.79378 -0.579298 0
M  V30 5875 C 555.988 -3.32124 -0.664178 0
M  V30 5876 C 555.034 -4.26325 0.122067 0
M  V30 5877 S 555.867 -5.14404 1.48824 0
M  V30 5878 C 557.023 -6.231 0.591372 0
M  V30 5879 H 557.256 -2.78594 1.03791 0
M  V30 5880 H 554.789 -1.4011 0.648731 0
M  V30 5881 H 556.747 -3.93197 -1.17924 0
M  V30 5882 H 555.408 -2.79273 -1.43755 0
M  V30 5883 H 554.601 -5.00821 -0.565181 0
M  V30 5884 H 554.203 -3.69652 0.568602 0
M  V30 5885 H 556.495 -6.77187 -0.205762 0
M  V30 5886 H 557.438 -6.95936 1.30687 0
M  V30 5887 H 557.846 -5.64252 0.167206 0
M  V30 5888 N 557.244 -0.608902 -1.45362 0
M  V30 5889 C 558.655 -0.189511 -1.85736 0
M  V30 5890 C 559.006 1.2539 -1.50903 0
M  V30 5891 O 558.131 1.95094 -0.936347 0
M  V30 5892 C 558.726 -0.33716 -3.37118 0
M  V30 5893 C 557.285 0.0275487 -3.7639 0
M  V30 5894 C 556.432 -0.660983 -2.69307 0
M  V30 5895 H 559.383 -0.815499 -1.36144 0
M  V30 5896 H 559.404 0.430257 -3.7806 0
M  V30 5897 H 558.916 -1.38779 -3.62439 0
M  V30 5898 H 557.017 1.0773 -3.56686 0
M  V30 5899 H 557.13 -0.367018 -4.77692 0
M  V30 5900 H 555.494 -0.0984958 -2.54509 0
M  V30 5901 H 556.277 -1.71377 -2.97464 0
M  V30 5902 N 558.722 1.53707 -0.348139 0
M  V30 5903 C 559.97 2.00591 0.246478 0
M  V30 5904 C 560.291 1.23753 1.50699 0
M  V30 5905 O 559.561 0.345964 1.92821 0
M  V30 5906 H 558.141 0.741053 0.0940679 0
M  V30 5907 H 560.803 1.89139 -0.470354 0
M  V30 5908 H 559.899 3.08297 0.485714 0
M  V30 5909 N 560.2 0.0768682 1.57412 0
M  V30 5910 C 561.132 -0.918248 2.10002 0
M  V30 5911 C 562.145 -1.25808 1.03325 0
M  V30 5912 O 563.334 -1.21438 1.30824 0
M  V30 5913 C 560.434 -2.23263 2.54964 0
M  V30 5914 C 559.607 -2.07088 3.8527 0
M  V30 5915 C 558.666 -3.21876 4.16272 0
M  V30 5916 O 557.692 -2.96643 4.8579 0
M  V30 5917 N 558.894 -4.4712 3.70221 0
M  V30 5918 H 561.659 -0.469209 2.96004 0
M  V30 5919 H 559.22 -0.108725 1.61535 0
M  V30 5920 H 561.212 -2.9897 2.72762 0
M  V30 5921 H 559.782 -2.59649 1.74072 0
M  V30 5922 H 559.002 -1.15818 3.76802 0
M  V30 5923 H 560.29 -1.93537 4.70554 0
M  V30 5924 H 559.688 -4.70506 3.1407 0
M  V30 5925 H 558.245 -5.19837 3.93209 0
M  V30 5926 N 561.678 -1.56367 -0.196722 0
M  V30 5927 C 562.628 -1.9082 -1.24787 0
M  V30 5928 C 563.612 -0.773719 -1.41076 0
M  V30 5929 O 564.804 -1.03655 -1.43474 0
M  V30 5930 C 561.933 -2.24982 -2.59303 0
M  V30 5931 C 561.019 -3.44882 -2.46814 0
M  V30 5932 N 561.41 -4.62835 -2.04003 0
M  V30 5933 C 559.708 -3.48988 -2.77711 0
M  V30 5934 C 560.409 -5.44993 -2.03366 0
M  V30 5935 N 559.385 -4.85356 -2.44807 0
M  V30 5936 H 563.187 -2.79516 -0.908175 0
M  V30 5937 H 560.701 -1.57265 -0.405166 0
M  V30 5938 H 562.698 -2.47848 -3.35227 0
M  V30 5939 H 561.358 -1.37611 -2.94098 0
M  V30 5940 H 562.369 -4.87532 -1.74738 0
M  V30 5941 H 559.046 -2.72029 -3.16712 0
M  V30 5942 H 560.436 -6.49464 -1.72181 0
M  V30 5943 N 563.156 0.464375 -1.50603 0
M  V30 5944 C 564.404 1.21356 -1.61608 0
M  V30 5945 C 564.725 1.92329 -0.321643 0
M  V30 5946 O 563.995 1.84403 0.661232 0
M  V30 5947 H 562.575 0.45094 -0.595535 0
M  V30 5948 H 565.237 0.535046 -1.87412 0
M  V30 5949 H 564.333 1.95783 -2.43054 0
M  V30 5950 N 564.634 1.40294 0.718013 0
M  V30 5951 C 565.566 1.36281 1.84283 0
M  V30 5952 C 566.579 0.268621 1.60569 0
M  V30 5953 O 567.768 0.528798 1.70487 0
M  V30 5954 C 564.868 1.09741 3.2064 0
M  V30 5955 C 564.041 2.30767 3.71571 0
M  V30 5956 C 563.1 2.00424 4.86535 0
M  V30 5957 O 562.126 2.73268 4.99313 0
M  V30 5958 N 563.328 0.980724 5.72156 0
M  V30 5959 H 566.093 2.3322 1.88225 0
M  V30 5960 H 563.654 1.34616 0.899453 0
M  V30 5961 H 565.646 0.874322 3.95143 0
M  V30 5962 H 564.216 0.214771 3.11861 0
M  V30 5963 H 563.436 2.68921 2.88228 0
M  V30 5964 H 564.724 3.11455 4.02335 0
M  V30 5965 H 564.122 0.377375 5.6444 0
M  V30 5966 H 562.679 0.817538 6.46653 0
M  V30 5967 N 566.112 -0.949982 1.2575 0
M  V30 5968 C 567.361 -1.68956 1.10168 0
M  V30 5969 C 567.674 -1.92327 -0.356309 0
M  V30 5970 O 568.88 -2.64026 -0.632657 0
M  V30 5971 C 567.336 -3.04196 1.92336 0
M  V30 5972 C 566.944 -2.88603 3.42655 0
M  V30 5973 C 568.688 -3.81904 1.85336 0
M  V30 5974 C 566.595 -4.19262 4.17101 0
M  V30 5975 H 565.525 -0.633645 0.408668 0
M  V30 5976 H 568.176 -1.05719 1.49986 0
M  V30 5977 H 566.558 -3.68363 1.45344 0
M  V30 5978 H 567.732 -2.3334 3.97353 0
M  V30 5979 H 566.047 -2.24345 3.50796 0
M  V30 5980 H 568.644 -4.78688 2.38248 0
M  V30 5981 H 568.987 -4.08099 0.822226 0
M  V30 5982 H 569.52 -3.24495 2.30104 0
M  V30 5983 H 566.259 -3.98254 5.20648 0
M  V30 5984 H 565.779 -4.74273 3.67186 0
M  V30 5985 H 567.458 -4.87775 4.25071 0
M  V30 5986 N 567.59 -1.07411 -1.15328 0
M  V30 5987 C 568.818 -0.818782 -1.90009 0
M  V30 5988 C 569.233 0.628072 -1.78047 0
M  V30 5989 O 568.59 1.43085 -1.13282 0
M  V30 5990 C 568.641 -1.21874 -3.40337 0
M  V30 5991 O 568.362 -2.60883 -3.51954 0
M  V30 5992 C 569.863 -0.992796 -4.3204 0
M  V30 5993 H 567.083 -0.296007 -0.60218 0
M  V30 5994 H 569.627 -1.43073 -1.46117 0
M  V30 5995 H 567.782 -0.651103 -3.81889 0
M  V30 5996 H 568.196 -2.77216 -4.45255 0
M  V30 5997 H 569.67 -1.32215 -5.35932 0
M  V30 5998 H 570.147 0.0708331 -4.39143 0
M  V30 5999 H 570.753 -1.54537 -3.9623 0
M  V30 6000 N 569.068 1.32177 -0.85831 0
M  V30 6001 C 570 2.27688 -0.262835 0
M  V30 6002 C 571.013 1.52588 0.567513 0
M  V30 6003 O 572.202 1.74156 0.391407 0
M  V30 6004 C 569.302 3.32668 0.646937 0
M  V30 6005 C 568.475 4.37148 -0.148372 0
M  V30 6006 C 567.534 5.21686 0.687728 0
M  V30 6007 O 566.56 5.69074 0.119934 0
M  V30 6008 N 567.762 5.44892 2.00182 0
M  V30 6009 H 570.527 2.79426 -1.08356 0
M  V30 6010 H 568.088 1.45076 -0.718647 0
M  V30 6011 H 570.08 3.86134 1.2117 0
M  V30 6012 H 568.65 2.81061 1.36834 0
M  V30 6013 H 567.87 3.83915 -0.894572 0
M  V30 6014 H 569.158 5.04038 -0.694514 0
M  V30 6015 H 568.556 5.08128 2.4864 0
M  V30 6016 H 567.113 6.0134 2.51463 0
M  V30 6017 N 570.547 0.616602 1.45037 0
M  V30 6018 C 571.479 -0.135186 2.28801 0
M  V30 6019 C 572.492 -0.82303 1.40464 0
M  V30 6020 O 573.681 -0.686909 1.64754 0
M  V30 6021 C 570.781 -1.21292 3.16451 0
M  V30 6022 C 569.954 -0.61043 4.3312 0
M  V30 6023 C 569.013 -1.58022 5.01912 0
M  V30 6024 O 568.039 -1.10301 5.58411 0
M  V30 6025 N 569.241 -2.91464 5.02025 0
M  V30 6026 H 572.006 0.583612 2.93963 0
M  V30 6027 H 569.567 0.456723 1.55324 0
M  V30 6028 H 571.559 -1.86169 3.59337 0
M  V30 6029 H 570.129 -1.83412 2.53138 0
M  V30 6030 H 569.349 0.216638 3.93604 0
M  V30 6031 H 570.637 -0.188293 5.08451 0
M  V30 6032 H 570.035 -3.32829 4.57429 0
M  V30 6033 H 568.592 -3.51741 5.48745 0
M  V30 6034 N 572.025 -1.5352 0.356285 0
M  V30 6035 C 572.935 -2.29151 -0.502712 0
M  V30 6036 C 573.951 -1.34753 -1.1008 0
M  V30 6037 O 575.127 -1.67803 -1.11374 0
M  V30 6038 C 572.192 -3.05911 -1.63154 0
M  V30 6039 C 571.253 -4.15958 -1.06194 0
M  V30 6040 C 570.486 -4.8905 -2.13696 0
M  V30 6041 O 570.709 -4.61919 -3.34645 0
M  V30 6042 O 569.643 -5.75202 -1.77275 0
M  V30 6043 H 573.469 -3.03492 0.112466 0
M  V30 6044 H 571.054 -1.4891 0.120942 0
M  V30 6045 H 572.936 -3.53874 -2.28804 0
M  V30 6046 H 571.611 -2.34415 -2.23229 0
M  V30 6047 H 570.518 -3.7227 -0.369603 0
M  V30 6048 H 571.851 -4.89593 -0.505872 0
M  V30 6049 N 573.503 -0.0852151 -1.57369 0
M  V30 6050 C 574.433 0.874556 -2.16503 0
M  V30 6051 C 575.414 1.30111 -1.09568 0
M  V30 6052 O 576.599 1.36977 -1.37662 0
M  V30 6053 C 573.729 2.13731 -2.73745 0
M  V30 6054 C 572.683 1.84971 -3.85966 0
M  V30 6055 C 572.009 3.17991 -4.29867 0
M  V30 6056 C 573.309 1.14442 -5.09608 0
M  V30 6057 H 575.003 0.381899 -2.96954 0
M  V30 6058 H 572.549 0.18225 -1.42842 0
M  V30 6059 H 574.502 2.81302 -3.13763 0
M  V30 6060 H 573.226 2.65263 -1.90534 0
M  V30 6061 H 571.885 1.19801 -3.46473 0
M  V30 6062 H 571.533 3.6739 -3.4356 0
M  V30 6063 H 571.233 2.99534 -5.05523 0
M  V30 6064 H 572.757 3.86737 -4.72511 0
M  V30 6065 H 574.171 1.72105 -5.46857 0
M  V30 6066 H 572.568 1.06197 -5.90629 0
M  V30 6067 H 573.638 0.12559 -4.84737 0
M  V30 6068 N 574.981 1.5647 0.188427 0
M  V30 6069 C 576.258 1.71857 0.934058 0
M  V30 6070 C 576.638 0.641867 2.01105 0
M  V30 6071 O 575.986 -0.346098 2.25864 0
M  V30 6072 C 576.196 3.14431 1.5144 0
M  V30 6073 C 577.544 3.74869 1.99396 0
M  V30 6074 O 578.568 3.17601 1.61269 0
M  V30 6075 O 577.427 4.75387 2.69573 0
M  V30 6076 H 574.521 0.701186 0.438483 0
M  V30 6077 H 577.067 1.68768 0.177599 0
M  V30 6078 H 575.839 3.8427 0.738416 0
M  V30 6079 H 575.462 3.21775 2.33552 0
M  V30 6080 N 576.459 -0.456382 1.50847 0
M  V30 6081 C 577.687 -1.23026 1.66349 0
M  V30 6082 C 578.102 -1.85473 0.352868 0
M  V30 6083 O 577.459 -1.69885 -0.666739 0
M  V30 6084 C 577.51 -2.32827 2.76539 0
M  V30 6085 O 577.231 -1.72938 4.02522 0
M  V30 6086 C 578.732 -3.23448 3.03144 0
M  V30 6087 H 575.952 -0.371527 0.558756 0
M  V30 6088 H 578.496 -0.543082 1.97157 0
M  V30 6089 H 576.651 -2.97294 2.48384 0
M  V30 6090 H 577.065 -2.45357 4.63573 0
M  V30 6091 H 578.539 -3.96669 3.83872 0
M  V30 6092 H 579.016 -3.83094 2.14793 0
M  V30 6093 H 579.622 -2.64702 3.32886 0
M  V30 6094 N 577.937 -1.40673 -0.710563 0
M  V30 6095 C 579.183 -1.39428 -1.47267 0
M  V30 6096 C 579.516 0.00182129 -1.942 0
M  V30 6097 O 578.791 0.971387 -1.68506 0
M  V30 6098 C 579.074 -2.38812 -2.6952 0
M  V30 6099 C 578.927 -3.87467 -2.28449 0
M  V30 6100 C 580.246 -2.3566 -3.71689 0
M  V30 6101 H 577.365 -0.507768 -0.534173 0
M  V30 6102 H 580.007 -1.71843 -0.810547 0
M  V30 6103 H 578.157 -2.113 -3.26013 0
M  V30 6104 H 579.829 -4.25825 -1.77399 0
M  V30 6105 H 578.072 -4.03058 -1.60395 0
M  V30 6106 H 578.743 -4.5253 -3.16103 0
M  V30 6107 H 581.219 -2.6004 -3.24836 0
M  V30 6108 H 580.095 -3.07237 -4.54859 0
M  V30 6109 H 580.356 -1.36996 -4.20339 0
M  V30 6110 N 579.415 0.9433 -1.26252 0
M  V30 6111 C 580.661 1.69175 -1.11837 0
M  V30 6112 C 580.994 1.91238 0.337891 0
M  V30 6113 O 580.269 1.49152 1.24836 0
M  V30 6114 C 580.552 3.06783 -1.88563 0
M  V30 6115 C 580.405 2.9206 -3.42083 0
M  V30 6116 C 581.724 4.06865 -1.67776 0
M  V30 6117 H 578.843 0.61399 -0.407658 0
M  V30 6118 H 581.485 1.09572 -1.55222 0
M  V30 6119 H 579.635 3.57663 -1.51689 0
M  V30 6120 H 581.307 2.48419 -3.88698 0
M  V30 6121 H 579.55 2.27731 -3.69217 0
M  V30 6122 H 580.221 3.89651 -3.90994 0
M  V30 6123 H 582.697 3.64939 -1.99897 0
M  V30 6124 H 581.573 5.01168 -2.23879 0
M  V30 6125 H 581.834 4.37705 -0.621816 0
M  V30 6126 N 580.893 1.08022 1.14757 0
M  V30 6127 C 581.84 0.706657 2.19716 0
M  V30 6128 C 582.81 -0.30525 1.63271 0
M  V30 6129 O 583.995 -0.19015 1.8985 0
M  V30 6130 C 581.135 0.117914 3.44898 0
M  V30 6131 C 580.248 1.18212 4.15512 0
M  V30 6132 C 579.383 0.557659 5.28265 0
M  V30 6133 C 578.422 1.60418 5.90705 0
M  V30 6134 N 577.559 1.0018 6.94916 0
M  V30 6135 H 582.399 1.60603 2.51019 0
M  V30 6136 H 579.936 0.802664 1.23271 0
M  V30 6137 H 581.894 -0.241112 4.16503 0
M  V30 6138 H 580.524 -0.744788 3.1409 0
M  V30 6139 H 579.576 1.65863 3.42335 0
M  V30 6140 H 580.888 1.97533 4.5802 0
M  V30 6141 H 580.042 0.146654 6.06523 0
M  V30 6142 H 578.781 -0.267249 4.86967 0
M  V30 6143 H 577.786 2.02489 5.11154 0
M  V30 6144 H 579.011 2.43149 6.34078 0
M  V30 6145 H 576.957 0.197917 6.55701 0
M  V30 6146 H 576.874 1.73216 7.35889 0
M  V30 6147 H 578.142 0.616523 7.77058 0
M  V30 6148 N 582.371 -1.3172 0.865308 0
M  V30 6149 C 583.599 -2.01057 0.488251 0
M  V30 6150 C 584.014 -1.64979 -0.918 0
M  V30 6151 O 583.371 -0.876597 -1.60069 0
M  V30 6152 C 583.422 -3.55964 0.630224 0
M  V30 6153 O 583.143 -3.90749 1.98109 0
M  V30 6154 C 584.644 -4.42574 0.253567 0
M  V30 6155 H 581.864 -0.64332 0.190736 0
M  V30 6156 H 584.408 -1.68058 1.16519 0
M  V30 6157 H 582.563 -3.874 0.000895422 0
M  V30 6158 H 582.977 -4.85467 1.9855 0
M  V30 6159 H 584.451 -5.50521 0.403875 0
M  V30 6160 H 584.928 -4.31724 -0.806895 0
M  V30 6161 H 585.534 -4.16547 0.858404 0
M  V30 6162 N 583.85 -0.624285 -1.44708 0
M  V30 6163 C 584.782 0.12305 -2.28869 0
M  V30 6164 C 585.795 0.81557 -1.40898 0
M  V30 6165 O 586.984 0.678162 -1.65116 0
M  V30 6166 C 584.084 1.19612 -3.1709 0
M  V30 6167 C 583.257 0.587452 -4.33437 0
M  V30 6168 C 582.316 1.55358 -5.02743 0
M  V30 6169 O 581.341 1.07338 -5.58988 0
M  V30 6170 N 582.543 2.88798 -5.03563 0
M  V30 6171 H 585.308 -0.599193 -2.93649 0
M  V30 6172 H 582.87 -0.464954 -1.5508 0
M  V30 6173 H 584.861 1.84261 -3.60319 0
M  V30 6174 H 583.432 1.82067 -2.54107 0
M  V30 6175 H 582.652 -0.237509 -3.93484 0
M  V30 6176 H 583.94 0.161326 -5.08544 0
M  V30 6177 H 583.338 3.30399 -4.59188 0
M  V30 6178 H 581.894 3.48826 -5.50603 0
M  V30 6179 N 585.328 1.53329 -0.364422 0
M  V30 6180 C 586.278 2.22472 0.499024 0
M  V30 6181 C 587.262 1.21952 1.0496 0
M  V30 6182 O 588.454 1.47405 0.979836 0
M  V30 6183 C 585.583 3.01659 1.6388 0
M  V30 6184 C 584.669 4.09555 1.10116 0
M  V30 6185 N 585.06 5.04988 0.286414 0
M  V30 6186 C 583.358 4.2424 1.37608 0
M  V30 6187 C 584.059 5.81699 -0.00781682 0
M  V30 6188 N 583.035 5.40394 0.589494 0
M  V30 6189 H 586.837 2.93611 -0.130284 0
M  V30 6190 H 584.351 1.61483 -0.172377 0
M  V30 6191 H 586.348 3.4971 2.26954 0
M  V30 6192 H 585.008 2.32051 2.27118 0
M  V30 6193 H 586.019 5.17847 -0.0742839 0
M  V30 6194 H 582.696 3.65858 2.01133 0
M  V30 6195 H 584.086 6.68587 -0.666394 0
M  V30 6196 N 586.806 0.0935595 1.57322 0
M  V30 6197 C 587.716 -0.880192 2.17462 0
M  V30 6198 C 588.732 -1.31135 1.14366 0
M  V30 6199 O 589.908 -1.37958 1.46729 0
M  V30 6200 C 586.973 -2.12184 2.74188 0
M  V30 6201 C 586.034 -1.74503 3.92234 0
M  V30 6202 C 585.267 -2.92748 4.46245 0
M  V30 6203 O 585.49 -4.07427 3.99198 0
M  V30 6204 O 584.424 -2.71303 5.37288 0
M  V30 6205 H 588.25 -0.398516 3.01074 0
M  V30 6206 H 585.835 -0.130707 1.48827 0
M  V30 6207 H 587.717 -2.84953 3.10451 0
M  V30 6208 H 586.392 -2.59407 1.93623 0
M  V30 6209 H 585.299 -0.989186 3.60785 0
M  V30 6210 H 586.632 -1.32044 4.74157 0
M  V30 6211 N 588.284 -1.56567 -0.180126 0
M  V30 6212 C 589.533 -1.80685 -0.896426 0
M  V30 6213 C 589.846 -0.669335 -1.83791 0
M  V30 6214 O 591.052 -0.795209 -2.59593 0
M  V30 6215 C 589.508 -3.20132 -1.6445 0
M  V30 6216 C 589.116 -4.41727 -0.747088 0
M  V30 6217 C 590.86 -3.53549 -2.34955 0
M  V30 6218 C 588.767 -5.72195 -1.49489 0
M  V30 6219 H 587.697 -0.673758 -0.338477 0
M  V30 6220 H 590.348 -1.8289 -0.149467 0
M  V30 6221 H 588.73 -3.12218 -2.43589 0
M  V30 6222 H 589.904 -4.608 0.00671129 0
M  V30 6223 H 588.219 -4.16122 -0.152134 0
M  V30 6224 H 590.816 -4.48267 -2.91481 0
M  V30 6225 H 591.159 -2.78006 -3.09868 0
M  V30 6226 H 591.692 -3.62976 -1.62768 0
M  V30 6227 H 588.431 -6.50743 -0.788251 0
M  V30 6228 H 587.951 -5.57115 -2.22224 0
M  V30 6229 H 589.63 -6.1384 -2.04472 0
M  V30 6230 N 589.762 0.448376 -1.51087 0
M  V30 6231 C 590.692 1.55102 -1.74544 0
M  V30 6232 C 591.673 1.59357 -0.594932 0
M  V30 6233 O 592.858 1.75261 -0.836491 0
M  V30 6234 C 589.988 2.93268 -1.86041 0
M  V30 6235 C 588.942 3.03877 -3.01402 0
M  V30 6236 C 588.268 4.43914 -2.98068 0
M  V30 6237 C 589.568 2.7898 -4.41551 0
M  V30 6238 H 591.262 1.35724 -2.66869 0
M  V30 6239 H 588.808 0.651498 -1.28419 0
M  V30 6240 H 590.761 3.70356 -2.01034 0
M  V30 6241 H 589.485 3.13853 -0.903548 0
M  V30 6242 H 588.144 2.29227 -2.86096 0
M  V30 6243 H 587.792 4.6145 -2.00182 0
M  V30 6244 H 587.492 4.51944 -3.75527 0
M  V30 6245 H 589.016 5.22991 -3.1514 0
M  V30 6246 H 590.43 3.45805 -4.57265 0
M  V30 6247 H 588.827 2.98431 -5.20633 0
M  V30 6248 H 589.897 1.74663 -4.5235 0
M  V30 6249 N 591.24 1.41047 0.703093 0
M  V30 6250 C 592.656 1.23351 1.01275 0
M  V30 6251 C 592.856 0.11754 2.01157 0
M  V30 6252 O 591.912 -0.520518 2.47077 0
M  V30 6253 C 593.225 2.58001 1.54454 0
M  V30 6254 C 594.773 2.65119 1.66376 0
M  V30 6255 C 595.248 4.00067 2.22958 0
M  V30 6256 N 596.739 4.01875 2.30328 0
M  V30 6257 C 597.474 5.03087 2.75119 0
M  V30 6258 N 596.97 6.14692 3.19571 0
M  V30 6259 N 598.763 4.90451 2.74616 0
M  V30 6260 H 590.914 2.1236 0.0412686 0
M  V30 6261 H 593.177 0.944543 0.08089 0
M  V30 6262 H 592.883 3.40378 0.88521 0
M  V30 6263 H 592.757 2.79962 2.52786 0
M  V30 6264 H 595.144 1.83106 2.31422 0
M  V30 6265 H 595.225 2.46975 0.666089 0
M  V30 6266 H 594.869 4.82526 1.58529 0
M  V30 6267 H 594.799 4.15547 3.23462 0
M  V30 6268 H 597.29 3.21291 1.98949 0
M  V30 6269 H 597.603 6.87799 3.52352 0
M  V30 6270 H 595.948 6.18239 3.17498 0
M  V30 6271 H 599.139 4.0235 2.39233 0
M  V30 6272 H 599.312 5.6947 3.09206 0
M  V30 6273 N 592.718 -0.936591 1.26751 0
M  V30 6274 C 593.65 -2.03991 1.045 0
M  V30 6275 C 594.663 -1.628 0.00394261 0
M  V30 6276 O 595.852 -1.76817 0.244526 0
M  V30 6277 C 592.952 -3.34218 0.561403 0
M  V30 6278 C 592.125 -4.04151 1.67274 0
M  V30 6279 C 591.184 -5.12651 1.1864 0
M  V30 6280 O 590.21 -5.37104 1.88437 0
M  V30 6281 N 591.412 -5.80488 0.037278 0
M  V30 6282 H 594.177 -2.23644 1.99508 0
M  V30 6283 H 591.738 -1.10638 1.18198 0
M  V30 6284 H 593.73 -4.04101 0.220136 0
M  V30 6285 H 592.3 -3.11203 -0.295211 0
M  V30 6286 H 591.52 -3.28121 2.18472 0
M  V30 6287 H 592.808 -4.47626 2.41885 0
M  V30 6288 H 592.206 -5.63064 -0.545494 0
M  V30 6289 H 590.763 -6.5134 -0.244877 0
M  V30 6290 N 594.196 -1.08629 -1.14182 0
M  V30 6291 C 595.442 -0.818556 -1.85546 0
M  V30 6292 C 595.775 0.654076 -1.82854 0
M  V30 6293 O 595.05 1.48099 -1.26083 0
M  V30 6294 C 595.333 -1.34397 -3.3408 0
M  V30 6295 C 595.186 -2.8821 -3.45333 0
M  V30 6296 C 596.505 -0.971069 -4.29253 0
M  V30 6297 H 593.624 -0.298821 -0.673702 0
M  V30 6298 H 596.266 -1.34629 -1.34071 0
M  V30 6299 H 594.416 -0.895064 -3.78049 0
M  V30 6300 H 596.088 -3.41488 -3.10134 0
M  V30 6301 H 594.331 -3.25756 -2.86471 0
M  V30 6302 H 595.002 -3.20047 -4.49749 0
M  V30 6303 H 597.478 -1.35809 -3.93313 0
M  V30 6304 H 596.354 -1.36586 -5.31635 0
M  V30 6305 H 596.615 0.121659 -4.41933 0
M  V30 6306 N 595.674 1.31259 -0.872281 0
M  V30 6307 C 596.622 2.30404 -0.318897 0
M  V30 6308 C 597.616 1.5962 0.567267 0
M  V30 6309 O 598.822 1.74204 0.453111 0
M  V30 6310 H 595.197 0.747243 -0.0844474 0
M  V30 6311 H 597.168 2.74549 -1.16899 0
M  V30 6312 C 595.917 3.44608 0.462683 0
M  V30 6313 H 595.24 3.99248 -0.209936 0
M  V30 6314 H 596.68 4.1609 0.815187 0
M  V30 6315 C 595.139 2.93456 1.65485 0
M  V30 6316 O 595.669 2.92418 2.75417 0
M  V30 6317 N 593.875 2.49628 1.48776 0
M  V30 6318 H 593.422 2.50671 0.593452 0
M  V30 6319 H 593.38 2.15759 2.28682 0
M  V30 6320 N 597.152 0.631951 1.44375 0
M  V30 6321 C 598.062 -0.073674 2.34484 0
M  V30 6322 C 599.078 -0.834825 1.52665 0
M  V30 6323 O 600.254 -0.786902 1.85391 0
M  V30 6324 C 597.319 -1.04247 3.30656 0
M  V30 6325 C 596.38 -0.280602 4.28382 0
M  V30 6326 C 595.613 -1.20325 5.19959 0
M  V30 6327 O 595.836 -2.44199 5.15484 0
M  V30 6328 O 594.77 -0.687128 5.97965 0
M  V30 6329 H 598.596 0.667477 2.96274 0
M  V30 6330 H 596.181 0.392144 1.44162 0
M  V30 6331 H 598.063 -1.59981 3.89851 0
M  V30 6332 H 596.738 -1.76422 2.71398 0
M  V30 6333 H 595.645 0.319804 3.72731 0
M  V30 6334 H 596.978 0.401144 4.90563 0
M  V30 6335 N 598.631 -1.53133 0.372548 0
M  V30 6336 C 599.564 -2.22328 -0.514361 0
M  V30 6337 C 600.542 -1.21776 -1.07747 0
M  V30 6338 O 601.726 -1.50704 -1.13228 0
M  V30 6339 C 598.853 -2.92343 -1.71035 0
M  V30 6340 C 597.899 -4.07026 -1.27405 0
M  V30 6341 S 598.732 -5.34821 -0.269526 0
M  V30 6342 C 599.888 -6.08352 -1.47168 0
M  V30 6343 H 600.121 -2.9721 0.0732683 0
M  V30 6344 H 597.654 -1.53603 0.156673 0
M  V30 6345 H 599.612 -3.33296 -2.39634 0
M  V30 6346 H 598.273 -2.17173 -2.26925 0
M  V30 6347 H 597.466 -4.55056 -2.16656 0
M  V30 6348 H 597.068 -3.68001 -0.66719 0
M  V30 6349 H 599.36 -6.33507 -2.40157 0
M  V30 6350 H 600.303 -7.0053 -1.03263 0
M  V30 6351 H 600.711 -5.38893 -1.6809 0
M  V30 6352 N 600.109 -0.101901 -1.5727 0
M  V30 6353 C 601.056 0.854577 -2.14396 0
M  V30 6354 C 602.026 1.27521 -1.06432 0
M  V30 6355 O 603.211 1.35575 -1.34253 0
M  V30 6356 C 600.351 2.10576 -2.73408 0
M  V30 6357 C 599.464 1.73504 -3.95626 0
M  V30 6358 C 598.599 2.9346 -4.42781 0
M  V30 6359 C 597.638 2.52547 -5.57572 0
M  V30 6360 N 596.775 3.65359 -5.99547 0
M  V30 6361 H 601.615 0.360578 -2.9581 0
M  V30 6362 H 599.152 0.166303 -1.46157 0
M  V30 6363 H 601.11 2.83859 -3.05745 0
M  V30 6364 H 599.74 2.57463 -1.94711 0
M  V30 6365 H 598.792 0.901622 -3.6956 0
M  V30 6366 H 600.104 1.39426 -4.78917 0
M  V30 6367 H 599.258 3.74988 -4.76937 0
M  V30 6368 H 597.997 3.30753 -3.58404 0
M  V30 6369 H 597.002 1.69446 -5.23037 0
M  V30 6370 H 598.227 2.1639 -6.43702 0
M  V30 6371 H 596.173 4.02358 -5.18116 0
M  V30 6372 H 596.09 3.35148 -6.77652 0
M  V30 6373 H 597.358 4.47378 -6.38336 0
M  V30 6374 N 601.587 1.56661 0.17182 0
M  V30 6375 C 602.535 1.97289 1.23207 0
M  V30 6376 C 603.529 0.861566 1.45854 0
M  V30 6377 O 604.735 1.04668 1.4644 0
M  V30 6378 H 601.11 0.627681 0.41415 0
M  V30 6379 H 603.081 2.85662 0.862542 0
M  V30 6380 C 601.83 2.34849 2.564 0
M  V30 6381 H 601.153 3.19903 2.39797 0
M  V30 6382 H 602.593 2.67121 3.29276 0
M  V30 6383 C 601.052 1.19172 3.15119 0
M  V30 6384 O 601.582 0.479113 3.98833 0
M  V30 6385 N 599.788 0.962415 2.74201 0
M  V30 6386 H 599.335 1.54365 2.06226 0
M  V30 6387 H 599.293 0.190272 3.13824 0
M  V30 6388 N 603.065 -0.440357 1.51323 0
M  V30 6389 C 604.29 -1.21716 1.67928 0
M  V30 6390 C 604.715 -1.84328 0.374826 0
M  V30 6391 O 604.073 -1.68675 -0.664706 0
M  V30 6392 C 604.121 -2.27914 2.79442 0
M  V30 6393 O 603.225 -3.33325 2.42834 0
M  V30 6394 H 602.566 -0.35674 0.560029 0
M  V30 6395 H 605.096 -0.520417 1.97871 0
M  V30 6396 H 605.106 -2.72746 3.03436 0
M  V30 6397 H 603.781 -1.8172 3.741 0
M  V30 6398 H 602.358 -2.9399 2.294 0
M  V30 6399 N 604.543 -1.41418 -0.695603 0
M  V30 6400 C 605.476 -1.3768 -1.81988 0
M  V30 6401 C 606.454 -0.244061 -1.60758 0
M  V30 6402 O 607.638 -0.430965 -1.83507 0
M  V30 6403 C 604.765 -1.1476 -3.18666 0
M  V30 6404 C 603.811 -2.30752 -3.58686 0
M  V30 6405 S 604.644 -3.9323 -3.63498 0
M  V30 6406 C 605.8 -3.72613 -5.02902 0
M  V30 6407 H 606.033 -2.32822 -1.84882 0
M  V30 6408 H 603.566 -1.27942 -0.86431 0
M  V30 6409 H 605.524 -1.02223 -3.97569 0
M  V30 6410 H 604.185 -0.212385 -3.13381 0
M  V30 6411 H 603.378 -2.10409 -4.57978 0
M  V30 6412 H 602.98 -2.39696 -2.87092 0
M  V30 6413 H 605.272 -3.32317 -5.904 0
M  V30 6414 H 606.215 -4.71507 -5.28286 0
M  V30 6415 H 606.623 -3.0589 -4.74438 0
M  V30 6416 N 606.021 0.929856 -1.27246 0
M  V30 6417 C 607.246 1.71674 -1.16374 0
M  V30 6418 C 607.671 1.86064 0.276024 0
M  V30 6419 O 607.029 1.3591 1.19992 0
M  V30 6420 C 607.077 3.09526 -1.85003 0
M  V30 6421 O 606.181 3.96142 -1.14653 0
M  V30 6422 H 605.522 0.52629 -0.404863 0
M  V30 6423 H 608.052 1.16381 -1.68276 0
M  V30 6424 H 608.062 3.59852 -1.92276 0
M  V30 6425 H 606.737 2.98369 -2.89739 0
M  V30 6426 H 605.314 3.54584 -1.15433 0
M  V30 6427 N 607.499 1.09233 1.13605 0
M  V30 6428 C 608.409 0.741939 2.22559 0
M  V30 6429 C 609.425 -0.255236 1.72118 0
M  V30 6430 O 610.601 -0.0970747 2.01166 0
M  V30 6431 C 607.666 0.165595 3.46304 0
M  V30 6432 C 606.727 1.21846 4.11645 0
M  V30 6433 C 605.96 0.669526 5.29484 0
M  V30 6434 O 606.183 -0.508228 5.68131 0
M  V30 6435 O 605.117 1.42361 5.84822 0
M  V30 6436 H 608.943 1.65107 2.54899 0
M  V30 6437 H 606.528 0.866584 1.21699 0
M  V30 6438 H 608.41 -0.152592 4.21124 0
M  V30 6439 H 607.085 -0.716573 3.15669 0
M  V30 6440 H 605.992 1.58931 3.38662 0
M  V30 6441 H 607.325 2.07321 4.46407 0
M  V30 6442 N 608.977 -1.30795 0.87923 0
M  V30 6443 C 610.205 -2.00527 0.509548 0
M  V30 6444 C 610.62 -1.65944 -0.90045 0
M  V30 6445 O 609.977 -0.893525 -1.5913 0
M  V30 6446 C 610.028 -3.55276 0.667943 0
M  V30 6447 O 609.749 -3.88625 2.02242 0
M  V30 6448 C 611.25 -4.4228 0.300494 0
M  V30 6449 H 608.47 -0.641261 0.197549 0
M  V30 6450 H 611.014 -1.66813 1.18295 0
M  V30 6451 H 609.169 -3.87377 0.0419843 0
M  V30 6452 H 609.583 -4.83334 2.03688 0
M  V30 6453 H 611.057 -5.50061 0.462242 0
M  V30 6454 H 611.534 -4.32556 -0.76106 0
M  V30 6455 H 612.14 -4.15613 0.902536 0
M  V30 6456 N 610.455 -0.639598 -1.44038 0
M  V30 6457 C 611.701 -0.147698 -2.02261 0
M  V30 6458 C 612.034 1.23031 -1.50256 0
M  V30 6459 O 611.309 1.81847 -0.690068 0
M  V30 6460 C 611.592 -0.14362 -3.59813 0
M  V30 6461 C 611.445 -1.55458 -4.22082 0
M  V30 6462 C 612.764 0.527317 -4.36929 0
M  V30 6463 H 609.883 -0.0551453 -0.734934 0
M  V30 6464 H 612.525 -0.817688 -1.71505 0
M  V30 6465 H 610.675 0.426898 -3.86147 0
M  V30 6466 H 612.347 -2.17464 -4.06826 0
M  V30 6467 H 610.59 -2.10594 -3.79253 0
M  V30 6468 H 611.261 -1.50369 -5.31124 0
M  V30 6469 H 613.737 0.0420504 -4.16079 0
M  V30 6470 H 612.613 0.499389 -5.46624 0
M  V30 6471 H 612.874 1.59914 -4.12165 0
M  V30 6472 N 611.933 1.52934 -0.380664 0
M  V30 6473 C 613.349 1.59571 -0.0302429 0
M  V30 6474 C 613.549 1.39509 1.45394 0
M  V30 6475 O 612.605 1.20777 2.21741 0
M  V30 6476 C 613.918 2.96519 -0.499691 0
M  V30 6477 C 615.466 3.09672 -0.455204 0
M  V30 6478 C 615.941 4.49056 -0.900703 0
M  V30 6479 N 617.432 4.55215 -0.856367 0
M  V30 6480 C 618.167 5.61282 -1.17259 0
M  V30 6481 N 617.663 6.75035 -1.55885 0
M  V30 6482 N 619.456 5.51343 -1.0944 0
M  V30 6483 H 611.607 1.64224 -1.347 0
M  V30 6484 H 613.87 0.771033 -0.551554 0
M  V30 6485 H 613.576 3.16388 -1.53595 0
M  V30 6486 H 613.45 3.77052 0.105789 0
M  V30 6487 H 615.837 2.89504 0.571949 0
M  V30 6488 H 615.918 2.31113 -1.09638 0
M  V30 6489 H 615.562 4.69964 -1.92604 0
M  V30 6490 H 615.492 5.26068 -0.236629 0
M  V30 6491 H 617.983 3.73546 -0.572013 0
M  V30 6492 H 618.296 7.51926 -1.784 0
M  V30 6493 H 616.641 6.76388 -1.59764 0
M  V30 6494 H 619.832 4.61356 -0.791713 0
M  V30 6495 H 620.005 6.33905 -1.34417 0
M  V30 6496 N 613.412 0.11024 1.57214 0
M  V30 6497 C 614.342 -0.840002 2.17867 0
M  V30 6498 C 615.323 -1.28352 1.11624 0
M  V30 6499 O 616.508 -1.3477 1.39824 0
M  V30 6500 C 613.638 -2.09349 2.77111 0
M  V30 6501 C 612.592 -1.78807 3.8886 0
M  V30 6502 C 611.918 -3.11112 4.34872 0
M  V30 6503 C 613.218 -1.0632 5.11364 0
M  V30 6504 H 614.912 -0.334608 2.97524 0
M  V30 6505 H 612.458 -0.159502 1.43114 0
M  V30 6506 H 614.411 -2.76275 3.18198 0
M  V30 6507 H 613.135 -2.62198 1.9473 0
M  V30 6508 H 611.794 -1.14273 3.48335 0
M  V30 6509 H 611.442 -3.61877 3.49362 0
M  V30 6510 H 611.142 -2.91453 5.10224 0
M  V30 6511 H 612.666 -3.79171 4.78604 0
M  V30 6512 H 614.08 -1.63383 5.49526 0
M  V30 6513 H 612.477 -0.967876 5.92243 0
M  V30 6514 H 613.547 -0.0484569 4.84876 0
M  V30 6515 N 614.89 -1.56749 -0.16351 0
M  V30 6516 C 616.136 -1.82704 -0.880168 0
M  V30 6517 C 616.469 -0.689311 -1.81555 0
M  V30 6518 O 615.744 0.308224 -1.92042 0
M  V30 6519 C 616.027 -3.19084 -1.66905 0
M  V30 6520 C 615.88 -4.43397 -0.756269 0
M  V30 6521 C 617.199 -3.52493 -2.63509 0
M  V30 6522 H 614.318 -0.664608 -0.318535 0
M  V30 6523 H 616.96 -1.89438 -0.146036 0
M  V30 6524 H 615.11 -3.13475 -2.2949 0
M  V30 6525 H 616.782 -4.61079 -0.14269 0
M  V30 6526 H 615.025 -4.33752 -0.0647944 0
M  V30 6527 H 615.696 -5.3539 -1.34393 0
M  V30 6528 H 618.172 -3.58606 -2.11047 0
M  V30 6529 H 617.048 -4.48979 -3.15767 0
M  V30 6530 H 617.309 -2.77597 -3.44082 0
M  V30 6531 N 616.368 0.432326 -1.51554 0
M  V30 6532 C 617.593 1.20824 -1.68571 0
M  V30 6533 C 618.018 1.84126 -0.384596 0
M  V30 6534 O 617.376 1.69025 0.655751 0
M  V30 6535 C 617.424 2.26429 -2.80646 0
M  V30 6536 O 616.528 3.32032 -2.44598 0
M  V30 6537 H 615.869 0.353765 -0.561913 0
M  V30 6538 H 618.399 0.509916 -1.98144 0
M  V30 6539 H 618.409 2.71133 -3.04878 0
M  V30 6540 H 617.084 1.79733 -3.75058 0
M  V30 6541 H 615.661 2.92769 -2.30956 0
M  V30 6542 N 617.846 1.41785 0.688094 0
M  V30 6543 C 619.094 1.41264 1.4453 0
M  V30 6544 C 619.415 0.0252946 1.94984 0
M  V30 6545 O 618.685 -0.934081 1.72197 0
M  V30 6546 H 617.265 0.519998 0.536294 0
M  V30 6547 H 619.927 1.7709 0.813941 0
M  V30 6548 H 619.023 2.10439 2.30482 0
M  V30 6549 N 619.324 -0.923095 1.27737 0
M  V30 6550 C 620.257 -2.02515 1.05181 0
M  V30 6551 C 621.235 -1.62574 -0.0292204 0
M  V30 6552 O 622.419 -1.88137 0.116848 0
M  V30 6553 C 619.546 -3.33407 0.596468 0
M  V30 6554 C 618.592 -3.92328 1.67276 0
M  V30 6555 S 619.425 -4.24342 3.26641 0
M  V30 6556 C 620.581 -5.58308 2.82919 0
M  V30 6557 H 620.814 -2.21336 1.98488 0
M  V30 6558 H 618.347 -1.06679 1.1162 0
M  V30 6559 H 620.305 -4.09086 0.34044 0
M  V30 6560 H 618.966 -3.125 -0.316614 0
M  V30 6561 H 618.159 -4.86797 1.30556 0
M  V30 6562 H 617.761 -3.2325 1.8811 0
M  V30 6563 H 620.053 -6.37801 2.28509 0
M  V30 6564 H 620.996 -5.99931 3.7615 0
M  V30 6565 H 621.404 -5.19049 2.21919 0
M  V30 6566 N 620.802 -1.09834 -1.13024 0
M  V30 6567 C 621.734 -0.699379 -2.18269 0
M  V30 6568 C 622.747 0.260841 -1.60697 0
M  V30 6569 O 623.936 0.0462538 -1.7844 0
M  V30 6570 C 621.036 -0.0104537 -3.38898 0
M  V30 6571 C 620.209 -0.993275 -4.25973 0
M  V30 6572 C 619.268 -0.336982 -5.2512 0
M  V30 6573 O 618.294 -0.985892 -5.60597 0
M  V30 6574 N 619.496 0.90716 -5.73368 0
M  V30 6575 H 622.261 -1.60486 -2.5311 0
M  V30 6576 H 619.822 -0.986337 -1.28386 0
M  V30 6577 H 621.814 0.43991 -4.02302 0
M  V30 6578 H 620.384 0.797335 -3.0226 0
M  V30 6579 H 619.604 -1.62208 -3.5928 0
M  V30 6580 H 620.892 -1.65876 -4.81002 0
M  V30 6581 H 620.29 1.45384 -5.46699 0
M  V30 6582 H 618.847 1.30077 -6.38689 0
M  V30 6583 N 622.28 1.30327 -0.886154 0
M  V30 6584 C 623.23 2.25668 -0.325248 0
M  V30 6585 C 624.214 1.51318 0.546972 0
M  V30 6586 O 625.406 1.72623 0.391203 0
M  V30 6587 C 622.535 3.40229 0.458167 0
M  V30 6588 C 621.621 4.21933 -0.428208 0
M  V30 6589 N 622.012 4.82129 -1.52921 0
M  V30 6590 C 620.31 4.45439 -0.223535 0
M  V30 6591 C 621.011 5.43351 -2.07714 0
M  V30 6592 N 619.987 5.26002 -1.37195 0
M  V30 6593 H 623.789 2.69759 -1.1665 0
M  V30 6594 H 621.303 1.4478 -0.735691 0
M  V30 6595 H 623.3 4.07579 0.876648 0
M  V30 6596 H 621.96 2.97678 1.29684 0
M  V30 6597 H 622.971 4.81312 -1.91205 0
M  V30 6598 H 619.648 4.13481 0.577875 0
M  V30 6599 H 621.038 6.01118 -3.00178 0
M  V30 6600 N 623.758 0.647228 1.43697 0
M  V30 6601 C 625.169 0.238689 1.85168 0
M  V30 6602 C 625.52 -1.21345 1.54175 0
M  V30 6603 O 624.645 -1.92542 0.987743 0
M  V30 6604 C 625.24 0.426422 3.36106 0
M  V30 6605 C 623.799 0.0722541 3.76331 0
M  V30 6606 C 622.946 0.732153 2.6746 0
M  V30 6607 H 625.897 0.851309 1.33934 0
M  V30 6608 H 625.918 -0.32987 3.79067 0
M  V30 6609 H 625.43 1.48339 3.58632 0
M  V30 6610 H 623.531 -0.982355 3.59417 0
M  V30 6611 H 623.644 0.493541 4.76551 0
M  V30 6612 H 622.008 0.16594 2.54159 0
M  V30 6613 H 622.791 1.79204 2.92816 0
M  V30 6614 N 625.236 -1.5273 0.388769 0
M  V30 6615 C 626.484 -2.01174 -0.193208 0
M  V30 6616 C 626.805 -1.27705 -1.47365 0
M  V30 6617 O 626.075 -0.396966 -1.91836 0
M  V30 6618 H 624.655 -0.743287 -0.0743871 0
M  V30 6619 H 627.317 -1.87826 0.520336 0
M  V30 6620 H 626.413 -3.09477 -0.403803 0
M  V30 6621 N 626.714 -0.118576 -1.57153 0
M  V30 6622 C 627.939 0.550582 -1.99958 0
M  V30 6623 C 628.364 1.59458 -0.997736 0
M  V30 6624 O 627.722 1.81274 0.0306269 0
M  V30 6625 C 627.77 1.15379 -3.41643 0
M  V30 6626 O 626.874 2.26932 -3.44348 0
M  V30 6627 H 626.215 0.137567 -0.649593 0
M  V30 6628 H 628.745 -0.206926 -2.03551 0
M  V30 6629 H 628.755 1.48942 -3.79843 0
M  V30 6630 H 627.43 0.389087 -4.14076 0
M  V30 6631 H 626.007 1.94812 -3.17967 0
M  V30 6632 N 628.193 1.56834 0.155195 0
M  V30 6633 C 629.156 1.96748 1.17571 0
M  V30 6634 C 630.156 0.853006 1.3631 0
M  V30 6635 O 631.346 1.11978 1.33441 0
M  V30 6636 C 628.478 2.27631 2.53765 0
M  V30 6637 H 629.671 2.88085 0.833498 0
M  V30 6638 H 627.224 1.51141 0.398242 0
M  V30 6639 H 627.959 1.39059 2.92973 0
M  V30 6640 H 627.744 3.0888 2.41527 0
M  V30 6641 H 629.234 2.59377 3.27282 0
M  V30 6642 N 629.671 -0.424282 1.51781 0
M  V30 6643 C 630.919 -1.17028 1.64769 0
M  V30 6644 C 631.24 -1.91409 0.372523 0
M  V30 6645 O 630.51 -1.86091 -0.612108 0
M  V30 6646 H 629.09 -0.434992 0.607282 0
M  V30 6647 H 631.752 -0.485169 1.88765 0
M  V30 6648 H 630.848 -1.8927 2.4816 0
M  V30 6649 N 631.149 -1.42148 -0.680565 0
M  V30 6650 C 632.397 -1.42029 -1.43779 0
M  V30 6651 C 632.718 -0.0356347 -1.94967 0
M  V30 6652 O 631.988 0.924936 -1.7269 0
M  V30 6653 H 630.568 -0.522835 -0.533529 0
M  V30 6654 H 633.23 -1.7752 -0.804538 0
M  V30 6655 H 632.326 -2.11658 -2.29363 0
M  V30 6656 N 632.627 0.916307 -1.28225 0
M  V30 6657 C 633.873 1.66765 -1.154 0
M  V30 6658 C 634.206 1.91912 0.297251 0
M  V30 6659 O 633.481 1.51766 1.21644 0
M  V30 6660 C 633.764 3.02715 -1.95028 0
M  V30 6661 C 633.617 2.84738 -3.48201 0
M  V30 6662 C 634.936 4.03215 -1.76369 0
M  V30 6663 H 632.055 0.605205 -0.42059 0
M  V30 6664 H 634.697 1.06255 -1.57512 0
M  V30 6665 H 632.847 3.54365 -1.59242 0
M  V30 6666 H 634.519 2.40118 -3.9388 0
M  V30 6667 H 632.762 2.19848 -3.73964 0
M  V30 6668 H 633.433 3.8127 -3.99171 0
M  V30 6669 H 635.909 3.60617 -2.07593 0
M  V30 6670 H 634.785 4.96306 -2.34459 0
M  V30 6671 H 635.046 4.36288 -0.71452 0
M  V30 6672 N 634.105 1.10431 1.1244 0
M  V30 6673 C 635.335 0.867612 1.87499 0
M  V30 6674 C 635.743 -0.585475 1.79913 0
M  V30 6675 O 635.086 -1.41539 1.171 0
M  V30 6676 C 635.148 1.2374 3.37533 0
M  V30 6677 C 634.812 2.69751 3.68895 0
M  V30 6678 C 635.809 3.67988 3.67261 0
M  V30 6679 C 633.494 3.06135 3.98229 0
M  V30 6680 C 635.488 5.00632 3.9452 0
M  V30 6681 C 633.175 4.38967 4.25149 0
M  V30 6682 C 634.173 5.36025 4.23281 0
M  V30 6683 O 633.861 6.66465 4.49533 0
M  V30 6684 H 633.593 0.311196 0.600111 0
M  V30 6685 H 636.147 1.47257 1.43194 0
M  V30 6686 H 634.377 0.575537 3.82393 0
M  V30 6687 H 636.066 0.978187 3.93937 0
M  V30 6688 H 636.832 3.41224 3.44661 0
M  V30 6689 H 632.711 2.31214 3.98825 0
M  V30 6690 H 636.255 5.7638 3.92978 0
M  V30 6691 H 632.152 4.6547 4.47223 0
M  V30 6692 H 632.92 6.72095 4.67152 0
M  V30 6693 N 635.583 -1.29855 0.893053 0
M  V30 6694 C 636.493 -2.31661 0.370157 0
M  V30 6695 C 637.509 -1.65677 -0.531723 0
M  V30 6696 O 638.685 -1.9691 -0.422902 0
M  V30 6697 C 635.75 -3.44388 -0.399741 0
M  V30 6698 C 634.811 -4.2598 0.532861 0
M  V30 6699 C 634.044 -5.33324 -0.200388 0
M  V30 6700 O 634.267 -5.52305 -1.42531 0
M  V30 6701 O 633.201 -6.00188 0.453668 0
M  V30 6702 H 637.027 -2.78354 1.2146 0
M  V30 6703 H 634.612 -1.34171 0.657153 0
M  V30 6704 H 636.494 -4.13037 -0.835358 0
M  V30 6705 H 635.169 -2.99815 -1.22035 0
M  V30 6706 H 634.076 -3.59998 1.01746 0
M  V30 6707 H 635.409 -4.74178 1.3197 0
M  V30 6708 N 637.061 -0.65484 -1.43351 0
M  V30 6709 C 638.289 -0.176685 -2.06144 0
M  V30 6710 C 638.704 1.15831 -1.49093 0
M  V30 6711 O 638.061 1.71542 -0.622868 0
M  V30 6712 C 638.112 -0.0813326 -3.61408 0
M  V30 6713 O 637.833 -1.36355 -4.1634 0
M  V30 6714 C 639.334 0.422706 -4.4128 0
M  V30 6715 H 636.554 -0.0906429 -0.66485 0
M  V30 6716 H 639.098 -0.895945 -1.83829 0
M  V30 6717 H 637.253 0.588496 -3.82904 0
M  V30 6718 H 637.667 -1.22381 -5.10023 0
M  V30 6719 H 639.141 0.438375 -5.50257 0
M  V30 6720 H 639.618 1.45432 -4.14423 0
M  V30 6721 H 640.224 -0.214687 -4.24758 0
M  V30 6722 N 638.539 1.52521 -0.396863 0
M  V30 6723 C 639.767 2.06091 0.18275 0
M  V30 6724 C 640.182 1.26796 1.39886 0
M  V30 6725 O 639.539 0.316585 1.79733 0
M  V30 6726 C 639.59 3.57362 0.545377 0
M  V30 6727 O 639.311 4.33656 -0.622428 0
M  V30 6728 C 640.812 4.27305 1.18004 0
M  V30 6729 H 638.032 0.670504 0.025789 0
M  V30 6730 H 640.576 1.96561 -0.564276 0
M  V30 6731 H 638.731 3.66941 1.2423 0
M  V30 6732 H 639.145 5.23507 -0.322662 0
M  V30 6733 H 640.619 5.34366 1.38408 0
M  V30 6734 H 641.096 3.83 2.1496 0
M  V30 6735 H 641.702 4.22064 0.523671 0
M  V30 6736 N 640.017 0.126909 1.57088 0
M  V30 6737 C 640.949 -0.850973 2.12817 0
M  V30 6738 C 641.962 -1.22457 1.07276 0
M  V30 6739 O 643.151 -1.17215 1.34622 0
M  V30 6740 C 640.251 -2.15039 2.61938 0
M  V30 6741 C 639.424 -1.94726 3.91664 0
M  V30 6742 C 638.483 -3.0847 4.26301 0
M  V30 6743 O 637.509 -2.81038 4.94981 0
M  V30 6744 N 638.711 -4.35116 3.84259 0
M  V30 6745 H 641.476 -0.3748 2.97347 0
M  V30 6746 H 639.037 -0.0572793 1.61799 0
M  V30 6747 H 641.029 -2.90141 2.82135 0
M  V30 6748 H 639.599 -2.5398 1.82244 0
M  V30 6749 H 638.819 -1.03772 3.80296 0
M  V30 6750 H 640.107 -1.78469 4.76473 0
M  V30 6751 H 639.505 -4.60276 3.2888 0
M  V30 6752 H 638.062 -5.07064 4.09548 0
M  V30 6753 N 641.495 -1.56914 -0.146875 0
M  V30 6754 C 642.445 -1.94693 -1.18653 0
M  V30 6755 C 643.429 -0.81821 -1.38543 0
M  V30 6756 O 644.621 -1.08167 -1.40103 0
M  V30 6757 C 641.75 -2.33117 -2.52014 0
M  V30 6758 C 640.836 -3.5256 -2.35717 0
M  V30 6759 N 641.227 -4.69091 -1.89175 0
M  V30 6760 C 639.525 -3.57647 -2.66467 0
M  V30 6761 C 640.226 -5.51187 -1.85924 0
M  V30 6762 N 639.202 -4.92899 -2.29242 0
M  V30 6763 H 643.004 -2.82264 -0.81879 0
M  V30 6764 H 640.518 -1.58474 -0.354929 0
M  V30 6765 H 642.515 -2.58387 -3.27172 0
M  V30 6766 H 641.175 -1.46898 -2.89571 0
M  V30 6767 H 642.186 -4.92844 -1.59139 0
M  V30 6768 H 638.863 -2.81967 -3.07898 0
M  V30 6769 H 640.253 -6.54613 -1.51431 0
M  V30 6770 N 642.974 0.416227 -1.52004 0
M  V30 6771 C 644.221 1.16383 -1.65714 0
M  V30 6772 C 644.549 1.9068 -0.383594 0
M  V30 6773 O 643.804 1.85174 0.633185 0
M  V30 6774 C 644.103 2.18923 -2.82502 0
M  V30 6775 C 643.769 1.61485 -4.20991 0
M  V30 6776 C 642.431 1.45545 -4.58661 0
M  V30 6777 C 644.783 1.19468 -5.07323 0
M  V30 6778 C 642.111 0.860937 -5.80349 0
M  V30 6779 C 644.463 0.614386 -6.29609 0
M  V30 6780 C 643.127 0.442056 -6.66035 0
M  V30 6781 H 642.397 0.425875 -0.606392 0
M  V30 6782 H 645.044 0.45199 -1.8609 0
M  V30 6783 H 643.349 2.96225 -2.56433 0
M  V30 6784 H 645.046 2.76628 -2.90307 0
M  V30 6785 H 641.636 1.74873 -3.91302 0
M  V30 6786 H 645.82 1.30596 -4.78809 0
M  V30 6787 H 641.076 0.715372 -6.072 0
M  V30 6788 H 645.25 0.280393 -6.95835 0
M  V30 6789 H 642.877 -0.0207218 -7.60197 0
M  V30 6790 N 644.452 1.42507 0.673017 0
M  V30 6791 C 645.701 1.42364 1.42883 0
M  V30 6792 C 646.014 0.0441598 1.9555 0
M  V30 6793 O 647.22 -0.0798679 2.71382 0
M  V30 6794 C 645.676 2.5043 2.58482 0
M  V30 6795 C 645.284 3.94392 2.12506 0
M  V30 6796 C 647.028 2.59455 3.35981 0
M  V30 6797 C 644.935 4.93964 3.25198 0
M  V30 6798 H 643.865 0.52951 0.536782 0
M  V30 6799 H 646.516 1.68422 0.728448 0
M  V30 6800 H 644.898 2.1754 3.30896 0
M  V30 6801 H 646.072 4.36645 1.47233 0
M  V30 6802 H 644.387 3.89233 1.4794 0
M  V30 6803 H 646.984 3.31025 4.19912 0
M  V30 6804 H 647.327 1.63869 3.82691 0
M  V30 6805 H 647.86 2.91549 2.70637 0
M  V30 6806 H 644.599 5.91034 2.83477 0
M  V30 6807 H 644.119 4.56341 3.89247 0
M  V30 6808 H 645.798 5.15763 3.90637 0
M  V30 6809 N 645.93 -0.909495 1.28709 0
M  V30 6810 C 647.207 -1.63865 1.06806 0
M  V30 6811 C 647.587 -2.07445 -0.391143 0
M  V30 6812 O 646.935 -1.82269 -1.37805 0
M  V30 6813 C 647.145 -2.82692 2.04661 0
M  V30 6814 C 648.493 -3.5361 2.35042 0
M  V30 6815 O 649.517 -2.92847 2.02779 0
M  V30 6816 O 648.376 -4.63131 2.90124 0
M  V30 6817 H 645.47 -0.719065 0.408502 0
M  V30 6818 H 648.016 -0.958424 1.40044 0
M  V30 6819 H 646.788 -2.47614 3.0299 0
M  V30 6820 H 646.411 -3.58426 1.72095 0
M  V30 6821 N 647.408 -1.11026 -1.11852 0
M  V30 6822 C 648.657 -0.851249 -1.82857 0
M  V30 6823 C 648.97 0.62514 -1.85341 0
M  V30 6824 O 650.176 1.00026 -2.52403 0
M  V30 6825 C 648.632 -1.47309 -3.28372 0
M  V30 6826 C 648.24 -2.9832 -3.34229 0
M  V30 6827 C 649.984 -1.29373 -4.04306 0
M  V30 6828 C 647.891 -3.53509 -4.74115 0
M  V30 6829 H 646.821 -0.314794 -0.685143 0
M  V30 6830 H 649.472 -1.33499 -1.25898 0
M  V30 6831 H 647.854 -0.917017 -3.85236 0
M  V30 6832 H 649.028 -3.60295 -2.87271 0
M  V30 6833 H 647.343 -3.15482 -2.71772 0
M  V30 6834 H 649.94 -1.68042 -5.07608 0
M  V30 6835 H 650.283 -0.235879 -4.15631 0
M  V30 6836 H 650.816 -1.8182 -3.53817 0
M  V30 6837 H 647.555 -4.58987 -4.67986 0
M  V30 6838 H 647.075 -2.96305 -5.21501 0
M  V30 6839 H 648.754 -3.51693 -5.43066 0
M  V30 6840 N 648.886 1.2938 -0.899927 0
M  V30 6841 C 649.833 2.27713 -0.376243 0
M  V30 6842 C 650.803 1.57016 0.541774 0
M  V30 6843 O 651.988 1.84997 0.466966 0
M  V30 6844 C 649.128 3.42889 0.39 0
M  V30 6845 C 648.241 4.28369 -0.558938 0
M  V30 6846 C 647.376 5.30726 0.224379 0
M  V30 6847 C 646.415 6.07862 -0.719068 0
M  V30 6848 N 645.552 7.02094 0.0298569 0
M  V30 6849 H 650.392 2.71888 -1.21988 0
M  V30 6850 H 647.929 1.33724 -0.612879 0
M  V30 6851 H 649.887 4.08443 0.850314 0
M  V30 6852 H 648.517 2.99743 1.19809 0
M  V30 6853 H 647.569 3.62986 -1.13777 0
M  V30 6854 H 648.881 4.82068 -1.2811 0
M  V30 6855 H 648.035 6.02098 0.745881 0
M  V30 6856 H 646.774 4.77759 0.979674 0
M  V30 6857 H 645.779 5.35353 -1.25207 0
M  V30 6858 H 647.004 6.62917 -1.4737 0
M  V30 6859 H 644.95 6.51496 0.767415 0
M  V30 6860 H 644.867 7.5335 -0.632391 0
M  V30 6861 H 646.135 7.77685 0.531615 0
M  V30 6862 N 650.364 0.662433 1.43002 0
M  V30 6863 C 651.274 -0.0239199 2.34588 0
M  V30 6864 C 652.29 -0.802255 1.54402 0
M  V30 6865 O 653.466 -0.747401 1.87018 0
M  V30 6866 C 650.531 -0.972098 3.32793 0
M  V30 6867 C 649.592 -0.189673 4.28881 0
M  V30 6868 C 648.825 -1.09269 5.22395 0
M  V30 6869 O 649.048 -2.33209 5.20547 0
M  V30 6870 O 647.982 -0.560136 5.99288 0
M  V30 6871 H 651.808 0.730171 2.94792 0
M  V30 6872 H 649.393 0.422635 1.43297 0
M  V30 6873 H 651.275 -1.51676 3.93157 0
M  V30 6874 H 649.95 -1.70626 2.75079 0
M  V30 6875 H 648.857 0.398794 3.71968 0
M  V30 6876 H 650.19 0.50511 4.89601 0
M  V30 6877 N 651.842 -1.52309 0.404946 0
M  V30 6878 C 652.792 -2.23717 -0.439864 0
M  V30 6879 C 653.776 -1.24692 -1.0169 0
M  V30 6880 O 654.968 -1.49951 -0.940409 0
M  V30 6881 C 652.097 -3.05898 -1.55825 0
M  V30 6882 C 651.183 -4.12331 -0.992188 0
M  V30 6883 N 651.574 -5.0557 -0.152424 0
M  V30 6884 C 649.872 -4.2774 -1.26312 0
M  V30 6885 C 650.573 -5.81474 0.162041 0
M  V30 6886 N 649.549 -5.41767 -0.44601 0
M  V30 6887 H 653.351 -2.93162 0.208084 0
M  V30 6888 H 650.865 -1.60969 0.215131 0
M  V30 6889 H 652.862 -3.55605 -2.17603 0
M  V30 6890 H 651.522 -2.37991 -2.20886 0
M  V30 6891 H 652.533 -5.17468 0.211556 0
M  V30 6892 H 649.21 -3.71062 -1.91362 0
M  V30 6893 H 650.6 -6.66585 0.843423 0
M  V30 6894 N 653.32 -0.135238 -1.57019 0
M  V30 6895 C 654.25 0.805235 -2.19176 0
M  V30 6896 C 655.231 1.2656 -1.13651 0
M  V30 6897 O 656.416 1.32528 -1.4195 0
M  V30 6898 C 653.546 2.04914 -2.80406 0
M  V30 6899 C 652.5 1.72598 -3.91655 0
M  V30 6900 C 651.826 3.04154 -4.39766 0
M  V30 6901 C 653.126 0.981709 -5.12991 0
M  V30 6902 H 654.82 0.287232 -2.98019 0
M  V30 6903 H 652.366 0.136714 -1.4335 0
M  V30 6904 H 654.319 2.71178 -3.22553 0
M  V30 6905 H 653.043 2.59067 -1.98877 0
M  V30 6906 H 651.702 1.08717 -3.50109 0
M  V30 6907 H 651.35 3.56274 -3.55075 0
M  V30 6908 H 651.05 2.83299 -5.14796 0
M  V30 6909 H 652.574 3.71509 -4.84576 0
M  V30 6910 H 653.988 1.5462 -5.52056 0
M  V30 6911 H 652.385 0.873533 -5.93708 0
M  V30 6912 H 653.455 -0.0286887 -4.84892 0
M  V30 6913 N 654.798 1.5699 0.138552 0
M  V30 6914 C 655.748 1.9532 1.17619 0
M  V30 6915 C 656.732 0.825545 1.38107 0
M  V30 6916 O 657.924 1.08908 1.39528 0
M  V30 6917 C 655.053 2.34451 2.50774 0
M  V30 6918 C 654.139 3.53805 2.33844 0
M  V30 6919 N 654.53 4.70088 1.86685 0
M  V30 6920 C 652.828 3.59055 2.64567 0
M  V30 6921 C 653.529 5.52165 1.82998 0
M  V30 6922 N 652.505 4.94108 2.26624 0
M  V30 6923 H 656.307 2.82694 0.803809 0
M  V30 6924 H 653.821 1.5866 0.346519 0
M  V30 6925 H 655.818 2.60119 3.25797 0
M  V30 6926 H 654.478 1.48431 2.88788 0
M  V30 6927 H 655.489 4.93681 1.56523 0
M  V30 6928 H 652.166 2.83596 3.06398 0
M  V30 6929 H 653.556 6.55407 1.47957 0
M  V30 6930 N 656.276 -0.40816 1.52223 0
M  V30 6931 C 657.525 -1.15212 1.65557 0
M  V30 6932 C 657.838 -1.9163 0.392096 0
M  V30 6933 O 659.044 -2.68458 0.405256 0
M  V30 6934 C 657.5 -2.09691 2.92502 0
M  V30 6935 C 657.108 -1.38785 4.25961 0
M  V30 6936 C 658.852 -2.8434 3.152 0
M  V30 6937 C 656.759 -2.31919 5.44029 0
M  V30 6938 H 655.689 -0.433776 0.616729 0
M  V30 6939 H 658.34 -0.4165 1.78711 0
M  V30 6940 H 656.722 -2.8681 2.7305 0
M  V30 6941 H 657.896 -0.670248 4.55899 0
M  V30 6942 H 656.211 -0.761741 4.09373 0
M  V30 6943 H 658.808 -3.54166 4.00587 0
M  V30 6944 H 659.151 -3.47344 2.29473 0
M  V30 6945 H 659.684 -2.14321 3.35129 0
M  V30 6946 H 656.423 -1.7356 6.32105 0
M  V30 6947 H 655.943 -3.0165 5.18428 0
M  V30 6948 H 657.622 -2.92424 5.77146 0
M  V30 6949 N 657.755 -1.42862 -0.66545 0
M  V30 6950 C 659.001 -1.44043 -1.42757 0
M  V30 6951 C 659.334 -0.0599629 -1.94107 0
M  V30 6952 O 658.609 0.917286 -1.71511 0
M  V30 6953 C 658.892 -2.47266 -2.61786 0
M  V30 6954 C 658.745 -3.94539 -2.16007 0
M  V30 6955 C 660.064 -2.47365 -3.64003 0
M  V30 6956 H 657.183 -0.524506 -0.517748 0
M  V30 6957 H 659.825 -1.74335 -0.755466 0
M  V30 6958 H 657.975 -2.21565 -3.19126 0
M  V30 6959 H 659.647 -4.31254 -1.63762 0
M  V30 6960 H 657.89 -4.07957 -1.47491 0
M  V30 6961 H 658.561 -4.62357 -3.01546 0
M  V30 6962 H 661.037 -2.70243 -3.16399 0
M  V30 6963 H 659.913 -3.21552 -4.44854 0
M  V30 6964 H 660.174 -1.50299 -4.15767 0
M  V30 6965 N 659.233 0.902656 -1.29189 0
M  V30 6966 C 660.18 2.00643 -1.14066 0
M  V30 6967 C 661.15 1.66064 -0.0347756 0
M  V30 6968 O 662.335 1.8973 -0.201752 0
M  V30 6969 C 659.475 3.35214 -0.820104 0
M  V30 6970 C 658.588 3.82594 -2.00614 0
M  V30 6971 C 657.723 5.05727 -1.62522 0
M  V30 6972 C 656.762 5.45469 -2.77724 0
M  V30 6973 N 655.899 6.59789 -2.40048 0
M  V30 6974 H 660.739 2.1291 -2.08502 0
M  V30 6975 H 658.276 1.04271 -1.03759 0
M  V30 6976 H 660.234 4.12643 -0.614949 0
M  V30 6977 H 658.864 3.22682 0.0873452 0
M  V30 6978 H 657.916 3.01226 -2.32308 0
M  V30 6979 H 659.228 4.07999 -2.86946 0
M  V30 6980 H 658.382 5.90732 -1.38277 0
M  V30 6981 H 657.121 4.82155 -0.733333 0
M  V30 6982 H 656.126 4.59 -3.02653 0
M  V30 6983 H 657.351 5.71024 -3.67572 0
M  V30 6984 H 655.297 6.37826 -1.53343 0
M  V30 6985 H 655.214 6.84975 -3.19914 0
M  V30 6986 H 656.482 7.4807 -2.19116 0
M  V30 6987 N 660.711 1.11618 1.11262 0
M  V30 6988 C 662.127 0.850468 1.35053 0
M  V30 6989 C 662.327 -0.523868 1.94571 0
M  V30 6990 O 661.383 -1.2743 2.17986 0
M  V30 6991 C 662.696 1.96005 2.28041 0
M  V30 6992 C 664.244 1.98993 2.416 0
M  V30 6993 C 664.719 3.0916 3.37911 0
M  V30 6994 N 666.21 3.08547 3.45475 0
M  V30 6995 C 666.945 3.9043 4.19943 0
M  V30 6996 N 666.441 4.8228 4.97371 0
M  V30 6997 N 668.234 3.786 4.15474 0
M  V30 6998 H 660.385 2.00184 0.709932 0
M  V30 6999 H 662.648 0.870635 0.375099 0
M  V30 7000 H 662.354 2.9499 1.91503 0
M  V30 7001 H 662.228 1.85782 3.28275 0
M  V30 7002 H 664.615 1.00633 2.77411 0
M  V30 7003 H 664.696 2.13292 1.4121 0
M  V30 7004 H 664.34 4.07748 3.02827 0
M  V30 7005 H 664.27 2.92102 4.3816 0
M  V30 7006 H 666.761 2.42 2.90249 0
M  V30 7007 H 667.074 5.41289 5.51567 0
M  V30 7008 H 665.419 4.863 4.96525 0
M  V30 7009 H 668.61 3.06185 3.54074 0
M  V30 7010 H 668.783 4.42647 4.73253 0
M  V30 7011 N 662.189 -1.289 0.906776 0
M  V30 7012 C 663.466 -1.90221 0.455537 0
M  V30 7013 C 663.846 -1.82251 -1.06527 0
M  V30 7014 O 663.194 -1.25385 -1.91026 0
M  V30 7015 C 663.404 -3.35015 0.97806 0
M  V30 7016 C 664.752 -4.12018 1.02598 0
M  V30 7017 O 665.776 -3.43947 0.926218 0
M  V30 7018 O 664.635 -5.33677 1.17689 0
M  V30 7019 H 661.729 -0.814505 0.143214 0
M  V30 7020 H 664.275 -1.37317 0.997104 0
M  V30 7021 H 663.047 -3.35006 2.02204 0
M  V30 7022 H 662.67 -3.95408 0.416914 0
M  V30 7023 N 663.667 -0.670007 -1.42649 0
M  V30 7024 C 664.916 -0.187526 -2.00826 0
M  V30 7025 C 665.229 1.21142 -1.53571 0
M  V30 7026 O 666.435 1.79001 -2.04134 0
M  V30 7027 C 664.891 -0.284409 -3.58774 0
M  V30 7028 C 664.499 -1.6871 -4.15019 0
M  V30 7029 C 666.243 0.139605 -4.2427 0
M  V30 7030 C 664.15 -1.73701 -5.65316 0
M  V30 7031 H 663.08 -0.0663468 -0.751075 0
M  V30 7032 H 665.731 -0.834492 -1.63427 0
M  V30 7033 H 664.113 0.430364 -3.93655 0
M  V30 7034 H 665.287 -2.42857 -3.91608 0
M  V30 7035 H 663.602 -2.05855 -3.61957 0
M  V30 7036 H 666.199 0.122398 -5.3456 0
M  V30 7037 H 666.542 1.17403 -3.99402 0
M  V30 7038 H 667.075 -0.523995 -3.94334 0
M  V30 7039 H 663.814 -2.75109 -5.94975 0
M  V30 7040 H 663.334 -1.03903 -5.90732 0
M  V30 7041 H 665.013 -1.48829 -6.2965 0
M  V30 7042 N 665.145 1.52092 -0.413018 0
M  V30 7043 C 666.422 1.94356 0.22024 0
M  V30 7044 C 666.802 1.35017 1.62277 0
M  V30 7045 O 666.15 0.527511 2.22328 0
M  V30 7046 C 666.36 3.48289 0.222638 0
M  V30 7047 C 667.708 4.22313 0.440098 0
M  V30 7048 O 668.732 3.54919 0.301826 0
M  V30 7049 O 667.591 5.41829 0.712984 0
M  V30 7050 H 664.685 0.814536 0.14304 0
M  V30 7051 H 667.231 1.63083 -0.469242 0
M  V30 7052 H 666.003 3.83872 -0.758836 0
M  V30 7053 H 665.626 3.85934 0.956057 0
M  V30 7054 N 666.623 0.143563 1.56945 0
M  V30 7055 C 667.571 -0.814556 2.17871 0
M  V30 7056 C 668.565 -1.25778 1.13474 0
M  V30 7057 O 669.771 -1.22666 1.31731 0
M  V30 7058 H 666.146 -0.280873 0.697578 0
M  V30 7059 H 668.117 -0.276459 2.97117 0
M  V30 7060 C 666.866 -2.04503 2.81201 0
M  V30 7061 H 666.189 -1.71296 3.61245 0
M  V30 7062 H 667.629 -2.69493 3.27337 0
M  V30 7063 C 666.088 -2.85079 1.79532 0
M  V30 7064 O 666.618 -3.81306 1.26368 0
M  V30 7065 N 664.824 -2.49546 1.48913 0
M  V30 7066 H 664.371 -1.71359 1.92338 0
M  V30 7067 H 664.329 -3.03751 0.811348 0
M  V30 7068 N 668.101 -1.57061 -0.130224 0
M  V30 7069 C 669.031 -2.02552 -1.16168 0
M  V30 7070 C 670.012 -0.907971 -1.4384 0
M  V30 7071 O 671.197 -1.17693 -1.54473 0
M  V30 7072 C 668.327 -2.42035 -2.49071 0
M  V30 7073 C 667.281 -3.5713 -2.35886 0
M  V30 7074 C 666.607 -3.82478 -3.7365 0
M  V30 7075 C 667.907 -4.89236 -1.8288 0
M  V30 7076 H 669.601 -2.8897 -0.783359 0
M  V30 7077 H 667.147 -1.39021 -0.375376 0
M  V30 7078 H 669.1 -2.72462 -3.21469 0
M  V30 7079 H 667.824 -1.52573 -2.88771 0
M  V30 7080 H 666.483 -3.26895 -1.65938 0
M  V30 7081 H 666.131 -2.9024 -4.10816 0
M  V30 7082 H 665.831 -4.59944 -3.65685 0
M  V30 7083 H 667.355 -4.15347 -4.47571 0
M  V30 7084 H 668.769 -5.18272 -2.45085 0
M  V30 7085 H 667.166 -5.70624 -1.85763 0
M  V30 7086 H 668.236 -4.78494 -0.785571 0
M  V30 7087 N 669.579 0.400081 -1.52437 0
M  V30 7088 C 670.825 1.14788 -1.67187 0
M  V30 7089 C 671.158 1.89928 -0.405074 0
M  V30 7090 O 670.433 1.85118 0.596804 0
M  V30 7091 C 670.716 2.13507 -2.89977 0
M  V30 7092 C 670.569 1.42204 -4.2673 0
M  V30 7093 C 671.888 3.14069 -3.083 0
M  V30 7094 H 669.007 0.415939 -0.608411 0
M  V30 7095 H 671.649 0.432542 -1.85011 0
M  V30 7096 H 669.799 2.7451 -2.74912 0
M  V30 7097 H 671.471 0.842503 -4.53541 0
M  V30 7098 H 669.714 0.723939 -4.27717 0
M  V30 7099 H 670.385 2.14281 -5.08712 0
M  V30 7100 H 672.861 2.63148 -3.22323 0
M  V30 7101 H 671.737 3.80398 -3.95713 0
M  V30 7102 H 671.998 3.82309 -2.22018 0
M  V30 7103 N 671.057 1.43213 0.657864 0
M  V30 7104 C 671.989 1.43974 1.78337 0
M  V30 7105 C 673.002 0.336482 1.59285 0
M  V30 7106 O 674.191 0.600631 1.68091 0
M  V30 7107 C 671.291 1.23242 3.15697 0
M  V30 7108 C 670.464 2.46319 3.61449 0
M  V30 7109 C 669.523 2.2088 4.77597 0
M  V30 7110 O 668.549 2.942 4.87273 0
M  V30 7111 N 669.751 1.22251 5.67481 0
M  V30 7112 H 672.516 2.40993 1.78164 0
M  V30 7113 H 670.077 1.3831 0.841549 0
M  V30 7114 H 672.069 1.04113 3.91079 0
M  V30 7115 H 670.639 0.346849 3.1067 0
M  V30 7116 H 669.859 2.80904 2.76563 0
M  V30 7117 H 671.147 3.28239 3.88763 0
M  V30 7118 H 670.545 0.616433 5.62331 0
M  V30 7119 H 669.102 1.09107 6.42603 0
M  V30 7120 N 672.536 -0.895792 1.29666 0
M  V30 7121 C 673.952 -1.17726 1.07763 0
M  V30 7122 C 674.152 -2.00794 -0.168576 0
M  V30 7123 O 673.208 -2.37213 -0.865244 0
M  V30 7124 C 674.521 -1.89441 2.33522 0
M  V30 7125 C 676.069 -2.02251 2.3888 0
M  V30 7126 C 676.544 -2.77378 3.64452 0
M  V30 7127 N 678.035 -2.8493 3.65198 0
M  V30 7128 C 678.77 -3.43606 4.59045 0
M  V30 7129 N 678.266 -4.03417 5.63228 0
M  V30 7130 N 680.059 -3.41317 4.46608 0
M  V30 7131 H 672.21 -0.341652 2.09634 0
M  V30 7132 H 674.473 -0.213865 0.923561 0
M  V30 7133 H 674.179 -1.35842 3.24407 0
M  V30 7134 H 674.053 -2.89893 2.41334 0
M  V30 7135 H 676.44 -2.55025 1.4848 0
M  V30 7136 H 676.521 -1.0092 2.3505 0
M  V30 7137 H 676.165 -2.25279 4.55205 0
M  V30 7138 H 676.095 -3.79062 3.65541 0
M  V30 7139 H 678.586 -2.42453 2.89871 0
M  V30 7140 H 678.899 -4.46224 6.30955 0
M  V30 7141 H 677.244 -4.01868 5.67033 0
M  V30 7142 H 680.435 -2.93812 3.64407 0
M  V30 7143 H 680.608 -3.86751 5.1993 0
M  V30 7144 N 674.014 -1.12206 -1.10668 0
M  V30 7145 C 674.962 -0.782918 -2.19028 0
M  V30 7146 C 675.956 0.229175 -1.67843 0
M  V30 7147 O 677.162 0.0876295 -1.79787 0
M  V30 7148 H 673.537 -0.235339 -0.714227 0
M  V30 7149 H 675.508 -1.70527 -2.44874 0
M  V30 7150 C 674.257 -0.25116 -3.46792 0
M  V30 7151 H 673.58 -1.02123 -3.86537 0
M  V30 7152 H 675.02 -0.0521409 -4.23968 0
M  V30 7153 C 673.479 1.02037 -3.21076 0
M  V30 7154 O 674.009 2.09862 -3.42522 0
M  V30 7155 N 672.215 0.946348 -2.74759 0
M  V30 7156 H 671.762 0.068777 -2.57508 0
M  V30 7157 H 671.72 1.79775 -2.57931 0
M  V30 7158 N 675.492 1.28418 -0.913599 0
M  V30 7159 C 676.425 2.25557 -0.346328 0
M  V30 7160 C 677.403 1.53038 0.549366 0
M  V30 7161 O 678.587 1.81937 0.493055 0
M  V30 7162 C 675.714 3.34915 0.504961 0
M  V30 7163 C 674.76 4.25257 -0.325334 0
M  V30 7164 S 675.593 5.06718 -1.73198 0
M  V30 7165 C 676.749 6.19569 -0.887988 0
M  V30 7166 H 676.982 2.73325 -1.16965 0
M  V30 7167 H 674.515 1.36855 -0.714841 0
M  V30 7168 H 676.473 3.98376 0.990301 0
M  V30 7169 H 675.134 2.85814 1.30267 0
M  V30 7170 H 674.327 5.02947 0.325589 0
M  V30 7171 H 673.929 3.66519 -0.744321 0
M  V30 7172 H 676.221 6.77398 -0.117568 0
M  V30 7173 H 677.164 6.88908 -1.63742 0
M  V30 7174 H 677.572 5.62812 -0.436228 0
M  V30 7175 N 676.97 0.677563 1.42291 0
M  V30 7176 C 678.381 0.277912 1.8462 0
M  V30 7177 C 678.732 -1.18048 1.56714 0
M  V30 7178 O 677.857 -1.90404 1.02836 0
M  V30 7179 C 678.452 0.497619 3.35126 0
M  V30 7180 C 677.011 0.152063 3.76093 0
M  V30 7181 C 676.158 0.78872 2.65847 0
M  V30 7182 H 679.109 0.879527 1.32098 0
M  V30 7183 H 679.13 -0.24939 3.79682 0
M  V30 7184 H 678.642 1.55913 3.55405 0
M  V30 7185 H 676.743 -0.905896 3.6142 0
M  V30 7186 H 676.856 0.594514 4.75397 0
M  V30 7187 H 675.22 0.219813 2.5375 0
M  V30 7188 H 676.003 1.85374 2.88949 0
M  V30 7189 N 678.448 -1.51871 0.421078 0
M  V30 7190 C 679.673 -2.0684 -0.152371 0
M  V30 7191 C 680.098 -1.28802 -1.37083 0
M  V30 7192 O 679.456 -0.321482 -1.78427 0
M  V30 7193 C 679.504 -3.57532 -0.469368 0
M  V30 7194 O 678.608 -3.81818 -1.55848 0
M  V30 7195 H 677.949 -0.663939 -0.00898586 0
M  V30 7196 H 680.479 -1.95674 0.597724 0
M  V30 7197 H 680.489 -4.01515 -0.724553 0
M  V30 7198 H 679.164 -4.13761 0.421276 0
M  V30 7199 H 677.741 -3.49709 -1.29453 0
M  V30 7200 N 679.926 -0.151884 -1.56866 0
M  V30 7201 C 680.874 0.80299 -2.183 0
M  V30 7202 C 681.868 1.25174 -1.14139 0
M  V30 7203 O 683.074 1.21966 -1.3238 0
M  V30 7204 H 679.449 0.277169 -0.699057 0
M  V30 7205 H 681.42 0.260699 -2.97259 0
M  V30 7206 C 680.169 2.03009 -2.82281 0
M  V30 7207 H 679.492 1.69377 -3.62148 0
M  V30 7208 H 680.932 2.67753 -3.28762 0
M  V30 7209 C 679.391 2.84123 -1.81041 0
M  V30 7210 O 679.921 3.8063 -1.28388 0
M  V30 7211 N 678.127 2.48753 -1.50234 0
M  V30 7212 H 677.674 1.70337 -1.93244 0
M  V30 7213 H 677.632 3.03316 -0.827445 0
M  V30 7214 N 681.404 1.57128 0.121893 0
M  V30 7215 C 682.314 2.03425 1.16857 0
M  V30 7216 C 683.33 0.954108 1.45509 0
M  V30 7217 O 684.506 1.26541 1.56682 0
M  V30 7218 C 681.571 2.42685 2.47599 0
M  V30 7219 C 680.632 3.64767 2.2637 0
M  V30 7220 C 679.865 4.02145 3.50878 0
M  V30 7221 O 680.088 3.39897 4.58068 0
M  V30 7222 O 679.022 4.95262 3.42051 0
M  V30 7223 H 682.848 2.92825 0.80544 0
M  V30 7224 H 680.433 1.45654 0.332477 0
M  V30 7225 H 682.315 2.68684 3.24634 0
M  V30 7226 H 680.99 1.56432 2.83392 0
M  V30 7227 H 679.897 3.43922 1.47203 0
M  V30 7228 H 681.23 4.51716 1.95482 0
M  V30 7229 N 682.882 -0.391992 1.52647 0
M  V30 7230 C 683.829 -1.47866 1.77213 0
M  V30 7231 C 684.799 -1.54286 0.615223 0
M  V30 7232 O 685.984 -1.7059 0.854622 0
M  V30 7233 C 683.124 -2.85129 1.94411 0
M  V30 7234 C 682.237 -2.87883 3.22098 0
M  V30 7235 C 681.372 -4.16553 3.29631 0
M  V30 7236 C 680.411 -4.13348 4.51453 0
M  V30 7237 N 679.548 -5.33619 4.56284 0
M  V30 7238 H 684.388 -1.26219 2.6995 0
M  V30 7239 H 681.925 -0.612367 1.33748 0
M  V30 7240 H 683.883 -3.64833 2.02367 0
M  V30 7241 H 682.513 -3.05232 1.05038 0
M  V30 7242 H 681.565 -2.00567 3.23229 0
M  V30 7243 H 682.877 -2.81382 4.11856 0
M  V30 7244 H 682.031 -5.0466 3.36753 0
M  V30 7245 H 680.77 -4.25773 2.37842 0
M  V30 7246 H 679.775 -3.23629 4.44459 0
M  V30 7247 H 681 -4.05754 5.44555 0
M  V30 7248 H 678.946 -5.43474 3.67385 0
M  V30 7249 H 678.863 -5.29182 5.3991 0
M  V30 7250 H 680.131 -6.23632 4.67657 0
M  V30 7251 N 684.36 -1.4356 -0.65026 0
M  V30 7252 C 685.771 -1.40324 -1.2315 0
M  V30 7253 C 686.122 -0.108812 -1.95898 0
M  V30 7254 O 685.247 0.79163 -2.01401 0
M  V30 7255 C 685.842 -2.54195 -2.23987 0
M  V30 7256 C 684.401 -2.54215 -2.77582 0
M  V30 7257 C 683.548 -2.31752 -1.5227 0
M  V30 7258 H 686.499 -1.52418 -0.442095 0
M  V30 7259 H 686.52 -2.25854 -3.0622 0
M  V30 7260 H 686.032 -3.48392 -1.71011 0
M  V30 7261 H 684.133 -1.63907 -3.34612 0
M  V30 7262 H 684.246 -3.52081 -3.24925 0
M  V30 7263 H 682.61 -1.80476 -1.79723 0
M  V30 7264 H 683.393 -3.28037 -1.01225 0
M  V30 7265 N 685.838 0.888903 -1.30139 0
M  V30 7266 C 686.785 1.99422 -1.16188 0
M  V30 7267 C 687.755 1.66017 -0.0523869 0
M  V30 7268 O 688.94 1.89506 -0.221864 0
M  V30 7269 C 686.08 3.34325 -0.855612 0
M  V30 7270 C 685.193 3.80445 -2.0466 0
M  V30 7271 C 684.328 5.03975 -1.67876 0
M  V30 7272 C 683.367 5.42492 -2.83493 0
M  V30 7273 N 682.504 6.57206 -2.47032 0
M  V30 7274 H 687.344 2.10687 -2.10749 0
M  V30 7275 H 684.881 1.03165 -1.04859 0
M  V30 7276 H 686.839 4.11968 -0.658681 0
M  V30 7277 H 685.469 3.22756 0.0531155 0
M  V30 7278 H 684.521 2.98745 -2.3549 0
M  V30 7279 H 685.833 4.04933 -2.91257 0
M  V30 7280 H 684.987 5.89232 -1.44535 0
M  V30 7281 H 683.726 4.8135 -0.784431 0
M  V30 7282 H 682.731 4.55764 -3.07505 0
M  V30 7283 H 683.956 5.67093 -3.73607 0
M  V30 7284 H 681.902 6.36164 -1.601 0
M  V30 7285 H 681.819 6.81543 -3.27161 0
M  V30 7286 H 683.087 7.45704 -2.27038 0
M  V30 7287 N 687.317 1.12792 1.10072 0
M  V30 7288 C 688.557 0.895691 1.8373 0
M  V30 7289 C 688.921 -0.568131 1.83402 0
M  V30 7290 O 690.122 -0.917666 2.52651 0
M  V30 7291 C 688.393 1.4593 3.2625 0
M  V30 7292 S 689.952 1.36615 4.16991 0
M  V30 7293 H 686.77 0.323017 0.633389 0
M  V30 7294 H 689.372 1.43816 1.32428 0
M  V30 7295 H 688.076 2.51818 3.24062 0
M  V30 7296 H 687.607 0.914478 3.82624 0
M  V30 7297 H 689.622 0.340131 4.95033 0
M  V30 7298 N 688.795 -1.27931 0.920396 0
M  V30 7299 C 690.206 -1.76707 0.602616 0
M  V30 7300 C 690.557 -1.75249 -0.882159 0
M  V30 7301 O 689.682 -1.35135 -1.69019 0
M  V30 7302 C 690.277 -3.20884 1.08714 0
M  V30 7303 C 688.836 -3.67356 0.820157 0
M  V30 7304 C 687.983 -2.47525 1.25006 0
M  V30 7305 H 690.934 -1.14301 1.10095 0
M  V30 7306 H 690.955 -3.78045 0.431535 0
M  V30 7307 H 690.467 -3.21913 2.1678 0
M  V30 7308 H 688.568 -3.7178 -0.247012 0
M  V30 7309 H 688.681 -4.57181 1.43257 0
M  V30 7310 H 687.045 -2.45765 0.668698 0
M  V30 7311 H 687.828 -2.51269 2.3392 0
M  V30 7312 N 690.273 -0.685099 -1.4193 0
M  V30 7313 C 691.183 -0.013404 -2.34596 0
M  V30 7314 C 692.199 0.777589 -1.55658 0
M  V30 7315 O 693.375 0.717553 -1.88184 0
M  V30 7316 C 690.44 0.919031 -3.34297 0
M  V30 7317 C 689.501 0.121417 -4.29128 0
M  V30 7318 C 688.734 1.00944 -5.24067 0
M  V30 7319 O 688.957 2.24898 -5.24192 0
M  V30 7320 O 687.891 0.464724 -6.00103 0
M  V30 7321 H 691.717 -0.776978 -2.93593 0
M  V30 7322 H 689.302 -0.445379 -1.42607 0
M  V30 7323 H 691.184 1.45402 -3.9552 0
M  V30 7324 H 689.859 1.66228 -2.77759 0
M  V30 7325 H 688.766 -0.45792 -3.71287 0
M  V30 7326 H 690.099 -0.582937 -4.88736 0
M  V30 7327 N 691.751 1.51645 -0.429126 0
M  V30 7328 C 692.681 2.30434 0.377148 0
M  V30 7329 C 693.662 1.35493 1.02838 0
M  V30 7330 O 694.847 1.6441 1.03359 0
M  V30 7331 C 691.977 3.14038 1.48315 0
M  V30 7332 C 690.931 4.1719 0.955855 0
M  V30 7333 C 690.257 4.89263 2.15698 0
M  V30 7334 C 691.557 5.223 -0.00402136 0
M  V30 7335 H 693.251 2.98085 -0.280336 0
M  V30 7336 H 690.797 1.43354 -0.136265 0
M  V30 7337 H 692.75 3.67933 2.05435 0
M  V30 7338 H 691.474 2.44193 2.16881 0
M  V30 7339 H 690.133 3.64335 0.406929 0
M  V30 7340 H 689.781 4.15929 2.82864 0
M  V30 7341 H 689.481 5.59009 1.81059 0
M  V30 7342 H 691.005 5.45978 2.73387 0
M  V30 7343 H 692.419 5.71315 0.476607 0
M  V30 7344 H 690.816 5.99525 -0.26258 0
M  V30 7345 H 691.886 4.75638 -0.943236 0
M  V30 7346 N 693.229 0.160201 1.56784 0
M  V30 7347 C 694.64 -0.358417 1.83227 0
M  V30 7348 C 694.991 -1.63831 1.07952 0
M  V30 7349 O 694.116 -2.13885 0.328995 0
M  V30 7350 C 694.711 -0.657058 3.32368 0
M  V30 7351 C 693.27 -1.12015 3.59346 0
M  V30 7352 C 692.417 -0.15015 2.76893 0
M  V30 7353 H 695.368 0.384669 1.53967 0
M  V30 7354 H 695.389 -1.51033 3.49241 0
M  V30 7355 H 694.901 0.274647 3.87127 0
M  V30 7356 H 693.002 -2.06734 3.09987 0
M  V30 7357 H 693.115 -1.037 4.67743 0
M  V30 7358 H 691.479 -0.645361 2.46388 0
M  V30 7359 H 692.262 0.775379 3.34429 0
M  V30 7360 N 694.707 -1.5719 -0.113559 0
M  V30 7361 C 696.118 -1.74259 -0.670116 0
M  V30 7362 C 696.469 -0.779694 -1.80042 0
M  V30 7363 O 695.594 0.0461353 -2.16351 0
M  V30 7364 C 696.189 -3.15981 -1.22236 0
M  V30 7365 C 694.748 -3.34537 -1.72516 0
M  V30 7366 C 693.895 -2.70116 -0.627098 0
M  V30 7367 H 696.846 -1.58301 0.112396 0
M  V30 7368 H 696.867 -3.17832 -2.09197 0
M  V30 7369 H 696.379 -3.86038 -0.39949 0
M  V30 7370 H 694.48 -2.6953 -2.57263 0
M  V30 7371 H 694.593 -4.42737 -1.83086 0
M  V30 7372 H 692.957 -2.31501 -1.06204 0
M  V30 7373 H 693.74 -3.42802 0.184889 0
M  V30 7374 N 696.185 0.383891 -1.52853 0
M  V30 7375 C 697.432 1.12842 -1.68146 0
M  V30 7376 C 697.76 1.89823 -0.423954 0
M  V30 7377 O 697.015 1.86475 0.593765 0
M  V30 7378 C 697.314 2.12881 -2.87082 0
M  V30 7379 C 696.98 1.52519 -4.24322 0
M  V30 7380 C 695.642 1.35783 -4.61645 0
M  V30 7381 C 697.994 1.0868 -5.09743 0
M  V30 7382 C 695.322 0.737643 -5.82044 0
M  V30 7383 C 697.674 0.480699 -6.30771 0
M  V30 7384 C 696.338 0.300681 -6.66822 0
M  V30 7385 H 695.608 0.412917 -0.615289 0
M  V30 7386 H 698.255 0.412416 -1.87006 0
M  V30 7387 H 696.56 2.90719 -2.62659 0
M  V30 7388 H 698.257 2.70408 -2.96109 0
M  V30 7389 H 694.847 1.66534 -3.94923 0
M  V30 7390 H 699.031 1.2041 -4.81472 0
M  V30 7391 H 694.287 0.586415 -6.08581 0
M  V30 7392 H 698.461 0.132733 -6.96273 0
M  V30 7393 H 696.088 -0.181966 -7.59982 0
M  V30 7394 N 697.663 1.43903 0.642637 0
M  V30 7395 C 699.074 1.40975 1.22404 0
M  V30 7396 C 699.425 0.1192 1.95838 0
M  V30 7397 O 698.55 -0.780939 2.01818 0
M  V30 7398 C 699.145 2.5538 2.22636 0
M  V30 7399 C 697.704 2.55684 2.76229 0
M  V30 7400 C 696.851 2.32556 1.51039 0
M  V30 7401 H 699.802 1.5265 0.434006 0
M  V30 7402 H 699.823 2.27474 3.05017 0
M  V30 7403 H 699.335 3.49294 1.69161 0
M  V30 7404 H 697.436 1.65679 3.33738 0
M  V30 7405 H 697.549 3.53799 3.23053 0
M  V30 7406 H 695.913 1.81427 1.78764 0
M  V30 7407 H 696.696 3.28569 0.99484 0
M  V30 7408 N 699.141 -0.881989 1.30609 0
M  V30 7409 C 700.366 -1.67236 1.22665 0
M  V30 7410 C 700.791 -1.8696 -0.206777 0
M  V30 7411 O 700.149 -1.4027 -1.14865 0
M  V30 7412 C 700.197 -3.02446 1.96363 0
M  V30 7413 O 699.301 -3.91614 1.29276 0
M  V30 7414 H 698.642 -0.510902 0.424117 0
M  V30 7415 H 701.172 -1.10055 1.72479 0
M  V30 7416 H 701.182 -3.52468 2.055 0
M  V30 7417 H 699.857 -2.8741 3.00613 0
M  V30 7418 H 698.434 -3.50055 1.28514 0
M  V30 7419 N 700.619 -1.13374 -1.09472 0
M  V30 7420 C 701.859 -0.905422 -1.83252 0
M  V30 7421 C 702.223 0.558396 -1.83701 0
M  V30 7422 O 703.424 0.904254 -2.53134 0
M  V30 7423 C 701.695 -1.47658 -3.25472 0
M  V30 7424 S 703.254 -1.38825 -4.16261 0
M  V30 7425 H 700.072 -0.326371 -0.631667 0
M  V30 7426 H 702.674 -1.44517 -1.31663 0
M  V30 7427 H 701.378 -2.53533 -3.22722 0
M  V30 7428 H 700.909 -0.934756 -3.82133 0
M  V30 7429 H 702.924 -0.366379 -4.94846 0
M  V30 7430 N 702.098 1.27442 -0.927168 0
M  V30 7431 C 703.028 2.29256 -0.443188 0
M  V30 7432 C 704.009 1.62701 0.49624 0
M  V30 7433 O 705.194 1.90013 0.401105 0
M  V30 7434 C 702.324 3.45955 0.305366 0
M  V30 7435 C 701.278 4.24501 -0.546178 0
M  V30 7436 C 700.604 5.33671 0.331512 0
M  V30 7437 C 701.904 4.89921 -1.81037 0
M  V30 7438 H 703.598 2.69988 -1.29409 0
M  V30 7439 H 701.144 1.29792 -0.623705 0
M  V30 7440 H 703.097 4.1628 0.654885 0
M  V30 7441 H 701.821 3.04138 1.19029 0
M  V30 7442 H 700.48 3.55921 -0.878398 0
M  V30 7443 H 700.128 4.88096 1.21537 0
M  V30 7444 H 699.828 5.87131 -0.234746 0
M  V30 7445 H 701.352 6.0684 0.676614 0
M  V30 7446 H 702.766 5.52536 -1.52895 0
M  V30 7447 H 701.163 5.53436 -2.32009 0
M  V30 7448 H 702.233 4.13652 -2.53021 0
M  V30 7449 N 703.576 0.692616 1.41565 0
M  V30 7450 C 704.801 0.229776 2.06123 0
M  V30 7451 C 705.226 -1.11119 1.5177 0
M  V30 7452 O 704.584 -1.69498 0.643444 0
M  V30 7453 C 704.632 0.19469 3.60074 0
M  V30 7454 O 703.736 -0.831366 4.03933 0
M  V30 7455 H 703.077 0.113002 0.654314 0
M  V30 7456 H 705.607 0.946645 1.81383 0
M  V30 7457 H 705.617 0.0245487 4.07993 0
M  V30 7458 H 704.292 1.17339 3.99004 0
M  V30 7459 H 702.869 -0.630819 3.67526 0
M  V30 7460 N 705.054 -1.51416 0.437162 0
M  V30 7461 C 706.282 -2.06503 -0.128045 0
M  V30 7462 C 706.697 -1.30461 -1.36475 0
M  V30 7463 O 706.054 -0.364127 -1.78831 0
M  V30 7464 C 706.105 -3.58683 -0.450437 0
M  V30 7465 O 705.826 -4.31853 0.737186 0
M  V30 7466 C 707.327 -4.30284 -1.06633 0
M  V30 7467 H 704.547 -0.670952 -0.00800269 0
M  V30 7468 H 707.091 -1.94996 0.616193 0
M  V30 7469 H 705.246 -3.70106 -1.14457 0
M  V30 7470 H 705.66 -5.22467 0.461347 0
M  V30 7471 H 707.134 -5.37848 -1.24191 0
M  V30 7472 H 707.611 -3.88564 -2.0473 0
M  V30 7473 H 708.217 -4.23304 -0.411585 0
M  V30 7474 N 706.532 -0.168513 -1.56696 0
M  V30 7475 C 707.778 0.477865 -1.9709 0
M  V30 7476 C 708.111 1.63084 -1.05438 0
M  V30 7477 O 707.386 1.94238 -0.10095 0
M  V30 7478 C 707.669 0.963521 -3.4697 0
M  V30 7479 C 707.522 -0.189443 -4.49401 0
M  V30 7480 C 708.841 1.83813 -3.99876 0
M  V30 7481 H 705.96 0.172229 -0.716593 0
M  V30 7482 H 708.602 -0.254083 -1.88293 0
M  V30 7483 H 706.752 1.58724 -3.54597 0
M  V30 7484 H 708.424 -0.826451 -4.53836 0
M  V30 7485 H 706.667 -0.845366 -4.25483 0
M  V30 7486 H 707.338 0.192446 -5.51664 0
M  V30 7487 H 709.814 1.31235 -3.94863 0
M  V30 7488 H 708.69 2.14697 -5.0517 0
M  V30 7489 H 708.951 2.78289 -3.43523 0
M  V30 7490 N 708.01 1.57248 0.105221 0
M  V30 7491 C 708.96 1.9777 1.1345 0
M  V30 7492 C 709.944 0.854654 1.36325 0
M  V30 7493 O 711.136 1.11844 1.37186 0
M  V30 7494 C 708.265 2.39717 2.45745 0
M  V30 7495 C 707.351 3.58686 2.26286 0
M  V30 7496 N 707.742 4.73942 1.76671 0
M  V30 7497 C 706.04 3.64586 2.56891 0
M  V30 7498 C 706.741 5.55923 1.71245 0
M  V30 7499 N 705.717 4.98803 2.16093 0
M  V30 7500 H 709.519 2.84336 0.743664 0
M  V30 7501 H 707.033 1.59359 0.312787 0
M  V30 7502 H 709.03 2.66971 3.20206 0
M  V30 7503 H 707.69 1.54523 2.85574 0
M  V30 7504 H 708.701 4.9689 1.46016 0
M  V30 7505 H 705.378 2.90031 3.00314 0
M  V30 7506 H 706.768 6.58398 1.34022 0
M  V30 7507 N 709.488 -0.375779 1.53054 0
M  V30 7508 C 710.735 -1.11948 1.68742 0
M  V30 7509 C 711.063 -1.89596 0.434015 0
M  V30 7510 O 710.318 -1.86787 -0.583867 0
M  V30 7511 C 710.617 -2.11356 2.88207 0
M  V30 7512 C 710.283 -1.50266 4.25124 0
M  V30 7513 C 708.945 -1.33333 4.62359 0
M  V30 7514 C 711.297 -1.05976 5.10312 0
M  V30 7515 C 708.625 -0.706765 5.82427 0
M  V30 7516 C 710.977 -0.447241 6.31017 0
M  V30 7517 C 709.641 -0.265314 6.66973 0
M  V30 7518 H 708.911 -0.409648 0.61747 0
M  V30 7519 H 711.558 -0.402492 1.87222 0
M  V30 7520 H 709.863 -2.89322 2.64197 0
M  V30 7521 H 711.56 -2.68833 2.97539 0
M  V30 7522 H 708.15 -1.64437 3.95801 0
M  V30 7523 H 712.334 -1.17855 4.82104 0
M  V30 7524 H 707.59 -0.554132 6.08884 0
M  V30 7525 H 711.764 -0.0958064 6.96334 0
M  V30 7526 H 709.391 0.222267 7.59875 0
M  V30 7527 N 710.966 -1.44241 -0.634997 0
M  V30 7528 C 712.215 -1.46102 -1.39058 0
M  V30 7529 C 712.528 -0.0959909 -1.95364 0
M  V30 7530 O 713.734 0.00788751 -2.71499 0
M  V30 7531 C 712.19 -2.57195 -2.51751 0
M  V30 7532 C 711.798 -3.99888 -2.01974 0
M  V30 7533 C 713.542 -2.68272 -3.28984 0
M  V30 7534 C 711.449 -5.02412 -3.11987 0
M  V30 7535 H 710.379 -0.543556 -0.522554 0
M  V30 7536 H 713.03 -1.70294 -0.683538 0
M  V30 7537 H 711.412 -2.26237 -3.25012 0
M  V30 7538 H 712.586 -4.40396 -1.35604 0
M  V30 7539 H 710.901 -3.93019 -1.37568 0
M  V30 7540 H 713.498 -3.42042 -4.10988 0
M  V30 7541 H 713.841 -1.73957 -3.78212 0
M  V30 7542 H 714.374 -2.98622 -2.62812 0
M  V30 7543 H 711.113 -5.98342 -2.67707 0
M  V30 7544 H 710.633 -4.66501 -3.77011 0
M  V30 7545 H 712.312 -5.25939 -3.76825 0
M  V30 7546 N 712.444 0.87505 -1.31075 0
M  V30 7547 C 713.693 1.62245 -1.19831 0
M  V30 7548 C 714.006 1.94078 0.24357 0
M  V30 7549 O 715.212 2.67265 0.477646 0
M  V30 7550 C 713.668 2.92464 -2.09744 0
M  V30 7551 C 713.276 2.68134 -3.58898 0
M  V30 7552 C 715.02 3.70449 -2.07287 0
M  V30 7553 C 712.927 3.9423 -4.40836 0
M  V30 7554 H 711.857 0.608741 -0.444916 0
M  V30 7555 H 714.508 0.967947 -1.55894 0
M  V30 7556 H 712.89 3.59262 -1.66574 0
M  V30 7557 H 714.064 2.09776 -4.10281 0
M  V30 7558 H 712.379 2.03511 -3.6328 0
M  V30 7559 H 714.976 4.63983 -2.65752 0
M  V30 7560 H 715.319 4.02611 -1.05876 0
M  V30 7561 H 715.852 3.10528 -2.48631 0
M  V30 7562 H 712.591 3.67221 -5.42982 0
M  V30 7563 H 712.111 4.52058 -3.94213 0
M  V30 7564 H 713.79 4.62162 -4.52786 0
M  V30 7565 N 713.922 1.13953 1.08869 0
M  V30 7566 C 715.169 0.90481 1.81161 0
M  V30 7567 C 715.497 -0.568824 1.85996 0
M  V30 7568 O 714.752 -1.43723 1.32823 0
M  V30 7569 C 715.051 1.44495 3.26888 0
M  V30 7570 C 714.717 2.93641 3.42178 0
M  V30 7571 C 713.379 3.34361 3.46059 0
M  V30 7572 C 715.731 3.89568 3.46246 0
M  V30 7573 C 713.059 4.69681 3.51592 0
M  V30 7574 C 715.411 5.2474 3.53314 0
M  V30 7575 C 714.075 5.64979 3.55465 0
M  V30 7576 H 713.345 0.331094 0.662916 0
M  V30 7577 H 715.992 1.42242 1.28217 0
M  V30 7578 H 714.297 0.848169 3.82509 0
M  V30 7579 H 715.994 1.23934 3.81368 0
M  V30 7580 H 712.584 2.61156 3.39846 0
M  V30 7581 H 716.768 3.59192 3.42483 0
M  V30 7582 H 712.024 5.00224 3.51547 0
M  V30 7583 H 716.198 5.98882 3.55406 0
M  V30 7584 H 713.825 6.69821 3.59505 0
M  V30 7585 N 715.4 -1.26948 0.933913 0
M  V30 7586 C 716.646 -1.94374 0.57848 0
M  V30 7587 C 716.979 -1.73166 -0.879048 0
M  V30 7588 O 716.254 -1.06438 -1.62792 0
M  V30 7589 C 716.537 -3.4834 0.912739 0
M  V30 7590 C 716.39 -3.78866 2.42448 0
M  V30 7591 C 717.709 -4.38062 0.423003 0
M  V30 7592 H 714.828 -0.705959 0.211639 0
M  V30 7593 H 717.47 -1.49951 1.16682 0
M  V30 7594 H 715.62 -3.86309 0.412058 0
M  V30 7595 H 717.292 -3.50654 2.99733 0
M  V30 7596 H 715.535 -3.25198 2.87104 0
M  V30 7597 H 716.206 -4.86458 2.60887 0
M  V30 7598 H 718.682 -4.0728 0.852191 0
M  V30 7599 H 717.558 -5.44599 0.685776 0
M  V30 7600 H 717.819 -4.36886 -0.676994 0
M  V30 7601 N 716.879 -0.700114 -1.41195 0
M  V30 7602 C 718.125 -0.233351 -2.01453 0
M  V30 7603 C 718.458 1.16548 -1.55339 0
M  V30 7604 O 717.733 1.78756 -0.766575 0
M  V30 7605 C 718.016 -0.2961 -3.58881 0
M  V30 7606 C 717.869 -1.7322 -4.15108 0
M  V30 7607 C 719.188 0.341525 -4.38773 0
M  V30 7608 H 716.307 -0.0862667 -0.731934 0
M  V30 7609 H 718.949 -0.889693 -1.67882 0
M  V30 7610 H 717.099 0.262736 -3.87611 0
M  V30 7611 H 718.771 -2.34523 -3.97236 0
M  V30 7612 H 717.014 -2.2649 -3.69979 0
M  V30 7613 H 717.685 -1.7276 -5.24269 0
M  V30 7614 H 720.161 -0.134461 -4.15883 0
M  V30 7615 H 719.037 0.267098 -5.4825 0
M  V30 7616 H 719.298 1.42289 -4.18577 0
M  V30 7617 N 718.357 1.51182 -0.445186 0
M  V30 7618 C 719.603 2.02452 0.11882 0
M  V30 7619 C 719.936 1.32824 1.41673 0
M  V30 7620 O 719.211 0.445637 1.89326 0
M  V30 7621 C 719.494 3.5859 0.329475 0
M  V30 7622 C 719.347 4.38823 -0.987638 0
M  V30 7623 C 720.666 4.26241 1.09575 0
M  V30 7624 H 717.785 0.735819 0.0417092 0
M  V30 7625 H 720.427 1.80747 -0.585718 0
M  V30 7626 H 718.577 3.77214 0.9296 0
M  V30 7627 H 720.249 4.3183 -1.62235 0
M  V30 7628 H 718.492 4.03594 -1.59041 0
M  V30 7629 H 719.163 5.46257 -0.794192 0
M  V30 7630 H 721.639 4.11934 0.587328 0
M  V30 7631 H 720.515 5.35354 1.21191 0
M  V30 7632 H 720.776 3.87635 2.12584 0
M  V30 7633 N 719.835 0.176821 1.56605 0
M  V30 7634 C 720.767 -0.782836 2.15417 0
M  V30 7635 C 721.78 -1.18982 1.11117 0
M  V30 7636 O 722.969 -1.12872 1.38283 0
M  V30 7637 C 720.069 -2.06596 2.68647 0
M  V30 7638 C 719.242 -1.82167 3.9766 0
M  V30 7639 C 718.301 -2.94751 4.35899 0
M  V30 7640 O 717.327 -2.65148 5.03672 0
M  V30 7641 N 718.529 -4.2267 3.97907 0
M  V30 7642 H 721.294 -0.280012 2.98389 0
M  V30 7643 H 718.855 -0.00577529 1.61899 0
M  V30 7644 H 720.847 -2.81018 2.91223 0
M  V30 7645 H 719.417 -2.48054 1.90232 0
M  V30 7646 H 718.637 -0.916208 3.83405 0
M  V30 7647 H 719.925 -1.6322 4.81909 0
M  V30 7648 H 719.323 -4.4958 3.43357 0
M  V30 7649 H 717.88 -4.93778 4.25472 0
M  V30 7650 N 721.313 -1.57302 -0.09688 0
M  V30 7651 C 722.541 -1.90202 -0.814295 0
M  V30 7652 C 722.956 -0.770344 -1.72369 0
M  V30 7653 O 722.313 0.257764 -1.8067 0
M  V30 7654 C 722.364 -3.22708 -1.62916 0
M  V30 7655 O 722.085 -4.31522 -0.756343 0
M  V30 7656 C 723.586 -3.69459 -2.44979 0
M  V30 7657 H 720.806 -0.629275 -0.232925 0
M  V30 7658 H 723.35 -2.04364 -0.0746482 0
M  V30 7659 H 721.505 -3.1015 -2.32133 0
M  V30 7660 H 721.919 -5.07604 -1.32054 0
M  V30 7661 H 723.393 -4.64875 -2.9765 0
M  V30 7662 H 723.87 -2.97211 -3.23361 0
M  V30 7663 H 724.476 -3.84879 -1.80964 0
M  V30 7664 N 722.791 0.367657 -1.53252 0
M  V30 7665 C 724.037 1.11216 -1.69584 0
M  V30 7666 C 724.37 1.89026 -0.445269 0
M  V30 7667 O 723.645 1.86342 0.557404 0
M  V30 7668 C 723.928 2.07308 -2.94441 0
M  V30 7669 C 723.781 1.3312 -4.2965 0
M  V30 7670 C 725.1 3.07459 -3.14892 0
M  V30 7671 H 722.219 0.40294 -0.617096 0
M  V30 7672 H 724.861 0.393201 -1.85887 0
M  V30 7673 H 723.011 2.68617 -2.80673 0
M  V30 7674 H 724.683 0.746111 -4.55226 0
M  V30 7675 H 722.926 0.633051 -4.29156 0
M  V30 7676 H 723.597 2.03443 -5.13142 0
M  V30 7677 H 726.073 2.56252 -3.27832 0
M  V30 7678 H 724.949 3.71919 -4.03693 0
M  V30 7679 H 725.21 3.77514 -2.30077 0
M  V30 7680 N 724.269 1.44576 0.627338 0
M  V30 7681 C 725.199 1.54562 1.75022 0
M  V30 7682 C 726.18 0.398378 1.65369 0
M  V30 7683 O 727.365 0.61899 1.84071 0
M  V30 7684 C 724.495 1.49309 3.13567 0
M  V30 7685 C 723.449 2.62549 3.38012 0
M  V30 7686 C 722.775 2.42348 4.76625 0
M  V30 7687 C 724.075 4.04678 3.30202 0
M  V30 7688 H 725.769 2.4855 1.66922 0
M  V30 7689 H 723.315 1.19624 0.801636 0
M  V30 7690 H 725.268 1.54895 3.919 0
M  V30 7691 H 723.992 0.518392 3.2246 0
M  V30 7692 H 722.651 2.56358 2.62061 0
M  V30 7693 H 722.299 1.43062 4.82226 0
M  V30 7694 H 721.999 3.18273 4.93939 0
M  V30 7695 H 723.523 2.49758 5.57183 0
M  V30 7696 H 724.937 4.12217 3.98435 0
M  V30 7697 H 723.334 4.80836 3.5905 0
M  V30 7698 H 724.404 4.2798 2.27949 0
M  V30 7699 N 725.747 -0.868086 1.31537 0
M  V30 7700 C 726.994 -1.62127 1.2133 0
M  V30 7701 C 727.322 -1.93158 -0.2281 0
M  V30 7702 O 726.577 -1.5632 -1.1774 0
M  V30 7703 C 726.876 -2.95889 2.0046 0
M  V30 7704 C 726.542 -2.84343 3.49943 0
M  V30 7705 C 725.204 -2.80901 3.90702 0
M  V30 7706 C 727.556 -2.71243 4.45058 0
M  V30 7707 C 724.884 -2.6222 5.24841 0
M  V30 7708 C 727.236 -2.54098 5.79325 0
M  V30 7709 C 725.9 -2.4904 6.19302 0
M  V30 7710 H 725.17 -0.593265 0.443979 0
M  V30 7711 H 727.817 -1.00803 1.62822 0
M  V30 7712 H 726.122 -3.61259 1.51655 0
M  V30 7713 H 727.819 -3.53161 1.89942 0
M  V30 7714 H 724.409 -2.8784 3.17563 0
M  V30 7715 H 728.593 -2.72956 4.14498 0
M  V30 7716 H 723.849 -2.56731 5.54887 0
M  V30 7717 H 728.023 -2.42938 6.52652 0
M  V30 7718 H 725.65 -2.34324 7.23185 0
M  V30 7719 N 727.225 -1.14528 -1.08264 0
M  V30 7720 C 728.474 -0.908992 -1.80056 0
M  V30 7721 C 728.787 0.565859 -1.87236 0
M  V30 7722 O 729.993 0.919454 -2.55457 0
M  V30 7723 C 728.449 -1.57681 -3.23519 0
M  V30 7724 C 728.057 -3.08803 -3.24569 0
M  V30 7725 C 729.801 -1.4217 -3.99985 0
M  V30 7726 C 727.708 -3.68414 -4.62629 0
M  V30 7727 H 726.638 -0.336432 -0.674781 0
M  V30 7728 H 729.289 -1.37437 -1.21587 0
M  V30 7729 H 727.671 -1.03911 -3.82124 0
M  V30 7730 H 728.845 -3.69252 -2.75663 0
M  V30 7731 H 727.16 -3.23968 -2.61598 0
M  V30 7732 H 729.757 -1.84106 -5.02005 0
M  V30 7733 H 730.1 -0.367989 -4.1467 0
M  V30 7734 H 730.633 -1.92984 -3.47853 0
M  V30 7735 H 727.372 -4.73644 -4.53147 0
M  V30 7736 H 726.892 -3.12746 -5.11811 0
M  V30 7737 H 728.571 -3.68793 -5.31602 0
M  V30 7738 N 728.703 1.26451 -0.940633 0
M  V30 7739 C 729.951 1.93395 -0.586748 0
M  V30 7740 C 730.272 1.7417 0.876921 0
M  V30 7741 O 729.542 1.097 1.62304 0
M  V30 7742 H 728.122 0.715687 -0.214012 0
M  V30 7743 H 730.784 1.53902 -1.19584 0
M  V30 7744 H 729.88 3.01565 -0.804059 0
M  V30 7745 N 730.181 0.707592 1.40822 0
M  V30 7746 C 731.411 0.252706 2.05049 0
M  V30 7747 C 731.819 -1.10758 1.53393 0
M  V30 7748 O 731.162 -1.70567 0.682097 0
M  V30 7749 C 731.224 0.146001 3.59203 0
M  V30 7750 C 730.888 1.44027 4.33711 0
M  V30 7751 C 731.885 2.38058 4.62195 0
M  V30 7752 C 729.57 1.69698 4.72766 0
M  V30 7753 C 731.564 3.56013 5.28709 0
M  V30 7754 C 729.251 2.87936 5.39014 0
M  V30 7755 C 730.249 3.80915 5.66915 0
M  V30 7756 O 729.937 4.9708 6.31796 0
M  V30 7757 H 729.669 0.112784 0.666525 0
M  V30 7758 H 732.223 0.96417 1.81364 0
M  V30 7759 H 730.453 -0.621338 3.81676 0
M  V30 7760 H 732.142 -0.273275 4.04979 0
M  V30 7761 H 732.908 2.19487 4.32493 0
M  V30 7762 H 728.787 0.981835 4.50423 0
M  V30 7763 H 732.331 4.28604 5.50404 0
M  V30 7764 H 728.228 3.06419 5.68135 0
M  V30 7765 H 728.996 4.97053 6.50293 0
M  V30 7766 N 731.66 -1.50943 0.453197 0
M  V30 7767 C 732.909 -2.01402 -0.10951 0
M  V30 7768 C 733.222 -1.3411 -1.42386 0
M  V30 7769 O 734.428 -1.75626 -2.07045 0
M  V30 7770 C 732.884 -3.5906 -0.245693 0
M  V30 7771 C 732.492 -4.353 1.05916 0
M  V30 7772 C 734.236 -4.17617 -0.761318 0
M  V30 7773 C 732.143 -5.84699 0.887752 0
M  V30 7774 H 731.073 -0.752674 -0.0447013 0
M  V30 7775 H 733.724 -1.73913 0.585375 0
M  V30 7776 H 732.106 -3.83062 -1.00395 0
M  V30 7777 H 733.28 -4.23034 1.82698 0
M  V30 7778 H 731.595 -3.88269 1.50452 0
M  V30 7779 H 734.192 -5.26963 -0.906306 0
M  V30 7780 H 734.535 -3.77824 -1.74799 0
M  V30 7781 H 735.068 -3.97753 -0.0609416 0
M  V30 7782 H 731.807 -6.28933 1.84726 0
M  V30 7783 H 731.327 -5.99587 0.160006 0
M  V30 7784 H 733.006 -6.44682 0.547223 0
M  V30 7785 N 733.138 -0.185124 -1.56509 0
M  V30 7786 C 734.071 0.77877 -2.145 0
M  V30 7787 C 735.049 1.21649 -1.07891 0
M  V30 7788 O 736.233 1.30579 -1.35946 0
M  V30 7789 C 733.36 2.05048 -2.69579 0
M  V30 7790 C 732.406 1.75569 -3.88687 0
M  V30 7791 S 733.239 0.912642 -5.27666 0
M  V30 7792 C 734.395 2.19471 -5.8616 0
M  V30 7793 H 734.628 0.285751 -2.95924 0
M  V30 7794 H 732.161 0.0297417 -1.54371 0
M  V30 7795 H 734.119 2.78085 -3.01958 0
M  V30 7796 H 732.78 2.51462 -1.88216 0
M  V30 7797 H 731.973 2.69962 -4.25601 0
M  V30 7798 H 731.575 1.10619 -3.57267 0
M  V30 7799 H 733.867 3.14815 -5.99915 0
M  V30 7800 H 734.81 1.87005 -6.8296 0
M  V30 7801 H 735.218 2.31862 -5.14685 0
M  V30 7802 N 734.616 1.57351 0.0885366 0
M  V30 7803 C 735.846 1.90355 0.80303 0
M  V30 7804 C 736.254 0.777678 1.72478 0
M  V30 7805 O 735.597 -0.258908 1.81866 0
M  V30 7806 C 735.659 3.18674 1.66395 0
M  V30 7807 C 735.323 4.4778 0.913327 0
M  V30 7808 C 736.32 5.19345 0.240148 0
M  V30 7809 C 734.005 4.94434 0.885462 0
M  V30 7810 C 735.999 6.35803 -0.450854 0
M  V30 7811 C 733.686 6.10802 0.190679 0
M  V30 7812 C 734.684 6.81337 -0.476295 0
M  V30 7813 O 734.372 7.95488 -1.15992 0
M  V30 7814 H 734.104 0.634035 0.234469 0
M  V30 7815 H 736.658 2.05287 0.0681959 0
M  V30 7816 H 734.888 2.99906 2.44117 0
M  V30 7817 H 736.577 3.37458 2.2556 0
M  V30 7818 H 737.343 4.84339 0.253092 0
M  V30 7819 H 733.222 4.39417 1.39406 0
M  V30 7820 H 736.766 6.90795 -0.972019 0
M  V30 7821 H 732.663 6.45261 0.175603 0
M  V30 7822 H 733.431 8.11509 -1.06749 0
M  V30 7823 N 736.094 -0.359525 1.53444 0
M  V30 7824 C 737.51 -0.701599 1.43352 0
M  V30 7825 C 737.71 -1.93049 0.577439 0
M  V30 7826 O 736.766 -2.52423 0.0622224 0
M  V30 7827 C 738.079 -0.90915 2.86627 0
M  V30 7828 C 739.627 -1.00878 2.96298 0
M  V30 7829 C 740.102 -1.24876 4.40647 0
M  V30 7830 N 741.593 -1.31632 4.44103 0
M  V30 7831 C 742.328 -1.51922 5.52908 0
M  V30 7832 N 741.824 -1.69489 6.71748 0
M  V30 7833 N 743.617 -1.54341 5.40496 0
M  V30 7834 H 735.768 0.448685 2.07607 0
M  V30 7835 H 738.031 0.138713 0.937797 0
M  V30 7836 H 737.737 -0.0778997 3.51614 0
M  V30 7837 H 737.611 -1.81551 3.30634 0
M  V30 7838 H 739.998 -1.83057 2.31461 0
M  V30 7839 H 740.079 -0.0796721 2.55676 0
M  V30 7840 H 739.723 -0.431961 5.0606 0
M  V30 7841 H 739.653 -2.19118 4.78848 0
M  V30 7842 H 742.144 -1.19646 3.5846 0
M  V30 7843 H 742.457 -1.84561 7.50438 0
M  V30 7844 H 740.802 -1.66655 6.74723 0
M  V30 7845 H 743.993 -1.40188 4.46615 0
M  V30 7846 H 744.166 -1.69812 6.25354 0
M  V30 7847 N 737.572 -1.44907 -0.619662 0
M  V30 7848 C 738.797 -1.52021 -1.41083 0
M  V30 7849 C 739.222 -0.14976 -1.87503 0
M  V30 7850 O 738.58 0.863303 -1.59426 0
M  V30 7851 C 738.628 -2.49911 -2.59955 0
M  V30 7852 O 737.732 -2.00857 -3.60181 0
M  V30 7853 H 737.073 -0.512912 -0.421684 0
M  V30 7854 H 739.603 -1.90149 -0.755282 0
M  V30 7855 H 739.613 -2.68323 -3.07354 0
M  V30 7856 H 738.288 -3.4945 -2.25516 0
M  V30 7857 H 736.865 -1.92265 -3.19513 0
M  V30 7858 N 739.05 0.861098 -1.31996 0
M  V30 7859 C 739.982 1.97551 -1.16216 0
M  V30 7860 C 740.995 1.625 -0.0988527 0
M  V30 7861 O 742.184 1.75091 -0.3472 0
M  V30 7862 C 739.284 3.30376 -0.755307 0
M  V30 7863 C 738.457 3.93711 -1.90552 0
M  V30 7864 C 737.516 5.04862 -1.48328 0
M  V30 7865 O 736.542 5.25204 -2.19431 0
M  V30 7866 N 737.744 5.79283 -0.375656 0
M  V30 7867 H 740.509 2.11632 -2.12208 0
M  V30 7868 H 738.07 1.03559 -1.24448 0
M  V30 7869 H 740.062 4.0213 -0.455364 0
M  V30 7870 H 738.632 3.12395 0.113269 0
M  V30 7871 H 737.852 3.14825 -2.37231 0
M  V30 7872 H 739.14 4.32762 -2.67571 0
M  V30 7873 H 738.538 5.65286 0.216284 0
M  V30 7874 H 737.095 6.5166 -0.135289 0
M  V30 7875 N 740.528 1.15101 1.07655 0
M  V30 7876 C 741.46 0.802722 2.14684 0
M  V30 7877 C 742.473 -0.183874 1.61758 0
M  V30 7878 O 743.662 0.0389349 1.78458 0
M  V30 7879 C 740.762 0.172135 3.38463 0
M  V30 7880 C 739.935 1.19538 4.20749 0
M  V30 7881 C 738.994 0.58714 5.22914 0
M  V30 7882 O 738.02 1.25224 5.55255 0
M  V30 7883 N 739.222 -0.632566 5.77043 0
M  V30 7884 H 741.987 1.72379 2.45164 0
M  V30 7885 H 739.548 1.04647 1.23534 0
M  V30 7886 H 741.54 -0.247465 4.03943 0
M  V30 7887 H 740.11 -0.652214 3.0572 0
M  V30 7888 H 739.33 1.79165 3.51132 0
M  V30 7889 H 740.618 1.88636 4.7254 0
M  V30 7890 H 740.016 -1.19135 5.53013 0
M  V30 7891 H 738.573 -0.994566 6.44167 0
M  V30 7892 N 742.006 -1.2595 0.947325 0
M  V30 7893 C 742.916 -2.29883 0.468079 0
M  V30 7894 C 743.932 -1.67783 -0.460975 0
M  V30 7895 O 745.108 -1.98526 -0.339006 0
M  V30 7896 C 742.173 -3.45773 -0.253315 0
M  V30 7897 C 741.234 -4.23337 0.713054 0
M  V30 7898 C 740.467 -5.33694 0.025993 0
M  V30 7899 O 740.69 -5.57853 -1.18978 0
M  V30 7900 O 739.624 -5.97724 0.70782 0
M  V30 7901 H 743.45 -2.72952 1.33156 0
M  V30 7902 H 741.035 -1.31263 0.713468 0
M  V30 7903 H 742.917 -4.16209 -0.659423 0
M  V30 7904 H 741.592 -3.04721 -1.09209 0
M  V30 7905 H 740.499 -3.55359 1.16923 0
M  V30 7906 H 741.832 -4.68154 1.51963 0
M  V30 7907 N 743.484 -0.715051 -1.40445 0
M  V30 7908 C 744.447 -0.0708726 -2.2909 0
M  V30 7909 C 745.447 0.687926 -1.45342 0
M  V30 7910 O 746.637 0.519908 -1.66261 0
M  V30 7911 C 743.769 0.909528 -3.28543 0
M  V30 7912 H 744.962 -0.851611 -2.87555 0
M  V30 7913 H 742.515 -0.479674 -1.48758 0
M  V30 7914 H 743.25 1.71734 -2.75096 0
M  V30 7915 H 743.035 0.368318 -3.90366 0
M  V30 7916 H 744.525 1.35744 -3.94922 0
M  V30 7917 N 744.962 1.50701 -0.461195 0
M  V30 7918 C 745.925 2.2686 0.326679 0
M  V30 7919 C 746.925 1.31243 0.929085 0
M  V30 7920 O 748.115 1.54754 0.799807 0
M  V30 7921 C 745.247 3.07844 1.46441 0
M  V30 7922 H 746.44 2.97954 -0.341095 0
M  V30 7923 H 743.993 1.54814 -0.214984 0
M  V30 7924 H 744.728 2.41223 2.16753 0
M  V30 7925 H 744.513 3.78101 1.03836 0
M  V30 7926 H 746.003 3.65469 2.02044 0
M  V30 7927 N 746.441 0.193421 1.56409 0
M  V30 7928 C 747.404 -0.714371 2.17783 0
M  V30 7929 C 748.404 -1.1422 1.13183 0
M  V30 7930 O 749.594 -1.05557 1.38576 0
M  V30 7931 C 746.726 -1.97509 2.77855 0
M  V30 7932 H 747.919 -0.179714 2.99361 0
M  V30 7933 H 745.472 -0.0561944 1.56199 0
M  V30 7934 H 746.207 -2.5523 2.0007 0
M  V30 7935 H 745.992 -1.67706 3.54425 0
M  V30 7936 H 747.482 -2.62246 3.24987 0
M  V30 7937 N 747.919 -1.57396 -0.0801906 0
M  V30 7938 C 748.866 -2.03107 -1.09618 0
M  V30 7939 C 749.836 -0.910118 -1.38946 0
M  V30 7940 O 751.021 -1.17719 -1.50156 0
M  V30 7941 C 748.161 -2.47293 -2.40708 0
M  V30 7942 C 747.274 -3.72972 -2.17982 0
M  V30 7943 C 746.409 -4.05975 -3.42576 0
M  V30 7944 C 745.448 -5.24719 -3.15177 0
M  V30 7945 N 744.585 -5.53401 -4.32078 0
M  V30 7946 H 749.425 -2.89677 -0.69939 0
M  V30 7947 H 746.962 -1.43263 -0.333785 0
M  V30 7948 H 748.92 -2.7096 -3.17232 0
M  V30 7949 H 747.55 -1.63713 -2.78205 0
M  V30 7950 H 746.602 -3.56693 -1.32189 0
M  V30 7951 H 747.914 -4.59638 -1.93738 0
M  V30 7952 H 747.068 -4.30498 -4.275 0
M  V30 7953 H 745.807 -3.17859 -3.69887 0
M  V30 7954 H 744.812 -5 -2.28648 0
M  V30 7955 H 746.037 -6.14445 -2.89197 0
M  V30 7956 H 743.983 -4.68245 -4.59437 0
M  V30 7957 H 743.9 -6.34469 -4.11078 0
M  V30 7958 H 745.168 -5.8247 -5.18024 0
M  V30 7959 N 749.397 0.351382 -1.53633 0
M  V30 7960 C 750.344 1.43115 -1.81071 0
M  V30 7961 C 751.314 1.52601 -0.655913 0
M  V30 7962 O 752.499 1.68264 -0.89955 0
M  V30 7963 C 749.639 2.79874 -2.01903 0
M  V30 7964 C 748.752 2.79242 -3.29618 0
M  V30 7965 C 747.887 4.07667 -3.40559 0
M  V30 7966 C 746.926 4.01233 -4.62254 0
M  V30 7967 N 746.063 5.21334 -4.70271 0
M  V30 7968 H 750.903 1.19017 -2.73201 0
M  V30 7969 H 748.44 0.576691 -1.35324 0
M  V30 7970 H 750.398 3.5934 -2.11969 0
M  V30 7971 H 749.028 3.0234 -1.13094 0
M  V30 7972 H 748.08 1.91927 -3.28433 0
M  V30 7973 H 749.392 2.70363 -4.19172 0
M  V30 7974 H 748.546 4.95555 -3.50015 0
M  V30 7975 H 747.285 4.19317 -2.49047 0
M  V30 7976 H 746.29 3.11732 -4.52884 0
M  V30 7977 H 747.515 3.91173 -5.55122 0
M  V30 7978 H 745.461 5.33543 -3.81665 0
M  V30 7979 H 745.378 5.14681 -5.5375 0
M  V30 7980 H 746.646 6.11014 -4.84027 0
M  V30 7981 N 750.875 1.45233 0.611969 0
M  V30 7982 C 752.122 1.49021 1.37109 0
M  V30 7983 C 752.45 0.130227 1.94064 0
M  V30 7984 O 751.705 -0.870551 1.75271 0
M  V30 7985 C 752.004 2.51353 2.54079 0
M  V30 7986 C 751.67 3.96178 2.15299 0
M  V30 7987 C 750.332 4.35614 2.04436 0
M  V30 7988 C 752.684 4.87275 1.84966 0
M  V30 7989 C 750.012 5.64047 1.61456 0
M  V30 7990 C 752.364 6.16115 1.43474 0
M  V30 7991 C 751.028 6.54486 1.31167 0
M  V30 7992 H 750.298 0.545307 0.501719 0
M  V30 7993 H 752.945 1.78555 0.692122 0
M  V30 7994 H 751.25 2.15372 3.27295 0
M  V30 7995 H 752.947 2.51523 3.12309 0
M  V30 7996 H 749.537 3.6499 2.24678 0
M  V30 7997 H 753.721 4.57548 1.92258 0
M  V30 7998 H 748.977 5.92575 1.50547 0
M  V30 7999 H 753.151 6.86149 1.19048 0
M  V30 8000 H 750.778 7.53904 0.97637 0
M  V30 8001 N 752.353 -0.854086 1.3245 0
M  V30 8002 C 753.6 -1.60831 1.23043 0
M  V30 8003 C 753.928 -1.93389 -0.2076 0
M  V30 8004 O 753.183 -1.5756 -1.16075 0
M  V30 8005 C 753.482 -2.93746 2.03587 0
M  V30 8006 C 753.148 -2.80615 3.52939 0
M  V30 8007 C 751.81 -2.76742 3.93659 0
M  V30 8008 C 754.162 -2.66507 4.4791 0
M  V30 8009 C 751.49 -2.56638 5.27592 0
M  V30 8010 C 753.842 -2.47939 5.81987 0
M  V30 8011 C 752.506 -2.42458 6.21909 0
M  V30 8012 H 751.776 -0.588523 0.450247 0
M  V30 8013 H 754.423 -0.990699 1.63882 0
M  V30 8014 H 752.728 -3.5963 1.55478 0
M  V30 8015 H 754.425 -3.51127 1.93677 0
M  V30 8016 H 751.015 -2.84456 3.20598 0
M  V30 8017 H 755.199 -2.68544 4.1737 0
M  V30 8018 H 750.455 -2.50831 5.57579 0
M  V30 8019 H 754.629 -2.36002 6.55192 0
M  V30 8020 H 752.256 -2.2664 7.2563 0
M  V30 8021 O 753.87 -1.27491 -0.991381 0
M  V30 8022 H 754.561 -1.07099 -1.61398 0
M  V30 END ATOM
M  V30 BEGIN BOND
M  V30 END BOND
M  V30 END CTAB
M  END
$$$$
