drugbank_target|Q02221 Cytochrome c oxidase subunit 6A2, mitochondrial (DB02659; DB04464)
 OpenBabel12092120443D

  0  0  0     0  0            999 V3000
M  V30 BEGIN CTAB
M  V30 COUNTS 1525 1555 0 0 0
M  V30 BEGIN ATOM
M  V30 1 H -0.908 1.98254 -0.117106 0
M  V30 2 N 0 1.576 0 0
M  V30 3 C 0.933 2.03868 1.02534 0
M  V30 4 C 1.911 0.928543 1.3348 0
M  V30 5 O 3.095 1.19667 1.45644 0
M  V30 6 C 0.222 2.43627 2.35294 0
M  V30 7 C -0.732 3.65373 2.2001 0
M  V30 8 S 0.101 5.13292 1.52614 0
M  V30 9 C 1.257 5.56322 2.86805 0
M  V30 10 H 1.49 2.90518 0.631377 0
M  V30 11 H -0.977 1.52953 0.210867 0
M  V30 12 H 0.981 2.67203 3.11629 0
M  V30 13 H -0.358 1.57376 2.7183 0
M  V30 14 H -1.165 3.90944 3.18086 0
M  V30 15 H -1.563 3.418 1.51819 0
M  V30 16 H 0.729 5.58782 3.83104 0
M  V30 17 H 1.672 6.56266 2.65933 0
M  V30 18 H 2.08 4.83886 2.90714 0
M  V30 19 N 1.4781 -0.272755 1.55222 0
M  V30 20 C 2.4411 -1.32041 1.87344 0
M  V30 21 C 3.4411 -1.42342 0.74803 0
M  V30 22 O 4.6311 -1.41488 1.0162 0
M  V30 23 C 1.7631 -2.70173 2.07893 0
M  V30 24 H 2.9561 -1.04789 2.80997 0
M  V30 25 H 0.5091 -0.51083 1.47717 0
M  V30 26 H 1.2441 -3.02605 1.16622 0
M  V30 27 H 1.0291 -2.64082 2.89833 0
M  V30 28 H 2.5191 -3.45869 2.34017 0
M  V30 29 N 2.9562 -1.48159 -0.537278 0
M  V30 30 C 3.8862 -1.65029 -1.6519 0
M  V30 31 C 4.8672 -0.499281 -1.62607 0
M  V30 32 O 6.0522 -0.730972 -1.79918 0
M  V30 33 C 3.1822 -1.68303 -3.03795 0
M  V30 34 C 2.1362 -2.8283 -3.21234 0
M  V30 35 C 1.4622 -2.71189 -4.60826 0
M  V30 36 C 2.7622 -4.24211 -3.04701 0
M  V30 37 H 4.4562 -2.58341 -1.51328 0
M  V30 38 H 2.0022 -1.24325 -0.726585 0
M  V30 39 H 3.9552 -1.78693 -3.81637 0
M  V30 40 H 2.6792 -0.715635 -3.18663 0
M  V30 41 H 1.3382 -2.71983 -2.45807 0
M  V30 42 H 0.9862 -1.72435 -4.7252 0
M  V30 43 H 0.6862 -3.48035 -4.7344 0
M  V30 44 H 2.2102 -2.83537 -5.40777 0
M  V30 45 H 3.6242 -4.3593 -3.72341 0
M  V30 46 H 2.0212 -5.01998 -3.28813 0
M  V30 47 H 3.0912 -4.41184 -2.01209 0
M  V30 48 N 4.4343 0.785586 -1.36625 0
M  V30 49 C 5.8453 1.36101 -1.27803 0
M  V30 50 C 6.1963 1.96035 0.0804875 0
M  V30 51 O 5.3213 1.92834 0.982042 0
M  V30 52 C 5.9163 2.47442 -2.31426 0
M  V30 53 C 4.4753 3.00789 -2.26281 0
M  V30 54 C 3.6223 1.73896 -2.15999 0
M  V30 55 H 6.5733 0.586928 -1.47448 0
M  V30 56 H 6.5943 3.2656 -1.95291 0
M  V30 57 H 6.1063 2.03791 -3.30289 0
M  V30 58 H 4.2073 3.48851 -1.30896 0
M  V30 59 H 4.3203 3.57343 -3.19128 0
M  V30 60 H 2.6843 1.9628 -1.62316 0
M  V30 61 H 3.4673 1.32368 -3.16755 0
M  V30 62 N 5.9124 1.20967 1.01018 0
M  V30 63 C 6.8424 0.988272 2.11555 0
M  V30 64 C 7.8234 -0.0849778 1.69888 0
M  V30 65 O 9.0084 0.0738202 1.9406 0
M  V30 66 C 6.1384 0.546528 3.42973 0
M  V30 67 C 5.0924 1.56375 3.9841 0
M  V30 68 C 4.4184 0.97842 5.25672 0
M  V30 69 C 5.7184 2.94922 4.31066 0
M  V30 70 H 7.4124 1.91276 2.30334 0
M  V30 71 H 4.9584 0.921073 1.1069 0
M  V30 72 H 6.9114 0.378839 4.19694 0
M  V30 73 H 5.6354 -0.413598 3.23971 0
M  V30 74 H 4.2944 1.71891 3.23804 0
M  V30 75 H 3.9424 0.0101688 5.02999 0
M  V30 76 H 3.6424 1.65784 5.63728 0
M  V30 77 H 5.1664 0.821939 6.05043 0
M  V30 78 H 6.5804 2.8288 4.9865 0
M  V30 79 H 4.9774 3.5983 4.80253 0
M  V30 80 H 6.0474 3.4616 3.39561 0
M  V30 81 N 7.3905 -1.2043 1.01659 0
M  V30 82 C 8.8065 -1.41852 0.731442 0
M  V30 83 C 9.0065 -1.89358 -0.688898 0
M  V30 84 O 8.0625 -2.06247 -1.45666 0
M  V30 85 C 9.3755 -2.44019 1.75714 0
M  V30 86 C 10.9235 -2.57785 1.77527 0
M  V30 87 C 11.3985 -3.63194 2.79023 0
M  V30 88 N 12.8895 -3.70678 2.77763 0
M  V30 89 C 13.6245 -4.51897 3.52954 0
M  V30 90 N 13.1205 -5.36921 4.37821 0
M  V30 91 N 14.9135 -4.4643 3.41551 0
M  V30 92 H 7.0645 -0.879093 1.93354 0
M  V30 93 H 9.3275 -0.448425 0.835236 0
M  V30 94 H 9.0335 -2.1611 2.77469 0
M  V30 95 H 8.9075 -3.43007 1.56927 0
M  V30 96 H 11.2945 -2.85023 0.764569 0
M  V30 97 H 11.3755 -1.58992 2.00387 0
M  V30 98 H 11.0195 -3.36699 3.80258 0
M  V30 99 H 10.9495 -4.61609 2.53425 0
M  V30 100 H 13.4405 -3.09944 2.16201 0
M  V30 101 H 13.7535 -5.95981 4.91962 0
M  V30 102 H 12.0985 -5.36424 4.41899 0
M  V30 103 H 15.2895 -3.79042 2.74672 0
M  V30 104 H 15.4625 -5.09491 4.00404 0
M  V30 105 N 8.8686 -0.792821 -1.36206 0
M  V30 106 C 10.2796 -0.429513 -1.81692 0
M  V30 107 C 10.6306 1.04695 -1.65932 0
M  V30 108 O 9.7556 1.81256 -1.18218 0
M  V30 109 C 10.3506 -0.772831 -3.29868 0
M  V30 110 C 8.9096 -0.462307 -3.7355 0
M  V30 111 C 8.0566 -1.00569 -2.5842 0
M  V30 112 H 11.0076 -0.985672 -1.24379 0
M  V30 113 H 11.0286 -0.0651928 -3.80444 0
M  V30 114 H 10.5406 -1.84747 -3.41307 0
M  V30 115 H 8.6416 0.604158 -3.67669 0
M  V30 116 H 8.7546 -0.985299 -4.68859 0
M  V30 117 H 7.1186 -0.428734 -2.51066 0
M  V30 118 H 7.9016 -2.08616 -2.72643 0
M  V30 119 N 10.3467 1.47872 -0.545128 0
M  V30 120 C 11.2767 2.32661 0.197793 0
M  V30 121 C 12.2577 1.43041 0.920504 0
M  V30 122 O 13.4427 1.71912 0.90333 0
M  V30 123 C 10.5727 3.24569 1.23582 0
M  V30 124 C 9.5267 4.23333 0.630323 0
M  V30 125 C 8.8527 5.0448 1.77211 0
M  V30 126 C 10.1527 5.20704 -0.407974 0
M  V30 127 H 11.8467 2.95024 -0.510045 0
M  V30 128 H 9.3927 1.4187 -0.246731 0
M  V30 129 H 11.3457 3.8272 1.76362 0
M  V30 130 H 10.0697 2.60236 1.97344 0
M  V30 131 H 8.7287 3.6639 0.123922 0
M  V30 132 H 8.3767 4.36561 2.49847 0
M  V30 133 H 8.0767 5.71339 1.37281 0
M  V30 134 H 9.6007 5.65487 2.3034 0
M  V30 135 H 11.0147 5.7329 0.033305 0
M  V30 136 H 9.4117 5.95699 -0.725486 0
M  V30 137 H 10.4817 4.66917 -1.30828 0
M  V30 138 N 11.8248 0.280983 1.55075 0
M  V30 139 C 13.0528 -0.337293 2.04132 0
M  V30 140 C 13.4678 -1.4903 1.15912 0
M  V30 141 O 12.8248 -1.81606 0.180459 0
M  V30 142 C 12.8758 -0.812706 3.52246 0
M  V30 143 O 12.5968 0.294387 4.3711 0
M  V30 144 C 14.0978 -1.4982 4.17216 0
M  V30 145 H 11.3178 -0.0761638 0.666663 0
M  V30 146 H 13.8618 0.414787 2.00249 0
M  V30 147 H 12.0168 -1.51486 3.56554 0
M  V30 148 H 12.4308 -0.0721325 5.2445 0
M  V30 149 H 13.9048 -1.7822 5.22438 0
M  V30 150 H 14.3818 -2.43168 3.65741 0
M  V30 151 H 14.9878 -0.839742 4.16927 0
M  V30 152 N 13.3029 -1.57598 0.00835791 0
M  V30 153 C 14.7189 -1.55764 -0.347822 0
M  V30 154 C 14.9189 -1.01186 -1.74252 0
M  V30 155 O 13.9749 -0.649371 -2.44007 0
M  V30 156 C 15.2879 -2.99927 -0.215407 0
M  V30 157 C 16.8359 -3.11656 -0.289725 0
M  V30 158 C 17.3109 -4.57621 -0.18634 0
M  V30 159 N 18.8019 -4.62557 -0.243978 0
M  V30 160 C 19.5369 -5.73094 -0.18745 0
M  V30 161 N 19.0329 -6.92753 -0.0810331 0
M  V30 162 N 20.8259 -5.61588 -0.239925 0
M  V30 163 H 12.9769 -1.91411 0.92062 0
M  V30 164 H 15.2399 -0.879562 0.353659 0
M  V30 165 H 14.9459 -3.43729 0.744512 0
M  V30 166 H 14.8199 -3.63865 -0.994097 0
M  V30 167 H 17.2069 -2.67779 -1.24009 0
M  V30 168 H 17.2879 -2.5048 0.51898 0
M  V30 169 H 16.9319 -5.02174 0.760519 0
M  V30 170 H 16.8619 -5.16752 -1.01364 0
M  V30 171 H 19.3529 -3.76481 -0.327217 0
M  V30 172 H 19.6659 -7.72787 -0.0440241 0
M  V30 173 H 18.0109 -6.94984 -0.0465419 0
M  V30 174 H 21.2019 -4.66996 -0.321317 0
M  V30 175 H 21.3749 -6.47714 -0.192407 0
M  V30 176 N 14.781 0.264519 -1.55364 0
M  V30 177 C 16.029 0.993021 -1.76021 0
M  V30 178 C 16.35 1.86511 -0.569099 0
M  V30 179 O 15.62 1.91438 0.415735 0
M  V30 180 H 14.2 0.369639 -0.649135 0
M  V30 181 H 16.862 0.286707 -1.9278 0
M  V30 182 H 15.958 1.62502 -2.66457 0
M  V30 183 N 16.2591 1.48442 0.529413 0
M  V30 184 C 17.1891 1.65902 1.64313 0
M  V30 185 C 18.1701 0.507897 1.6234 0
M  V30 186 O 19.3551 0.740503 1.79528 0
M  V30 187 C 16.4851 1.69911 3.02898 0
M  V30 188 C 15.4391 2.8453 3.19729 0
M  V30 189 C 14.7651 2.73629 4.59381 0
M  V30 190 C 16.0651 4.25821 3.02447 0
M  V30 191 H 17.7591 2.5914 1.49955 0
M  V30 192 H 15.3051 1.24709 0.719982 0
M  V30 193 H 17.2581 1.80715 3.80684 0
M  V30 194 H 15.9821 0.732524 3.18279 0
M  V30 195 H 14.6411 2.73283 2.44361 0
M  V30 196 H 14.2891 1.74938 4.71599 0
M  V30 197 H 13.9891 3.50541 4.71588 0
M  V30 198 H 15.5131 2.86401 5.39265 0
M  V30 199 H 16.9271 4.37898 3.70024 0
M  V30 200 H 15.3241 5.03735 3.26146 0
M  V30 201 H 16.3941 4.42244 1.98867 0
M  V30 202 N 17.7372 -0.778329 1.37039 0
M  V30 203 C 18.7002 -1.87301 1.32102 0
M  V30 204 C 19.7002 -1.59198 0.226405 0
M  V30 205 O 20.8902 -1.67403 0.481861 0
M  V30 206 C 18.0222 -3.24309 1.05055 0
M  V30 207 H 19.2152 -1.93093 2.29467 0
M  V30 208 H 16.7682 -0.977358 1.21973 0
M  V30 209 H 17.5032 -3.24196 0.0819373 0
M  V30 210 H 17.2882 -3.46098 1.84279 0
M  V30 211 H 18.7782 -4.04382 1.04234 0
M  V30 212 N 19.2153 -1.21501 -1.00376 0
M  V30 213 C 20.4403 -1.05977 -1.78279 0
M  V30 214 C 20.8653 0.385994 -1.84097 0
M  V30 215 O 20.2233 1.27849 -1.28547 0
M  V30 216 C 20.2713 -1.66302 -3.19963 0
M  V30 217 O 19.3753 -0.909333 -4.0225 0
M  V30 218 H 18.7163 -0.372906 -0.549397 0
M  V30 219 H 21.2463 -1.6107 -1.26165 0
M  V30 220 H 21.2563 -1.70574 -3.70632 0
M  V30 221 H 19.9313 -2.71515 -3.15043 0
M  V30 222 H 18.5083 -0.941795 -3.60811 0
M  V30 223 N 20.6934 1.19889 -1.02296 0
M  V30 224 C 21.6564 2.21116 -0.603351 0
M  V30 225 C 22.6564 1.5738 0.329884 0
M  V30 226 O 23.8464 1.73802 0.117702 0
M  V30 227 C 20.9784 3.40696 0.117992 0
M  V30 228 H 22.1714 2.59754 -1.49893 0
M  V30 229 H 19.7244 1.33463 -0.813468 0
M  V30 230 H 20.4594 3.07569 1.0282 0
M  V30 231 H 20.2444 3.88188 -0.552511 0
M  V30 232 H 21.7344 4.15692 0.398696 0
M  V30 233 N 22.1715 0.800033 1.35784 0
M  V30 234 C 23.1345 0.211565 2.28221 0
M  V30 235 C 24.1345 -0.59728 1.49296 0
M  V30 236 O 25.3245 -0.416721 1.69142 0
M  V30 237 C 22.4565 -0.705846 3.33513 0
M  V30 238 H 23.6495 1.02677 2.81776 0
M  V30 239 H 21.2025 0.570211 1.45528 0
M  V30 240 H 21.9375 -1.54498 2.85133 0
M  V30 241 H 21.7225 -0.127655 3.91892 0
M  V30 242 H 23.2125 -1.11211 4.02519 0
M  V30 243 N 23.6496 -1.47581 0.552962 0
M  V30 244 C 24.5966 -2.29957 -0.197108 0
M  V30 245 C 25.5666 -1.38799 -0.912359 0
M  V30 246 O 26.7516 -1.67761 -0.908888 0
M  V30 247 C 23.8916 -3.22672 -1.22379 0
M  V30 248 C 23.0046 -4.28919 -0.515038 0
M  V30 249 C 22.1396 -5.0879 -1.52664 0
M  V30 250 C 21.1786 -6.06815 -0.802631 0
M  V30 251 N 20.3156 -6.7966 -1.76086 0
M  V30 252 H 25.1556 -2.93578 0.511486 0
M  V30 253 H 22.6926 -1.4471 0.264067 0
M  V30 254 H 24.6506 -3.74845 -1.83159 0
M  V30 255 H 23.2806 -2.60925 -1.90047 0
M  V30 256 H 22.3326 -3.79835 0.207192 0
M  V30 257 H 23.6446 -4.98773 0.0523425 0
M  V30 258 H 22.7986 -5.65091 -2.20809 0
M  V30 259 H 21.5376 -4.38828 -2.12794 0
M  V30 260 H 20.5426 -5.49695 -0.107238 0
M  V30 261 H 21.7676 -6.78784 -0.207135 0
M  V30 262 H 19.7136 -6.12432 -2.35081 0
M  V30 263 H 19.6306 -7.45669 -1.24552 0
M  V30 264 H 20.8986 -7.40538 -2.43359 0
M  V30 265 N 25.1277 -0.289203 -1.54924 0
M  V30 266 C 26.3757 0.322879 -1.99504 0
M  V30 267 C 26.6967 1.55313 -1.1791 0
M  V30 268 O 25.9667 1.94001 -0.272097 0
M  V30 269 H 24.5467 0.122291 -0.736922 0
M  V30 270 H 27.2087 -0.397802 -1.90797 0
M  V30 271 H 26.3047 0.603061 -3.06218 0
M  V30 272 N 26.6058 1.57591 -0.0167156 0
M  V30 273 C 27.8538 1.90906 0.663285 0
M  V30 274 C 28.1748 0.892509 1.73376 0
M  V30 275 O 27.4448 -0.0677623 1.95783 0
M  V30 276 H 26.0248 0.704637 0.247983 0
M  V30 277 H 28.6868 1.94803 -0.0615909 0
M  V30 278 H 27.7828 2.9116 1.12393 0
M  V30 279 N 28.0839 -0.256276 1.55502 0
M  V30 280 C 29.0339 -1.31981 1.85916 0
M  V30 281 C 30.0179 -1.43927 0.719296 0
M  V30 282 O 31.2099 -1.47326 0.981019 0
M  V30 283 C 28.3389 -2.67703 2.14918 0
M  V30 284 C 27.4249 -2.59801 3.35208 0
M  V30 285 N 27.8159 -2.21524 4.54709 0
M  V30 286 C 26.1139 -2.90832 3.38131 0
M  V30 287 C 26.8149 -2.24024 5.36832 0
M  V30 288 N 25.7909 -2.63158 4.75656 0
M  V30 289 H 29.5929 -1.01423 2.75845 0
M  V30 290 H 27.1069 -0.464911 1.55603 0
M  V30 291 H 29.1039 -3.44445 2.34869 0
M  V30 292 H 27.7639 -2.99137 1.26282 0
M  V30 293 H 28.7749 -1.93223 4.80505 0
M  V30 294 H 25.4519 -3.26867 2.59739 0
M  V30 295 H 26.8419 -1.9685 6.42417 0
M  V30 296 N 29.562 -1.4872 -0.521534 0
M  V30 297 C 30.81 -1.56857 -1.27437 0
M  V30 298 C 31.131 -0.247982 -1.93417 0
M  V30 299 O 30.401 0.731151 -1.81744 0
M  V30 300 H 28.981 -0.577885 -0.473347 0
M  V30 301 H 31.643 -1.85233 -0.606205 0
M  V30 302 H 30.739 -2.35402 -2.0492 0
M  V30 303 N 31.0401 0.771051 -1.3745 0
M  V30 304 C 32.2881 1.52661 -1.32435 0
M  V30 305 C 32.6091 1.9479 0.0905024 0
M  V30 306 O 31.8791 1.66348 1.03466 0
M  V30 307 H 30.4591 0.566218 -0.487244 0
M  V30 308 H 33.1211 0.917636 -1.71946 0
M  V30 309 H 32.2171 2.42568 -1.96385 0
M  V30 310 N 32.5182 1.22032 0.997298 0
M  V30 311 C 33.4812 0.987909 2.06816 0
M  V30 312 C 34.4812 -0.0440084 1.6074 0
M  V30 313 O 35.6712 0.194053 1.73116 0
M  V30 314 C 32.8032 0.49132 3.37341 0
M  V30 315 H 33.9962 1.93803 2.28868 0
M  V30 316 H 31.5492 1.03838 1.16822 0
M  V30 317 H 32.2842 -0.463364 3.20973 0
M  V30 318 H 32.0692 1.23575 3.72118 0
M  V30 319 H 33.5592 0.348824 4.16141 0
M  V30 320 N 33.9963 -1.19345 1.0293 0
M  V30 321 C 35.2443 -1.88665 0.724574 0
M  V30 322 C 35.5653 -1.80036 -0.749144 0
M  V30 323 O 34.8353 -1.2111 -1.53978 0
M  V30 324 H 33.4153 -0.698406 0.265025 0
M  V30 325 H 36.0773 -1.44885 1.30362 0
M  V30 326 H 35.1733 -2.94987 1.01926 0
M  V30 327 N 35.4744 -0.807222 -1.35358 0
M  V30 328 C 36.4374 -0.223665 -2.28106 0
M  V30 329 C 37.4374 0.589354 -1.4961 0
M  V30 330 O 38.6274 0.407745 -1.69361 0
M  V30 331 C 35.7594 0.688149 -3.33882 0
M  V30 332 H 36.9524 -1.04169 -2.81227 0
M  V30 333 H 34.5054 -0.577921 -1.45223 0
M  V30 334 H 35.2404 1.52984 -2.85948 0
M  V30 335 H 35.0254 0.10687 -3.91954 0
M  V30 336 H 36.5154 1.09075 -4.03104 0
M  V30 337 N 36.9525 1.47285 -0.560781 0
M  V30 338 C 38.3685 1.58065 -0.22081 0
M  V30 339 C 38.5685 1.55892 1.27671 0
M  V30 340 O 37.6245 1.46422 2.0571 0
M  V30 341 C 38.9375 2.88418 -0.850625 0
M  V30 342 C 40.4855 3.02009 -0.822184 0
M  V30 343 C 40.9605 4.35066 -1.43113 0
M  V30 344 N 42.4515 4.41711 -1.39448 0
M  V30 345 C 43.1865 5.43237 -1.83525 0
M  V30 346 N 42.6825 6.51555 -2.35474 0
M  V30 347 N 44.4755 5.34304 -1.74574 0
M  V30 348 H 36.6265 1.46941 -1.53369 0
M  V30 349 H 38.8895 0.699558 -0.639783 0
M  V30 350 H 38.5955 2.95755 -1.9032 0
M  V30 351 H 38.4695 3.75612 -0.345773 0
M  V30 352 H 40.8565 2.94266 0.221714 0
M  V30 353 H 40.9375 2.16347 -1.36483 0
M  V30 354 H 40.5815 4.43565 -2.47412 0
M  V30 355 H 40.5115 5.19465 -0.863899 0
M  V30 356 H 43.0025 3.64027 -1.01452 0
M  V30 357 H 43.3155 7.25203 -2.67021 0
M  V30 358 H 41.6605 6.52435 -2.39487 0
M  V30 359 H 44.8515 4.48581 -1.33763 0
M  V30 360 H 45.0245 6.13288 -2.09242 0
M  V30 361 N 38.4306 0.297415 1.54768 0
M  V30 362 C 39.6586 -0.315623 2.04478 0
M  V30 363 C 40.0736 -1.47792 1.17486 0
M  V30 364 O 39.4306 -1.81404 0.19971 0
M  V30 365 C 39.4816 -0.7753 3.53088 0
M  V30 366 O 39.2026 0.340732 4.36773 0
M  V30 367 C 40.7036 -1.45386 4.18781 0
M  V30 368 H 37.9236 -0.0690887 0.667434 0
M  V30 369 H 40.4676 0.436003 1.99798 0
M  V30 370 H 38.6226 -1.47696 3.58141 0
M  V30 371 H 39.0366 -0.0165035 5.24497 0
M  V30 372 H 40.5106 -1.72669 5.24299 0
M  V30 373 H 40.9876 -2.39275 3.68299 0
M  V30 374 H 41.5936 -0.795475 4.17795 0
M  V30 375 N 39.9087 -1.5758 0.0250728 0
M  V30 376 C 41.1547 -1.92746 -0.649648 0
M  V30 377 C 41.5097 -0.901588 -1.69968 0
M  V30 378 O 40.8027 0.0829251 -1.9142 0
M  V30 379 C 40.9967 -3.32421 -1.31268 0
M  V30 380 C 40.8257 -4.48499 -0.328394 0
M  V30 381 C 39.5957 -5.05251 0.070284 0
M  V30 382 C 41.7937 -5.12618 0.415665 0
M  V30 383 N 39.7757 -6.04851 1.05016 0
M  V30 384 C 41.1467 -6.0728 1.24943 0
M  V30 385 C 43.2017 -4.95612 0.476803 0
M  V30 386 C 41.9047 -6.86766 2.1388 0
M  V30 387 C 43.9307 -5.75703 1.3535 0
M  V30 388 C 43.2927 -6.69978 2.17504 0
M  V30 389 H 39.3917 -0.753231 -0.210159 0
M  V30 390 H 41.9757 -1.94486 0.0912999 0
M  V30 391 H 40.1467 -3.31508 -2.02379 0
M  V30 392 H 41.8787 -3.54946 -1.94411 0
M  V30 393 H 38.6337 -4.72628 -0.303323 0
M  V30 394 H 39.0577 -6.5934 1.53622 0
M  V30 395 H 43.6997 -4.22554 -0.144105 0
M  V30 396 H 41.4177 -7.59132 2.77027 0
M  V30 397 H 45.0037 -5.64579 1.40504 0
M  V30 398 H 43.8837 -7.30873 2.84244 0
M  V30 399 N 41.3868 0.248026 -1.55636 0
M  V30 400 C 42.8028 0.596483 -1.48035 0
M  V30 401 C 43.0028 1.88386 -0.715039 0
M  V30 402 O 42.0588 2.51319 -0.243944 0
M  V30 403 C 43.3718 0.700258 -2.92433 0
M  V30 404 C 44.9198 0.792659 -3.02797 0
M  V30 405 C 45.3948 0.928005 -4.485 0
M  V30 406 N 46.8858 0.992903 -4.52433 0
M  V30 407 C 47.6208 1.11687 -5.62418 0
M  V30 408 N 47.1168 1.20645 -6.82214 0
M  V30 409 N 48.9098 1.14994 -5.50212 0
M  V30 410 H 41.0608 -0.597109 -2.03834 0
M  V30 411 H 43.3238 -0.205925 -0.925364 0
M  V30 412 H 43.0298 -0.175658 -3.51261 0
M  V30 413 H 42.9038 1.57255 -3.42857 0
M  V30 414 H 45.2908 1.65903 -2.4405 0
M  V30 415 H 45.3718 -0.104762 -2.55585 0
M  V30 416 H 45.0158 0.0661971 -5.07857 0
M  V30 417 H 44.9458 1.84045 -4.93391 0
M  V30 418 H 47.4368 0.935064 -3.66149 0
M  V30 419 H 47.7498 1.30008 -7.61786 0
M  V30 420 H 46.0948 1.17605 -6.84977 0
M  V30 421 H 49.2858 1.07643 -4.55555 0
M  V30 422 H 49.4588 1.24311 -6.35965 0
M  V30 423 N 42.8649 1.48995 0.513639 0
M  V30 424 C 43.7949 1.67636 1.62544 0
M  V30 425 C 44.7759 0.525087 1.61793 0
M  V30 426 O 45.9609 0.759502 1.78732 0
M  V30 427 C 43.0909 1.73114 3.01079 0
M  V30 428 C 42.0449 2.87905 3.16693 0
M  V30 429 C 41.3709 2.78486 4.56453 0
M  V30 430 C 42.6709 4.29005 2.97913 0
M  V30 431 H 44.3649 2.60716 1.47198 0
M  V30 432 H 41.9109 1.25465 0.706714 0
M  V30 433 H 43.8639 1.84742 3.78746 0
M  V30 434 H 42.5879 0.766241 3.17484 0
M  V30 435 H 41.2469 2.75859 2.41448 0
M  V30 436 H 40.8949 1.7993 4.69717 0
M  V30 437 H 40.5949 3.55523 4.67843 0
M  V30 438 H 42.1189 2.92104 5.36197 0
M  V30 439 H 43.5329 4.41798 3.65359 0
M  V30 440 H 41.9299 5.07166 3.20785 0
M  V30 441 H 42.9999 4.44329 1.94165 0
M  V30 442 N 44.343 -0.763751 1.37857 0
M  V30 443 C 45.273 -1.89103 1.36975 0
M  V30 444 C 46.254 -1.68439 0.237152 0
M  V30 445 O 47.439 -1.8918 0.438713 0
M  V30 446 C 44.569 -3.26496 1.18395 0
M  V30 447 C 43.523 -3.61741 2.28751 0
M  V30 448 C 42.849 -4.97762 1.95286 0
M  V30 449 C 44.149 -3.67665 3.70972 0
M  V30 450 H 45.843 -1.90099 2.31307 0
M  V30 451 H 43.389 -0.91319 1.11341 0
M  V30 452 H 45.342 -4.05003 1.16406 0
M  V30 453 H 44.066 -3.25955 0.205215 0
M  V30 454 H 42.725 -2.85547 2.29909 0
M  V30 455 H 42.373 -4.93769 0.959221 0
M  V30 456 H 42.073 -5.22313 2.69189 0
M  V30 457 H 43.597 -5.7866 1.94898 0
M  V30 458 H 45.011 -4.36307 3.719 0
M  V30 459 H 43.408 -4.03718 4.43995 0
M  V30 460 H 44.478 -2.68134 4.0402 0
M  V30 461 N 45.8211 -1.22559 -0.990812 0
M  V30 462 C 47.0491 -1.07779 -1.76611 0
M  V30 463 C 47.4641 0.371513 -1.85109 0
M  V30 464 O 46.8211 1.25737 -1.32274 0
M  V30 465 C 46.8721 -1.68512 -3.19822 0
M  V30 466 O 46.5931 -3.07774 -3.1178 0
M  V30 467 C 48.0941 -1.59035 -4.13791 0
M  V30 468 H 45.3141 -0.377729 -0.554583 0
M  V30 469 H 47.8581 -1.62195 -1.24551 0
M  V30 470 H 46.0131 -1.18154 -3.68942 0
M  V30 471 H 46.4271 -3.37062 -4.01858 0
M  V30 472 H 47.9011 -2.0625 -5.1202 0
M  V30 473 H 48.3781 -0.547273 -4.35777 0
M  V30 474 H 48.9841 -2.08709 -3.70568 0
M  V30 475 N 47.2992 1.18797 -1.03562 0
M  V30 476 C 48.5462 1.8865 -0.736023 0
M  V30 477 C 48.8742 1.80041 0.735889 0
M  V30 478 O 48.1292 1.19179 1.55225 0
M  V30 479 C 48.4282 3.38692 -1.14117 0
M  V30 480 C 48.0942 3.67504 -2.6125 0
M  V30 481 C 46.7562 3.75078 -3.01447 0
M  V30 482 C 49.1082 3.80293 -3.56408 0
M  V30 483 C 46.4362 3.92915 -4.35701 0
M  V30 484 C 48.7882 3.99645 -4.90374 0
M  V30 485 C 47.4522 4.05453 -5.30249 0
M  V30 486 H 46.7222 0.690321 -0.26933 0
M  V30 487 H 49.3692 1.40641 -1.29971 0
M  V30 488 H 47.6742 3.88645 -0.496202 0
M  V30 489 H 49.3712 3.91072 -0.886789 0
M  V30 490 H 45.9612 3.62223 -2.29113 0
M  V30 491 H 50.1452 3.73779 -3.26501 0
M  V30 492 H 45.4012 3.95653 -4.66121 0
M  V30 493 H 49.5752 4.08482 -5.64017 0
M  V30 494 H 47.2022 4.19027 -6.34288 0
M  V30 495 N 48.7773 0.814389 1.34928 0
M  V30 496 C 50.0233 0.399013 1.98836 0
M  V30 497 C 50.3563 -1.03314 1.64438 0
M  V30 498 O 49.6313 -1.71811 0.911659 0
M  V30 499 C 49.9143 0.591629 3.55207 0
M  V30 500 C 49.7673 2.06928 3.99376 0
M  V30 501 C 51.0863 0.022199 4.40094 0
M  V30 502 H 48.2053 0.146451 0.722303 0
M  V30 503 H 50.8473 1.02537 1.59957 0
M  V30 504 H 48.9973 0.0584441 3.88456 0
M  V30 505 H 50.6693 2.66544 3.76499 0
M  V30 506 H 48.9123 2.56287 3.49999 0
M  V30 507 H 49.5833 2.1549 5.08201 0
M  V30 508 H 52.0593 0.477643 4.13349 0
M  V30 509 H 50.9353 0.186832 5.48582 0
M  V30 510 H 51.1963 -1.07215 4.28902 0
M  V30 511 N 50.2554 -1.46986 0.568584 0
M  V30 512 C 51.1854 -2.32946 -0.160753 0
M  V30 513 C 52.1664 -1.44487 -0.897631 0
M  V30 514 O 53.3514 -1.73327 -0.875867 0
M  V30 515 C 50.4814 -3.26494 -1.18403 0
M  V30 516 C 49.4354 -4.24282 -0.562895 0
M  V30 517 C 48.7614 -5.07236 -1.69163 0
M  V30 518 C 50.0614 -5.19989 0.490761 0
M  V30 519 H 51.7554 -2.94175 0.556916 0
M  V30 520 H 49.3014 -1.4146 0.26927 0
M  V30 521 H 51.2544 -3.85477 -1.70251 0
M  V30 522 H 49.9784 -2.63343 -1.93179 0
M  V30 523 H 48.6374 -3.66541 -0.0656164 0
M  V30 524 H 48.2854 -4.4048 -2.42871 0
M  V30 525 H 47.9854 -5.7345 -1.28174 0
M  V30 526 H 49.5094 -5.6908 -2.21314 0
M  V30 527 H 50.9234 -5.73271 0.0579047 0
M  V30 528 H 49.3204 -5.94469 0.820165 0
M  V30 529 H 50.3904 -4.64777 1.3824 0
M  V30 530 N 51.7335 -0.305618 -1.54608 0
M  V30 531 C 52.6965 0.555591 -2.22364 0
M  V30 532 C 53.6965 1.05768 -1.21119 0
M  V30 533 O 54.8865 0.952972 -1.45822 0
M  V30 534 C 52.0185 1.76974 -2.91364 0
M  V30 535 H 53.2115 -0.0364572 -2.99878 0
M  V30 536 H 50.7645 -0.0565007 -1.56198 0
M  V30 537 H 51.4995 2.40151 -2.17941 0
M  V30 538 H 51.2845 1.41732 -3.65588 0
M  V30 539 H 52.7745 2.38148 -3.43038 0
M  V30 540 N 53.2116 1.57565 -0.0334293 0
M  V30 541 C 54.1416 2.13511 0.945265 0
M  V30 542 C 55.1226 1.05231 1.33643 0
M  V30 543 O 56.3076 1.33084 1.41429 0
M  V30 544 C 53.4376 2.6657 2.22616 0
M  V30 545 C 52.3916 3.79676 1.97561 0
M  V30 546 C 51.7176 4.1918 3.31952 0
M  V30 547 C 53.0176 5.0557 1.31135 0
M  V30 548 H 54.7116 2.95538 0.479325 0
M  V30 549 H 52.2576 1.42166 0.229115 0
M  V30 550 H 54.2106 3.04344 2.91466 0
M  V30 551 H 52.9346 1.8171 2.71384 0
M  V30 552 H 51.5936 3.42347 1.31127 0
M  V30 553 H 51.2416 3.31296 3.78487 0
M  V30 554 H 50.9416 4.95402 3.15992 0
M  V30 555 H 52.4656 4.59541 4.02063 0
M  V30 556 H 53.8796 5.40903 1.89992 0
M  V30 557 H 52.2766 5.86818 1.25559 0
M  V30 558 H 53.3466 4.84062 0.284894 0
M  V30 559 N 54.6897 -0.239769 1.55765 0
M  V30 560 C 56.1007 -0.808263 1.68297 0
M  V30 561 C 56.4517 -1.85736 0.632181 0
M  V30 562 O 55.5767 -2.15277 -0.220204 0
M  V30 563 C 56.1717 -1.47284 3.05111 0
M  V30 564 C 54.7307 -1.98895 3.19559 0
M  V30 565 C 53.8777 -0.842575 2.64189 0
M  V30 566 H 56.8287 -0.0154422 1.58692 0
M  V30 567 H 56.8497 -2.34111 2.99954 0
M  V30 568 H 56.3617 -0.709053 3.81568 0
M  V30 569 H 54.4627 -2.78132 2.47938 0
M  V30 570 H 54.5757 -2.18143 4.26556 0
M  V30 571 H 52.9397 -1.24501 2.22197 0
M  V30 572 H 53.7227 -0.0917552 3.43177 0
M  V30 573 N 56.1678 -1.49265 -0.50573 0
M  V30 574 C 57.3928 -1.62478 -1.28902 0
M  V30 575 C 57.8178 -0.294332 -1.85783 0
M  V30 576 O 57.1758 0.737412 -1.65626 0
M  V30 577 C 57.2238 -2.69268 -2.39848 0
M  V30 578 O 56.3278 -2.28113 -3.43567 0
M  V30 579 H 55.6688 -0.54399 -0.380751 0
M  V30 580 H 58.1988 -1.95421 -0.605952 0
M  V30 581 H 58.2088 -2.91291 -2.85681 0
M  V30 582 H 56.8838 -3.65846 -1.97812 0
M  V30 583 H 55.4608 -2.16401 -3.03685 0
M  V30 584 N 57.6459 0.756429 -1.3826 0
M  V30 585 C 58.8919 1.51772 -1.34511 0
M  V30 586 C 59.2249 1.94089 0.0656691 0
M  V30 587 O 58.4999 1.65221 1.02626 0
M  V30 588 C 58.7829 2.77226 -2.29821 0
M  V30 589 C 58.6359 2.41065 -3.79747 0
M  V30 590 C 59.9549 3.79236 -2.23312 0
M  V30 591 H 57.0739 0.550578 -0.489931 0
M  V30 592 H 59.7159 0.866607 -1.69086 0
M  V30 593 H 57.8659 3.32784 -2.00467 0
M  V30 594 H 59.5379 1.91303 -4.19763 0
M  V30 595 H 57.7809 1.7356 -3.97567 0
M  V30 596 H 58.4519 3.3081 -4.41892 0
M  V30 597 H 60.9279 3.3321 -2.49219 0
M  V30 598 H 59.8039 4.64714 -2.92116 0
M  V30 599 H 60.0649 4.24615 -1.23102 0
M  V30 600 N 59.124 1.23083 0.984299 0
M  V30 601 C 60.087 1.00979 2.05757 0
M  V30 602 C 61.087 -0.0269573 1.60777 0
M  V30 603 O 62.277 0.212403 1.729 0
M  V30 604 C 59.409 0.527072 3.36801 0
M  V30 605 H 60.602 1.9622 2.26799 0
M  V30 606 H 58.155 1.05072 1.15714 0
M  V30 607 H 58.89 -0.429294 3.21446 0
M  V30 608 H 58.675 1.27515 3.70786 0
M  V30 609 H 60.165 0.392942 4.15747 0
M  V30 610 N 60.6021 -1.18246 1.0419 0
M  V30 611 C 61.5321 -2.24127 0.654914 0
M  V30 612 C 62.5131 -1.66617 -0.342451 0
M  V30 613 O 63.6981 -1.92924 -0.222277 0
M  V30 614 C 60.8281 -3.47295 0.0183757 0
M  V30 615 C 59.7821 -4.17563 0.939414 0
M  V30 616 C 59.1081 -5.34438 0.167286 0
M  V30 617 C 60.4081 -4.70917 2.25908 0
M  V30 618 H 62.1021 -2.56753 1.54007 0
M  V30 619 H 59.6481 -1.23414 0.74195 0
M  V30 620 H 61.6011 -4.20572 -0.264082 0
M  V30 621 H 60.3251 -3.13907 -0.901664 0
M  V30 622 H 58.9841 -3.46186 1.20628 0
M  V30 623 H 58.6321 -4.97298 -0.7552 0
M  V30 624 H 58.3321 -5.82388 0.780901 0
M  V30 625 H 59.8561 -6.10504 -0.108125 0
M  V30 626 H 61.2701 -5.35882 2.03724 0
M  V30 627 H 59.6671 -5.29406 2.82577 0
M  V30 628 H 60.7371 -3.88272 2.9047 0
M  V30 629 N 62.0802 -0.821533 -1.34494 0
M  V30 630 C 63.3202 -0.414785 -2.00147 0
M  V30 631 C 63.6842 1.00299 -1.6372 0
M  V30 632 O 64.8852 1.51255 -2.22206 0
M  V30 633 C 63.1562 -0.609403 -3.52166 0
M  V30 634 S 64.7152 -0.295297 -4.37805 0
M  V30 635 H 61.5332 -0.15679 -0.693497 0
M  V30 636 H 64.1352 -1.06705 -1.63812 0
M  V30 637 H 62.8392 -1.64096 -3.76166 0
M  V30 638 H 62.3702 0.0576414 -3.93358 0
M  V30 639 H 64.3852 0.891531 -4.88125 0
M  V30 640 N 63.5583 1.46682 -0.576371 0
M  V30 641 C 64.7863 2.06798 -0.0649635 0
M  V30 642 C 65.2013 1.42612 1.23723 0
M  V30 643 O 64.5583 0.529203 1.74659 0
M  V30 644 C 64.6093 3.6132 0.114202 0
M  V30 645 O 64.3303 4.23104 -1.13644 0
M  V30 646 C 65.8313 4.38349 0.66069 0
M  V30 647 H 63.0513 0.668778 -0.0545616 0
M  V30 648 H 65.5953 1.88404 -0.795237 0
M  V30 649 H 63.7503 3.79162 0.794673 0
M  V30 650 H 64.1643 5.15894 -0.946253 0
M  V30 651 H 65.6383 5.47081 0.73526 0
M  V30 652 H 66.1153 4.05953 1.67627 0
M  V30 653 H 66.7213 4.25297 0.0152951 0
M  V30 654 N 65.0364 0.313813 1.54444 0
M  V30 655 C 66.2834 -0.291675 2.00388 0
M  V30 656 C 66.6114 -1.52904 1.2021 0
M  V30 657 O 65.8664 -1.93833 0.269707 0
M  V30 658 C 66.1654 -0.680386 3.50864 0
M  V30 659 C 65.8314 0.456699 4.48581 0
M  V30 660 C 64.4934 0.768824 4.75018 0
M  V30 661 C 66.8454 1.22098 5.06697 0
M  V30 662 C 64.1734 1.84812 5.56831 0
M  V30 663 C 66.5254 2.29029 5.89685 0
M  V30 664 C 65.1894 2.60834 6.14428 0
M  V30 665 H 64.4594 -0.106732 0.733273 0
M  V30 666 H 67.1064 0.43557 1.86481 0
M  V30 667 H 65.4114 -1.48791 3.62448 0
M  V30 668 H 67.1084 -1.16026 3.83847 0
M  V30 669 H 63.6984 0.203337 4.28117 0
M  V30 670 H 67.8824 0.993096 4.86263 0
M  V30 671 H 63.1384 2.09912 5.74236 0
M  V30 672 H 67.3124 2.887 6.33739 0
M  V30 673 H 64.9394 3.44596 6.77612 0
M  V30 674 N 66.5145 -1.57545 0.0417849 0
M  V30 675 C 67.4625 -2.12148 -0.953723 0
M  V30 676 C 68.4565 -1.05104 -1.32852 0
M  V30 677 O 69.6625 -1.23524 -1.30927 0
M  V30 678 H 66.0375 -0.677957 -0.325389 0
M  V30 679 H 68.0085 -2.94707 -0.467991 0
M  V30 680 C 66.7575 -2.6739 -2.22257 0
M  V30 681 H 66.0805 -3.49413 -1.94295 0
M  V30 682 H 67.5205 -3.09227 -2.90094 0
M  V30 683 C 65.9795 -1.60723 -2.96091 0
M  V30 684 O 66.5095 -1.01449 -3.88679 0
M  V30 685 N 64.7155 -1.32466 -2.58652 0
M  V30 686 H 64.2625 -1.80856 -1.83437 0
M  V30 687 H 64.2205 -0.61325 -3.08361 0
M  V30 688 N 67.9926 0.231505 -1.5589 0
M  V30 689 C 69.2176 0.978689 -1.82856 0
M  V30 690 C 69.6426 1.77559 -0.620846 0
M  V30 691 O 69.0006 1.76119 0.430305 0
M  V30 692 C 69.0486 1.87997 -3.07716 0
M  V30 693 O 68.1526 2.97393 -2.85712 0
M  V30 694 H 67.4936 0.277663 -0.603158 0
M  V30 695 H 70.0236 0.24783 -2.03093 0
M  V30 696 H 70.0336 2.2917 -3.37558 0
M  V30 697 H 68.7086 1.29417 -3.95252 0
M  V30 698 H 67.2856 2.60238 -2.67078 0
M  V30 699 N 69.4707 1.49531 0.497807 0
M  V30 700 C 70.7007 1.62657 1.27382 0
M  V30 701 C 71.1087 0.298488 1.86831 0
M  V30 702 O 70.4517 -0.72647 1.68725 0
M  V30 703 C 70.5137 2.6393 2.44093 0
M  V30 704 C 70.1777 4.08195 2.05489 0
M  V30 705 C 71.1747 4.949 1.59279 0
M  V30 706 C 68.8597 4.53948 2.15026 0
M  V30 707 C 70.8537 6.25397 1.23113 0
M  V30 708 C 68.5407 5.84458 1.78473 0
M  V30 709 C 69.5387 6.70006 1.32591 0
M  V30 710 O 69.2267 7.98083 0.965327 0
M  V30 711 H 68.9587 0.550429 0.392434 0
M  V30 712 H 71.5127 1.96325 0.603801 0
M  V30 713 H 69.7427 2.25449 3.14181 0
M  V30 714 H 71.4317 2.66552 3.06113 0
M  V30 715 H 72.1977 4.60779 1.51354 0
M  V30 716 H 68.0767 3.87525 2.4969 0
M  V30 717 H 71.6207 6.92125 0.872299 0
M  V30 718 H 67.5177 6.18107 1.86048 0
M  V30 719 H 68.2857 8.11122 1.09652 0
M  V30 720 N 70.9488 -0.749086 1.3866 0
M  V30 721 C 71.8788 -1.8764 1.38973 0
M  V30 722 C 72.8598 -1.68178 0.255004 0
M  V30 723 O 74.0448 -1.88704 0.458754 0
M  V30 724 C 71.1748 -3.25222 1.21851 0
M  V30 725 C 70.1288 -3.59295 2.32575 0
M  V30 726 C 69.4548 -4.95663 2.00555 0
M  V30 727 C 70.7548 -3.63709 3.7485 0
M  V30 728 H 72.4488 -1.87635 2.3331 0
M  V30 729 H 69.9948 -0.901329 1.12303 0
M  V30 730 H 71.9478 -4.03746 1.20695 0
M  V30 731 H 70.6718 -3.25719 0.239775 0
M  V30 732 H 69.3308 -2.83093 2.32925 0
M  V30 733 H 68.9788 -4.92724 1.01154 0
M  V30 734 H 68.6788 -5.19429 2.74714 0
M  V30 735 H 70.2028 -5.7656 2.01024 0
M  V30 736 H 71.6168 -4.32338 3.76506 0
M  V30 737 H 70.0138 -3.98986 4.48252 0
M  V30 738 H 71.0838 -2.63834 4.06841 0
M  V30 739 N 72.4269 -1.23603 -0.977757 0
M  V30 740 C 73.3769 -0.986664 -2.05545 0
M  V30 741 C 74.3609 0.0683009 -1.60755 0
M  V30 742 O 75.5529 -0.144162 -1.76412 0
M  V30 743 C 72.6819 -0.582623 -3.3832 0
M  V30 744 C 71.7679 -1.67313 -3.89701 0
M  V30 745 N 72.1589 -2.90394 -4.14132 0
M  V30 746 C 70.4569 -1.54832 -4.18262 0
M  V30 747 C 71.1579 -3.61017 -4.56116 0
M  V30 748 N 70.1339 -2.8854 -4.60701 0
M  V30 749 H 73.9359 -1.92139 -2.22396 0
M  V30 750 H 71.4499 -1.1358 -1.16074 0
M  V30 751 H 73.4469 -0.38524 -4.15116 0
M  V30 752 H 72.1069 0.34503 -3.22862 0
M  V30 753 H 73.1179 -3.26673 -4.01877 0
M  V30 754 H 69.7949 -0.687969 -4.11793 0
M  V30 755 H 71.1849 -4.66544 -4.83514 0
M  V30 756 N 73.905 1.17692 -1.04816 0
M  V30 757 C 75.13 1.92327 -0.776207 0
M  V30 758 C 75.555 1.76082 0.661581 0
M  V30 759 O 74.913 1.076 1.45917 0
M  V30 760 C 74.961 3.41539 -1.15687 0
M  V30 761 O 74.065 4.11402 -0.286775 0
M  V30 762 H 73.406 0.599735 -0.284981 0
M  V30 763 H 75.936 1.49201 -1.4 0
M  V30 764 H 75.946 3.92269 -1.12202 0
M  V30 765 H 74.621 3.52684 -2.20425 0
M  V30 766 H 73.198 3.70939 -0.381903 0
M  V30 767 N 75.3831 0.828654 1.34056 0
M  V30 768 C 76.6311 0.41863 1.97717 0
M  V30 769 C 76.9521 -1.02314 1.66002 0
M  V30 770 O 76.2221 -1.71119 0.953683 0
M  V30 771 H 74.8021 0.151809 0.731412 0
M  V30 772 H 77.4641 1.05936 1.63596 0
M  V30 773 H 76.5601 0.542318 3.07352 0
M  V30 774 N 76.8612 -1.46375 0.584142 0
M  V30 775 C 77.8112 -2.27371 -0.169232 0
M  V30 776 C 78.7952 -1.35955 -0.860523 0
M  V30 777 O 79.9872 -1.60119 -0.754382 0
M  V30 778 C 77.1162 -3.22334 -1.18134 0
M  V30 779 C 76.2022 -4.21235 -0.492088 0
M  V30 780 N 76.5932 -5.03766 0.453129 0
M  V30 781 C 74.8912 -4.39773 -0.742652 0
M  V30 782 C 75.5922 -5.75366 0.85609 0
M  V30 783 N 74.5682 -5.43214 0.204926 0
M  V30 784 H 78.3702 -2.88572 0.557097 0
M  V30 785 H 75.8842 -1.57242 0.406042 0
M  V30 786 H 77.8812 -3.79071 -1.73525 0
M  V30 787 H 76.5412 -2.62693 -1.90847 0
M  V30 788 H 77.5522 -5.11227 0.828723 0
M  V30 789 H 74.2292 -3.91279 -1.45625 0
M  V30 790 H 75.6192 -6.5172 1.63434 0
M  V30 791 N 78.3393 -0.321999 -1.54275 0
M  V30 792 C 79.7553 0.0306999 -1.5957 0
M  V30 793 C 79.9553 1.50614 -1.33857 0
M  V30 794 O 79.0113 2.2619 -1.12223 0
M  V30 795 C 80.3243 -0.386122 -2.98211 0
M  V30 796 C 81.8723 -0.336647 -3.11184 0
M  V30 797 C 82.3473 -0.728607 -4.52167 0
M  V30 798 N 83.8383 -0.681952 -4.58152 0
M  V30 799 C 84.5733 -0.957449 -5.6535 0
M  V30 800 N 84.0693 -1.3 -6.80494 0
M  V30 801 N 85.8623 -0.883113 -5.55119 0
M  V30 802 H 78.0133 -1.28332 -1.69247 0
M  V30 803 H 80.2763 -0.521716 -0.791528 0
M  V30 804 H 79.9823 -1.41404 -3.22022 0
M  V30 805 H 79.8563 0.249662 -3.76373 0
M  V30 806 H 82.2433 0.682058 -2.8711 0
M  V30 807 H 82.3243 -1.00734 -2.3513 0
M  V30 808 H 81.9683 -1.74522 -4.76974 0
M  V30 809 H 81.8983 -0.0356152 -5.26588 0
M  V30 810 H 84.3893 -0.428985 -3.75457 0
M  V30 811 H 84.7023 -1.49563 -7.58189 0
M  V30 812 H 83.0473 -1.33824 -6.81994 0
M  V30 813 H 86.2383 -0.615001 -4.64042 0
M  V30 814 H 86.4113 -1.10118 -6.38575 0
M  V30 815 N 79.8174 1.5752 -0.0501392 0
M  V30 816 C 81.2284 1.80271 0.485705 0
M  V30 817 C 81.5794 0.96228 1.70981 0
M  V30 818 O 80.7044 0.178578 2.15662 0
M  V30 819 C 81.2994 3.26957 0.887938 0
M  V30 820 C 79.8584 3.5063 1.36877 0
M  V30 821 C 79.0054 2.75165 0.343468 0
M  V30 822 H 81.9564 1.56281 -0.276028 0
M  V30 823 H 81.9774 3.37821 1.75093 0
M  V30 824 H 81.4894 3.881 -0.0031809 0
M  V30 825 H 79.5904 2.94766 2.27911 0
M  V30 826 H 79.7034 4.59343 1.36164 0
M  V30 827 H 78.0674 2.4127 0.816128 0
M  V30 828 H 78.8504 3.39034 -0.539548 0
M  V30 829 N 81.2955 -0.223234 1.56011 0
M  V30 830 C 82.7115 -0.572856 1.48965 0
M  V30 831 C 82.9115 -1.87225 0.74492 0
M  V30 832 O 81.9675 -2.50899 0.283896 0
M  V30 833 C 83.2805 -0.653646 2.9351 0
M  V30 834 C 84.8285 -0.744386 3.0402 0
M  V30 835 C 85.3035 -0.856535 4.49919 0
M  V30 836 N 86.7945 -0.9208 4.53955 0
M  V30 837 C 87.5295 -1.02726 5.64123 0
M  V30 838 N 87.0255 -1.09777 6.84047 0
M  V30 839 N 88.8185 -1.06226 5.51971 0
M  V30 840 H 80.9695 0.629462 2.02858 0
M  V30 841 H 83.2325 0.220621 0.921971 0
M  V30 842 H 82.9385 0.231518 3.50937 0
M  V30 843 H 82.8125 -1.51781 3.45315 0
M  V30 844 H 85.1995 -1.61999 2.46658 0
M  V30 845 H 85.2805 0.14541 2.55386 0
M  V30 846 H 84.9245 0.0146069 5.07898 0
M  V30 847 H 84.8545 -1.76172 4.96257 0
M  V30 848 H 87.3455 -0.876694 3.6759 0
M  V30 849 H 87.6585 -1.17872 7.63758 0
M  V30 850 H 86.0035 -1.06693 6.86762 0
M  V30 851 H 89.1945 -1.00382 4.5721 0
M  V30 852 H 89.3675 -1.14177 6.37862 0
M  V30 853 N 82.7736 -1.49793 -0.48987 0
M  V30 854 C 84.1846 -1.52914 -1.07118 0
M  V30 855 C 84.5356 -0.321738 -1.93544 0
M  V30 856 O 83.6606 0.567338 -2.08831 0
M  V30 857 C 84.2556 -2.771 -1.94938 0
M  V30 858 C 82.8146 -2.82963 -2.48212 0
M  V30 859 C 81.9616 -2.46972 -1.26096 0
M  V30 860 H 84.9126 -1.56329 -0.273289 0
M  V30 861 H 84.9336 -2.57892 -2.79771 0
M  V30 862 H 84.4456 -3.64959 -1.32009 0
M  V30 863 H 82.5466 -1.99411 -3.14748 0
M  V30 864 H 82.6596 -3.85406 -2.84603 0
M  V30 865 H 81.0236 -1.98994 -1.58976 0
M  V30 866 H 81.8066 -3.37118 -0.648581 0
M  V30 867 N 84.2517 0.741722 -1.39055 0
M  V30 868 C 85.1617 1.88621 -1.39496 0
M  V30 869 C 86.1777 1.71557 -0.290578 0
M  V30 870 O 87.3537 1.94275 -0.530954 0
M  V30 871 C 84.4187 3.24134 -1.23037 0
M  V30 872 C 83.4797 3.5364 -2.43387 0
M  V30 873 C 82.7127 4.82687 -2.27703 0
M  V30 874 O 82.9357 5.55922 -1.27696 0
M  V30 875 O 81.8697 5.1194 -3.16545 0
M  V30 876 H 85.6957 1.91203 -2.35956 0
M  V30 877 H 83.2807 0.888625 -1.20099 0
M  V30 878 H 85.1627 4.0513 -1.15964 0
M  V30 879 H 83.8377 3.22337 -0.296691 0
M  V30 880 H 82.7447 2.72758 -2.56035 0
M  V30 881 H 84.0777 3.60209 -3.35425 0
M  V30 882 N 85.7298 1.2412 0.971189 0
M  V30 883 C 86.9768 1.07881 1.71371 0
M  V30 884 C 87.3048 -0.382901 1.90694 0
M  V30 885 O 86.5598 -1.29945 1.46331 0
M  V30 886 C 86.8588 1.75983 3.11071 0
M  V30 887 C 86.5248 3.25909 3.11599 0
M  V30 888 C 85.1868 3.66813 3.11451 0
M  V30 889 C 87.5388 4.21771 3.062 0
M  V30 890 C 84.8668 5.02021 3.03631 0
M  V30 891 C 87.2188 5.56982 2.99923 0
M  V30 892 C 85.8828 5.97237 2.98102 0
M  V30 893 H 85.1528 0.394764 0.62709 0
M  V30 894 H 87.7998 1.54176 1.13587 0
M  V30 895 H 86.1048 1.22072 3.72298 0
M  V30 896 H 87.8018 1.60887 3.6731 0
M  V30 897 H 84.3918 2.93353 3.12477 0
M  V30 898 H 88.5758 3.91172 3.05447 0
M  V30 899 H 83.8318 5.32411 3.0058 0
M  V30 900 H 88.0058 6.30969 2.94704 0
M  V30 901 H 85.6328 7.01967 2.91798 0
M  V30 902 N 87.2079 -1.17134 1.05439 0
M  V30 903 C 88.6239 -1.39454 0.776201 0
M  V30 904 C 88.8239 -1.91454 -0.628307 0
M  V30 905 O 87.8799 -2.10777 -1.39031 0
M  V30 906 C 89.1929 -2.38305 1.83388 0
M  V30 907 C 90.7409 -2.52006 1.85639 0
M  V30 908 C 91.2159 -3.54133 2.90437 0
M  V30 909 N 92.7069 -3.61653 2.89415 0
M  V30 910 C 93.4419 -4.4044 3.67152 0
M  V30 911 N 92.9379 -5.22721 4.54681 0
M  V30 912 N 94.7309 -4.35337 3.55581 0
M  V30 913 H 86.8819 -0.817134 1.96053 0
M  V30 914 H 89.1449 -0.421626 0.849079 0
M  V30 915 H 88.8509 -2.07173 2.84204 0
M  V30 916 H 88.7249 -3.37841 1.67761 0
M  V30 917 H 91.1119 -2.82447 0.85486 0
M  V30 918 H 91.1929 -1.52537 2.05344 0
M  V30 919 H 90.8369 -3.24431 3.90777 0
M  V30 920 H 90.7669 -4.53313 2.67983 0
M  V30 921 H 93.2579 -3.02909 2.25952 0
M  V30 922 H 93.5709 -5.80027 5.10674 0
M  V30 923 H 91.9159 -5.22093 4.58741 0
M  V30 924 H 95.1069 -3.70112 2.86592 0
M  V30 925 H 95.2799 -4.96494 4.1641 0
M  V30 926 N 88.686 -0.835752 -1.33615 0
M  V30 927 C 90.097 -0.487099 -1.80234 0
M  V30 928 C 90.448 0.993627 -1.69179 0
M  V30 929 O 89.573 1.77403 -1.23924 0
M  V30 930 C 90.168 -0.877385 -3.27242 0
M  V30 931 C 88.727 -0.580915 -3.7189 0
M  V30 932 C 87.874 -1.0874 -2.5509 0
M  V30 933 H 90.825 -1.02474 -1.2118 0
M  V30 934 H 90.846 -0.186195 -3.80044 0
M  V30 935 H 90.358 -1.95512 -3.35256 0
M  V30 936 H 88.459 0.486881 -3.69405 0
M  V30 937 H 88.572 -1.13396 -4.65487 0
M  V30 938 H 86.936 -0.508392 -2.49575 0
M  V30 939 H 87.719 -2.17184 -2.65868 0
M  V30 940 N 90.1641 1.46063 -0.591896 0
M  V30 941 C 91.3941 2.06418 -0.0867676 0
M  V30 942 C 91.8021 1.43975 1.22751 0
M  V30 943 O 91.1451 0.542531 1.75506 0
M  V30 944 C 91.2071 3.59213 0.143725 0
M  V30 945 C 90.8711 4.439 -1.08635 0
M  V30 946 C 91.8681 4.79864 -2.00067 0
M  V30 947 C 89.5531 4.84896 -1.31077 0
M  V30 948 C 91.5471 5.55661 -3.12282 0
M  V30 949 C 89.2341 5.6045 -2.43596 0
M  V30 950 C 90.2321 5.95747 -3.34027 0
M  V30 951 O 89.9201 6.69772 -4.4459 0
M  V30 952 H 89.6521 0.673443 -0.0587447 0
M  V30 953 H 92.2061 1.88539 -0.814994 0
M  V30 954 H 90.4361 3.75433 0.926668 0
M  V30 955 H 92.1251 4.01463 0.5985 0
M  V30 956 H 92.8911 4.48763 -1.83947 0
M  V30 957 H 88.7701 4.56867 -0.61594 0
M  V30 958 H 92.3141 5.8313 -3.82891 0
M  V30 959 H 88.2111 5.90965 -2.59674 0
M  V30 960 H 88.9791 6.88207 -4.43073 0
M  V30 961 N 91.6422 0.330177 1.54103 0
M  V30 962 C 92.5742 -0.566902 2.22079 0
M  V30 963 C 93.5872 -1.07462 1.22294 0
M  V30 964 O 94.7762 -0.987065 1.48726 0
M  V30 965 C 91.8762 -1.79138 2.87685 0
M  V30 966 C 91.0492 -1.42123 4.13666 0
M  V30 967 C 90.1082 -2.50394 4.62806 0
M  V30 968 O 89.1342 -2.14261 5.27334 0
M  V30 969 N 90.3362 -3.81433 4.37595 0
M  V30 970 H 93.1012 0.0151844 2.99696 0
M  V30 971 H 90.6622 0.153681 1.61169 0
M  V30 972 H 92.6542 -2.50975 3.1748 0
M  V30 973 H 91.2242 -2.28115 2.13734 0
M  V30 974 H 90.4442 -0.534201 3.90564 0
M  V30 975 H 91.7322 -1.14971 4.9564 0
M  V30 976 H 91.1302 -4.13584 3.8596 0
M  V30 977 H 89.6872 -4.4948 4.72029 0
M  V30 978 N 93.1203 -1.57491 0.0584922 0
M  V30 979 C 94.0703 -2.08474 -0.923188 0
M  V30 980 C 95.0543 -0.991479 -1.26722 0
M  V30 981 O 96.2463 -1.25473 -1.24842 0
M  V30 982 C 93.3753 -2.6392 -2.19548 0
M  V30 983 C 92.4613 -3.80227 -1.87852 0
M  V30 984 N 92.8523 -4.89714 -1.26546 0
M  V30 985 C 91.1503 -3.89271 -2.17679 0
M  V30 986 C 91.8513 -5.70689 -1.12644 0
M  V30 987 N 90.8273 -5.18531 -1.63176 0
M  V30 988 H 94.6293 -2.90517 -0.444653 0
M  V30 989 H 92.1433 -1.61745 -0.145764 0
M  V30 990 H 94.1403 -2.98752 -2.9078 0
M  V30 991 H 92.8003 -1.83318 -2.68001 0
M  V30 992 H 93.8113 -5.09358 -0.936757 0
M  V30 993 H 90.4883 -3.19623 -2.68602 0
M  V30 994 H 91.8783 -6.6875 -0.6499 0
M  V30 995 N 94.5984 0.214957 -1.56127 0
M  V30 996 C 95.5284 1.2695 -1.95974 0
M  V30 997 C 96.5094 1.48539 -0.828868 0
M  V30 998 O 97.6944 1.60611 -1.09168 0
M  V30 999 C 94.8244 2.61794 -2.28214 0
M  V30 1000 C 93.7784 2.54851 -3.43853 0
M  V30 1001 C 93.1044 3.93785 -3.61715 0
M  V30 1002 C 94.4044 2.09065 -4.78632 0
M  V30 1003 H 96.0984 0.93846 -2.84312 0
M  V30 1004 H 93.6444 0.449996 -1.36788 0
M  V30 1005 H 95.5974 3.35731 -2.54682 0
M  V30 1006 H 94.3214 2.96599 -1.36736 0
M  V30 1007 H 92.9804 1.8337 -3.17444 0
M  V30 1008 H 92.6284 4.25908 -2.67602 0
M  V30 1009 H 92.3284 3.90019 -4.39498 0
M  V30 1010 H 93.8524 4.69374 -3.90539 0
M  V30 1011 H 95.2664 2.7275 -5.04262 0
M  V30 1012 H 93.6634 2.16346 -5.59745 0
M  V30 1013 H 94.7334 1.04315 -4.73547 0
M  V30 1014 N 96.0765 1.50051 0.48192 0
M  V30 1015 C 97.4925 1.37237 0.814756 0
M  V30 1016 C 97.6925 0.420109 1.97072 0
M  V30 1017 O 96.7485 -0.141246 2.52105 0
M  V30 1018 C 98.0615 2.78375 1.13701 0
M  V30 1019 C 99.6095 2.87213 1.2441 0
M  V30 1020 C 100.084 4.29161 1.59954 0
M  V30 1021 N 101.575 4.32061 1.66967 0
M  V30 1022 C 102.31 5.38879 1.95952 0
M  V30 1023 N 101.806 6.55918 2.23031 0
M  V30 1024 N 103.599 5.26312 1.97363 0
M  V30 1025 H 95.7505 2.10546 -0.28005 0
M  V30 1026 H 98.0135 0.945921 -0.0627454 0
M  V30 1027 H 97.7195 3.49845 0.360787 0
M  V30 1028 H 97.5935 3.14941 2.07586 0
M  V30 1029 H 99.9805 2.15969 2.01101 0
M  V30 1030 H 100.061 2.54204 0.285299 0
M  V30 1031 H 99.7055 5.00938 0.838067 0
M  V30 1032 H 99.6355 4.59648 2.56966 0
M  V30 1033 H 102.126 3.47661 1.48123 0
M  V30 1034 H 102.439 7.33139 2.44391 0
M  V30 1035 H 100.784 6.59112 2.20447 0
M  V30 1036 H 103.975 4.33876 1.75697 0
M  V30 1037 H 104.148 6.09649 2.19618 0
M  V30 1038 N 97.5546 -0.734337 1.39446 0
M  V30 1039 C 98.8036 -1.48937 1.36017 0
M  V30 1040 C 99.1166 -1.95557 -0.0409005 0
M  V30 1041 O 100.323 -2.70779 -0.19778 0
M  V30 1042 C 98.7786 -2.69125 2.38955 0
M  V30 1043 C 98.3866 -2.29452 3.8478 0
M  V30 1044 C 100.131 -3.46944 2.44603 0
M  V30 1045 C 98.0376 -3.46366 4.79358 0
M  V30 1046 H 96.9676 -0.559296 0.505672 0
M  V30 1047 H 99.6186 -0.800983 1.65095 0
M  V30 1048 H 98.0006 -3.40041 2.02948 0
M  V30 1049 H 99.1746 -1.66077 4.29831 0
M  V30 1050 H 97.4896 -1.64723 3.82433 0
M  V30 1051 H 100.087 -4.33907 3.12456 0
M  V30 1052 H 100.43 -3.89454 1.47076 0
M  V30 1053 H 100.963 -2.83056 2.79507 0
M  V30 1054 H 97.7016 -3.08905 5.78151 0
M  V30 1055 H 97.2216 -4.08719 4.38986 0
M  V30 1056 H 98.9006 -4.12691 4.98292 0
M  V30 1057 N 99.0327 -1.24633 -0.964593 0
M  V30 1058 C 100.449 -1.01239 -1.2338 0
M  V30 1059 C 100.649 0.2769 -1.99588 0
M  V30 1060 O 99.7047 0.992241 -2.32187 0
M  V30 1061 C 101.018 -2.22937 -2.01791 0
M  V30 1062 C 102.566 -2.27594 -2.14872 0
M  V30 1063 C 103.041 -3.48921 -2.96678 0
M  V30 1064 N 104.532 -3.49257 -3.04259 0
M  V30 1065 C 105.267 -4.39795 -3.67924 0
M  V30 1066 N 104.763 -5.40591 -4.33281 0
M  V30 1067 N 106.556 -4.275 -3.64966 0
M  V30 1068 H 98.7067 -2.0748 -0.454502 0
M  V30 1069 H 100.97 -0.910647 -0.26349 0
M  V30 1070 H 100.676 -3.16587 -1.53184 0
M  V30 1071 H 100.55 -2.25306 -3.02518 0
M  V30 1072 H 102.937 -1.34473 -2.6268 0
M  V30 1073 H 103.018 -2.2925 -1.13482 0
M  V30 1074 H 102.662 -4.42359 -2.49562 0
M  V30 1075 H 102.592 -3.4451 -3.98272 0
M  V30 1076 H 105.083 -2.76337 -2.57771 0
M  V30 1077 H 105.396 -6.05904 -4.79687 0
M  V30 1078 H 103.741 -5.44475 -4.3194 0
M  V30 1079 H 106.932 -3.47987 -3.13086 0
M  V30 1080 H 107.105 -4.98258 -4.14298 0
M  V30 1081 N 100.511 1.16574 -1.06058 0
M  V30 1082 C 101.739 1.90952 -0.796552 0
M  V30 1083 C 102.154 1.77302 0.648808 0
M  V30 1084 O 101.511 1.11605 1.44397 0
M  V30 1085 C 101.562 3.41736 -1.17894 0
M  V30 1086 O 101.283 3.54975 -2.56758 0
M  V30 1087 C 102.784 4.33169 -0.942308 0
M  V30 1088 H 100.004 0.605594 -0.288959 0
M  V30 1089 H 102.548 1.47777 -1.41358 0
M  V30 1090 H 100.703 3.82623 -0.606491 0
M  V30 1091 H 101.117 4.4846 -2.72 0
M  V30 1092 H 102.591 5.37439 -1.25952 0
M  V30 1093 H 103.068 4.3903 0.122078 0
M  V30 1094 H 103.674 3.98007 -1.49902 0
M  V30 1095 N 101.989 0.842826 1.3317 0
M  V30 1096 C 102.936 0.276885 2.29133 0
M  V30 1097 C 103.906 -0.609527 1.54512 0
M  V30 1098 O 105.091 -0.546955 1.82792 0
M  V30 1099 C 102.231 -0.538707 3.40869 0
M  V30 1100 C 101.344 0.372169 4.30394 0
M  V30 1101 C 100.479 -0.454908 5.29249 0
M  V30 1102 C 99.5179 0.45411 6.10413 0
M  V30 1103 N 98.6549 -0.335075 7.013 0
M  V30 1104 H 103.495 1.10052 2.76934 0
M  V30 1105 H 101.032 0.554161 1.36262 0
M  V30 1106 H 102.99 -1.02709 4.0436 0
M  V30 1107 H 101.62 -1.32727 2.9425 0
M  V30 1108 H 100.672 0.97888 3.6759 0
M  V30 1109 H 101.984 1.0703 4.87182 0
M  V30 1110 H 101.138 -1.00695 5.98285 0
M  V30 1111 H 99.8769 -1.18646 4.73048 0
M  V30 1112 H 98.8819 1.01813 5.40291 0
M  V30 1113 H 100.107 1.18409 6.68697 0
M  V30 1114 H 98.0529 -1.04994 6.47543 0
M  V30 1115 H 97.9699 0.304262 7.55387 0
M  V30 1116 H 99.2379 -0.869224 7.74638 0
M  V30 1117 N 103.467 -1.45747 0.599634 0
M  V30 1118 C 104.878 -1.85853 0.177681 0
M  V30 1119 C 105.229 -1.50102 -1.26348 0
M  V30 1120 O 104.354 -0.923905 -1.95686 0
M  V30 1121 C 104.949 -3.37326 0.315688 0
M  V30 1122 C 103.508 -3.76365 -0.0515144 0
M  V30 1123 C 102.655 -2.69722 0.643822 0
M  V30 1124 H 105.606 -1.36661 0.806814 0
M  V30 1125 H 105.627 -3.77778 -0.454321 0
M  V30 1126 H 105.139 -3.63315 1.36468 0
M  V30 1127 H 103.24 -3.55993 -1.09999 0
M  V30 1128 H 103.353 -4.77916 0.336594 0
M  V30 1129 H 101.717 -2.54567 0.0822881 0
M  V30 1130 H 102.5 -2.98549 1.6948 0
M  V30 1131 N 104.945 -0.338344 -1.53925 0
M  V30 1132 C 106.175 0.260919 -2.04946 0
M  V30 1133 C 106.583 1.45174 -1.2133 0
M  V30 1134 O 105.926 1.82122 -0.240262 0
M  V30 1135 C 105.988 0.744596 -3.51704 0
M  V30 1136 C 105.652 -0.325883 -4.55837 0
M  V30 1137 C 106.649 -1.16687 -5.06636 0
M  V30 1138 C 104.334 -0.478317 -5.00017 0
M  V30 1139 C 106.328 -2.14588 -6.00192 0
M  V30 1140 C 104.015 -1.46073 -5.93385 0
M  V30 1141 C 105.013 -2.29297 -6.4336 0
M  V30 1142 O 104.701 -3.25867 -7.34892 0
M  V30 1143 H 104.433 0.0551207 -0.673749 0
M  V30 1144 H 106.987 -0.486984 -1.99544 0
M  V30 1145 H 105.217 1.54366 -3.54553 0
M  V30 1146 H 106.906 1.26383 -3.85723 0
M  V30 1147 H 107.672 -1.06016 -4.73271 0
M  V30 1148 H 103.551 0.159613 -4.60724 0
M  V30 1149 H 107.095 -2.79585 -6.39123 0
M  V30 1150 H 102.992 -1.56802 -6.26166 0
M  V30 1151 H 103.76 -3.21278 -7.5281 0
M  V30 1152 N 106.423 1.57458 -0.0668435 0
M  V30 1153 C 107.834 1.80776 0.466558 0
M  V30 1154 C 108.185 0.980361 1.69951 0
M  V30 1155 O 107.31 0.201441 2.1546 0
M  V30 1156 C 107.905 3.27881 0.85321 0
M  V30 1157 C 106.464 3.52062 1.3315 0
M  V30 1158 C 105.611 2.75513 0.314264 0
M  V30 1159 H 108.562 1.5598 -0.292588 0
M  V30 1160 H 108.583 3.39659 1.715 0
M  V30 1161 H 108.095 3.88075 -0.0443439 0
M  V30 1162 H 106.196 2.97167 2.24772 0
M  V30 1163 H 106.309 4.60762 1.31285 0
M  V30 1164 H 104.673 2.42123 0.790492 0
M  V30 1165 H 105.456 3.38442 -0.575477 0
M  V30 1166 N 107.901 -0.206675 1.56239 0
M  V30 1167 C 109.147 -0.925733 1.81113 0
M  V30 1168 C 109.502 -1.81368 0.642135 0
M  V30 1169 O 108.795 -1.88126 -0.363211 0
M  V30 1170 C 108.989 -1.78675 3.09532 0
M  V30 1171 C 108.818 -0.98365 4.3881 0
M  V30 1172 C 107.588 -0.672661 5.00803 0
M  V30 1173 C 109.786 -0.341847 5.13163 0
M  V30 1174 N 107.768 0.150283 6.13716 0
M  V30 1175 C 109.139 0.343815 6.19046 0
M  V30 1176 C 111.194 -0.256392 4.97239 0
M  V30 1177 C 109.897 1.10678 7.10734 0
M  V30 1178 C 111.923 0.493142 5.8934 0
M  V30 1179 C 111.285 1.16729 6.94661 0
M  V30 1180 H 107.384 -0.318524 0.714189 0
M  V30 1181 H 109.968 -0.195378 1.93717 0
M  V30 1182 H 108.139 -2.4888 2.98183 0
M  V30 1183 H 109.871 -2.44441 3.22538 0
M  V30 1184 H 106.626 -0.994294 4.63045 0
M  V30 1185 H 107.05 0.551026 6.74754 0
M  V30 1186 H 111.692 -0.763249 4.15854 0
M  V30 1187 H 109.41 1.6251 7.91591 0
M  V30 1188 H 112.996 0.560465 5.79094 0
M  V30 1189 H 111.876 1.738 7.64698 0
M  V30 1190 N 109.379 -1.50304 -0.473955 0
M  V30 1191 C 110.627 -1.60832 -1.22382 0
M  V30 1192 C 110.948 -0.30939 -1.9253 0
M  V30 1193 O 110.218 0.67296 -1.83978 0
M  V30 1194 H 108.798 -0.592652 -0.454723 0
M  V30 1195 H 111.46 -1.87068 -0.546968 0
M  V30 1196 H 110.556 -2.41803 -1.97327 0
M  V30 1197 N 110.857 0.726932 -1.39834 0
M  V30 1198 C 112.134 1.47902 -1.28001 0
M  V30 1199 C 112.514 2.1083 0.106789 0
M  V30 1200 O 111.862 1.99242 1.11869 0
M  V30 1201 C 112.072 2.52392 -2.41038 0
M  V30 1202 C 113.42 3.18546 -2.80737 0
M  V30 1203 O 114.444 2.62708 -2.40547 0
M  V30 1204 O 113.303 4.19604 -3.50135 0
M  V30 1205 H 110.397 0.657163 -0.502062 0
M  V30 1206 H 112.943 0.760071 -1.51727 0
M  V30 1207 H 111.715 2.04329 -3.33715 0
M  V30 1208 H 111.338 3.31837 -2.19021 0
M  V30 1209 N 112.336 1.25143 0.95797 0
M  V30 1210 C 113.584 1.09476 1.69881 0
M  V30 1211 C 113.905 -0.365502 1.91544 0
M  V30 1212 O 113.175 -1.25985 1.50015 0
M  V30 1213 H 111.755 0.402128 0.629525 0
M  V30 1214 H 114.417 1.57214 1.15194 0
M  V30 1215 H 113.513 1.60046 2.6794 0
M  V30 1216 N 113.814 -1.1601 1.06675 0
M  V30 1217 C 114.762 -2.22586 0.675157 0
M  V30 1218 C 115.756 -1.66525 -0.310766 0
M  V30 1219 O 116.962 -1.79145 -0.175215 0
M  V30 1220 H 113.337 -0.724855 0.200223 0
M  V30 1221 H 115.308 -2.52899 1.58381 0
M  V30 1222 C 114.057 -3.47604 0.0817162 0
M  V30 1223 H 113.38 -3.91058 0.831484 0
M  V30 1224 H 114.82 -4.23718 -0.154708 0
M  V30 1225 C 113.279 -3.15718 -1.17576 0
M  V30 1226 O 113.809 -3.31878 -2.26318 0
M  V30 1227 N 112.015 -2.69816 -1.07923 0
M  V30 1228 H 111.562 -2.56866 -0.194293 0
M  V30 1229 H 111.52 -2.48855 -1.92141 0
M  V30 1230 N 115.292 -0.849877 -1.32721 0
M  V30 1231 C 116.242 -0.262892 -2.26479 0
M  V30 1232 C 117.226 0.588493 -1.49752 0
M  V30 1233 O 118.418 0.438659 -1.71478 0
M  V30 1234 C 115.547 0.551818 -3.38836 0
M  V30 1235 C 114.633 -0.311689 -4.22953 0
M  V30 1236 N 115.024 -1.39567 -4.86163 0
M  V30 1237 C 113.322 -0.100611 -4.45887 0
M  V30 1238 C 114.023 -1.92651 -5.48872 0
M  V30 1239 N 112.999 -1.22637 -5.29586 0
M  V30 1240 H 116.801 -1.09166 -2.72873 0
M  V30 1241 H 114.315 -0.695486 -1.46754 0
M  V30 1242 H 116.312 0.988713 -4.05006 0
M  V30 1243 H 114.972 1.37844 -2.93988 0
M  V30 1244 H 115.983 -1.77859 -4.86402 0
M  V30 1245 H 112.66 0.691681 -4.11731 0
M  V30 1246 H 114.05 -2.83487 -6.09167 0
M  V30 1247 N 116.77 1.45427 -0.607355 0
M  V30 1248 C 117.998 2.06614 -0.108814 0
M  V30 1249 C 118.413 1.45204 1.2067 0
M  V30 1250 O 117.77 0.566132 1.73497 0
M  V30 1251 C 117.821 3.61481 0.0375347 0
M  V30 1252 O 117.542 4.20598 -1.22593 0
M  V30 1253 C 119.043 4.39652 0.567561 0
M  V30 1254 H 116.263 0.66747 -0.0687351 0
M  V30 1255 H 118.807 1.86675 -0.835022 0
M  V30 1256 H 116.962 3.80762 0.714068 0
M  V30 1257 H 117.376 5.1377 -1.05547 0
M  V30 1258 H 118.85 5.48518 0.61905 0
M  V30 1259 H 119.327 4.09417 1.58978 0
M  V30 1260 H 119.933 4.25234 -0.0749202 0
M  V30 1261 N 118.248 0.346503 1.53744 0
M  V30 1262 C 119.178 -0.501193 2.28058 0
M  V30 1263 C 120.159 -1.10014 1.29734 0
M  V30 1264 O 121.344 -1.12097 1.58581 0
M  V30 1265 C 118.474 -1.65078 3.05559 0
M  V30 1266 C 117.428 -1.18003 4.11411 0
M  V30 1267 C 116.754 -2.41837 4.76884 0
M  V30 1268 C 118.054 -0.278394 5.21558 0
M  V30 1269 H 119.748 0.11875 2.99164 0
M  V30 1270 H 117.294 0.0585531 1.43881 0
M  V30 1271 H 119.247 -2.25028 3.56287 0
M  V30 1272 H 117.971 -2.29767 2.32109 0
M  V30 1273 H 116.63 -0.603331 3.61601 0
M  V30 1274 H 116.278 -3.0494 4.00026 0
M  V30 1275 H 115.978 -2.1102 5.48402 0
M  V30 1276 H 117.502 -3.02508 5.30397 0
M  V30 1277 H 118.916 -0.784823 5.67903 0
M  V30 1278 H 117.313 -0.0619707 6.00068 0
M  V30 1279 H 118.383 0.684677 4.80042 0
M  V30 1280 N 119.726 -1.57421 0.075193 0
M  V30 1281 C 120.973 -1.93618 -0.593146 0
M  V30 1282 C 121.301 -0.955484 -1.69413 0
M  V30 1283 O 120.556 0.0283251 -1.9568 0
M  V30 1284 C 120.855 -3.36428 -1.20626 0
M  V30 1285 C 120.521 -4.50307 -0.231078 0
M  V30 1286 C 119.183 -4.81186 0.0371936 0
M  V30 1287 C 121.535 -5.19374 0.435888 0
M  V30 1288 C 118.863 -5.78466 0.979461 0
M  V30 1289 C 121.215 -6.17665 1.3665 0
M  V30 1290 C 119.879 -6.46958 1.6432 0
M  V30 1291 H 119.149 -0.708499 -0.217047 0
M  V30 1292 H 121.796 -1.90937 0.146793 0
M  V30 1293 H 120.101 -3.35592 -2.02201 0
M  V30 1294 H 121.798 -3.61727 -1.73073 0
M  V30 1295 H 118.388 -4.26227 -0.450357 0
M  V30 1296 H 122.572 -4.95711 0.241748 0
M  V30 1297 H 117.828 -5.99487 1.20106 0
M  V30 1298 H 122.002 -6.70284 1.88924 0
M  V30 1299 H 119.629 -7.2215 2.37494 0
M  V30 1300 N 121.204 0.198386 -1.56346 0
M  V30 1301 C 122.154 1.2499 -1.90687 0
M  V30 1302 C 123.138 1.41158 -0.772217 0
M  V30 1303 O 124.33 1.43584 -1.03502 0
M  V30 1304 C 121.459 2.59542 -2.24706 0
M  V30 1305 C 120.545 2.47181 -3.44619 0
M  V30 1306 N 120.936 2.04495 -4.62618 0
M  V30 1307 C 119.234 2.78082 -3.48692 0
M  V30 1308 C 119.935 2.03945 -5.44776 0
M  V30 1309 N 118.911 2.45323 -4.85095 0
M  V30 1310 H 122.713 0.911149 -2.7942 0
M  V30 1311 H 120.227 0.40684 -1.57221 0
M  V30 1312 H 122.224 3.3549 -2.47491 0
M  V30 1313 H 120.884 2.94244 -1.37298 0
M  V30 1314 H 121.895 1.75256 -4.87345 0
M  V30 1315 H 118.572 3.17002 -2.71691 0
M  V30 1316 H 119.962 1.72872 -6.4928 0
M  V30 1317 N 122.682 1.50554 0.465978 0
M  V30 1318 C 123.63 1.70324 1.58406 0
M  V30 1319 C 124.624 0.569139 1.59553 0
M  V30 1320 O 125.83 0.749776 1.63641 0
M  V30 1321 H 122.205 0.537688 0.525734 0
M  V30 1322 H 124.176 2.64104 1.38894 0
M  V30 1323 C 122.925 1.81928 2.96307 0
M  V30 1324 H 122.248 2.68586 2.96144 0
M  V30 1325 H 123.688 1.99784 3.73982 0
M  V30 1326 C 122.147 0.572095 3.32007 0
M  V30 1327 O 122.677 -0.286416 4.00678 0
M  V30 1328 N 120.883 0.424606 2.87481 0
M  V30 1329 H 120.43 1.12427 2.31771 0
M  V30 1330 H 120.388 -0.408697 3.11732 0
M  V30 1331 N 124.16 -0.719506 1.40217 0
M  V30 1332 C 125.385 -1.51371 1.4178 0
M  V30 1333 C 125.81 -1.88091 0.0182355 0
M  V30 1334 O 125.168 -1.52997 -0.972707 0
M  V30 1335 C 125.216 -2.768 2.31115 0
M  V30 1336 O 124.32 -3.73349 1.7517 0
M  V30 1337 H 123.661 -0.456529 0.482159 0
M  V30 1338 H 126.191 -0.88644 1.844 0
M  V30 1339 H 126.201 -3.25371 2.46167 0
M  V30 1340 H 124.876 -2.49407 3.3282 0
M  V30 1341 H 123.453 -3.32179 1.69444 0
M  V30 1342 N 125.638 -1.25649 -0.95132 0
M  V30 1343 C 126.588 -1.03004 -2.03406 0
M  V30 1344 C 127.572 0.034187 -1.60864 0
M  V30 1345 O 128.764 -0.181549 -1.76066 0
M  V30 1346 C 125.893 -0.654255 -3.37008 0
M  V30 1347 C 124.979 -1.75542 -3.86065 0
M  V30 1348 N 125.37 -2.99113 -4.07879 0
M  V30 1349 C 123.668 -1.63669 -4.14884 0
M  V30 1350 C 124.369 -3.70611 -4.48356 0
M  V30 1351 N 123.345 -2.98247 -4.54477 0
M  V30 1352 H 127.147 -1.96813 -2.1827 0
M  V30 1353 H 124.661 -1.16017 -1.13639 0
M  V30 1354 H 126.658 -0.473206 -4.14206 0
M  V30 1355 H 125.318 0.276468 -3.23521 0
M  V30 1356 H 126.329 -3.35124 -3.94857 0
M  V30 1357 H 123.006 -0.775161 -4.10241 0
M  V30 1358 H 124.396 -4.76695 -4.73509 0
M  V30 1359 N 127.117 1.15442 -1.07289 0
M  V30 1360 C 128.363 1.86489 -0.796846 0
M  V30 1361 C 128.696 1.82078 0.675371 0
M  V30 1362 O 127.971 1.24346 1.4956 0
M  V30 1363 C 128.254 3.35626 -1.30489 0
M  V30 1364 C 128.107 3.48673 -2.84161 0
M  V30 1365 C 129.426 4.30357 -0.920907 0
M  V30 1366 H 126.545 0.677144 -0.290939 0
M  V30 1367 H 129.187 1.35633 -1.33056 0
M  V30 1368 H 127.337 3.79068 -0.850883 0
M  V30 1369 H 129.009 3.14099 -3.37846 0
M  V30 1370 H 127.252 2.90253 -3.22391 0
M  V30 1371 H 127.923 4.53453 -3.14777 0
M  V30 1372 H 130.399 3.94871 -1.3121 0
M  V30 1373 H 129.275 5.33193 -1.30372 0
M  V30 1374 H 129.536 4.4176 0.173226 0
M  V30 1375 N 128.595 0.856903 1.32268 0
M  V30 1376 C 129.543 0.291987 2.3076 0
M  V30 1377 C 130.537 -0.585857 1.58947 0
M  V30 1378 O 131.743 -0.47341 1.73663 0
M  V30 1379 H 128.118 0.075721 0.748178 0
M  V30 1380 H 130.089 1.13687 2.75895 0
M  V30 1381 C 128.838 -0.502869 3.44044 0
M  V30 1382 H 128.161 0.163328 3.99466 0
M  V30 1383 H 129.601 -0.863691 4.1511 0
M  V30 1384 C 128.06 -1.68898 2.91505 0
M  V30 1385 O 128.59 -2.78811 2.89184 0
M  V30 1386 N 126.796 -1.51679 2.47875 0
M  V30 1387 H 126.343 -0.622666 2.49961 0
M  V30 1388 H 126.301 -2.31184 2.13076 0
M  V30 1389 N 130.073 -1.45103 0.615059 0
M  V30 1390 C 131.484 -1.85654 0.197383 0
M  V30 1391 C 131.835 -1.51433 -1.24749 0
M  V30 1392 O 130.96 -0.944608 -1.94695 0
M  V30 1393 C 131.555 -3.36972 0.351448 0
M  V30 1394 C 130.114 -3.76398 -0.011593 0
M  V30 1395 C 129.261 -2.69024 0.672394 0
M  V30 1396 H 132.212 -1.35797 0.821263 0
M  V30 1397 H 132.233 -3.78239 -0.414227 0
M  V30 1398 H 131.745 -3.61847 1.40314 0
M  V30 1399 H 129.846 -3.5714 -1.06217 0
M  V30 1400 H 129.959 -4.77532 0.387265 0
M  V30 1401 H 128.323 -2.54465 0.109284 0
M  V30 1402 H 129.106 -2.96735 1.72636 0
M  V30 1403 N 131.551 -0.354651 -1.53558 0
M  V30 1404 C 132.481 0.489091 -2.2832 0
M  V30 1405 C 133.462 1.09324 -1.30316 0
M  V30 1406 O 134.647 1.11255 -1.59173 0
M  V30 1407 C 131.777 1.63456 -3.0643 0
M  V30 1408 C 130.731 1.1582 -4.12031 0
M  V30 1409 C 130.057 2.39305 -4.7816 0
M  V30 1410 C 131.357 0.250731 -5.21698 0
M  V30 1411 H 133.051 -0.134614 -2.99097 0
M  V30 1412 H 130.597 -0.0661826 -1.43848 0
M  V30 1413 H 132.55 2.23136 -3.57475 0
M  V30 1414 H 131.274 2.28533 -2.33325 0
M  V30 1415 H 129.933 0.584146 -3.61916 0
M  V30 1416 H 129.581 3.02814 -4.01637 0
M  V30 1417 H 129.281 2.08109 -5.49513 0
M  V30 1418 H 130.805 2.99691 -5.31994 0
M  V30 1419 H 132.219 0.754695 -5.68311 0
M  V30 1420 H 130.616 0.0301468 -6.00092 0
M  V30 1421 H 131.686 -0.710125 -4.79672 0
M  V30 1422 N 133.029 1.57378 -0.0835403 0
M  V30 1423 C 134.44 1.81261 0.447358 0
M  V30 1424 C 134.791 0.998331 1.68902 0
M  V30 1425 O 133.916 0.224282 2.15235 0
M  V30 1426 C 134.511 3.28767 0.818386 0
M  V30 1427 C 133.07 3.53455 1.29409 0
M  V30 1428 C 132.217 2.75831 0.285024 0
M  V30 1429 H 135.168 1.5566 -0.309115 0
M  V30 1430 H 135.189 3.41459 1.67887 0
M  V30 1431 H 134.701 3.88006 -0.0855019 0
M  V30 1432 H 132.802 2.99534 2.21608 0
M  V30 1433 H 132.915 4.62128 1.2639 0
M  V30 1434 H 131.279 2.42947 0.764767 0
M  V30 1435 H 132.062 3.37813 -0.611341 0
M  V30 1436 N 134.507 -0.190092 1.56449 0
M  V30 1437 C 135.735 -0.925772 1.85033 0
M  V30 1438 C 136.15 -1.76638 0.666658 0
M  V30 1439 O 135.507 -1.78822 -0.364565 0
M  V30 1440 C 135.558 -1.81786 3.12468 0
M  V30 1441 O 135.279 -1.01118 4.26271 0
M  V30 1442 C 136.78 -2.6648 3.54265 0
M  V30 1443 H 134 -0.269872 0.614337 0
M  V30 1444 H 136.544 -0.195837 2.0356 0
M  V30 1445 H 134.699 -2.50136 2.95822 0
M  V30 1446 H 135.113 -1.61956 4.98869 0
M  V30 1447 H 136.587 -3.24722 4.46385 0
M  V30 1448 H 137.064 -3.40434 2.77491 0
M  V30 1449 H 137.67 -2.03493 3.73458 0
M  V30 1450 N 135.985 -1.50799 -0.457987 0
M  V30 1451 C 137.233 -1.62121 -1.2067 0
M  V30 1452 C 137.554 -0.329793 -1.92191 0
M  V30 1453 O 136.824 0.653409 -1.84682 0
M  V30 1454 H 135.404 -0.597441 -0.448411 0
M  V30 1455 H 138.066 -1.87637 -0.527096 0
M  V30 1456 H 137.162 -2.43882 -1.94751 0
M  V30 1457 N 137.463 0.71206 -1.40597 0
M  V30 1458 C 138.693 1.49894 -1.42181 0
M  V30 1459 C 139.101 1.89189 -0.0208078 0
M  V30 1460 O 138.444 1.56223 0.966436 0
M  V30 1461 C 138.506 2.80215 -2.25211 0
M  V30 1462 C 138.17 2.63221 -3.73582 0
M  V30 1463 C 139.167 2.30249 -4.66135 0
M  V30 1464 C 136.852 2.79376 -4.17438 0
M  V30 1465 C 138.846 2.13645 -6.00529 0
M  V30 1466 C 136.533 2.6239 -5.51901 0
M  V30 1467 C 137.531 2.29573 -6.43262 0
M  V30 1468 O 137.219 2.12719 -7.75246 0
M  V30 1469 H 136.951 0.469031 -0.486812 0
M  V30 1470 H 139.505 0.88564 -1.85326 0
M  V30 1471 H 137.735 3.4389 -1.76852 0
M  V30 1472 H 139.424 3.41947 -2.18694 0
M  V30 1473 H 140.19 2.17398 -4.33547 0
M  V30 1474 H 136.069 3.03906 -3.46644 0
M  V30 1475 H 139.613 1.87953 -6.71803 0
M  V30 1476 H 135.51 2.74826 -5.84073 0
M  V30 1477 H 136.278 2.27611 -7.86216 0
M  V30 1478 N 138.941 1.26152 0.944643 0
M  V30 1479 C 139.851 1.09176 2.07648 0
M  V30 1480 C 140.867 0.0261935 1.7398 0
M  V30 1481 O 142.043 0.229208 2.00091 0
M  V30 1482 C 139.108 0.722915 3.39079 0
M  V30 1483 C 138.169 1.86752 3.86552 0
M  V30 1484 C 137.402 1.51617 5.11711 0
M  V30 1485 O 137.625 0.416331 5.68879 0
M  V30 1486 O 136.559 2.34975 5.54139 0
M  V30 1487 H 140.385 2.0412 2.24875 0
M  V30 1488 H 137.97 1.05182 1.061 0
M  V30 1489 H 139.852 0.529787 4.18056 0
M  V30 1490 H 138.527 -0.197159 3.23099 0
M  V30 1491 H 137.434 2.11558 3.08535 0
M  V30 1492 H 138.767 2.76719 4.07047 0
M  V30 1493 N 140.419 -1.14872 1.07899 0
M  V30 1494 C 141.369 -2.17809 0.674027 0
M  V30 1495 C 142.353 -1.58008 -0.303699 0
M  V30 1496 O 143.545 -1.76616 -0.11654 0
M  V30 1497 C 140.674 -3.43208 0.0793318 0
M  V30 1498 C 139.76 -4.10051 1.08253 0
M  V30 1499 N 140.151 -4.52296 2.2641 0
M  V30 1500 C 138.449 -4.36469 0.917124 0
M  V30 1501 C 139.15 -5.04199 2.901 0
M  V30 1502 N 138.126 -4.98088 2.17736 0
M  V30 1503 H 141.928 -2.48207 1.57386 0
M  V30 1504 H 139.442 -1.315 0.952976 0
M  V30 1505 H 141.439 -4.16272 -0.228719 0
M  V30 1506 H 140.099 -3.14291 -0.815551 0
M  V30 1507 H 141.11 -4.45504 2.64096 0
M  V30 1508 H 137.787 -4.17432 0.0756078 0
M  V30 1509 H 139.177 -5.46802 3.90458 0
M  V30 1510 N 141.898 -0.863906 -1.31812 0
M  V30 1511 C 143.309 -0.52522 -1.7916 0
M  V30 1512 C 143.66 0.957518 -1.71248 0
M  V30 1513 O 142.785 1.74734 -1.27659 0
M  V30 1514 C 143.38 -0.9466 -3.25307 0
M  V30 1515 C 141.939 -0.659668 -3.70574 0
M  V30 1516 C 141.086 -1.14126 -2.52726 0
M  V30 1517 H 144.037 -1.05022 -1.1898 0
M  V30 1518 H 144.058 -0.266766 -3.79564 0
M  V30 1519 H 143.57 -2.02579 -3.31034 0
M  V30 1520 H 141.671 0.408416 -3.70355 0
M  V30 1521 H 141.784 -1.23245 -4.62977 0
M  V30 1522 H 140.148 -0.561216 -2.4844 0
M  V30 1523 H 140.931 -2.22775 -2.61201 0
M  V30 1524 O 143.415 1.42347 -0.762857 0
M  V30 1525 H 144.106 1.90974 -0.323817 0
M  V30 END ATOM
M  V30 BEGIN BOND
M  V30 END BOND
M  V30 END CTAB
M  END
$$$$
