drugbank_target|P19404 NADH dehydrogenase [ubiquinone] flavoprotein 2, mitochondrial (DB00157)
 OpenBabel12092119253D

  0  0  0     0  0            999 V3000
M  V30 BEGIN CTAB
M  V30 COUNTS 3859 3905 0 0 0
M  V30 BEGIN ATOM
M  V30 1 H -0.908 1.98254 -0.117106 0
M  V30 2 N 0 1.576 0 0
M  V30 3 C 0.933 2.03868 1.02534 0
M  V30 4 C 1.911 0.928543 1.3348 0
M  V30 5 O 3.095 1.19667 1.45644 0
M  V30 6 C 0.222 2.43627 2.35294 0
M  V30 7 C -0.732 3.65373 2.2001 0
M  V30 8 S 0.101 5.13292 1.52614 0
M  V30 9 C 1.257 5.56322 2.86805 0
M  V30 10 H 1.49 2.90518 0.631377 0
M  V30 11 H -0.977 1.52953 0.210867 0
M  V30 12 H 0.981 2.67203 3.11629 0
M  V30 13 H -0.358 1.57376 2.7183 0
M  V30 14 H -1.165 3.90944 3.18086 0
M  V30 15 H -1.563 3.418 1.51819 0
M  V30 16 H 0.729 5.58782 3.83104 0
M  V30 17 H 1.672 6.56266 2.65933 0
M  V30 18 H 2.08 4.83886 2.90714 0
M  V30 19 N 1.4781 -0.272755 1.55222 0
M  V30 20 C 2.7251 -1.00433 1.7584 0
M  V30 21 C 3.0531 -1.86275 0.559629 0
M  V30 22 O 2.3081 -1.90269 -0.457857 0
M  V30 23 C 2.6071 -1.91642 3.01675 0
M  V30 24 C 2.2731 -1.21548 4.34208 0
M  V30 25 C 0.9351 -1.02166 4.70229 0
M  V30 26 C 3.2871 -0.716684 5.16249 0
M  V30 27 C 0.6151 -0.316334 5.85847 0
M  V30 28 C 2.9671 -0.0249476 6.32595 0
M  V30 29 C 1.6311 0.180579 6.67256 0
M  V30 30 H 0.9011 -0.367509 0.643443 0
M  V30 31 H 3.5481 -0.276596 1.89492 0
M  V30 32 H 1.8531 -2.71037 2.82924 0
M  V30 33 H 3.5501 -2.48369 3.14824 0
M  V30 34 H 0.1401 -1.37645 4.05896 0
M  V30 35 H 4.3241 -0.854047 4.88896 0
M  V30 36 H -0.4199 -0.146378 6.11225 0
M  V30 37 H 3.7541 0.369311 6.9542 0
M  V30 38 H 1.3811 0.729098 7.56696 0
M  V30 39 N 2.9562 -1.48159 -0.537278 0
M  V30 40 C 4.2032 -1.55804 -1.29349 0
M  V30 41 C 4.5312 -0.228802 -1.9315 0
M  V30 42 O 3.7862 0.780242 -1.79473 0
M  V30 43 C 4.0852 -2.63956 -2.40961 0
M  V30 44 C 3.7512 -4.0662 -1.94861 0
M  V30 45 C 2.4132 -4.45452 -1.82006 0
M  V30 46 C 4.7652 -4.96055 -1.59933 0
M  V30 47 C 2.0932 -5.71531 -1.32547 0
M  V30 48 C 4.4452 -6.22617 -1.11939 0
M  V30 49 C 3.1092 -6.60312 -0.976951 0
M  V30 50 H 2.3792 -0.570129 -0.473322 0
M  V30 51 H 5.0262 -1.81845 -0.600372 0
M  V30 52 H 3.3312 -2.31747 -3.15912 0
M  V30 53 H 5.0282 -2.67089 -2.99107 0
M  V30 54 H 1.6182 -3.75949 -2.05815 0
M  V30 55 H 5.8022 -4.66738 -1.68728 0
M  V30 56 H 1.0582 -5.99468 -1.202 0
M  V30 57 H 5.2322 -6.91318 -0.839811 0
M  V30 58 H 2.8592 -7.57895 -0.591501 0
M  V30 59 N 4.4343 0.785586 -1.36625 0
M  V30 60 C 5.6593 1.57963 -1.34397 0
M  V30 61 C 6.0843 1.87964 0.071526 0
M  V30 62 O 5.4423 1.48182 1.0446 0
M  V30 63 C 5.4903 2.87511 -2.17646 0
M  V30 64 O 4.5943 3.81281 -1.57158 0
M  V30 65 H 3.9353 0.479014 -0.459828 0
M  V30 66 H 6.4653 0.973411 -1.79961 0
M  V30 67 H 6.4753 3.36745 -2.30362 0
M  V30 68 H 5.1503 2.65002 -3.20541 0
M  V30 69 H 3.7273 3.39885 -1.53403 0
M  V30 70 N 5.9124 1.20967 1.01018 0
M  V30 71 C 6.8754 0.965918 2.07853 0
M  V30 72 C 7.8754 -0.0610545 1.60684 0
M  V30 73 O 9.0654 0.175681 1.73312 0
M  V30 74 C 6.1974 0.455513 3.37843 0
M  V30 75 H 7.3904 1.91365 2.3091 0
M  V30 76 H 4.9434 1.02594 1.17916 0
M  V30 77 H 5.6784 -0.497381 3.20463 0
M  V30 78 H 5.4634 1.19622 3.73407 0
M  V30 79 H 6.9534 0.304667 4.16487 0
M  V30 80 N 7.3905 -1.2043 1.01659 0
M  V30 81 C 8.3535 -2.21433 0.591616 0
M  V30 82 C 9.3535 -1.57203 -0.338226 0
M  V30 83 O 10.5435 -1.73737 -0.126918 0
M  V30 84 C 7.6755 -3.40628 -0.136058 0
M  V30 85 H 8.8685 -2.60545 1.48514 0
M  V30 86 H 6.4215 -1.33893 0.806379 0
M  V30 87 H 7.1565 -3.07019 -1.04449 0
M  V30 88 H 6.9415 -3.88475 0.531917 0
M  V30 89 H 8.4315 -4.15475 -0.420735 0
M  V30 90 N 8.8686 -0.792821 -1.36206 0
M  V30 91 C 9.7986 -0.207853 -2.32573 0
M  V30 92 C 10.7796 0.659055 -1.56813 0
M  V30 93 O 11.9646 0.592176 -1.84951 0
M  V30 94 C 9.0946 0.655449 -3.41059 0
M  V30 95 C 8.0486 -0.111842 -4.27854 0
M  V30 96 C 7.3746 0.872274 -5.27537 0
M  V30 97 C 8.6746 -1.30299 -5.05786 0
M  V30 98 H 10.3686 -1.01294 -2.81744 0
M  V30 99 H 7.9146 -0.48854 -1.3546 0
M  V30 100 H 9.8676 1.07464 -4.07467 0
M  V30 101 H 8.5916 1.49328 -2.90463 0
M  V30 102 H 7.2506 -0.512053 -3.63006 0
M  V30 103 H 6.8986 1.70523 -4.73214 0
M  V30 104 H 6.5986 0.363291 -5.86476 0
M  V30 105 H 8.1226 1.28996 -5.96818 0
M  V30 106 H 9.5366 -0.959379 -5.65216 0
M  V30 107 H 7.9336 -1.7455 -5.74154 0
M  V30 108 H 9.0036 -2.09663 -4.37229 0
M  V30 109 N 10.3467 1.47872 -0.545128 0
M  V30 110 C 11.7627 1.5829 -0.204032 0
M  V30 111 C 11.9627 1.54529 1.29317 0
M  V30 112 O 11.0187 1.44232 2.07252 0
M  V30 113 C 12.3317 2.89304 -0.819987 0
M  V30 114 C 13.8797 3.02864 -0.790105 0
M  V30 115 C 14.3547 4.3656 -1.38491 0
M  V30 116 N 15.8457 4.43165 -1.34755 0
M  V30 117 C 16.5807 5.45153 -1.77753 0
M  V30 118 N 16.0767 6.54016 -2.2855 0
M  V30 119 N 17.8697 5.36125 -1.68897 0
M  V30 120 H 10.0207 1.4856 -1.51802 0
M  V30 121 H 12.2837 0.706305 -0.632327 0
M  V30 122 H 11.9897 2.97757 -1.87173 0
M  V30 123 H 11.8637 3.75957 -0.305915 0
M  V30 124 H 14.2507 2.94014 0.252913 0
M  V30 125 H 14.3317 2.17782 -1.34181 0
M  V30 126 H 13.9757 4.46164 -2.42693 0
M  V30 127 H 13.9057 5.20353 -0.808754 0
M  V30 128 H 16.3967 3.65083 -0.975855 0
M  V30 129 H 16.7097 7.27994 -2.59314 0
M  V30 130 H 15.0547 6.54938 -2.32553 0
M  V30 131 H 18.2457 4.49975 -1.28998 0
M  V30 132 H 18.4187 6.15472 -2.02726 0
M  V30 133 N 11.8248 0.280983 1.55075 0
M  V30 134 C 12.7878 -0.590896 2.21452 0
M  V30 135 C 13.7878 -1.07682 1.19421 0
M  V30 136 O 14.9778 -0.97605 1.44288 0
M  V30 137 C 12.1098 -1.81587 2.88511 0
M  V30 138 H 13.3028 -0.0112554 2.99898 0
M  V30 139 H 10.8558 0.0316438 1.56268 0
M  V30 140 H 11.5908 -2.43587 2.14093 0
M  V30 141 H 11.3758 -1.4753 3.63287 0
M  V30 142 H 12.8658 -2.43575 3.39206 0
M  V30 143 N 13.3029 -1.57598 0.00835791 0
M  V30 144 C 14.7189 -1.55764 -0.347822 0
M  V30 145 C 14.9189 -1.01186 -1.74252 0
M  V30 146 O 13.9749 -0.649371 -2.44007 0
M  V30 147 C 15.2879 -2.99927 -0.215407 0
M  V30 148 C 16.8359 -3.11656 -0.289725 0
M  V30 149 C 17.3109 -4.57621 -0.18634 0
M  V30 150 N 18.8019 -4.62557 -0.243978 0
M  V30 151 C 19.5369 -5.73094 -0.18745 0
M  V30 152 N 19.0329 -6.92753 -0.0810331 0
M  V30 153 N 20.8259 -5.61588 -0.239925 0
M  V30 154 H 12.9769 -1.91411 0.92062 0
M  V30 155 H 15.2399 -0.879562 0.353659 0
M  V30 156 H 14.9459 -3.43729 0.744512 0
M  V30 157 H 14.8199 -3.63865 -0.994097 0
M  V30 158 H 17.2069 -2.67779 -1.24009 0
M  V30 159 H 17.2879 -2.5048 0.51898 0
M  V30 160 H 16.9319 -5.02174 0.760519 0
M  V30 161 H 16.8619 -5.16752 -1.01364 0
M  V30 162 H 19.3529 -3.76481 -0.327217 0
M  V30 163 H 19.6659 -7.72787 -0.0440241 0
M  V30 164 H 18.0109 -6.94984 -0.0465419 0
M  V30 165 H 21.2019 -4.66996 -0.321317 0
M  V30 166 H 21.3749 -6.47714 -0.192407 0
M  V30 167 N 14.781 0.264519 -1.55364 0
M  V30 168 C 15.744 1.31046 -1.88042 0
M  V30 169 C 16.744 1.41943 -0.755569 0
M  V30 170 O 17.934 1.40947 -1.02369 0
M  V30 171 C 15.066 2.69067 -2.09323 0
M  V30 172 H 16.259 1.03297 -2.81549 0
M  V30 173 H 13.812 0.502989 -1.47986 0
M  V30 174 H 14.547 3.01982 -1.18226 0
M  V30 175 H 14.332 2.62542 -2.91229 0
M  V30 176 H 15.822 3.44623 -2.35848 0
M  V30 177 N 16.2591 1.48442 0.529413 0
M  V30 178 C 17.2221 1.62524 1.61612 0
M  V30 179 C 18.2221 0.498509 1.52877 0
M  V30 180 O 19.4121 0.76431 1.56537 0
M  V30 181 C 16.5441 1.59597 3.01233 0
M  V30 182 H 17.7371 2.59423 1.50465 0
M  V30 183 H 15.2901 1.37047 0.751514 0
M  V30 184 H 16.0251 0.641781 3.17886 0
M  V30 185 H 15.8101 2.41397 3.08982 0
M  V30 186 H 17.3001 1.72646 3.80241 0
M  V30 187 N 17.7372 -0.778329 1.37039 0
M  V30 188 C 18.9852 -1.53361 1.31623 0
M  V30 189 C 19.3062 -1.94739 -0.100831 0
M  V30 190 O 18.5762 -1.65797 -1.04347 0
M  V30 191 H 17.1562 -0.568794 0.484234 0
M  V30 192 H 19.8182 -0.926742 1.71457 0
M  V30 193 H 18.9142 -2.43606 1.95096 0
M  V30 194 N 19.2153 -1.21501 -1.00376 0
M  V30 195 C 20.1453 -0.999478 -2.11028 0
M  V30 196 C 21.1263 0.0759671 -1.6993 0
M  V30 197 O 22.3113 -0.0841106 -1.94018 0
M  V30 198 C 19.4413 -0.564709 -3.42678 0
M  V30 199 C 18.3953 -1.58486 -3.97576 0
M  V30 200 C 17.7213 -1.00628 -5.25146 0
M  V30 201 C 19.0213 -2.97204 -4.29496 0
M  V30 202 H 20.7153 -1.92495 -2.29317 0
M  V30 203 H 18.2613 -0.92693 -1.102 0
M  V30 204 H 20.2143 -0.401091 -4.19487 0
M  V30 205 H 18.9383 0.396411 -3.24185 0
M  V30 206 H 17.5973 -1.73606 -3.22888 0
M  V30 207 H 17.2453 -0.0368439 -5.02987 0
M  V30 208 H 16.9453 -1.68771 -5.62841 0
M  V30 209 H 18.4693 -0.854015 -6.04598 0
M  V30 210 H 19.8833 -2.8552 -4.97143 0
M  V30 211 H 18.2803 -3.62372 -4.78338 0
M  V30 212 H 19.3503 -3.47956 -3.3772 0
M  V30 213 N 20.6934 1.19889 -1.02296 0
M  V30 214 C 21.9214 1.9339 -0.735399 0
M  V30 215 C 22.3364 1.75148 0.704887 0
M  V30 216 O 21.6934 1.06954 1.47875 0
M  V30 217 C 21.7444 3.45313 -1.06962 0
M  V30 218 O 21.4654 3.62964 -2.45334 0
M  V30 219 C 22.9664 4.35948 -0.804021 0
M  V30 220 H 20.1864 0.61448 -0.269546 0
M  V30 221 H 22.7304 1.522 -1.36585 0
M  V30 222 H 20.8854 3.84359 -0.484455 0
M  V30 223 H 21.2994 4.56886 -2.57595 0
M  V30 224 H 22.7734 5.41174 -1.0879 0
M  V30 225 H 23.2504 4.3842 0.261691 0
M  V30 226 H 23.8564 4.02574 -1.37164 0
M  V30 227 N 22.1715 0.800033 1.35784 0
M  V30 228 C 23.1345 0.211565 2.28221 0
M  V30 229 C 24.1345 -0.59728 1.49296 0
M  V30 230 O 25.3245 -0.416721 1.69142 0
M  V30 231 C 22.4565 -0.705846 3.33513 0
M  V30 232 H 23.6495 1.02677 2.81776 0
M  V30 233 H 21.2025 0.570211 1.45528 0
M  V30 234 H 21.9375 -1.54498 2.85133 0
M  V30 235 H 21.7225 -0.127655 3.91892 0
M  V30 236 H 23.2125 -1.11211 4.02519 0
M  V30 237 N 23.6496 -1.47581 0.552962 0
M  V30 238 C 24.5996 -2.26961 -0.217423 0
M  V30 239 C 25.5836 -1.34099 -0.889168 0
M  V30 240 O 26.7756 -1.58483 -0.788176 0
M  V30 241 C 23.9046 -3.19756 -1.24944 0
M  V30 242 C 22.9906 -4.20097 -0.581327 0
M  V30 243 N 23.3816 -5.04614 0.346171 0
M  V30 244 C 21.6796 -4.38099 -0.835767 0
M  V30 245 C 22.3806 -5.77052 0.733854 0
M  V30 246 N 21.3566 -5.43526 0.0896567 0
M  V30 247 H 25.1586 -2.89688 0.495761 0
M  V30 248 H 22.6726 -1.58068 0.372597 0
M  V30 249 H 24.6696 -3.75305 -1.81527 0
M  V30 250 H 23.3296 -2.58585 -1.96376 0
M  V30 251 H 24.3406 -5.12869 0.720098 0
M  V30 252 H 21.0176 -3.88102 -1.53892 0
M  V30 253 H 22.4076 -6.5504 1.49574 0
M  V30 254 N 25.1277 -0.289203 -1.54924 0
M  V30 255 C 26.3737 0.316922 -2.00916 0
M  V30 256 C 26.7287 1.52424 -1.17408 0
M  V30 257 O 26.0217 1.90097 -0.239536 0
M  V30 258 C 26.2157 0.736119 -3.49737 0
M  V30 259 C 26.0447 -0.429036 -4.47649 0
M  V30 260 C 24.8147 -0.917311 -4.96904 0
M  V30 261 C 27.0127 -1.27016 -4.98369 0
M  V30 262 N 24.9947 -2.05046 -5.78644 0
M  V30 263 C 26.3657 -2.25097 -5.77695 0
M  V30 264 C 28.4207 -1.30188 -4.80578 0
M  V30 265 C 27.1237 -3.26114 -6.41126 0
M  V30 266 C 29.1497 -2.30057 -5.44819 0
M  V30 267 C 28.5117 -3.2687 -6.23968 0
M  V30 268 H 24.6107 0.0807535 -0.777819 0
M  V30 269 H 27.1947 -0.416434 -1.90194 0
M  V30 270 H 25.3657 1.43867 -3.60773 0
M  V30 271 H 27.0977 1.32078 -3.82541 0
M  V30 272 H 23.8527 -0.494248 -4.71014 0
M  V30 273 H 24.2767 -2.62108 -6.24202 0
M  V30 274 H 28.9187 -0.567163 -4.18979 0
M  V30 275 H 26.6367 -4.00512 -7.01866 0
M  V30 276 H 30.2227 -2.33271 -5.32988 0
M  V30 277 H 29.1027 -4.02883 -6.72796 0
M  V30 278 N 26.6058 1.57591 -0.0167156 0
M  V30 279 C 27.8538 1.90906 0.663285 0
M  V30 280 C 28.1748 0.892509 1.73376 0
M  V30 281 O 27.4448 -0.0677623 1.95783 0
M  V30 282 H 26.0248 0.704637 0.247983 0
M  V30 283 H 28.6868 1.94803 -0.0615909 0
M  V30 284 H 27.7828 2.9116 1.12393 0
M  V30 285 N 28.0839 -0.256276 1.55502 0
M  V30 286 C 29.4999 -0.604325 1.47716 0
M  V30 287 C 29.6999 -1.88763 0.705039 0
M  V30 288 O 28.7559 -2.51445 0.230613 0
M  V30 289 C 30.0689 -0.715756 2.92057 0
M  V30 290 C 31.6169 -0.808706 3.02372 0
M  V30 291 C 32.0919 -0.951777 4.48001 0
M  V30 292 N 33.5829 -1.01688 4.519 0
M  V30 293 C 34.3179 -1.14668 5.61817 0
M  V30 294 N 33.8139 -1.24261 6.81565 0
M  V30 295 N 35.6069 -1.1791 5.49594 0
M  V30 296 H 27.7579 0.586291 2.04148 0
M  V30 297 H 30.0209 0.201015 0.926443 0
M  V30 298 H 29.7269 0.157027 3.51349 0
M  V30 299 H 29.6009 -1.59071 3.42018 0
M  V30 300 H 31.9879 -1.67195 2.43166 0
M  V30 301 H 32.0689 0.0912063 2.55637 0
M  V30 302 H 31.7129 -0.0931291 5.07815 0
M  V30 303 H 31.6429 -1.86659 4.92408 0
M  V30 304 H 34.1339 -0.954468 3.65648 0
M  V30 305 H 34.4469 -1.34046 7.61086 0
M  V30 306 H 32.7919 -1.21236 6.84344 0
M  V30 307 H 35.9829 -1.10057 4.54978 0
M  V30 308 H 36.1559 -1.27681 6.35296 0
M  V30 309 N 29.562 -1.4872 -0.521534 0
M  V30 310 C 30.512 -1.60269 -1.62166 0
M  V30 311 C 31.496 -0.45935 -1.54204 0
M  V30 312 O 32.688 -0.711241 -1.62081 0
M  V30 313 C 29.817 -1.65344 -3.00859 0
M  V30 314 C 28.903 -2.85187 -3.13894 0
M  V30 315 N 29.294 -4.09509 -2.96877 0
M  V30 316 C 27.592 -2.82695 -3.44963 0
M  V30 317 C 28.293 -4.89959 -3.13552 0
M  V30 318 N 27.269 -4.22934 -3.41508 0
M  V30 319 H 31.071 -2.5413 -1.47632 0
M  V30 320 H 28.585 -1.45209 -0.727194 0
M  V30 321 H 30.582 -1.71713 -3.79895 0
M  V30 322 H 29.242 -0.726058 -3.16478 0
M  V30 323 H 30.253 -4.39814 -2.73467 0
M  V30 324 H 26.93 -1.99249 -3.66887 0
M  V30 325 H 28.32 -5.98654 -3.05061 0
M  V30 326 N 31.0401 0.771051 -1.3745 0
M  V30 327 C 32.2861 1.5319 -1.32894 0
M  V30 328 C 32.6191 1.94008 0.0862511 0
M  V30 329 O 31.8941 1.64124 1.04373 0
M  V30 330 C 32.1771 2.79648 -2.26868 0
M  V30 331 C 32.0301 2.45079 -3.77169 0
M  V30 332 C 33.3491 3.81583 -2.19277 0
M  V30 333 H 30.4681 0.555744 -0.484064 0
M  V30 334 H 33.1101 0.884492 -1.68157 0
M  V30 335 H 31.2601 3.34891 -1.96926 0
M  V30 336 H 32.9321 1.95745 -4.1771 0
M  V30 337 H 31.1751 1.77767 -3.95704 0
M  V30 338 H 31.8461 3.35478 -4.38359 0
M  V30 339 H 34.3221 3.35835 -2.45671 0
M  V30 340 H 33.1981 4.67787 -2.87171 0
M  V30 341 H 33.4591 4.25897 -1.18592 0
M  V30 342 N 32.5182 1.22032 0.997298 0
M  V30 343 C 33.9342 0.979326 1.26021 0
M  V30 344 C 34.1342 -0.32972 1.98784 0
M  V30 345 O 33.1902 -1.05345 2.29475 0
M  V30 346 C 34.5032 2.17509 2.07631 0
M  V30 347 C 36.0512 2.21817 2.2083 0
M  V30 348 C 36.5262 3.40933 3.05825 0
M  V30 349 N 38.0172 3.41067 3.13412 0
M  V30 350 C 38.7522 4.29885 3.79455 0
M  V30 351 N 38.2482 5.28914 4.47462 0
M  V30 352 N 40.0412 4.17673 3.76173 0
M  V30 353 H 32.1922 2.06202 0.509352 0
M  V30 354 H 34.4552 0.90334 0.287541 0
M  V30 355 H 34.1612 3.12415 1.61524 0
M  V30 356 H 34.0352 2.17206 3.08385 0
M  V30 357 H 36.4222 1.27462 2.66153 0
M  V30 358 H 36.5032 2.2616 1.1952 0
M  V30 359 H 36.1472 4.35586 2.61203 0
M  V30 360 H 36.0772 3.33829 4.07266 0
M  V30 361 H 38.5682 2.69406 2.65007 0
M  V30 362 H 38.8812 5.92973 4.95583 0
M  V30 363 H 37.2262 5.32831 4.46224 0
M  V30 364 H 40.4172 3.39564 3.22202 0
M  V30 365 H 40.5902 4.87098 4.27363 0
M  V30 366 N 33.9963 -1.19345 1.0293 0
M  V30 367 C 34.9443 -2.24621 0.604001 0
M  V30 368 C 35.9383 -1.65452 -0.363587 0
M  V30 369 O 37.1443 -1.78497 -0.23212 0
M  V30 370 H 33.5193 -0.730858 0.177061 0
M  V30 371 H 35.4903 -2.5781 1.50255 0
M  V30 372 C 34.2393 -3.47688 -0.0289127 0
M  V30 373 H 33.5623 -3.93505 0.706651 0
M  V30 374 H 35.0023 -4.23011 -0.289432 0
M  V30 375 C 33.4613 -3.11817 -1.2756 0
M  V30 376 O 33.9913 -3.2451 -2.36762 0
M  V30 377 N 32.1973 -2.66246 -1.16453 0
M  V30 378 H 31.7443 -2.56118 -0.275914 0
M  V30 379 H 31.7023 -2.42617 -1.99961 0
M  V30 380 N 35.4744 -0.807222 -1.35358 0
M  V30 381 C 36.4044 -0.232509 -2.3234 0
M  V30 382 C 37.3854 0.642386 -1.57504 0
M  V30 383 O 38.5704 0.572526 -1.85569 0
M  V30 384 C 35.7004 0.619238 -3.41735 0
M  V30 385 C 34.6544 -0.157215 -4.27711 0
M  V30 386 C 33.9804 0.816273 -5.28433 0
M  V30 387 C 35.2804 -1.35656 -5.04376 0
M  V30 388 H 36.9744 -1.04276 -2.80654 0
M  V30 389 H 34.5204 -0.50288 -1.34934 0
M  V30 390 H 36.4734 1.03137 -4.08584 0
M  V30 391 H 35.1974 1.46239 -2.92031 0
M  V30 392 H 33.8564 -0.550525 -3.62443 0
M  V30 393 H 33.5044 1.65494 -4.74996 0
M  V30 394 H 33.2044 0.301067 -5.86828 0
M  V30 395 H 34.7284 1.22659 -5.98153 0
M  V30 396 H 36.1424 -1.01927 -5.64166 0
M  V30 397 H 34.5394 -1.8063 -5.7227 0
M  V30 398 H 35.6094 -2.14288 -4.34981 0
M  V30 399 N 36.9525 1.47285 -0.560781 0
M  V30 400 C 37.9025 2.27073 0.205384 0
M  V30 401 C 38.8865 1.34569 0.882044 0
M  V30 402 O 40.0785 1.58899 0.77976 0
M  V30 403 C 37.2075 3.20414 1.23247 0
M  V30 404 C 36.2935 4.20399 0.559041 0
M  V30 405 N 36.6845 5.04423 -0.372927 0
M  V30 406 C 34.9825 4.38536 0.812522 0
M  V30 407 C 35.6835 5.76655 -0.764446 0
M  V30 408 N 34.6595 5.43471 -0.11848 0
M  V30 409 H 38.4615 2.89422 -0.511117 0
M  V30 410 H 35.9755 1.57868 -0.380975 0
M  V30 411 H 37.9725 3.76262 1.79534 0
M  V30 412 H 36.6325 2.59623 1.95002 0
M  V30 413 H 37.6435 5.1248 -0.747287 0
M  V30 414 H 34.3205 3.88913 1.51832 0
M  V30 415 H 35.7105 6.54238 -1.53045 0
M  V30 416 N 38.4306 0.297415 1.54768 0
M  V30 417 C 39.3776 -0.580276 2.23386 0
M  V30 418 C 40.3476 -1.13238 1.21517 0
M  V30 419 O 41.5326 -1.17757 1.50126 0
M  V30 420 C 38.6726 -1.74801 2.97555 0
M  V30 421 C 37.7856 -1.22764 4.1419 0
M  V30 422 C 36.9206 -2.35895 4.75949 0
M  V30 423 C 35.9596 -1.80974 5.84735 0
M  V30 424 N 35.0966 -2.87664 6.40464 0
M  V30 425 H 39.9366 0.0114833 2.97998 0
M  V30 426 H 37.4736 0.0174361 1.4709 0
M  V30 427 H 39.4316 -2.43475 3.38786 0
M  V30 428 H 38.0616 -2.31145 2.25326 0
M  V30 429 H 37.1136 -0.433271 3.77924 0
M  V30 430 H 38.4256 -0.785551 4.92575 0
M  V30 431 H 37.5796 -3.12523 5.20014 0
M  V30 432 H 36.3186 -2.83429 3.96887 0
M  V30 433 H 35.3236 -1.02834 5.40097 0
M  V30 434 H 36.5486 -1.34348 6.65678 0
M  V30 435 H 34.4946 -3.34538 5.64287 0
M  V30 436 H 34.4116 -2.4794 7.14186 0
M  V30 437 H 35.6796 -3.642 6.89187 0
M  V30 438 N 39.9087 -1.5758 0.0250728 0
M  V30 439 C 41.1367 -1.9593 -0.664747 0
M  V30 440 C 41.5517 -0.901352 -1.65895 0
M  V30 441 O 40.9087 0.117255 -1.82123 0
M  V30 442 C 40.9597 -3.34342 -1.37468 0
M  V30 443 O 40.6807 -4.36079 -0.420324 0
M  V30 444 C 42.1817 -3.873 -2.1567 0
M  V30 445 H 39.4017 -0.645405 -0.183557 0
M  V30 446 H 41.9457 -2.04329 0.0836372 0
M  V30 447 H 40.1007 -3.27175 -2.0745 0
M  V30 448 H 40.5147 -5.16297 -0.923991 0
M  V30 449 H 41.9887 -4.86504 -2.60803 0
M  V30 450 H 42.4657 -3.21331 -2.99405 0
M  V30 451 H 43.0717 -3.97723 -1.50654 0
M  V30 452 N 41.3868 0.248026 -1.55636 0
M  V30 453 C 42.6328 0.97767 -1.77678 0
M  V30 454 C 42.9658 1.85016 -0.590135 0
M  V30 455 O 42.2408 1.90095 0.411611 0
M  V30 456 C 42.5238 1.83914 -3.09593 0
M  V30 457 C 42.3768 0.99491 -4.38659 0
M  V30 458 C 43.6958 2.82183 -3.37729 0
M  V30 459 H 40.8148 0.354005 -0.646413 0
M  V30 460 H 43.4568 0.248253 -1.88371 0
M  V30 461 H 41.6068 2.46104 -3.00608 0
M  V30 462 H 43.2788 0.391789 -4.59633 0
M  V30 463 H 41.5218 0.299231 -4.32767 0
M  V30 464 H 42.1928 1.63145 -5.2734 0
M  V30 465 H 44.6688 2.30129 -3.4667 0
M  V30 466 H 43.5448 3.39582 -4.31249 0
M  V30 467 H 43.8058 3.58588 -2.58586 0
M  V30 468 N 42.8649 1.48995 0.513639 0
M  V30 469 C 43.7979 1.59319 1.63379 0
M  V30 470 C 44.7759 0.442816 1.56454 0
M  V30 471 O 45.9599 0.656655 1.76693 0
M  V30 472 C 43.0869 1.5364 3.01848 0
M  V30 473 C 42.1329 2.7372 3.27078 0
M  V30 474 S 42.9659 4.35528 3.1157 0
M  V30 475 C 44.1219 4.32473 4.52458 0
M  V30 476 H 44.3549 2.54079 1.54374 0
M  V30 477 H 41.8879 1.3773 0.697849 0
M  V30 478 H 43.8459 1.51049 3.81699 0
M  V30 479 H 42.5069 0.601898 3.08279 0
M  V30 480 H 41.6999 2.6593 4.28132 0
M  V30 481 H 41.3019 2.73657 2.54927 0
M  V30 482 H 43.5939 4.03414 5.44301 0
M  V30 483 H 44.5369 5.33762 4.65299 0
M  V30 484 H 44.9449 3.62718 4.32546 0
M  V30 485 N 44.343 -0.763751 1.37857 0
M  V30 486 C 45.275 -1.88664 1.30148 0
M  V30 487 C 46.288 -1.61365 0.215685 0
M  V30 488 O 47.477 -1.72134 0.472459 0
M  V30 489 C 44.577 -3.24075 0.991396 0
M  V30 490 C 43.75 -3.78958 2.18426 0
M  V30 491 C 42.809 -4.92862 1.8432 0
M  V30 492 O 41.835 -5.08027 2.56704 0
M  V30 493 N 43.037 -5.75071 0.792081 0
M  V30 494 H 45.802 -1.95791 2.26905 0
M  V30 495 H 43.363 -0.943226 1.31586 0
M  V30 496 H 45.355 -3.97804 0.743935 0
M  V30 497 H 43.925 -3.12399 0.112122 0
M  V30 498 H 43.145 -2.96913 2.59299 0
M  V30 499 H 44.433 -4.12357 2.98058 0
M  V30 500 H 43.831 -5.65375 0.191595 0
M  V30 501 H 42.388 -6.48991 0.60449 0
M  V30 502 N 45.8211 -1.22559 -0.990812 0
M  V30 503 C 46.7691 -0.994798 -2.10253 0
M  V30 504 C 47.7631 0.0627798 -1.69284 0
M  V30 505 O 48.9691 -0.0898392 -1.79776 0
M  V30 506 H 45.3441 -0.304527 -0.687581 0
M  V30 507 H 47.3151 -1.93812 -2.26891 0
M  V30 508 C 46.0641 -0.591439 -3.42633 0
M  V30 509 H 45.3871 -1.3969 -3.74602 0
M  V30 510 H 46.8271 -0.469385 -4.21394 0
M  V30 511 C 45.2861 0.699232 -3.29564 0
M  V30 512 O 45.8161 1.75112 -3.61523 0
M  V30 513 N 44.0221 0.671182 -2.82743 0
M  V30 514 H 43.5691 -0.185136 -2.56934 0
M  V30 515 H 43.5271 1.53502 -2.7438 0
M  V30 516 N 47.2992 1.18797 -1.03562 0
M  V30 517 C 48.5472 1.88278 -0.734569 0
M  V30 518 C 48.8682 1.8043 0.739586 0
M  V30 519 O 48.1382 1.21925 1.53333 0
M  V30 520 H 46.7182 0.696991 -0.268725 0
M  V30 521 H 49.3802 1.44192 -1.31129 0
M  V30 522 H 48.4762 2.94443 -1.03489 0
M  V30 523 N 48.7773 0.814389 1.34928 0
M  V30 524 C 49.7403 0.235759 2.27984 0
M  V30 525 C 50.7403 -0.581412 1.49921 0
M  V30 526 O 51.9303 -0.398758 1.69575 0
M  V30 527 C 49.0623 -0.670433 3.34242 0
M  V30 528 H 50.2553 1.05659 2.80671 0
M  V30 529 H 47.8083 0.585614 1.44915 0
M  V30 530 H 48.5433 -1.51466 2.86755 0
M  V30 531 H 48.3283 -0.0860822 3.92005 0
M  V30 532 H 49.8183 -1.06935 4.03676 0
M  V30 533 N 50.2554 -1.46986 0.568584 0
M  V30 534 C 51.5034 -2.02041 0.0487022 0
M  V30 535 C 51.8244 -1.44408 -1.31039 0
M  V30 536 O 51.0944 -0.623477 -1.85714 0
M  V30 537 H 49.6744 -0.746849 0.015014 0
M  V30 538 H 52.3364 -1.80257 0.741168 0
M  V30 539 H 51.4324 -3.12085 -0.0308961 0
M  V30 540 N 51.7335 -0.305618 -1.54608 0
M  V30 541 C 52.9815 0.301701 -1.99835 0
M  V30 542 C 53.3025 1.54054 -1.19551 0
M  V30 543 O 52.5725 1.93702 -0.292658 0
M  V30 544 H 51.1525 0.114468 -0.738178 0
M  V30 545 H 53.8145 -0.418016 -1.90364 0
M  V30 546 H 52.9105 0.570548 -3.06841 0
M  V30 547 N 53.2116 1.57565 -0.0334293 0
M  V30 548 C 54.1746 2.09393 0.932048 0
M  V30 549 C 55.1746 1.00986 1.25134 0
M  V30 550 O 56.3646 1.27129 1.19096 0
M  V30 551 C 53.4966 2.56338 2.2473 0
M  V30 552 H 54.6896 2.95984 0.483085 0
M  V30 553 H 52.2426 1.54819 0.21468 0
M  V30 554 H 52.9776 1.7309 2.74245 0
M  V30 555 H 52.7626 3.35542 2.02865 0
M  V30 556 H 54.2526 2.96646 2.93923 0
M  V30 557 N 54.6897 -0.239769 1.55765 0
M  V30 558 C 55.6197 -1.30052 1.9393 0
M  V30 559 C 56.6007 -1.49839 0.805132 0
M  V30 560 O 57.7857 -1.62328 1.06599 0
M  V30 561 C 54.9157 -2.65391 2.2402 0
M  V30 562 C 53.8697 -2.60289 3.39755 0
M  V30 563 C 53.1957 -3.99489 3.55405 0
M  V30 564 C 54.4957 -2.16654 4.75246 0
M  V30 565 H 56.1897 -0.983573 2.82783 0
M  V30 566 H 53.7357 -0.471701 1.36055 0
M  V30 567 H 55.6887 -3.3974 2.49308 0
M  V30 568 H 54.4127 -2.98736 1.32 0
M  V30 569 H 53.0717 -1.88398 3.14487 0
M  V30 570 H 52.7197 -4.30112 2.60793 0
M  V30 571 H 52.4197 -3.96962 4.33238 0
M  V30 572 H 53.9437 -4.75528 3.83022 0
M  V30 573 H 55.3577 -2.80737 4.99859 0
M  V30 574 H 53.7547 -2.25223 5.56232 0
M  V30 575 H 54.8247 -1.11835 4.71827 0
M  V30 576 N 56.1678 -1.49265 -0.50573 0
M  V30 577 C 57.4148 -1.58513 -1.26015 0
M  V30 578 C 57.7428 -0.26972 -1.92621 0
M  V30 579 O 56.9978 0.741997 -1.81088 0
M  V30 580 C 57.2968 -2.69008 -2.35308 0
M  V30 581 C 56.9628 -4.10662 -1.86192 0
M  V30 582 C 55.6248 -4.49212 -1.72516 0
M  V30 583 C 57.9768 -4.99336 -1.49375 0
M  V30 584 C 55.3048 -5.74214 -1.20394 0
M  V30 585 C 57.6568 -6.24852 -0.987072 0
M  V30 586 C 56.3208 -6.62236 -0.836669 0
M  V30 587 H 55.5908 -0.580041 -0.461122 0
M  V30 588 H 58.2378 -1.83078 -0.561665 0
M  V30 589 H 56.5428 -2.38396 -3.10926 0
M  V30 590 H 58.2398 -2.73373 -2.93374 0
M  V30 591 H 54.8298 -3.8023 -1.97795 0
M  V30 592 H 59.0138 -4.70212 -1.5879 0
M  V30 593 H 54.2698 -6.01883 -1.07458 0
M  V30 594 H 58.4438 -6.92944 -0.692983 0
M  V30 595 H 56.0708 -7.58979 -0.430607 0
M  V30 596 N 57.6459 0.756429 -1.3826 0
M  V30 597 C 58.8919 1.51772 -1.34511 0
M  V30 598 C 59.2249 1.94089 0.0656691 0
M  V30 599 O 58.4999 1.65221 1.02626 0
M  V30 600 C 58.7829 2.77226 -2.29821 0
M  V30 601 C 58.6359 2.41065 -3.79747 0
M  V30 602 C 59.9549 3.79236 -2.23312 0
M  V30 603 H 57.0739 0.550578 -0.489931 0
M  V30 604 H 59.7159 0.866607 -1.69086 0
M  V30 605 H 57.8659 3.32784 -2.00467 0
M  V30 606 H 59.5379 1.91303 -4.19763 0
M  V30 607 H 57.7809 1.7356 -3.97567 0
M  V30 608 H 58.4519 3.3081 -4.41892 0
M  V30 609 H 60.9279 3.3321 -2.49219 0
M  V30 610 H 59.8039 4.64714 -2.92116 0
M  V30 611 H 60.0649 4.24615 -1.23102 0
M  V30 612 N 59.124 1.23083 0.984299 0
M  V30 613 C 60.074 0.975749 2.06066 0
M  V30 614 C 61.058 -0.0768251 1.60716 0
M  V30 615 O 62.25 0.134805 1.76486 0
M  V30 616 C 59.379 0.564673 3.38624 0
M  V30 617 C 58.465 1.65244 3.90583 0
M  V30 618 N 58.856 2.88193 4.15666 0
M  V30 619 C 57.154 1.52612 4.19077 0
M  V30 620 C 57.855 3.58593 4.58024 0
M  V30 621 N 56.831 2.86093 4.62225 0
M  V30 622 H 60.633 1.90957 2.23411 0
M  V30 623 H 58.147 1.12963 1.16675 0
M  V30 624 H 60.144 0.36322 4.15315 0
M  V30 625 H 58.804 -0.362147 3.22674 0
M  V30 626 H 59.815 3.24537 4.03604 0
M  V30 627 H 56.492 0.666121 4.12152 0
M  V30 628 H 57.882 4.63974 4.85982 0
M  V30 629 N 60.6021 -1.18246 1.0419 0
M  V30 630 C 62.0181 -1.40269 0.761366 0
M  V30 631 C 62.2181 -1.90777 -0.648578 0
M  V30 632 O 61.2741 -2.0929 -1.41258 0
M  V30 633 C 62.5871 -2.40237 1.8085 0
M  V30 634 C 64.1351 -2.53961 1.82955 0
M  V30 635 C 64.6101 -3.57194 2.86664 0
M  V30 636 N 66.1011 -3.64702 2.85563 0
M  V30 637 C 66.8361 -4.44309 3.6246 0
M  V30 638 N 66.3321 -5.27514 4.49111 0
M  V30 639 N 68.1251 -4.39084 3.50944 0
M  V30 640 H 60.2761 -0.837882 1.95175 0
M  V30 641 H 62.5391 -0.430608 0.84456 0
M  V30 642 H 62.2451 -2.10176 2.81991 0
M  V30 643 H 62.1191 -3.39601 1.64168 0
M  V30 644 H 64.5061 -2.83338 0.824855 0
M  V30 645 H 64.5871 -1.54706 2.03715 0
M  V30 646 H 64.2311 -3.28558 3.87314 0
M  V30 647 H 64.1611 -4.5613 2.6316 0
M  V30 648 H 66.6521 -3.05289 2.22727 0
M  V30 649 H 66.9651 -5.85411 5.04493 0
M  V30 650 H 65.3101 -5.2693 4.53178 0
M  V30 651 H 68.5011 -3.7313 2.82651 0
M  V30 652 H 68.6741 -5.00883 4.11121 0
M  V30 653 N 62.0802 -0.821533 -1.34494 0
M  V30 654 C 63.3572 -0.33159 -1.92769 0
M  V30 655 C 63.7372 1.18088 -1.74981 0
M  V30 656 O 63.0852 1.98733 -1.12772 0
M  V30 657 C 63.2952 -0.759398 -3.40638 0
M  V30 658 C 64.6432 -0.757433 -4.1779 0
M  V30 659 O 65.6672 -0.70189 -3.49216 0
M  V30 660 O 64.5262 -0.829361 -5.4017 0
M  V30 661 H 61.6202 -0.0902502 -0.822061 0
M  V30 662 H 64.1662 -0.906231 -1.43477 0
M  V30 663 H 62.9382 -1.8012 -3.47379 0
M  V30 664 H 62.5612 -0.160378 -3.97276 0
M  V30 665 N 63.5583 1.46682 -0.576371 0
M  V30 666 C 64.7863 2.06798 -0.0649635 0
M  V30 667 C 65.2013 1.42612 1.23723 0
M  V30 668 O 64.5583 0.529203 1.74659 0
M  V30 669 C 64.6093 3.6132 0.114202 0
M  V30 670 O 64.3303 4.23104 -1.13644 0
M  V30 671 C 65.8313 4.38349 0.66069 0
M  V30 672 H 63.0513 0.668778 -0.0545616 0
M  V30 673 H 65.5953 1.88404 -0.795237 0
M  V30 674 H 63.7503 3.79162 0.794673 0
M  V30 675 H 64.1643 5.15894 -0.946253 0
M  V30 676 H 65.6383 5.47081 0.73526 0
M  V30 677 H 66.1153 4.05953 1.67627 0
M  V30 678 H 66.7213 4.25297 0.0152951 0
M  V30 679 N 65.0364 0.313813 1.54444 0
M  V30 680 C 66.4474 -0.176243 1.85866 0
M  V30 681 C 66.7984 -1.52405 1.23561 0
M  V30 682 O 65.9234 -2.09605 0.538016 0
M  V30 683 C 66.5184 -0.32657 3.37222 0
M  V30 684 C 65.0774 -0.760846 3.6863 0
M  V30 685 C 64.2244 0.123247 2.77026 0
M  V30 686 H 67.1754 0.534418 1.49431 0
M  V30 687 H 67.1964 -1.15908 3.62416 0
M  V30 688 H 66.7084 0.654531 3.82541 0
M  V30 689 H 64.8094 -1.75204 3.28838 0
M  V30 690 H 64.9224 -0.571353 4.75681 0
M  V30 691 H 63.2864 -0.399597 2.51546 0
M  V30 692 H 64.0694 1.10094 3.25168 0
M  V30 693 N 66.5145 -1.57545 0.0417849 0
M  V30 694 C 67.4245 -2.14451 -0.951213 0
M  V30 695 C 68.4405 -1.09992 -1.34825 0
M  V30 696 O 69.6165 -1.42114 -1.42708 0
M  V30 697 C 66.6815 -2.67063 -2.21084 0
M  V30 698 C 65.7425 -3.86284 -1.87304 0
M  V30 699 C 64.9755 -4.36378 -3.07261 0
M  V30 700 O 65.1985 -3.85587 -4.20332 0
M  V30 701 O 64.1325 -5.28077 -2.88822 0
M  V30 702 H 67.9585 -2.99601 -0.497287 0
M  V30 703 H 65.5435 -1.48317 -0.179567 0
M  V30 704 H 67.4255 -3.00914 -2.95006 0
M  V30 705 H 66.1005 -1.84989 -2.65633 0
M  V30 706 H 65.0075 -3.57338 -1.10727 0
M  V30 707 H 66.3405 -4.6956 -1.47562 0
M  V30 708 N 67.9926 0.231505 -1.5589 0
M  V30 709 C 68.9406 1.30649 -1.92441 0
M  V30 710 C 69.9346 1.49037 -0.805254 0
M  V30 711 O 71.1406 1.50329 -0.990007 0
M  V30 712 H 67.5156 0.437812 -0.611412 0
M  V30 713 H 69.4866 0.970973 -2.82161 0
M  V30 714 C 68.2356 2.65179 -2.24889 0
M  V30 715 H 67.5586 2.51835 -3.10514 0
M  V30 716 H 68.9986 3.39234 -2.54355 0
M  V30 717 C 67.4576 3.19439 -1.07054 0
M  V30 718 O 67.9876 4.00371 -0.326499 0
M  V30 719 N 66.1936 2.77675 -0.85703 0
M  V30 720 H 65.7406 2.11969 -1.46379 0
M  V30 721 H 65.6986 3.14321 -0.0703223 0
M  V30 722 N 69.4707 1.49531 0.497807 0
M  V30 723 C 70.4187 1.66926 1.61983 0
M  V30 724 C 71.4127 0.535167 1.60724 0
M  V30 725 O 72.6187 0.714896 1.65195 0
M  V30 726 H 68.9937 0.526415 0.537021 0
M  V30 727 H 70.9647 2.61098 1.44465 0
M  V30 728 C 69.7137 1.75602 3.00099 0
M  V30 729 H 69.0367 2.62244 3.01775 0
M  V30 730 H 70.4767 1.91807 3.78135 0
M  V30 731 C 68.9357 0.501543 3.33146 0
M  V30 732 O 69.4657 -0.371342 3.9998 0
M  V30 733 N 67.6717 0.363531 2.88317 0
M  V30 734 H 67.2187 1.07485 2.34104 0
M  V30 735 H 67.1767 -0.474728 3.10795 0
M  V30 736 N 70.9488 -0.749086 1.3866 0
M  V30 737 C 72.3598 -1.32664 1.31366 0
M  V30 738 C 72.7108 -1.96179 -0.028484 0
M  V30 739 O 71.8358 -1.9537 -0.93057 0
M  V30 740 C 72.4308 -2.41219 2.37905 0
M  V30 741 C 70.9898 -2.94684 2.34176 0
M  V30 742 C 70.1368 -1.68108 2.20533 0
M  V30 743 H 73.0878 -0.547628 1.48952 0
M  V30 744 H 73.1088 -3.21268 2.0388 0
M  V30 745 H 72.6208 -1.94962 3.35576 0
M  V30 746 H 70.7218 -3.45258 1.401 0
M  V30 747 H 70.8348 -3.48757 3.2849 0
M  V30 748 H 69.1988 -1.91907 1.67463 0
M  V30 749 H 69.9818 -1.23923 3.20153 0
M  V30 750 N 72.4269 -1.23603 -0.977757 0
M  V30 751 C 73.7039 -0.977897 -1.69401 0
M  V30 752 C 74.0839 0.502738 -2.05026 0
M  V30 753 O 73.4319 1.47459 -1.74551 0
M  V30 754 C 73.6419 -1.89077 -2.93345 0
M  V30 755 C 74.9899 -2.15579 -3.65802 0
M  V30 756 O 76.0139 -1.86648 -3.03383 0
M  V30 757 O 74.8729 -2.64658 -4.78141 0
M  V30 758 H 71.9669 -0.369025 -0.740101 0
M  V30 759 H 74.5129 -1.34657 -1.03274 0
M  V30 760 H 73.2849 -2.89158 -2.63634 0
M  V30 761 H 72.9079 -1.52463 -3.67207 0
M  V30 762 N 73.905 1.17692 -1.04816 0
M  V30 763 C 75.133 1.91786 -0.776254 0
M  V30 764 C 75.548 1.76604 0.667577 0
M  V30 765 O 74.905 1.10067 1.45573 0
M  V30 766 C 74.956 3.42967 -1.14263 0
M  V30 767 O 74.677 3.57678 -2.52978 0
M  V30 768 C 76.178 4.34144 -0.896311 0
M  V30 769 H 73.398 0.608624 -0.282519 0
M  V30 770 H 75.942 1.49268 -1.39783 0
M  V30 771 H 74.097 3.83245 -0.565874 0
M  V30 772 H 74.511 4.51319 -2.67229 0
M  V30 773 H 75.985 5.38744 -1.20244 0
M  V30 774 H 76.462 4.38876 0.168636 0
M  V30 775 H 77.068 3.99574 -1.45672 0
M  V30 776 N 75.3831 0.828654 1.34056 0
M  V30 777 C 76.7941 0.477534 1.8049 0
M  V30 778 C 77.1451 -1.00258 1.6865 0
M  V30 779 O 76.2701 -1.78057 1.22982 0
M  V30 780 C 76.8651 0.860018 3.27703 0
M  V30 781 C 75.4241 0.561185 3.72193 0
M  V30 782 C 74.5711 1.07385 2.55663 0
M  V30 783 H 77.5221 1.0183 1.21722 0
M  V30 784 H 77.5431 0.166038 3.80138 0
M  V30 785 H 77.0551 1.93731 3.36288 0
M  V30 786 H 75.1561 -0.506465 3.69142 0
M  V30 787 H 75.2691 1.10926 4.66082 0
M  V30 788 H 73.6331 0.495149 2.49841 0
M  V30 789 H 74.4161 2.15771 2.67016 0
M  V30 790 N 76.8612 -1.46375 0.584142 0
M  V30 791 C 78.1082 -2.02378 0.0702675 0
M  V30 792 C 78.4362 -1.45545 -1.29023 0
M  V30 793 O 77.6912 -0.610967 -1.85918 0
M  V30 794 C 77.9902 -3.57373 -0.0439342 0
M  V30 795 C 77.6562 -4.33252 1.24915 0
M  V30 796 C 76.3182 -4.53701 1.60341 0
M  V30 797 C 78.6702 -4.7681 2.1048 0
M  V30 798 C 75.9982 -5.1496 2.81128 0
M  V30 799 C 78.3502 -5.39404 3.30494 0
M  V30 800 C 77.0142 -5.5808 3.66201 0
M  V30 801 H 76.2842 -0.740554 0.0257127 0
M  V30 802 H 78.9312 -1.75727 0.761065 0
M  V30 803 H 77.2362 -3.83169 -0.817869 0
M  V30 804 H 78.9332 -3.98384 -0.457318 0
M  V30 805 H 75.5232 -4.17633 0.963364 0
M  V30 806 H 79.7072 -4.60766 1.84414 0
M  V30 807 H 74.9632 -5.27611 3.08928 0
M  V30 808 H 79.1372 -5.72114 3.97063 0
M  V30 809 H 76.7642 -6.05318 4.59885 0
M  V30 810 N 78.3393 -0.321999 -1.54275 0
M  V30 811 C 79.6163 0.335232 -1.92706 0
M  V30 812 C 79.9963 1.70006 -1.25145 0
M  V30 813 O 79.3443 2.25067 -0.394596 0
M  V30 814 C 79.5543 0.429008 -3.46353 0
M  V30 815 C 80.9023 0.690029 -4.18956 0
M  V30 816 O 81.9263 0.511992 -3.52501 0
M  V30 817 O 80.7853 1.03338 -5.36641 0
M  V30 818 H 77.8793 0.191143 -0.804608 0
M  V30 819 H 80.4253 -0.3716 -1.65581 0
M  V30 820 H 79.1973 -0.529611 -3.87699 0
M  V30 821 H 78.8203 1.18348 -3.79578 0
M  V30 822 N 79.8174 1.5752 -0.0501392 0
M  V30 823 C 81.0644 1.9265 0.623874 0
M  V30 824 C 81.3924 0.928411 1.70912 0
M  V30 825 O 80.6474 -0.0594525 1.9561 0
M  V30 826 C 80.9464 3.34467 1.25963 0
M  V30 827 C 80.6124 4.49883 0.302689 0
M  V30 828 C 79.2744 4.81184 0.0393636 0
M  V30 829 C 81.6264 5.20002 -0.353205 0
M  V30 830 C 78.9544 5.79951 -0.887308 0
M  V30 831 C 81.3064 6.1976 -1.26806 0
M  V30 832 C 79.9704 6.49491 -1.54007 0
M  V30 833 H 79.2404 0.704957 0.228292 0
M  V30 834 H 81.8874 1.91146 -0.116398 0
M  V30 835 H 80.1924 3.32333 2.07514 0
M  V30 836 H 81.8894 3.58928 1.78806 0
M  V30 837 H 78.4794 4.25457 0.518109 0
M  V30 838 H 82.6634 4.96033 -0.162854 0
M  V30 839 H 77.9194 6.01322 -1.10553 0
M  V30 840 H 82.0934 6.73205 -1.78236 0
M  V30 841 H 79.7204 7.25837 -2.25976 0
M  V30 842 N 81.2955 -0.223234 1.56011 0
M  V30 843 C 82.5235 -0.964812 1.83027 0
M  V30 844 C 82.9385 -1.78013 0.62904 0
M  V30 845 O 82.2955 -1.78008 -0.402414 0
M  V30 846 C 82.3465 -1.88373 3.08542 0
M  V30 847 O 82.0675 -1.10137 4.2403 0
M  V30 848 C 83.5685 -2.73934 3.48533 0
M  V30 849 H 80.7885 -0.282842 0.608475 0
M  V30 850 H 83.3325 -0.238971 2.03099 0
M  V30 851 H 81.4875 -2.56354 2.9045 0
M  V30 852 H 81.9015 -1.72501 4.95322 0
M  V30 853 H 83.3755 -3.34117 4.39397 0
M  V30 854 H 83.8525 -3.46244 2.70207 0
M  V30 855 H 84.4585 -2.11369 3.69057 0
M  V30 856 N 82.7736 -1.49793 -0.48987 0
M  V30 857 C 84.1846 -1.52914 -1.07118 0
M  V30 858 C 84.5356 -0.321738 -1.93544 0
M  V30 859 O 83.6606 0.567338 -2.08831 0
M  V30 860 C 84.2556 -2.771 -1.94938 0
M  V30 861 C 82.8146 -2.82963 -2.48212 0
M  V30 862 C 81.9616 -2.46972 -1.26096 0
M  V30 863 H 84.9126 -1.56329 -0.273289 0
M  V30 864 H 84.9336 -2.57892 -2.79771 0
M  V30 865 H 84.4456 -3.64959 -1.32009 0
M  V30 866 H 82.5466 -1.99411 -3.14748 0
M  V30 867 H 82.6596 -3.85406 -2.84603 0
M  V30 868 H 81.0236 -1.98994 -1.58976 0
M  V30 869 H 81.8066 -3.37118 -0.648581 0
M  V30 870 N 84.2517 0.741722 -1.39055 0
M  V30 871 C 85.1617 1.88621 -1.39496 0
M  V30 872 C 86.1777 1.71557 -0.290578 0
M  V30 873 O 87.3537 1.94275 -0.530954 0
M  V30 874 C 84.4187 3.24134 -1.23037 0
M  V30 875 C 83.4797 3.5364 -2.43387 0
M  V30 876 C 82.7127 4.82687 -2.27703 0
M  V30 877 O 82.9357 5.55922 -1.27696 0
M  V30 878 O 81.8697 5.1194 -3.16545 0
M  V30 879 H 85.6957 1.91203 -2.35956 0
M  V30 880 H 83.2807 0.888625 -1.20099 0
M  V30 881 H 85.1627 4.0513 -1.15964 0
M  V30 882 H 83.8377 3.22337 -0.296691 0
M  V30 883 H 82.7447 2.72758 -2.56035 0
M  V30 884 H 84.0777 3.60209 -3.35425 0
M  V30 885 N 85.7298 1.2412 0.971189 0
M  V30 886 C 86.6778 1.02812 2.08644 0
M  V30 887 C 87.6718 -0.0358403 1.69362 0
M  V30 888 O 88.8778 0.118429 1.7961 0
M  V30 889 H 85.2528 0.315428 0.682649 0
M  V30 890 H 87.2238 1.97397 2.23779 0
M  V30 891 C 85.9728 0.645874 3.41649 0
M  V30 892 H 85.2958 1.45632 3.72332 0
M  V30 893 H 86.7358 0.536366 4.20594 0
M  V30 894 C 85.1948 -0.646713 3.30635 0
M  V30 895 O 85.7248 -1.69338 3.64263 0
M  V30 896 N 83.9308 -0.626115 2.83775 0
M  V30 897 H 83.4778 0.225988 2.56607 0
M  V30 898 H 83.4358 -1.49117 2.76788 0
M  V30 899 N 87.2079 -1.17134 1.05439 0
M  V30 900 C 88.4379 -1.91094 0.785274 0
M  V30 901 C 88.8459 -1.77198 -0.663142 0
M  V30 902 O 88.1889 -1.10835 -1.46497 0
M  V30 903 C 88.2509 -3.42594 1.08949 0
M  V30 904 C 87.9149 -3.80274 2.53458 0
M  V30 905 C 88.9119 -3.82912 3.51673 0
M  V30 906 C 86.5969 -4.11162 2.88532 0
M  V30 907 C 88.5909 -4.15913 4.83006 0
M  V30 908 C 86.2779 -4.43831 4.20068 0
M  V30 909 C 87.2759 -4.46185 5.17115 0
M  V30 910 O 86.9639 -4.78083 6.46291 0
M  V30 911 H 86.6959 -0.613073 0.284811 0
M  V30 912 H 89.2499 -1.49461 1.40893 0
M  V30 913 H 87.4799 -3.84534 0.408741 0
M  V30 914 H 89.1689 -3.97817 0.805991 0
M  V30 915 H 89.9349 -3.5917 3.25917 0
M  V30 916 H 85.8139 -4.085 2.13656 0
M  V30 917 H 89.3579 -4.17665 5.5875 0
M  V30 918 H 85.2549 -4.67037 4.45586 0
M  V30 919 H 86.0229 -4.9593 6.51149 0
M  V30 920 N 88.686 -0.835752 -1.33615 0
M  V30 921 C 89.633 -0.26473 -2.29277 0
M  V30 922 C 90.603 0.617712 -1.54187 0
M  V30 923 O 91.788 0.556641 -1.825 0
M  V30 924 C 88.928 0.556777 -3.40579 0
M  V30 925 C 88.041 -0.349339 -4.30585 0
M  V30 926 C 87.176 0.482969 -5.29 0
M  V30 927 C 86.215 -0.421732 -6.10645 0
M  V30 928 N 85.352 0.372262 -7.01112 0
M  V30 929 H 90.192 -1.08582 -2.77514 0
M  V30 930 H 87.729 -0.546927 -1.36554 0
M  V30 931 H 89.687 1.04852 -4.03809 0
M  V30 932 H 88.317 1.34286 -2.93542 0
M  V30 933 H 87.369 -0.959372 -3.68104 0
M  V30 934 H 88.681 -1.04445 -4.87742 0
M  V30 935 H 87.835 1.03866 -5.97743 0
M  V30 936 H 86.574 1.21153 -4.72412 0
M  V30 937 H 85.579 -0.989464 -5.40823 0
M  V30 938 H 86.804 -1.14861 -6.69316 0
M  V30 939 H 84.75 1.08426 -6.46977 0
M  V30 940 H 84.667 -0.264198 -7.55538 0
M  V30 941 H 85.935 0.910293 -7.74167 0
M  V30 942 N 90.1641 1.46063 -0.591896 0
M  V30 943 C 91.5801 1.57561 -0.254288 0
M  V30 944 C 91.7801 1.58565 1.24336 0
M  V30 945 O 90.8361 1.50753 2.02558 0
M  V30 946 C 92.1491 2.86549 -0.911611 0
M  V30 947 C 93.6971 3.00197 -0.886059 0
M  V30 948 C 94.1721 4.31933 -1.5231 0
M  V30 949 N 95.6631 4.38654 -1.48786 0
M  V30 950 C 96.3981 5.39222 -1.95006 0
M  V30 951 N 95.8941 6.46414 -2.49241 0
M  V30 952 N 97.6871 5.3048 -1.85868 0
M  V30 953 H 89.8381 1.43655 -1.56451 0
M  V30 954 H 92.1011 0.68583 -0.654478 0
M  V30 955 H 91.8071 2.91651 -1.96551 0
M  V30 956 H 91.6811 3.74794 -0.425368 0
M  V30 957 H 94.0681 2.9467 0.159246 0
M  V30 958 H 94.1491 2.13403 -1.41041 0
M  V30 959 H 93.7931 4.38217 -2.56765 0
M  V30 960 H 93.7231 5.17516 -0.973891 0
M  V30 961 H 96.2141 3.61793 -1.09151 0
M  V30 962 H 96.5271 7.19376 -2.82344 0
M  V30 963 H 94.8721 6.47208 -2.53272 0
M  V30 964 H 98.0631 4.45643 -1.43248 0
M  V30 965 H 98.2361 6.08711 -2.22204 0
M  V30 966 N 91.6422 0.330177 1.54103 0
M  V30 967 C 92.8912 -0.271336 1.99867 0
M  V30 968 C 93.2042 -1.52723 1.22209 0
M  V30 969 O 94.4102 -2.20515 1.58383 0
M  V30 970 C 92.8662 -0.534032 3.55916 0
M  V30 971 C 92.4742 0.705193 4.42415 0
M  V30 972 C 94.2182 -1.09514 4.1013 0
M  V30 973 C 92.1252 0.414035 5.89949 0
M  V30 974 H 91.0552 -0.105166 0.74663 0
M  V30 975 H 93.7062 0.443429 1.78062 0
M  V30 976 H 92.0882 -1.30915 3.73734 0
M  V30 977 H 93.2622 1.4804 4.36372 0
M  V30 978 H 91.5772 1.18698 3.99124 0
M  V30 979 H 94.1742 -1.3277 5.17954 0
M  V30 980 H 94.5172 -2.04656 3.62521 0
M  V30 981 H 95.0502 -0.381038 3.95971 0
M  V30 982 H 91.7892 1.33481 6.41766 0
M  V30 983 H 91.3092 -0.323336 5.98928 0
M  V30 984 H 92.9882 0.0263105 6.46995 0
M  V30 985 N 93.1203 -1.57491 0.0584922 0
M  V30 986 C 94.0303 -2.15448 -0.928414 0
M  V30 987 C 95.0463 -1.11416 -1.3365 0
M  V30 988 O 96.2223 -1.4362 -1.41193 0
M  V30 989 C 93.2873 -2.69393 -2.18239 0
M  V30 990 C 92.3483 -3.88249 -1.83196 0
M  V30 991 C 91.5813 -4.39613 -3.02616 0
M  V30 992 O 91.8043 -3.90023 -4.16219 0
M  V30 993 O 90.7383 -5.31111 -2.83204 0
M  V30 994 H 94.5643 -3.00112 -0.465483 0
M  V30 995 H 92.1493 -1.48499 -0.163826 0
M  V30 996 H 94.0313 -3.04026 -2.91798 0
M  V30 997 H 92.7063 -1.87796 -2.63656 0
M  V30 998 H 91.6133 -3.58492 -1.06931 0
M  V30 999 H 92.9463 -4.71098 -1.42573 0
M  V30 1000 N 94.5984 0.214957 -1.56127 0
M  V30 1001 C 95.5614 1.24997 -1.92116 0
M  V30 1002 C 96.5614 1.39467 -0.800344 0
M  V30 1003 O 97.7514 1.37619 -1.06802 0
M  V30 1004 C 94.8834 2.62271 -2.17777 0
M  V30 1005 H 96.0764 0.942875 -2.84693 0
M  V30 1006 H 93.6294 0.455654 -1.49511 0
M  V30 1007 H 94.3644 2.98068 -1.27773 0
M  V30 1008 H 94.1494 2.53143 -2.99434 0
M  V30 1009 H 95.6394 3.36946 -2.46693 0
M  V30 1010 N 96.0765 1.50051 0.48192 0
M  V30 1011 C 97.3255 1.59741 1.23149 0
M  V30 1012 C 97.6385 0.298163 1.93314 0
M  V30 1013 O 98.8445 0.273835 2.70116 0
M  V30 1014 C 97.3005 2.81926 2.23708 0
M  V30 1015 C 96.9085 4.18685 1.59396 0
M  V30 1016 C 98.6525 3.00956 2.99375 0
M  V30 1017 C 96.5595 5.3207 2.58178 0
M  V30 1018 H 95.4895 0.594838 0.46334 0
M  V30 1019 H 98.1405 1.76467 0.503169 0
M  V30 1020 H 96.5225 2.58736 2.99786 0
M  V30 1021 H 97.6965 4.52088 0.891811 0
M  V30 1022 H 96.0115 4.05171 0.960503 0
M  V30 1023 H 98.6085 3.82836 3.73283 0
M  V30 1024 H 98.9515 2.12258 3.58123 0
M  V30 1025 H 99.4845 3.24277 2.30411 0
M  V30 1026 H 96.2235 6.22888 2.04184 0
M  V30 1027 H 95.7435 5.03098 3.26577 0
M  V30 1028 H 97.4225 5.62196 3.20225 0
M  V30 1029 N 97.5546 -0.734337 1.39446 0
M  V30 1030 C 98.8006 -1.49613 1.36908 0
M  V30 1031 C 99.1336 -1.94169 -0.0347829 0
M  V30 1032 O 98.4086 -1.66833 -0.999847 0
M  V30 1033 C 98.6916 -2.73534 2.34203 0
M  V30 1034 C 98.5446 -2.34993 3.83534 0
M  V30 1035 C 99.8636 -3.75635 2.29317 0
M  V30 1036 H 96.9826 -0.542714 0.498629 0
M  V30 1037 H 99.6246 -0.839597 1.70443 0
M  V30 1038 H 97.7746 -3.29553 2.05736 0
M  V30 1039 H 99.4466 -1.84601 4.22753 0
M  V30 1040 H 97.6896 -1.67213 4.00278 0
M  V30 1041 H 98.3606 -3.23738 4.47099 0
M  V30 1042 H 100.837 -3.29203 2.54489 0
M  V30 1043 H 99.7126 -4.60008 2.99472 0
M  V30 1044 H 99.9736 -4.22603 1.29842 0
M  V30 1045 N 99.0327 -1.24633 -0.964593 0
M  V30 1046 C 99.9797 -1.04144 -2.05968 0
M  V30 1047 C 100.95 0.046262 -1.66036 0
M  V30 1048 O 102.135 -0.108972 -1.90489 0
M  V30 1049 C 99.2747 -0.65563 -3.38815 0
M  V30 1050 C 98.3877 -1.81714 -3.91923 0
M  V30 1051 C 97.5227 -1.37662 -5.13052 0
M  V30 1052 C 96.5617 -2.50788 -5.58365 0
M  V30 1053 N 95.6987 -2.07582 -6.70712 0
M  V30 1054 H 100.539 -1.9787 -2.22827 0
M  V30 1055 H 98.0757 -0.9855 -1.09208 0
M  V30 1056 H 100.034 -0.412954 -4.15151 0
M  V30 1057 H 98.6637 0.244627 -3.21872 0
M  V30 1058 H 97.7157 -2.1734 -3.12198 0
M  V30 1059 H 99.0277 -2.66705 -4.21509 0
M  V30 1060 H 98.1817 -1.093 -5.96773 0
M  V30 1061 H 96.9207 -0.497293 -4.85158 0
M  V30 1062 H 95.9257 -2.79906 -4.73215 0
M  V30 1063 H 97.1507 -3.39283 -5.88272 0
M  V30 1064 H 95.0967 -1.22051 -6.44546 0
M  V30 1065 H 95.0137 -2.86125 -6.99763 0
M  V30 1066 H 96.2817 -1.82369 -7.57867 0
M  V30 1067 N 100.511 1.16574 -1.06058 0
M  V30 1068 C 101.459 2.22941 -0.663343 0
M  V30 1069 C 102.453 1.66358 0.319593 0
M  V30 1070 O 103.659 1.7905 0.184713 0
M  V30 1071 H 100.034 0.725907 -0.196376 0
M  V30 1072 H 102.005 2.53736 -1.57037 0
M  V30 1073 C 100.754 3.47642 -0.0632808 0
M  V30 1074 H 100.077 3.91493 -0.810733 0
M  V30 1075 H 101.517 4.2363 0.177177 0
M  V30 1076 C 99.9758 3.1509 1.19248 0
M  V30 1077 O 100.506 3.30673 2.28075 0
M  V30 1078 N 98.7118 2.6924 1.09353 0
M  V30 1079 H 98.2588 2.5676 0.207912 0
M  V30 1080 H 98.2168 2.47833 1.93458 0
M  V30 1081 N 101.989 0.842826 1.3317 0
M  V30 1082 C 103.219 0.453397 2.01564 0
M  V30 1083 C 103.627 -0.951147 1.63554 0
M  V30 1084 O 102.97 -1.63021 0.846746 0
M  V30 1085 C 103.032 0.499013 3.5602 0
M  V30 1086 C 102.696 1.86037 4.1742 0
M  V30 1087 C 103.693 2.82416 4.36506 0
M  V30 1088 C 101.378 2.15428 4.53757 0
M  V30 1089 C 103.372 4.06346 4.91082 0
M  V30 1090 C 101.059 3.39615 5.0804 0
M  V30 1091 C 102.057 4.3489 5.26649 0
M  V30 1092 O 101.745 5.5688 5.79776 0
M  V30 1093 H 101.477 0.177871 0.652179 0
M  V30 1094 H 104.031 1.13808 1.70988 0
M  V30 1095 H 102.261 -0.242467 3.85939 0
M  V30 1096 H 103.95 0.126852 4.05702 0
M  V30 1097 H 104.716 2.6101 4.08777 0
M  V30 1098 H 100.595 1.42061 4.38565 0
M  V30 1099 H 104.139 4.80722 5.05522 0
M  V30 1100 H 100.036 3.60876 5.352 0
M  V30 1101 H 100.804 5.58674 5.98185 0
M  V30 1102 N 103.467 -1.45747 0.599634 0
M  V30 1103 C 104.878 -1.85853 0.177681 0
M  V30 1104 C 105.229 -1.50102 -1.26348 0
M  V30 1105 O 104.354 -0.923905 -1.95686 0
M  V30 1106 C 104.949 -3.37326 0.315688 0
M  V30 1107 C 103.508 -3.76365 -0.0515144 0
M  V30 1108 C 102.655 -2.69722 0.643822 0
M  V30 1109 H 105.606 -1.36661 0.806814 0
M  V30 1110 H 105.627 -3.77778 -0.454321 0
M  V30 1111 H 105.139 -3.63315 1.36468 0
M  V30 1112 H 103.24 -3.55993 -1.09999 0
M  V30 1113 H 103.353 -4.77916 0.336594 0
M  V30 1114 H 101.717 -2.54567 0.0822881 0
M  V30 1115 H 102.5 -2.98549 1.6948 0
M  V30 1116 N 104.945 -0.338344 -1.53925 0
M  V30 1117 C 105.855 0.529421 -2.28548 0
M  V30 1118 C 106.871 1.11645 -1.3346 0
M  V30 1119 O 108.047 1.13325 -1.66492 0
M  V30 1120 C 105.112 1.66713 -3.03987 0
M  V30 1121 C 104.173 1.11041 -4.14691 0
M  V30 1122 C 103.406 2.19389 -4.86522 0
M  V30 1123 O 103.629 3.40013 -4.57982 0
M  V30 1124 O 102.563 1.83976 -5.73094 0
M  V30 1125 H 106.389 -0.0770399 -3.03602 0
M  V30 1126 H 103.974 -0.103555 -1.49041 0
M  V30 1127 H 105.856 2.32918 -3.5118 0
M  V30 1128 H 104.531 2.25949 -2.31794 0
M  V30 1129 H 103.438 0.413024 -3.71813 0
M  V30 1130 H 104.771 0.562975 -4.8897 0
M  V30 1131 N 106.423 1.57458 -0.0668435 0
M  V30 1132 C 107.671 1.92919 0.602214 0
M  V30 1133 C 107.992 0.947215 1.70449 0
M  V30 1134 O 107.262 -0.00544117 1.95899 0
M  V30 1135 H 105.842 0.71217 0.22544 0
M  V30 1136 H 108.504 1.94508 -0.123535 0
M  V30 1137 H 107.6 2.94589 1.03073 0
M  V30 1138 N 107.901 -0.206675 1.56239 0
M  V30 1139 C 108.851 -1.26 1.90021 0
M  V30 1140 C 109.835 -1.41566 0.764721 0
M  V30 1141 O 111.027 -1.44131 1.02739 0
M  V30 1142 C 108.156 -2.6073 2.23326 0
M  V30 1143 C 107.242 -2.49005 3.43304 0
M  V30 1144 N 107.633 -2.06946 4.61527 0
M  V30 1145 C 105.931 -2.79927 3.47213 0
M  V30 1146 C 106.632 -2.06832 5.43687 0
M  V30 1147 N 105.608 -2.47892 4.83788 0
M  V30 1148 H 109.41 -0.925955 2.78932 0
M  V30 1149 H 106.924 -0.415172 1.57003 0
M  V30 1150 H 108.921 -3.36798 2.45708 0
M  V30 1151 H 107.581 -2.94968 1.35735 0
M  V30 1152 H 108.592 -1.77839 4.86409 0
M  V30 1153 H 105.269 -3.18438 2.70006 0
M  V30 1154 H 106.659 -1.76312 6.48354 0
M  V30 1155 N 109.379 -1.50304 -0.473955 0
M  V30 1156 C 110.326 -1.68959 -1.57231 0
M  V30 1157 C 111.296 -0.530899 -1.57387 0
M  V30 1158 O 112.481 -0.761133 -1.74961 0
M  V30 1159 C 109.621 -1.7871 -2.95223 0
M  V30 1160 C 108.734 -3.06061 -3.04878 0
M  V30 1161 C 107.869 -3.06626 -4.33767 0
M  V30 1162 C 106.908 -4.28443 -4.37154 0
M  V30 1163 N 106.045 -4.26763 -5.5751 0
M  V30 1164 H 110.885 -2.6273 -1.40631 0
M  V30 1165 H 108.422 -1.30241 -0.683789 0
M  V30 1166 H 110.38 -1.82344 -3.75242 0
M  V30 1167 H 109.01 -0.883806 -3.10465 0
M  V30 1168 H 108.062 -3.11911 -2.17751 0
M  V30 1169 H 109.374 -3.96039 -3.0324 0
M  V30 1170 H 108.528 -3.08973 -5.22131 0
M  V30 1171 H 107.267 -2.14473 -4.3801 0
M  V30 1172 H 106.272 -4.2631 -3.47188 0
M  V30 1173 H 107.497 -5.2182 -4.34605 0
M  V30 1174 H 105.443 -3.37462 -5.62544 0
M  V30 1175 H 105.36 -5.10507 -5.57601 0
M  V30 1176 H 106.628 -4.33253 -6.48006 0
M  V30 1177 N 110.857 0.726932 -1.39834 0
M  V30 1178 C 111.82 1.82269 -1.38962 0
M  V30 1179 C 112.82 1.58248 -0.285334 0
M  V30 1180 O 114.01 1.65499 -0.54366 0
M  V30 1181 C 111.142 3.20186 -1.17019 0
M  V30 1182 H 112.335 1.84443 -2.36476 0
M  V30 1183 H 109.888 0.931416 -1.25516 0
M  V30 1184 H 110.623 3.23669 -0.202204 0
M  V30 1185 H 110.408 3.3902 -1.96998 0
M  V30 1186 H 111.898 4.00235 -1.1917 0
M  V30 1187 N 112.336 1.25143 0.95797 0
M  V30 1188 C 113.299 1.05321 2.03569 0
M  V30 1189 C 114.299 0.007152 1.60798 0
M  V30 1190 O 115.489 0.24903 1.72411 0
M  V30 1191 C 112.621 0.598394 3.35607 0
M  V30 1192 H 113.814 2.00986 2.22586 0
M  V30 1193 H 111.367 1.07502 1.13459 0
M  V30 1194 H 112.102 -0.361014 3.22284 0
M  V30 1195 H 111.887 1.35351 3.67998 0
M  V30 1196 H 113.377 0.48104 4.1482 0
M  V30 1197 N 113.814 -1.1601 1.06675 0
M  V30 1198 C 114.777 -2.18724 0.685001 0
M  V30 1199 C 115.777 -1.58496 -0.271246 0
M  V30 1200 O 116.967 -1.74119 -0.0531156 0
M  V30 1201 C 114.099 -3.40899 0.00853648 0
M  V30 1202 H 115.292 -2.54011 1.59431 0
M  V30 1203 H 112.845 -1.30352 0.862441 0
M  V30 1204 H 113.58 -3.11173 -0.913337 0
M  V30 1205 H 113.365 -3.8587 0.696204 0
M  V30 1206 H 114.855 -4.16886 -0.24414 0
M  V30 1207 N 115.292 -0.849877 -1.32721 0
M  V30 1208 C 116.538 -0.451591 -1.97708 0
M  V30 1209 C 116.871 0.989175 -1.6712 0
M  V30 1210 O 116.146 1.69334 -0.956891 0
M  V30 1211 C 116.429 -0.685598 -3.53513 0
M  V30 1212 C 116.282 -2.17444 -3.93749 0
M  V30 1213 C 117.601 -0.138874 -4.39881 0
M  V30 1214 H 114.72 -0.16555 -0.718166 0
M  V30 1215 H 117.362 -1.06742 -1.57182 0
M  V30 1216 H 115.512 -0.161416 -3.88165 0
M  V30 1217 H 117.184 -2.76433 -3.693 0
M  V30 1218 H 115.427 -2.65476 -3.43081 0
M  V30 1219 H 116.098 -2.28888 -5.02309 0
M  V30 1220 H 118.574 -0.587068 -4.11938 0
M  V30 1221 H 117.45 -0.332213 -5.47894 0
M  V30 1222 H 117.711 0.95806 -4.31594 0
M  V30 1223 N 116.77 1.45427 -0.607355 0
M  V30 1224 C 117.7 2.3329 0.0989352 0
M  V30 1225 C 118.681 1.46816 0.859007 0
M  V30 1226 O 119.866 1.75588 0.829604 0
M  V30 1227 C 116.996 3.29518 1.09705 0
M  V30 1228 C 115.95 4.25626 0.450206 0
M  V30 1229 C 115.276 5.11542 1.55655 0
M  V30 1230 C 116.576 5.18505 -0.628455 0
M  V30 1231 H 118.27 2.92595 -0.634716 0
M  V30 1232 H 115.816 1.40696 -0.306681 0
M  V30 1233 H 117.769 3.89855 1.59971 0
M  V30 1234 H 116.493 2.68372 1.86129 0
M  V30 1235 H 115.152 3.66586 -0.0315886 0
M  V30 1236 H 114.8 4.46765 2.31107 0
M  V30 1237 H 114.5 5.76647 1.12925 0
M  V30 1238 H 116.024 5.74748 2.06148 0
M  V30 1239 H 117.438 5.72916 -0.209877 0
M  V30 1240 H 115.835 5.92085 -0.977489 0
M  V30 1241 H 116.905 4.60948 -1.50514 0
M  V30 1242 N 118.248 0.346503 1.53744 0
M  V30 1243 C 119.659 -0.136779 1.86198 0
M  V30 1244 C 120.01 -1.49749 1.26766 0
M  V30 1245 O 119.135 -2.08417 0.582355 0
M  V30 1246 C 119.73 -0.254966 3.37839 0
M  V30 1247 C 118.289 -0.682482 3.70161 0
M  V30 1248 C 117.436 0.181981 2.76702 0
M  V30 1249 H 120.387 0.565994 1.48264 0
M  V30 1250 H 120.408 -1.08195 3.64793 0
M  V30 1251 H 119.92 0.735526 3.81066 0
M  V30 1252 H 118.021 -1.68189 3.3248 0
M  V30 1253 H 118.134 -0.470326 4.76786 0
M  V30 1254 H 116.498 -0.34615 2.52337 0
M  V30 1255 H 117.281 1.16966 3.2276 0
M  V30 1256 N 119.726 -1.57421 0.075193 0
M  V30 1257 C 120.972 -1.93905 -0.594025 0
M  V30 1258 C 121.305 -0.955701 -1.69056 0
M  V30 1259 O 120.58 0.0145373 -1.94495 0
M  V30 1260 C 120.863 -3.40638 -1.1678 0
M  V30 1261 C 120.716 -4.49733 -0.0776792 0
M  V30 1262 C 122.035 -3.88259 -2.07228 0
M  V30 1263 H 119.154 -0.705105 -0.214466 0
M  V30 1264 H 121.796 -1.8947 0.141854 0
M  V30 1265 H 119.946 -3.44549 -1.79494 0
M  V30 1266 H 121.618 -4.57942 0.555573 0
M  V30 1267 H 119.861 -4.29751 0.591286 0
M  V30 1268 H 120.532 -5.49549 -0.519603 0
M  V30 1269 H 123.008 -3.86376 -1.54445 0
M  V30 1270 H 121.884 -4.91533 -2.44308 0
M  V30 1271 H 122.145 -3.26396 -2.98191 0
M  V30 1272 N 121.204 0.198386 -1.56346 0
M  V30 1273 C 122.134 1.24865 -1.9731 0
M  V30 1274 C 123.115 1.47651 -0.844576 0
M  V30 1275 O 124.3 1.59444 -1.10866 0
M  V30 1276 C 121.43 2.59358 -2.30977 0
M  V30 1277 C 120.384 2.5119 -3.46537 0
M  V30 1278 C 119.71 3.89926 -3.65871 0
M  V30 1279 C 121.01 2.03977 -4.80823 0
M  V30 1280 H 122.704 0.908252 -2.85291 0
M  V30 1281 H 120.25 0.435462 -1.37258 0
M  V30 1282 H 122.203 3.33011 -2.58228 0
M  V30 1283 H 120.927 2.95132 -1.39874 0
M  V30 1284 H 119.586 1.79993 -3.19371 0
M  V30 1285 H 119.234 4.23046 -2.72105 0
M  V30 1286 H 118.934 3.85336 -4.4361 0
M  V30 1287 H 120.458 4.65205 -3.95495 0
M  V30 1288 H 121.872 2.67386 -5.07127 0
M  V30 1289 H 120.269 2.10397 -5.62008 0
M  V30 1290 H 121.339 0.992861 -4.74626 0
M  V30 1291 N 122.682 1.50554 0.465978 0
M  V30 1292 C 123.959 1.5232 1.22712 0
M  V30 1293 C 124.339 0.270807 2.09356 0
M  V30 1294 O 123.687 -0.745541 2.15995 0
M  V30 1295 C 123.897 2.82175 2.05374 0
M  V30 1296 C 125.245 3.33033 2.6339 0
M  V30 1297 O 126.269 2.83531 2.15612 0
M  V30 1298 O 125.128 4.19336 3.50456 0
M  V30 1299 H 122.222 0.611183 0.557122 0
M  V30 1300 H 124.768 1.62847 0.477381 0
M  V30 1301 H 123.54 3.64797 1.41558 0
M  V30 1302 H 123.163 2.74675 2.87471 0
M  V30 1303 N 124.16 -0.719506 1.40217 0
M  V30 1304 C 125.09 -1.8465 1.42922 0
M  V30 1305 C 126.071 -1.67599 0.29062 0
M  V30 1306 O 127.256 -1.87688 0.498677 0
M  V30 1307 C 124.386 -3.22565 1.28722 0
M  V30 1308 C 123.34 -3.54281 2.40144 0
M  V30 1309 C 122.666 -4.91298 2.11023 0
M  V30 1310 C 123.966 -3.55676 3.82481 0
M  V30 1311 H 125.66 -1.82644 2.37237 0
M  V30 1312 H 123.206 -0.877305 1.1419 0
M  V30 1313 H 125.159 -4.01095 1.29232 0
M  V30 1314 H 123.883 -3.25137 0.308811 0
M  V30 1315 H 122.542 -2.78088 2.38877 0
M  V30 1316 H 122.19 -4.90468 1.11582 0
M  V30 1317 H 121.89 -5.13485 2.8567 0
M  V30 1318 H 123.414 -5.72166 2.13209 0
M  V30 1319 H 124.828 -4.24254 3.85592 0
M  V30 1320 H 123.225 -3.89388 4.56614 0
M  V30 1321 H 124.295 -2.55144 4.12346 0
M  V30 1322 N 125.638 -1.25649 -0.95132 0
M  V30 1323 C 126.601 -1.06399 -2.03007 0
M  V30 1324 C 127.601 -0.0156794 -1.60792 0
M  V30 1325 O 128.791 -0.25817 -1.72276 0
M  V30 1326 C 125.923 -0.616184 -3.35285 0
M  V30 1327 H 127.116 -2.02164 -2.21517 0
M  V30 1328 H 124.669 -1.08103 -1.12887 0
M  V30 1329 H 125.404 0.343917 -3.22471 0
M  V30 1330 H 125.189 -1.37301 -3.67275 0
M  V30 1331 H 126.679 -0.503032 -4.14559 0
M  V30 1332 N 127.117 1.15442 -1.07289 0
M  V30 1333 C 128.049 2.19773 -0.650585 0
M  V30 1334 C 129.062 1.60076 0.296572 0
M  V30 1335 O 130.251 1.78293 0.0859905 0
M  V30 1336 C 127.351 3.38838 0.0650398 0
M  V30 1337 C 126.524 4.2808 -0.898141 0
M  V30 1338 C 125.583 5.2574 -0.219926 0
M  V30 1339 O 124.609 5.62654 -0.860773 0
M  V30 1340 N 125.811 5.71205 1.03466 0
M  V30 1341 H 128.576 2.56622 -1.54808 0
M  V30 1342 H 126.137 1.30551 -0.957494 0
M  V30 1343 H 128.129 4.01222 0.529415 0
M  V30 1344 H 126.699 3.00409 0.864466 0
M  V30 1345 H 125.919 3.62804 -1.54165 0
M  V30 1346 H 127.207 4.84577 -1.5512 0
M  V30 1347 H 126.605 5.43325 1.57526 0
M  V30 1348 H 125.162 6.35633 1.44272 0
M  V30 1349 N 128.595 0.856903 1.32268 0
M  V30 1350 C 130.011 0.547061 1.49931 0
M  V30 1351 C 130.211 -0.921781 1.7918 0
M  V30 1352 O 129.267 -1.70469 1.8627 0
M  V30 1353 C 130.58 1.43599 2.64196 0
M  V30 1354 C 132.128 1.43665 2.78081 0
M  V30 1355 C 132.603 2.31085 3.95428 0
M  V30 1356 N 134.094 2.28893 4.02694 0
M  V30 1357 C 134.829 2.93262 4.92732 0
M  V30 1358 N 134.325 3.66751 5.87763 0
M  V30 1359 N 136.118 2.82638 4.85873 0
M  V30 1360 H 128.269 1.8075 1.11549 0
M  V30 1361 H 130.532 0.772144 0.549997 0
M  V30 1362 H 130.238 2.48058 2.49319 0
M  V30 1363 H 130.112 1.12502 3.60032 0
M  V30 1364 H 132.499 0.399701 2.92381 0
M  V30 1365 H 132.58 1.7878 1.82952 0
M  V30 1366 H 132.224 3.34849 3.81888 0
M  V30 1367 H 132.154 1.93302 4.89839 0
M  V30 1368 H 134.645 1.75466 3.34694 0
M  V30 1369 H 134.958 4.13027 6.53168 0
M  V30 1370 H 133.303 3.70859 5.87783 0
M  V30 1371 H 136.494 2.24774 4.10602 0
M  V30 1372 H 136.667 3.33084 5.55841 0
M  V30 1373 N 130.073 -1.45103 0.615059 0
M  V30 1374 C 131.005 -2.28786 -0.13762 0
M  V30 1375 C 132.018 -1.40376 -0.824525 0
M  V30 1376 O 133.207 -1.64681 -0.688662 0
M  V30 1377 C 130.307 -3.16322 -1.21628 0
M  V30 1378 C 129.48 -4.33054 -0.615039 0
M  V30 1379 C 128.539 -5.01743 -1.58556 0
M  V30 1380 O 127.565 -5.58293 -1.10895 0
M  V30 1381 N 128.767 -5.01714 -2.91998 0
M  V30 1382 H 131.532 -2.94025 0.580483 0
M  V30 1383 H 129.093 -1.55373 0.45507 0
M  V30 1384 H 131.085 -3.59139 -1.86552 0
M  V30 1385 H 129.655 -2.52943 -1.83681 0
M  V30 1386 H 128.875 -3.93627 0.21245 0
M  V30 1387 H 130.163 -5.08431 -0.193704 0
M  V30 1388 H 129.561 -4.57075 -3.33316 0
M  V30 1389 H 128.118 -5.48371 -3.52325 0
M  V30 1390 N 131.551 -0.354651 -1.53558 0
M  V30 1391 C 132.499 0.512195 -2.26891 0
M  V30 1392 C 133.493 1.09263 -1.29452 0
M  V30 1393 O 134.699 1.03709 -1.47121 0
M  V30 1394 H 131.074 0.183878 -0.729173 0
M  V30 1395 H 133.045 -0.128202 -2.98124 0
M  V30 1396 C 131.794 1.64563 -3.06291 0
M  V30 1397 H 131.117 1.20829 -3.81104 0
M  V30 1398 H 132.557 2.22711 -3.60799 0
M  V30 1399 C 131.016 2.58158 -2.16462 0
M  V30 1400 O 131.546 3.60695 -1.76811 0
M  V30 1401 N 129.752 2.27096 -1.81317 0
M  V30 1402 H 129.299 1.43751 -2.1376 0
M  V30 1403 H 129.257 2.89975 -1.21498 0
M  V30 1404 N 133.029 1.57378 -0.0835403 0
M  V30 1405 C 134.277 1.93547 0.581718 0
M  V30 1406 C 134.598 0.96524 1.69435 0
M  V30 1407 O 133.868 0.0153369 1.95894 0
M  V30 1408 H 132.448 0.714521 0.217874 0
M  V30 1409 H 135.11 1.94366 -0.144158 0
M  V30 1410 H 134.206 2.95665 0.999423 0
M  V30 1411 N 134.507 -0.190092 1.56449 0
M  V30 1412 C 135.753 -0.906472 1.82084 0
M  V30 1413 C 136.108 -1.80677 0.661335 0
M  V30 1414 O 135.401 -1.88501 -0.343237 0
M  V30 1415 C 135.595 -1.75382 3.1141 0
M  V30 1416 C 135.424 -0.937053 4.39829 0
M  V30 1417 C 134.194 -0.619507 5.01488 0
M  V30 1418 C 136.392 -0.2874 5.13496 0
M  V30 1419 N 134.374 0.215367 6.13522 0
M  V30 1420 C 135.745 0.409454 6.18646 0
M  V30 1421 C 137.8 -0.203639 4.97483 0
M  V30 1422 C 136.503 1.1821 7.0952 0
M  V30 1423 C 138.529 0.555622 5.88784 0
M  V30 1424 C 137.891 1.24091 6.93384 0
M  V30 1425 H 133.99 -0.310931 0.717528 0
M  V30 1426 H 136.574 -0.174821 1.93914 0
M  V30 1427 H 134.745 -2.45703 3.00806 0
M  V30 1428 H 136.477 -2.41006 3.25112 0
M  V30 1429 H 133.232 -0.945126 4.64074 0
M  V30 1430 H 133.656 0.622562 6.74131 0
M  V30 1431 H 138.298 -0.719099 4.1664 0
M  V30 1432 H 136.016 1.70897 7.89823 0
M  V30 1433 H 139.602 0.621854 5.78467 0
M  V30 1434 H 138.482 1.81901 7.62812 0
M  V30 1435 N 135.985 -1.50799 -0.457987 0
M  V30 1436 C 136.915 -1.73553 -1.5621 0
M  V30 1437 C 137.896 -0.584774 -1.59732 0
M  V30 1438 O 139.081 -0.825314 -1.7579 0
M  V30 1439 C 136.211 -1.84169 -2.94447 0
M  V30 1440 C 135.165 -2.99461 -3.0579 0
M  V30 1441 C 134.491 -2.95235 -4.45803 0
M  V30 1442 C 135.791 -4.39766 -2.81786 0
M  V30 1443 H 137.485 -2.66 -1.37421 0
M  V30 1444 H 135.031 -1.28002 -0.659662 0
M  V30 1445 H 136.984 -1.98672 -3.71628 0
M  V30 1446 H 135.708 -0.883545 -3.14422 0
M  V30 1447 H 134.367 -2.8463 -2.31044 0
M  V30 1448 H 134.015 -1.97239 -4.62715 0
M  V30 1449 H 133.715 -3.72642 -4.54326 0
M  V30 1450 H 135.239 -3.11803 -5.24987 0
M  V30 1451 H 136.653 -4.55054 -3.4871 0
M  V30 1452 H 135.05 -5.18722 -3.0174 0
M  V30 1453 H 136.12 -4.51229 -1.7754 0
M  V30 1454 N 137.463 0.71206 -1.40597 0
M  V30 1455 C 138.874 1.29135 -1.34837 0
M  V30 1456 C 139.225 1.96186 -0.0235395 0
M  V30 1457 O 138.35 1.97768 0.878444 0
M  V30 1458 C 138.945 2.34827 -2.44217 0
M  V30 1459 C 137.504 2.88371 -2.41907 0
M  V30 1460 C 136.651 1.62202 -2.24913 0
M  V30 1461 H 139.602 0.507944 -1.50352 0
M  V30 1462 H 139.623 3.15749 -2.12327 0
M  V30 1463 H 139.135 1.85996 -3.40627 0
M  V30 1464 H 137.236 3.41422 -1.49204 0
M  V30 1465 H 137.349 3.39925 -3.37621 0
M  V30 1466 H 135.713 1.874 -1.72492 0
M  V30 1467 H 136.496 1.15391 -3.23326 0
M  V30 1468 N 138.941 1.26152 0.944643 0
M  V30 1469 C 140.19 1.10883 1.68487 0
M  V30 1470 C 140.503 -0.348153 1.92477 0
M  V30 1471 O 141.709 -0.621459 2.64292 0
M  V30 1472 C 140.165 1.93624 3.03377 0
M  V30 1473 C 139.773 3.43875 2.87148 0
M  V30 1474 C 141.517 1.86954 3.81115 0
M  V30 1475 C 139.424 4.18875 4.1749 0
M  V30 1476 H 138.354 0.41135 0.631907 0
M  V30 1477 H 141.005 1.50433 1.05082 0
M  V30 1478 H 139.387 1.46904 3.67743 0
M  V30 1479 H 140.561 3.98338 2.31653 0
M  V30 1480 H 138.876 3.51744 2.22856 0
M  V30 1481 H 141.473 2.40275 4.77673 0
M  V30 1482 H 141.816 0.839518 4.07747 0
M  V30 1483 H 142.349 2.31477 3.23517 0
M  V30 1484 H 139.088 5.22332 3.96043 0
M  V30 1485 H 138.608 3.69193 4.72712 0
M  V30 1486 H 140.287 4.27134 4.85968 0
M  V30 1487 N 140.419 -1.14872 1.07899 0
M  V30 1488 C 141.644 -1.90202 0.826926 0
M  V30 1489 C 142.069 -1.77774 -0.614664 0
M  V30 1490 O 141.427 -1.11431 -1.43013 0
M  V30 1491 C 141.475 -3.38352 1.24702 0
M  V30 1492 O 140.579 -4.10497 0.39575 0
M  V30 1493 H 139.92 -0.591968 0.300782 0
M  V30 1494 H 142.45 -1.45437 1.43907 0
M  V30 1495 H 142.46 -3.89156 1.22563 0
M  V30 1496 H 141.135 -3.46715 2.29698 0
M  V30 1497 H 139.712 -3.69796 0.480117 0
M  V30 1498 N 141.898 -0.863906 -1.31812 0
M  V30 1499 C 142.861 -0.320212 -2.26952 0
M  V30 1500 C 143.861 0.525369 -1.51975 0
M  V30 1501 O 145.051 0.335547 -1.70938 0
M  V30 1502 C 142.183 0.545919 -3.365 0
M  V30 1503 H 143.376 -1.16004 -2.76556 0
M  V30 1504 H 140.929 -0.638995 -1.42641 0
M  V30 1505 H 141.664 1.40718 -2.92179 0
M  V30 1506 H 141.449 -0.0594674 -3.92055 0
M  V30 1507 H 142.939 0.918796 -4.07367 0
M  V30 1508 N 143.376 1.44774 -0.622745 0
M  V30 1509 C 144.309 2.27792 0.136329 0
M  V30 1510 C 145.287 1.38041 0.859264 0
M  V30 1511 O 146.471 1.67478 0.86506 0
M  V30 1512 C 143.598 3.16776 1.19878 0
M  V30 1513 C 142.644 4.22575 0.57731 0
M  V30 1514 S 143.477 5.31825 -0.626294 0
M  V30 1515 C 144.633 6.24377 0.436378 0
M  V30 1516 H 144.866 2.91824 -0.567967 0
M  V30 1517 H 142.399 1.48838 -0.410677 0
M  V30 1518 H 144.357 3.68596 1.80686 0
M  V30 1519 H 143.018 2.5198 1.87523 0
M  V30 1520 H 142.211 4.84818 1.37721 0
M  V30 1521 H 141.813 3.73974 0.0440439 0
M  V30 1522 H 144.105 6.64689 1.31128 0
M  V30 1523 H 145.048 7.07941 -0.150271 0
M  V30 1524 H 145.456 5.59381 0.758513 0
M  V30 1525 N 144.854 0.36279 1.53368 0
M  V30 1526 C 145.802 -0.500155 2.27159 0
M  V30 1527 C 146.796 -1.08575 1.3003 0
M  V30 1528 O 148.002 -1.02927 1.47668 0
M  V30 1529 H 144.377 -0.180009 0.730138 0
M  V30 1530 H 146.348 0.14401 2.98052 0
M  V30 1531 C 145.097 -1.62937 3.07159 0
M  V30 1532 H 144.42 -1.18806 3.8174 0
M  V30 1533 H 145.86 -2.20795 3.61975 0
M  V30 1534 C 144.319 -2.57007 2.17829 0
M  V30 1535 O 144.849 -3.59752 1.78721 0
M  V30 1536 N 143.055 -2.26131 1.82518 0
M  V30 1537 H 142.602 -1.42616 2.14519 0
M  V30 1538 H 142.56 -2.89327 1.23034 0
M  V30 1539 N 146.332 -1.57332 0.0918853 0
M  V30 1540 C 147.279 -2.13847 -0.868211 0
M  V30 1541 C 148.249 -1.05618 -1.28196 0
M  V30 1542 O 149.434 -1.33387 -1.36427 0
M  V30 1543 C 146.574 -2.72062 -2.12312 0
M  V30 1544 C 145.687 -3.94514 -1.7602 0
M  V30 1545 C 144.822 -4.40903 -2.96273 0
M  V30 1546 C 143.861 -5.55953 -2.56092 0
M  V30 1547 N 142.998 -5.97209 -3.69169 0
M  V30 1548 H 147.838 -2.95575 -0.379406 0
M  V30 1549 H 145.375 -1.46048 -0.175606 0
M  V30 1550 H 147.333 -3.03931 -2.858 0
M  V30 1551 H 145.963 -1.93068 -2.58698 0
M  V30 1552 H 145.015 -3.68979 -0.925135 0
M  V30 1553 H 146.327 -4.7802 -1.42472 0
M  V30 1554 H 145.481 -4.74539 -3.78018 0
M  V30 1555 H 144.22 -3.56291 -3.33029 0
M  V30 1556 H 143.225 -5.21948 -1.72773 0
M  V30 1557 H 144.45 -6.42311 -2.20484 0
M  V30 1558 H 142.396 -5.15543 -4.05649 0
M  V30 1559 H 142.313 -6.75504 -3.39456 0
M  V30 1560 H 143.581 -6.35475 -4.51434 0
M  V30 1561 N 147.81 0.181792 -1.56548 0
M  V30 1562 C 149.056 0.901431 -1.81665 0
M  V30 1563 C 149.389 1.82347 -0.668075 0
M  V30 1564 O 148.664 1.91669 0.330615 0
M  V30 1565 C 148.947 1.70618 -3.17115 0
M  V30 1566 C 148.8 0.807964 -4.42484 0
M  V30 1567 C 150.119 2.67605 -3.49393 0
M  V30 1568 H 147.238 0.32627 -0.660846 0
M  V30 1569 H 149.88 0.168134 -1.89255 0
M  V30 1570 H 148.03 2.33133 -3.10775 0
M  V30 1571 H 149.702 0.19649 -4.60881 0
M  V30 1572 H 147.945 0.115411 -4.33646 0
M  V30 1573 H 148.616 1.40632 -5.33785 0
M  V30 1574 H 151.092 2.15218 -3.56118 0
M  V30 1575 H 149.968 3.20985 -4.45264 0
M  V30 1576 H 150.229 3.47298 -2.73563 0
M  V30 1577 N 149.288 1.51039 0.449983 0
M  V30 1578 C 150.251 1.70863 1.5277 0
M  V30 1579 C 151.251 0.578846 1.5002 0
M  V30 1580 O 152.441 0.846213 1.52266 0
M  V30 1581 C 149.573 1.75341 2.9235 0
M  V30 1582 H 150.766 2.67034 1.36502 0
M  V30 1583 H 148.319 1.40838 0.677812 0
M  V30 1584 H 149.054 0.809383 3.14037 0
M  V30 1585 H 148.839 2.57436 2.95752 0
M  V30 1586 H 150.329 1.92559 3.70555 0
M  V30 1587 N 150.766 -0.704594 1.40972 0
M  V30 1588 C 151.676 -1.84856 1.44448 0
M  V30 1589 C 152.692 -1.70726 0.335961 0
M  V30 1590 O 153.868 -1.92799 0.582276 0
M  V30 1591 C 150.933 -3.20758 1.31587 0
M  V30 1592 C 149.994 -3.47063 2.52677 0
M  V30 1593 C 149.227 -4.76481 2.4042 0
M  V30 1594 O 149.45 -5.52341 1.42391 0
M  V30 1595 O 148.384 -5.03367 3.30007 0
M  V30 1596 H 152.21 -1.8488 2.40942 0
M  V30 1597 H 149.795 -0.85647 1.22413 0
M  V30 1598 H 151.677 -4.01913 1.26665 0
M  V30 1599 H 150.352 -3.21438 0.382049 0
M  V30 1600 H 149.259 -2.65873 2.63177 0
M  V30 1601 H 150.592 -3.5119 3.44858 0
M  V30 1602 N 152.244 -1.26651 -0.937939 0
M  V30 1603 C 153.49 -1.12553 -1.687 0
M  V30 1604 C 153.823 0.329782 -1.91379 0
M  V30 1605 O 153.098 1.24202 -1.4968 0
M  V30 1606 C 153.381 -1.89862 -3.05981 0
M  V30 1607 C 153.234 -3.43318 -2.90607 0
M  V30 1608 C 154.553 -1.69499 -4.0615 0
M  V30 1609 H 151.672 -0.410257 -0.612257 0
M  V30 1610 H 154.314 -1.55685 -1.08913 0
M  V30 1611 H 152.464 -1.53204 -3.57017 0
M  V30 1612 H 154.136 -3.89747 -2.46769 0
M  V30 1613 H 152.379 -3.70179 -2.26164 0
M  V30 1614 H 153.05 -3.92642 -3.8799 0
M  V30 1615 H 155.526 -2.01442 -3.64088 0
M  V30 1616 H 154.402 -2.26002 -5.00214 0
M  V30 1617 H 154.663 -0.640365 -4.37438 0
M  V30 1618 N 153.722 1.14298 -1.08507 0
M  V30 1619 C 154.652 2.21542 -0.737646 0
M  V30 1620 C 155.633 1.67773 0.280377 0
M  V30 1621 O 156.818 1.93616 0.150521 0
M  V30 1622 C 153.948 3.46988 -0.147259 0
M  V30 1623 C 152.902 4.13789 -1.09374 0
M  V30 1624 C 152.228 5.33449 -0.365524 0
M  V30 1625 C 153.528 4.62208 -2.4323 0
M  V30 1626 H 155.222 2.5086 -1.6343 0
M  V30 1627 H 152.768 1.20576 -0.787243 0
M  V30 1628 H 154.721 4.21262 0.107808 0
M  V30 1629 H 153.445 3.17037 0.784538 0
M  V30 1630 H 152.104 3.4147 -1.33393 0
M  V30 1631 H 151.752 4.99759 0.57011 0
M  V30 1632 H 151.452 5.79088 -0.996512 0
M  V30 1633 H 152.976 6.10485 -0.118534 0
M  V30 1634 H 154.39 5.27952 -2.23472 0
M  V30 1635 H 152.787 5.18553 -3.02031 0
M  V30 1636 H 153.857 3.77224 -3.04681 0
M  V30 1637 N 155.201 0.870884 1.31352 0
M  V30 1638 C 156.133 0.28455 2.27427 0
M  V30 1639 C 157.146 -0.552927 1.53123 0
M  V30 1640 O 158.335 -0.374771 1.74521 0
M  V30 1641 C 155.435 -0.615164 3.3327 0
M  V30 1642 C 154.608 0.190079 4.36987 0
M  V30 1643 C 153.667 -0.637917 5.22319 0
M  V30 1644 O 152.693 -0.065626 5.69162 0
M  V30 1645 N 153.895 -1.94973 5.46778 0
M  V30 1646 H 156.66 1.11017 2.7838 0
M  V30 1647 H 154.221 0.732458 1.44384 0
M  V30 1648 H 156.213 -1.1748 3.87273 0
M  V30 1649 H 154.783 -1.34146 2.82354 0
M  V30 1650 H 154.003 0.931165 3.83044 0
M  V30 1651 H 155.291 0.742579 5.03352 0
M  V30 1652 H 154.689 -2.4378 5.10478 0
M  V30 1653 H 153.246 -2.45713 6.03712 0
M  V30 1654 N 156.679 -1.44442 0.630414 0
M  V30 1655 C 157.925 -2.02351 0.134816 0
M  V30 1656 C 158.258 -1.4947 -1.23986 0
M  V30 1657 O 157.533 -0.678475 -1.82283 0
M  V30 1658 C 157.816 -3.59898 0.120707 0
M  V30 1659 C 157.669 -4.23063 1.52767 0
M  V30 1660 C 158.988 -4.36585 -0.555127 0
M  V30 1661 H 156.107 -0.73527 0.0504646 0
M  V30 1662 H 158.749 -1.72022 0.806751 0
M  V30 1663 H 156.899 -3.85868 -0.451477 0
M  V30 1664 H 158.571 -4.08202 2.14869 0
M  V30 1665 H 156.814 -3.80586 2.08175 0
M  V30 1666 H 157.485 -5.32071 1.46984 0
M  V30 1667 H 159.961 -4.16044 -0.0685429 0
M  V30 1668 H 158.837 -5.46294 -0.534185 0
M  V30 1669 H 159.098 -4.11138 -1.62535 0
M  V30 1670 N 158.157 -0.370918 -1.53173 0
M  V30 1671 C 159.568 0.107139 -1.86392 0
M  V30 1672 C 159.919 1.47714 -1.29132 0
M  V30 1673 O 159.044 2.07464 -0.615439 0
M  V30 1674 C 159.639 0.201187 -3.38202 0
M  V30 1675 C 158.198 0.623507 -3.712 0
M  V30 1676 C 157.345 -0.225978 -2.76378 0
M  V30 1677 H 160.296 -0.58951 -1.47345 0
M  V30 1678 H 160.317 1.02377 -3.66468 0
M  V30 1679 H 159.829 -0.796058 -3.79848 0
M  V30 1680 H 157.93 1.62879 -3.35114 0
M  V30 1681 H 158.043 0.394414 -4.77474 0
M  V30 1682 H 156.407 0.305962 -2.52856 0
M  V30 1683 H 157.19 -1.22086 -3.20858 0
M  V30 1684 N 159.635 1.57281 -0.100228 0
M  V30 1685 C 161.046 1.81725 0.428107 0
M  V30 1686 C 161.397 1.01619 1.67833 0
M  V30 1687 O 160.522 0.247098 2.14985 0
M  V30 1688 C 161.117 3.29617 0.78347 0
M  V30 1689 C 159.676 3.54808 1.25653 0
M  V30 1690 C 158.823 2.76118 0.255752 0
M  V30 1691 H 161.774 1.55324 -0.325608 0
M  V30 1692 H 161.795 3.4322 1.64256 0
M  V30 1693 H 161.307 3.87893 -0.12665 0
M  V30 1694 H 159.408 3.01868 2.18418 0
M  V30 1695 H 159.521 4.63443 1.21482 0
M  V30 1696 H 157.885 2.43745 0.738956 0
M  V30 1697 H 158.668 3.37145 -0.647136 0
M  V30 1698 N 161.113 -0.173488 1.56642 0
M  V30 1699 C 162.046 -1.24353 1.91342 0
M  V30 1700 C 163.024 -1.4289 0.775965 0
M  V30 1701 O 164.208 -1.57932 1.02907 0
M  V30 1702 C 161.335 -2.60683 2.16245 0
M  V30 1703 C 160.381 -2.58894 3.38934 0
M  V30 1704 S 161.214 -2.0819 4.93373 0
M  V30 1705 C 162.37 -3.46302 5.21369 0
M  V30 1706 H 162.603 -0.947345 2.81803 0
M  V30 1707 H 160.136 -0.377958 1.49703 0
M  V30 1708 H 162.094 -3.39149 2.31275 0
M  V30 1709 H 160.755 -2.87502 1.26496 0
M  V30 1710 H 159.948 -3.59188 3.53553 0
M  V30 1711 H 159.55 -1.88522 3.2301 0
M  V30 1712 H 161.842 -4.42287 5.13214 0
M  V30 1713 H 162.785 -3.3656 6.23003 0
M  V30 1714 H 163.193 -3.42214 4.48943 0
M  V30 1715 N 162.591 -1.51276 -0.441967 0
M  V30 1716 C 164.007 -1.39349 -0.778083 0
M  V30 1717 C 164.207 -0.472212 -1.95889 0
M  V30 1718 O 163.263 0.0743551 -2.5239 0
M  V30 1719 C 164.576 -2.81292 -1.0628 0
M  V30 1720 C 166.124 -2.9041 -1.16751 0
M  V30 1721 C 166.599 -4.33251 -1.48519 0
M  V30 1722 N 168.09 -4.36336 -1.55453 0
M  V30 1723 C 168.825 -5.43885 -1.81596 0
M  V30 1724 N 168.321 -6.61601 -2.05562 0
M  V30 1725 N 170.114 -5.3136 -1.8334 0
M  V30 1726 H 162.265 -2.09729 0.335774 0
M  V30 1727 H 164.528 -0.943925 0.0878028 0
M  V30 1728 H 164.234 -3.50678 -0.267905 0
M  V30 1729 H 164.108 -3.20334 -1.99163 0
M  V30 1730 H 166.495 -2.21225 -1.95304 0
M  V30 1731 H 166.576 -2.54871 -0.217801 0
M  V30 1732 H 166.22 -5.02984 -0.704958 0
M  V30 1733 H 166.15 -4.66299 -2.44689 0
M  V30 1734 H 168.641 -3.51466 -1.38853 0
M  V30 1735 H 168.954 -7.39361 -2.24867 0
M  V30 1736 H 167.299 -6.64725 -2.02894 0
M  V30 1737 H 170.49 -4.38382 -1.64132 0
M  V30 1738 H 170.663 -6.15258 -2.03377 0
M  V30 1739 N 164.069 0.697108 -1.41344 0
M  V30 1740 C 165.315 1.4593 -1.40827 0
M  V30 1741 C 165.648 1.94193 -0.0167098 0
M  V30 1742 O 164.923 1.69425 0.955263 0
M  V30 1743 C 165.206 2.67229 -2.41373 0
M  V30 1744 C 165.059 2.24741 -3.8963 0
M  V30 1745 C 166.378 3.69423 -2.39196 0
M  V30 1746 H 163.497 0.529303 -0.512842 0
M  V30 1747 H 166.139 0.794112 -1.72609 0
M  V30 1748 H 164.289 3.23982 -2.14401 0
M  V30 1749 H 165.961 1.73327 -4.27499 0
M  V30 1750 H 164.204 1.56542 -4.0457 0
M  V30 1751 H 164.875 3.1177 -4.55525 0
M  V30 1752 H 167.351 3.2234 -2.63128 0
M  V30 1753 H 166.227 4.51907 -3.11563 0
M  V30 1754 H 166.488 4.19012 -1.41001 0
M  V30 1755 N 165.547 1.27147 0.931209 0
M  V30 1756 C 166.777 1.15914 1.71019 0
M  V30 1757 C 167.185 -0.287112 1.87009 0
M  V30 1758 O 166.528 -1.20761 1.38429 0
M  V30 1759 C 166.59 1.76647 3.13107 0
M  V30 1760 C 166.254 3.25807 3.20467 0
M  V30 1761 C 167.251 4.22489 3.02983 0
M  V30 1762 C 164.936 3.66452 3.43538 0
M  V30 1763 C 166.93 5.57794 3.08454 0
M  V30 1764 C 164.617 5.01888 3.48643 0
M  V30 1765 C 165.615 5.97369 3.31119 0
M  V30 1766 O 165.303 7.30337 3.35952 0
M  V30 1767 H 165.035 0.404062 0.54195 0
M  V30 1768 H 167.589 1.68457 1.17521 0
M  V30 1769 H 165.819 1.18578 3.68071 0
M  V30 1770 H 167.508 1.60179 3.72958 0
M  V30 1771 H 168.274 3.92425 2.85004 0
M  V30 1772 H 164.153 2.92611 3.5623 0
M  V30 1773 H 167.697 6.32298 2.94694 0
M  V30 1774 H 163.594 5.31609 3.66145 0
M  V30 1775 H 164.362 7.38739 3.5243 0
M  V30 1776 N 167.025 -1.13721 1.09112 0
M  V30 1777 C 167.935 -2.22638 0.73957 0
M  V30 1778 C 168.951 -1.72091 -0.257068 0
M  V30 1779 O 170.127 -2.01155 -0.0992154 0
M  V30 1780 C 167.192 -3.46322 0.16191 0
M  V30 1781 C 166.253 -4.11775 1.21408 0
M  V30 1782 C 165.486 -5.29555 0.663891 0
M  V30 1783 O 165.709 -5.68077 -0.514274 0
M  V30 1784 O 164.643 -5.84973 1.41738 0
M  V30 1785 H 168.469 -2.55074 1.64836 0
M  V30 1786 H 166.054 -1.21791 0.865289 0
M  V30 1787 H 167.936 -4.21107 -0.157073 0
M  V30 1788 H 166.611 -3.15593 -0.719932 0
M  V30 1789 H 165.518 -3.3883 1.58571 0
M  V30 1790 H 166.851 -4.46627 2.06845 0
M  V30 1791 N 168.503 -0.877838 -1.30888 0
M  V30 1792 C 169.749 -0.493426 -1.96706 0
M  V30 1793 C 170.082 0.953504 -1.6918 0
M  V30 1794 O 169.357 1.67266 -0.992594 0
M  V30 1795 C 169.64 -0.760429 -3.51979 0
M  V30 1796 C 169.493 -2.25747 -3.89048 0
M  V30 1797 C 170.812 -0.232148 -4.39487 0
M  V30 1798 H 167.931 -0.180746 -0.714493 0
M  V30 1799 H 170.573 -1.10052 -1.54882 0
M  V30 1800 H 168.723 -0.243715 -3.87735 0
M  V30 1801 H 170.395 -2.84204 -3.63354 0
M  V30 1802 H 168.638 -2.72694 -3.37373 0
M  V30 1803 H 169.309 -2.39491 -4.97341 0
M  V30 1804 H 171.785 -0.674314 -4.106 0
M  V30 1805 H 170.661 -0.448355 -5.47066 0
M  V30 1806 H 170.922 0.866297 -4.33529 0
M  V30 1807 N 169.982 1.44106 -0.638065 0
M  V30 1808 C 170.945 2.29138 0.0531013 0
M  V30 1809 C 171.945 1.41409 0.765506 0
M  V30 1810 O 173.135 1.63206 0.609046 0
M  V30 1811 C 170.267 3.23144 1.08584 0
M  V30 1812 H 171.46 2.91739 -0.694883 0
M  V30 1813 H 169.013 1.51134 -0.398538 0
M  V30 1814 H 169.748 2.65408 1.86357 0
M  V30 1815 H 169.533 3.87804 0.578852 0
M  V30 1816 H 171.023 3.87004 1.56899 0
M  V30 1817 N 171.46 0.379036 1.52974 0
M  V30 1818 C 172.688 -0.20679 2.05864 0
M  V30 1819 C 173.103 -1.41356 1.25155 0
M  V30 1820 O 172.46 -1.8009 0.295588 0
M  V30 1821 C 172.511 -0.587045 3.56702 0
M  V30 1822 O 172.232 0.571776 4.34353 0
M  V30 1823 C 173.733 -1.22983 4.25899 0
M  V30 1824 H 170.953 -0.0336123 0.670158 0
M  V30 1825 H 173.497 0.541298 1.97206 0
M  V30 1826 H 171.652 -1.28504 3.65466 0
M  V30 1827 H 172.066 0.261544 5.23847 0
M  V30 1828 H 173.54 -1.44635 5.32715 0
M  V30 1829 H 174.017 -2.19416 3.80465 0
M  V30 1830 H 174.623 -0.572892 4.21424 0
M  V30 1831 N 172.938 -1.57226 0.108567 0
M  V30 1832 C 174.185 -1.94833 -0.551943 0
M  V30 1833 C 174.513 -0.991204 -1.67348 0
M  V30 1834 O 173.768 -0.0131878 -1.95696 0
M  V30 1835 C 174.067 -3.38911 -1.13463 0
M  V30 1836 C 173.733 -4.50696 -0.135509 0
M  V30 1837 C 172.395 -4.80998 0.139252 0
M  V30 1838 C 174.747 -5.18333 0.545957 0
M  V30 1839 C 172.075 -5.76259 1.10194 0
M  V30 1840 C 174.427 -6.14627 1.49721 0
M  V30 1841 C 173.091 -6.43327 1.78006 0
M  V30 1842 H 172.361 -0.712944 -0.20197 0
M  V30 1843 H 175.008 -1.90582 0.18726 0
M  V30 1844 H 173.313 -3.39805 -1.95037 0
M  V30 1845 H 175.01 -3.65317 -1.65362 0
M  V30 1846 H 171.6 -4.27087 -0.359846 0
M  V30 1847 H 175.784 -4.95087 0.346842 0
M  V30 1848 H 171.04 -5.96804 1.32795 0
M  V30 1849 H 175.214 -6.66126 2.03099 0
M  V30 1850 H 172.841 -7.1695 2.52759 0
M  V30 1851 N 174.416 0.165178 -1.56732 0
M  V30 1852 C 175.646 0.894919 -1.86212 0
M  V30 1853 C 176.054 1.76066 -0.692627 0
M  V30 1854 O 175.397 1.80387 0.347303 0
M  V30 1855 C 175.459 1.8174 -3.10179 0
M  V30 1856 C 175.123 1.13064 -4.42793 0
M  V30 1857 C 176.12 0.493169 -5.17556 0
M  V30 1858 C 173.805 1.12556 -4.89527 0
M  V30 1859 C 175.799 -0.140209 -6.37246 0
M  V30 1860 C 173.486 0.488366 -6.09145 0
M  V30 1861 C 174.484 -0.143411 -6.82849 0
M  V30 1862 O 174.172 -0.77055 -8.00199 0
M  V30 1863 H 173.904 0.265114 -0.621844 0
M  V30 1864 H 176.458 0.168242 -2.0471 0
M  V30 1865 H 174.688 2.58455 -2.87642 0
M  V30 1866 H 176.377 2.4175 -3.26055 0
M  V30 1867 H 177.143 0.489023 -4.82528 0
M  V30 1868 H 173.022 1.60672 -4.32094 0
M  V30 1869 H 176.566 -0.633932 -6.94714 0
M  V30 1870 H 172.463 0.490116 -6.43637 0
M  V30 1871 H 173.231 -0.670408 -8.1575 0
M  V30 1872 N 175.894 1.51508 0.433938 0
M  V30 1873 C 177.122 1.68157 1.20543 0
M  V30 1874 C 177.537 0.380362 1.84929 0
M  V30 1875 O 176.894 -0.641446 1.70856 0
M  V30 1876 C 176.945 2.79965 2.28696 0
M  V30 1877 O 176.666 4.05045 1.66943 0
M  V30 1878 C 178.167 3.07912 3.18912 0
M  V30 1879 H 175.387 0.56421 0.363191 0
M  V30 1880 H 177.931 1.97941 0.513754 0
M  V30 1881 H 176.086 2.5277 2.93574 0
M  V30 1882 H 176.5 4.67165 2.38448 0
M  V30 1883 H 177.974 3.89719 3.90926 0
M  V30 1884 H 178.451 2.20456 3.79863 0
M  V30 1885 H 179.057 3.36779 2.59731 0
M  V30 1886 N 177.372 -0.689602 1.41712 0
M  V30 1887 C 178.305 -1.81403 1.3845 0
M  V30 1888 C 179.283 -1.60653 0.250874 0
M  V30 1889 O 180.467 -1.83323 0.43874 0
M  V30 1890 C 177.594 -3.18176 1.1611 0
M  V30 1891 C 176.64 -3.57705 2.3227 0
M  V30 1892 S 177.473 -3.61827 3.94767 0
M  V30 1893 C 178.629 -5.01318 3.74742 0
M  V30 1894 H 178.862 -1.83893 2.33603 0
M  V30 1895 H 176.395 -0.858878 1.28307 0
M  V30 1896 H 178.353 -3.97132 1.03907 0
M  V30 1897 H 177.014 -3.13288 0.225668 0
M  V30 1898 H 176.207 -4.57082 2.12349 0
M  V30 1899 H 175.809 -2.86073 2.40911 0
M  V30 1900 H 178.101 -5.88986 3.34817 0
M  V30 1901 H 179.044 -5.26283 4.73743 0
M  V30 1902 H 179.452 -4.73138 3.07898 0
M  V30 1903 N 178.85 -1.27639 -0.924453 0
M  V30 1904 C 180.08 -1.16819 -1.70402 0
M  V30 1905 C 180.488 0.277191 -1.87158 0
M  V30 1906 O 179.831 1.20025 -1.39067 0
M  V30 1907 C 179.893 -1.78305 -3.12166 0
M  V30 1908 C 179.557 -3.27502 -3.18734 0
M  V30 1909 C 180.554 -4.2409 -3.00738 0
M  V30 1910 C 178.239 -3.68269 -3.4159 0
M  V30 1911 C 180.233 -5.59422 -3.05492 0
M  V30 1912 C 177.92 -5.0373 -3.45977 0
M  V30 1913 C 178.918 -5.99116 -3.27946 0
M  V30 1914 O 178.606 -7.32108 -3.32074 0
M  V30 1915 H 178.338 -0.406931 -0.539799 0
M  V30 1916 H 180.892 -1.69078 -1.16626 0
M  V30 1917 H 179.122 -1.20528 -3.67437 0
M  V30 1918 H 180.811 -1.62154 -3.72103 0
M  V30 1919 H 181.577 -3.93931 -2.82919 0
M  V30 1920 H 177.456 -2.94496 -3.54673 0
M  V30 1921 H 181 -6.33852 -2.91337 0
M  V30 1922 H 176.897 -5.33543 -3.63321 0
M  V30 1923 H 177.665 -7.40598 -3.48507 0
M  V30 1924 N 180.328 1.1314 -1.09713 0
M  V30 1925 C 181.276 2.20717 -0.733934 0
M  V30 1926 C 182.27 1.6729 0.266506 0
M  V30 1927 O 183.476 1.79547 0.127656 0
M  V30 1928 H 179.851 0.719292 -0.21937 0
M  V30 1929 H 181.822 2.48611 -1.6503 0
M  V30 1930 C 180.571 3.47265 -0.173849 0
M  V30 1931 H 179.894 3.88716 -0.934873 0
M  V30 1932 H 181.334 4.23979 0.0423126 0
M  V30 1933 C 179.793 3.18724 1.09164 0
M  V30 1934 O 180.323 3.37762 2.17439 0
M  V30 1935 N 178.529 2.72583 1.00732 0
M  V30 1936 H 178.076 2.57291 0.126121 0
M  V30 1937 H 178.034 2.53862 1.85476 0
M  V30 1938 N 181.806 0.884767 1.30421 0
M  V30 1939 C 183.222 0.57874 1.48737 0
M  V30 1940 C 183.422 -0.883567 1.81095 0
M  V30 1941 O 182.478 -1.6648 1.89844 0
M  V30 1942 C 183.791 1.49171 2.61091 0
M  V30 1943 C 185.339 1.49532 2.74971 0
M  V30 1944 C 185.814 2.39421 3.90438 0
M  V30 1945 N 187.305 2.37383 3.97748 0
M  V30 1946 C 188.04 3.03647 4.86401 0
M  V30 1947 N 187.536 3.79136 5.79852 0
M  V30 1948 N 189.329 2.9288 4.79768 0
M  V30 1949 H 181.48 1.83075 1.0769 0
M  V30 1950 H 183.743 0.783637 0.533495 0
M  V30 1951 H 183.449 2.53291 2.44001 0
M  V30 1952 H 183.323 1.20113 3.57565 0
M  V30 1953 H 185.71 0.46163 2.91467 0
M  V30 1954 H 185.791 1.8262 1.79119 0
M  V30 1955 H 185.435 3.42874 3.74699 0
M  V30 1956 H 185.365 2.03649 4.85628 0
M  V30 1957 H 187.856 1.82525 3.30897 0
M  V30 1958 H 188.169 4.26789 6.4426 0
M  V30 1959 H 186.514 3.83243 5.79784 0
M  V30 1960 H 189.705 2.33433 4.05742 0
M  V30 1961 H 189.878 3.448 5.4865 0
M  V30 1962 N 183.284 -1.43765 0.645699 0
M  V30 1963 C 184.231 -2.30745 -0.0504648 0
M  V30 1964 C 185.201 -1.4432 -0.822241 0
M  V30 1965 O 186.386 -1.73202 -0.800358 0
M  V30 1966 C 183.526 -3.29802 -1.0161 0
M  V30 1967 C 182.639 -4.31326 -0.241219 0
M  V30 1968 C 181.774 -5.17469 -1.19998 0
M  V30 1969 C 180.813 -6.10691 -0.415094 0
M  V30 1970 N 179.95 -6.89483 -1.32506 0
M  V30 1971 H 184.79 -2.8973 0.697155 0
M  V30 1972 H 182.327 -1.42738 0.355563 0
M  V30 1973 H 184.285 -3.85734 -1.58949 0
M  V30 1974 H 182.915 -2.72483 -1.73069 0
M  V30 1975 H 181.967 -3.77749 0.448334 0
M  V30 1976 H 183.279 -4.9743 0.369437 0
M  V30 1977 H 182.433 -5.7799 -1.84424 0
M  V30 1978 H 181.172 -4.51473 -1.84455 0
M  V30 1979 H 180.177 -5.49265 0.242565 0
M  V30 1980 H 181.402 -6.78727 0.224966 0
M  V30 1981 H 179.348 -6.26142 -1.95657 0
M  V30 1982 H 179.265 -7.52081 -0.768783 0
M  V30 1983 H 180.533 -7.54516 -1.9577 0
M  V30 1984 N 184.763 -0.387143 -1.52771 0
M  V30 1985 C 186.174 0.0873634 -1.86495 0
M  V30 1986 C 186.525 1.46336 -1.30691 0
M  V30 1987 O 185.65 2.068 -0.637409 0
M  V30 1988 C 186.245 0.165305 -3.38396 0
M  V30 1989 C 184.804 0.584101 -3.7184 0
M  V30 1990 C 183.951 -0.255279 -2.76122 0
M  V30 1991 H 186.902 -0.605104 -1.46711 0
M  V30 1992 H 186.923 0.984848 -3.67534 0
M  V30 1993 H 186.435 -0.836301 -3.78982 0
M  V30 1994 H 184.536 1.59315 -3.36823 0
M  V30 1995 H 184.649 0.343749 -4.77865 0
M  V30 1996 H 183.013 0.279126 -2.53166 0
M  V30 1997 H 183.796 -1.25482 -3.19545 0
M  V30 1998 N 186.241 1.57166 -0.116904 0
M  V30 1999 C 187.487 1.95412 0.542405 0
M  V30 2000 C 187.82 1.00019 1.66463 0
M  V30 2001 O 187.095 0.0370346 1.94465 0
M  V30 2002 C 187.378 3.43615 1.07708 0
M  V30 2003 C 187.231 4.49781 -0.0415868 0
M  V30 2004 C 188.55 3.93616 1.96861 0
M  V30 2005 H 185.669 0.710543 0.195696 0
M  V30 2006 H 188.311 1.89027 -0.192038 0
M  V30 2007 H 186.461 3.49187 1.70296 0
M  V30 2008 H 188.133 4.56308 -0.676793 0
M  V30 2009 H 186.376 4.28033 -0.705019 0
M  V30 2010 H 187.047 5.50733 0.373717 0
M  V30 2011 H 189.523 3.90335 1.44146 0
M  V30 2012 H 188.399 4.97838 2.3119 0
M  V30 2013 H 188.66 3.34188 2.89432 0
M  V30 2014 N 187.719 -0.156864 1.56817 0
M  V30 2015 C 188.967 -0.869404 1.82444 0
M  V30 2016 C 189.288 -1.82147 0.69623 0
M  V30 2017 O 188.558 -1.93847 -0.28287 0
M  V30 2018 H 187.138 -0.324043 0.673056 0
M  V30 2019 H 189.8 -0.153224 1.94297 0
M  V30 2020 H 188.896 -1.43761 2.77019 0
M  V30 2021 N 189.197 -1.51736 -0.425897 0
M  V30 2022 C 190.144 -1.73875 -1.51776 0
M  V30 2023 C 191.114 -0.580702 -1.55618 0
M  V30 2024 O 192.299 -0.81641 -1.72451 0
M  V30 2025 C 189.439 -1.88012 -2.89388 0
M  V30 2026 C 188.552 -3.15606 -2.94986 0
M  V30 2027 C 187.687 -3.20271 -4.23793 0
M  V30 2028 C 186.726 -4.42134 -4.23302 0
M  V30 2029 N 185.863 -4.44284 -5.43651 0
M  V30 2030 H 190.703 -2.67071 -1.32201 0
M  V30 2031 H 188.24 -1.32351 -0.642008 0
M  V30 2032 H 190.198 -1.9419 -3.69251 0
M  V30 2033 H 188.828 -0.98213 -3.07496 0
M  V30 2034 H 187.88 -3.18681 -2.07717 0
M  V30 2035 H 189.192 -4.05486 -2.90486 0
M  V30 2036 H 188.346 -3.25428 -5.12036 0
M  V30 2037 H 187.085 -2.28299 -4.30965 0
M  V30 2038 H 186.09 -4.3714 -3.3345 0
M  V30 2039 H 187.315 -5.35382 -4.17783 0
M  V30 2040 H 185.261 -3.55188 -5.51523 0
M  V30 2041 H 185.178 -5.27988 -5.41078 0
M  V30 2042 H 186.446 -4.53649 -6.33895 0
M  V30 2043 N 190.675 0.682077 -1.42076 0
M  V30 2044 C 191.905 1.46844 -1.45329 0
M  V30 2045 C 192.313 1.89102 -0.0609328 0
M  V30 2046 O 191.656 1.58238 0.933082 0
M  V30 2047 C 191.718 2.75375 -2.31104 0
M  V30 2048 C 191.382 2.55238 -3.79081 0
M  V30 2049 C 192.379 2.20309 -4.70914 0
M  V30 2050 C 190.064 2.70459 -4.2327 0
M  V30 2051 C 192.058 2.00859 -6.04925 0
M  V30 2052 C 189.745 2.50624 -5.57343 0
M  V30 2053 C 190.743 2.15876 -6.47986 0
M  V30 2054 O 190.431 1.96227 -7.79583 0
M  V30 2055 H 190.163 0.4586 -0.496651 0
M  V30 2056 H 192.717 0.846131 -1.87162 0
M  V30 2057 H 190.947 3.40061 -1.84107 0
M  V30 2058 H 192.636 3.37231 -2.25898 0
M  V30 2059 H 193.402 2.08153 -4.38061 0
M  V30 2060 H 189.281 2.96485 -3.53012 0
M  V30 2061 H 192.825 1.7366 -6.75639 0
M  V30 2062 H 188.722 2.62375 -5.89771 0
M  V30 2063 H 189.49 2.10883 -7.90867 0
M  V30 2064 N 192.153 1.28127 0.917671 0
M  V30 2065 C 193.103 1.08361 2.00604 0
M  V30 2066 C 194.087 0.00847518 1.60898 0
M  V30 2067 O 195.279 0.228167 1.75523 0
M  V30 2068 C 192.408 0.743376 3.35155 0
M  V30 2069 C 191.494 1.85716 3.81275 0
M  V30 2070 N 191.885 3.09822 3.99805 0
M  V30 2071 C 190.183 1.74612 4.10398 0
M  V30 2072 C 190.884 3.82368 4.38372 0
M  V30 2073 N 189.86 3.10192 4.4641 0
M  V30 2074 H 193.662 2.02531 2.12975 0
M  V30 2075 H 191.176 1.18989 1.10523 0
M  V30 2076 H 193.173 0.582859 4.12805 0
M  V30 2077 H 191.833 -0.190595 3.2414 0
M  V30 2078 H 192.844 3.45475 3.85833 0
M  V30 2079 H 189.521 0.883657 4.08041 0
M  V30 2080 H 190.911 4.89082 4.60704 0
M  V30 2081 N 193.631 -1.12557 1.10312 0
M  V30 2082 C 194.88 -1.83395 0.839588 0
M  V30 2083 C 195.193 -1.84939 -0.636929 0
M  V30 2084 O 196.399 -2.51761 -1.01631 0
M  V30 2085 C 194.855 -3.29303 1.45215 0
M  V30 2086 C 194.463 -3.36122 2.96186 0
M  V30 2087 C 196.207 -4.05121 1.26796 0
M  V30 2088 C 194.114 -4.76357 3.50483 0
M  V30 2089 H 193.044 -0.687133 0.310425 0
M  V30 2090 H 195.695 -1.26746 1.32694 0
M  V30 2091 H 194.077 -3.85812 0.892469 0
M  V30 2092 H 195.251 -2.89559 3.58458 0
M  V30 2093 H 193.566 -2.73776 3.13745 0
M  V30 2094 H 196.163 -5.08668 1.64806 0
M  V30 2095 H 196.506 -4.15773 0.209409 0
M  V30 2096 H 197.039 -3.54967 1.79563 0
M  V30 2097 H 193.778 -4.70899 4.55998 0
M  V30 2098 H 193.298 -5.23377 2.92978 0
M  V30 2099 H 194.977 -5.45294 3.48228 0
M  V30 2100 N 195.109 -0.891671 -1.2995 0
M  V30 2101 C 196.041 -0.320695 -2.26945 0
M  V30 2102 C 197.054 0.528497 -1.53983 0
M  V30 2103 O 198.243 0.346959 -1.75096 0
M  V30 2104 C 195.343 0.562066 -3.34207 0
M  V30 2105 C 194.516 -0.259576 -4.36629 0
M  V30 2106 C 193.575 0.554739 -5.23268 0
M  V30 2107 O 192.601 -0.0249311 -5.69195 0
M  V30 2108 N 193.803 1.8625 -5.4981 0
M  V30 2109 H 196.568 -1.15432 -2.76578 0
M  V30 2110 H 194.129 -0.755336 -1.432 0
M  V30 2111 H 196.121 1.11304 -3.89093 0
M  V30 2112 H 194.691 1.29637 -2.84452 0
M  V30 2113 H 193.911 -0.991986 -3.81514 0
M  V30 2114 H 195.199 -0.822564 -5.02107 0
M  V30 2115 H 194.597 2.35628 -5.14292 0
M  V30 2116 H 193.154 2.36078 -6.07545 0
M  V30 2117 N 196.587 1.43421 -0.653314 0
M  V30 2118 C 197.833 2.02111 -0.166992 0
M  V30 2119 C 198.166 1.51423 1.21592 0
M  V30 2120 O 197.441 0.707389 1.8118 0
M  V30 2121 C 197.724 3.5966 -0.177948 0
M  V30 2122 C 197.577 4.20579 -1.59478 0
M  V30 2123 C 198.896 4.37413 0.4856 0
M  V30 2124 H 196.015 0.734374 -0.0621557 0
M  V30 2125 H 198.657 1.70717 -0.834016 0
M  V30 2126 H 196.807 3.86537 0.390032 0
M  V30 2127 H 198.479 4.04732 -2.21336 0
M  V30 2128 H 196.722 3.77226 -2.14204 0
M  V30 2129 H 197.393 5.29665 -1.5543 0
M  V30 2130 H 199.869 4.161 0.00234528 0
M  V30 2131 H 198.745 5.47075 0.447207 0
M  V30 2132 H 199.006 4.13672 1.55974 0
M  V30 2133 N 198.065 0.39524 1.52563 0
M  V30 2134 C 199.305 -0.184744 2.03563 0
M  V30 2135 C 199.669 -1.43548 1.27507 0
M  V30 2136 O 200.87 -2.093 1.68662 0
M  V30 2137 C 199.141 -0.440294 3.54678 0
M  V30 2138 S 200.7 -0.989712 4.27493 0
M  V30 2139 H 197.518 -0.0515075 0.709132 0
M  V30 2140 H 200.12 0.544957 1.87751 0
M  V30 2141 H 198.824 0.477005 4.07618 0
M  V30 2142 H 198.355 -1.19825 3.74707 0
M  V30 2143 H 200.37 -2.27155 4.41152 0
M  V30 2144 N 199.544 -1.57102 0.125237 0
M  V30 2145 C 200.772 -1.99761 -0.538797 0
M  V30 2146 C 201.187 -1.00503 -1.59827 0
M  V30 2147 O 200.544 0.00119474 -1.825 0
M  V30 2148 C 200.595 -3.42408 -1.15927 0
M  V30 2149 O 200.316 -4.37869 -0.142143 0
M  V30 2150 C 201.817 -4.00232 -1.90602 0
M  V30 2151 H 199.037 -0.655772 -0.14214 0
M  V30 2152 H 201.581 -2.03383 0.213413 0
M  V30 2153 H 199.736 -3.39706 -1.86223 0
M  V30 2154 H 200.15 -5.21128 -0.593775 0
M  V30 2155 H 201.624 -5.02105 -2.29335 0
M  V30 2156 H 202.101 -3.39721 -2.78363 0
M  V30 2157 H 202.707 -4.06499 -1.25055 0
M  V30 2158 N 201.022 0.148545 -1.56898 0
M  V30 2159 C 202.25 0.876389 -1.87422 0
M  V30 2160 C 202.665 1.74809 -0.713256 0
M  V30 2161 O 202.022 1.79725 0.317025 0
M  V30 2162 C 202.073 1.73438 -3.17178 0
M  V30 2163 O 201.794 0.897809 -4.28802 0
M  V30 2164 C 203.295 2.56993 -3.61205 0
M  V30 2165 H 200.515 0.253489 -0.621277 0
M  V30 2166 H 203.059 0.141798 -2.04008 0
M  V30 2167 H 201.214 2.42205 -3.0235 0
M  V30 2168 H 201.628 1.48672 -5.02988 0
M  V30 2169 H 203.102 3.12773 -4.54838 0
M  V30 2170 H 203.579 3.32958 -2.86419 0
M  V30 2171 H 204.185 1.9352 -3.78722 0
M  V30 2172 N 202.5 1.5196 0.417844 0
M  V30 2173 C 203.728 1.69426 1.18753 0
M  V30 2174 C 204.143 0.399955 1.84515 0
M  V30 2175 O 203.5 -0.623288 1.71527 0
M  V30 2176 C 203.551 2.82375 2.25714 0
M  V30 2177 O 203.272 4.06793 1.62638 0
M  V30 2178 C 204.773 3.11277 3.15628 0
M  V30 2179 H 201.993 0.568031 0.357186 0
M  V30 2180 H 204.537 1.98475 0.49273 0
M  V30 2181 H 202.692 2.5587 2.90877 0
M  V30 2182 H 203.106 4.69667 2.3348 0
M  V30 2183 H 204.58 3.93843 3.86771 0
M  V30 2184 H 205.057 2.24473 3.77503 0
M  V30 2185 H 205.663 3.39515 2.56144 0
M  V30 2186 N 203.978 -0.674533 1.42435 0
M  V30 2187 C 205.389 -1.25514 1.38214 0
M  V30 2188 C 205.74 -1.96055 0.0755464 0
M  V30 2189 O 204.865 -2.00028 -0.8257 0
M  V30 2190 C 205.46 -2.28269 2.50357 0
M  V30 2191 C 204.019 -2.81856 2.49467 0
M  V30 2192 C 203.166 -1.56182 2.29134 0
M  V30 2193 H 206.117 -0.467902 1.51646 0
M  V30 2194 H 206.138 -3.10009 2.20624 0
M  V30 2195 H 205.65 -1.769 3.45439 0
M  V30 2196 H 203.751 -3.37346 1.58204 0
M  V30 2197 H 203.864 -3.30854 3.46515 0
M  V30 2198 H 202.228 -1.82761 1.774 0
M  V30 2199 H 203.011 -1.06778 3.26272 0
M  V30 2200 N 205.456 -1.28612 -0.910864 0
M  V30 2201 C 206.696 -1.1719 -1.67469 0
M  V30 2202 C 207.06 0.274441 -1.90028 0
M  V30 2203 O 208.261 0.511425 -2.6389 0
M  V30 2204 C 206.532 -1.95137 -2.99427 0
M  V30 2205 S 208.091 -2.00122 -3.90508 0
M  V30 2206 H 204.909 -0.41806 -0.575106 0
M  V30 2207 H 207.511 -1.6275 -1.08317 0
M  V30 2208 H 206.215 -2.99381 -2.80712 0
M  V30 2209 H 205.746 -1.50137 -3.63624 0
M  V30 2210 H 207.761 -1.10981 -4.8363 0
M  V30 2211 N 206.934 1.1197 -1.10907 0
M  V30 2212 C 207.867 2.16998 -0.706192 0
M  V30 2213 C 208.845 1.59903 0.294897 0
M  V30 2214 O 210.029 1.87513 0.192636 0
M  V30 2215 C 207.156 3.38673 -0.0427664 0
M  V30 2216 C 206.202 4.14414 -1.00811 0
M  V30 2217 S 207.035 4.72079 -2.52789 0
M  V30 2218 C 208.191 5.97083 -1.87731 0
M  V30 2219 H 208.424 2.50837 -1.59587 0
M  V30 2220 H 205.957 1.23508 -0.926555 0
M  V30 2221 H 207.915 4.09142 0.333668 0
M  V30 2222 H 206.576 3.03105 0.823788 0
M  V30 2223 H 205.769 5.016 -0.491259 0
M  V30 2224 H 205.371 3.49678 -1.3267 0
M  V30 2225 H 207.663 6.66599 -1.21044 0
M  V30 2226 H 208.606 6.53403 -2.72892 0
M  V30 2227 H 209.014 5.4837 -1.33979 0
M  V30 2228 N 208.412 0.89855 1.29475 0
M  V30 2229 C 209.342 0.39201 2.30186 0
M  V30 2230 C 210.323 -0.532359 1.61555 0
M  V30 2231 O 211.508 -0.443331 1.89072 0
M  V30 2232 C 208.638 -0.382353 3.45189 0
M  V30 2233 C 207.592 0.451483 4.25612 0
M  V30 2234 C 206.918 -0.450307 5.328 0
M  V30 2235 C 208.218 1.70079 4.93832 0
M  V30 2236 H 209.912 1.23362 2.72804 0
M  V30 2237 H 207.458 0.594638 1.31149 0
M  V30 2238 H 209.411 -0.747451 4.14718 0
M  V30 2239 H 208.135 -1.25774 3.01411 0
M  V30 2240 H 206.794 0.798897 3.57789 0
M  V30 2241 H 206.442 -1.32379 4.85268 0
M  V30 2242 H 206.142 0.103902 5.87508 0
M  V30 2243 H 207.666 -0.811623 6.05182 0
M  V30 2244 H 209.08 1.40549 5.55805 0
M  V30 2245 H 207.477 2.19623 5.58467 0
M  V30 2246 H 208.547 2.43744 4.19186 0
M  V30 2247 N 209.89 -1.43072 0.660911 0
M  V30 2248 C 211.306 -1.56169 0.329173 0
M  V30 2249 C 211.506 -1.64317 -1.16629 0
M  V30 2250 O 210.562 -1.60245 -1.95135 0
M  V30 2251 C 211.875 -2.81873 1.04729 0
M  V30 2252 C 213.423 -2.95627 1.02828 0
M  V30 2253 C 213.898 -4.24174 1.72744 0
M  V30 2254 N 215.389 -4.31055 1.69545 0
M  V30 2255 C 216.124 -5.29304 2.20511 0
M  V30 2256 N 215.62 -6.33786 2.79799 0
M  V30 2257 N 217.413 -5.21008 2.10966 0
M  V30 2258 H 209.564 -1.36027 1.63127 0
M  V30 2259 H 211.827 -0.653823 0.686454 0
M  V30 2260 H 211.533 -2.81942 2.10242 0
M  V30 2261 H 211.407 -3.72338 0.603702 0
M  V30 2262 H 213.794 -2.95094 -0.0184742 0
M  V30 2263 H 213.875 -2.06431 1.51063 0
M  V30 2264 H 213.519 -4.25467 2.7738 0
M  V30 2265 H 213.449 -5.1228 1.2197 0
M  V30 2266 H 215.94 -3.56174 1.26288 0
M  V30 2267 H 216.253 -7.05086 3.16344 0
M  V30 2268 H 214.598 -6.34387 2.83863 0
M  V30 2269 H 217.789 -4.38301 1.64347 0
M  V30 2270 H 217.962 -5.97416 2.50993 0
M  V30 2271 N 211.368 -0.403325 -1.52352 0
M  V30 2272 C 212.316 0.439752 -2.28405 0
M  V30 2273 C 213.31 1.05089 -1.32863 0
M  V30 2274 O 214.516 0.989759 -1.50345 0
M  V30 2275 H 210.891 0.160587 -0.734653 0
M  V30 2276 H 212.862 -0.222983 -2.97566 0
M  V30 2277 C 211.611 1.54736 -3.11371 0
M  V30 2278 H 210.934 1.08643 -3.84755 0
M  V30 2279 H 212.374 2.1112 -3.67701 0
M  V30 2280 C 210.833 2.51141 -2.24566 0
M  V30 2281 O 211.363 3.54887 -1.88196 0
M  V30 2282 N 209.569 2.21213 -1.8845 0
M  V30 2283 H 209.116 1.36878 -2.18225 0
M  V30 2284 H 209.074 2.85963 -1.30662 0
M  V30 2285 N 212.846 1.57033 -0.133567 0
M  V30 2286 C 214.071 2.00475 0.531477 0
M  V30 2287 C 214.496 1.01291 1.58499 0
M  V30 2288 O 213.854 -0.0133279 1.81295 0
M  V30 2289 C 213.902 3.42729 1.12113 0
M  V30 2290 O 213.006 3.46498 2.23636 0
M  V30 2291 H 212.347 0.650876 0.131362 0
M  V30 2292 H 214.877 2.03344 -0.22634 0
M  V30 2293 H 214.887 3.81246 1.4531 0
M  V30 2294 H 213.562 4.14428 0.349557 0
M  V30 2295 H 212.139 3.19811 1.91769 0
M  V30 2296 N 214.325 -0.140222 1.56975 0
M  V30 2297 C 215.602 -0.880769 1.74648 0
M  V30 2298 C 215.982 -1.99036 0.703404 0
M  V30 2299 O 215.33 -2.26821 -0.27648 0
M  V30 2300 C 215.54 -1.417 3.18939 0
M  V30 2301 C 216.888 -1.87774 3.80823 0
M  V30 2302 O 217.912 -1.51427 3.2241 0
M  V30 2303 O 216.771 -2.54827 4.83452 0
M  V30 2304 H 213.865 -0.416713 0.714338 0
M  V30 2305 H 216.411 -0.125618 1.69234 0
M  V30 2306 H 215.183 -0.619902 3.86359 0
M  V30 2307 H 214.806 -2.23546 3.28805 0
M  V30 2308 N 215.803 -1.52179 -0.40978 0
M  V30 2309 C 217.028 -1.70347 -1.18308 0
M  V30 2310 C 217.453 -0.411887 -1.83535 0
M  V30 2311 O 216.811 0.630587 -1.6998 0
M  V30 2312 C 216.859 -2.83977 -2.22238 0
M  V30 2313 O 215.963 -2.495 -3.28365 0
M  V30 2314 H 215.304 -0.567103 -0.345384 0
M  V30 2315 H 217.834 -1.98879 -0.480445 0
M  V30 2316 H 217.844 -3.0887 -2.66577 0
M  V30 2317 H 216.519 -3.77685 -1.74146 0
M  V30 2318 H 215.096 -2.35277 -2.89308 0
M  V30 2319 N 217.281 0.66697 -1.42791 0
M  V30 2320 C 218.53 1.42278 -1.42968 0
M  V30 2321 C 218.843 1.9553 -0.0524489 0
M  V30 2322 O 220.049 2.71414 0.068363 0
M  V30 2323 C 218.505 2.57418 -2.51524 0
M  V30 2324 C 218.113 2.10832 -3.9529 0
M  V30 2325 C 219.857 3.34878 -2.60877 0
M  V30 2326 C 217.764 3.23101 -4.95338 0
M  V30 2327 H 216.694 0.534533 -0.531781 0
M  V30 2328 H 219.345 0.721302 -1.68729 0
M  V30 2329 H 217.727 3.29971 -2.18941 0
M  V30 2330 H 218.901 1.4538 -4.37266 0
M  V30 2331 H 217.216 1.46289 -3.89857 0
M  V30 2332 H 219.813 4.18505 -3.32802 0
M  V30 2333 H 220.156 3.81993 -1.6549 0
M  V30 2334 H 220.689 2.69398 -2.92693 0
M  V30 2335 H 217.428 2.80969 -5.9223 0
M  V30 2336 H 216.948 3.87309 -4.57987 0
M  V30 2337 H 218.627 3.88447 -5.17415 0
M  V30 2338 N 218.759 1.29093 0.90403 0
M  V30 2339 C 219.689 1.16401 2.02418 0
M  V30 2340 C 220.67 0.0593085 1.69997 0
M  V30 2341 O 221.855 0.238021 1.92736 0
M  V30 2342 C 218.985 0.835233 3.37107 0
M  V30 2343 C 217.939 1.89578 3.83724 0
M  V30 2344 C 217.265 1.42041 5.15489 0
M  V30 2345 C 218.565 3.30394 4.04521 0
M  V30 2346 H 220.259 2.10109 2.13295 0
M  V30 2347 H 217.805 1.01157 1.02486 0
M  V30 2348 H 219.758 0.733169 4.14973 0
M  V30 2349 H 218.482 -0.137543 3.2631 0
M  V30 2350 H 217.141 1.98715 3.08071 0
M  V30 2351 H 216.789 0.436426 5.01103 0
M  V30 2352 H 216.489 2.12964 5.4765 0
M  V30 2353 H 218.013 1.33176 5.959 0
M  V30 2354 H 219.427 3.24123 4.72882 0
M  V30 2355 H 217.824 3.99237 4.48029 0
M  V30 2356 H 218.894 3.73692 3.09002 0
M  V30 2357 N 220.237 -1.11381 1.11499 0
M  V30 2358 C 221.147 -2.21019 0.786628 0
M  V30 2359 C 222.163 -1.72597 -0.220507 0
M  V30 2360 O 223.339 -2.01321 -0.0565251 0
M  V30 2361 C 220.404 -3.459 0.235333 0
M  V30 2362 C 219.465 -4.09107 1.30115 0
M  V30 2363 C 218.698 -5.28027 0.776068 0
M  V30 2364 O 218.921 -5.6904 -0.393661 0
M  V30 2365 O 217.855 -5.81835 1.54114 0
M  V30 2366 H 221.681 -2.51521 1.70209 0
M  V30 2367 H 219.266 -1.19928 0.890928 0
M  V30 2368 H 221.148 -4.21346 -0.067715 0
M  V30 2369 H 219.823 -3.17049 -0.652828 0
M  V30 2370 H 218.73 -3.35391 1.65722 0
M  V30 2371 H 220.063 -4.42139 2.16273 0
M  V30 2372 N 221.715 -0.905404 -1.28997 0
M  V30 2373 C 222.678 -0.392253 -2.25819 0
M  V30 2374 C 223.678 0.476753 -1.5357 0
M  V30 2375 O 224.868 0.280994 -1.71919 0
M  V30 2376 C 222 0.438588 -3.38067 0
M  V30 2377 H 223.193 -1.24743 -2.72725 0
M  V30 2378 H 220.746 -0.684051 -1.40536 0
M  V30 2379 H 221.481 1.31352 -2.96508 0
M  V30 2380 H 221.266 -0.184167 -3.91667 0
M  V30 2381 H 222.756 0.78873 -4.10084 0
M  V30 2382 N 223.193 1.4272 -0.668489 0
M  V30 2383 C 224.442 2.00846 -0.185389 0
M  V30 2384 C 224.755 1.53442 1.21305 0
M  V30 2385 O 225.961 2.03944 1.79218 0
M  V30 2386 C 224.417 3.58805 -0.280591 0
M  V30 2387 C 224.025 4.15198 -1.68268 0
M  V30 2388 C 225.769 4.24255 0.14412 0
M  V30 2389 C 223.676 5.655 -1.73099 0
M  V30 2390 H 222.606 0.751145 -0.0655475 0
M  V30 2391 H 225.257 1.63516 -0.832752 0
M  V30 2392 H 223.639 3.93608 0.434553 0
M  V30 2393 H 224.813 3.91866 -2.42441 0
M  V30 2394 H 223.128 3.62176 -2.05469 0
M  V30 2395 H 225.725 5.34547 0.128086 0
M  V30 2396 H 226.068 3.99277 1.17827 0
M  V30 2397 H 226.601 3.94389 -0.519798 0
M  V30 2398 H 223.34 5.95268 -2.74475 0
M  V30 2399 H 222.86 5.90842 -1.03274 0
M  V30 2400 H 224.539 6.29808 -1.48158 0
M  V30 2401 N 224.671 0.411399 1.52136 0
M  V30 2402 C 225.603 -0.448386 2.24771 0
M  V30 2403 C 226.616 -1.00828 1.27818 0
M  V30 2404 O 227.805 -0.906841 1.53749 0
M  V30 2405 C 224.905 -1.63636 2.96777 0
M  V30 2406 C 224.078 -1.19995 4.20618 0
M  V30 2407 C 223.137 -2.25509 4.75428 0
M  V30 2408 O 222.163 -1.86007 5.3795 0
M  V30 2409 N 223.365 -3.577 4.57199 0
M  V30 2410 H 226.13 0.174025 2.99194 0
M  V30 2411 H 223.691 0.238897 1.60128 0
M  V30 2412 H 225.683 -2.33793 3.30338 0
M  V30 2413 H 224.253 -2.16465 2.25526 0
M  V30 2414 H 223.473 -0.326421 3.92846 0
M  V30 2415 H 224.761 -0.885365 5.01038 0
M  V30 2416 H 224.159 -3.92543 4.07341 0
M  V30 2417 H 222.716 -4.23827 4.95191 0
M  V30 2418 N 226.149 -1.5696 0.141893 0
M  V30 2419 C 227.096 -2.16501 -0.799737 0
M  V30 2420 C 228.066 -1.09643 -1.24771 0
M  V30 2421 O 229.251 -1.3766 -1.32115 0
M  V30 2422 C 226.391 -2.78679 -2.03549 0
M  V30 2423 C 225.504 -3.99914 -1.6338 0
M  V30 2424 C 224.639 -4.50106 -2.82096 0
M  V30 2425 C 223.678 -5.63819 -2.38275 0
M  V30 2426 N 222.815 -6.08651 -3.49983 0
M  V30 2427 H 227.655 -2.96632 -0.285179 0
M  V30 2428 H 225.192 -1.46533 -0.129053 0
M  V30 2429 H 227.15 -3.1287 -2.75986 0
M  V30 2430 H 225.78 -2.012 -2.52425 0
M  V30 2431 H 224.832 -3.71735 -0.807279 0
M  V30 2432 H 226.144 -4.82311 -1.27192 0
M  V30 2433 H 225.298 -4.86325 -3.62729 0
M  V30 2434 H 224.037 -3.66706 -3.21525 0
M  V30 2435 H 223.042 -5.2718 -1.56081 0
M  V30 2436 H 224.267 -6.49 -1.99938 0
M  V30 2437 H 222.213 -5.28188 -3.89042 0
M  V30 2438 H 222.13 -6.85961 -3.17794 0
M  V30 2439 H 223.398 -6.49515 -4.30988 0
M  V30 2440 N 227.627 0.131896 -1.57047 0
M  V30 2441 C 228.574 1.16236 -1.99393 0
M  V30 2442 C 229.544 1.41863 -0.863943 0
M  V30 2443 O 230.729 1.53946 -1.12718 0
M  V30 2444 C 227.869 2.48708 -2.39245 0
M  V30 2445 C 226.982 2.30127 -3.65603 0
M  V30 2446 C 226.117 3.55738 -3.94492 0
M  V30 2447 C 225.156 3.32259 -5.14073 0
M  V30 2448 N 224.293 4.50039 -5.38896 0
M  V30 2449 H 229.133 0.794251 -2.87221 0
M  V30 2450 H 226.67 0.380707 -1.42088 0
M  V30 2451 H 228.628 3.25969 -2.60384 0
M  V30 2452 H 227.258 2.83437 -1.54478 0
M  V30 2453 H 226.31 1.43845 -3.52154 0
M  V30 2454 H 227.622 2.08746 -4.5302 0
M  V30 2455 H 226.776 4.41423 -4.1621 0
M  V30 2456 H 225.515 3.80138 -3.05526 0
M  V30 2457 H 224.52 2.44963 -4.92212 0
M  V30 2458 H 225.745 3.09242 -6.04604 0
M  V30 2459 H 223.691 4.74584 -4.52886 0
M  V30 2460 H 223.608 4.31716 -6.2061 0
M  V30 2461 H 224.876 5.36895 -5.65123 0
M  V30 2462 N 229.106 1.52395 0.401703 0
M  V30 2463 C 230.036 1.79231 1.49661 0
M  V30 2464 C 231.017 0.643654 1.57452 0
M  V30 2465 O 232.202 0.889989 1.72606 0
M  V30 2466 C 229.332 1.94971 2.87409 0
M  V30 2467 C 228.286 3.10604 2.94465 0
M  V30 2468 C 227.612 3.11577 4.34538 0
M  V30 2469 C 228.912 4.49921 2.6527 0
M  V30 2470 H 230.606 2.70917 1.27454 0
M  V30 2471 H 228.152 1.30362 0.6117 0
M  V30 2472 H 230.105 2.12328 3.63999 0
M  V30 2473 H 228.829 0.999632 3.10926 0
M  V30 2474 H 227.488 2.93009 2.20321 0
M  V30 2475 H 227.136 2.14277 4.55076 0
M  V30 2476 H 226.836 3.89247 4.40183 0
M  V30 2477 H 228.36 3.31073 5.13053 0
M  V30 2478 H 229.774 4.67683 3.31581 0
M  V30 2479 H 228.171 5.29564 2.82281 0
M  V30 2480 H 229.241 4.57507 1.60671 0
M  V30 2481 N 230.584 -0.659388 1.43143 0
M  V30 2482 C 231.832 -1.41654 1.44147 0
M  V30 2483 C 232.153 -1.94893 0.0645739 0
M  V30 2484 O 231.423 -1.74044 -0.899198 0
M  V30 2485 H 230.003 -0.525708 0.530697 0
M  V30 2486 H 232.665 -0.778097 1.78694 0
M  V30 2487 H 231.761 -2.26195 2.1504 0
M  V30 2488 N 232.062 -1.29571 -0.897171 0
M  V30 2489 C 233.311 -1.1706 -1.64256 0
M  V30 2490 C 233.624 0.276476 -1.93636 0
M  V30 2491 O 234.83 0.52294 -2.66416 0
M  V30 2492 C 233.286 -2.0475 -2.95982 0
M  V30 2493 C 232.894 -3.54295 -2.74187 0
M  V30 2494 C 234.638 -2.0097 -3.73914 0
M  V30 2495 C 232.545 -4.34081 -4.01656 0
M  V30 2496 H 231.475 -0.43452 -0.616205 0
M  V30 2497 H 234.126 -1.54229 -0.994268 0
M  V30 2498 H 232.508 -1.60452 -3.62038 0
M  V30 2499 H 233.682 -4.06662 -2.1671 0
M  V30 2500 H 231.997 -3.59773 -2.09648 0
M  V30 2501 H 234.594 -2.57838 -4.68427 0
M  V30 2502 H 234.937 -0.990273 -4.0435 0
M  V30 2503 H 235.47 -2.43325 -3.14703 0
M  V30 2504 H 232.209 -5.36671 -3.76384 0
M  V30 2505 H 231.729 -3.86483 -4.58684 0
M  V30 2506 H 233.408 -4.44877 -4.69781 0
M  V30 2507 N 233.54 1.10788 -1.12088 0
M  V30 2508 C 234.487 2.17025 -0.785407 0
M  V30 2509 C 235.457 1.64265 0.246191 0
M  V30 2510 O 236.642 1.90412 0.121584 0
M  V30 2511 C 233.782 3.44249 -0.242177 0
M  V30 2512 C 232.895 4.1098 -1.33115 0
M  V30 2513 C 232.03 5.25911 -0.747741 0
M  V30 2514 C 231.069 5.84538 -1.81609 0
M  V30 2515 N 230.206 6.90853 -1.25167 0
M  V30 2516 H 235.046 2.45066 -1.69548 0
M  V30 2517 H 232.583 1.20297 -0.846582 0
M  V30 2518 H 234.541 4.17101 0.0908026 0
M  V30 2519 H 233.171 3.16571 0.631072 0
M  V30 2520 H 232.223 3.36133 -1.78097 0
M  V30 2521 H 233.535 4.50601 -2.13917 0
M  V30 2522 H 232.689 6.056 -0.365216 0
M  V30 2523 H 231.428 4.87614 0.0915188 0
M  V30 2524 H 230.433 5.03522 -2.20785 0
M  V30 2525 H 231.658 6.249 -2.6585 0
M  V30 2526 H 229.604 6.54562 -0.434174 0
M  V30 2527 H 229.521 7.29166 -1.99633 0
M  V30 2528 H 230.789 7.7433 -0.896259 0
M  V30 2529 N 235.018 0.912232 1.28515 0
M  V30 2530 C 236.264 0.545405 1.95328 0
M  V30 2531 C 236.597 -0.908313 1.71649 0
M  V30 2532 O 235.872 -1.64575 1.03659 0
M  V30 2533 C 236.155 0.853483 3.4984 0
M  V30 2534 C 236.008 2.35982 3.82926 0
M  V30 2535 C 237.327 0.348589 4.38717 0
M  V30 2536 H 234.446 0.199626 0.709449 0
M  V30 2537 H 237.088 1.1412 1.5191 0
M  V30 2538 H 235.238 0.34643 3.86952 0
M  V30 2539 H 236.91 2.93738 3.55691 0
M  V30 2540 H 235.153 2.81543 3.30024 0
M  V30 2541 H 235.824 2.52593 4.90816 0
M  V30 2542 H 238.3 0.78294 4.08668 0
M  V30 2543 H 237.176 0.593242 5.45685 0
M  V30 2544 H 237.437 -0.751049 4.35674 0
M  V30 2545 N 236.496 -1.42363 0.676048 0
M  V30 2546 C 237.744 -2.01123 0.198437 0
M  V30 2547 C 238.065 -1.53731 -1.19966 0
M  V30 2548 O 237.335 -0.759518 -1.80577 0
M  V30 2549 H 235.915 -0.743678 0.0703721 0
M  V30 2550 H 238.577 -1.74263 0.872837 0
M  V30 2551 H 237.673 -3.11454 0.200686 0
M  V30 2552 N 237.974 -0.419461 -1.51915 0
M  V30 2553 C 238.884 0.407528 -2.31033 0
M  V30 2554 C 239.9 1.04413 -1.3919 0
M  V30 2555 O 241.076 1.0434 -1.72265 0
M  V30 2556 C 238.141 1.50365 -3.12396 0
M  V30 2557 C 237.202 0.889029 -4.19994 0
M  V30 2558 C 236.435 1.93291 -4.97468 0
M  V30 2559 O 236.658 3.15259 -4.75361 0
M  V30 2560 O 235.592 1.53339 -5.8204 0
M  V30 2561 H 239.418 -0.237865 -3.02767 0
M  V30 2562 H 237.003 -0.182413 -1.48282 0
M  V30 2563 H 238.885 2.13975 -3.63032 0
M  V30 2564 H 237.56 2.13345 -2.43445 0
M  V30 2565 H 236.467 0.215353 -3.7348 0
M  V30 2566 H 237.8 0.302991 -4.91267 0
M  V30 2567 N 239.452 1.56882 -0.150215 0
M  V30 2568 C 240.68 2.00593 0.506948 0
M  V30 2569 C 241.095 1.03033 1.58208 0
M  V30 2570 O 240.452 0.0278396 1.82479 0
M  V30 2571 C 240.503 3.44209 1.10465 0
M  V30 2572 O 240.224 4.3804 0.0724636 0
M  V30 2573 C 241.725 4.03214 1.84211 0
M  V30 2574 H 238.945 0.65795 0.13169 0
M  V30 2575 H 241.489 2.03018 -0.245743 0
M  V30 2576 H 239.644 3.42625 1.80795 0
M  V30 2577 H 240.058 5.22007 0.510793 0
M  V30 2578 H 241.532 5.0569 2.21318 0
M  V30 2579 H 242.009 3.44107 2.72923 0
M  V30 2580 H 242.615 4.08437 1.18572 0
M  V30 2581 N 240.93 -0.123565 1.57115 0
M  V30 2582 C 242.158 -0.846461 1.88793 0
M  V30 2583 C 242.573 -1.73652 0.740976 0
M  V30 2584 O 241.93 -1.80207 -0.288393 0
M  V30 2585 C 241.981 -1.6837 3.19897 0
M  V30 2586 O 241.702 -0.829477 4.30176 0
M  V30 2587 C 243.203 -2.51214 3.65248 0
M  V30 2588 H 240.423 -0.243573 0.625231 0
M  V30 2589 H 242.967 -0.109324 2.04208 0
M  V30 2590 H 241.122 -2.37364 3.06165 0
M  V30 2591 H 241.536 -1.40651 5.0529 0
M  V30 2592 H 243.01 -3.05497 4.59756 0
M  V30 2593 H 243.487 -3.28359 2.9168 0
M  V30 2594 H 244.093 -1.8747 3.81752 0
M  V30 2595 N 242.408 -1.52605 -0.393616 0
M  V30 2596 C 243.819 -1.59417 -0.971761 0
M  V30 2597 C 244.17 -0.444173 -1.91106 0
M  V30 2598 O 243.295 0.433382 -2.12016 0
M  V30 2599 C 243.89 -2.88936 -1.76921 0
M  V30 2600 C 242.449 -2.98175 -2.29714 0
M  V30 2601 C 241.596 -2.54491 -1.10135 0
M  V30 2602 H 244.547 -1.57751 -0.173317 0
M  V30 2603 H 244.568 -2.75163 -2.62804 0
M  V30 2604 H 244.08 -3.72616 -1.08532 0
M  V30 2605 H 242.181 -2.19024 -3.01429 0
M  V30 2606 H 242.294 -4.02726 -2.59517 0
M  V30 2607 H 240.658 -2.08702 -1.45999 0
M  V30 2608 H 241.441 -3.4056 -0.432874 0
M  V30 2609 N 243.887 0.651787 -1.4349 0
M  V30 2610 C 245.164 1.40909 -1.35661 0
M  V30 2611 C 245.544 2.11099 -0.00511733 0
M  V30 2612 O 244.892 2.04892 1.0115 0
M  V30 2613 C 245.102 2.3926 -2.54078 0
M  V30 2614 C 246.45 3.03217 -2.97228 0
M  V30 2615 O 247.474 2.49588 -2.54135 0
M  V30 2616 O 246.333 4.00455 -3.71885 0
M  V30 2617 H 243.427 0.629625 -0.536191 0
M  V30 2618 H 245.973 0.678575 -1.55542 0
M  V30 2619 H 244.745 1.86352 -3.44076 0
M  V30 2620 H 244.368 3.1976 -2.36303 0
M  V30 2621 N 245.365 1.30045 0.890287 0
M  V30 2622 C 246.312 1.15976 1.99545 0
M  V30 2623 C 247.282 0.0506202 1.66023 0
M  V30 2624 O 248.467 0.219847 1.89529 0
M  V30 2625 C 245.607 0.852054 3.34416 0
M  V30 2626 C 244.72 2.04255 3.80662 0
M  V30 2627 C 243.855 1.6734 5.04154 0
M  V30 2628 C 242.894 2.82916 5.42794 0
M  V30 2629 N 242.031 2.46333 6.57468 0
M  V30 2630 H 246.871 2.10524 2.10911 0
M  V30 2631 H 244.408 1.04749 1.03276 0
M  V30 2632 H 246.366 0.654296 4.12037 0
M  V30 2633 H 244.996 -0.0565502 3.2275 0
M  V30 2634 H 244.048 2.35172 2.98995 0
M  V30 2635 H 245.36 2.90826 4.05242 0
M  V30 2636 H 244.514 1.43908 5.89386 0
M  V30 2637 H 243.253 0.779308 4.81433 0
M  V30 2638 H 242.258 3.0702 4.56091 0
M  V30 2639 H 243.483 3.73004 5.6749 0
M  V30 2640 H 241.429 1.59423 6.36334 0
M  V30 2641 H 241.346 3.26436 6.81891 0
M  V30 2642 H 242.614 2.26244 7.45945 0
M  V30 2643 N 246.843 -1.10192 1.12674 0
M  V30 2644 C 247.773 -2.18652 0.819362 0
M  V30 2645 C 248.754 -1.68698 -0.217915 0
M  V30 2646 O 249.939 -1.94041 -0.0785581 0
M  V30 2647 C 247.069 -3.46202 0.27594 0
M  V30 2648 C 246.023 -4.09444 1.24656 0
M  V30 2649 C 245.349 -5.31725 0.563258 0
M  V30 2650 C 246.649 -4.52863 2.60217 0
M  V30 2651 H 248.343 -2.44622 1.72628 0
M  V30 2652 H 245.889 -1.17571 0.831451 0
M  V30 2653 H 247.842 -4.21372 0.0486149 0
M  V30 2654 H 246.566 -3.1973 -0.666331 0
M  V30 2655 H 245.225 -3.36284 1.45974 0
M  V30 2656 H 244.873 -5.0153 -0.384235 0
M  V30 2657 H 244.573 -5.74991 1.21075 0
M  V30 2658 H 246.097 -6.09624 0.34503 0
M  V30 2659 H 247.511 -5.19294 2.42913 0
M  V30 2660 H 245.908 -5.06986 3.21068 0
M  V30 2661 H 246.978 -3.65656 3.18471 0
M  V30 2662 N 248.321 -0.919034 -1.28029 0
M  V30 2663 C 249.568 -0.554934 -1.94748 0
M  V30 2664 C 249.896 0.90231 -1.72304 0
M  V30 2665 O 249.151 1.65767 -1.04018 0
M  V30 2666 C 249.45 -0.816855 -3.4794 0
M  V30 2667 C 249.116 -2.25448 -3.90492 0
M  V30 2668 C 247.778 -2.64752 -4.01821 0
M  V30 2669 C 250.13 -3.18977 -4.12193 0
M  V30 2670 C 247.458 -3.96727 -4.32232 0
M  V30 2671 C 249.81 -4.50523 -4.44086 0
M  V30 2672 C 248.474 -4.89673 -4.53626 0
M  V30 2673 H 247.744 -0.203065 -0.712633 0
M  V30 2674 H 250.391 -1.16136 -1.52265 0
M  V30 2675 H 248.696 -0.127677 -3.91592 0
M  V30 2676 H 250.393 -0.514238 -3.97689 0
M  V30 2677 H 246.983 -1.93952 -3.82205 0
M  V30 2678 H 251.167 -2.89817 -4.02889 0
M  V30 2679 H 246.423 -4.26754 -4.37825 0
M  V30 2680 H 250.597 -5.23005 -4.59825 0
M  V30 2681 H 248.224 -5.91969 -4.76946 0
M  V30 2682 N 249.799 1.42003 -0.683588 0
M  V30 2683 C 251.027 2.05746 -0.218182 0
M  V30 2684 C 251.442 1.51396 1.12804 0
M  V30 2685 O 250.799 0.657303 1.70252 0
M  V30 2686 C 250.85 3.61171 -0.154131 0
M  V30 2687 O 250.571 4.13508 -1.44716 0
M  V30 2688 C 252.072 4.42042 0.333713 0
M  V30 2689 H 249.292 0.662888 -0.10402 0
M  V30 2690 H 251.836 1.81987 -0.9328 0
M  V30 2691 H 249.991 3.84012 0.511231 0
M  V30 2692 H 250.405 5.07453 -1.32632 0
M  V30 2693 H 251.879 5.51028 0.327423 0
M  V30 2694 H 252.356 4.17269 1.37053 0
M  V30 2695 H 252.962 4.24239 -0.300222 0
M  V30 2696 N 251.277 0.427512 1.51691 0
M  V30 2697 C 252.207 -0.3796 2.30394 0
M  V30 2698 C 253.188 -1.02982 1.35384 0
M  V30 2699 O 254.373 -1.03534 1.643 0
M  V30 2700 C 251.503 -1.48649 3.1388 0
M  V30 2701 C 250.457 -0.960294 4.17088 0
M  V30 2702 C 249.783 -2.16219 4.89033 0
M  V30 2703 C 251.083 -0.00153679 5.223 0
M  V30 2704 H 252.777 0.277164 2.98114 0
M  V30 2705 H 250.323 0.134739 1.43368 0
M  V30 2706 H 252.276 -2.05826 3.67714 0
M  V30 2707 H 251 -2.1714 2.43962 0
M  V30 2708 H 249.659 -0.410806 3.64291 0
M  V30 2709 H 249.307 -2.83307 4.15628 0
M  V30 2710 H 249.007 -1.81654 5.58816 0
M  V30 2711 H 250.531 -2.73968 5.45687 0
M  V30 2712 H 251.945 -0.482687 5.71264 0
M  V30 2713 H 250.342 0.256199 5.99553 0
M  V30 2714 H 251.412 0.938174 4.75738 0
M  V30 2715 N 252.755 -1.56801 0.158532 0
M  V30 2716 C 254.004 -1.95665 -0.489702 0
M  V30 2717 C 254.317 -1.04654 -1.65248 0
M  V30 2718 O 255.523 -1.33146 -2.3661 0
M  V30 2719 C 253.979 -3.47874 -0.922582 0
M  V30 2720 C 253.587 -4.47489 0.213893 0
M  V30 2721 C 255.331 -3.95583 -1.53996 0
M  V30 2722 C 253.238 -5.90921 -0.237903 0
M  V30 2723 H 252.168 -0.730516 -0.186716 0
M  V30 2724 H 254.819 -1.81861 0.244722 0
M  V30 2725 H 253.201 -3.57051 -1.71261 0
M  V30 2726 H 254.375 -4.50017 0.991036 0
M  V30 2727 H 252.69 -4.09764 0.740407 0
M  V30 2728 H 255.287 -5.0019 -1.8898 0
M  V30 2729 H 255.63 -3.37789 -2.43319 0
M  V30 2730 H 256.163 -3.8937 -0.814611 0
M  V30 2731 H 252.902 -6.52559 0.620236 0
M  V30 2732 H 252.422 -5.91729 -0.980676 0
M  V30 2733 H 254.101 -6.43352 -0.686067 0
M  V30 2734 N 254.233 0.115231 -1.57178 0
M  V30 2735 C 255.143 1.15994 -2.03918 0
M  V30 2736 C 256.159 1.45103 -0.960268 0
M  V30 2737 O 257.335 1.56144 -1.27204 0
M  V30 2738 C 254.4 2.46568 -2.43732 0
M  V30 2739 C 253.461 2.24822 -3.65723 0
M  V30 2740 C 252.694 3.4917 -4.03629 0
M  V30 2741 O 252.917 4.56623 -3.41835 0
M  V30 2742 O 251.851 3.39949 -4.96708 0
M  V30 2743 H 255.677 0.793019 -2.93164 0
M  V30 2744 H 253.262 0.3263 -1.45793 0
M  V30 2745 H 255.144 3.23492 -2.70057 0
M  V30 2746 H 253.819 2.82726 -1.57631 0
M  V30 2747 H 252.726 1.45744 -3.44542 0
M  V30 2748 H 254.059 1.93566 -4.52541 0
M  V30 2749 N 255.711 1.52812 0.385517 0
M  V30 2750 C 256.957 1.68275 1.13188 0
M  V30 2751 C 257.29 0.423179 1.89533 0
M  V30 2752 O 256.565 -0.579113 1.85679 0
M  V30 2753 C 256.848 2.92001 2.1073 0
M  V30 2754 C 256.701 4.28067 1.38125 0
M  V30 2755 C 258.02 3.11283 3.11113 0
M  V30 2756 H 255.139 0.612352 0.410115 0
M  V30 2757 H 257.781 1.85415 0.414869 0
M  V30 2758 H 255.931 2.77519 2.71874 0
M  V30 2759 H 257.603 4.54324 0.799187 0
M  V30 2760 H 255.846 4.28388 0.683092 0
M  V30 2761 H 256.517 5.10733 2.09417 0
M  V30 2762 H 258.993 3.2482 2.6006 0
M  V30 2763 H 257.869 3.99325 3.76605 0
M  V30 2764 H 258.13 2.25656 3.80173 0
M  V30 2765 N 257.189 -0.644168 1.43834 0
M  V30 2766 C 258.099 -1.78563 1.52159 0
M  V30 2767 C 259.115 -1.69147 0.408069 0
M  V30 2768 O 260.291 -1.90156 0.663524 0
M  V30 2769 C 257.356 -3.14888 1.45073 0
M  V30 2770 C 256.417 -3.36034 2.6717 0
M  V30 2771 C 255.65 -4.65855 2.60413 0
M  V30 2772 O 255.873 -5.45805 1.65689 0
M  V30 2773 O 254.807 -4.88918 3.5106 0
M  V30 2774 H 258.633 -1.74494 2.48567 0
M  V30 2775 H 256.218 -0.80378 1.25935 0
M  V30 2776 H 258.1 -3.96179 1.43597 0
M  V30 2777 H 256.775 -3.19528 0.518037 0
M  V30 2778 H 255.682 -2.54472 2.74217 0
M  V30 2779 H 257.015 -3.36247 3.59442 0
M  V30 2780 N 258.668 -1.30515 -0.883378 0
M  V30 2781 C 259.908 -1.20716 -1.64946 0
M  V30 2782 C 260.272 0.234072 -1.90568 0
M  V30 2783 O 261.473 0.455335 -2.64915 0
M  V30 2784 C 259.744 -2.01444 -2.9522 0
M  V30 2785 S 261.303 -2.0836 -3.86175 0
M  V30 2786 H 258.121 -0.430165 -0.566109 0
M  V30 2787 H 260.723 -1.65011 -1.04841 0
M  V30 2788 H 259.427 -3.05268 -2.74298 0
M  V30 2789 H 258.958 -1.57817 -3.60357 0
M  V30 2790 H 260.973 -1.21215 -4.81167 0
M  V30 2791 N 260.146 1.09593 -1.13257 0
M  V30 2792 C 261.076 2.18214 -0.830946 0
M  V30 2793 C 262.057 1.68812 0.208966 0
M  V30 2794 O 263.242 1.9408 0.0682666 0
M  V30 2795 C 260.372 3.46051 -0.294296 0
M  V30 2796 C 259.326 4.08778 -1.26826 0
M  V30 2797 C 258.652 5.31419 -0.591449 0
M  V30 2798 C 259.952 4.51476 -2.62615 0
M  V30 2799 H 261.646 2.43703 -1.73923 0
M  V30 2800 H 259.192 1.17128 -0.837675 0
M  V30 2801 H 261.145 4.2134 -0.0709606 0
M  V30 2802 H 259.869 3.20079 0.649366 0
M  V30 2803 H 258.528 3.35505 -1.47756 0
M  V30 2804 H 258.176 5.01727 0.357633 0
M  V30 2805 H 257.876 5.74341 -1.24123 0
M  V30 2806 H 259.4 6.09433 -0.377355 0
M  V30 2807 H 260.814 5.17999 -2.45663 0
M  V30 2808 H 259.211 5.05277 -3.23752 0
M  V30 2809 H 260.281 3.63962 -3.20406 0
M  V30 2810 N 261.624 0.925811 1.2754 0
M  V30 2811 C 262.872 0.564138 1.94067 0
M  V30 2812 C 263.193 -0.897188 1.73134 0
M  V30 2813 O 262.463 -1.63573 1.07799 0
M  V30 2814 H 261.043 0.205645 0.718136 0
M  V30 2815 H 263.705 1.1778 1.55287 0
M  V30 2816 H 262.801 0.76881 3.02483 0
M  V30 2817 N 263.102 -1.41638 0.69111 0
M  V30 2818 C 264.065 -2.29178 0.0319786 0
M  V30 2819 C 265.065 -1.44153 -0.712496 0
M  V30 2820 O 266.255 -1.65354 -0.548053 0
M  V30 2821 C 263.387 -3.26952 -0.965161 0
M  V30 2822 H 264.58 -2.88959 0.802681 0
M  V30 2823 H 262.133 -1.4955 0.454356 0
M  V30 2824 H 262.868 -2.72142 -1.76378 0
M  V30 2825 H 262.653 -3.89685 -0.434522 0
M  V30 2826 H 264.143 -3.92561 -1.42428 0
M  V30 2827 N 264.58 -0.43555 -1.51462 0
M  V30 2828 C 265.82 0.130708 -2.03982 0
M  V30 2829 C 266.184 1.40117 -1.31268 0
M  V30 2830 O 267.385 2.04755 -1.74152 0
M  V30 2831 C 265.656 0.346102 -3.5572 0
M  V30 2832 S 267.215 0.876022 -4.29967 0
M  V30 2833 H 264.033 0.0326881 -0.710248 0
M  V30 2834 H 266.635 -0.594544 -1.8624 0
M  V30 2835 H 265.339 -0.584911 -4.0621 0
M  V30 2836 H 264.87 1.09849 -3.77752 0
M  V30 2837 H 266.885 2.15379 -4.47019 0
M  V30 2838 N 266.058 1.56714 -0.166846 0
M  V30 2839 C 267.304 1.97039 0.479962 0
M  V30 2840 C 267.637 1.05264 1.63197 0
M  V30 2841 O 266.912 0.0988833 1.94248 0
M  V30 2842 C 267.195 3.46867 0.967212 0
M  V30 2843 C 267.048 4.49421 -0.18466 0
M  V30 2844 C 268.367 3.9968 1.84238 0
M  V30 2845 H 265.486 0.71641 0.172992 0
M  V30 2846 H 268.128 1.8832 -0.252079 0
M  V30 2847 H 266.278 3.54428 1.59101 0
M  V30 2848 H 267.95 4.53924 -0.821621 0
M  V30 2849 H 266.193 4.25573 -0.840837 0
M  V30 2850 H 266.864 5.51644 0.198317 0
M  V30 2851 H 269.34 3.94723 1.31655 0
M  V30 2852 H 268.216 5.04941 2.15234 0
M  V30 2853 H 268.477 3.43226 2.78654 0
M  V30 2854 N 267.536 -0.106894 1.57237 0
M  V30 2855 C 268.484 -1.14944 2.02215 0
M  V30 2856 C 269.478 -1.42167 0.92114 0
M  V30 2857 O 270.684 -1.41987 1.10634 0
M  V30 2858 H 267.059 -0.387841 0.64427 0
M  V30 2859 H 269.03 -0.743683 2.88984 0
M  V30 2860 C 267.779 -2.4647 2.4525 0
M  V30 2861 H 267.102 -2.26363 3.29545 0
M  V30 2862 H 268.542 -3.17948 2.80508 0
M  V30 2863 C 267.001 -3.09921 1.321 0
M  V30 2864 O 267.531 -3.9651 0.643622 0
M  V30 2865 N 265.737 -2.69986 1.07497 0
M  V30 2866 H 265.284 -1.99667 1.62761 0
M  V30 2867 H 265.242 -3.12769 0.319876 0
M  V30 2868 N 269.014 -1.53014 -0.377408 0
M  V30 2869 C 269.977 -1.77957 -1.44444 0
M  V30 2870 C 270.977 -0.649763 -1.47087 0
M  V30 2871 O 272.167 -0.917897 -1.48055 0
M  V30 2872 C 269.299 -1.89089 -2.83651 0
M  V30 2873 H 270.492 -2.73243 -1.23606 0
M  V30 2874 H 268.045 -1.43912 -0.609844 0
M  V30 2875 H 268.78 -0.958293 -3.09818 0
M  V30 2876 H 268.565 -2.71254 -2.83132 0
M  V30 2877 H 270.055 -2.1002 -3.60945 0
M  V30 2878 N 270.492 0.636531 -1.44174 0
M  V30 2879 C 271.903 1.21806 -1.41493 0
M  V30 2880 C 272.254 1.95785 -0.1275 0
M  V30 2881 O 271.379 2.02147 0.772376 0
M  V30 2882 C 271.974 2.21551 -2.56321 0
M  V30 2883 C 270.533 2.75143 -2.56853 0
M  V30 2884 C 269.68 1.50052 -2.33195 0
M  V30 2885 H 272.631 0.427531 -1.52833 0
M  V30 2886 H 272.652 3.0405 -2.28765 0
M  V30 2887 H 272.164 1.67679 -3.50008 0
M  V30 2888 H 270.265 3.33033 -1.67093 0
M  V30 2889 H 270.378 3.2155 -3.55165 0
M  V30 2890 H 268.742 1.77993 -1.82183 0
M  V30 2891 H 269.525 0.980903 -3.28988 0
M  V30 2892 N 271.97 1.30982 0.876444 0
M  V30 2893 C 272.903 1.12414 1.98591 0
M  V30 2894 C 273.881 0.0294078 1.62573 0
M  V30 2895 O 275.065 0.184598 1.87594 0
M  V30 2896 C 272.192 0.716276 3.3104 0
M  V30 2897 C 271.238 1.81311 3.86042 0
M  V30 2898 S 272.071 3.41727 4.1229 0
M  V30 2899 C 273.227 3.02863 5.47745 0
M  V30 2900 H 273.46 2.06338 2.14037 0
M  V30 2901 H 270.993 1.15393 1.02586 0
M  V30 2902 H 272.951 0.487697 4.07593 0
M  V30 2903 H 271.612 -0.203749 3.13438 0
M  V30 2904 H 270.805 1.48021 4.81774 0
M  V30 2905 H 270.407 1.99641 3.16259 0
M  V30 2906 H 272.699 2.51353 6.29148 0
M  V30 2907 H 273.642 3.97533 5.8598 0
M  V30 2908 H 274.05 2.40487 5.10711 0
M  V30 2909 N 273.449 -1.08991 1.13837 0
M  V30 2910 C 274.695 -1.81526 0.90422 0
M  V30 2911 C 275.028 -1.85706 -0.568066 0
M  V30 2912 O 274.303 -1.32855 -1.42056 0
M  V30 2913 C 274.586 -3.27447 1.49835 0
M  V30 2914 C 274.439 -3.31512 3.04006 0
M  V30 2915 C 275.758 -4.24256 1.17025 0
M  V30 2916 H 272.877 -0.659029 0.329923 0
M  V30 2917 H 275.519 -1.27644 1.40737 0
M  V30 2918 H 273.669 -3.73462 1.07044 0
M  V30 2919 H 275.341 -2.93867 3.55584 0
M  V30 2920 H 273.584 -2.70963 3.38765 0
M  V30 2921 H 274.255 -4.34329 3.40679 0
M  V30 2922 H 276.731 -3.86549 1.54009 0
M  V30 2923 H 275.607 -5.24684 1.61237 0
M  V30 2924 H 275.868 -4.42019 0.0846274 0
M  V30 2925 N 274.927 -0.932562 -1.27047 0
M  V30 2926 C 275.859 -0.392734 -2.2581 0
M  V30 2927 C 276.872 0.479241 -1.55586 0
M  V30 2928 O 278.061 0.291078 -1.76111 0
M  V30 2929 C 275.161 0.455456 -3.35826 0
M  V30 2930 C 274.334 -0.398355 -4.35582 0
M  V30 2931 C 273.393 0.387985 -5.24768 0
M  V30 2932 O 272.419 -0.206003 -5.68827 0
M  V30 2933 N 273.621 1.68664 -5.55457 0
M  V30 2934 H 276.386 -1.24173 -2.72766 0
M  V30 2935 H 273.947 -0.800511 -1.40725 0
M  V30 2936 H 275.939 0.988692 -3.92437 0
M  V30 2937 H 274.509 1.20522 -2.88432 0
M  V30 2938 H 273.729 -1.11286 -3.78165 0
M  V30 2939 H 275.017 -0.981889 -4.99236 0
M  V30 2940 H 274.415 2.19147 -5.21528 0
M  V30 2941 H 272.972 2.1663 -6.14748 0
M  V30 2942 N 276.405 1.4127 -0.698611 0
M  V30 2943 C 277.654 2.00408 -0.227949 0
M  V30 2944 C 277.967 1.55981 1.18023 0
M  V30 2945 O 279.173 2.07699 1.74852 0
M  V30 2946 C 277.629 3.58129 -0.356636 0
M  V30 2947 C 277.237 4.11536 -1.77037 0
M  V30 2948 C 278.981 4.24466 0.0540969 0
M  V30 2949 C 276.888 5.61701 -1.85055 0
M  V30 2950 H 275.818 0.749586 -0.0814657 0
M  V30 2951 H 278.469 1.61713 -0.867249 0
M  V30 2952 H 276.851 3.94442 0.350965 0
M  V30 2953 H 278.025 3.86636 -2.50698 0
M  V30 2954 H 276.34 3.57736 -2.13105 0
M  V30 2955 H 278.937 5.34698 0.0146723 0
M  V30 2956 H 279.28 4.01687 1.09332 0
M  V30 2957 H 279.813 3.93198 -0.603337 0
M  V30 2958 H 276.552 5.89312 -2.8704 0
M  V30 2959 H 276.072 5.88519 -1.15783 0
M  V30 2960 H 277.751 6.26524 -1.61484 0
M  V30 2961 N 277.883 0.443576 1.51229 0
M  V30 2962 C 278.831 -0.37904 2.29491 0
M  V30 2963 C 279.825 -1.0153 1.35603 0
M  V30 2964 O 281.031 -0.94955 1.52917 0
M  V30 2965 H 277.406 -0.141053 0.738653 0
M  V30 2966 H 279.377 0.301799 2.9687 0
M  V30 2967 C 278.126 -1.46426 3.15364 0
M  V30 2968 H 277.449 -0.984037 3.87501 0
M  V30 2969 H 278.889 -2.01297 3.7317 0
M  V30 2970 C 277.348 -2.45099 2.31146 0
M  V30 2971 O 277.878 -3.49773 1.9754 0
M  V30 2972 N 276.084 -2.16139 1.94249 0
M  V30 2973 H 275.631 -1.31044 2.21777 0
M  V30 2974 H 275.589 -2.82398 1.38198 0
M  V30 2975 N 279.361 -1.56624 0.175154 0
M  V30 2976 C 280.638 -1.88688 -0.515373 0
M  V30 2977 C 281.018 -1.08564 -1.81044 0
M  V30 2978 O 280.366 -0.180703 -2.27784 0
M  V30 2979 C 280.576 -3.40768 -0.753552 0
M  V30 2980 C 281.924 -4.10587 -1.08184 0
M  V30 2981 O 282.948 -3.46106 -0.841961 0
M  V30 2982 O 281.807 -5.24512 -1.53459 0
M  V30 2983 H 278.901 -0.78301 -0.26613 0
M  V30 2984 H 281.447 -1.68347 0.213877 0
M  V30 2985 H 280.219 -3.90965 0.161829 0
M  V30 2986 H 279.842 -3.66733 -1.53598 0
M  V30 2987 N 280.839 0.0985539 -1.57292 0
M  V30 2988 C 281.787 1.1387 -2.02821 0
M  V30 2989 C 282.781 1.41676 -0.928666 0
M  V30 2990 O 283.987 1.41398 -1.11385 0
M  V30 2991 H 280.362 0.384419 -0.646317 0
M  V30 2992 H 282.333 0.728347 -2.89375 0
M  V30 2993 C 281.082 2.45166 -2.46554 0
M  V30 2994 H 280.405 2.24613 -3.3074 0
M  V30 2995 H 281.845 3.16456 -2.8219 0
M  V30 2996 C 280.304 3.09216 -1.33742 0
M  V30 2997 O 280.834 3.96163 -0.66464 0
M  V30 2998 N 279.04 2.69413 -1.08928 0
M  V30 2999 H 278.587 1.98801 -1.63817 0
M  V30 3000 H 278.545 3.12594 -0.336458 0
M  V30 3001 N 282.317 1.53212 0.369288 0
M  V30 3002 C 283.547 1.72868 1.13139 0
M  V30 3003 C 283.955 0.455754 1.83629 0
M  V30 3004 O 283.298 -0.580861 1.74275 0
M  V30 3005 C 283.36 2.83667 2.20847 0
M  V30 3006 C 283.024 4.24142 1.70155 0
M  V30 3007 C 284.021 5.06619 1.16763 0
M  V30 3008 C 281.706 4.70539 1.7578 0
M  V30 3009 C 283.7 6.33581 0.696678 0
M  V30 3010 C 281.387 5.97481 1.28297 0
M  V30 3011 C 282.385 6.78833 0.753307 0
M  V30 3012 O 282.073 8.03393 0.285475 0
M  V30 3013 H 281.805 0.581707 0.344373 0
M  V30 3014 H 284.359 2.00736 0.435243 0
M  V30 3015 H 282.589 2.51265 2.93944 0
M  V30 3016 H 284.278 2.91536 2.82421 0
M  V30 3017 H 285.044 4.71948 1.11758 0
M  V30 3018 H 280.923 4.07293 2.15949 0
M  V30 3019 H 284.467 6.97027 0.282581 0
M  V30 3020 H 280.364 6.31651 1.32994 0
M  V30 3021 H 281.132 8.17497 0.405145 0
M  V30 3022 N 283.795 -0.628877 1.44509 0
M  V30 3023 C 285.025 -1.41349 1.50678 0
M  V30 3024 C 285.433 -1.88745 0.131075 0
M  V30 3025 O 284.776 -1.61592 -0.87371 0
M  V30 3026 C 284.838 -2.66608 2.41165 0
M  V30 3027 C 284.502 -2.40993 3.88293 0
M  V30 3028 C 285.499 -2.0268 4.78766 0
M  V30 3029 C 283.184 -2.54563 4.33016 0
M  V30 3030 C 285.178 -1.78269 6.11963 0
M  V30 3031 C 282.865 -2.29766 5.6626 0
M  V30 3032 C 283.863 -1.91678 6.55552 0
M  V30 3033 O 283.551 -1.67158 7.86329 0
M  V30 3034 H 283.283 -0.439851 0.51333 0
M  V30 3035 H 285.837 -0.776084 1.90174 0
M  V30 3036 H 284.067 -3.32994 1.96601 0
M  V30 3037 H 285.756 -3.28615 2.38259 0
M  V30 3038 H 286.522 -1.91751 4.45485 0
M  V30 3039 H 282.401 -2.83179 3.63773 0
M  V30 3040 H 285.945 -1.48465 6.81619 0
M  V30 3041 H 281.842 -2.40306 5.99102 0
M  V30 3042 H 282.61 -1.81386 7.98149 0
M  V30 3043 N 285.273 -1.31445 -0.869486 0
M  V30 3044 C 286.183 -1.21097 -2.0093 0
M  V30 3045 C 287.199 -0.127584 -1.73532 0
M  V30 3046 O 288.375 -0.345477 -1.98415 0
M  V30 3047 C 285.44 -0.919378 -3.34288 0
M  V30 3048 C 284.501 -2.08971 -3.75006 0
M  V30 3049 C 283.734 -1.81194 -5.02001 0
M  V30 3050 O 283.957 -0.747296 -5.65484 0
M  V30 3051 O 282.891 -2.66883 -5.39497 0
M  V30 3052 H 286.717 -2.16883 -2.12592 0
M  V30 3053 H 284.302 -1.11189 -0.997868 0
M  V30 3054 H 286.184 -0.772625 -4.14257 0
M  V30 3055 H 284.859 0.00844772 -3.23699 0
M  V30 3056 H 283.766 -2.29187 -2.95676 0
M  V30 3057 H 285.099 -2.9998 -3.90221 0
M  V30 3058 N 286.751 1.08385 -1.14413 0
M  V30 3059 C 288.028 1.77429 -0.823297 0
M  V30 3060 C 288.408 1.9974 0.683163 0
M  V30 3061 O 287.756 1.60739 1.62405 0
M  V30 3062 C 287.966 3.09004 -1.62227 0
M  V30 3063 C 289.314 3.83532 -1.82177 0
M  V30 3064 O 290.338 3.18786 -1.58915 0
M  V30 3065 O 289.197 4.99792 -2.21067 0
M  V30 3066 H 286.291 0.769999 -0.301712 0
M  V30 3067 H 288.837 1.14846 -1.24934 0
M  V30 3068 H 287.609 2.88316 -2.64555 0
M  V30 3069 H 287.232 3.79316 -1.19187 0
M  V30 3070 N 288.23 0.939286 1.26551 0
M  V30 3071 C 289.16 0.465044 2.28822 0
M  V30 3072 C 290.141 -0.480692 1.63167 0
M  V30 3073 O 291.326 -0.382955 1.90387 0
M  V30 3074 C 288.456 -0.27234 3.46231 0
M  V30 3075 C 287.41 0.58666 4.2396 0
M  V30 3076 C 286.736 -0.280573 5.33963 0
M  V30 3077 C 288.036 1.85704 4.88171 0
M  V30 3078 H 289.73 1.31979 2.68741 0
M  V30 3079 H 287.276 0.636061 1.29191 0
M  V30 3080 H 289.229 -0.615133 4.16886 0
M  V30 3081 H 287.953 -1.16121 3.0526 0
M  V30 3082 H 286.612 0.91232 3.55067 0
M  V30 3083 H 286.26 -1.16874 4.89234 0
M  V30 3084 H 285.96 0.29076 5.8688 0
M  V30 3085 H 287.484 -0.618678 6.07458 0
M  V30 3086 H 288.898 1.58161 5.51052 0
M  V30 3087 H 287.295 2.37279 5.51197 0
M  V30 3088 H 288.365 2.56957 4.11219 0
M  V30 3089 N 289.708 -1.40897 0.706093 0
M  V30 3090 C 290.936 -2.05373 0.250887 0
M  V30 3091 C 291.351 -1.53172 -1.10381 0
M  V30 3092 O 290.708 -0.684305 -1.69185 0
M  V30 3093 C 290.759 -3.6088 0.211571 0
M  V30 3094 O 290.48 -4.11153 1.51276 0
M  V30 3095 C 291.981 -4.42517 -0.263346 0
M  V30 3096 H 289.201 -0.66115 0.114552 0
M  V30 3097 H 291.745 -1.80479 0.961635 0
M  V30 3098 H 289.9 -3.84777 -0.450073 0
M  V30 3099 H 290.314 -5.05279 1.40689 0
M  V30 3100 H 291.788 -5.51479 -0.239718 0
M  V30 3101 H 292.265 -4.19396 -1.30397 0
M  V30 3102 H 292.871 -4.23708 0.367677 0
M  V30 3103 N 291.186 -0.45159 -1.50991 0
M  V30 3104 C 292.149 0.341117 -2.26647 0
M  V30 3105 C 293.149 0.937422 -1.30649 0
M  V30 3106 O 294.339 0.809644 -1.54241 0
M  V30 3107 C 291.471 1.48398 -3.06905 0
M  V30 3108 H 292.664 -0.322117 -2.98165 0
M  V30 3109 H 290.217 -0.205122 -1.54948 0
M  V30 3110 H 290.952 2.18284 -2.39838 0
M  V30 3111 H 290.737 1.06241 -3.77432 0
M  V30 3112 H 292.227 2.04367 -3.64176 0
M  V30 3113 N 292.664 1.56529 -0.183458 0
M  V30 3114 C 293.611 2.18546 0.742055 0
M  V30 3115 C 294.581 1.12912 1.2182 0
M  V30 3116 O 295.766 1.41115 1.28418 0
M  V30 3117 C 292.906 2.83977 1.96089 0
M  V30 3118 C 292.019 4.04105 1.52719 0
M  V30 3119 C 291.154 4.57427 2.70063 0
M  V30 3120 C 290.193 5.69938 2.23243 0
M  V30 3121 N 289.33 6.17717 3.33722 0
M  V30 3122 H 294.17 2.97284 0.206432 0
M  V30 3123 H 291.707 1.46823 0.0901571 0
M  V30 3124 H 293.665 3.20077 2.67594 0
M  V30 3125 H 292.295 2.07822 2.47002 0
M  V30 3126 H 291.347 3.73745 0.708436 0
M  V30 3127 H 292.659 4.85513 1.1436 0
M  V30 3128 H 291.813 4.95772 3.49708 0
M  V30 3129 H 290.552 3.75101 3.11689 0
M  V30 3130 H 289.557 5.31133 1.42048 0
M  V30 3131 H 290.782 6.54073 1.82661 0
M  V30 3132 H 288.728 5.38317 3.74902 0
M  V30 3133 H 288.645 6.94146 2.99495 0
M  V30 3134 H 289.913 6.60713 4.13616 0
M  V30 3135 N 294.142 -0.090211 1.57342 0
M  V30 3136 C 295.419 -0.824761 1.77361 0
M  V30 3137 C 295.799 -1.96698 0.76637 0
M  V30 3138 O 295.147 -2.27586 -0.204179 0
M  V30 3139 C 295.357 -1.31481 3.23286 0
M  V30 3140 C 296.705 -1.75563 3.86604 0
M  V30 3141 O 297.729 -1.41093 3.27065 0
M  V30 3142 O 296.588 -2.39317 4.91314 0
M  V30 3143 H 293.682 -0.393776 0.727234 0
M  V30 3144 H 296.228 -0.0717138 1.69548 0
M  V30 3145 H 295 -0.496671 3.88135 0
M  V30 3146 H 294.623 -2.12973 3.35751 0
M  V30 3147 N 295.62 -1.53406 -0.361157 0
M  V30 3148 C 296.869 -1.69022 -1.10066 0
M  V30 3149 C 297.182 -0.450838 -1.90333 0
M  V30 3150 O 298.388 -0.487617 -2.67085 0
M  V30 3151 C 296.844 -2.98812 -2.00598 0
M  V30 3152 C 296.452 -4.30027 -1.25621 0
M  V30 3153 C 298.196 -3.23795 -2.74513 0
M  V30 3154 C 296.103 -5.50903 -2.1508 0
M  V30 3155 H 295.033 -0.629776 -0.414606 0
M  V30 3156 H 297.684 -1.79907 -0.361348 0
M  V30 3157 H 296.066 -2.8174 -2.78278 0
M  V30 3158 H 297.24 -4.57745 -0.529739 0
M  V30 3159 H 295.555 -4.11522 -0.635496 0
M  V30 3160 H 298.152 -4.11289 -3.41681 0
M  V30 3161 H 298.495 -2.40045 -3.40123 0
M  V30 3162 H 299.028 -3.41561 -2.03914 0
M  V30 3163 H 295.767 -6.37143 -1.54041 0
M  V30 3164 H 295.287 -5.27459 -2.85565 0
M  V30 3165 H 296.966 -5.85865 -2.74538 0
M  V30 3166 N 297.098 0.621204 -1.44841 0
M  V30 3167 C 298.008 1.7612 -1.5498 0
M  V30 3168 C 299.024 1.68477 -0.434927 0
M  V30 3169 O 300.2 1.89076 -0.693693 0
M  V30 3170 C 297.265 3.1254 -1.50065 0
M  V30 3171 C 296.326 3.31741 -2.72482 0
M  V30 3172 C 295.559 4.61653 -2.67792 0
M  V30 3173 O 295.782 5.431 -1.74352 0
M  V30 3174 O 294.716 4.83271 -3.58794 0
M  V30 3175 H 298.542 1.70518 -2.51311 0
M  V30 3176 H 296.127 0.783643 -1.27198 0
M  V30 3177 H 298.009 3.93844 -1.49882 0
M  V30 3178 H 296.684 3.18663 -0.568806 0
M  V30 3179 H 295.591 2.50077 -2.7823 0
M  V30 3180 H 296.924 3.30486 -3.64746 0
M  V30 3181 N 298.576 1.31904 0.862503 0
M  V30 3182 C 299.486 1.22161 2.00285 0
M  V30 3183 C 300.502 0.136785 1.73462 0
M  V30 3184 O 301.678 0.355994 1.98229 0
M  V30 3185 C 298.743 0.937093 3.33796 0
M  V30 3186 C 297.804 2.10957 3.73893 0
M  V30 3187 C 297.037 1.83853 5.01033 0
M  V30 3188 O 297.26 0.777274 5.65079 0
M  V30 3189 O 296.194 2.69741 5.38074 0
M  V30 3190 H 300.02 2.18008 2.11439 0
M  V30 3191 H 297.605 1.11716 0.991957 0
M  V30 3192 H 299.487 0.794583 4.13841 0
M  V30 3193 H 298.162 0.00871894 3.23699 0
M  V30 3194 H 297.069 2.30752 2.94456 0
M  V30 3195 H 298.402 3.02046 3.88625 0
M  V30 3196 N 300.054 -1.07777 1.14986 0
M  V30 3197 C 301.303 -1.79669 0.916617 0
M  V30 3198 C 301.616 -1.87474 -0.557917 0
M  V30 3199 O 302.822 -2.55845 -0.908617 0
M  V30 3200 C 301.278 -3.22848 1.59051 0
M  V30 3201 C 300.886 -3.23257 3.10176 0
M  V30 3202 C 302.63 -3.99379 1.43864 0
M  V30 3203 C 300.537 -4.61063 3.70372 0
M  V30 3204 H 299.467 -0.673349 0.33929 0
M  V30 3205 H 302.118 -1.21003 1.37951 0
M  V30 3206 H 300.5 -3.8168 1.0553 0
M  V30 3207 H 301.674 -2.74095 3.70417 0
M  V30 3208 H 299.989 -2.60222 3.25074 0
M  V30 3209 H 302.586 -5.0122 1.86232 0
M  V30 3210 H 302.929 -4.14511 0.385564 0
M  V30 3211 H 303.462 -3.47032 1.94457 0
M  V30 3212 H 300.201 -4.51135 4.7556 0
M  V30 3213 H 299.721 -5.1048 3.14913 0
M  V30 3214 H 301.4 -5.30034 3.71043 0
M  V30 3215 N 301.532 -0.945985 -1.26051 0
M  V30 3216 C 302.781 -0.591836 -1.92822 0
M  V30 3217 C 303.094 0.873956 -1.7499 0
M  V30 3218 O 304.3 1.33769 -2.36259 0
M  V30 3219 C 302.756 -1.00776 -3.45503 0
M  V30 3220 C 302.364 -2.4955 -3.7206 0
M  V30 3221 C 304.108 -0.725735 -4.1825 0
M  V30 3222 C 302.015 -2.84988 -5.18205 0
M  V30 3223 H 300.945 -0.217635 -0.721908 0
M  V30 3224 H 303.596 -1.14927 -1.43052 0
M  V30 3225 H 301.978 -0.378812 -3.94184 0
M  V30 3226 H 303.152 -3.1739 -3.34066 0
M  V30 3227 H 301.467 -2.75133 -3.12555 0
M  V30 3228 H 304.064 -0.966771 -5.25887 0
M  V30 3229 H 304.407 0.337639 -4.14929 0
M  V30 3230 H 304.94 -1.31463 -3.7545 0
M  V30 3231 H 301.679 -3.90307 -5.26631 0
M  V30 3232 H 301.199 -2.21813 -5.57278 0
M  V30 3233 H 302.878 -2.73712 -5.86252 0
M  V30 3234 N 303.011 1.40521 -0.713556 0
M  V30 3235 C 304.288 1.94775 -0.17943 0
M  V30 3236 C 304.668 1.65184 1.31444 0
M  V30 3237 O 304.016 0.968429 2.06963 0
M  V30 3238 C 304.226 3.45543 -0.489986 0
M  V30 3239 C 305.574 4.22442 -0.427536 0
M  V30 3240 O 306.598 3.53644 -0.425929 0
M  V30 3241 O 305.457 5.4501 -0.403292 0
M  V30 3242 H 302.551 0.826606 -0.0255192 0
M  V30 3243 H 305.097 1.5014 -0.790949 0
M  V30 3244 H 303.869 3.60432 -1.5233 0
M  V30 3245 H 303.492 3.97311 0.151598 0
M  V30 3246 N 304.489 0.459591 1.5075 0
M  V30 3247 C 305.399 -0.34613 2.32033 0
M  V30 3248 C 306.415 -1.00686 1.41909 0
M  V30 3249 O 307.591 -0.997361 1.7497 0
M  V30 3250 C 304.656 -1.42029 3.16273 0
M  V30 3251 C 303.717 -0.777362 4.22203 0
M  V30 3252 C 302.95 -1.80034 5.02418 0
M  V30 3253 O 303.173 -3.02544 4.83553 0
M  V30 3254 O 302.107 -1.37853 5.85901 0
M  V30 3255 H 305.933 0.318054 3.0203 0
M  V30 3256 H 303.518 0.221663 1.47746 0
M  V30 3257 H 305.4 -2.04275 3.68578 0
M  V30 3258 H 304.075 -2.06815 2.49016 0
M  V30 3259 H 302.982 -0.116256 3.73919 0
M  V30 3260 H 304.315 -0.172634 4.91897 0
M  V30 3261 N 305.967 -1.56429 0.191757 0
M  V30 3262 C 306.897 -2.21937 -0.725696 0
M  V30 3263 C 307.878 -1.1814 -1.2238 0
M  V30 3264 O 309.063 -1.46636 -1.27325 0
M  V30 3265 C 306.193 -2.87611 -1.94672 0
M  V30 3266 C 305.147 -3.97623 -1.58366 0
M  V30 3267 C 304.473 -4.50446 -2.88102 0
M  V30 3268 C 305.773 -5.16197 -0.796133 0
M  V30 3269 H 307.467 -2.98861 -0.179606 0
M  V30 3270 H 305.013 -1.43749 -0.0849464 0
M  V30 3271 H 306.966 -3.3212 -2.59373 0
M  V30 3272 H 305.69 -2.08087 -2.51728 0
M  V30 3273 H 304.349 -3.53801 -0.960247 0
M  V30 3274 H 303.997 -3.67688 -3.43241 0
M  V30 3275 H 303.697 -5.24675 -2.64556 0
M  V30 3276 H 305.221 -4.97654 -3.53798 0
M  V30 3277 H 306.635 -5.57271 -1.34618 0
M  V30 3278 H 305.032 -5.96471 -0.658928 0
M  V30 3279 H 306.102 -4.84473 0.203478 0
M  V30 3280 N 307.445 0.0818655 -1.57387 0
M  V30 3281 C 308.392 1.09834 -2.0299 0
M  V30 3282 C 309.362 1.39043 -0.908639 0
M  V30 3283 O 310.547 1.50282 -1.17559 0
M  V30 3284 C 307.687 2.40971 -2.47037 0
M  V30 3285 C 306.8 2.18379 -3.7274 0
M  V30 3286 C 305.935 3.43008 -4.0561 0
M  V30 3287 C 304.974 3.15736 -5.24383 0
M  V30 3288 N 304.111 4.32667 -5.52941 0
M  V30 3289 H 308.951 0.702472 -2.89602 0
M  V30 3290 H 306.488 0.33531 -1.43227 0
M  V30 3291 H 308.446 3.1752 -2.70623 0
M  V30 3292 H 307.076 2.78379 -1.63417 0
M  V30 3293 H 306.128 1.32569 -3.56552 0
M  V30 3294 H 307.44 1.94227 -4.59431 0
M  V30 3295 H 306.594 4.27958 -4.30043 0
M  V30 3296 H 305.333 3.70225 -3.17466 0
M  V30 3297 H 304.338 2.2918 -4.99757 0
M  V30 3298 H 305.563 2.8985 -6.14136 0
M  V30 3299 H 303.509 4.59935 -4.67756 0
M  V30 3300 H 303.426 4.11753 -6.34031 0
M  V30 3301 H 304.694 5.18644 -5.81918 0
M  V30 3302 N 308.923 1.53595 0.353017 0
M  V30 3303 C 309.886 1.80232 1.41594 0
M  V30 3304 C 310.886 0.673081 1.46035 0
M  V30 3305 O 312.076 0.941335 1.46576 0
M  V30 3306 C 309.208 1.93578 2.80607 0
M  V30 3307 H 310.401 2.75174 1.19244 0
M  V30 3308 H 307.954 1.44864 0.586872 0
M  V30 3309 H 308.689 1.00746 3.08254 0
M  V30 3310 H 308.474 2.75724 2.78781 0
M  V30 3311 H 309.964 2.15735 3.57558 0
M  V30 3312 N 310.401 -0.613514 1.45168 0
M  V30 3313 C 311.649 -1.36997 1.48581 0
M  V30 3314 C 311.97 -1.94589 0.126545 0
M  V30 3315 O 311.24 -1.76816 -0.843372 0
M  V30 3316 H 309.82 -0.508558 0.547154 0
M  V30 3317 H 312.482 -0.720853 1.81079 0
M  V30 3318 H 311.578 -2.1924 2.22127 0
M  V30 3319 N 311.879 -1.3236 -0.855495 0
M  V30 3320 C 312.826 -1.21225 -1.964 0
M  V30 3321 C 313.796 -0.0946204 -1.6583 0
M  V30 3322 O 314.981 -0.27002 -1.8888 0
M  V30 3323 C 312.121 -0.940419 -3.32039 0
M  V30 3324 C 311.234 -2.14276 -3.75113 0
M  V30 3325 C 310.369 -1.80648 -4.9954 0
M  V30 3326 C 309.408 -2.97208 -5.35102 0
M  V30 3327 N 308.545 -2.63678 -6.50706 0
M  V30 3328 H 313.385 -2.16042 -2.05255 0
M  V30 3329 H 310.922 -1.07451 -1.00463 0
M  V30 3330 H 312.88 -0.763311 -4.10158 0
M  V30 3331 H 311.51 -0.0290413 -3.22787 0
M  V30 3332 H 310.562 -2.43017 -2.92655 0
M  V30 3333 H 311.874 -3.01468 -3.97389 0
M  V30 3334 H 311.028 -1.59484 -5.85363 0
M  V30 3335 H 309.767 -0.906678 -4.79198 0
M  V30 3336 H 308.772 -3.19004 -4.47791 0
M  V30 3337 H 309.997 -3.87918 -5.57401 0
M  V30 3338 H 307.943 -1.76238 -6.31883 0
M  V30 3339 H 307.86 -3.444 -6.72997 0
M  V30 3340 H 309.128 -2.45942 -7.39684 0
M  V30 3341 N 313.357 1.07166 -1.15556 0
M  V30 3342 C 314.606 1.79181 -0.926132 0
M  V30 3343 C 314.919 1.87768 0.547967 0
M  V30 3344 O 316.125 2.56323 0.895036 0
M  V30 3345 C 314.581 3.22 -1.60761 0
M  V30 3346 C 314.189 3.21607 -3.11886 0
M  V30 3347 C 315.933 3.9861 -1.4598 0
M  V30 3348 C 313.84 4.59092 -3.72812 0
M  V30 3349 H 312.77 0.67154 -0.342856 0
M  V30 3350 H 315.421 1.2027 -1.3859 0
M  V30 3351 H 313.803 3.81115 -1.07553 0
M  V30 3352 H 314.977 2.72127 -3.71865 0
M  V30 3353 H 313.292 2.58495 -3.2645 0
M  V30 3354 H 315.889 5.00225 -1.88888 0
M  V30 3355 H 316.232 4.143 -0.407541 0
M  V30 3356 H 316.765 3.45996 -1.96295 0
M  V30 3357 H 313.504 4.48606 -4.77946 0
M  V30 3358 H 313.024 5.08803 -3.17616 0
M  V30 3359 H 314.703 5.28059 -3.73848 0
M  V30 3360 N 314.835 0.952656 1.25548 0
M  V30 3361 C 316.246 0.647392 1.75116 0
M  V30 3362 C 316.597 -0.837274 1.77438 0
M  V30 3363 O 315.722 -1.65525 1.39393 0
M  V30 3364 C 316.317 1.16845 3.18014 0
M  V30 3365 C 314.876 0.913382 3.6515 0
M  V30 3366 C 314.023 1.31265 2.44264 0
M  V30 3367 H 316.974 1.12968 1.11462 0
M  V30 3368 H 316.995 0.527606 3.76824 0
M  V30 3369 H 316.507 2.24902 3.16292 0
M  V30 3370 H 314.608 -0.152316 3.72289 0
M  V30 3371 H 314.721 1.54845 4.53387 0
M  V30 3372 H 313.085 0.731028 2.43984 0
M  V30 3373 H 313.868 2.40239 2.45234 0
M  V30 3374 N 316.313 -1.40141 0.720998 0
M  V30 3375 C 317.26 -2.30688 0.071919 0
M  V30 3376 C 318.23 -1.48476 -0.744584 0
M  V30 3377 O 319.415 -1.77201 -0.707423 0
M  V30 3378 C 316.555 -3.34724 -0.839855 0
M  V30 3379 C 315.668 -4.31998 -0.0122438 0
M  V30 3380 C 314.803 -5.23102 -0.923995 0
M  V30 3381 C 313.842 -6.12033 -0.0907969 0
M  V30 3382 N 312.979 -6.95537 -0.957718 0
M  V30 3383 H 317.819 -2.85628 0.849755 0
M  V30 3384 H 315.356 -1.40653 0.430726 0
M  V30 3385 H 317.314 -3.93618 -1.38279 0
M  V30 3386 H 315.944 -2.81274 -1.58381 0
M  V30 3387 H 314.996 -3.74841 0.64794 0
M  V30 3388 H 316.308 -4.94772 0.632595 0
M  V30 3389 H 315.462 -5.86953 -1.53527 0
M  V30 3390 H 314.201 -4.60615 -1.60264 0
M  V30 3391 H 313.206 -5.47207 0.533377 0
M  V30 3392 H 314.431 -6.76581 0.584428 0
M  V30 3393 H 312.377 -6.35633 -1.62192 0
M  V30 3394 H 312.294 -7.55099 -0.36904 0
M  V30 3395 H 313.562 -7.63832 -1.555 0
M  V30 3396 N 317.792 -0.46758 -1.50504 0
M  V30 3397 C 319.203 -0.0116166 -1.86696 0
M  V30 3398 C 319.554 1.39202 -1.38265 0
M  V30 3399 O 318.679 2.0313 -0.746132 0
M  V30 3400 C 319.274 -0.0143044 -3.38797 0
M  V30 3401 C 317.833 0.386175 -3.74414 0
M  V30 3402 C 316.98 -0.401287 -2.74381 0
M  V30 3403 H 319.931 -0.682022 -1.43297 0
M  V30 3404 H 319.952 0.788641 -3.72237 0
M  V30 3405 H 319.464 -1.03602 -3.74016 0
M  V30 3406 H 317.565 1.41237 -3.44794 0
M  V30 3407 H 317.678 0.0899596 -4.79016 0
M  V30 3408 H 316.042 0.144536 -2.5429 0
M  V30 3409 H 316.825 -1.42244 -3.12444 0
M  V30 3410 N 319.27 1.56325 -0.20005 0
M  V30 3411 C 320.518 1.97329 0.436547 0
M  V30 3412 C 320.839 1.08826 1.61808 0
M  V30 3413 O 320.109 0.160604 1.95241 0
M  V30 3414 H 318.689 0.728714 0.164272 0
M  V30 3415 H 321.351 1.92761 -0.287937 0
M  V30 3416 H 320.447 3.02264 0.777353 0
M  V30 3417 N 320.748 -0.0735177 1.57428 0
M  V30 3418 C 322.159 -0.625551 1.75908 0
M  V30 3419 C 322.51 -1.78 0.825261 0
M  V30 3420 O 321.635 -2.16398 0.00893964 0
M  V30 3421 C 322.23 -1.14155 3.18989 0
M  V30 3422 C 320.789 -1.63946 3.38819 0
M  V30 3423 C 319.936 -0.558151 2.71625 0
M  V30 3424 H 322.887 0.152647 1.57964 0
M  V30 3425 H 322.908 -2.0104 3.23053 0
M  V30 3426 H 322.42 -0.301116 3.8693 0
M  V30 3427 H 320.521 -2.50321 2.7599 0
M  V30 3428 H 320.634 -1.71759 4.47253 0
M  V30 3429 H 318.998 -1.00278 2.34129 0
M  V30 3430 H 319.781 0.272071 3.4222 0
M  V30 3431 N 322.226 -1.5378 -0.344866 0
M  V30 3432 C 323.642 -1.44015 -0.687888 0
M  V30 3433 C 323.842 -0.595834 -1.92489 0
M  V30 3434 O 322.898 -0.0863064 -2.52352 0
M  V30 3435 C 324.211 -2.87481 -0.881758 0
M  V30 3436 C 325.759 -2.97247 -0.980459 0
M  V30 3437 C 326.234 -4.41819 -1.20665 0
M  V30 3438 N 327.725 -4.45339 -1.27389 0
M  V30 3439 C 328.46 -5.54333 -1.46639 0
M  V30 3440 N 327.956 -6.73335 -1.63071 0
M  V30 3441 N 329.749 -5.41944 -1.49176 0
M  V30 3442 H 321.9 -2.07169 0.468475 0
M  V30 3443 H 324.163 -0.93643 0.147655 0
M  V30 3444 H 323.869 -3.51672 -0.0443444 0
M  V30 3445 H 323.743 -3.32352 -1.78388 0
M  V30 3446 H 326.13 -2.33197 -1.8084 0
M  V30 3447 H 326.211 -2.5574 -0.0552713 0
M  V30 3448 H 325.855 -5.06449 -0.383652 0
M  V30 3449 H 325.785 -4.80917 -2.14539 0
M  V30 3450 H 328.276 -3.59585 -1.1622 0
M  V30 3451 H 328.589 -7.52165 -1.77391 0
M  V30 3452 H 326.934 -6.76282 -1.60209 0
M  V30 3453 H 330.125 -4.47932 -1.3592 0
M  V30 3454 H 330.298 -6.26946 -1.63837 0
M  V30 3455 N 323.704 0.605807 -1.45491 0
M  V30 3456 C 324.929 1.39625 -1.53361 0
M  V30 3457 C 325.354 1.87351 -0.167645 0
M  V30 3458 O 324.712 1.60243 0.848051 0
M  V30 3459 C 324.76 2.57559 -2.5238 0
M  V30 3460 O 323.864 3.58248 -2.04285 0
M  V30 3461 H 323.205 0.416771 -0.516912 0
M  V30 3462 H 325.735 0.737103 -1.90861 0
M  V30 3463 H 325.745 3.0478 -2.71244 0
M  V30 3464 H 324.42 2.22171 -3.51586 0
M  V30 3465 H 322.997 3.17664 -1.95305 0
M  V30 3466 N 325.182 1.32811 0.848464 0
M  V30 3467 C 326.43 1.23479 1.59991 0
M  V30 3468 C 326.751 -0.201853 1.93952 0
M  V30 3469 O 326.021 -1.12818 1.60153 0
M  V30 3470 H 324.601 0.454034 0.593179 0
M  V30 3471 H 327.263 1.66412 1.01455 0
M  V30 3472 H 326.359 1.82178 2.53412 0
M  V30 3473 N 326.66 -1.06551 1.16123 0
M  V30 3474 C 328.076 -1.3142 0.905585 0
M  V30 3475 C 328.276 -1.96571 -0.442964 0
M  V30 3476 O 327.332 -2.23068 -1.18308 0
M  V30 3477 C 328.645 -2.19741 2.05267 0
M  V30 3478 C 330.193 -2.33165 2.08813 0
M  V30 3479 C 330.668 -3.24838 3.22868 0
M  V30 3480 N 332.159 -3.32421 3.22568 0
M  V30 3481 C 332.894 -4.0344 4.0746 0
M  V30 3482 N 332.39 -4.77003 5.02434 0
M  V30 3483 N 334.183 -3.99464 3.95456 0
M  V30 3484 H 326.334 -0.626548 2.02949 0
M  V30 3485 H 328.597 -0.338777 0.8854 0
M  V30 3486 H 328.303 -1.79142 3.02657 0
M  V30 3487 H 328.177 -3.20313 1.99198 0
M  V30 3488 H 330.564 -2.73013 1.12018 0
M  V30 3489 H 330.645 -1.3227 2.18948 0
M  V30 3490 H 330.289 -2.85708 4.19921 0
M  V30 3491 H 330.219 -4.25707 3.0997 0
M  V30 3492 H 332.71 -2.79994 2.53795 0
M  V30 3493 H 333.023 -5.28712 5.63634 0
M  V30 3494 H 331.368 -4.75992 5.06415 0
M  V30 3495 H 334.559 -3.4111 3.20564 0
M  V30 3496 H 334.732 -4.54544 4.61837 0
M  V30 3497 N 328.138 -0.959301 -1.25041 0
M  V30 3498 C 329.385 -0.616611 -1.92884 0
M  V30 3499 C 329.713 0.847036 -1.75087 0
M  V30 3500 O 328.968 1.62374 -1.09239 0
M  V30 3501 C 329.267 -0.927136 -3.45165 0
M  V30 3502 C 328.933 -2.37757 -3.83122 0
M  V30 3503 C 327.595 -2.77402 -3.93194 0
M  V30 3504 C 329.947 -3.31929 -4.01836 0
M  V30 3505 C 327.275 -4.10277 -4.19392 0
M  V30 3506 C 329.627 -4.64423 -4.29528 0
M  V30 3507 C 328.291 -5.03857 -4.37818 0
M  V30 3508 H 327.561 -0.225634 -0.705812 0
M  V30 3509 H 330.208 -1.20921 -1.48493 0
M  V30 3510 H 328.513 -0.252195 -3.90987 0
M  V30 3511 H 330.21 -0.6405 -3.95852 0
M  V30 3512 H 326.8 -2.06013 -3.75841 0
M  V30 3513 H 330.984 -3.02488 -3.93465 0
M  V30 3514 H 326.24 -4.40467 -4.24027 0
M  V30 3515 H 330.414 -5.37369 -4.42953 0
M  V30 3516 H 328.041 -6.06843 -4.57871 0
M  V30 3517 N 329.616 1.39756 -0.72842 0
M  V30 3518 C 330.841 2.05472 -0.282159 0
M  V30 3519 C 331.266 1.54549 1.07221 0
M  V30 3520 O 330.624 0.686372 1.67805 0
M  V30 3521 C 330.672 3.59462 -0.286264 0
M  V30 3522 O 329.776 4.05918 0.728298 0
M  V30 3523 H 329.117 0.651226 -0.129618 0
M  V30 3524 H 331.647 1.78915 -0.992499 0
M  V30 3525 H 331.657 4.07798 -0.128373 0
M  V30 3526 H 330.332 3.95889 -1.27456 0
M  V30 3527 H 328.909 3.69012 0.537081 0
M  V30 3528 N 331.094 0.475555 1.50254 0
M  V30 3529 C 332.334 -0.0765802 2.04256 0
M  V30 3530 C 332.698 -1.36587 1.34937 0
M  V30 3531 O 333.899 -2.00066 1.79519 0
M  V30 3532 C 332.17 -0.251668 3.56513 0
M  V30 3533 S 333.729 -0.761716 4.32138 0
M  V30 3534 H 330.547 -0.0138456 0.710865 0
M  V30 3535 H 333.149 0.643714 1.84598 0
M  V30 3536 H 331.853 0.692404 4.04517 0
M  V30 3537 H 331.384 -0.997946 3.80532 0
M  V30 3538 H 333.399 -2.03451 4.52573 0
M  V30 3539 N 332.573 -1.56217 0.208337 0
M  V30 3540 C 333.483 -2.23316 -0.718836 0
M  V30 3541 C 334.499 -1.23648 -1.22422 0
M  V30 3542 O 335.675 -1.56423 -1.26861 0
M  V30 3543 C 332.74 -2.88968 -1.91568 0
M  V30 3544 C 331.801 -4.03943 -1.45357 0
M  V30 3545 C 331.034 -4.66455 -2.59337 0
M  V30 3546 O 331.257 -4.27919 -3.77149 0
M  V30 3547 O 330.191 -5.55686 -2.31293 0
M  V30 3548 H 334.017 -3.03182 -0.177315 0
M  V30 3549 H 331.602 -1.49384 -0.0215402 0
M  V30 3550 H 333.484 -3.30455 -2.61491 0
M  V30 3551 H 332.159 -2.12071 -2.44556 0
M  V30 3552 H 331.066 -3.67052 -0.722746 0
M  V30 3553 H 332.399 -4.82543 -0.970219 0
M  V30 3554 N 334.051 0.0651679 -1.57465 0
M  V30 3555 C 335.462 0.616213 -1.76238 0
M  V30 3556 C 335.813 1.7756 -0.834689 0
M  V30 3557 O 334.938 2.1639 -0.0204156 0
M  V30 3558 C 335.533 1.12462 -3.1959 0
M  V30 3559 C 334.092 1.62147 -3.39684 0
M  V30 3560 C 333.239 0.543739 -2.71917 0
M  V30 3561 H 336.19 -0.161022 -1.57881 0
M  V30 3562 H 336.211 1.99324 -3.24114 0
M  V30 3563 H 335.723 0.280592 -3.87084 0
M  V30 3564 H 333.824 2.48854 -2.77313 0
M  V30 3565 H 333.937 1.69385 -4.48158 0
M  V30 3566 H 332.301 0.990352 -2.34657 0
M  V30 3567 H 333.084 -0.290216 -3.42071 0
M  V30 3568 N 335.529 1.53961 0.336706 0
M  V30 3569 C 336.492 1.81724 1.39675 0
M  V30 3570 C 337.492 0.688532 1.45313 0
M  V30 3571 O 338.682 0.956829 1.45569 0
M  V30 3572 C 335.814 1.96543 2.78538 0
M  V30 3573 H 337.007 2.76424 1.16318 0
M  V30 3574 H 334.56 1.45478 0.571474 0
M  V30 3575 H 335.295 1.0401 3.07168 0
M  V30 3576 H 335.08 2.78665 2.75841 0
M  V30 3577 H 336.57 2.19516 3.5525 0
M  V30 3578 N 337.007 -0.598083 1.45811 0
M  V30 3579 C 338.255 -1.35413 1.50026 0
M  V30 3580 C 338.576 -1.94444 0.147177 0
M  V30 3581 O 337.846 -1.77701 -0.824571 0
M  V30 3582 H 336.426 -0.502727 0.552517 0
M  V30 3583 H 339.088 -0.701606 1.81834 0
M  V30 3584 H 338.184 -2.16871 2.2444 0
M  V30 3585 N 338.485 -1.33259 -0.841409 0
M  V30 3586 C 339.733 -1.24326 -1.59334 0
M  V30 3587 C 340.054 0.191564 -1.94057 0
M  V30 3588 O 339.324 1.11967 -1.60749 0
M  V30 3589 H 337.904 -0.457174 -0.590763 0
M  V30 3590 H 340.566 -1.66947 -1.00571 0
M  V30 3591 H 339.662 -1.8352 -2.52442 0
M  V30 3592 N 339.963 1.05934 -1.16686 0
M  V30 3593 C 340.893 2.1546 -0.899949 0
M  V30 3594 C 341.874 1.69391 0.155154 0
M  V30 3595 O 343.059 1.94199 0.00648693 0
M  V30 3596 C 340.189 3.44939 -0.404241 0
M  V30 3597 C 339.143 4.04536 -1.39767 0
M  V30 3598 C 338.469 5.29268 -0.760216 0
M  V30 3599 C 339.769 4.42893 -2.76845 0
M  V30 3600 H 341.463 2.38046 -1.81588 0
M  V30 3601 H 339.009 1.14404 -0.874514 0
M  V30 3602 H 340.962 4.20901 -0.204971 0
M  V30 3603 H 339.686 3.21983 0.547206 0
M  V30 3604 H 338.345 3.30635 -1.58355 0
M  V30 3605 H 337.993 5.02611 0.197831 0
M  V30 3606 H 337.693 5.70101 -1.42332 0
M  V30 3607 H 339.217 6.07924 -0.57105 0
M  V30 3608 H 340.631 5.09921 -2.62019 0
M  V30 3609 H 339.028 4.94721 -3.39663 0
M  V30 3610 H 340.098 3.53584 -3.31823 0
M  V30 3611 N 341.441 0.965919 1.2453 0
M  V30 3612 C 342.669 0.644385 1.96609 0
M  V30 3613 C 343.084 -0.785823 1.71669 0
M  V30 3614 O 342.441 -1.52703 0.999399 0
M  V30 3615 C 342.492 0.907375 3.49927 0
M  V30 3616 O 342.213 2.28136 3.74013 0
M  V30 3617 C 343.714 0.599784 4.39224 0
M  V30 3618 H 340.934 0.240588 0.626385 0
M  V30 3619 H 343.478 1.29337 1.58405 0
M  V30 3620 H 341.633 0.304631 3.862 0
M  V30 3621 H 342.047 2.36002 4.68405 0
M  V30 3622 H 343.521 0.834263 5.45659 0
M  V30 3623 H 343.998 -0.465921 4.36722 0
M  V30 3624 H 344.604 1.18235 4.08535 0
M  V30 3625 N 342.919 -1.39368 0.735821 0
M  V30 3626 C 344.144 -2.05319 0.293052 0
M  V30 3627 C 344.569 -1.55115 -1.064 0
M  V30 3628 O 343.927 -0.695261 -1.67439 0
M  V30 3629 C 343.975 -3.59305 0.305323 0
M  V30 3630 O 343.079 -4.06299 -0.706761 0
M  V30 3631 H 342.42 -0.650529 0.13307 0
M  V30 3632 H 344.95 -1.78386 1.00197 0
M  V30 3633 H 344.96 -4.07724 0.149997 0
M  V30 3634 H 343.635 -3.95207 1.29553 0
M  V30 3635 H 342.212 -3.69292 -0.517504 0
M  V30 3636 N 344.397 -0.483516 -1.5 0
M  V30 3637 C 345.327 0.293829 -2.31644 0
M  V30 3638 C 346.308 0.978864 -1.39112 0
M  V30 3639 O 347.493 0.973644 -1.68029 0
M  V30 3640 C 344.623 1.36897 -3.19181 0
M  V30 3641 C 343.577 0.804833 -4.20365 0
M  V30 3642 C 342.903 1.9792 -4.96721 0
M  V30 3643 C 344.203 -0.192313 -5.21946 0
M  V30 3644 H 345.897 -0.387616 -2.9688 0
M  V30 3645 H 343.443 -0.187856 -1.42769 0
M  V30 3646 H 345.396 1.92037 -3.751 0
M  V30 3647 H 344.12 2.07936 -2.51853 0
M  V30 3648 H 342.779 0.275319 -3.65565 0
M  V30 3649 H 342.427 2.67686 -4.25856 0
M  V30 3650 H 342.127 1.60789 -5.65173 0
M  V30 3651 H 343.651 2.53526 -5.55479 0
M  V30 3652 H 345.065 0.270333 -5.72662 0
M  V30 3653 H 343.462 -0.478543 -5.98189 0
M  V30 3654 H 344.532 -1.11409 -4.71928 0
M  V30 3655 N 345.875 1.56104 -0.216619 0
M  V30 3656 C 347.103 2.02563 0.421413 0
M  V30 3657 C 347.518 1.0965 1.53695 0
M  V30 3658 O 346.875 0.10521 1.82196 0
M  V30 3659 C 346.926 3.48584 0.957665 0
M  V30 3660 O 346.647 4.37953 -0.113389 0
M  V30 3661 C 348.148 4.10664 1.66943 0
M  V30 3662 H 345.368 0.662944 0.103665 0
M  V30 3663 H 347.912 2.01793 -0.331629 0
M  V30 3664 H 346.067 3.49985 1.661 0
M  V30 3665 H 346.481 5.23704 0.288932 0
M  V30 3666 H 347.955 5.14622 1.99671 0
M  V30 3667 H 348.432 3.55373 2.58083 0
M  V30 3668 H 349.038 4.13098 1.01142 0
M  V30 3669 N 347.353 -0.0568162 1.57498 0
M  V30 3670 C 348.263 -1.08346 2.08083 0
M  V30 3671 C 349.279 -1.41439 1.01346 0
M  V30 3672 O 350.455 -1.51316 1.32912 0
M  V30 3673 C 347.52 -2.37352 2.52715 0
M  V30 3674 C 346.581 -2.11093 3.73816 0
M  V30 3675 C 345.814 -3.33949 4.1631 0
M  V30 3676 O 346.037 -4.43622 3.58547 0
M  V30 3677 O 344.971 -3.21279 5.08983 0
M  V30 3678 H 348.797 -0.683667 2.95905 0
M  V30 3679 H 346.382 -0.271965 1.46904 0
M  V30 3680 H 348.264 -3.13246 2.81877 0
M  V30 3681 H 346.939 -2.76681 1.68016 0
M  V30 3682 H 345.846 -1.32856 3.49714 0
M  V30 3683 H 347.179 -1.76637 4.59413 0
M  V30 3684 N 348.832 -1.54138 -0.328536 0
M  V30 3685 C 350.243 -1.63395 -0.903272 0
M  V30 3686 C 350.594 -0.524828 -1.8905 0
M  V30 3687 O 349.719 0.343068 -2.13663 0
M  V30 3688 C 350.314 -2.9618 -1.64507 0
M  V30 3689 C 348.873 -3.0765 -2.1686 0
M  V30 3690 C 348.02 -2.58933 -0.992416 0
M  V30 3691 H 350.971 -1.58344 -0.106253 0
M  V30 3692 H 350.992 -2.86061 -2.50897 0
M  V30 3693 H 350.504 -3.76884 -0.926302 0
M  V30 3694 H 348.605 -2.31611 -2.91868 0
M  V30 3695 H 348.718 -4.1337 -2.42202 0
M  V30 3696 H 347.082 -2.14706 -1.37016 0
M  V30 3697 H 347.865 -3.42089 -0.288041 0
M  V30 3698 N 350.31 0.590341 -1.46126 0
M  V30 3699 C 351.721 1.17243 -1.45296 0
M  V30 3700 C 352.072 1.95281 -0.189723 0
M  V30 3701 O 351.197 2.04502 0.707674 0
M  V30 3702 C 351.792 2.13284 -2.6324 0
M  V30 3703 C 350.351 2.66832 -2.65476 0
M  V30 3704 C 349.498 1.42557 -2.3785 0
M  V30 3705 H 352.449 0.378692 -1.54116 0
M  V30 3706 H 352.47 2.96619 -2.38323 0
M  V30 3707 H 351.982 1.56459 -3.55165 0
M  V30 3708 H 350.083 3.27548 -1.77603 0
M  V30 3709 H 350.196 3.10088 -3.65215 0
M  V30 3710 H 348.56 1.72107 -1.87753 0
M  V30 3711 H 349.343 0.875741 -3.31942 0
M  V30 3712 N 351.788 1.33704 0.83433 0
M  V30 3713 C 352.735 1.24335 1.94447 0
M  V30 3714 C 353.705 0.120991 1.65659 0
M  V30 3715 O 354.89 0.300035 1.88426 0
M  V30 3716 C 352.03 0.993124 3.30501 0
M  V30 3717 C 351.143 2.20217 3.71657 0
M  V30 3718 C 350.278 1.88572 4.96602 0
M  V30 3719 C 349.317 3.05683 5.30306 0
M  V30 3720 N 348.454 2.73997 6.46429 0
M  V30 3721 H 353.294 2.1928 2.01792 0
M  V30 3722 H 350.831 1.09035 0.987404 0
M  V30 3723 H 352.789 0.828467 4.08892 0
M  V30 3724 H 351.419 0.0803902 3.227 0
M  V30 3725 H 350.471 2.47642 2.88752 0
M  V30 3726 H 351.783 3.07752 3.92543 0
M  V30 3727 H 350.937 1.68776 5.82752 0
M  V30 3728 H 349.676 0.982799 4.77695 0
M  V30 3729 H 348.681 3.26088 4.42659 0
M  V30 3730 H 349.906 3.96737 5.51159 0
M  V30 3731 H 347.852 1.86268 6.28999 0
M  V30 3732 H 347.769 3.55064 6.67432 0
M  V30 3733 H 349.037 2.57679 7.35678 0
M  V30 3734 N 353.266 -1.05314 1.17247 0
M  V30 3735 C 354.514 -1.77941 0.958194 0
M  V30 3736 C 354.835 -1.88089 -0.514556 0
M  V30 3737 O 354.105 -1.39676 -1.37359 0
M  V30 3738 H 352.685 -0.659116 0.351533 0
M  V30 3739 H 355.347 -1.27166 1.47699 0
M  V30 3740 H 354.443 -2.79663 1.38546 0
M  V30 3741 N 354.744 -0.972509 -1.24016 0
M  V30 3742 C 356.155 -0.67517 -1.74064 0
M  V30 3743 C 356.506 0.808939 -1.78747 0
M  V30 3744 O 355.631 1.63286 -1.42009 0
M  V30 3745 C 356.226 -1.21889 -3.16115 0
M  V30 3746 C 354.785 -0.971358 -3.6365 0
M  V30 3747 C 353.932 -1.35134 -2.42145 0
M  V30 3748 H 356.883 -1.14727 -1.09651 0
M  V30 3749 H 356.904 -0.587489 -3.75937 0
M  V30 3750 H 356.416 -2.29906 -3.12674 0
M  V30 3751 H 354.517 0.0930686 -3.72484 0
M  V30 3752 H 354.63 -1.62039 -4.50866 0
M  V30 3753 H 352.994 -0.769751 -2.4279 0
M  V30 3754 H 353.777 -2.4411 -2.41381 0
M  V30 3755 N 356.222 1.38976 -0.743202 0
M  V30 3756 C 357.47 1.99948 -0.29417 0
M  V30 3757 C 357.791 1.59279 1.12495 0
M  V30 3758 O 357.061 0.844808 1.76748 0
M  V30 3759 H 355.641 0.739473 -0.105774 0
M  V30 3760 H 358.303 1.699 -0.954986 0
M  V30 3761 H 357.399 3.10142 -0.349056 0
M  V30 3762 N 357.7 0.491464 1.49741 0
M  V30 3763 C 358.947 -0.0564256 2.02421 0
M  V30 3764 C 359.275 -1.37872 1.37192 0
M  V30 3765 O 358.53 -1.89375 0.493508 0
M  V30 3766 C 358.829 -0.267329 3.56399 0
M  V30 3767 C 358.495 0.975775 4.40215 0
M  V30 3768 C 357.157 1.31655 4.62839 0
M  V30 3769 C 359.509 1.80251 4.89039 0
M  V30 3770 C 356.837 2.48375 5.31532 0
M  V30 3771 C 359.189 2.96116 5.59015 0
M  V30 3772 C 357.853 3.30585 5.79888 0
M  V30 3773 H 357.123 -0.0206476 0.740712 0
M  V30 3774 H 359.77 0.649686 1.80143 0
M  V30 3775 H 358.075 -1.05588 3.77304 0
M  V30 3776 H 359.772 -0.705549 3.94744 0
M  V30 3777 H 356.362 0.700315 4.2284 0
M  V30 3778 H 360.546 1.55239 4.71396 0
M  V30 3779 H 355.802 2.7533 5.45897 0
M  V30 3780 H 359.976 3.60509 5.95824 0
M  V30 3781 H 357.603 4.21132 6.32892 0
M  V30 3782 N 359.178 -1.55987 0.224894 0
M  V30 3783 C 360.426 -1.97998 -0.405099 0
M  V30 3784 C 360.747 -1.11387 -1.60056 0
M  V30 3785 O 360.017 -0.191645 -1.9496 0
M  V30 3786 H 358.597 -0.731235 -0.152658 0
M  V30 3787 H 361.259 -1.92279 0.318567 0
M  V30 3788 H 360.355 -3.03463 -0.729167 0
M  V30 3789 N 360.656 0.0484629 -1.57525 0
M  V30 3790 C 361.902 0.744226 -1.88651 0
M  V30 3791 C 362.235 1.76029 -0.820212 0
M  V30 3792 O 361.51 1.93782 0.166985 0
M  V30 3793 C 361.793 1.43128 -3.30434 0
M  V30 3794 C 361.646 0.43005 -4.47739 0
M  V30 3795 C 362.965 2.37031 -3.70816 0
M  V30 3796 H 360.084 0.269089 -0.68612 0
M  V30 3797 H 362.726 0.00713532 -1.89999 0
M  V30 3798 H 360.876 2.05956 -3.29415 0
M  V30 3799 H 362.548 -0.194816 -4.60888 0
M  V30 3800 H 360.791 -0.252522 -4.33064 0
M  V30 3801 H 361.462 0.948874 -5.43783 0
M  V30 3802 H 363.938 1.84263 -3.73077 0
M  V30 3803 H 362.814 2.82094 -4.70865 0
M  V30 3804 H 363.075 3.22864 -3.02012 0
M  V30 3805 N 362.134 1.5431 0.320358 0
M  V30 3806 C 363.066 1.80262 1.41556 0
M  V30 3807 C 364.079 0.684723 1.477 0
M  V30 3808 O 365.268 0.961886 1.50366 0
M  V30 3809 C 362.368 1.90825 2.8007 0
M  V30 3810 C 361.541 3.21023 2.97091 0
M  V30 3811 C 360.6 3.22247 4.15985 0
M  V30 3812 O 359.626 3.95871 4.08992 0
M  V30 3813 N 360.828 2.46258 5.25678 0
M  V30 3814 H 363.593 2.74778 1.19655 0
M  V30 3815 H 361.154 1.53646 0.510358 0
M  V30 3816 H 363.146 1.89067 3.57821 0
M  V30 3817 H 361.716 1.03392 2.95006 0
M  V30 3818 H 360.936 3.35715 2.06614 0
M  V30 3819 H 362.224 4.0698 3.05361 0
M  V30 3820 H 361.622 1.86037 5.34235 0
M  V30 3821 H 360.179 2.50275 6.01835 0
M  V30 3822 N 363.613 -0.582584 1.46437 0
M  V30 3823 C 364.576 -1.67366 1.56592 0
M  V30 3824 C 365.576 -1.54575 0.443072 0
M  V30 3825 O 366.766 -1.59191 0.707381 0
M  V30 3826 C 363.898 -3.06791 1.48634 0
M  V30 3827 H 365.091 -1.5972 2.5383 0
M  V30 3828 H 362.644 -0.800432 1.34249 0
M  V30 3829 H 363.379 -3.19993 0.526763 0
M  V30 3830 H 363.164 -3.17484 2.30101 0
M  V30 3831 H 364.654 -3.86218 1.58826 0
M  V30 3832 N 365.091 -1.34144 -0.827227 0
M  V30 3833 C 366.339 -1.26009 -1.58007 0
M  V30 3834 C 366.66 0.170971 -1.94249 0
M  V30 3835 O 365.93 1.10256 -1.61927 0
M  V30 3836 H 364.51 -0.463414 -0.585881 0
M  V30 3837 H 367.172 -1.68005 -0.987951 0
M  V30 3838 H 366.268 -1.86187 -2.50481 0
M  V30 3839 N 366.569 1.04691 -1.17803 0
M  V30 3840 C 367.499 2.14494 -0.92275 0
M  V30 3841 C 368.48 1.69546 0.137179 0
M  V30 3842 O 369.665 1.94195 -0.0141108 0
M  V30 3843 C 366.795 3.44491 -0.440803 0
M  V30 3844 C 365.749 4.03031 -1.4405 0
M  V30 3845 C 365.075 5.28432 -0.81631 0
M  V30 3846 C 366.375 4.39932 -2.81527 0
M  V30 3847 H 368.069 2.36107 -1.84103 0
M  V30 3848 H 365.615 1.1347 -0.886599 0
M  V30 3849 H 367.568 4.2066 -0.249602 0
M  V30 3850 H 366.292 3.22546 0.513025 0
M  V30 3851 H 364.951 3.28937 -1.61853 0
M  V30 3852 H 364.599 5.02792 0.144511 0
M  V30 3853 H 364.299 5.68559 -1.48371 0
M  V30 3854 H 365.823 6.07284 -0.635496 0
M  V30 3855 H 367.237 5.07113 -2.67412 0
M  V30 3856 H 365.634 4.9109 -3.44892 0
M  V30 3857 H 366.704 3.50045 -3.35554 0
M  V30 3858 O 368.086 1.10799 1.17498 0
M  V30 3859 H 368.777 0.811108 1.759 0
M  V30 END ATOM
M  V30 BEGIN BOND
M  V30 END BOND
M  V30 END CTAB
M  END
$$$$
