drugbank_target|Q9GZT4 Serine racemase (DB00114; DB00133)
 OpenBabel12092119303D

  0  0  0     0  0            999 V3000
M  V30 BEGIN CTAB
M  V30 COUNTS 5196 5243 0 0 0
M  V30 BEGIN ATOM
M  V30 1 H -0.908 1.98254 -0.117106 0
M  V30 2 N 0 1.576 0 0
M  V30 3 C 0.933 2.03868 1.02534 0
M  V30 4 C 1.911 0.928543 1.3348 0
M  V30 5 O 3.095 1.19667 1.45644 0
M  V30 6 C 0.222 2.43627 2.35294 0
M  V30 7 C -0.732 3.65373 2.2001 0
M  V30 8 S 0.101 5.13292 1.52614 0
M  V30 9 C 1.257 5.56322 2.86805 0
M  V30 10 H 1.49 2.90518 0.631377 0
M  V30 11 H -0.977 1.52953 0.210867 0
M  V30 12 H 0.981 2.67203 3.11629 0
M  V30 13 H -0.358 1.57376 2.7183 0
M  V30 14 H -1.165 3.90944 3.18086 0
M  V30 15 H -1.563 3.418 1.51819 0
M  V30 16 H 0.729 5.58782 3.83104 0
M  V30 17 H 1.672 6.56266 2.65933 0
M  V30 18 H 2.08 4.83886 2.90714 0
M  V30 19 N 1.4781 -0.272755 1.55222 0
M  V30 20 C 2.7181 -1.01197 1.77591 0
M  V30 21 C 3.0821 -1.8349 0.565294 0
M  V30 22 O 4.2831 -2.60387 0.667242 0
M  V30 23 C 2.5541 -1.87096 3.04516 0
M  V30 24 S 4.1131 -2.67279 3.48004 0
M  V30 25 H 0.9311 -0.340836 0.62398 0
M  V30 26 H 3.5331 -0.282374 1.9345 0
M  V30 27 H 2.2371 -1.25565 3.90719 0
M  V30 28 H 1.7681 -2.64376 2.91323 0
M  V30 29 H 3.7831 -3.89593 3.07297 0
M  V30 30 N 2.9562 -1.48159 -0.537278 0
M  V30 31 C 3.9192 -1.61665 -1.62472 0
M  V30 32 C 4.9192 -0.490395 -1.5314 0
M  V30 33 O 6.1092 -0.755998 -1.5694 0
M  V30 34 C 3.2412 -1.57997 -3.02076 0
M  V30 35 H 4.4342 -2.58621 -1.51839 0
M  V30 36 H 1.9872 -1.36647 -0.758771 0
M  V30 37 H 2.7222 -0.624913 -3.18222 0
M  V30 38 H 2.5072 -2.39755 -3.10258 0
M  V30 39 H 3.9972 -1.70627 -3.81151 0
M  V30 40 N 4.4343 0.785586 -1.36625 0
M  V30 41 C 5.3663 1.90711 -1.2713 0
M  V30 42 C 6.3793 1.61688 -0.189986 0
M  V30 43 O 7.5683 1.72864 -0.445014 0
M  V30 44 C 4.6683 3.25611 -0.939713 0
M  V30 45 C 3.8413 3.82385 -2.12369 0
M  V30 46 C 2.9003 4.95732 -1.76456 0
M  V30 47 O 1.9263 5.12047 -2.48589 0
M  V30 48 N 3.1283 5.76258 -0.700492 0
M  V30 49 H 5.8933 1.99376 -2.23762 0
M  V30 50 H 3.4543 0.964041 -1.30069 0
M  V30 51 H 5.4463 3.98937 -0.680554 0
M  V30 52 H 4.0163 3.12538 -0.0624074 0
M  V30 53 H 3.2363 3.01001 -2.54543 0
M  V30 54 H 4.5243 4.17047 -2.9146 0
M  V30 55 H 3.9223 5.65609 -0.101624 0
M  V30 56 H 2.4793 6.4987 -0.501165 0
M  V30 57 N 5.9124 1.20967 1.01018 0
M  V30 58 C 7.1424 1.04803 1.78044 0
M  V30 59 C 7.5504 -0.405462 1.84804 0
M  V30 60 O 6.8934 -1.2932 1.30468 0
M  V30 61 C 6.9554 1.56377 3.23707 0
M  V30 62 C 6.6194 3.04767 3.40538 0
M  V30 63 C 7.6164 4.02366 3.29239 0
M  V30 64 C 5.3014 3.43862 3.66147 0
M  V30 65 C 7.2954 5.37049 3.43304 0
M  V30 66 C 4.9824 4.78699 3.79855 0
M  V30 67 C 5.9804 5.75101 3.68439 0
M  V30 68 O 5.6684 7.07493 3.81719 0
M  V30 69 H 5.4004 0.368778 0.56655 0
M  V30 70 H 7.9544 1.60642 1.27997 0
M  V30 71 H 6.1844 0.949297 3.74867 0
M  V30 72 H 7.8734 1.36136 3.8239 0
M  V30 73 H 8.6394 3.73506 3.09384 0
M  V30 74 H 4.5184 2.69364 3.74118 0
M  V30 75 H 8.0624 6.12277 3.34309 0
M  V30 76 H 3.9594 5.07247 3.99213 0
M  V30 77 H 4.7274 7.1483 3.98697 0
M  V30 78 N 7.3905 -1.2043 1.01659 0
M  V30 79 C 8.6305 -1.91507 0.714456 0
M  V30 80 C 8.9945 -1.77073 -0.742237 0
M  V30 81 O 10.1955 -2.42631 -1.15688 0
M  V30 82 C 8.4665 -3.38795 1.13809 0
M  V30 83 S 10.0255 -4.28216 0.957925 0
M  V30 84 H 6.8435 -0.661571 0.260471 0
M  V30 85 H 9.4455 -1.45671 1.30384 0
M  V30 86 H 8.1495 -3.46822 2.19415 0
M  V30 87 H 7.6805 -3.89656 0.541474 0
M  V30 88 H 9.6955 -4.96007 -0.138531 0
M  V30 89 N 8.8686 -0.792821 -1.36206 0
M  V30 90 C 10.1176 -0.363353 -1.984 0
M  V30 91 C 10.4306 1.07172 -1.63626 0
M  V30 92 O 11.6366 1.60362 -2.19081 0
M  V30 93 C 10.0926 -0.59872 -3.54885 0
M  V30 94 C 9.7006 -2.04543 -3.9858 0
M  V30 95 C 11.4446 -0.233926 -4.23855 0
M  V30 96 C 9.3516 -2.22727 -5.47856 0
M  V30 97 H 8.2816 -0.13212 -0.742334 0
M  V30 98 H 10.9326 -0.974935 -1.55458 0
M  V30 99 H 9.3146 0.0826222 -3.95914 0
M  V30 100 H 10.4886 -2.76345 -3.68741 0
M  V30 101 H 8.8036 -2.36879 -3.42458 0
M  V30 102 H 11.4006 -0.348027 -5.33566 0
M  V30 103 H 11.7436 0.818351 -4.08177 0
M  V30 104 H 12.2766 -0.868639 -3.882 0
M  V30 105 H 9.0156 -3.2635 -5.68486 0
M  V30 106 H 8.5356 -1.55434 -5.7931 0
M  V30 107 H 10.2146 -2.03607 -6.14128 0
M  V30 108 N 10.3467 1.47872 -0.545128 0
M  V30 109 C 11.5717 2.07391 -0.0190611 0
M  V30 110 C 11.9967 1.39688 1.25971 0
M  V30 111 O 11.3547 0.467816 1.7516 0
M  V30 112 C 11.4027 3.60188 0.172335 0
M  V30 113 O 10.5067 3.9339 1.23766 0
M  V30 114 H 9.8477 0.662411 -0.0459059 0
M  V30 115 H 12.3777 1.90066 -0.757365 0
M  V30 116 H 12.3877 4.06129 0.390305 0
M  V30 117 H 11.0627 4.08865 -0.761725 0
M  V30 118 H 9.6397 3.5921 1.00114 0
M  V30 119 N 11.8248 0.280983 1.55075 0
M  V30 120 C 13.0718 -0.334115 1.99725 0
M  V30 121 C 13.3998 -1.5542 1.1694 0
M  V30 122 O 12.6548 -1.94361 0.228531 0
M  V30 123 C 12.9538 -0.754656 3.49342 0
M  V30 124 C 12.6198 0.361445 4.49449 0
M  V30 125 C 11.2818 0.667893 4.76542 0
M  V30 126 C 13.6338 1.11322 5.09173 0
M  V30 127 C 10.9618 1.7296 5.60626 0
M  V30 128 C 13.3138 2.1647 5.9441 0
M  V30 129 C 11.9778 2.47742 6.19822 0
M  V30 130 H 11.2478 -0.122261 0.730844 0
M  V30 131 H 13.8948 0.395917 1.87363 0
M  V30 132 H 12.1998 -1.56446 3.5921 0
M  V30 133 H 13.8968 -1.24142 3.813 0
M  V30 134 H 10.4868 0.112481 4.28452 0
M  V30 135 H 14.6708 0.88973 4.8826 0
M  V30 136 H 9.9268 1.97684 5.78559 0
M  V30 137 H 14.1008 2.75193 6.3972 0
M  V30 138 H 11.7278 3.30145 6.84769 0
M  V30 139 N 13.3029 -1.57598 0.00835791 0
M  V30 140 C 14.2659 -2.07884 -0.965242 0
M  V30 141 C 15.2659 -0.989825 -1.26725 0
M  V30 142 O 16.4559 -1.25218 -1.21104 0
M  V30 143 C 13.5879 -2.52731 -2.28779 0
M  V30 144 H 14.7809 -2.95178 -0.530112 0
M  V30 145 H 12.3339 -1.54458 -0.239283 0
M  V30 146 H 13.0689 -1.68705 -2.76964 0
M  V30 147 H 12.8539 -3.32272 -2.08177 0
M  V30 148 H 14.3439 -2.91933 -2.98605 0
M  V30 149 N 14.781 0.264519 -1.55364 0
M  V30 150 C 16.058 1.01677 -1.67096 0
M  V30 151 C 16.438 2.03996 -0.543015 0
M  V30 152 O 15.786 2.23907 0.45585 0
M  V30 153 C 15.996 1.66596 -3.0667 0
M  V30 154 C 17.344 2.17442 -3.64697 0
M  V30 155 O 18.368 1.76568 -3.09358 0
M  V30 156 O 17.227 2.92439 -4.61673 0
M  V30 157 H 14.321 0.472161 -0.678965 0
M  V30 158 H 16.867 0.259703 -1.67701 0
M  V30 159 H 15.639 0.924962 -3.80211 0
M  V30 160 H 15.262 2.48968 -3.10001 0
M  V30 161 N 16.2591 1.48442 0.529413 0
M  V30 162 C 17.5051 1.5672 1.28711 0
M  V30 163 C 17.8381 0.2406 1.92704 0
M  V30 164 O 17.1131 -0.753454 1.79313 0
M  V30 165 C 17.3961 2.70587 2.37603 0
M  V30 166 C 17.2491 4.12953 1.78297 0
M  V30 167 C 18.5681 2.80212 3.39366 0
M  V30 168 H 15.6871 0.570474 0.466613 0
M  V30 169 H 18.3291 1.80617 0.589706 0
M  V30 170 H 16.4791 2.50342 2.97088 0
M  V30 171 H 18.1511 4.44639 1.22858 0
M  V30 172 H 16.3941 4.19927 1.0883 0
M  V30 173 H 17.0651 4.88448 2.57144 0
M  V30 174 H 19.5411 2.98553 2.89836 0
M  V30 175 H 18.4171 3.61611 4.12951 0
M  V30 176 H 18.6781 1.88393 3.99951 0
M  V30 177 N 17.7372 -0.778329 1.37039 0
M  V30 178 C 18.6472 -1.92253 1.34446 0
M  V30 179 C 19.6632 -1.72267 0.244991 0
M  V30 180 O 20.8392 -1.95615 0.479258 0
M  V30 181 C 17.9042 -3.27282 1.144 0
M  V30 182 C 16.9652 -3.59969 2.33925 0
M  V30 183 C 16.1982 -4.88555 2.14825 0
M  V30 184 O 16.4212 -5.59113 1.12912 0
M  V30 185 O 15.3552 -5.20153 3.02861 0
M  V30 186 H 19.1812 -1.97392 2.30803 0
M  V30 187 H 16.7662 -0.920154 1.17701 0
M  V30 188 H 18.6482 -4.08062 1.05182 0
M  V30 189 H 17.3232 -3.23011 0.211124 0
M  V30 190 H 16.2302 -2.7945 2.48714 0
M  V30 191 H 17.5632 -3.68976 3.25757 0
M  V30 192 N 19.2153 -1.21501 -1.00376 0
M  V30 193 C 20.1623 -0.975387 -2.09177 0
M  V30 194 C 21.1323 0.0990615 -1.65804 0
M  V30 195 O 22.3173 -0.0483147 -1.90739 0
M  V30 196 C 19.4573 -0.547507 -3.40729 0
M  V30 197 C 18.5703 -1.69153 -3.97506 0
M  V30 198 C 17.7053 -1.2127 -5.17172 0
M  V30 199 C 16.7443 -2.32897 -5.66061 0
M  V30 200 N 15.8813 -1.86138 -6.76976 0
M  V30 201 H 20.7213 -1.9068 -2.29009 0
M  V30 202 H 18.2583 -0.950257 -1.12288 0
M  V30 203 H 20.2163 -0.280667 -4.16255 0
M  V30 204 H 18.8463 0.346904 -3.20931 0
M  V30 205 H 17.8983 -2.07298 -3.18954 0
M  V30 206 H 19.2103 -2.5316 -4.29781 0
M  V30 207 H 18.3643 -0.902591 -5.99948 0
M  V30 208 H 17.1033 -0.342692 -4.86495 0
M  V30 209 H 16.1083 -2.64709 -4.81881 0
M  V30 210 H 17.3333 -3.20396 -5.98768 0
M  V30 211 H 15.2793 -1.01484 -6.48103 0
M  V30 212 H 15.1963 -2.63717 -7.08512 0
M  V30 213 H 16.4643 -1.58165 -7.63285 0
M  V30 214 N 20.6934 1.19889 -1.02296 0
M  V30 215 C 21.6564 2.21116 -0.603351 0
M  V30 216 C 22.6564 1.5738 0.329884 0
M  V30 217 O 23.8464 1.73802 0.117702 0
M  V30 218 C 20.9784 3.40696 0.117992 0
M  V30 219 H 22.1714 2.59754 -1.49893 0
M  V30 220 H 19.7244 1.33463 -0.813468 0
M  V30 221 H 20.4594 3.07569 1.0282 0
M  V30 222 H 20.2444 3.88188 -0.552511 0
M  V30 223 H 21.7344 4.15692 0.398696 0
M  V30 224 N 22.1715 0.800033 1.35784 0
M  V30 225 C 23.1215 0.178654 2.27299 0
M  V30 226 C 24.1055 -0.643667 1.47464 0
M  V30 227 O 25.2975 -0.502 1.69732 0
M  V30 228 C 22.4265 -0.677194 3.36555 0
M  V30 229 C 21.5125 0.154497 4.23818 0
M  V30 230 N 21.9035 1.21427 4.91008 0
M  V30 231 C 20.2015 -0.0649462 4.45953 0
M  V30 232 C 20.9025 1.72147 5.55644 0
M  V30 233 N 19.8785 1.02897 5.33773 0
M  V30 234 H 23.6805 0.989637 2.76737 0
M  V30 235 H 21.1945 0.64054 1.49234 0
M  V30 236 H 23.1915 -1.13835 4.01058 0
M  V30 237 H 21.8515 -1.4866 2.8867 0
M  V30 238 H 22.8625 1.59684 4.92668 0
M  V30 239 H 19.5395 -0.844016 4.0888 0
M  V30 240 H 20.9295 2.60683 6.19269 0
M  V30 241 N 23.6496 -1.47581 0.552962 0
M  V30 242 C 24.8986 -2.01684 0.0251995 0
M  V30 243 C 25.2116 -1.43317 -1.33115 0
M  V30 244 O 26.4176 -1.89057 -1.94858 0
M  V30 245 C 24.8736 -3.599 -0.00542052 0
M  V30 246 C 24.4816 -4.27257 1.34742 0
M  V30 247 C 26.2256 -4.21768 -0.4808 0
M  V30 248 C 24.1326 -5.77467 1.27614 0
M  V30 249 H 23.0626 -0.753979 0.00565033 0
M  V30 250 H 25.7136 -1.69616 0.70018 0
M  V30 251 H 24.0956 -3.88911 -0.745961 0
M  V30 252 H 25.2696 -4.09893 2.10534 0
M  V30 253 H 23.5846 -3.77358 1.76039 0
M  V30 254 H 26.1816 -5.31838 -0.55246 0
M  V30 255 H 26.5246 -3.88651 -1.49184 0
M  V30 256 H 27.0576 -3.97273 0.204752 0
M  V30 257 H 23.7966 -6.15196 2.26304 0
M  V30 258 H 23.3166 -5.9718 0.55996 0
M  V30 259 H 24.9956 -6.3959 0.976421 0
M  V30 260 N 25.1277 -0.289203 -1.54924 0
M  V30 261 C 26.0757 0.607966 -2.24514 0
M  V30 262 C 27.0697 1.14655 -1.24702 0
M  V30 263 O 28.2757 1.09856 -1.4259 0
M  V30 264 H 24.6507 0.21464 -0.720718 0
M  V30 265 H 26.6217 -0.00164182 -2.984 0
M  V30 266 C 25.3707 1.77406 -2.99036 0
M  V30 267 H 24.6937 1.36884 -3.75637 0
M  V30 268 H 26.1337 2.37814 -3.51028 0
M  V30 269 C 24.5927 2.67107 -2.05318 0
M  V30 270 O 25.1227 3.6787 -1.61353 0
M  V30 271 N 23.3287 2.34582 -1.71521 0
M  V30 272 H 22.8757 1.52688 -2.07471 0
M  V30 273 H 22.8337 2.94867 -1.0909 0
M  V30 274 N 26.6058 1.57591 -0.0167156 0
M  V30 275 C 27.8548 1.90461 0.663877 0
M  V30 276 C 28.1678 0.893515 1.73999 0
M  V30 277 O 29.3738 1.11302 2.47637 0
M  V30 278 C 27.8298 3.38155 1.23204 0
M  V30 279 C 27.4378 4.47597 0.189866 0
M  V30 280 C 29.1818 3.80111 1.88986 0
M  V30 281 C 27.0888 5.86379 0.768964 0
M  V30 282 H 26.0188 0.710738 0.251729 0
M  V30 283 H 28.6698 1.83326 -0.0799926 0
M  V30 284 H 27.0518 3.40182 2.02712 0
M  V30 285 H 28.2258 4.57112 -0.581846 0
M  V30 286 H 26.5408 4.14766 -0.368475 0
M  V30 287 H 29.1378 4.81145 2.33247 0
M  V30 288 H 29.4808 3.14511 2.72743 0
M  V30 289 H 30.0138 3.80454 1.16187 0
M  V30 290 H 26.7528 6.55493 -0.0301957 0
M  V30 291 H 26.2728 5.80496 1.50945 0
M  V30 292 H 27.9518 6.34563 1.26251 0
M  V30 293 N 28.0839 -0.256276 1.55502 0
M  V30 294 C 29.4999 -0.604325 1.47716 0
M  V30 295 C 29.6999 -1.88763 0.705039 0
M  V30 296 O 28.7559 -2.51445 0.230613 0
M  V30 297 C 30.0689 -0.715756 2.92057 0
M  V30 298 C 31.6169 -0.808706 3.02372 0
M  V30 299 C 32.0919 -0.951777 4.48001 0
M  V30 300 N 33.5829 -1.01688 4.519 0
M  V30 301 C 34.3179 -1.14668 5.61817 0
M  V30 302 N 33.8139 -1.24261 6.81565 0
M  V30 303 N 35.6069 -1.1791 5.49594 0
M  V30 304 H 27.7579 0.586291 2.04148 0
M  V30 305 H 30.0209 0.201015 0.926443 0
M  V30 306 H 29.7269 0.157027 3.51349 0
M  V30 307 H 29.6009 -1.59071 3.42018 0
M  V30 308 H 31.9879 -1.67195 2.43166 0
M  V30 309 H 32.0689 0.0912063 2.55637 0
M  V30 310 H 31.7129 -0.0931291 5.07815 0
M  V30 311 H 31.6429 -1.86659 4.92408 0
M  V30 312 H 34.1339 -0.954468 3.65648 0
M  V30 313 H 34.4469 -1.34046 7.61086 0
M  V30 314 H 32.7919 -1.21236 6.84344 0
M  V30 315 H 35.9829 -1.10057 4.54978 0
M  V30 316 H 36.1559 -1.27681 6.35296 0
M  V30 317 N 29.562 -1.4872 -0.521534 0
M  V30 318 C 30.839 -1.4766 -1.2828 0
M  V30 319 C 31.219 -0.19292 -2.10217 0
M  V30 320 O 30.567 0.825193 -2.13079 0
M  V30 321 C 30.777 -2.74358 -2.15705 0
M  V30 322 C 32.125 -3.23028 -2.75569 0
M  V30 323 O 33.149 -2.75333 -2.25987 0
M  V30 324 O 32.008 -4.0604 -3.65778 0
M  V30 325 H 29.102 -0.590085 -0.579421 0
M  V30 326 H 31.648 -1.60963 -0.537492 0
M  V30 327 H 30.42 -3.59292 -1.54999 0
M  V30 328 H 30.043 -2.63816 -2.97467 0
M  V30 329 N 31.0401 0.771051 -1.3745 0
M  V30 330 C 32.2651 1.56529 -1.36065 0
M  V30 331 C 32.6901 1.88029 0.0515859 0
M  V30 332 O 32.0481 1.49282 1.02882 0
M  V30 333 C 32.0961 2.85187 -2.20683 0
M  V30 334 O 31.2001 3.79593 -1.61193 0
M  V30 335 H 30.5411 0.47411 -0.464883 0
M  V30 336 H 33.0711 0.954269 -1.80983 0
M  V30 337 H 33.0811 3.34283 -2.33921 0
M  V30 338 H 31.7561 2.61588 -3.23334 0
M  V30 339 H 30.3331 3.38239 -1.56999 0
M  V30 340 N 32.5182 1.22032 0.997298 0
M  V30 341 C 33.7672 1.03637 1.73038 0
M  V30 342 C 34.0802 -0.429475 1.90827 0
M  V30 343 O 35.2862 -0.732995 2.61418 0
M  V30 344 C 33.7422 1.80582 3.11317 0
M  V30 345 C 33.3502 3.31387 3.01474 0
M  V30 346 C 35.0942 1.70621 3.88701 0
M  V30 347 C 33.0012 4.00791 4.3488 0
M  V30 348 H 31.9312 0.384179 0.648785 0
M  V30 349 H 34.5822 1.4584 1.11368 0
M  V30 350 H 32.9642 1.31175 3.73643 0
M  V30 351 H 34.1382 3.88155 2.4834 0
M  V30 352 H 32.4532 3.41976 2.37575 0
M  V30 353 H 35.0502 2.19799 4.87434 0
M  V30 354 H 35.3932 0.665823 4.10941 0
M  V30 355 H 35.9262 2.17547 3.33044 0
M  V30 356 H 32.6652 5.05064 4.1784 0
M  V30 357 H 32.1852 3.48811 4.87945 0
M  V30 358 H 33.8642 4.06139 5.03647 0
M  V30 359 N 33.9963 -1.19345 1.0293 0
M  V30 360 C 34.9463 -2.20472 0.58104 0
M  V30 361 C 35.9303 -1.56578 -0.370442 0
M  V30 362 O 37.1223 -1.75963 -0.191344 0
M  V30 363 C 34.2513 -3.43236 -0.066306 0
M  V30 364 C 33.3373 -4.14274 0.907642 0
M  V30 365 N 33.7283 -4.61492 2.07023 0
M  V30 366 C 32.0263 -4.39966 0.731177 0
M  V30 367 C 32.7273 -5.1605 2.68454 0
M  V30 368 N 31.7033 -5.06875 1.96414 0
M  V30 369 H 35.5053 -2.54659 1.46717 0
M  V30 370 H 33.0193 -1.35423 0.896345 0
M  V30 371 H 35.0163 -4.14927 -0.405068 0
M  V30 372 H 33.6763 -3.10549 -0.948118 0
M  V30 373 H 34.6873 -4.56304 2.44963 0
M  V30 374 H 31.3643 -4.17377 -0.101507 0
M  V30 375 H 32.7543 -5.6287 3.66915 0
M  V30 376 N 35.4744 -0.807222 -1.35358 0
M  V30 377 C 36.4044 -0.232509 -2.3234 0
M  V30 378 C 37.3854 0.642386 -1.57504 0
M  V30 379 O 38.5704 0.572526 -1.85569 0
M  V30 380 C 35.7004 0.619238 -3.41735 0
M  V30 381 C 34.6544 -0.157215 -4.27711 0
M  V30 382 C 33.9804 0.816273 -5.28433 0
M  V30 383 C 35.2804 -1.35656 -5.04376 0
M  V30 384 H 36.9744 -1.04276 -2.80654 0
M  V30 385 H 34.5204 -0.50288 -1.34934 0
M  V30 386 H 36.4734 1.03137 -4.08584 0
M  V30 387 H 35.1974 1.46239 -2.92031 0
M  V30 388 H 33.8564 -0.550525 -3.62443 0
M  V30 389 H 33.5044 1.65494 -4.74996 0
M  V30 390 H 33.2044 0.301067 -5.86828 0
M  V30 391 H 34.7284 1.22659 -5.98153 0
M  V30 392 H 36.1424 -1.01927 -5.64166 0
M  V30 393 H 34.5394 -1.8063 -5.7227 0
M  V30 394 H 35.6094 -2.14288 -4.34981 0
M  V30 395 N 36.9525 1.47285 -0.560781 0
M  V30 396 C 38.1805 2.06855 -0.0430262 0
M  V30 397 C 38.5955 1.41291 1.25229 0
M  V30 398 O 37.9525 0.510648 1.7521 0
M  V30 399 C 38.0035 3.61178 0.152518 0
M  V30 400 O 37.7245 4.24285 -1.0915 0
M  V30 401 C 39.2255 4.37624 0.707145 0
M  V30 402 H 36.4455 0.669319 -0.0474652 0
M  V30 403 H 38.9895 1.89237 -0.77521 0
M  V30 404 H 37.1445 3.78298 0.834843 0
M  V30 405 H 37.5585 5.16868 -0.891482 0
M  V30 406 H 39.0325 5.46271 0.793244 0
M  V30 407 H 39.5095 4.04152 1.71923 0
M  V30 408 H 40.1155 4.25257 0.0604027 0
M  V30 409 N 38.4306 0.297415 1.54768 0
M  V30 410 C 39.8416 -0.195947 1.85669 0
M  V30 411 C 40.1926 -1.53707 1.21937 0
M  V30 412 O 39.3176 -2.10164 0.515754 0
M  V30 413 C 39.9126 -0.362318 3.36857 0
M  V30 414 C 38.4716 -0.799901 3.67802 0
M  V30 415 C 37.6186 0.0938578 2.77141 0
M  V30 416 H 40.5696 0.518538 1.4999 0
M  V30 417 H 40.5906 -1.19745 3.61167 0
M  V30 418 H 40.1026 0.613921 3.83214 0
M  V30 419 H 38.2036 -1.78682 3.26961 0
M  V30 420 H 38.3166 -0.621773 4.75048 0
M  V30 421 H 36.6806 -0.426254 2.51108 0
M  V30 422 H 37.4636 1.06639 3.26318 0
M  V30 423 N 39.9087 -1.5758 0.0250728 0
M  V30 424 C 41.1547 -1.91917 -0.655413 0
M  V30 425 C 41.4877 -0.901433 -1.72011 0
M  V30 426 O 40.7627 0.0764069 -1.9435 0
M  V30 427 C 41.0457 -3.36751 -1.27558 0
M  V30 428 C 40.8987 -4.49258 -0.220719 0
M  V30 429 C 42.2177 -3.81469 -2.19475 0
M  V30 430 H 39.3367 -0.697925 -0.23679 0
M  V30 431 H 41.9787 -1.89825 0.0815036 0
M  V30 432 H 40.1287 -3.38664 -1.90365 0
M  V30 433 H 41.8007 -4.59478 0.409601 0
M  V30 434 H 40.0437 -4.31415 0.454264 0
M  V30 435 H 40.7147 -5.47618 -0.694175 0
M  V30 436 H 43.1907 -3.81266 -1.66659 0
M  V30 437 H 42.0667 -4.83512 -2.59822 0
M  V30 438 H 42.3277 -3.16744 -3.08424 0
M  V30 439 N 41.3868 0.248026 -1.55636 0
M  V30 440 C 42.3168 1.31079 -1.93237 0
M  V30 441 C 43.2978 1.50264 -0.797174 0
M  V30 442 O 44.4828 1.62891 -1.05737 0
M  V30 443 C 41.6128 2.66575 -2.22609 0
M  V30 444 C 40.5668 2.62087 -3.3837 0
M  V30 445 C 39.8928 4.01369 -3.53281 0
M  V30 446 C 41.1928 2.19171 -4.7409 0
M  V30 447 H 42.8868 0.998556 -2.82257 0
M  V30 448 H 40.4328 0.47891 -1.35803 0
M  V30 449 H 42.3858 3.41057 -2.47503 0
M  V30 450 H 41.1098 2.99432 -1.30414 0
M  V30 451 H 39.7688 1.90063 -3.13483 0
M  V30 452 H 39.4168 4.31489 -2.58508 0
M  V30 453 H 39.1168 3.99254 -4.31127 0
M  V30 454 H 40.6408 4.77552 -3.80495 0
M  V30 455 H 42.0548 2.83384 -4.98363 0
M  V30 456 H 40.4518 2.2817 -5.5503 0
M  V30 457 H 41.5218 1.14336 -4.71227 0
M  V30 458 N 42.8649 1.48995 0.513639 0
M  V30 459 C 44.0929 1.61531 1.29288 0
M  V30 460 C 44.5079 0.281801 1.86685 0
M  V30 461 O 43.8649 -0.731111 1.67215 0
M  V30 462 C 43.9159 2.67449 2.43215 0
M  V30 463 O 43.6369 3.95626 1.88179 0
M  V30 464 C 45.1379 2.90575 3.34785 0
M  V30 465 H 42.3579 0.544165 0.392588 0
M  V30 466 H 44.9019 1.9494 0.617956 0
M  V30 467 H 43.0569 2.36853 3.0656 0
M  V30 468 H 43.4709 4.53868 2.62876 0
M  V30 469 H 44.9449 3.68449 4.11035 0
M  V30 470 H 45.4219 2.00011 3.91015 0
M  V30 471 H 46.0279 3.22538 2.77218 0
M  V30 472 N 44.343 -0.763751 1.37857 0
M  V30 473 C 45.568 -1.55805 1.36893 0
M  V30 474 C 45.993 -1.88054 -0.0416135 0
M  V30 475 O 45.351 -1.49825 -1.02089 0
M  V30 476 C 45.399 -2.84012 2.22192 0
M  V30 477 O 44.503 -3.78732 1.63204 0
M  V30 478 H 43.844 -0.471638 0.46739 0
M  V30 479 H 46.374 -0.944657 1.81487 0
M  V30 480 H 46.384 -3.33037 2.35691 0
M  V30 481 H 45.059 -2.59869 3.24716 0
M  V30 482 H 43.636 -3.37402 1.58791 0
M  V30 483 N 45.8211 -1.22559 -0.990812 0
M  V30 484 C 47.0461 -1.07862 -1.77145 0
M  V30 485 C 47.4711 0.366447 -1.84496 0
M  V30 486 O 46.8291 1.26478 -1.29896 0
M  V30 487 C 46.8771 -1.69686 -3.18181 0
M  V30 488 O 45.9811 -0.951946 -4.01263 0
M  V30 489 H 45.3221 -0.378712 -0.545411 0
M  V30 490 H 47.8521 -1.62399 -1.2445 0
M  V30 491 H 47.8621 -1.74496 -3.68802 0
M  V30 492 H 46.5371 -2.74841 -3.12146 0
M  V30 493 H 45.1141 -0.980011 -3.59792 0
M  V30 494 N 47.2992 1.18797 -1.03562 0
M  V30 495 C 48.5482 1.87978 -0.731235 0
M  V30 496 C 48.8612 1.80911 0.743671 0
M  V30 497 O 50.0672 2.45407 1.16137 0
M  V30 498 C 48.5232 3.3721 -1.25768 0
M  V30 499 C 48.1312 3.52818 -2.76085 0
M  V30 500 C 49.8752 4.11825 -1.0296 0
M  V30 501 C 47.7822 4.9598 -3.22114 0
M  V30 502 H 46.7122 0.704063 -0.269835 0
M  V30 503 H 49.3632 1.34266 -1.25079 0
M  V30 504 H 47.7452 3.90359 -0.666011 0
M  V30 505 H 48.9192 3.09965 -3.40966 0
M  V30 506 H 47.2342 2.91602 -2.97249 0
M  V30 507 H 49.8312 5.17411 -1.34869 0
M  V30 508 H 50.1742 4.16287 0.0333546 0
M  V30 509 H 50.7072 3.64833 -1.58562 0
M  V30 510 H 47.4462 4.96684 -4.27768 0
M  V30 511 H 46.9662 5.39569 -2.61965 0
M  V30 512 H 48.6452 5.6467 -3.15844 0
M  V30 513 N 48.7773 0.814389 1.34928 0
M  V30 514 C 49.7073 0.244827 2.32213 0
M  V30 515 C 50.6883 -0.634024 1.57842 0
M  V30 516 O 51.8733 -0.562676 1.8587 0
M  V30 517 C 49.0033 -0.601106 3.42058 0
M  V30 518 C 47.9573 0.179896 4.27622 0
M  V30 519 C 47.2833 -0.788237 5.28858 0
M  V30 520 C 48.5833 1.38329 5.03649 0
M  V30 521 H 50.2773 1.05763 2.80097 0
M  V30 522 H 47.8233 0.510029 1.34665 0
M  V30 523 H 49.7763 -1.00968 4.09125 0
M  V30 524 H 48.5003 -1.44688 2.92802 0
M  V30 525 H 47.1593 0.569739 3.62146 0
M  V30 526 H 46.8073 -1.62973 4.75866 0
M  V30 527 H 46.5073 -0.269942 5.8698 0
M  V30 528 H 48.0313 -1.19485 5.98795 0
M  V30 529 H 49.4453 1.04918 5.63618 0
M  V30 530 H 47.8423 1.83662 5.71304 0
M  V30 531 H 48.9123 2.16592 4.33839 0
M  V30 532 N 50.2554 -1.46986 0.568584 0
M  V30 533 C 51.2034 -2.31858 -0.185649 0
M  V30 534 C 52.1974 -1.43624 -0.898249 0
M  V30 535 O 53.4034 -1.60327 -0.818242 0
M  V30 536 H 49.7784 -0.747866 -0.0787399 0
M  V30 537 H 51.7494 -2.93303 0.549191 0
M  V30 538 C 50.4984 -3.26513 -1.19519 0
M  V30 539 H 49.8214 -3.94377 -0.656285 0
M  V30 540 H 51.2614 -3.88707 -1.6936 0
M  V30 541 C 49.7204 -2.50847 -2.24894 0
M  V30 542 O 50.2504 -2.26119 -3.32014 0
M  V30 543 N 48.4564 -2.11656 -1.99124 0
M  V30 544 H 48.0034 -2.31966 -1.12024 0
M  V30 545 H 47.9614 -1.61347 -2.69842 0
M  V30 546 N 51.7335 -0.305618 -1.54608 0
M  V30 547 C 52.6655 0.602161 -2.21149 0
M  V30 548 C 53.6785 1.09394 -1.20569 0
M  V30 549 O 54.8675 1.0106 -1.47136 0
M  V30 550 C 51.9675 1.83692 -2.84799 0
M  V30 551 C 51.1405 1.48686 -4.11353 0
M  V30 552 C 50.1995 2.57725 -4.58764 0
M  V30 553 O 49.2255 2.22623 -5.23858 0
M  V30 554 N 50.4275 3.88346 -4.31471 0
M  V30 555 H 53.1925 0.0324966 -2.99682 0
M  V30 556 H 50.7535 -0.128021 -1.61393 0
M  V30 557 H 52.7455 2.55994 -3.13448 0
M  V30 558 H 51.3155 2.31486 -2.10078 0
M  V30 559 H 50.5355 0.596269 -3.89664 0
M  V30 560 H 51.8235 1.22842 -4.93748 0
M  V30 561 H 51.2215 4.19671 -3.79331 0
M  V30 562 H 49.7785 4.56932 -4.64818 0
M  V30 563 N 53.2116 1.57565 -0.0334293 0
M  V30 564 C 54.1416 2.13511 0.945265 0
M  V30 565 C 55.1226 1.05231 1.33643 0
M  V30 566 O 56.3076 1.33084 1.41429 0
M  V30 567 C 53.4376 2.6657 2.22616 0
M  V30 568 C 52.3916 3.79676 1.97561 0
M  V30 569 C 51.7176 4.1918 3.31952 0
M  V30 570 C 53.0176 5.0557 1.31135 0
M  V30 571 H 54.7116 2.95538 0.479325 0
M  V30 572 H 52.2576 1.42166 0.229115 0
M  V30 573 H 54.2106 3.04344 2.91466 0
M  V30 574 H 52.9346 1.8171 2.71384 0
M  V30 575 H 51.5936 3.42347 1.31127 0
M  V30 576 H 51.2416 3.31296 3.78487 0
M  V30 577 H 50.9416 4.95402 3.15992 0
M  V30 578 H 52.4656 4.59541 4.02063 0
M  V30 579 H 53.8796 5.40903 1.89992 0
M  V30 580 H 52.2766 5.86818 1.25559 0
M  V30 581 H 53.3466 4.84062 0.284894 0
M  V30 582 N 54.6897 -0.239769 1.55765 0
M  V30 583 C 55.9177 -0.98417 1.81994 0
M  V30 584 C 56.3327 -1.7867 0.610124 0
M  V30 585 O 55.6897 -1.77571 -0.421271 0
M  V30 586 C 55.7407 -1.91635 3.06526 0
M  V30 587 O 55.4617 -1.14629 4.22838 0
M  V30 588 C 56.9627 -2.77616 3.45607 0
M  V30 589 H 54.1827 -0.28928 0.605441 0
M  V30 590 H 56.7267 -0.260499 2.02834 0
M  V30 591 H 54.8817 -2.5942 2.87715 0
M  V30 592 H 55.2957 -1.77745 4.93464 0
M  V30 593 H 56.7697 -3.38759 4.35828 0
M  V30 594 H 57.2467 -3.4909 2.6652 0
M  V30 595 H 57.8527 -2.15271 3.66795 0
M  V30 596 N 56.1678 -1.49265 -0.50573 0
M  V30 597 C 57.4158 -1.582 -1.25766 0
M  V30 598 C 57.7368 -0.268482 -1.93143 0
M  V30 599 O 57.0068 0.711833 -1.8251 0
M  V30 600 H 55.5868 -0.582873 -0.467191 0
M  V30 601 H 58.2488 -1.85865 -0.586525 0
M  V30 602 H 57.3448 -2.37563 -2.02412 0
M  V30 603 N 57.6459 0.756429 -1.3826 0
M  V30 604 C 59.0619 1.0591 -1.19395 0
M  V30 605 C 59.2619 2.01459 -0.0406567 0
M  V30 606 O 58.3179 2.44909 0.614467 0
M  V30 607 C 59.6309 1.64191 -2.51916 0
M  V30 608 C 61.1789 1.76376 -2.58574 0
M  V30 609 C 61.6539 2.38069 -3.91264 0
M  V30 610 N 63.1449 2.45503 -3.92788 0
M  V30 611 C 63.8799 2.94126 -4.92217 0
M  V30 612 N 63.3759 3.42805 -6.02043 0
M  V30 613 N 65.1689 2.9314 -4.7961 0
M  V30 614 H 57.3199 0.122313 -2.12048 0
M  V30 615 H 59.5829 0.116892 -0.940766 0
M  V30 616 H 59.2889 1.01451 -3.3675 0
M  V30 617 H 59.1629 2.6329 -2.70108 0
M  V30 618 H 61.5499 2.38244 -1.74137 0
M  V30 619 H 61.6309 0.759894 -2.44252 0
M  V30 620 H 61.2749 1.76835 -4.76121 0
M  V30 621 H 61.2049 3.39091 -4.02895 0
M  V30 622 H 63.6959 2.1107 -3.13461 0
M  V30 623 H 64.0089 3.78354 -6.73846 0
M  V30 624 H 62.3539 3.4087 -6.05667 0
M  V30 625 H 65.5449 2.54419 -3.92923 0
M  V30 626 H 65.7179 3.30721 -5.5725 0
M  V30 627 N 59.124 1.23083 0.984299 0
M  V30 628 C 60.072 1.00593 2.09723 0
M  V30 629 C 61.066 -0.0538014 1.69315 0
M  V30 630 O 62.272 0.0993719 1.79725 0
M  V30 631 H 58.647 0.30817 0.685956 0
M  V30 632 H 60.618 1.95012 2.2586 0
M  V30 633 C 59.367 0.609601 3.42314 0
M  V30 634 H 58.69 1.41675 3.73856 0
M  V30 635 H 60.13 0.491726 4.21139 0
M  V30 636 C 58.589 -0.681745 3.2993 0
M  V30 637 O 59.119 -1.73192 3.62446 0
M  V30 638 N 57.325 -0.656178 2.83095 0
M  V30 639 H 56.872 0.198759 2.56832 0
M  V30 640 H 56.83 -1.52044 2.75191 0
M  V30 641 N 60.6021 -1.18246 1.0419 0
M  V30 642 C 61.5321 -2.24127 0.654914 0
M  V30 643 C 62.5131 -1.66617 -0.342451 0
M  V30 644 O 63.6981 -1.92924 -0.222277 0
M  V30 645 C 60.8281 -3.47295 0.0183757 0
M  V30 646 C 59.7821 -4.17563 0.939414 0
M  V30 647 C 59.1081 -5.34438 0.167286 0
M  V30 648 C 60.4081 -4.70917 2.25908 0
M  V30 649 H 62.1021 -2.56753 1.54007 0
M  V30 650 H 59.6481 -1.23414 0.74195 0
M  V30 651 H 61.6011 -4.20572 -0.264082 0
M  V30 652 H 60.3251 -3.13907 -0.901664 0
M  V30 653 H 58.9841 -3.46186 1.20628 0
M  V30 654 H 58.6321 -4.97298 -0.7552 0
M  V30 655 H 58.3321 -5.82388 0.780901 0
M  V30 656 H 59.8561 -6.10504 -0.108125 0
M  V30 657 H 61.2701 -5.35882 2.03724 0
M  V30 658 H 59.6671 -5.29406 2.82577 0
M  V30 659 H 60.7371 -3.88272 2.9047 0
M  V30 660 N 62.0802 -0.821533 -1.34494 0
M  V30 661 C 63.3272 -0.408946 -1.98328 0
M  V30 662 C 63.6552 1.02764 -1.65136 0
M  V30 663 O 62.9102 1.73026 -0.914349 0
M  V30 664 C 63.2092 -0.556512 -3.53041 0
M  V30 665 C 62.8752 -1.95861 -4.0614 0
M  V30 666 C 61.5372 -2.34217 -4.20352 0
M  V30 667 C 63.8892 -2.87523 -4.34718 0
M  V30 668 C 61.2172 -3.63572 -4.6047 0
M  V30 669 C 63.5692 -4.1634 -4.76281 0
M  V30 670 C 62.2332 -4.54675 -4.88699 0
M  V30 671 H 61.5032 -0.149644 -0.725732 0
M  V30 672 H 64.1502 -1.04521 -1.6046 0
M  V30 673 H 62.4552 0.163148 -3.9146 0
M  V30 674 H 64.1522 -0.217826 -4.00408 0
M  V30 675 H 60.7422 -1.65066 -3.95539 0
M  V30 676 H 64.9262 -2.59133 -4.23277 0
M  V30 677 H 60.1822 -3.93101 -4.68275 0
M  V30 678 H 64.3562 -4.87455 -4.97354 0
M  V30 679 H 61.9832 -5.54959 -5.19542 0
M  V30 680 N 63.5583 1.46682 -0.576371 0
M  V30 681 C 64.8053 2.02412 -0.0595339 0
M  V30 682 C 65.1333 1.44859 1.29793 0
M  V30 683 O 64.3883 0.601099 1.8624 0
M  V30 684 C 64.6873 3.57345 0.062886 0
M  V30 685 C 64.3533 4.33908 -1.22616 0
M  V30 686 C 63.0153 4.54544 -1.57933 0
M  V30 687 C 65.3673 4.77919 -2.07948 0
M  V30 688 C 62.6953 5.16444 -2.78393 0
M  V30 689 C 65.0473 5.41149 -3.27629 0
M  V30 690 C 63.7113 5.60014 -3.63236 0
M  V30 691 H 62.9813 0.74068 -0.021785 0
M  V30 692 H 65.6283 1.76128 -0.751735 0
M  V30 693 H 63.9333 3.82729 0.838178 0
M  V30 694 H 65.6303 3.98136 0.478439 0
M  V30 695 H 62.2203 4.18138 -0.941202 0
M  V30 696 H 66.4043 4.61738 -1.81967 0
M  V30 697 H 61.6603 5.29242 -3.06126 0
M  V30 698 H 65.8343 5.74211 -3.94023 0
M  V30 699 H 63.4613 6.07748 -4.56669 0
M  V30 700 N 65.0364 0.313813 1.54444 0
M  V30 701 C 65.9834 -0.55655 2.23989 0
M  V30 702 C 66.9534 -1.11943 1.22711 0
M  V30 703 O 68.1384 -1.16158 1.51367 0
M  V30 704 C 65.2784 -1.71635 2.99392 0
M  V30 705 C 64.3914 -1.18364 4.15468 0
M  V30 706 C 63.5264 -2.30834 4.78424 0
M  V30 707 C 62.5654 -1.74762 5.86622 0
M  V30 708 N 61.7024 -2.80855 6.43479 0
M  V30 709 H 66.5424 0.0430893 2.97969 0
M  V30 710 H 64.0794 0.0330359 1.47063 0
M  V30 711 H 66.0374 -2.39868 3.41349 0
M  V30 712 H 64.6674 -2.28742 2.27765 0
M  V30 713 H 63.7194 -0.393163 3.78363 0
M  V30 714 H 65.0314 -0.733262 4.93381 0
M  V30 715 H 64.1854 -3.0699 5.23299 0
M  V30 716 H 62.9244 -2.79204 3.99871 0
M  V30 717 H 61.9294 -0.970995 5.41158 0
M  V30 718 H 63.1544 -1.2728 6.67066 0
M  V30 719 H 61.1004 -3.28535 5.67804 0
M  V30 720 H 61.0174 -2.40351 7.16776 0
M  V30 721 H 62.2854 -3.5687 6.93011 0
M  V30 722 N 66.5145 -1.57545 0.0417849 0
M  V30 723 C 67.7545 -1.94185 -0.63809 0
M  V30 724 C 68.1185 -0.919339 -1.68559 0
M  V30 725 O 69.3195 -1.17236 -2.41886 0
M  V30 726 C 67.5905 -3.35672 -1.22714 0
M  V30 727 S 69.1495 -3.94256 -1.92633 0
M  V30 728 H 65.9675 -0.679353 -0.209764 0
M  V30 729 H 68.5695 -1.95199 0.108479 0
M  V30 730 H 67.2735 -4.07898 -0.452503 0
M  V30 731 H 66.8045 -3.38132 -2.01073 0
M  V30 732 H 68.8195 -3.7872 -3.20602 0
M  V30 733 N 67.9926 0.231505 -1.5589 0
M  V30 734 C 68.9026 1.308 -1.94752 0
M  V30 735 C 69.9186 1.51826 -0.849989 0
M  V30 736 O 71.0946 1.6515 -1.15271 0
M  V30 737 C 68.1596 2.63968 -2.24771 0
M  V30 738 C 67.2206 2.51331 -3.48039 0
M  V30 739 C 66.4536 3.78148 -3.76616 0
M  V30 740 O 66.6766 4.80722 -3.07022 0
M  V30 741 O 65.6106 3.75857 -4.70123 0
M  V30 742 H 69.4366 1.0083 -2.86474 0
M  V30 743 H 67.0216 0.433547 -1.42971 0
M  V30 744 H 68.9036 3.42633 -2.45318 0
M  V30 745 H 67.5786 2.9364 -1.36225 0
M  V30 746 H 66.4856 1.709 -3.32782 0
M  V30 747 H 67.8186 2.26601 -4.36936 0
M  V30 748 N 69.4707 1.49531 0.497807 0
M  V30 749 C 70.4007 1.6935 1.60757 0
M  V30 750 C 71.3817 0.542218 1.61227 0
M  V30 751 O 72.5667 0.778417 1.77917 0
M  V30 752 C 69.6967 1.76298 2.99226 0
M  V30 753 C 68.6507 2.91248 3.13622 0
M  V30 754 C 67.9767 2.83312 4.53474 0
M  V30 755 C 69.2767 4.3214 2.93346 0
M  V30 756 H 70.9707 2.62263 1.44425 0
M  V30 757 H 68.5167 1.26208 0.693367 0
M  V30 758 H 70.4697 1.88749 3.76765 0
M  V30 759 H 69.1937 0.799871 3.16654 0
M  V30 760 H 67.8527 2.78404 2.38509 0
M  V30 761 H 67.5007 1.84902 4.67782 0
M  V30 762 H 67.2007 3.60465 4.64046 0
M  V30 763 H 68.7247 2.97775 5.33069 0
M  V30 764 H 70.1387 4.45649 3.60652 0
M  V30 765 H 68.5357 5.1054 3.15387 0
M  V30 766 H 69.6057 4.46363 1.89441 0
M  V30 767 N 70.9488 -0.749086 1.3866 0
M  V30 768 C 72.1958 -1.50833 1.35114 0
M  V30 769 C 72.5238 -1.94415 -0.0574049 0
M  V30 770 O 71.7788 -1.66065 -1.03541 0
M  V30 771 C 72.0778 -2.7712 2.25697 0
M  V30 772 C 71.7438 -2.52477 3.73585 0
M  V30 773 C 70.4058 -2.45466 4.13884 0
M  V30 774 C 72.7578 -2.31066 4.67181 0
M  V30 775 C 70.0858 -2.15064 5.45861 0
M  V30 776 C 72.4378 -2.02183 5.9942 0
M  V30 777 C 71.1018 -1.93631 6.38798 0
M  V30 778 H 70.3718 -0.551936 0.494416 0
M  V30 779 H 73.0188 -0.860979 1.71054 0
M  V30 780 H 71.3238 -3.46528 1.82827 0
M  V30 781 H 73.0208 -3.35096 2.20254 0
M  V30 782 H 69.6108 -2.58807 3.41638 0
M  V30 783 H 73.7948 -2.35459 4.3689 0
M  V30 784 H 69.0508 -2.06954 5.75308 0
M  V30 785 H 73.2248 -1.8462 6.71482 0
M  V30 786 H 70.8518 -1.69839 7.40985 0
M  V30 787 N 72.4269 -1.23603 -0.977757 0
M  V30 788 C 73.3589 -0.977369 -2.07317 0
M  V30 789 C 74.3719 0.0495845 -1.62724 0
M  V30 790 O 75.5609 -0.186261 -1.77526 0
M  V30 791 C 72.6609 -0.451216 -3.35883 0
M  V30 792 C 71.8339 -1.53896 -4.09432 0
M  V30 793 C 70.8929 -1.01721 -5.16274 0
M  V30 794 O 69.9189 -1.70676 -5.43009 0
M  V30 795 N 71.1209 0.153594 -5.80297 0
M  V30 796 H 73.8859 -1.92047 -2.30082 0
M  V30 797 H 71.4469 -1.14497 -1.14465 0
M  V30 798 H 73.4389 -0.0871574 -4.04606 0
M  V30 799 H 72.0089 0.397368 -3.10064 0
M  V30 800 H 71.2289 -2.07566 -3.35127 0
M  V30 801 H 72.5169 -2.27037 -4.55337 0
M  V30 802 H 71.9149 0.730323 -5.60966 0
M  V30 803 H 70.4719 0.458892 -6.50183 0
M  V30 804 N 73.905 1.17692 -1.04816 0
M  V30 805 C 74.852 2.21581 -0.645797 0
M  V30 806 C 75.822 1.62367 0.350159 0
M  V30 807 O 77.007 1.89254 0.242433 0
M  V30 808 C 74.147 3.45092 -0.0227568 0
M  V30 809 C 73.26 4.18613 -1.06709 0
M  V30 810 C 72.395 5.29602 -0.411767 0
M  V30 811 C 71.434 5.94904 -1.44067 0
M  V30 812 N 70.571 6.97414 -0.809781 0
M  V30 813 H 75.411 2.55353 -1.5362 0
M  V30 814 H 72.948 1.25438 -0.768364 0
M  V30 815 H 74.906 4.15679 0.35588 0
M  V30 816 H 73.536 3.11917 0.831122 0
M  V30 817 H 72.588 3.46779 -1.5636 0
M  V30 818 H 73.9 4.63293 -1.84827 0
M  V30 819 H 73.054 6.06696 0.0206623 0
M  V30 820 H 71.793 4.86045 0.401438 0
M  V30 821 H 70.798 5.16544 -1.88316 0
M  V30 822 H 72.023 6.40542 -2.25571 0
M  V30 823 H 69.969 6.55998 -0.0170186 0
M  V30 824 H 69.886 7.40386 -1.52856 0
M  V30 825 H 71.154 7.78463 -0.401999 0
M  V30 826 N 75.3831 0.828654 1.34056 0
M  V30 827 C 76.6111 0.43262 2.02326 0
M  V30 828 C 77.0261 -0.963147 1.62385 0
M  V30 829 O 76.3831 -1.62425 0.832121 0
M  V30 830 C 76.4341 0.53182 3.57567 0
M  V30 831 O 76.1551 1.87258 3.96063 0
M  V30 832 C 77.6561 0.131422 4.43105 0
M  V30 833 H 74.8761 0.172923 0.648335 0
M  V30 834 H 77.4201 1.1184 1.71208 0
M  V30 835 H 75.5751 -0.105938 3.87255 0
M  V30 836 H 75.9891 1.85087 4.90758 0
M  V30 837 H 77.4631 0.251904 5.51425 0
M  V30 838 H 77.9401 -0.925645 4.29335 0
M  V30 839 H 78.5461 0.743207 4.18756 0
M  V30 840 N 76.8612 -1.46375 0.584142 0
M  V30 841 C 78.1092 -2.01978 0.0701287 0
M  V30 842 C 78.4302 -1.4579 -1.295 0
M  V30 843 O 77.7002 -0.64314 -1.85042 0
M  V30 844 H 76.2802 -0.746648 0.0229345 0
M  V30 845 H 78.9422 -1.79461 0.760245 0
M  V30 846 H 78.0382 -3.121 0.0022064 0
M  V30 847 N 78.3393 -0.321999 -1.54275 0
M  V30 848 C 79.5643 0.285791 -2.05422 0
M  V30 849 C 79.9893 1.45124 -1.19669 0
M  V30 850 O 79.3473 1.80132 -0.205441 0
M  V30 851 C 79.3953 0.69956 -3.53749 0
M  V30 852 O 78.4993 1.8021 -3.70942 0
M  V30 853 H 77.8403 0.0518962 -0.661969 0
M  V30 854 H 80.3703 -0.469954 -1.9913 0
M  V30 855 H 80.3803 0.982649 -3.9599 0
M  V30 856 H 79.0553 -0.152864 -4.15619 0
M  V30 857 H 77.6323 1.51794 -3.40607 0
M  V30 858 N 79.8174 1.5752 -0.0501392 0
M  V30 859 C 81.0644 1.9265 0.623874 0
M  V30 860 C 81.3924 0.928411 1.70912 0
M  V30 861 O 80.6474 -0.0594525 1.9561 0
M  V30 862 C 80.9464 3.34467 1.25963 0
M  V30 863 C 80.6124 4.49883 0.302689 0
M  V30 864 C 79.2744 4.81184 0.0393636 0
M  V30 865 C 81.6264 5.20002 -0.353205 0
M  V30 866 C 78.9544 5.79951 -0.887308 0
M  V30 867 C 81.3064 6.1976 -1.26806 0
M  V30 868 C 79.9704 6.49491 -1.54007 0
M  V30 869 H 79.2404 0.704957 0.228292 0
M  V30 870 H 81.8874 1.91146 -0.116398 0
M  V30 871 H 80.1924 3.32333 2.07514 0
M  V30 872 H 81.8894 3.58928 1.78806 0
M  V30 873 H 78.4794 4.25457 0.518109 0
M  V30 874 H 82.6634 4.96033 -0.162854 0
M  V30 875 H 77.9194 6.01322 -1.10553 0
M  V30 876 H 82.0934 6.73205 -1.78236 0
M  V30 877 H 79.7204 7.25837 -2.25976 0
M  V30 878 N 81.2955 -0.223234 1.56011 0
M  V30 879 C 82.2425 -1.27664 1.92277 0
M  V30 880 C 83.2125 -1.46659 0.779763 0
M  V30 881 O 84.3975 -1.60256 1.03551 0
M  V30 882 C 81.5375 -2.62234 2.24338 0
M  V30 883 C 80.6505 -2.51051 3.51564 0
M  V30 884 C 79.7855 -3.78133 3.7308 0
M  V30 885 C 78.8245 -3.61665 4.93827 0
M  V30 886 N 77.9615 -4.80693 5.11741 0
M  V30 887 H 82.8015 -0.960358 2.82101 0
M  V30 888 H 80.3385 -0.462901 1.39627 0
M  V30 889 H 82.2965 -3.40596 2.40936 0
M  V30 890 H 80.9265 -2.91961 1.3769 0
M  V30 891 H 79.9785 -1.64132 3.43169 0
M  V30 892 H 81.2905 -2.34803 4.40079 0
M  V30 893 H 80.4445 -4.64938 3.89766 0
M  V30 894 H 79.1835 -3.97304 2.82844 0
M  V30 895 H 78.1885 -2.73244 4.77093 0
M  V30 896 H 79.4135 -3.43966 5.85546 0
M  V30 897 H 77.3595 -5.00181 4.24446 0
M  V30 898 H 77.2765 -4.67165 5.94384 0
M  V30 899 H 78.5445 -5.6893 5.3286 0
M  V30 900 N 82.7736 -1.49793 -0.48987 0
M  V30 901 C 84.0226 -1.59085 -1.23995 0
M  V30 902 C 84.3356 -0.287907 -1.9347 0
M  V30 903 O 85.5416 -0.259506 -2.70257 0
M  V30 904 C 83.9976 -2.80736 -2.252 0
M  V30 905 C 83.6056 -4.17833 -1.61614 0
M  V30 906 C 85.3496 -2.99364 -3.00967 0
M  V30 907 C 83.2566 -5.30693 -2.60996 0
M  V30 908 H 82.1866 -0.592372 -0.466488 0
M  V30 909 H 84.8376 -1.76197 -0.51252 0
M  V30 910 H 83.2196 -2.57142 -3.01154 0
M  V30 911 H 84.3936 -4.51608 -0.915774 0
M  V30 912 H 82.7086 -4.04656 -0.981977 0
M  V30 913 H 85.3056 -3.80851 -3.75308 0
M  V30 914 H 85.6486 -2.10356 -3.59244 0
M  V30 915 H 86.1816 -3.2305 -2.32128 0
M  V30 916 H 82.9206 -6.21796 -2.07485 0
M  V30 917 H 82.4406 -5.01359 -3.2924 0
M  V30 918 H 84.1196 -5.6049 -3.23202 0
M  V30 919 N 84.2517 0.741722 -1.39055 0
M  V30 920 C 85.6677 1.04638 -1.20512 0
M  V30 921 C 85.8677 2.01405 -0.0620218 0
M  V30 922 O 84.9237 2.45547 0.588457 0
M  V30 923 C 86.2367 1.6151 -2.53643 0
M  V30 924 C 87.7847 1.73623 -2.6043 0
M  V30 925 C 88.2597 2.33906 -3.93767 0
M  V30 926 N 89.7507 2.41323 -3.9537 0
M  V30 927 C 90.4857 2.88888 -4.95309 0
M  V30 928 N 89.9817 3.36401 -6.05645 0
M  V30 929 N 91.7747 2.88037 -4.82692 0
M  V30 930 H 83.9257 0.0998155 -2.12165 0
M  V30 931 H 86.1887 0.106907 -0.941953 0
M  V30 932 H 85.8947 0.978739 -3.37807 0
M  V30 933 H 85.7687 2.60411 -2.72885 0
M  V30 934 H 88.1557 2.36384 -1.76655 0
M  V30 935 H 88.2367 0.733945 -2.45045 0
M  V30 936 H 87.8807 1.71776 -4.7797 0
M  V30 937 H 87.8107 3.34799 -4.06469 0
M  V30 938 H 90.3017 2.07734 -3.15682 0
M  V30 939 H 90.6147 3.71186 -6.77821 0
M  V30 940 H 88.9597 3.34427 -6.09248 0
M  V30 941 H 92.1507 2.50237 -3.95599 0
M  V30 942 H 92.3237 3.24792 -5.60726 0
M  V30 943 N 85.7298 1.2412 0.971189 0
M  V30 944 C 86.9778 1.07668 1.71032 0
M  V30 945 C 87.2988 -0.385797 1.91146 0
M  V30 946 O 86.5688 -1.27569 1.4867 0
M  V30 947 H 85.1488 0.395429 0.633755 0
M  V30 948 H 87.8108 1.55984 1.16855 0
M  V30 949 H 86.9068 1.57195 2.69622 0
M  V30 950 N 87.2079 -1.17134 1.05439 0
M  V30 951 C 88.1709 -2.19439 0.661764 0
M  V30 952 C 89.1709 -1.58199 -0.288042 0
M  V30 953 O 90.3609 -1.74053 -0.0715803 0
M  V30 954 C 87.4929 -3.40889 -0.0276209 0
M  V30 955 H 88.6859 -2.55688 1.56728 0
M  V30 956 H 86.2389 -1.31259 0.848567 0
M  V30 957 H 86.9739 -3.10187 -0.94629 0
M  V30 958 H 86.7589 -3.86586 0.655238 0
M  V30 959 H 88.2489 -4.16603 -0.288342 0
M  V30 960 N 88.686 -0.835752 -1.33615 0
M  V30 961 C 89.616 -0.281739 -2.31794 0
M  V30 962 C 90.597 0.608833 -1.58831 0
M  V30 963 O 91.782 0.533035 -1.86741 0
M  V30 964 C 88.912 0.546612 -3.42971 0
M  V30 965 C 87.866 -0.247904 -4.27281 0
M  V30 966 C 87.192 0.704001 -5.30045 0
M  V30 967 C 88.492 -1.46324 -5.01385 0
M  V30 968 H 90.186 -1.10206 -2.78379 0
M  V30 969 H 87.732 -0.531388 -1.33837 0
M  V30 970 H 89.685 0.944467 -4.1068 0
M  V30 971 H 88.409 1.40011 -2.95067 0
M  V30 972 H 87.068 -0.627281 -3.61194 0
M  V30 973 H 86.716 1.55381 -4.78399 0
M  V30 974 H 86.416 0.176524 -5.87335 0
M  V30 975 H 87.94 1.09944 -6.0062 0
M  V30 976 H 89.354 -1.13871 -5.61877 0
M  V30 977 H 87.751 -1.92728 -5.6831 0
M  V30 978 H 88.821 -2.23467 -4.30338 0
M  V30 979 N 90.1641 1.46063 -0.591896 0
M  V30 980 C 91.1121 2.32124 0.148739 0
M  V30 981 C 92.1061 1.45035 0.875286 0
M  V30 982 O 93.3121 1.61609 0.792632 0
M  V30 983 H 89.6871 0.749024 0.066832 0
M  V30 984 H 91.6581 2.92392 -0.595783 0
M  V30 985 C 90.4071 3.28373 1.1431 0
M  V30 986 H 89.7301 3.95371 0.59346 0
M  V30 987 H 91.1701 3.91352 1.63155 0
M  V30 988 C 89.6291 2.54393 2.20875 0
M  V30 989 O 90.1591 2.31373 3.28374 0
M  V30 990 N 88.3651 2.14797 1.95731 0
M  V30 991 H 87.9121 2.33719 1.08319 0
M  V30 992 H 87.8701 1.65619 2.67241 0
M  V30 993 N 91.6422 0.330177 1.54103 0
M  V30 994 C 92.6052 -0.520144 2.2322 0
M  V30 995 C 93.6052 -1.03828 1.22786 0
M  V30 996 O 94.7952 -0.929652 1.4732 0
M  V30 997 C 91.9272 -1.72317 2.94142 0
M  V30 998 H 93.1202 0.0841605 2.99782 0
M  V30 999 H 90.6732 0.0813433 1.56088 0
M  V30 1000 H 91.4082 -2.36653 2.21734 0
M  V30 1001 H 91.1932 -1.35898 3.67796 0
M  V30 1002 H 92.6832 -2.3266 3.46784 0
M  V30 1003 N 93.1203 -1.57491 0.0584922 0
M  V30 1004 C 94.3663 -1.93264 -0.614558 0
M  V30 1005 C 94.6993 -0.937717 -1.7006 0
M  V30 1006 O 93.9743 0.0351652 -1.94468 0
M  V30 1007 C 94.2573 -3.3938 -1.20386 0
M  V30 1008 C 94.1103 -4.49625 -0.125375 0
M  V30 1009 C 95.4293 -3.86039 -2.11334 0
M  V30 1010 H 92.5483 -0.702791 -0.221933 0
M  V30 1011 H 95.1903 -1.8961 0.12175 0
M  V30 1012 H 93.3403 -3.42626 -1.83139 0
M  V30 1013 H 95.0123 -4.58506 0.506971 0
M  V30 1014 H 93.2553 -4.30354 0.545672 0
M  V30 1015 H 93.9263 -5.48967 -0.577861 0
M  V30 1016 H 96.4023 -3.84716 -1.58534 0
M  V30 1017 H 95.2783 -4.88914 -2.49507 0
M  V30 1018 H 95.5393 -3.23215 -3.01636 0
M  V30 1019 N 94.5984 0.214957 -1.56127 0
M  V30 1020 C 96.0144 0.564948 -1.49267 0
M  V30 1021 C 96.2144 1.86827 -0.754838 0
M  V30 1022 O 95.2704 2.50745 -0.297198 0
M  V30 1023 C 96.5834 0.638071 -2.93852 0
M  V30 1024 C 98.1314 0.728253 -3.0441 0
M  V30 1025 C 98.6064 0.832663 -4.50367 0
M  V30 1026 N 100.097 0.896712 -4.54437 0
M  V30 1027 C 100.832 0.997324 -5.6466 0
M  V30 1028 N 100.328 1.06147 -6.8462 0
M  V30 1029 N 102.121 1.03297 -5.52527 0
M  V30 1030 H 94.2724 -0.640211 -2.02522 0
M  V30 1031 H 96.5354 -0.225507 -0.920788 0
M  V30 1032 H 96.2414 -0.250126 -3.50809 0
M  V30 1033 H 96.1154 1.49947 -3.46115 0
M  V30 1034 H 98.5024 1.60689 -2.47514 0
M  V30 1035 H 98.5834 -0.158952 -2.55306 0
M  V30 1036 H 98.2274 -0.0415417 -5.07883 0
M  V30 1037 H 98.1574 1.73538 -4.97184 0
M  V30 1038 H 100.648 0.857188 -3.6805 0
M  V30 1039 H 100.961 1.1382 -7.64372 0
M  V30 1040 H 99.3064 1.03049 -6.87318 0
M  V30 1041 H 102.497 0.979558 -4.57736 0
M  V30 1042 H 102.67 1.10793 -6.38458 0
M  V30 1043 N 96.0765 1.50051 0.48192 0
M  V30 1044 C 97.3015 1.64508 1.26301 0
M  V30 1045 C 97.7265 0.323851 1.85291 0
M  V30 1046 O 97.0845 -0.710969 1.66778 0
M  V30 1047 C 97.1325 2.7305 2.35533 0
M  V30 1048 O 96.2365 2.3355 3.39895 0
M  V30 1049 H 95.5775 0.549978 0.372048 0
M  V30 1050 H 98.1075 1.9636 0.574786 0
M  V30 1051 H 98.1175 2.95799 2.8101 0
M  V30 1052 H 96.7925 3.68946 1.91967 0
M  V30 1053 H 95.3695 2.21205 3.00204 0
M  V30 1054 N 97.5546 -0.734337 1.39446 0
M  V30 1055 C 98.4846 -1.86155 1.40955 0
M  V30 1056 C 99.4656 -1.67898 0.272827 0
M  V30 1057 O 100.651 -1.88207 0.478743 0
M  V30 1058 C 97.7806 -3.23912 1.25294 0
M  V30 1059 C 96.7346 -3.56808 2.36373 0
M  V30 1060 C 96.0606 -4.93508 2.058 0
M  V30 1061 C 97.3606 -3.59713 3.78687 0
M  V30 1062 H 99.0546 -1.8515 2.35287 0
M  V30 1063 H 96.6006 -0.889367 1.13253 0
M  V30 1064 H 98.5536 -4.02443 1.2497 0
M  V30 1065 H 97.2776 -3.25446 0.274308 0
M  V30 1066 H 95.9366 -2.80606 2.35914 0
M  V30 1067 H 95.5846 -4.91623 1.06374 0
M  V30 1068 H 95.2846 -5.16486 2.80208 0
M  V30 1069 H 96.8086 -5.74396 2.07128 0
M  V30 1070 H 98.2226 -4.2832 3.81071 0
M  V30 1071 H 96.6196 -3.94209 4.52459 0
M  V30 1072 H 97.6896 -2.59504 4.09617 0
M  V30 1073 N 99.0327 -1.24633 -0.964593 0
M  V30 1074 C 100.279 -1.08949 -1.71049 0
M  V30 1075 C 100.612 0.370302 -1.90637 0
M  V30 1076 O 99.8867 1.27349 -1.47011 0
M  V30 1077 C 100.17 -1.83329 -3.0994 0
M  V30 1078 C 100.023 -3.37077 -2.97824 0
M  V30 1079 C 101.342 -1.60846 -4.09654 0
M  V30 1080 H 98.4607 -0.397178 -0.620821 0
M  V30 1081 H 101.103 -1.5334 -1.12191 0
M  V30 1082 H 99.2527 -1.45597 -3.60186 0
M  V30 1083 H 100.925 -3.84425 -2.5498 0
M  V30 1084 H 99.1677 -3.65298 -2.33965 0
M  V30 1085 H 99.8387 -3.84324 -3.96231 0
M  V30 1086 H 102.315 -1.93674 -3.68279 0
M  V30 1087 H 101.191 -2.1534 -5.04896 0
M  V30 1088 H 101.452 -0.547434 -4.38698 0
M  V30 1089 N 100.511 1.16574 -1.06058 0
M  V30 1090 C 101.922 1.68662 -0.800632 0
M  V30 1091 C 102.273 1.84184 0.67608 0
M  V30 1092 O 101.398 1.53568 1.52466 0
M  V30 1093 C 101.993 3.06356 -1.44676 0
M  V30 1094 C 100.552 3.55575 -1.23465 0
M  V30 1095 C 99.6988 2.31616 -1.52477 0
M  V30 1096 H 102.65 1.00969 -1.22438 0
M  V30 1097 H 102.671 3.70636 -0.860788 0
M  V30 1098 H 102.183 2.95027 -2.52152 0
M  V30 1099 H 100.284 3.72167 -0.179527 0
M  V30 1100 H 100.397 4.37812 -1.94571 0
M  V30 1101 H 98.7608 2.36512 -0.945209 0
M  V30 1102 H 99.5438 2.22887 -2.61106 0
M  V30 1103 N 101.989 0.842826 1.3317 0
M  V30 1104 C 103.266 0.362216 1.92217 0
M  V30 1105 C 103.646 -1.15289 1.76838 0
M  V30 1106 O 102.994 -1.96914 1.15919 0
M  V30 1107 C 103.204 0.813495 3.39387 0
M  V30 1108 C 104.552 0.823804 4.16532 0
M  V30 1109 O 105.576 0.757358 3.48055 0
M  V30 1110 O 104.435 0.915193 5.38782 0
M  V30 1111 H 101.529 0.103317 0.820521 0
M  V30 1112 H 104.075 0.928942 1.42017 0
M  V30 1113 H 102.847 1.85624 3.4447 0
M  V30 1114 H 102.47 0.223561 3.96971 0
M  V30 1115 N 103.467 -1.45747 0.599634 0
M  V30 1116 C 104.43 -2.28917 -0.113835 0
M  V30 1117 C 105.43 -1.3933 -0.802729 0
M  V30 1118 O 106.62 -1.61534 -0.652103 0
M  V30 1119 C 103.752 -3.20152 -1.17114 0
M  V30 1120 H 104.945 -2.93478 0.617289 0
M  V30 1121 H 102.498 -1.52137 0.358327 0
M  V30 1122 H 103.233 -2.60374 -1.93329 0
M  V30 1123 H 103.018 -3.86133 -0.681468 0
M  V30 1124 H 104.508 -3.82708 -1.67105 0
M  V30 1125 N 104.945 -0.338344 -1.53925 0
M  V30 1126 C 105.875 0.51328 -2.27789 0
M  V30 1127 C 106.856 1.107 -1.29149 0
M  V30 1128 O 108.041 1.12937 -1.57984 0
M  V30 1129 C 105.171 1.66697 -3.04679 0
M  V30 1130 C 104.125 1.20183 -4.1078 0
M  V30 1131 C 103.451 2.44363 -4.75595 0
M  V30 1132 C 104.751 0.30605 -5.21403 0
M  V30 1133 H 106.445 -0.102883 -2.99223 0
M  V30 1134 H 103.991 -0.0509219 -1.4391 0
M  V30 1135 H 105.944 2.26915 -3.55088 0
M  V30 1136 H 104.668 2.30995 -2.30887 0
M  V30 1137 H 103.327 0.622499 -3.61276 0
M  V30 1138 H 102.975 3.07057 -3.98403 0
M  V30 1139 H 102.675 2.13925 -5.47275 0
M  V30 1140 H 104.199 3.05317 -5.28786 0
M  V30 1141 H 105.613 0.814929 -5.67478 0
M  V30 1142 H 104.01 0.0937929 -6.00027 0
M  V30 1143 H 105.08 -0.65921 -4.80398 0
M  V30 1144 N 106.423 1.57458 -0.0668435 0
M  V30 1145 C 107.333 2.15937 0.916975 0
M  V30 1146 C 108.349 1.12123 1.33058 0
M  V30 1147 O 109.525 1.44366 1.40429 0
M  V30 1148 C 106.59 2.70547 2.16807 0
M  V30 1149 C 105.651 3.89215 1.81135 0
M  V30 1150 C 104.884 4.41211 3.0028 0
M  V30 1151 O 105.107 3.92225 4.14144 0
M  V30 1152 O 104.041 5.32605 2.80384 0
M  V30 1153 H 107.867 3.00354 0.449561 0
M  V30 1154 H 105.452 1.48584 0.155949 0
M  V30 1155 H 107.334 3.0557 2.90181 0
M  V30 1156 H 106.009 1.89192 2.62656 0
M  V30 1157 H 104.916 3.59054 1.05028 0
M  V30 1158 H 106.249 4.71848 1.40073 0
M  V30 1159 N 107.901 -0.206675 1.56239 0
M  V30 1160 C 109.317 -0.557025 1.49564 0
M  V30 1161 C 109.517 -1.86424 0.764735 0
M  V30 1162 O 108.573 -2.50584 0.310491 0
M  V30 1163 C 109.886 -0.622478 2.94186 0
M  V30 1164 C 111.434 -0.712099 3.04792 0
M  V30 1165 C 111.909 -0.808767 4.50803 0
M  V30 1166 N 113.4 -0.8726 4.54907 0
M  V30 1167 C 114.135 -0.967365 5.65181 0
M  V30 1168 N 113.631 -1.02515 6.85173 0
M  V30 1169 N 115.424 -1.00366 5.53067 0
M  V30 1170 H 107.575 0.650943 2.02179 0
M  V30 1171 H 109.838 0.230387 0.919579 0
M  V30 1172 H 109.544 0.268727 3.50672 0
M  V30 1173 H 109.418 -1.4811 3.46905 0
M  V30 1174 H 111.805 -1.59374 2.48363 0
M  V30 1175 H 111.886 0.172489 2.55218 0
M  V30 1176 H 111.53 0.0684754 5.07854 0
M  V30 1177 H 111.46 -1.70899 4.98098 0
M  V30 1178 H 113.951 -0.837657 3.68499 0
M  V30 1179 H 114.264 -1.09765 7.64965 0
M  V30 1180 H 112.609 -0.994026 6.87855 0
M  V30 1181 H 115.8 -0.95527 4.58249 0
M  V30 1182 H 115.973 -1.07405 6.39037 0
M  V30 1183 N 109.379 -1.50304 -0.473955 0
M  V30 1184 C 110.326 -1.68959 -1.57231 0
M  V30 1185 C 111.296 -0.530899 -1.57387 0
M  V30 1186 O 112.481 -0.761133 -1.74961 0
M  V30 1187 C 109.621 -1.7871 -2.95223 0
M  V30 1188 C 108.734 -3.06061 -3.04878 0
M  V30 1189 C 107.869 -3.06626 -4.33767 0
M  V30 1190 C 106.908 -4.28443 -4.37154 0
M  V30 1191 N 106.045 -4.26763 -5.5751 0
M  V30 1192 H 110.885 -2.6273 -1.40631 0
M  V30 1193 H 108.422 -1.30241 -0.683789 0
M  V30 1194 H 110.38 -1.82344 -3.75242 0
M  V30 1195 H 109.01 -0.883806 -3.10465 0
M  V30 1196 H 108.062 -3.11911 -2.17751 0
M  V30 1197 H 109.374 -3.96039 -3.0324 0
M  V30 1198 H 108.528 -3.08973 -5.22131 0
M  V30 1199 H 107.267 -2.14473 -4.3801 0
M  V30 1200 H 106.272 -4.2631 -3.47188 0
M  V30 1201 H 107.497 -5.2182 -4.34605 0
M  V30 1202 H 105.443 -3.37462 -5.62544 0
M  V30 1203 H 105.36 -5.10507 -5.57601 0
M  V30 1204 H 106.628 -4.33253 -6.48006 0
M  V30 1205 N 110.857 0.726932 -1.39834 0
M  V30 1206 C 112.268 1.30558 -1.3346 0
M  V30 1207 C 112.619 1.962 -0.00273003 0
M  V30 1208 O 111.744 1.96826 0.899371 0
M  V30 1209 C 112.339 2.37404 -2.41713 0
M  V30 1210 C 110.898 2.90921 -2.38835 0
M  V30 1211 C 110.045 1.64578 -2.2318 0
M  V30 1212 H 112.996 0.523862 -1.49804 0
M  V30 1213 H 113.017 3.17984 -2.08966 0
M  V30 1214 H 112.529 1.89599 -3.38635 0
M  V30 1215 H 110.63 3.42985 -1.45575 0
M  V30 1216 H 110.743 3.43487 -3.33997 0
M  V30 1217 H 109.107 1.89219 -1.70494 0
M  V30 1218 H 109.89 1.18814 -3.22084 0
M  V30 1219 N 112.336 1.25143 0.95797 0
M  V30 1220 C 113.283 1.05235 2.05412 0
M  V30 1221 C 114.253 -0.0374561 1.66058 0
M  V30 1222 O 115.438 0.119073 1.90428 0
M  V30 1223 C 112.578 0.673589 3.38462 0
M  V30 1224 C 111.691 1.8379 3.90954 0
M  V30 1225 C 110.826 1.40381 5.12315 0
M  V30 1226 C 109.865 2.53746 5.57027 0
M  V30 1227 N 109.002 2.11136 6.69601 0
M  V30 1228 H 113.842 1.99048 2.21774 0
M  V30 1229 H 111.379 0.991277 1.08683 0
M  V30 1230 H 113.337 0.434964 4.14926 0
M  V30 1231 H 111.967 -0.227554 3.21997 0
M  V30 1232 H 111.019 2.18992 3.11041 0
M  V30 1233 H 112.331 2.68937 4.20089 0
M  V30 1234 H 111.485 1.12464 5.96185 0
M  V30 1235 H 110.224 0.523015 4.84887 0
M  V30 1236 H 109.229 2.82412 4.71724 0
M  V30 1237 H 110.454 3.42398 5.86464 0
M  V30 1238 H 108.4 1.25468 6.4389 0
M  V30 1239 H 108.317 2.89832 6.98236 0
M  V30 1240 H 109.585 1.86385 7.56889 0
M  V30 1241 N 113.814 -1.1601 1.06675 0
M  V30 1242 C 114.777 -2.18724 0.685001 0
M  V30 1243 C 115.777 -1.58496 -0.271246 0
M  V30 1244 O 116.967 -1.74119 -0.0531156 0
M  V30 1245 C 114.099 -3.40899 0.00853648 0
M  V30 1246 H 115.292 -2.54011 1.59431 0
M  V30 1247 H 112.845 -1.30352 0.862441 0
M  V30 1248 H 113.58 -3.11173 -0.913337 0
M  V30 1249 H 113.365 -3.8587 0.696204 0
M  V30 1250 H 114.855 -4.16886 -0.24414 0
M  V30 1251 N 115.292 -0.849877 -1.32721 0
M  V30 1252 C 116.538 -0.451591 -1.97708 0
M  V30 1253 C 116.871 0.989175 -1.6712 0
M  V30 1254 O 116.146 1.69334 -0.956891 0
M  V30 1255 C 116.429 -0.685598 -3.53513 0
M  V30 1256 C 116.282 -2.17444 -3.93749 0
M  V30 1257 C 117.601 -0.138874 -4.39881 0
M  V30 1258 H 114.72 -0.16555 -0.718166 0
M  V30 1259 H 117.362 -1.06742 -1.57182 0
M  V30 1260 H 115.512 -0.161416 -3.88165 0
M  V30 1261 H 117.184 -2.76433 -3.693 0
M  V30 1262 H 115.427 -2.65476 -3.43081 0
M  V30 1263 H 116.098 -2.28888 -5.02309 0
M  V30 1264 H 118.574 -0.587068 -4.11938 0
M  V30 1265 H 117.45 -0.332213 -5.47894 0
M  V30 1266 H 117.711 0.95806 -4.31594 0
M  V30 1267 N 116.77 1.45427 -0.607355 0
M  V30 1268 C 118.016 2.0254 -0.102607 0
M  V30 1269 C 118.349 1.47478 1.26348 0
M  V30 1270 O 117.624 0.64939 1.83339 0
M  V30 1271 C 117.907 3.60044 -0.0634347 0
M  V30 1272 C 117.76 4.2544 -1.46017 0
M  V30 1273 C 119.079 4.35646 0.624514 0
M  V30 1274 H 116.198 0.73598 -0.0387607 0
M  V30 1275 H 118.84 1.73284 -0.779282 0
M  V30 1276 H 116.99 3.85101 0.512808 0
M  V30 1277 H 118.662 4.11569 -2.08347 0
M  V30 1278 H 116.905 3.83849 -2.02094 0
M  V30 1279 H 117.576 5.34342 -1.385 0
M  V30 1280 H 120.052 4.15882 0.134723 0
M  V30 1281 H 118.928 5.45376 0.621028 0
M  V30 1282 H 119.189 4.08501 1.69055 0
M  V30 1283 N 118.248 0.346503 1.53744 0
M  V30 1284 C 119.476 -0.25041 2.05379 0
M  V30 1285 C 119.891 -1.43979 1.22129 0
M  V30 1286 O 119.248 -1.80677 0.257321 0
M  V30 1287 C 119.299 -0.662575 3.55376 0
M  V30 1288 O 119.02 0.479515 4.35468 0
M  V30 1289 C 120.521 -1.31989 4.23195 0
M  V30 1290 H 117.741 -0.0478198 0.669294 0
M  V30 1291 H 120.285 0.499346 1.9831 0
M  V30 1292 H 118.44 -1.36227 3.62658 0
M  V30 1293 H 118.854 0.15037 5.24284 0
M  V30 1294 H 120.328 -1.55902 5.29527 0
M  V30 1295 H 120.805 -2.27436 3.75725 0
M  V30 1296 H 121.411 -0.662154 4.20114 0
M  V30 1297 N 119.726 -1.57421 0.075193 0
M  V30 1298 C 120.676 -2.09441 -0.901025 0
M  V30 1299 C 121.66 -1.00486 -1.25663 0
M  V30 1300 O 122.852 -1.2679 -1.23504 0
M  V30 1301 C 119.981 -2.66233 -2.16737 0
M  V30 1302 C 119.067 -3.82198 -1.83808 0
M  V30 1303 N 119.458 -4.91028 -1.21345 0
M  V30 1304 C 117.756 -3.91558 -2.13538 0
M  V30 1305 C 118.457 -5.71852 -1.06585 0
M  V30 1306 N 117.433 -5.20233 -1.57667 0
M  V30 1307 H 121.235 -2.90972 -0.413815 0
M  V30 1308 H 118.749 -1.6189 -0.128601 0
M  V30 1309 H 120.746 -3.01819 -2.87595 0
M  V30 1310 H 119.406 -1.8615 -2.66042 0
M  V30 1311 H 120.417 -5.10323 -0.88268 0
M  V30 1312 H 117.094 -3.22454 -2.65197 0
M  V30 1313 H 118.484 -6.69401 -0.578933 0
M  V30 1314 N 121.204 0.198386 -1.56346 0
M  V30 1315 C 122.429 0.939682 -1.84891 0
M  V30 1316 C 122.854 1.76202 -0.658369 0
M  V30 1317 O 122.212 1.76993 0.392851 0
M  V30 1318 C 122.26 1.81428 -3.11635 0
M  V30 1319 O 121.364 2.91265 -2.91956 0
M  V30 1320 H 120.705 0.264807 -0.608912 0
M  V30 1321 H 123.235 0.204695 -2.03573 0
M  V30 1322 H 123.245 2.21958 -3.42343 0
M  V30 1323 H 121.92 1.21004 -3.97908 0
M  V30 1324 H 120.497 2.54514 -2.72538 0
M  V30 1325 N 122.682 1.50554 0.465978 0
M  V30 1326 C 123.907 1.65838 1.24549 0
M  V30 1327 C 124.332 0.343486 1.84937 0
M  V30 1328 O 123.69 -0.69324 1.67523 0
M  V30 1329 C 123.738 2.75533 2.32624 0
M  V30 1330 O 122.842 2.37142 3.37398 0
M  V30 1331 H 122.183 0.553893 0.366194 0
M  V30 1332 H 124.713 1.96959 0.553927 0
M  V30 1333 H 124.723 2.98763 2.77857 0
M  V30 1334 H 123.398 3.70962 1.88043 0
M  V30 1335 H 121.975 2.24377 2.97841 0
M  V30 1336 N 124.16 -0.719506 1.40217 0
M  V30 1337 C 125.408 -1.47641 1.3801 0
M  V30 1338 C 125.729 -1.94992 -0.018145 0
M  V30 1339 O 124.999 -1.70073 -0.972207 0
M  V30 1340 H 123.579 -0.547744 0.507923 0
M  V30 1341 H 126.241 -0.853187 1.75233 0
M  V30 1342 H 125.337 -2.35112 2.05253 0
M  V30 1343 N 125.638 -1.25649 -0.95132 0
M  V30 1344 C 126.586 -1.06118 -2.06982 0
M  V30 1345 C 127.58 0.00889169 -1.69398 0
M  V30 1346 O 128.786 -0.146988 -1.79399 0
M  V30 1347 H 125.161 -0.326248 -0.677544 0
M  V30 1348 H 127.132 -2.00932 -2.2061 0
M  V30 1349 C 125.881 -0.700145 -3.40578 0
M  V30 1350 H 125.204 -1.51537 -3.69968 0
M  V30 1351 H 126.644 -0.603211 -4.19687 0
M  V30 1352 C 125.103 0.59403 -3.31622 0
M  V30 1353 O 125.633 1.63522 -3.66911 0
M  V30 1354 N 123.839 0.58089 -2.84735 0
M  V30 1355 H 123.386 -0.266783 -2.56215 0
M  V30 1356 H 123.344 1.44695 -2.79125 0
M  V30 1357 N 127.117 1.15442 -1.07289 0
M  V30 1358 C 128.067 2.18164 -0.662467 0
M  V30 1359 C 129.051 1.57845 0.312074 0
M  V30 1360 O 130.243 1.76552 0.125905 0
M  V30 1361 C 127.372 3.43246 -0.0611295 0
M  V30 1362 C 126.458 4.1062 -1.06077 0
M  V30 1363 N 126.849 4.53491 -2.24008 0
M  V30 1364 C 125.147 4.36949 -0.893964 0
M  V30 1365 C 125.848 5.05731 -2.87422 0
M  V30 1366 N 124.824 4.99236 -2.15091 0
M  V30 1367 H 128.626 2.49038 -1.56068 0
M  V30 1368 H 126.14 1.32003 -0.945988 0
M  V30 1369 H 128.137 4.16145 0.250792 0
M  V30 1370 H 126.797 3.13854 0.832207 0
M  V30 1371 H 127.808 4.46898 -2.6173 0
M  V30 1372 H 124.485 4.17466 -0.0534693 0
M  V30 1373 H 125.875 5.48865 -3.87553 0
M  V30 1374 N 128.595 0.856903 1.32268 0
M  V30 1375 C 129.843 0.460474 1.96784 0
M  V30 1376 C 130.164 -0.987701 1.68135 0
M  V30 1377 O 129.434 -1.69058 0.989765 0
M  V30 1378 H 128.014 0.167289 0.728027 0
M  V30 1379 H 130.676 1.09383 1.61312 0
M  V30 1380 H 129.772 0.60739 3.06133 0
M  V30 1381 N 130.073 -1.45103 0.615059 0
M  V30 1382 C 131.005 -2.28786 -0.13762 0
M  V30 1383 C 132.018 -1.40376 -0.824525 0
M  V30 1384 O 133.207 -1.64681 -0.688662 0
M  V30 1385 C 130.307 -3.16322 -1.21628 0
M  V30 1386 C 129.48 -4.33054 -0.615039 0
M  V30 1387 C 128.539 -5.01743 -1.58556 0
M  V30 1388 O 127.565 -5.58293 -1.10895 0
M  V30 1389 N 128.767 -5.01714 -2.91998 0
M  V30 1390 H 131.532 -2.94025 0.580483 0
M  V30 1391 H 129.093 -1.55373 0.45507 0
M  V30 1392 H 131.085 -3.59139 -1.86552 0
M  V30 1393 H 129.655 -2.52943 -1.83681 0
M  V30 1394 H 128.875 -3.93627 0.21245 0
M  V30 1395 H 130.163 -5.08431 -0.193704 0
M  V30 1396 H 129.561 -4.57075 -3.33316 0
M  V30 1397 H 128.118 -5.48371 -3.52325 0
M  V30 1398 N 131.551 -0.354651 -1.53558 0
M  V30 1399 C 132.514 0.484566 -2.24019 0
M  V30 1400 C 133.514 1.01861 -1.24422 0
M  V30 1401 O 134.704 0.906097 -1.4878 0
M  V30 1402 C 131.836 1.67615 -2.96847 0
M  V30 1403 H 133.029 -0.131843 -2.9961 0
M  V30 1404 H 130.582 -0.106165 -1.55939 0
M  V30 1405 H 131.317 2.33095 -2.25471 0
M  V30 1406 H 131.102 1.30029 -3.69912 0
M  V30 1407 H 132.592 2.27114 -3.50441 0
M  V30 1408 N 133.029 1.57378 -0.0835403 0
M  V30 1409 C 133.959 2.1641 0.87686 0
M  V30 1410 C 134.94 1.09429 1.30228 0
M  V30 1411 O 136.125 1.37516 1.37124 0
M  V30 1412 C 133.255 2.73517 2.14022 0
M  V30 1413 C 132.209 3.85769 1.85381 0
M  V30 1414 C 131.535 4.29529 3.18448 0
M  V30 1415 C 132.835 5.09486 1.14984 0
M  V30 1416 H 134.529 2.96914 0.385059 0
M  V30 1417 H 132.075 1.42823 0.18377 0
M  V30 1418 H 134.028 3.13463 2.81636 0
M  V30 1419 H 132.752 1.90252 2.65465 0
M  V30 1420 H 131.411 3.46345 1.20169 0
M  V30 1421 H 131.059 3.43169 3.67755 0
M  V30 1422 H 130.759 5.05204 3.00071 0
M  V30 1423 H 132.283 4.72099 3.8724 0
M  V30 1424 H 133.697 5.46674 1.72687 0
M  V30 1425 H 132.094 5.90515 1.06826 0
M  V30 1426 H 133.164 4.84724 0.130749 0
M  V30 1427 N 134.507 -0.190092 1.56449 0
M  V30 1428 C 135.735 -0.925772 1.85033 0
M  V30 1429 C 136.15 -1.76638 0.666658 0
M  V30 1430 O 135.507 -1.78822 -0.364565 0
M  V30 1431 C 135.558 -1.81786 3.12468 0
M  V30 1432 O 135.279 -1.01118 4.26271 0
M  V30 1433 C 136.78 -2.6648 3.54265 0
M  V30 1434 H 134 -0.269872 0.614337 0
M  V30 1435 H 136.544 -0.195837 2.0356 0
M  V30 1436 H 134.699 -2.50136 2.95822 0
M  V30 1437 H 135.113 -1.61956 4.98869 0
M  V30 1438 H 136.587 -3.24722 4.46385 0
M  V30 1439 H 137.064 -3.40434 2.77491 0
M  V30 1440 H 137.67 -2.03493 3.73458 0
M  V30 1441 N 135.985 -1.50799 -0.457987 0
M  V30 1442 C 137.215 -1.65977 -1.23025 0
M  V30 1443 C 137.623 -0.347918 -1.85974 0
M  V30 1444 O 136.966 0.68148 -1.70592 0
M  V30 1445 C 137.028 -2.70309 -2.3701 0
M  V30 1446 C 136.692 -4.135 -1.94594 0
M  V30 1447 C 137.689 -4.98949 -1.46101 0
M  V30 1448 C 135.374 -4.5949 -2.02915 0
M  V30 1449 C 137.368 -6.28442 -1.06489 0
M  V30 1450 C 135.055 -5.88984 -1.62914 0
M  V30 1451 C 136.053 -6.73286 -1.1478 0
M  V30 1452 O 135.741 -8.00362 -0.75339 0
M  V30 1453 H 135.473 -0.56064 -0.377702 0
M  V30 1454 H 138.027 -1.97857 -0.551537 0
M  V30 1455 H 136.257 -2.337 -3.08093 0
M  V30 1456 H 137.946 -2.74574 -2.98938 0
M  V30 1457 H 138.712 -4.6463 -1.39084 0
M  V30 1458 H 134.591 -3.94009 -2.39328 0
M  V30 1459 H 138.135 -6.94194 -0.688488 0
M  V30 1460 H 134.032 -6.22822 -1.69595 0
M  V30 1461 H 134.8 -8.13744 -0.88108 0
M  V30 1462 N 137.463 0.71206 -1.40597 0
M  V30 1463 C 138.426 1.80785 -1.40888 0
M  V30 1464 C 139.426 1.57937 -0.302103 0
M  V30 1465 O 140.616 1.64913 -0.561182 0
M  V30 1466 C 137.748 3.18927 -1.20409 0
M  V30 1467 H 138.941 1.81924 -2.38419 0
M  V30 1468 H 136.494 0.91805 -1.26497 0
M  V30 1469 H 137.229 3.23436 -0.236522 0
M  V30 1470 H 137.014 3.36911 -2.00582 0
M  V30 1471 H 138.504 3.98949 -1.23408 0
M  V30 1472 N 138.941 1.26152 0.944643 0
M  V30 1473 C 139.904 1.07474 2.0244 0
M  V30 1474 C 140.904 0.0242064 1.60782 0
M  V30 1475 O 142.094 0.267302 1.72137 0
M  V30 1476 C 139.226 0.633956 3.34953 0
M  V30 1477 H 140.419 2.03336 2.20442 0
M  V30 1478 H 137.972 1.087 1.12312 0
M  V30 1479 H 138.707 -0.326811 3.22649 0
M  V30 1480 H 138.492 1.39247 3.66542 0
M  V30 1481 H 139.982 0.52501 4.14287 0
M  V30 1482 N 140.419 -1.14872 1.07899 0
M  V30 1483 C 141.366 -2.19791 0.704319 0
M  V30 1484 C 142.336 -1.63238 -0.306987 0
M  V30 1485 O 143.521 -1.8983 -0.192171 0
M  V30 1486 C 140.661 -3.44911 0.114244 0
M  V30 1487 C 139.774 -4.15637 1.1777 0
M  V30 1488 C 138.909 -5.28324 0.552037 0
M  V30 1489 C 137.948 -5.90875 1.59789 0
M  V30 1490 N 137.085 -6.95022 0.994404 0
M  V30 1491 H 141.925 -2.5119 1.60336 0
M  V30 1492 H 139.462 -1.23356 0.801352 0
M  V30 1493 H 141.42 -4.16477 -0.245544 0
M  V30 1494 H 140.05 -3.14011 -0.74813 0
M  V30 1495 H 139.102 -3.42512 1.65499 0
M  V30 1496 H 140.414 -4.5823 1.97046 0
M  V30 1497 H 139.568 -6.06538 0.1402 0
M  V30 1498 H 138.307 -4.86939 -0.272431 0
M  V30 1499 H 137.312 -5.11369 2.01945 0
M  V30 1500 H 138.537 -6.34337 2.42474 0
M  V30 1501 H 136.483 -6.55722 0.190939 0
M  V30 1502 H 136.4 -7.36073 1.72432 0
M  V30 1503 H 137.668 -7.77123 0.608253 0
M  V30 1504 N 141.898 -0.863906 -1.31812 0
M  V30 1505 C 142.828 -0.330843 -2.31144 0
M  V30 1506 C 143.809 0.575005 -1.60087 0
M  V30 1507 O 144.994 0.493304 -1.8783 0
M  V30 1508 C 142.124 0.47374 -3.44054 0
M  V30 1509 C 141.078 -0.338481 -4.26659 0
M  V30 1510 C 140.404 0.591412 -5.31419 0
M  V30 1511 C 141.704 -1.56926 -4.98168 0
M  V30 1512 H 143.398 -1.16086 -2.75979 0
M  V30 1513 H 140.944 -0.559657 -1.32679 0
M  V30 1514 H 142.897 0.857143 -4.12591 0
M  V30 1515 H 141.621 1.33721 -2.9797 0
M  V30 1516 H 140.28 -0.703754 -3.59782 0
M  V30 1517 H 139.928 1.45199 -4.81587 0
M  V30 1518 H 139.628 0.0519022 -5.87577 0
M  V30 1519 H 141.152 0.97179 -6.02817 0
M  V30 1520 H 142.566 -1.25764 -5.59336 0
M  V30 1521 H 140.963 -2.04739 -5.64094 0
M  V30 1522 H 142.033 -2.32544 -4.25501 0
M  V30 1523 N 143.376 1.44774 -0.622745 0
M  V30 1524 C 144.286 2.34433 0.0886031 0
M  V30 1525 C 145.302 1.52131 0.844529 0
M  V30 1526 O 146.478 1.84886 0.798691 0
M  V30 1527 C 143.543 3.29986 1.0635 0
M  V30 1528 C 142.604 4.28195 0.307873 0
M  V30 1529 C 141.837 5.19183 1.23633 0
M  V30 1530 O 142.06 5.13918 2.47476 0
M  V30 1531 O 140.994 5.97515 0.725189 0
M  V30 1532 H 144.82 2.96693 -0.648599 0
M  V30 1533 H 142.405 1.44408 -0.382957 0
M  V30 1534 H 144.287 3.88825 1.6246 0
M  V30 1535 H 142.962 2.70269 1.78146 0
M  V30 1536 H 141.869 3.72927 -0.296064 0
M  V30 1537 H 143.202 4.90808 -0.3699 0
M  V30 1538 N 144.854 0.36279 1.53368 0
M  V30 1539 C 146.102 -0.227326 2.00817 0
M  V30 1540 C 146.423 -1.49511 1.25186 0
M  V30 1541 O 145.693 -1.92482 0.364348 0
M  V30 1542 H 144.273 -0.0869923 0.741917 0
M  V30 1543 H 146.935 0.488381 1.88682 0
M  V30 1544 H 146.031 -0.456273 3.08747 0
M  V30 1545 N 146.332 -1.57332 0.0918853 0
M  V30 1546 C 147.581 -1.93412 -0.572249 0
M  V30 1547 C 147.894 -0.975515 -1.69538 0
M  V30 1548 O 149.1 -1.22991 -2.42045 0
M  V30 1549 C 147.556 -3.43648 -1.0693 0
M  V30 1550 C 147.164 -4.47994 0.0239049 0
M  V30 1551 C 148.908 -3.88695 -1.70635 0
M  V30 1552 C 146.815 -5.89381 -0.488319 0
M  V30 1553 H 145.745 -0.721939 -0.217532 0
M  V30 1554 H 148.396 -1.82735 0.167369 0
M  V30 1555 H 146.778 -3.49466 -1.8625 0
M  V30 1556 H 147.952 -4.53815 0.799277 0
M  V30 1557 H 146.267 -4.12536 0.565946 0
M  V30 1558 H 148.864 -4.91725 -2.10025 0
M  V30 1559 H 149.207 -3.27166 -2.57426 0
M  V30 1560 H 149.74 -3.85564 -0.979023 0
M  V30 1561 H 146.479 -6.54602 0.342906 0
M  V30 1562 H 145.999 -5.87037 -1.23077 0
M  V30 1563 H 147.678 -6.39863 -0.958317 0
M  V30 1564 N 147.81 0.181792 -1.56548 0
M  V30 1565 C 149.221 0.745244 -1.71181 0
M  V30 1566 C 149.572 1.83262 -0.70068 0
M  V30 1567 O 148.697 2.15946 0.140154 0
M  V30 1568 C 149.292 1.35859 -3.10367 0
M  V30 1569 C 147.851 1.86898 -3.2672 0
M  V30 1570 C 146.998 0.743942 -2.67134 0
M  V30 1571 H 149.949 -0.0434661 -1.5864 0
M  V30 1572 H 149.97 2.22817 -3.08436 0
M  V30 1573 H 149.482 0.566948 -3.83937 0
M  V30 1574 H 147.583 2.68738 -2.5809 0
M  V30 1575 H 147.696 2.02162 -4.34359 0
M  V30 1576 H 146.06 1.16169 -2.26665 0
M  V30 1577 H 146.843 -0.035676 -3.43281 0
M  V30 1578 N 149.288 1.51039 0.449983 0
M  V30 1579 C 150.251 1.70863 1.5277 0
M  V30 1580 C 151.251 0.578846 1.5002 0
M  V30 1581 O 152.441 0.846213 1.52266 0
M  V30 1582 C 149.573 1.75341 2.9235 0
M  V30 1583 H 150.766 2.67034 1.36502 0
M  V30 1584 H 148.319 1.40838 0.677812 0
M  V30 1585 H 149.054 0.809383 3.14037 0
M  V30 1586 H 148.839 2.57436 2.95752 0
M  V30 1587 H 150.329 1.92559 3.70555 0
M  V30 1588 N 150.766 -0.704594 1.40972 0
M  V30 1589 C 151.996 -1.49138 1.42974 0
M  V30 1590 C 152.404 -1.89175 0.0308406 0
M  V30 1591 O 151.747 -1.56734 -0.958138 0
M  V30 1592 C 151.809 -2.79016 2.26694 0
M  V30 1593 C 151.473 -2.61236 3.74973 0
M  V30 1594 C 152.47 -2.27773 4.67349 0
M  V30 1595 C 150.155 -2.77158 4.18914 0
M  V30 1596 C 152.149 -2.10457 6.01653 0
M  V30 1597 C 149.836 -2.59459 5.53285 0
M  V30 1598 C 150.834 -2.26158 6.4447 0
M  V30 1599 O 150.522 -2.08605 7.76363 0
M  V30 1600 H 150.254 -0.466443 0.489292 0
M  V30 1601 H 152.808 -0.8758 1.85793 0
M  V30 1602 H 151.038 -3.42947 1.78673 0
M  V30 1603 H 152.727 -3.40782 2.20504 0
M  V30 1604 H 153.493 -2.15095 4.34694 0
M  V30 1605 H 149.372 -3.02064 3.48251 0
M  V30 1606 H 152.916 -1.84387 6.72791 0
M  V30 1607 H 148.813 -2.71725 5.85522 0
M  V30 1608 H 149.581 -2.23439 7.87412 0
M  V30 1609 N 152.244 -1.26651 -0.937939 0
M  V30 1610 C 153.493 -1.11775 -1.67897 0
M  V30 1611 C 153.806 0.33794 -1.92659 0
M  V30 1612 O 155.012 0.607434 -2.64618 0
M  V30 1613 C 153.468 -1.9523 -3.02346 0
M  V30 1614 C 153.076 -3.45393 -2.8532 0
M  V30 1615 C 154.82 -1.88972 -3.80118 0
M  V30 1616 C 152.727 -4.21083 -4.15263 0
M  V30 1617 H 151.657 -0.414696 -0.629717 0
M  V30 1618 H 154.308 -1.50988 -1.04283 0
M  V30 1619 H 152.69 -1.48853 -3.66959 0
M  V30 1620 H 153.864 -3.99561 -2.29537 0
M  V30 1621 H 152.179 -3.52921 -2.20988 0
M  V30 1622 H 154.776 -2.42805 -4.76392 0
M  V30 1623 H 155.119 -0.86113 -4.07296 0
M  V30 1624 H 155.652 -2.33189 -3.22285 0
M  V30 1625 H 152.391 -5.24425 -3.93267 0
M  V30 1626 H 151.911 -3.71695 -4.70747 0
M  V30 1627 H 153.59 -4.29706 -4.83696 0
M  V30 1628 N 153.722 1.14298 -1.08507 0
M  V30 1629 C 154.968 1.85633 -0.816581 0
M  V30 1630 C 155.301 1.82784 0.656021 0
M  V30 1631 O 154.576 1.25926 1.48233 0
M  V30 1632 C 154.859 3.34223 -1.34041 0
M  V30 1633 C 154.712 3.45639 -2.87843 0
M  V30 1634 C 156.031 4.29356 -0.9665 0
M  V30 1635 H 153.15 0.67402 -0.298104 0
M  V30 1636 H 155.792 1.34214 -1.34487 0
M  V30 1637 H 153.942 3.78144 -0.89104 0
M  V30 1638 H 155.614 3.10498 -3.41158 0
M  V30 1639 H 153.857 2.86817 -3.25451 0
M  V30 1640 H 154.528 4.50089 -3.19569 0
M  V30 1641 H 157.004 3.93457 -1.35391 0
M  V30 1642 H 155.88 5.3178 -1.3602 0
M  V30 1643 H 156.141 4.41919 0.126362 0
M  V30 1644 N 155.201 0.870884 1.31352 0
M  V30 1645 C 156.447 0.482987 1.96965 0
M  V30 1646 C 156.78 -0.962462 1.68672 0
M  V30 1647 O 156.055 -1.6779 0.98371 0
M  V30 1648 C 156.338 0.741752 3.52378 0
M  V30 1649 C 156.191 2.2368 3.9024 0
M  V30 1650 C 157.51 0.208838 4.39604 0
M  V30 1651 H 154.629 0.176955 0.715441 0
M  V30 1652 H 157.271 1.09229 1.55464 0
M  V30 1653 H 155.421 0.223149 3.87859 0
M  V30 1654 H 157.093 2.82273 3.64856 0
M  V30 1655 H 155.336 2.70901 3.38814 0
M  V30 1656 H 156.007 2.3685 4.98604 0
M  V30 1657 H 158.483 0.652529 4.10952 0
M  V30 1658 H 157.359 0.419336 5.47296 0
M  V30 1659 H 157.62 -0.889275 4.33064 0
M  V30 1660 N 156.679 -1.44442 0.630414 0
M  V30 1661 C 158.09 -1.85434 0.217063 0
M  V30 1662 C 158.441 -1.52748 -1.23136 0
M  V30 1663 O 157.566 -0.965205 -1.93682 0
M  V30 1664 C 158.161 -3.36581 0.387168 0
M  V30 1665 C 156.72 -3.76389 0.0283297 0
M  V30 1666 C 155.867 -2.68296 0.700889 0
M  V30 1667 H 158.818 -1.34919 0.83562 0
M  V30 1668 H 158.839 -3.78657 -0.374086 0
M  V30 1669 H 158.351 -3.60339 1.44144 0
M  V30 1670 H 156.452 -3.58246 -1.02423 0
M  V30 1671 H 156.565 -4.77095 0.437892 0
M  V30 1672 H 154.929 -2.54335 0.136267 0
M  V30 1673 H 155.712 -2.94887 1.75774 0
M  V30 1674 N 158.157 -0.370918 -1.53173 0
M  V30 1675 C 159.089 0.507823 -2.23503 0
M  V30 1676 C 160.102 1.04182 -1.251 0
M  V30 1677 O 161.291 0.947286 -1.5129 0
M  V30 1678 C 158.391 1.71447 -2.92334 0
M  V30 1679 C 157.564 1.31105 -4.17289 0
M  V30 1680 C 156.623 2.38035 -4.69282 0
M  V30 1681 O 155.649 2.00204 -5.32829 0
M  V30 1682 N 156.851 3.69697 -4.47554 0
M  V30 1683 H 159.616 -0.0946382 -2.99551 0
M  V30 1684 H 157.177 -0.196358 -1.60705 0
M  V30 1685 H 159.169 2.42469 -3.24023 0
M  V30 1686 H 157.739 2.22368 -2.19707 0
M  V30 1687 H 156.959 0.430462 -3.91843 0
M  V30 1688 H 158.247 1.0179 -4.98514 0
M  V30 1689 H 157.645 4.03205 -3.9679 0
M  V30 1690 H 156.202 4.36807 -4.8378 0
M  V30 1691 N 159.635 1.57281 -0.100228 0
M  V30 1692 C 160.863 1.98879 0.570509 0
M  V30 1693 C 161.278 0.979476 1.61405 0
M  V30 1694 O 160.635 -0.0302288 1.82475 0
M  V30 1695 C 160.686 3.4052 1.2136 0
M  V30 1696 O 160.407 4.37588 0.211786 0
M  V30 1697 C 161.908 3.97149 1.96945 0
M  V30 1698 H 159.128 0.653428 0.152555 0
M  V30 1699 H 161.672 2.03697 -0.18103 0
M  V30 1700 H 159.827 3.367 1.91603 0
M  V30 1701 H 160.241 5.20118 0.676607 0
M  V30 1702 H 161.715 4.98393 2.37294 0
M  V30 1703 H 162.192 3.3525 2.83733 0
M  V30 1704 H 162.798 4.04458 1.31506 0
M  V30 1705 N 161.113 -0.173488 1.56642 0
M  V30 1706 C 162.076 -1.19859 1.95362 0
M  V30 1707 C 163.076 -1.37296 0.83704 0
M  V30 1708 O 164.266 -1.34739 1.10413 0
M  V30 1709 C 161.398 -2.56405 2.24654 0
M  V30 1710 H 162.591 -0.867062 2.87092 0
M  V30 1711 H 160.144 -0.415853 1.50666 0
M  V30 1712 H 160.879 -2.94576 1.35631 0
M  V30 1713 H 160.664 -2.45115 3.06041 0
M  V30 1714 H 162.154 -3.30287 2.5554 0
M  V30 1715 N 162.591 -1.51276 -0.441967 0
M  V30 1716 C 164.002 -1.56244 -1.02199 0
M  V30 1717 C 164.353 -0.383149 -1.92422 0
M  V30 1718 O 163.478 0.500613 -2.1053 0
M  V30 1719 C 164.073 -2.83162 -1.86024 0
M  V30 1720 C 162.632 -2.90716 -2.39084 0
M  V30 1721 C 161.779 -2.50858 -1.18175 0
M  V30 1722 H 164.73 -1.5712 -0.223416 0
M  V30 1723 H 164.751 -2.66663 -2.71425 0
M  V30 1724 H 164.263 -3.68974 -1.20331 0
M  V30 1725 H 162.364 -2.09323 -3.08244 0
M  V30 1726 H 162.477 -3.94266 -2.72198 0
M  V30 1727 H 160.841 -2.03951 -1.52565 0
M  V30 1728 H 161.624 -3.3901 -0.541001 0
M  V30 1729 N 164.069 0.697108 -1.41344 0
M  V30 1730 C 165.346 1.45154 -1.31109 0
M  V30 1731 C 165.726 2.11009 0.0620449 0
M  V30 1732 O 165.074 2.01571 1.07618 0
M  V30 1733 C 165.284 2.47223 -2.46337 0
M  V30 1734 C 166.632 3.1252 -2.87431 0
M  V30 1735 O 167.656 2.57547 -2.46065 0
M  V30 1736 O 166.515 4.12083 -3.58957 0
M  V30 1737 H 163.609 0.646365 -0.515889 0
M  V30 1738 H 166.155 0.727716 -1.53305 0
M  V30 1739 H 164.927 1.97204 -3.37974 0
M  V30 1740 H 164.55 3.27116 -2.2601 0
M  V30 1741 N 165.547 1.27147 0.931209 0
M  V30 1742 C 166.787 1.14511 1.69312 0
M  V30 1743 C 167.151 -0.304638 1.89568 0
M  V30 1744 O 168.352 -0.553343 2.63043 0
M  V30 1745 C 166.623 1.90349 3.02493 0
M  V30 1746 S 168.182 1.93884 3.93642 0
M  V30 1747 H 165 0.408858 0.581684 0
M  V30 1748 H 167.602 1.61006 1.10893 0
M  V30 1749 H 166.306 2.94877 2.85439 0
M  V30 1750 H 165.837 1.44333 3.65966 0
M  V30 1751 H 167.852 1.03273 4.85334 0
M  V30 1752 N 167.025 -1.13721 1.09112 0
M  V30 1753 C 167.972 -2.19031 0.727591 0
M  V30 1754 C 168.942 -1.63555 -0.289656 0
M  V30 1755 O 170.127 -1.90023 -0.172026 0
M  V30 1756 C 167.267 -3.4477 0.15082 0
M  V30 1757 C 166.38 -4.14365 1.22172 0
M  V30 1758 C 165.515 -5.27709 0.608042 0
M  V30 1759 C 164.554 -5.89147 1.66047 0
M  V30 1760 N 163.691 -6.93929 1.06806 0
M  V30 1761 H 168.531 -2.49475 1.62991 0
M  V30 1762 H 166.068 -1.22499 0.81439 0
M  V30 1763 H 168.026 -4.16714 -0.201358 0
M  V30 1764 H 166.656 -3.14787 -0.714783 0
M  V30 1765 H 165.708 -3.40737 1.69122 0
M  V30 1766 H 167.02 -4.56114 2.01895 0
M  V30 1767 H 166.174 -6.06355 0.204523 0
M  V30 1768 H 164.913 -4.872 -0.220769 0
M  V30 1769 H 163.918 -5.09198 2.07357 0
M  V30 1770 H 165.143 -6.31729 2.49189 0
M  V30 1771 H 163.089 -6.55483 0.260476 0
M  V30 1772 H 163.006 -7.34202 1.8023 0
M  V30 1773 H 164.274 -7.76434 0.690644 0
M  V30 1774 N 168.503 -0.877838 -1.30888 0
M  V30 1775 C 169.45 -0.337538 -2.28318 0
M  V30 1776 C 170.42 0.568346 -1.56074 0
M  V30 1777 O 171.605 0.498298 -1.84178 0
M  V30 1778 C 168.745 0.448142 -3.42178 0
M  V30 1779 C 167.858 -0.48615 -4.29256 0
M  V30 1780 C 166.993 0.314427 -5.30269 0
M  V30 1781 C 166.032 -0.615791 -6.08995 0
M  V30 1782 N 165.169 0.14902 -7.01942 0
M  V30 1783 H 170.009 -1.17356 -2.73919 0
M  V30 1784 H 167.546 -0.590094 -1.34745 0
M  V30 1785 H 169.504 0.919517 -4.06941 0
M  V30 1786 H 168.134 1.24879 -2.97666 0
M  V30 1787 H 167.186 -1.076 -3.64865 0
M  V30 1788 H 168.498 -1.19909 -4.84173 0
M  V30 1789 H 167.652 0.847969 -6.00745 0
M  V30 1790 H 166.391 1.06062 -4.76027 0
M  V30 1791 H 165.396 -1.16102 -5.37401 0
M  V30 1792 H 166.621 -1.36097 -6.65323 0
M  V30 1793 H 164.567 0.877884 -6.50099 0
M  V30 1794 H 164.484 -0.504433 -7.54315 0
M  V30 1795 H 165.752 0.663537 -7.76671 0
M  V30 1796 N 169.982 1.44106 -0.638065 0
M  V30 1797 C 170.912 2.33448 0.0494287 0
M  V30 1798 C 171.893 1.48606 0.827672 0
M  V30 1799 O 173.078 1.77308 0.792173 0
M  V30 1800 C 170.208 3.31771 1.02691 0
M  V30 1801 C 169.162 4.26485 0.359823 0
M  V30 1802 C 168.488 5.14729 1.44769 0
M  V30 1803 C 169.788 5.17056 -0.738296 0
M  V30 1804 H 171.482 2.91183 -0.696636 0
M  V30 1805 H 169.028 1.40014 -0.336456 0
M  V30 1806 H 170.981 3.93161 1.51666 0
M  V30 1807 H 169.705 2.7226 1.80395 0
M  V30 1808 H 168.364 3.66437 -0.10934 0
M  V30 1809 H 168.012 4.51566 2.21578 0
M  V30 1810 H 167.712 5.78913 1.00668 0
M  V30 1811 H 169.236 5.78991 1.93911 0
M  V30 1812 H 170.65 5.72342 -0.331354 0
M  V30 1813 H 169.047 5.89879 -1.10286 0
M  V30 1814 H 170.117 4.57652 -1.60258 0
M  V30 1815 N 171.46 0.379036 1.52974 0
M  V30 1816 C 172.423 -0.448865 2.24762 0
M  V30 1817 C 173.423 -0.998689 1.26027 0
M  V30 1818 O 174.613 -0.882313 1.50203 0
M  V30 1819 C 171.745 -1.62872 2.99476 0
M  V30 1820 H 172.938 0.179491 2.99362 0
M  V30 1821 H 170.491 0.13096 1.5575 0
M  V30 1822 H 171.226 -2.29479 2.29151 0
M  V30 1823 H 171.011 -1.24128 3.71934 0
M  V30 1824 H 172.501 -2.2151 3.5401 0
M  V30 1825 N 172.938 -1.57226 0.108567 0
M  V30 1826 C 174.187 -1.94008 -0.551703 0
M  V30 1827 C 174.5 -0.993442 -1.68494 0
M  V30 1828 O 175.706 -1.25551 -2.40726 0
M  V30 1829 C 174.162 -3.44763 -1.03279 0
M  V30 1830 C 173.77 -4.47943 0.0714193 0
M  V30 1831 C 175.514 -3.90483 -1.66503 0
M  V30 1832 C 173.421 -5.89865 -0.425779 0
M  V30 1833 H 172.351 -0.724206 -0.209863 0
M  V30 1834 H 175.002 -1.82547 0.186741 0
M  V30 1835 H 173.384 -3.51422 -1.82533 0
M  V30 1836 H 174.558 -4.52942 0.847365 0
M  V30 1837 H 172.873 -4.11913 0.609669 0
M  V30 1838 H 175.47 -4.93925 -2.04798 0
M  V30 1839 H 175.813 -3.29877 -2.53942 0
M  V30 1840 H 176.346 -3.86581 -0.938074 0
M  V30 1841 H 173.085 -6.54202 0.412316 0
M  V30 1842 H 172.605 -5.88309 -1.16843 0
M  V30 1843 H 174.284 -6.40844 -0.890397 0
M  V30 1844 N 174.416 0.165178 -1.56732 0
M  V30 1845 C 175.348 1.22911 -1.93457 0
M  V30 1846 C 176.361 1.40152 -0.828333 0
M  V30 1847 O 177.55 1.40046 -1.10677 0
M  V30 1848 C 174.65 2.59686 -2.17753 0
M  V30 1849 C 173.823 2.63663 -3.48999 0
M  V30 1850 C 172.882 3.81845 -3.62051 0
M  V30 1851 O 171.908 3.67559 -4.34613 0
M  V30 1852 N 173.11 4.98557 -2.97357 0
M  V30 1853 H 175.875 0.917118 -2.85323 0
M  V30 1854 H 173.436 0.354895 -1.57962 0
M  V30 1855 H 175.428 3.37225 -2.23743 0
M  V30 1856 H 173.998 2.83251 -1.32242 0
M  V30 1857 H 173.218 1.72173 -3.54612 0
M  V30 1858 H 174.506 2.63336 -4.35352 0
M  V30 1859 H 173.904 5.13065 -2.38287 0
M  V30 1860 H 172.461 5.73936 -3.08934 0
M  V30 1861 N 175.894 1.51508 0.433938 0
M  V30 1862 C 176.857 1.72473 1.50949 0
M  V30 1863 C 177.857 0.594725 1.49398 0
M  V30 1864 O 179.047 0.862315 1.5136 0
M  V30 1865 C 176.179 1.78431 2.90474 0
M  V30 1866 H 177.372 2.68467 1.33662 0
M  V30 1867 H 174.925 1.41549 0.662836 0
M  V30 1868 H 175.66 0.842645 3.13161 0
M  V30 1869 H 175.445 2.60558 2.93005 0
M  V30 1870 H 176.935 1.96479 3.68491 0
M  V30 1871 N 177.372 -0.689602 1.41712 0
M  V30 1872 C 178.602 -1.47613 1.44548 0
M  V30 1873 C 179.01 -1.89132 0.0509034 0
M  V30 1874 O 178.353 -1.57741 -0.94146 0
M  V30 1875 C 178.415 -2.76596 2.2964 0
M  V30 1876 C 178.079 -2.57245 3.77722 0
M  V30 1877 C 179.076 -2.22804 4.69739 0
M  V30 1878 C 176.761 -2.727 4.2183 0
M  V30 1879 C 178.755 -2.04064 6.03851 0
M  V30 1880 C 176.442 -2.53576 5.56006 0
M  V30 1881 C 177.44 -2.1931 6.46832 0
M  V30 1882 O 177.128 -2.00359 7.78532 0
M  V30 1883 H 176.86 -0.461227 0.494212 0
M  V30 1884 H 179.414 -0.856045 1.86711 0
M  V30 1885 H 177.644 -3.41033 1.82301 0
M  V30 1886 H 179.333 -3.38424 2.24107 0
M  V30 1887 H 180.099 -2.10473 4.36951 0
M  V30 1888 H 175.978 -2.98353 3.51435 0
M  V30 1889 H 179.522 -1.77241 6.74708 0
M  V30 1890 H 175.419 -2.65499 5.88371 0
M  V30 1891 H 176.187 -2.15075 7.89737 0
M  V30 1892 N 178.85 -1.27639 -0.924453 0
M  V30 1893 C 180.098 -1.13941 -1.66918 0
M  V30 1894 C 180.419 0.314589 -1.92446 0
M  V30 1895 O 179.689 1.21964 -1.53303 0
M  V30 1896 H 178.269 -0.418678 -0.618642 0
M  V30 1897 H 180.931 -1.60213 -1.10985 0
M  V30 1898 H 180.027 -1.67094 -2.63602 0
M  V30 1899 N 180.328 1.1314 -1.09713 0
M  V30 1900 C 181.291 2.16831 -0.742751 0
M  V30 1901 C 182.291 1.59159 0.229129 0
M  V30 1902 O 183.481 1.74199 0.00693237 0
M  V30 1903 C 180.613 3.40756 -0.0989168 0
M  V30 1904 H 181.806 2.49695 -1.66109 0
M  V30 1905 H 179.359 1.2802 -0.896699 0
M  V30 1906 H 180.094 3.13485 0.830514 0
M  V30 1907 H 179.879 3.83888 -0.798265 0
M  V30 1908 H 181.369 4.17386 0.133524 0
M  V30 1909 N 181.806 0.884767 1.30421 0
M  V30 1910 C 183.031 0.517288 2.00845 0
M  V30 1911 C 183.456 -0.886779 1.65885 0
M  V30 1912 O 182.814 -1.58768 0.875354 0
M  V30 1913 C 182.862 0.698994 3.5376 0
M  V30 1914 O 181.966 -0.255208 4.1161 0
M  V30 1915 H 181.307 0.203872 0.631927 0
M  V30 1916 H 183.837 1.19225 1.66272 0
M  V30 1917 H 183.847 0.597912 4.03595 0
M  V30 1918 H 182.522 1.72271 3.78544 0
M  V30 1919 H 181.099 -0.10784 3.72744 0
M  V30 1920 N 183.284 -1.43765 0.645699 0
M  V30 1921 C 184.533 -2.01116 0.153412 0
M  V30 1922 C 184.846 -1.51493 -1.23731 0
M  V30 1923 O 186.052 -2.01067 -1.8244 0
M  V30 1924 C 184.508 -3.59206 0.223473 0
M  V30 1925 C 184.116 -4.17823 1.61642 0
M  V30 1926 C 185.86 -4.23972 -0.211597 0
M  V30 1927 C 183.767 -5.68183 1.64081 0
M  V30 1928 H 182.697 -0.752093 0.0535891 0
M  V30 1929 H 185.348 -1.6482 0.806633 0
M  V30 1930 H 183.73 -3.92867 -0.497118 0
M  V30 1931 H 184.904 -3.95674 2.36176 0
M  V30 1932 H 183.219 -3.65399 1.99681 0
M  V30 1933 H 185.816 -5.34275 -0.213112 0
M  V30 1934 H 186.159 -3.97352 -1.24165 0
M  V30 1935 H 186.692 -3.95166 0.456988 0
M  V30 1936 H 183.431 -5.99559 2.64971 0
M  V30 1937 H 182.951 -5.9241 0.938611 0
M  V30 1938 H 184.63 -6.32085 1.3812 0
M  V30 1939 N 184.763 -0.387143 -1.52771 0
M  V30 1940 C 186.009 0.196025 -2.0185 0
M  V30 1941 C 186.342 1.46641 -1.27319 0
M  V30 1942 O 185.617 1.90889 -0.373032 0
M  V30 1943 C 185.9 0.466136 -3.5707 0
M  V30 1944 C 185.753 -0.819385 -4.42274 0
M  V30 1945 C 187.072 1.25768 -4.21747 0
M  V30 1946 H 184.191 0.0697708 -0.73369 0
M  V30 1947 H 186.833 -0.516286 -1.82851 0
M  V30 1948 H 184.983 1.07293 -3.7339 0
M  V30 1949 H 186.655 -1.4563 -4.37709 0
M  V30 1950 H 184.898 -1.43517 -4.09372 0
M  V30 1951 H 185.569 -0.585065 -5.48891 0
M  V30 1952 H 188.045 0.744167 -4.09391 0
M  V30 1953 H 186.921 1.41541 -5.30337 0
M  V30 1954 H 187.182 2.27228 -3.79236 0
M  V30 1955 N 186.241 1.57166 -0.116904 0
M  V30 1956 C 187.471 1.99184 0.548586 0
M  V30 1957 C 187.879 0.995436 1.60897 0
M  V30 1958 O 187.222 -0.0201293 1.83689 0
M  V30 1959 C 187.284 3.37611 1.23526 0
M  V30 1960 C 186.948 4.55857 0.323077 0
M  V30 1961 C 187.945 5.18056 -0.437476 0
M  V30 1962 C 185.63 5.01751 0.234761 0
M  V30 1963 C 187.624 6.24536 -1.2741 0
M  V30 1964 C 185.311 6.08093 -0.605496 0
M  V30 1965 C 186.309 6.69352 -1.35856 0
M  V30 1966 O 185.997 7.7364 -2.18487 0
M  V30 1967 H 185.729 0.659148 0.149999 0
M  V30 1968 H 188.283 2.0443 -0.199428 0
M  V30 1969 H 186.513 3.29113 2.0303 0
M  V30 1970 H 188.202 3.63932 1.79745 0
M  V30 1971 H 188.968 4.83516 -0.379105 0
M  V30 1972 H 184.847 4.53817 0.810601 0
M  V30 1973 H 188.391 6.72281 -1.86237 0
M  V30 1974 H 184.288 6.42063 -0.665268 0
M  V30 1975 H 185.056 7.90727 -2.11406 0
M  V30 1976 N 187.719 -0.156864 1.56817 0
M  V30 1977 C 188.959 -0.877453 1.84608 0
M  V30 1978 C 189.323 -1.78791 0.699845 0
M  V30 1979 O 190.524 -2.5472 0.858553 0
M  V30 1980 C 188.795 -1.63992 3.17555 0
M  V30 1981 S 190.354 -2.40729 3.66872 0
M  V30 1982 H 187.172 -0.293612 0.647544 0
M  V30 1983 H 189.774 -0.138099 1.95012 0
M  V30 1984 H 188.478 -0.962363 3.98957 0
M  V30 1985 H 188.009 -2.42038 3.10131 0
M  V30 1986 H 190.024 -3.65725 3.3535 0
M  V30 1987 N 189.197 -1.51736 -0.425897 0
M  V30 1988 C 190.107 -1.76738 -1.54275 0
M  V30 1989 C 191.123 -0.65211 -1.61318 0
M  V30 1990 O 192.299 -0.935654 -1.78346 0
M  V30 1991 C 189.364 -1.89755 -2.90162 0
M  V30 1992 C 188.425 -3.13633 -2.93143 0
M  V30 1993 C 187.658 -3.2602 -4.22548 0
M  V30 1994 O 187.881 -2.44067 -5.15546 0
M  V30 1995 O 186.815 -4.19071 -4.32046 0
M  V30 1996 H 190.641 -2.71502 -1.36089 0
M  V30 1997 H 188.226 -1.36376 -0.610069 0
M  V30 1998 H 190.108 -2.00236 -3.70788 0
M  V30 1999 H 188.783 -0.981785 -3.08452 0
M  V30 2000 H 187.69 -3.08622 -2.11431 0
M  V30 2001 H 189.023 -4.04936 -2.798 0
M  V30 2002 N 190.675 0.682077 -1.42076 0
M  V30 2003 C 192.086 1.26246 -1.37546 0
M  V30 2004 C 192.437 1.96092 -0.0651481 0
M  V30 2005 O 191.562 1.99587 0.836297 0
M  V30 2006 C 192.157 2.29594 -2.49143 0
M  V30 2007 C 190.716 2.83175 -2.47969 0
M  V30 2008 C 189.863 1.57395 -2.28303 0
M  V30 2009 H 192.814 0.475937 -1.51395 0
M  V30 2010 H 192.835 3.11175 -2.18976 0
M  V30 2011 H 192.347 1.78729 -3.44496 0
M  V30 2012 H 190.448 3.3818 -1.56413 0
M  V30 2013 H 190.561 3.32687 -3.44755 0
M  V30 2014 H 188.925 1.83699 -1.76428 0
M  V30 2015 H 189.708 1.08507 -3.25701 0
M  V30 2016 N 192.153 1.28127 0.917671 0
M  V30 2017 C 193.378 1.18007 1.70555 0
M  V30 2018 C 193.803 -0.258257 1.86319 0
M  V30 2019 O 193.161 -1.1869 1.37049 0
M  V30 2020 C 193.209 1.87948 3.07746 0
M  V30 2021 O 192.313 1.18427 3.9503 0
M  V30 2022 H 191.654 0.409867 0.522403 0
M  V30 2023 H 194.184 1.69379 1.1477 0
M  V30 2024 H 194.194 1.95701 3.58001 0
M  V30 2025 H 192.869 2.92573 2.95591 0
M  V30 2026 H 191.446 1.18811 3.53466 0
M  V30 2027 N 193.631 -1.12557 1.10312 0
M  V30 2028 C 194.908 -1.80363 0.756878 0
M  V30 2029 C 195.288 -1.97067 -0.756824 0
M  V30 2030 O 194.636 -1.54601 -1.68259 0
M  V30 2031 C 194.846 -3.14812 1.50647 0
M  V30 2032 C 196.194 -3.90029 1.67817 0
M  V30 2033 O 197.218 -3.24464 1.46974 0
M  V30 2034 O 196.077 -5.07652 2.02365 0
M  V30 2035 H 193.171 -0.780667 0.272926 0
M  V30 2036 H 195.717 -1.19404 1.20586 0
M  V30 2037 H 194.489 -2.97936 2.53672 0
M  V30 2038 H 194.112 -3.83478 1.05026 0
M  V30 2039 N 195.109 -0.891671 -1.2995 0
M  V30 2040 C 196.019 -0.367691 -2.31701 0
M  V30 2041 C 197.035 0.533486 -1.6562 0
M  V30 2042 O 198.211 0.424997 -1.96865 0
M  V30 2043 C 195.276 0.403406 -3.44345 0
M  V30 2044 C 194.337 -0.528328 -4.26037 0
M  V30 2045 C 193.57 0.206063 -5.33302 0
M  V30 2046 O 193.793 1.43119 -5.52153 0
M  V30 2047 O 192.727 -0.447281 -6.00236 0
M  V30 2048 H 196.553 -1.21163 -2.78484 0
M  V30 2049 H 194.138 -0.655725 -1.34241 0
M  V30 2050 H 196.02 0.839753 -4.12948 0
M  V30 2051 H 194.695 1.22354 -2.99685 0
M  V30 2052 H 193.602 -1.01362 -3.60106 0
M  V30 2053 H 194.935 -1.31465 -4.74318 0
M  V30 2054 N 196.587 1.43421 -0.653314 0
M  V30 2055 C 197.812 2.06678 -0.172846 0
M  V30 2056 C 198.237 1.48648 1.15262 0
M  V30 2057 O 197.595 0.596457 1.71208 0
M  V30 2058 C 197.643 3.60474 -0.0953184 0
M  V30 2059 O 196.747 4.01487 0.942442 0
M  V30 2060 H 196.088 0.657181 -0.0949155 0
M  V30 2061 H 198.618 1.83925 -0.896265 0
M  V30 2062 H 198.628 4.07905 0.0879728 0
M  V30 2063 H 197.303 4.02088 -1.06291 0
M  V30 2064 H 195.88 3.65646 0.731932 0
M  V30 2065 N 198.065 0.39524 1.52563 0
M  V30 2066 C 199.481 0.0454682 1.59535 0
M  V30 2067 C 199.681 -1.44056 1.4089 0
M  V30 2068 O 198.737 -2.20579 1.22888 0
M  V30 2069 C 200.05 0.527963 2.96029 0
M  V30 2070 C 201.598 0.484733 3.09224 0
M  V30 2071 C 202.073 0.943512 4.48176 0
M  V30 2072 N 203.564 0.899765 4.54377 0
M  V30 2073 C 204.299 1.22609 5.60138 0
M  V30 2074 N 203.795 1.62319 6.73516 0
M  V30 2075 N 205.588 1.14696 5.50274 0
M  V30 2076 H 197.739 1.36261 1.62931 0
M  V30 2077 H 200.002 0.558887 0.765735 0
M  V30 2078 H 199.708 1.56607 3.14908 0
M  V30 2079 H 199.582 -0.0698056 3.77135 0
M  V30 2080 H 201.969 -0.544298 2.90037 0
M  V30 2081 H 202.05 1.11838 2.30056 0
M  V30 2082 H 201.694 1.9708 4.68104 0
M  V30 2083 H 201.624 0.286817 5.25818 0
M  V30 2084 H 204.115 0.607632 3.72983 0
M  V30 2085 H 204.428 1.85567 7.5019 0
M  V30 2086 H 202.773 1.66211 6.74833 0
M  V30 2087 H 205.964 0.835701 4.6058 0
M  V30 2088 H 206.137 1.40459 6.32594 0
M  V30 2089 N 199.544 -1.57102 0.125237 0
M  V30 2090 C 200.454 -2.19191 -0.8362 0
M  V30 2091 C 201.47 -1.16985 -1.28805 0
M  V30 2092 O 202.646 -1.49479 -1.34974 0
M  V30 2093 C 199.711 -2.78407 -2.06617 0
M  V30 2094 C 198.772 -3.9567 -1.66565 0
M  V30 2095 C 198.005 -4.52052 -2.83698 0
M  V30 2096 O 198.228 -4.07326 -3.99302 0
M  V30 2097 O 197.162 -5.42645 -2.60423 0
M  V30 2098 H 200.988 -3.01816 -0.337776 0
M  V30 2099 H 198.573 -1.4906 -0.100695 0
M  V30 2100 H 200.455 -3.16129 -2.7864 0
M  V30 2101 H 199.13 -1.9881 -2.55453 0
M  V30 2102 H 198.037 -3.62705 -0.916296 0
M  V30 2103 H 199.37 -4.76722 -1.22464 0
M  V30 2104 N 201.022 0.148545 -1.56898 0
M  V30 2105 C 201.97 1.20265 -1.99096 0
M  V30 2106 C 202.964 1.44559 -0.883123 0
M  V30 2107 O 204.17 1.4487 -1.0683 0
M  V30 2108 H 200.545 0.404786 -0.63376 0
M  V30 2109 H 202.516 0.82004 -2.86911 0
M  V30 2110 C 201.265 2.52886 -2.3863 0
M  V30 2111 H 200.588 2.35021 -3.23427 0
M  V30 2112 H 202.028 3.25274 -2.7198 0
M  V30 2113 C 200.487 3.13315 -1.23837 0
M  V30 2114 O 201.017 3.98077 -0.538268 0
M  V30 2115 N 199.223 2.72742 -1.00301 0
M  V30 2116 H 198.77 2.03912 -1.5741 0
M  V30 2117 H 198.728 3.13507 -0.236838 0
M  V30 2118 N 202.5 1.5196 0.417844 0
M  V30 2119 C 203.746 1.65836 1.16732 0
M  V30 2120 C 204.079 0.382881 1.90388 0
M  V30 2121 O 203.354 -0.618368 1.84408 0
M  V30 2122 C 203.637 2.87466 2.16876 0
M  V30 2123 C 203.49 4.25041 1.47174 0
M  V30 2124 C 204.809 3.04613 3.17646 0
M  V30 2125 H 201.928 0.603515 0.423011 0
M  V30 2126 H 204.57 1.84494 0.454105 0
M  V30 2127 H 202.72 2.71689 2.777 0
M  V30 2128 H 204.392 4.52527 0.895376 0
M  V30 2129 H 202.635 4.26843 0.773806 0
M  V30 2130 H 203.306 5.06176 2.20204 0
M  V30 2131 H 205.782 3.1923 2.66892 0
M  V30 2132 H 204.658 3.91247 3.8499 0
M  V30 2133 H 204.919 2.17541 3.84874 0
M  V30 2134 N 203.978 -0.674533 1.42435 0
M  V30 2135 C 204.941 -1.76986 1.45632 0
M  V30 2136 C 205.941 -1.5708 0.343871 0
M  V30 2137 O 207.131 -1.63367 0.604709 0
M  V30 2138 C 204.263 -3.15623 1.28822 0
M  V30 2139 H 205.456 -1.75539 2.43158 0
M  V30 2140 H 203.009 -0.884189 1.28887 0
M  V30 2141 H 203.744 -3.22696 0.322193 0
M  V30 2142 H 203.529 -3.31475 2.09444 0
M  V30 2143 H 205.019 -3.95537 1.33942 0
M  V30 2144 N 205.456 -1.28612 -0.910864 0
M  V30 2145 C 206.403 -1.12786 -2.01365 0
M  V30 2146 C 207.373 -0.024201 -1.66082 0
M  V30 2147 O 208.558 -0.189667 -1.89855 0
M  V30 2148 C 205.698 -0.798743 -3.35729 0
M  V30 2149 C 204.811 -1.98173 -3.83864 0
M  V30 2150 C 203.946 -1.59298 -5.06752 0
M  V30 2151 C 202.985 -2.74245 -5.47226 0
M  V30 2152 N 202.122 -2.35842 -6.61304 0
M  V30 2153 H 206.962 -2.07142 -2.14234 0
M  V30 2154 H 204.499 -1.03093 -1.0493 0
M  V30 2155 H 206.457 -0.588662 -4.13026 0
M  V30 2156 H 205.087 0.10789 -3.2262 0
M  V30 2157 H 204.139 -2.30386 -3.02699 0
M  V30 2158 H 205.451 -2.84343 -4.09818 0
M  V30 2159 H 204.605 -1.34513 -5.916 0
M  V30 2160 H 203.344 -0.702618 -4.82612 0
M  V30 2161 H 202.349 -2.99725 -4.60918 0
M  V30 2162 H 203.574 -3.63928 -5.73353 0
M  V30 2163 H 201.52 -1.49279 -6.38789 0
M  V30 2164 H 201.437 -3.15546 -6.86998 0
M  V30 2165 H 202.705 -2.14348 -7.4945 0
M  V30 2166 N 206.934 1.1197 -1.10907 0
M  V30 2167 C 208.35 1.35591 -0.841852 0
M  V30 2168 C 208.55 1.94233 0.536246 0
M  V30 2169 O 207.606 2.1717 1.28816 0
M  V30 2170 C 208.919 2.29284 -1.94549 0
M  V30 2171 C 210.467 2.42862 -1.97451 0
M  V30 2172 C 210.942 3.39873 -3.07002 0
M  V30 2173 N 212.433 3.47433 -3.06341 0
M  V30 2174 C 213.168 4.22421 -3.87748 0
M  V30 2175 N 212.664 5.00432 -4.79103 0
M  V30 2176 N 214.457 4.17876 -3.75946 0
M  V30 2177 H 206.608 0.722664 -1.99728 0
M  V30 2178 H 208.871 0.380635 -0.868229 0
M  V30 2179 H 208.577 1.93378 -2.93765 0
M  V30 2180 H 208.451 3.29452 -1.83688 0
M  V30 2181 H 210.838 2.78046 -0.988645 0
M  V30 2182 H 210.919 1.42566 -2.12388 0
M  V30 2183 H 210.563 3.05417 -4.05811 0
M  V30 2184 H 210.493 4.40011 -2.89306 0
M  V30 2185 H 212.984 2.91784 -2.40147 0
M  V30 2186 H 213.297 5.55002 -5.37766 0
M  V30 2187 H 211.642 4.99612 -4.83128 0
M  V30 2188 H 214.833 3.56016 -3.03924 0
M  V30 2189 H 215.006 4.76061 -4.39624 0
M  V30 2190 N 208.412 0.89855 1.29475 0
M  V30 2191 C 209.658 0.524658 1.95896 0
M  V30 2192 C 209.991 -0.926468 1.70676 0
M  V30 2193 O 209.266 -1.65665 1.01908 0
M  V30 2194 C 209.549 0.81633 3.50725 0
M  V30 2195 C 209.402 2.31907 3.85408 0
M  V30 2196 C 210.721 0.302038 4.39062 0
M  V30 2197 H 207.84 0.19209 0.711527 0
M  V30 2198 H 210.482 1.12502 1.53112 0
M  V30 2199 H 208.632 0.305369 3.87298 0
M  V30 2200 H 210.304 2.89949 3.58786 0
M  V30 2201 H 208.547 2.78027 3.32992 0
M  V30 2202 H 209.218 2.47373 4.93468 0
M  V30 2203 H 211.694 0.739551 4.09475 0
M  V30 2204 H 210.57 0.535331 5.46283 0
M  V30 2205 H 210.831 -0.797216 4.34853 0
M  V30 2206 N 209.89 -1.43072 0.660911 0
M  V30 2207 C 211.118 -2.06067 0.185422 0
M  V30 2208 C 211.533 -1.49582 -1.15198 0
M  V30 2209 O 210.89 -0.630134 -1.71276 0
M  V30 2210 C 210.941 -3.61371 0.0966523 0
M  V30 2211 O 210.662 -4.15758 1.38119 0
M  V30 2212 C 212.163 -4.41455 -0.403996 0
M  V30 2213 H 209.383 -0.664459 0.0934604 0
M  V30 2214 H 211.927 -1.83447 0.90373 0
M  V30 2215 H 210.082 -3.8315 -0.572259 0
M  V30 2216 H 210.496 -5.09499 1.24542 0
M  V30 2217 H 211.97 -5.50437 -0.415045 0
M  V30 2218 H 212.447 -4.15036 -1.43674 0
M  V30 2219 H 213.053 -4.24663 0.232691 0
M  V30 2220 N 211.368 -0.403325 -1.52352 0
M  V30 2221 C 212.278 0.432009 -2.30588 0
M  V30 2222 C 213.294 1.05884 -1.38075 0
M  V30 2223 O 214.47 1.06161 -1.71148 0
M  V30 2224 C 211.535 1.53669 -3.10784 0
M  V30 2225 C 210.596 0.933525 -4.19027 0
M  V30 2226 C 209.829 1.98557 -4.9539 0
M  V30 2227 O 210.052 3.20283 -4.71991 0
M  V30 2228 O 208.986 1.59504 -5.80381 0
M  V30 2229 H 212.812 -0.205739 -3.03002 0
M  V30 2230 H 210.397 -0.166675 -1.48467 0
M  V30 2231 H 212.279 2.17814 -3.60742 0
M  V30 2232 H 210.954 2.15915 -2.41169 0
M  V30 2233 H 209.861 0.254954 -3.7323 0
M  V30 2234 H 211.194 0.35508 -4.90918 0
M  V30 2235 N 212.846 1.57033 -0.133567 0
M  V30 2236 C 213.756 2.19632 0.824564 0
M  V30 2237 C 214.772 1.17666 1.28182 0
M  V30 2238 O 215.948 1.50193 1.3418 0
M  V30 2239 C 213.013 2.79499 2.05137 0
M  V30 2240 C 212.074 3.96548 1.64464 0
M  V30 2241 C 211.307 4.5355 2.81297 0
M  V30 2242 O 211.53 4.09438 3.97136 0
M  V30 2243 O 210.464 5.44018 2.57542 0
M  V30 2244 H 214.29 3.01991 0.321766 0
M  V30 2245 H 211.875 1.49112 0.0927889 0
M  V30 2246 H 213.757 3.17602 2.7696 0
M  V30 2247 H 212.432 2.00162 2.54395 0
M  V30 2248 H 211.339 3.63186 0.897048 0
M  V30 2249 H 212.672 4.77364 1.19934 0
M  V30 2250 N 214.325 -0.140222 1.56975 0
M  V30 2251 C 215.553 -0.866437 1.87884 0
M  V30 2252 C 215.968 -1.74428 0.722517 0
M  V30 2253 O 215.325 -1.79891 -0.30749 0
M  V30 2254 C 215.376 -1.71753 3.18093 0
M  V30 2255 O 215.097 -0.875056 4.29272 0
M  V30 2256 C 216.598 -2.55074 3.62563 0
M  V30 2257 H 213.818 -0.25019 0.622612 0
M  V30 2258 H 216.362 -0.130977 2.0408 0
M  V30 2259 H 214.517 -2.40598 3.03631 0
M  V30 2260 H 214.931 -1.46002 5.03769 0
M  V30 2261 H 216.405 -3.10356 4.5649 0
M  V30 2262 H 216.882 -3.31434 2.88181 0
M  V30 2263 H 217.488 -1.91509 3.79743 0
M  V30 2264 N 215.803 -1.52179 -0.40978 0
M  V30 2265 C 216.713 -1.78364 -1.52392 0
M  V30 2266 C 217.729 -0.669183 -1.60617 0
M  V30 2267 O 218.905 -0.954518 -1.77344 0
M  V30 2268 C 215.97 -1.92822 -2.88133 0
M  V30 2269 C 215.031 -3.16725 -2.898 0
M  V30 2270 C 214.264 -3.30483 -4.19067 0
M  V30 2271 O 214.487 -2.49522 -5.12928 0
M  V30 2272 O 213.421 -4.2363 -4.27576 0
M  V30 2273 H 217.247 -2.72931 -1.33201 0
M  V30 2274 H 214.832 -1.37016 -0.59557 0
M  V30 2275 H 216.714 -2.04157 -3.68643 0
M  V30 2276 H 215.389 -1.01444 -3.07393 0
M  V30 2277 H 214.296 -3.10848 -2.08146 0
M  V30 2278 H 215.629 -4.07881 -2.75489 0
M  V30 2279 N 217.281 0.66697 -1.42791 0
M  V30 2280 C 218.529 1.42417 -1.43394 0
M  V30 2281 C 218.85 1.94925 -0.0542373 0
M  V30 2282 O 218.12 1.73564 0.908415 0
M  V30 2283 H 216.7 0.528515 -0.527902 0
M  V30 2284 H 219.362 0.787562 -1.78279 0
M  V30 2285 H 218.458 2.27333 -2.13837 0
M  V30 2286 N 218.759 1.29093 0.90403 0
M  V30 2287 C 220.008 1.16187 1.64874 0
M  V30 2288 C 220.321 -0.286742 1.93487 0
M  V30 2289 O 221.527 -0.537062 2.66135 0
M  V30 2290 C 219.983 2.03177 2.97064 0
M  V30 2291 C 219.591 3.52836 2.76062 0
M  V30 2292 C 221.335 1.98984 3.74974 0
M  V30 2293 C 219.242 4.31945 4.03952 0
M  V30 2294 H 218.172 0.431246 0.618501 0
M  V30 2295 H 220.823 1.53699 1.00243 0
M  V30 2296 H 219.205 1.5853 3.62883 0
M  V30 2297 H 220.379 4.05507 2.18863 0
M  V30 2298 H 218.694 3.58656 2.11553 0
M  V30 2299 H 221.291 2.55351 4.69787 0
M  V30 2300 H 221.634 0.968815 4.0487 0
M  V30 2301 H 222.167 2.41652 3.15989 0
M  V30 2302 H 218.906 5.34667 3.79225 0
M  V30 2303 H 218.426 3.84045 4.60727 0
M  V30 2304 H 220.105 4.42379 4.72133 0
M  V30 2305 N 220.237 -1.11381 1.11499 0
M  V30 2306 C 221.17 -2.16621 0.71769 0
M  V30 2307 C 222.148 -1.60058 -0.286413 0
M  V30 2308 O 223.332 -1.87613 -0.182689 0
M  V30 2309 C 220.459 -3.38646 0.0607265 0
M  V30 2310 C 219.505 -4.13874 1.03008 0
M  V30 2311 S 220.338 -4.70731 2.55289 0
M  V30 2312 C 221.494 -5.96079 1.90895 0
M  V30 2313 H 221.727 -2.49987 1.60915 0
M  V30 2314 H 219.26 -1.23015 0.933092 0
M  V30 2315 H 221.218 -4.09313 -0.311965 0
M  V30 2316 H 219.879 -3.03537 -0.807702 0
M  V30 2317 H 219.072 -5.01333 0.517853 0
M  V30 2318 H 218.674 -3.4897 1.34522 0
M  V30 2319 H 220.966 -6.65948 1.24577 0
M  V30 2320 H 221.909 -6.51946 2.76354 0
M  V30 2321 H 222.317 -5.47652 1.36885 0
M  V30 2322 N 221.715 -0.905404 -1.28997 0
M  V30 2323 C 222.961 -0.535039 -1.95615 0
M  V30 2324 C 223.294 0.917404 -1.71165 0
M  V30 2325 O 222.569 1.65123 -1.02785 0
M  V30 2326 C 222.852 -0.834918 -3.50287 0
M  V30 2327 C 222.705 -2.33948 -3.84172 0
M  V30 2328 C 224.024 -0.325318 -4.38896 0
M  V30 2329 H 221.143 -0.195861 -0.710498 0
M  V30 2330 H 223.785 -1.13313 -1.52513 0
M  V30 2331 H 221.935 -0.325904 -3.87131 0
M  V30 2332 H 223.607 -2.91847 -3.57243 0
M  V30 2333 H 221.85 -2.79789 -3.31513 0
M  V30 2334 H 222.521 -2.49987 -4.92149 0
M  V30 2335 H 224.997 -0.761256 -4.09077 0
M  V30 2336 H 223.873 -0.564295 -5.45992 0
M  V30 2337 H 224.134 0.774144 -4.35269 0
M  V30 2338 N 223.193 1.4272 -0.668489 0
M  V30 2339 C 224.143 2.27971 0.0363806 0
M  V30 2340 C 225.127 1.40741 0.779794 0
M  V30 2341 O 226.319 1.64245 0.659745 0
M  V30 2342 C 223.448 3.28673 0.991398 0
M  V30 2343 C 222.534 4.23388 0.245658 0
M  V30 2344 N 222.925 5.00267 -0.746069 0
M  V30 2345 C 221.223 4.43355 0.484988 0
M  V30 2346 C 221.924 5.69396 -1.19009 0
M  V30 2347 N 220.9 5.41095 -0.521287 0
M  V30 2348 H 224.702 2.84833 -0.724394 0
M  V30 2349 H 222.216 1.54607 -0.497028 0
M  V30 2350 H 224.213 3.88543 1.51129 0
M  V30 2351 H 222.873 2.73373 1.75207 0
M  V30 2352 H 223.884 5.05525 -1.12537 0
M  V30 2353 H 220.561 3.99104 1.22565 0
M  V30 2354 H 221.951 6.41083 -2.01153 0
M  V30 2355 N 224.671 0.411399 1.52136 0
M  V30 2356 C 226.082 -0.0576826 1.86611 0
M  V30 2357 C 226.433 -1.44238 1.33003 0
M  V30 2358 O 225.558 -2.05759 0.670228 0
M  V30 2359 C 226.153 -0.111448 3.38617 0
M  V30 2360 C 224.712 -0.52487 3.72723 0
M  V30 2361 C 223.859 0.299176 2.75681 0
M  V30 2362 H 226.81 0.628368 1.4573 0
M  V30 2363 H 226.831 -0.926252 3.69054 0
M  V30 2364 H 226.343 0.896488 3.77604 0
M  V30 2365 H 224.444 -1.53936 3.39315 0
M  V30 2366 H 224.557 -0.267681 4.78352 0
M  V30 2367 H 222.921 -0.238814 2.53578 0
M  V30 2368 H 223.704 1.3055 3.17508 0
M  V30 2369 N 226.149 -1.5696 0.141893 0
M  V30 2370 C 227.097 -2.17784 -0.816874 0
M  V30 2371 C 228.091 -1.1334 -1.25899 0
M  V30 2372 O 229.297 -1.316 -1.22806 0
M  V30 2373 H 225.672 -0.697278 -0.281615 0
M  V30 2374 H 227.643 -2.97087 -0.279621 0
M  V30 2375 C 226.392 -2.80983 -2.04802 0
M  V30 2376 H 225.715 -3.61062 -1.7168 0
M  V30 2377 H 227.155 -3.2705 -2.69841 0
M  V30 2378 C 225.614 -1.79228 -2.8527 0
M  V30 2379 O 226.144 -1.25962 -3.8144 0
M  V30 2380 N 224.35 -1.48647 -2.49704 0
M  V30 2381 H 223.897 -1.92155 -1.71564 0
M  V30 2382 H 223.855 -0.808115 -3.03837 0
M  V30 2383 N 227.627 0.131896 -1.57047 0
M  V30 2384 C 228.559 1.1878 -1.9602 0
M  V30 2385 C 229.572 1.38363 -0.857875 0
M  V30 2386 O 230.761 1.37666 -1.13623 0
M  V30 2387 C 227.861 2.55008 -2.23213 0
M  V30 2388 C 227.034 2.56201 -3.54513 0
M  V30 2389 C 226.093 3.7408 -3.70069 0
M  V30 2390 O 225.119 3.58258 -4.42312 0
M  V30 2391 N 226.321 4.92137 -3.07866 0
M  V30 2392 H 229.086 0.85639 -2.87204 0
M  V30 2393 H 226.647 0.321309 -1.5868 0
M  V30 2394 H 228.639 3.32404 -2.30846 0
M  V30 2395 H 227.209 2.80382 -1.3822 0
M  V30 2396 H 226.429 1.64613 -3.58185 0
M  V30 2397 H 227.717 2.54043 -4.4084 0
M  V30 2398 H 227.115 5.07895 -2.49116 0
M  V30 2399 H 225.672 5.67254 -3.21039 0
M  V30 2400 N 229.106 1.52395 0.401703 0
M  V30 2401 C 230.016 1.7917 1.51444 0
M  V30 2402 C 231.032 0.677691 1.6026 0
M  V30 2403 O 232.208 0.963909 1.76835 0
M  V30 2404 C 229.273 1.94347 2.87107 0
M  V30 2405 C 228.334 3.18257 2.88116 0
M  V30 2406 C 227.567 3.32701 4.17308 0
M  V30 2407 O 227.79 2.52238 5.11598 0
M  V30 2408 O 226.724 4.25891 4.25324 0
M  V30 2409 H 230.55 2.73633 1.31752 0
M  V30 2410 H 228.135 1.3733 0.588296 0
M  V30 2411 H 230.017 2.06109 3.67555 0
M  V30 2412 H 228.692 1.03073 3.06851 0
M  V30 2413 H 227.599 3.11947 2.06494 0
M  V30 2414 H 228.932 4.09336 2.73322 0
M  V30 2415 N 230.584 -0.659388 1.43143 0
M  V30 2416 C 231.995 -1.24041 1.39537 0
M  V30 2417 C 232.346 -1.95963 0.0963364 0
M  V30 2418 O 231.471 -2.00892 -0.804438 0
M  V30 2419 C 232.066 -2.25601 2.52764 0
M  V30 2420 C 230.625 -2.79195 2.52443 0
M  V30 2421 C 229.772 -1.53743 2.30778 0
M  V30 2422 H 232.723 -0.451792 1.52133 0
M  V30 2423 H 232.744 -3.07651 2.23899 0
M  V30 2424 H 232.256 -1.73226 3.47296 0
M  V30 2425 H 230.357 -3.35649 1.61773 0
M  V30 2426 H 230.47 -3.2716 3.50004 0
M  V30 2427 H 228.834 -1.80869 1.79328 0
M  V30 2428 H 229.617 -1.03312 3.27386 0
M  V30 2429 N 232.062 -1.29571 -0.897171 0
M  V30 2430 C 233.025 -1.14913 -1.98312 0
M  V30 2431 C 234.025 -0.0838629 -1.60581 0
M  V30 2432 O 235.215 -0.331006 -1.71026 0
M  V30 2433 C 232.347 -0.757835 -3.3237 0
M  V30 2434 H 233.54 -2.11377 -2.12743 0
M  V30 2435 H 231.093 -1.12793 -1.08201 0
M  V30 2436 H 231.828 0.206837 -3.2364 0
M  V30 2437 H 231.613 -1.52755 -3.61121 0
M  V30 2438 H 233.103 -0.678408 -4.12053 0
M  V30 2439 N 233.54 1.10788 -1.12088 0
M  V30 2440 C 234.786 1.82942 -0.875226 0
M  V30 2441 C 235.119 1.84779 0.597538 0
M  V30 2442 O 234.394 1.30578 1.44152 0
M  V30 2443 C 234.677 3.29789 -1.44606 0
M  V30 2444 C 234.53 3.36307 -2.98693 0
M  V30 2445 C 235.849 4.26064 -1.10261 0
M  V30 2446 H 232.968 0.664195 -0.319397 0
M  V30 2447 H 235.61 1.29867 -1.38689 0
M  V30 2448 H 233.76 3.75118 -1.01089 0
M  V30 2449 H 235.432 2.99487 -3.50864 0
M  V30 2450 H 233.675 2.76318 -3.34411 0
M  V30 2451 H 234.346 4.39694 -3.33726 0
M  V30 2452 H 236.822 3.88951 -1.4784 0
M  V30 2453 H 235.698 5.27183 -1.52869 0
M  V30 2454 H 235.959 4.42098 -0.0142953 0
M  V30 2455 N 235.018 0.912232 1.28515 0
M  V30 2456 C 236.267 0.540504 1.94323 0
M  V30 2457 C 236.58 -0.920044 1.72611 0
M  V30 2458 O 237.786 -1.39986 2.32629 0
M  V30 2459 C 236.242 0.915803 3.48053 0
M  V30 2460 C 235.85 2.39598 3.78546 0
M  V30 2461 C 237.594 0.614588 4.20027 0
M  V30 2462 C 235.501 2.71148 5.25578 0
M  V30 2463 H 234.431 0.198418 0.727424 0
M  V30 2464 H 237.082 1.11094 1.46049 0
M  V30 2465 H 235.464 0.274168 3.9505 0
M  V30 2466 H 236.638 3.08422 3.42364 0
M  V30 2467 H 234.953 2.66749 3.1974 0
M  V30 2468 H 237.55 0.827002 5.28266 0
M  V30 2469 H 237.893 -0.447531 4.13887 0
M  V30 2470 H 238.426 1.21462 3.78803 0
M  V30 2471 H 235.165 3.76207 5.36794 0
M  V30 2472 H 234.685 2.0696 5.62963 0
M  V30 2473 H 236.364 2.58072 5.93302 0
M  V30 2474 N 236.496 -1.42363 0.676048 0
M  V30 2475 C 237.459 -2.29199 0.00766941 0
M  V30 2476 C 238.459 -1.43389 -0.727745 0
M  V30 2477 O 239.649 -1.64764 -0.56556 0
M  V30 2478 C 236.781 -3.2591 -0.999785 0
M  V30 2479 H 237.974 -2.89794 0.771988 0
M  V30 2480 H 235.527 -1.50024 0.438468 0
M  V30 2481 H 236.262 -2.70256 -1.79255 0
M  V30 2482 H 236.047 -3.89202 -0.475829 0
M  V30 2483 H 237.537 -3.91028 -1.46583 0
M  V30 2484 N 237.974 -0.419461 -1.51915 0
M  V30 2485 C 239.222 0.152637 -2.01523 0
M  V30 2486 C 239.543 1.44762 -1.30649 0
M  V30 2487 O 238.813 1.90997 -0.435535 0
M  V30 2488 H 237.393 0.0593966 -0.744635 0
M  V30 2489 H 240.055 -0.558073 -1.86739 0
M  V30 2490 H 239.151 0.341369 -3.10227 0
M  V30 2491 N 239.452 1.56882 -0.150215 0
M  V30 2492 C 240.384 2.14057 0.819286 0
M  V30 2493 C 241.397 1.09082 1.20851 0
M  V30 2494 O 242.586 1.36347 1.15203 0
M  V30 2495 C 239.686 2.65102 2.11127 0
M  V30 2496 C 238.859 3.94511 1.88891 0
M  V30 2497 C 237.918 4.30834 3.02107 0
M  V30 2498 O 236.944 4.99099 2.73659 0
M  V30 2499 N 238.146 3.90676 4.29363 0
M  V30 2500 H 240.911 2.97871 0.330618 0
M  V30 2501 H 238.472 1.61866 0.0332538 0
M  V30 2502 H 240.464 2.86411 2.85921 0
M  V30 2503 H 239.034 1.85994 2.51247 0
M  V30 2504 H 238.254 3.81795 0.981152 0
M  V30 2505 H 239.542 4.7907 1.71376 0
M  V30 2506 H 238.94 3.35677 4.55343 0
M  V30 2507 H 237.497 4.1703 5.00928 0
M  V30 2508 N 240.93 -0.123565 1.57115 0
M  V30 2509 C 242.178 -0.83051 1.84247 0
M  V30 2510 C 242.499 -1.80629 0.73471 0
M  V30 2511 O 241.769 -1.94403 -0.241688 0
M  V30 2512 H 240.349 -0.309694 0.679778 0
M  V30 2513 H 243.011 -0.111976 1.94578 0
M  V30 2514 H 242.107 -1.37852 2.80006 0
M  V30 2515 N 242.408 -1.52605 -0.393616 0
M  V30 2516 C 243.636 -1.71294 -1.16043 0
M  V30 2517 C 244.051 -0.429259 -1.83855 0
M  V30 2518 O 243.408 0.595921 -1.72496 0
M  V30 2519 C 243.459 -2.8593 -2.21193 0
M  V30 2520 O 243.18 -4.09329 -1.56146 0
M  V30 2521 C 244.681 -3.16259 -3.10636 0
M  V30 2522 H 241.901 -0.573641 -0.348104 0
M  V30 2523 H 244.445 -1.99234 -0.461092 0
M  V30 2524 H 242.6 -2.60465 -2.86769 0
M  V30 2525 H 243.014 -4.73323 -2.25978 0
M  V30 2526 H 244.488 -3.99946 -3.80456 0
M  V30 2527 H 244.965 -2.3045 -3.73884 0
M  V30 2528 H 245.571 -3.43547 -2.50711 0
M  V30 2529 N 243.887 0.651787 -1.4349 0
M  V30 2530 C 245.136 1.40754 -1.44469 0
M  V30 2531 C 245.449 1.95463 -0.0731845 0
M  V30 2532 O 246.655 2.71471 0.0395721 0
M  V30 2533 C 245.111 2.54735 -2.5424 0
M  V30 2534 C 244.719 2.06628 -3.97504 0
M  V30 2535 C 246.463 3.32092 -2.64414 0
M  V30 2536 C 244.37 3.17829 -4.98737 0
M  V30 2537 H 243.3 0.528862 -0.53742 0
M  V30 2538 H 245.951 0.703365 -1.69485 0
M  V30 2539 H 244.333 3.2763 -2.22428 0
M  V30 2540 H 245.507 1.40734 -4.38783 0
M  V30 2541 H 243.822 1.42146 -3.91387 0
M  V30 2542 H 246.419 4.14952 -3.37223 0
M  V30 2543 H 246.762 3.80217 -1.69532 0
M  V30 2544 H 247.295 2.66279 -2.95534 0
M  V30 2545 H 244.034 2.74671 -5.95177 0
M  V30 2546 H 243.554 3.82429 -4.62069 0
M  V30 2547 H 245.233 3.82937 -5.21505 0
M  V30 2548 N 245.365 1.30045 0.890287 0
M  V30 2549 C 246.328 1.15963 1.977 0
M  V30 2550 C 247.328 0.0923777 1.60534 0
M  V30 2551 O 248.518 0.340071 1.70848 0
M  V30 2552 C 245.65 0.775451 3.31963 0
M  V30 2553 H 246.843 2.12502 2.11619 0
M  V30 2554 H 244.396 1.13366 1.07601 0
M  V30 2555 H 245.131 -0.189671 3.23745 0
M  V30 2556 H 244.916 1.54668 3.60306 0
M  V30 2557 H 246.406 0.700251 4.11687 0
M  V30 2558 N 246.843 -1.10192 1.12674 0
M  V30 2559 C 247.773 -2.18652 0.819362 0
M  V30 2560 C 248.754 -1.68698 -0.217915 0
M  V30 2561 O 249.939 -1.94041 -0.0785581 0
M  V30 2562 C 247.069 -3.46202 0.27594 0
M  V30 2563 C 246.023 -4.09444 1.24656 0
M  V30 2564 C 245.349 -5.31725 0.563258 0
M  V30 2565 C 246.649 -4.52863 2.60217 0
M  V30 2566 H 248.343 -2.44622 1.72628 0
M  V30 2567 H 245.889 -1.17571 0.831451 0
M  V30 2568 H 247.842 -4.21372 0.0486149 0
M  V30 2569 H 246.566 -3.1973 -0.666331 0
M  V30 2570 H 245.225 -3.36284 1.45974 0
M  V30 2571 H 244.873 -5.0153 -0.384235 0
M  V30 2572 H 244.573 -5.74991 1.21075 0
M  V30 2573 H 246.097 -6.09624 0.34503 0
M  V30 2574 H 247.511 -5.19294 2.42913 0
M  V30 2575 H 245.908 -5.06986 3.21068 0
M  V30 2576 H 246.978 -3.65656 3.18471 0
M  V30 2577 N 248.321 -0.919034 -1.28029 0
M  V30 2578 C 249.231 -0.416756 -2.30869 0
M  V30 2579 C 250.247 0.498235 -1.66714 0
M  V30 2580 O 251.423 0.383144 -1.97722 0
M  V30 2581 C 248.488 0.330274 -3.45123 0
M  V30 2582 C 247.549 -0.618578 -4.2482 0
M  V30 2583 C 246.782 0.0928959 -5.33619 0
M  V30 2584 O 247.005 1.31375 -5.55065 0
M  V30 2585 O 245.939 -0.574499 -5.99152 0
M  V30 2586 H 249.765 -1.27043 -2.75851 0
M  V30 2587 H 247.35 -0.684052 -1.3282 0
M  V30 2588 H 249.232 0.751972 -4.14636 0
M  V30 2589 H 247.907 1.1597 -3.02213 0
M  V30 2590 H 246.814 -1.08978 -3.57875 0
M  V30 2591 H 248.147 -1.41497 -4.71423 0
M  V30 2592 N 249.799 1.42003 -0.683588 0
M  V30 2593 C 251.045 2.01712 -0.209825 0
M  V30 2594 C 251.378 1.53968 1.18353 0
M  V30 2595 O 250.653 0.745661 1.79639 0
M  V30 2596 C 250.936 3.59202 -0.254197 0
M  V30 2597 C 250.789 4.17102 -1.68363 0
M  V30 2598 C 252.108 4.38344 0.392709 0
M  V30 2599 H 249.227 0.732891 -0.0777189 0
M  V30 2600 H 251.869 1.68909 -0.87004 0
M  V30 2601 H 250.019 3.87278 0.307954 0
M  V30 2602 H 251.691 3.99946 -2.29871 0
M  V30 2603 H 249.934 3.72597 -2.22157 0
M  V30 2604 H 250.605 5.26249 -1.6663 0
M  V30 2605 H 253.081 4.16011 -0.0859162 0
M  V30 2606 H 251.957 5.47901 0.331063 0
M  V30 2607 H 252.218 4.16887 1.47164 0
M  V30 2608 N 251.277 0.427512 1.51691 0
M  V30 2609 C 252.207 -0.3796 2.30394 0
M  V30 2610 C 253.188 -1.02982 1.35384 0
M  V30 2611 O 254.373 -1.03534 1.643 0
M  V30 2612 C 251.503 -1.48649 3.1388 0
M  V30 2613 C 250.457 -0.960294 4.17088 0
M  V30 2614 C 249.783 -2.16219 4.89033 0
M  V30 2615 C 251.083 -0.00153679 5.223 0
M  V30 2616 H 252.777 0.277164 2.98114 0
M  V30 2617 H 250.323 0.134739 1.43368 0
M  V30 2618 H 252.276 -2.05826 3.67714 0
M  V30 2619 H 251 -2.1714 2.43962 0
M  V30 2620 H 249.659 -0.410806 3.64291 0
M  V30 2621 H 249.307 -2.83307 4.15628 0
M  V30 2622 H 249.007 -1.81654 5.58816 0
M  V30 2623 H 250.531 -2.73968 5.45687 0
M  V30 2624 H 251.945 -0.482687 5.71264 0
M  V30 2625 H 250.342 0.256199 5.99553 0
M  V30 2626 H 251.412 0.938174 4.75738 0
M  V30 2627 N 252.755 -1.56801 0.158532 0
M  V30 2628 C 253.703 -2.18638 -0.793729 0
M  V30 2629 C 254.697 -1.14669 -1.24689 0
M  V30 2630 O 255.903 -1.32895 -1.21403 0
M  V30 2631 H 252.278 -0.700226 -0.274204 0
M  V30 2632 H 254.249 -2.97367 -0.248095 0
M  V30 2633 C 252.998 -2.83139 -2.0181 0
M  V30 2634 H 252.321 -3.62863 -1.67841 0
M  V30 2635 H 253.761 -3.29894 -2.66357 0
M  V30 2636 C 252.22 -1.82244 -2.83353 0
M  V30 2637 O 252.75 -1.3 -3.80083 0
M  V30 2638 N 250.956 -1.51288 -2.48114 0
M  V30 2639 H 250.503 -1.93964 -1.69516 0
M  V30 2640 H 250.461 -0.840296 -3.02963 0
M  V30 2641 N 254.233 0.115231 -1.57178 0
M  V30 2642 C 255.165 1.16694 -1.97269 0
M  V30 2643 C 256.178 1.37445 -0.872502 0
M  V30 2644 O 257.367 1.36454 -1.15077 0
M  V30 2645 C 254.467 2.52627 -2.25905 0
M  V30 2646 C 253.64 2.52427 -3.57211 0
M  V30 2647 C 252.699 3.70134 -3.74016 0
M  V30 2648 O 251.725 3.53546 -4.46087 0
M  V30 2649 N 252.927 4.88844 -3.13068 0
M  V30 2650 H 255.692 0.82588 -2.88096 0
M  V30 2651 H 253.253 0.304461 -1.59011 0
M  V30 2652 H 255.245 3.29937 -2.34359 0
M  V30 2653 H 253.815 2.789 -1.41186 0
M  V30 2654 H 253.035 1.60805 -3.5991 0
M  V30 2655 H 254.323 2.49353 -4.43509 0
M  V30 2656 H 253.721 5.05225 -2.54489 0
M  V30 2657 H 252.278 5.63817 -3.27037 0
M  V30 2658 N 255.711 1.52812 0.385517 0
M  V30 2659 C 256.957 1.68275 1.13188 0
M  V30 2660 C 257.29 0.423179 1.89533 0
M  V30 2661 O 256.565 -0.579113 1.85679 0
M  V30 2662 C 256.848 2.92001 2.1073 0
M  V30 2663 C 256.701 4.28067 1.38125 0
M  V30 2664 C 258.02 3.11283 3.11113 0
M  V30 2665 H 255.139 0.612352 0.410115 0
M  V30 2666 H 257.781 1.85415 0.414869 0
M  V30 2667 H 255.931 2.77519 2.71874 0
M  V30 2668 H 257.603 4.54324 0.799187 0
M  V30 2669 H 255.846 4.28388 0.683092 0
M  V30 2670 H 256.517 5.10733 2.09417 0
M  V30 2671 H 258.993 3.2482 2.6006 0
M  V30 2672 H 257.869 3.99325 3.76605 0
M  V30 2673 H 258.13 2.25656 3.80173 0
M  V30 2674 N 257.189 -0.644168 1.43834 0
M  V30 2675 C 258.6 -1.22554 1.40845 0
M  V30 2676 C 258.951 -1.9585 0.117115 0
M  V30 2677 O 258.076 -2.01734 -0.783086 0
M  V30 2678 C 258.671 -2.22907 2.55143 0
M  V30 2679 C 257.23 -2.76501 2.5539 0
M  V30 2680 C 256.377 -1.51287 2.32396 0
M  V30 2681 H 259.328 -0.43563 1.52604 0
M  V30 2682 H 259.349 -3.05259 2.2715 0
M  V30 2683 H 258.861 -1.69533 3.49114 0
M  V30 2684 H 256.962 -3.33914 1.65324 0
M  V30 2685 H 257.075 -3.23429 3.53455 0
M  V30 2686 H 255.439 -1.78957 1.81236 0
M  V30 2687 H 256.222 -0.998336 3.28463 0
M  V30 2688 N 258.668 -1.30515 -0.883378 0
M  V30 2689 C 259.598 -1.19607 -2.00541 0
M  V30 2690 C 260.579 -0.086346 -1.69881 0
M  V30 2691 O 261.764 -0.268654 -1.92333 0
M  V30 2692 C 258.894 -0.888758 -3.35736 0
M  V30 2693 C 257.848 -1.95659 -3.8066 0
M  V30 2694 C 257.174 -1.50224 -5.13164 0
M  V30 2695 C 258.474 -3.36788 -3.99213 0
M  V30 2696 H 260.168 -2.13476 -2.09925 0
M  V30 2697 H 257.714 -1.02775 -1.00863 0
M  V30 2698 H 259.667 -0.799094 -4.13754 0
M  V30 2699 H 258.391 0.0856125 -3.26488 0
M  V30 2700 H 257.05 -2.03591 -3.04871 0
M  V30 2701 H 256.698 -0.516092 -5.00345 0
M  V30 2702 H 256.398 -2.2165 -5.44192 0
M  V30 2703 H 257.922 -1.42639 -5.93706 0
M  V30 2704 H 259.336 -3.31605 -4.67665 0
M  V30 2705 H 257.733 -4.06314 -4.41621 0
M  V30 2706 H 258.803 -3.78561 -3.03017 0
M  V30 2707 N 260.146 1.09593 -1.13257 0
M  V30 2708 C 261.392 1.82003 -0.89458 0
M  V30 2709 C 261.725 1.85402 0.577906 0
M  V30 2710 O 261 1.32099 1.42759 0
M  V30 2711 C 261.283 3.28237 -1.48096 0
M  V30 2712 C 261.136 3.3312 -3.02244 0
M  V30 2713 C 262.455 4.24871 -1.14774 0
M  V30 2714 H 259.574 0.66077 -0.326424 0
M  V30 2715 H 262.216 1.28389 -1.40058 0
M  V30 2716 H 260.366 3.74024 -1.05062 0
M  V30 2717 H 262.038 2.95748 -3.54021 0
M  V30 2718 H 260.281 2.72756 -3.37323 0
M  V30 2719 H 260.952 4.3613 -3.38371 0
M  V30 2720 H 263.428 3.87361 -1.51957 0
M  V30 2721 H 262.304 5.25532 -1.58452 0
M  V30 2722 H 262.565 4.42058 -0.0611849 0
M  V30 2723 N 261.624 0.925811 1.2754 0
M  V30 2724 C 262.901 0.483726 1.89524 0
M  V30 2725 C 263.281 -1.03809 1.83812 0
M  V30 2726 O 262.629 -1.89143 1.28207 0
M  V30 2727 C 262.839 1.02769 3.33526 0
M  V30 2728 C 264.187 1.08703 4.10449 0
M  V30 2729 O 265.211 0.977175 3.42534 0
M  V30 2730 O 264.07 1.25599 5.31871 0
M  V30 2731 H 261.164 0.15529 0.812289 0
M  V30 2732 H 263.71 1.01738 1.35822 0
M  V30 2733 H 262.482 2.07155 3.31967 0
M  V30 2734 H 262.105 0.475567 3.94746 0
M  V30 2735 N 263.102 -1.41638 0.69111 0
M  V30 2736 C 264.065 -2.29178 0.0319786 0
M  V30 2737 C 265.065 -1.44153 -0.712496 0
M  V30 2738 O 266.255 -1.65354 -0.548053 0
M  V30 2739 C 263.387 -3.26952 -0.965161 0
M  V30 2740 H 264.58 -2.88959 0.802681 0
M  V30 2741 H 262.133 -1.4955 0.454356 0
M  V30 2742 H 262.868 -2.72142 -1.76378 0
M  V30 2743 H 262.653 -3.89685 -0.434522 0
M  V30 2744 H 264.143 -3.92561 -1.42428 0
M  V30 2745 N 264.58 -0.43555 -1.51462 0
M  V30 2746 C 265.51 0.367376 -2.30592 0
M  V30 2747 C 266.491 1.02263 -1.35928 0
M  V30 2748 O 267.676 1.02661 -1.64847 0
M  V30 2749 C 264.806 1.46983 -3.14664 0
M  V30 2750 C 263.76 0.938161 -4.17591 0
M  V30 2751 C 263.086 2.13622 -4.90173 0
M  V30 2752 C 264.386 -0.0261621 -5.22293 0
M  V30 2753 H 266.08 -0.292969 -2.97963 0
M  V30 2754 H 263.626 -0.14234 -1.43295 0
M  V30 2755 H 265.579 2.03873 -3.688 0
M  V30 2756 H 264.303 2.15843 -2.4511 0
M  V30 2757 H 262.962 0.391481 -3.64504 0
M  V30 2758 H 262.61 2.81098 -4.17124 0
M  V30 2759 H 262.31 1.78688 -5.59772 0
M  V30 2760 H 263.834 2.7107 -5.47132 0
M  V30 2761 H 265.248 0.452384 -5.71512 0
M  V30 2762 H 263.645 -0.287992 -5.99409 0
M  V30 2763 H 264.715 -0.963391 -4.75233 0
M  V30 2764 N 266.058 1.56714 -0.166846 0
M  V30 2765 C 267.304 1.97039 0.479962 0
M  V30 2766 C 267.637 1.05264 1.63197 0
M  V30 2767 O 266.912 0.0988833 1.94248 0
M  V30 2768 C 267.195 3.46867 0.967212 0
M  V30 2769 C 267.048 4.49421 -0.18466 0
M  V30 2770 C 268.367 3.9968 1.84238 0
M  V30 2771 H 265.486 0.71641 0.172992 0
M  V30 2772 H 268.128 1.8832 -0.252079 0
M  V30 2773 H 266.278 3.54428 1.59101 0
M  V30 2774 H 267.95 4.53924 -0.821621 0
M  V30 2775 H 266.193 4.25573 -0.840837 0
M  V30 2776 H 266.864 5.51644 0.198317 0
M  V30 2777 H 269.34 3.94723 1.31655 0
M  V30 2778 H 268.216 5.04941 2.15234 0
M  V30 2779 H 268.477 3.43226 2.78654 0
M  V30 2780 N 267.536 -0.106894 1.57237 0
M  V30 2781 C 268.782 -0.81373 1.85759 0
M  V30 2782 C 269.115 -1.78952 0.754315 0
M  V30 2783 O 268.39 -1.93029 -0.23879 0
M  V30 2784 C 268.673 -1.55293 3.24894 0
M  V30 2785 C 268.526 -0.595929 4.45835 0
M  V30 2786 C 269.845 -2.5063 3.61763 0
M  V30 2787 H 266.964 -0.294369 0.67566 0
M  V30 2788 H 269.606 -0.0776472 1.89841 0
M  V30 2789 H 267.756 -2.1804 3.21544 0
M  V30 2790 H 269.428 0.0236262 4.61294 0
M  V30 2791 H 267.671 0.0916191 4.33703 0
M  V30 2792 H 268.342 -1.15004 5.39887 0
M  V30 2793 H 270.818 -1.97982 3.65981 0
M  V30 2794 H 269.694 -2.99376 4.60071 0
M  V30 2795 H 269.955 -3.3385 2.89821 0
M  V30 2796 N 269.014 -1.53014 -0.377408 0
M  V30 2797 C 270.425 -1.60438 -0.954798 0
M  V30 2798 C 270.776 -0.464418 -1.90624 0
M  V30 2799 O 269.901 0.41087 -2.12464 0
M  V30 2800 C 270.496 -2.90797 -1.73847 0
M  V30 2801 C 269.055 -3.00595 -2.26538 0
M  V30 2802 C 268.202 -2.55645 -1.07429 0
M  V30 2803 H 271.153 -1.57926 -0.156575 0
M  V30 2804 H 271.174 -2.77935 -2.5987 0
M  V30 2805 H 270.686 -3.73746 -1.04574 0
M  V30 2806 H 268.787 -2.22208 -2.99089 0
M  V30 2807 H 268.9 -4.05456 -2.5523 0
M  V30 2808 H 267.264 -2.10239 -1.43777 0
M  V30 2809 H 268.047 -3.41 -0.396728 0
M  V30 2810 N 270.492 0.636531 -1.44174 0
M  V30 2811 C 271.738 1.39826 -1.4689 0
M  V30 2812 C 272.071 1.93947 -0.0990585 0
M  V30 2813 O 271.346 1.73325 0.882544 0
M  V30 2814 C 271.629 2.56751 -2.5249 0
M  V30 2815 C 271.482 2.08014 -3.98811 0
M  V30 2816 C 272.801 3.58946 -2.54649 0
M  V30 2817 H 269.92 0.507075 -0.53483 0
M  V30 2818 H 272.562 0.720188 -1.75822 0
M  V30 2819 H 270.712 3.14597 -2.2795 0
M  V30 2820 H 272.384 1.5504 -4.34466 0
M  V30 2821 H 270.627 1.39242 -4.10846 0
M  V30 2822 H 271.298 2.92169 -4.68339 0
M  V30 2823 H 273.774 3.1089 -2.76563 0
M  V30 2824 H 272.65 4.38286 -3.3045 0
M  V30 2825 H 272.911 4.12655 -1.58646 0
M  V30 2826 N 271.97 1.30982 0.876444 0
M  V30 2827 C 273.218 1.20058 1.62575 0
M  V30 2828 C 273.539 -0.242947 1.93481 0
M  V30 2829 O 272.809 -1.1619 1.57724 0
M  V30 2830 H 271.389 0.44135 0.602677 0
M  V30 2831 H 274.051 1.64222 1.04962 0
M  V30 2832 H 273.147 1.76762 2.57219 0
M  V30 2833 N 273.449 -1.08991 1.13837 0
M  V30 2834 C 274.697 -1.80899 0.901098 0
M  V30 2835 C 275.018 -1.86356 -0.574134 0
M  V30 2836 O 274.288 -1.35235 -1.41733 0
M  V30 2837 H 272.868 -0.669966 0.330386 0
M  V30 2838 H 275.53 -1.318 1.43578 0
M  V30 2839 H 274.626 -2.83929 1.29578 0
M  V30 2840 N 274.927 -0.932562 -1.27047 0
M  V30 2841 C 276.175 -0.574422 -1.93765 0
M  V30 2842 C 276.496 0.887993 -1.73608 0
M  V30 2843 O 275.766 1.62999 -1.08665 0
M  V30 2844 H 274.346 -0.209451 -0.717035 0
M  V30 2845 H 277.008 -1.18601 -1.5466 0
M  V30 2846 H 276.104 -0.784841 -3.02071 0
M  V30 2847 N 276.405 1.4127 -0.698611 0
M  V30 2848 C 277.653 2.00782 -0.230409 0
M  V30 2849 C 277.974 1.5562 1.17505 0
M  V30 2850 O 277.244 0.78815 1.79346 0
M  V30 2851 H 275.824 0.742464 -0.0821944 0
M  V30 2852 H 278.486 1.72852 -0.90045 0
M  V30 2853 H 277.582 3.11095 -0.25021 0
M  V30 2854 N 277.883 0.443576 1.51229 0
M  V30 2855 C 278.816 -0.410089 2.24485 0
M  V30 2856 C 279.794 -1.01949 1.26669 0
M  V30 2857 O 280.978 -1.06075 1.55821 0
M  V30 2858 C 278.105 -1.57211 3.00004 0
M  V30 2859 C 277.151 -1.08279 4.12526 0
M  V30 2860 S 277.984 -0.0197476 5.35496 0
M  V30 2861 C 279.14 -1.18629 6.14555 0
M  V30 2862 H 279.373 0.211832 2.96544 0
M  V30 2863 H 276.906 0.228156 1.52705 0
M  V30 2864 H 278.864 -2.23825 3.44111 0
M  V30 2865 H 277.525 -2.16547 2.27522 0
M  V30 2866 H 276.718 -1.95193 4.64667 0
M  V30 2867 H 276.32 -0.494797 3.70713 0
M  V30 2868 H 278.612 -2.10344 6.4402 0
M  V30 2869 H 279.555 -0.70472 7.04584 0
M  V30 2870 H 279.963 -1.42768 5.46148 0
M  V30 2871 N 279.361 -1.56624 0.175154 0
M  V30 2872 C 280.291 -2.21155 -0.749195 0
M  V30 2873 C 281.272 -1.16836 -1.23626 0
M  V30 2874 O 282.457 -1.45277 -1.28873 0
M  V30 2875 C 279.587 -2.8553 -1.97711 0
M  V30 2876 C 278.541 -3.95921 -1.62575 0
M  V30 2877 C 277.867 -4.47365 -2.92864 0
M  V30 2878 C 279.167 -5.15323 -0.850838 0
M  V30 2879 H 280.861 -2.98653 -0.211295 0
M  V30 2880 H 278.407 -1.43651 -0.100188 0
M  V30 2881 H 280.36 -3.2935 -2.62881 0
M  V30 2882 H 279.084 -2.05406 -2.53921 0
M  V30 2883 H 277.743 -3.52762 -0.997719 0
M  V30 2884 H 277.391 -3.64027 -3.47122 0
M  V30 2885 H 277.091 -5.21839 -2.70106 0
M  V30 2886 H 278.615 -4.93873 -3.59056 0
M  V30 2887 H 280.029 -5.55812 -1.40521 0
M  V30 2888 H 278.426 -5.95739 -0.722154 0
M  V30 2889 H 279.496 -4.84661 0.152082 0
M  V30 2890 N 280.839 0.0985539 -1.57292 0
M  V30 2891 C 281.802 1.10402 -2.00858 0
M  V30 2892 C 282.802 1.33146 -0.901593 0
M  V30 2893 O 283.992 1.29318 -1.16716 0
M  V30 2894 C 281.124 2.45394 -2.36632 0
M  V30 2895 H 282.317 0.729099 -2.90902 0
M  V30 2896 H 279.87 0.343495 -1.52479 0
M  V30 2897 H 280.605 2.87769 -1.49531 0
M  V30 2898 H 280.39 2.30235 -3.17387 0
M  V30 2899 H 281.88 3.17718 -2.71007 0
M  V30 2900 N 282.317 1.53212 0.369288 0
M  V30 2901 C 283.565 1.68881 1.11012 0
M  V30 2902 C 283.886 0.441285 1.89941 0
M  V30 2903 O 283.156 -0.544623 1.88177 0
M  V30 2904 H 281.736 0.622569 0.412816 0
M  V30 2905 H 284.398 1.90391 0.416802 0
M  V30 2906 H 283.494 2.54822 1.80201 0
M  V30 2907 N 283.795 -0.628877 1.44509 0
M  V30 2908 C 285.044 -1.38437 1.4669 0
M  V30 2909 C 285.357 -1.95322 0.104272 0
M  V30 2910 O 286.563 -2.715 0.00362163 0
M  V30 2911 C 285.019 -2.50659 2.5826 0
M  V30 2912 C 284.627 -2.00277 4.0074 0
M  V30 2913 C 286.371 -3.27844 2.69664 0
M  V30 2914 C 284.278 -3.09854 5.0373 0
M  V30 2915 H 283.208 -0.520245 0.545766 0
M  V30 2916 H 285.859 -0.676313 1.70582 0
M  V30 2917 H 284.241 -3.2405 2.27612 0
M  V30 2918 H 285.415 -1.33736 4.40966 0
M  V30 2919 H 283.73 -1.35901 3.93599 0
M  V30 2920 H 286.327 -4.09534 3.43781 0
M  V30 2921 H 286.67 -3.77471 1.75559 0
M  V30 2922 H 287.203 -2.61543 2.99733 0
M  V30 2923 H 283.942 -2.65168 5.99472 0
M  V30 2924 H 283.462 -3.7503 4.68095 0
M  V30 2925 H 285.141 -3.74592 5.27532 0
M  V30 2926 N 285.273 -1.31445 -0.869486 0
M  V30 2927 C 286.236 -1.19094 -1.9583 0
M  V30 2928 C 287.236 -0.117906 -1.60367 0
M  V30 2929 O 288.426 -0.367208 -1.70286 0
M  V30 2930 C 285.558 -0.828165 -3.30688 0
M  V30 2931 H 286.751 -2.15842 -2.08212 0
M  V30 2932 H 284.304 -1.15063 -1.05784 0
M  V30 2933 H 285.039 0.138142 -3.24006 0
M  V30 2934 H 284.824 -1.6038 -3.578 0
M  V30 2935 H 286.314 -0.765658 -4.10521 0
M  V30 2936 N 286.751 1.08385 -1.14413 0
M  V30 2937 C 288 1.80153 -0.907076 0
M  V30 2938 C 288.313 1.87176 0.567851 0
M  V30 2939 O 289.519 2.55359 0.922172 0
M  V30 2940 C 287.975 3.23687 -1.57336 0
M  V30 2941 C 287.583 3.24897 -3.08457 0
M  V30 2942 C 289.327 4.00136 -1.41744 0
M  V30 2943 C 287.234 4.6302 -3.67921 0
M  V30 2944 H 286.164 0.675139 -0.335714 0
M  V30 2945 H 288.815 1.21733 -1.37307 0
M  V30 2946 H 287.197 3.82234 -1.03505 0
M  V30 2947 H 288.371 2.76055 -3.68958 0
M  V30 2948 H 286.686 2.61943 -3.2369 0
M  V30 2949 H 289.283 5.02201 -1.83572 0
M  V30 2950 H 289.626 4.14709 -0.363576 0
M  V30 2951 H 290.159 3.48058 -1.92614 0
M  V30 2952 H 286.898 4.5365 -4.73161 0
M  V30 2953 H 286.418 5.12143 -3.12201 0
M  V30 2954 H 288.097 5.31994 -3.68227 0
M  V30 2955 N 288.23 0.939286 1.26551 0
M  V30 2956 C 289.458 0.602536 1.97932 0
M  V30 2957 C 289.873 -0.82206 1.69964 0
M  V30 2958 O 289.23 -1.54789 0.966784 0
M  V30 2959 C 289.281 0.832946 3.51773 0
M  V30 2960 O 289.002 2.20151 3.78768 0
M  V30 2961 C 290.503 0.506483 4.40397 0
M  V30 2962 H 287.723 0.227248 0.631347 0
M  V30 2963 H 290.267 1.25948 1.61113 0
M  V30 2964 H 288.422 0.222644 3.8676 0
M  V30 2965 H 288.836 2.26013 4.73306 0
M  V30 2966 H 290.31 0.718333 5.47306 0
M  V30 2967 H 290.787 -0.558451 4.35635 0
M  V30 2968 H 291.393 1.09543 4.10951 0
M  V30 2969 N 289.708 -1.40897 0.706093 0
M  V30 2970 C 290.954 -2.01352 0.241889 0
M  V30 2971 C 291.287 -1.55832 -1.15888 0
M  V30 2972 O 290.562 -0.774145 -1.7843 0
M  V30 2973 C 290.845 -3.58752 0.311311 0
M  V30 2974 C 290.698 -4.1437 1.74978 0
M  V30 2975 C 292.017 -4.38914 -0.322922 0
M  V30 2976 H 289.136 -0.731562 0.0893687 0
M  V30 2977 H 291.778 -1.67504 0.896802 0
M  V30 2978 H 289.928 -3.87718 -0.246302 0
M  V30 2979 H 291.6 -3.96239 2.36205 0
M  V30 2980 H 289.843 -3.69016 2.28057 0
M  V30 2981 H 290.514 -5.23532 1.74981 0
M  V30 2982 H 292.99 -4.15822 0.152089 0
M  V30 2983 H 291.866 -5.48358 -0.243855 0
M  V30 2984 H 292.127 -4.19176 -1.40513 0
M  V30 2985 N 291.186 -0.45159 -1.50991 0
M  V30 2986 C 292.133 0.352625 -2.2809 0
M  V30 2987 C 293.103 1.0044 -1.32291 0
M  V30 2988 O 294.288 1.02058 -1.6121 0
M  V30 2989 C 291.428 1.43983 -3.13629 0
M  V30 2990 C 290.541 0.804772 -4.24438 0
M  V30 2991 C 289.676 1.86822 -4.97263 0
M  V30 2992 C 288.715 1.21236 -5.99973 0
M  V30 2993 N 287.852 2.2178 -6.66152 0
M  V30 2994 H 292.692 -0.311186 -2.96371 0
M  V30 2995 H 290.229 -0.165308 -1.46168 0
M  V30 2996 H 292.187 2.08161 -3.61559 0
M  V30 2997 H 290.817 2.07307 -2.47434 0
M  V30 2998 H 289.869 0.0509129 -3.80366 0
M  V30 2999 H 291.181 0.286076 -4.97979 0
M  V30 3000 H 290.335 2.58628 -5.48813 0
M  V30 3001 H 289.074 2.42068 -4.23385 0
M  V30 3002 H 288.079 0.479828 -5.47702 0
M  V30 3003 H 289.304 0.667051 -6.75816 0
M  V30 3004 H 287.25 2.76079 -5.95077 0
M  V30 3005 H 287.167 1.74841 -7.35504 0
M  V30 3006 H 288.435 2.93026 -7.22327 0
M  V30 3007 N 292.664 1.56529 -0.183458 0
M  V30 3008 C 293.627 2.17324 0.728223 0
M  V30 3009 C 294.627 1.12453 1.14939 0
M  V30 3010 O 295.817 1.37902 1.06437 0
M  V30 3011 C 292.949 2.76591 1.99274 0
M  V30 3012 H 294.142 2.99241 0.198772 0
M  V30 3013 H 291.695 1.5616 0.0661391 0
M  V30 3014 H 292.43 1.98441 2.56499 0
M  V30 3015 H 292.215 3.5335 1.69959 0
M  V30 3016 H 293.705 3.23311 2.6431 0
M  V30 3017 N 294.142 -0.090211 1.57342 0
M  V30 3018 C 295.072 -1.10976 2.05443 0
M  V30 3019 C 296.053 -1.41482 0.944284 0
M  V30 3020 O 297.238 -1.51428 1.21586 0
M  V30 3021 C 294.368 -2.42831 2.48295 0
M  V30 3022 C 293.322 -2.26721 3.63018 0
M  V30 3023 C 292.648 -3.63796 3.91863 0
M  V30 3024 C 293.948 -1.7037 4.93732 0
M  V30 3025 H 295.642 -0.709564 2.9087 0
M  V30 3026 H 293.188 -0.339874 1.39932 0
M  V30 3027 H 295.141 -3.14431 2.80555 0
M  V30 3028 H 293.865 -2.84795 1.59873 0
M  V30 3029 H 292.524 -1.57565 3.31012 0
M  V30 3030 H 292.172 -4.03297 3.00601 0
M  V30 3031 H 291.872 -3.53861 4.69101 0
M  V30 3032 H 293.396 -4.36855 4.26603 0
M  V30 3033 H 294.81 -2.31816 5.24342 0
M  V30 3034 H 293.207 -1.71181 5.75167 0
M  V30 3035 H 294.277 -0.663542 4.80339 0
M  V30 3036 N 295.62 -1.53406 -0.361157 0
M  V30 3037 C 296.567 -1.80156 -1.44265 0
M  V30 3038 C 297.537 -0.646183 -1.53015 0
M  V30 3039 O 298.722 -0.888818 -1.68833 0
M  V30 3040 C 295.862 -2.00116 -2.81154 0
M  V30 3041 C 294.975 -3.27833 -2.81335 0
M  V30 3042 C 294.11 -3.37957 -4.09828 0
M  V30 3043 C 293.149 -4.59689 -4.04168 0
M  V30 3044 N 292.286 -4.66942 -5.24318 0
M  V30 3045 H 297.126 -2.72438 -1.20754 0
M  V30 3046 H 294.663 -1.34954 -0.585296 0
M  V30 3047 H 296.621 -2.09677 -3.60682 0
M  V30 3048 H 295.251 -1.11167 -3.03054 0
M  V30 3049 H 294.303 -3.27204 -1.94014 0
M  V30 3050 H 295.615 -4.17442 -2.73027 0
M  V30 3051 H 294.769 -3.46853 -4.97773 0
M  V30 3052 H 293.508 -2.46372 -4.20894 0
M  V30 3053 H 292.513 -4.50889 -3.14609 0
M  V30 3054 H 293.738 -5.5262 -3.947 0
M  V30 3055 H 291.684 -3.7826 -5.35962 0
M  V30 3056 H 291.601 -5.50462 -5.18197 0
M  V30 3057 H 292.869 -4.80127 -6.14084 0
M  V30 3058 N 297.098 0.621204 -1.44841 0
M  V30 3059 C 298.509 1.20298 -1.42777 0
M  V30 3060 C 298.86 1.95639 -0.148259 0
M  V30 3061 O 297.985 2.02955 0.750892 0
M  V30 3062 C 298.58 2.1882 -2.58657 0
M  V30 3063 C 297.139 2.72403 -2.59756 0
M  V30 3064 C 296.286 1.4757 -2.34773 0
M  V30 3065 H 299.237 0.411297 -1.53278 0
M  V30 3066 H 299.258 3.01607 -2.31977 0
M  V30 3067 H 298.77 1.63957 -3.51766 0
M  V30 3068 H 296.871 3.31242 -1.70615 0
M  V30 3069 H 296.984 3.17765 -3.58556 0
M  V30 3070 H 295.348 1.76051 -1.8406 0
M  V30 3071 H 296.131 0.945954 -3.3001 0
M  V30 3072 N 298.576 1.31904 0.862503 0
M  V30 3073 C 299.801 1.25135 1.65397 0
M  V30 3074 C 300.226 -0.179 1.87246 0
M  V30 3075 O 299.584 -1.1277 1.4196 0
M  V30 3076 C 299.632 2.00832 2.99498 0
M  V30 3077 O 298.736 1.35075 3.89652 0
M  V30 3078 H 298.077 0.431655 0.504549 0
M  V30 3079 H 300.607 1.74094 1.07483 0
M  V30 3080 H 300.617 2.10709 3.49379 0
M  V30 3081 H 299.292 3.04847 2.82916 0
M  V30 3082 H 297.869 1.33696 3.48109 0
M  V30 3083 N 300.054 -1.07777 1.14986 0
M  V30 3084 C 301.3 -1.80557 0.923422 0
M  V30 3085 C 301.633 -1.86298 -0.548337 0
M  V30 3086 O 300.908 -1.34354 -1.40639 0
M  V30 3087 C 301.191 -3.25839 1.53299 0
M  V30 3088 C 301.044 -3.28269 3.07505 0
M  V30 3089 C 302.363 -4.22991 1.21518 0
M  V30 3090 H 299.482 -0.655493 0.336894 0
M  V30 3091 H 302.124 -1.26144 1.42083 0
M  V30 3092 H 300.274 -3.72306 1.10999 0
M  V30 3093 H 301.946 -2.90079 3.58681 0
M  V30 3094 H 300.189 -2.67355 3.4162 0
M  V30 3095 H 300.86 -4.30691 3.45266 0
M  V30 3096 H 303.336 -3.84894 1.581 0
M  V30 3097 H 302.212 -5.22945 1.66793 0
M  V30 3098 H 302.473 -4.41904 0.131505 0
M  V30 3099 N 301.532 -0.945985 -1.26051 0
M  V30 3100 C 302.479 -0.45809 -2.26208 0
M  V30 3101 C 303.449 0.484816 -1.58867 0
M  V30 3102 O 304.634 0.399969 -1.86561 0
M  V30 3103 C 301.774 0.266131 -3.44072 0
M  V30 3104 C 300.887 -0.713005 -4.26075 0
M  V30 3105 C 300.022 0.0329013 -5.3119 0
M  V30 3106 C 299.061 -0.93774 -6.04874 0
M  V30 3107 N 298.198 -0.223274 -7.01745 0
M  V30 3108 H 303.038 -1.3171 -2.67313 0
M  V30 3109 H 300.575 -0.66069 -1.31428 0
M  V30 3110 H 302.533 0.702514 -4.11243 0
M  V30 3111 H 301.163 1.08925 -3.03867 0
M  V30 3112 H 300.215 -1.26789 -3.58648 0
M  V30 3113 H 301.527 -1.45406 -4.77136 0
M  V30 3114 H 300.681 0.528335 -6.04395 0
M  V30 3115 H 299.42 0.806801 -4.8098 0
M  V30 3116 H 298.425 -1.44425 -5.30492 0
M  V30 3117 H 299.65 -1.71172 -6.57173 0
M  V30 3118 H 297.596 0.532046 -6.53839 0
M  V30 3119 H 297.513 -0.90357 -7.50581 0
M  V30 3120 H 298.781 0.250907 -7.79096 0
M  V30 3121 N 303.011 1.40521 -0.713556 0
M  V30 3122 C 304.257 2.01221 -0.252564 0
M  V30 3123 C 304.59 1.56444 1.1506 0
M  V30 3124 O 303.865 0.783597 1.78017 0
M  V30 3125 C 304.148 3.58582 -0.330332 0
M  V30 3126 C 304.001 4.13437 -1.77173 0
M  V30 3127 C 305.32 4.39079 0.299641 0
M  V30 3128 H 302.439 0.731077 -0.0932471 0
M  V30 3129 H 305.081 1.67026 -0.905673 0
M  V30 3130 H 303.231 3.87844 0.225737 0
M  V30 3131 H 304.903 3.9498 -2.38303 0
M  V30 3132 H 303.146 3.67801 -2.3001 0
M  V30 3133 H 303.817 5.22597 -1.77755 0
M  V30 3134 H 306.293 4.15735 -0.174139 0
M  V30 3135 H 305.169 5.4848 0.214771 0
M  V30 3136 H 305.43 4.19915 1.38288 0
M  V30 3137 N 304.489 0.459591 1.5075 0
M  V30 3138 C 305.719 -0.0972338 2.06371 0
M  V30 3139 C 306.127 -1.35074 1.32483 0
M  V30 3140 O 305.47 -1.79637 0.384226 0
M  V30 3141 C 305.532 -0.462759 3.56509 0
M  V30 3142 C 305.196 0.687084 4.51805 0
M  V30 3143 C 306.193 1.56578 4.95761 0
M  V30 3144 C 303.878 0.874144 4.94635 0
M  V30 3145 C 305.872 2.61604 5.81242 0
M  V30 3146 C 303.559 1.92765 5.79901 0
M  V30 3147 C 304.557 2.79697 6.23104 0
M  V30 3148 O 304.245 3.83235 7.06673 0
M  V30 3149 H 303.977 -0.00140687 0.675999 0
M  V30 3150 H 306.531 0.644011 1.95043 0
M  V30 3151 H 304.761 -1.25703 3.65699 0
M  V30 3152 H 306.45 -0.953323 3.94546 0
M  V30 3153 H 307.216 1.4329 4.6335 0
M  V30 3154 H 303.095 0.207006 4.60535 0
M  V30 3155 H 306.639 3.29489 6.14884 0
M  V30 3156 H 302.536 2.06064 6.11725 0
M  V30 3157 H 303.304 3.80084 7.24899 0
M  V30 3158 N 305.967 -1.56429 0.191757 0
M  V30 3159 C 306.93 -2.17707 -0.716688 0
M  V30 3160 C 307.93 -1.13061 -1.14341 0
M  V30 3161 O 309.12 -1.38464 -1.05704 0
M  V30 3162 C 306.252 -2.77644 -1.97804 0
M  V30 3163 H 307.445 -2.99342 -0.1829 0
M  V30 3164 H 304.998 -1.56193 -0.0578566 0
M  V30 3165 H 305.733 -1.99799 -2.55443 0
M  V30 3166 H 305.518 -3.54246 -1.68083 0
M  V30 3167 H 307.008 -3.24708 -2.62592 0
M  V30 3168 N 307.445 0.0818655 -1.57387 0
M  V30 3169 C 308.408 1.08265 -2.02018 0
M  V30 3170 C 309.408 1.32183 -0.915664 0
M  V30 3171 O 310.598 1.28073 -1.18081 0
M  V30 3172 C 307.73 2.42871 -2.39221 0
M  V30 3173 H 308.923 0.698204 -2.91659 0
M  V30 3174 H 306.476 0.327303 -1.52835 0
M  V30 3175 H 307.211 2.86167 -1.52575 0
M  V30 3176 H 306.996 2.26855 -3.19811 0
M  V30 3177 H 308.486 3.14826 -2.74362 0
M  V30 3178 N 308.923 1.53595 0.353017 0
M  V30 3179 C 309.833 1.83897 1.45667 0
M  V30 3180 C 310.849 0.728334 1.58023 0
M  V30 3181 O 312.025 1.01968 1.73679 0
M  V30 3182 C 309.09 2.03383 2.80778 0
M  V30 3183 C 308.151 3.27262 2.77845 0
M  V30 3184 C 307.384 3.45809 4.06512 0
M  V30 3185 O 307.607 2.68387 5.03314 0
M  V30 3186 O 306.541 4.39207 4.11559 0
M  V30 3187 H 310.367 2.77686 1.2298 0
M  V30 3188 H 307.952 1.39132 0.544308 0
M  V30 3189 H 309.834 2.17698 3.60812 0
M  V30 3190 H 308.509 1.12783 3.03417 0
M  V30 3191 H 307.416 3.18359 1.96465 0
M  V30 3192 H 308.749 4.17824 2.60161 0
M  V30 3193 N 310.401 -0.613514 1.45168 0
M  V30 3194 C 311.812 -1.19539 1.43413 0
M  V30 3195 C 312.163 -1.95558 0.158632 0
M  V30 3196 O 311.288 -2.0335 -0.740119 0
M  V30 3197 C 311.883 -2.17445 2.59813 0
M  V30 3198 C 310.442 -2.71022 2.61197 0
M  V30 3199 C 309.589 -1.46323 2.35552 0
M  V30 3200 H 312.54 -0.403163 1.53494 0
M  V30 3201 H 312.561 -3.00373 2.33574 0
M  V30 3202 H 312.073 -1.62089 3.52631 0
M  V30 3203 H 310.174 -3.30332 1.7237 0
M  V30 3204 H 310.287 -3.15859 3.60236 0
M  V30 3205 H 308.651 -1.75072 1.84992 0
M  V30 3206 H 309.434 -0.92844 3.30507 0
M  V30 3207 N 311.879 -1.3236 -0.855495 0
M  V30 3208 C 313.104 -1.2601 -1.64731 0
M  V30 3209 C 313.529 0.169068 -1.87339 0
M  V30 3210 O 312.887 1.12016 -1.42556 0
M  V30 3211 C 312.935 -2.02417 -2.98429 0
M  V30 3212 O 312.039 -1.3714 -3.8893 0
M  V30 3213 H 311.38 -0.434325 -0.502253 0
M  V30 3214 H 313.91 -1.74661 -1.06558 0
M  V30 3215 H 313.92 -2.12559 -3.48257 0
M  V30 3216 H 312.595 -3.06343 -2.81295 0
M  V30 3217 H 311.172 -1.3554 -3.47395 0
M  V30 3218 N 313.357 1.07166 -1.15556 0
M  V30 3219 C 314.305 2.16517 -0.8499 0
M  V30 3220 C 315.299 1.68468 0.177454 0
M  V30 3221 O 316.505 1.79971 0.0323026 0
M  V30 3222 H 312.88 0.706652 -0.25719 0
M  V30 3223 H 314.851 2.39514 -1.77976 0
M  V30 3224 C 313.6 3.45855 -0.357682 0
M  V30 3225 H 312.923 3.83214 -1.13961 0
M  V30 3226 H 314.363 4.23607 -0.182489 0
M  V30 3227 C 312.822 3.24062 0.921152 0
M  V30 3228 O 313.352 3.48813 1.9923 0
M  V30 3229 N 311.558 2.77539 0.86141 0
M  V30 3230 H 311.105 2.57598 -0.0104408 0
M  V30 3231 H 311.063 2.63337 1.71758 0
M  V30 3232 N 314.835 0.952656 1.25548 0
M  V30 3233 C 315.798 0.475794 2.24207 0
M  V30 3234 C 316.798 -0.419428 1.55234 0
M  V30 3235 O 317.988 -0.216994 1.72843 0
M  V30 3236 C 315.12 -0.312814 3.39462 0
M  V30 3237 H 316.313 1.34779 2.67908 0
M  V30 3238 H 313.866 0.735739 1.37901 0
M  V30 3239 H 314.601 -1.20257 3.01179 0
M  V30 3240 H 314.386 0.329404 3.90714 0
M  V30 3241 H 315.876 -0.635986 4.12729 0
M  V30 3242 N 316.313 -1.40141 0.720998 0
M  V30 3243 C 317.59 -1.94677 0.189757 0
M  V30 3244 C 317.97 -1.65879 -1.30566 0
M  V30 3245 O 317.318 -0.979391 -2.06447 0
M  V30 3246 C 317.528 -3.45279 0.508304 0
M  V30 3247 C 318.876 -4.22209 0.449934 0
M  V30 3248 O 319.9 -3.53413 0.444677 0
M  V30 3249 O 318.759 -5.44788 0.432189 0
M  V30 3250 H 315.853 -0.826459 0.0299026 0
M  V30 3251 H 318.399 -1.49719 0.7989 0
M  V30 3252 H 317.171 -3.59619 1.54239 0
M  V30 3253 H 316.794 -3.97386 -0.130525 0
M  V30 3254 N 317.792 -0.46758 -1.50504 0
M  V30 3255 C 319.069 0.15003 -1.95024 0
M  V30 3256 C 319.449 1.57304 -1.40779 0
M  V30 3257 O 318.797 2.20281 -0.607319 0
M  V30 3258 C 319.007 0.0969324 -3.48865 0
M  V30 3259 C 320.355 0.287565 -4.23625 0
M  V30 3260 O 321.379 0.173678 -3.55776 0
M  V30 3261 O 320.238 0.517186 -5.44047 0
M  V30 3262 H 317.332 0.113582 -0.819163 0
M  V30 3263 H 319.878 -0.52773 -1.61286 0
M  V30 3264 H 318.65 -0.896732 -3.80886 0
M  V30 3265 H 318.273 0.816303 -3.8913 0
M  V30 3266 N 319.27 1.56325 -0.20005 0
M  V30 3267 C 320.51 1.99619 0.439519 0
M  V30 3268 C 320.874 1.08423 1.58456 0
M  V30 3269 O 322.075 1.40973 2.28867 0
M  V30 3270 C 320.346 3.46314 0.883258 0
M  V30 3271 S 321.905 4.11634 1.51997 0
M  V30 3272 H 318.723 0.697007 0.140363 0
M  V30 3273 H 321.325 1.93118 -0.304282 0
M  V30 3274 H 320.029 4.10381 0.0398967 0
M  V30 3275 H 319.56 3.56643 1.6604 0
M  V30 3276 H 321.575 4.09049 2.8088 0
M  V30 3277 N 320.748 -0.0735177 1.57428 0
M  V30 3278 C 321.978 -0.78483 1.91112 0
M  V30 3279 C 322.386 -1.71729 0.7941 0
M  V30 3280 O 321.729 -1.82105 -0.241542 0
M  V30 3281 C 321.791 -1.63346 3.20247 0
M  V30 3282 C 321.455 -0.870557 4.48632 0
M  V30 3283 C 322.452 -0.19058 5.19551 0
M  V30 3284 C 320.137 -0.838242 4.95256 0
M  V30 3285 C 322.131 0.511503 6.35344 0
M  V30 3286 C 319.818 -0.132386 6.10957 0
M  V30 3287 C 320.816 0.541288 6.80852 0
M  V30 3288 O 320.504 1.23578 7.94345 0
M  V30 3289 H 320.236 -0.228408 0.636244 0
M  V30 3290 H 322.79 -0.0486039 2.05342 0
M  V30 3291 H 321.02 -2.41245 3.02222 0
M  V30 3292 H 322.709 -2.22329 3.39595 0
M  V30 3293 H 323.475 -0.206864 4.84559 0
M  V30 3294 H 319.354 -1.35206 4.40727 0
M  V30 3295 H 322.898 1.03789 6.89836 0
M  V30 3296 H 318.795 -0.114023 6.45399 0
M  V30 3297 H 319.563 1.14487 8.10454 0
M  V30 3298 N 322.226 -1.5378 -0.344866 0
M  V30 3299 C 323.158 -1.77988 -1.44406 0
M  V30 3300 C 324.171 -0.661138 -1.48771 0
M  V30 3301 O 325.36 -0.937842 -1.51877 0
M  V30 3302 C 322.46 -1.86345 -2.8307 0
M  V30 3303 C 321.633 -3.16256 -3.0216 0
M  V30 3304 C 320.692 -3.15588 -4.21059 0
M  V30 3305 O 319.718 -3.89314 -4.15239 0
M  V30 3306 N 320.92 -2.37864 -5.29529 0
M  V30 3307 H 323.685 -2.72839 -1.24012 0
M  V30 3308 H 321.246 -1.52814 -0.534737 0
M  V30 3309 H 323.238 -1.83351 -3.60783 0
M  V30 3310 H 321.808 -0.986858 -2.96614 0
M  V30 3311 H 321.028 -3.32385 -2.11929 0
M  V30 3312 H 322.316 -4.0207 -3.11797 0
M  V30 3313 H 321.714 -1.77514 -5.37127 0
M  V30 3314 H 320.271 -2.40668 -6.05741 0
M  V30 3315 N 323.704 0.605807 -1.45491 0
M  V30 3316 C 324.929 1.39625 -1.53361 0
M  V30 3317 C 325.354 1.87351 -0.167645 0
M  V30 3318 O 324.712 1.60243 0.848051 0
M  V30 3319 C 324.76 2.57559 -2.5238 0
M  V30 3320 O 323.864 3.58248 -2.04285 0
M  V30 3321 H 323.205 0.416771 -0.516912 0
M  V30 3322 H 325.735 0.737103 -1.90861 0
M  V30 3323 H 325.745 3.0478 -2.71244 0
M  V30 3324 H 324.42 2.22171 -3.51586 0
M  V30 3325 H 322.997 3.17664 -1.95305 0
M  V30 3326 N 325.182 1.32811 0.848464 0
M  V30 3327 C 326.129 1.22265 1.95755 0
M  V30 3328 C 327.099 0.103413 1.65778 0
M  V30 3329 O 328.284 0.280033 1.88734 0
M  V30 3330 C 325.424 0.958014 3.31536 0
M  V30 3331 C 324.537 2.16262 3.73971 0
M  V30 3332 C 323.672 1.83295 4.98575 0
M  V30 3333 C 322.711 3.00041 5.33518 0
M  V30 3334 N 321.848 2.67125 6.49299 0
M  V30 3335 H 326.688 2.17128 2.04107 0
M  V30 3336 H 324.225 1.07982 0.998913 0
M  V30 3337 H 326.183 0.785052 4.09747 0
M  V30 3338 H 324.813 0.046159 3.22767 0
M  V30 3339 H 323.865 2.44565 2.91362 0
M  V30 3340 H 325.177 3.03572 3.95785 0
M  V30 3341 H 324.331 1.62586 5.84509 0
M  V30 3342 H 323.07 0.932078 4.7871 0
M  V30 3343 H 322.075 3.21374 4.46093 0
M  V30 3344 H 323.3 3.90869 5.55336 0
M  V30 3345 H 321.246 1.79586 6.3094 0
M  V30 3346 H 321.163 3.47965 6.71161 0
M  V30 3347 H 322.431 2.49861 7.3837 0
M  V30 3348 N 326.66 -1.06551 1.16123 0
M  V30 3349 C 327.59 -2.15935 0.88851 0
M  V30 3350 C 328.571 -1.69306 -0.164135 0
M  V30 3351 O 329.756 -1.94193 -0.0167857 0
M  V30 3352 C 326.886 -3.45149 0.385942 0
M  V30 3353 C 325.84 -4.05271 1.3762 0
M  V30 3354 C 325.166 -5.29664 0.732137 0
M  V30 3355 C 326.466 -4.44355 2.74493 0
M  V30 3356 H 328.16 -2.39006 1.80323 0
M  V30 3357 H 325.706 -1.14866 0.868435 0
M  V30 3358 H 327.659 -4.21004 0.182647 0
M  V30 3359 H 326.383 -3.21689 -0.564274 0
M  V30 3360 H 325.042 -3.3147 1.56599 0
M  V30 3361 H 324.69 -5.02499 -0.224483 0
M  V30 3362 H 324.39 -5.70848 1.39307 0
M  V30 3363 H 325.914 -6.08218 0.538802 0
M  V30 3364 H 327.328 -5.11303 2.59311 0
M  V30 3365 H 325.725 -4.96515 3.37035 0
M  V30 3366 H 326.795 -3.55339 3.29943 0
M  V30 3367 N 328.138 -0.959301 -1.25041 0
M  V30 3368 C 329.085 -0.482057 -2.2571 0
M  V30 3369 C 330.055 0.467939 -1.59372 0
M  V30 3370 O 331.24 0.380159 -1.86974 0
M  V30 3371 C 328.38 0.229623 -3.44335 0
M  V30 3372 C 327.493 -0.758156 -4.25295 0
M  V30 3373 C 326.628 -0.0234403 -5.31195 0
M  V30 3374 C 325.667 -1.00184 -6.03846 0
M  V30 3375 N 324.804 -0.29769 -7.01469 0
M  V30 3376 H 329.644 -1.34538 -2.65901 0
M  V30 3377 H 327.181 -0.674592 -1.3072 0
M  V30 3378 H 329.139 0.658856 -4.11965 0
M  V30 3379 H 327.769 1.05696 -3.05005 0
M  V30 3380 H 326.821 -1.30586 -3.57284 0
M  V30 3381 H 328.133 -1.50458 -4.75567 0
M  V30 3382 H 327.287 0.464201 -6.04922 0
M  V30 3383 H 326.026 0.755741 -4.81809 0
M  V30 3384 H 325.031 -1.50044 -5.2893 0
M  V30 3385 H 326.256 -1.78133 -6.55321 0
M  V30 3386 H 324.202 0.462668 -6.54366 0
M  V30 3387 H 324.119 -0.983128 -7.4958 0
M  V30 3388 H 325.387 0.16826 -7.79318 0
M  V30 3389 N 329.616 1.39756 -0.72842 0
M  V30 3390 C 330.864 2.00248 -0.272946 0
M  V30 3391 C 331.185 1.58077 1.14178 0
M  V30 3392 O 330.455 0.826014 1.77634 0
M  V30 3393 H 329.035 0.740554 -0.0979247 0
M  V30 3394 H 331.697 1.70903 -0.936912 0
M  V30 3395 H 330.793 3.10495 -0.316142 0
M  V30 3396 N 331.094 0.475555 1.50254 0
M  V30 3397 C 332.041 -0.316293 2.28622 0
M  V30 3398 C 333.011 -0.983227 1.33873 0
M  V30 3399 O 334.196 -0.994805 1.62814 0
M  V30 3400 C 331.336 -1.38975 3.1588 0
M  V30 3401 C 330.449 -0.737146 4.25664 0
M  V30 3402 C 329.584 -1.78887 5.00173 0
M  V30 3403 C 328.623 -1.11676 6.01826 0
M  V30 3404 N 327.76 -2.11154 6.69596 0
M  V30 3405 H 332.6 0.358297 2.95838 0
M  V30 3406 H 330.137 0.188541 1.45887 0
M  V30 3407 H 332.095 -2.02383 3.64825 0
M  V30 3408 H 330.725 -2.03344 2.50701 0
M  V30 3409 H 329.777 0.0096065 3.80399 0
M  V30 3410 H 331.089 -0.206816 4.98371 0
M  V30 3411 H 330.243 -2.49865 5.52859 0
M  V30 3412 H 328.982 -2.35302 4.27182 0
M  V30 3413 H 327.987 -0.392633 5.48396 0
M  V30 3414 H 329.212 -0.55945 6.76792 0
M  V30 3415 H 327.158 -2.66577 5.99394 0
M  V30 3416 H 327.075 -1.63118 7.38193 0
M  V30 3417 H 328.343 -2.81497 7.26897 0
M  V30 3418 N 332.573 -1.56217 0.208337 0
M  V30 3419 C 333.503 -2.22694 -0.702116 0
M  V30 3420 C 334.484 -1.19432 -1.2112 0
M  V30 3421 O 335.669 -1.47978 -1.25762 0
M  V30 3422 C 332.799 -2.8966 -1.9161 0
M  V30 3423 C 331.753 -3.9928 -1.5414 0
M  V30 3424 C 331.079 -4.53476 -2.83308 0
M  V30 3425 C 332.379 -5.17012 -0.741339 0
M  V30 3426 H 334.073 -2.99034 -0.147898 0
M  V30 3427 H 331.619 -1.43831 -0.0696951 0
M  V30 3428 H 333.572 -3.34852 -2.55836 0
M  V30 3429 H 332.296 -2.10746 -2.49507 0
M  V30 3430 H 330.955 -3.54799 -0.922668 0
M  V30 3431 H 330.603 -3.71308 -3.39322 0
M  V30 3432 H 330.303 -5.27451 -2.58976 0
M  V30 3433 H 331.827 -5.01378 -3.485 0
M  V30 3434 H 333.241 -5.58667 -1.28699 0
M  V30 3435 H 331.638 -5.97137 -0.595627 0
M  V30 3436 H 332.708 -4.8423 0.254851 0
M  V30 3437 N 334.051 0.0651679 -1.57465 0
M  V30 3438 C 334.984 1.10876 -1.99453 0
M  V30 3439 C 335.962 1.37205 -0.872555 0
M  V30 3440 O 337.146 1.50468 -1.13542 0
M  V30 3441 C 334.273 2.45167 -2.3369 0
M  V30 3442 C 333.319 2.3493 -3.55964 0
M  V30 3443 S 334.152 1.73708 -5.06543 0
M  V30 3444 C 335.308 3.09563 -5.43987 0
M  V30 3445 H 335.541 0.750967 -2.87659 0
M  V30 3446 H 333.074 0.273933 -1.51951 0
M  V30 3447 H 335.032 3.22412 -2.54088 0
M  V30 3448 H 333.693 2.78105 -1.46001 0
M  V30 3449 H 332.886 3.3398 -3.77457 0
M  V30 3450 H 332.488 1.65823 -3.3523 0
M  V30 3451 H 334.78 4.05882 -5.42463 0
M  V30 3452 H 335.723 2.92843 -6.44708 0
M  V30 3453 H 336.131 3.10474 -4.71451 0
M  V30 3454 N 335.529 1.53961 0.336706 0
M  V30 3455 C 336.94 1.62914 0.911925 0
M  V30 3456 C 337.291 0.514795 1.89326 0
M  V30 3457 O 336.416 -0.354395 2.13478 0
M  V30 3458 C 337.011 2.95304 1.66076 0
M  V30 3459 C 335.57 3.06496 2.18489 0
M  V30 3460 C 334.717 2.58403 1.00613 0
M  V30 3461 H 337.668 1.58285 0.114649 0
M  V30 3462 H 337.689 2.84727 2.5241 0
M  V30 3463 H 337.201 3.76387 0.946276 0
M  V30 3464 H 335.302 2.3006 2.93092 0
M  V30 3465 H 335.415 4.1208 2.44391 0
M  V30 3466 H 333.779 2.13977 1.38152 0
M  V30 3467 H 334.562 3.41932 0.306179 0
M  V30 3468 N 337.007 -0.598083 1.45811 0
M  V30 3469 C 337.955 -1.72932 1.55555 0
M  V30 3470 C 338.949 -1.63984 0.424921 0
M  V30 3471 O 340.155 -1.69663 0.601205 0
M  V30 3472 H 336.53 -0.571489 0.488779 0
M  V30 3473 H 338.501 -1.61842 2.50699 0
M  V30 3474 C 337.25 -3.11318 1.54843 0
M  V30 3475 H 336.573 -3.18867 2.41172 0
M  V30 3476 H 338.013 -3.90274 1.65717 0
M  V30 3477 C 336.472 -3.3578 0.274427 0
M  V30 3478 O 337.002 -3.9654 -0.641778 0
M  V30 3479 N 335.208 -2.90119 0.167139 0
M  V30 3480 H 334.755 -2.40855 0.913596 0
M  V30 3481 H 334.713 -3.0686 -0.684435 0
M  V30 3482 N 338.485 -1.33259 -0.841409 0
M  V30 3483 C 339.415 -1.25926 -1.96634 0
M  V30 3484 C 340.396 -0.140349 -1.6952 0
M  V30 3485 O 341.581 -0.329707 -1.91381 0
M  V30 3486 C 338.711 -0.99512 -3.32738 0
M  V30 3487 C 337.665 -2.0767 -3.74242 0
M  V30 3488 C 336.991 -1.66474 -5.08125 0
M  V30 3489 C 338.291 -3.49318 -3.88297 0
M  V30 3490 H 339.985 -2.20046 -2.03027 0
M  V30 3491 H 337.531 -1.05931 -0.975425 0
M  V30 3492 H 339.484 -0.930323 -4.11002 0
M  V30 3493 H 338.208 -0.0183004 -3.26595 0
M  V30 3494 H 336.867 -2.13187 -2.98239 0
M  V30 3495 H 336.515 -0.675012 -4.9845 0
M  V30 3496 H 336.215 -2.3885 -5.36865 0
M  V30 3497 H 337.739 -1.61455 -5.88867 0
M  V30 3498 H 339.153 -3.46316 -4.56879 0
M  V30 3499 H 337.55 -4.20158 -4.28471 0
M  V30 3500 H 338.62 -3.8801 -2.9082 0
M  V30 3501 N 339.963 1.05934 -1.16686 0
M  V30 3502 C 341.193 1.82226 -0.973515 0
M  V30 3503 C 341.601 1.8297 0.481532 0
M  V30 3504 O 340.944 1.25009 1.34604 0
M  V30 3505 C 341.006 3.29897 -1.42858 0
M  V30 3506 C 340.67 3.52849 -2.90425 0
M  V30 3507 C 341.667 3.45595 -3.88407 0
M  V30 3508 C 339.352 3.80053 -3.28428 0
M  V30 3509 C 341.346 3.65217 -5.22394 0
M  V30 3510 C 339.033 3.99325 -4.62583 0
M  V30 3511 C 340.031 3.91905 -5.59374 0
M  V30 3512 O 339.719 4.10647 -6.91104 0
M  V30 3513 H 339.451 0.581314 -0.345036 0
M  V30 3514 H 342.005 1.3453 -1.55212 0
M  V30 3515 H 340.235 3.78472 -0.793477 0
M  V30 3516 H 341.924 3.87692 -1.20207 0
M  V30 3517 H 342.69 3.24564 -3.60393 0
M  V30 3518 H 338.569 3.84936 -2.53664 0
M  V30 3519 H 342.113 3.59341 -5.9793 0
M  V30 3520 H 338.01 4.19846 -4.90306 0
M  V30 3521 H 338.778 4.27915 -6.97733 0
M  V30 3522 N 341.441 0.965919 1.2453 0
M  V30 3523 C 342.852 0.665929 1.7442 0
M  V30 3524 C 343.203 -0.818407 1.78316 0
M  V30 3525 O 342.328 -1.64037 1.41141 0
M  V30 3526 C 342.923 1.20211 3.16757 0
M  V30 3527 C 341.482 0.952059 3.6416 0
M  V30 3528 C 340.629 1.33848 2.42858 0
M  V30 3529 H 343.58 1.14144 1.10258 0
M  V30 3530 H 343.601 0.567544 3.76244 0
M  V30 3531 H 343.113 2.28244 3.13889 0
M  V30 3532 H 341.214 -0.112821 3.72429 0
M  V30 3533 H 341.327 1.59645 4.51719 0
M  V30 3534 H 339.691 0.756864 2.43195 0
M  V30 3535 H 340.474 2.42827 2.42673 0
M  V30 3536 N 342.919 -1.39368 0.735821 0
M  V30 3537 C 344.33 -1.83313 0.354015 0
M  V30 3538 C 344.681 -1.61461 -1.11466 0
M  V30 3539 O 343.806 -1.10621 -1.85989 0
M  V30 3540 C 344.401 -3.32781 0.635769 0
M  V30 3541 C 342.96 -3.75142 0.307448 0
M  V30 3542 C 342.107 -2.62358 0.897974 0
M  V30 3543 H 345.058 -1.28349 0.933398 0
M  V30 3544 H 345.079 -3.80388 -0.0921773 0
M  V30 3545 H 344.591 -3.48654 1.70476 0
M  V30 3546 H 342.692 -3.64857 -0.755674 0
M  V30 3547 H 342.805 -4.72532 0.790583 0
M  V30 3548 H 341.169 -2.52624 0.324551 0
M  V30 3549 H 341.952 -2.81036 1.97164 0
M  V30 3550 N 344.397 -0.483516 -1.5 0
M  V30 3551 C 345.307 0.309172 -2.32554 0
M  V30 3552 C 346.323 0.984159 -1.43493 0
M  V30 3553 O 347.499 0.969399 -1.76535 0
M  V30 3554 C 344.564 1.36979 -3.18493 0
M  V30 3555 C 343.625 0.710095 -4.23387 0
M  V30 3556 C 342.858 1.72018 -5.05218 0
M  V30 3557 O 343.081 2.94813 -4.88305 0
M  V30 3558 O 342.015 1.28515 -5.8802 0
M  V30 3559 H 345.841 -0.366064 -3.01486 0
M  V30 3560 H 343.426 -0.24514 -1.47375 0
M  V30 3561 H 345.308 1.98385 -3.71781 0
M  V30 3562 H 343.983 2.02828 -2.52275 0
M  V30 3563 H 342.89 0.0567539 -3.74057 0
M  V30 3564 H 344.223 0.0943557 -4.9211 0
M  V30 3565 N 345.875 1.56104 -0.216619 0
M  V30 3566 C 347.103 2.02563 0.421413 0
M  V30 3567 C 347.518 1.0965 1.53695 0
M  V30 3568 O 346.875 0.10521 1.82196 0
M  V30 3569 C 346.926 3.48584 0.957665 0
M  V30 3570 O 346.647 4.37953 -0.113389 0
M  V30 3571 C 348.148 4.10664 1.66943 0
M  V30 3572 H 345.368 0.662944 0.103665 0
M  V30 3573 H 347.912 2.01793 -0.331629 0
M  V30 3574 H 346.067 3.49985 1.661 0
M  V30 3575 H 346.481 5.23704 0.288932 0
M  V30 3576 H 347.955 5.14622 1.99671 0
M  V30 3577 H 348.432 3.55373 2.58083 0
M  V30 3578 H 349.038 4.13098 1.01142 0
M  V30 3579 N 347.353 -0.0568162 1.57498 0
M  V30 3580 C 348.602 -0.752001 1.87157 0
M  V30 3581 C 348.915 -1.77978 0.811375 0
M  V30 3582 O 350.121 -2.52559 0.996293 0
M  V30 3583 C 348.577 -1.38844 3.3204 0
M  V30 3584 C 348.185 -0.398456 4.46225 0
M  V30 3585 C 349.929 -2.06512 3.70882 0
M  V30 3586 C 347.836 -1.04166 5.82154 0
M  V30 3587 H 346.766 -0.28461 0.698222 0
M  V30 3588 H 349.417 -0.00561272 1.83499 0
M  V30 3589 H 347.799 -2.1836 3.30356 0
M  V30 3590 H 348.973 0.367977 4.59328 0
M  V30 3591 H 347.288 0.174592 4.16034 0
M  V30 3592 H 349.885 -2.55437 4.6974 0
M  V30 3593 H 350.228 -2.87117 3.01445 0
M  V30 3594 H 350.761 -1.33808 3.7462 0
M  V30 3595 H 347.5 -0.275614 6.5492 0
M  V30 3596 H 347.02 -1.7786 5.72823 0
M  V30 3597 H 348.699 -1.55715 6.27982 0
M  V30 3598 N 348.832 -1.54138 -0.328536 0
M  V30 3599 C 349.795 -1.82462 -1.38709 0
M  V30 3600 C 350.795 -0.696229 -1.44946 0
M  V30 3601 O 351.985 -0.964535 -1.4506 0
M  V30 3602 C 349.117 -1.98018 -2.77492 0
M  V30 3603 H 350.31 -2.77037 -1.14851 0
M  V30 3604 H 347.863 -1.45779 -0.563751 0
M  V30 3605 H 348.598 -1.05637 -3.06613 0
M  V30 3606 H 348.383 -2.80124 -2.74359 0
M  V30 3607 H 349.873 -2.21396 -3.54081 0
M  V30 3608 N 350.31 0.590341 -1.46126 0
M  V30 3609 C 351.587 1.35029 -1.41515 0
M  V30 3610 C 351.967 2.10888 -0.0946472 0
M  V30 3611 O 351.315 2.08998 0.923693 0
M  V30 3612 C 351.525 2.28269 -2.63997 0
M  V30 3613 C 352.873 2.90338 -3.09821 0
M  V30 3614 O 353.897 2.38585 -2.64492 0
M  V30 3615 O 352.756 3.84321 -3.88535 0
M  V30 3616 H 349.85 0.606317 -0.562413 0
M  V30 3617 H 352.396 0.611994 -1.58281 0
M  V30 3618 H 351.168 1.71591 -3.51671 0
M  V30 3619 H 350.791 3.0945 -2.49652 0
M  V30 3620 N 351.788 1.33704 0.83433 0
M  V30 3621 C 353.036 1.25169 1.58673 0
M  V30 3622 C 353.357 -0.18127 1.94156 0
M  V30 3623 O 352.627 -1.11113 1.6134 0
M  V30 3624 H 351.207 0.4603 0.58833 0
M  V30 3625 H 353.869 1.67478 0.996847 0
M  V30 3626 H 352.965 1.84856 2.51465 0
M  V30 3627 N 353.266 -1.05314 1.17247 0
M  V30 3628 C 354.512 -1.78557 0.961513 0
M  V30 3629 C 354.845 -1.87419 -0.508697 0
M  V30 3630 O 354.12 -1.37307 -1.37757 0
M  V30 3631 C 354.403 -3.22514 1.60176 0
M  V30 3632 C 354.256 -3.21673 3.14399 0
M  V30 3633 C 355.575 -4.20318 1.30463 0
M  V30 3634 H 352.694 -0.6482 0.350723 0
M  V30 3635 H 355.336 -1.23102 1.44727 0
M  V30 3636 H 353.486 -3.69867 1.18871 0
M  V30 3637 H 355.158 -2.82405 3.64753 0
M  V30 3638 H 353.401 -2.60048 3.47214 0
M  V30 3639 H 354.072 -4.23271 3.54324 0
M  V30 3640 H 356.548 -3.81454 1.66229 0
M  V30 3641 H 355.424 -5.19289 1.77848 0
M  V30 3642 H 355.685 -4.41526 0.22521 0
M  V30 3643 N 354.744 -0.972509 -1.24016 0
M  V30 3644 C 355.691 -0.505969 -2.25186 0
M  V30 3645 C 356.661 0.451009 -1.5986 0
M  V30 3646 O 357.846 0.360307 -1.87367 0
M  V30 3647 C 354.986 0.193089 -3.44559 0
M  V30 3648 C 354.099 -0.803222 -4.24467 0
M  V30 3649 C 353.234 -0.0797793 -5.3114 0
M  V30 3650 C 352.273 -1.06583 -6.02749 0
M  V30 3651 N 351.41 -0.372074 -7.01113 0
M  V30 3652 H 356.25 -1.37351 -2.64459 0
M  V30 3653 H 353.787 -0.688419 -1.29997 0
M  V30 3654 H 355.745 0.615125 -4.1264 0
M  V30 3655 H 354.375 1.02455 -3.06109 0
M  V30 3656 H 353.427 -1.34368 -3.55878 0
M  V30 3657 H 354.739 -1.55494 -4.73944 0
M  V30 3658 H 353.893 0.400015 -6.0538 0
M  V30 3659 H 352.632 0.704597 -4.82583 0
M  V30 3660 H 351.637 -1.55645 -5.27309 0
M  V30 3661 H 352.862 -1.85074 -6.53395 0
M  V30 3662 H 350.808 0.393238 -6.5482 0
M  V30 3663 H 350.725 -1.06258 -7.48495 0
M  V30 3664 H 351.993 0.0855932 -7.79453 0
M  V30 3665 N 356.222 1.38976 -0.743202 0
M  V30 3666 C 357.447 2.05161 -0.303936 0
M  V30 3667 C 357.872 1.55677 1.05576 0
M  V30 3668 O 357.23 0.704131 1.67068 0
M  V30 3669 C 357.278 3.59138 -0.324373 0
M  V30 3670 O 356.382 4.06668 0.685204 0
M  V30 3671 H 355.723 0.649815 -0.136518 0
M  V30 3672 H 358.253 1.77852 -1.01142 0
M  V30 3673 H 358.263 4.07639 -0.171618 0
M  V30 3674 H 356.938 3.94515 -1.31647 0
M  V30 3675 H 355.515 3.69561 0.497913 0
M  V30 3676 N 357.7 0.491464 1.49741 0
M  V30 3677 C 358.925 -0.0557177 2.07325 0
M  V30 3678 C 359.35 -1.30925 1.35056 0
M  V30 3679 O 358.708 -1.76733 0.404365 0
M  V30 3680 C 358.756 -0.302074 3.59333 0
M  V30 3681 O 357.86 -1.37868 3.88672 0
M  V30 3682 H 357.201 0.0219956 0.663636 0
M  V30 3683 H 359.731 0.688352 1.92673 0
M  V30 3684 H 359.741 -0.536464 4.04458 0
M  V30 3685 H 358.416 0.61383 4.11345 0
M  V30 3686 H 356.993 -1.12999 3.55367 0
M  V30 3687 N 359.178 -1.55987 0.224894 0
M  V30 3688 C 360.427 -1.97566 -0.406273 0
M  V30 3689 C 360.74 -1.11569 -1.6066 0
M  V30 3690 O 361.946 -1.43062 -2.3075 0
M  V30 3691 C 360.402 -3.51474 -0.774207 0
M  V30 3692 C 360.01 -4.46179 0.403496 0
M  V30 3693 C 361.754 -4.01758 -1.37079 0
M  V30 3694 C 359.661 -5.91399 0.0129412 0
M  V30 3695 H 358.591 -0.737777 -0.155565 0
M  V30 3696 H 361.242 -1.80659 0.321635 0
M  V30 3697 H 359.624 -3.63994 -1.55963 0
M  V30 3698 H 360.798 -4.45409 1.18101 0
M  V30 3699 H 359.113 -4.06255 0.913536 0
M  V30 3700 H 361.71 -5.07756 -1.67596 0
M  V30 3701 H 362.053 -3.47805 -2.28773 0
M  V30 3702 H 362.586 -3.92475 -0.648733 0
M  V30 3703 H 359.325 -6.49341 0.896451 0
M  V30 3704 H 358.845 -5.95356 -0.728821 0
M  V30 3705 H 360.524 -6.45683 -0.412582 0
M  V30 3706 N 360.656 0.0484629 -1.57525 0
M  V30 3707 C 361.904 0.741657 -1.88 0
M  V30 3708 C 362.225 1.76918 -0.820054 0
M  V30 3709 O 361.495 1.95335 0.148661 0
M  V30 3710 H 360.075 0.276908 -0.69378 0
M  V30 3711 H 362.737 0.019013 -1.94891 0
M  V30 3712 H 361.833 1.24336 -2.86264 0
M  V30 3713 N 362.134 1.5431 0.320358 0
M  V30 3714 C 363.064 1.86912 1.3995 0
M  V30 3715 C 364.045 0.726211 1.53819 0
M  V30 3716 O 365.23 0.980233 1.67646 0
M  V30 3717 C 362.36 2.09932 2.7667 0
M  V30 3718 C 361.314 3.25776 2.77586 0
M  V30 3719 C 360.64 3.34173 4.17412 0
M  V30 3720 C 361.94 4.6335 2.41048 0
M  V30 3721 H 363.634 2.77292 1.12914 0
M  V30 3722 H 361.18 1.33421 0.541738 0
M  V30 3723 H 363.133 2.31324 3.52232 0
M  V30 3724 H 361.857 1.16304 3.0519 0
M  V30 3725 H 360.516 3.04276 2.04479 0
M  V30 3726 H 360.164 2.38098 4.43078 0
M  V30 3727 H 359.864 4.12033 4.18931 0
M  V30 3728 H 361.388 3.57803 4.94782 0
M  V30 3729 H 362.802 4.84602 3.06324 0
M  V30 3730 H 361.199 5.43782 2.53813 0
M  V30 3731 H 362.269 4.65381 1.36193 0
M  V30 3732 N 363.613 -0.582584 1.46437 0
M  V30 3733 C 364.561 -1.71272 1.5738 0
M  V30 3734 C 365.555 -1.63524 0.44229 0
M  V30 3735 O 366.761 -1.69016 0.619166 0
M  V30 3736 H 363.136 -0.566273 0.494813 0
M  V30 3737 H 365.107 -1.59174 2.52401 0
M  V30 3738 C 363.856 -3.09658 1.58136 0
M  V30 3739 H 363.179 -3.16291 2.44541 0
M  V30 3740 H 364.619 -3.88494 1.69847 0
M  V30 3741 C 363.078 -3.3547 0.310026 0
M  V30 3742 O 363.608 -3.97199 -0.599683 0
M  V30 3743 N 361.814 -2.89925 0.197901 0
M  V30 3744 H 361.361 -2.39873 0.93909 0
M  V30 3745 H 361.319 -3.07568 -0.65185 0
M  V30 3746 N 365.091 -1.34144 -0.827227 0
M  V30 3747 C 366.319 -1.29325 -1.61501 0
M  V30 3748 C 366.734 0.13354 -1.88327 0
M  V30 3749 O 366.091 1.0793 -1.47164 0
M  V30 3750 C 366.142 -2.07746 -2.95844 0
M  V30 3751 O 365.863 -3.4486 -2.70191 0
M  V30 3752 C 367.364 -2.10273 -3.90256 0
M  V30 3753 H 364.584 -0.445069 -0.50215 0
M  V30 3754 H 367.128 -1.76693 -1.02955 0
M  V30 3755 H 365.283 -1.6403 -3.5096 0
M  V30 3756 H 365.697 -3.85345 -3.55822 0
M  V30 3757 H 367.171 -2.69575 -4.81698 0
M  V30 3758 H 367.648 -1.096 -4.25305 0
M  V30 3759 H 368.254 -2.54059 -3.41078 0
M  V30 3760 N 366.569 1.04691 -1.17803 0
M  V30 3761 C 367.815 1.78181 -0.980977 0
M  V30 3762 C 368.17 1.86191 0.484825 0
M  V30 3763 O 367.463 1.35436 1.35527 0
M  V30 3764 C 367.657 3.21467 -1.56186 0
M  V30 3765 C 367.486 3.27422 -3.08261 0
M  V30 3766 C 366.256 3.36415 -3.77032 0
M  V30 3767 C 368.454 3.15947 -4.0581 0
M  V30 3768 N 366.436 3.31554 -5.16667 0
M  V30 3769 C 367.807 3.18514 -5.31929 0
M  V30 3770 C 369.862 2.99945 -3.97413 0
M  V30 3771 C 368.565 3.06723 -6.50625 0
M  V30 3772 C 370.591 2.89497 -5.15699 0
M  V30 3773 C 369.953 2.92702 -6.40706 0
M  V30 3774 H 366.052 0.6641 -0.412911 0
M  V30 3775 H 368.636 1.24762 -1.49474 0
M  V30 3776 H 366.807 3.73245 -1.07436 0
M  V30 3777 H 368.539 3.8322 -1.30093 0
M  V30 3778 H 365.294 3.41887 -3.27735 0
M  V30 3779 H 365.718 3.3258 -5.89678 0
M  V30 3780 H 370.36 2.96302 -3.01604 0
M  V30 3781 H 368.078 3.0912 -7.46639 0
M  V30 3782 H 371.664 2.78179 -5.10987 0
M  V30 3783 H 370.544 2.84697 -7.30696 0
M  V30 3784 N 368.047 0.979072 1.23499 0
M  V30 3785 C 369.458 0.684391 1.73704 0
M  V30 3786 C 369.809 -0.799448 1.79174 0
M  V30 3787 O 368.934 -1.62531 1.42873 0
M  V30 3788 C 369.529 1.23564 3.15464 0
M  V30 3789 C 368.088 0.99063 3.6313 0
M  V30 3790 C 367.235 1.36416 2.41425 0
M  V30 3791 H 370.186 1.15307 1.09041 0
M  V30 3792 H 370.207 0.607417 3.7562 0
M  V30 3793 H 369.719 2.31561 3.1145 0
M  V30 3794 H 367.82 -0.0733136 3.72528 0
M  V30 3795 H 367.933 1.64427 4.5 0
M  V30 3796 H 366.297 0.782616 2.42378 0
M  V30 3797 H 367.08 2.45387 2.40083 0
M  V30 3798 N 369.525 -1.3858 0.750561 0
M  V30 3799 C 370.774 -1.99424 0.302172 0
M  V30 3800 C 371.087 -1.60254 -1.12152 0
M  V30 3801 O 372.293 -2.14046 -1.67023 0
M  V30 3802 C 370.749 -3.56558 0.489307 0
M  V30 3803 C 370.357 -4.04682 1.92189 0
M  V30 3804 C 372.101 -4.24374 0.103478 0
M  V30 3805 C 370.008 -5.54446 2.05775 0
M  V30 3806 H 368.938 -0.746046 0.10923 0
M  V30 3807 H 371.589 -1.58383 0.92667 0
M  V30 3808 H 369.971 -3.95472 -0.204329 0
M  V30 3809 H 371.145 -3.77065 2.64875 0
M  V30 3810 H 369.46 -3.4958 2.26236 0
M  V30 3811 H 372.057 -5.34384 0.183787 0
M  V30 3812 H 372.4 -4.05468 -0.943481 0
M  V30 3813 H 372.933 -3.90688 0.748854 0
M  V30 3814 H 369.672 -5.78252 3.08714 0
M  V30 3815 H 369.192 -5.83816 1.37546 0
M  V30 3816 H 370.871 -6.20099 1.84626 0
M  V30 3817 N 371.003 -0.499398 -1.49478 0
M  V30 3818 C 372.252 0.0475259 -2.01644 0
M  V30 3819 C 372.565 1.38195 -1.38425 0
M  V30 3820 O 373.771 2.01547 -1.8191 0
M  V30 3821 C 372.227 0.135164 -3.59646 0
M  V30 3822 C 371.835 -1.19252 -4.31837 0
M  V30 3823 C 373.579 0.632538 -4.19761 0
M  V30 3824 C 371.486 -1.06713 -5.81693 0
M  V30 3825 H 370.416 0.0215349 -0.753692 0
M  V30 3826 H 373.067 -0.638577 -1.7203 0
M  V30 3827 H 371.449 0.885681 -3.85969 0
M  V30 3828 H 372.623 -1.9562 -4.17216 0
M  V30 3829 H 370.938 -1.62321 -3.83459 0
M  V30 3830 H 373.535 0.743833 -5.29501 0
M  V30 3831 H 373.878 1.63098 -3.83021 0
M  V30 3832 H 374.411 -0.0613987 -3.97753 0
M  V30 3833 H 371.15 -2.03979 -6.22955 0
M  V30 3834 H 370.67 -0.344307 -5.98811 0
M  V30 3835 H 372.349 -0.745208 -6.42694 0
M  V30 3836 N 372.481 1.55866 -0.233164 0
M  V30 3837 C 373.897 1.59133 0.121988 0
M  V30 3838 C 374.097 1.25016 1.58029 0
M  V30 3839 O 373.153 0.990922 2.32243 0
M  V30 3840 C 374.466 2.99932 -0.214792 0
M  V30 3841 C 376.014 3.12601 -0.157971 0
M  V30 3842 C 376.489 4.55597 -0.46859 0
M  V30 3843 N 377.98 4.61305 -0.418585 0
M  V30 3844 C 378.715 5.69903 -0.63227 0
M  V30 3845 N 378.211 6.86819 -0.90835 0
M  V30 3846 N 380.004 5.59264 -0.563913 0
M  V30 3847 H 372.155 1.76315 -1.18434 0
M  V30 3848 H 374.418 0.820093 -0.475553 0
M  V30 3849 H 374.124 3.29588 -1.22739 0
M  V30 3850 H 373.998 3.74327 0.464691 0
M  V30 3851 H 376.385 2.82735 0.845283 0
M  V30 3852 H 376.466 2.40511 -0.871102 0
M  V30 3853 H 376.11 4.86182 -1.46934 0
M  V30 3854 H 376.04 5.25928 0.265865 0
M  V30 3855 H 378.531 3.77297 -0.213368 0
M  V30 3856 H 378.844 7.65507 -1.05919 0
M  V30 3857 H 377.189 6.88536 -0.945673 0
M  V30 3858 H 380.38 4.66802 -0.348372 0
M  V30 3859 H 380.553 6.43831 -0.733847 0
M  V30 3860 N 373.959 -0.0401083 1.57549 0
M  V30 3861 C 375.236 -0.767917 1.79896 0
M  V30 3862 C 375.616 -1.9416 0.82856 0
M  V30 3863 O 374.964 -2.2812 -0.131671 0
M  V30 3864 C 375.174 -1.2113 3.27305 0
M  V30 3865 C 376.522 -1.63175 3.91994 0
M  V30 3866 O 377.546 -1.30616 3.31388 0
M  V30 3867 O 376.405 -2.23565 4.98679 0
M  V30 3868 H 373.499 -0.370441 0.739393 0
M  V30 3869 H 376.045 -0.017737 1.69691 0
M  V30 3870 H 374.817 -0.372937 3.89519 0
M  V30 3871 H 374.44 -2.02183 3.42356 0
M  V30 3872 N 375.437 -1.54477 -0.31217 0
M  V30 3873 C 376.367 -1.87652 -1.38957 0
M  V30 3874 C 377.348 -0.734358 -1.53431 0
M  V30 3875 O 378.533 -0.98911 -1.67123 0
M  V30 3876 C 375.663 -2.11396 -2.75552 0
M  V30 3877 C 374.617 -3.27243 -2.75855 0
M  V30 3878 C 373.943 -3.36382 -4.15633 0
M  V30 3879 C 375.243 -4.64622 -2.38587 0
M  V30 3880 H 376.937 -2.77887 -1.11442 0
M  V30 3881 H 374.483 -1.33707 -0.534655 0
M  V30 3882 H 376.436 -2.33189 -3.51 0
M  V30 3883 H 375.16 -1.17921 -3.04569 0
M  V30 3884 H 373.819 -3.05356 -2.02863 0
M  V30 3885 H 373.467 -2.40445 -4.41809 0
M  V30 3886 H 373.167 -4.14249 -4.1674 0
M  V30 3887 H 374.691 -3.60422 -4.92877 0
M  V30 3888 H 376.105 -4.86219 -3.03749 0
M  V30 3889 H 374.502 -5.45121 -2.50925 0
M  V30 3890 H 375.572 -4.66097 -1.33723 0
M  V30 3891 N 376.915 0.57481 -1.46744 0
M  V30 3892 C 378.161 1.3347 -1.52688 0
M  V30 3893 C 378.494 1.93353 -0.181229 0
M  V30 3894 O 377.769 1.76912 0.808237 0
M  V30 3895 C 378.052 2.45811 -2.63152 0
M  V30 3896 C 377.905 1.90912 -4.07275 0
M  V30 3897 C 379.224 3.47822 -2.69644 0
M  V30 3898 H 376.343 0.483935 -0.555856 0
M  V30 3899 H 378.985 0.644968 -1.78718 0
M  V30 3900 H 377.135 3.04646 -2.41088 0
M  V30 3901 H 378.807 1.36473 -4.4065 0
M  V30 3902 H 377.05 1.21691 -4.16382 0
M  V30 3903 H 377.721 2.72042 -4.80309 0
M  V30 3904 H 380.197 2.9888 -2.895 0
M  V30 3905 H 379.073 4.23876 -3.48742 0
M  V30 3906 H 379.334 4.05555 -1.76005 0
M  V30 3907 N 378.394 1.34581 0.820102 0
M  V30 3908 C 379.671 1.17675 1.56244 0
M  V30 3909 C 380.051 -0.249541 2.0962 0
M  V30 3910 O 379.399 -1.25125 1.91196 0
M  V30 3911 C 379.609 2.23364 2.6816 0
M  V30 3912 C 380.957 2.58485 3.36854 0
M  V30 3913 O 381.981 2.22175 2.78418 0
M  V30 3914 O 380.84 3.20868 4.42386 0
M  V30 3915 H 377.934 0.456333 0.689702 0
M  V30 3916 H 380.48 1.46222 0.861231 0
M  V30 3917 H 379.252 3.19087 2.26493 0
M  V30 3918 H 378.875 1.96009 3.45928 0
M  V30 3919 N 379.872 -1.04064 1.18357 0
M  V30 3920 C 381.149 -1.74252 0.888581 0
M  V30 3921 C 381.529 -2.02138 -0.60856 0
M  V30 3922 O 380.877 -1.66656 -1.56327 0
M  V30 3923 C 381.087 -3.0277 1.73584 0
M  V30 3924 C 382.435 -3.76506 1.96286 0
M  V30 3925 O 383.459 -3.12668 1.70637 0
M  V30 3926 O 382.318 -4.91243 2.39464 0
M  V30 3927 H 379.412 -0.758271 0.330082 0
M  V30 3928 H 381.958 -1.1013 1.2911 0
M  V30 3929 H 380.73 -2.78299 2.75073 0
M  V30 3930 H 380.353 -3.74631 1.33183 0
M  V30 3931 N 381.35 -0.985608 -1.22978 0
M  V30 3932 C 382.599 -0.652881 -1.90841 0
M  V30 3933 C 382.912 0.817842 -1.77681 0
M  V30 3934 O 384.118 1.26185 -2.40395 0
M  V30 3935 C 382.574 -1.11717 -3.42122 0
M  V30 3936 C 382.182 -2.6126 -3.63933 0
M  V30 3937 C 383.926 -0.85843 -4.1573 0
M  V30 3938 C 381.833 -3.0133 -5.08876 0
M  V30 3939 H 380.763 -0.240491 -0.714619 0
M  V30 3940 H 383.414 -1.1942 -1.39324 0
M  V30 3941 H 381.796 -0.504027 -3.92779 0
M  V30 3942 H 382.97 -3.27858 -3.23799 0
M  V30 3943 H 381.285 -2.84937 -3.03644 0
M  V30 3944 H 383.882 -1.13359 -5.22546 0
M  V30 3945 H 384.225 0.205461 -4.15793 0
M  V30 3946 H 384.758 -1.43341 -3.71077 0
M  V30 3947 H 381.497 -4.06864 -5.13947 0
M  V30 3948 H 381.017 -2.3943 -5.49939 0
M  V30 3949 H 382.696 -2.92224 -5.77247 0
M  V30 3950 N 382.828 1.3818 -0.7579 0
M  V30 3951 C 384.075 2.00019 -0.315985 0
M  V30 3952 C 384.403 1.60163 1.10355 0
M  V30 3953 O 383.658 0.83264 1.77103 0
M  V30 3954 C 383.957 3.55252 -0.391218 0
M  V30 3955 C 383.623 4.14834 -1.76702 0
M  V30 3956 C 382.285 4.30821 -2.14353 0
M  V30 3957 C 384.637 4.47658 -2.66931 0
M  V30 3958 C 381.965 4.76928 -3.41696 0
M  V30 3959 C 384.317 4.95184 -3.93669 0
M  V30 3960 C 382.981 5.09377 -4.31383 0
M  V30 3961 H 382.251 0.731923 -0.115627 0
M  V30 3962 H 384.898 1.65161 -0.969223 0
M  V30 3963 H 383.203 3.90273 0.34558 0
M  V30 3964 H 384.9 4.00988 -0.030805 0
M  V30 3965 H 381.49 4.02808 -1.46435 0
M  V30 3966 H 385.674 4.34904 -2.39106 0
M  V30 3967 H 380.93 4.86103 -3.70829 0
M  V30 3968 H 385.104 5.19551 -4.63724 0
M  V30 3969 H 382.731 5.44865 -5.30119 0
M  V30 3970 N 384.306 0.507319 1.49211 0
M  V30 3971 C 385.534 -0.0315749 2.06876 0
M  V30 3972 C 385.949 -1.30241 1.36685 0
M  V30 3973 O 385.306 -1.76937 0.447152 0
M  V30 3974 C 385.357 -0.282627 3.60393 0
M  V30 3975 O 385.078 0.937835 4.27944 0
M  V30 3976 C 386.579 -0.864453 4.3479 0
M  V30 3977 H 383.799 0.0233048 0.670595 0
M  V30 3978 H 386.343 0.706484 1.91909 0
M  V30 3979 H 384.498 -0.97068 3.75042 0
M  V30 3980 H 384.912 0.704567 5.19746 0
M  V30 3981 H 386.386 -0.989664 5.43056 0
M  V30 3982 H 386.863 -1.86382 3.97692 0
M  V30 3983 H 387.469 -0.213672 4.24763 0
M  V30 3984 N 385.784 -1.5574 0.241426 0
M  V30 3985 C 387.03 -1.99104 -0.385406 0
M  V30 3986 C 387.363 -1.1293 -1.57988 0
M  V30 3987 O 386.638 -0.191449 -1.93555 0
M  V30 3988 C 386.921 -3.51087 -0.800616 0
M  V30 3989 C 386.774 -4.48028 0.398874 0
M  V30 3990 C 388.093 -4.08015 -1.64959 0
M  V30 3991 H 385.212 -0.723848 -0.138614 0
M  V30 3992 H 387.854 -1.86903 0.341642 0
M  V30 3993 H 386.004 -3.61615 -1.4201 0
M  V30 3994 H 387.676 -4.49487 1.03726 0
M  V30 3995 H 385.919 -4.21077 1.04293 0
M  V30 3996 H 386.59 -5.51962 0.0651056 0
M  V30 3997 H 389.066 -4.00555 -1.12672 0
M  V30 3998 H 387.942 -5.14635 -1.90898 0
M  V30 3999 H 388.203 -3.56131 -2.61961 0
M  V30 4000 N 387.262 0.0317525 -1.57568 0
M  V30 4001 C 388.49 0.734949 -1.93407 0
M  V30 4002 C 388.905 1.69036 -0.84096 0
M  V30 4003 O 388.262 1.81582 0.182836 0
M  V30 4004 C 388.313 1.49432 -3.29169 0
M  V30 4005 O 388.034 0.577261 -4.3428 0
M  V30 4006 C 389.535 2.29492 -3.79273 0
M  V30 4007 H 386.755 0.206706 -0.638368 0
M  V30 4008 H 389.299 -0.00992046 -2.04498 0
M  V30 4009 H 387.454 2.1911 -3.19483 0
M  V30 4010 H 387.868 1.10952 -5.1263 0
M  V30 4011 H 389.342 2.78172 -4.76785 0
M  V30 4012 H 389.819 3.10794 -3.10328 0
M  V30 4013 H 390.425 1.64894 -3.92033 0
M  V30 4014 N 388.74 1.54641 0.303973 0
M  V30 4015 C 389.65 1.88439 1.39743 0
M  V30 4016 C 390.666 0.778239 1.55626 0
M  V30 4017 O 391.842 1.07442 1.70347 0
M  V30 4018 C 388.907 2.12212 2.74166 0
M  V30 4019 C 387.968 3.35936 2.67293 0
M  V30 4020 C 387.201 3.58566 3.95305 0
M  V30 4021 O 387.424 2.84263 4.9452 0
M  V30 4022 O 386.358 4.52078 3.97378 0
M  V30 4023 H 390.184 2.81458 1.14083 0
M  V30 4024 H 387.769 1.40793 0.499768 0
M  V30 4025 H 389.651 2.29067 3.53704 0
M  V30 4026 H 388.326 1.22379 2.99675 0
M  V30 4027 H 387.233 3.24448 1.86237 0
M  V30 4028 H 388.566 4.2589 2.46736 0
M  V30 4029 N 390.218 -0.567019 1.47046 0
M  V30 4030 C 391.495 -1.3276 1.43646 0
M  V30 4031 C 391.875 -2.1071 0.128186 0
M  V30 4032 O 391.223 -2.10441 -0.890326 0
M  V30 4033 C 391.433 -2.2404 2.67595 0
M  V30 4034 C 392.781 -2.85372 3.14401 0
M  V30 4035 O 393.805 -2.34346 2.68254 0
M  V30 4036 O 392.664 -3.78091 3.946 0
M  V30 4037 H 389.758 -0.597293 0.571988 0
M  V30 4038 H 392.304 -0.586735 1.59234 0
M  V30 4039 H 391.076 -1.65975 3.54356 0
M  V30 4040 H 390.699 -3.05439 2.54544 0
M  V30 4041 N 391.696 -1.35014 -0.812953 0
M  V30 4042 C 392.606 -1.2951 -1.95613 0
M  V30 4043 C 393.622 -0.20107 -1.72834 0
M  V30 4044 O 394.798 -0.42932 -1.96771 0
M  V30 4045 C 391.863 -1.06033 -3.30088 0
M  V30 4046 C 390.924 -2.24688 -3.65805 0
M  V30 4047 C 390.157 -2.02322 -4.93864 0
M  V30 4048 O 390.38 -0.986464 -5.61805 0
M  V30 4049 O 389.314 -2.89525 -5.27692 0
M  V30 4050 H 393.14 -2.25705 -2.03202 0
M  V30 4051 H 390.725 -1.15321 -0.949811 0
M  V30 4052 H 392.607 -0.94763 -4.10607 0
M  V30 4053 H 391.282 -0.128852 -3.23443 0
M  V30 4054 H 390.189 -2.41521 -2.85689 0
M  V30 4055 H 391.522 -3.16261 -3.77147 0
M  V30 4056 N 393.175 1.03435 -1.18907 0
M  V30 4057 C 394.424 1.76143 -0.982669 0
M  V30 4058 C 394.737 1.89416 0.487953 0
M  V30 4059 O 395.943 2.59041 0.813036 0
M  V30 4060 C 394.399 3.16722 -1.70924 0
M  V30 4061 C 394.007 3.11522 -3.21959 0
M  V30 4062 C 395.751 3.93764 -1.58588 0
M  V30 4063 C 393.658 4.46999 -3.87228 0
M  V30 4064 H 392.588 0.660292 -0.364047 0
M  V30 4065 H 395.239 1.158 -1.42347 0
M  V30 4066 H 393.621 3.775 -1.19623 0
M  V30 4067 H 394.795 2.60158 -3.80335 0
M  V30 4068 H 393.11 2.47978 -3.34508 0
M  V30 4069 H 395.707 4.93963 -2.04707 0
M  V30 4070 H 396.05 4.12794 -0.539142 0
M  V30 4071 H 396.583 3.39576 -2.07203 0
M  V30 4072 H 393.322 4.33174 -4.91976 0
M  V30 4073 H 392.842 4.98441 -3.33642 0
M  V30 4074 H 394.521 5.15898 -3.90459 0
M  V30 4075 N 394.653 0.992116 1.22453 0
M  V30 4076 C 395.6 0.541731 2.24352 0
M  V30 4077 C 396.57 -0.425519 1.60557 0
M  V30 4078 O 397.755 -0.330453 1.87917 0
M  V30 4079 C 394.895 -0.138248 3.44823 0
M  V30 4080 C 394.008 0.870649 4.23136 0
M  V30 4081 C 393.143 0.164269 5.30946 0
M  V30 4082 C 392.182 1.16159 6.00977 0
M  V30 4083 N 391.319 0.483568 7.00433 0
M  V30 4084 H 396.159 1.41541 2.62241 0
M  V30 4085 H 393.696 0.709013 1.28885 0
M  V30 4086 H 395.654 -0.5494 4.13567 0
M  V30 4087 H 394.284 -0.975721 3.077 0
M  V30 4088 H 393.336 1.40013 3.53696 0
M  V30 4089 H 394.648 1.63014 4.7141 0
M  V30 4090 H 393.802 -0.303653 6.0594 0
M  V30 4091 H 392.541 -0.627733 4.83643 0
M  V30 4092 H 391.546 1.64015 5.24766 0
M  V30 4093 H 392.771 1.95445 6.50368 0
M  V30 4094 H 390.717 -0.289012 6.55363 0
M  V30 4095 H 390.634 1.18152 7.4671 0
M  V30 4096 H 391.902 0.0384219 7.79491 0
M  V30 4097 N 396.131 -1.37776 0.765217 0
M  V30 4098 C 397.371 -2.01691 0.331669 0
M  V30 4099 C 397.735 -1.59432 -1.06983 0
M  V30 4100 O 398.936 -2.15761 -1.60314 0
M  V30 4101 C 397.207 -3.54385 0.463261 0
M  V30 4102 S 398.766 -4.38652 0.114011 0
M  V30 4103 H 395.584 -0.699387 0.127979 0
M  V30 4104 H 398.186 -1.68084 0.998396 0
M  V30 4105 H 396.89 -3.82629 1.48401 0
M  V30 4106 H 396.421 -3.92783 -0.220246 0
M  V30 4107 H 398.436 -4.84021 -1.09261 0
M  V30 4108 N 397.609 -0.515225 -1.4894 0
M  V30 4109 C 398.572 0.244681 -2.2789 0
M  V30 4110 C 399.572 0.881166 -1.34507 0
M  V30 4111 O 400.762 0.743497 -1.57537 0
M  V30 4112 C 397.894 1.35247 -3.12923 0
M  V30 4113 H 399.087 -0.448289 -2.96531 0
M  V30 4114 H 396.64 -0.270656 -1.53939 0
M  V30 4115 H 397.375 2.07916 -2.48881 0
M  V30 4116 H 397.16 0.901374 -3.81599 0
M  V30 4117 H 398.65 1.88737 -3.72516 0
M  V30 4118 N 399.087 1.5561 -0.249682 0
M  V30 4119 C 400.315 2.03411 0.378352 0
M  V30 4120 C 400.73 1.12886 1.51335 0
M  V30 4121 O 400.087 0.143833 1.81932 0
M  V30 4122 C 400.138 3.50537 0.88351 0
M  V30 4123 O 399.859 4.37614 -0.20626 0
M  V30 4124 C 401.36 4.14113 1.58195 0
M  V30 4125 H 398.58 0.664994 0.08958 0
M  V30 4126 H 401.124 2.01044 -0.374357 0
M  V30 4127 H 399.279 3.5343 1.58639 0
M  V30 4128 H 399.693 5.24199 0.177782 0
M  V30 4129 H 401.167 5.18741 1.8871 0
M  V30 4130 H 401.644 3.60767 2.50487 0
M  V30 4131 H 402.25 4.15151 0.923573 0
M  V30 4132 N 400.565 -0.0233959 1.57583 0
M  V30 4133 C 401.497 -1.04994 2.03737 0
M  V30 4134 C 402.51 -1.32125 0.951152 0
M  V30 4135 O 403.699 -1.29512 1.22837 0
M  V30 4136 C 400.799 -2.39026 2.40249 0
M  V30 4137 C 399.972 -2.31171 3.7132 0
M  V30 4138 C 399.031 -3.47698 3.94959 0
M  V30 4139 O 398.057 -3.26937 4.65941 0
M  V30 4140 N 399.259 -4.6976 3.41037 0
M  V30 4141 H 402.024 -0.656507 2.92421 0
M  V30 4142 H 399.585 -0.211235 1.60516 0
M  V30 4143 H 401.577 -3.15712 2.53196 0
M  V30 4144 H 400.147 -2.70194 1.57207 0
M  V30 4145 H 399.367 -1.39547 3.68674 0
M  V30 4146 H 400.655 -2.23071 4.57293 0
M  V30 4147 H 400.053 -4.89528 2.83512 0
M  V30 4148 H 398.61 -5.43791 3.59353 0
M  V30 4149 N 402.043 -1.548 -0.295768 0
M  V30 4150 C 402.973 -1.89115 -1.36959 0
M  V30 4151 C 403.954 -0.75059 -1.52644 0
M  V30 4152 O 405.139 -1.00678 -1.66065 0
M  V30 4153 C 402.269 -2.14307 -2.73295 0
M  V30 4154 C 401.223 -3.30151 -2.72368 0
M  V30 4155 C 400.549 -3.40772 -4.12042 0
M  V30 4156 C 401.849 -4.67126 -2.33646 0
M  V30 4157 H 403.543 -2.79053 -1.08488 0
M  V30 4158 H 401.089 -1.34266 -0.520443 0
M  V30 4159 H 403.042 -2.36898 -3.48507 0
M  V30 4160 H 401.766 -1.21145 -3.03301 0
M  V30 4161 H 400.425 -3.0749 -1.99613 0
M  V30 4162 H 400.073 -2.45117 -4.39234 0
M  V30 4163 H 399.773 -4.18645 -4.12322 0
M  V30 4164 H 401.297 -3.6563 -4.89027 0
M  V30 4165 H 402.711 -4.89414 -2.98575 0
M  V30 4166 H 401.108 -5.47751 -2.45129 0
M  V30 4167 H 402.178 -4.67489 -1.28772 0
M  V30 4168 N 403.521 0.559213 -1.47345 0
M  V30 4169 C 404.767 1.31843 -1.54095 0
M  V30 4170 C 405.1 1.93149 -0.201726 0
M  V30 4171 O 404.375 1.77759 0.789428 0
M  V30 4172 C 404.658 2.43006 -2.65744 0
M  V30 4173 C 404.511 1.86581 -4.09277 0
M  V30 4174 C 405.83 3.44943 -2.73318 0
M  V30 4175 H 402.949 0.478012 -0.560957 0
M  V30 4176 H 405.591 0.625977 -1.79392 0
M  V30 4177 H 403.741 3.02072 -2.44305 0
M  V30 4178 H 405.413 1.31792 -4.42073 0
M  V30 4179 H 403.656 1.17268 -4.17649 0
M  V30 4180 H 404.327 2.66933 -4.83168 0
M  V30 4181 H 406.803 2.95793 -2.92653 0
M  V30 4182 H 405.679 4.20153 -3.53218 0
M  V30 4183 H 405.94 4.03665 -1.80296 0
M  V30 4184 N 404.999 1.35443 0.805782 0
M  V30 4185 C 406.245 1.2996 1.56467 0
M  V30 4186 C 406.6 -0.124742 1.91995 0
M  V30 4187 O 405.893 -1.07533 1.58579 0
M  V30 4188 C 406.087 2.14045 2.86216 0
M  V30 4189 C 405.916 3.64512 2.63365 0
M  V30 4190 C 404.686 4.33744 2.59219 0
M  V30 4191 C 406.884 4.58142 2.33688 0
M  V30 4192 N 404.866 5.69953 2.28094 0
M  V30 4193 C 406.237 5.8248 2.12408 0
M  V30 4194 C 408.292 4.46877 2.19558 0
M  V30 4195 C 406.995 6.96818 1.78429 0
M  V30 4196 C 409.021 5.61065 1.86976 0
M  V30 4197 C 408.383 6.84431 1.66532 0
M  V30 4198 H 404.482 0.530817 0.574245 0
M  V30 4199 H 407.066 1.70333 0.943126 0
M  V30 4200 H 405.237 1.75942 3.46264 0
M  V30 4201 H 406.969 2.00075 3.51784 0
M  V30 4202 H 403.724 3.86365 2.73896 0
M  V30 4203 H 404.148 6.41845 2.15323 0
M  V30 4204 H 408.79 3.52102 2.34061 0
M  V30 4205 H 406.508 7.91559 1.62664 0
M  V30 4206 H 410.094 5.54302 1.7675 0
M  V30 4207 H 408.974 7.71294 1.41688 0
M  V30 4208 N 406.477 -1.02803 1.19454 0
M  V30 4209 C 407.387 -2.14575 0.948408 0
M  V30 4210 C 408.403 -1.73757 -0.091871 0
M  V30 4211 O 409.579 -2.01185 0.0929654 0
M  V30 4212 C 406.644 -3.43202 0.491265 0
M  V30 4213 C 405.705 -3.98328 1.60103 0
M  V30 4214 C 404.938 -5.20816 1.16561 0
M  V30 4215 O 405.161 -5.70392 0.0295238 0
M  V30 4216 O 404.095 -5.68801 1.96849 0
M  V30 4217 H 407.921 -2.38202 1.88397 0
M  V30 4218 H 405.506 -1.12989 0.977433 0
M  V30 4219 H 407.388 -4.20687 0.245015 0
M  V30 4220 H 406.063 -3.21018 -0.415851 0
M  V30 4221 H 404.97 -3.22174 1.90144 0
M  V30 4222 H 406.303 -4.24879 2.48473 0
M  V30 4223 N 407.956 -0.998596 -1.21925 0
M  V30 4224 C 409.372 -0.710303 -1.42923 0
M  V30 4225 C 409.572 0.716933 -1.88314 0
M  V30 4226 O 408.628 1.48712 -2.04062 0
M  V30 4227 C 409.941 -1.72072 -2.466 0
M  V30 4228 C 411.489 -1.73681 -2.60392 0
M  V30 4229 C 411.964 -2.73601 -3.67296 0
M  V30 4230 N 413.455 -2.7223 -3.7476 0
M  V30 4231 C 414.19 -3.46206 -4.57087 0
M  V30 4232 N 413.686 -4.29802 -5.43362 0
M  V30 4233 N 415.479 -3.34886 -4.51451 0
M  V30 4234 H 407.63 -1.92028 -0.9077 0
M  V30 4235 H 409.893 -0.828487 -0.460775 0
M  V30 4236 H 409.599 -2.74231 -2.20206 0
M  V30 4237 H 409.473 -1.51818 -3.45299 0
M  V30 4238 H 411.86 -0.722173 -2.86127 0
M  V30 4239 H 411.941 -1.98005 -1.61949 0
M  V30 4240 H 411.585 -3.75217 -3.42307 0
M  V30 4241 H 411.515 -2.46545 -4.65321 0
M  V30 4242 H 414.006 -2.11576 -3.1312 0
M  V30 4243 H 414.319 -4.83061 -6.03218 0
M  V30 4244 H 412.664 -4.33887 -5.42925 0
M  V30 4245 H 415.855 -2.69015 -3.83078 0
M  V30 4246 H 416.028 -3.92796 -5.15379 0
M  V30 4247 N 409.434 1.37368 -0.772513 0
M  V30 4248 C 410.367 2.27956 -0.105593 0
M  V30 4249 C 411.345 1.46362 0.708295 0
M  V30 4250 O 412.529 1.75695 0.682895 0
M  V30 4251 C 409.656 3.27687 0.856686 0
M  V30 4252 C 408.702 4.26312 0.1267 0
M  V30 4253 S 409.535 5.22206 -1.1858 0
M  V30 4254 C 410.691 6.25488 -0.227081 0
M  V30 4255 H 410.924 2.84171 -0.87372 0
M  V30 4256 H 408.457 1.43654 -0.565939 0
M  V30 4257 H 410.415 3.85653 1.40648 0
M  V30 4258 H 409.076 2.70417 1.59793 0
M  V30 4259 H 408.269 4.96674 0.856212 0
M  V30 4260 H 407.871 3.72339 -0.352117 0
M  V30 4261 H 410.163 6.74836 0.600231 0
M  V30 4262 H 411.106 7.02371 -0.898899 0
M  V30 4263 H 411.514 5.64267 0.162053 0
M  V30 4264 N 410.912 0.523116 1.48665 0
M  V30 4265 C 411.859 -0.243398 2.29513 0
M  V30 4266 C 412.829 -0.940139 1.36933 0
M  V30 4267 O 414.014 -0.942503 1.65896 0
M  V30 4268 C 411.154 -1.28855 3.20141 0
M  V30 4269 C 410.267 -0.60135 4.27794 0
M  V30 4270 C 409.402 -1.62884 5.05611 0
M  V30 4271 C 408.441 -0.924726 6.05075 0
M  V30 4272 N 407.578 -1.89744 6.75975 0
M  V30 4273 H 412.418 0.452234 2.94549 0
M  V30 4274 H 409.955 0.234858 1.45213 0
M  V30 4275 H 411.913 -1.90674 3.71079 0
M  V30 4276 H 410.543 -1.95266 2.57043 0
M  V30 4277 H 409.595 0.130623 3.80176 0
M  V30 4278 H 410.907 -0.0481585 4.98777 0
M  V30 4279 H 410.061 -2.32149 5.60528 0
M  V30 4280 H 408.8 -2.21592 4.34452 0
M  V30 4281 H 407.805 -0.217966 5.49368 0
M  V30 4282 H 409.03 -0.343851 6.78229 0
M  V30 4283 H 406.976 -2.47373 6.07571 0
M  V30 4284 H 406.893 -1.3955 7.43009 0
M  V30 4285 H 408.161 -2.58229 7.35485 0
M  V30 4286 N 412.39 -1.55475 0.257931 0
M  V30 4287 C 413.32 -2.24815 -0.630912 0
M  V30 4288 C 414.301 -1.23224 -1.17259 0
M  V30 4289 O 415.486 -1.51904 -1.20991 0
M  V30 4290 C 412.616 -2.95609 -1.82298 0
M  V30 4291 C 411.57 -4.03982 -1.41359 0
M  V30 4292 C 410.896 -4.6226 -2.68738 0
M  V30 4293 C 412.196 -5.19109 -0.57648 0
M  V30 4294 H 413.89 -2.99354 -0.0526878 0
M  V30 4295 H 411.436 -1.4398 -0.023901 0
M  V30 4296 H 413.389 -3.42822 -2.45054 0
M  V30 4297 H 412.113 -2.18577 -2.42676 0
M  V30 4298 H 410.772 -3.57555 -0.809324 0
M  V30 4299 H 410.42 -3.81915 -3.27338 0
M  V30 4300 H 410.12 -5.35424 -2.42065 0
M  V30 4301 H 411.644 -5.12212 -3.32372 0
M  V30 4302 H 413.058 -5.62479 -1.10861 0
M  V30 4303 H 411.455 -5.98729 -0.405351 0
M  V30 4304 H 412.525 -4.83174 0.408776 0
M  V30 4305 N 413.868 0.0150385 -1.57593 0
M  V30 4306 C 414.798 1.01047 -2.10503 0
M  V30 4307 C 415.779 1.36816 -1.01071 0
M  V30 4308 O 416.964 1.45455 -1.28672 0
M  V30 4309 C 414.094 2.30708 -2.59598 0
M  V30 4310 C 413.048 2.09142 -3.73421 0
M  V30 4311 C 412.374 3.44685 -4.08774 0
M  V30 4312 C 413.674 1.46619 -5.01298 0
M  V30 4313 H 415.368 0.569978 -2.93925 0
M  V30 4314 H 412.914 0.272724 -1.41394 0
M  V30 4315 H 414.867 3.00687 -2.95238 0
M  V30 4316 H 413.591 2.76843 -1.73279 0
M  V30 4317 H 412.25 1.41592 -3.38153 0
M  V30 4318 H 411.898 3.88495 -3.195 0
M  V30 4319 H 411.598 3.31077 -4.8545 0
M  V30 4320 H 413.122 4.16004 -4.4696 0
M  V30 4321 H 414.536 2.06535 -5.34805 0
M  V30 4322 H 412.933 1.43544 -5.82679 0
M  V30 4323 H 414.003 0.433611 -4.82957 0
M  V30 4324 N 415.346 1.54954 0.287554 0
M  V30 4325 C 416.595 1.74081 1.01877 0
M  V30 4326 C 416.908 0.541135 1.87966 0
M  V30 4327 O 418.114 0.614491 2.64455 0
M  V30 4328 C 416.57 3.08042 1.86113 0
M  V30 4329 C 416.178 4.35531 1.04961 0
M  V30 4330 C 417.922 3.36523 2.58752 0
M  V30 4331 C 415.829 5.60538 1.88551 0
M  V30 4332 H 414.759 0.64884 0.384087 0
M  V30 4333 H 417.41 1.81426 0.275101 0
M  V30 4334 H 415.792 2.94696 2.64519 0
M  V30 4335 H 416.966 4.59751 0.31074 0
M  V30 4336 H 415.281 4.14085 0.43843 0
M  V30 4337 H 417.878 4.27122 3.21668 0
M  V30 4338 H 418.221 2.56 3.28283 0
M  V30 4339 H 418.754 3.50901 1.87386 0
M  V30 4340 H 415.493 6.43767 1.23466 0
M  V30 4341 H 415.013 5.40483 2.60074 0
M  V30 4342 H 416.692 5.98297 2.46273 0
M  V30 4343 N 416.824 -0.551391 1.4764 0
M  V30 4344 C 417.734 -1.68525 1.63207 0
M  V30 4345 C 418.75 -1.6621 0.514815 0
M  V30 4346 O 419.926 -1.85551 0.783113 0
M  V30 4347 C 416.991 -3.05025 1.64805 0
M  V30 4348 C 416.052 -3.18362 2.88 0
M  V30 4349 C 415.285 -4.4835 2.89513 0
M  V30 4350 O 415.508 -5.34163 2.00065 0
M  V30 4351 O 414.442 -4.65602 3.81443 0
M  V30 4352 H 418.268 -1.58333 2.59161 0
M  V30 4353 H 415.853 -0.722063 1.30792 0
M  V30 4354 H 417.735 -3.86245 1.68502 0
M  V30 4355 H 416.41 -3.15587 0.720197 0
M  V30 4356 H 415.317 -2.36518 2.89845 0
M  V30 4357 H 416.65 -3.12707 3.80099 0
M  V30 4358 N 418.302 -1.35869 -0.798587 0
M  V30 4359 C 419.713 -1.26498 -1.37314 0
M  V30 4360 C 420.064 0.0991899 -1.95949 0
M  V30 4361 O 419.189 1.0004 -1.91888 0
M  V30 4362 C 419.784 -2.29054 -2.49639 0
M  V30 4363 C 418.343 -2.234 -3.02935 0
M  V30 4364 C 417.49 -2.14329 -1.75949 0
M  V30 4365 H 420.441 -1.46881 -0.600971 0
M  V30 4366 H 420.462 -1.92166 -3.28409 0
M  V30 4367 H 419.974 -3.2833 -2.06933 0
M  V30 4368 H 418.075 -1.27562 -3.50084 0
M  V30 4369 H 418.188 -3.15703 -3.60372 0
M  V30 4370 H 416.552 -1.60435 -1.9782 0
M  V30 4371 H 417.335 -3.15477 -1.35384 0
M  V30 4372 N 419.78 1.02168 -1.19998 0
M  V30 4373 C 421.008 1.79296 -1.03249 0
M  V30 4374 C 421.423 1.84103 0.418502 0
M  V30 4375 O 420.78 1.29031 1.29063 0
M  V30 4376 C 420.831 3.24007 -1.60319 0
M  V30 4377 O 420.552 3.19512 -2.99739 0
M  V30 4378 C 422.053 4.17704 -1.48453 0
M  V30 4379 H 419.273 0.564016 -0.363493 0
M  V30 4380 H 421.817 1.28639 -1.58973 0
M  V30 4381 H 419.972 3.7183 -1.08727 0
M  V30 4382 H 420.386 4.10306 -3.26725 0
M  V30 4383 H 421.86 5.17104 -1.93153 0
M  V30 4384 H 422.337 4.37029 -0.436193 0
M  V30 4385 H 422.943 3.7576 -1.99211 0
M  V30 4386 N 421.258 1.00505 1.21394 0
M  V30 4387 C 422.221 0.570459 2.21987 0
M  V30 4388 C 423.221 -0.353211 1.56873 0
M  V30 4389 O 424.411 -0.14349 1.73608 0
M  V30 4390 C 421.543 -0.168555 3.40483 0
M  V30 4391 H 422.736 1.46021 2.6195 0
M  V30 4392 H 420.289 0.793565 1.34656 0
M  V30 4393 H 421.024 -1.07374 3.06009 0
M  V30 4394 H 420.809 0.494823 3.88965 0
M  V30 4395 H 422.299 -0.460362 4.15055 0
M  V30 4396 N 422.737 -1.36956 0.779787 0
M  V30 4397 C 423.985 -1.99097 0.347079 0
M  V30 4398 C 424.306 -1.62206 -1.08232 0
M  V30 4399 O 423.576 -0.891373 -1.74446 0
M  V30 4400 H 422.156 -0.736409 0.125342 0
M  V30 4401 H 424.818 -1.67308 0.999696 0
M  V30 4402 H 423.914 -3.09107 0.431162 0
M  V30 4403 N 424.215 -0.530993 -1.48385 0
M  V30 4404 C 425.461 0.00274135 -2.028 0
M  V30 4405 C 425.794 1.33838 -1.40716 0
M  V30 4406 O 425.069 1.86465 -0.553277 0
M  V30 4407 C 425.352 0.123676 -3.59888 0
M  V30 4408 C 425.205 -1.2372 -4.3245 0
M  V30 4409 C 426.524 0.849967 -4.31814 0
M  V30 4410 H 423.643 -0.000477758 -0.737 0
M  V30 4411 H 426.285 -0.688217 -1.77098 0
M  V30 4412 H 424.435 0.712157 -3.81917 0
M  V30 4413 H 426.107 -1.86687 -4.21836 0
M  V30 4414 H 424.35 -1.81882 -3.93829 0
M  V30 4415 H 425.021 -1.10557 -5.40815 0
M  V30 4416 H 427.497 0.350572 -4.14621 0
M  V30 4417 H 426.373 0.903486 -5.41413 0
M  V30 4418 H 426.634 1.90047 -3.99167 0
M  V30 4419 N 425.693 1.55336 -0.266172 0
M  V30 4420 C 426.941 1.99003 0.35246 0
M  V30 4421 C 427.262 1.15591 1.57047 0
M  V30 4422 O 426.532 0.243268 1.94384 0
M  V30 4423 H 425.112 0.735025 0.133217 0
M  V30 4424 H 427.774 1.91367 -0.369434 0
M  V30 4425 H 426.87 3.05289 0.648453 0
M  V30 4426 N 427.171 -0.0066808 1.57599 0
M  V30 4427 C 428.417 -0.693947 1.90558 0
M  V30 4428 C 428.75 -1.73792 0.866594 0
M  V30 4429 O 428.025 -1.94156 -0.115548 0
M  V30 4430 C 428.308 -1.34317 3.34112 0
M  V30 4431 C 428.161 -0.311189 4.48722 0
M  V30 4432 C 429.48 -2.27116 3.7697 0
M  V30 4433 H 426.599 -0.250803 0.693013 0
M  V30 4434 H 429.241 0.043242 1.89951 0
M  V30 4435 H 427.391 -1.9715 3.3476 0
M  V30 4436 H 429.063 0.316944 4.6021 0
M  V30 4437 H 427.306 0.367253 4.32243 0
M  V30 4438 H 427.977 -0.804366 5.46108 0
M  V30 4439 H 430.453 -1.74306 3.77831 0
M  V30 4440 H 429.329 -2.69511 4.78179 0
M  V30 4441 H 429.59 -3.14743 3.10466 0
M  V30 4442 N 428.649 -1.55105 -0.279332 0
M  V30 4443 C 429.612 -1.86783 -1.32834 0
M  V30 4444 C 430.612 -0.74199 -1.42657 0
M  V30 4445 O 431.802 -1.0102 -1.41918 0
M  V30 4446 C 428.934 -2.06746 -2.71052 0
M  V30 4447 H 430.127 -2.8055 -1.05979 0
M  V30 4448 H 427.68 -1.47499 -0.517087 0
M  V30 4449 H 428.415 -1.15339 -3.03097 0
M  V30 4450 H 428.2 -2.88711 -2.65309 0
M  V30 4451 H 429.69 -2.32549 -3.46858 0
M  V30 4452 N 430.127 0.543554 -1.4793 0
M  V30 4453 C 431.09 1.63156 -1.60975 0
M  V30 4454 C 432.09 1.53346 -0.483899 0
M  V30 4455 O 433.28 1.5726 -0.749339 0
M  V30 4456 C 430.412 3.02743 -1.56716 0
M  V30 4457 H 431.605 1.52934 -2.57975 0
M  V30 4458 H 429.158 0.764557 -1.36324 0
M  V30 4459 H 429.893 3.18484 -0.611418 0
M  V30 4460 H 429.678 3.11272 -2.38438 0
M  V30 4461 H 431.168 3.81871 -1.6901 0
M  V30 4462 N 431.605 1.3629 0.791371 0
M  V30 4463 C 432.851 1.30605 1.55146 0
M  V30 4464 C 433.184 -0.115042 1.93859 0
M  V30 4465 O 432.459 -1.06798 1.62556 0
M  V30 4466 C 432.742 2.22692 2.82985 0
M  V30 4467 C 432.595 3.73489 2.50651 0
M  V30 4468 C 433.914 2.13588 3.84796 0
M  V30 4469 H 431.033 0.475761 0.562868 0
M  V30 4470 H 433.675 1.66825 0.909358 0
M  V30 4471 H 431.825 1.91933 3.37778 0
M  V30 4472 H 433.497 4.14758 2.01924 0
M  V30 4473 H 431.74 3.93021 1.83622 0
M  V30 4474 H 432.411 4.3333 3.41949 0
M  V30 4475 H 434.887 2.40659 3.39445 0
M  V30 4476 H 433.763 2.80195 4.71998 0
M  V30 4477 H 434.024 1.12256 4.27611 0
M  V30 4478 N 433.083 -1.0153 1.20538 0
M  V30 4479 C 434.013 -2.11972 0.979295 0
M  V30 4480 C 434.994 -1.6985 -0.0921787 0
M  V30 4481 O 436.179 -1.94089 0.0655932 0
M  V30 4482 C 433.309 -3.43201 0.531984 0
M  V30 4483 C 432.263 -3.9907 1.54685 0
M  V30 4484 C 431.589 -5.26082 0.956127 0
M  V30 4485 C 432.889 -4.32313 2.93092 0
M  V30 4486 H 434.583 -2.31143 1.90298 0
M  V30 4487 H 432.129 -1.11079 0.916372 0
M  V30 4488 H 434.082 -4.1985 0.361044 0
M  V30 4489 H 432.806 -3.23792 -0.427327 0
M  V30 4490 H 431.465 -3.2453 1.70517 0
M  V30 4491 H 431.113 -5.02999 -0.0111538 0
M  V30 4492 H 430.813 -5.64426 1.63393 0
M  V30 4493 H 432.337 -6.05386 0.796284 0
M  V30 4494 H 433.751 -4.99845 2.80763 0
M  V30 4495 H 432.148 -4.81774 3.57791 0
M  V30 4496 H 433.218 -3.41025 3.44717 0
M  V30 4497 N 434.561 -1.01147 -1.20859 0
M  V30 4498 C 435.786 -0.716698 -1.94623 0
M  V30 4499 C 436.211 0.715415 -1.73964 0
M  V30 4500 O 435.569 1.49157 -1.03062 0
M  V30 4501 C 435.617 -1.0513 -3.44935 0
M  V30 4502 O 434.721 -0.160131 -4.12089 0
M  V30 4503 H 434.062 -0.266404 -0.608214 0
M  V30 4504 H 436.592 -1.35346 -1.53436 0
M  V30 4505 H 436.602 -1.00086 -3.95533 0
M  V30 4506 H 435.277 -2.09475 -3.59295 0
M  V30 4507 H 433.854 -0.267657 -3.71938 0
M  V30 4508 N 436.039 1.36541 -0.78704 0
M  V30 4509 C 436.971 2.28761 -0.141773 0
M  V30 4510 C 437.984 1.49365 0.647599 0
M  V30 4511 O 439.173 1.71836 0.483173 0
M  V30 4512 C 436.273 3.28771 0.822368 0
M  V30 4513 C 435.446 4.3732 0.0835594 0
M  V30 4514 C 434.505 5.17307 0.963296 0
M  V30 4515 O 433.531 5.67638 0.421419 0
M  V30 4516 N 434.733 5.33515 2.28784 0
M  V30 4517 H 437.498 2.84777 -0.933919 0
M  V30 4518 H 435.059 1.48682 -0.640735 0
M  V30 4519 H 437.051 3.79169 1.41468 0
M  V30 4520 H 435.621 2.73412 1.5154 0
M  V30 4521 H 434.841 3.88118 -0.689809 0
M  V30 4522 H 436.129 5.0701 -0.426358 0
M  V30 4523 H 435.527 4.94234 2.75226 0
M  V30 4524 H 434.084 5.87165 2.82985 0
M  V30 4525 N 437.518 0.538854 1.48102 0
M  V30 4526 C 438.468 -0.23907 2.26743 0
M  V30 4527 C 439.452 -0.901923 1.33245 0
M  V30 4528 O 440.644 -0.803263 1.57723 0
M  V30 4529 C 437.773 -1.2799 3.18549 0
M  V30 4530 C 436.859 -0.621388 4.19523 0
M  V30 4531 N 437.25 0.298004 5.04921 0
M  V30 4532 C 435.548 -0.877533 4.37282 0
M  V30 4533 C 436.249 0.678757 5.77726 0
M  V30 4534 N 435.225 0.0377881 5.43587 0
M  V30 4535 H 439.027 0.468096 2.90148 0
M  V30 4536 H 436.541 0.357497 1.58416 0
M  V30 4537 H 438.538 -1.851 3.73555 0
M  V30 4538 H 437.198 -1.98835 2.567 0
M  V30 4539 H 438.209 0.671126 5.13533 0
M  V30 4540 H 434.886 -1.57588 3.86616 0
M  V30 4541 H 436.276 1.43316 6.56437 0
M  V30 4542 N 438.996 -1.55193 0.274407 0
M  V30 4543 C 440.243 -1.99581 -0.342579 0
M  V30 4544 C 440.571 -1.1628 -1.55914 0
M  V30 4545 O 439.826 -0.22029 -1.94456 0
M  V30 4546 C 440.125 -3.49019 -0.769458 0
M  V30 4547 C 439.791 -4.49598 0.342389 0
M  V30 4548 C 438.453 -4.76821 0.647686 0
M  V30 4549 C 440.805 -5.0964 1.09163 0
M  V30 4550 C 438.133 -5.61354 1.70581 0
M  V30 4551 C 440.485 -5.95323 2.13948 0
M  V30 4552 C 439.149 -6.20867 2.45113 0
M  V30 4553 H 438.419 -0.730319 -0.125358 0
M  V30 4554 H 441.066 -1.87529 0.387971 0
M  V30 4555 H 439.371 -3.58544 -1.57967 0
M  V30 4556 H 441.068 -3.8077 -1.25757 0
M  V30 4557 H 437.658 -4.28496 0.094318 0
M  V30 4558 H 441.842 -4.88632 0.869024 0
M  V30 4559 H 437.098 -5.79392 1.9523 0
M  V30 4560 H 441.272 -6.40881 2.72478 0
M  V30 4561 H 438.899 -6.86162 3.27239 0
M  V30 4562 N 440.474 -0.00167713 -1.576 0
M  V30 4563 C 441.406 1.0174 -2.05382 0
M  V30 4564 C 442.419 1.30595 -0.972052 0
M  V30 4565 O 443.608 1.27542 -1.24882 0
M  V30 4566 C 440.708 2.35174 -2.44022 0
M  V30 4567 C 439.881 2.25234 -3.74951 0
M  V30 4568 C 438.94 3.4137 -4.00441 0
M  V30 4569 O 437.966 3.19483 -4.71083 0
M  V30 4570 N 439.168 4.64275 -3.48467 0
M  V30 4571 H 441.933 0.609902 -2.93428 0
M  V30 4572 H 439.494 0.185672 -1.60832 0
M  V30 4573 H 441.486 3.11643 -2.58187 0
M  V30 4574 H 440.056 2.67659 -1.61485 0
M  V30 4575 H 439.276 1.33664 -3.70847 0
M  V30 4576 H 440.564 2.15767 -4.60784 0
M  V30 4577 H 439.962 4.84955 -2.91264 0
M  V30 4578 H 438.519 5.38005 -3.67959 0
M  V30 4579 N 441.952 1.55251 0.271103 0
M  V30 4580 C 443.18 1.79974 1.02064 0
M  V30 4581 C 443.595 0.574003 1.79863 0
M  V30 4582 O 442.952 -0.456962 1.76686 0
M  V30 4583 C 443.003 3.02603 1.97772 0
M  V30 4584 O 442.724 4.20443 1.23124 0
M  V30 4585 C 444.225 3.39944 2.84522 0
M  V30 4586 H 441.445 0.599489 0.301419 0
M  V30 4587 H 443.989 2.02268 0.301313 0
M  V30 4588 H 442.144 2.8243 2.65165 0
M  V30 4589 H 442.558 4.89783 1.87651 0
M  V30 4590 H 444.032 4.28915 3.47471 0
M  V30 4591 H 444.509 2.59432 3.54389 0
M  V30 4592 H 445.115 3.62383 2.22618 0
M  V30 4593 N 443.43 -0.535701 1.48216 0
M  V30 4594 C 444.676 -1.29375 1.56173 0
M  V30 4595 C 445.009 -1.92804 0.232429 0
M  V30 4596 O 444.284 -1.78992 -0.761048 0
M  V30 4597 C 444.567 -2.38747 2.69577 0
M  V30 4598 C 444.42 -1.80046 4.12193 0
M  V30 4599 C 445.739 -3.40551 2.78771 0
M  V30 4600 H 442.858 -0.469027 0.568491 0
M  V30 4601 H 445.5 -0.597358 1.80365 0
M  V30 4602 H 443.65 -2.98147 2.4908 0
M  V30 4603 H 445.322 -1.24742 4.44114 0
M  V30 4604 H 443.565 -1.10609 4.19462 0
M  V30 4605 H 444.236 -2.59212 4.87353 0
M  V30 4606 H 446.712 -2.91099 2.97322 0
M  V30 4607 H 445.588 -4.1448 3.59857 0
M  V30 4608 H 445.849 -4.00746 1.86696 0
M  V30 4609 N 444.908 -1.36708 -0.784132 0
M  V30 4610 C 446.133 -1.34565 -1.5782 0
M  V30 4611 C 446.558 0.0695257 -1.87971 0
M  V30 4612 O 445.916 1.04302 -1.48293 0
M  V30 4613 C 445.964 -2.17952 -2.87279 0
M  V30 4614 O 445.068 -1.57563 -3.81114 0
M  V30 4615 H 444.409 -0.460337 -0.478524 0
M  V30 4616 H 446.939 -1.80064 -0.971495 0
M  V30 4617 H 446.949 -2.30721 -3.365 0
M  V30 4618 H 445.624 -3.20823 -2.64661 0
M  V30 4619 H 444.201 -1.53764 -3.39722 0
M  V30 4620 N 446.386 1.0089 -1.21074 0
M  V30 4621 C 447.797 1.56056 -1.02486 0
M  V30 4622 C 448.148 1.91728 0.416506 0
M  V30 4623 O 447.273 1.73066 1.29912 0
M  V30 4624 C 447.868 2.83563 -1.85411 0
M  V30 4625 C 446.427 3.3523 -1.71166 0
M  V30 4626 C 445.574 2.0846 -1.82865 0
M  V30 4627 H 448.525 0.831818 -1.35154 0
M  V30 4628 H 448.546 3.55286 -1.36205 0
M  V30 4629 H 448.058 2.57569 -2.9031 0
M  V30 4630 H 446.159 3.66167 -0.689361 0
M  V30 4631 H 446.272 4.06913 -2.52901 0
M  V30 4632 H 444.636 2.21275 -1.26132 0
M  V30 4633 H 445.419 1.84883 -2.89263 0
M  V30 4634 N 447.864 1.01787 1.20321 0
M  V30 4635 C 448.774 0.598898 2.26827 0
M  V30 4636 C 449.79 -0.36418 1.70146 0
M  V30 4637 O 450.966 -0.224812 2.00141 0
M  V30 4638 C 448.031 -0.0549769 3.46656 0
M  V30 4639 C 447.092 0.954205 4.18561 0
M  V30 4640 C 446.325 0.331439 5.3267 0
M  V30 4641 O 446.548 -0.86851 5.63749 0
M  V30 4642 O 445.482 1.0488 5.92692 0
M  V30 4643 H 449.308 1.48562 2.64883 0
M  V30 4644 H 446.893 0.787434 1.26964 0
M  V30 4645 H 448.775 -0.420102 4.19301 0
M  V30 4646 H 447.45 -0.915876 3.10473 0
M  V30 4647 H 446.357 1.37072 3.48083 0
M  V30 4648 H 447.69 1.78511 4.58688 0
M  V30 4649 N 449.342 -1.36122 0.79427 0
M  V30 4650 C 450.588 -1.99406 0.369452 0
M  V30 4651 C 450.921 -1.62886 -1.05743 0
M  V30 4652 O 450.196 -0.886053 -1.73145 0
M  V30 4653 C 450.479 -3.56046 0.538833 0
M  V30 4654 C 450.332 -4.02404 2.00976 0
M  V30 4655 C 451.651 -4.40079 -0.0431359 0
M  V30 4656 H 448.77 -0.724397 0.135712 0
M  V30 4657 H 451.412 -1.61461 1.00151 0
M  V30 4658 H 449.562 -3.885 0.000771004 0
M  V30 4659 H 451.234 -3.80415 2.60926 0
M  V30 4660 H 449.477 -3.53765 2.51063 0
M  V30 4661 H 450.148 -5.11344 2.07922 0
M  V30 4662 H 452.624 -4.14013 0.416228 0
M  V30 4663 H 451.5 -5.48799 0.105374 0
M  V30 4664 H 451.761 -4.27264 -1.13571 0
M  V30 4665 N 450.82 -0.546701 -1.47814 0
M  V30 4666 C 451.767 0.206854 -2.29871 0
M  V30 4667 C 452.737 0.918235 -1.38411 0
M  V30 4668 O 453.922 0.915991 -1.67375 0
M  V30 4669 C 451.062 1.23746 -3.22151 0
M  V30 4670 C 450.175 0.533216 -4.28697 0
M  V30 4671 C 449.31 1.5482 -5.08138 0
M  V30 4672 C 448.349 0.828347 -6.06469 0
M  V30 4673 N 447.486 1.78966 -6.78908 0
M  V30 4674 H 452.326 -0.499037 -2.93792 0
M  V30 4675 H 449.863 -0.25793 -1.44821 0
M  V30 4676 H 451.821 1.84746 -3.74065 0
M  V30 4677 H 450.451 1.91151 -2.60117 0
M  V30 4678 H 449.503 -0.191089 -3.7992 0
M  V30 4679 H 450.815 -0.0311987 -4.9879 0
M  V30 4680 H 449.969 2.23202 -5.6415 0
M  V30 4681 H 448.708 2.14652 -4.37922 0
M  V30 4682 H 447.713 0.130539 -5.49645 0
M  V30 4683 H 448.938 0.235907 -6.7869 0
M  V30 4684 H 446.884 2.37675 -6.1143 0
M  V30 4685 H 446.801 1.27712 -7.45135 0
M  V30 4686 H 448.069 2.46496 -7.395 0
M  V30 4687 N 452.299 1.55045 -0.282633 0
M  V30 4688 C 453.247 2.24254 0.617478 0
M  V30 4689 C 454.241 1.24215 1.15183 0
M  V30 4690 O 455.447 1.42123 1.10459 0
M  V30 4691 H 451.822 0.719801 0.217693 0
M  V30 4692 H 453.793 2.98398 0.0110076 0
M  V30 4693 C 452.542 2.98281 1.78672 0
M  V30 4694 H 451.865 3.75053 1.38475 0
M  V30 4695 H 453.305 3.50017 2.393 0
M  V30 4696 C 451.764 2.04184 2.67975 0
M  V30 4697 O 452.294 1.59792 3.6855 0
M  V30 4698 N 450.5 1.70526 2.35307 0
M  V30 4699 H 450.047 2.06821 1.53567 0
M  V30 4700 H 450.005 1.07839 2.95327 0
M  V30 4701 N 453.777 0.010035 1.57597 0
M  V30 4702 C 455.026 -0.671945 1.90178 0
M  V30 4703 C 455.339 -1.74376 0.886131 0
M  V30 4704 O 456.545 -2.48107 1.10252 0
M  V30 4705 C 455.001 -1.24636 3.3763 0
M  V30 4706 C 454.609 -0.208838 4.47513 0
M  V30 4707 C 456.353 -1.90595 3.79307 0
M  V30 4708 C 454.26 -0.793814 5.86048 0
M  V30 4709 H 453.19 -0.25474 0.709665 0
M  V30 4710 H 455.841 0.0722206 1.83358 0
M  V30 4711 H 454.223 -2.04152 3.3932 0
M  V30 4712 H 455.397 0.562463 4.57354 0
M  V30 4713 H 453.712 0.350889 4.14919 0
M  V30 4714 H 456.309 -2.35284 4.80151 0
M  V30 4715 H 456.652 -2.74074 3.13352 0
M  V30 4716 H 457.185 -1.17798 3.79958 0
M  V30 4717 H 453.924 0.00240855 6.555 0
M  V30 4718 H 453.444 -1.53404 5.79851 0
M  V30 4719 H 455.123 -1.2894 6.34022 0
M  V30 4720 N 455.255 -1.55392 -0.262866 0
M  V30 4721 C 456.495 -1.78231 -1.00064 0
M  V30 4722 C 456.859 -0.576966 -1.83126 0
M  V30 4723 O 458.06 -0.683809 -2.59957 0
M  V30 4724 C 456.331 -3.05701 -1.85153 0
M  V30 4725 S 457.89 -3.49699 -2.65058 0
M  V30 4726 H 454.708 -0.626138 -0.336856 0
M  V30 4727 H 457.31 -1.93626 -0.27005 0
M  V30 4728 H 456.014 -3.91511 -1.23074 0
M  V30 4729 H 455.545 -2.93 -2.62515 0
M  V30 4730 H 457.56 -3.09772 -3.87629 0
M  V30 4731 N 456.733 0.527833 -1.48498 0
M  V30 4732 C 457.982 1.28003 -1.55878 0
M  V30 4733 C 458.295 1.9414 -0.238577 0
M  V30 4734 O 459.501 2.7083 -0.190643 0
M  V30 4735 C 457.957 2.32272 -2.74914 0
M  V30 4736 C 457.565 1.72196 -4.13585 0
M  V30 4737 C 459.309 3.08488 -2.91608 0
M  V30 4738 C 457.216 2.74417 -5.23879 0
M  V30 4739 H 456.146 0.481413 -0.580308 0
M  V30 4740 H 458.797 0.557195 -1.74836 0
M  V30 4741 H 457.179 3.07601 -2.49395 0
M  V30 4742 H 458.353 1.03041 -4.49132 0
M  V30 4743 H 456.668 1.08464 -4.02025 0
M  V30 4744 H 459.265 3.84879 -3.71177 0
M  V30 4745 H 459.608 3.64481 -2.01145 0
M  V30 4746 H 460.141 2.40274 -3.17038 0
M  V30 4747 H 456.88 2.23242 -6.16314 0
M  V30 4748 H 456.4 3.41893 -4.92818 0
M  V30 4749 H 458.079 3.37362 -5.52083 0
M  V30 4750 N 458.211 1.37122 0.776871 0
M  V30 4751 C 459.457 1.32243 1.53752 0
M  V30 4752 C 459.79 -0.0944745 1.9397 0
M  V30 4753 O 459.065 -1.05068 1.6368 0
M  V30 4754 C 459.348 2.25681 2.80607 0
M  V30 4755 C 459.201 3.76127 2.46676 0
M  V30 4756 C 460.52 2.17657 3.82509 0
M  V30 4757 H 457.639 0.481704 0.557791 0
M  V30 4758 H 460.281 1.6778 0.891612 0
M  V30 4759 H 458.431 1.95505 3.35723 0
M  V30 4760 H 460.103 4.16877 1.97513 0
M  V30 4761 H 458.346 3.94946 1.79443 0
M  V30 4762 H 459.017 4.36933 3.37333 0
M  V30 4763 H 461.493 2.44245 3.36873 0
M  V30 4764 H 460.369 2.85185 4.69 0
M  V30 4765 H 460.63 1.16785 4.26396 0
M  V30 4766 N 459.689 -1.00246 1.21608 0
M  V30 4767 C 460.619 -2.10921 1.00172 0
M  V30 4768 C 461.6 -1.69938 -0.0741587 0
M  V30 4769 O 462.785 -1.94009 0.0861753 0
M  V30 4770 C 459.915 -3.42618 0.568355 0
M  V30 4771 C 458.869 -3.97407 1.58909 0
M  V30 4772 C 458.195 -5.25038 1.01187 0
M  V30 4773 C 459.495 -4.2918 2.97661 0
M  V30 4774 H 461.189 -2.29112 1.92739 0
M  V30 4775 H 458.735 -1.10101 0.928102 0
M  V30 4776 H 460.688 -4.19444 0.405555 0
M  V30 4777 H 459.412 -3.24227 -0.392961 0
M  V30 4778 H 458.071 -3.22703 1.73949 0
M  V30 4779 H 457.719 -5.02982 0.0421965 0
M  V30 4780 H 457.419 -5.62661 1.6937 0
M  V30 4781 H 458.943 -6.04507 0.860448 0
M  V30 4782 H 460.357 -4.96839 2.86049 0
M  V30 4783 H 458.754 -4.77952 3.6288 0
M  V30 4784 H 459.824 -3.3735 3.48315 0
M  V30 4785 N 461.167 -1.02423 -1.1978 0
M  V30 4786 C 462.392 -0.7373 -1.93852 0
M  V30 4787 C 462.817 0.696923 -1.74713 0
M  V30 4788 O 462.175 1.48056 -1.04638 0
M  V30 4789 C 462.223 -1.08783 -3.438 0
M  V30 4790 O 461.327 -0.20383 -4.11896 0
M  V30 4791 H 460.668 -0.27284 -0.605355 0
M  V30 4792 H 463.198 -1.36966 -1.51992 0
M  V30 4793 H 463.208 -1.04276 -3.9445 0
M  V30 4794 H 461.883 -2.13274 -3.57053 0
M  V30 4795 H 460.46 -0.307091 -3.71633 0
M  V30 4796 N 462.645 1.35699 -0.801477 0
M  V30 4797 C 463.893 1.9852 -0.37871 0
M  V30 4798 C 464.214 1.63907 1.05638 0
M  V30 4799 O 463.484 0.919013 1.73006 0
M  V30 4800 H 462.064 0.734322 -0.137042 0
M  V30 4801 H 464.726 1.65697 -1.02619 0
M  V30 4802 H 463.822 3.08382 -0.480284 0
M  V30 4803 N 464.123 0.554532 1.47522 0
M  V30 4804 C 465.371 0.0294208 2.02079 0
M  V30 4805 C 465.692 -1.32411 1.43151 0
M  V30 4806 O 464.962 -1.863 0.605728 0
M  V30 4807 H 463.542 0.00788672 0.746958 0
M  V30 4808 H 466.204 0.723934 1.80956 0
M  V30 4809 H 465.3 -0.0606745 3.12041 0
M  V30 4810 N 465.601 -1.54893 0.290851 0
M  V30 4811 C 466.549 -2.24579 -0.605576 0
M  V30 4812 C 467.543 -1.24824 -1.14522 0
M  V30 4813 O 468.749 -1.42706 -1.09704 0
M  V30 4814 H 465.124 -0.720946 -0.213872 0
M  V30 4815 H 467.095 -2.984 0.0048173 0
M  V30 4816 C 465.844 -2.99224 -1.77088 0
M  V30 4817 H 465.167 -3.75782 -1.36484 0
M  V30 4818 H 466.607 -3.51281 -2.3744 0
M  V30 4819 C 465.066 -2.05602 -2.66888 0
M  V30 4820 O 465.596 -1.61745 -3.67698 0
M  V30 4821 N 463.802 -1.71771 -2.34399 0
M  V30 4822 H 463.349 -2.07633 -1.52468 0
M  V30 4823 H 463.307 -1.09403 -2.94751 0
M  V30 4824 N 467.08 -0.0183926 -1.57589 0
M  V30 4825 C 468.326 0.663543 -1.91638 0
M  V30 4826 C 468.659 1.72392 -0.894134 0
M  V30 4827 O 467.934 1.94316 0.0846449 0
M  V30 4828 C 468.217 1.28984 -3.36207 0
M  V30 4829 C 468.07 0.239761 -4.49161 0
M  V30 4830 C 469.389 2.2109 -3.80536 0
M  V30 4831 H 466.508 0.239746 -0.696915 0
M  V30 4832 H 469.15 -0.073456 -1.89858 0
M  V30 4833 H 467.3 1.91799 -3.37854 0
M  V30 4834 H 468.972 -0.390119 -4.59647 0
M  V30 4835 H 467.215 -0.435972 -4.31604 0
M  V30 4836 H 467.886 0.717383 -5.47319 0
M  V30 4837 H 470.362 1.68273 -3.80557 0
M  V30 4838 H 469.238 2.61869 -4.82406 0
M  V30 4839 H 469.499 3.09764 -3.15434 0
M  V30 4840 N 468.558 1.5553 0.254621 0
M  V30 4841 C 469.835 1.6774 1.00611 0
M  V30 4842 C 470.215 0.555993 2.03647 0
M  V30 4843 O 469.563 -0.441583 2.24193 0
M  V30 4844 C 469.773 3.07725 1.6464 0
M  V30 4845 C 471.121 3.66074 2.15116 0
M  V30 4846 O 472.145 3.10476 1.74595 0
M  V30 4847 O 471.004 4.63526 2.89493 0
M  V30 4848 H 468.098 0.681958 0.467828 0
M  V30 4849 H 470.644 1.67863 0.24902 0
M  V30 4850 H 469.416 3.80792 0.900734 0
M  V30 4851 H 469.039 3.1158 2.46989 0
M  V30 4852 N 470.036 -0.519951 1.48776 0
M  V30 4853 C 470.966 -1.63253 1.66945 0
M  V30 4854 C 471.947 -1.62014 0.518224 0
M  V30 4855 O 473.132 -1.79053 0.751919 0
M  V30 4856 C 470.262 -3.0181 1.71836 0
M  V30 4857 C 469.216 -3.17911 2.8656 0
M  V30 4858 C 468.542 -4.5763 2.76548 0
M  V30 4859 C 469.842 -2.99729 4.27738 0
M  V30 4860 H 471.536 -1.48302 2.6009 0
M  V30 4861 H 469.082 -0.712026 1.25165 0
M  V30 4862 H 471.035 -3.79525 1.83135 0
M  V30 4863 H 469.759 -3.17806 0.752775 0
M  V30 4864 H 468.418 -2.42616 2.74833 0
M  V30 4865 H 468.066 -4.70476 1.77937 0
M  V30 4866 H 467.766 -4.69346 3.53536 0
M  V30 4867 H 469.29 -5.37431 2.89828 0
M  V30 4868 H 470.704 -3.67228 4.40246 0
M  V30 4869 H 469.101 -3.22932 5.05801 0
M  V30 4870 H 470.171 -1.96047 4.43502 0
M  V30 4871 N 471.514 -1.37532 -0.769588 0
M  V30 4872 C 472.742 -1.36059 -1.55871 0
M  V30 4873 C 473.157 0.053544 -1.88724 0
M  V30 4874 O 472.514 1.01591 -1.5161 0
M  V30 4875 C 472.565 -2.20107 -2.86767 0
M  V30 4876 O 472.286 -3.56009 -2.55321 0
M  V30 4877 C 473.787 -2.26636 -3.80987 0
M  V30 4878 H 471.007 -0.465967 -0.482821 0
M  V30 4879 H 473.551 -1.80901 -0.953686 0
M  V30 4880 H 471.706 -1.78768 -3.43687 0
M  V30 4881 H 472.12 -4.0009 -3.39158 0
M  V30 4882 H 473.594 -2.89763 -4.69831 0
M  V30 4883 H 474.071 -1.2754 -4.20274 0
M  V30 4884 H 474.677 -2.68296 -3.29996 0
M  V30 4885 N 472.992 0.995999 -1.22138 0
M  V30 4886 C 474.217 1.77601 -1.0711 0
M  V30 4887 C 474.642 1.84339 0.374264 0
M  V30 4888 O 474 1.29359 1.27028 0
M  V30 4889 C 474.048 3.18897 -1.68336 0
M  V30 4890 O 473.152 4.01663 -0.934928 0
M  V30 4891 H 472.493 0.547011 -0.376397 0
M  V30 4892 H 475.023 1.25137 -1.6187 0
M  V30 4893 H 475.033 3.69539 -1.72931 0
M  V30 4894 H 473.708 3.13308 -2.73516 0
M  V30 4895 H 472.285 3.60204 -0.964751 0
M  V30 4896 N 474.47 1.03057 1.19235 0
M  V30 4897 C 475.695 0.74757 1.93458 0
M  V30 4898 C 476.12 -0.687648 1.7508 0
M  V30 4899 O 475.478 -1.47499 1.05422 0
M  V30 4900 C 475.526 1.10604 3.43219 0
M  V30 4901 O 474.63 0.225671 4.11782 0
M  V30 4902 H 473.971 0.276047 0.603899 0
M  V30 4903 H 476.501 1.3777 1.51263 0
M  V30 4904 H 476.511 1.06366 3.93891 0
M  V30 4905 H 475.186 2.15165 3.55917 0
M  V30 4906 H 473.763 0.326795 3.71465 0
M  V30 4907 N 475.948 -1.35272 0.808662 0
M  V30 4908 C 477.197 -1.97963 0.386483 0
M  V30 4909 C 477.51 -1.64866 -1.05255 0
M  V30 4910 O 478.716 -2.20937 -1.57794 0
M  V30 4911 C 477.172 -3.54162 0.640096 0
M  V30 4912 C 476.78 -3.96166 2.0918 0
M  V30 4913 C 478.524 -4.23553 0.283376 0
M  V30 4914 C 476.431 -5.4522 2.29106 0
M  V30 4915 H 475.361 -0.740742 0.140774 0
M  V30 4916 H 478.012 -1.5431 0.993012 0
M  V30 4917 H 476.394 -3.95983 -0.0364117 0
M  V30 4918 H 477.568 -3.65491 2.80629 0
M  V30 4919 H 475.883 -3.3967 2.40859 0
M  V30 4920 H 478.48 -5.33124 0.410273 0
M  V30 4921 H 478.823 -4.09105 -0.770659 0
M  V30 4922 H 479.356 -3.8716 0.913884 0
M  V30 4923 H 476.095 -5.64638 3.32962 0
M  V30 4924 H 475.615 -5.77457 1.62184 0
M  V30 4925 H 477.294 -6.1171 2.1076 0
M  V30 4926 N 477.426 -0.562348 -1.47226 0
M  V30 4927 C 478.654 -0.0452275 -2.06851 0
M  V30 4928 C 479.069 1.25078 -1.41424 0
M  V30 4929 O 478.426 1.75156 -0.512513 0
M  V30 4930 C 478.477 0.148674 -3.61194 0
M  V30 4931 O 478.198 -1.09602 -4.24169 0
M  V30 4932 C 479.699 0.702488 -4.37699 0
M  V30 4933 H 476.919 -0.0481775 -0.669268 0
M  V30 4934 H 479.463 -0.777223 -1.89155 0
M  V30 4935 H 477.618 0.830817 -3.78386 0
M  V30 4936 H 478.032 -0.896982 -5.16773 0
M  V30 4937 H 479.506 0.78743 -5.46355 0
M  V30 4938 H 479.983 1.71493 -4.04335 0
M  V30 4939 H 480.589 0.0558772 -4.25263 0
M  V30 4940 N 478.904 1.54736 -0.299062 0
M  V30 4941 C 480.15 2.01114 0.304123 0
M  V30 4942 C 480.505 1.18376 1.51674 0
M  V30 4943 O 479.798 0.251635 1.8994 0
M  V30 4944 C 479.992 3.50199 0.713835 0
M  V30 4945 C 479.821 4.47366 -0.457531 0
M  V30 4946 C 478.591 4.9631 -0.948933 0
M  V30 4947 C 480.789 4.9755 -1.30186 0
M  V30 4948 N 478.771 5.77327 -2.08726 0
M  V30 4949 C 480.142 5.7625 -2.28771 0
M  V30 4950 C 482.197 4.79739 -1.33246 0
M  V30 4951 C 480.9 6.39036 -3.3019 0
M  V30 4952 C 482.926 5.43343 -2.33521 0
M  V30 4953 C 482.288 6.21874 -3.30836 0
M  V30 4954 H 478.387 0.778318 0.0757992 0
M  V30 4955 H 480.971 1.89925 -0.428536 0
M  V30 4956 H 479.142 3.61681 1.41567 0
M  V30 4957 H 480.874 3.83374 1.29639 0
M  V30 4958 H 477.629 4.7069 -0.52423 0
M  V30 4959 H 478.053 6.22521 -2.66077 0
M  V30 4960 H 482.695 4.18609 -0.59383 0
M  V30 4961 H 480.413 6.99302 -4.04973 0
M  V30 4962 H 483.999 5.31492 -2.3666 0
M  V30 4963 H 482.879 6.70217 -4.07159 0
M  V30 4964 N 480.382 0.0267497 1.57577 0
M  V30 4965 C 481.628 -0.653371 1.91987 0
M  V30 4966 C 481.961 -1.71915 0.903263 0
M  V30 4967 O 481.236 -1.94358 -0.0743387 0
M  V30 4968 C 481.519 -1.272 3.36886 0
M  V30 4969 C 481.372 -0.215938 4.49281 0
M  V30 4970 C 482.691 -2.19069 3.81703 0
M  V30 4971 H 479.81 -0.236047 0.698177 0
M  V30 4972 H 482.452 0.0835236 1.89816 0
M  V30 4973 H 480.602 -1.90005 3.38866 0
M  V30 4974 H 482.274 0.41449 4.59434 0
M  V30 4975 H 480.517 0.458855 4.31366 0
M  V30 4976 H 481.188 -0.688347 5.47691 0
M  V30 4977 H 483.664 -1.66253 3.81444 0
M  V30 4978 H 482.54 -2.59307 4.83788 0
M  V30 4979 H 482.801 -3.08087 3.17072 0
M  V30 4980 N 481.861 -1.55662 -0.24637 0
M  V30 4981 C 482.808 -1.90361 -1.30504 0
M  V30 4982 C 483.778 -0.757905 -1.47801 0
M  V30 4983 O 484.963 -1.01161 -1.61775 0
M  V30 4984 C 482.103 -2.2042 -2.65535 0
M  V30 4985 C 481.216 -3.47799 -2.56242 0
M  V30 4986 C 480.351 -3.67426 -3.8363 0
M  V30 4987 C 479.39 -4.88403 -3.68956 0
M  V30 4988 N 478.527 -5.04548 -4.88237 0
M  V30 4989 H 483.367 -2.80645 -1.00213 0
M  V30 4990 H 480.904 -1.38924 -0.483577 0
M  V30 4991 H 482.862 -2.35853 -3.44135 0
M  V30 4992 H 481.492 -1.3334 -2.93973 0
M  V30 4993 H 480.544 -3.40694 -1.69208 0
M  V30 4994 H 481.856 -4.36544 -2.4131 0
M  V30 4995 H 481.01 -3.82821 -4.70673 0
M  V30 4996 H 479.749 -2.76914 -4.01459 0
M  V30 4997 H 478.754 -4.72984 -2.80296 0
M  V30 4998 H 479.979 -5.80375 -3.52621 0
M  V30 4999 H 477.925 -4.16974 -5.06427 0
M  V30 5000 H 477.842 -5.87384 -4.75937 0
M  V30 5001 H 479.11 -5.24355 -5.76777 0
M  V30 5002 N 483.339 0.512053 -1.4905 0
M  V30 5003 C 484.271 1.63121 -1.6101 0
M  V30 5004 C 485.284 1.55145 -0.493352 0
M  V30 5005 O 486.473 1.61278 -0.764955 0
M  V30 5006 C 483.573 3.01863 -1.54052 0
M  V30 5007 C 482.746 3.35138 -2.81072 0
M  V30 5008 C 481.805 4.5324 -2.67319 0
M  V30 5009 O 480.831 4.55571 -3.41238 0
M  V30 5010 N 482.033 5.52495 -1.78127 0
M  V30 5011 H 484.798 1.53292 -2.5753 0
M  V30 5012 H 482.359 0.699706 -1.45999 0
M  V30 5013 H 484.351 3.78774 -1.42521 0
M  V30 5014 H 482.921 3.05675 -0.654345 0
M  V30 5015 H 482.141 2.4723 -3.07036 0
M  V30 5016 H 483.429 3.54162 -3.65304 0
M  V30 5017 H 482.827 5.53403 -1.17308 0
M  V30 5018 H 481.384 6.28553 -1.72525 0
M  V30 5019 N 484.817 1.37938 0.762283 0
M  V30 5020 C 485.78 1.34279 1.85747 0
M  V30 5021 C 486.78 0.244969 1.58923 0
M  V30 5022 O 487.97 0.501365 1.66829 0
M  V30 5023 C 485.102 1.08833 3.23061 0
M  V30 5024 H 486.295 2.31705 1.90401 0
M  V30 5025 H 483.848 1.23105 0.963057 0
M  V30 5026 H 484.583 0.119767 3.24079 0
M  V30 5027 H 484.368 1.88306 3.43923 0
M  V30 5028 H 485.858 1.08946 4.03138 0
M  V30 5029 N 486.295 -0.989507 1.22664 0
M  V30 5030 C 487.205 -2.11449 1.01619 0
M  V30 5031 C 488.221 -1.73962 -0.036545 0
M  V30 5032 O 489.397 -2.00788 0.156924 0
M  V30 5033 C 486.462 -3.41465 0.600204 0
M  V30 5034 C 485.523 -3.93033 1.72695 0
M  V30 5035 C 484.756 -5.16844 1.33071 0
M  V30 5036 O 484.979 -5.7001 0.210975 0
M  V30 5037 O 483.913 -5.6225 2.14845 0
M  V30 5038 H 487.739 -2.32088 1.9588 0
M  V30 5039 H 485.324 -1.09823 1.01289 0
M  V30 5040 H 487.206 -4.19695 0.37873 0
M  V30 5041 H 485.881 -3.22178 -0.313511 0
M  V30 5042 H 484.788 -3.15961 2.00298 0
M  V30 5043 H 486.121 -4.16758 2.61865 0
M  V30 5044 N 487.773 -1.03688 -1.18687 0
M  V30 5045 C 489.189 -0.755413 -1.4059 0
M  V30 5046 C 489.389 0.656659 -1.905 0
M  V30 5047 O 488.445 1.42144 -2.08689 0
M  V30 5048 C 489.758 -1.7983 -2.41001 0
M  V30 5049 C 491.306 -1.81877 -2.54735 0
M  V30 5050 C 491.781 -2.85148 -3.58406 0
M  V30 5051 N 493.272 -2.84015 -3.6591 0
M  V30 5052 C 494.007 -3.60573 -4.45841 0
M  V30 5053 N 493.503 -4.46871 -5.29413 0
M  V30 5054 N 495.296 -3.49079 -4.40568 0
M  V30 5055 H 487.447 -1.94818 -0.846148 0
M  V30 5056 H 489.71 -0.842727 -0.434184 0
M  V30 5057 H 489.416 -2.81097 -2.1137 0
M  V30 5058 H 489.29 -1.62727 -3.40294 0
M  V30 5059 H 491.677 -0.812836 -2.83685 0
M  V30 5060 H 491.758 -2.03057 -1.55568 0
M  V30 5061 H 491.402 -3.85918 -3.30197 0
M  V30 5062 H 491.332 -2.61224 -4.57241 0
M  V30 5063 H 493.823 -2.21431 -3.0623 0
M  V30 5064 H 494.136 -5.02007 -5.87545 0
M  V30 5065 H 492.481 -4.5094 -5.28846 0
M  V30 5066 H 495.672 -2.81066 -3.74325 0
M  V30 5067 H 495.845 -4.08994 -5.02621 0
M  V30 5068 N 489.251 1.34841 -0.815825 0
M  V30 5069 C 490.662 1.80937 -0.46029 0
M  V30 5070 C 491.013 1.67685 1.01863 0
M  V30 5071 O 490.138 1.21277 1.79223 0
M  V30 5072 C 490.733 3.28509 -0.828708 0
M  V30 5073 C 489.292 3.72712 -0.525644 0
M  V30 5074 C 488.439 2.56676 -1.04941 0
M  V30 5075 H 491.39 1.22688 -1.00664 0
M  V30 5076 H 491.411 3.80279 -0.129757 0
M  V30 5077 H 490.923 3.38122 -1.90513 0
M  V30 5078 H 489.024 3.68642 0.541666 0
M  V30 5079 H 489.137 4.67119 -1.06474 0
M  V30 5080 H 487.501 2.50302 -0.471286 0
M  V30 5081 H 488.284 2.69063 -2.13214 0
M  V30 5082 N 490.729 0.570148 1.46925 0
M  V30 5083 C 491.692 -0.159933 2.28641 0
M  V30 5084 C 492.692 -0.830638 1.37685 0
M  V30 5085 O 493.882 -0.684516 1.60187 0
M  V30 5086 C 491.014 -1.2354 3.17727 0
M  V30 5087 H 492.207 0.558035 2.94662 0
M  V30 5088 H 489.76 0.327603 1.52828 0
M  V30 5089 H 490.495 -1.98535 2.56426 0
M  V30 5090 H 490.28 -0.759125 3.84681 0
M  V30 5091 H 491.77 -1.74782 3.79264 0
M  V30 5092 N 492.207 -1.54576 0.307264 0
M  V30 5093 C 493.432 -2.05139 -0.305379 0
M  V30 5094 C 493.857 -1.18278 -1.46259 0
M  V30 5095 O 493.215 -0.188243 -1.8032 0
M  V30 5096 C 493.263 -3.53066 -0.733283 0
M  V30 5097 O 492.367 -3.69206 -1.83741 0
M  V30 5098 H 491.708 -0.661444 -0.0582105 0
M  V30 5099 H 494.238 -1.99569 0.450931 0
M  V30 5100 H 494.248 -3.95034 -1.02039 0
M  V30 5101 H 492.923 -4.15746 0.113198 0
M  V30 5102 H 491.5 -3.39143 -1.55037 0
M  V30 5103 N 493.685 -0.035106 -1.57561 0
M  V30 5104 C 494.915 0.651312 -1.96065 0
M  V30 5105 C 495.323 1.6585 -0.910514 0
M  V30 5106 O 494.666 1.83336 0.11552 0
M  V30 5107 C 494.728 1.40897 -3.30739 0
M  V30 5108 C 494.392 0.559436 -4.53563 0
M  V30 5109 C 495.389 -0.16778 -5.19629 0
M  V30 5110 C 493.074 0.495079 -4.99854 0
M  V30 5111 C 495.068 -0.947963 -6.30311 0
M  V30 5112 C 492.755 -0.288804 -6.10417 0
M  V30 5113 C 493.753 -1.00903 -6.75505 0
M  V30 5114 O 493.441 -1.78005 -7.83945 0
M  V30 5115 H 493.173 0.184036 -0.650467 0
M  V30 5116 H 495.727 -0.0929677 -2.05189 0
M  V30 5117 H 493.957 2.19852 -3.18123 0
M  V30 5118 H 495.646 1.98407 -3.54104 0
M  V30 5119 H 496.412 -0.12743 -4.84833 0
M  V30 5120 H 492.291 1.04524 -4.48994 0
M  V30 5121 H 495.835 -1.51064 -6.81047 0
M  V30 5122 H 491.732 -0.33085 -6.44652 0
M  V30 5123 H 492.5 -1.70046 -8.00641 0
M  V30 5124 N 495.163 1.55791 0.238111 0
M  V30 5125 C 496.095 1.87513 1.31802 0
M  V30 5126 C 497.108 0.762053 1.43863 0
M  V30 5127 O 498.297 1.04024 1.45056 0
M  V30 5128 C 495.397 2.05402 2.69561 0
M  V30 5129 C 494.57 3.3632 2.79656 0
M  V30 5130 C 493.629 3.43844 3.98319 0
M  V30 5131 O 492.655 4.16994 3.87433 0
M  V30 5132 N 493.857 2.73777 5.11885 0
M  V30 5133 H 496.622 2.80734 1.04922 0
M  V30 5134 H 494.183 1.56135 0.428196 0
M  V30 5135 H 496.175 2.07769 3.47296 0
M  V30 5136 H 494.745 1.18884 2.89111 0
M  V30 5137 H 493.965 3.46195 1.88528 0
M  V30 5138 H 495.253 4.22594 2.83358 0
M  V30 5139 H 494.651 2.14094 5.23622 0
M  V30 5140 H 493.208 2.81825 5.87723 0
M  V30 5141 N 496.642 -0.504142 1.49319 0
M  V30 5142 C 497.867 -1.28729 1.62615 0
M  V30 5143 C 498.292 -1.85752 0.296309 0
M  V30 5144 O 497.65 -1.65704 -0.735649 0
M  V30 5145 C 497.698 -2.39561 2.69524 0
M  V30 5146 O 496.802 -3.43324 2.28478 0
M  V30 5147 H 496.143 -0.380172 0.544395 0
M  V30 5148 H 498.673 -0.603872 1.95485 0
M  V30 5149 H 498.683 -2.8537 2.91595 0
M  V30 5150 H 497.358 -1.97423 3.66056 0
M  V30 5151 H 495.935 -3.03455 2.16725 0
M  V30 5152 N 498.12 -1.38341 -0.754957 0
M  V30 5153 C 499.366 -1.34672 -1.51628 0
M  V30 5154 C 499.699 0.0636036 -1.94096 0
M  V30 5155 O 498.974 1.0245 -1.6533 0
M  V30 5156 C 499.257 -2.30116 -2.76981 0
M  V30 5157 C 499.11 -3.80003 -2.4066 0
M  V30 5158 C 500.429 -2.23715 -3.78998 0
M  V30 5159 H 497.548 -0.490517 -0.550056 0
M  V30 5160 H 500.19 -1.69178 -0.864807 0
M  V30 5161 H 498.34 -2.00821 -3.3257 0
M  V30 5162 H 500.012 -4.19966 -1.90856 0
M  V30 5163 H 498.255 -3.97751 -1.73137 0
M  V30 5164 H 498.926 -4.42244 -3.30339 0
M  V30 5165 H 501.402 -2.49574 -3.32945 0
M  V30 5166 H 500.278 -2.9261 -4.64403 0
M  V30 5167 H 500.539 -1.23554 -4.24484 0
M  V30 5168 N 499.598 0.982988 -1.23187 0
M  V30 5169 C 500.823 1.76455 -1.08988 0
M  V30 5170 C 501.248 1.84726 0.354691 0
M  V30 5171 O 500.606 1.30699 1.25649 0
M  V30 5172 C 500.654 3.17094 -1.71708 0
M  V30 5173 O 499.758 4.00648 -0.977477 0
M  V30 5174 H 499.099 0.542988 -0.382177 0
M  V30 5175 H 501.629 1.23413 -1.63188 0
M  V30 5176 H 501.639 3.67684 -1.76841 0
M  V30 5177 H 500.314 3.10389 -2.76823 0
M  V30 5178 H 498.891 3.59161 -1.0029 0
M  V30 5179 N 501.076 1.04316 1.18135 0
M  V30 5180 C 502.322 0.749128 1.88457 0
M  V30 5181 C 502.655 -0.72149 1.803 0
M  V30 5182 O 501.93 -1.52676 1.205 0
M  V30 5183 C 502.213 1.21905 3.38838 0
M  V30 5184 C 502.066 2.75195 3.55792 0
M  V30 5185 C 503.385 0.811085 4.32561 0
M  V30 5186 H 500.504 0.273611 0.684329 0
M  V30 5187 H 503.146 1.29561 1.38975 0
M  V30 5188 H 501.296 0.754137 3.8111 0
M  V30 5189 H 502.968 3.29743 3.22595 0
M  V30 5190 H 501.211 3.14899 2.98364 0
M  V30 5191 H 501.882 3.03135 4.61317 0
M  V30 5192 H 504.358 1.21118 3.98082 0
M  V30 5193 H 503.234 1.16761 5.36338 0
M  V30 5194 H 503.495 -0.285596 4.41177 0
M  V30 5195 O 502.593 -1.30005 0.958179 0
M  V30 5196 H 503.284 -1.84399 0.593022 0
M  V30 END ATOM
M  V30 BEGIN BOND
M  V30 END BOND
M  V30 END CTAB
M  END
$$$$
