drugbank_target|P23919 Thymidylate kinase (DB01643; DB03150; DB03195; DB03233; DB03280; DB03666; DB03845; DB04395)
 OpenBabel12092119503D

  0  0  0     0  0            999 V3000
M  V30 BEGIN CTAB
M  V30 COUNTS 3376 3407 0 0 0
M  V30 BEGIN ATOM
M  V30 1 H -0.908 1.98254 -0.117106 0
M  V30 2 N 0 1.576 0 0
M  V30 3 C 0.933 2.03868 1.02534 0
M  V30 4 C 1.911 0.928543 1.3348 0
M  V30 5 O 3.095 1.19667 1.45644 0
M  V30 6 C 0.222 2.43627 2.35294 0
M  V30 7 C -0.732 3.65373 2.2001 0
M  V30 8 S 0.101 5.13292 1.52614 0
M  V30 9 C 1.257 5.56322 2.86805 0
M  V30 10 H 1.49 2.90518 0.631377 0
M  V30 11 H -0.977 1.52953 0.210867 0
M  V30 12 H 0.981 2.67203 3.11629 0
M  V30 13 H -0.358 1.57376 2.7183 0
M  V30 14 H -1.165 3.90944 3.18086 0
M  V30 15 H -1.563 3.418 1.51819 0
M  V30 16 H 0.729 5.58782 3.83104 0
M  V30 17 H 1.672 6.56266 2.65933 0
M  V30 18 H 2.08 4.83886 2.90714 0
M  V30 19 N 1.4781 -0.272755 1.55222 0
M  V30 20 C 2.4411 -1.32041 1.87344 0
M  V30 21 C 3.4411 -1.42342 0.74803 0
M  V30 22 O 4.6311 -1.41488 1.0162 0
M  V30 23 C 1.7631 -2.70173 2.07893 0
M  V30 24 H 2.9561 -1.04789 2.80997 0
M  V30 25 H 0.5091 -0.51083 1.47717 0
M  V30 26 H 1.2441 -3.02605 1.16622 0
M  V30 27 H 1.0291 -2.64082 2.89833 0
M  V30 28 H 2.5191 -3.45869 2.34017 0
M  V30 29 N 2.9562 -1.48159 -0.537278 0
M  V30 30 C 3.9192 -1.61665 -1.62472 0
M  V30 31 C 4.9192 -0.490395 -1.5314 0
M  V30 32 O 6.1092 -0.755998 -1.5694 0
M  V30 33 C 3.2412 -1.57997 -3.02076 0
M  V30 34 H 4.4342 -2.58621 -1.51839 0
M  V30 35 H 1.9872 -1.36647 -0.758771 0
M  V30 36 H 2.7222 -0.624913 -3.18222 0
M  V30 37 H 2.5072 -2.39755 -3.10258 0
M  V30 38 H 3.9972 -1.70627 -3.81151 0
M  V30 39 N 4.4343 0.785586 -1.36625 0
M  V30 40 C 5.8503 1.08419 -1.17122 0
M  V30 41 C 6.0503 2.015 0.00208491 0
M  V30 42 O 5.1063 2.43551 0.666278 0
M  V30 43 C 6.4193 1.69498 -2.48377 0
M  V30 44 C 7.9673 1.81821 -2.54775 0
M  V30 45 C 8.4423 2.46315 -3.86126 0
M  V30 46 N 9.9333 2.53779 -3.87492 0
M  V30 47 C 10.6683 3.045 -4.85868 0
M  V30 48 N 10.1643 3.55499 -5.94637 0
M  V30 49 N 11.9573 3.03247 -4.73284 0
M  V30 50 H 4.1083 0.167264 -2.1174 0
M  V30 51 H 6.3713 0.13682 -0.938075 0
M  V30 52 H 6.0773 1.08571 -3.34522 0
M  V30 53 H 5.9513 2.6896 -2.64462 0
M  V30 54 H 8.3383 2.41884 -1.69045 0
M  V30 55 H 8.4193 0.811532 -2.42586 0
M  V30 56 H 8.0633 1.86895 -4.72263 0
M  V30 57 H 7.9933 3.47561 -3.95612 0
M  V30 58 H 10.4843 2.17672 -3.08913 0
M  V30 59 H 10.7973 3.92562 -6.65669 0
M  V30 60 H 9.1423 3.5364 -5.98301 0
M  V30 61 H 12.3333 2.62696 -3.87438 0
M  V30 62 H 12.5063 3.42467 -5.50109 0
M  V30 63 N 5.9124 1.20967 1.01018 0
M  V30 64 C 7.3284 0.965905 1.27053 0
M  V30 65 C 7.5284 -0.350785 1.98423 0
M  V30 66 O 6.5844 -1.07773 2.28344 0
M  V30 67 C 7.8974 2.15294 2.09926 0
M  V30 68 C 9.4454 2.19463 2.23171 0
M  V30 69 C 9.9204 3.3767 3.09424 0
M  V30 70 N 11.4114 3.37724 3.17012 0
M  V30 71 C 12.1464 4.25837 3.83993 0
M  V30 72 N 11.6424 5.24138 4.53047 0
M  V30 73 N 13.4354 4.1366 3.80581 0
M  V30 74 H 5.5864 2.0565 0.531194 0
M  V30 75 H 7.8494 0.90024 0.297106 0
M  V30 76 H 7.5554 3.10684 1.64828 0
M  V30 77 H 7.4294 2.13923 3.10672 0
M  V30 78 H 9.8164 1.24632 2.6749 0
M  V30 79 H 9.8974 2.2488 1.21912 0
M  V30 80 H 9.5414 4.32791 2.65808 0
M  V30 81 H 9.4714 3.29491 4.10784 0
M  V30 82 H 11.9624 2.6658 2.6785 0
M  V30 83 H 12.2754 5.87684 5.01844 0
M  V30 84 H 10.6204 5.28068 4.5185 0
M  V30 85 H 13.8114 3.36127 3.25785 0
M  V30 86 H 13.9844 4.82538 4.32505 0
M  V30 87 N 7.3905 -1.2043 1.01659 0
M  V30 88 C 8.6385 -1.89423 0.704522 0
M  V30 89 C 8.9595 -1.79231 -0.768197 0
M  V30 90 O 8.2295 -1.1947 -1.55254 0
M  V30 91 H 6.8095 -0.701178 0.257602 0
M  V30 92 H 9.4715 -1.4626 1.28818 0
M  V30 93 H 8.5675 -2.96052 0.987916 0
M  V30 94 N 8.8686 -0.792821 -1.36206 0
M  V30 95 C 9.8316 -0.199459 -2.2833 0
M  V30 96 C 10.8316 0.605189 -1.48977 0
M  V30 97 O 12.0216 0.425685 -1.68919 0
M  V30 98 C 9.1536 0.723523 -3.33134 0
M  V30 99 H 10.3466 -1.01181 -2.82316 0
M  V30 100 H 7.8996 -0.562485 -1.45828 0
M  V30 101 H 8.6346 1.56008 -2.84309 0
M  V30 102 H 8.4196 0.148436 -3.91819 0
M  V30 103 H 9.9096 1.13344 -4.01924 0
M  V30 104 N 10.3467 1.47872 -0.545128 0
M  V30 105 C 11.2767 2.32661 0.197793 0
M  V30 106 C 12.2577 1.43041 0.920504 0
M  V30 107 O 13.4427 1.71912 0.90333 0
M  V30 108 C 10.5727 3.24569 1.23582 0
M  V30 109 C 9.5267 4.23333 0.630323 0
M  V30 110 C 8.8527 5.0448 1.77211 0
M  V30 111 C 10.1527 5.20704 -0.407974 0
M  V30 112 H 11.8467 2.95024 -0.510045 0
M  V30 113 H 9.3927 1.4187 -0.246731 0
M  V30 114 H 11.3457 3.8272 1.76362 0
M  V30 115 H 10.0697 2.60236 1.97344 0
M  V30 116 H 8.7287 3.6639 0.123922 0
M  V30 117 H 8.3767 4.36561 2.49847 0
M  V30 118 H 8.0767 5.71339 1.37281 0
M  V30 119 H 9.6007 5.65487 2.3034 0
M  V30 120 H 11.0147 5.7329 0.033305 0
M  V30 121 H 9.4117 5.95699 -0.725486 0
M  V30 122 H 10.4817 4.66917 -1.30828 0
M  V30 123 N 11.8248 0.280983 1.55075 0
M  V30 124 C 13.0738 -0.334784 1.98902 0
M  V30 125 C 13.3868 -1.56534 1.17288 0
M  V30 126 O 14.5928 -2.25443 1.51287 0
M  V30 127 C 13.0488 -0.646994 3.54037 0
M  V30 128 C 12.6568 0.564085 4.44435 0
M  V30 129 C 14.4008 -1.22506 4.06439 0
M  V30 130 C 12.3078 0.226137 5.90967 0
M  V30 131 H 11.2378 -0.128866 0.742906 0
M  V30 132 H 13.8888 0.386556 1.79382 0
M  V30 133 H 12.2708 -1.42739 3.6938 0
M  V30 134 H 13.4448 1.34082 4.40861 0
M  V30 135 H 11.7598 1.0594 4.02698 0
M  V30 136 H 14.3568 -1.49182 5.13468 0
M  V30 137 H 14.6998 -2.16085 3.55827 0
M  V30 138 H 15.2328 -0.50682 3.94558 0
M  V30 139 H 11.9718 1.12996 6.45687 0
M  V30 140 H 11.4918 -0.513717 5.97596 0
M  V30 141 H 13.1708 -0.179539 6.46751 0
M  V30 142 N 13.3029 -1.57598 0.00835791 0
M  V30 143 C 14.5489 -1.91211 -0.675732 0
M  V30 144 C 14.8819 -0.883139 -1.72958 0
M  V30 145 O 14.1569 0.097016 -1.94258 0
M  V30 146 C 14.4399 -3.35379 -1.31123 0
M  V30 147 C 14.2929 -4.48999 -0.268356 0
M  V30 148 C 15.6119 -3.7912 -2.23508 0
M  V30 149 H 12.7309 -0.695374 -0.244179 0
M  V30 150 H 15.3729 -1.89901 0.0613655 0
M  V30 151 H 13.5229 -3.36626 -1.93946 0
M  V30 152 H 15.1949 -4.59887 0.360844 0
M  V30 153 H 13.4379 -4.31873 0.408482 0
M  V30 154 H 14.1089 -5.46851 -0.752218 0
M  V30 155 H 16.5849 -3.79477 -1.70693 0
M  V30 156 H 15.4609 -4.80729 -2.64936 0
M  V30 157 H 15.7219 -3.13455 -3.11766 0
M  V30 158 N 14.781 0.264519 -1.55364 0
M  V30 159 C 15.711 1.33121 -1.91836 0
M  V30 160 C 16.692 1.51101 -0.781192 0
M  V30 161 O 17.877 1.64003 -1.04003 0
M  V30 162 C 15.007 2.68921 -2.19769 0
M  V30 163 C 13.961 2.65661 -3.35571 0
M  V30 164 C 13.287 4.05093 -3.49004 0
M  V30 165 C 14.587 2.24187 -4.71739 0
M  V30 166 H 16.281 1.02844 -2.81182 0
M  V30 167 H 13.827 0.493286 -1.35287 0
M  V30 168 H 15.78 3.43663 -2.43872 0
M  V30 169 H 14.504 3.00799 -1.27231 0
M  V30 170 H 13.163 1.93377 -3.1145 0
M  V30 171 H 12.811 4.34206 -2.53917 0
M  V30 172 H 12.511 4.03804 -4.26868 0
M  V30 173 H 14.035 4.81561 -3.75408 0
M  V30 174 H 15.449 2.88654 -4.9533 0
M  V30 175 H 13.846 2.34044 -5.52579 0
M  V30 176 H 14.916 1.19327 -4.69988 0
M  V30 177 N 16.2591 1.48442 0.529413 0
M  V30 178 C 17.1691 1.6569 1.66084 0
M  V30 179 C 18.1851 0.539432 1.65427 0
M  V30 180 O 19.3611 0.810572 1.84368 0
M  V30 181 C 16.4261 1.69315 3.02545 0
M  V30 182 C 15.4871 2.92694 3.14052 0
M  V30 183 C 14.7201 2.96137 4.44003 0
M  V30 184 O 14.9431 2.07973 5.31134 0
M  V30 185 O 13.8771 3.88312 4.59888 0
M  V30 186 H 17.7031 2.61483 1.54469 0
M  V30 187 H 15.2881 1.3185 0.702567 0
M  V30 188 H 17.1701 1.74217 3.83701 0
M  V30 189 H 15.8451 0.766966 3.14483 0
M  V30 190 H 14.7521 2.93324 2.32189 0
M  V30 191 H 16.0851 3.84699 3.0703 0
M  V30 192 N 17.7372 -0.778329 1.37039 0
M  V30 193 C 18.9852 -1.53361 1.31623 0
M  V30 194 C 19.3062 -1.94739 -0.100831 0
M  V30 195 O 18.5762 -1.65797 -1.04347 0
M  V30 196 H 17.1562 -0.568794 0.484234 0
M  V30 197 H 19.8182 -0.926742 1.71457 0
M  V30 198 H 18.9142 -2.43606 1.95096 0
M  V30 199 N 19.2153 -1.21501 -1.00376 0
M  V30 200 C 20.4613 -1.03452 -1.74429 0
M  V30 201 C 20.7943 0.430764 -1.89362 0
M  V30 202 O 20.0693 1.31962 -1.42886 0
M  V30 203 C 20.3523 -1.73375 -3.15615 0
M  V30 204 C 20.2053 -3.27431 -3.08397 0
M  V30 205 C 21.5243 -1.47732 -4.14564 0
M  V30 206 H 18.6433 -0.377226 -0.633143 0
M  V30 207 H 21.2853 -1.49693 -1.17013 0
M  V30 208 H 19.4353 -1.34064 -3.64636 0
M  V30 209 H 21.1073 -3.76119 -2.67081 0
M  V30 210 H 19.3503 -3.5767 -2.45468 0
M  V30 211 H 20.0213 -3.71524 -4.08258 0
M  V30 212 H 22.4973 -1.8186 -3.74254 0
M  V30 213 H 21.3733 -1.99169 -5.11491 0
M  V30 214 H 21.6343 -0.407589 -4.40217 0
M  V30 215 N 20.6934 1.19889 -1.02296 0
M  V30 216 C 21.9704 1.85148 -0.630832 0
M  V30 217 C 22.3504 1.91385 0.890782 0
M  V30 218 O 21.6984 1.42642 1.78509 0
M  V30 219 C 21.9084 3.24442 -1.28602 0
M  V30 220 C 23.2564 4.00663 -1.4055 0
M  V30 221 O 24.2804 3.33818 -1.24273 0
M  V30 222 O 23.1394 5.20387 -1.66913 0
M  V30 223 H 20.2334 0.797613 -0.218499 0
M  V30 224 H 22.7794 1.27427 -1.12074 0
M  V30 225 H 21.5514 3.14704 -2.32545 0
M  V30 226 H 21.1744 3.89802 -0.7836 0
M  V30 227 N 22.1715 0.800033 1.35784 0
M  V30 228 C 23.5875 0.482977 1.52117 0
M  V30 229 C 23.7875 -0.996948 1.75109 0
M  V30 230 O 22.8435 -1.78216 1.78872 0
M  V30 231 C 24.1565 1.32264 2.70049 0
M  V30 232 C 25.7045 1.31742 2.83924 0
M  V30 233 C 26.1795 2.14106 4.04874 0
M  V30 234 N 27.6705 2.11607 4.12039 0
M  V30 235 C 28.4055 2.72099 5.04727 0
M  V30 236 N 27.9015 3.41492 6.02789 0
M  V30 237 N 29.6945 2.61776 4.97423 0
M  V30 238 H 21.8455 1.75856 1.19115 0
M  V30 239 H 24.1085 0.748122 0.582252 0
M  V30 240 H 23.8145 2.37261 2.59616 0
M  V30 241 H 23.6885 0.971303 3.6448 0
M  V30 242 H 26.0755 0.275333 2.93813 0
M  V30 243 H 26.1565 1.70859 1.9037 0
M  V30 244 H 25.8005 3.18351 3.95746 0
M  V30 245 H 25.7305 1.72353 4.97596 0
M  V30 246 H 28.2215 1.61112 3.41835 0
M  V30 247 H 28.5345 3.84953 6.70098 0
M  V30 248 H 26.8795 3.45596 6.02983 0
M  V30 249 H 30.0705 2.07157 4.19766 0
M  V30 250 H 30.2435 3.0921 5.69468 0
M  V30 251 N 23.6496 -1.47581 0.552962 0
M  V30 252 C 24.6126 -2.28439 -0.186605 0
M  V30 253 C 25.6126 -1.36706 -0.84665 0
M  V30 254 O 26.8026 -1.59378 -0.703164 0
M  V30 255 C 23.9346 -3.16264 -1.2724 0
M  V30 256 H 25.1276 -2.95294 0.523609 0
M  V30 257 H 22.6806 -1.532 0.309745 0
M  V30 258 H 23.4156 -2.54091 -2.01514 0
M  V30 259 H 23.2006 -3.83769 -0.803968 0
M  V30 260 H 24.6906 -3.77198 -1.79196 0
M  V30 261 N 25.1277 -0.289203 -1.54924 0
M  V30 262 C 26.3757 0.322879 -1.99504 0
M  V30 263 C 26.6967 1.55313 -1.1791 0
M  V30 264 O 25.9667 1.94001 -0.272097 0
M  V30 265 H 24.5467 0.122291 -0.736922 0
M  V30 266 H 27.2087 -0.397802 -1.90797 0
M  V30 267 H 26.3047 0.603061 -3.06218 0
M  V30 268 N 26.6058 1.57591 -0.0167156 0
M  V30 269 C 27.5528 2.09462 0.969251 0
M  V30 270 C 28.5228 0.99381 1.33089 0
M  V30 271 O 29.7078 1.26726 1.42636 0
M  V30 272 C 26.8478 2.61622 2.25051 0
M  V30 273 C 25.9608 3.85666 1.94642 0
M  V30 274 C 25.0958 4.26266 3.16972 0
M  V30 275 C 24.1348 5.43101 2.82326 0
M  V30 276 N 23.2718 5.78915 3.97243 0
M  V30 277 H 28.1118 2.93428 0.519997 0
M  V30 278 H 25.6488 1.45044 0.245087 0
M  V30 279 H 27.6068 2.89949 2.99976 0
M  V30 280 H 26.2368 1.80505 2.67615 0
M  V30 281 H 25.2888 3.64145 1.10013 0
M  V30 282 H 26.6008 4.70678 1.65117 0
M  V30 283 H 25.7548 4.55963 4.00228 0
M  V30 284 H 24.4938 3.39996 3.49648 0
M  V30 285 H 23.4988 5.1311 1.97479 0
M  V30 286 H 24.7238 6.3106 2.50879 0
M  V30 287 H 22.6698 4.95602 4.29785 0
M  V30 288 H 22.5868 6.58539 3.71299 0
M  V30 289 H 23.8548 6.13212 4.81239 0
M  V30 290 N 28.0839 -0.256276 1.55502 0
M  V30 291 C 29.3089 -1.00766 1.81276 0
M  V30 292 C 29.7339 -1.78524 0.59252 0
M  V30 293 O 29.0919 -1.75413 -0.45827 0
M  V30 294 C 29.1399 -1.92869 3.04687 0
M  V30 295 O 28.2439 -3.019 2.80945 0
M  V30 296 H 27.5849 -0.287224 0.598664 0
M  V30 297 H 30.1149 -0.280109 2.02674 0
M  V30 298 H 30.1249 -2.34511 3.33869 0
M  V30 299 H 28.7999 -1.35689 3.93143 0
M  V30 300 H 27.3769 -2.64454 2.62904 0
M  V30 301 N 29.562 -1.4872 -0.521534 0
M  V30 302 C 30.79 -1.60843 -1.30142 0
M  V30 303 C 31.205 -0.271897 -1.86832 0
M  V30 304 O 30.562 0.739969 -1.66825 0
M  V30 305 C 30.613 -2.66155 -2.4463 0
M  V30 306 O 30.334 -3.94623 -1.90275 0
M  V30 307 C 31.835 -2.88795 -3.36322 0
M  V30 308 H 29.055 -0.542075 -0.395468 0
M  V30 309 H 31.599 -1.94609 -0.628285 0
M  V30 310 H 29.754 -2.35224 -3.07812 0
M  V30 311 H 30.168 -4.52468 -2.65279 0
M  V30 312 H 31.642 -3.66264 -4.12983 0
M  V30 313 H 32.119 -1.97934 -3.9207 0
M  V30 314 H 32.725 -3.21063 -2.78924 0
M  V30 315 N 31.0401 0.771051 -1.3745 0
M  V30 316 C 31.9721 1.89352 -1.29146 0
M  V30 317 C 32.9851 1.61477 -0.207124 0
M  V30 318 O 34.1741 1.72382 -0.463324 0
M  V30 319 C 31.2741 3.24596 -0.974195 0
M  V30 320 C 30.4471 3.80111 -2.16413 0
M  V30 321 C 29.5061 4.93832 -1.81703 0
M  V30 322 O 28.5321 5.09382 -2.54006 0
M  V30 323 N 29.7341 5.75483 -0.761573 0
M  V30 324 H 32.4991 1.96991 -2.25864 0
M  V30 325 H 30.0601 0.950191 -1.31084 0
M  V30 326 H 32.0521 3.98193 -0.722828 0
M  V30 327 H 30.6221 3.12454 -0.0955527 0
M  V30 328 H 29.8421 2.98284 -2.57721 0
M  V30 329 H 31.1301 4.13932 -2.95867 0
M  V30 330 H 30.5281 5.65469 -0.161609 0
M  V30 331 H 29.0851 6.49302 -0.570064 0
M  V30 332 N 32.5182 1.22032 0.997298 0
M  V30 333 C 33.7432 1.06921 1.77715 0
M  V30 334 C 34.1682 -0.376226 1.84299 0
M  V30 335 O 33.5262 -1.27165 1.29223 0
M  V30 336 C 33.5742 1.67996 3.19076 0
M  V30 337 O 32.6782 0.930653 4.01762 0
M  V30 338 H 32.0192 0.375814 0.547412 0
M  V30 339 H 34.5492 1.61737 1.25309 0
M  V30 340 H 34.5592 1.72538 3.69723 0
M  V30 341 H 33.2342 2.73182 3.13599 0
M  V30 342 H 31.8112 0.960917 3.60307 0
M  V30 343 N 33.9963 -1.19345 1.0293 0
M  V30 344 C 35.4123 -1.41069 0.746446 0
M  V30 345 C 35.6123 -1.90078 -0.668776 0
M  V30 346 O 34.6683 -2.0778 -1.4347 0
M  V30 347 C 35.9813 -2.42141 1.78292 0
M  V30 348 C 37.5293 -2.55887 1.80252 0
M  V30 349 C 38.0043 -3.60214 2.8286 0
M  V30 350 N 39.4953 -3.67711 2.81679 0
M  V30 351 C 40.2303 -4.48128 3.57727 0
M  V30 352 N 39.7263 -5.32248 4.43491 0
M  V30 353 N 41.5193 -4.42782 3.46267 0
M  V30 354 H 33.6703 -0.858536 1.94275 0
M  V30 355 H 35.9333 -0.439541 0.839945 0
M  V30 356 H 35.6393 -2.13155 2.79746 0
M  V30 357 H 35.5133 -3.41323 1.60557 0
M  V30 358 H 37.9003 -2.84196 0.794757 0
M  V30 359 H 37.9813 -1.56858 2.02062 0
M  V30 360 H 37.6253 -3.32647 3.83807 0
M  V30 361 H 37.5553 -4.58895 2.58307 0
M  V30 362 H 40.0463 -3.07634 2.19476 0
M  V30 363 H 40.3593 -5.90729 4.98256 0
M  V30 364 H 38.7043 -5.31707 4.47564 0
M  V30 365 H 41.8953 -3.76107 2.78677 0
M  V30 366 H 42.0683 -5.05215 4.05785 0
M  V30 367 N 35.4744 -0.807222 -1.35358 0
M  V30 368 C 36.4214 -0.216037 -2.29787 0
M  V30 369 C 37.3914 0.650278 -1.52842 0
M  V30 370 O 38.5764 0.595227 -1.81278 0
M  V30 371 C 35.7164 0.628893 -3.39321 0
M  V30 372 C 34.8294 -0.257927 -4.31229 0
M  V30 373 C 33.9644 0.595069 -5.27856 0
M  V30 374 C 33.0034 -0.292111 -6.11403 0
M  V30 375 N 32.1404 0.520895 -7.00165 0
M  V30 376 H 36.9804 -1.02671 -2.79755 0
M  V30 377 H 34.5174 -0.517839 -1.37684 0
M  V30 378 H 36.4754 1.13393 -4.01494 0
M  V30 379 H 35.1054 1.40482 -2.90628 0
M  V30 380 H 34.1574 -0.881076 -3.70056 0
M  V30 381 H 35.4694 -0.940759 -4.89848 0
M  V30 382 H 34.6234 1.16522 -5.95405 0
M  V30 383 H 33.3624 1.31146 -4.69736 0
M  V30 384 H 32.3674 -0.874525 -5.428 0
M  V30 385 H 33.5924 -1.00638 -6.71602 0
M  V30 386 H 31.5384 1.22125 -6.44532 0
M  V30 387 H 31.4554 -0.103877 -7.55929 0
M  V30 388 H 32.7234 1.0743 -7.72062 0
M  V30 389 N 36.9525 1.47285 -0.560781 0
M  V30 390 C 37.8825 2.32857 0.173105 0
M  V30 391 C 38.8635 1.44009 0.905281 0
M  V30 392 O 40.0485 1.7286 0.885046 0
M  V30 393 C 37.1785 3.25861 1.20133 0
M  V30 394 C 36.1325 4.23978 0.585388 0
M  V30 395 C 35.4585 5.06332 1.7185 0
M  V30 396 C 36.7585 5.20242 -0.463178 0
M  V30 397 H 38.4525 2.94466 -0.541307 0
M  V30 398 H 35.9985 1.41601 -0.261764 0
M  V30 399 H 37.9515 3.84569 1.72293 0
M  V30 400 H 36.6755 2.62315 1.94573 0
M  V30 401 H 35.3345 3.66501 0.085054 0
M  V30 402 H 34.9825 4.39186 2.45203 0
M  V30 403 H 34.6825 5.72762 1.31213 0
M  V30 404 H 36.2065 5.67899 2.24329 0
M  V30 405 H 37.6205 5.73293 -0.027502 0
M  V30 406 H 36.0175 5.94896 -0.788627 0
M  V30 407 H 37.0875 4.65504 -1.35773 0
M  V30 408 N 38.4306 0.297415 1.54768 0
M  V30 409 C 39.6766 -0.313376 2.00364 0
M  V30 410 C 40.0096 -1.53815 1.18553 0
M  V30 411 O 39.2846 -1.92739 0.261103 0
M  V30 412 C 39.5676 -0.673525 3.53745 0
M  V30 413 C 39.4206 0.560133 4.46299 0
M  V30 414 C 40.7396 -1.50143 4.13697 0
M  V30 415 H 37.8586 -0.112428 0.728374 0
M  V30 416 H 40.5006 0.4088 1.8555 0
M  V30 417 H 38.6506 -1.28881 3.665 0
M  V30 418 H 40.3226 1.19863 4.45455 0
M  V30 419 H 38.5656 1.19405 4.17043 0
M  V30 420 H 39.2366 0.26405 5.51368 0
M  V30 421 H 41.7126 -0.981588 4.04356 0
M  V30 422 H 40.5886 -1.72221 5.21182 0
M  V30 423 H 40.8496 -2.48952 3.65343 0
M  V30 424 N 39.9087 -1.5758 0.0250728 0
M  V30 425 C 40.8187 -2.1343 -0.973905 0
M  V30 426 C 41.8347 -1.08556 -1.35984 0
M  V30 427 O 43.0107 -1.40592 -1.44207 0
M  V30 428 C 40.0757 -2.64703 -2.23904 0
M  V30 429 C 39.1367 -3.84276 -1.91391 0
M  V30 430 C 38.3697 -4.33095 -3.11873 0
M  V30 431 O 38.5927 -3.81107 -4.24398 0
M  V30 432 O 37.5267 -5.24984 -2.94406 0
M  V30 433 H 41.3527 -2.99057 -0.529036 0
M  V30 434 H 38.9377 -1.48118 -0.195288 0
M  V30 435 H 40.8197 -2.97769 -2.98181 0
M  V30 436 H 39.4947 -1.82161 -2.6758 0
M  V30 437 H 38.4017 -3.56143 -1.14511 0
M  V30 438 H 39.7347 -4.67968 -1.52534 0
M  V30 439 N 41.3868 0.248026 -1.55636 0
M  V30 440 C 42.3498 1.29044 -1.89421 0
M  V30 441 C 43.3498 1.41134 -0.770581 0
M  V30 442 O 44.5398 1.39854 -1.03858 0
M  V30 443 C 41.6718 2.66831 -2.12165 0
M  V30 444 H 42.8648 1.00305 -2.82629 0
M  V30 445 H 40.4178 0.487265 -1.48511 0
M  V30 446 H 41.1528 3.00711 -1.21422 0
M  V30 447 H 40.9378 2.59438 -2.93997 0
M  V30 448 H 42.4278 3.42103 -2.3949 0
M  V30 449 N 42.8649 1.48995 0.513639 0
M  V30 450 C 43.7949 1.67636 1.62544 0
M  V30 451 C 44.7759 0.525087 1.61793 0
M  V30 452 O 45.9609 0.759502 1.78732 0
M  V30 453 C 43.0909 1.73114 3.01079 0
M  V30 454 C 42.0449 2.87905 3.16693 0
M  V30 455 C 41.3709 2.78486 4.56453 0
M  V30 456 C 42.6709 4.29005 2.97913 0
M  V30 457 H 44.3649 2.60716 1.47198 0
M  V30 458 H 41.9109 1.25465 0.706714 0
M  V30 459 H 43.8639 1.84742 3.78746 0
M  V30 460 H 42.5879 0.766241 3.17484 0
M  V30 461 H 41.2469 2.75859 2.41448 0
M  V30 462 H 40.8949 1.7993 4.69717 0
M  V30 463 H 40.5949 3.55523 4.67843 0
M  V30 464 H 42.1189 2.92104 5.36197 0
M  V30 465 H 43.5329 4.41798 3.65359 0
M  V30 466 H 41.9299 5.07166 3.20785 0
M  V30 467 H 42.9999 4.44329 1.94165 0
M  V30 468 N 44.343 -0.763751 1.37857 0
M  V30 469 C 45.583 -1.53551 1.34913 0
M  V30 470 C 45.947 -1.91895 -0.0635882 0
M  V30 471 O 47.148 -2.67916 -0.217825 0
M  V30 472 C 45.419 -2.76126 2.26912 0
M  V30 473 S 46.978 -3.66105 2.41893 0
M  V30 474 H 43.796 -0.52559 0.478828 0
M  V30 475 H 46.398 -0.897435 1.73685 0
M  V30 476 H 45.102 -2.4605 3.28463 0
M  V30 477 H 44.633 -3.44887 1.89253 0
M  V30 478 H 46.648 -4.68473 1.63545 0
M  V30 479 N 45.8211 -1.22559 -0.990812 0
M  V30 480 C 46.7841 -0.998863 -2.0629 0
M  V30 481 C 47.7841 0.0354834 -1.60761 0
M  V30 482 O 48.9741 -0.203231 -1.7301 0
M  V30 483 C 46.1061 -0.509203 -3.37076 0
M  V30 484 H 47.2991 -1.95014 -2.27837 0
M  V30 485 H 44.8521 -1.04456 -1.16269 0
M  V30 486 H 45.5871 0.446335 -3.21214 0
M  V30 487 H 45.3721 -1.25547 -3.71457 0
M  V30 488 H 46.8621 -0.370888 -4.1595 0
M  V30 489 N 47.2992 1.18797 -1.03562 0
M  V30 490 C 48.2622 2.20464 -0.626769 0
M  V30 491 C 49.2622 1.57721 0.313173 0
M  V30 492 O 50.4522 1.73917 0.0992615 0
M  V30 493 C 47.5842 3.40802 0.0818498 0
M  V30 494 H 48.7772 2.58149 -1.5264 0
M  V30 495 H 46.3302 1.32593 -0.827578 0
M  V30 496 H 47.0652 3.08642 0.995518 0
M  V30 497 H 46.8502 3.8758 -0.593652 0
M  V30 498 H 48.3402 4.16092 0.354584 0
M  V30 499 N 48.7773 0.814389 1.34928 0
M  V30 500 C 50.0253 0.397636 1.9815 0
M  V30 501 C 50.3463 -1.04069 1.64908 0
M  V30 502 O 49.6163 -1.72121 0.93548 0
M  V30 503 H 48.1963 0.144043 0.732981 0
M  V30 504 H 50.8583 1.04195 1.6471 0
M  V30 505 H 49.9543 0.509688 3.0791 0
M  V30 506 N 50.2554 -1.46986 0.568584 0
M  V30 507 C 51.2054 -2.27179 -0.193339 0
M  V30 508 C 52.1894 -1.35035 -0.874895 0
M  V30 509 O 53.3814 -1.5931 -0.771322 0
M  V30 510 C 50.5104 -3.21063 -1.21546 0
M  V30 511 C 49.5964 -4.2069 -0.536738 0
M  V30 512 N 49.9874 -5.04218 0.399673 0
M  V30 513 C 48.2854 -4.38961 -0.789254 0
M  V30 514 C 48.9864 -5.76242 0.795017 0
M  V30 515 N 47.9624 -5.434 0.1473 0
M  V30 516 H 51.7644 -2.89146 0.526458 0
M  V30 517 H 49.2784 -1.57664 0.389342 0
M  V30 518 H 51.2754 -3.77209 -1.77536 0
M  V30 519 H 49.9354 -2.60654 -1.93623 0
M  V30 520 H 50.9464 -5.12077 0.774454 0
M  V30 521 H 47.6234 -3.89713 -1.49767 0
M  V30 522 H 49.0134 -6.53417 1.56513 0
M  V30 523 N 51.7335 -0.305618 -1.54608 0
M  V30 524 C 53.1495 0.0476228 -1.59529 0
M  V30 525 C 53.3495 1.52025 -1.32252 0
M  V30 526 O 52.4055 2.27368 -1.09818 0
M  V30 527 C 53.7185 -0.354471 -2.98603 0
M  V30 528 C 55.2665 -0.303622 -3.11524 0
M  V30 529 C 55.7415 -0.680608 -4.52915 0
M  V30 530 N 57.2325 -0.63332 -4.5885 0
M  V30 531 C 57.9675 -0.897432 -5.66334 0
M  V30 532 N 57.4635 -1.22775 -6.81834 0
M  V30 533 N 59.2565 -0.824186 -5.56025 0
M  V30 534 H 51.4075 -1.2653 -1.70599 0
M  V30 535 H 53.6705 -0.513291 -0.797017 0
M  V30 536 H 53.3765 -1.3798 -3.23503 0
M  V30 537 H 53.2505 0.289568 -3.76087 0
M  V30 538 H 55.6375 0.712472 -2.8637 0
M  V30 539 H 55.7185 -0.982348 -2.36185 0
M  V30 540 H 55.3625 -1.69453 -4.78799 0
M  V30 541 H 55.2925 0.0202385 -5.26596 0
M  V30 542 H 57.7835 -0.389138 -3.75891 0
M  V30 543 H 58.0965 -1.41513 -7.59733 0
M  V30 544 H 56.4415 -1.26583 -6.83375 0
M  V30 545 H 59.6325 -0.565748 -4.64669 0
M  V30 546 H 59.8055 -1.03338 -6.39707 0
M  V30 547 N 53.2116 1.57565 -0.0334293 0
M  V30 548 C 54.1746 2.09393 0.932048 0
M  V30 549 C 55.1746 1.00986 1.25134 0
M  V30 550 O 56.3646 1.27129 1.19096 0
M  V30 551 C 53.4966 2.56338 2.2473 0
M  V30 552 H 54.6896 2.95984 0.483085 0
M  V30 553 H 52.2426 1.54819 0.21468 0
M  V30 554 H 52.9776 1.7309 2.74245 0
M  V30 555 H 52.7626 3.35542 2.02865 0
M  V30 556 H 54.2526 2.96646 2.93923 0
M  V30 557 N 54.6897 -0.239769 1.55765 0
M  V30 558 C 55.5997 -1.31831 1.94056 0
M  V30 559 C 56.6157 -1.52275 0.841925 0
M  V30 560 O 57.7917 -1.65759 1.14394 0
M  V30 561 C 54.8567 -2.65156 2.23368 0
M  V30 562 C 53.9177 -2.53173 3.46701 0
M  V30 563 C 53.1507 -3.8014 3.74606 0
M  V30 564 O 53.3737 -4.82343 3.04469 0
M  V30 565 O 52.3077 -3.78344 4.68123 0
M  V30 566 H 56.1337 -1.02347 2.85935 0
M  V30 567 H 53.7187 -0.441123 1.42739 0
M  V30 568 H 55.6007 -3.43929 2.43497 0
M  V30 569 H 54.2757 -2.94358 1.34666 0
M  V30 570 H 53.1827 -1.72662 3.31871 0
M  V30 571 H 54.5157 -2.28915 4.35728 0
M  V30 572 N 56.1678 -1.49265 -0.50573 0
M  V30 573 C 57.0978 -1.68495 -1.61653 0
M  V30 574 C 58.0788 -0.53366 -1.61512 0
M  V30 575 O 59.2638 -0.76897 -1.78327 0
M  V30 576 C 56.3938 -1.74709 -3.00157 0
M  V30 577 C 55.3478 -2.89581 -3.15162 0
M  V30 578 C 54.6738 -2.80903 -4.5497 0
M  V30 579 C 55.9738 -4.30578 -2.95634 0
M  V30 580 H 57.6678 -2.61493 -1.45814 0
M  V30 581 H 55.2138 -1.25838 -0.70005 0
M  V30 582 H 57.1668 -1.86748 -3.77761 0
M  V30 583 H 55.8908 -0.783067 -3.17074 0
M  V30 584 H 54.5498 -2.77136 -2.39982 0
M  V30 585 H 54.1978 -1.82419 -4.68756 0
M  V30 586 H 53.8978 -3.57999 -4.65951 0
M  V30 587 H 55.4218 -2.94944 -5.34641 0
M  V30 588 H 56.8358 -4.4373 -3.63011 0
M  V30 589 H 55.2328 -5.0886 -3.18091 0
M  V30 590 H 56.3028 -4.45352 -1.91806 0
M  V30 591 N 57.6459 0.756429 -1.3826 0
M  V30 592 C 58.5759 1.88374 -1.37976 0
M  V30 593 C 59.5569 1.68311 -0.246082 0
M  V30 594 O 60.7419 1.88944 -0.44874 0
M  V30 595 C 57.8719 3.25864 -1.20125 0
M  V30 596 C 56.8259 3.60523 -2.30666 0
M  V30 597 C 56.1519 4.9672 -1.97923 0
M  V30 598 C 57.4519 3.65692 -3.72916 0
M  V30 599 H 59.1459 1.88869 -2.32312 0
M  V30 600 H 56.6919 0.907272 -1.11824 0
M  V30 601 H 58.6449 4.0438 -1.18552 0
M  V30 602 H 57.3689 3.25841 -0.222498 0
M  V30 603 H 56.0279 2.84324 -2.3142 0
M  V30 604 H 55.6759 4.93253 -0.985393 0
M  V30 605 H 55.3759 5.20878 -2.71955 0
M  V30 606 H 56.8999 5.77618 -1.97964 0
M  V30 607 H 58.3139 4.34328 -3.74208 0
M  V30 608 H 56.7109 4.01358 -4.4613 0
M  V30 609 H 57.7809 2.65987 -4.05436 0
M  V30 610 N 59.124 1.23083 0.984299 0
M  V30 611 C 60.54 0.992637 1.24975 0
M  V30 612 C 60.74 -0.308618 1.99123 0
M  V30 613 O 59.796 -1.02905 2.30579 0
M  V30 614 C 61.109 2.19698 2.05312 0
M  V30 615 C 62.657 2.24147 2.18465 0
M  V30 616 C 63.132 3.44157 3.02192 0
M  V30 617 N 64.623 3.44372 3.09777 0
M  V30 618 C 65.358 4.33886 3.74874 0
M  V30 619 N 64.854 5.3363 4.41827 0
M  V30 620 N 66.647 4.21639 3.71721 0
M  V30 621 H 58.798 2.06731 0.487453 0
M  V30 622 H 61.061 0.906339 0.277944 0
M  V30 623 H 60.767 3.1411 1.58201 0
M  V30 624 H 60.641 2.20465 3.06064 0
M  V30 625 H 63.028 1.30277 2.64786 0
M  V30 626 H 63.109 2.27415 1.17115 0
M  V30 627 H 62.753 4.38332 2.56568 0
M  V30 628 H 62.683 3.3813 4.03702 0
M  V30 629 H 65.174 2.72201 2.62135 0
M  V30 630 H 65.487 5.98196 4.89266 0
M  V30 631 H 63.832 5.37534 4.40548 0
M  V30 632 H 67.023 3.42962 3.18582 0
M  V30 633 H 67.196 4.91604 4.22173 0
M  V30 634 N 60.6021 -1.18246 1.0419 0
M  V30 635 C 61.8491 -1.88257 0.746017 0
M  V30 636 C 62.1771 -1.80429 -0.726331 0
M  V30 637 O 61.4321 -1.2 -1.54591 0
M  V30 638 C 61.7311 -3.38082 1.15911 0
M  V30 639 C 61.3971 -3.66114 2.63195 0
M  V30 640 C 60.0591 -3.73474 3.03432 0
M  V30 641 C 62.4111 -3.78398 3.5842 0
M  V30 642 C 59.7391 -3.90599 4.37778 0
M  V30 643 C 62.0911 -3.97039 4.92487 0
M  V30 644 C 60.7551 -4.02635 5.32392 0
M  V30 645 H 60.0251 -0.688883 0.272987 0
M  V30 646 H 62.6721 -1.3995 1.30715 0
M  V30 647 H 60.9771 -3.88377 0.516806 0
M  V30 648 H 62.6741 -3.90596 0.907516 0
M  V30 649 H 59.2641 -3.61003 2.3103 0
M  V30 650 H 63.4481 -3.72042 3.28479 0
M  V30 651 H 58.7041 -3.93175 4.68213 0
M  V30 652 H 62.8781 -4.05486 5.66175 0
M  V30 653 H 60.5051 -4.15657 6.36501 0
M  V30 654 N 62.0802 -0.821533 -1.34494 0
M  V30 655 C 63.4912 -0.467956 -1.8074 0
M  V30 656 C 63.8422 1.01151 -1.68116 0
M  V30 657 O 62.9672 1.78707 -1.22036 0
M  V30 658 C 63.5622 -0.842627 -3.28154 0
M  V30 659 C 62.1212 -0.541439 -3.72485 0
M  V30 660 C 61.2682 -1.06028 -2.56229 0
M  V30 661 H 64.2192 -1.01183 -1.22261 0
M  V30 662 H 64.2402 -0.145876 -3.8022 0
M  V30 663 H 63.7522 -1.91945 -3.37311 0
M  V30 664 H 61.8532 0.526034 -3.68868 0
M  V30 665 H 61.9662 -1.08453 -4.66663 0
M  V30 666 H 60.3302 -0.481892 -2.501 0
M  V30 667 H 61.1132 -2.14352 -2.68157 0
M  V30 668 N 63.5583 1.46682 -0.576371 0
M  V30 669 C 64.4683 2.34032 0.163141 0
M  V30 670 C 65.4843 1.49367 0.892501 0
M  V30 671 O 66.6603 1.82252 0.857106 0
M  V30 672 C 63.7253 3.26435 1.16795 0
M  V30 673 C 62.7863 4.26998 0.443944 0
M  V30 674 C 62.0193 5.14986 1.40088 0
M  V30 675 O 62.2423 5.05785 2.637 0
M  V30 676 O 61.1763 5.94906 0.914917 0
M  V30 677 H 65.0023 2.98607 -0.55388 0
M  V30 678 H 62.5873 1.45554 -0.336821 0
M  V30 679 H 64.4693 3.83459 1.74748 0
M  V30 680 H 63.1443 2.64465 1.86655 0
M  V30 681 H 62.0513 3.7368 -0.177271 0
M  V30 682 H 63.3843 4.91736 -0.213566 0
M  V30 683 N 65.0364 0.313813 1.54444 0
M  V30 684 C 66.4524 -0.0391619 1.59552 0
M  V30 685 C 66.6524 -1.51322 1.33056 0
M  V30 686 O 65.7084 -2.26782 1.11022 0
M  V30 687 C 67.0214 0.370302 2.98411 0
M  V30 688 C 68.5694 0.320139 3.11358 0
M  V30 689 C 69.0444 0.704617 4.52547 0
M  V30 690 N 70.5354 0.657645 4.58508 0
M  V30 691 C 71.2704 0.927453 5.6585 0
M  V30 692 N 70.7664 1.26389 6.81174 0
M  V30 693 N 72.5594 0.853662 5.5558 0
M  V30 694 H 64.7104 1.27433 1.69925 0
M  V30 695 H 66.9734 0.517511 0.794284 0
M  V30 696 H 66.6794 1.39694 3.22767 0
M  V30 697 H 66.5534 -0.269619 3.76235 0
M  V30 698 H 68.9404 -0.697275 2.86744 0
M  V30 699 H 69.0214 0.99486 2.35661 0
M  V30 700 H 68.6654 1.7199 4.77893 0
M  V30 701 H 68.5954 0.00768843 5.26599 0
M  V30 702 H 71.0864 0.409067 3.75679 0
M  V30 703 H 71.3994 1.4554 7.58972 0
M  V30 704 H 69.7444 1.30206 6.82694 0
M  V30 705 H 72.9354 0.590383 4.64362 0
M  V30 706 H 73.1084 1.0673 6.3915 0
M  V30 707 N 66.5145 -1.57545 0.0417849 0
M  V30 708 C 67.7395 -1.97035 -0.647455 0
M  V30 709 C 68.1645 -0.918775 -1.64135 0
M  V30 710 O 67.5225 0.119006 -1.80909 0
M  V30 711 C 67.5705 -3.35609 -1.31905 0
M  V30 712 O 66.6745 -3.3287 -2.43457 0
M  V30 713 H 66.0155 -0.64211 -0.169086 0
M  V30 714 H 68.5455 -2.04318 0.107399 0
M  V30 715 H 68.5555 -3.72126 -1.67291 0
M  V30 716 H 67.2305 -4.11685 -0.590586 0
M  V30 717 H 65.8075 -3.08087 -2.10088 0
M  V30 718 N 67.9926 0.231505 -1.5589 0
M  V30 719 C 69.2206 0.974505 -1.82513 0
M  V30 720 C 69.6356 1.78344 -0.619591 0
M  V30 721 O 68.9926 1.77792 0.411848 0
M  V30 722 C 69.0436 1.90007 -3.07538 0
M  V30 723 O 68.7646 1.12385 -4.2344 0
M  V30 724 C 70.2656 2.75779 -3.47075 0
M  V30 725 H 67.4856 0.286065 -0.606966 0
M  V30 726 H 70.0296 0.249739 -2.02969 0
M  V30 727 H 68.1846 2.57891 -2.89086 0
M  V30 728 H 68.5986 1.75125 -4.944 0
M  V30 729 H 70.0726 3.36443 -4.37619 0
M  V30 730 H 70.5496 3.47672 -2.68367 0
M  V30 731 H 71.1556 2.13323 -3.67931 0
M  V30 732 N 69.4707 1.49531 0.497807 0
M  V30 733 C 70.3807 1.69176 1.62532 0
M  V30 734 C 71.3967 0.5744 1.64246 0
M  V30 735 O 72.5727 0.849497 1.82608 0
M  V30 736 C 69.6377 1.75695 2.98885 0
M  V30 737 C 68.6987 2.9929 3.07773 0
M  V30 738 C 67.9317 3.05488 4.37622 0
M  V30 739 O 68.1547 2.19192 5.26603 0
M  V30 740 O 67.0887 3.9798 4.51548 0
M  V30 741 H 70.9147 2.647 1.48887 0
M  V30 742 H 68.4997 1.3331 0.674441 0
M  V30 743 H 70.3817 1.82317 3.79919 0
M  V30 744 H 69.0567 0.8335 3.12785 0
M  V30 745 H 67.9637 2.98183 2.25915 0
M  V30 746 H 69.2967 3.91125 2.98801 0
M  V30 747 N 70.9488 -0.749086 1.3866 0
M  V30 748 C 72.1978 -1.50371 1.3443 0
M  V30 749 C 72.5108 -1.95503 -0.0616397 0
M  V30 750 O 73.7168 -2.70554 -0.226489 0
M  V30 751 C 72.1728 -2.71644 2.36088 0
M  V30 752 C 71.7808 -2.3352 3.82325 0
M  V30 753 C 73.5248 -3.49518 2.40909 0
M  V30 754 C 71.4318 -3.51431 4.75658 0
M  V30 755 H 70.3618 -0.564628 0.499712 0
M  V30 756 H 73.0128 -0.818449 1.64237 0
M  V30 757 H 71.3948 -3.42175 1.9933 0
M  V30 758 H 72.5688 -1.70627 4.28046 0
M  V30 759 H 70.8838 -1.6877 3.80665 0
M  V30 760 H 73.4808 -4.37197 3.07836 0
M  V30 761 H 73.8238 -3.90992 1.42937 0
M  V30 762 H 74.3568 -2.86005 2.76489 0
M  V30 763 H 71.0958 -3.15019 5.74842 0
M  V30 764 H 70.6158 -4.13352 4.34627 0
M  V30 765 H 72.2948 -4.17953 4.93887 0
M  V30 766 N 72.4269 -1.23603 -0.977757 0
M  V30 767 C 73.6749 -1.06759 -1.71601 0
M  V30 768 C 73.9959 0.395929 -1.90938 0
M  V30 769 O 73.2659 1.28356 -1.47992 0
M  V30 770 H 71.8459 -0.392062 -0.635843 0
M  V30 771 H 74.5079 -1.55362 -1.1768 0
M  V30 772 H 73.6039 -1.55763 -2.70452 0
M  V30 773 N 73.905 1.17692 -1.04816 0
M  V30 774 C 74.852 2.21581 -0.645797 0
M  V30 775 C 75.822 1.62367 0.350159 0
M  V30 776 O 77.007 1.89254 0.242433 0
M  V30 777 C 74.147 3.45092 -0.0227568 0
M  V30 778 C 73.26 4.18613 -1.06709 0
M  V30 779 C 72.395 5.29602 -0.411767 0
M  V30 780 C 71.434 5.94904 -1.44067 0
M  V30 781 N 70.571 6.97414 -0.809781 0
M  V30 782 H 75.411 2.55353 -1.5362 0
M  V30 783 H 72.948 1.25438 -0.768364 0
M  V30 784 H 74.906 4.15679 0.35588 0
M  V30 785 H 73.536 3.11917 0.831122 0
M  V30 786 H 72.588 3.46779 -1.5636 0
M  V30 787 H 73.9 4.63293 -1.84827 0
M  V30 788 H 73.054 6.06696 0.0206623 0
M  V30 789 H 71.793 4.86045 0.401438 0
M  V30 790 H 70.798 5.16544 -1.88316 0
M  V30 791 H 72.023 6.40542 -2.25571 0
M  V30 792 H 69.969 6.55998 -0.0170186 0
M  V30 793 H 69.886 7.40386 -1.52856 0
M  V30 794 H 71.154 7.78463 -0.401999 0
M  V30 795 N 75.3831 0.828654 1.34056 0
M  V30 796 C 76.3131 0.269443 2.3194 0
M  V30 797 C 77.2941 -0.617247 1.58506 0
M  V30 798 O 78.4791 -0.542931 1.86456 0
M  V30 799 C 75.6091 -0.564793 3.42677 0
M  V30 800 C 74.5631 0.225241 4.27407 0
M  V30 801 C 73.8891 -0.7321 5.29664 0
M  V30 802 C 75.1891 1.43663 5.02154 0
M  V30 803 H 76.8831 1.08728 2.7896 0
M  V30 804 H 74.4291 0.524283 1.34117 0
M  V30 805 H 76.3821 -0.966233 4.10173 0
M  V30 806 H 75.1061 -1.41574 2.9432 0
M  V30 807 H 73.7651 0.608117 3.61521 0
M  V30 808 H 73.4131 -1.57916 4.77568 0
M  V30 809 H 73.1131 -0.20767 5.87233 0
M  V30 810 H 74.6371 -1.13128 6.00029 0
M  V30 811 H 76.0511 1.1089 5.62473 0
M  V30 812 H 74.4481 1.89711 5.69324 0
M  V30 813 H 75.5181 2.21181 4.31517 0
M  V30 814 N 76.8612 -1.46375 0.584142 0
M  V30 815 C 77.7912 -2.33103 -0.136037 0
M  V30 816 C 78.7722 -1.45431 -0.882255 0
M  V30 817 O 79.9572 -1.74246 -0.857434 0
M  V30 818 C 77.0872 -3.27731 -1.14933 0
M  V30 819 C 76.0412 -4.24855 -0.517862 0
M  V30 820 C 75.3672 -5.09001 -1.63773 0
M  V30 821 C 76.6672 -5.19439 0.545886 0
M  V30 822 H 78.3612 -2.93568 0.588086 0
M  V30 823 H 75.9072 -1.41166 0.284259 0
M  V30 824 H 77.8602 -3.87261 -1.66153 0
M  V30 825 H 76.5842 -2.65377 -1.90375 0
M  V30 826 H 75.2432 -3.6659 -0.0267361 0
M  V30 827 H 74.8912 -4.43031 -2.38185 0
M  V30 828 H 74.5912 -5.74777 -1.22085 0
M  V30 829 H 76.1152 -5.71396 -2.15266 0
M  V30 830 H 77.5292 -5.73177 0.118704 0
M  V30 831 H 75.9262 -5.93566 0.88317 0
M  V30 832 H 76.9962 -4.63285 1.43162 0
M  V30 833 N 78.3393 -0.321999 -1.54275 0
M  V30 834 C 79.5643 0.285791 -2.05422 0
M  V30 835 C 79.9893 1.45124 -1.19669 0
M  V30 836 O 79.3473 1.80132 -0.205441 0
M  V30 837 C 79.3953 0.69956 -3.53749 0
M  V30 838 O 78.4993 1.8021 -3.70942 0
M  V30 839 H 77.8403 0.0518962 -0.661969 0
M  V30 840 H 80.3703 -0.469954 -1.9913 0
M  V30 841 H 80.3803 0.982649 -3.9599 0
M  V30 842 H 79.0553 -0.152864 -4.15619 0
M  V30 843 H 77.6323 1.51794 -3.40607 0
M  V30 844 N 79.8174 1.5752 -0.0501392 0
M  V30 845 C 81.0424 1.97376 0.636997 0
M  V30 846 C 81.4674 0.927466 1.63645 0
M  V30 847 O 80.8254 -0.10941 1.8097 0
M  V30 848 C 80.8734 3.36304 1.30123 0
M  V30 849 O 79.9774 3.34156 2.41689 0
M  V30 850 H 79.3184 0.642998 0.165679 0
M  V30 851 H 81.8484 2.04258 -0.118233 0
M  V30 852 H 81.8584 3.73008 1.65315 0
M  V30 853 H 80.5334 4.11993 0.568746 0
M  V30 854 H 79.1104 3.09196 2.08451 0
M  V30 855 N 81.2955 -0.223234 1.56011 0
M  V30 856 C 82.5255 -0.963413 1.82762 0
M  V30 857 C 82.9335 -1.78516 0.626804 0
M  V30 858 O 82.2765 -1.78974 -0.414014 0
M  V30 859 C 82.3385 -1.93126 3.0322 0
M  V30 860 C 82.0025 -1.2942 4.38291 0
M  V30 861 C 82.9995 -0.684916 5.15369 0
M  V30 862 C 80.6845 -1.30647 4.85012 0
M  V30 863 C 82.6785 -0.0963971 6.37327 0
M  V30 864 C 80.3655 -0.71411 6.06913 0
M  V30 865 C 81.3635 -0.110123 6.82911 0
M  V30 866 O 81.0515 0.47303 8.02507 0
M  V30 867 H 80.7835 -0.288011 0.611576 0
M  V30 868 H 83.3375 -0.244103 2.03944 0
M  V30 869 H 81.5675 -2.68952 2.77852 0
M  V30 870 H 83.2565 -2.53685 3.16857 0
M  V30 871 H 84.0225 -0.667774 4.80381 0
M  V30 872 H 79.9015 -1.76598 4.25833 0
M  V30 873 H 83.4455 0.375657 6.96588 0
M  V30 874 H 79.3425 -0.728659 6.41374 0
M  V30 875 H 80.1105 0.367186 8.17676 0
M  V30 876 N 82.7736 -1.49793 -0.48987 0
M  V30 877 C 83.7036 -1.70201 -1.59856 0
M  V30 878 C 84.6846 -0.55076 -1.60937 0
M  V30 879 O 85.8696 -0.787841 -1.77501 0
M  V30 880 C 82.9996 -1.77882 -2.98287 0
M  V30 881 C 81.9536 -2.92907 -3.12073 0
M  V30 882 C 81.2796 -2.85712 -4.51965 0
M  V30 883 C 82.5796 -4.3369 -2.91051 0
M  V30 884 H 84.2736 -2.63025 -1.43032 0
M  V30 885 H 81.8196 -1.26574 -0.686664 0
M  V30 886 H 83.7726 -1.90744 -3.75759 0
M  V30 887 H 82.4966 -0.816653 -3.16225 0
M  V30 888 H 81.1556 -2.79665 -2.37029 0
M  V30 889 H 80.8036 -1.8738 -4.66795 0
M  V30 890 H 80.5036 -3.62921 -4.62128 0
M  V30 891 H 82.0276 -3.00598 -5.31482 0
M  V30 892 H 83.4416 -4.47555 -3.58284 0
M  V30 893 H 81.8386 -5.12205 -3.12675 0
M  V30 894 H 82.9086 -4.47362 -1.87071 0
M  V30 895 N 84.2517 0.741722 -1.39055 0
M  V30 896 C 85.1837 1.8657 -1.33133 0
M  V30 897 C 86.1967 1.61001 -0.241329 0
M  V30 898 O 87.3857 1.7136 -0.499784 0
M  V30 899 C 84.4857 3.22457 -1.04283 0
M  V30 900 C 83.6587 3.75435 -2.24427 0
M  V30 901 C 82.7177 4.89867 -1.92138 0
M  V30 902 O 81.7437 5.03879 -2.64754 0
M  V30 903 N 82.9457 5.73738 -0.88347 0
M  V30 904 H 85.7107 1.92156 -2.29991 0
M  V30 905 H 83.2717 0.922172 -1.3307 0
M  V30 906 H 85.2637 3.9657 -0.807128 0
M  V30 907 H 83.8337 3.12181 -0.161807 0
M  V30 908 H 83.0537 2.92751 -2.6399 0
M  V30 909 H 84.3417 4.07563 -3.04581 0
M  V30 910 H 83.7397 5.64999 -0.281517 0
M  V30 911 H 82.2967 6.47947 -0.707662 0
M  V30 912 N 85.7298 1.2412 0.971189 0
M  V30 913 C 86.6768 1.0305 2.06517 0
M  V30 914 C 87.6468 -0.0550666 1.66009 0
M  V30 915 O 88.8318 0.0988688 1.90544 0
M  V30 916 C 85.9718 0.637653 3.39158 0
M  V30 917 C 85.0848 1.79633 3.92882 0
M  V30 918 C 84.2198 1.34939 5.13775 0
M  V30 919 C 83.2588 2.47823 5.59687 0
M  V30 920 N 82.3958 2.04022 6.71803 0
M  V30 921 H 87.2358 1.96685 2.23873 0
M  V30 922 H 84.7728 0.979694 1.09729 0
M  V30 923 H 86.7308 0.390931 4.15364 0
M  V30 924 H 85.3608 -0.261693 3.21737 0
M  V30 925 H 84.4128 2.15681 3.13346 0
M  V30 926 H 85.7248 2.64466 4.22918 0
M  V30 927 H 84.8788 1.06134 5.97345 0
M  V30 928 H 83.6178 0.471557 4.85415 0
M  V30 929 H 82.6228 2.77392 4.74693 0
M  V30 930 H 83.8478 3.36158 5.90063 0
M  V30 931 H 81.7938 1.18632 6.45184 0
M  V30 932 H 81.7108 2.82409 7.01271 0
M  V30 933 H 82.9788 1.78347 7.58823 0
M  V30 934 N 87.2079 -1.17134 1.05439 0
M  V30 935 C 88.1549 -2.21235 0.657539 0
M  V30 936 C 89.1249 -1.62551 -0.341543 0
M  V30 937 O 90.3099 -1.89379 -0.232393 0
M  V30 938 C 87.4499 -3.45076 0.0410575 0
M  V30 939 C 86.5629 -4.18042 1.08927 0
M  V30 940 C 85.6979 -5.29376 0.439848 0
M  V30 941 C 84.7369 -5.94132 1.4722 0
M  V30 942 N 83.8739 -6.96975 0.846756 0
M  V30 943 H 88.7139 -2.54534 1.54972 0
M  V30 944 H 86.2509 -1.25028 0.775006 0
M  V30 945 H 88.2089 -4.15862 -0.33383 0
M  V30 946 H 86.8389 -3.12353 -0.814568 0
M  V30 947 H 85.8909 -3.45945 1.58196 0
M  V30 948 H 87.2029 -4.62306 1.87282 0
M  V30 949 H 86.3569 -6.06699 0.0115125 0
M  V30 950 H 85.0959 -4.86251 -0.375656 0
M  V30 951 H 84.1009 -5.15538 1.91052 0
M  V30 952 H 85.3259 -6.39337 2.28965 0
M  V30 953 H 83.2719 -6.5598 0.0518075 0
M  V30 954 H 83.1889 -7.39565 1.5678 0
M  V30 955 H 84.4569 -7.78239 0.443277 0
M  V30 956 N 88.686 -0.835752 -1.33615 0
M  V30 957 C 89.911 -0.442389 -2.02627 0
M  V30 958 C 90.336 0.947735 -1.62479 0
M  V30 959 O 89.694 1.61907 -0.815826 0
M  V30 960 C 89.742 -0.567216 -3.56111 0
M  V30 961 O 88.846 0.407799 -4.10379 0
M  V30 962 H 88.187 -0.180278 -0.639059 0
M  V30 963 H 90.717 -1.12972 -1.70583 0
M  V30 964 H 90.727 -0.447708 -4.05536 0
M  V30 965 H 89.402 -1.58103 -3.84677 0
M  V30 966 H 87.979 0.246107 -3.72087 0
M  V30 967 N 90.1641 1.46063 -0.591896 0
M  V30 968 C 91.4411 1.95595 -0.0137119 0
M  V30 969 C 91.8211 1.5345 1.4497 0
M  V30 970 O 91.1691 0.789543 2.14426 0
M  V30 971 C 91.3791 3.48453 -0.195373 0
M  V30 972 C 92.7271 4.24546 -0.0679765 0
M  V30 973 O 93.7511 3.55982 -0.124681 0
M  V30 974 O 92.6101 5.46467 0.0600579 0
M  V30 975 H 89.7041 0.825795 0.0446279 0
M  V30 976 H 92.2501 1.56303 -0.660859 0
M  V30 977 H 91.0221 3.72045 -1.21235 0
M  V30 978 H 90.6451 3.94597 0.487775 0
M  V30 979 N 91.6422 0.330177 1.54103 0
M  V30 980 C 92.8882 -0.270806 2.00984 0
M  V30 981 C 93.2212 -1.51265 1.21789 0
M  V30 982 O 92.4962 -1.92142 0.301927 0
M  V30 983 C 92.7792 -0.598339 3.55094 0
M  V30 984 C 92.6322 0.654674 4.4501 0
M  V30 985 C 93.9512 -1.41334 4.16789 0
M  V30 986 H 91.0702 -0.0969531 0.730595 0
M  V30 987 H 93.7122 0.448066 1.84641 0
M  V30 988 H 91.8622 -1.21078 3.69151 0
M  V30 989 H 93.5342 1.29285 4.42813 0
M  V30 990 H 91.7772 1.28224 4.14416 0
M  V30 991 H 92.4482 0.380944 5.50684 0
M  V30 992 H 94.9242 -0.895597 4.06347 0
M  V30 993 H 93.8002 -1.61127 5.24718 0
M  V30 994 H 94.0612 -2.41146 3.70541 0
M  V30 995 N 93.1203 -1.57491 0.0584922 0
M  V30 996 C 94.0303 -2.15448 -0.928414 0
M  V30 997 C 95.0463 -1.11416 -1.3365 0
M  V30 998 O 96.2223 -1.4362 -1.41193 0
M  V30 999 C 93.2873 -2.69393 -2.18239 0
M  V30 1000 C 92.3483 -3.88249 -1.83196 0
M  V30 1001 C 91.5813 -4.39613 -3.02616 0
M  V30 1002 O 91.8043 -3.90023 -4.16219 0
M  V30 1003 O 90.7383 -5.31111 -2.83204 0
M  V30 1004 H 94.5643 -3.00112 -0.465483 0
M  V30 1005 H 92.1493 -1.48499 -0.163826 0
M  V30 1006 H 94.0313 -3.04026 -2.91798 0
M  V30 1007 H 92.7063 -1.87796 -2.63656 0
M  V30 1008 H 91.6133 -3.58492 -1.06931 0
M  V30 1009 H 92.9463 -4.71098 -1.42573 0
M  V30 1010 N 94.5984 0.214957 -1.56127 0
M  V30 1011 C 95.8754 0.963093 -1.70247 0
M  V30 1012 C 96.2554 2.02166 -0.60764 0
M  V30 1013 O 95.6034 2.25244 0.384385 0
M  V30 1014 C 95.8134 1.56756 -3.11815 0
M  V30 1015 C 97.1614 2.0573 -3.7143 0
M  V30 1016 O 98.1854 1.66637 -3.14818 0
M  V30 1017 O 97.0444 2.77603 -4.70743 0
M  V30 1018 H 94.1384 0.450321 -0.693643 0
M  V30 1019 H 96.6844 0.206219 -1.68442 0
M  V30 1020 H 95.4564 0.803533 -3.82961 0
M  V30 1021 H 95.0794 2.3898 -3.17765 0
M  V30 1022 N 96.0765 1.50051 0.48192 0
M  V30 1023 C 97.0265 1.64512 1.5786 0
M  V30 1024 C 98.0105 0.500073 1.52932 0
M  V30 1025 O 99.2025 0.753964 1.60139 0
M  V30 1026 C 96.3315 1.73263 2.9637 0
M  V30 1027 C 95.4175 2.93409 3.06222 0
M  V30 1028 N 95.8085 4.17236 2.85915 0
M  V30 1029 C 94.1065 2.91742 3.37346 0
M  V30 1030 C 94.8075 4.981 3.00451 0
M  V30 1031 N 93.7835 4.3184 3.30174 0
M  V30 1032 H 97.5855 2.57955 1.40842 0
M  V30 1033 H 95.0995 1.47086 0.688439 0
M  V30 1034 H 97.0965 1.81724 3.75209 0
M  V30 1035 H 95.7565 0.809711 3.14442 0
M  V30 1036 H 96.7675 4.46909 2.6171 0
M  V30 1037 H 93.4445 2.08907 3.61475 0
M  V30 1038 H 94.8345 6.06532 2.89082 0
M  V30 1039 N 97.5546 -0.734337 1.39446 0
M  V30 1040 C 98.7796 -1.52866 1.40167 0
M  V30 1041 C 99.2046 -1.881 -0.00171513 0
M  V30 1042 O 98.5626 -1.51957 -0.988879 0
M  V30 1043 C 98.6106 -2.79235 2.28167 0
M  V30 1044 O 97.7146 -3.75185 1.71201 0
M  V30 1045 H 97.0556 -0.461618 0.477289 0
M  V30 1046 H 99.5856 -0.905949 1.8345 0
M  V30 1047 H 99.5956 -3.27963 2.42702 0
M  V30 1048 H 98.2706 -2.52923 3.30156 0
M  V30 1049 H 96.8476 -3.33958 1.65912 0
M  V30 1050 N 99.0327 -1.24633 -0.964593 0
M  V30 1051 C 100.279 -1.08949 -1.71049 0
M  V30 1052 C 100.612 0.370302 -1.90637 0
M  V30 1053 O 99.8867 1.27349 -1.47011 0
M  V30 1054 C 100.17 -1.83329 -3.0994 0
M  V30 1055 C 100.023 -3.37077 -2.97824 0
M  V30 1056 C 101.342 -1.60846 -4.09654 0
M  V30 1057 H 98.4607 -0.397178 -0.620821 0
M  V30 1058 H 101.103 -1.5334 -1.12191 0
M  V30 1059 H 99.2527 -1.45597 -3.60186 0
M  V30 1060 H 100.925 -3.84425 -2.5498 0
M  V30 1061 H 99.1677 -3.65298 -2.33965 0
M  V30 1062 H 99.8387 -3.84324 -3.96231 0
M  V30 1063 H 102.315 -1.93674 -3.68279 0
M  V30 1064 H 101.191 -2.1534 -5.04896 0
M  V30 1065 H 101.452 -0.547434 -4.38698 0
M  V30 1066 N 100.511 1.16574 -1.06058 0
M  V30 1067 C 101.461 2.18854 -0.63929 0
M  V30 1068 C 102.445 1.57505 0.328798 0
M  V30 1069 O 103.637 1.76408 0.144623 0
M  V30 1070 C 100.766 3.43291 -0.0247203 0
M  V30 1071 C 99.8518 4.11722 -1.01716 0
M  V30 1072 N 100.243 4.55841 -2.19186 0
M  V30 1073 C 98.5408 4.37872 -0.847569 0
M  V30 1074 C 99.2418 5.08751 -2.82042 0
M  V30 1075 N 98.2178 5.01489 -2.09784 0
M  V30 1076 H 102.02 2.5068 -1.53417 0
M  V30 1077 H 99.5338 1.32999 -0.931935 0
M  V30 1078 H 101.531 4.15856 0.294915 0
M  V30 1079 H 100.191 3.12954 0.865448 0
M  V30 1080 H 101.202 4.49649 -2.56975 0
M  V30 1081 H 97.8788 4.17499 -0.00918848 0
M  V30 1082 H 99.2688 5.52944 -3.81709 0
M  V30 1083 N 101.989 0.842826 1.3317 0
M  V30 1084 C 102.919 0.294028 2.31641 0
M  V30 1085 C 103.9 -0.600401 1.59151 0
M  V30 1086 O 105.085 -0.523124 1.87022 0
M  V30 1087 C 102.215 -0.528416 3.43257 0
M  V30 1088 C 101.169 0.27056 4.27144 0
M  V30 1089 C 100.495 -0.675881 5.30411 0
M  V30 1090 C 101.795 1.48981 5.00602 0
M  V30 1091 H 103.489 1.11681 2.77791 0
M  V30 1092 H 101.035 0.538478 1.33553 0
M  V30 1093 H 102.988 -0.922674 4.11175 0
M  V30 1094 H 101.712 -1.38445 2.95805 0
M  V30 1095 H 100.371 0.646427 3.60856 0
M  V30 1096 H 100.019 -1.52842 4.79216 0
M  V30 1097 H 99.7189 -0.145374 5.8742 0
M  V30 1098 H 101.243 -1.06757 6.01195 0
M  V30 1099 H 102.657 1.16849 5.61266 0
M  V30 1100 H 101.054 1.95739 5.6728 0
M  V30 1101 H 102.124 2.25746 4.29147 0
M  V30 1102 N 103.467 -1.45747 0.599634 0
M  V30 1103 C 104.397 -2.33235 -0.111306 0
M  V30 1104 C 105.378 -1.46359 -0.866781 0
M  V30 1105 O 106.563 -1.75146 -0.838904 0
M  V30 1106 C 103.693 -3.28932 -1.11451 0
M  V30 1107 C 102.647 -4.25381 -0.472772 0
M  V30 1108 C 101.973 -5.1071 -1.58365 0
M  V30 1109 C 103.273 -5.18831 0.600948 0
M  V30 1110 H 104.967 -2.92927 0.61919 0
M  V30 1111 H 102.513 -1.40857 0.299215 0
M  V30 1112 H 104.466 -3.89002 -1.62036 0
M  V30 1113 H 103.19 -2.67381 -1.8755 0
M  V30 1114 H 101.849 -3.66598 0.0121472 0
M  V30 1115 H 101.497 -4.45533 -2.33473 0
M  V30 1116 H 101.197 -5.7604 -1.15982 0
M  V30 1117 H 102.721 -5.73647 -2.09194 0
M  V30 1118 H 104.135 -5.73019 0.179491 0
M  V30 1119 H 102.532 -5.92595 0.946076 0
M  V30 1120 H 103.602 -4.6174 1.48068 0
M  V30 1121 N 104.945 -0.338344 -1.53925 0
M  V30 1122 C 106.192 0.259758 -2.00827 0
M  V30 1123 C 106.52 1.50973 -1.22628 0
M  V30 1124 O 105.775 1.93379 -0.300509 0
M  V30 1125 C 106.074 0.62448 -3.51902 0
M  V30 1126 C 105.74 -0.528006 -4.47798 0
M  V30 1127 C 104.402 -0.844298 -4.73735 0
M  V30 1128 C 106.754 -1.30143 -5.0469 0
M  V30 1129 C 104.082 -1.93648 -5.53821 0
M  V30 1130 C 106.434 -2.38382 -5.85967 0
M  V30 1131 C 105.098 -2.70576 -6.10201 0
M  V30 1132 H 104.368 0.0950523 -0.734878 0
M  V30 1133 H 107.015 -0.465182 -1.85764 0
M  V30 1134 H 105.32 1.43006 -3.64769 0
M  V30 1135 H 107.017 1.09905 -3.85645 0
M  V30 1136 H 103.607 -0.271421 -4.2774 0
M  V30 1137 H 107.791 -1.07033 -4.84621 0
M  V30 1138 H 103.047 -2.19021 -5.70824 0
M  V30 1139 H 107.221 -2.98746 -6.29066 0
M  V30 1140 H 104.848 -3.55333 -6.72044 0
M  V30 1141 N 106.423 1.57458 -0.0668435 0
M  V30 1142 C 107.648 1.9804 0.616027 0
M  V30 1143 C 108.073 0.944771 1.62652 0
M  V30 1144 O 107.431 -0.0902094 1.81075 0
M  V30 1145 C 107.479 3.37665 1.26549 0
M  V30 1146 O 106.583 3.36701 2.38131 0
M  V30 1147 H 105.924 0.644719 0.158849 0
M  V30 1148 H 108.454 2.04121 -0.139891 0
M  V30 1149 H 108.464 3.7474 1.6135 0
M  V30 1150 H 107.139 4.12573 0.525016 0
M  V30 1151 H 105.716 3.1139 2.0516 0
M  V30 1152 N 107.901 -0.206675 1.56239 0
M  V30 1153 C 108.864 -1.23976 1.92776 0
M  V30 1154 C 109.864 -1.39041 0.807729 0
M  V30 1155 O 111.054 -1.37051 1.0753 0
M  V30 1156 C 108.186 -2.61112 2.19165 0
M  V30 1157 H 109.379 -0.927764 2.85189 0
M  V30 1158 H 106.932 -0.447718 1.4975 0
M  V30 1159 H 107.667 -2.97386 1.29352 0
M  V30 1160 H 107.452 -2.51552 3.00772 0
M  V30 1161 H 108.942 -3.35633 2.48476 0
M  V30 1162 N 109.379 -1.50304 -0.473955 0
M  V30 1163 C 110.327 -1.69482 -1.59307 0
M  V30 1164 C 111.321 -0.560669 -1.59853 0
M  V30 1165 O 112.527 -0.741087 -1.64036 0
M  V30 1166 H 108.902 -0.534892 -0.528578 0
M  V30 1167 H 110.873 -2.63364 -1.40293 0
M  V30 1168 C 109.622 -1.80354 -2.97267 0
M  V30 1169 H 108.945 -2.67012 -2.97564 0
M  V30 1170 H 110.385 -1.97798 -3.75036 0
M  V30 1171 C 108.844 -0.55448 -3.32306 0
M  V30 1172 O 109.374 0.307661 -4.0052 0
M  V30 1173 N 107.58 -0.409354 -2.87702 0
M  V30 1174 H 107.127 -1.11196 -2.32364 0
M  V30 1175 H 107.085 0.425223 -3.11511 0
M  V30 1176 N 110.857 0.726932 -1.39834 0
M  V30 1177 C 112.273 1.03354 -1.21615 0
M  V30 1178 C 112.473 2.01327 -0.08338 0
M  V30 1179 O 111.529 2.46158 0.56238 0
M  V30 1180 C 112.842 1.58811 -2.55342 0
M  V30 1181 C 114.39 1.70851 -2.62257 0
M  V30 1182 C 114.865 2.29716 -3.96225 0
M  V30 1183 N 116.356 2.37116 -3.97907 0
M  V30 1184 C 117.091 2.83619 -4.98345 0
M  V30 1185 N 116.587 3.29958 -6.09179 0
M  V30 1186 N 118.38 2.82901 -4.8572 0
M  V30 1187 H 110.531 0.0773069 -2.12259 0
M  V30 1188 H 112.794 0.0969102 -0.943034 0
M  V30 1189 H 112.5 0.942855 -3.38826 0
M  V30 1190 H 112.374 2.57502 -2.75632 0
M  V30 1191 H 114.761 2.34497 -1.79152 0
M  V30 1192 H 114.842 0.707913 -2.45809 0
M  V30 1193 H 114.486 1.66696 -4.79765 0
M  V30 1194 H 114.416 3.30469 -4.09997 0
M  V30 1195 H 116.907 2.04374 -3.17868 0
M  V30 1196 H 117.22 3.63976 -6.8172 0
M  V30 1197 H 115.565 3.27946 -6.12761 0
M  V30 1198 H 118.756 2.46027 -3.98231 0
M  V30 1199 H 118.929 3.18827 -5.6414 0
M  V30 1200 N 112.336 1.25143 0.95797 0
M  V30 1201 C 113.582 1.10863 1.70531 0
M  V30 1202 C 113.937 -0.347391 1.89238 0
M  V30 1203 O 113.23 -1.25262 1.44983 0
M  V30 1204 C 113.424 1.79272 3.09187 0
M  V30 1205 C 113.253 3.31376 3.04006 0
M  V30 1206 C 112.023 4.0062 3.07948 0
M  V30 1207 C 114.221 4.27825 2.8543 0
M  V30 1208 N 112.203 5.39526 2.9289 0
M  V30 1209 C 113.574 5.53794 2.78769 0
M  V30 1210 C 115.629 4.1828 2.70085 0
M  V30 1211 C 114.332 6.7131 2.58331 0
M  V30 1212 C 116.358 5.35485 2.51017 0
M  V30 1213 C 115.72 6.60393 2.45073 0
M  V30 1214 H 111.819 0.460362 0.632132 0
M  V30 1215 H 114.403 1.58196 1.13499 0
M  V30 1216 H 112.574 1.34439 3.64391 0
M  V30 1217 H 114.306 1.57764 3.72683 0
M  V30 1218 H 111.061 3.51855 3.17009 0
M  V30 1219 H 111.485 6.12416 2.88574 0
M  V30 1220 H 116.127 3.22461 2.73457 0
M  V30 1221 H 113.845 7.67243 2.53701 0
M  V30 1222 H 117.431 5.29959 2.40073 0
M  V30 1223 H 116.311 7.49557 2.30509 0
M  V30 1224 N 113.814 -1.1601 1.06675 0
M  V30 1225 C 114.724 -2.24156 0.692179 0
M  V30 1226 C 115.74 -1.71507 -0.293513 0
M  V30 1227 O 116.916 -2.009 -0.141861 0
M  V30 1228 C 113.981 -3.46587 0.0884131 0
M  V30 1229 C 113.042 -4.14257 1.12646 0
M  V30 1230 C 112.275 -5.30844 0.551416 0
M  V30 1231 O 112.498 -5.66858 -0.634656 0
M  V30 1232 O 111.432 -5.87848 1.29298 0
M  V30 1233 H 115.258 -2.58513 1.59388 0
M  V30 1234 H 112.843 -1.23599 0.83926 0
M  V30 1235 H 114.725 -4.20679 -0.246361 0
M  V30 1236 H 113.4 -3.13994 -0.786712 0
M  V30 1237 H 112.307 -3.42118 1.51348 0
M  V30 1238 H 113.64 -4.50914 1.97325 0
M  V30 1239 N 115.292 -0.849877 -1.32721 0
M  V30 1240 C 116.224 -0.248332 -2.27851 0
M  V30 1241 C 117.237 0.577218 -1.52224 0
M  V30 1242 O 118.426 0.402489 -1.73903 0
M  V30 1243 C 115.526 0.668107 -3.32249 0
M  V30 1244 C 114.699 -0.120534 -4.37234 0
M  V30 1245 C 113.758 0.720932 -5.21238 0
M  V30 1246 O 112.784 0.156166 -5.68986 0
M  V30 1247 N 113.986 2.03647 -5.43607 0
M  V30 1248 H 116.751 -1.06575 -2.80111 0
M  V30 1249 H 114.312 -0.709395 -1.45531 0
M  V30 1250 H 116.304 1.23627 -3.85355 0
M  V30 1251 H 114.874 1.38621 -2.80184 0
M  V30 1252 H 114.094 -0.870108 -3.84477 0
M  V30 1253 H 115.382 -0.662406 -5.0447 0
M  V30 1254 H 114.78 2.51871 -5.06535 0
M  V30 1255 H 113.337 2.55287 -5.99727 0
M  V30 1256 N 116.77 1.45427 -0.607355 0
M  V30 1257 C 118.016 2.0254 -0.102607 0
M  V30 1258 C 118.349 1.47478 1.26348 0
M  V30 1259 O 117.624 0.64939 1.83339 0
M  V30 1260 C 117.907 3.60044 -0.0634347 0
M  V30 1261 C 117.76 4.2544 -1.46017 0
M  V30 1262 C 119.079 4.35646 0.624514 0
M  V30 1263 H 116.198 0.73598 -0.0387607 0
M  V30 1264 H 118.84 1.73284 -0.779282 0
M  V30 1265 H 116.99 3.85101 0.512808 0
M  V30 1266 H 118.662 4.11569 -2.08347 0
M  V30 1267 H 116.905 3.83849 -2.02094 0
M  V30 1268 H 117.576 5.34342 -1.385 0
M  V30 1269 H 120.052 4.15882 0.134723 0
M  V30 1270 H 118.928 5.45376 0.621028 0
M  V30 1271 H 119.189 4.08501 1.69055 0
M  V30 1272 N 118.248 0.346503 1.53744 0
M  V30 1273 C 119.659 -0.136779 1.86198 0
M  V30 1274 C 120.01 -1.49749 1.26766 0
M  V30 1275 O 119.135 -2.08417 0.582355 0
M  V30 1276 C 119.73 -0.254966 3.37839 0
M  V30 1277 C 118.289 -0.682482 3.70161 0
M  V30 1278 C 117.436 0.181981 2.76702 0
M  V30 1279 H 120.387 0.565994 1.48264 0
M  V30 1280 H 120.408 -1.08195 3.64793 0
M  V30 1281 H 119.92 0.735526 3.81066 0
M  V30 1282 H 118.021 -1.68189 3.3248 0
M  V30 1283 H 118.134 -0.470326 4.76786 0
M  V30 1284 H 116.498 -0.34615 2.52337 0
M  V30 1285 H 117.281 1.16966 3.2276 0
M  V30 1286 N 119.726 -1.57421 0.075193 0
M  V30 1287 C 120.656 -2.15942 -0.888324 0
M  V30 1288 C 121.637 -1.08737 -1.30806 0
M  V30 1289 O 122.822 -1.36787 -1.37851 0
M  V30 1290 C 119.952 -2.72379 -2.1547 0
M  V30 1291 C 118.906 -3.8478 -1.87425 0
M  V30 1292 C 118.232 -4.27834 -3.20721 0
M  V30 1293 C 119.532 -5.08869 -1.17684 0
M  V30 1294 H 121.226 -2.96705 -0.400799 0
M  V30 1295 H 118.772 -1.42723 -0.191342 0
M  V30 1296 H 120.725 -3.11965 -2.83295 0
M  V30 1297 H 119.449 -1.88841 -2.6647 0
M  V30 1298 H 118.108 -3.45703 -1.22004 0
M  V30 1299 H 117.756 -3.41214 -3.6957 0
M  V30 1300 H 117.456 -5.03605 -3.02746 0
M  V30 1301 H 118.98 -4.70039 -3.89738 0
M  V30 1302 H 120.394 -5.4575 -1.75584 0
M  V30 1303 H 118.791 -5.8994 -1.09956 0
M  V30 1304 H 119.861 -4.84648 -0.156453 0
M  V30 1305 N 121.204 0.198386 -1.56346 0
M  V30 1306 C 122.453 0.917451 -1.79627 0
M  V30 1307 C 122.766 1.8456 -0.64784 0
M  V30 1308 O 123.972 2.60504 -0.764859 0
M  V30 1309 C 122.428 1.68175 -3.18191 0
M  V30 1310 C 122.036 0.798589 -4.40825 0
M  V30 1311 C 123.78 2.39065 -3.50782 0
M  V30 1312 C 121.687 1.56157 -5.70411 0
M  V30 1313 H 120.617 0.346317 -0.669762 0
M  V30 1314 H 123.268 0.170801 -1.82703 0
M  V30 1315 H 121.65 2.47216 -3.09354 0
M  V30 1316 H 122.824 0.0470665 -4.60776 0
M  V30 1317 H 121.139 0.200686 -4.15916 0
M  V30 1318 H 123.736 2.96692 -4.44835 0
M  V30 1319 H 124.079 3.13091 -2.74371 0
M  V30 1320 H 124.612 1.66993 -3.61052 0
M  V30 1321 H 121.351 0.864142 -6.49779 0
M  V30 1322 H 120.871 2.2871 -5.54483 0
M  V30 1323 H 122.55 2.11622 -6.11412 0
M  V30 1324 N 122.682 1.50554 0.465978 0
M  V30 1325 C 123.629 1.6979 1.56333 0
M  V30 1326 C 124.599 0.539239 1.57103 0
M  V30 1327 O 125.784 0.770401 1.74555 0
M  V30 1328 C 122.924 1.80273 2.94271 0
M  V30 1329 C 122.037 3.07674 3.0325 0
M  V30 1330 C 121.172 3.08922 4.32135 0
M  V30 1331 C 120.211 4.30755 4.34875 0
M  V30 1332 N 119.348 4.29714 5.55239 0
M  V30 1333 H 124.188 2.63472 1.39235 0
M  V30 1334 H 121.725 1.30602 0.676873 0
M  V30 1335 H 123.683 1.84332 3.74269 0
M  V30 1336 H 122.313 0.900258 3.09992 0
M  V30 1337 H 121.365 3.13062 2.16094 0
M  V30 1338 H 122.677 3.97642 3.01135 0
M  V30 1339 H 121.831 3.11738 5.20485 0
M  V30 1340 H 120.57 2.16792 4.36866 0
M  V30 1341 H 119.575 4.28146 3.44922 0
M  V30 1342 H 120.8 5.24117 4.31831 0
M  V30 1343 H 118.746 3.4044 5.60746 0
M  V30 1344 H 118.663 5.13456 5.54886 0
M  V30 1345 H 119.931 4.36683 6.457 0
M  V30 1346 N 124.16 -0.719506 1.40217 0
M  V30 1347 C 125.07 -1.86378 1.42479 0
M  V30 1348 C 126.086 -1.71073 0.317834 0
M  V30 1349 O 127.262 -1.93406 0.561794 0
M  V30 1350 C 124.327 -3.22136 1.28178 0
M  V30 1351 C 123.388 -3.49723 2.48982 0
M  V30 1352 C 122.621 -4.79004 2.35353 0
M  V30 1353 O 122.844 -5.53821 1.36524 0
M  V30 1354 O 121.778 -5.06839 3.2465 0
M  V30 1355 H 125.604 -1.87425 2.38968 0
M  V30 1356 H 123.189 -0.869405 1.21498 0
M  V30 1357 H 125.071 -4.03234 1.22395 0
M  V30 1358 H 123.746 -3.21825 0.347934 0
M  V30 1359 H 122.653 -2.6865 2.60342 0
M  V30 1360 H 123.986 -3.54828 3.41113 0
M  V30 1361 N 125.638 -1.25649 -0.95132 0
M  V30 1362 C 126.585 -1.06323 -2.04851 0
M  V30 1363 C 127.555 0.0286491 -1.66075 0
M  V30 1364 O 128.74 -0.12917 -1.90362 0
M  V30 1365 C 125.88 -0.691529 -3.381 0
M  V30 1366 C 124.993 -1.85861 -3.89974 0
M  V30 1367 C 124.128 -1.43096 -5.11563 0
M  V30 1368 C 123.167 -2.56696 -5.55674 0
M  V30 1369 N 122.304 -2.14684 -6.68472 0
M  V30 1370 H 127.144 -2.00222 -2.20715 0
M  V30 1371 H 124.681 -0.997027 -1.08156 0
M  V30 1372 H 126.639 -0.456963 -4.1469 0
M  V30 1373 H 125.269 0.210474 -3.22113 0
M  V30 1374 H 124.321 -2.20639 -3.09875 0
M  V30 1375 H 125.633 -2.71161 -4.18657 0
M  V30 1376 H 124.787 -1.15624 -5.9558 0
M  V30 1377 H 123.526 -0.548722 -4.84603 0
M  V30 1378 H 122.531 -2.84909 -4.7022 0
M  V30 1379 H 123.756 -3.45503 -5.8464 0
M  V30 1380 H 121.702 -1.28881 -6.43215 0
M  V30 1381 H 121.619 -2.9353 -6.96689 0
M  V30 1382 H 122.887 -1.90397 -7.5589 0
M  V30 1383 N 127.117 1.15442 -1.07289 0
M  V30 1384 C 128.047 2.22312 -0.714107 0
M  V30 1385 C 129.028 1.67467 0.298155 0
M  V30 1386 O 130.213 1.93445 0.171048 0
M  V30 1387 C 127.343 3.47124 -0.110448 0
M  V30 1388 C 126.297 4.14926 -1.04979 0
M  V30 1389 C 125.623 5.33807 -0.308924 0
M  V30 1390 C 126.923 4.64762 -2.38314 0
M  V30 1391 H 128.617 2.5258 -1.6076 0
M  V30 1392 H 126.163 1.21404 -0.77441 0
M  V30 1393 H 128.116 4.21124 0.152482 0
M  V30 1394 H 126.84 3.16187 0.81812 0
M  V30 1395 H 125.499 3.42866 -1.29764 0
M  V30 1396 H 125.147 4.99126 0.623084 0
M  V30 1397 H 124.847 5.80113 -0.935036 0
M  V30 1398 H 126.371 6.10576 -0.0537771 0
M  V30 1399 H 127.785 5.30292 -2.1786 0
M  V30 1400 H 126.182 5.21728 -2.96514 0
M  V30 1401 H 127.252 3.80434 -3.00663 0
M  V30 1402 N 128.595 0.856903 1.32268 0
M  V30 1403 C 129.82 0.474569 2.01897 0
M  V30 1404 C 130.245 -0.921766 1.63967 0
M  V30 1405 O 129.603 -1.60589 0.84148 0
M  V30 1406 C 129.651 0.623799 3.55164 0
M  V30 1407 O 128.755 -0.342459 4.10976 0
M  V30 1408 H 128.096 0.190422 0.63611 0
M  V30 1409 H 130.626 1.15672 1.68764 0
M  V30 1410 H 130.636 0.512169 4.04773 0
M  V30 1411 H 129.311 1.64202 3.82113 0
M  V30 1412 H 127.888 -0.18688 3.72431 0
M  V30 1413 N 130.073 -1.45103 0.615059 0
M  V30 1414 C 131.005 -2.28786 -0.13762 0
M  V30 1415 C 132.018 -1.40376 -0.824525 0
M  V30 1416 O 133.207 -1.64681 -0.688662 0
M  V30 1417 C 130.307 -3.16322 -1.21628 0
M  V30 1418 C 129.48 -4.33054 -0.615039 0
M  V30 1419 C 128.539 -5.01743 -1.58556 0
M  V30 1420 O 127.565 -5.58293 -1.10895 0
M  V30 1421 N 128.767 -5.01714 -2.91998 0
M  V30 1422 H 131.532 -2.94025 0.580483 0
M  V30 1423 H 129.093 -1.55373 0.45507 0
M  V30 1424 H 131.085 -3.59139 -1.86552 0
M  V30 1425 H 129.655 -2.52943 -1.83681 0
M  V30 1426 H 128.875 -3.93627 0.21245 0
M  V30 1427 H 130.163 -5.08431 -0.193704 0
M  V30 1428 H 129.561 -4.57075 -3.33316 0
M  V30 1429 H 128.118 -5.48371 -3.52325 0
M  V30 1430 N 131.551 -0.354651 -1.53558 0
M  V30 1431 C 132.799 0.237972 -2.00694 0
M  V30 1432 C 133.12 1.50173 -1.24391 0
M  V30 1433 O 132.39 1.92673 -0.354135 0
M  V30 1434 H 130.97 0.0909256 -0.741446 0
M  V30 1435 H 133.632 -0.478368 -1.88938 0
M  V30 1436 H 132.728 0.47264 -3.085 0
M  V30 1437 N 133.029 1.57378 -0.0835403 0
M  V30 1438 C 134.275 1.94217 0.583733 0
M  V30 1439 C 134.608 0.964653 1.68547 0
M  V30 1440 O 133.883 -0.00422258 1.945 0
M  V30 1441 C 134.166 3.41253 1.14972 0
M  V30 1442 C 134.019 4.49768 0.0538277 0
M  V30 1443 C 135.338 3.89352 2.05166 0
M  V30 1444 H 132.457 0.706233 0.210724 0
M  V30 1445 H 135.099 1.89392 -0.1519 0
M  V30 1446 H 133.249 3.45496 1.77665 0
M  V30 1447 H 134.921 4.57641 -0.579851 0
M  V30 1448 H 133.164 4.29432 -0.614068 0
M  V30 1449 H 133.835 5.49817 0.490452 0
M  V30 1450 H 136.311 3.87189 1.52393 0
M  V30 1451 H 135.187 4.92822 2.41698 0
M  V30 1452 H 135.448 3.27973 2.96456 0
M  V30 1453 N 134.507 -0.190092 1.56449 0
M  V30 1454 C 135.735 -0.925772 1.85033 0
M  V30 1455 C 136.15 -1.76638 0.666658 0
M  V30 1456 O 135.507 -1.78822 -0.364565 0
M  V30 1457 C 135.558 -1.81786 3.12468 0
M  V30 1458 O 135.279 -1.01118 4.26271 0
M  V30 1459 C 136.78 -2.6648 3.54265 0
M  V30 1460 H 134 -0.269872 0.614337 0
M  V30 1461 H 136.544 -0.195837 2.0356 0
M  V30 1462 H 134.699 -2.50136 2.95822 0
M  V30 1463 H 135.113 -1.61956 4.98869 0
M  V30 1464 H 136.587 -3.24722 4.46385 0
M  V30 1465 H 137.064 -3.40434 2.77491 0
M  V30 1466 H 137.67 -2.03493 3.73458 0
M  V30 1467 N 135.985 -1.50799 -0.457987 0
M  V30 1468 C 136.915 -1.73553 -1.5621 0
M  V30 1469 C 137.896 -0.584774 -1.59732 0
M  V30 1470 O 139.081 -0.825314 -1.7579 0
M  V30 1471 C 136.211 -1.84169 -2.94447 0
M  V30 1472 C 135.165 -2.99461 -3.0579 0
M  V30 1473 C 134.491 -2.95235 -4.45803 0
M  V30 1474 C 135.791 -4.39766 -2.81786 0
M  V30 1475 H 137.485 -2.66 -1.37421 0
M  V30 1476 H 135.031 -1.28002 -0.659662 0
M  V30 1477 H 136.984 -1.98672 -3.71628 0
M  V30 1478 H 135.708 -0.883545 -3.14422 0
M  V30 1479 H 134.367 -2.8463 -2.31044 0
M  V30 1480 H 134.015 -1.97239 -4.62715 0
M  V30 1481 H 133.715 -3.72642 -4.54326 0
M  V30 1482 H 135.239 -3.11803 -5.24987 0
M  V30 1483 H 136.653 -4.55054 -3.4871 0
M  V30 1484 H 135.05 -5.18722 -3.0174 0
M  V30 1485 H 136.12 -4.51229 -1.7754 0
M  V30 1486 N 137.463 0.71206 -1.40597 0
M  V30 1487 C 138.709 1.47416 -1.39271 0
M  V30 1488 C 139.042 1.942 0.00388791 0
M  V30 1489 O 138.317 1.68403 0.973179 0
M  V30 1490 C 138.6 2.69774 -2.38525 0
M  V30 1491 C 138.453 2.28861 -3.87224 0
M  V30 1492 C 139.772 3.71939 -2.35264 0
M  V30 1493 H 136.891 0.534713 -0.5072 0
M  V30 1494 H 139.533 0.812375 -1.71757 0
M  V30 1495 H 137.683 3.26238 -2.10953 0
M  V30 1496 H 139.355 1.77852 -4.25636 0
M  V30 1497 H 137.598 1.60824 -4.02887 0
M  V30 1498 H 138.269 3.16584 -4.52193 0
M  V30 1499 H 140.745 3.25113 -2.59694 0
M  V30 1500 H 139.621 4.55186 -3.06753 0
M  V30 1501 H 139.882 4.20484 -1.36549 0
M  V30 1502 N 138.941 1.26152 0.944643 0
M  V30 1503 C 140.187 1.11657 1.69294 0
M  V30 1504 C 140.52 -0.339926 1.91202 0
M  V30 1505 O 139.795 -1.24994 1.49019 0
M  V30 1506 C 140.078 1.88236 3.06984 0
M  V30 1507 C 139.931 3.41772 2.92424 0
M  V30 1508 C 141.25 1.67343 4.07043 0
M  V30 1509 H 138.369 0.407004 0.614424 0
M  V30 1510 H 141.011 1.55106 1.09737 0
M  V30 1511 H 139.161 1.51308 3.57824 0
M  V30 1512 H 140.833 3.88433 2.48832 0
M  V30 1513 H 139.076 3.68974 2.28124 0
M  V30 1514 H 139.747 3.90579 3.90067 0
M  V30 1515 H 142.223 1.99509 3.65151 0
M  V30 1516 H 141.099 2.23346 5.01406 0
M  V30 1517 H 141.36 0.617158 4.37771 0
M  V30 1518 N 140.419 -1.14872 1.07899 0
M  V30 1519 C 141.696 -1.81928 0.71845 0
M  V30 1520 C 142.076 -1.95417 -0.798455 0
M  V30 1521 O 141.424 -1.50997 -1.715 0
M  V30 1522 C 141.634 -3.17937 1.43935 0
M  V30 1523 C 142.982 -3.93501 1.59506 0
M  V30 1524 O 144.006 -3.27509 1.40058 0
M  V30 1525 O 142.865 -5.1183 1.91551 0
M  V30 1526 H 139.959 -0.78628 0.256305 0
M  V30 1527 H 142.505 -1.21934 1.18026 0
M  V30 1528 H 141.277 -3.0325 2.47295 0
M  V30 1529 H 140.9 -3.85619 0.968687 0
M  V30 1530 N 141.898 -0.863906 -1.31812 0
M  V30 1531 C 143.314 -0.555004 -1.49639 0
M  V30 1532 C 143.514 0.912266 -1.79666 0
M  V30 1533 O 142.57 1.69479 -1.87171 0
M  V30 1534 C 143.883 -1.44998 -2.63431 0
M  V30 1535 C 145.431 -1.45138 -2.77316 0
M  V30 1536 C 145.906 -2.33179 -3.94197 0
M  V30 1537 N 147.397 -2.31025 -4.01474 0
M  V30 1538 C 148.132 -2.95871 -4.9117 0
M  V30 1539 N 147.628 -3.69863 -5.8581 0
M  V30 1540 N 149.421 -2.85211 -4.84367 0
M  V30 1541 H 141.572 -1.81339 -1.10589 0
M  V30 1542 H 143.835 -0.77505 -0.545895 0
M  V30 1543 H 143.541 -2.49377 -2.48 0
M  V30 1544 H 143.415 -1.14409 -3.59431 0
M  V30 1545 H 145.802 -0.415201 -2.92164 0
M  V30 1546 H 145.883 -1.79747 -1.82001 0
M  V30 1547 H 145.527 -3.3687 -3.80107 0
M  V30 1548 H 145.457 -1.95897 -4.88807 0
M  V30 1549 H 147.948 -1.77238 -3.33759 0
M  V30 1550 H 148.261 -4.16486 -6.50968 0
M  V30 1551 H 146.606 -3.73971 -5.85808 0
M  V30 1552 H 149.797 -2.26948 -4.09405 0
M  V30 1553 H 149.97 -3.36027 -5.54066 0
M  V30 1554 N 143.376 1.44774 -0.622745 0
M  V30 1555 C 144.606 2.06187 -0.130532 0
M  V30 1556 C 145.014 1.46547 1.19669 0
M  V30 1557 O 144.357 0.579636 1.74316 0
M  V30 1558 C 144.419 3.59437 0.0674983 0
M  V30 1559 C 144.083 4.41496 -1.18026 0
M  V30 1560 C 145.08 4.75512 -2.102 0
M  V30 1561 C 142.765 4.82007 -1.41333 0
M  V30 1562 C 144.759 5.48912 -3.23998 0
M  V30 1563 C 142.446 5.55157 -2.55429 0
M  V30 1564 C 143.444 5.88528 -3.46589 0
M  V30 1565 O 143.132 6.60191 -4.58697 0
M  V30 1566 H 142.864 0.672045 -0.0730162 0
M  V30 1567 H 145.418 1.86768 -0.854802 0
M  V30 1568 H 143.648 3.77314 0.846825 0
M  V30 1569 H 145.337 4.02642 0.513209 0
M  V30 1570 H 146.103 4.4476 -1.93425 0
M  V30 1571 H 141.982 4.55457 -0.712709 0
M  V30 1572 H 145.526 5.74877 -3.95174 0
M  V30 1573 H 141.423 5.85324 -2.72151 0
M  V30 1574 H 142.191 6.78654 -4.57571 0
M  V30 1575 N 144.854 0.36279 1.53368 0
M  V30 1576 C 145.817 -0.472679 2.24273 0
M  V30 1577 C 146.817 -1.012 1.24961 0
M  V30 1578 O 148.007 -0.898194 1.49259 0
M  V30 1579 C 145.139 -1.66039 2.97731 0
M  V30 1580 H 146.332 0.14773 2.99536 0
M  V30 1581 H 143.885 0.114434 1.55881 0
M  V30 1582 H 144.62 -2.31896 2.26704 0
M  V30 1583 H 144.405 -1.28066 3.70596 0
M  V30 1584 H 145.895 -2.25252 3.51641 0
M  V30 1585 N 146.332 -1.57332 0.0918853 0
M  V30 1586 C 147.579 -1.94236 -0.572577 0
M  V30 1587 C 147.907 -0.973398 -1.6839 0
M  V30 1588 O 147.162 0.00756912 -1.95699 0
M  V30 1589 C 147.461 -3.37689 -1.17051 0
M  V30 1590 C 147.127 -4.50527 -0.183304 0
M  V30 1591 C 145.789 -4.81119 0.0882276 0
M  V30 1592 C 148.141 -5.18883 0.49095 0
M  V30 1593 C 145.469 -5.77395 1.04076 0
M  V30 1594 C 147.821 -6.1618 1.43193 0
M  V30 1595 C 146.485 -6.45179 1.71173 0
M  V30 1596 H 145.755 -0.710762 -0.209521 0
M  V30 1597 H 148.402 -1.9077 0.167036 0
M  V30 1598 H 146.707 -3.37718 -1.9863 0
M  V30 1599 H 148.404 -3.63543 -1.69227 0
M  V30 1600 H 144.994 -4.26681 -0.405124 0
M  V30 1601 H 149.178 -4.95427 0.294312 0
M  V30 1602 H 144.434 -5.98179 1.26457 0
M  V30 1603 H 148.608 -6.68243 1.96023 0
M  V30 1604 H 146.235 -7.1959 2.4514 0
M  V30 1605 N 147.81 0.181792 -1.56548 0
M  V30 1606 C 149.035 0.920019 -1.85877 0
M  V30 1607 C 149.46 1.75494 -0.677021 0
M  V30 1608 O 148.818 1.77399 0.374056 0
M  V30 1609 C 148.866 1.78112 -3.13542 0
M  V30 1610 O 147.97 2.88152 -2.95029 0
M  V30 1611 H 147.311 0.258334 -0.611686 0
M  V30 1612 H 149.841 0.183092 -2.03779 0
M  V30 1613 H 149.851 2.18314 -3.44678 0
M  V30 1614 H 148.526 1.16777 -3.99169 0
M  V30 1615 H 147.103 2.51609 -2.75222 0
M  V30 1616 N 149.288 1.51039 0.449983 0
M  V30 1617 C 150.536 1.62759 1.19808 0
M  V30 1618 C 150.857 0.339981 1.92013 0
M  V30 1619 O 150.127 -0.643606 1.85026 0
M  V30 1620 H 148.707 0.599811 0.445237 0
M  V30 1621 H 151.369 1.87914 0.517138 0
M  V30 1622 H 150.465 2.44911 1.93455 0
M  V30 1623 N 150.766 -0.704594 1.40972 0
M  V30 1624 C 152.012 -1.46675 1.40051 0
M  V30 1625 C 152.345 -1.94199 0.00641102 0
M  V30 1626 O 151.62 -1.68916 -0.964235 0
M  V30 1627 C 151.903 -2.68505 2.39952 0
M  V30 1628 C 151.756 -2.26805 3.88432 0
M  V30 1629 C 153.075 -3.70686 2.37233 0
M  V30 1630 H 150.194 -0.532015 0.510028 0
M  V30 1631 H 152.836 -0.803255 1.72185 0
M  V30 1632 H 150.986 -3.25114 2.1268 0
M  V30 1633 H 152.658 -1.75592 4.26574 0
M  V30 1634 H 150.901 -1.58685 4.03734 0
M  V30 1635 H 151.572 -3.14181 4.53866 0
M  V30 1636 H 154.048 -3.23731 2.61415 0
M  V30 1637 H 152.924 -4.53553 3.09162 0
M  V30 1638 H 153.185 -4.19754 1.38777 0
M  V30 1639 N 152.244 -1.26651 -0.937939 0
M  V30 1640 C 153.207 -1.08546 -2.01867 0
M  V30 1641 C 154.207 -0.0327327 -1.60767 0
M  V30 1642 O 155.397 -0.276427 -1.71993 0
M  V30 1643 C 152.529 -0.651711 -3.34613 0
M  V30 1644 H 153.722 -2.04502 -2.1936 0
M  V30 1645 H 151.275 -1.09294 -1.11734 0
M  V30 1646 H 152.01 0.309696 -3.22818 0
M  V30 1647 H 151.795 -1.41189 -3.65798 0
M  V30 1648 H 153.285 -0.546973 -4.14002 0
M  V30 1649 N 153.722 1.14298 -1.08507 0
M  V30 1650 C 154.969 1.85359 -0.815373 0
M  V30 1651 C 155.297 1.83001 0.658865 0
M  V30 1652 O 154.552 1.25655 1.50031 0
M  V30 1653 C 154.851 3.33547 -1.28379 0
M  V30 1654 C 154.517 3.56093 -2.76602 0
M  V30 1655 C 153.179 3.61955 -3.17084 0
M  V30 1656 C 155.531 3.64834 -3.72217 0
M  V30 1657 C 152.859 3.74082 -4.51973 0
M  V30 1658 C 155.211 3.78487 -5.06883 0
M  V30 1659 C 153.875 3.82598 -5.46969 0
M  V30 1660 H 153.145 0.678276 -0.298366 0
M  V30 1661 H 155.792 1.35002 -1.35819 0
M  V30 1662 H 154.097 3.86191 -0.660593 0
M  V30 1663 H 155.794 3.86959 -1.05186 0
M  V30 1664 H 152.384 3.52179 -2.4427 0
M  V30 1665 H 156.568 3.59595 -3.42061 0
M  V30 1666 H 151.824 3.75527 -4.82483 0
M  V30 1667 H 155.998 3.84193 -5.80834 0
M  V30 1668 H 153.625 3.91747 -6.51489 0
M  V30 1669 N 155.201 0.870884 1.31352 0
M  V30 1670 C 156.429 0.49677 2.00848 0
M  V30 1671 C 156.844 -0.910998 1.65367 0
M  V30 1672 O 156.201 -1.59696 0.883374 0
M  V30 1673 C 156.252 0.645308 3.55694 0
M  V30 1674 O 155.973 1.99764 3.89905 0
M  V30 1675 C 157.474 0.272326 4.42463 0
M  V30 1676 H 154.694 0.193462 0.642506 0
M  V30 1677 H 157.238 1.1723 1.67563 0
M  V30 1678 H 155.393 0.0173176 3.87396 0
M  V30 1679 H 155.807 2.00607 4.84621 0
M  V30 1680 H 157.281 0.427208 5.50344 0
M  V30 1681 H 157.758 -0.788587 4.32062 0
M  V30 1682 H 158.364 0.876054 4.1618 0
M  V30 1683 N 156.679 -1.44442 0.630414 0
M  V30 1684 C 157.927 -2.01653 0.134351 0
M  V30 1685 C 158.248 -1.49836 -1.24796 0
M  V30 1686 O 157.518 -0.701684 -1.82902 0
M  V30 1687 H 156.098 -0.74554 0.0466769 0
M  V30 1688 H 158.76 -1.76952 0.816955 0
M  V30 1689 H 157.856 -3.11935 0.101498 0
M  V30 1690 N 158.157 -0.370918 -1.53173 0
M  V30 1691 C 159.12 0.460778 -2.24521 0
M  V30 1692 C 160.12 1.00536 -1.25496 0
M  V30 1693 O 161.31 0.890266 -1.49733 0
M  V30 1694 C 158.442 1.64457 -2.98608 0
M  V30 1695 H 159.635 -0.163613 -2.99453 0
M  V30 1696 H 157.188 -0.122699 -1.55818 0
M  V30 1697 H 157.923 2.30691 -2.2793 0
M  V30 1698 H 157.708 1.26099 -3.7127 0
M  V30 1699 H 159.198 2.23384 -3.5283 0
M  V30 1700 N 159.635 1.57281 -0.100228 0
M  V30 1701 C 160.582 2.14305 0.856858 0
M  V30 1702 C 161.552 1.06296 1.27634 0
M  V30 1703 O 162.737 1.34109 1.35718 0
M  V30 1704 C 159.877 2.73184 2.10866 0
M  V30 1705 C 158.99 3.95442 1.73925 0
M  V30 1706 C 158.125 4.42468 2.93931 0
M  V30 1707 C 157.164 5.57303 2.5314 0
M  V30 1708 N 156.301 5.99158 3.65997 0
M  V30 1709 H 161.141 2.95772 0.363726 0
M  V30 1710 H 158.678 1.46139 0.167858 0
M  V30 1711 H 160.636 3.05442 2.84185 0
M  V30 1712 H 159.266 1.94437 2.57671 0
M  V30 1713 H 158.318 3.69464 0.905554 0
M  V30 1714 H 159.63 4.78769 1.39935 0
M  V30 1715 H 158.784 4.76537 3.75496 0
M  V30 1716 H 157.523 3.58052 3.31134 0
M  V30 1717 H 156.528 5.22857 1.70003 0
M  V30 1718 H 157.753 6.43471 2.17075 0
M  V30 1719 H 155.699 5.17687 4.02909 0
M  V30 1720 H 155.616 6.77295 3.35869 0
M  V30 1721 H 156.884 6.3786 4.48057 0
M  V30 1722 N 161.113 -0.173488 1.56642 0
M  V30 1723 C 162.023 -1.23482 1.99473 0
M  V30 1724 C 163.039 -1.48567 0.905752 0
M  V30 1725 O 164.215 -1.60758 1.21321 0
M  V30 1726 C 161.28 -2.55444 2.34413 0
M  V30 1727 C 160.341 -2.38241 3.57127 0
M  V30 1728 C 159.574 -3.63909 3.90392 0
M  V30 1729 O 159.797 -4.68996 3.24653 0
M  V30 1730 O 158.731 -3.58149 4.83749 0
M  V30 1731 H 162.557 -0.901279 2.90018 0
M  V30 1732 H 160.142 -0.380185 1.44482 0
M  V30 1733 H 162.024 -3.33292 2.57865 0
M  V30 1734 H 160.699 -2.88382 1.4703 0
M  V30 1735 H 159.606 -1.58431 3.38896 0
M  V30 1736 H 160.939 -2.10228 4.45045 0
M  V30 1737 N 162.591 -1.51276 -0.441967 0
M  V30 1738 C 163.539 -1.72823 -1.55676 0
M  V30 1739 C 164.533 -0.59445 -1.58627 0
M  V30 1740 O 165.739 -0.775715 -1.62427 0
M  V30 1741 H 162.114 -0.545983 -0.517113 0
M  V30 1742 H 164.085 -2.6628 -1.34675 0
M  V30 1743 C 162.834 -1.86619 -2.93375 0
M  V30 1744 H 162.157 -2.73264 -2.91834 0
M  V30 1745 H 163.597 -2.05709 -3.70756 0
M  V30 1746 C 162.056 -0.624842 -3.31055 0
M  V30 1747 O 162.586 0.222636 -4.01083 0
M  V30 1748 N 160.792 -0.470288 -2.86769 0
M  V30 1749 H 160.339 -1.161 -2.29953 0
M  V30 1750 H 160.297 0.359051 -3.12343 0
M  V30 1751 N 164.069 0.697108 -1.41344 0
M  V30 1752 C 165.316 1.45714 -1.40619 0
M  V30 1753 C 165.644 1.94494 -0.0147907 0
M  V30 1754 O 164.899 1.69794 0.973066 0
M  V30 1755 C 165.198 2.68553 -2.35826 0
M  V30 1756 C 164.864 2.38438 -3.82698 0
M  V30 1757 C 163.526 2.29936 -4.22709 0
M  V30 1758 C 165.878 2.13567 -4.75435 0
M  V30 1759 C 163.206 1.94656 -5.53467 0
M  V30 1760 C 165.558 1.79797 -6.06511 0
M  V30 1761 C 164.222 1.69789 -6.45545 0
M  V30 1762 H 163.492 0.533206 -0.51456 0
M  V30 1763 H 166.139 0.796901 -1.74131 0
M  V30 1764 H 164.444 3.39503 -1.95563 0
M  V30 1765 H 166.141 3.2669 -2.32539 0
M  V30 1766 H 162.731 2.4595 -3.51008 0
M  V30 1767 H 166.915 2.19082 -4.45328 0
M  V30 1768 H 162.171 1.8546 -5.82593 0
M  V30 1769 H 166.345 1.59572 -6.77872 0
M  V30 1770 H 163.972 1.4222 -7.46778 0
M  V30 1771 N 165.547 1.27147 0.931209 0
M  V30 1772 C 166.772 1.16191 1.71797 0
M  V30 1773 C 167.197 -0.278004 1.86034 0
M  V30 1774 O 166.555 -1.20137 1.35782 0
M  V30 1775 C 166.603 1.84673 3.09723 0
M  V30 1776 O 165.707 1.14231 3.96264 0
M  V30 1777 H 165.048 0.404303 0.526721 0
M  V30 1778 H 167.578 1.68152 1.1656 0
M  V30 1779 H 167.588 1.91893 3.60057 0
M  V30 1780 H 166.263 2.89421 2.98677 0
M  V30 1781 H 164.84 1.15056 3.54706 0
M  V30 1782 N 167.025 -1.13721 1.09112 0
M  V30 1783 C 167.955 -2.21148 0.749385 0
M  V30 1784 C 168.936 -1.6792 -0.271475 0
M  V30 1785 O 170.121 -1.93693 -0.140251 0
M  V30 1786 C 167.251 -3.46905 0.165659 0
M  V30 1787 C 166.205 -4.13203 1.11567 0
M  V30 1788 C 165.531 -5.33248 0.393809 0
M  V30 1789 C 166.831 -4.60912 2.45678 0
M  V30 1790 H 168.525 -2.4999 1.64758 0
M  V30 1791 H 166.071 -1.20156 0.793626 0
M  V30 1792 H 168.024 -4.21313 -0.085466 0
M  V30 1793 H 166.748 -3.17449 -0.767714 0
M  V30 1794 H 165.407 -3.40758 1.35202 0
M  V30 1795 H 165.055 -5.00054 -0.543599 0
M  V30 1796 H 164.755 -5.78552 1.02721 0
M  V30 1797 H 166.279 -6.10413 0.150908 0
M  V30 1798 H 167.693 -5.26759 2.26269 0
M  V30 1799 H 166.09 -5.16944 3.04776 0
M  V30 1800 H 167.16 -3.75603 3.06677 0
M  V30 1801 N 168.503 -0.877838 -1.30888 0
M  V30 1802 C 169.78 -0.413052 -1.91189 0
M  V30 1803 C 170.16 1.1056 -1.79832 0
M  V30 1804 O 169.508 1.93771 -1.21099 0
M  V30 1805 C 169.718 -0.903191 -3.3711 0
M  V30 1806 C 171.066 -0.93395 -4.14201 0
M  V30 1807 O 172.09 -0.849373 -3.45925 0
M  V30 1808 O 170.949 -1.05772 -5.36167 0
M  V30 1809 H 168.043 -0.125035 -0.817493 0
M  V30 1810 H 170.589 -0.966269 -1.39504 0
M  V30 1811 H 169.361 -1.94692 -3.39427 0
M  V30 1812 H 168.984 -0.328732 -3.96239 0
M  V30 1813 N 169.982 1.44106 -0.638065 0
M  V30 1814 C 171.228 2.02815 -0.15409 0
M  V30 1815 C 171.583 1.49342 1.21304 0
M  V30 1816 O 170.876 0.670699 1.79478 0
M  V30 1817 C 171.07 3.5729 -0.0887327 0
M  V30 1818 C 170.899 4.2575 -1.44799 0
M  V30 1819 C 169.669 4.62443 -2.03653 0
M  V30 1820 C 171.867 4.55746 -2.38327 0
M  V30 1821 N 169.849 5.15903 -3.32741 0
M  V30 1822 C 171.22 5.10364 -3.52036 0
M  V30 1823 C 173.275 4.37703 -2.3732 0
M  V30 1824 C 171.978 5.48837 -4.64941 0
M  V30 1825 C 174.004 4.77229 -3.49294 0
M  V30 1826 C 173.366 5.31966 -4.61726 0
M  V30 1827 H 169.465 0.775519 -0.100466 0
M  V30 1828 H 172.049 1.755 -0.843071 0
M  V30 1829 H 170.22 3.84201 0.569548 0
M  V30 1830 H 171.952 4.02671 0.404711 0
M  V30 1831 H 168.707 4.46987 -1.56523 0
M  V30 1832 H 169.131 5.47102 -3.98758 0
M  V30 1833 H 173.773 3.94671 -1.51641 0
M  V30 1834 H 171.491 5.9082 -5.51323 0
M  V30 1835 H 175.077 4.64976 -3.49698 0
M  V30 1836 H 173.957 5.61986 -5.46939 0
M  V30 1837 N 171.46 0.379036 1.52974 0
M  V30 1838 C 172.7 -0.206325 2.03356 0
M  V30 1839 C 173.064 -1.44892 1.25977 0
M  V30 1840 O 174.265 -2.11078 1.66432 0
M  V30 1841 C 172.536 -0.477887 3.54191 0
M  V30 1842 S 174.095 -1.035 4.26419 0
M  V30 1843 H 170.913 -0.0590259 0.708546 0
M  V30 1844 H 173.515 0.525013 1.88319 0
M  V30 1845 H 172.219 0.433745 4.08101 0
M  V30 1846 H 171.75 -1.23793 3.73415 0
M  V30 1847 H 173.765 -2.31821 4.38718 0
M  V30 1848 N 172.938 -1.57226 0.108567 0
M  V30 1849 C 173.885 -2.14756 -0.845481 0
M  V30 1850 C 174.855 -1.06971 -1.27068 0
M  V30 1851 O 176.04 -1.34827 -1.35005 0
M  V30 1852 C 173.18 -2.74298 -2.09415 0
M  V30 1853 C 172.293 -3.96358 -1.71826 0
M  V30 1854 C 171.428 -4.44021 -2.9158 0
M  V30 1855 C 170.467 -5.58637 -2.50181 0
M  V30 1856 N 169.604 -6.01091 -3.62814 0
M  V30 1857 H 174.444 -2.95961 -0.348035 0
M  V30 1858 H 171.981 -1.46226 -0.160106 0
M  V30 1859 H 173.939 -3.06945 -2.82561 0
M  V30 1860 H 172.569 -1.95801 -2.56636 0
M  V30 1861 H 171.621 -3.69939 -0.885947 0
M  V30 1862 H 172.933 -4.79504 -1.37394 0
M  V30 1863 H 172.087 -4.78522 -3.72963 0
M  V30 1864 H 170.826 -3.59803 -3.29231 0
M  V30 1865 H 169.831 -5.23751 -1.67228 0
M  V30 1866 H 171.056 -6.44613 -2.13659 0
M  V30 1867 H 169.002 -5.19817 -4.00158 0
M  V30 1868 H 168.919 -6.79066 -3.32273 0
M  V30 1869 H 170.187 -6.40227 -4.44668 0
M  V30 1870 N 174.416 0.165178 -1.56732 0
M  V30 1871 C 175.348 1.22911 -1.93457 0
M  V30 1872 C 176.361 1.40152 -0.828333 0
M  V30 1873 O 177.55 1.40046 -1.10677 0
M  V30 1874 C 174.65 2.59686 -2.17753 0
M  V30 1875 C 173.823 2.63663 -3.48999 0
M  V30 1876 C 172.882 3.81845 -3.62051 0
M  V30 1877 O 171.908 3.67559 -4.34613 0
M  V30 1878 N 173.11 4.98557 -2.97357 0
M  V30 1879 H 175.875 0.917118 -2.85323 0
M  V30 1880 H 173.436 0.354895 -1.57962 0
M  V30 1881 H 175.428 3.37225 -2.23743 0
M  V30 1882 H 173.998 2.83251 -1.32242 0
M  V30 1883 H 173.218 1.72173 -3.54612 0
M  V30 1884 H 174.506 2.63336 -4.35352 0
M  V30 1885 H 173.904 5.13065 -2.38287 0
M  V30 1886 H 172.461 5.73936 -3.08934 0
M  V30 1887 N 175.894 1.51508 0.433938 0
M  V30 1888 C 177.305 1.56784 1.01369 0
M  V30 1889 C 177.656 0.393349 1.92217 0
M  V30 1890 O 176.781 -0.489441 2.10792 0
M  V30 1891 C 177.376 2.84144 1.8452 0
M  V30 1892 C 175.935 2.9198 2.37539 0
M  V30 1893 C 175.082 2.51482 1.16843 0
M  V30 1894 H 178.033 1.57236 0.215081 0
M  V30 1895 H 178.054 2.68098 2.70007 0
M  V30 1896 H 177.566 3.69607 1.18373 0
M  V30 1897 H 175.667 2.10955 3.0713 0
M  V30 1898 H 175.78 3.95704 2.70103 0
M  V30 1899 H 174.144 2.04758 1.51481 0
M  V30 1900 H 174.927 3.39293 0.523015 0
M  V30 1901 N 177.372 -0.689602 1.41712 0
M  V30 1902 C 178.649 -1.44457 1.31877 0
M  V30 1903 C 179.029 -2.11039 -0.0508537 0
M  V30 1904 O 178.377 -2.02138 -1.06547 0
M  V30 1905 C 178.587 -2.45913 2.47645 0
M  V30 1906 C 179.935 -3.10991 2.89084 0
M  V30 1907 O 180.959 -2.56238 2.47428 0
M  V30 1908 O 179.818 -4.10174 3.61137 0
M  V30 1909 H 176.912 -0.64362 0.519309 0
M  V30 1910 H 179.458 -0.719576 1.53689 0
M  V30 1911 H 178.23 -1.95409 3.39015 0
M  V30 1912 H 177.853 -3.25913 2.27742 0
M  V30 1913 N 178.85 -1.27639 -0.924453 0
M  V30 1914 C 180.096 -1.14336 -1.67497 0
M  V30 1915 C 180.429 0.309465 -1.91718 0
M  V30 1916 O 179.704 1.22608 -1.50989 0
M  V30 1917 C 179.987 -1.93096 -3.0395 0
M  V30 1918 C 179.84 -3.46381 -2.8695 0
M  V30 1919 C 181.159 -1.73798 -4.0433 0
M  V30 1920 H 178.278 -0.416728 -0.607871 0
M  V30 1921 H 180.92 -1.56832 -1.07256 0
M  V30 1922 H 179.07 -1.56982 -3.55372 0
M  V30 1923 H 180.742 -3.92343 -2.42621 0
M  V30 1924 H 178.985 -3.72557 -2.22225 0
M  V30 1925 H 179.656 -3.96735 -3.83804 0
M  V30 1926 H 182.132 -2.05293 -3.61931 0
M  V30 1927 H 181.008 -2.31294 -4.97789 0
M  V30 1928 H 181.269 -0.686725 -4.36734 0
M  V30 1929 N 180.328 1.1314 -1.09713 0
M  V30 1930 C 181.576 1.84119 -0.833338 0
M  V30 1931 C 181.897 1.84097 0.642904 0
M  V30 1932 O 181.167 1.29881 1.46655 0
M  V30 1933 H 179.747 0.681766 -0.305293 0
M  V30 1934 H 182.409 1.37038 -1.38588 0
M  V30 1935 H 181.505 2.88543 -1.18951 0
M  V30 1936 N 181.806 0.884767 1.30421 0
M  V30 1937 C 182.736 0.367574 2.30589 0
M  V30 1938 C 183.717 -0.549464 1.60981 0
M  V30 1939 O 184.902 -0.46336 1.88591 0
M  V30 1940 C 182.032 -0.418944 3.44764 0
M  V30 1941 C 180.986 0.406316 4.26067 0
M  V30 1942 C 180.312 -0.506793 5.32293 0
M  V30 1943 C 181.612 1.64832 4.95608 0
M  V30 1944 H 183.306 1.20462 2.74097 0
M  V30 1945 H 180.852 0.580695 1.31772 0
M  V30 1946 H 182.805 -0.791395 4.13902 0
M  V30 1947 H 181.529 -1.28964 3.0006 0
M  V30 1948 H 180.188 0.760903 3.58617 0
M  V30 1949 H 179.836 -1.37519 4.83836 0
M  V30 1950 H 179.536 0.0415828 5.87585 0
M  V30 1951 H 181.06 -0.875764 6.04287 0
M  V30 1952 H 182.474 1.34646 5.57264 0
M  V30 1953 H 180.871 2.13688 5.60765 0
M  V30 1954 H 181.941 2.39284 4.21748 0
M  V30 1955 N 183.284 -1.43765 0.645699 0
M  V30 1956 C 184.695 -1.85193 0.236719 0
M  V30 1957 C 185.046 -1.54045 -1.21509 0
M  V30 1958 O 184.171 -0.985694 -1.92647 0
M  V30 1959 C 184.766 -3.36151 0.422845 0
M  V30 1960 C 183.325 -3.76338 0.0682492 0
M  V30 1961 C 182.472 -2.67538 0.729306 0
M  V30 1962 H 185.423 -1.34025 0.849883 0
M  V30 1963 H 185.444 -3.79032 -0.333904 0
M  V30 1964 H 184.956 -3.5879 1.47958 0
M  V30 1965 H 183.057 -3.59312 -0.986179 0
M  V30 1966 H 183.17 -4.76603 0.488469 0
M  V30 1967 H 181.534 -2.54176 0.163235 0
M  V30 1968 H 182.317 -2.93006 1.78892 0
M  V30 1969 N 184.763 -0.387143 -1.52771 0
M  V30 1970 C 185.71 0.449048 -2.26389 0
M  V30 1971 C 186.68 1.05961 -1.27912 0
M  V30 1972 O 187.865 1.08804 -1.56737 0
M  V30 1973 C 185.005 1.57155 -3.0724 0
M  V30 1974 C 184.118 0.984066 -4.20643 0
M  V30 1975 C 183.253 2.07745 -4.88892 0
M  V30 1976 C 182.292 1.46574 -5.94292 0
M  V30 1977 N 181.429 2.49834 -6.56146 0
M  V30 1978 H 186.269 -0.185205 -2.97424 0
M  V30 1979 H 183.806 -0.103164 -1.46738 0
M  V30 1980 H 185.764 2.23309 -3.52405 0
M  V30 1981 H 184.394 2.17615 -2.38419 0
M  V30 1982 H 183.446 0.212193 -3.79808 0
M  V30 1983 H 184.758 0.497029 -4.96318 0
M  V30 1984 H 183.912 2.81673 -5.3735 0
M  V30 1985 H 182.651 2.59807 -4.12737 0
M  V30 1986 H 181.656 0.711696 -5.45174 0
M  V30 1987 H 182.881 0.953088 -6.72379 0
M  V30 1988 H 180.827 3.0107 -5.82832 0
M  V30 1989 H 180.744 2.05879 -7.27427 0
M  V30 1990 H 182.012 3.23399 -7.09249 0
M  V30 1991 N 186.241 1.57166 -0.116904 0
M  V30 1992 C 187.652 1.82169 0.408809 0
M  V30 1993 C 188.003 1.03393 1.66746 0
M  V30 1994 O 187.128 0.269886 2.1471 0
M  V30 1995 C 187.723 3.30429 0.748466 0
M  V30 1996 C 186.282 3.5612 1.21882 0
M  V30 1997 C 185.429 2.76374 0.226452 0
M  V30 1998 H 188.38 1.5497 -0.342063 0
M  V30 1999 H 188.401 3.44943 1.60607 0
M  V30 2000 H 187.913 3.87737 -0.167784 0
M  V30 2001 H 186.014 3.04168 2.15204 0
M  V30 2002 H 186.127 4.64705 1.16559 0
M  V30 2003 H 184.491 2.44515 0.713063 0
M  V30 2004 H 185.274 3.3644 -0.682859 0
M  V30 2005 N 187.719 -0.156864 1.56817 0
M  V30 2006 C 188.996 -0.899244 1.73704 0
M  V30 2007 C 189.376 -1.99771 0.682254 0
M  V30 2008 O 188.724 -2.26515 -0.300522 0
M  V30 2009 C 188.934 -1.45075 3.17418 0
M  V30 2010 C 190.282 -1.91802 3.7881 0
M  V30 2011 O 191.306 -1.54838 3.20786 0
M  V30 2012 O 190.165 -2.5994 4.80722 0
M  V30 2013 H 187.259 -0.424267 0.709878 0
M  V30 2014 H 189.805 -0.143561 1.69092 0
M  V30 2015 H 188.577 -0.660846 3.85679 0
M  V30 2016 H 188.2 -2.27021 3.26416 0
M  V30 2017 N 189.197 -1.51736 -0.425897 0
M  V30 2018 C 190.127 -1.76827 -1.52494 0
M  V30 2019 C 191.108 -0.618524 -1.58456 0
M  V30 2020 O 192.293 -0.862416 -1.74 0
M  V30 2021 C 189.423 -1.90374 -2.90474 0
M  V30 2022 C 188.377 -3.0588 -2.99369 0
M  V30 2023 C 187.703 -3.04625 -4.3944 0
M  V30 2024 C 189.003 -4.45644 -2.72394 0
M  V30 2025 H 190.697 -2.68855 -1.31748 0
M  V30 2026 H 188.243 -1.29372 -0.632362 0
M  V30 2027 H 190.196 -2.0651 -3.6733 0
M  V30 2028 H 188.92 -0.95004 -3.12477 0
M  V30 2029 H 187.579 -2.89467 -2.24954 0
M  V30 2030 H 187.227 -2.0701 -4.58428 0
M  V30 2031 H 186.927 -3.82195 -4.46319 0
M  V30 2032 H 188.451 -3.22869 -5.18255 0
M  V30 2033 H 189.865 -4.62348 -3.38979 0
M  V30 2034 H 188.262 -5.25006 -2.9067 0
M  V30 2035 H 189.332 -4.54893 -1.67929 0
M  V30 2036 N 190.675 0.682077 -1.42076 0
M  V30 2037 C 191.921 1.44428 -1.42367 0
M  V30 2038 C 192.254 1.94164 -0.0373056 0
M  V30 2039 O 191.529 1.70429 0.937239 0
M  V30 2040 C 191.812 2.64654 -2.44194 0
M  V30 2041 C 191.665 2.20596 -3.91991 0
M  V30 2042 C 192.984 3.66865 -2.431 0
M  V30 2043 H 190.103 0.523834 -0.518428 0
M  V30 2044 H 192.745 0.77576 -1.73442 0
M  V30 2045 H 190.895 3.2169 -2.17826 0
M  V30 2046 H 192.567 1.68783 -4.29313 0
M  V30 2047 H 190.81 1.52242 -4.06208 0
M  V30 2048 H 191.481 3.06921 -4.58807 0
M  V30 2049 H 193.957 3.19531 -2.66532 0
M  V30 2050 H 192.833 4.48577 -3.16339 0
M  V30 2051 H 193.094 4.17493 -1.45437 0
M  V30 2052 N 192.153 1.28127 0.917671 0
M  V30 2053 C 193.083 1.14248 2.03641 0
M  V30 2054 C 194.064 0.0412748 1.7005 0
M  V30 2055 O 195.249 0.217566 1.92977 0
M  V30 2056 C 192.379 0.799431 3.37974 0
M  V30 2057 C 191.333 1.85497 3.85713 0
M  V30 2058 C 190.659 1.36565 5.16966 0
M  V30 2059 C 191.959 3.26085 4.08002 0
M  V30 2060 H 193.653 2.07835 2.15511 0
M  V30 2061 H 191.199 1.00064 1.03553 0
M  V30 2062 H 193.152 0.689114 4.15727 0
M  V30 2063 H 191.876 -0.172145 3.26146 0
M  V30 2064 H 190.535 1.95437 3.10161 0
M  V30 2065 H 190.183 0.383253 5.01538 0
M  V30 2066 H 189.883 2.07143 5.49878 0
M  V30 2067 H 191.407 1.26848 5.97279 0
M  V30 2068 H 192.821 3.19089 4.76293 0
M  V30 2069 H 191.218 3.94462 4.52238 0
M  V30 2070 H 192.288 3.70394 3.12948 0
M  V30 2071 N 193.631 -1.12557 1.10312 0
M  V30 2072 C 194.878 -1.84038 0.844759 0
M  V30 2073 C 195.206 -1.84026 -0.629668 0
M  V30 2074 O 194.461 -1.28026 -1.48013 0
M  V30 2075 C 194.76 -3.31462 1.33669 0
M  V30 2076 C 194.426 -3.51647 2.82232 0
M  V30 2077 C 193.088 -3.56864 3.22802 0
M  V30 2078 C 195.44 -3.58867 3.77974 0
M  V30 2079 C 192.768 -3.66844 4.57867 0
M  V30 2080 C 195.12 -3.70375 5.1284 0
M  V30 2081 C 193.784 -3.73848 5.52986 0
M  V30 2082 H 193.054 -0.673444 0.309119 0
M  V30 2083 H 195.701 -1.32824 1.37949 0
M  V30 2084 H 194.006 -3.85091 0.721949 0
M  V30 2085 H 195.703 -3.85236 1.11329 0
M  V30 2086 H 192.293 -3.48249 2.49842 0
M  V30 2087 H 196.477 -3.54107 3.47738 0
M  V30 2088 H 191.733 -3.67804 4.88396 0
M  V30 2089 H 195.907 -3.74904 5.86873 0
M  V30 2090 H 193.534 -3.81333 6.57639 0
M  V30 2091 N 195.109 -0.891671 -1.2995 0
M  V30 2092 C 196.039 -0.379797 -2.30391 0
M  V30 2093 C 197.02 0.540919 -1.6127 0
M  V30 2094 O 198.205 0.453352 -1.88834 0
M  V30 2095 C 195.335 0.400654 -3.44981 0
M  V30 2096 C 194.289 -0.428905 -4.25846 0
M  V30 2097 C 193.615 0.478557 -5.32554 0
M  V30 2098 C 194.915 -1.67458 -4.94727 0
M  V30 2099 H 196.609 -1.21914 -2.73454 0
M  V30 2100 H 194.155 -0.587675 -1.31462 0
M  V30 2101 H 196.108 0.769434 -4.14316 0
M  V30 2102 H 194.832 1.27371 -3.0074 0
M  V30 2103 H 193.491 -0.779911 -3.58208 0
M  V30 2104 H 193.139 1.34951 -4.84559 0
M  V30 2105 H 192.839 -0.0727433 -5.87555 0
M  V30 2106 H 194.363 0.843705 -6.04743 0
M  V30 2107 H 195.777 -1.376 -5.56542 0
M  V30 2108 H 194.174 -2.16659 -5.59624 0
M  V30 2109 H 195.244 -2.41518 -4.20473 0
M  V30 2110 N 196.587 1.43421 -0.653314 0
M  V30 2111 C 197.519 2.29071 0.0769134 0
M  V30 2112 C 198.532 1.42513 0.787017 0
M  V30 2113 O 199.721 1.66449 0.644757 0
M  V30 2114 C 196.821 3.19436 1.13199 0
M  V30 2115 C 195.994 4.34533 0.500006 0
M  V30 2116 C 195.053 5.05771 1.45198 0
M  V30 2117 O 194.079 5.61037 0.960538 0
M  V30 2118 N 195.281 5.0928 2.78594 0
M  V30 2119 H 198.046 2.92382 -0.658235 0
M  V30 2120 H 195.607 1.54112 -0.496104 0
M  V30 2121 H 197.599 3.63958 1.76964 0
M  V30 2122 H 196.169 2.57724 1.7691 0
M  V30 2123 H 195.389 3.92925 -0.316738 0
M  V30 2124 H 196.677 5.08766 0.0588345 0
M  V30 2125 H 196.075 4.65751 3.2108 0
M  V30 2126 H 194.632 5.57519 3.37662 0
M  V30 2127 N 198.065 0.39524 1.52563 0
M  V30 2128 C 198.995 -0.428384 2.29537 0
M  V30 2129 C 199.976 -1.05831 1.33169 0
M  V30 2130 O 201.161 -1.06995 1.62067 0
M  V30 2131 C 198.291 -1.55274 3.10656 0
M  V30 2132 C 197.245 -1.04855 4.14957 0
M  V30 2133 C 196.571 -2.26543 4.84337 0
M  V30 2134 C 197.871 -0.112324 5.22179 0
M  V30 2135 H 199.565 0.213867 2.98635 0
M  V30 2136 H 197.111 0.104298 1.43622 0
M  V30 2137 H 199.064 -2.1358 3.63265 0
M  V30 2138 H 197.788 -2.22266 2.39302 0
M  V30 2139 H 196.447 -0.487985 3.63338 0
M  V30 2140 H 196.095 -2.92059 4.09525 0
M  V30 2141 H 195.795 -1.93466 5.54837 0
M  V30 2142 H 197.319 -2.85481 5.39753 0
M  V30 2143 H 198.733 -0.603752 5.70112 0
M  V30 2144 H 197.13 0.128968 5.99961 0
M  V30 2145 H 198.2 0.837052 4.77621 0
M  V30 2146 N 199.544 -1.57102 0.125237 0
M  V30 2147 C 200.476 -2.12726 -0.853237 0
M  V30 2148 C 201.489 -1.07145 -1.22571 0
M  V30 2149 O 202.678 -1.34497 -1.17358 0
M  V30 2150 C 199.778 -2.61709 -2.15317 0
M  V30 2151 C 198.951 -3.91456 -1.95143 0
M  V30 2152 C 198.01 -4.25973 -3.08923 0
M  V30 2153 O 197.036 -4.94682 -2.81564 0
M  V30 2154 N 198.238 -3.83795 -4.35524 0
M  V30 2155 H 201.003 -2.97307 -0.377964 0
M  V30 2156 H 198.564 -1.61792 -0.0590011 0
M  V30 2157 H 200.556 -2.81826 -2.90441 0
M  V30 2158 H 199.126 -1.81974 -2.54174 0
M  V30 2159 H 198.346 -3.80185 -1.04177 0
M  V30 2160 H 199.634 -4.76283 -1.78976 0
M  V30 2161 H 199.032 -3.2839 -4.60626 0
M  V30 2162 H 197.589 -4.09008 -5.07499 0
M  V30 2163 N 201.022 0.148545 -1.56898 0
M  V30 2164 C 201.952 1.18524 -2.01182 0
M  V30 2165 C 202.933 1.4489 -0.891123 0
M  V30 2166 O 204.118 1.55836 -1.15882 0
M  V30 2167 C 201.248 2.51879 -2.39112 0
M  V30 2168 C 200.202 2.40038 -3.54353 0
M  V30 2169 C 199.528 3.78089 -3.78091 0
M  V30 2170 C 200.828 1.88577 -4.87069 0
M  V30 2171 H 202.522 0.817029 -2.88036 0
M  V30 2172 H 200.068 0.391575 -1.38574 0
M  V30 2173 H 202.021 3.24627 -2.68692 0
M  V30 2174 H 200.745 2.90532 -1.49193 0
M  V30 2175 H 199.404 1.69742 -3.24936 0
M  V30 2176 H 199.052 4.14175 -2.85426 0
M  V30 2177 H 198.752 3.71028 -4.55645 0
M  V30 2178 H 200.276 4.52387 -4.10095 0
M  V30 2179 H 201.69 2.51117 -5.15377 0
M  V30 2180 H 200.087 1.9241 -5.68417 0
M  V30 2181 H 201.157 0.84136 -4.77545 0
M  V30 2182 N 202.5 1.5196 0.417844 0
M  V30 2183 C 203.463 1.74065 1.49111 0
M  V30 2184 C 204.463 0.610537 1.48758 0
M  V30 2185 O 205.653 0.87832 1.50437 0
M  V30 2186 C 202.785 1.81502 2.88565 0
M  V30 2187 H 203.978 2.69869 1.30807 0
M  V30 2188 H 201.531 1.42244 0.647785 0
M  V30 2189 H 202.266 0.875813 3.1225 0
M  V30 2190 H 202.051 2.63651 2.90225 0
M  V30 2191 H 203.541 2.00376 3.66387 0
M  V30 2192 N 203.978 -0.674533 1.42435 0
M  V30 2193 C 205.255 -1.4305 1.33402 0
M  V30 2194 C 205.635 -2.11081 -0.0284674 0
M  V30 2195 O 204.983 -2.03257 -1.04397 0
M  V30 2196 C 205.193 -2.43272 2.50239 0
M  V30 2197 C 206.541 -3.07907 2.92367 0
M  V30 2198 O 207.565 -2.53599 2.50132 0
M  V30 2199 O 206.424 -4.0632 3.65467 0
M  V30 2200 H 203.518 -0.638076 0.526106 0
M  V30 2201 H 206.064 -0.703235 1.54443 0
M  V30 2202 H 204.836 -1.91803 3.41068 0
M  V30 2203 H 204.459 -3.23479 2.31186 0
M  V30 2204 N 205.456 -1.28612 -0.910864 0
M  V30 2205 C 206.419 -1.12803 -1.9952 0
M  V30 2206 C 207.419 -0.0668264 -1.60661 0
M  V30 2207 O 208.609 -0.312847 -1.71368 0
M  V30 2208 C 205.741 -0.72254 -3.33155 0
M  V30 2209 H 206.934 -2.09109 -2.14973 0
M  V30 2210 H 204.487 -1.11639 -1.09391 0
M  V30 2211 H 205.222 0.241152 -3.23402 0
M  V30 2212 H 205.007 -1.48916 -3.62721 0
M  V30 2213 H 206.497 -0.634666 -4.12749 0
M  V30 2214 N 206.934 1.1197 -1.10907 0
M  V30 2215 C 207.897 2.16031 -0.765707 0
M  V30 2216 C 208.897 1.59393 0.212235 0
M  V30 2217 O 210.087 1.74196 -0.0115441 0
M  V30 2218 C 207.219 3.40632 -0.135053 0
M  V30 2219 H 208.412 2.47919 -1.68748 0
M  V30 2220 H 205.965 1.27061 -0.910226 0
M  V30 2221 H 206.7 3.14348 0.797218 0
M  V30 2222 H 206.485 3.8302 -0.838937 0
M  V30 2223 H 207.975 4.17505 0.0892469 0
M  V30 2224 N 208.412 0.89855 1.29475 0
M  V30 2225 C 209.359 0.373819 2.27753 0
M  V30 2226 C 210.329 -0.543444 1.56958 0
M  V30 2227 O 211.514 -0.468934 1.84948 0
M  V30 2228 C 208.654 -0.393648 3.42848 0
M  V30 2229 C 207.767 0.554379 4.28428 0
M  V30 2230 C 206.902 -0.230026 5.30702 0
M  V30 2231 C 205.941 0.712599 6.07938 0
M  V30 2232 N 205.078 -0.0373283 7.0209 0
M  V30 2233 H 209.918 1.21699 2.72017 0
M  V30 2234 H 207.455 0.611456 1.33789 0
M  V30 2235 H 209.413 -0.85466 4.08352 0
M  V30 2236 H 208.043 -1.20128 2.99615 0
M  V30 2237 H 207.095 1.13391 3.63107 0
M  V30 2238 H 208.407 1.27597 4.82204 0
M  V30 2239 H 207.561 -0.752288 6.02018 0
M  V30 2240 H 206.3 -0.984758 4.77654 0
M  V30 2241 H 205.305 1.24637 5.35486 0
M  V30 2242 H 206.53 1.46664 6.63074 0
M  V30 2243 H 204.476 -0.774348 6.51414 0
M  V30 2244 H 204.393 0.624374 7.53417 0
M  V30 2245 H 205.661 -0.539891 7.77628 0
M  V30 2246 N 209.89 -1.43072 0.660911 0
M  V30 2247 C 211.306 -1.56169 0.329173 0
M  V30 2248 C 211.506 -1.64317 -1.16629 0
M  V30 2249 O 210.562 -1.60245 -1.95135 0
M  V30 2250 C 211.875 -2.81873 1.04729 0
M  V30 2251 C 213.423 -2.95627 1.02828 0
M  V30 2252 C 213.898 -4.24174 1.72744 0
M  V30 2253 N 215.389 -4.31055 1.69545 0
M  V30 2254 C 216.124 -5.29304 2.20511 0
M  V30 2255 N 215.62 -6.33786 2.79799 0
M  V30 2256 N 217.413 -5.21008 2.10966 0
M  V30 2257 H 209.564 -1.36027 1.63127 0
M  V30 2258 H 211.827 -0.653823 0.686454 0
M  V30 2259 H 211.533 -2.81942 2.10242 0
M  V30 2260 H 211.407 -3.72338 0.603702 0
M  V30 2261 H 213.794 -2.95094 -0.0184742 0
M  V30 2262 H 213.875 -2.06431 1.51063 0
M  V30 2263 H 213.519 -4.25467 2.7738 0
M  V30 2264 H 213.449 -5.1228 1.2197 0
M  V30 2265 H 215.94 -3.56174 1.26288 0
M  V30 2266 H 216.253 -7.05086 3.16344 0
M  V30 2267 H 214.598 -6.34387 2.83863 0
M  V30 2268 H 217.789 -4.38301 1.64347 0
M  V30 2269 H 217.962 -5.97416 2.50993 0
M  V30 2270 N 211.368 -0.403325 -1.52352 0
M  V30 2271 C 212.616 0.174003 -2.0135 0
M  V30 2272 C 212.937 1.46139 -1.29106 0
M  V30 2273 O 212.207 1.91448 -0.415253 0
M  V30 2274 H 210.787 0.0672911 -0.743963 0
M  V30 2275 H 213.449 -0.538235 -1.87321 0
M  V30 2276 H 212.545 0.374254 -3.09848 0
M  V30 2277 N 212.846 1.57033 -0.133567 0
M  V30 2278 C 213.809 2.14897 0.796995 0
M  V30 2279 C 214.809 1.0874 1.18458 0
M  V30 2280 O 215.999 1.34446 1.1077 0
M  V30 2281 C 213.131 2.70112 2.07973 0
M  V30 2282 H 214.324 2.98457 0.293873 0
M  V30 2283 H 211.877 1.55871 0.115787 0
M  V30 2284 H 212.612 1.9018 2.62682 0
M  V30 2285 H 212.397 3.47764 1.81115 0
M  V30 2286 H 213.887 3.14738 2.74462 0
M  V30 2287 N 214.325 -0.140222 1.56975 0
M  V30 2288 C 215.572 -0.851687 1.83719 0
M  V30 2289 C 215.9 -1.80862 0.715485 0
M  V30 2290 O 215.155 -1.93464 -0.294956 0
M  V30 2291 C 215.454 -1.65386 3.16832 0
M  V30 2292 C 215.12 -0.843112 4.42947 0
M  V30 2293 C 213.782 -0.619464 4.77196 0
M  V30 2294 C 216.134 -0.276582 5.20466 0
M  V30 2295 C 213.462 0.181312 5.8642 0
M  V30 2296 C 215.814 0.51127 6.30531 0
M  V30 2297 C 214.478 0.745432 6.63325 0
M  V30 2298 H 213.748 -0.311654 0.672274 0
M  V30 2299 H 216.395 -0.115006 1.91154 0
M  V30 2300 H 214.7 -2.46084 3.04877 0
M  V30 2301 H 216.397 -2.20793 3.34741 0
M  V30 2302 H 212.987 -1.0275 4.16101 0
M  V30 2303 H 217.171 -0.436632 4.94376 0
M  V30 2304 H 212.427 0.372165 6.10266 0
M  V30 2305 H 216.601 0.957354 6.89788 0
M  V30 2306 H 214.228 1.36778 7.47794 0
M  V30 2307 N 215.803 -1.52179 -0.40978 0
M  V30 2308 C 217.051 -1.65878 -1.15451 0
M  V30 2309 C 217.372 -0.390771 -1.91044 0
M  V30 2310 O 216.642 0.594323 -1.86667 0
M  V30 2311 H 215.222 -0.611405 -0.429177 0
M  V30 2312 H 217.884 -1.89219 -0.467134 0
M  V30 2313 H 216.98 -2.49954 -1.86894 0
M  V30 2314 N 217.281 0.66697 -1.42791 0
M  V30 2315 C 218.231 1.77313 -1.43332 0
M  V30 2316 C 219.215 1.5801 -0.303586 0
M  V30 2317 O 220.407 1.68356 -0.546385 0
M  V30 2318 C 217.536 3.15822 -1.34578 0
M  V30 2319 C 216.622 3.40721 -2.52528 0
M  V30 2320 N 217.013 3.36162 -3.77927 0
M  V30 2321 C 215.311 3.71387 -2.46956 0
M  V30 2322 C 216.012 3.60762 -4.56318 0
M  V30 2323 N 214.988 3.81908 -3.86843 0
M  V30 2324 H 218.79 1.72193 -2.38174 0
M  V30 2325 H 216.304 0.868114 -1.3725 0
M  V30 2326 H 218.301 3.951 -1.33048 0
M  V30 2327 H 216.961 3.22133 -0.407453 0
M  V30 2328 H 217.972 3.15885 -4.10411 0
M  V30 2329 H 214.649 3.84897 -1.61743 0
M  V30 2330 H 216.039 3.63132 -5.65318 0
M  V30 2331 N 218.759 1.29093 0.90403 0
M  V30 2332 C 219.669 1.15727 2.0407 0
M  V30 2333 C 220.685 0.0815308 1.73809 0
M  V30 2334 O 221.861 0.292749 1.99261 0
M  V30 2335 C 218.926 0.830424 3.36608 0
M  V30 2336 C 217.987 1.98955 3.80415 0
M  V30 2337 C 217.22 1.6782 5.06628 0
M  V30 2338 O 217.443 0.597105 5.67266 0
M  V30 2339 O 216.377 2.52486 5.46383 0
M  V30 2340 H 220.203 2.11171 2.18267 0
M  V30 2341 H 217.788 1.08504 1.027 0
M  V30 2342 H 219.67 0.662521 4.16159 0
M  V30 2343 H 218.345 -0.0942678 3.23563 0
M  V30 2344 H 217.252 2.21267 3.01648 0
M  V30 2345 H 218.585 2.89529 3.98037 0
M  V30 2346 N 220.237 -1.11381 1.11499 0
M  V30 2347 C 221.653 -1.35143 0.849031 0
M  V30 2348 C 221.853 -1.94515 -0.525938 0
M  V30 2349 O 220.909 -2.1785 -1.27662 0
M  V30 2350 C 222.222 -2.28249 1.95762 0
M  V30 2351 C 223.77 -2.41812 1.98736 0
M  V30 2352 C 224.245 -3.3824 3.088 0
M  V30 2353 N 225.736 -3.45803 3.08179 0
M  V30 2354 C 226.471 -4.20358 3.89982 0
M  V30 2355 N 225.967 -4.97884 4.8175 0
M  V30 2356 N 227.76 -4.15877 3.78157 0
M  V30 2357 H 219.911 -0.712062 2.00109 0
M  V30 2358 H 222.174 -0.376025 0.870235 0
M  V30 2359 H 221.88 -1.91817 2.94787 0
M  V30 2360 H 221.754 -3.28473 1.85433 0
M  V30 2361 H 224.141 -2.77518 1.00338 0
M  V30 2362 H 224.222 -1.41437 2.13141 0
M  V30 2363 H 223.866 -3.03261 4.07425 0
M  V30 2364 H 223.796 -4.38471 2.91635 0
M  V30 2365 H 226.287 -2.90506 2.41691 0
M  V30 2366 H 226.6 -5.52142 5.40702 0
M  V30 2367 H 224.945 -4.97043 4.85771 0
M  V30 2368 H 228.136 -3.544 3.05808 0
M  V30 2369 H 228.309 -4.73723 4.42143 0
M  V30 2370 N 221.715 -0.905404 -1.28997 0
M  V30 2371 C 222.945 -0.549049 -1.99171 0
M  V30 2372 C 223.353 0.87203 -1.67906 0
M  V30 2373 O 222.696 1.58796 -0.923561 0
M  V30 2374 C 222.758 -0.668306 -3.53234 0
M  V30 2375 C 222.422 -2.0574 -4.08069 0
M  V30 2376 C 223.419 -3.0292 -4.22534 0
M  V30 2377 C 221.104 -2.36833 -4.42962 0
M  V30 2378 C 223.098 -4.29314 -4.71135 0
M  V30 2379 C 220.785 -3.63467 -4.91258 0
M  V30 2380 C 221.783 -4.59522 -5.053 0
M  V30 2381 O 221.471 -5.83907 -5.52546 0
M  V30 2382 H 221.203 -0.208784 -0.64295 0
M  V30 2383 H 223.757 -1.21836 -1.65363 0
M  V30 2384 H 221.987 0.0580547 -3.86656 0
M  V30 2385 H 223.676 -0.320273 -4.04634 0
M  V30 2386 H 224.442 -2.80216 -3.95859 0
M  V30 2387 H 220.321 -1.62824 -4.31288 0
M  V30 2388 H 223.865 -5.04293 -4.8201 0
M  V30 2389 H 219.762 -3.86 -5.17372 0
M  V30 2390 H 220.53 -5.86578 -5.70849 0
M  V30 2391 N 223.193 1.4272 -0.668489 0
M  V30 2392 C 224.103 2.34596 0.0139753 0
M  V30 2393 C 225.119 1.5474 0.795703 0
M  V30 2394 O 226.295 1.87334 0.739466 0
M  V30 2395 C 223.36 3.33202 0.957982 0
M  V30 2396 C 222.421 4.28957 0.17149 0
M  V30 2397 C 221.654 5.22853 1.07053 0
M  V30 2398 O 221.877 5.21531 2.31001 0
M  V30 2399 O 220.811 5.9952 0.534727 0
M  V30 2400 H 224.637 2.9448 -0.742661 0
M  V30 2401 H 222.222 1.43117 -0.428705 0
M  V30 2402 H 224.104 3.93796 1.50008 0
M  V30 2403 H 222.779 2.758 1.69458 0
M  V30 2404 H 221.686 3.71796 -0.414558 0
M  V30 2405 H 223.019 4.89383 -0.52586 0
M  V30 2406 N 224.671 0.411399 1.52136 0
M  V30 2407 C 225.619 -0.427633 2.28635 0
M  V30 2408 C 226.613 -1.04383 1.33419 0
M  V30 2409 O 227.819 -0.981772 1.50868 0
M  V30 2410 H 224.194 -0.156689 0.735495 0
M  V30 2411 H 226.165 0.238761 2.97443 0
M  V30 2412 C 224.914 -1.53082 3.12188 0
M  V30 2413 H 224.237 -1.06601 3.85326 0
M  V30 2414 H 225.677 -2.09167 3.68816 0
M  V30 2415 C 224.136 -2.49946 2.25895 0
M  V30 2416 O 224.666 -3.53884 1.90076 0
M  V30 2417 N 222.872 -2.2021 1.8962 0
M  V30 2418 H 222.419 -1.35719 2.18948 0
M  V30 2419 H 222.377 -2.85266 1.32176 0
M  V30 2420 N 226.149 -1.5696 0.141893 0
M  V30 2421 C 227.397 -1.95573 -0.509484 0
M  V30 2422 C 227.718 -1.02746 -1.65736 0
M  V30 2423 O 226.988 -0.0880311 -1.95702 0
M  V30 2424 H 225.568 -0.722115 -0.191205 0
M  V30 2425 H 228.23 -1.93697 0.216196 0
M  V30 2426 H 227.326 -2.99171 -0.889 0
M  V30 2427 N 227.627 0.131896 -1.57047 0
M  V30 2428 C 228.59 1.14638 -1.98471 0
M  V30 2429 C 229.59 1.35029 -0.873148 0
M  V30 2430 O 230.78 1.31764 -1.13946 0
M  V30 2431 C 227.912 2.50358 -2.31373 0
M  V30 2432 H 229.105 0.79064 -2.8929 0
M  V30 2433 H 226.658 0.375761 -1.51716 0
M  V30 2434 H 227.393 2.90876 -1.43393 0
M  V30 2435 H 227.178 2.36915 -3.12432 0
M  V30 2436 H 228.668 3.23395 -2.64207 0
M  V30 2437 N 229.106 1.52395 0.401703 0
M  V30 2438 C 230.353 1.66817 1.14796 0
M  V30 2439 C 230.681 0.401772 1.90305 0
M  V30 2440 O 229.936 -0.615487 1.85769 0
M  V30 2441 C 230.235 2.84578 2.16217 0
M  V30 2442 C 229.901 4.22513 1.5746 0
M  V30 2443 C 228.563 4.60029 1.41161 0
M  V30 2444 C 230.915 5.0844 1.14622 0
M  V30 2445 C 228.243 5.81144 0.80552 0
M  V30 2446 C 230.595 6.30167 0.55428 0
M  V30 2447 C 229.259 6.66426 0.378482 0
M  V30 2448 H 228.529 0.610428 0.420069 0
M  V30 2449 H 231.176 1.86512 0.434212 0
M  V30 2450 H 229.481 2.59248 2.93764 0
M  V30 2451 H 231.178 2.92933 2.73845 0
M  V30 2452 H 227.768 3.92953 1.71132 0
M  V30 2453 H 231.952 4.80034 1.26021 0
M  V30 2454 H 227.208 6.07855 0.657399 0
M  V30 2455 H 231.382 6.96071 0.213983 0
M  V30 2456 H 229.009 7.60143 -0.0932606 0
M  V30 2457 N 230.584 -0.659388 1.43143 0
M  V30 2458 C 231.516 -1.7849 1.43784 0
M  V30 2459 C 232.529 -1.5932 0.334787 0
M  V30 2460 O 233.718 -1.68155 0.598842 0
M  V30 2461 C 230.818 -3.15828 1.22906 0
M  V30 2462 C 229.991 -3.61711 2.45934 0
M  V30 2463 C 229.05 -4.77831 2.20371 0
M  V30 2464 O 228.076 -4.87586 2.93681 0
M  V30 2465 N 229.278 -5.67611 1.21647 0
M  V30 2466 H 232.043 -1.7842 2.40803 0
M  V30 2467 H 229.604 -0.84302 1.3822 0
M  V30 2468 H 231.596 -3.91189 1.03697 0
M  V30 2469 H 230.166 -3.10707 0.343542 0
M  V30 2470 H 229.386 -2.76861 2.80609 0
M  V30 2471 H 230.674 -3.89112 3.27825 0
M  V30 2472 H 230.072 -5.62397 0.610449 0
M  V30 2473 H 228.629 -6.42719 1.08423 0
M  V30 2474 N 232.062 -1.29571 -0.897171 0
M  V30 2475 C 232.972 -1.16808 -2.03453 0
M  V30 2476 C 233.988 -0.0907471 -1.73763 0
M  V30 2477 O 235.164 -0.303312 -1.99103 0
M  V30 2478 C 232.229 -0.848264 -3.36163 0
M  V30 2479 C 231.29 -2.0097 -3.79354 0
M  V30 2480 C 230.523 -1.70505 -5.05731 0
M  V30 2481 O 230.746 -0.62718 -5.66941 0
M  V30 2482 O 229.68 -2.5538 -5.45036 0
M  V30 2483 H 233.506 -2.12325 -2.17144 0
M  V30 2484 H 231.091 -1.09047 -1.02123 0
M  V30 2485 H 232.973 -0.684581 -4.15802 0
M  V30 2486 H 231.648 0.0771071 -3.23608 0
M  V30 2487 H 230.555 -2.22863 -3.00471 0
M  V30 2488 H 231.888 -2.91636 -3.96496 0
M  V30 2489 N 233.54 1.10788 -1.12088 0
M  V30 2490 C 234.956 1.34691 -0.856186 0
M  V30 2491 C 235.156 1.94791 0.515615 0
M  V30 2492 O 234.212 2.18524 1.26505 0
M  V30 2493 C 235.525 2.27208 -1.9697 0
M  V30 2494 C 237.073 2.40755 -2.00016 0
M  V30 2495 C 237.548 3.36598 -3.1059 0
M  V30 2496 N 239.039 3.44164 -3.10008 0
M  V30 2497 C 239.774 4.18284 -3.92206 0
M  V30 2498 N 239.27 4.95322 -4.84384 0
M  V30 2499 N 241.063 4.13865 -3.80357 0
M  V30 2500 H 233.214 0.70144 -2.00483 0
M  V30 2501 H 235.477 0.371405 -0.872217 0
M  V30 2502 H 235.183 1.90251 -2.958 0
M  V30 2503 H 235.057 3.27485 -1.87172 0
M  V30 2504 H 237.444 2.76982 -1.01808 0
M  V30 2505 H 237.525 1.40305 -2.13888 0
M  V30 2506 H 237.169 3.01096 -4.09028 0
M  V30 2507 H 237.099 4.36918 -2.93956 0
M  V30 2508 H 239.59 2.8922 -2.43228 0
M  V30 2509 H 239.903 5.49267 -5.43623 0
M  V30 2510 H 238.248 4.94459 -4.884 0
M  V30 2511 H 241.439 3.52773 -3.07683 0
M  V30 2512 H 241.612 4.71372 -4.44649 0
M  V30 2513 N 235.018 0.912232 1.28515 0
M  V30 2514 C 235.981 0.404223 2.25607 0
M  V30 2515 C 236.981 -0.468602 1.53821 0
M  V30 2516 O 238.171 -0.271873 1.72065 0
M  V30 2517 C 235.303 -0.420653 3.38295 0
M  V30 2518 H 236.496 1.26188 2.7206 0
M  V30 2519 H 234.049 0.691495 1.40171 0
M  V30 2520 H 234.784 -1.29777 2.97201 0
M  V30 2521 H 234.569 0.204935 3.91564 0
M  V30 2522 H 236.059 -0.766971 4.10496 0
M  V30 2523 N 236.496 -1.42363 0.676048 0
M  V30 2524 C 237.426 -2.33497 0.0124832 0
M  V30 2525 C 238.407 -1.50748 -0.787981 0
M  V30 2526 O 239.592 -1.79346 -0.744884 0
M  V30 2527 C 236.722 -3.34377 -0.938582 0
M  V30 2528 C 235.676 -4.27289 -0.246622 0
M  V30 2529 C 235.002 -5.18386 -1.31071 0
M  V30 2530 C 236.302 -5.14916 0.875125 0
M  V30 2531 H 237.996 -2.89233 0.773593 0
M  V30 2532 H 235.542 -1.39073 0.37346 0
M  V30 2533 H 237.495 -3.97044 -1.41188 0
M  V30 2534 H 236.219 -2.76947 -1.73113 0
M  V30 2535 H 234.878 -3.66018 0.206456 0
M  V30 2536 H 234.526 -4.57282 -2.09528 0
M  V30 2537 H 234.226 -5.81378 -0.852839 0
M  V30 2538 H 235.75 -5.83929 -1.78492 0
M  V30 2539 H 237.164 -5.71262 0.482983 0
M  V30 2540 H 235.561 -5.86747 1.25887 0
M  V30 2541 H 236.631 -4.53242 1.72335 0
M  V30 2542 N 237.974 -0.419461 -1.51915 0
M  V30 2543 C 239.39 -0.0708431 -1.59443 0
M  V30 2544 C 239.59 1.41796 -1.43164 0
M  V30 2545 O 238.646 2.18596 -1.26381 0
M  V30 2546 C 239.959 -0.574991 -2.95151 0
M  V30 2547 C 241.507 -0.533867 -3.08413 0
M  V30 2548 C 241.982 -1.01469 -4.46618 0
M  V30 2549 N 243.473 -0.971939 -4.52888 0
M  V30 2550 C 244.208 -1.31505 -5.58116 0
M  V30 2551 N 243.704 -1.73014 -6.70849 0
M  V30 2552 N 245.497 -1.23436 -5.48379 0
M  V30 2553 H 237.648 -1.38836 -1.60743 0
M  V30 2554 H 239.911 -0.570998 -0.756747 0
M  V30 2555 H 239.617 -1.61597 -3.12377 0
M  V30 2556 H 239.491 0.00979777 -3.77199 0
M  V30 2557 H 241.878 0.498086 -2.90866 0
M  V30 2558 H 241.959 -1.15484 -2.28248 0
M  V30 2559 H 241.603 -2.04502 -4.6491 0
M  V30 2560 H 241.533 -0.370433 -5.25295 0
M  V30 2561 H 244.024 -0.666893 -3.71969 0
M  V30 2562 H 244.337 -1.97479 -7.47143 0
M  V30 2563 H 242.682 -1.76926 -6.72103 0
M  V30 2564 H 245.873 -0.908869 -4.59192 0
M  V30 2565 H 246.046 -1.50506 -6.30279 0
M  V30 2566 N 239.452 1.56882 -0.150215 0
M  V30 2567 C 240.692 1.98119 0.502804 0
M  V30 2568 C 241.056 1.03327 1.61826 0
M  V30 2569 O 242.257 1.33621 2.33236 0
M  V30 2570 C 240.528 3.43329 0.992988 0
M  V30 2571 S 242.087 4.0659 1.65015 0
M  V30 2572 H 238.905 0.692189 0.162467 0
M  V30 2573 H 241.507 1.93988 -0.242689 0
M  V30 2574 H 240.211 4.10046 0.170436 0
M  V30 2575 H 239.742 3.5118 1.77303 0
M  V30 2576 H 241.757 3.99906 2.93752 0
M  V30 2577 N 240.93 -0.123565 1.57115 0
M  V30 2578 C 242.177 -0.832153 1.84612 0
M  V30 2579 C 242.505 -1.80093 0.734627 0
M  V30 2580 O 241.76 -1.93766 -0.27442 0
M  V30 2581 C 242.059 -1.62016 3.18568 0
M  V30 2582 C 241.725 -0.796084 4.43817 0
M  V30 2583 C 240.387 -0.568816 4.77826 0
M  V30 2584 C 242.739 -0.221364 5.2073 0
M  V30 2585 C 240.067 0.243499 5.86194 0
M  V30 2586 C 242.419 0.578117 6.29953 0
M  V30 2587 C 241.083 0.815744 6.62497 0
M  V30 2588 H 240.353 -0.304507 0.675542 0
M  V30 2589 H 243 -0.0947248 1.91266 0
M  V30 2590 H 241.305 -2.42837 3.0747 0
M  V30 2591 H 243.002 -2.17231 3.37064 0
M  V30 2592 H 239.592 -0.983307 4.17168 0
M  V30 2593 H 243.776 -0.384173 4.94811 0
M  V30 2594 H 239.032 0.436871 6.09837 0
M  V30 2595 H 243.206 1.03046 6.88734 0
M  V30 2596 H 240.833 1.44701 7.46301 0
M  V30 2597 N 242.408 -1.52605 -0.393616 0
M  V30 2598 C 243.358 -1.73436 -1.48 0
M  V30 2599 C 244.342 -0.588386 -1.49756 0
M  V30 2600 O 245.534 -0.846047 -1.5547 0
M  V30 2601 C 242.663 -1.90247 -2.85764 0
M  V30 2602 C 241.749 -3.10763 -2.88595 0
M  V30 2603 N 242.14 -4.33196 -2.61103 0
M  V30 2604 C 240.438 -3.10914 -3.19763 0
M  V30 2605 C 241.139 -5.1477 -2.70899 0
M  V30 2606 N 240.115 -4.50356 -3.04435 0
M  V30 2607 H 243.917 -2.65727 -1.25563 0
M  V30 2608 H 241.431 -1.5085 -0.601513 0
M  V30 2609 H 243.428 -2.03291 -3.63976 0
M  V30 2610 H 242.088 -0.991663 -3.09186 0
M  V30 2611 H 243.099 -4.61408 -2.35209 0
M  V30 2612 H 239.776 -2.29626 -3.4868 0
M  V30 2613 H 241.166 -6.22355 -2.53227 0
M  V30 2614 N 243.887 0.651787 -1.4349 0
M  V30 2615 C 244.819 1.77725 -1.44729 0
M  V30 2616 C 245.832 1.59141 -0.343231 0
M  V30 2617 O 247.021 1.67835 -0.607751 0
M  V30 2618 C 244.121 3.15172 -1.24579 0
M  V30 2619 C 243.294 3.60402 -2.47849 0
M  V30 2620 C 242.353 4.76656 -2.22902 0
M  V30 2621 O 241.379 4.86022 -2.96263 0
M  V30 2622 N 242.581 5.66958 -1.24656 0
M  V30 2623 H 245.346 1.77141 -2.41746 0
M  V30 2624 H 242.907 0.835678 -1.38665 0
M  V30 2625 H 244.899 3.90634 -1.0577 0
M  V30 2626 H 243.469 3.1052 -0.360015 0
M  V30 2627 H 242.689 2.75369 -2.82073 0
M  V30 2628 H 243.977 3.87368 -3.29884 0
M  V30 2629 H 243.375 5.62065 -0.640265 0
M  V30 2630 H 241.932 6.42135 -1.1183 0
M  V30 2631 N 245.365 1.30045 0.890287 0
M  V30 2632 C 246.295 1.18541 2.01172 0
M  V30 2633 C 247.276 0.0773356 1.69924 0
M  V30 2634 O 248.461 0.25845 1.92473 0
M  V30 2635 C 245.591 0.870941 3.36202 0
M  V30 2636 C 244.545 1.93637 3.81692 0
M  V30 2637 C 243.871 1.475 5.13953 0
M  V30 2638 C 245.171 3.34666 4.00994 0
M  V30 2639 H 246.865 2.12359 2.11054 0
M  V30 2640 H 244.411 1.02238 1.01407 0
M  V30 2641 H 246.364 0.777141 4.14172 0
M  V30 2642 H 245.088 -0.102926 3.26438 0
M  V30 2643 H 243.747 2.01972 3.05946 0
M  V30 2644 H 243.395 0.489551 5.00612 0
M  V30 2645 H 243.095 2.1876 5.4536 0
M  V30 2646 H 244.619 1.39489 5.94454 0
M  V30 2647 H 246.033 3.2912 4.69417 0
M  V30 2648 H 244.43 4.03966 4.43769 0
M  V30 2649 H 245.5 3.76949 3.05021 0
M  V30 2650 N 246.843 -1.10192 1.12674 0
M  V30 2651 C 247.776 -2.15847 0.740625 0
M  V30 2652 C 248.754 -1.60352 -0.269421 0
M  V30 2653 O 249.938 -1.87796 -0.16278 0
M  V30 2654 C 247.065 -3.38562 0.096641 0
M  V30 2655 C 246.111 -4.12758 1.07391 0
M  V30 2656 S 246.944 -4.67997 2.60267 0
M  V30 2657 C 248.1 -5.94021 1.97206 0
M  V30 2658 H 248.333 -2.48266 1.63558 0
M  V30 2659 H 245.866 -1.22019 0.946087 0
M  V30 2660 H 247.824 -4.09621 -0.268535 0
M  V30 2661 H 246.485 -3.04377 -0.775462 0
M  V30 2662 H 245.678 -5.00755 0.570997 0
M  V30 2663 H 245.28 -3.47523 1.38216 0
M  V30 2664 H 247.572 -6.64589 1.31634 0
M  V30 2665 H 248.515 -6.48979 2.83253 0
M  V30 2666 H 248.923 -5.46169 1.42686 0
M  V30 2667 N 248.321 -0.919034 -1.28029 0
M  V30 2668 C 249.268 -0.410005 -2.27129 0
M  V30 2669 C 250.238 0.518405 -1.57803 0
M  V30 2670 O 251.423 0.439451 -1.8567 0
M  V30 2671 C 248.563 0.339054 -3.4343 0
M  V30 2672 C 247.676 -0.622468 -4.27492 0
M  V30 2673 C 246.811 0.145567 -5.31001 0
M  V30 2674 C 245.85 -0.809226 -6.06727 0
M  V30 2675 N 244.987 -0.0743728 -7.02061 0
M  V30 2676 H 249.827 -1.26011 -2.70047 0
M  V30 2677 H 247.364 -0.632663 -1.328 0
M  V30 2678 H 249.322 0.789586 -4.0966 0
M  V30 2679 H 247.952 1.15346 -3.01488 0
M  V30 2680 H 247.004 -1.19153 -3.61257 0
M  V30 2681 H 248.316 -1.35252 -4.80113 0
M  V30 2682 H 247.47 0.656417 -6.03139 0
M  V30 2683 H 246.209 0.908643 -4.79161 0
M  V30 2684 H 245.214 -1.3314 -5.33436 0
M  V30 2685 H 246.439 -1.57194 -6.60656 0
M  V30 2686 H 244.385 0.670616 -6.52563 0
M  V30 2687 H 244.302 -0.744157 -7.52329 0
M  V30 2688 H 245.57 0.416109 -7.78389 0
M  V30 2689 N 249.799 1.42003 -0.683588 0
M  V30 2690 C 251.076 1.95112 -0.138075 0
M  V30 2691 C 251.456 1.62359 1.34918 0
M  V30 2692 O 250.804 0.924311 2.08971 0
M  V30 2693 C 251.014 3.46505 -0.416581 0
M  V30 2694 C 252.362 4.23254 -0.337834 0
M  V30 2695 O 253.386 3.54468 -0.35082 0
M  V30 2696 O 252.245 5.45743 -0.287596 0
M  V30 2697 H 249.339 0.826961 -0.00797996 0
M  V30 2698 H 251.885 1.51784 -0.758924 0
M  V30 2699 H 250.657 3.63582 -1.4465 0
M  V30 2700 H 250.28 3.969 0.235839 0
M  V30 2701 N 251.277 0.427512 1.51691 0
M  V30 2702 C 252.505 -0.141191 2.06418 0
M  V30 2703 C 252.92 -1.37303 1.29589 0
M  V30 2704 O 252.277 -1.79059 0.352732 0
M  V30 2705 C 252.328 -0.473266 3.58389 0
M  V30 2706 O 252.049 0.709673 4.32314 0
M  V30 2707 C 253.55 -1.09371 4.29596 0
M  V30 2708 H 250.77 -0.0122747 0.670888 0
M  V30 2709 H 253.314 0.603764 1.95384 0
M  V30 2710 H 251.469 -1.16812 3.69369 0
M  V30 2711 H 251.883 0.42807 5.2275 0
M  V30 2712 H 253.357 -1.27613 5.37046 0
M  V30 2713 H 253.834 -2.072 3.87253 0
M  V30 2714 H 254.44 -0.43853 4.23033 0
M  V30 2715 N 252.755 -1.56801 0.158532 0
M  V30 2716 C 253.983 -2.00859 -0.496303 0
M  V30 2717 C 254.398 -1.03871 -1.57659 0
M  V30 2718 O 253.755 -0.0375165 -1.82461 0
M  V30 2719 C 253.806 -3.4479 -1.08638 0
M  V30 2720 O 253.527 -4.38072 -0.0492322 0
M  V30 2721 C 255.028 -4.04185 -1.8207 0
M  V30 2722 H 252.248 -0.65864 -0.128199 0
M  V30 2723 H 254.792 -2.02885 0.256506 0
M  V30 2724 H 252.947 -3.43579 -1.78975 0
M  V30 2725 H 253.361 -5.2227 -0.483102 0
M  V30 2726 H 254.835 -5.06857 -2.18633 0
M  V30 2727 H 255.312 -3.45549 -2.71095 0
M  V30 2728 H 255.918 -4.0906 -1.16405 0
M  V30 2729 N 254.233 0.115231 -1.57178 0
M  V30 2730 C 255.163 1.1423 -2.03651 0
M  V30 2731 C 256.144 1.42967 -0.921655 0
M  V30 2732 O 257.329 1.53343 -1.19162 0
M  V30 2733 C 254.459 2.4675 -2.44401 0
M  V30 2734 C 253.413 2.32467 -3.59365 0
M  V30 2735 C 252.739 3.69984 -3.86026 0
M  V30 2736 C 254.039 1.78203 -4.90959 0
M  V30 2737 H 255.733 0.755749 -2.89705 0
M  V30 2738 H 253.279 0.362093 -1.39373 0
M  V30 2739 H 255.232 3.18854 -2.75517 0
M  V30 2740 H 253.956 2.87302 -1.55322 0
M  V30 2741 H 252.615 1.62811 -3.28463 0
M  V30 2742 H 252.263 4.08028 -2.94147 0
M  V30 2743 H 251.963 3.61279 -4.63412 0
M  V30 2744 H 253.487 4.43587 -4.19599 0
M  V30 2745 H 254.901 2.40128 -5.20587 0
M  V30 2746 H 253.298 1.8031 -5.72371 0
M  V30 2747 H 254.368 0.739876 -4.79222 0
M  V30 2748 N 255.711 1.52812 0.385517 0
M  V30 2749 C 256.659 1.78482 1.49155 0
M  V30 2750 C 257.653 0.652914 1.56312 0
M  V30 2751 O 258.859 0.835464 1.59436 0
M  V30 2752 H 255.234 0.5648 0.496493 0
M  V30 2753 H 257.205 2.71095 1.24699 0
M  V30 2754 C 255.954 1.97378 2.86247 0
M  V30 2755 H 255.277 2.83907 2.81491 0
M  V30 2756 H 256.717 2.19327 3.62866 0
M  V30 2757 C 255.176 0.74728 3.28508 0
M  V30 2758 O 255.706 -0.0736232 4.01633 0
M  V30 2759 N 253.912 0.576396 2.84826 0
M  V30 2760 H 253.459 1.24555 2.25486 0
M  V30 2761 H 253.417 -0.24288 3.1346 0
M  V30 2762 N 257.189 -0.644168 1.43834 0
M  V30 2763 C 258.435 -1.40431 1.47141 0
M  V30 2764 C 258.79 -1.92153 0.0975577 0
M  V30 2765 O 258.083 -1.69924 -0.885232 0
M  V30 2766 C 258.277 -2.59615 2.45631 0
M  V30 2767 C 258.106 -2.1956 3.92458 0
M  V30 2768 C 256.876 -2.07456 4.60749 0
M  V30 2769 C 259.074 -1.79281 4.8204 0
M  V30 2770 N 257.056 -1.60827 5.92459 0
M  V30 2771 C 258.427 -1.43801 6.03093 0
M  V30 2772 C 260.482 -1.66545 4.6922 0
M  V30 2773 C 259.185 -0.968599 7.12749 0
M  V30 2774 C 261.211 -1.21008 5.78888 0
M  V30 2775 C 260.573 -0.864711 6.99072 0
M  V30 2776 H 256.672 -0.509182 0.593513 0
M  V30 2777 H 259.256 -0.740351 1.80075 0
M  V30 2778 H 257.427 -3.23658 2.1471 0
M  V30 2779 H 259.159 -3.26357 2.39318 0
M  V30 2780 H 255.914 -2.275 4.1538 0
M  V30 2781 H 256.338 -1.39848 6.62398 0
M  V30 2782 H 260.98 -1.91883 3.7675 0
M  V30 2783 H 258.698 -0.702715 8.05039 0
M  V30 2784 H 262.284 -1.11631 5.7099 0
M  V30 2785 H 261.164 -0.517736 7.82489 0
M  V30 2786 N 258.668 -1.30515 -0.883378 0
M  V30 2787 C 259.615 -1.17032 -1.98927 0
M  V30 2788 C 260.585 -0.0594241 -1.65994 0
M  V30 2789 O 261.77 -0.229895 -1.8941 0
M  V30 2790 C 258.91 -0.869777 -3.33959 0
M  V30 2791 C 258.023 -2.06271 -3.79574 0
M  V30 2792 C 257.158 -1.70011 -5.03259 0
M  V30 2793 C 256.197 -2.8579 -5.41286 0
M  V30 2794 N 255.334 -2.49816 -6.56153 0
M  V30 2795 H 260.174 -2.1164 -2.09792 0
M  V30 2796 H 257.711 -1.05296 -1.02719 0
M  V30 2797 H 259.669 -0.676138 -4.11685 0
M  V30 2798 H 258.299 0.0394332 -3.22776 0
M  V30 2799 H 257.351 -2.36755 -2.97744 0
M  V30 2800 H 258.663 -2.92971 -4.03694 0
M  V30 2801 H 257.817 -1.47032 -5.88614 0
M  V30 2802 H 256.556 -0.804829 -4.81013 0
M  V30 2803 H 255.561 -3.09434 -4.54456 0
M  V30 2804 H 256.786 -3.76008 -5.65504 0
M  V30 2805 H 254.732 -1.62795 -6.35479 0
M  V30 2806 H 254.649 -3.30048 -6.8015 0
M  V30 2807 H 255.917 -2.30197 -7.44735 0
M  V30 2808 N 260.146 1.09593 -1.13257 0
M  V30 2809 C 261.079 2.15451 -0.752061 0
M  V30 2810 C 262.057 1.60493 0.260913 0
M  V30 2811 O 263.241 1.8788 0.152819 0
M  V30 2812 C 260.368 3.38506 -0.114594 0
M  V30 2813 C 259.414 4.12183 -1.09579 0
M  V30 2814 S 260.247 4.6661 -2.62745 0
M  V30 2815 C 261.403 5.92966 -2.00354 0
M  V30 2816 H 261.636 2.47395 -1.64872 0
M  V30 2817 H 259.169 1.21515 -0.952545 0
M  V30 2818 H 261.127 4.09757 0.246808 0
M  V30 2819 H 259.788 3.04784 0.759309 0
M  V30 2820 H 258.981 5.00445 -0.597545 0
M  V30 2821 H 258.583 3.46785 -1.40057 0
M  V30 2822 H 260.875 6.63882 -1.35156 0
M  V30 2823 H 261.818 6.47467 -2.86691 0
M  V30 2824 H 262.226 5.45405 -1.4558 0
M  V30 2825 N 261.624 0.925811 1.2754 0
M  V30 2826 C 262.87 0.566092 1.94739 0
M  V30 2827 C 263.203 -0.890057 1.72603 0
M  V30 2828 O 262.478 -1.63467 1.05399 0
M  V30 2829 C 262.761 0.89054 3.48915 0
M  V30 2830 C 262.614 2.4003 3.80402 0
M  V30 2831 C 263.933 0.395101 4.38323 0
M  V30 2832 H 261.052 0.20714 0.707292 0
M  V30 2833 H 263.694 1.15725 1.50691 0
M  V30 2834 H 261.844 0.387452 3.86563 0
M  V30 2835 H 263.516 2.97494 3.52555 0
M  V30 2836 H 261.759 2.85028 3.2702 0
M  V30 2837 H 262.43 2.57785 4.8811 0
M  V30 2838 H 264.906 0.826241 4.07814 0
M  V30 2839 H 263.782 0.651086 5.45025 0
M  V30 2840 H 264.043 -0.704798 4.36446 0
M  V30 2841 N 263.102 -1.41638 0.69111 0
M  V30 2842 C 264.379 -1.95036 0.148421 0
M  V30 2843 C 264.759 -1.63072 -1.34055 0
M  V30 2844 O 264.107 -0.93538 -2.08478 0
M  V30 2845 C 264.317 -3.46279 0.434951 0
M  V30 2846 C 265.665 -4.23069 0.360275 0
M  V30 2847 O 266.689 -3.54277 0.369613 0
M  V30 2848 O 265.548 -5.45583 0.316534 0
M  V30 2849 H 262.642 -0.826908 0.0123654 0
M  V30 2850 H 265.188 -1.5138 0.766963 0
M  V30 2851 H 263.96 -3.6281 1.46576 0
M  V30 2852 H 263.583 -3.97019 -0.214787 0
M  V30 2853 N 264.58 -0.43555 -1.51462 0
M  V30 2854 C 265.543 0.365137 -2.26273 0
M  V30 2855 C 266.543 0.951227 -1.29647 0
M  V30 2856 O 267.733 0.825958 -1.53374 0
M  V30 2857 C 264.865 1.51645 -3.05314 0
M  V30 2858 H 266.058 -0.290474 -2.9849 0
M  V30 2859 H 263.611 -0.188676 -1.55157 0
M  V30 2860 H 264.346 2.20816 -2.3751 0
M  V30 2861 H 264.131 1.10238 -3.76284 0
M  V30 2862 H 265.621 2.08218 -3.61987 0
M  V30 2863 N 266.058 1.56714 -0.166846 0
M  V30 2864 C 267.283 2.01557 0.488833 0
M  V30 2865 C 267.708 1.0463 1.56314 0
M  V30 2866 O 267.066 0.0251304 1.81283 0
M  V30 2867 C 267.114 3.4503 1.04818 0
M  V30 2868 O 266.218 3.51163 2.16236 0
M  V30 2869 H 265.559 0.653516 0.117526 0
M  V30 2870 H 268.089 2.02818 -0.269421 0
M  V30 2871 H 268.099 3.84243 1.37191 0
M  V30 2872 H 266.774 4.15077 0.261572 0
M  V30 2873 H 265.351 3.23807 1.84942 0
M  V30 2874 N 267.536 -0.106894 1.57237 0
M  V30 2875 C 268.483 -1.13049 2.01217 0
M  V30 2876 C 269.453 -1.40471 0.886403 0
M  V30 2877 O 270.638 -1.52133 1.15153 0
M  V30 2878 C 267.778 -2.4487 2.43172 0
M  V30 2879 C 266.891 -2.24281 3.69218 0
M  V30 2880 C 266.026 -3.49417 4.00101 0
M  V30 2881 C 265.065 -3.24038 5.19294 0
M  V30 2882 N 264.202 -4.41409 5.45988 0
M  V30 2883 H 269.042 -0.748456 2.88448 0
M  V30 2884 H 266.579 -0.358054 1.42676 0
M  V30 2885 H 268.537 -3.21786 2.65537 0
M  V30 2886 H 267.167 -2.80944 1.58967 0
M  V30 2887 H 266.219 -1.38224 3.54398 0
M  V30 2888 H 267.531 -2.01512 4.56283 0
M  V30 2889 H 266.685 -4.34746 4.2318 0
M  V30 2890 H 265.424 -3.75229 3.11535 0
M  V30 2891 H 264.429 -2.37102 4.96047 0
M  V30 2892 H 265.654 -2.99584 6.09447 0
M  V30 2893 H 263.6 -4.67319 4.60379 0
M  V30 2894 H 263.517 -4.21788 6.274 0
M  V30 2895 H 264.785 -5.27836 5.73593 0
M  V30 2896 N 269.014 -1.53014 -0.377408 0
M  V30 2897 C 270.239 -1.72818 -1.14668 0
M  V30 2898 C 270.664 -0.450725 -1.8262 0
M  V30 2899 O 270.022 0.59439 -1.7128 0
M  V30 2900 C 270.07 -2.88627 -2.16164 0
M  V30 2901 O 269.174 -2.56409 -3.22998 0
M  V30 2902 H 268.515 -0.574301 -0.333278 0
M  V30 2903 H 271.045 -1.99853 -0.438152 0
M  V30 2904 H 271.055 -3.14455 -2.59966 0
M  V30 2905 H 269.73 -3.81294 -1.66095 0
M  V30 2906 H 268.307 -2.4136 -2.84253 0
M  V30 2907 N 270.492 0.636531 -1.44174 0
M  V30 2908 C 271.741 1.39213 -1.45954 0
M  V30 2909 C 272.054 1.95374 -0.0939119 0
M  V30 2910 O 273.26 2.71498 0.0107767 0
M  V30 2911 C 271.716 2.52025 -2.56927 0
M  V30 2912 C 271.324 2.024 -3.99673 0
M  V30 2913 C 273.068 3.29269 -2.67922 0
M  V30 2914 C 270.975 3.12521 -5.0208 0
M  V30 2915 H 269.905 0.523132 -0.542999 0
M  V30 2916 H 272.556 0.685349 -1.70221 0
M  V30 2917 H 270.938 3.25253 -2.25891 0
M  V30 2918 H 272.112 1.36073 -4.40251 0
M  V30 2919 H 270.427 1.37987 -3.92872 0
M  V30 2920 H 273.024 4.11352 -3.41605 0
M  V30 2921 H 273.367 3.78397 -1.73555 0
M  V30 2922 H 273.9 2.63129 -2.98342 0
M  V30 2923 H 270.639 2.68343 -5.98057 0
M  V30 2924 H 270.159 3.77507 -4.66099 0
M  V30 2925 H 271.838 3.77385 -5.25538 0
M  V30 2926 N 271.97 1.30982 0.876444 0
M  V30 2927 C 272.88 1.2003 2.01569 0
M  V30 2928 C 273.896 0.11838 1.73597 0
M  V30 2929 O 275.072 0.33495 1.98595 0
M  V30 2930 C 272.137 0.901637 3.34771 0
M  V30 2931 C 271.198 2.06979 3.76109 0
M  V30 2932 C 270.431 1.78529 5.02954 0
M  V30 2933 O 270.654 0.717296 5.65872 0
M  V30 2934 O 269.588 2.64019 5.40905 0
M  V30 2935 H 273.414 2.15753 2.13739 0
M  V30 2936 H 270.999 1.10658 1.00375 0
M  V30 2937 H 272.881 0.750645 4.1466 0
M  V30 2938 H 271.556 -0.0256141 3.2369 0
M  V30 2939 H 270.463 2.27616 2.96887 0
M  V30 2940 H 271.796 2.97907 3.91807 0
M  V30 2941 N 273.449 -1.08991 1.13837 0
M  V30 2942 C 274.412 -2.13925 0.822715 0
M  V30 2943 C 275.412 -1.599 -0.1699 0
M  V30 2944 O 276.602 -1.74104 0.0577251 0
M  V30 2945 C 273.734 -3.40155 0.225318 0
M  V30 2946 H 274.927 -2.43358 1.75262 0
M  V30 2947 H 272.48 -1.24603 0.943594 0
M  V30 2948 H 273.215 -3.16352 -0.713594 0
M  V30 2949 H 273 -3.80661 0.940193 0
M  V30 2950 H 274.49 -4.17594 0.0214784 0
M  V30 2951 N 274.927 -0.932562 -1.27047 0
M  V30 2952 C 276.173 -0.576412 -1.94436 0
M  V30 2953 C 276.506 0.880891 -1.73072 0
M  V30 2954 O 275.781 1.62905 -1.06264 0
M  V30 2955 C 276.064 -0.909031 -3.48437 0
M  V30 2956 C 275.917 -2.42044 -3.79123 0
M  V30 2957 C 277.236 -0.418341 -4.38107 0
M  V30 2958 H 274.355 -0.210888 -0.706184 0
M  V30 2959 H 276.997 -1.16522 -1.50075 0
M  V30 2960 H 275.147 -0.407947 -3.86352 0
M  V30 2961 H 276.819 -2.99359 -3.50973 0
M  V30 2962 H 275.062 -2.86758 -3.25503 0
M  V30 2963 H 275.733 -2.6037 -4.86736 0
M  V30 2964 H 278.209 -0.847856 -4.0737 0
M  V30 2965 H 277.085 -0.679981 -5.44672 0
M  V30 2966 H 277.346 0.681642 -4.36814 0
M  V30 2967 N 276.405 1.4127 -0.698611 0
M  V30 2968 C 277.355 2.27997 -0.0119836 0
M  V30 2969 C 278.339 1.42363 0.749765 0
M  V30 2970 O 279.531 1.65607 0.624758 0
M  V30 2971 C 276.66 3.30702 0.921458 0
M  V30 2972 C 275.746 4.23814 0.155796 0
M  V30 2973 N 276.137 4.98572 -0.852015 0
M  V30 2974 C 274.435 4.44284 0.390836 0
M  V30 2975 C 275.136 5.66744 -1.3106 0
M  V30 2976 N 274.112 5.39867 -0.635944 0
M  V30 2977 H 277.914 2.83232 -0.784649 0
M  V30 2978 H 275.428 1.53518 -0.529711 0
M  V30 2979 H 277.425 3.91661 1.42854 0
M  V30 2980 H 276.085 2.77028 1.69369 0
M  V30 2981 H 277.096 5.03024 -1.23235 0
M  V30 2982 H 273.773 4.01614 1.14071 0
M  V30 2983 H 275.163 6.36672 -2.14707 0
M  V30 2984 N 277.883 0.443576 1.51229 0
M  V30 2985 C 278.793 -0.370721 2.31652 0
M  V30 2986 C 279.809 -1.02186 1.40833 0
M  V30 2987 O 280.985 -1.01586 1.73903 0
M  V30 2988 C 278.05 -1.45376 3.14749 0
M  V30 2989 C 277.111 -0.822099 4.21355 0
M  V30 2990 C 276.344 -1.85353 5.0048 0
M  V30 2991 O 276.567 -3.07656 4.80316 0
M  V30 2992 O 275.501 -1.4406 5.84406 0
M  V30 2993 H 279.327 0.286002 3.0235 0
M  V30 2994 H 276.912 0.20598 1.47973 0
M  V30 2995 H 278.794 -2.08173 3.66391 0
M  V30 2996 H 277.469 -2.09445 2.46809 0
M  V30 2997 H 276.376 -0.155909 3.73775 0
M  V30 2998 H 277.709 -0.224797 4.91686 0
M  V30 2999 N 279.361 -1.56624 0.175154 0
M  V30 3000 C 280.638 -1.88688 -0.515373 0
M  V30 3001 C 281.018 -1.08564 -1.81044 0
M  V30 3002 O 280.366 -0.180703 -2.27784 0
M  V30 3003 C 280.576 -3.40768 -0.753552 0
M  V30 3004 C 281.924 -4.10587 -1.08184 0
M  V30 3005 O 282.948 -3.46106 -0.841961 0
M  V30 3006 O 281.807 -5.24512 -1.53459 0
M  V30 3007 H 278.901 -0.78301 -0.26613 0
M  V30 3008 H 281.447 -1.68347 0.213877 0
M  V30 3009 H 280.219 -3.90965 0.161829 0
M  V30 3010 H 279.842 -3.66733 -1.53598 0
M  V30 3011 N 280.839 0.0985539 -1.57292 0
M  V30 3012 C 282.088 0.801358 -1.85098 0
M  V30 3013 C 282.401 1.80066 -0.763902 0
M  V30 3014 O 283.607 2.55112 -0.928981 0
M  V30 3015 C 282.063 1.47599 -3.28242 0
M  V30 3016 C 281.671 0.516624 -4.45011 0
M  V30 3017 C 283.415 2.16272 -3.65276 0
M  V30 3018 C 281.322 1.19564 -5.79188 0
M  V30 3019 H 280.252 0.303022 -0.69043 0
M  V30 3020 H 282.903 0.0542623 -1.8342 0
M  V30 3021 H 281.285 2.27042 -3.2445 0
M  V30 3022 H 282.459 -0.246065 -4.60143 0
M  V30 3023 H 280.774 -0.064227 -4.1635 0
M  V30 3024 H 283.371 2.67802 -4.62803 0
M  V30 3025 H 283.714 2.95009 -2.93727 0
M  V30 3026 H 284.247 1.43693 -3.70941 0
M  V30 3027 H 280.986 0.449157 -6.53959 0
M  V30 3028 H 280.506 1.92984 -5.67906 0
M  V30 3029 H 282.185 1.7231 -6.23633 0
M  V30 3030 N 282.317 1.53212 0.369288 0
M  V30 3031 C 283.733 1.42902 0.710712 0
M  V30 3032 C 283.933 0.565135 1.93413 0
M  V30 3033 O 282.989 0.0461484 2.52458 0
M  V30 3034 C 284.302 2.86042 0.927382 0
M  V30 3035 C 285.85 2.9565 1.02762 0
M  V30 3036 C 286.325 4.39843 1.27679 0
M  V30 3037 N 287.816 4.43256 1.34457 0
M  V30 3038 C 288.551 5.51929 1.55439 0
M  V30 3039 N 288.047 6.70655 1.73762 0
M  V30 3040 N 289.84 5.39502 1.57779 0
M  V30 3041 H 281.991 2.07888 -0.435457 0
M  V30 3042 H 284.254 0.938661 -0.132739 0
M  V30 3043 H 283.96 3.51557 0.100287 0
M  V30 3044 H 283.834 3.29472 1.83653 0
M  V30 3045 H 286.221 2.30291 1.84527 0
M  V30 3046 H 286.302 2.5562 0.0959504 0
M  V30 3047 H 285.946 5.05774 0.464175 0
M  V30 3048 H 285.876 4.77443 2.22162 0
M  V30 3049 H 288.367 3.5769 1.21926 0
M  V30 3050 H 288.68 7.49248 1.89335 0
M  V30 3051 H 287.025 6.73648 1.70948 0
M  V30 3052 H 290.216 4.45713 1.43029 0
M  V30 3053 H 290.389 6.2426 1.7379 0
M  V30 3054 N 283.795 -0.628877 1.44509 0
M  V30 3055 C 285.041 -1.39045 1.47629 0
M  V30 3056 C 285.374 -1.93892 0.109343 0
M  V30 3057 O 284.649 -1.7379 -0.87334 0
M  V30 3058 C 284.932 -2.55408 2.53848 0
M  V30 3059 C 284.785 -2.05896 3.99909 0
M  V30 3060 C 286.104 -3.5759 2.56549 0
M  V30 3061 H 283.223 -0.504232 0.537512 0
M  V30 3062 H 285.865 -0.710854 1.76201 0
M  V30 3063 H 284.015 -3.13384 2.29615 0
M  V30 3064 H 285.687 -1.52734 4.35282 0
M  V30 3065 H 283.93 -1.37061 4.11578 0
M  V30 3066 H 284.601 -2.89681 4.69882 0
M  V30 3067 H 287.077 -3.09419 2.78207 0
M  V30 3068 H 285.953 -4.36527 3.32769 0
M  V30 3069 H 286.214 -4.11808 1.60832 0
M  V30 3070 N 285.273 -1.31445 -0.869486 0
M  V30 3071 C 286.203 -1.21727 -1.99261 0
M  V30 3072 C 287.184 -0.104359 -1.6978 0
M  V30 3073 O 288.369 -0.289038 -1.92037 0
M  V30 3074 C 285.499 -0.924317 -3.34774 0
M  V30 3075 C 284.453 -1.99685 -3.78563 0
M  V30 3076 C 283.779 -1.55658 -5.11541 0
M  V30 3077 C 285.079 -3.41003 -3.95619 0
M  V30 3078 H 286.773 -2.1569 -2.07649 0
M  V30 3079 H 284.319 -1.03839 -0.997675 0
M  V30 3080 H 286.272 -0.842934 -4.12883 0
M  V30 3081 H 284.996 0.0509793 -3.2656 0
M  V30 3082 H 283.655 -2.06813 -3.02694 0
M  V30 3083 H 283.303 -0.569132 -4.9977 0
M  V30 3084 H 283.003 -2.27409 -5.41811 0
M  V30 3085 H 284.527 -1.48928 -5.92159 0
M  V30 3086 H 285.941 -3.36547 -4.64122 0
M  V30 3087 H 284.338 -4.10975 -4.37286 0
M  V30 3088 H 285.408 -3.81754 -2.98985 0
M  V30 3089 N 286.751 1.08385 -1.14413 0
M  V30 3090 C 287.976 1.85057 -0.936413 0
M  V30 3091 C 288.401 1.81055 0.509971 0
M  V30 3092 O 287.759 1.1958 1.36273 0
M  V30 3093 C 287.807 3.30505 -1.44217 0
M  V30 3094 O 286.911 4.07491 -0.634409 0
M  V30 3095 H 286.252 0.573425 -0.334784 0
M  V30 3096 H 288.782 1.36799 -1.52142 0
M  V30 3097 H 288.792 3.81348 -1.45043 0
M  V30 3098 H 287.467 3.32734 -2.49522 0
M  V30 3099 H 286.044 3.66368 -0.694902 0
M  V30 3100 N 288.23 0.939286 1.26551 0
M  V30 3101 C 289.14 0.453432 2.30176 0
M  V30 3102 C 290.156 -0.471649 1.67486 0
M  V30 3103 O 291.332 -0.35164 1.98306 0
M  V30 3104 C 288.397 -0.275326 3.45605 0
M  V30 3105 C 287.458 0.686084 4.23782 0
M  V30 3106 C 286.691 -0.00798994 5.33699 0
M  V30 3107 O 286.914 -1.22528 5.57085 0
M  V30 3108 O 285.848 0.669746 5.98162 0
M  V30 3109 H 289.674 1.31416 2.73795 0
M  V30 3110 H 287.259 0.705095 1.31715 0
M  V30 3111 H 289.141 -0.685911 4.1578 0
M  V30 3112 H 287.816 -1.11147 3.0402 0
M  V30 3113 H 286.723 1.14658 3.56096 0
M  V30 3114 H 288.056 1.48979 4.69112 0
M  V30 3115 N 289.708 -1.40897 0.706093 0
M  V30 3116 C 290.985 -1.94868 0.169099 0
M  V30 3117 C 291.365 -1.64485 -1.32318 0
M  V30 3118 O 290.713 -0.95744 -2.07474 0
M  V30 3119 C 290.923 -3.45798 0.471654 0
M  V30 3120 C 292.271 -4.22663 0.405127 0
M  V30 3121 O 293.295 -3.53865 0.407168 0
M  V30 3122 O 292.154 -5.45216 0.374383 0
M  V30 3123 H 289.248 -0.82673 0.0211352 0
M  V30 3124 H 291.794 -1.50558 0.782976 0
M  V30 3125 H 290.566 -3.61235 1.50416 0
M  V30 3126 H 290.189 -3.97225 -0.172666 0
M  V30 3127 N 291.186 -0.45159 -1.50991 0
M  V30 3128 C 292.149 0.341117 -2.26647 0
M  V30 3129 C 293.149 0.937422 -1.30649 0
M  V30 3130 O 294.339 0.809644 -1.54241 0
M  V30 3131 C 291.471 1.48398 -3.06905 0
M  V30 3132 H 292.664 -0.322117 -2.98165 0
M  V30 3133 H 290.217 -0.205122 -1.54948 0
M  V30 3134 H 290.952 2.18284 -2.39838 0
M  V30 3135 H 290.737 1.06241 -3.77432 0
M  V30 3136 H 292.227 2.04367 -3.64176 0
M  V30 3137 N 292.664 1.56529 -0.183458 0
M  V30 3138 C 293.913 1.96419 0.458511 0
M  V30 3139 C 294.226 1.0727 1.63562 0
M  V30 3140 O 295.432 1.36893 2.34462 0
M  V30 3141 C 293.888 3.49298 0.867122 0
M  V30 3142 C 293.496 4.47092 -0.285057 0
M  V30 3143 C 295.24 3.97983 1.47683 0
M  V30 3144 C 293.147 5.91225 0.143862 0
M  V30 3145 H 292.077 0.733394 0.175071 0
M  V30 3146 H 294.728 1.81448 -0.273624 0
M  V30 3147 H 293.11 3.59731 1.65559 0
M  V30 3148 H 294.284 4.48383 -1.0625 0
M  V30 3149 H 292.599 4.08535 -0.805503 0
M  V30 3150 H 295.196 5.03134 1.80999 0
M  V30 3151 H 295.539 3.41618 2.37914 0
M  V30 3152 H 296.072 3.90617 0.752562 0
M  V30 3153 H 292.811 6.5149 -0.723974 0
M  V30 3154 H 292.331 5.93214 0.886413 0
M  V30 3155 H 294.01 6.44362 0.583628 0
M  V30 3156 N 294.142 -0.090211 1.57342 0
M  V30 3157 C 295.558 -0.444547 1.53284 0
M  V30 3158 C 295.758 -1.80238 0.900914 0
M  V30 3159 O 294.814 -2.4759 0.495513 0
M  V30 3160 C 296.127 -0.402543 2.97993 0
M  V30 3161 C 297.675 -0.48405 3.09234 0
M  V30 3162 C 298.15 -0.472144 4.5556 0
M  V30 3163 N 299.641 -0.532757 4.60126 0
M  V30 3164 C 300.376 -0.545462 5.708 0
M  V30 3165 N 299.872 -0.514082 6.9089 0
M  V30 3166 N 301.665 -0.59064 5.58988 0
M  V30 3167 H 293.816 0.799121 1.96794 0
M  V30 3168 H 296.079 0.297965 0.899956 0
M  V30 3169 H 295.785 0.528106 3.47712 0
M  V30 3170 H 295.659 -1.21969 3.56936 0
M  V30 3171 H 298.046 -1.40512 2.595 0
M  V30 3172 H 298.127 0.361328 2.53235 0
M  V30 3173 H 297.771 0.445 5.05947 0
M  V30 3174 H 297.701 -1.3348 5.09402 0
M  V30 3175 H 300.192 -0.562006 3.73698 0
M  V30 3176 H 300.505 -0.527195 7.71 0
M  V30 3177 H 298.85 -0.481054 6.93333 0
M  V30 3178 H 302.041 -0.61272 4.64073 0
M  V30 3179 H 302.214 -0.597073 6.45243 0
M  V30 3180 N 295.62 -1.53406 -0.361157 0
M  V30 3181 C 296.848 -1.73717 -1.12383 0
M  V30 3182 C 297.263 -0.468161 -1.82904 0
M  V30 3183 O 296.62 0.559198 -1.73722 0
M  V30 3184 C 296.671 -2.90558 -2.15078 0
M  V30 3185 O 296.392 -4.12549 -1.47428 0
M  V30 3186 C 297.893 -3.22777 -3.03858 0
M  V30 3187 H 295.113 -0.580896 -0.335858 0
M  V30 3188 H 297.657 -2.00167 -0.418728 0
M  V30 3189 H 295.812 -2.66489 -2.8118 0
M  V30 3190 H 296.226 -4.78009 -2.15887 0
M  V30 3191 H 297.7 -4.07927 -3.71887 0
M  V30 3192 H 298.177 -2.38329 -3.68912 0
M  V30 3193 H 298.783 -3.48787 -2.43367 0
M  V30 3194 N 297.098 0.621204 -1.44841 0
M  V30 3195 C 298.061 1.71459 -1.521 0
M  V30 3196 C 299.061 1.55696 -0.401933 0
M  V30 3197 O 300.251 1.61011 -0.664925 0
M  V30 3198 C 297.383 3.10624 -1.40447 0
M  V30 3199 H 298.576 1.66394 -2.49506 0
M  V30 3200 H 296.129 0.835745 -1.3208 0
M  V30 3201 H 296.864 3.21277 -0.441737 0
M  V30 3202 H 296.649 3.23473 -2.21602 0
M  V30 3203 H 298.139 3.90293 -1.4853 0
M  V30 3204 N 298.576 1.31904 0.862503 0
M  V30 3205 C 299.804 1.24998 1.64873 0
M  V30 3206 C 300.219 -0.183425 1.87907 0
M  V30 3207 O 299.576 -1.11794 1.44251 0
M  V30 3208 C 299.627 1.99829 3.01248 0
M  V30 3209 O 299.348 3.37575 2.79239 0
M  V30 3210 C 300.849 1.99852 3.95694 0
M  V30 3211 H 298.069 0.431599 0.513773 0
M  V30 3212 H 300.613 1.73901 1.07604 0
M  V30 3213 H 298.768 1.54668 3.55185 0
M  V30 3214 H 299.182 3.75776 3.65914 0
M  V30 3215 H 300.656 2.56709 4.88676 0
M  V30 3216 H 301.133 0.982852 4.28062 0
M  V30 3217 H 301.739 2.44926 3.47694 0
M  V30 3218 N 300.054 -1.07777 1.14986 0
M  V30 3219 C 300.964 -2.18404 0.856546 0
M  V30 3220 C 301.98 -1.73211 -0.165485 0
M  V30 3221 O 303.156 -2.01399 0.00755219 0
M  V30 3222 C 300.221 -3.44977 0.34526 0
M  V30 3223 C 299.282 -4.0476 1.43065 0
M  V30 3224 C 298.515 -5.25291 0.943663 0
M  V30 3225 O 298.738 -5.70004 -0.212426 0
M  V30 3226 O 297.672 -5.76638 1.72547 0
M  V30 3227 H 301.498 -2.45978 1.78125 0
M  V30 3228 H 299.083 -1.17033 0.928631 0
M  V30 3229 H 300.965 -4.21348 0.0663671 0
M  V30 3230 H 299.64 -3.18965 -0.551631 0
M  V30 3231 H 298.547 -3.29949 1.76309 0
M  V30 3232 H 299.88 -4.35035 2.30229 0
M  V30 3233 N 301.532 -0.945985 -1.26051 0
M  V30 3234 C 302.479 -0.45809 -2.26208 0
M  V30 3235 C 303.449 0.484816 -1.58867 0
M  V30 3236 O 304.634 0.399969 -1.86561 0
M  V30 3237 C 301.774 0.266131 -3.44072 0
M  V30 3238 C 300.887 -0.713005 -4.26075 0
M  V30 3239 C 300.022 0.0329013 -5.3119 0
M  V30 3240 C 299.061 -0.93774 -6.04874 0
M  V30 3241 N 298.198 -0.223274 -7.01745 0
M  V30 3242 H 303.038 -1.3171 -2.67313 0
M  V30 3243 H 300.575 -0.66069 -1.31428 0
M  V30 3244 H 302.533 0.702514 -4.11243 0
M  V30 3245 H 301.163 1.08925 -3.03867 0
M  V30 3246 H 300.215 -1.26789 -3.58648 0
M  V30 3247 H 301.527 -1.45406 -4.77136 0
M  V30 3248 H 300.681 0.528335 -6.04395 0
M  V30 3249 H 299.42 0.806801 -4.8098 0
M  V30 3250 H 298.425 -1.44425 -5.30492 0
M  V30 3251 H 299.65 -1.71172 -6.57173 0
M  V30 3252 H 297.596 0.532046 -6.53839 0
M  V30 3253 H 297.513 -0.90357 -7.50581 0
M  V30 3254 H 298.781 0.250907 -7.79096 0
M  V30 3255 N 303.011 1.40521 -0.713556 0
M  V30 3256 C 304.422 1.83853 -0.324807 0
M  V30 3257 C 304.773 1.59667 1.14021 0
M  V30 3258 O 303.898 1.07649 1.87725 0
M  V30 3259 C 304.493 3.33751 -0.582746 0
M  V30 3260 C 303.052 3.75584 -0.247727 0
M  V30 3261 C 302.199 2.63753 -0.856121 0
M  V30 3262 H 305.15 1.29817 -0.91286 0
M  V30 3263 H 305.171 3.80194 0.152682 0
M  V30 3264 H 304.683 3.51322 -1.64908 0
M  V30 3265 H 302.784 3.63608 0.813624 0
M  V30 3266 H 302.897 4.7373 -0.715307 0
M  V30 3267 H 301.261 2.53108 -0.28432 0
M  V30 3268 H 302.044 2.84137 -1.92668 0
M  V30 3269 N 304.489 0.459591 1.5075 0
M  V30 3270 C 305.419 -0.330644 2.31147 0
M  V30 3271 C 306.4 -1.00087 1.37538 0
M  V30 3272 O 307.585 -1.00025 1.66459 0
M  V30 3273 C 304.715 -1.41958 3.16962 0
M  V30 3274 C 303.669 -0.871608 4.19031 0
M  V30 3275 C 302.995 -2.05797 4.9351 0
M  V30 3276 C 304.295 0.109251 5.22186 0
M  V30 3277 H 305.989 0.340336 2.97459 0
M  V30 3278 H 303.535 0.165119 1.4305 0
M  V30 3279 H 305.488 -1.9798 3.71997 0
M  V30 3280 H 304.212 -2.11917 2.48513 0
M  V30 3281 H 302.871 -0.333442 3.6508 0
M  V30 3282 H 302.519 -2.74427 4.21544 0
M  V30 3283 H 302.219 -1.6976 5.62544 0
M  V30 3284 H 303.743 -2.62331 5.51375 0
M  V30 3285 H 305.157 -0.361405 5.7216 0
M  V30 3286 H 303.554 0.383316 5.98875 0
M  V30 3287 H 304.624 1.03887 4.73641 0
M  V30 3288 N 305.967 -1.56429 0.191757 0
M  V30 3289 C 307.215 -1.97095 -0.447006 0
M  V30 3290 C 307.536 -1.07967 -1.62383 0
M  V30 3291 O 306.806 -0.150248 -1.95323 0
M  V30 3292 H 305.386 -0.727832 -0.168135 0
M  V30 3293 H 308.048 -1.92911 0.27771 0
M  V30 3294 H 307.144 -3.01848 -0.793371 0
M  V30 3295 N 307.445 0.0818655 -1.57387 0
M  V30 3296 C 308.355 1.11642 -2.06333 0
M  V30 3297 C 309.371 1.43033 -0.99083 0
M  V30 3298 O 310.547 1.53411 -1.30488 0
M  V30 3299 C 307.612 2.41342 -2.48907 0
M  V30 3300 C 306.673 2.17014 -3.7041 0
M  V30 3301 C 305.906 3.4053 -4.10944 0
M  V30 3302 O 306.129 4.4927 -3.51444 0
M  V30 3303 O 305.063 3.29336 -5.03807 0
M  V30 3304 H 308.889 0.730657 -2.9478 0
M  V30 3305 H 306.474 0.295301 -1.46452 0
M  V30 3306 H 308.356 3.17691 -2.76858 0
M  V30 3307 H 307.031 2.79319 -1.63593 0
M  V30 3308 H 305.938 1.38403 -3.47556 0
M  V30 3309 H 307.271 1.83923 -4.56545 0
M  V30 3310 N 308.923 1.53595 0.353017 0
M  V30 3311 C 309.853 1.83902 1.43883 0
M  V30 3312 C 310.834 0.693421 1.55324 0
M  V30 3313 O 312.019 0.944452 1.69687 0
M  V30 3314 C 309.149 2.04016 2.8106 0
M  V30 3315 C 308.103 3.19814 2.84434 0
M  V30 3316 C 307.429 3.25244 4.24406 0
M  V30 3317 C 308.729 4.58133 2.50822 0
M  V30 3318 H 310.423 2.74835 1.1877 0
M  V30 3319 H 307.969 1.32242 0.569917 0
M  V30 3320 H 309.922 2.238 3.57059 0
M  V30 3321 H 308.646 1.09804 3.07588 0
M  V30 3322 H 307.305 2.9987 2.10887 0
M  V30 3323 H 306.953 2.28646 4.48029 0
M  V30 3324 H 306.653 4.03054 4.27576 0
M  V30 3325 H 308.177 3.47228 5.0226 0
M  V30 3326 H 309.591 4.77995 3.16534 0
M  V30 3327 H 307.988 5.38276 2.6529 0
M  V30 3328 H 309.058 4.62387 1.46034 0
M  V30 3329 N 310.401 -0.613514 1.45168 0
M  V30 3330 C 311.647 -1.37279 1.50087 0
M  V30 3331 C 312.002 -1.91902 0.138294 0
M  V30 3332 O 311.295 -1.71764 -0.84899 0
M  V30 3333 C 311.489 -2.54347 2.51083 0
M  V30 3334 C 311.318 -2.11186 3.97027 0
M  V30 3335 C 310.088 -1.97636 4.65046 0
M  V30 3336 C 312.286 -1.69016 4.85735 0
M  V30 3337 N 310.268 -1.48224 5.95737 0
M  V30 3338 C 311.639 -1.30976 6.06008 0
M  V30 3339 C 313.694 -1.56555 4.72647 0
M  V30 3340 C 312.397 -0.817197 7.14643 0
M  V30 3341 C 314.423 -1.08702 5.81324 0
M  V30 3342 C 313.785 -0.716233 7.00749 0
M  V30 3343 H 309.884 -0.496478 0.60418 0
M  V30 3344 H 312.468 -0.701988 1.81605 0
M  V30 3345 H 310.639 -3.19031 2.21527 0
M  V30 3346 H 312.371 -3.21208 2.46187 0
M  V30 3347 H 309.126 -2.18638 4.20112 0
M  V30 3348 H 309.55 -1.25767 6.65216 0
M  V30 3349 H 314.192 -1.83849 3.80736 0
M  V30 3350 H 311.91 -0.531797 8.06348 0
M  V30 3351 H 315.496 -0.994943 5.7323 0
M  V30 3352 H 314.376 -0.351642 7.83411 0
M  V30 3353 N 311.879 -1.3236 -0.855495 0
M  V30 3354 C 312.826 -1.21225 -1.964 0
M  V30 3355 C 313.796 -0.0946204 -1.6583 0
M  V30 3356 O 314.981 -0.27002 -1.8888 0
M  V30 3357 C 312.121 -0.940419 -3.32039 0
M  V30 3358 C 311.234 -2.14276 -3.75113 0
M  V30 3359 C 310.369 -1.80648 -4.9954 0
M  V30 3360 C 309.408 -2.97208 -5.35102 0
M  V30 3361 N 308.545 -2.63678 -6.50706 0
M  V30 3362 H 313.385 -2.16042 -2.05255 0
M  V30 3363 H 310.922 -1.07451 -1.00463 0
M  V30 3364 H 312.88 -0.763311 -4.10158 0
M  V30 3365 H 311.51 -0.0290413 -3.22787 0
M  V30 3366 H 310.562 -2.43017 -2.92655 0
M  V30 3367 H 311.874 -3.01468 -3.97389 0
M  V30 3368 H 311.028 -1.59484 -5.85363 0
M  V30 3369 H 309.767 -0.906678 -4.79198 0
M  V30 3370 H 308.772 -3.19004 -4.47791 0
M  V30 3371 H 309.997 -3.87918 -5.57401 0
M  V30 3372 H 307.943 -1.76238 -6.31883 0
M  V30 3373 H 307.86 -3.444 -6.72997 0
M  V30 3374 H 309.128 -2.45942 -7.39684 0
M  V30 3375 O 313.396 0.992737 -1.27385 0
M  V30 3376 H 314.087 1.61512 -1.06928 0
M  V30 END ATOM
M  V30 BEGIN BOND
M  V30 END BOND
M  V30 END CTAB
M  END
$$$$
