drugbank_target|P06307 Cholecystokinin (DB13729)
 OpenBabel12092121223D

  0  0  0     0  0            999 V3000
M  V30 BEGIN CTAB
M  V30 COUNTS 1766 1782 0 0 0
M  V30 BEGIN ATOM
M  V30 1 H -0.908 1.98254 -0.117106 0
M  V30 2 N 0 1.576 0 0
M  V30 3 C 0.933 2.03868 1.02534 0
M  V30 4 C 1.911 0.928543 1.3348 0
M  V30 5 O 3.095 1.19667 1.45644 0
M  V30 6 C 0.222 2.43627 2.35294 0
M  V30 7 C -0.732 3.65373 2.2001 0
M  V30 8 S 0.101 5.13292 1.52614 0
M  V30 9 C 1.257 5.56322 2.86805 0
M  V30 10 H 1.49 2.90518 0.631377 0
M  V30 11 H -0.977 1.52953 0.210867 0
M  V30 12 H 0.981 2.67203 3.11629 0
M  V30 13 H -0.358 1.57376 2.7183 0
M  V30 14 H -1.165 3.90944 3.18086 0
M  V30 15 H -1.563 3.418 1.51819 0
M  V30 16 H 0.729 5.58782 3.83104 0
M  V30 17 H 1.672 6.56266 2.65933 0
M  V30 18 H 2.08 4.83886 2.90714 0
M  V30 19 N 1.4781 -0.272755 1.55222 0
M  V30 20 C 2.4261 -1.35705 1.88909 0
M  V30 21 C 3.4201 -1.5112 0.765456 0
M  V30 22 O 4.6261 -1.52901 0.949802 0
M  V30 23 H 1.0011 -0.453868 0.59959 0
M  V30 24 H 2.9721 -1.04544 2.79487 0
M  V30 25 C 1.7211 -2.71049 2.17779 0
M  V30 26 H 1.0441 -2.59979 3.03728 0
M  V30 27 H 2.4841 -3.45858 2.45272 0
M  V30 28 C 0.9431 -3.22165 0.985473 0
M  V30 29 O 1.4731 -4.01096 0.220233 0
M  V30 30 N -0.3209 -2.7985 0.783108 0
M  V30 31 H -0.7739 -2.15775 1.40708 0
M  V30 32 H -0.8159 -3.14397 -0.0130392 0
M  V30 33 N 2.9562 -1.48159 -0.537278 0
M  V30 34 C 4.1812 -1.59707 -1.32319 0
M  V30 35 C 4.6062 -0.254859 -1.86365 0
M  V30 36 O 3.9642 0.772378 -1.64024 0
M  V30 37 C 4.0122 -2.6412 -2.45505 0
M  V30 38 O 3.1162 -2.20774 -3.48328 0
M  V30 39 H 2.4572 -0.535791 -0.392204 0
M  V30 40 H 4.9872 -1.94092 -0.647268 0
M  V30 41 H 4.9972 -2.85166 -2.91795 0
M  V30 42 H 3.6722 -3.61567 -2.05528 0
M  V30 43 H 2.2492 -2.09911 -3.08207 0
M  V30 44 N 4.4343 0.785586 -1.36625 0
M  V30 45 C 5.6823 1.54057 -1.30808 0
M  V30 46 C 6.0033 1.94683 0.111157 0
M  V30 47 O 5.2733 1.65241 1.05224 0
M  V30 48 H 3.8533 0.571354 -0.481211 0
M  V30 49 H 6.5153 0.935821 -1.70963 0
M  V30 50 H 5.6113 2.44637 -1.93801 0
M  V30 51 N 5.9124 1.20967 1.01018 0
M  V30 52 C 7.1584 1.02526 1.74975 0
M  V30 53 C 7.4914 -0.4408 1.89131 0
M  V30 54 O 6.7664 -1.32718 1.42184 0
M  V30 55 C 7.0494 1.71699 3.1653 0
M  V30 56 C 6.9024 3.25791 3.10129 0
M  V30 57 C 8.2214 1.45531 4.15342 0
M  V30 58 H 5.3404 0.373863 0.635134 0
M  V30 59 H 7.9824 1.49071 1.17805 0
M  V30 60 H 6.1324 1.32128 3.65341 0
M  V30 61 H 7.8044 3.74697 2.69072 0
M  V30 62 H 6.0474 3.56363 2.47362 0
M  V30 63 H 6.7184 3.69353 4.10222 0
M  V30 64 H 9.1944 1.79872 3.75213 0
M  V30 65 H 8.0704 1.96453 5.1254 0
M  V30 66 H 8.3314 0.384237 4.40427 0
M  V30 67 N 7.3905 -1.2043 1.01659 0
M  V30 68 C 8.6305 -1.91507 0.714456 0
M  V30 69 C 8.9945 -1.77073 -0.742237 0
M  V30 70 O 10.1955 -2.42631 -1.15688 0
M  V30 71 C 8.4665 -3.38795 1.13809 0
M  V30 72 S 10.0255 -4.28216 0.957925 0
M  V30 73 H 6.8435 -0.661571 0.260471 0
M  V30 74 H 9.4455 -1.45671 1.30384 0
M  V30 75 H 8.1495 -3.46822 2.19415 0
M  V30 76 H 7.6805 -3.89656 0.541474 0
M  V30 77 H 9.6955 -4.96007 -0.138531 0
M  V30 78 N 8.8686 -0.792821 -1.36206 0
M  V30 79 C 9.7986 -0.207853 -2.32573 0
M  V30 80 C 10.7796 0.659055 -1.56813 0
M  V30 81 O 11.9646 0.592176 -1.84951 0
M  V30 82 C 9.0946 0.655449 -3.41059 0
M  V30 83 C 8.0486 -0.111842 -4.27854 0
M  V30 84 C 7.3746 0.872274 -5.27537 0
M  V30 85 C 8.6746 -1.30299 -5.05786 0
M  V30 86 H 10.3686 -1.01294 -2.81744 0
M  V30 87 H 7.9146 -0.48854 -1.3546 0
M  V30 88 H 9.8676 1.07464 -4.07467 0
M  V30 89 H 8.5916 1.49328 -2.90463 0
M  V30 90 H 7.2506 -0.512053 -3.63006 0
M  V30 91 H 6.8986 1.70523 -4.73214 0
M  V30 92 H 6.5986 0.363291 -5.86476 0
M  V30 93 H 8.1226 1.28996 -5.96818 0
M  V30 94 H 9.5366 -0.959379 -5.65216 0
M  V30 95 H 7.9336 -1.7455 -5.74154 0
M  V30 96 H 9.0036 -2.09663 -4.37229 0
M  V30 97 N 10.3467 1.47872 -0.545128 0
M  V30 98 C 11.5867 2.04391 -0.0187854 0
M  V30 99 C 11.9507 1.41162 1.30144 0
M  V30 100 O 13.1517 1.88656 1.91474 0
M  V30 101 C 11.4227 3.57299 0.0850867 0
M  V30 102 S 12.9817 4.35221 0.559302 0
M  V30 103 H 9.7997 0.710737 -0.0193301 0
M  V30 104 H 12.4017 1.81395 -0.729125 0
M  V30 105 H 11.1057 4.00847 -0.880351 0
M  V30 106 H 10.6367 3.84773 0.819348 0
M  V30 107 H 12.6517 4.61571 1.82118 0
M  V30 108 N 11.8248 0.280983 1.55075 0
M  V30 109 C 13.0708 -0.33461 2.00021 0
M  V30 110 C 13.4038 -1.55063 1.16915 0
M  V30 111 O 12.6788 -1.93006 0.240646 0
M  V30 112 C 12.9618 -0.711007 3.53011 0
M  V30 113 C 12.8148 0.512766 4.46868 0
M  V30 114 C 14.1338 -1.54522 4.12081 0
M  V30 115 H 11.2528 -0.120147 0.727141 0
M  V30 116 H 13.8948 0.389097 1.85973 0
M  V30 117 H 12.0448 -1.32761 3.65112 0
M  V30 118 H 13.7168 1.15131 4.46702 0
M  V30 119 H 11.9598 1.14975 4.18286 0
M  V30 120 H 12.6308 0.205556 5.51617 0
M  V30 121 H 15.1068 -1.02442 4.03293 0
M  V30 122 H 13.9828 -1.77739 5.19327 0
M  V30 123 H 14.2438 -2.52813 3.62682 0
M  V30 124 N 13.3029 -1.57598 0.00835791 0
M  V30 125 C 14.2329 -2.1198 -0.979113 0
M  V30 126 C 15.2139 -1.03091 -1.35301 0
M  V30 127 O 16.3989 -1.30818 -1.43528 0
M  V30 128 C 13.5289 -2.62995 -2.26828 0
M  V30 129 C 12.4829 -3.76485 -2.03576 0
M  V30 130 C 11.8089 -4.13846 -3.38579 0
M  V30 131 C 13.1089 -5.0342 -1.39161 0
M  V30 132 H 14.8029 -2.94738 -0.526281 0
M  V30 133 H 12.3489 -1.41783 -0.251704 0
M  V30 134 H 14.3019 -2.99669 -2.96271 0
M  V30 135 H 13.0259 -1.7737 -2.7424 0
M  V30 136 H 11.6849 -3.40217 -1.36557 0
M  V30 137 H 11.3329 -3.25232 -3.83709 0
M  V30 138 H 11.0329 -4.90312 -3.23834 0
M  V30 139 H 12.5569 -4.53086 -4.09323 0
M  V30 140 H 13.9709 -5.37812 -1.98573 0
M  V30 141 H 12.3679 -5.84746 -1.34878 0
M  V30 142 H 13.4379 -4.83548 -0.361868 0
M  V30 143 N 14.781 0.264519 -1.55364 0
M  V30 144 C 15.714 1.35297 -1.83766 0
M  V30 145 C 16.692 1.47171 -0.691336 0
M  V30 146 O 17.876 1.63663 -0.935238 0
M  V30 147 C 15.003 2.72847 -2.00679 0
M  V30 148 C 14.049 2.78214 -3.23263 0
M  V30 149 S 14.882 2.36601 -4.80396 0
M  V30 150 C 16.038 3.7611 -5.00292 0
M  V30 151 H 16.271 1.11003 -2.758 0
M  V30 152 H 13.804 0.464596 -1.47244 0
M  V30 153 H 15.762 3.52057 -2.11108 0
M  V30 154 H 14.423 2.94388 -1.09518 0
M  V30 155 H 13.616 3.7919 -3.3201 0
M  V30 156 H 13.218 2.07034 -3.11469 0
M  V30 157 H 15.51 4.71457 -4.86554 0
M  V30 158 H 16.453 3.7231 -6.02321 0
M  V30 159 H 16.861 3.67806 -4.28228 0
M  V30 160 N 16.2591 1.48442 0.529413 0
M  V30 161 C 17.2221 1.62524 1.61612 0
M  V30 162 C 18.2221 0.498509 1.52877 0
M  V30 163 O 19.4121 0.76431 1.56537 0
M  V30 164 C 16.5441 1.59597 3.01233 0
M  V30 165 H 17.7371 2.59423 1.50465 0
M  V30 166 H 15.2901 1.37047 0.751514 0
M  V30 167 H 16.0251 0.641781 3.17886 0
M  V30 168 H 15.8101 2.41397 3.08982 0
M  V30 169 H 17.3001 1.72646 3.80241 0
M  V30 170 N 17.7372 -0.778329 1.37039 0
M  V30 171 C 18.9832 -1.53892 1.32079 0
M  V30 172 C 19.3162 -1.9396 -0.0965386 0
M  V30 173 O 18.5912 -1.63568 -1.05242 0
M  V30 174 C 18.8742 -2.80847 2.25382 0
M  V30 175 C 18.7272 -2.47076 3.75864 0
M  V30 176 C 20.0462 -3.82741 2.1725 0
M  V30 177 H 17.1652 -0.558303 0.48111 0
M  V30 178 H 19.8072 -0.893397 1.67685 0
M  V30 179 H 17.9572 -3.35931 1.95148 0
M  V30 180 H 19.6292 -1.97957 4.16666 0
M  V30 181 H 17.8722 -1.79863 3.94755 0
M  V30 182 H 18.5432 -3.37798 4.36574 0
M  V30 183 H 21.0192 -3.37133 2.43887 0
M  V30 184 H 19.8952 -4.69303 2.84686 0
M  V30 185 H 20.1562 -4.2652 1.16331 0
M  V30 186 N 19.2153 -1.21501 -1.00376 0
M  V30 187 C 20.1453 -0.999478 -2.11028 0
M  V30 188 C 21.1263 0.0759671 -1.6993 0
M  V30 189 O 22.3113 -0.0841106 -1.94018 0
M  V30 190 C 19.4413 -0.564709 -3.42678 0
M  V30 191 C 18.3953 -1.58486 -3.97576 0
M  V30 192 C 17.7213 -1.00628 -5.25146 0
M  V30 193 C 19.0213 -2.97204 -4.29496 0
M  V30 194 H 20.7153 -1.92495 -2.29317 0
M  V30 195 H 18.2613 -0.92693 -1.102 0
M  V30 196 H 20.2143 -0.401091 -4.19487 0
M  V30 197 H 18.9383 0.396411 -3.24185 0
M  V30 198 H 17.5973 -1.73606 -3.22888 0
M  V30 199 H 17.2453 -0.0368439 -5.02987 0
M  V30 200 H 16.9453 -1.68771 -5.62841 0
M  V30 201 H 18.4693 -0.854015 -6.04598 0
M  V30 202 H 19.8833 -2.8552 -4.97143 0
M  V30 203 H 18.2803 -3.62372 -4.78338 0
M  V30 204 H 19.3503 -3.47956 -3.3772 0
M  V30 205 N 20.6934 1.19889 -1.02296 0
M  V30 206 C 21.6564 2.21116 -0.603351 0
M  V30 207 C 22.6564 1.5738 0.329884 0
M  V30 208 O 23.8464 1.73802 0.117702 0
M  V30 209 C 20.9784 3.40696 0.117992 0
M  V30 210 H 22.1714 2.59754 -1.49893 0
M  V30 211 H 19.7244 1.33463 -0.813468 0
M  V30 212 H 20.4594 3.07569 1.0282 0
M  V30 213 H 20.2444 3.88188 -0.552511 0
M  V30 214 H 21.7344 4.15692 0.398696 0
M  V30 215 N 22.1715 0.800033 1.35784 0
M  V30 216 C 23.1345 0.211565 2.28221 0
M  V30 217 C 24.1345 -0.59728 1.49296 0
M  V30 218 O 25.3245 -0.416721 1.69142 0
M  V30 219 C 22.4565 -0.705846 3.33513 0
M  V30 220 H 23.6495 1.02677 2.81776 0
M  V30 221 H 21.2025 0.570211 1.45528 0
M  V30 222 H 21.9375 -1.54498 2.85133 0
M  V30 223 H 21.7225 -0.127655 3.91892 0
M  V30 224 H 23.2125 -1.11211 4.02519 0
M  V30 225 N 23.6496 -1.47581 0.552962 0
M  V30 226 C 24.8976 -2.02082 0.0272703 0
M  V30 227 C 25.2186 -1.4301 -1.32563 0
M  V30 228 O 24.4886 -0.603745 -1.86365 0
M  V30 229 H 23.0686 -0.746966 0.00709182 0
M  V30 230 H 25.7306 -1.81033 0.722008 0
M  V30 231 H 24.8266 -3.12034 -0.0639951 0
M  V30 232 N 25.1277 -0.289203 -1.54924 0
M  V30 233 C 26.0907 0.579144 -2.21762 0
M  V30 234 C 27.0907 1.07047 -1.1999 0
M  V30 235 O 28.2807 0.968384 -1.44803 0
M  V30 236 C 25.4127 1.80055 -2.8947 0
M  V30 237 H 26.6057 -0.00464908 -2.999 0
M  V30 238 H 24.1587 -0.0399306 -1.56249 0
M  V30 239 H 24.8937 2.42449 -2.15381 0
M  V30 240 H 24.6787 1.45602 -3.64064 0
M  V30 241 H 26.1687 2.41773 -3.40493 0
M  V30 242 N 26.6058 1.57591 -0.0167156 0
M  V30 243 C 27.5358 2.12496 0.967858 0
M  V30 244 C 28.5168 1.03807 1.34752 0
M  V30 245 O 29.7018 1.31577 1.42833 0
M  V30 246 C 26.8318 2.64194 2.25431 0
M  V30 247 C 25.7858 3.77559 2.01576 0
M  V30 248 C 25.1118 4.15636 3.36379 0
M  V30 249 C 26.4118 5.04151 1.36489 0
M  V30 250 H 28.1058 2.95013 0.510643 0
M  V30 251 H 25.6518 1.41915 0.244181 0
M  V30 252 H 27.6048 3.01236 2.94678 0
M  V30 253 H 26.3288 1.78821 2.73296 0
M  V30 254 H 24.9878 3.40937 1.34751 0
M  V30 255 H 24.6358 3.27263 3.81979 0
M  V30 256 H 24.3358 4.92022 3.21229 0
M  V30 257 H 25.8598 4.5525 4.06915 0
M  V30 258 H 27.2738 5.38857 1.95718 0
M  V30 259 H 25.6708 5.85453 1.31776 0
M  V30 260 H 26.7408 4.83733 0.336219 0
M  V30 261 N 28.0839 -0.256276 1.55502 0
M  V30 262 C 29.3119 -1.00342 1.8094 0
M  V30 263 C 29.7269 -1.79307 0.59114 0
M  V30 264 O 29.0839 -1.77114 -0.440081 0
M  V30 265 C 29.1349 -1.94875 3.04476 0
M  V30 266 O 28.8559 -1.19107 4.21598 0
M  V30 267 C 30.3569 -2.81266 3.42644 0
M  V30 268 H 27.5769 -0.295685 0.602338 0
M  V30 269 H 30.1209 -0.281998 2.02546 0
M  V30 270 H 28.2759 -2.62457 2.84947 0
M  V30 271 H 28.6899 -1.82969 4.91551 0
M  V30 272 H 30.1639 -3.43362 4.32211 0
M  V30 273 H 30.6409 -3.51897 2.62802 0
M  V30 274 H 31.2469 -2.1915 3.64491 0
M  V30 275 N 29.562 -1.4872 -0.521534 0
M  V30 276 C 30.494 -1.59968 -1.64143 0
M  V30 277 C 31.507 -0.483463 -1.55456 0
M  V30 278 O 32.696 -0.75467 -1.61762 0
M  V30 279 C 29.796 -1.52127 -3.02838 0
M  V30 280 C 28.969 -2.78932 -3.36921 0
M  V30 281 C 28.028 -2.64428 -4.54933 0
M  V30 282 O 27.054 -3.38331 -4.57735 0
M  V30 283 N 28.256 -1.74606 -5.53618 0
M  V30 284 H 31.021 -2.56548 -1.54929 0
M  V30 285 H 28.582 -1.45551 -0.708988 0
M  V30 286 H 30.574 -1.40106 -3.79674 0
M  V30 287 H 29.144 -0.634868 -3.06085 0
M  V30 288 H 28.364 -3.05455 -2.4918 0
M  V30 289 H 29.652 -3.63041 -3.56481 0
M  V30 290 H 29.05 -1.13782 -5.54139 0
M  V30 291 H 27.607 -1.6852 -6.29638 0
M  V30 292 N 31.0401 0.771051 -1.3745 0
M  V30 293 C 32.4511 1.34737 -1.29239 0
M  V30 294 C 32.8021 1.96109 0.0596908 0
M  V30 295 O 31.9271 1.93865 0.961534 0
M  V30 296 C 32.5221 2.44973 -2.34037 0
M  V30 297 C 31.0811 2.98372 -2.29458 0
M  V30 298 C 30.2281 1.71595 -2.17831 0
M  V30 299 H 33.1791 0.571256 -1.48062 0
M  V30 300 H 33.2001 3.24471 -1.98744 0
M  V30 301 H 32.7121 2.00276 -3.32432 0
M  V30 302 H 30.8131 3.47443 -1.34589 0
M  V30 303 H 30.9261 3.53939 -3.229 0
M  V30 304 H 29.2901 1.94547 -1.64388 0
M  V30 305 H 30.0731 1.29001 -3.18141 0
M  V30 306 N 32.5182 1.22032 0.997298 0
M  V30 307 C 33.7642 1.04376 1.73878 0
M  V30 308 C 34.0972 -0.420716 1.89588 0
M  V30 309 O 33.3722 -1.31202 1.43583 0
M  V30 310 C 33.6552 1.75047 3.14691 0
M  V30 311 C 33.5082 3.29062 3.06656 0
M  V30 312 C 34.8272 1.49928 4.13775 0
M  V30 313 H 31.9462 0.380578 0.631133 0
M  V30 314 H 34.5882 1.50312 1.16217 0
M  V30 315 H 32.7382 1.35996 3.63919 0
M  V30 316 H 34.4102 3.7753 2.65083 0
M  V30 317 H 32.6532 3.58967 2.43568 0
M  V30 318 H 33.3242 3.73683 4.06282 0
M  V30 319 H 35.8002 1.83842 3.73285 0
M  V30 320 H 34.6762 2.01878 5.10428 0
M  V30 321 H 34.9372 0.430929 4.39995 0
M  V30 322 N 33.9963 -1.19345 1.0293 0
M  V30 323 C 35.4073 -1.70725 0.755633 0
M  V30 324 C 35.7583 -1.82326 -0.724676 0
M  V30 325 O 34.8833 -1.49471 -1.56484 0
M  V30 326 C 35.4783 -3.10084 1.36503 0
M  V30 327 C 34.0373 -3.58723 1.13994 0
M  V30 328 C 33.1843 -2.35577 1.46283 0
M  V30 329 H 36.1353 -1.0418 1.19718 0
M  V30 330 H 36.1563 -3.72787 0.762217 0
M  V30 331 H 35.6683 -3.01609 2.44241 0
M  V30 332 H 33.7693 -3.72512 0.0807901 0
M  V30 333 H 33.8823 -4.42816 1.82894 0
M  V30 334 H 32.2463 -2.38935 0.88217 0
M  V30 335 H 33.0293 -2.29731 2.55105 0
M  V30 336 N 35.4744 -0.807222 -1.35358 0
M  V30 337 C 36.8854 -0.44876 -1.81226 0
M  V30 338 C 37.2364 1.02929 -1.67033 0
M  V30 339 O 36.3614 1.79991 -1.20133 0
M  V30 340 C 36.9564 -0.807774 -3.2903 0
M  V30 341 C 35.5154 -0.501901 -3.73039 0
M  V30 342 C 34.6624 -1.03304 -2.57339 0
M  V30 343 H 37.6134 -0.998808 -1.23327 0
M  V30 344 H 37.6344 -0.10554 -3.80354 0
M  V30 345 H 37.1464 -1.88357 -3.39328 0
M  V30 346 H 35.2474 0.565128 -3.68289 0
M  V30 347 H 35.3604 -1.03497 -4.67787 0
M  V30 348 H 33.7244 -0.455339 -2.50597 0
M  V30 349 H 34.5074 -2.11496 -2.70415 0
M  V30 350 N 36.9525 1.47285 -0.560781 0
M  V30 351 C 37.9155 2.28535 0.174488 0
M  V30 352 C 38.9155 1.37153 0.839388 0
M  V30 353 O 40.1055 1.59748 0.694702 0
M  V30 354 C 37.2375 3.16934 1.25561 0
M  V30 355 H 38.4305 2.95012 -0.539262 0
M  V30 356 H 35.9835 1.53034 -0.317865 0
M  V30 357 H 36.7185 2.55157 2.00164 0
M  V30 358 H 36.5035 3.8419 0.783604 0
M  V30 359 H 37.9935 3.78143 1.77193 0
M  V30 360 N 38.4306 0.297415 1.54768 0
M  V30 361 C 39.7076 -0.365847 1.92148 0
M  V30 362 C 40.0876 -1.71975 1.22424 0
M  V30 363 O 39.4356 -2.25666 0.358739 0
M  V30 364 C 39.6456 -0.484056 3.45627 0
M  V30 365 C 40.9936 -0.756594 4.17805 0
M  V30 366 O 42.0176 -0.568007 3.51642 0
M  V30 367 O 40.8766 -1.11863 5.34929 0
M  V30 368 H 37.9706 -0.203919 0.801465 0
M  V30 369 H 40.5166 0.34521 1.66152 0
M  V30 370 H 39.2886 0.467865 3.88493 0
M  V30 371 H 38.9116 -1.24372 3.77647 0
M  V30 372 N 39.9087 -1.5758 0.0250728 0
M  V30 373 C 41.3197 -1.79476 -0.514323 0
M  V30 374 C 41.6707 -0.934956 -1.72491 0
M  V30 375 O 40.7957 -0.144245 -2.15919 0
M  V30 376 C 41.3907 -3.25503 -0.939842 0
M  V30 377 C 39.9497 -3.48408 -1.42438 0
M  V30 378 C 39.0967 -2.74583 -0.387201 0
M  V30 379 H 42.0477 -1.567 0.25113 0
M  V30 380 H 42.0687 -3.34992 -1.80445 0
M  V30 381 H 41.5807 -3.88056 -0.0585628 0
M  V30 382 H 39.6817 -2.91103 -2.32572 0
M  V30 383 H 39.7947 -4.57119 -1.43455 0
M  V30 384 H 38.1587 -2.39942 -0.854409 0
M  V30 385 H 38.9417 -3.39849 0.485543 0
M  V30 386 N 41.3868 0.248026 -1.55636 0
M  V30 387 C 42.3498 1.29044 -1.89421 0
M  V30 388 C 43.3498 1.41134 -0.770581 0
M  V30 389 O 44.5398 1.39854 -1.03858 0
M  V30 390 C 41.6718 2.66831 -2.12165 0
M  V30 391 H 42.8648 1.00305 -2.82629 0
M  V30 392 H 40.4178 0.487265 -1.48511 0
M  V30 393 H 41.1528 3.00711 -1.21422 0
M  V30 394 H 40.9378 2.59438 -2.93997 0
M  V30 395 H 42.4278 3.42103 -2.3949 0
M  V30 396 N 42.8649 1.48995 0.513639 0
M  V30 397 C 44.1129 1.57531 1.26604 0
M  V30 398 C 44.4339 0.258236 1.93283 0
M  V30 399 O 43.7039 -0.721502 1.8213 0
M  V30 400 H 42.2839 0.580387 0.470276 0
M  V30 401 H 44.9459 1.85552 0.596373 0
M  V30 402 H 44.0419 2.36486 2.03669 0
M  V30 403 N 44.343 -0.763751 1.37857 0
M  V30 404 C 45.568 -1.55805 1.36893 0
M  V30 405 C 45.993 -1.88054 -0.0416135 0
M  V30 406 O 45.351 -1.49825 -1.02089 0
M  V30 407 C 45.399 -2.84012 2.22192 0
M  V30 408 O 44.503 -3.78732 1.63204 0
M  V30 409 H 43.844 -0.471638 0.46739 0
M  V30 410 H 46.374 -0.944657 1.81487 0
M  V30 411 H 46.384 -3.33037 2.35691 0
M  V30 412 H 45.059 -2.59869 3.24716 0
M  V30 413 H 43.636 -3.37402 1.58791 0
M  V30 414 N 45.8211 -1.22559 -0.990812 0
M  V30 415 C 47.0691 -1.04933 -1.72724 0
M  V30 416 C 47.3901 0.416158 -1.90508 0
M  V30 417 O 46.6601 1.29918 -1.46622 0
M  V30 418 H 45.2401 -0.385296 -0.639965 0
M  V30 419 H 47.9021 -1.54105 -1.19322 0
M  V30 420 H 46.9981 -1.52886 -2.72089 0
M  V30 421 N 47.2992 1.18797 -1.03562 0
M  V30 422 C 48.2292 2.24472 -0.643019 0
M  V30 423 C 49.2102 1.66433 0.351283 0
M  V30 424 O 50.3952 1.92803 0.232505 0
M  V30 425 C 47.5252 3.473 4.24935e-05 0
M  V30 426 C 46.4792 4.18055 -0.917257 0
M  V30 427 C 45.8052 5.34519 -0.138941 0
M  V30 428 C 47.1052 4.72109 -2.23407 0
M  V30 429 H 48.7992 2.57566 -1.52643 0
M  V30 430 H 46.3452 1.23806 -0.735394 0
M  V30 431 H 48.2982 4.20426 0.286383 0
M  V30 432 H 47.0222 3.13424 0.918299 0
M  V30 433 H 45.6812 3.46821 -1.1879 0
M  V30 434 H 45.3292 4.96891 0.781562 0
M  V30 435 H 45.0292 5.82794 -0.750005 0
M  V30 436 H 46.5532 6.10438 0.1405 0
M  V30 437 H 47.9672 5.36955 -2.00879 0
M  V30 438 H 46.3642 5.30897 -2.79765 0
M  V30 439 H 47.4342 3.89807 -2.88407 0
M  V30 440 N 48.7773 0.814389 1.34928 0
M  V30 441 C 49.7093 0.187834 2.28429 0
M  V30 442 C 50.7223 -0.617374 1.5064 0
M  V30 443 O 51.9113 -0.448454 1.72775 0
M  V30 444 C 49.0113 -0.755962 3.30361 0
M  V30 445 C 48.1843 0.00456686 4.374 0
M  V30 446 C 47.2433 -0.858876 5.19143 0
M  V30 447 O 46.2693 -0.306968 5.68372 0
M  V30 448 N 47.4713 -2.17988 5.38016 0
M  V30 449 H 50.2363 0.991105 2.82838 0
M  V30 450 H 47.7973 0.670561 1.4736 0
M  V30 451 H 49.7893 -1.338 3.81942 0
M  V30 452 H 48.3593 -1.46001 2.7641 0
M  V30 453 H 47.5793 0.767865 3.86649 0
M  V30 454 H 48.8673 0.528422 5.06049 0
M  V30 455 H 48.2653 -2.65212 4.99679 0
M  V30 456 H 46.8223 -2.71098 5.92747 0
M  V30 457 N 50.2554 -1.46986 0.568584 0
M  V30 458 C 51.6714 -1.57946 0.229189 0
M  V30 459 C 51.8714 -1.56567 -1.26843 0
M  V30 460 O 50.9274 -1.47511 -2.04931 0
M  V30 461 C 52.2404 -2.87963 0.865909 0
M  V30 462 C 53.7884 -3.01568 0.838188 0
M  V30 463 C 54.2634 -4.34301 1.45419 0
M  V30 464 N 55.7544 -4.40965 1.41788 0
M  V30 465 C 56.4894 -5.42256 1.86403 0
M  V30 466 N 55.9854 -6.50297 2.38926 0
M  V30 467 N 57.7784 -5.3337 1.77405 0
M  V30 468 H 49.9294 -1.46126 1.54146 0
M  V30 469 H 52.1924 -0.696156 0.643484 0
M  V30 470 H 51.8984 -2.94742 1.91886 0
M  V30 471 H 51.7724 -3.75423 0.365687 0
M  V30 472 H 54.1594 -2.94379 -0.206106 0
M  V30 473 H 54.2404 -2.1562 1.37629 0
M  V30 474 H 53.8844 -4.42247 2.49761 0
M  V30 475 H 53.8144 -5.19 0.891435 0
M  V30 476 H 56.3054 -3.63484 1.03381 0
M  V30 477 H 56.6184 -7.23777 2.70863 0
M  V30 478 H 54.9634 -6.51155 2.42944 0
M  V30 479 H 58.1544 -4.47865 1.3614 0
M  V30 480 H 58.3274 -6.12169 2.12492 0
M  V30 481 N 51.7335 -0.305618 -1.54608 0
M  V30 482 C 52.6965 0.555591 -2.22364 0
M  V30 483 C 53.6965 1.05768 -1.21119 0
M  V30 484 O 54.8865 0.952972 -1.45822 0
M  V30 485 C 52.0185 1.76974 -2.91364 0
M  V30 486 H 53.2115 -0.0364572 -2.99878 0
M  V30 487 H 50.7645 -0.0565007 -1.56198 0
M  V30 488 H 51.4995 2.40151 -2.17941 0
M  V30 489 H 51.2845 1.41732 -3.65588 0
M  V30 490 H 52.7745 2.38148 -3.43038 0
M  V30 491 N 53.2116 1.57565 -0.0334293 0
M  V30 492 C 54.1216 2.13943 0.962572 0
M  V30 493 C 55.1376 1.09276 1.35406 0
M  V30 494 O 56.3136 1.41355 1.4346 0
M  V30 495 C 53.3786 2.65887 2.22497 0
M  V30 496 C 52.4396 3.85286 1.8935 0
M  V30 497 C 51.6726 4.34743 3.09571 0
M  V30 498 O 51.8956 3.83352 4.22371 0
M  V30 499 O 50.8296 5.26538 2.91618 0
M  V30 500 H 54.6556 2.99333 0.513169 0
M  V30 501 H 52.2406 1.4822 0.18743 0
M  V30 502 H 54.1226 2.99346 2.96598 0
M  V30 503 H 52.7976 1.83578 2.6661 0
M  V30 504 H 51.7046 3.56746 1.1262 0
M  V30 505 H 53.0376 4.68771 1.5005 0
M  V30 506 N 54.6897 -0.239769 1.55765 0
M  V30 507 C 55.5997 -1.31831 1.94056 0
M  V30 508 C 56.6157 -1.52275 0.841925 0
M  V30 509 O 57.7917 -1.65759 1.14394 0
M  V30 510 C 54.8567 -2.65156 2.23368 0
M  V30 511 C 53.9177 -2.53173 3.46701 0
M  V30 512 C 53.1507 -3.8014 3.74606 0
M  V30 513 O 53.3737 -4.82343 3.04469 0
M  V30 514 O 52.3077 -3.78344 4.68123 0
M  V30 515 H 56.1337 -1.02347 2.85935 0
M  V30 516 H 53.7187 -0.441123 1.42739 0
M  V30 517 H 55.6007 -3.43929 2.43497 0
M  V30 518 H 54.2757 -2.94358 1.34666 0
M  V30 519 H 53.1827 -1.72662 3.31871 0
M  V30 520 H 54.5157 -2.28915 4.35728 0
M  V30 521 N 56.1678 -1.49265 -0.50573 0
M  V30 522 C 57.1308 -1.65075 -1.59006 0
M  V30 523 C 58.1308 -0.522768 -1.52065 0
M  V30 524 O 59.3208 -0.789117 -1.55302 0
M  V30 525 C 56.4528 -1.64369 -2.98656 0
M  V30 526 H 57.6458 -2.61784 -1.46319 0
M  V30 527 H 55.1988 -1.38226 -0.729616 0
M  V30 528 H 55.9338 -0.692272 -3.16825 0
M  V30 529 H 55.7188 -2.46282 -3.05103 0
M  V30 530 H 57.2088 -1.78674 -3.77446 0
M  V30 531 N 57.6459 0.756429 -1.3826 0
M  V30 532 C 59.0569 1.33359 -1.30661 0
M  V30 533 C 59.4079 1.96161 0.0388875 0
M  V30 534 O 58.5329 1.94874 0.940918 0
M  V30 535 C 59.1279 2.42477 -2.36622 0
M  V30 536 C 57.6869 2.95922 -2.3261 0
M  V30 537 C 56.8339 1.69275 -2.19639 0
M  V30 538 H 59.7849 0.55552 -1.4866 0
M  V30 539 H 59.8059 3.22345 -2.02174 0
M  V30 540 H 59.3179 1.96739 -3.34538 0
M  V30 541 H 57.4189 3.45996 -1.38267 0
M  V30 542 H 57.5319 3.50494 -3.26636 0
M  V30 543 H 55.8959 1.92793 -1.66442 0
M  V30 544 H 56.6789 1.25619 -3.19491 0
M  V30 545 N 59.124 1.23083 0.984299 0
M  V30 546 C 60.54 0.992637 1.24975 0
M  V30 547 C 60.74 -0.308618 1.99123 0
M  V30 548 O 59.796 -1.02905 2.30579 0
M  V30 549 C 61.109 2.19698 2.05312 0
M  V30 550 C 62.657 2.24147 2.18465 0
M  V30 551 C 63.132 3.44157 3.02192 0
M  V30 552 N 64.623 3.44372 3.09777 0
M  V30 553 C 65.358 4.33886 3.74874 0
M  V30 554 N 64.854 5.3363 4.41827 0
M  V30 555 N 66.647 4.21639 3.71721 0
M  V30 556 H 58.798 2.06731 0.487453 0
M  V30 557 H 61.061 0.906339 0.277944 0
M  V30 558 H 60.767 3.1411 1.58201 0
M  V30 559 H 60.641 2.20465 3.06064 0
M  V30 560 H 63.028 1.30277 2.64786 0
M  V30 561 H 63.109 2.27415 1.17115 0
M  V30 562 H 62.753 4.38332 2.56568 0
M  V30 563 H 62.683 3.3813 4.03702 0
M  V30 564 H 65.174 2.72201 2.62135 0
M  V30 565 H 65.487 5.98196 4.89266 0
M  V30 566 H 63.832 5.37534 4.40548 0
M  V30 567 H 67.023 3.42962 3.18582 0
M  V30 568 H 67.196 4.91604 4.22173 0
M  V30 569 N 60.6021 -1.18246 1.0419 0
M  V30 570 C 62.0181 -1.40269 0.761366 0
M  V30 571 C 62.2181 -1.90777 -0.648578 0
M  V30 572 O 61.2741 -2.0929 -1.41258 0
M  V30 573 C 62.5871 -2.40237 1.8085 0
M  V30 574 C 64.1351 -2.53961 1.82955 0
M  V30 575 C 64.6101 -3.57194 2.86664 0
M  V30 576 N 66.1011 -3.64702 2.85563 0
M  V30 577 C 66.8361 -4.44309 3.6246 0
M  V30 578 N 66.3321 -5.27514 4.49111 0
M  V30 579 N 68.1251 -4.39084 3.50944 0
M  V30 580 H 60.2761 -0.837882 1.95175 0
M  V30 581 H 62.5391 -0.430608 0.84456 0
M  V30 582 H 62.2451 -2.10176 2.81991 0
M  V30 583 H 62.1191 -3.39601 1.64168 0
M  V30 584 H 64.5061 -2.83338 0.824855 0
M  V30 585 H 64.5871 -1.54706 2.03715 0
M  V30 586 H 64.2311 -3.28558 3.87314 0
M  V30 587 H 64.1611 -4.5613 2.6316 0
M  V30 588 H 66.6521 -3.05289 2.22727 0
M  V30 589 H 66.9651 -5.85411 5.04493 0
M  V30 590 H 65.3101 -5.2693 4.53178 0
M  V30 591 H 68.5011 -3.7313 2.82651 0
M  V30 592 H 68.6741 -5.00883 4.11121 0
M  V30 593 N 62.0802 -0.821533 -1.34494 0
M  V30 594 C 63.0122 -0.199946 -2.28326 0
M  V30 595 C 64.0252 0.609377 -1.50965 0
M  V30 596 O 65.2142 0.439285 -1.7301 0
M  V30 597 C 62.3142 0.738431 -3.30757 0
M  V30 598 C 61.4872 -0.0277632 -4.37391 0
M  V30 599 C 60.5462 0.831332 -5.19591 0
M  V30 600 O 59.5722 0.276822 -5.68526 0
M  V30 601 N 60.7742 2.15132 -5.39165 0
M  V30 602 H 63.5392 -1.00609 -2.82308 0
M  V30 603 H 61.1002 -0.678366 -1.47003 0
M  V30 604 H 63.0922 1.31773 -3.82646 0
M  V30 605 H 61.6622 1.44533 -2.7718 0
M  V30 606 H 60.8822 -0.788359 -3.86236 0
M  V30 607 H 62.1702 -0.555251 -5.05761 0
M  V30 608 H 61.5682 2.62559 -5.01078 0
M  V30 609 H 60.1252 2.6795 -5.94177 0
M  V30 610 N 63.5583 1.46682 -0.576371 0
M  V30 611 C 64.4883 2.33028 0.148397 0
M  V30 612 C 65.4693 1.44961 0.889956 0
M  V30 613 O 66.6543 1.73789 0.866662 0
M  V30 614 C 63.7843 3.27117 1.1667 0
M  V30 615 C 62.7383 4.24575 0.540386 0
M  V30 616 C 62.0643 5.08126 1.6647 0
M  V30 617 C 63.3643 5.19722 -0.518331 0
M  V30 618 H 65.0583 2.93875 -0.572509 0
M  V30 619 H 62.6043 1.41315 -0.276768 0
M  V30 620 H 64.5573 3.86374 1.68204 0
M  V30 621 H 63.2813 2.64364 1.9178 0
M  V30 622 H 61.9403 3.66571 0.0461769 0
M  V30 623 H 61.5883 4.41762 2.40531 0
M  V30 624 H 61.2883 5.74122 1.25131 0
M  V30 625 H 62.8123 5.70246 2.18293 0
M  V30 626 H 64.2263 5.73232 -0.0883058 0
M  V30 627 H 62.6233 5.94026 -0.851679 0
M  V30 628 H 63.6933 4.64037 -1.40703 0
M  V30 629 N 65.0364 0.313813 1.54444 0
M  V30 630 C 66.4524 -0.0391619 1.59552 0
M  V30 631 C 66.6524 -1.51322 1.33056 0
M  V30 632 O 65.7084 -2.26782 1.11022 0
M  V30 633 C 67.0214 0.370302 2.98411 0
M  V30 634 C 68.5694 0.320139 3.11358 0
M  V30 635 C 69.0444 0.704617 4.52547 0
M  V30 636 N 70.5354 0.657645 4.58508 0
M  V30 637 C 71.2704 0.927453 5.6585 0
M  V30 638 N 70.7664 1.26389 6.81174 0
M  V30 639 N 72.5594 0.853662 5.5558 0
M  V30 640 H 64.7104 1.27433 1.69925 0
M  V30 641 H 66.9734 0.517511 0.794284 0
M  V30 642 H 66.6794 1.39694 3.22767 0
M  V30 643 H 66.5534 -0.269619 3.76235 0
M  V30 644 H 68.9404 -0.697275 2.86744 0
M  V30 645 H 69.0214 0.99486 2.35661 0
M  V30 646 H 68.6654 1.7199 4.77893 0
M  V30 647 H 68.5954 0.00768843 5.26599 0
M  V30 648 H 71.0864 0.409067 3.75679 0
M  V30 649 H 71.3994 1.4554 7.58972 0
M  V30 650 H 69.7444 1.30206 6.82694 0
M  V30 651 H 72.9354 0.590383 4.64362 0
M  V30 652 H 73.1084 1.0673 6.3915 0
M  V30 653 N 66.5145 -1.57545 0.0417849 0
M  V30 654 C 67.7605 -1.92601 -0.635021 0
M  V30 655 C 68.0935 -0.919627 -1.71045 0
M  V30 656 O 67.3685 0.0557892 -1.9442 0
M  V30 657 C 67.6515 -3.38085 -1.23979 0
M  V30 658 C 67.5045 -4.49467 -0.173057 0
M  V30 659 C 68.8235 -3.83776 -2.15416 0
M  V30 660 H 65.9425 -0.700397 -0.229374 0
M  V30 661 H 68.5845 -1.89728 0.101633 0
M  V30 662 H 66.7345 -3.40664 -1.86762 0
M  V30 663 H 68.4065 -4.59018 0.458312 0
M  V30 664 H 66.6495 -4.30909 0.499996 0
M  V30 665 H 67.3205 -5.48323 -0.636054 0
M  V30 666 H 69.7965 -3.83013 -1.62605 0
M  V30 667 H 68.6725 -4.8624 -2.54679 0
M  V30 668 H 68.9335 -3.19998 -3.05047 0
M  V30 669 N 67.9926 0.231505 -1.5589 0
M  V30 670 C 69.2176 0.978689 -1.82856 0
M  V30 671 C 69.6426 1.77559 -0.620846 0
M  V30 672 O 69.0006 1.76119 0.430305 0
M  V30 673 C 69.0486 1.87997 -3.07716 0
M  V30 674 O 68.1526 2.97393 -2.85712 0
M  V30 675 H 67.4936 0.277663 -0.603158 0
M  V30 676 H 70.0236 0.24783 -2.03093 0
M  V30 677 H 70.0336 2.2917 -3.37558 0
M  V30 678 H 68.7086 1.29417 -3.95252 0
M  V30 679 H 67.2856 2.60238 -2.67078 0
M  V30 680 N 69.4707 1.49531 0.497807 0
M  V30 681 C 70.4027 1.62559 1.61578 0
M  V30 682 C 71.4157 0.508134 1.54667 0
M  V30 683 O 72.6047 0.780309 1.60541 0
M  V30 684 C 69.7047 1.56925 3.00379 0
M  V30 685 C 68.8777 2.84257 3.3244 0
M  V30 686 C 67.9367 2.71632 4.50669 0
M  V30 687 O 66.9627 3.4557 4.52294 0
M  V30 688 N 68.1647 1.83391 5.5077 0
M  V30 689 H 70.9297 2.58981 1.50828 0
M  V30 690 H 68.4907 1.4666 0.685743 0
M  V30 691 H 70.4827 1.46129 3.77397 0
M  V30 692 H 69.0527 0.683483 3.05037 0
M  V30 693 H 68.2727 3.09381 2.44289 0
M  V30 694 H 69.5607 3.68666 3.5066 0
M  V30 695 H 68.9587 1.22583 5.52259 0
M  V30 696 H 67.5157 1.78515 6.26878 0
M  V30 697 N 70.9488 -0.749086 1.3866 0
M  V30 698 C 72.3648 -1.05276 1.19955 0
M  V30 699 C 72.5648 -2.01435 0.05134 0
M  V30 700 O 71.6208 -2.45232 -0.60147 0
M  V30 701 C 72.9338 -1.62853 2.52783 0
M  V30 702 C 74.4818 -1.75002 2.59506 0
M  V30 703 C 74.9568 -2.35991 3.92521 0
M  V30 704 N 76.4478 -2.43416 3.94085 0
M  V30 705 C 77.1828 -2.91511 4.9377 0
M  V30 706 N 76.6788 -3.39608 6.03853 0
M  V30 707 N 78.4718 -2.90592 4.81157 0
M  V30 708 H 70.6228 -0.111066 2.12109 0
M  V30 709 H 72.8858 -0.111901 0.941373 0
M  V30 710 H 72.5918 -0.99664 3.37283 0
M  V30 711 H 72.4658 -2.61854 2.715 0
M  V30 712 H 74.8528 -2.37317 1.75398 0
M  V30 713 H 74.9338 -0.74693 2.44652 0
M  V30 714 H 74.5778 -1.74308 4.77053 0
M  V30 715 H 74.5078 -3.3695 4.04688 0
M  V30 716 H 76.9988 -2.09405 3.14576 0
M  V30 717 H 77.3118 -3.74775 6.75843 0
M  V30 718 H 75.6568 -3.37653 6.07466 0
M  V30 719 H 78.8478 -2.52332 3.94267 0
M  V30 720 H 79.0208 -3.27762 5.58996 0
M  V30 721 N 72.4269 -1.23603 -0.977757 0
M  V30 722 C 73.6549 -1.09646 -1.75458 0
M  V30 723 C 74.0699 0.351859 -1.85492 0
M  V30 724 O 73.4269 1.24327 -1.336 0
M  V30 725 C 73.4779 -1.71895 -3.18016 0
M  V30 726 O 73.1989 -3.11063 -3.08498 0
M  V30 727 C 74.6999 -1.63415 -4.12081 0
M  V30 728 H 71.9199 -0.38359 -0.550545 0
M  V30 729 H 74.4639 -1.63507 -1.22824 0
M  V30 730 H 72.6189 -1.22061 -3.67668 0
M  V30 731 H 73.0329 -3.41305 -3.9826 0
M  V30 732 H 74.5069 -2.11669 -5.09804 0
M  V30 733 H 74.9839 -0.593462 -4.35172 0
M  V30 734 H 75.5899 -2.12628 -3.68334 0
M  V30 735 N 73.905 1.17692 -1.04816 0
M  V30 736 C 75.182 1.83768 -0.669963 0
M  V30 737 C 75.562 1.93232 0.849986 0
M  V30 738 O 74.91 1.46397 1.75443 0
M  V30 739 C 75.12 3.21641 -1.35455 0
M  V30 740 C 76.468 3.97592 -1.49017 0
M  V30 741 O 77.492 3.31107 -1.31326 0
M  V30 742 O 76.351 5.16729 -1.77914 0
M  V30 743 H 73.445 0.792799 -0.235368 0
M  V30 744 H 75.991 1.25021 -1.14751 0
M  V30 745 H 74.763 3.097 -2.39168 0
M  V30 746 H 74.386 3.88052 -0.866107 0
M  V30 747 N 75.3831 0.828654 1.34056 0
M  V30 748 C 76.6311 0.41863 1.97717 0
M  V30 749 C 76.9521 -1.02314 1.66002 0
M  V30 750 O 76.2221 -1.71119 0.953683 0
M  V30 751 H 74.8021 0.151809 0.731412 0
M  V30 752 H 77.4641 1.05936 1.63596 0
M  V30 753 H 76.5601 0.542318 3.07352 0
M  V30 754 N 76.8612 -1.46375 0.584142 0
M  V30 755 C 77.7712 -2.34115 -0.150728 0
M  V30 756 C 78.7872 -1.49838 -0.884567 0
M  V30 757 O 79.9632 -1.82704 -0.847429 0
M  V30 758 C 77.0282 -3.2705 -1.15062 0
M  V30 759 C 76.0892 -4.27228 -0.421293 0
M  V30 760 C 75.3222 -5.15722 -1.37355 0
M  V30 761 O 75.5452 -5.07176 -2.61014 0
M  V30 762 O 74.4792 -5.95383 -0.883355 0
M  V30 763 H 78.3052 -2.98309 0.569708 0
M  V30 764 H 75.8902 -1.45373 0.344535 0
M  V30 765 H 77.7722 -3.84381 -1.72712 0
M  V30 766 H 76.4472 -2.65451 -1.8525 0
M  V30 767 H 75.3542 -3.7358 0.197085 0
M  V30 768 H 76.6872 -4.91616 0.239641 0
M  V30 769 N 78.3393 -0.321999 -1.54275 0
M  V30 770 C 79.5643 0.285791 -2.05422 0
M  V30 771 C 79.9893 1.45124 -1.19669 0
M  V30 772 O 79.3473 1.80132 -0.205441 0
M  V30 773 C 79.3953 0.69956 -3.53749 0
M  V30 774 O 78.4993 1.8021 -3.70942 0
M  V30 775 H 77.8403 0.0518962 -0.661969 0
M  V30 776 H 80.3703 -0.469954 -1.9913 0
M  V30 777 H 80.3803 0.982649 -3.9599 0
M  V30 778 H 79.0553 -0.152864 -4.15619 0
M  V30 779 H 77.6323 1.51794 -3.40607 0
M  V30 780 N 79.8174 1.5752 -0.0501392 0
M  V30 781 C 81.2334 1.56631 0.306402 0
M  V30 782 C 81.4334 1.0577 1.71508 0
M  V30 783 O 80.4894 0.713837 2.422 0
M  V30 784 C 81.8024 3.00393 0.135811 0
M  V30 785 C 83.3504 3.12315 0.206993 0
M  V30 786 C 83.8254 4.57954 0.064944 0
M  V30 787 N 85.3164 4.63041 0.121254 0
M  V30 788 C 86.0514 5.73389 0.0354381 0
M  V30 789 N 85.5474 6.92724 -0.102666 0
M  V30 790 N 87.3404 5.62026 0.090946 0
M  V30 791 H 79.4914 1.88903 -0.971046 0
M  V30 792 H 81.7544 0.869876 -0.376855 0
M  V30 793 H 81.4604 3.41635 -0.835384 0
M  V30 794 H 81.3344 3.66373 0.897275 0
M  V30 795 H 83.7214 2.70973 1.16866 0
M  V30 796 H 83.8024 2.49016 -0.585208 0
M  V30 797 H 83.4464 4.99981 -0.893394 0
M  V30 798 H 83.3764 5.19258 0.876277 0
M  V30 799 H 85.8674 3.77216 0.227284 0
M  V30 800 H 86.1804 7.72633 -0.160882 0
M  V30 801 H 84.5254 6.94864 -0.137737 0
M  V30 802 H 87.7164 4.67684 0.197388 0
M  V30 803 H 87.8894 6.47997 0.0206089 0
M  V30 804 N 81.2955 -0.223234 1.56011 0
M  V30 805 C 82.2585 -1.26014 1.9145 0
M  V30 806 C 83.2585 -1.3989 0.792937 0
M  V30 807 O 84.4485 -1.38184 1.0607 0
M  V30 808 C 81.5805 -2.63422 2.16383 0
M  V30 809 H 82.7735 -0.95796 2.84189 0
M  V30 810 H 80.3265 -0.463576 1.49267 0
M  V30 811 H 81.0615 -2.98741 1.2619 0
M  V30 812 H 80.8465 -2.54728 2.98088 0
M  V30 813 H 82.3365 -3.38249 2.44903 0
M  V30 814 N 82.7736 -1.49793 -0.48987 0
M  V30 815 C 83.7236 -1.63673 -1.5873 0
M  V30 816 C 84.7076 -0.491956 -1.53195 0
M  V30 817 O 85.8996 -0.745461 -1.60536 0
M  V30 818 C 83.0286 -1.71689 -2.97284 0
M  V30 819 C 82.1146 -2.91781 -3.07774 0
M  V30 820 N 82.5056 -4.15714 -2.88124 0
M  V30 821 C 80.8036 -2.89949 -3.38889 0
M  V30 822 C 81.5046 -4.965 -3.03088 0
M  V30 823 N 80.4806 -4.30083 -3.3246 0
M  V30 824 H 84.2826 -2.57204 -1.42208 0
M  V30 825 H 81.7966 -1.46719 -0.69623 0
M  V30 826 H 83.7936 -1.79732 -3.76168 0
M  V30 827 H 82.4536 -0.793024 -3.14867 0
M  V30 828 H 83.4646 -4.45515 -2.64077 0
M  V30 829 H 80.1416 -2.06987 -3.62578 0
M  V30 830 H 81.5316 -6.04991 -2.92294 0
M  V30 831 N 84.2517 0.741722 -1.39055 0
M  V30 832 C 85.1817 1.869 -1.39966 0
M  V30 833 C 86.1627 1.6804 -0.26392 0
M  V30 834 O 87.3477 1.88458 -0.468755 0
M  V30 835 C 84.4777 3.24572 -1.23574 0
M  V30 836 C 83.4317 3.58056 -2.34477 0
M  V30 837 C 82.7577 4.94593 -2.0318 0
M  V30 838 C 84.0577 3.61716 -3.76774 0
M  V30 839 H 85.7517 1.86395 -2.34302 0
M  V30 840 H 83.2977 0.895361 -1.1278 0
M  V30 841 H 85.2507 4.031 -1.22834 0
M  V30 842 H 83.9747 3.25587 -0.257045 0
M  V30 843 H 82.6337 2.81854 -2.34423 0
M  V30 844 H 82.2817 4.92181 -1.03765 0
M  V30 845 H 81.9817 5.17964 -2.77465 0
M  V30 846 H 83.5057 5.75486 -2.04079 0
M  V30 847 H 84.9197 4.30335 -3.78794 0
M  V30 848 H 83.3167 3.96603 -4.50362 0
M  V30 849 H 84.3867 2.61672 -4.08235 0
M  V30 850 N 85.7298 1.2412 0.971189 0
M  V30 851 C 86.9778 1.07668 1.71032 0
M  V30 852 C 87.2988 -0.385797 1.91146 0
M  V30 853 O 86.5688 -1.27569 1.4867 0
M  V30 854 H 85.1488 0.395429 0.633755 0
M  V30 855 H 87.8108 1.55984 1.16855 0
M  V30 856 H 86.9068 1.57195 2.69622 0
M  V30 857 N 87.2079 -1.17134 1.05439 0
M  V30 858 C 88.1709 -2.19439 0.661764 0
M  V30 859 C 89.1709 -1.58199 -0.288042 0
M  V30 860 O 90.3609 -1.74053 -0.0715803 0
M  V30 861 C 87.4929 -3.40889 -0.0276209 0
M  V30 862 H 88.6859 -2.55688 1.56728 0
M  V30 863 H 86.2389 -1.31259 0.848567 0
M  V30 864 H 86.9739 -3.10187 -0.94629 0
M  V30 865 H 86.7589 -3.86586 0.655238 0
M  V30 866 H 88.2489 -4.16603 -0.288342 0
M  V30 867 N 88.686 -0.835752 -1.33615 0
M  V30 868 C 89.616 -0.281739 -2.31794 0
M  V30 869 C 90.597 0.608833 -1.58831 0
M  V30 870 O 91.782 0.533035 -1.86741 0
M  V30 871 C 88.912 0.546612 -3.42971 0
M  V30 872 C 87.866 -0.247904 -4.27281 0
M  V30 873 C 87.192 0.704001 -5.30045 0
M  V30 874 C 88.492 -1.46324 -5.01385 0
M  V30 875 H 90.186 -1.10206 -2.78379 0
M  V30 876 H 87.732 -0.531388 -1.33837 0
M  V30 877 H 89.685 0.944467 -4.1068 0
M  V30 878 H 88.409 1.40011 -2.95067 0
M  V30 879 H 87.068 -0.627281 -3.61194 0
M  V30 880 H 86.716 1.55381 -4.78399 0
M  V30 881 H 86.416 0.176524 -5.87335 0
M  V30 882 H 87.94 1.09944 -6.0062 0
M  V30 883 H 89.354 -1.13871 -5.61877 0
M  V30 884 H 87.751 -1.92728 -5.6831 0
M  V30 885 H 88.821 -2.23467 -4.30338 0
M  V30 886 N 90.1641 1.46063 -0.591896 0
M  V30 887 C 91.0941 2.33172 0.123673 0
M  V30 888 C 92.0751 1.45897 0.87453 0
M  V30 889 O 93.2601 1.74698 0.848181 0
M  V30 890 C 90.3901 3.28336 1.13194 0
M  V30 891 C 89.3441 4.25124 0.495324 0
M  V30 892 C 88.6701 5.09863 1.61071 0
M  V30 893 C 89.9701 5.19143 -0.573425 0
M  V30 894 H 91.6641 2.93252 -0.603646 0
M  V30 895 H 89.2101 1.41014 -0.291741 0
M  V30 896 H 91.1631 3.88137 1.64097 0
M  V30 897 H 89.8871 2.66383 1.88965 0
M  V30 898 H 88.5461 3.66599 0.00729452 0
M  V30 899 H 88.1941 4.44288 2.35832 0
M  V30 900 H 87.8941 5.75417 1.19035 0
M  V30 901 H 89.4181 5.72529 2.12233 0
M  V30 902 H 90.8321 5.73106 -0.1491 0
M  V30 903 H 89.2291 5.93089 -0.914636 0
M  V30 904 H 90.2991 4.62519 -1.45617 0
M  V30 905 N 91.6422 0.330177 1.54103 0
M  V30 906 C 92.6052 -0.520144 2.2322 0
M  V30 907 C 93.6052 -1.03828 1.22786 0
M  V30 908 O 94.7952 -0.929652 1.4732 0
M  V30 909 C 91.9272 -1.72317 2.94142 0
M  V30 910 H 93.1202 0.0841605 2.99782 0
M  V30 911 H 90.6732 0.0813433 1.56088 0
M  V30 912 H 91.4082 -2.36653 2.21734 0
M  V30 913 H 91.1932 -1.35898 3.67796 0
M  V30 914 H 92.6832 -2.3266 3.46784 0
M  V30 915 N 93.1203 -1.57491 0.0584922 0
M  V30 916 C 94.5363 -1.56792 -0.298091 0
M  V30 917 C 94.7363 -1.06679 -1.70944 0
M  V30 918 O 93.7923 -0.726672 -2.41818 0
M  V30 919 C 95.1053 -3.00461 -0.119879 0
M  V30 920 C 96.6533 -3.1242 -0.190428 0
M  V30 921 C 97.1283 -4.57982 -0.0406567 0
M  V30 922 N 98.6193 -4.63099 -0.0966958 0
M  V30 923 C 99.3543 -5.734 -0.00502943 0
M  V30 924 N 98.8503 -6.9266 0.139402 0
M  V30 925 N 100.643 -5.62067 -0.0611391 0
M  V30 926 H 92.7943 -1.88386 0.98105 0
M  V30 927 H 95.0573 -0.867865 0.381463 0
M  V30 928 H 94.7633 -3.41187 0.85349 0
M  V30 929 H 94.6373 -3.66843 -0.877833 0
M  V30 930 H 97.0243 -2.71589 -1.15427 0
M  V30 931 H 97.1053 -2.48702 0.598405 0
M  V30 932 H 96.7493 -4.995 0.919897 0
M  V30 933 H 96.6793 -5.19715 -0.848727 0
M  V30 934 H 99.1703 -3.77331 -0.207277 0
M  V30 935 H 99.4833 -7.72536 0.201855 0
M  V30 936 H 97.8283 -6.94781 0.174586 0
M  V30 937 H 101.019 -4.67782 -0.172583 0
M  V30 938 H 101.192 -6.47999 0.0137562 0
M  V30 939 N 94.5984 0.214957 -1.56127 0
M  V30 940 C 95.8284 0.953707 -1.8327 0
M  V30 941 C 96.2364 1.78181 -0.636262 0
M  V30 942 O 95.5794 1.79191 0.404516 0
M  V30 943 C 95.6414 1.91516 -3.0424 0
M  V30 944 C 95.3054 1.27094 -4.38972 0
M  V30 945 C 96.3024 0.657575 -5.15725 0
M  V30 946 C 93.9874 1.28073 -4.85698 0
M  V30 947 C 95.9814 0.0625968 -6.37369 0
M  V30 948 C 93.6684 0.681914 -6.07283 0
M  V30 949 C 94.6664 0.0739046 -6.8296 0
M  V30 950 O 94.3544 -0.515582 -8.02245 0
M  V30 951 H 94.0864 0.284764 -0.613095 0
M  V30 952 H 96.6404 0.233283 -2.04071 0
M  V30 953 H 94.8704 2.67475 -2.79274 0
M  V30 954 H 96.5594 2.52001 -3.18198 0
M  V30 955 H 97.3254 0.642288 -4.80728 0
M  V30 956 H 93.2044 1.74337 -4.26764 0
M  V30 957 H 96.7484 -0.412593 -6.96379 0
M  V30 958 H 92.6454 0.694636 -6.41752 0
M  V30 959 H 93.4134 -0.410544 -8.1747 0
M  V30 960 N 96.0765 1.50051 0.48192 0
M  V30 961 C 97.3255 1.59741 1.23149 0
M  V30 962 C 97.6385 0.298163 1.93314 0
M  V30 963 O 98.8445 0.273835 2.70116 0
M  V30 964 C 97.3005 2.81926 2.23708 0
M  V30 965 C 96.9085 4.18685 1.59396 0
M  V30 966 C 98.6525 3.00956 2.99375 0
M  V30 967 C 96.5595 5.3207 2.58178 0
M  V30 968 H 95.4895 0.594838 0.46334 0
M  V30 969 H 98.1405 1.76467 0.503169 0
M  V30 970 H 96.5225 2.58736 2.99786 0
M  V30 971 H 97.6965 4.52088 0.891811 0
M  V30 972 H 96.0115 4.05171 0.960503 0
M  V30 973 H 98.6085 3.82836 3.73283 0
M  V30 974 H 98.9515 2.12258 3.58123 0
M  V30 975 H 99.4845 3.24277 2.30411 0
M  V30 976 H 96.2235 6.22888 2.04184 0
M  V30 977 H 95.7435 5.03098 3.26577 0
M  V30 978 H 97.4225 5.62196 3.20225 0
M  V30 979 N 97.5546 -0.734337 1.39446 0
M  V30 980 C 98.4866 -1.85861 1.34121 0
M  V30 981 C 99.4996 -1.60871 0.249864 0
M  V30 982 O 100.689 -1.71093 0.508865 0
M  V30 983 C 97.7886 -3.21899 1.05991 0
M  V30 984 C 96.9616 -3.74239 2.26415 0
M  V30 985 C 96.0206 -4.88841 1.94733 0
M  V30 986 O 95.0466 -5.02468 2.67422 0
M  V30 987 N 96.2486 -5.73261 0.913884 0
M  V30 988 H 99.0136 -1.90934 2.31007 0
M  V30 989 H 96.5746 -0.915102 1.33557 0
M  V30 990 H 98.5666 -3.96136 0.828147 0
M  V30 991 H 97.1366 -3.12091 0.178361 0
M  V30 992 H 96.3566 -2.91347 2.65539 0
M  V30 993 H 97.6446 -4.05942 3.06738 0
M  V30 994 H 97.0426 -5.64842 0.311476 0
M  V30 995 H 95.5996 -6.47563 0.742015 0
M  V30 996 N 99.0327 -1.24633 -0.964593 0
M  V30 997 C 99.9647 -0.999302 -2.06268 0
M  V30 998 C 100.978 0.0323226 -1.62768 0
M  V30 999 O 102.167 -0.205079 -1.77318 0
M  V30 1000 C 99.2667 -0.486816 -3.35385 0
M  V30 1001 C 98.4397 -1.5823 -4.07777 0
M  V30 1002 C 97.4987 -1.07191 -5.15166 0
M  V30 1003 O 96.5247 -1.76426 -5.41168 0
M  V30 1004 N 97.7267 0.0920373 -5.80427 0
M  V30 1005 H 100.492 -1.94477 -2.28033 0
M  V30 1006 H 98.0527 -1.15704 -1.13244 0
M  V30 1007 H 100.045 -0.130066 -4.04491 0
M  V30 1008 H 98.6147 0.364459 -3.10468 0
M  V30 1009 H 97.8347 -2.11109 -3.32906 0
M  V30 1010 H 99.1227 -2.31854 -4.52903 0
M  V30 1011 H 98.5207 0.670784 -5.61709 0
M  V30 1012 H 97.0777 0.389905 -6.50633 0
M  V30 1013 N 100.511 1.16574 -1.06058 0
M  V30 1014 C 101.474 2.19085 -0.673392 0
M  V30 1015 C 102.474 1.5835 0.279648 0
M  V30 1016 O 103.664 1.74088 0.0623488 0
M  V30 1017 C 100.796 3.40899 0.00954234 0
M  V30 1018 H 101.989 2.54853 -1.58081 0
M  V30 1019 H 99.5418 1.30808 -0.855516 0
M  V30 1020 H 100.277 3.10684 0.929826 0
M  V30 1021 H 100.062 3.86233 -0.67573 0
M  V30 1022 H 101.552 4.1675 0.266245 0
M  V30 1023 N 101.989 0.842826 1.3317 0
M  V30 1024 C 103.405 0.531128 1.50503 0
M  V30 1025 C 103.605 -0.940734 1.78192 0
M  V30 1026 O 102.661 -1.72436 1.84451 0
M  V30 1027 C 103.974 1.40789 2.65705 0
M  V30 1028 C 105.522 1.40708 2.79589 0
M  V30 1029 C 105.997 2.26878 3.97857 0
M  V30 1030 N 107.488 2.24609 4.05099 0
M  V30 1031 C 108.223 2.88019 4.95815 0
M  V30 1032 N 107.719 3.60496 5.9162 0
M  V30 1033 N 109.512 2.77469 4.88843 0
M  V30 1034 H 101.663 1.79557 1.1346 0
M  V30 1035 H 103.926 0.766267 0.558156 0
M  V30 1036 H 103.632 2.454 2.51936 0
M  V30 1037 H 103.506 1.08677 3.61205 0
M  V30 1038 H 105.893 0.368668 2.92788 0
M  V30 1039 H 105.974 1.76829 1.84838 0
M  V30 1040 H 105.618 3.3078 3.85418 0
M  V30 1041 H 105.548 1.88096 4.91861 0
M  V30 1042 H 108.039 1.71906 3.36536 0
M  V30 1043 H 108.352 4.06076 6.57512 0
M  V30 1044 H 106.697 3.64604 5.91683 0
M  V30 1045 H 109.888 2.20406 4.12963 0
M  V30 1046 H 110.061 3.2717 5.59342 0
M  V30 1047 N 103.467 -1.45747 0.599634 0
M  V30 1048 C 104.414 -2.30467 -0.123849 0
M  V30 1049 C 105.384 -1.41632 -0.86774 0
M  V30 1050 O 106.569 -1.70568 -0.855056 0
M  V30 1051 C 103.709 -3.26402 -1.12051 0
M  V30 1052 C 102.822 -4.3034 -0.37832 0
M  V30 1053 C 101.957 -5.13389 -1.364 0
M  V30 1054 C 100.996 -6.09061 -0.609171 0
M  V30 1055 N 100.133 -6.84918 -1.54374 0
M  V30 1056 H 104.973 -2.91802 0.604627 0
M  V30 1057 H 102.51 -1.43797 0.309972 0
M  V30 1058 H 104.468 -3.80482 -1.7114 0
M  V30 1059 H 103.098 -2.66839 -1.8165 0
M  V30 1060 H 102.15 -3.78984 0.327929 0
M  V30 1061 H 103.462 -4.98354 0.210997 0
M  V30 1062 H 102.616 -5.7183 -2.02719 0
M  V30 1063 H 101.355 -4.45376 -1.98725 0
M  V30 1064 H 100.36 -5.49758 0.0676979 0
M  V30 1065 H 101.585 -6.79099 0.00891991 0
M  V30 1066 H 99.531 -6.19601 -2.15478 0
M  V30 1067 H 99.448 -7.49254 -1.00766 0
M  V30 1068 H 100.716 -7.47906 -2.19676 0
M  V30 1069 N 104.945 -0.338344 -1.53925 0
M  V30 1070 C 105.908 0.508299 -2.23493 0
M  V30 1071 C 106.908 1.03175 -1.23335 0
M  V30 1072 O 108.098 0.921826 -1.47811 0
M  V30 1073 C 105.23 1.70754 -2.95052 0
M  V30 1074 H 106.423 -0.100058 -2.99733 0
M  V30 1075 H 103.976 -0.0896198 -1.56043 0
M  V30 1076 H 104.711 2.35474 -2.22986 0
M  V30 1077 H 104.496 1.33946 -3.68512 0
M  V30 1078 H 105.986 2.30818 -3.48013 0
M  V30 1079 N 106.423 1.57458 -0.0668435 0
M  V30 1080 C 107.834 1.80776 0.466558 0
M  V30 1081 C 108.185 0.980361 1.69951 0
M  V30 1082 O 107.31 0.201441 2.1546 0
M  V30 1083 C 107.905 3.27881 0.85321 0
M  V30 1084 C 106.464 3.52062 1.3315 0
M  V30 1085 C 105.611 2.75513 0.314264 0
M  V30 1086 H 108.562 1.5598 -0.292588 0
M  V30 1087 H 108.583 3.39659 1.715 0
M  V30 1088 H 108.095 3.88075 -0.0443439 0
M  V30 1089 H 106.196 2.97167 2.24772 0
M  V30 1090 H 106.309 4.60762 1.31285 0
M  V30 1091 H 104.673 2.42123 0.790492 0
M  V30 1092 H 105.456 3.38442 -0.575477 0
M  V30 1093 N 107.901 -0.206675 1.56239 0
M  V30 1094 C 109.126 -0.949474 1.8439 0
M  V30 1095 C 109.551 -1.76549 0.649016 0
M  V30 1096 O 108.909 -1.76782 -0.402231 0
M  V30 1097 C 108.957 -1.83078 3.10668 0
M  V30 1098 O 108.061 -2.9281 2.90407 0
M  V30 1099 H 107.402 -0.268033 0.607499 0
M  V30 1100 H 109.932 -0.215488 2.03462 0
M  V30 1101 H 109.942 -2.2377 3.41161 0
M  V30 1102 H 108.617 -1.23112 3.97261 0
M  V30 1103 H 107.194 -2.55956 2.71184 0
M  V30 1104 N 109.379 -1.50304 -0.473955 0
M  V30 1105 C 110.627 -1.60832 -1.22382 0
M  V30 1106 C 110.948 -0.30939 -1.9253 0
M  V30 1107 O 110.218 0.67296 -1.83978 0
M  V30 1108 H 108.798 -0.592652 -0.454723 0
M  V30 1109 H 111.46 -1.87068 -0.546968 0
M  V30 1110 H 110.556 -2.41803 -1.97327 0
M  V30 1111 N 110.857 0.726932 -1.39834 0
M  V30 1112 C 112.273 1.03354 -1.21615 0
M  V30 1113 C 112.473 2.01327 -0.08338 0
M  V30 1114 O 111.529 2.46158 0.56238 0
M  V30 1115 C 112.842 1.58811 -2.55342 0
M  V30 1116 C 114.39 1.70851 -2.62257 0
M  V30 1117 C 114.865 2.29716 -3.96225 0
M  V30 1118 N 116.356 2.37116 -3.97907 0
M  V30 1119 C 117.091 2.83619 -4.98345 0
M  V30 1120 N 116.587 3.29958 -6.09179 0
M  V30 1121 N 118.38 2.82901 -4.8572 0
M  V30 1122 H 110.531 0.0773069 -2.12259 0
M  V30 1123 H 112.794 0.0969102 -0.943034 0
M  V30 1124 H 112.5 0.942855 -3.38826 0
M  V30 1125 H 112.374 2.57502 -2.75632 0
M  V30 1126 H 114.761 2.34497 -1.79152 0
M  V30 1127 H 114.842 0.707913 -2.45809 0
M  V30 1128 H 114.486 1.66696 -4.79765 0
M  V30 1129 H 114.416 3.30469 -4.09997 0
M  V30 1130 H 116.907 2.04374 -3.17868 0
M  V30 1131 H 117.22 3.63976 -6.8172 0
M  V30 1132 H 115.565 3.27946 -6.12761 0
M  V30 1133 H 118.756 2.46027 -3.98231 0
M  V30 1134 H 118.929 3.18827 -5.6414 0
M  V30 1135 N 112.336 1.25143 0.95797 0
M  V30 1136 C 113.269 0.995565 2.05338 0
M  V30 1137 C 114.247 -0.0740423 1.62431 0
M  V30 1138 O 115.431 0.0649212 1.88388 0
M  V30 1139 C 112.558 0.504298 3.34925 0
M  V30 1140 C 111.604 1.56393 3.96792 0
M  V30 1141 S 112.437 3.14815 4.33188 0
M  V30 1142 C 113.593 2.67415 5.65898 0
M  V30 1143 H 113.826 1.92309 2.26726 0
M  V30 1144 H 111.359 1.08635 1.09716 0
M  V30 1145 H 113.317 0.227497 4.09869 0
M  V30 1146 H 111.978 -0.402671 3.11508 0
M  V30 1147 H 111.171 1.17082 4.90212 0
M  V30 1148 H 110.773 1.79124 3.28315 0
M  V30 1149 H 113.065 2.10833 6.4386 0
M  V30 1150 H 114.008 3.59463 6.10076 0
M  V30 1151 H 114.416 2.07521 5.24972 0
M  V30 1152 N 113.814 -1.1601 1.06675 0
M  V30 1153 C 115.039 -1.91068 0.806706 0
M  V30 1154 C 115.464 -1.77112 -0.633485 0
M  V30 1155 O 114.822 -1.09908 -1.44187 0
M  V30 1156 C 114.87 -3.39655 1.21106 0
M  V30 1157 O 113.974 -4.10893 0.352189 0
M  V30 1158 H 113.315 -0.595125 0.294486 0
M  V30 1159 H 115.845 -1.46955 1.42356 0
M  V30 1160 H 115.855 -3.90434 1.18428 0
M  V30 1161 H 114.53 -3.49132 2.26008 0
M  V30 1162 H 113.107 -3.70285 0.440868 0
M  V30 1163 N 115.292 -0.849877 -1.32721 0
M  V30 1164 C 116.541 -0.447175 -1.96681 0
M  V30 1165 C 116.854 1.00135 -1.68025 0
M  V30 1166 O 118.06 1.50926 -2.25685 0
M  V30 1167 C 116.516 -0.7487 -3.52026 0
M  V30 1168 C 116.124 -2.21264 -3.89546 0
M  V30 1169 C 117.868 -0.413487 -4.22481 0
M  V30 1170 C 115.775 -2.45763 -5.37917 0
M  V30 1171 H 114.705 -0.163486 -0.736063 0
M  V30 1172 H 117.356 -1.03999 -1.51183 0
M  V30 1173 H 115.738 -0.0853727 -3.95908 0
M  V30 1174 H 116.912 -2.91736 -3.56689 0
M  V30 1175 H 115.227 -2.5119 -3.32103 0
M  V30 1176 H 117.824 -0.574017 -5.3161 0
M  V30 1177 H 118.167 0.644492 -4.11281 0
M  V30 1178 H 118.7 -1.03251 -3.84167 0
M  V30 1179 H 115.439 -3.50168 -5.54132 0
M  V30 1180 H 114.959 -1.79864 -5.72197 0
M  V30 1181 H 116.638 -2.29471 -6.0494 0
M  V30 1182 N 116.77 1.45427 -0.607355 0
M  V30 1183 C 118.016 2.0254 -0.102607 0
M  V30 1184 C 118.349 1.47478 1.26348 0
M  V30 1185 O 117.624 0.64939 1.83339 0
M  V30 1186 C 117.907 3.60044 -0.0634347 0
M  V30 1187 C 117.76 4.2544 -1.46017 0
M  V30 1188 C 119.079 4.35646 0.624514 0
M  V30 1189 H 116.198 0.73598 -0.0387607 0
M  V30 1190 H 118.84 1.73284 -0.779282 0
M  V30 1191 H 116.99 3.85101 0.512808 0
M  V30 1192 H 118.662 4.11569 -2.08347 0
M  V30 1193 H 116.905 3.83849 -2.02094 0
M  V30 1194 H 117.576 5.34342 -1.385 0
M  V30 1195 H 120.052 4.15882 0.134723 0
M  V30 1196 H 118.928 5.45376 0.621028 0
M  V30 1197 H 119.189 4.08501 1.69055 0
M  V30 1198 N 118.248 0.346503 1.53744 0
M  V30 1199 C 119.195 -0.508914 2.25119 0
M  V30 1200 C 120.165 -1.09315 1.25058 0
M  V30 1201 O 121.35 -1.12921 1.53797 0
M  V30 1202 C 118.49 -1.65246 3.02965 0
M  V30 1203 C 117.603 -1.09525 4.17886 0
M  V30 1204 C 116.738 -2.20634 4.83212 0
M  V30 1205 C 115.777 -1.62279 5.90196 0
M  V30 1206 N 114.914 -2.67143 6.49291 0
M  V30 1207 H 119.754 0.106283 2.9781 0
M  V30 1208 H 117.291 0.0642227 1.4696 0
M  V30 1209 H 119.249 -2.32574 3.4636 0
M  V30 1210 H 117.879 -2.2386 2.32565 0
M  V30 1211 H 116.931 -0.312818 3.79112 0
M  V30 1212 H 118.243 -0.628444 4.94825 0
M  V30 1213 H 117.397 -2.95821 5.29693 0
M  V30 1214 H 116.136 -2.70659 4.05703 0
M  V30 1215 H 115.141 -0.855989 5.43096 0
M  V30 1216 H 116.366 -1.13102 6.69615 0
M  V30 1217 H 114.312 -3.16417 5.74645 0
M  V30 1218 H 114.229 -2.25093 7.21713 0
M  V30 1219 H 115.497 -3.4209 7.00425 0
M  V30 1220 N 119.726 -1.57421 0.075193 0
M  V30 1221 C 120.674 -2.14124 -0.908508 0
M  V30 1222 C 121.668 -1.07898 -1.30592 0
M  V30 1223 O 122.874 -1.26273 -1.28277 0
M  V30 1224 H 119.249 -0.684707 -0.310935 0
M  V30 1225 H 121.22 -2.95634 -0.405374 0
M  V30 1226 C 119.969 -2.72044 -2.16535 0
M  V30 1227 H 119.292 -3.53456 -1.86839 0
M  V30 1228 H 120.732 -3.15311 -2.83469 0
M  V30 1229 C 119.191 -1.66968 -2.92615 0
M  V30 1230 O 119.721 -1.0967 -3.86439 0
M  V30 1231 N 117.927 -1.37923 -2.55784 0
M  V30 1232 H 117.474 -1.84706 -1.79559 0
M  V30 1233 H 117.432 -0.67852 -3.06991 0
M  V30 1234 N 121.204 0.198386 -1.56346 0
M  V30 1235 C 122.134 1.24865 -1.9731 0
M  V30 1236 C 123.115 1.47651 -0.844576 0
M  V30 1237 O 124.3 1.59444 -1.10866 0
M  V30 1238 C 121.43 2.59358 -2.30977 0
M  V30 1239 C 120.384 2.5119 -3.46537 0
M  V30 1240 C 119.71 3.89926 -3.65871 0
M  V30 1241 C 121.01 2.03977 -4.80823 0
M  V30 1242 H 122.704 0.908252 -2.85291 0
M  V30 1243 H 120.25 0.435462 -1.37258 0
M  V30 1244 H 122.203 3.33011 -2.58228 0
M  V30 1245 H 120.927 2.95132 -1.39874 0
M  V30 1246 H 119.586 1.79993 -3.19371 0
M  V30 1247 H 119.234 4.23046 -2.72105 0
M  V30 1248 H 118.934 3.85336 -4.4361 0
M  V30 1249 H 120.458 4.65205 -3.95495 0
M  V30 1250 H 121.872 2.67386 -5.07127 0
M  V30 1251 H 120.269 2.10397 -5.62008 0
M  V30 1252 H 121.339 0.992861 -4.74626 0
M  V30 1253 N 122.682 1.50554 0.465978 0
M  V30 1254 C 123.614 1.65949 1.58093 0
M  V30 1255 C 124.627 0.540827 1.53554 0
M  V30 1256 O 125.816 0.814187 1.5885 0
M  V30 1257 C 122.916 1.63261 2.96983 0
M  V30 1258 C 122.089 2.91245 3.26336 0
M  V30 1259 C 121.148 2.8113 4.44806 0
M  V30 1260 O 120.174 3.55086 4.44862 0
M  V30 1261 N 121.376 1.95032 5.46756 0
M  V30 1262 H 124.141 2.62122 1.45301 0
M  V30 1263 H 121.702 1.48082 0.65448 0
M  V30 1264 H 123.694 1.54101 3.74212 0
M  V30 1265 H 122.264 0.748032 3.03518 0
M  V30 1266 H 121.484 3.14493 2.37672 0
M  V30 1267 H 122.772 3.76022 3.42761 0
M  V30 1268 H 122.17 1.3427 5.49534 0
M  V30 1269 H 120.727 1.91772 6.2295 0
M  V30 1270 N 124.16 -0.719506 1.40217 0
M  V30 1271 C 125.108 -1.85493 1.40339 0
M  V30 1272 C 126.102 -1.66995 0.284415 0
M  V30 1273 O 127.308 -1.74148 0.455252 0
M  V30 1274 H 123.683 -0.610857 0.438586 0
M  V30 1275 H 125.654 -1.82506 2.36081 0
M  V30 1276 C 124.403 -3.23321 1.27901 0
M  V30 1277 H 123.726 -3.38159 2.1328 0
M  V30 1278 H 125.166 -4.02914 1.32045 0
M  V30 1279 C 123.625 -3.36898 -0.0111355 0
M  V30 1280 O 124.155 -3.89674 -0.975538 0
M  V30 1281 N 122.361 -2.90492 -0.0793393 0
M  V30 1282 H 121.908 -2.47731 0.706183 0
M  V30 1283 H 121.866 -2.99955 -0.942038 0
M  V30 1284 N 125.638 -1.25649 -0.95132 0
M  V30 1285 C 126.568 -1.08808 -2.06599 0
M  V30 1286 C 127.549 0.00382547 -1.701 0
M  V30 1287 O 128.734 -0.166325 -1.93486 0
M  V30 1288 C 125.864 -0.709542 -3.39975 0
M  V30 1289 C 124.818 -1.75206 -3.90496 0
M  V30 1290 C 124.144 -1.22811 -5.20405 0
M  V30 1291 C 125.444 -3.15153 -4.16504 0
M  V30 1292 H 127.138 -2.02048 -2.20946 0
M  V30 1293 H 124.684 -0.972835 -1.06169 0
M  V30 1294 H 126.637 -0.578649 -4.17408 0
M  V30 1295 H 125.361 0.258556 -3.25575 0
M  V30 1296 H 124.02 -1.87145 -3.15234 0
M  V30 1297 H 123.668 -0.250145 -5.02378 0
M  V30 1298 H 123.368 -1.92492 -5.55176 0
M  V30 1299 H 124.892 -1.10968 -6.00432 0
M  V30 1300 H 126.306 -3.06349 -4.84586 0
M  V30 1301 H 124.703 -3.82333 -4.62538 0
M  V30 1302 H 125.773 -3.61966 -3.22658 0
M  V30 1303 N 127.117 1.15442 -1.07289 0
M  V30 1304 C 128.394 1.82306 -0.708792 0
M  V30 1305 C 128.774 1.94991 0.808807 0
M  V30 1306 O 128.122 1.50085 1.72298 0
M  V30 1307 C 128.332 3.18695 -1.42247 0
M  V30 1308 C 129.68 3.94341 -1.57417 0
M  V30 1309 O 130.704 3.28247 -1.38319 0
M  V30 1310 O 129.563 5.12839 -1.88834 0
M  V30 1311 H 126.657 0.787628 -0.252132 0
M  V30 1312 H 129.203 1.22559 -1.17377 0
M  V30 1313 H 127.975 3.04557 -2.45684 0
M  V30 1314 H 127.598 3.86128 -0.948223 0
M  V30 1315 N 128.595 0.856903 1.32268 0
M  V30 1316 C 130.006 0.515711 1.79436 0
M  V30 1317 C 130.357 -0.966586 1.70738 0
M  V30 1318 O 129.482 -1.75409 1.26731 0
M  V30 1319 C 130.077 0.929335 3.25805 0
M  V30 1320 C 128.636 0.640006 3.70919 0
M  V30 1321 C 127.783 1.12784 2.53328 0
M  V30 1322 H 130.734 1.04389 1.19535 0
M  V30 1323 H 130.755 0.246633 3.797 0
M  V30 1324 H 130.267 2.00821 3.32103 0
M  V30 1325 H 128.368 -0.428051 3.70133 0
M  V30 1326 H 128.481 1.20788 4.63624 0
M  V30 1327 H 126.845 0.548033 2.48734 0
M  V30 1328 H 127.628 2.21387 2.62379 0
M  V30 1329 N 130.073 -1.45103 0.615059 0
M  V30 1330 C 131.298 -2.07064 0.117988 0
M  V30 1331 C 131.723 -1.4554 -1.19163 0
M  V30 1332 O 131.081 -0.550855 -1.72729 0
M  V30 1333 C 131.129 -3.606 -0.000288387 0
M  V30 1334 O 130.233 -3.98847 -1.04856 0
M  V30 1335 H 129.574 -0.659467 0.0774581 0
M  V30 1336 H 132.104 -1.86236 0.847186 0
M  V30 1337 H 132.114 -4.07529 -0.196091 0
M  V30 1338 H 130.789 -4.04765 0.955932 0
M  V30 1339 H 129.366 -3.63577 -0.828619 0
M  V30 1340 N 131.551 -0.354651 -1.53558 0
M  V30 1341 C 132.501 0.513179 -2.2215 0
M  V30 1342 C 133.485 1.05734 -1.21281 0
M  V30 1343 O 134.677 0.989202 -1.46778 0
M  V30 1344 C 131.806 1.65798 -3.00609 0
M  V30 1345 C 130.892 1.12722 -4.08845 0
M  V30 1346 N 131.283 0.318563 -5.04796 0
M  V30 1347 C 129.581 1.40307 -4.23356 0
M  V30 1348 C 130.282 0.0292224 -5.81693 0
M  V30 1349 N 129.258 0.623891 -5.40008 0
M  V30 1350 H 133.06 -0.111586 -2.93688 0
M  V30 1351 H 130.574 -0.162091 -1.61589 0
M  V30 1352 H 132.571 2.29176 -3.48258 0
M  V30 1353 H 131.231 2.28591 -2.306 0
M  V30 1354 H 132.242 -0.0413091 -5.17884 0
M  V30 1355 H 128.919 2.03458 -3.6457 0
M  V30 1356 H 130.309 -0.623808 -6.68998 0
M  V30 1357 N 133.029 1.57378 -0.0835403 0
M  V30 1358 C 134.445 1.57246 0.273109 0
M  V30 1359 C 134.645 1.09385 1.69225 0
M  V30 1360 O 133.701 0.765051 2.40631 0
M  V30 1361 C 135.014 3.00614 0.0720628 0
M  V30 1362 C 136.562 3.12684 0.1407 0
M  V30 1363 C 137.037 4.57989 -0.0322094 0
M  V30 1364 N 138.528 4.63194 0.0230085 0
M  V30 1365 C 139.263 5.73335 -0.0861941 0
M  V30 1366 N 138.759 6.9235 -0.24958 0
M  V30 1367 N 140.552 5.62093 -0.0282886 0
M  V30 1368 H 132.703 1.86801 -1.0109 0
M  V30 1369 H 134.966 0.861687 -0.395222 0
M  V30 1370 H 134.672 3.39786 -0.907662 0
M  V30 1371 H 134.546 3.68193 0.81936 0
M  V30 1372 H 136.933 2.73391 1.11092 0
M  V30 1373 H 137.014 2.47719 -0.637896 0
M  V30 1374 H 136.658 4.97973 -0.999247 0
M  V30 1375 H 136.588 5.21 0.765937 0
M  V30 1376 H 139.079 3.77613 0.14722 0
M  V30 1377 H 139.392 7.72117 -0.324733 0
M  V30 1378 H 137.737 6.94415 -0.285097 0
M  V30 1379 H 140.928 4.67997 0.0981408 0
M  V30 1380 H 141.101 6.47895 -0.116845 0
M  V30 1381 N 134.507 -0.190092 1.56449 0
M  V30 1382 C 135.756 -0.907912 1.80111 0
M  V30 1383 C 136.069 -1.84214 0.657619 0
M  V30 1384 O 137.275 -2.60094 0.778663 0
M  V30 1385 C 135.731 -1.66485 3.19078 0
M  V30 1386 C 135.339 -0.7752 4.41242 0
M  V30 1387 C 137.083 -2.37201 3.52045 0
M  V30 1388 C 134.99 -1.53129 5.71231 0
M  V30 1389 H 133.92 -0.34276 0.671589 0
M  V30 1390 H 136.571 -0.161109 1.82791 0
M  V30 1391 H 134.953 -2.45572 3.10661 0
M  V30 1392 H 136.127 -0.0226298 4.60794 0
M  V30 1393 H 134.442 -0.178627 4.16017 0
M  V30 1394 H 137.039 -2.94329 4.46402 0
M  V30 1395 H 137.382 -3.11632 2.76028 0
M  V30 1396 H 137.915 -1.65075 3.61932 0
M  V30 1397 H 134.654 -0.82967 6.50228 0
M  V30 1398 H 134.174 -2.25767 5.55688 0
M  V30 1399 H 135.853 -2.08377 6.12526 0
M  V30 1400 N 135.985 -1.50799 -0.457987 0
M  V30 1401 C 137.21 -1.66496 -1.23668 0
M  V30 1402 C 137.635 -0.353288 -1.84752 0
M  V30 1403 O 136.993 0.684346 -1.67888 0
M  V30 1404 C 137.041 -2.76763 -2.3116 0
M  V30 1405 O 136.145 -2.38928 -3.36136 0
M  V30 1406 H 135.486 -0.555828 -0.363252 0
M  V30 1407 H 138.016 -1.9725 -0.543474 0
M  V30 1408 H 138.026 -3.00232 -2.76269 0
M  V30 1409 H 136.701 -3.71954 -1.86073 0
M  V30 1410 H 135.278 -2.25953 -2.96647 0
M  V30 1411 N 137.463 0.71206 -1.40597 0
M  V30 1412 C 138.74 1.46536 -1.29563 0
M  V30 1413 C 139.12 2.10931 0.0844217 0
M  V30 1414 O 138.468 2.00418 1.0975 0
M  V30 1415 C 138.678 2.49821 -2.43701 0
M  V30 1416 C 140.026 3.15551 -2.841 0
M  V30 1417 O 141.05 2.60142 -2.4332 0
M  V30 1418 O 139.909 4.15867 -3.54566 0
M  V30 1419 H 137.003 0.651801 -0.509004 0
M  V30 1420 H 139.549 0.743935 -1.52524 0
M  V30 1421 H 138.321 2.00778 -3.35863 0
M  V30 1422 H 137.944 3.29495 -2.22528 0
M  V30 1423 N 138.941 1.26152 0.944643 0
M  V30 1424 C 140.357 1.03189 1.21754 0
M  V30 1425 C 140.557 -0.245112 2.00004 0
M  V30 1426 O 139.613 -0.955176 2.33736 0
M  V30 1427 C 140.926 2.26119 1.98219 0
M  V30 1428 C 142.474 2.30984 2.11224 0
M  V30 1429 C 142.949 3.53597 2.91089 0
M  V30 1430 N 144.44 3.54053 2.98664 0
M  V30 1431 C 145.175 4.45593 3.60881 0
M  V30 1432 N 144.671 5.47416 4.24626 0
M  V30 1433 N 146.464 4.33252 3.58119 0
M  V30 1434 H 138.615 2.08177 0.421437 0
M  V30 1435 H 140.878 0.914723 0.248969 0
M  V30 1436 H 140.584 3.18984 1.48128 0
M  V30 1437 H 140.458 2.3009 2.98895 0
M  V30 1438 H 142.845 1.38635 2.60508 0
M  V30 1439 H 142.926 2.31026 1.09821 0
M  V30 1440 H 142.57 4.46273 2.42493 0
M  V30 1441 H 142.5 3.50802 3.92741 0
M  V30 1442 H 144.991 2.80403 2.53343 0
M  V30 1443 H 145.304 6.13459 4.69987 0
M  V30 1444 H 143.649 5.51278 4.23223 0
M  V30 1445 H 146.84 3.52924 3.0751 0
M  V30 1446 H 147.013 5.04786 4.06319 0
M  V30 1447 N 140.419 -1.14872 1.07899 0
M  V30 1448 C 141.696 -1.81928 0.71845 0
M  V30 1449 C 142.076 -1.95417 -0.798455 0
M  V30 1450 O 141.424 -1.50997 -1.715 0
M  V30 1451 C 141.634 -3.17937 1.43935 0
M  V30 1452 C 142.982 -3.93501 1.59506 0
M  V30 1453 O 144.006 -3.27509 1.40058 0
M  V30 1454 O 142.865 -5.1183 1.91551 0
M  V30 1455 H 139.959 -0.78628 0.256305 0
M  V30 1456 H 142.505 -1.21934 1.18026 0
M  V30 1457 H 141.277 -3.0325 2.47295 0
M  V30 1458 H 140.9 -3.85619 0.968687 0
M  V30 1459 N 141.898 -0.863906 -1.31812 0
M  V30 1460 C 143.128 -0.485406 -2.00817 0
M  V30 1461 C 143.536 0.925007 -1.65046 0
M  V30 1462 O 142.879 1.61653 -0.872574 0
M  V30 1463 C 142.941 -0.555589 -3.55181 0
M  V30 1464 C 142.605 -1.92654 -4.14407 0
M  V30 1465 C 143.602 -2.89324 -4.31958 0
M  V30 1466 C 141.287 -2.2262 -4.50273 0
M  V30 1467 C 143.281 -4.14108 -4.84555 0
M  V30 1468 C 140.968 -3.47654 -5.02573 0
M  V30 1469 C 141.966 -4.43214 -5.19664 0
M  V30 1470 O 141.654 -5.66033 -5.70843 0
M  V30 1471 H 141.386 -0.188224 -0.649267 0
M  V30 1472 H 143.94 -1.16514 -1.69156 0
M  V30 1473 H 142.17 0.181037 -3.86276 0
M  V30 1474 H 143.859 -0.19138 -4.05449 0
M  V30 1475 H 144.625 -2.6748 -4.04573 0
M  V30 1476 H 140.504 -1.4902 -4.3625 0
M  V30 1477 H 144.048 -4.88703 -4.9781 0
M  V30 1478 H 139.945 -3.69345 -5.29391 0
M  V30 1479 H 140.713 -5.6812 -5.89222 0
M  V30 1480 N 143.376 1.44774 -0.622745 0
M  V30 1481 C 144.309 2.27792 0.136329 0
M  V30 1482 C 145.287 1.38041 0.859264 0
M  V30 1483 O 146.471 1.67478 0.86506 0
M  V30 1484 C 143.598 3.16776 1.19878 0
M  V30 1485 C 142.644 4.22575 0.57731 0
M  V30 1486 S 143.477 5.31825 -0.626294 0
M  V30 1487 C 144.633 6.24377 0.436378 0
M  V30 1488 H 144.866 2.91824 -0.567967 0
M  V30 1489 H 142.399 1.48838 -0.410677 0
M  V30 1490 H 144.357 3.68596 1.80686 0
M  V30 1491 H 143.018 2.5198 1.87523 0
M  V30 1492 H 142.211 4.84818 1.37721 0
M  V30 1493 H 141.813 3.73974 0.0440439 0
M  V30 1494 H 144.105 6.64689 1.31128 0
M  V30 1495 H 145.048 7.07941 -0.150271 0
M  V30 1496 H 145.456 5.59381 0.758513 0
M  V30 1497 N 144.854 0.36279 1.53368 0
M  V30 1498 C 146.102 -0.227326 2.00817 0
M  V30 1499 C 146.423 -1.49511 1.25186 0
M  V30 1500 O 145.693 -1.92482 0.364348 0
M  V30 1501 H 144.273 -0.0869923 0.741917 0
M  V30 1502 H 146.935 0.488381 1.88682 0
M  V30 1503 H 146.031 -0.456273 3.08747 0
M  V30 1504 N 146.332 -1.57332 0.0918853 0
M  V30 1505 C 147.578 -1.95328 -0.567313 0
M  V30 1506 C 147.933 -0.972866 -1.65991 0
M  V30 1507 O 147.226 0.00166256 -1.916 0
M  V30 1508 C 147.42 -3.37689 -1.17051 0
M  V30 1509 C 147.249 -4.49489 -0.137875 0
M  V30 1510 C 146.019 -5.04498 0.284515 0
M  V30 1511 C 148.217 -5.10393 0.63271 0
M  V30 1512 N 146.199 -5.99853 1.30576 0
M  V30 1513 C 147.57 -6.01435 1.50587 0
M  V30 1514 C 149.625 -4.93143 0.68658 0
M  V30 1515 C 148.328 -6.77077 2.42815 0
M  V30 1516 C 150.354 -5.69445 1.59645 0
M  V30 1517 C 149.716 -6.60151 2.45725 0
M  V30 1518 H 145.815 -0.761467 -0.178023 0
M  V30 1519 H 148.399 -1.93924 0.173706 0
M  V30 1520 H 146.57 -3.39793 -1.88136 0
M  V30 1521 H 148.302 -3.62872 -1.79181 0
M  V30 1522 H 145.057 -4.73489 -0.102593 0
M  V30 1523 H 145.481 -6.52231 1.81449 0
M  V30 1524 H 150.123 -4.22785 0.035244 0
M  V30 1525 H 147.841 -7.46699 3.08975 0
M  V30 1526 H 151.427 -5.58112 1.64323 0
M  V30 1527 H 150.307 -7.18159 3.14987 0
M  V30 1528 N 147.81 0.181792 -1.56548 0
M  V30 1529 C 148.743 1.25366 -1.90679 0
M  V30 1530 C 149.721 1.43299 -0.768376 0
M  V30 1531 O 150.905 1.58475 -1.02068 0
M  V30 1532 C 148.032 2.61826 -2.1486 0
M  V30 1533 C 147.078 2.60688 -3.37556 0
M  V30 1534 S 147.911 2.10804 -4.92262 0
M  V30 1535 C 149.067 3.49062 -5.19525 0
M  V30 1536 H 149.3 0.962277 -2.81296 0
M  V30 1537 H 146.833 0.385892 -1.495 0
M  V30 1538 H 148.791 3.40371 -2.29473 0
M  V30 1539 H 147.452 2.88169 -1.24969 0
M  V30 1540 H 146.645 3.61058 -3.51643 0
M  V30 1541 H 146.247 1.90232 -3.22006 0
M  V30 1542 H 148.539 4.45003 -5.10861 0
M  V30 1543 H 149.482 3.39859 -6.2121 0
M  V30 1544 H 149.89 3.4459 -4.47122 0
M  V30 1545 N 149.288 1.51039 0.449983 0
M  V30 1546 C 150.565 1.53612 1.21089 0
M  V30 1547 C 150.945 0.292997 2.09057 0
M  V30 1548 O 150.293 -0.72259 2.16774 0
M  V30 1549 C 150.503 2.84337 2.0237 0
M  V30 1550 C 151.851 3.35807 2.59843 0
M  V30 1551 O 152.875 2.85802 2.12593 0
M  V30 1552 O 151.734 4.23029 3.45989 0
M  V30 1553 H 148.828 0.617057 0.550608 0
M  V30 1554 H 151.374 1.63344 0.460082 0
M  V30 1555 H 150.146 3.66278 1.37681 0
M  V30 1556 H 149.769 2.77708 2.84542 0
M  V30 1557 N 150.766 -0.704594 1.40972 0
M  V30 1558 C 152.013 -1.46458 1.39844 0
M  V30 1559 C 152.341 -1.94499 0.00447594 0
M  V30 1560 O 151.596 -1.69275 -0.982057 0
M  V30 1561 C 151.895 -2.698 2.34399 0
M  V30 1562 C 151.561 -2.40464 3.81429 0
M  V30 1563 C 150.223 -2.32174 4.21484 0
M  V30 1564 C 152.575 -2.16086 4.74296 0
M  V30 1565 C 149.903 -1.97589 5.52427 0
M  V30 1566 C 152.255 -1.83011 6.05549 0
M  V30 1567 C 150.919 -1.7321 6.44635 0
M  V30 1568 H 150.189 -0.535927 0.511725 0
M  V30 1569 H 152.836 -0.806124 1.73706 0
M  V30 1570 H 151.141 -3.40536 1.93759 0
M  V30 1571 H 152.838 -3.27919 2.30804 0
M  V30 1572 H 149.428 -2.47808 3.49699 0
M  V30 1573 H 153.612 -2.2144 4.4416 0
M  V30 1574 H 148.868 -1.88547 5.81601 0
M  V30 1575 H 153.042 -1.63164 6.77016 0
M  V30 1576 H 150.669 -1.46179 7.46013 0
M  V30 1577 N 152.244 -1.26651 -0.937939 0
M  V30 1578 C 153.492 -1.12165 -1.68118 0
M  V30 1579 C 153.813 0.334983 -1.92101 0
M  V30 1580 O 153.083 1.23583 -1.52 0
M  V30 1581 H 151.663 -0.412093 -0.623048 0
M  V30 1582 H 154.325 -1.59027 -1.12678 0
M  V30 1583 H 153.421 -1.64289 -2.6536 0
M  V30 1584 N 153.722 1.14298 -1.08507 0
M  V30 1585 C 155.138 1.37347 -0.812901 0
M  V30 1586 C 155.338 1.93052 0.577325 0
M  V30 1587 O 154.394 2.14389 1.33393 0
M  V30 1588 C 155.707 2.33359 -1.89642 0
M  V30 1589 C 157.255 2.46996 -1.92255 0
M  V30 1590 C 157.73 3.46309 -2.99724 0
M  V30 1591 N 159.221 3.53853 -2.98902 0
M  V30 1592 C 159.956 4.3055 -3.787 0
M  V30 1593 N 159.452 5.10482 -4.6838 0
M  V30 1594 N 161.245 4.25757 -3.66998 0
M  V30 1595 H 153.396 0.764867 -1.9815 0
M  V30 1596 H 155.659 0.398966 -0.859959 0
M  V30 1597 H 155.365 1.99565 -2.89597 0
M  V30 1598 H 155.239 3.33274 -1.76659 0
M  V30 1599 H 157.626 2.80081 -0.929445 0
M  V30 1600 H 157.707 1.47039 -2.09316 0
M  V30 1601 H 157.351 3.13957 -3.99241 0
M  V30 1602 H 157.281 4.46049 -2.79907 0
M  V30 1603 H 159.772 2.96812 -2.33904 0
M  V30 1604 H 160.085 5.66284 -5.25873 0
M  V30 1605 H 158.43 5.09747 -4.72422 0
M  V30 1606 H 161.621 3.62383 -2.96304 0
M  V30 1607 H 161.794 4.85279 -4.29427 0
M  V30 1608 N 155.201 0.870884 1.31352 0
M  V30 1609 C 156.617 0.562932 1.49343 0
M  V30 1610 C 156.817 -0.902725 1.80148 0
M  V30 1611 O 155.873 -1.68484 1.88067 0
M  V30 1612 C 157.186 1.46393 2.62659 0
M  V30 1613 C 158.734 1.46607 2.76542 0
M  V30 1614 C 159.209 2.35266 3.92955 0
M  V30 1615 N 160.7 2.33151 4.00243 0
M  V30 1616 C 161.435 2.98471 4.89594 0
M  V30 1617 N 160.931 3.72964 5.8384 0
M  V30 1618 N 162.724 2.87775 4.82848 0
M  V30 1619 H 154.875 1.81923 1.09626 0
M  V30 1620 H 157.138 0.777934 0.541777 0
M  V30 1621 H 156.844 2.50689 2.46674 0
M  V30 1622 H 156.718 1.16314 3.58819 0
M  V30 1623 H 159.105 0.43069 2.9194 0
M  V30 1624 H 159.186 1.8071 1.81046 0
M  V30 1625 H 158.83 3.38881 3.78315 0
M  V30 1626 H 158.76 1.98487 4.87761 0
M  V30 1627 H 161.251 1.79006 3.32814 0
M  V30 1628 H 161.564 4.19932 6.4875 0
M  V30 1629 H 159.909 3.77073 5.83816 0
M  V30 1630 H 163.1 2.29116 4.08195 0
M  V30 1631 H 163.273 3.38961 5.52277 0
M  V30 1632 N 156.679 -1.44442 0.630414 0
M  V30 1633 C 157.904 -2.06927 0.139944 0
M  V30 1634 C 158.329 -1.46795 -1.17613 0
M  V30 1635 O 157.687 -0.569144 -1.72135 0
M  V30 1636 C 157.735 -3.6058 0.0379581 0
M  V30 1637 O 156.839 -3.99937 -1.0062 0
M  V30 1638 H 156.18 -0.658608 0.0844483 0
M  V30 1639 H 158.71 -1.85327 0.866891 0
M  V30 1640 H 158.72 -4.07714 -0.152856 0
M  V30 1641 H 157.395 -4.03728 0.998809 0
M  V30 1642 H 155.972 -3.64436 -0.79001 0
M  V30 1643 N 158.157 -0.370918 -1.53173 0
M  V30 1644 C 159.12 0.460778 -2.24521 0
M  V30 1645 C 160.12 1.00536 -1.25496 0
M  V30 1646 O 161.31 0.890266 -1.49733 0
M  V30 1647 C 158.442 1.64457 -2.98608 0
M  V30 1648 H 159.635 -0.163613 -2.99453 0
M  V30 1649 H 157.188 -0.122699 -1.55818 0
M  V30 1650 H 157.923 2.30691 -2.2793 0
M  V30 1651 H 157.708 1.26099 -3.7127 0
M  V30 1652 H 159.198 2.23384 -3.5283 0
M  V30 1653 N 159.635 1.57281 -0.100228 0
M  V30 1654 C 160.545 2.17833 0.870965 0
M  V30 1655 C 161.561 1.14921 1.30649 0
M  V30 1656 O 162.737 1.47313 1.37335 0
M  V30 1657 C 159.802 2.75085 2.1102 0
M  V30 1658 C 158.863 3.9297 1.72838 0
M  V30 1659 C 158.096 4.47482 2.90854 0
M  V30 1660 O 158.319 4.00922 4.05731 0
M  V30 1661 O 157.253 5.38433 2.69023 0
M  V30 1662 H 161.079 3.0124 0.38575 0
M  V30 1663 H 158.664 1.48881 0.124397 0
M  V30 1664 H 160.546 3.11656 2.83634 0
M  V30 1665 H 159.221 1.94721 2.58584 0
M  V30 1666 H 158.128 3.61201 0.973883 0
M  V30 1667 H 159.461 4.74713 1.30033 0
M  V30 1668 N 161.113 -0.173488 1.56642 0
M  V30 1669 C 162.023 -1.23482 1.99473 0
M  V30 1670 C 163.039 -1.48567 0.905752 0
M  V30 1671 O 164.215 -1.60758 1.21321 0
M  V30 1672 C 161.28 -2.55444 2.34413 0
M  V30 1673 C 160.341 -2.38241 3.57127 0
M  V30 1674 C 159.574 -3.63909 3.90392 0
M  V30 1675 O 159.797 -4.68996 3.24653 0
M  V30 1676 O 158.731 -3.58149 4.83749 0
M  V30 1677 H 162.557 -0.901279 2.90018 0
M  V30 1678 H 160.142 -0.380185 1.44482 0
M  V30 1679 H 162.024 -3.33292 2.57865 0
M  V30 1680 H 160.699 -2.88382 1.4703 0
M  V30 1681 H 159.606 -1.58431 3.38896 0
M  V30 1682 H 160.939 -2.10228 4.45045 0
M  V30 1683 N 162.591 -1.51276 -0.441967 0
M  V30 1684 C 163.821 -1.67273 -1.21257 0
M  V30 1685 C 164.229 -0.367624 -1.85594 0
M  V30 1686 O 163.572 0.663349 -1.71305 0
M  V30 1687 C 163.634 -2.72807 -2.34129 0
M  V30 1688 C 163.298 -4.1554 -1.90198 0
M  V30 1689 C 164.295 -5.00471 -1.40801 0
M  V30 1690 C 161.98 -4.61616 -1.9803 0
M  V30 1691 C 163.974 -6.29536 -0.998174 0
M  V30 1692 C 161.661 -5.90679 -1.56658 0
M  V30 1693 C 162.659 -6.74466 -1.07633 0
M  V30 1694 O 162.347 -8.01116 -0.668459 0
M  V30 1695 H 162.079 -0.564614 -0.371734 0
M  V30 1696 H 164.633 -1.9843 -0.530521 0
M  V30 1697 H 162.863 -2.36954 -3.05597 0
M  V30 1698 H 164.552 -2.77729 -2.96009 0
M  V30 1699 H 165.318 -4.66079 -1.34148 0
M  V30 1700 H 161.197 -3.96526 -2.35135 0
M  V30 1701 H 164.741 -6.94885 -0.61482 0
M  V30 1702 H 160.638 -6.24586 -1.62979 0
M  V30 1703 H 161.406 -8.14633 -0.794722 0
M  V30 1704 N 164.069 0.697108 -1.41344 0
M  V30 1705 C 164.979 1.84088 -1.45427 0
M  V30 1706 C 165.995 1.70545 -0.34501 0
M  V30 1707 O 167.171 1.92488 -0.592492 0
M  V30 1708 C 164.236 3.20056 -1.33286 0
M  V30 1709 C 163.297 3.45718 -2.54514 0
M  V30 1710 C 162.53 4.75199 -2.42944 0
M  V30 1711 O 162.753 5.51579 -1.45318 0
M  V30 1712 O 161.687 5.0161 -3.32672 0
M  V30 1713 H 165.513 1.836 -2.41919 0
M  V30 1714 H 163.098 0.849966 -1.22866 0
M  V30 1715 H 164.98 4.01236 -1.28794 0
M  V30 1716 H 163.655 3.2123 -0.39909 0
M  V30 1717 H 162.562 2.64474 -2.64583 0
M  V30 1718 H 163.895 3.49356 -3.46715 0
M  V30 1719 N 165.547 1.27147 0.931209 0
M  V30 1720 C 166.777 1.15914 1.71019 0
M  V30 1721 C 167.185 -0.287112 1.87009 0
M  V30 1722 O 166.528 -1.20761 1.38429 0
M  V30 1723 C 166.59 1.76647 3.13107 0
M  V30 1724 C 166.254 3.25807 3.20467 0
M  V30 1725 C 167.251 4.22489 3.02983 0
M  V30 1726 C 164.936 3.66452 3.43538 0
M  V30 1727 C 166.93 5.57794 3.08454 0
M  V30 1728 C 164.617 5.01888 3.48643 0
M  V30 1729 C 165.615 5.97369 3.31119 0
M  V30 1730 O 165.303 7.30337 3.35952 0
M  V30 1731 H 165.035 0.404062 0.54195 0
M  V30 1732 H 167.589 1.68457 1.17521 0
M  V30 1733 H 165.819 1.18578 3.68071 0
M  V30 1734 H 167.508 1.60179 3.72958 0
M  V30 1735 H 168.274 3.92425 2.85004 0
M  V30 1736 H 164.153 2.92611 3.5623 0
M  V30 1737 H 167.697 6.32298 2.94694 0
M  V30 1738 H 163.594 5.31609 3.66145 0
M  V30 1739 H 164.362 7.38739 3.5243 0
M  V30 1740 N 167.025 -1.13721 1.09112 0
M  V30 1741 C 168.436 -1.6648 0.845068 0
M  V30 1742 C 168.787 -1.85911 -0.62701 0
M  V30 1743 O 167.912 -1.57556 -1.48341 0
M  V30 1744 C 168.507 -3.02413 1.52748 0
M  V30 1745 C 167.066 -3.52176 1.32849 0
M  V30 1746 C 166.213 -2.27492 1.58564 0
M  V30 1747 H 169.164 -0.976872 1.25072 0
M  V30 1748 H 169.185 -3.68223 0.958752 0
M  V30 1749 H 168.697 -2.88238 2.59885 0
M  V30 1750 H 166.798 -3.7156 0.278137 0
M  V30 1751 H 166.911 -4.32499 2.0611 0
M  V30 1752 H 165.275 -2.33923 1.00758 0
M  V30 1753 H 166.058 -2.15886 2.66924 0
M  V30 1754 N 168.503 -0.877838 -1.30888 0
M  V30 1755 C 169.728 -0.506629 -2.01117 0
M  V30 1756 C 170.153 0.895564 -1.65412 0
M  V30 1757 O 169.511 1.5923 -0.866922 0
M  V30 1758 C 169.559 -0.680223 -3.54126 0
M  V30 1759 O 168.663 0.277033 -4.11468 0
M  V30 1760 H 168.004 -0.200518 -0.633 0
M  V30 1761 H 170.534 -1.18342 -1.66902 0
M  V30 1762 H 170.544 -0.5765 -4.03907 0
M  V30 1763 H 169.219 -1.70261 -3.79452 0
M  V30 1764 H 167.796 0.127606 -3.72682 0
M  V30 1765 O 170.02 1.4153 -0.777912 0
M  V30 1766 H 170.711 1.9062 -0.344054 0
M  V30 END ATOM
M  V30 BEGIN BOND
M  V30 END BOND
M  V30 END CTAB
M  END
$$$$
