drugbank_target|Q16762 Thiosulfate sulfurtransferase (DB02761)
 OpenBabel12092120533D

  0  0  0     0  0            999 V3000
M  V30 BEGIN CTAB
M  V30 COUNTS 4664 4729 0 0 0
M  V30 BEGIN ATOM
M  V30 1 H -0.908 1.98254 -0.117106 0
M  V30 2 N 0 1.576 0 0
M  V30 3 C 0.933 2.03868 1.02534 0
M  V30 4 C 1.911 0.928543 1.3348 0
M  V30 5 O 3.095 1.19667 1.45644 0
M  V30 6 C 0.222 2.43627 2.35294 0
M  V30 7 C -0.732 3.65373 2.2001 0
M  V30 8 S 0.101 5.13292 1.52614 0
M  V30 9 C 1.257 5.56322 2.86805 0
M  V30 10 H 1.49 2.90518 0.631377 0
M  V30 11 H -0.977 1.52953 0.210867 0
M  V30 12 H 0.981 2.67203 3.11629 0
M  V30 13 H -0.358 1.57376 2.7183 0
M  V30 14 H -1.165 3.90944 3.18086 0
M  V30 15 H -1.563 3.418 1.51819 0
M  V30 16 H 0.729 5.58782 3.83104 0
M  V30 17 H 1.672 6.56266 2.65933 0
M  V30 18 H 2.08 4.83886 2.90714 0
M  V30 19 N 1.4781 -0.272755 1.55222 0
M  V30 20 C 2.7241 -1.00581 1.761 0
M  V30 21 C 3.0571 -1.85932 0.560625 0
M  V30 22 O 2.3321 -1.89416 -0.441801 0
M  V30 23 C 2.6151 -1.88816 3.06628 0
M  V30 24 C 2.4681 -1.06457 4.37021 0
M  V30 25 C 3.7871 -2.8752 3.33197 0
M  V30 26 H 0.9061 -0.364244 0.640699 0
M  V30 27 H 3.5481 -0.278189 1.87952 0
M  V30 28 H 1.6981 -2.50856 2.96654 0
M  V30 29 H 3.3701 -0.464863 4.58952 0
M  V30 30 H 1.6131 -0.368043 4.32236 0
M  V30 31 H 2.2841 -1.71514 5.24678 0
M  V30 32 H 4.7601 -2.35615 3.42965 0
M  V30 33 H 3.6361 -3.46399 4.25792 0
M  V30 34 H 3.8971 -3.62657 2.52849 0
M  V30 35 N 2.9562 -1.48159 -0.537278 0
M  V30 36 C 3.9062 -1.5854 -1.63857 0
M  V30 37 C 4.8902 -0.442969 -1.54682 0
M  V30 38 O 6.0822 -0.69401 -1.62827 0
M  V30 39 C 3.2112 -1.62144 -3.02596 0
M  V30 40 C 2.2972 -2.81841 -3.16901 0
M  V30 41 N 2.6882 -4.06337 -3.01204 0
M  V30 42 C 0.9862 -2.79021 -3.47942 0
M  V30 43 C 1.6872 -4.86606 -3.18731 0
M  V30 44 N 0.6632 -4.19288 -3.45974 0
M  V30 45 H 4.4652 -2.5255 -1.50319 0
M  V30 46 H 1.9792 -1.4443 -0.742555 0
M  V30 47 H 3.9762 -1.67674 -3.81695 0
M  V30 48 H 2.6362 -0.69245 -3.17231 0
M  V30 49 H 3.6472 -4.36888 -2.78117 0
M  V30 50 H 0.3242 -1.95347 -3.6898 0
M  V30 51 H 1.7142 -5.95385 -3.11394 0
M  V30 52 N 4.4343 0.785586 -1.36625 0
M  V30 53 C 5.3663 1.90711 -1.2713 0
M  V30 54 C 6.3793 1.61688 -0.189986 0
M  V30 55 O 7.5683 1.72864 -0.445014 0
M  V30 56 C 4.6683 3.25611 -0.939713 0
M  V30 57 C 3.8413 3.82385 -2.12369 0
M  V30 58 C 2.9003 4.95732 -1.76456 0
M  V30 59 O 1.9263 5.12047 -2.48589 0
M  V30 60 N 3.1283 5.76258 -0.700492 0
M  V30 61 H 5.8933 1.99376 -2.23762 0
M  V30 62 H 3.4543 0.964041 -1.30069 0
M  V30 63 H 5.4463 3.98937 -0.680554 0
M  V30 64 H 4.0163 3.12538 -0.0624074 0
M  V30 65 H 3.2363 3.01001 -2.54543 0
M  V30 66 H 4.5243 4.17047 -2.9146 0
M  V30 67 H 3.9223 5.65609 -0.101624 0
M  V30 68 H 2.4793 6.4987 -0.501165 0
M  V30 69 N 5.9124 1.20967 1.01018 0
M  V30 70 C 7.1584 1.02526 1.74975 0
M  V30 71 C 7.4914 -0.4408 1.89131 0
M  V30 72 O 6.7664 -1.32718 1.42184 0
M  V30 73 C 7.0494 1.71699 3.1653 0
M  V30 74 C 6.9024 3.25791 3.10129 0
M  V30 75 C 8.2214 1.45531 4.15342 0
M  V30 76 H 5.3404 0.373863 0.635134 0
M  V30 77 H 7.9824 1.49071 1.17805 0
M  V30 78 H 6.1324 1.32128 3.65341 0
M  V30 79 H 7.8044 3.74697 2.69072 0
M  V30 80 H 6.0474 3.56363 2.47362 0
M  V30 81 H 6.7184 3.69353 4.10222 0
M  V30 82 H 9.1944 1.79872 3.75213 0
M  V30 83 H 8.0704 1.96453 5.1254 0
M  V30 84 H 8.3314 0.384237 4.40427 0
M  V30 85 N 7.3905 -1.2043 1.01659 0
M  V30 86 C 8.3205 -2.25466 0.607226 0
M  V30 87 C 9.3015 -1.65853 -0.377716 0
M  V30 88 O 10.4865 -1.92409 -0.263149 0
M  V30 89 C 7.6165 -3.47256 -0.0552949 0
M  V30 90 C 6.5705 -4.19462 0.850632 0
M  V30 91 C 5.8965 -5.34673 0.0538859 0
M  V30 92 C 7.1965 -4.75603 2.15868 0
M  V30 93 H 8.8905 -2.59962 1.48526 0
M  V30 94 H 6.4365 -1.2496 0.715605 0
M  V30 95 H 8.3895 -4.19917 -0.353233 0
M  V30 96 H 7.1135 -3.11924 -0.968045 0
M  V30 97 H 5.7725 -3.48667 1.13257 0
M  V30 98 H 5.4205 -4.95585 -0.860514 0
M  V30 99 H 5.1205 -5.83913 0.657192 0
M  V30 100 H 6.6445 -6.10138 -0.237598 0
M  V30 101 H 8.0585 -5.40083 1.92311 0
M  V30 102 H 6.4555 -5.3528 2.71284 0
M  V30 103 H 7.5255 -3.94346 2.82169 0
M  V30 104 N 8.8686 -0.792821 -1.36206 0
M  V30 105 C 10.0986 -0.378275 -2.03107 0
M  V30 106 C 10.5066 1.01119 -1.59911 0
M  V30 107 O 9.8496 1.66052 -0.785658 0
M  V30 108 C 9.9116 -0.366535 -3.57627 0
M  V30 109 C 9.5756 -1.70416 -4.24037 0
M  V30 110 C 10.5726 -2.6602 -4.46687 0
M  V30 111 C 8.2576 -1.98439 -4.6144 0
M  V30 112 C 10.2516 -3.8784 -5.05825 0
M  V30 113 C 7.9386 -3.20525 -5.20295 0
M  V30 114 C 8.9366 -4.15044 -5.42427 0
M  V30 115 O 8.6246 -5.34978 -6.00045 0
M  V30 116 H 8.3566 -0.153543 -0.658332 0
M  V30 117 H 10.9106 -1.07383 -1.75094 0
M  V30 118 H 9.1406 0.385539 -3.84773 0
M  V30 119 H 10.8296 0.0238088 -4.05893 0
M  V30 120 H 11.5956 -2.45658 -4.18183 0
M  V30 121 H 7.4746 -1.25686 -4.43536 0
M  V30 122 H 11.0186 -4.61628 -5.23015 0
M  V30 123 H 6.9156 -3.40764 -5.48225 0
M  V30 124 H 7.6836 -5.36088 -6.18508 0
M  V30 125 N 10.3467 1.47872 -0.545128 0
M  V30 126 C 11.7627 1.5829 -0.204032 0
M  V30 127 C 11.9627 1.54529 1.29317 0
M  V30 128 O 11.0187 1.44232 2.07252 0
M  V30 129 C 12.3317 2.89304 -0.819987 0
M  V30 130 C 13.8797 3.02864 -0.790105 0
M  V30 131 C 14.3547 4.3656 -1.38491 0
M  V30 132 N 15.8457 4.43165 -1.34755 0
M  V30 133 C 16.5807 5.45153 -1.77753 0
M  V30 134 N 16.0767 6.54016 -2.2855 0
M  V30 135 N 17.8697 5.36125 -1.68897 0
M  V30 136 H 10.0207 1.4856 -1.51802 0
M  V30 137 H 12.2837 0.706305 -0.632327 0
M  V30 138 H 11.9897 2.97757 -1.87173 0
M  V30 139 H 11.8637 3.75957 -0.305915 0
M  V30 140 H 14.2507 2.94014 0.252913 0
M  V30 141 H 14.3317 2.17782 -1.34181 0
M  V30 142 H 13.9757 4.46164 -2.42693 0
M  V30 143 H 13.9057 5.20353 -0.808754 0
M  V30 144 H 16.3967 3.65083 -0.975855 0
M  V30 145 H 16.7097 7.27994 -2.59314 0
M  V30 146 H 15.0547 6.54938 -2.32553 0
M  V30 147 H 18.2457 4.49975 -1.28998 0
M  V30 148 H 18.4187 6.15472 -2.02726 0
M  V30 149 N 11.8248 0.280983 1.55075 0
M  V30 150 C 12.7878 -0.590896 2.21452 0
M  V30 151 C 13.7878 -1.07682 1.19421 0
M  V30 152 O 14.9778 -0.97605 1.44288 0
M  V30 153 C 12.1098 -1.81587 2.88511 0
M  V30 154 H 13.3028 -0.0112554 2.99898 0
M  V30 155 H 10.8558 0.0316438 1.56268 0
M  V30 156 H 11.5908 -2.43587 2.14093 0
M  V30 157 H 11.3758 -1.4753 3.63287 0
M  V30 158 H 12.8658 -2.43575 3.39206 0
M  V30 159 N 13.3029 -1.57598 0.00835791 0
M  V30 160 C 14.2329 -2.1198 -0.979113 0
M  V30 161 C 15.2139 -1.03091 -1.35301 0
M  V30 162 O 16.3989 -1.30818 -1.43528 0
M  V30 163 C 13.5289 -2.62995 -2.26828 0
M  V30 164 C 12.4829 -3.76485 -2.03576 0
M  V30 165 C 11.8089 -4.13846 -3.38579 0
M  V30 166 C 13.1089 -5.0342 -1.39161 0
M  V30 167 H 14.8029 -2.94738 -0.526281 0
M  V30 168 H 12.3489 -1.41783 -0.251704 0
M  V30 169 H 14.3019 -2.99669 -2.96271 0
M  V30 170 H 13.0259 -1.7737 -2.7424 0
M  V30 171 H 11.6849 -3.40217 -1.36557 0
M  V30 172 H 11.3329 -3.25232 -3.83709 0
M  V30 173 H 11.0329 -4.90312 -3.23834 0
M  V30 174 H 12.5569 -4.53086 -4.09323 0
M  V30 175 H 13.9709 -5.37812 -1.98573 0
M  V30 176 H 12.3679 -5.84746 -1.34878 0
M  V30 177 H 13.4379 -4.83548 -0.361868 0
M  V30 178 N 14.781 0.264519 -1.55364 0
M  V30 179 C 16.027 0.99646 -1.76631 0
M  V30 180 C 16.36 1.85632 -0.570478 0
M  V30 181 O 15.635 1.89647 0.43175 0
M  V30 182 C 15.918 1.87187 -3.07625 0
M  V30 183 C 15.771 1.04138 -4.37579 0
M  V30 184 C 17.09 2.85749 -3.34717 0
M  V30 185 H 14.209 0.360841 -0.642622 0
M  V30 186 H 16.851 0.268218 -1.88097 0
M  V30 187 H 15.001 2.49279 -2.9798 0
M  V30 188 H 16.673 0.440517 -4.59192 0
M  V30 189 H 14.916 0.345115 -4.32425 0
M  V30 190 H 15.587 1.68729 -5.2558 0
M  V30 191 H 18.063 2.33793 -3.4421 0
M  V30 192 H 16.939 3.44136 -4.27623 0
M  V30 193 H 17.2 3.61311 -2.54768 0
M  V30 194 N 16.2591 1.48442 0.529413 0
M  V30 195 C 17.4841 1.60406 1.31471 0
M  V30 196 C 17.9091 0.264738 1.86228 0
M  V30 197 O 17.2671 -0.763668 1.64432 0
M  V30 198 C 17.3151 2.65419 2.44101 0
M  V30 199 O 16.4191 2.22618 3.47153 0
M  V30 200 H 15.7601 0.537863 0.389357 0
M  V30 201 H 18.2901 1.94432 0.636965 0
M  V30 202 H 18.3001 2.86709 2.90279 0
M  V30 203 H 16.9751 3.62652 2.03608 0
M  V30 204 H 15.5521 2.11543 3.0709 0
M  V30 205 N 17.7372 -0.778329 1.37039 0
M  V30 206 C 18.9652 -1.56734 1.35063 0
M  V30 207 C 19.3802 -1.88686 -0.0655597 0
M  V30 208 O 18.7372 -1.5096 -1.02554 0
M  V30 209 C 18.7882 -2.88163 2.18276 0
M  V30 210 O 18.5092 -2.57583 3.54376 0
M  V30 211 C 20.0102 -3.82422 2.24206 0
M  V30 212 H 17.2302 -0.485778 0.462883 0
M  V30 213 H 19.7742 -0.965185 1.8029 0
M  V30 214 H 17.9292 -3.44818 1.76576 0
M  V30 215 H 18.3432 -3.41699 3.97922 0
M  V30 216 H 19.8172 -4.71667 2.86765 0
M  V30 217 H 20.2942 -4.21078 1.24861 0
M  V30 218 H 20.9002 -3.31697 2.6619 0
M  V30 219 N 19.2153 -1.21501 -1.00376 0
M  V30 220 C 20.1623 -0.975387 -2.09177 0
M  V30 221 C 21.1323 0.0990615 -1.65804 0
M  V30 222 O 22.3173 -0.0483147 -1.90739 0
M  V30 223 C 19.4573 -0.547507 -3.40729 0
M  V30 224 C 18.5703 -1.69153 -3.97506 0
M  V30 225 C 17.7053 -1.2127 -5.17172 0
M  V30 226 C 16.7443 -2.32897 -5.66061 0
M  V30 227 N 15.8813 -1.86138 -6.76976 0
M  V30 228 H 20.7213 -1.9068 -2.29009 0
M  V30 229 H 18.2583 -0.950257 -1.12288 0
M  V30 230 H 20.2163 -0.280667 -4.16255 0
M  V30 231 H 18.8463 0.346904 -3.20931 0
M  V30 232 H 17.8983 -2.07298 -3.18954 0
M  V30 233 H 19.2103 -2.5316 -4.29781 0
M  V30 234 H 18.3643 -0.902591 -5.99948 0
M  V30 235 H 17.1033 -0.342692 -4.86495 0
M  V30 236 H 16.1083 -2.64709 -4.81881 0
M  V30 237 H 17.3333 -3.20396 -5.98768 0
M  V30 238 H 15.2793 -1.01484 -6.48103 0
M  V30 239 H 15.1963 -2.63717 -7.08512 0
M  V30 240 H 16.4643 -1.58165 -7.63285 0
M  V30 241 N 20.6934 1.19889 -1.02296 0
M  V30 242 C 21.9394 1.89973 -0.726759 0
M  V30 243 C 22.2944 1.7776 0.73614 0
M  V30 244 O 21.5874 1.15523 1.52856 0
M  V30 245 C 21.7814 3.39883 -1.10518 0
M  V30 246 C 21.6104 3.66684 -2.60332 0
M  V30 247 C 20.3804 3.85045 -3.27213 0
M  V30 248 C 22.5784 3.68727 -3.58532 0
M  V30 249 N 20.5604 3.99422 -4.66192 0
M  V30 250 C 21.9314 3.88604 -4.83101 0
M  V30 251 C 23.9864 3.51722 -3.52414 0
M  V30 252 C 22.6894 3.9324 -6.02292 0
M  V30 253 C 24.7154 3.57632 -4.71013 0
M  V30 254 C 24.0774 3.77988 -5.94394 0
M  V30 255 H 20.1764 0.714551 -0.317712 0
M  V30 256 H 22.7604 1.44123 -1.30907 0
M  V30 257 H 20.9314 3.8447 -0.551142 0
M  V30 258 H 22.6634 3.97464 -0.761853 0
M  V30 259 H 19.4184 3.83689 -2.77632 0
M  V30 260 H 19.8424 4.10473 -5.38368 0
M  V30 261 H 24.4844 3.34945 -2.58015 0
M  V30 262 H 22.2024 4.08811 -6.97065 0
M  V30 263 H 25.7884 3.45773 -4.67902 0
M  V30 264 H 24.6684 3.82428 -6.8463 0
M  V30 265 N 22.1715 0.800033 1.35784 0
M  V30 266 C 23.1015 0.220184 2.3246 0
M  V30 267 C 24.0825 -0.65073 1.57161 0
M  V30 268 O 25.2675 -0.582359 1.85263 0
M  V30 269 C 22.3975 -0.637353 3.41402 0
M  V30 270 C 21.3515 0.134531 4.27789 0
M  V30 271 C 20.6775 -0.844285 5.27992 0
M  V30 272 C 21.9775 1.32979 5.05088 0
M  V30 273 H 23.6715 1.02787 2.81203 0
M  V30 274 H 21.2175 0.495717 1.35199 0
M  V30 275 H 23.1705 -1.05302 4.08031 0
M  V30 276 H 21.8945 -1.47785 2.91251 0
M  V30 277 H 20.5535 0.531296 3.6273 0
M  V30 278 H 20.2015 -1.68011 4.74111 0
M  V30 279 H 19.9015 -0.332184 5.8666 0
M  V30 280 H 21.4255 -1.2583 5.97494 0
M  V30 281 H 22.8395 0.98934 5.64699 0
M  V30 282 H 21.2365 1.77593 5.7322 0
M  V30 283 H 22.3065 2.11978 4.36111 0
M  V30 284 N 23.6496 -1.47581 0.552962 0
M  V30 285 C 24.6126 -2.28439 -0.186605 0
M  V30 286 C 25.6126 -1.36706 -0.84665 0
M  V30 287 O 26.8026 -1.59378 -0.703164 0
M  V30 288 C 23.9346 -3.16264 -1.2724 0
M  V30 289 H 25.1276 -2.95294 0.523609 0
M  V30 290 H 22.6806 -1.532 0.309745 0
M  V30 291 H 23.4156 -2.54091 -2.01514 0
M  V30 292 H 23.2006 -3.83769 -0.803968 0
M  V30 293 H 24.6906 -3.77198 -1.79196 0
M  V30 294 N 25.1277 -0.289203 -1.54924 0
M  V30 295 C 26.0377 0.601863 -2.26748 0
M  V30 296 C 27.0537 1.15834 -1.2984 0
M  V30 297 O 28.2297 1.18564 -1.62802 0
M  V30 298 C 25.2947 1.76299 -2.98529 0
M  V30 299 C 24.3557 1.24178 -4.10948 0
M  V30 300 C 23.5887 2.34757 -4.79296 0
M  V30 301 O 23.8117 3.54411 -4.46933 0
M  V30 302 O 22.7457 2.02115 -5.66951 0
M  V30 303 H 26.5717 0.0195879 -3.03694 0
M  V30 304 H 24.1567 -0.0560868 -1.49295 0
M  V30 305 H 26.0387 2.43973 -3.43592 0
M  V30 306 H 24.7137 2.33209 -2.24488 0
M  V30 307 H 23.6207 0.531104 -3.70311 0
M  V30 308 H 24.9537 0.718252 -4.86931 0
M  V30 309 N 26.6058 1.57591 -0.0167156 0
M  V30 310 C 27.8308 1.9598 0.67872 0
M  V30 311 C 28.2558 0.892546 1.65575 0
M  V30 312 O 27.6138 -0.147772 1.80697 0
M  V30 313 C 27.6618 3.33468 1.37227 0
M  V30 314 O 26.7658 3.28954 2.48722 0
M  V30 315 H 26.1068 0.639339 0.17928 0
M  V30 316 H 28.6368 2.04463 -0.0748802 0
M  V30 317 H 28.6468 3.69417 1.7319 0
M  V30 318 H 27.3218 4.10694 0.656007 0
M  V30 319 H 25.8988 3.04705 2.14963 0
M  V30 320 N 28.0839 -0.256276 1.55502 0
M  V30 321 C 29.3329 -0.983486 1.76098 0
M  V30 322 C 29.6459 -1.86837 0.578896 0
M  V30 323 O 30.8519 -2.63163 0.667648 0
M  V30 324 C 29.3079 -1.79868 3.1173 0
M  V30 325 C 28.9159 -0.961648 4.37557 0
M  V30 326 C 30.6599 -2.51919 3.41668 0
M  V30 327 C 28.5669 -1.77219 5.64223 0
M  V30 328 H 27.4969 -0.370936 0.656447 0
M  V30 329 H 30.1479 -0.238492 1.81944 0
M  V30 330 H 28.5299 -2.58527 2.99966 0
M  V30 331 H 29.7039 -0.218048 4.60284 0
M  V30 332 H 28.0189 -0.354913 4.14885 0
M  V30 333 H 30.6159 -3.12998 4.33516 0
M  V30 334 H 30.9589 -3.23059 2.62562 0
M  V30 335 H 31.4919 -1.80278 3.54605 0
M  V30 336 H 28.2309 -1.10471 6.46124 0
M  V30 337 H 27.7509 -2.49132 5.45613 0
M  V30 338 H 29.4299 -2.34169 6.03137 0
M  V30 339 N 29.562 -1.4872 -0.521534 0
M  V30 340 C 30.978 -1.35028 -0.850855 0
M  V30 341 C 31.178 -0.367712 -1.98116 0
M  V30 342 O 30.234 0.208037 -2.51642 0
M  V30 343 C 31.547 -2.75263 -1.21041 0
M  V30 344 C 33.095 -2.83813 -1.31981 0
M  V30 345 C 33.57 -4.24769 -1.71276 0
M  V30 346 N 35.061 -4.27482 -1.78363 0
M  V30 347 C 35.796 -5.33494 -2.1017 0
M  V30 348 N 35.292 -6.49775 -2.40343 0
M  V30 349 N 37.085 -5.20894 -2.11248 0
M  V30 350 H 29.236 -2.11214 0.22413 0
M  V30 351 H 31.499 -0.947252 0.0376439 0
M  V30 352 H 31.205 -3.48765 -0.453415 0
M  V30 353 H 31.079 -3.09327 -2.15863 0
M  V30 354 H 33.466 -2.10561 -2.06756 0
M  V30 355 H 33.547 -2.53358 -0.352596 0
M  V30 356 H 33.191 -4.9854 -0.970588 0
M  V30 357 H 33.121 -4.52673 -2.69062 0
M  V30 358 H 35.612 -3.43611 -1.57288 0
M  V30 359 H 35.925 -7.26402 -2.63743 0
M  V30 360 H 34.27 -6.53035 -2.37844 0
M  V30 361 H 37.461 -4.29065 -1.87139 0
M  V30 362 H 37.634 -6.03612 -2.35704 0
M  V30 363 N 31.0401 0.771051 -1.3745 0
M  V30 364 C 32.2681 1.56015 -1.35893 0
M  V30 365 C 32.6831 1.88718 0.0555523 0
M  V30 366 O 32.0401 1.51502 1.01752 0
M  V30 367 C 32.0911 2.87001 -2.19801 0
M  V30 368 O 31.8121 2.557 -3.55738 0
M  V30 369 C 33.3131 3.81228 -2.26231 0
M  V30 370 H 30.5331 0.483317 -0.465453 0
M  V30 371 H 33.0771 0.955611 -1.80799 0
M  V30 372 H 31.2321 3.43877 -1.78402 0
M  V30 373 H 31.6461 3.39584 -3.99729 0
M  V30 374 H 33.1201 4.70139 -2.89263 0
M  V30 375 H 33.5971 4.20409 -1.27093 0
M  V30 376 H 34.2031 3.30281 -2.67945 0
M  V30 377 N 32.5182 1.22032 0.997298 0
M  V30 378 C 33.7662 1.04016 1.73278 0
M  V30 379 C 34.0872 -0.426255 1.90284 0
M  V30 380 O 33.3572 -1.30694 1.45931 0
M  V30 381 H 31.9372 0.381897 0.642 0
M  V30 382 H 34.5992 1.5347 1.20137 0
M  V30 383 H 33.6952 1.51441 2.72896 0
M  V30 384 N 33.9963 -1.19345 1.0293 0
M  V30 385 C 34.9433 -2.2258 0.610464 0
M  V30 386 C 35.9133 -1.6179 -0.375946 0
M  V30 387 O 37.0983 -1.88844 -0.272511 0
M  V30 388 C 34.2383 -3.45085 -0.0321473 0
M  V30 389 C 33.3513 -4.20258 1.00035 0
M  V30 390 C 32.4863 -5.3019 0.32746 0
M  V30 391 C 31.5253 -5.97121 1.34584 0
M  V30 392 N 30.6623 -6.98615 0.698726 0
M  V30 393 H 35.5023 -2.57764 1.49538 0
M  V30 394 H 33.0393 -1.26644 0.748311 0
M  V30 395 H 34.9973 -4.15061 -0.421966 0
M  V30 396 H 33.6273 -3.10555 -0.88064 0
M  V30 397 H 32.6793 -3.49223 1.50823 0
M  V30 398 H 33.9913 -4.66175 1.77433 0
M  V30 399 H 33.1453 -6.06587 -0.11718 0
M  V30 400 H 31.8843 -4.85345 -0.478713 0
M  V30 401 H 30.8893 -5.19474 1.80074 0
M  V30 402 H 32.1143 -6.4405 2.15352 0
M  V30 403 H 30.0603 -6.55942 -0.0873471 0
M  V30 404 H 29.9773 -7.42724 1.41058 0
M  V30 405 H 31.2453 -7.79004 0.278102 0
M  V30 406 N 35.4744 -0.807222 -1.35358 0
M  V30 407 C 36.4044 -0.232509 -2.3234 0
M  V30 408 C 37.3854 0.642386 -1.57504 0
M  V30 409 O 38.5704 0.572526 -1.85569 0
M  V30 410 C 35.7004 0.619238 -3.41735 0
M  V30 411 C 34.6544 -0.157215 -4.27711 0
M  V30 412 C 33.9804 0.816273 -5.28433 0
M  V30 413 C 35.2804 -1.35656 -5.04376 0
M  V30 414 H 36.9744 -1.04276 -2.80654 0
M  V30 415 H 34.5204 -0.50288 -1.34934 0
M  V30 416 H 36.4734 1.03137 -4.08584 0
M  V30 417 H 35.1974 1.46239 -2.92031 0
M  V30 418 H 33.8564 -0.550525 -3.62443 0
M  V30 419 H 33.5044 1.65494 -4.74996 0
M  V30 420 H 33.2044 0.301067 -5.86828 0
M  V30 421 H 34.7284 1.22659 -5.98153 0
M  V30 422 H 36.1424 -1.01927 -5.64166 0
M  V30 423 H 34.5394 -1.8063 -5.7227 0
M  V30 424 H 35.6094 -2.14288 -4.34981 0
M  V30 425 N 36.9525 1.47285 -0.560781 0
M  V30 426 C 38.2005 2.02064 -0.0379868 0
M  V30 427 C 38.5215 1.43711 1.31803 0
M  V30 428 O 37.7915 0.61362 1.86042 0
M  V30 429 H 36.3715 0.746918 -0.0110531 0
M  V30 430 H 39.0335 1.80648 -0.731598 0
M  V30 431 H 38.1295 3.12064 0.0474463 0
M  V30 432 N 38.4306 0.297415 1.54768 0
M  V30 433 C 39.8416 -0.195947 1.85669 0
M  V30 434 C 40.1926 -1.53707 1.21937 0
M  V30 435 O 39.3176 -2.10164 0.515754 0
M  V30 436 C 39.9126 -0.362318 3.36857 0
M  V30 437 C 38.4716 -0.799901 3.67802 0
M  V30 438 C 37.6186 0.0938578 2.77141 0
M  V30 439 H 40.5696 0.518538 1.4999 0
M  V30 440 H 40.5906 -1.19745 3.61167 0
M  V30 441 H 40.1026 0.613921 3.83214 0
M  V30 442 H 38.2036 -1.78682 3.26961 0
M  V30 443 H 38.3166 -0.621773 4.75048 0
M  V30 444 H 36.6806 -0.426254 2.51108 0
M  V30 445 H 37.4636 1.06639 3.26318 0
M  V30 446 N 39.9087 -1.5758 0.0250728 0
M  V30 447 C 41.1567 -1.91255 -0.653151 0
M  V30 448 C 41.4777 -0.901691 -1.729 0
M  V30 449 O 40.7477 0.0573785 -1.95816 0
M  V30 450 H 39.3277 -0.705942 -0.244243 0
M  V30 451 H 41.9897 -1.94767 0.0719209 0
M  V30 452 H 41.0857 -2.91752 -1.10847 0
M  V30 453 N 41.3868 0.248026 -1.55636 0
M  V30 454 C 42.3168 1.31079 -1.93237 0
M  V30 455 C 43.2978 1.50264 -0.797174 0
M  V30 456 O 44.4828 1.62891 -1.05737 0
M  V30 457 C 41.6128 2.66575 -2.22609 0
M  V30 458 C 40.5668 2.62087 -3.3837 0
M  V30 459 C 39.8928 4.01369 -3.53281 0
M  V30 460 C 41.1928 2.19171 -4.7409 0
M  V30 461 H 42.8868 0.998556 -2.82257 0
M  V30 462 H 40.4328 0.47891 -1.35803 0
M  V30 463 H 42.3858 3.41057 -2.47503 0
M  V30 464 H 41.1098 2.99432 -1.30414 0
M  V30 465 H 39.7688 1.90063 -3.13483 0
M  V30 466 H 39.4168 4.31489 -2.58508 0
M  V30 467 H 39.1168 3.99254 -4.31127 0
M  V30 468 H 40.6408 4.77552 -3.80495 0
M  V30 469 H 42.0548 2.83384 -4.98363 0
M  V30 470 H 40.4518 2.2817 -5.5503 0
M  V30 471 H 41.5218 1.14336 -4.71227 0
M  V30 472 N 42.8649 1.48995 0.513639 0
M  V30 473 C 44.2809 1.35478 0.843682 0
M  V30 474 C 44.4809 0.378213 1.97919 0
M  V30 475 O 43.5369 -0.194689 2.51748 0
M  V30 476 C 44.8499 2.75901 1.1958 0
M  V30 477 C 46.3979 2.84509 1.30474 0
M  V30 478 C 46.8729 4.25671 1.69021 0
M  V30 479 N 48.3639 4.28422 1.76094 0
M  V30 480 C 49.0989 5.34601 2.07338 0
M  V30 481 N 48.5949 6.5104 2.36894 0
M  V30 482 N 50.3879 5.22007 2.08483 0
M  V30 483 H 42.5389 2.11092 -0.235328 0
M  V30 484 H 44.8019 0.947039 -0.0426669 0
M  V30 485 H 44.5079 3.49001 0.434913 0
M  V30 486 H 44.3819 3.10467 2.1422 0
M  V30 487 H 46.7689 2.11655 2.05637 0
M  V30 488 H 46.8499 2.53542 0.339155 0
M  V30 489 H 46.4939 4.99048 0.944135 0
M  V30 490 H 46.4239 4.54094 2.66658 0
M  V30 491 H 48.9149 3.44441 1.55464 0
M  V30 492 H 49.2279 7.2779 2.59887 0
M  V30 493 H 47.5729 6.54287 2.34378 0
M  V30 494 H 50.7639 4.30051 1.84861 0
M  V30 495 H 50.9369 6.04854 2.325 0
M  V30 496 N 44.343 -0.763751 1.37857 0
M  V30 497 C 45.589 -1.52483 1.33704 0
M  V30 498 C 45.922 -1.94051 -0.0759612 0
M  V30 499 O 45.197 -1.64675 -1.03501 0
M  V30 500 C 45.48 -2.78441 2.28348 0
M  V30 501 C 45.333 -2.43075 3.78463 0
M  V30 502 C 46.652 -3.80415 2.21298 0
M  V30 503 H 43.771 -0.553169 0.487005 0
M  V30 504 H 46.413 -0.875562 1.68624 0
M  V30 505 H 44.563 -3.33842 1.987 0
M  V30 506 H 46.235 -1.93527 4.18742 0
M  V30 507 H 44.478 -1.75666 3.96641 0
M  V30 508 H 45.149 -3.33149 4.40132 0
M  V30 509 H 47.625 -3.34527 2.47449 0
M  V30 510 H 46.501 -4.66257 2.89647 0
M  V30 511 H 46.762 -4.25262 1.20849 0
M  V30 512 N 45.8211 -1.22559 -0.990812 0
M  V30 513 C 46.7511 -1.0218 -2.09956 0
M  V30 514 C 47.7321 0.0579394 -1.70001 0
M  V30 515 O 48.9171 -0.104684 -1.93918 0
M  V30 516 C 46.0471 -0.601023 -3.4206 0
M  V30 517 C 45.0011 -1.62694 -3.95872 0
M  V30 518 C 44.3271 -1.06193 -5.24049 0
M  V30 519 C 45.6271 -3.01743 -4.2632 0
M  V30 520 H 47.3211 -1.94916 -2.27262 0
M  V30 521 H 44.8671 -0.938566 -1.09211 0
M  V30 522 H 46.8201 -0.445561 -4.19038 0
M  V30 523 H 45.5441 0.362005 -3.24588 0
M  V30 524 H 44.2031 -1.77021 -3.21028 0
M  V30 525 H 43.8511 -0.0901903 -5.02919 0
M  V30 526 H 43.5511 -1.74732 -5.61019 0
M  V30 527 H 45.0751 -0.918092 -6.03658 0
M  V30 528 H 46.4891 -2.90777 -4.94087 0
M  V30 529 H 44.8861 -3.67425 -4.74467 0
M  V30 530 H 45.9561 -3.51518 -3.34011 0
M  V30 531 N 47.2992 1.18797 -1.03562 0
M  V30 532 C 48.5762 1.84469 -0.650434 0
M  V30 533 C 48.9562 1.92319 0.870433 0
M  V30 534 O 48.3042 1.44528 1.76986 0
M  V30 535 C 48.5142 3.2306 -1.32036 0
M  V30 536 C 49.8622 3.9915 -1.44792 0
M  V30 537 O 50.8862 3.32481 -1.27806 0
M  V30 538 O 49.7452 5.18587 -1.72423 0
M  V30 539 H 46.8392 0.795251 -0.226946 0
M  V30 540 H 49.3852 1.26231 -1.13419 0
M  V30 541 H 48.1572 3.1222 -2.3587 0
M  V30 542 H 47.7802 3.88949 -0.8249 0
M  V30 543 N 48.7773 0.814389 1.34928 0
M  V30 544 C 49.7403 0.235759 2.27984 0
M  V30 545 C 50.7403 -0.581412 1.49921 0
M  V30 546 O 51.9303 -0.398758 1.69575 0
M  V30 547 C 49.0623 -0.670433 3.34242 0
M  V30 548 H 50.2553 1.05659 2.80671 0
M  V30 549 H 47.8083 0.585614 1.44915 0
M  V30 550 H 48.5433 -1.51466 2.86755 0
M  V30 551 H 48.3283 -0.0860822 3.92005 0
M  V30 552 H 49.8183 -1.06935 4.03676 0
M  V30 553 N 50.2554 -1.46986 0.568584 0
M  V30 554 C 51.4804 -2.07335 0.0520528 0
M  V30 555 C 51.9054 -1.41675 -1.23733 0
M  V30 556 O 51.2634 -0.495623 -1.74394 0
M  V30 557 C 51.3114 -3.60417 -0.11501 0
M  V30 558 O 50.4154 -3.95309 -1.17492 0
M  V30 559 H 49.7564 -0.661597 0.0564385 0
M  V30 560 H 52.2864 -1.88837 0.787507 0
M  V30 561 H 52.2964 -4.06698 -0.325644 0
M  V30 562 H 50.9714 -4.07601 0.826675 0
M  V30 563 H 49.5484 -3.60757 -0.943869 0
M  V30 564 N 51.7335 -0.305618 -1.54608 0
M  V30 565 C 52.9795 0.295595 -2.01241 0
M  V30 566 C 53.3345 1.51171 -1.19018 0
M  V30 567 O 52.6275 1.89832 -0.259684 0
M  V30 568 C 52.8215 0.698983 -3.50498 0
M  V30 569 C 52.6505 -0.476491 -4.47168 0
M  V30 570 C 51.4205 -0.969963 -4.95903 0
M  V30 571 C 53.6185 -1.32294 -4.96994 0
M  V30 572 N 51.6005 -2.11172 -5.76437 0
M  V30 573 C 52.9715 -2.31212 -5.75275 0
M  V30 574 C 55.0265 -1.35278 -4.7917 0
M  V30 575 C 53.7295 -3.32896 -6.37631 0
M  V30 576 C 55.7555 -2.35823 -5.42348 0
M  V30 577 C 55.1175 -3.33469 -6.20466 0
M  V30 578 H 51.2165 0.0724992 -0.778632 0
M  V30 579 H 53.8005 -0.436583 -1.89742 0
M  V30 580 H 51.9715 1.40032 -3.62278 0
M  V30 581 H 53.7035 1.28013 -3.8392 0
M  V30 582 H 50.4585 -0.544178 -4.70463 0
M  V30 583 H 50.8825 -2.68714 -6.21387 0
M  V30 584 H 55.5245 -0.61157 -4.18354 0
M  V30 585 H 53.2425 -4.07933 -6.97579 0
M  V30 586 H 56.8285 -2.38911 -5.30484 0
M  V30 587 H 55.7085 -4.09996 -6.68485 0
M  V30 588 N 53.2116 1.57565 -0.0334293 0
M  V30 589 C 54.4416 1.95996 0.653398 0
M  V30 590 C 54.8496 0.908749 1.65947 0
M  V30 591 O 54.1926 -0.117471 1.83324 0
M  V30 592 C 54.2546 3.30589 1.41249 0
M  V30 593 C 53.9186 4.53503 0.564263 0
M  V30 594 C 54.9156 5.19647 -0.16225 0
M  V30 595 C 52.6006 4.99801 0.500398 0
M  V30 596 C 54.5946 6.30412 -0.941255 0
M  V30 597 C 52.2816 6.10448 -0.282308 0
M  V30 598 C 53.2796 6.75612 -1.00184 0
M  V30 599 O 52.9676 7.84134 -1.77171 0
M  V30 600 H 52.6996 0.65027 0.184728 0
M  V30 601 H 55.2536 2.05199 -0.0907841 0
M  V30 602 H 53.4836 3.17888 2.20191 0
M  V30 603 H 55.1726 3.53892 1.98784 0
M  V30 604 H 55.9386 4.84846 -0.12227 0
M  V30 605 H 51.8176 4.48883 1.05002 0
M  V30 606 H 55.3616 6.81208 -1.50339 0
M  V30 607 H 51.2586 6.44686 -0.323989 0
M  V30 608 H 52.0266 8.00822 -1.69194 0
M  V30 609 N 54.6897 -0.239769 1.55765 0
M  V30 610 C 55.9147 -0.988373 1.82335 0
M  V30 611 C 56.3397 -1.77886 0.611421 0
M  V30 612 O 55.6977 -1.75889 -0.439639 0
M  V30 613 C 55.7457 -1.89627 3.06715 0
M  V30 614 O 54.8497 -2.98904 2.84131 0
M  V30 615 H 54.1907 -0.280858 0.601677 0
M  V30 616 H 56.7207 -0.258597 2.02959 0
M  V30 617 H 56.7307 -2.30957 3.36338 0
M  V30 618 H 55.4057 -1.31511 3.9456 0
M  V30 619 H 53.9827 -2.61651 2.65694 0
M  V30 620 N 56.1678 -1.49265 -0.50573 0
M  V30 621 C 57.5788 -1.51769 -1.08734 0
M  V30 622 C 57.9298 -0.301192 -1.93874 0
M  V30 623 O 57.0548 0.589456 -2.08217 0
M  V30 624 C 57.6498 -2.75017 -1.97867 0
M  V30 625 C 56.2088 -2.80314 -2.51199 0
M  V30 626 C 55.3558 -2.4562 -1.28709 0
M  V30 627 H 58.3068 -1.56031 -0.289855 0
M  V30 628 H 58.3278 -2.5491 -2.82491 0
M  V30 629 H 57.8398 -3.63539 -1.35873 0
M  V30 630 H 55.9408 -1.96061 -3.16845 0
M  V30 631 H 56.0538 -3.82366 -2.88675 0
M  V30 632 H 54.4178 -1.97297 -1.61078 0
M  V30 633 H 55.2008 -3.36411 -0.6843 0
M  V30 634 N 57.6459 0.756429 -1.3826 0
M  V30 635 C 58.8939 1.51248 -1.34047 0
M  V30 636 C 59.2149 1.94875 0.0698372 0
M  V30 637 O 58.4849 1.67436 1.01696 0
M  V30 638 H 57.0649 0.561018 -0.493222 0
M  V30 639 H 59.7269 0.899347 -1.7291 0
M  V30 640 H 58.8229 2.40472 -1.98947 0
M  V30 641 N 59.124 1.23083 0.984299 0
M  V30 642 C 60.352 1.08714 1.76037 0
M  V30 643 C 60.767 -0.361691 1.85303 0
M  V30 644 O 60.124 -1.25034 1.32939 0
M  V30 645 C 60.175 1.70206 3.18923 0
M  V30 646 O 59.896 3.09423 3.10144 0
M  V30 647 C 61.397 1.61227 4.12941 0
M  V30 648 H 58.617 0.380664 0.552572 0
M  V30 649 H 61.161 1.62853 1.23689 0
M  V30 650 H 59.316 1.20109 3.6831 0
M  V30 651 H 59.73 3.39188 4.00065 0
M  V30 652 H 61.204 2.08962 5.10919 0
M  V30 653 H 61.681 0.570375 4.35481 0
M  V30 654 H 62.287 2.10671 3.69456 0
M  V30 655 N 60.6021 -1.18246 1.0419 0
M  V30 656 C 62.0181 -1.40269 0.761366 0
M  V30 657 C 62.2181 -1.90777 -0.648578 0
M  V30 658 O 61.2741 -2.0929 -1.41258 0
M  V30 659 C 62.5871 -2.40237 1.8085 0
M  V30 660 C 64.1351 -2.53961 1.82955 0
M  V30 661 C 64.6101 -3.57194 2.86664 0
M  V30 662 N 66.1011 -3.64702 2.85563 0
M  V30 663 C 66.8361 -4.44309 3.6246 0
M  V30 664 N 66.3321 -5.27514 4.49111 0
M  V30 665 N 68.1251 -4.39084 3.50944 0
M  V30 666 H 60.2761 -0.837882 1.95175 0
M  V30 667 H 62.5391 -0.430608 0.84456 0
M  V30 668 H 62.2451 -2.10176 2.81991 0
M  V30 669 H 62.1191 -3.39601 1.64168 0
M  V30 670 H 64.5061 -2.83338 0.824855 0
M  V30 671 H 64.5871 -1.54706 2.03715 0
M  V30 672 H 64.2311 -3.28558 3.87314 0
M  V30 673 H 64.1611 -4.5613 2.6316 0
M  V30 674 H 66.6521 -3.05289 2.22727 0
M  V30 675 H 66.9651 -5.85411 5.04493 0
M  V30 676 H 65.3101 -5.2693 4.53178 0
M  V30 677 H 68.5011 -3.7313 2.82651 0
M  V30 678 H 68.6741 -5.00883 4.11121 0
M  V30 679 N 62.0802 -0.821533 -1.34494 0
M  V30 680 C 62.9902 -0.244355 -2.33324 0
M  V30 681 C 64.0062 0.620527 -1.62559 0
M  V30 682 O 65.1822 0.528754 -1.94335 0
M  V30 683 C 62.2472 0.585368 -3.41723 0
M  V30 684 C 61.3082 -0.301752 -4.28238 0
M  V30 685 C 60.5412 0.488466 -5.3146 0
M  V30 686 O 60.7642 1.72186 -5.4379 0
M  V30 687 O 59.6982 -0.12848 -6.01763 0
M  V30 688 H 63.5242 -1.06231 -2.84515 0
M  V30 689 H 61.1092 -0.583645 -1.37528 0
M  V30 690 H 62.9912 1.05747 -4.07916 0
M  V30 691 H 61.6662 1.38068 -2.92778 0
M  V30 692 H 60.5732 -0.821315 -3.64973 0
M  V30 693 H 61.9062 -1.06138 -4.8062 0
M  V30 694 N 63.5583 1.46682 -0.576371 0
M  V30 695 C 64.5213 2.28707 0.150239 0
M  V30 696 C 65.5213 1.38035 0.824794 0
M  V30 697 O 66.7113 1.60476 0.677719 0
M  V30 698 C 63.8433 3.18248 1.22192 0
M  V30 699 H 65.0363 2.94423 -0.570521 0
M  V30 700 H 62.5893 1.52688 -0.334078 0
M  V30 701 H 63.3243 2.57265 1.97447 0
M  V30 702 H 63.1093 3.85 0.742812 0
M  V30 703 H 64.5993 3.80001 1.73172 0
M  V30 704 N 65.0364 0.313813 1.54444 0
M  V30 705 C 66.4524 -0.0391619 1.59552 0
M  V30 706 C 66.6524 -1.51322 1.33056 0
M  V30 707 O 65.7084 -2.26782 1.11022 0
M  V30 708 C 67.0214 0.370302 2.98411 0
M  V30 709 C 68.5694 0.320139 3.11358 0
M  V30 710 C 69.0444 0.704617 4.52547 0
M  V30 711 N 70.5354 0.657645 4.58508 0
M  V30 712 C 71.2704 0.927453 5.6585 0
M  V30 713 N 70.7664 1.26389 6.81174 0
M  V30 714 N 72.5594 0.853662 5.5558 0
M  V30 715 H 64.7104 1.27433 1.69925 0
M  V30 716 H 66.9734 0.517511 0.794284 0
M  V30 717 H 66.6794 1.39694 3.22767 0
M  V30 718 H 66.5534 -0.269619 3.76235 0
M  V30 719 H 68.9404 -0.697275 2.86744 0
M  V30 720 H 69.0214 0.99486 2.35661 0
M  V30 721 H 68.6654 1.7199 4.77893 0
M  V30 722 H 68.5954 0.00768843 5.26599 0
M  V30 723 H 71.0864 0.409067 3.75679 0
M  V30 724 H 71.3994 1.4554 7.58972 0
M  V30 725 H 69.7444 1.30206 6.82694 0
M  V30 726 H 72.9354 0.590383 4.64362 0
M  V30 727 H 73.1084 1.0673 6.3915 0
M  V30 728 N 66.5145 -1.57545 0.0417849 0
M  V30 729 C 67.4615 -2.10977 -0.935805 0
M  V30 730 C 68.4315 -1.01486 -1.31491 0
M  V30 731 O 69.6165 -1.2898 -1.40602 0
M  V30 732 C 66.7565 -2.65169 -2.2086 0
M  V30 733 C 65.8695 -3.88714 -1.88482 0
M  V30 734 C 65.0045 -4.31254 -3.1015 0
M  V30 735 C 64.0435 -5.47524 -2.7365 0
M  V30 736 N 63.1805 -5.85162 -3.87982 0
M  V30 737 H 68.0205 -2.94218 -0.473249 0
M  V30 738 H 65.5575 -1.45415 -0.221981 0
M  V30 739 H 67.5155 -2.94685 -2.95325 0
M  V30 740 H 66.1455 -1.8474 -2.64709 0
M  V30 741 H 65.1975 -3.65849 -1.04205 0
M  V30 742 H 66.5095 -4.73245 -1.57608 0
M  V30 743 H 65.6635 -4.62273 -3.92923 0
M  V30 744 H 64.4025 -3.45516 -3.44195 0
M  V30 745 H 63.4075 -5.16187 -1.89291 0
M  V30 746 H 64.6325 -6.34971 -2.40807 0
M  V30 747 H 62.5785 -5.02377 -4.21846 0
M  V30 748 H 62.4955 -6.64362 -3.60775 0
M  V30 749 H 63.7635 -6.20791 -4.71422 0
M  V30 750 N 67.9926 0.231505 -1.5589 0
M  V30 751 C 68.9026 1.308 -1.94752 0
M  V30 752 C 69.9186 1.51826 -0.849989 0
M  V30 753 O 71.0946 1.6515 -1.15271 0
M  V30 754 C 68.1596 2.63968 -2.24771 0
M  V30 755 C 67.2206 2.51331 -3.48039 0
M  V30 756 C 66.4536 3.78148 -3.76616 0
M  V30 757 O 66.6766 4.80722 -3.07022 0
M  V30 758 O 65.6106 3.75857 -4.70123 0
M  V30 759 H 69.4366 1.0083 -2.86474 0
M  V30 760 H 67.0216 0.433547 -1.42971 0
M  V30 761 H 68.9036 3.42633 -2.45318 0
M  V30 762 H 67.5786 2.9364 -1.36225 0
M  V30 763 H 66.4856 1.709 -3.32782 0
M  V30 764 H 67.8186 2.26601 -4.36936 0
M  V30 765 N 69.4707 1.49531 0.497807 0
M  V30 766 C 70.7007 1.62657 1.27382 0
M  V30 767 C 71.1087 0.298488 1.86831 0
M  V30 768 O 70.4517 -0.72647 1.68725 0
M  V30 769 C 70.5137 2.6393 2.44093 0
M  V30 770 C 70.1777 4.08195 2.05489 0
M  V30 771 C 71.1747 4.949 1.59279 0
M  V30 772 C 68.8597 4.53948 2.15026 0
M  V30 773 C 70.8537 6.25397 1.23113 0
M  V30 774 C 68.5407 5.84458 1.78473 0
M  V30 775 C 69.5387 6.70006 1.32591 0
M  V30 776 O 69.2267 7.98083 0.965327 0
M  V30 777 H 68.9587 0.550429 0.392434 0
M  V30 778 H 71.5127 1.96325 0.603801 0
M  V30 779 H 69.7427 2.25449 3.14181 0
M  V30 780 H 71.4317 2.66552 3.06113 0
M  V30 781 H 72.1977 4.60779 1.51354 0
M  V30 782 H 68.0767 3.87525 2.4969 0
M  V30 783 H 71.6207 6.92125 0.872299 0
M  V30 784 H 67.5177 6.18107 1.86048 0
M  V30 785 H 68.2857 8.11122 1.09652 0
M  V30 786 N 70.9488 -0.749086 1.3866 0
M  V30 787 C 71.8788 -1.8764 1.38973 0
M  V30 788 C 72.8598 -1.68178 0.255004 0
M  V30 789 O 74.0448 -1.88704 0.458754 0
M  V30 790 C 71.1748 -3.25222 1.21851 0
M  V30 791 C 70.1288 -3.59295 2.32575 0
M  V30 792 C 69.4548 -4.95663 2.00555 0
M  V30 793 C 70.7548 -3.63709 3.7485 0
M  V30 794 H 72.4488 -1.87635 2.3331 0
M  V30 795 H 69.9948 -0.901329 1.12303 0
M  V30 796 H 71.9478 -4.03746 1.20695 0
M  V30 797 H 70.6718 -3.25719 0.239775 0
M  V30 798 H 69.3308 -2.83093 2.32925 0
M  V30 799 H 68.9788 -4.92724 1.01154 0
M  V30 800 H 68.6788 -5.19429 2.74714 0
M  V30 801 H 70.2028 -5.7656 2.01024 0
M  V30 802 H 71.6168 -4.32338 3.76506 0
M  V30 803 H 70.0138 -3.98986 4.48252 0
M  V30 804 H 71.0838 -2.63834 4.06841 0
M  V30 805 N 72.4269 -1.23603 -0.977757 0
M  V30 806 C 73.3369 -1.03632 -2.1047 0
M  V30 807 C 74.3529 0.0199435 -1.73989 0
M  V30 808 O 75.5289 -0.176076 -2.00629 0
M  V30 809 C 72.5939 -0.63276 -3.40877 0
M  V30 810 C 71.6549 -1.76437 -3.91367 0
M  V30 811 C 70.8879 -1.37997 -5.15551 0
M  V30 812 O 71.1109 -0.265357 -5.69782 0
M  V30 813 O 70.0449 -2.20201 -5.60174 0
M  V30 814 H 73.8709 -1.98086 -2.30208 0
M  V30 815 H 71.4559 -1.02332 -1.08851 0
M  V30 816 H 73.3379 -0.418761 -4.19314 0
M  V30 817 H 72.0129 0.282754 -3.22463 0
M  V30 818 H 70.9199 -2.03304 -3.14036 0
M  V30 819 H 72.2529 -2.6583 -4.14241 0
M  V30 820 N 73.905 1.17692 -1.04816 0
M  V30 821 C 75.321 1.39863 -0.768794 0
M  V30 822 C 75.521 1.91118 0.638451 0
M  V30 823 O 74.577 2.10036 1.40146 0
M  V30 824 C 75.89 2.39274 -1.82122 0
M  V30 825 C 77.438 2.52987 -1.843 0
M  V30 826 C 77.913 3.55669 -2.88555 0
M  V30 827 N 79.404 3.63183 -2.87493 0
M  V30 828 C 80.139 4.42381 -3.64811 0
M  V30 829 N 79.635 5.25125 -4.51903 0
M  V30 830 N 81.428 4.37217 -3.53267 0
M  V30 831 H 73.579 0.82752 -1.95617 0
M  V30 832 H 75.842 0.426123 -0.846831 0
M  V30 833 H 75.548 2.08678 -2.83102 0
M  V30 834 H 75.422 3.38725 -1.65967 0
M  V30 835 H 77.809 2.82896 -0.839869 0
M  V30 836 H 77.89 1.53623 -2.04532 0
M  V30 837 H 77.534 3.26499 -3.89051 0
M  V30 838 H 77.464 4.54728 -2.65575 0
M  V30 839 H 79.955 3.04103 -2.24343 0
M  V30 840 H 80.268 5.82728 -5.07591 0
M  V30 841 H 78.613 5.24519 -4.55966 0
M  V30 842 H 81.804 3.71626 -2.84625 0
M  V30 843 H 81.977 4.98696 -4.13771 0
M  V30 844 N 75.3831 0.828654 1.34056 0
M  V30 845 C 76.3331 0.226828 2.26869 0
M  V30 846 C 77.3171 -0.612243 1.48796 0
M  V30 847 O 78.5091 -0.465884 1.70759 0
M  V30 848 C 75.6381 -0.605654 3.37915 0
M  V30 849 C 74.7241 0.244361 4.23395 0
M  V30 850 N 75.1151 1.31815 4.88322 0
M  V30 851 C 73.4131 0.0296616 4.4599 0
M  V30 852 C 74.1141 1.83895 5.51867 0
M  V30 853 N 73.0901 1.14196 5.3147 0
M  V30 854 H 76.8921 1.04811 2.74576 0
M  V30 855 H 74.4061 0.67205 1.47842 0
M  V30 856 H 76.4031 -1.05302 4.03382 0
M  V30 857 H 75.0631 -1.42504 2.91758 0
M  V30 858 H 76.0741 1.70099 4.8917 0
M  V30 859 H 72.7511 -0.757097 4.10578 0
M  V30 860 H 74.1411 2.7376 6.136 0
M  V30 861 N 76.8612 -1.46375 0.584142 0
M  V30 862 C 78.1072 -2.02678 0.0703716 0
M  V30 863 C 78.4402 -1.4545 -1.28678 0
M  V30 864 O 77.7152 -0.62014 -1.84349 0
M  V30 865 C 77.9982 -3.60099 0.00614674 0
M  V30 866 C 77.8512 -4.27709 1.3923 0
M  V30 867 C 79.1702 -4.34598 -0.693742 0
M  V30 868 H 76.2892 -0.736504 0.027047 0
M  V30 869 H 78.9312 -1.74501 0.751615 0
M  V30 870 H 77.0812 -3.84236 -0.574009 0
M  V30 871 H 78.7532 -4.14832 2.01773 0
M  V30 872 H 76.9962 -3.87016 1.95962 0
M  V30 873 H 77.6672 -5.36478 1.29982 0
M  V30 874 H 80.1432 -4.15615 -0.200869 0
M  V30 875 H 79.0192 -5.44318 -0.707714 0
M  V30 876 H 79.2802 -4.05759 -1.75533 0
M  V30 877 N 78.3393 -0.321999 -1.54275 0
M  V30 878 C 79.7503 0.166384 -1.85957 0
M  V30 879 C 80.1013 1.51747 -1.24367 0
M  V30 880 O 79.2263 2.09317 -0.549124 0
M  V30 881 C 79.8213 0.308681 -3.37391 0
M  V30 882 C 78.3803 0.741286 -3.69028 0
M  V30 883 C 77.5273 -0.137937 -2.76957 0
M  V30 884 H 80.4783 -0.542335 -1.49146 0
M  V30 885 H 80.4993 1.13984 -3.63026 0
M  V30 886 H 80.0113 -0.674809 -3.82188 0
M  V30 887 H 78.1123 1.73458 -3.29762 0
M  V30 888 H 78.2253 0.546118 -4.75977 0
M  V30 889 H 76.5893 0.386251 -2.51754 0
M  V30 890 H 77.3723 -1.11816 -3.2458 0
M  V30 891 N 79.8174 1.5752 -0.0501392 0
M  V30 892 C 81.0654 1.9227 0.622642 0
M  V30 893 C 81.3864 0.929083 1.71444 0
M  V30 894 O 80.6564 -0.0262186 1.95882 0
M  V30 895 H 79.2364 0.709739 0.232981 0
M  V30 896 H 81.8984 1.94628 -0.102898 0
M  V30 897 H 80.9944 2.93479 1.06191 0
M  V30 898 N 81.2955 -0.223234 1.56011 0
M  V30 899 C 82.2585 -1.26014 1.9145 0
M  V30 900 C 83.2585 -1.3989 0.792937 0
M  V30 901 O 84.4485 -1.38184 1.0607 0
M  V30 902 C 81.5805 -2.63422 2.16383 0
M  V30 903 H 82.7735 -0.95796 2.84189 0
M  V30 904 H 80.3265 -0.463576 1.49267 0
M  V30 905 H 81.0615 -2.98741 1.2619 0
M  V30 906 H 80.8465 -2.54728 2.98088 0
M  V30 907 H 82.3365 -3.38249 2.44903 0
M  V30 908 N 82.7736 -1.49793 -0.48987 0
M  V30 909 C 83.9986 -1.63836 -1.27172 0
M  V30 910 C 84.4236 -0.31402 -1.8546 0
M  V30 911 O 83.7816 0.719803 -1.66399 0
M  V30 912 C 83.8296 -2.71797 -2.36978 0
M  V30 913 O 82.9336 -2.31744 -3.41128 0
M  V30 914 H 82.2746 -0.547997 -0.37496 0
M  V30 915 H 84.8046 -1.96053 -0.585191 0
M  V30 916 H 84.8146 -2.94305 -2.82575 0
M  V30 917 H 83.4896 -3.67923 -1.93921 0
M  V30 918 H 82.0666 -2.1961 -3.01373 0
M  V30 919 N 84.2517 0.741722 -1.39055 0
M  V30 920 C 85.4987 1.50114 -1.35912 0
M  V30 921 C 85.8267 1.94443 0.0470937 0
M  V30 922 O 85.0817 1.66612 1.02659 0
M  V30 923 C 85.3807 2.7592 -2.27163 0
M  V30 924 C 85.0467 2.50493 -3.74919 0
M  V30 925 C 83.7087 2.43267 -4.1518 0
M  V30 926 C 86.0607 2.28585 -4.684 0
M  V30 927 C 83.3887 2.12166 -5.46994 0
M  V30 928 C 85.7407 1.99002 -6.00484 0
M  V30 929 C 84.4047 1.90241 -6.39816 0
M  V30 930 H 83.6747 0.549306 -0.497336 0
M  V30 931 H 86.3217 0.851896 -1.71508 0
M  V30 932 H 84.6267 3.45553 -1.84663 0
M  V30 933 H 86.3237 3.33923 -2.22028 0
M  V30 934 H 82.9137 2.56992 -3.43006 0
M  V30 935 H 87.0977 2.33139 -4.38132 0
M  V30 936 H 82.3537 2.03901 -5.76398 0
M  V30 937 H 86.5277 1.81057 -6.72452 0
M  V30 938 H 84.1547 1.65907 -7.41875 0
M  V30 939 N 85.7298 1.2412 0.971189 0
M  V30 940 C 86.9768 1.07881 1.71371 0
M  V30 941 C 87.3048 -0.382901 1.90694 0
M  V30 942 O 86.5598 -1.29945 1.46331 0
M  V30 943 C 86.8588 1.75983 3.11071 0
M  V30 944 C 86.5248 3.25909 3.11599 0
M  V30 945 C 85.1868 3.66813 3.11451 0
M  V30 946 C 87.5388 4.21771 3.062 0
M  V30 947 C 84.8668 5.02021 3.03631 0
M  V30 948 C 87.2188 5.56982 2.99923 0
M  V30 949 C 85.8828 5.97237 2.98102 0
M  V30 950 H 85.1528 0.394764 0.62709 0
M  V30 951 H 87.7998 1.54176 1.13587 0
M  V30 952 H 86.1048 1.22072 3.72298 0
M  V30 953 H 87.8018 1.60887 3.6731 0
M  V30 954 H 84.3918 2.93353 3.12477 0
M  V30 955 H 88.5758 3.91172 3.05447 0
M  V30 956 H 83.8318 5.32411 3.0058 0
M  V30 957 H 88.0058 6.30969 2.94704 0
M  V30 958 H 85.6328 7.01967 2.91798 0
M  V30 959 N 87.2079 -1.17134 1.05439 0
M  V30 960 C 88.4849 -1.83411 0.679699 0
M  V30 961 C 88.8649 -1.9368 -0.839726 0
M  V30 962 O 88.2129 -1.47325 -1.74664 0
M  V30 963 C 88.4229 -3.20918 1.37159 0
M  V30 964 C 89.7709 -3.96796 1.51123 0
M  V30 965 O 90.7949 -3.30406 1.3308 0
M  V30 966 O 89.6539 -5.15778 1.80651 0
M  V30 967 H 86.7479 -0.79154 0.239569 0
M  V30 968 H 89.2939 -1.24411 1.15413 0
M  V30 969 H 88.0659 -3.08428 2.40807 0
M  V30 970 H 87.6889 -3.87587 0.886674 0
M  V30 971 N 88.686 -0.835752 -1.33615 0
M  V30 972 C 89.935 -0.426289 -1.97144 0
M  V30 973 C 90.248 1.01912 -1.66953 0
M  V30 974 O 91.454 1.53311 -2.24072 0
M  V30 975 C 89.91 -0.711321 -3.52801 0
M  V30 976 C 89.518 -2.1712 -3.91871 0
M  V30 977 C 91.262 -0.368654 -4.22896 0
M  V30 978 C 89.169 -2.40044 -5.40493 0
M  V30 979 H 88.099 -0.15567 -0.737755 0
M  V30 980 H 90.75 -1.0239 -1.52278 0
M  V30 981 H 89.132 -0.0433766 -3.95976 0
M  V30 982 H 90.306 -2.87936 -3.59763 0
M  V30 983 H 88.621 -2.47654 -3.34749 0
M  V30 984 H 91.218 -0.517601 -5.32189 0
M  V30 985 H 91.561 0.688078 -4.10574 0
M  V30 986 H 92.094 -0.991702 -3.8524 0
M  V30 987 H 88.833 -3.44271 -5.57815 0
M  V30 988 H 88.353 -1.73785 -5.74072 0
M  V30 989 H 90.032 -2.23042 -6.0734 0
M  V30 990 N 90.1641 1.46063 -0.591896 0
M  V30 991 C 91.0741 2.34192 0.13831 0
M  V30 992 C 92.0901 1.50305 0.876608 0
M  V30 993 O 93.2661 1.8315 0.837728 0
M  V30 994 C 90.3311 3.27656 1.13326 0
M  V30 995 C 89.3921 4.27445 0.39863 0
M  V30 996 C 88.6251 5.16443 1.34618 0
M  V30 997 O 88.8481 5.08553 2.58321 0
M  V30 998 O 87.7821 5.95843 0.851768 0
M  V30 999 H 91.6081 2.98002 -0.58552 0
M  V30 1000 H 89.1931 1.45188 -0.352239 0
M  V30 1001 H 91.0751 3.85291 1.70671 0
M  V30 1002 H 89.7501 2.6643 1.83839 0
M  V30 1003 H 88.6571 3.73471 -0.216895 0
M  V30 1004 H 89.9901 4.91482 -0.265709 0
M  V30 1005 N 91.6422 0.330177 1.54103 0
M  V30 1006 C 92.5522 -0.541534 2.28264 0
M  V30 1007 C 93.5682 -1.12351 1.32866 0
M  V30 1008 O 94.7442 -1.14206 1.65888 0
M  V30 1009 C 91.8092 -1.68322 3.03098 0
M  V30 1010 C 90.8702 -1.13238 4.14096 0
M  V30 1011 C 90.1032 -2.21966 4.85352 0
M  V30 1012 O 90.3262 -3.42437 4.56172 0
M  V30 1013 O 89.2602 -1.87013 5.7211 0
M  V30 1014 H 93.0862 0.060938 3.03639 0
M  V30 1015 H 90.6712 0.09565 1.49093 0
M  V30 1016 H 92.5532 -2.34777 3.49939 0
M  V30 1017 H 91.2282 -2.27176 2.30593 0
M  V30 1018 H 90.1352 -0.432736 3.71589 0
M  V30 1019 H 91.4682 -0.588898 4.88664 0
M  V30 1020 N 93.1203 -1.57491 0.0584922 0
M  V30 1021 C 94.3603 -1.94851 -0.617458 0
M  V30 1022 C 94.7243 -0.937165 -1.67575 0
M  V30 1023 O 95.9253 -1.19795 -2.40629 0
M  V30 1024 C 94.1963 -3.36955 -1.19147 0
M  V30 1025 S 95.7553 -3.96277 -1.8844 0
M  V30 1026 H 92.5733 -0.681539 -0.202547 0
M  V30 1027 H 95.1753 -1.95073 0.129176 0
M  V30 1028 H 93.8793 -4.08355 -0.409215 0
M  V30 1029 H 93.4103 -3.40245 -1.97476 0
M  V30 1030 H 95.4253 -3.82099 -3.16568 0
M  V30 1031 N 94.5984 0.214957 -1.56127 0
M  V30 1032 C 96.0144 0.564948 -1.49267 0
M  V30 1033 C 96.2144 1.86827 -0.754838 0
M  V30 1034 O 95.2704 2.50745 -0.297198 0
M  V30 1035 C 96.5834 0.638071 -2.93852 0
M  V30 1036 C 98.1314 0.728253 -3.0441 0
M  V30 1037 C 98.6064 0.832663 -4.50367 0
M  V30 1038 N 100.097 0.896712 -4.54437 0
M  V30 1039 C 100.832 0.997324 -5.6466 0
M  V30 1040 N 100.328 1.06147 -6.8462 0
M  V30 1041 N 102.121 1.03297 -5.52527 0
M  V30 1042 H 94.2724 -0.640211 -2.02522 0
M  V30 1043 H 96.5354 -0.225507 -0.920788 0
M  V30 1044 H 96.2414 -0.250126 -3.50809 0
M  V30 1045 H 96.1154 1.49947 -3.46115 0
M  V30 1046 H 98.5024 1.60689 -2.47514 0
M  V30 1047 H 98.5834 -0.158952 -2.55306 0
M  V30 1048 H 98.2274 -0.0415417 -5.07883 0
M  V30 1049 H 98.1574 1.73538 -4.97184 0
M  V30 1050 H 100.648 0.857188 -3.6805 0
M  V30 1051 H 100.961 1.1382 -7.64372 0
M  V30 1052 H 99.3064 1.03049 -6.87318 0
M  V30 1053 H 102.497 0.979558 -4.57736 0
M  V30 1054 H 102.67 1.10793 -6.38458 0
M  V30 1055 N 96.0765 1.50051 0.48192 0
M  V30 1056 C 97.3535 1.51009 1.2432 0
M  V30 1057 C 97.7335 0.248587 2.09631 0
M  V30 1058 O 97.0815 -0.768409 2.15192 0
M  V30 1059 C 97.2915 2.79981 2.08355 0
M  V30 1060 C 98.6395 3.3022 2.66908 0
M  V30 1061 O 99.6635 2.81228 2.18607 0
M  V30 1062 O 98.5225 4.15595 3.54884 0
M  V30 1063 H 95.6165 0.605239 0.563573 0
M  V30 1064 H 98.1625 1.62332 0.494627 0
M  V30 1065 H 96.9345 3.63275 1.45419 0
M  V30 1066 H 96.5575 2.7161 2.90368 0
M  V30 1067 N 97.5546 -0.734337 1.39446 0
M  V30 1068 C 98.7826 -1.52358 1.39981 0
M  V30 1069 C 99.1976 -1.88799 -0.0054975 0
M  V30 1070 O 98.5546 -1.54146 -0.976998 0
M  V30 1071 C 98.6056 -2.81072 2.27333 0
M  V30 1072 O 98.3266 -2.46178 3.62392 0
M  V30 1073 C 99.8276 -3.75096 2.36259 0
M  V30 1074 H 97.0476 -0.470806 0.478103 0
M  V30 1075 H 99.5916 -0.907339 1.83269 0
M  V30 1076 H 97.7466 -3.39026 1.87457 0
M  V30 1077 H 98.1606 -3.28866 4.08592 0
M  V30 1078 H 99.6346 -4.62305 3.01626 0
M  V30 1079 H 100.112 -4.16892 1.38194 0
M  V30 1080 H 100.718 -3.23061 2.76608 0
M  V30 1081 N 99.0327 -1.24633 -0.964593 0
M  V30 1082 C 99.9957 -1.0424 -2.04124 0
M  V30 1083 C 100.996 0.00137563 -1.608 0
M  V30 1084 O 102.186 -0.239883 -1.7254 0
M  V30 1085 C 99.3177 -0.580588 -3.3592 0
M  V30 1086 H 100.511 -1.99803 -2.23649 0
M  V30 1087 H 98.0637 -1.06899 -1.14027 0
M  V30 1088 H 98.7987 0.3781 -3.22088 0
M  V30 1089 H 98.5837 -1.33398 -3.6871 0
M  V30 1090 H 100.074 -0.459034 -4.15069 0
M  V30 1091 N 100.511 1.16574 -1.06058 0
M  V30 1092 C 101.736 1.91493 -0.796562 0
M  V30 1093 C 102.161 1.76773 0.642868 0
M  V30 1094 O 101.519 1.09142 1.44768 0
M  V30 1095 C 101.567 3.40293 -1.19303 0
M  V30 1096 O 100.671 4.11074 -0.330394 0
M  V30 1097 H 100.012 0.596678 -0.291326 0
M  V30 1098 H 102.542 1.47708 -1.41575 0
M  V30 1099 H 102.552 3.91057 -1.16356 0
M  V30 1100 H 101.227 3.50326 -2.24153 0
M  V30 1101 H 99.8038 3.70513 -0.421225 0
M  V30 1102 N 101.989 0.842826 1.3317 0
M  V30 1103 C 103.4 0.496651 1.79973 0
M  V30 1104 C 103.751 -0.984641 1.69703 0
M  V30 1105 O 102.876 -1.76743 1.24863 0
M  V30 1106 C 103.471 0.894727 3.26772 0
M  V30 1107 C 102.03 0.600629 3.71577 0
M  V30 1108 C 101.177 1.10091 2.5451 0
M  V30 1109 H 104.128 1.03116 1.20635 0
M  V30 1110 H 104.149 0.206347 3.7994 0
M  V30 1111 H 103.661 1.97287 3.34215 0
M  V30 1112 H 101.762 -0.467284 3.69658 0
M  V30 1113 H 101.875 1.15863 4.64879 0
M  V30 1114 H 100.239 0.52162 2.49301 0
M  V30 1115 H 101.022 2.18591 2.64713 0
M  V30 1116 N 103.467 -1.45747 0.599634 0
M  V30 1117 C 104.697 -2.06369 0.0977132 0
M  V30 1118 C 105.105 -1.44624 -1.21985 0
M  V30 1119 O 104.448 -0.551831 -1.75216 0
M  V30 1120 C 104.51 -3.59284 -0.124673 0
M  V30 1121 C 104.174 -4.43318 1.10987 0
M  V30 1122 C 105.171 -4.78796 2.02609 0
M  V30 1123 C 102.856 -4.84194 1.33647 0
M  V30 1124 C 104.85 -5.53997 3.15224 0
M  V30 1125 C 102.537 -5.5915 2.46565 0
M  V30 1126 C 103.535 -5.93968 3.37182 0
M  V30 1127 O 103.223 -6.67405 4.48136 0
M  V30 1128 H 102.955 -0.673122 0.0623153 0
M  V30 1129 H 105.509 -1.88104 0.824981 0
M  V30 1130 H 103.739 -3.75919 -0.906745 0
M  V30 1131 H 105.428 -4.01775 -0.577201 0
M  V30 1132 H 106.194 -4.47781 1.86325 0
M  V30 1133 H 102.073 -4.56534 0.64016 0
M  V30 1134 H 105.617 -5.81091 3.85978 0
M  V30 1135 H 101.514 -5.89579 2.62805 0
M  V30 1136 H 102.282 -6.85847 4.46717 0
M  V30 1137 N 104.945 -0.338344 -1.53925 0
M  V30 1138 C 105.855 0.529421 -2.28548 0
M  V30 1139 C 106.871 1.11645 -1.3346 0
M  V30 1140 O 108.047 1.13325 -1.66492 0
M  V30 1141 C 105.112 1.66713 -3.03987 0
M  V30 1142 C 104.173 1.11041 -4.14691 0
M  V30 1143 C 103.406 2.19389 -4.86522 0
M  V30 1144 O 103.629 3.40013 -4.57982 0
M  V30 1145 O 102.563 1.83976 -5.73094 0
M  V30 1146 H 106.389 -0.0770399 -3.03602 0
M  V30 1147 H 103.974 -0.103555 -1.49041 0
M  V30 1148 H 105.856 2.32918 -3.5118 0
M  V30 1149 H 104.531 2.25949 -2.31794 0
M  V30 1150 H 103.438 0.413024 -3.71813 0
M  V30 1151 H 104.771 0.562975 -4.8897 0
M  V30 1152 N 106.423 1.57458 -0.0668435 0
M  V30 1153 C 107.356 2.08033 0.93795 0
M  V30 1154 C 108.334 0.984321 1.29421 0
M  V30 1155 O 109.518 1.25736 1.40437 0
M  V30 1156 C 106.645 2.53388 2.24749 0
M  V30 1157 C 105.691 3.74376 2.04315 0
M  V30 1158 S 106.524 5.19303 1.30706 0
M  V30 1159 C 107.68 5.67986 2.62951 0
M  V30 1160 H 107.913 2.92935 0.50759 0
M  V30 1161 H 105.446 1.5371 0.145804 0
M  V30 1162 H 107.404 2.8018 3.00016 0
M  V30 1163 H 106.065 1.68763 2.64911 0
M  V30 1164 H 105.258 4.04083 3.01218 0
M  V30 1165 H 104.86 3.47931 1.37186 0
M  V30 1166 H 107.152 5.74528 3.5906 0
M  V30 1167 H 108.095 6.66955 2.3786 0
M  V30 1168 H 108.503 4.95781 2.69929 0
M  V30 1169 N 107.901 -0.206675 1.56239 0
M  V30 1170 C 108.834 -1.28383 1.88661 0
M  V30 1171 C 109.812 -1.44504 0.745481 0
M  V30 1172 O 110.996 -1.60079 0.995336 0
M  V30 1173 C 108.123 -2.65211 2.10667 0
M  V30 1174 C 107.169 -2.66025 3.33366 0
M  V30 1175 S 108.002 -2.18609 4.88846 0
M  V30 1176 C 109.158 -3.57283 5.13906 0
M  V30 1177 H 109.391 -1.00691 2.7973 0
M  V30 1178 H 106.924 -0.409627 1.48867 0
M  V30 1179 H 108.882 -3.43979 2.24029 0
M  V30 1180 H 107.543 -2.90121 1.20369 0
M  V30 1181 H 106.736 -3.66607 3.45855 0
M  V30 1182 H 106.338 -1.95331 3.18938 0
M  V30 1183 H 108.63 -4.53074 5.03717 0
M  V30 1184 H 109.573 -3.49699 6.15724 0
M  V30 1185 H 109.981 -3.51659 4.41583 0
M  V30 1186 N 109.379 -1.50304 -0.473955 0
M  V30 1187 C 110.309 -1.71886 -1.58042 0
M  V30 1188 C 111.29 -0.567799 -1.60344 0
M  V30 1189 O 112.475 -0.806623 -1.76656 0
M  V30 1190 C 109.605 -1.81036 -2.96384 0
M  V30 1191 C 108.559 -2.962 -3.08949 0
M  V30 1192 C 107.885 -2.9049 -4.48909 0
M  V30 1193 C 109.185 -4.36752 -2.86434 0
M  V30 1194 H 110.879 -2.64527 -1.40234 0
M  V30 1195 H 108.425 -1.27295 -0.673201 0
M  V30 1196 H 110.378 -1.94719 -3.73714 0
M  V30 1197 H 109.102 -0.850147 -3.15341 0
M  V30 1198 H 107.761 -2.82164 -2.3405 0
M  V30 1199 H 107.409 -1.92321 -4.64781 0
M  V30 1200 H 107.109 -3.67802 -4.58253 0
M  V30 1201 H 108.633 -3.06218 -5.28264 0
M  V30 1202 H 110.047 -4.5133 -3.53517 0
M  V30 1203 H 108.444 -5.15493 -3.07225 0
M  V30 1204 H 109.514 -4.49321 -1.82316 0
M  V30 1205 N 110.857 0.726932 -1.39834 0
M  V30 1206 C 112.268 1.30558 -1.3346 0
M  V30 1207 C 112.619 1.962 -0.00273003 0
M  V30 1208 O 111.744 1.96826 0.899371 0
M  V30 1209 C 112.339 2.37404 -2.41713 0
M  V30 1210 C 110.898 2.90921 -2.38835 0
M  V30 1211 C 110.045 1.64578 -2.2318 0
M  V30 1212 H 112.996 0.523862 -1.49804 0
M  V30 1213 H 113.017 3.17984 -2.08966 0
M  V30 1214 H 112.529 1.89599 -3.38635 0
M  V30 1215 H 110.63 3.42985 -1.45575 0
M  V30 1216 H 110.743 3.43487 -3.33997 0
M  V30 1217 H 109.107 1.89219 -1.70494 0
M  V30 1218 H 109.89 1.18814 -3.22084 0
M  V30 1219 N 112.336 1.25143 0.95797 0
M  V30 1220 C 113.561 1.12521 1.74223 0
M  V30 1221 C 113.986 -0.317402 1.85403 0
M  V30 1222 O 113.344 -1.2299 1.33204 0
M  V30 1223 C 113.392 1.78062 3.1357 0
M  V30 1224 O 112.496 1.058 3.98598 0
M  V30 1225 H 111.837 0.39304 0.535178 0
M  V30 1226 H 114.367 1.65641 1.201 0
M  V30 1227 H 114.377 1.84213 3.64046 0
M  V30 1228 H 113.052 2.83021 3.04749 0
M  V30 1229 H 111.629 1.07506 3.57067 0
M  V30 1230 N 113.814 -1.1601 1.06675 0
M  V30 1231 C 114.724 -2.24156 0.692179 0
M  V30 1232 C 115.74 -1.71507 -0.293513 0
M  V30 1233 O 116.916 -2.009 -0.141861 0
M  V30 1234 C 113.981 -3.46587 0.0884131 0
M  V30 1235 C 113.042 -4.14257 1.12646 0
M  V30 1236 C 112.275 -5.30844 0.551416 0
M  V30 1237 O 112.498 -5.66858 -0.634656 0
M  V30 1238 O 111.432 -5.87848 1.29298 0
M  V30 1239 H 115.258 -2.58513 1.59388 0
M  V30 1240 H 112.843 -1.23599 0.83926 0
M  V30 1241 H 114.725 -4.20679 -0.246361 0
M  V30 1242 H 113.4 -3.13994 -0.786712 0
M  V30 1243 H 112.307 -3.42118 1.51348 0
M  V30 1244 H 113.64 -4.50914 1.97325 0
M  V30 1245 N 115.292 -0.849877 -1.32721 0
M  V30 1246 C 116.255 -0.296122 -2.27279 0
M  V30 1247 C 117.255 0.541458 -1.5141 0
M  V30 1248 O 118.445 0.353658 -1.70572 0
M  V30 1249 C 115.577 0.581579 -3.35902 0
M  V30 1250 H 116.77 -1.13064 -2.77771 0
M  V30 1251 H 114.323 -0.62383 -1.43311 0
M  V30 1252 H 115.058 1.43809 -2.9067 0
M  V30 1253 H 114.843 -0.0178814 -3.92096 0
M  V30 1254 H 116.333 0.961951 -4.0637 0
M  V30 1255 N 116.77 1.45427 -0.607355 0
M  V30 1256 C 118.018 2.01841 -0.102253 0
M  V30 1257 C 118.339 1.47832 1.27164 0
M  V30 1258 O 117.609 0.672497 1.83995 0
M  V30 1259 H 116.189 0.746188 -0.0348101 0
M  V30 1260 H 118.851 1.78229 -0.7887 0
M  V30 1261 H 117.947 3.12057 -0.0518585 0
M  V30 1262 N 118.248 0.346503 1.53744 0
M  V30 1263 C 119.495 -0.249104 2.00962 0
M  V30 1264 C 119.823 -1.5032 1.23426 0
M  V30 1265 O 119.078 -1.93217 0.310761 0
M  V30 1266 C 119.377 -0.605809 3.52228 0
M  V30 1267 C 119.043 0.551747 4.47512 0
M  V30 1268 C 117.705 0.86941 4.73281 0
M  V30 1269 C 120.057 1.32818 5.03993 0
M  V30 1270 C 117.385 1.96582 5.52786 0
M  V30 1271 C 119.737 2.41486 5.84694 0
M  V30 1272 C 118.401 2.73808 6.08757 0
M  V30 1273 H 117.671 -0.0911538 0.735372 0
M  V30 1274 H 120.318 0.475027 1.85515 0
M  V30 1275 H 118.623 -1.4107 3.65522 0
M  V30 1276 H 120.32 -1.07858 3.86222 0
M  V30 1277 H 116.91 0.294102 4.2759 0
M  V30 1278 H 121.094 1.09602 4.84047 0
M  V30 1279 H 116.35 2.22045 5.69654 0
M  V30 1280 H 120.524 3.02078 6.27473 0
M  V30 1281 H 118.151 3.58892 6.7015 0
M  V30 1282 N 119.726 -1.57421 0.075193 0
M  V30 1283 C 120.689 -2.11791 -0.876203 0
M  V30 1284 C 121.689 -1.04268 -1.22412 0
M  V30 1285 O 122.879 -1.30242 -1.15684 0
M  V30 1286 C 120.011 -2.62207 -2.17854 0
M  V30 1287 H 121.204 -2.9716 -0.40444 0
M  V30 1288 H 118.757 -1.55333 -0.173557 0
M  V30 1289 H 119.492 -1.803 -2.6956 0
M  V30 1290 H 119.277 -3.40802 -1.93897 0
M  V30 1291 H 120.767 -3.04335 -2.85955 0
M  V30 1292 N 121.204 0.198386 -1.56346 0
M  V30 1293 C 122.114 1.2664 -1.97483 0
M  V30 1294 C 123.13 1.49989 -0.882002 0
M  V30 1295 O 124.306 1.62668 -1.18748 0
M  V30 1296 C 121.371 2.59141 -2.30319 0
M  V30 1297 C 120.432 2.43892 -3.53292 0
M  V30 1298 C 119.665 3.70074 -3.84553 0
M  V30 1299 O 119.888 4.74101 -3.1715 0
M  V30 1300 O 118.822 3.658 -4.7799 0
M  V30 1301 H 122.648 0.947304 -2.88548 0
M  V30 1302 H 120.233 0.403123 -1.43859 0
M  V30 1303 H 122.115 3.37352 -2.5253 0
M  V30 1304 H 120.79 2.90684 -1.42423 0
M  V30 1305 H 119.697 1.63803 -3.36332 0
M  V30 1306 H 121.03 2.17282 -4.41644 0
M  V30 1307 N 122.682 1.50554 0.465978 0
M  V30 1308 C 123.912 1.65323 1.23903 0
M  V30 1309 C 124.32 0.338051 1.86155 0
M  V30 1310 O 123.663 -0.690518 1.70228 0
M  V30 1311 C 123.725 2.69048 2.3844 0
M  V30 1312 C 123.389 4.12462 1.96784 0
M  V30 1313 C 124.386 4.98168 1.48745 0
M  V30 1314 C 122.071 4.58407 2.05349 0
M  V30 1315 C 124.065 6.27868 1.0982 0
M  V30 1316 C 121.752 5.88112 1.66035 0
M  V30 1317 C 122.75 6.72668 1.18349 0
M  V30 1318 O 122.438 7.99951 0.795825 0
M  V30 1319 H 122.17 0.558629 0.38067 0
M  V30 1320 H 124.724 1.97561 0.562022 0
M  V30 1321 H 122.954 2.32062 3.09328 0
M  V30 1322 H 124.643 2.72985 3.0039 0
M  V30 1323 H 125.409 4.63885 1.41546 0
M  V30 1324 H 121.288 3.92735 2.41414 0
M  V30 1325 H 124.832 6.93819 0.725293 0
M  V30 1326 H 120.729 6.21914 1.72895 0
M  V30 1327 H 121.497 8.13265 0.924222 0
M  V30 1328 N 124.16 -0.719506 1.40217 0
M  V30 1329 C 125.406 -1.48152 1.38488 0
M  V30 1330 C 125.739 -1.94195 -0.0141867 0
M  V30 1331 O 125.014 -1.67884 -0.982096 0
M  V30 1332 C 125.297 -2.71035 2.37091 0
M  V30 1333 C 125.15 -2.30912 3.86005 0
M  V30 1334 C 126.469 -3.73182 2.33288 0
M  V30 1335 H 123.588 -0.537395 0.504357 0
M  V30 1336 H 126.23 -0.821472 1.71324 0
M  V30 1337 H 124.38 -3.27352 2.0922 0
M  V30 1338 H 126.052 -1.80107 4.24687 0
M  V30 1339 H 124.295 -1.62958 4.02029 0
M  V30 1340 H 124.966 -3.18978 4.50508 0
M  V30 1341 H 127.442 -3.26485 2.57966 0
M  V30 1342 H 126.318 -4.56806 3.04334 0
M  V30 1343 H 126.579 -4.21202 1.34317 0
M  V30 1344 N 125.638 -1.25649 -0.95132 0
M  V30 1345 C 126.886 -1.10375 -1.69298 0
M  V30 1346 C 127.207 0.355339 -1.91735 0
M  V30 1347 O 126.477 1.25188 -1.50681 0
M  V30 1348 H 125.057 -0.405461 -0.627384 0
M  V30 1349 H 127.719 -1.57823 -1.14358 0
M  V30 1350 H 126.815 -1.61465 -2.67087 0
M  V30 1351 N 127.117 1.15442 -1.07289 0
M  V30 1352 C 128.533 1.38201 -0.798288 0
M  V30 1353 C 128.733 1.92429 0.597769 0
M  V30 1354 O 127.789 2.12962 1.3566 0
M  V30 1355 C 129.102 2.35357 -1.87156 0
M  V30 1356 C 130.65 2.49021 -1.89624 0
M  V30 1357 C 131.125 3.49468 -2.96034 0
M  V30 1358 N 132.616 3.57003 -2.95132 0
M  V30 1359 C 133.351 4.34543 -3.74112 0
M  V30 1360 N 132.847 5.15421 -4.6294 0
M  V30 1361 N 134.64 4.29625 -3.62462 0
M  V30 1362 H 126.791 0.78584 -1.97328 0
M  V30 1363 H 129.054 0.408065 -0.855679 0
M  V30 1364 H 128.76 2.02626 -2.87464 0
M  V30 1365 H 128.634 3.35129 -1.73114 0
M  V30 1366 H 131.021 2.81051 -0.899687 0
M  V30 1367 H 131.102 1.4925 -2.07745 0
M  V30 1368 H 130.746 3.18173 -3.95889 0
M  V30 1369 H 130.676 4.48992 -2.75161 0
M  V30 1370 H 133.167 2.99276 -2.30743 0
M  V30 1371 H 133.48 5.7183 -5.19837 0
M  V30 1372 H 131.825 5.14729 -4.66989 0
M  V30 1373 H 135.016 3.65505 -2.92444 0
M  V30 1374 H 135.189 4.89807 -4.24256 0
M  V30 1375 N 128.595 0.856903 1.32268 0
M  V30 1376 C 129.525 0.31858 2.31316 0
M  V30 1377 C 130.506 -0.583487 1.59779 0
M  V30 1378 O 131.691 -0.503259 1.87566 0
M  V30 1379 C 128.821 -0.491979 3.43798 0
M  V30 1380 C 127.775 0.315849 4.26833 0
M  V30 1381 C 127.101 -0.619586 5.31098 0
M  V30 1382 C 128.401 1.54282 4.98993 0
M  V30 1383 H 130.095 1.14621 2.76591 0
M  V30 1384 H 127.641 0.552613 1.32974 0
M  V30 1385 H 129.594 -0.879012 4.1213 0
M  V30 1386 H 128.318 -1.35299 2.97257 0
M  V30 1387 H 126.977 0.684664 3.6015 0
M  V30 1388 H 126.625 -1.47751 4.8081 0
M  V30 1389 H 126.325 -0.0830621 5.87541 0
M  V30 1390 H 127.849 -1.00375 6.02293 0
M  V30 1391 H 129.263 1.22796 5.59995 0
M  V30 1392 H 127.66 2.01745 5.65172 0
M  V30 1393 H 128.73 2.30285 4.26728 0
M  V30 1394 N 130.073 -1.45103 0.615059 0
M  V30 1395 C 131.321 -2.01784 0.112955 0
M  V30 1396 C 131.642 -1.48504 -1.26378 0
M  V30 1397 O 130.912 -0.682245 -1.83636 0
M  V30 1398 H 129.492 -0.745993 0.0387668 0
M  V30 1399 H 132.154 -1.77808 0.798141 0
M  V30 1400 H 131.25 -3.12025 0.0684069 0
M  V30 1401 N 131.551 -0.354651 -1.53558 0
M  V30 1402 C 132.8 0.239504 -2.00273 0
M  V30 1403 C 133.113 1.50759 -1.24623 0
M  V30 1404 O 134.319 2.17968 -1.61871 0
M  V30 1405 C 132.775 0.477341 -3.5672 0
M  V30 1406 C 132.383 -0.775488 -4.41237 0
M  V30 1407 C 134.127 1.02975 -4.11821 0
M  V30 1408 C 132.034 -0.507838 -5.89216 0
M  V30 1409 H 130.964 0.0932743 -0.748208 0
M  V30 1410 H 133.615 -0.471701 -1.77334 0
M  V30 1411 H 131.997 1.24953 -3.7577 0
M  V30 1412 H 133.171 -1.54963 -4.33962 0
M  V30 1413 H 131.486 -1.25033 -3.97185 0
M  V30 1414 H 134.083 1.24513 -5.2 0
M  V30 1415 H 134.426 1.98862 -3.65731 0
M  V30 1416 H 134.959 0.317994 -3.96527 0
M  V30 1417 H 131.698 -1.43674 -6.39561 0
M  V30 1418 H 131.218 0.228011 -5.99366 0
M  V30 1419 H 132.897 -0.129238 -6.46871 0
M  V30 1420 N 133.029 1.57378 -0.0835403 0
M  V30 1421 C 134.254 1.98682 0.594987 0
M  V30 1422 C 134.679 0.961969 1.61641 0
M  V30 1423 O 134.037 -0.0709989 1.81161 0
M  V30 1424 C 134.085 3.38988 1.2296 0
M  V30 1425 O 133.189 3.39208 2.34546 0
M  V30 1426 H 132.53 0.646368 0.152002 0
M  V30 1427 H 135.06 2.03961 -0.161533 0
M  V30 1428 H 135.07 3.76431 1.57366 0
M  V30 1429 H 133.745 4.13107 0.481228 0
M  V30 1430 H 132.322 3.13548 2.01846 0
M  V30 1431 N 134.507 -0.190092 1.56449 0
M  V30 1432 C 135.455 -1.25501 1.95837 0
M  V30 1433 C 136.449 -1.4685 0.844485 0
M  V30 1434 O 137.655 -1.47651 1.02952 0
M  V30 1435 H 134.03 -0.421447 0.622805 0
M  V30 1436 H 136.001 -0.895821 2.84636 0
M  V30 1437 C 134.75 -2.59124 2.31841 0
M  V30 1438 H 134.073 -2.43514 3.17082 0
M  V30 1439 H 135.513 -3.32371 2.6326 0
M  V30 1440 C 133.972 -3.16488 1.15486 0
M  V30 1441 O 134.502 -3.99365 0.432535 0
M  V30 1442 N 132.708 -2.75305 0.930349 0
M  V30 1443 H 132.255 -2.08013 1.51948 0
M  V30 1444 H 132.213 -3.14024 0.153634 0
M  V30 1445 N 135.985 -1.50799 -0.457987 0
M  V30 1446 C 136.935 -1.67003 -1.55222 0
M  V30 1447 C 137.919 -0.52434 -1.52117 0
M  V30 1448 O 139.111 -0.779345 -1.58919 0
M  V30 1449 C 136.24 -1.77956 -2.93576 0
M  V30 1450 C 135.326 -2.98243 -3.01516 0
M  V30 1451 N 135.717 -4.21732 -2.79241 0
M  V30 1452 C 134.015 -2.97072 -3.32662 0
M  V30 1453 C 134.716 -5.02817 -2.92489 0
M  V30 1454 N 133.692 -4.37038 -3.23262 0
M  V30 1455 H 137.494 -2.60163 -1.36721 0
M  V30 1456 H 135.008 -1.48163 -0.664952 0
M  V30 1457 H 137.005 -1.87671 -3.72271 0
M  V30 1458 H 135.665 -0.859634 -3.13114 0
M  V30 1459 H 136.676 -4.51016 -2.54567 0
M  V30 1460 H 133.353 -2.14631 -3.58106 0
M  V30 1461 H 134.743 -6.11054 -2.79396 0
M  V30 1462 N 137.463 0.71206 -1.40597 0
M  V30 1463 C 138.691 1.50111 -1.42388 0
M  V30 1464 C 139.106 1.88784 -0.0245395 0
M  V30 1465 O 138.463 1.55681 0.952351 0
M  V30 1466 C 138.514 2.7742 -2.31776 0
M  V30 1467 O 138.235 2.40382 -3.66262 0
M  V30 1468 C 139.736 3.7129 -2.42196 0
M  V30 1469 H 136.956 0.46314 -0.485533 0
M  V30 1470 H 139.5 0.878068 -1.8469 0
M  V30 1471 H 137.655 3.36001 -1.92827 0
M  V30 1472 H 138.069 3.22324 -4.13772 0
M  V30 1473 H 139.543 4.57448 -3.08943 0
M  V30 1474 H 140.02 4.14641 -1.44809 0
M  V30 1475 H 140.626 3.18619 -2.81712 0
M  V30 1476 N 138.941 1.26152 0.944643 0
M  V30 1477 C 139.891 1.04081 2.02857 0
M  V30 1478 C 140.875 -0.0256555 1.6088 0
M  V30 1479 O 142.067 0.190884 1.75968 0
M  V30 1480 C 139.196 0.672118 3.36656 0
M  V30 1481 C 138.282 1.77586 3.85128 0
M  V30 1482 N 138.673 3.01272 4.06287 0
M  V30 1483 C 136.971 1.65867 4.1401 0
M  V30 1484 C 137.672 3.72983 4.46384 0
M  V30 1485 N 136.648 3.00653 4.52889 0
M  V30 1486 H 140.45 1.97968 2.17223 0
M  V30 1487 H 137.964 1.16618 1.13022 0
M  V30 1488 H 139.961 0.495166 4.13949 0
M  V30 1489 H 138.621 -0.259307 3.23663 0
M  V30 1490 H 139.632 3.37213 3.93075 0
M  V30 1491 H 136.309 0.796907 4.09824 0
M  V30 1492 H 137.699 4.792 4.70975 0
M  V30 1493 N 140.419 -1.14872 1.07899 0
M  V30 1494 C 141.665 -1.86064 0.806725 0
M  V30 1495 C 141.998 -1.82434 -0.665706 0
M  V30 1496 O 141.273 -1.25138 -1.48899 0
M  V30 1497 C 141.556 -3.34929 1.32267 0
M  V30 1498 C 141.409 -3.47161 2.86006 0
M  V30 1499 C 142.728 -4.29863 0.943717 0
M  V30 1500 H 139.847 -0.675591 0.294526 0
M  V30 1501 H 142.489 -1.34925 1.33773 0
M  V30 1502 H 140.639 -3.78611 0.870974 0
M  V30 1503 H 142.311 -3.12302 3.39507 0
M  V30 1504 H 140.554 -2.88539 3.23925 0
M  V30 1505 H 141.225 -4.51777 3.17177 0
M  V30 1506 H 143.701 -3.9417 1.33302 0
M  V30 1507 H 142.577 -5.32494 1.33198 0
M  V30 1508 H 142.838 -4.41846 -0.149796 0
M  V30 1509 N 141.898 -0.863906 -1.31812 0
M  V30 1510 C 143.144 -0.472535 -1.97218 0
M  V30 1511 C 143.477 0.971394 -1.68159 0
M  V30 1512 O 142.752 1.68309 -0.974798 0
M  V30 1513 C 143.035 -0.723054 -3.52766 0
M  V30 1514 C 142.888 -2.21608 -3.91421 0
M  V30 1515 C 144.207 -0.185522 -4.39709 0
M  V30 1516 H 141.326 -0.173158 -0.71637 0
M  V30 1517 H 143.968 -1.08403 -1.56041 0
M  V30 1518 H 142.118 -0.202577 -3.87971 0
M  V30 1519 H 143.79 -2.80334 -3.66347 0
M  V30 1520 H 142.033 -2.691 -3.40246 0
M  V30 1521 H 142.704 -2.34203 -4.99853 0
M  V30 1522 H 145.18 -0.630726 -4.11292 0
M  V30 1523 H 144.056 -0.390306 -5.47511 0
M  V30 1524 H 144.317 0.912229 -4.32586 0
M  V30 1525 N 143.376 1.44774 -0.622745 0
M  V30 1526 C 144.622 2.0242 -0.124083 0
M  V30 1527 C 144.955 1.4881 1.24777 0
M  V30 1528 O 144.23 0.668799 1.8264 0
M  V30 1529 C 144.513 3.59957 -0.101619 0
M  V30 1530 C 144.366 4.23867 -1.50521 0
M  V30 1531 C 145.685 4.36284 0.578272 0
M  V30 1532 H 142.804 0.735528 -0.0465645 0
M  V30 1533 H 145.446 1.72447 -0.797617 0
M  V30 1534 H 143.596 3.85623 0.471934 0
M  V30 1535 H 145.268 4.09336 -2.12701 0
M  V30 1536 H 143.511 3.81684 -2.06154 0
M  V30 1537 H 144.182 5.32843 -1.4416 0
M  V30 1538 H 146.658 4.16001 0.0906057 0
M  V30 1539 H 145.534 5.46004 0.563149 0
M  V30 1540 H 145.795 4.10271 1.64713 0
M  V30 1541 N 144.854 0.36279 1.53368 0
M  V30 1542 C 146.084 -0.228281 2.05335 0
M  V30 1543 C 146.492 -1.43226 1.23625 0
M  V30 1544 O 145.835 -1.81717 0.269206 0
M  V30 1545 C 145.897 -0.688549 3.52845 0
M  V30 1546 C 145.561 0.398362 4.5526 0
M  V30 1547 C 146.558 1.24732 5.04716 0
M  V30 1548 C 144.243 0.557805 4.99193 0
M  V30 1549 C 146.237 2.2411 5.96702 0
M  V30 1550 C 143.924 1.55495 5.90986 0
M  V30 1551 C 144.922 2.39503 6.39631 0
M  V30 1552 O 144.61 3.37517 7.29615 0
M  V30 1553 H 144.342 -0.044395 0.674541 0
M  V30 1554 H 146.896 0.518668 1.98744 0
M  V30 1555 H 145.126 -1.48706 3.56964 0
M  V30 1556 H 146.815 -1.20231 3.87685 0
M  V30 1557 H 147.581 1.13532 4.71525 0
M  V30 1558 H 143.46 -0.0862959 4.60919 0
M  V30 1559 H 147.004 2.89718 6.34594 0
M  V30 1560 H 142.901 1.66744 6.23592 0
M  V30 1561 H 143.669 3.33213 7.47604 0
M  V30 1562 N 146.332 -1.57332 0.0918853 0
M  V30 1563 C 147.609 -1.85691 -0.614668 0
M  V30 1564 C 147.989 -0.988146 -1.86545 0
M  V30 1565 O 147.337 -0.0597055 -2.28422 0
M  V30 1566 C 147.547 -3.36294 -0.933126 0
M  V30 1567 C 148.895 -4.04275 -1.29796 0
M  V30 1568 O 149.919 -3.41157 -1.02424 0
M  V30 1569 O 148.778 -5.1564 -1.81047 0
M  V30 1570 H 145.872 -0.767802 -0.307261 0
M  V30 1571 H 148.418 -1.69244 0.12434 0
M  V30 1572 H 147.19 -3.91273 -0.0456404 0
M  V30 1573 H 146.813 -3.58076 -1.72822 0
M  V30 1574 N 147.81 0.181792 -1.56548 0
M  V30 1575 C 149.058 0.89832 -1.81038 0
M  V30 1576 C 149.379 1.83232 -0.667164 0
M  V30 1577 O 148.649 1.93372 0.313673 0
M  V30 1578 H 147.229 0.33471 -0.667816 0
M  V30 1579 H 149.891 0.184116 -1.94028 0
M  V30 1580 H 148.987 1.4815 -2.74696 0
M  V30 1581 N 149.288 1.51039 0.449983 0
M  V30 1582 C 150.198 1.74261 1.57067 0
M  V30 1583 C 151.214 0.626363 1.62335 0
M  V30 1584 O 152.39 0.907162 1.79812 0
M  V30 1585 C 149.455 1.85114 2.93144 0
M  V30 1586 C 148.516 3.0893 2.98095 0
M  V30 1587 C 147.749 3.19256 4.27681 0
M  V30 1588 O 147.972 2.35835 5.19363 0
M  V30 1589 O 146.906 4.12144 4.38658 0
M  V30 1590 H 150.732 2.69303 1.40391 0
M  V30 1591 H 148.317 1.35389 0.631688 0
M  V30 1592 H 150.199 1.94311 3.73926 0
M  V30 1593 H 148.874 0.932588 3.09975 0
M  V30 1594 H 147.781 3.0522 2.16314 0
M  V30 1595 H 149.114 4.00433 2.86206 0
M  V30 1596 N 150.766 -0.704594 1.40972 0
M  V30 1597 C 151.716 -1.81051 1.38581 0
M  V30 1598 C 152.7 -1.58759 0.261585 0
M  V30 1599 O 153.892 -1.69745 0.501556 0
M  V30 1600 C 151.021 -3.19279 1.26157 0
M  V30 1601 C 150.107 -3.47296 2.43405 0
M  V30 1602 N 150.498 -3.46064 3.68881 0
M  V30 1603 C 148.796 -3.77804 2.37023 0
M  V30 1604 C 149.497 -3.72733 4.46592 0
M  V30 1605 N 148.473 -3.9203 3.76581 0
M  V30 1606 H 152.275 -1.78448 2.33525 0
M  V30 1607 H 149.789 -0.904198 1.349 0
M  V30 1608 H 151.786 -3.98488 1.22526 0
M  V30 1609 H 150.446 -3.231 0.321902 0
M  V30 1610 H 151.457 -3.26656 4.01891 0
M  V30 1611 H 148.134 -3.8905 1.51481 0
M  V30 1612 H 149.524 -3.77993 5.55492 0
M  V30 1613 N 152.244 -1.26651 -0.937939 0
M  V30 1614 C 153.174 -1.10993 -2.05433 0
M  V30 1615 C 154.155 -0.0142161 -1.70094 0
M  V30 1616 O 155.34 -0.186837 -1.93299 0
M  V30 1617 C 152.47 -0.745561 -3.39203 0
M  V30 1618 C 151.424 -1.79337 -3.88616 0
M  V30 1619 C 150.75 -1.28324 -5.19073 0
M  V30 1620 C 152.05 -3.19553 -4.13138 0
M  V30 1621 H 153.744 -2.0438 -2.1879 0
M  V30 1622 H 151.29 -0.984041 -1.05131 0
M  V30 1623 H 153.243 -0.622888 -4.16771 0
M  V30 1624 H 151.967 0.22401 -3.25831 0
M  V30 1625 H 150.626 -1.90477 -3.13231 0
M  V30 1626 H 150.274 -0.303414 -5.02084 0
M  V30 1627 H 149.974 -1.98369 -5.53103 0
M  V30 1628 H 151.498 -1.1733 -5.99221 0
M  V30 1629 H 152.912 -3.11471 -4.81309 0
M  V30 1630 H 151.309 -3.87218 -4.58457 0
M  V30 1631 H 152.379 -3.65368 -3.18801 0
M  V30 1632 N 153.722 1.14298 -1.08507 0
M  V30 1633 C 154.97 1.84993 -0.813763 0
M  V30 1634 C 155.291 1.83405 0.662393 0
M  V30 1635 O 154.561 1.28319 1.48024 0
M  V30 1636 H 153.141 0.684966 -0.298045 0
M  V30 1637 H 155.803 1.385 -1.37126 0
M  V30 1638 H 154.899 2.89788 -1.15884 0
M  V30 1639 N 155.201 0.870884 1.31352 0
M  V30 1640 C 156.426 0.495957 2.01383 0
M  V30 1641 C 156.851 -0.904324 1.64935 0
M  V30 1642 O 156.209 -1.59687 0.858466 0
M  V30 1643 C 156.257 0.661433 3.54482 0
M  V30 1644 O 155.361 -0.298851 4.11316 0
M  V30 1645 H 154.702 0.197158 0.634054 0
M  V30 1646 H 157.232 1.17455 1.67527 0
M  V30 1647 H 157.242 0.555072 4.04207 0
M  V30 1648 H 155.917 1.68246 3.8035 0
M  V30 1649 H 154.494 -0.147368 3.72609 0
M  V30 1650 N 156.679 -1.44442 0.630414 0
M  V30 1651 C 157.926 -2.02052 0.134617 0
M  V30 1652 C 158.254 -1.49576 -1.24327 0
M  V30 1653 O 157.509 -0.669806 -1.83881 0
M  V30 1654 C 157.808 -3.57332 0.0697835 0
M  V30 1655 C 157.474 -4.29058 1.38635 0
M  V30 1656 C 156.136 -4.4837 1.74694 0
M  V30 1657 C 158.488 -4.69872 2.25543 0
M  V30 1658 C 155.816 -5.05756 2.97369 0
M  V30 1659 C 158.168 -5.28616 3.47487 0
M  V30 1660 C 156.832 -5.46147 3.8377 0
M  V30 1661 H 156.102 -0.739361 0.0492598 0
M  V30 1662 H 158.749 -1.73217 0.816586 0
M  V30 1663 H 157.054 -3.85577 -0.695553 0
M  V30 1664 H 158.751 -3.99637 -0.330344 0
M  V30 1665 H 155.341 -4.14357 1.09574 0
M  V30 1666 H 159.525 -4.54666 1.98979 0
M  V30 1667 H 154.781 -5.17515 3.25558 0
M  V30 1668 H 158.955 -5.59192 4.15063 0
M  V30 1669 H 156.582 -5.9038 4.7891 0
M  V30 1670 N 158.157 -0.370918 -1.53173 0
M  V30 1671 C 159.387 0.217389 -2.05453 0
M  V30 1672 C 159.795 1.42568 -1.24382 0
M  V30 1673 O 159.138 1.81571 -0.278839 0
M  V30 1674 C 159.2 0.669827 -3.53205 0
M  V30 1675 C 158.864 -0.4225 -4.55043 0
M  V30 1676 C 159.861 -1.27407 -5.04047 0
M  V30 1677 C 157.546 -0.58427 -4.9889 0
M  V30 1678 C 159.54 -2.27271 -5.95505 0
M  V30 1679 C 157.227 -1.58627 -5.90153 0
M  V30 1680 C 158.225 -2.42892 -6.38351 0
M  V30 1681 O 157.913 -3.41382 -7.27814 0
M  V30 1682 H 157.645 0.0408171 -0.674767 0
M  V30 1683 H 160.199 -0.5292 -1.98466 0
M  V30 1684 H 158.429 1.4681 -3.57748 0
M  V30 1685 H 160.118 1.18173 -3.88317 0
M  V30 1686 H 160.884 -1.16031 -4.70916 0
M  V30 1687 H 156.763 0.061851 -4.60959 0
M  V30 1688 H 160.307 -2.93079 -6.33049 0
M  V30 1689 H 156.204 -1.70048 -6.22699 0
M  V30 1690 H 156.972 -3.37173 -7.45826 0
M  V30 1691 N 159.635 1.57281 -0.100228 0
M  V30 1692 C 160.598 2.13158 0.842398 0
M  V30 1693 C 161.598 1.06202 1.20738 0
M  V30 1694 O 162.788 1.32066 1.13597 0
M  V30 1695 C 159.92 2.65639 2.13655 0
M  V30 1696 H 161.113 2.97766 0.357114 0
M  V30 1697 H 158.666 1.5559 0.148823 0
M  V30 1698 H 159.401 1.84566 2.66657 0
M  V30 1699 H 159.186 3.43844 1.88451 0
M  V30 1700 H 160.676 3.08846 2.81077 0
M  V30 1701 N 161.113 -0.173488 1.56642 0
M  V30 1702 C 162.524 -0.736155 1.71574 0
M  V30 1703 C 162.875 -1.82888 0.710389 0
M  V30 1704 O 162 -2.16017 -0.1287 0
M  V30 1705 C 162.595 -1.34211 3.11083 0
M  V30 1706 C 161.154 -1.85162 3.27707 0
M  V30 1707 C 160.301 -0.729765 2.67525 0
M  V30 1708 H 163.252 0.0518786 1.58615 0
M  V30 1709 H 163.273 -2.21178 3.09613 0
M  V30 1710 H 162.785 -0.546579 3.84232 0
M  V30 1711 H 160.886 -2.67366 2.59512 0
M  V30 1712 H 160.999 -1.99855 4.35425 0
M  V30 1713 H 159.363 -1.14965 2.27278 0
M  V30 1714 H 160.146 0.0538806 3.43258 0
M  V30 1715 N 162.591 -1.51276 -0.441967 0
M  V30 1716 C 164.007 -1.39349 -0.778083 0
M  V30 1717 C 164.207 -0.472212 -1.95889 0
M  V30 1718 O 163.263 0.0743551 -2.5239 0
M  V30 1719 C 164.576 -2.81292 -1.0628 0
M  V30 1720 C 166.124 -2.9041 -1.16751 0
M  V30 1721 C 166.599 -4.33251 -1.48519 0
M  V30 1722 N 168.09 -4.36336 -1.55453 0
M  V30 1723 C 168.825 -5.43885 -1.81596 0
M  V30 1724 N 168.321 -6.61601 -2.05562 0
M  V30 1725 N 170.114 -5.3136 -1.8334 0
M  V30 1726 H 162.265 -2.09729 0.335774 0
M  V30 1727 H 164.528 -0.943925 0.0878028 0
M  V30 1728 H 164.234 -3.50678 -0.267905 0
M  V30 1729 H 164.108 -3.20334 -1.99163 0
M  V30 1730 H 166.495 -2.21225 -1.95304 0
M  V30 1731 H 166.576 -2.54871 -0.217801 0
M  V30 1732 H 166.22 -5.02984 -0.704958 0
M  V30 1733 H 166.15 -4.66299 -2.44689 0
M  V30 1734 H 168.641 -3.51466 -1.38853 0
M  V30 1735 H 168.954 -7.39361 -2.24867 0
M  V30 1736 H 167.299 -6.64725 -2.02894 0
M  V30 1737 H 170.49 -4.38382 -1.64132 0
M  V30 1738 H 170.663 -6.15258 -2.03377 0
M  V30 1739 N 164.069 0.697108 -1.41344 0
M  V30 1740 C 165.315 1.4593 -1.40827 0
M  V30 1741 C 165.648 1.94193 -0.0167098 0
M  V30 1742 O 164.923 1.69425 0.955263 0
M  V30 1743 C 165.206 2.67229 -2.41373 0
M  V30 1744 C 165.059 2.24741 -3.8963 0
M  V30 1745 C 166.378 3.69423 -2.39196 0
M  V30 1746 H 163.497 0.529303 -0.512842 0
M  V30 1747 H 166.139 0.794112 -1.72609 0
M  V30 1748 H 164.289 3.23982 -2.14401 0
M  V30 1749 H 165.961 1.73327 -4.27499 0
M  V30 1750 H 164.204 1.56542 -4.0457 0
M  V30 1751 H 164.875 3.1177 -4.55525 0
M  V30 1752 H 167.351 3.2234 -2.63128 0
M  V30 1753 H 166.227 4.51907 -3.11563 0
M  V30 1754 H 166.488 4.19012 -1.41001 0
M  V30 1755 N 165.547 1.27147 0.931209 0
M  V30 1756 C 166.793 1.14455 1.68141 0
M  V30 1757 C 167.148 -0.307172 1.89932 0
M  V30 1758 O 166.441 -1.22158 1.47607 0
M  V30 1759 C 166.635 1.8579 3.05314 0
M  V30 1760 C 166.464 3.3775 2.96909 0
M  V30 1761 C 165.234 4.07062 2.99381 0
M  V30 1762 C 167.432 4.33783 2.76291 0
M  V30 1763 N 165.414 5.45618 2.8138 0
M  V30 1764 C 166.785 5.59582 2.6696 0
M  V30 1765 C 168.84 4.23915 2.61152 0
M  V30 1766 C 167.543 6.76639 2.44033 0
M  V30 1767 C 169.569 5.40689 2.39602 0
M  V30 1768 C 168.931 6.65443 2.3101 0
M  V30 1769 H 165.03 0.473667 0.622225 0
M  V30 1770 H 167.614 1.60568 1.10118 0
M  V30 1771 H 165.785 1.42138 3.61457 0
M  V30 1772 H 167.517 1.65634 3.69253 0
M  V30 1773 H 164.272 3.585 3.09475 0
M  V30 1774 H 164.696 6.184 2.75519 0
M  V30 1775 H 169.338 3.28189 2.66555 0
M  V30 1776 H 167.056 7.72451 2.3737 0
M  V30 1777 H 170.642 5.34932 2.28778 0
M  V30 1778 H 169.522 7.54277 2.14558 0
M  V30 1779 N 167.025 -1.13721 1.09112 0
M  V30 1780 C 168.271 -1.85413 0.836283 0
M  V30 1781 C 168.626 -1.8175 -0.631249 0
M  V30 1782 O 167.919 -1.24238 -1.45861 0
M  V30 1783 C 168.113 -3.32861 1.30146 0
M  V30 1784 C 167.942 -3.50882 2.81268 0
M  V30 1785 C 166.712 -3.65312 3.49106 0
M  V30 1786 C 168.91 -3.47196 3.7942 0
M  V30 1787 N 166.892 -3.71563 4.88686 0
M  V30 1788 C 168.263 -3.59777 5.04936 0
M  V30 1789 C 170.318 -3.30577 3.72321 0
M  V30 1790 C 169.021 -3.57455 6.24194 0
M  V30 1791 C 171.047 -3.29562 4.91063 0
M  V30 1792 C 170.409 -3.42691 6.15421 0
M  V30 1793 H 166.508 -0.694812 0.358832 0
M  V30 1794 H 169.092 -1.36246 1.39087 0
M  V30 1795 H 167.263 -3.80602 0.774361 0
M  V30 1796 H 168.995 -3.92346 0.99229 0
M  V30 1797 H 165.75 -3.6685 2.9953 0
M  V30 1798 H 166.174 -3.78387 5.61384 0
M  V30 1799 H 170.816 -3.19332 2.77105 0
M  V30 1800 H 168.534 -3.67475 7.19714 0
M  V30 1801 H 172.12 -3.17905 4.87266 0
M  V30 1802 H 171 -3.41862 7.05762 0
M  V30 1803 N 168.503 -0.877838 -1.30888 0
M  V30 1804 C 169.436 -0.283995 -2.26426 0
M  V30 1805 C 170.414 0.591361 -1.51465 0
M  V30 1806 O 171.598 0.54304 -1.80509 0
M  V30 1807 C 168.725 0.597129 -3.33395 0
M  V30 1808 C 167.771 -0.207937 -4.25993 0
M  V30 1809 S 168.604 -1.59158 -5.11301 0
M  V30 1810 C 169.76 -0.716791 -6.21782 0
M  V30 1811 H 169.993 -1.09383 -2.76446 0
M  V30 1812 H 167.526 -0.676828 -1.38775 0
M  V30 1813 H 169.484 1.09978 -3.95493 0
M  V30 1814 H 168.145 1.38099 -2.82113 0
M  V30 1815 H 167.338 0.464163 -5.01858 0
M  V30 1816 H 166.94 -0.642963 -3.68432 0
M  V30 1817 H 169.232 0.0692833 -6.77465 0
M  V30 1818 H 170.175 -1.44682 -6.93161 0
M  V30 1819 H 170.583 -0.280855 -5.63801 0
M  V30 1820 N 169.982 1.44106 -0.638065 0
M  V30 1821 C 171.229 2.01978 -0.14533 0
M  V30 1822 C 171.557 1.50234 1.23532 0
M  V30 1823 O 170.812 0.679548 1.83523 0
M  V30 1824 C 171.111 3.5729 -0.0887327 0
M  V30 1825 C 170.777 4.28317 -1.40909 0
M  V30 1826 C 169.439 4.47437 -1.77069 0
M  V30 1827 C 171.791 4.6867 -2.28031 0
M  V30 1828 C 169.119 5.04171 -3.00047 0
M  V30 1829 C 171.471 5.26766 -3.50286 0
M  V30 1830 C 170.135 5.44104 -3.86661 0
M  V30 1831 H 169.405 0.739089 -0.0531801 0
M  V30 1832 H 172.052 1.72781 -0.825761 0
M  V30 1833 H 170.357 3.8594 0.675095 0
M  V30 1834 H 172.054 3.99807 0.309145 0
M  V30 1835 H 168.644 4.1377 -1.1177 0
M  V30 1836 H 172.828 4.53604 -2.01388 0
M  V30 1837 H 168.084 5.15782 -3.28298 0
M  V30 1838 H 172.258 5.56983 -4.18023 0
M  V30 1839 H 169.885 5.87832 -4.82034 0
M  V30 1840 N 171.46 0.379036 1.52974 0
M  V30 1841 C 172.876 0.0285448 1.59574 0
M  V30 1842 C 173.076 -1.45542 1.39355 0
M  V30 1843 O 172.132 -2.2187 1.20541 0
M  V30 1844 C 173.445 0.496535 2.96572 0
M  V30 1845 C 174.993 0.451909 3.0972 0
M  V30 1846 C 175.468 0.895924 4.49152 0
M  V30 1847 N 176.959 0.851522 4.55306 0
M  V30 1848 C 177.694 1.16661 5.61407 0
M  V30 1849 N 177.19 1.55166 6.752 0
M  V30 1850 N 178.983 1.08853 5.51459 0
M  V30 1851 H 171.134 1.34525 1.64367 0
M  V30 1852 H 173.397 0.550733 0.771619 0
M  V30 1853 H 173.103 1.53258 3.16552 0
M  V30 1854 H 172.977 -0.109802 3.7704 0
M  V30 1855 H 175.364 -0.575029 2.89443 0
M  V30 1856 H 175.445 1.09392 2.3123 0
M  V30 1857 H 175.089 1.92104 4.70168 0
M  V30 1858 H 175.019 0.23103 5.26093 0
M  V30 1859 H 177.51 0.568038 3.73606 0
M  V30 1860 H 177.823 1.776 7.52116 0
M  V30 1861 H 176.168 1.59044 6.76557 0
M  V30 1862 H 179.359 0.786803 4.6144 0
M  V30 1863 H 179.532 1.33742 6.34048 0
M  V30 1864 N 172.938 -1.57226 0.108567 0
M  V30 1865 C 174.184 -1.95121 -0.552761 0
M  V30 1866 C 174.517 -0.991345 -1.66991 0
M  V30 1867 O 173.792 -0.0267211 -1.94482 0
M  V30 1868 C 174.075 -3.43039 -1.09528 0
M  V30 1869 C 173.928 -4.49797 0.0177332 0
M  V30 1870 C 175.247 -3.92567 -1.98945 0
M  V30 1871 H 172.366 -0.709496 -0.199461 0
M  V30 1872 H 175.008 -1.89126 0.182011 0
M  V30 1873 H 173.158 -3.48279 -1.72146 0
M  V30 1874 H 174.83 -4.56661 0.652584 0
M  V30 1875 H 173.073 -4.284 0.682309 0
M  V30 1876 H 173.744 -5.50528 -0.402919 0
M  V30 1877 H 176.22 -3.89565 -1.46214 0
M  V30 1878 H 175.096 -4.96605 -2.33827 0
M  V30 1879 H 175.357 -3.32648 -2.91201 0
M  V30 1880 N 174.416 0.165178 -1.56732 0
M  V30 1881 C 175.663 0.880807 -1.8234 0
M  V30 1882 C 175.991 1.81977 -0.686621 0
M  V30 1883 O 175.246 1.92971 0.325697 0
M  V30 1884 C 175.545 1.70405 -3.1416 0
M  V30 1885 C 175.211 0.913475 -4.4155 0
M  V30 1886 C 173.873 0.695303 -4.7615 0
M  V30 1887 C 176.225 0.359349 -5.1996 0
M  V30 1888 C 173.553 -0.0879947 -5.86634 0
M  V30 1889 C 175.905 -0.410893 -6.31264 0
M  V30 1890 C 174.569 -0.639808 -6.64427 0
M  V30 1891 H 173.839 0.32231 -0.667231 0
M  V30 1892 H 176.486 0.145402 -1.90947 0
M  V30 1893 H 174.791 2.50903 -3.00923 0
M  V30 1894 H 176.488 2.26091 -3.31186 0
M  V30 1895 H 173.078 1.09357 -4.14414 0
M  V30 1896 H 177.262 0.515228 -4.93618 0
M  V30 1897 H 172.518 -0.27503 -6.10781 0
M  V30 1898 H 176.692 -0.847494 -6.91224 0
M  V30 1899 H 174.319 -1.24864 -7.49875 0
M  V30 1900 N 175.894 1.51508 0.433938 0
M  V30 1901 C 177.142 1.6402 1.18075 0
M  V30 1902 C 177.463 0.360328 1.91642 0
M  V30 1903 O 176.733 -0.623945 1.85698 0
M  V30 1904 H 175.313 0.6045 0.43885 0
M  V30 1905 H 177.975 1.88452 0.497178 0
M  V30 1906 H 177.071 2.46949 1.90847 0
M  V30 1907 N 177.372 -0.689602 1.41712 0
M  V30 1908 C 178.322 -1.79571 1.40493 0
M  V30 1909 C 179.306 -1.58473 0.278409 0
M  V30 1910 O 180.498 -1.69204 0.519532 0
M  V30 1911 C 177.627 -3.17923 1.29536 0
M  V30 1912 C 176.713 -3.44695 2.47075 0
M  V30 1913 N 177.104 -3.42132 3.72531 0
M  V30 1914 C 175.402 -3.75269 2.41017 0
M  V30 1915 C 176.103 -3.67976 4.50521 0
M  V30 1916 N 175.079 -3.88014 3.80718 0
M  V30 1917 H 178.881 -1.75961 2.35404 0
M  V30 1918 H 176.395 -0.889839 1.35851 0
M  V30 1919 H 178.392 -3.97167 1.26745 0
M  V30 1920 H 177.052 -3.22741 0.356153 0
M  V30 1921 H 178.063 -3.22375 4.05333 0
M  V30 1922 H 174.74 -3.87421 1.55599 0
M  V30 1923 H 176.13 -3.7208 5.59469 0
M  V30 1924 N 178.85 -1.27639 -0.924453 0
M  V30 1925 C 180.266 -1.05113 -1.20097 0
M  V30 1926 C 180.466 0.213262 -2.00368 0
M  V30 1927 O 179.522 0.91787 -2.35226 0
M  V30 1928 C 180.835 -2.29244 -1.94596 0
M  V30 1929 C 182.383 -2.34315 -2.07522 0
M  V30 1930 C 182.858 -3.58183 -2.85427 0
M  V30 1931 N 184.349 -3.5876 -2.92994 0
M  V30 1932 C 185.084 -4.51277 -3.53746 0
M  V30 1933 N 184.58 -5.54102 -4.15863 0
M  V30 1934 N 186.373 -4.38894 -3.51181 0
M  V30 1935 H 178.524 -2.08821 -0.388264 0
M  V30 1936 H 180.787 -0.918568 -0.234385 0
M  V30 1937 H 180.493 -3.21301 -1.43034 0
M  V30 1938 H 180.367 -2.34816 -2.95197 0
M  V30 1939 H 182.754 -1.42762 -2.58269 0
M  V30 1940 H 182.835 -2.32744 -1.06131 0
M  V30 1941 H 182.479 -4.50074 -2.35363 0
M  V30 1942 H 182.409 -3.57006 -3.8711 0
M  V30 1943 H 184.9 -2.84398 -2.4885 0
M  V30 1944 H 185.213 -6.20859 -4.60168 0
M  V30 1945 H 183.558 -5.57941 -4.144 0
M  V30 1946 H 186.749 -3.57772 -3.01856 0
M  V30 1947 H 186.922 -5.11186 -3.98237 0
M  V30 1948 N 180.328 1.1314 -1.09713 0
M  V30 1949 C 181.556 1.88321 -0.856898 0
M  V30 1950 C 181.971 1.79276 0.592073 0
M  V30 1951 O 181.328 1.16142 1.40774 0
M  V30 1952 C 181.379 3.37812 -1.28706 0
M  V30 1953 O 181.1 3.46627 -2.67921 0
M  V30 1954 C 182.601 4.29952 -1.07964 0
M  V30 1955 H 179.821 0.596094 -0.308079 0
M  V30 1956 H 182.365 1.43205 -1.45988 0
M  V30 1957 H 180.52 3.805 -0.727912 0
M  V30 1958 H 180.934 4.39579 -2.8613 0
M  V30 1959 H 182.408 5.33159 -1.42986 0
M  V30 1960 H 182.885 4.39196 -0.0176577 0
M  V30 1961 H 183.491 3.93036 -1.62489 0
M  V30 1962 N 181.806 0.884767 1.30421 0
M  V30 1963 C 183.052 0.503851 1.96441 0
M  V30 1964 C 183.385 -0.944518 1.69684 0
M  V30 1965 O 182.66 -1.66737 1.00145 0
M  V30 1966 C 182.943 0.779085 3.51571 0
M  V30 1967 C 182.796 2.27807 3.87846 0
M  V30 1968 C 184.115 0.255452 4.39358 0
M  V30 1969 H 181.234 0.184533 0.713524 0
M  V30 1970 H 183.876 1.10872 1.54297 0
M  V30 1971 H 182.026 0.264274 3.876 0
M  V30 1972 H 183.698 2.86127 3.61841 0
M  V30 1973 H 181.941 2.74479 3.35922 0
M  V30 1974 H 182.612 2.42125 4.96064 0
M  V30 1975 H 185.088 0.696079 4.10236 0
M  V30 1976 H 183.964 0.477361 5.4682 0
M  V30 1977 H 184.225 -0.843293 4.33983 0
M  V30 1978 N 183.284 -1.43765 0.645699 0
M  V30 1979 C 184.509 -2.06767 0.161883 0
M  V30 1980 C 184.934 -1.48034 -1.16049 0
M  V30 1981 O 184.292 -0.587369 -1.71522 0
M  V30 1982 C 184.34 -3.60519 0.0762003 0
M  V30 1983 O 183.444 -4.00982 -0.963721 0
M  V30 1984 H 182.785 -0.657675 0.091429 0
M  V30 1985 H 185.315 -1.84397 0.886499 0
M  V30 1986 H 185.325 -4.07853 -0.109604 0
M  V30 1987 H 184 -4.02646 1.04157 0
M  V30 1988 H 182.577 -3.65253 -0.751312 0
M  V30 1989 N 184.763 -0.387143 -1.52771 0
M  V30 1990 C 186.009 0.196025 -2.0185 0
M  V30 1991 C 186.342 1.46641 -1.27319 0
M  V30 1992 O 185.617 1.90889 -0.373032 0
M  V30 1993 C 185.9 0.466136 -3.5707 0
M  V30 1994 C 185.753 -0.819385 -4.42274 0
M  V30 1995 C 187.072 1.25768 -4.21747 0
M  V30 1996 H 184.191 0.0697708 -0.73369 0
M  V30 1997 H 186.833 -0.516286 -1.82851 0
M  V30 1998 H 184.983 1.07293 -3.7339 0
M  V30 1999 H 186.655 -1.4563 -4.37709 0
M  V30 2000 H 184.898 -1.43517 -4.09372 0
M  V30 2001 H 185.569 -0.585065 -5.48891 0
M  V30 2002 H 188.045 0.744167 -4.09391 0
M  V30 2003 H 186.921 1.41541 -5.30337 0
M  V30 2004 H 187.182 2.27228 -3.79236 0
M  V30 2005 N 186.241 1.57166 -0.116904 0
M  V30 2006 C 187.171 2.18222 0.830759 0
M  V30 2007 C 188.152 1.12167 1.27877 0
M  V30 2008 O 189.337 1.40394 1.34176 0
M  V30 2009 C 186.467 2.77996 2.08172 0
M  V30 2010 C 185.421 3.89614 1.77157 0
M  V30 2011 C 184.747 4.36187 3.09265 0
M  V30 2012 C 186.047 5.1181 1.04151 0
M  V30 2013 H 187.741 2.97664 0.321992 0
M  V30 2014 H 185.287 1.4318 0.153434 0
M  V30 2015 H 187.24 3.19366 2.74924 0
M  V30 2016 H 185.964 1.9584 2.6137 0
M  V30 2017 H 184.623 3.48816 1.12796 0
M  V30 2018 H 184.271 3.50893 3.60393 0
M  V30 2019 H 183.971 5.11455 2.89288 0
M  V30 2020 H 185.495 4.80207 3.77139 0
M  V30 2021 H 186.909 5.50214 1.61052 0
M  V30 2022 H 185.306 5.92648 0.942762 0
M  V30 2023 H 186.376 4.84892 0.0279022 0
M  V30 2024 N 187.719 -0.156864 1.56817 0
M  V30 2025 C 188.667 -1.21319 1.98455 0
M  V30 2026 C 189.661 -1.45025 0.875444 0
M  V30 2027 O 190.867 -1.45435 1.0606 0
M  V30 2028 H 187.242 -0.408142 0.631605 0
M  V30 2029 H 189.213 -0.835244 2.86472 0
M  V30 2030 C 187.962 -2.54148 2.37285 0
M  V30 2031 H 187.285 -2.36733 3.22176 0
M  V30 2032 H 188.725 -3.26712 2.70251 0
M  V30 2033 C 187.184 -3.13967 1.22173 0
M  V30 2034 O 187.714 -3.98357 0.517149 0
M  V30 2035 N 185.92 -2.7327 0.988536 0
M  V30 2036 H 185.467 -2.04744 1.56326 0
M  V30 2037 H 185.425 -3.13628 0.220209 0
M  V30 2038 N 189.197 -1.51736 -0.425897 0
M  V30 2039 C 190.445 -1.64644 -1.17204 0
M  V30 2040 C 190.766 -0.370486 -1.91448 0
M  V30 2041 O 190.036 0.614088 -1.86026 0
M  V30 2042 H 188.616 -0.606819 -0.435638 0
M  V30 2043 H 191.278 -1.88713 -0.487177 0
M  V30 2044 H 190.374 -2.47958 -1.89534 0
M  V30 2045 N 190.675 0.682077 -1.42076 0
M  V30 2046 C 191.923 1.4393 -1.41876 0
M  V30 2047 C 192.244 1.94971 -0.0335599 0
M  V30 2048 O 191.514 1.72591 0.926773 0
M  V30 2049 H 190.094 0.534085 -0.522267 0
M  V30 2050 H 192.756 0.806427 -1.77434 0
M  V30 2051 H 191.852 2.29588 -2.11414 0
M  V30 2052 N 192.153 1.28127 0.917671 0
M  V30 2053 C 193.4 1.15052 1.66641 0
M  V30 2054 C 193.728 -0.301677 1.92146 0
M  V30 2055 O 192.983 -1.23622 1.51711 0
M  V30 2056 C 193.282 1.89018 3.03327 0
M  V30 2057 C 192.948 3.38832 2.97496 0
M  V30 2058 C 191.61 3.79693 2.95613 0
M  V30 2059 C 193.962 4.34378 2.88036 0
M  V30 2060 C 191.29 5.14447 2.82066 0
M  V30 2061 C 193.642 5.69201 2.7603 0
M  V30 2062 C 192.306 6.09343 2.72502 0
M  V30 2063 H 191.576 0.421006 0.609783 0
M  V30 2064 H 194.223 1.58855 1.06945 0
M  V30 2065 H 192.528 1.37752 3.66785 0
M  V30 2066 H 194.225 1.76321 3.60156 0
M  V30 2067 H 190.815 3.06342 2.99754 0
M  V30 2068 H 194.999 4.03775 2.88581 0
M  V30 2069 H 190.255 5.44681 2.77728 0
M  V30 2070 H 194.429 6.42901 2.67678 0
M  V30 2071 H 192.056 7.13712 2.61762 0
M  V30 2072 N 193.631 -1.12557 1.10312 0
M  V30 2073 C 195.047 -1.36036 0.834649 0
M  V30 2074 C 195.247 -1.93946 -0.546539 0
M  V30 2075 O 194.303 -2.16484 -1.29966 0
M  V30 2076 C 195.616 -2.30312 1.9333 0
M  V30 2077 C 197.164 -2.43906 1.9616 0
M  V30 2078 C 197.639 -3.41496 3.05195 0
M  V30 2079 N 199.13 -3.49053 3.04494 0
M  V30 2080 C 199.865 -4.24471 3.85502 0
M  V30 2081 N 199.361 -5.02966 4.76442 0
M  V30 2082 N 201.154 -4.19864 3.73725 0
M  V30 2083 H 193.305 -0.733246 1.99342 0
M  V30 2084 H 195.568 -0.385234 0.866198 0
M  V30 2085 H 195.274 -1.94933 2.92735 0
M  V30 2086 H 195.148 -3.30421 1.81939 0
M  V30 2087 H 197.535 -2.78567 0.973886 0
M  V30 2088 H 197.616 -1.4369 2.11629 0
M  V30 2089 H 197.26 -3.07565 4.04186 0
M  V30 2090 H 197.19 -4.41539 2.86968 0
M  V30 2091 H 199.681 -2.93053 2.38596 0
M  V30 2092 H 199.994 -5.57846 5.34815 0
M  V30 2093 H 198.339 -5.02167 4.80472 0
M  V30 2094 H 201.53 -3.57623 3.02032 0
M  V30 2095 H 201.703 -4.78386 4.37093 0
M  V30 2096 N 195.109 -0.891671 -1.2995 0
M  V30 2097 C 196.057 -0.353066 -2.29905 0
M  V30 2098 C 197.051 0.543509 -1.60444 0
M  V30 2099 O 198.257 0.4272 -1.74857 0
M  V30 2100 H 194.632 -0.095531 -0.745907 0
M  V30 2101 H 196.603 -1.20961 -2.72784 0
M  V30 2102 C 195.352 0.411475 -3.45257 0
M  V30 2103 H 194.675 -0.269182 -3.98893 0
M  V30 2104 H 196.115 0.753328 -4.17254 0
M  V30 2105 C 194.574 1.6111 -2.9588 0
M  V30 2106 O 195.104 2.71045 -2.96475 0
M  V30 2107 N 193.31 1.45054 -2.51809 0
M  V30 2108 H 192.857 0.556175 -2.51524 0
M  V30 2109 H 192.815 2.25453 -2.1913 0
M  V30 2110 N 196.587 1.43421 -0.653314 0
M  V30 2111 C 197.833 2.02641 -0.175593 0
M  V30 2112 C 198.188 1.5062 1.19713 0
M  V30 2113 O 197.481 0.689697 1.78756 0
M  V30 2114 C 197.675 3.57176 -0.126623 0
M  V30 2115 C 197.504 4.24191 -1.49306 0
M  V30 2116 C 196.274 4.60257 -2.08547 0
M  V30 2117 C 198.472 4.53193 -2.43148 0
M  V30 2118 N 196.454 5.12345 -3.38194 0
M  V30 2119 C 197.825 5.06601 -3.57429 0
M  V30 2120 C 199.88 4.35161 -2.41949 0
M  V30 2121 C 198.583 5.43875 -4.70736 0
M  V30 2122 C 200.609 4.73498 -3.54336 0
M  V30 2123 C 199.971 5.27039 -4.67343 0
M  V30 2124 H 196.07 0.77441 -0.108686 0
M  V30 2125 H 198.654 1.74596 -0.861638 0
M  V30 2126 H 196.825 3.84784 0.528766 0
M  V30 2127 H 198.557 4.03078 0.36198 0
M  V30 2128 H 195.312 4.45302 -1.61255 0
M  V30 2129 H 195.736 5.42842 -4.04538 0
M  V30 2130 H 200.378 3.9304 -1.55818 0
M  V30 2131 H 198.096 5.8494 -5.57558 0
M  V30 2132 H 201.682 4.61241 -3.5461 0
M  V30 2133 H 200.562 5.56153 -5.52868 0
M  V30 2134 N 198.065 0.39524 1.52563 0
M  V30 2135 C 198.995 -0.428384 2.29537 0
M  V30 2136 C 199.976 -1.05831 1.33169 0
M  V30 2137 O 201.161 -1.06995 1.62067 0
M  V30 2138 C 198.291 -1.55274 3.10656 0
M  V30 2139 C 197.245 -1.04855 4.14957 0
M  V30 2140 C 196.571 -2.26543 4.84337 0
M  V30 2141 C 197.871 -0.112324 5.22179 0
M  V30 2142 H 199.565 0.213867 2.98635 0
M  V30 2143 H 197.111 0.104298 1.43622 0
M  V30 2144 H 199.064 -2.1358 3.63265 0
M  V30 2145 H 197.788 -2.22266 2.39302 0
M  V30 2146 H 196.447 -0.487985 3.63338 0
M  V30 2147 H 196.095 -2.92059 4.09525 0
M  V30 2148 H 195.795 -1.93466 5.54837 0
M  V30 2149 H 197.319 -2.85481 5.39753 0
M  V30 2150 H 198.733 -0.603752 5.70112 0
M  V30 2151 H 197.13 0.128968 5.99961 0
M  V30 2152 H 198.2 0.837052 4.77621 0
M  V30 2153 N 199.544 -1.57102 0.125237 0
M  V30 2154 C 200.491 -2.15641 -0.822655 0
M  V30 2155 C 201.461 -1.08313 -1.25927 0
M  V30 2156 O 202.646 -1.36251 -1.33567 0
M  V30 2157 C 199.786 -2.76504 -2.06494 0
M  V30 2158 C 198.899 -3.98158 -1.67612 0
M  V30 2159 C 198.034 -4.47088 -2.86854 0
M  V30 2160 C 197.073 -5.6126 -2.44242 0
M  V30 2161 N 196.21 -6.04905 -3.56419 0
M  V30 2162 H 201.05 -2.96313 -0.316625 0
M  V30 2163 H 198.587 -1.46388 -0.144588 0
M  V30 2164 H 200.545 -3.09925 -2.79289 0
M  V30 2165 H 199.175 -1.98512 -2.54545 0
M  V30 2166 H 198.227 -3.70858 -0.846661 0
M  V30 2167 H 199.539 -4.80934 -1.32301 0
M  V30 2168 H 198.693 -4.82451 -3.67867 0
M  V30 2169 H 197.432 -3.63275 -3.25396 0
M  V30 2170 H 196.437 -5.25495 -1.61663 0
M  V30 2171 H 197.662 -6.46843 -2.0681 0
M  V30 2172 H 195.608 -5.24032 -3.94623 0
M  V30 2173 H 195.525 -6.82552 -3.25051 0
M  V30 2174 H 196.793 -6.44907 -4.37853 0
M  V30 2175 N 201.022 0.148545 -1.56898 0
M  V30 2176 C 201.932 1.20293 -2.01412 0
M  V30 2177 C 202.948 1.47107 -0.929273 0
M  V30 2178 O 204.124 1.58807 -1.23863 0
M  V30 2179 C 201.189 2.51682 -2.38447 0
M  V30 2180 C 200.25 2.32529 -3.60872 0
M  V30 2181 C 199.483 3.57653 -3.96132 0
M  V30 2182 O 199.706 4.63771 -3.32073 0
M  V30 2183 O 198.64 3.50408 -4.89385 0
M  V30 2184 H 202.466 0.855025 -2.91416 0
M  V30 2185 H 200.051 0.357151 -1.45068 0
M  V30 2186 H 201.933 3.29147 -2.63135 0
M  V30 2187 H 200.608 2.86006 -1.51599 0
M  V30 2188 H 199.515 1.53019 -3.41373 0
M  V30 2189 H 200.848 2.03121 -4.48333 0
M  V30 2190 N 202.5 1.5196 0.417844 0
M  V30 2191 C 203.748 1.65263 1.16329 0
M  V30 2192 C 204.069 0.380634 1.91249 0
M  V30 2193 O 203.339 -0.604214 1.86349 0
M  V30 2194 H 201.919 0.60912 0.432414 0
M  V30 2195 H 204.581 1.88969 0.477162 0
M  V30 2196 H 203.677 2.4896 1.88217 0
M  V30 2197 N 203.978 -0.674533 1.42435 0
M  V30 2198 C 204.928 -1.7807 1.4239 0
M  V30 2199 C 205.912 -1.58169 0.295202 0
M  V30 2200 O 207.104 -1.68643 0.537449 0
M  V30 2201 C 204.233 -3.16532 1.32901 0
M  V30 2202 C 203.319 -3.42055 2.50717 0
M  V30 2203 N 203.71 -3.38162 3.76139 0
M  V30 2204 C 202.008 -3.72692 2.44983 0
M  V30 2205 C 202.709 -3.63177 4.54398 0
M  V30 2206 N 201.685 -3.83954 3.84812 0
M  V30 2207 H 205.487 -1.73454 2.37257 0
M  V30 2208 H 203.001 -0.875381 1.36788 0
M  V30 2209 H 204.998 -3.958 1.30951 0
M  V30 2210 H 203.658 -3.22345 0.390363 0
M  V30 2211 H 204.669 -3.18057 4.0873 0
M  V30 2212 H 201.346 -3.85749 1.59699 0
M  V30 2213 H 202.736 -3.66125 5.63384 0
M  V30 2214 N 205.456 -1.28612 -0.910864 0
M  V30 2215 C 206.867 -1.14406 -1.47541 0
M  V30 2216 C 207.218 0.264901 -1.94403 0
M  V30 2217 O 206.343 1.15942 -1.82719 0
M  V30 2218 C 206.938 -2.07073 -2.68153 0
M  V30 2219 C 205.497 -1.96923 -3.20778 0
M  V30 2220 C 204.644 -1.98646 -1.93481 0
M  V30 2221 H 207.595 -1.41259 -0.723291 0
M  V30 2222 H 207.616 -1.63642 -3.43514 0
M  V30 2223 H 207.128 -3.09611 -2.34015 0
M  V30 2224 H 205.229 -0.97433 -3.59635 0
M  V30 2225 H 205.342 -2.84026 -3.85832 0
M  V30 2226 H 203.706 -1.43093 -2.10705 0
M  V30 2227 H 204.489 -3.02868 -1.61634 0
M  V30 2228 N 206.934 1.1197 -1.10907 0
M  V30 2229 C 208.18 1.8386 -0.855773 0
M  V30 2230 C 208.513 1.84134 0.617103 0
M  V30 2231 O 207.788 1.29041 1.45529 0
M  V30 2232 C 208.071 3.31305 -1.411 0
M  V30 2233 C 207.924 3.39456 -2.9511 0
M  V30 2234 C 209.243 4.2721 -1.05736 0
M  V30 2235 H 206.362 0.667545 -0.312334 0
M  V30 2236 H 209.004 1.31331 -1.37303 0
M  V30 2237 H 207.154 3.76169 -0.97105 0
M  V30 2238 H 208.826 3.03191 -3.47668 0
M  V30 2239 H 207.069 2.79849 -3.31462 0
M  V30 2240 H 207.74 4.43209 -3.29044 0
M  V30 2241 H 210.216 3.90497 -1.43706 0
M  V30 2242 H 209.092 5.28775 -1.47269 0
M  V30 2243 H 209.353 4.42088 0.0325958 0
M  V30 2244 N 208.412 0.89855 1.29475 0
M  V30 2245 C 209.64 0.539261 1.99749 0
M  V30 2246 C 210.055 -0.875716 1.67262 0
M  V30 2247 O 209.412 -1.57786 0.917049 0
M  V30 2248 C 209.463 0.72061 3.54245 0
M  V30 2249 O 209.184 2.07989 3.8558 0
M  V30 2250 C 210.685 0.366118 4.41786 0
M  V30 2251 H 207.905 0.207047 0.638258 0
M  V30 2252 H 210.449 1.20758 1.65039 0
M  V30 2253 H 208.604 0.0994862 3.87272 0
M  V30 2254 H 209.018 2.10841 4.80257 0
M  V30 2255 H 210.492 0.543848 5.49314 0
M  V30 2256 H 210.969 -0.696763 4.33638 0
M  V30 2257 H 211.575 0.964135 4.14228 0
M  V30 2258 N 209.89 -1.43072 0.660911 0
M  V30 2259 C 211.115 -2.06584 0.183805 0
M  V30 2260 C 211.54 -1.49257 -1.14472 0
M  V30 2261 O 210.898 -0.605528 -1.70889 0
M  V30 2262 C 210.946 -3.60418 0.114434 0
M  V30 2263 O 210.05 -4.01981 -0.921137 0
M  V30 2264 H 209.391 -0.656669 0.0983994 0
M  V30 2265 H 211.921 -1.83447 0.906006 0
M  V30 2266 H 211.931 -4.07946 -0.0663394 0
M  V30 2267 H 210.606 -4.01519 1.08422 0
M  V30 2268 H 209.183 -3.66029 -0.71253 0
M  V30 2269 N 211.368 -0.403325 -1.52352 0
M  V30 2270 C 212.278 0.432009 -2.30588 0
M  V30 2271 C 213.294 1.05884 -1.38075 0
M  V30 2272 O 214.47 1.06161 -1.71148 0
M  V30 2273 C 211.535 1.53669 -3.10784 0
M  V30 2274 C 210.596 0.933525 -4.19027 0
M  V30 2275 C 209.829 1.98557 -4.9539 0
M  V30 2276 O 210.052 3.20283 -4.71991 0
M  V30 2277 O 208.986 1.59504 -5.80381 0
M  V30 2278 H 212.812 -0.205739 -3.03002 0
M  V30 2279 H 210.397 -0.166675 -1.48467 0
M  V30 2280 H 212.279 2.17814 -3.60742 0
M  V30 2281 H 210.954 2.15915 -2.41169 0
M  V30 2282 H 209.861 0.254954 -3.7323 0
M  V30 2283 H 211.194 0.35508 -4.90918 0
M  V30 2284 N 212.846 1.57033 -0.133567 0
M  V30 2285 C 214.257 1.82593 0.389464 0
M  V30 2286 C 214.608 1.05156 1.6564 0
M  V30 2287 O 213.733 0.292644 2.14412 0
M  V30 2288 C 214.328 3.31204 0.713377 0
M  V30 2289 C 212.887 3.57393 1.18098 0
M  V30 2290 C 212.034 2.76598 0.197126 0
M  V30 2291 H 214.985 1.54598 -0.358481 0
M  V30 2292 H 215.006 3.46627 1.56939 0
M  V30 2293 H 214.518 3.87537 -0.2089 0
M  V30 2294 H 212.619 3.06433 2.11966 0
M  V30 2295 H 212.732 4.65915 1.11624 0
M  V30 2296 H 211.096 2.45257 0.687088 0
M  V30 2297 H 211.879 3.35697 -0.718504 0
M  V30 2298 N 214.325 -0.140222 1.56975 0
M  V30 2299 C 215.55 -0.870414 1.88251 0
M  V30 2300 C 215.975 -1.73637 0.723312 0
M  V30 2301 O 215.333 -1.78329 -0.32689 0
M  V30 2302 C 215.381 -1.69737 3.18154 0
M  V30 2303 O 214.485 -2.80229 3.02565 0
M  V30 2304 H 213.826 -0.242025 0.61832 0
M  V30 2305 H 216.356 -0.128999 2.04193 0
M  V30 2306 H 216.366 -2.09099 3.50345 0
M  V30 2307 H 215.041 -1.06152 4.02125 0
M  V30 2308 H 213.618 -2.44224 2.81796 0
M  V30 2309 N 215.803 -1.52179 -0.40978 0
M  V30 2310 C 217.219 -1.40968 -0.74835 0
M  V30 2311 C 217.419 -0.513657 -1.94843 0
M  V30 2312 O 216.475 0.0208026 -2.52491 0
M  V30 2313 C 217.788 -2.83483 -1.0029 0
M  V30 2314 C 219.336 -2.92821 -1.10565 0
M  V30 2315 C 219.811 -4.36303 -1.39296 0
M  V30 2316 N 221.302 -4.39535 -1.46162 0
M  V30 2317 C 222.037 -5.47614 -1.70018 0
M  V30 2318 N 221.533 -6.65812 -1.91483 0
M  V30 2319 N 223.326 -5.35129 -1.72027 0
M  V30 2320 H 215.477 -2.0897 0.380186 0
M  V30 2321 H 217.74 -0.94185 0.107805 0
M  V30 2322 H 217.446 -3.51168 -0.193461 0
M  V30 2323 H 217.32 -3.24487 -1.92323 0
M  V30 2324 H 219.707 -2.25318 -1.90568 0
M  V30 2325 H 219.788 -2.55276 -0.16369 0
M  V30 2326 H 219.432 -5.04366 -0.598109 0
M  V30 2327 H 219.362 -4.71385 -2.34743 0
M  V30 2328 H 221.853 -3.54332 -1.31367 0
M  V30 2329 H 222.166 -7.43964 -2.09134 0
M  V30 2330 H 220.511 -6.68879 -1.88749 0
M  V30 2331 H 223.702 -4.41764 -1.54796 0
M  V30 2332 H 223.875 -6.19433 -1.9028 0
M  V30 2333 N 217.281 0.66697 -1.42791 0
M  V30 2334 C 218.692 1.2478 -1.38877 0
M  V30 2335 C 219.043 1.96012 -0.0859426 0
M  V30 2336 O 218.168 2.00463 0.815081 0
M  V30 2337 C 218.763 2.26938 -2.51564 0
M  V30 2338 C 217.322 2.80529 -2.50959 0
M  V30 2339 C 216.469 1.54965 -2.29959 0
M  V30 2340 H 219.42 0.459853 -1.51892 0
M  V30 2341 H 219.441 3.08834 -2.22265 0
M  V30 2342 H 218.953 1.75065 -3.46372 0
M  V30 2343 H 217.054 3.36502 -1.59991 0
M  V30 2344 H 217.167 3.29012 -3.48265 0
M  V30 2345 H 215.531 1.81817 -1.78366 0
M  V30 2346 H 216.314 1.05047 -3.26833 0
M  V30 2347 N 218.759 1.29093 0.90403 0
M  V30 2348 C 219.669 1.15727 2.0407 0
M  V30 2349 C 220.685 0.0815308 1.73809 0
M  V30 2350 O 221.861 0.292749 1.99261 0
M  V30 2351 C 218.926 0.830424 3.36608 0
M  V30 2352 C 217.987 1.98955 3.80415 0
M  V30 2353 C 217.22 1.6782 5.06628 0
M  V30 2354 O 217.443 0.597105 5.67266 0
M  V30 2355 O 216.377 2.52486 5.46383 0
M  V30 2356 H 220.203 2.11171 2.18267 0
M  V30 2357 H 217.788 1.08504 1.027 0
M  V30 2358 H 219.67 0.662521 4.16159 0
M  V30 2359 H 218.345 -0.0942678 3.23563 0
M  V30 2360 H 217.252 2.21267 3.01648 0
M  V30 2361 H 218.585 2.89529 3.98037 0
M  V30 2362 N 220.237 -1.11381 1.11499 0
M  V30 2363 C 221.648 -1.6465 0.880191 0
M  V30 2364 C 221.999 -1.87199 -0.587434 0
M  V30 2365 O 221.124 -1.60667 -1.44966 0
M  V30 2366 C 221.719 -2.99105 1.59128 0
M  V30 2367 C 220.278 -3.49279 1.40289 0
M  V30 2368 C 219.425 -2.24077 1.63354 0
M  V30 2369 H 222.376 -0.950123 1.27116 0
M  V30 2370 H 222.397 -3.66107 1.03664 0
M  V30 2371 H 221.909 -2.82661 2.65941 0
M  V30 2372 H 220.01 -3.70887 0.356888 0
M  V30 2373 H 220.123 -4.2803 2.15238 0
M  V30 2374 H 218.487 -2.31733 1.05698 0
M  V30 2375 H 219.27 -2.10175 2.71443 0
M  V30 2376 N 221.715 -0.905404 -1.28997 0
M  V30 2377 C 222.678 -0.392253 -2.25819 0
M  V30 2378 C 223.678 0.476753 -1.5357 0
M  V30 2379 O 224.868 0.280994 -1.71919 0
M  V30 2380 C 222 0.438588 -3.38067 0
M  V30 2381 H 223.193 -1.24743 -2.72725 0
M  V30 2382 H 220.746 -0.684051 -1.40536 0
M  V30 2383 H 221.481 1.31352 -2.96508 0
M  V30 2384 H 221.266 -0.184167 -3.91667 0
M  V30 2385 H 222.756 0.78873 -4.10084 0
M  V30 2386 N 223.193 1.4272 -0.668489 0
M  V30 2387 C 224.439 2.01923 -0.188419 0
M  V30 2388 C 224.772 1.52704 1.19979 0
M  V30 2389 O 224.047 0.726566 1.8042 0
M  V30 2390 C 224.33 3.59451 -0.216085 0
M  V30 2391 C 224.183 4.18864 -1.6393 0
M  V30 2392 C 225.502 4.37903 0.439179 0
M  V30 2393 H 222.621 0.733674 -0.0699412 0
M  V30 2394 H 225.263 1.69822 -0.852076 0
M  V30 2395 H 223.413 3.86929 0.349012 0
M  V30 2396 H 225.085 4.02362 -2.25616 0
M  V30 2397 H 223.328 3.74933 -2.18193 0
M  V30 2398 H 223.999 5.27987 -1.61039 0
M  V30 2399 H 226.475 4.16079 -0.0417878 0
M  V30 2400 H 225.351 5.47519 0.389157 0
M  V30 2401 H 225.612 4.15303 1.51577 0
M  V30 2402 N 224.671 0.411399 1.52136 0
M  V30 2403 C 225.918 -0.163645 2.01838 0
M  V30 2404 C 226.246 -1.4495 1.29691 0
M  V30 2405 O 225.501 -1.91725 0.392431 0
M  V30 2406 C 225.8 -0.455872 3.54481 0
M  V30 2407 C 225.466 0.741055 4.44769 0
M  V30 2408 C 224.128 1.06936 4.69167 0
M  V30 2409 C 226.48 1.54075 4.97906 0
M  V30 2410 C 223.808 2.19851 5.43951 0
M  V30 2411 C 226.16 2.66067 5.73926 0
M  V30 2412 C 224.824 2.99381 5.96596 0
M  V30 2413 H 224.094 -0.0598821 0.738576 0
M  V30 2414 H 226.741 0.553283 1.83333 0
M  V30 2415 H 225.046 -1.2544 3.71177 0
M  V30 2416 H 226.743 -0.913802 3.90449 0
M  V30 2417 H 223.333 0.475192 4.25958 0
M  V30 2418 H 227.517 1.30033 4.78963 0
M  V30 2419 H 222.773 2.46006 5.59724 0
M  V30 2420 H 226.947 3.28419 6.14096 0
M  V30 2421 H 224.574 3.86992 6.54325 0
M  V30 2422 N 226.149 -1.5696 0.141893 0
M  V30 2423 C 227.096 -2.16501 -0.799737 0
M  V30 2424 C 228.066 -1.09643 -1.24771 0
M  V30 2425 O 229.251 -1.3766 -1.32115 0
M  V30 2426 C 226.391 -2.78679 -2.03549 0
M  V30 2427 C 225.504 -3.99914 -1.6338 0
M  V30 2428 C 224.639 -4.50106 -2.82096 0
M  V30 2429 C 223.678 -5.63819 -2.38275 0
M  V30 2430 N 222.815 -6.08651 -3.49983 0
M  V30 2431 H 227.655 -2.96632 -0.285179 0
M  V30 2432 H 225.192 -1.46533 -0.129053 0
M  V30 2433 H 227.15 -3.1287 -2.75986 0
M  V30 2434 H 225.78 -2.012 -2.52425 0
M  V30 2435 H 224.832 -3.71735 -0.807279 0
M  V30 2436 H 226.144 -4.82311 -1.27192 0
M  V30 2437 H 225.298 -4.86325 -3.62729 0
M  V30 2438 H 224.037 -3.66706 -3.21525 0
M  V30 2439 H 223.042 -5.2718 -1.56081 0
M  V30 2440 H 224.267 -6.49 -1.99938 0
M  V30 2441 H 222.213 -5.28188 -3.89042 0
M  V30 2442 H 222.13 -6.85961 -3.17794 0
M  V30 2443 H 223.398 -6.49515 -4.30988 0
M  V30 2444 N 227.627 0.131896 -1.57047 0
M  V30 2445 C 228.59 1.14638 -1.98471 0
M  V30 2446 C 229.59 1.35029 -0.873148 0
M  V30 2447 O 230.78 1.31764 -1.13946 0
M  V30 2448 C 227.912 2.50358 -2.31373 0
M  V30 2449 H 229.105 0.79064 -2.8929 0
M  V30 2450 H 226.658 0.375761 -1.51716 0
M  V30 2451 H 227.393 2.90876 -1.43393 0
M  V30 2452 H 227.178 2.36915 -3.12432 0
M  V30 2453 H 228.668 3.23395 -2.64207 0
M  V30 2454 N 229.106 1.52395 0.401703 0
M  V30 2455 C 230.334 1.70676 1.16949 0
M  V30 2456 C 230.749 0.419503 1.8408 0
M  V30 2457 O 230.106 -0.605061 1.72178 0
M  V30 2458 C 230.157 2.84753 2.22706 0
M  V30 2459 O 229.878 4.08495 1.58314 0
M  V30 2460 C 231.379 3.14608 3.12309 0
M  V30 2461 H 228.599 0.571787 0.351142 0
M  V30 2462 H 231.143 1.98987 0.471652 0
M  V30 2463 H 229.298 2.58941 2.88147 0
M  V30 2464 H 229.712 4.72117 2.28485 0
M  V30 2465 H 231.186 3.97923 3.82572 0
M  V30 2466 H 231.663 2.28464 3.75101 0
M  V30 2467 H 232.269 3.42212 2.52529 0
M  V30 2468 N 230.584 -0.659388 1.43143 0
M  V30 2469 C 231.514 -1.78422 1.50625 0
M  V30 2470 C 232.495 -1.66216 0.361443 0
M  V30 2471 O 233.68 -1.85404 0.577834 0
M  V30 2472 C 230.81 -3.16815 1.42287 0
M  V30 2473 C 229.764 -3.43777 2.54954 0
M  V30 2474 C 229.09 -4.81905 2.31671 0
M  V30 2475 C 230.39 -3.39134 3.97222 0
M  V30 2476 H 232.084 -1.72417 2.44771 0
M  V30 2477 H 229.63 -0.828084 1.17808 0
M  V30 2478 H 231.583 -3.95253 1.46127 0
M  V30 2479 H 230.307 -3.23534 0.446435 0
M  V30 2480 H 228.966 -2.67707 2.50457 0
M  V30 2481 H 228.614 -4.85294 1.32284 0
M  V30 2482 H 228.314 -5.00906 3.07192 0
M  V30 2483 H 229.838 -5.62609 2.37284 0
M  V30 2484 H 231.252 -4.07518 4.03239 0
M  V30 2485 H 229.649 -3.69671 4.72719 0
M  V30 2486 H 230.719 -2.37426 4.22797 0
M  V30 2487 N 232.062 -1.29571 -0.897171 0
M  V30 2488 C 233.339 -1.08365 -1.62839 0
M  V30 2489 C 233.719 0.371331 -2.07808 0
M  V30 2490 O 233.067 1.3606 -1.83576 0
M  V30 2491 C 233.277 -2.0735 -2.80726 0
M  V30 2492 C 234.625 -2.38406 -3.51351 0
M  V30 2493 O 235.649 -2.05564 -2.90898 0
M  V30 2494 O 234.508 -2.9453 -4.60341 0
M  V30 2495 H 231.602 -0.415345 -0.715134 0
M  V30 2496 H 234.148 -1.40952 -0.945018 0
M  V30 2497 H 232.92 -3.05339 -2.44711 0
M  V30 2498 H 232.543 -1.75507 -3.56767 0
M  V30 2499 N 233.54 1.10788 -1.12088 0
M  V30 2500 C 234.956 1.34691 -0.856186 0
M  V30 2501 C 235.156 1.94791 0.515615 0
M  V30 2502 O 234.212 2.18524 1.26505 0
M  V30 2503 C 235.525 2.27208 -1.9697 0
M  V30 2504 C 237.073 2.40755 -2.00016 0
M  V30 2505 C 237.548 3.36598 -3.1059 0
M  V30 2506 N 239.039 3.44164 -3.10008 0
M  V30 2507 C 239.774 4.18284 -3.92206 0
M  V30 2508 N 239.27 4.95322 -4.84384 0
M  V30 2509 N 241.063 4.13865 -3.80357 0
M  V30 2510 H 233.214 0.70144 -2.00483 0
M  V30 2511 H 235.477 0.371405 -0.872217 0
M  V30 2512 H 235.183 1.90251 -2.958 0
M  V30 2513 H 235.057 3.27485 -1.87172 0
M  V30 2514 H 237.444 2.76982 -1.01808 0
M  V30 2515 H 237.525 1.40305 -2.13888 0
M  V30 2516 H 237.169 3.01096 -4.09028 0
M  V30 2517 H 237.099 4.36918 -2.93956 0
M  V30 2518 H 239.59 2.8922 -2.43228 0
M  V30 2519 H 239.903 5.49267 -5.43623 0
M  V30 2520 H 238.248 4.94459 -4.884 0
M  V30 2521 H 241.439 3.52773 -3.07683 0
M  V30 2522 H 241.612 4.71372 -4.44649 0
M  V30 2523 N 235.018 0.912232 1.28515 0
M  V30 2524 C 236.243 0.559774 1.99703 0
M  V30 2525 C 236.668 -0.851393 1.67729 0
M  V30 2526 O 236.026 -1.56875 0.908834 0
M  V30 2527 C 236.074 0.773874 3.52198 0
M  V30 2528 O 235.178 -0.167842 4.12058 0
M  V30 2529 H 234.519 0.21723 0.627461 0
M  V30 2530 H 237.049 1.22725 1.63706 0
M  V30 2531 H 237.059 0.683386 4.02236 0
M  V30 2532 H 235.734 1.80261 3.74805 0
M  V30 2533 H 234.311 -0.0287509 3.72889 0
M  V30 2534 N 236.496 -1.42363 0.676048 0
M  V30 2535 C 237.426 -2.33497 0.0124832 0
M  V30 2536 C 238.407 -1.50748 -0.787981 0
M  V30 2537 O 239.592 -1.79346 -0.744884 0
M  V30 2538 C 236.722 -3.34377 -0.938582 0
M  V30 2539 C 235.676 -4.27289 -0.246622 0
M  V30 2540 C 235.002 -5.18386 -1.31071 0
M  V30 2541 C 236.302 -5.14916 0.875125 0
M  V30 2542 H 237.996 -2.89233 0.773593 0
M  V30 2543 H 235.542 -1.39073 0.37346 0
M  V30 2544 H 237.495 -3.97044 -1.41188 0
M  V30 2545 H 236.219 -2.76947 -1.73113 0
M  V30 2546 H 234.878 -3.66018 0.206456 0
M  V30 2547 H 234.526 -4.57282 -2.09528 0
M  V30 2548 H 234.226 -5.81378 -0.852839 0
M  V30 2549 H 235.75 -5.83929 -1.78492 0
M  V30 2550 H 237.164 -5.71262 0.482983 0
M  V30 2551 H 235.561 -5.86747 1.25887 0
M  V30 2552 H 236.631 -4.53242 1.72335 0
M  V30 2553 N 237.974 -0.419461 -1.51915 0
M  V30 2554 C 238.904 0.391813 -2.30189 0
M  V30 2555 C 239.885 1.03699 -1.34836 0
M  V30 2556 O 241.07 1.04403 -1.63748 0
M  V30 2557 C 238.2 1.50312 -3.13087 0
M  V30 2558 C 237.154 0.9824 -4.16573 0
M  V30 2559 C 236.48 2.18809 -4.8788 0
M  V30 2560 C 237.78 0.0292356 -5.22292 0
M  V30 2561 H 239.474 -0.26135 -2.98257 0
M  V30 2562 H 237.02 -0.127134 -1.43438 0
M  V30 2563 H 238.973 2.07773 -3.66617 0
M  V30 2564 H 237.697 2.18431 -2.42807 0
M  V30 2565 H 236.356 0.430119 -3.64068 0
M  V30 2566 H 236.004 2.85507 -4.14119 0
M  V30 2567 H 235.704 1.84615 -5.57845 0
M  V30 2568 H 237.228 2.76858 -5.44226 0
M  V30 2569 H 238.642 0.512976 -5.71 0
M  V30 2570 H 237.039 -0.2244 -5.9968 0
M  V30 2571 H 238.109 -0.912931 -4.76228 0
M  V30 2572 N 239.452 1.56882 -0.150215 0
M  V30 2573 C 240.399 2.16922 0.788244 0
M  V30 2574 C 241.369 1.10303 1.24187 0
M  V30 2575 O 242.554 1.38359 1.31383 0
M  V30 2576 C 239.694 2.79754 2.02068 0
M  V30 2577 C 238.807 4.00775 1.61257 0
M  V30 2578 C 237.942 4.51595 2.79705 0
M  V30 2579 C 236.981 5.65074 2.35282 0
M  V30 2580 N 236.118 6.10499 3.4675 0
M  V30 2581 H 240.958 2.96779 0.269444 0
M  V30 2582 H 238.495 1.46599 0.12128 0
M  V30 2583 H 240.453 3.14329 2.74323 0
M  V30 2584 H 239.083 2.02536 2.51354 0
M  V30 2585 H 238.135 3.72158 0.787553 0
M  V30 2586 H 239.447 4.82978 1.24633 0
M  V30 2587 H 238.601 4.88242 3.60145 0
M  V30 2588 H 237.34 3.68406 3.19576 0
M  V30 2589 H 236.345 5.28 1.53283 0
M  V30 2590 H 237.57 6.50052 1.96493 0
M  V30 2591 H 235.516 5.30243 3.86236 0
M  V30 2592 H 235.433 6.87637 3.14152 0
M  V30 2593 H 236.701 6.51791 4.27537 0
M  V30 2594 N 240.93 -0.123565 1.57115 0
M  V30 2595 C 242.158 -0.846461 1.88793 0
M  V30 2596 C 242.573 -1.73652 0.740976 0
M  V30 2597 O 241.93 -1.80207 -0.288393 0
M  V30 2598 C 241.981 -1.6837 3.19897 0
M  V30 2599 O 241.702 -0.829477 4.30176 0
M  V30 2600 C 243.203 -2.51214 3.65248 0
M  V30 2601 H 240.423 -0.243573 0.625231 0
M  V30 2602 H 242.967 -0.109324 2.04208 0
M  V30 2603 H 241.122 -2.37364 3.06165 0
M  V30 2604 H 241.536 -1.40651 5.0529 0
M  V30 2605 H 243.01 -3.05497 4.59756 0
M  V30 2606 H 243.487 -3.28359 2.9168 0
M  V30 2607 H 244.093 -1.8747 3.81752 0
M  V30 2608 N 242.408 -1.52605 -0.393616 0
M  V30 2609 C 243.638 -1.71046 -1.15874 0
M  V30 2610 C 244.046 -0.426483 -1.84331 0
M  V30 2611 O 243.389 0.608513 -1.73329 0
M  V30 2612 C 243.451 -2.80118 -2.25332 0
M  V30 2613 C 243.115 -4.21381 -1.76881 0
M  V30 2614 C 244.112 -5.04697 -1.24808 0
M  V30 2615 C 241.797 -4.67683 -1.83244 0
M  V30 2616 C 243.791 -6.32393 -0.797387 0
M  V30 2617 C 241.478 -5.95364 -1.37787 0
M  V30 2618 C 242.476 -6.77549 -0.861208 0
M  V30 2619 O 242.164 -8.02837 -0.413252 0
M  V30 2620 H 241.896 -0.576155 -0.353583 0
M  V30 2621 H 244.45 -2.00018 -0.467123 0
M  V30 2622 H 242.68 -2.46557 -2.97904 0
M  V30 2623 H 244.369 -2.87006 -2.87023 0
M  V30 2624 H 245.135 -4.70111 -1.19252 0
M  V30 2625 H 241.014 -4.03805 -2.22401 0
M  V30 2626 H 244.558 -6.9649 -0.393437 0
M  V30 2627 H 240.455 -6.29455 -1.43026 0
M  V30 2628 H 241.223 -8.16749 -0.53515 0
M  V30 2629 N 243.887 0.651787 -1.4349 0
M  V30 2630 C 244.797 1.79368 -1.5121 0
M  V30 2631 C 245.813 1.69361 -0.399093 0
M  V30 2632 O 246.989 1.90505 -0.653431 0
M  V30 2633 C 244.054 3.15653 -1.43401 0
M  V30 2634 C 243.115 3.37446 -2.65384 0
M  V30 2635 C 242.348 4.67229 -2.57939 0
M  V30 2636 O 242.571 5.46676 -1.62792 0
M  V30 2637 O 241.505 4.90773 -3.48462 0
M  V30 2638 H 245.331 1.7581 -2.47638 0
M  V30 2639 H 242.916 0.810447 -1.25507 0
M  V30 2640 H 244.798 3.96935 -1.41494 0
M  V30 2641 H 243.473 3.19798 -0.501085 0
M  V30 2642 H 242.38 2.55923 -2.72863 0
M  V30 2643 H 243.713 3.38148 -3.57654 0
M  V30 2644 N 245.365 1.30045 0.890287 0
M  V30 2645 C 246.297 1.11786 2.00091 0
M  V30 2646 C 247.31 0.0626307 1.62679 0
M  V30 2647 O 248.499 0.308112 1.75821 0
M  V30 2648 C 245.599 0.681527 3.31977 0
M  V30 2649 C 244.772 1.81735 3.97858 0
M  V30 2650 C 243.831 1.37045 5.08041 0
M  V30 2651 O 242.857 2.07677 5.29961 0
M  V30 2652 N 244.059 0.246525 5.79976 0
M  V30 2653 H 246.824 2.07441 2.16306 0
M  V30 2654 H 244.385 1.2211 1.06305 0
M  V30 2655 H 246.377 0.365675 4.03045 0
M  V30 2656 H 244.947 -0.182828 3.12065 0
M  V30 2657 H 244.167 2.30159 3.20032 0
M  V30 2658 H 245.455 2.57865 4.38615 0
M  V30 2659 H 244.853 -0.34215 5.64664 0
M  V30 2660 H 243.41 -0.00990438 6.51799 0
M  V30 2661 N 246.843 -1.10192 1.12674 0
M  V30 2662 C 248.089 -1.82475 0.884915 0
M  V30 2663 C 248.422 -1.85093 -0.58773 0
M  V30 2664 O 247.697 -1.3134 -1.43457 0
M  V30 2665 C 247.98 -3.29018 1.46353 0
M  V30 2666 C 247.833 -3.34718 3.00473 0
M  V30 2667 C 249.152 -4.25473 1.12519 0
M  V30 2668 H 246.271 -0.662492 0.322915 0
M  V30 2669 H 248.913 -1.2913 1.39375 0
M  V30 2670 H 247.063 -3.74576 1.03077 0
M  V30 2671 H 248.735 -2.97622 3.52447 0
M  V30 2672 H 246.978 -2.74541 3.35872 0
M  V30 2673 H 247.649 -4.37918 3.36053 0
M  V30 2674 H 250.125 -3.88161 1.499 0
M  V30 2675 H 249.001 -5.26365 1.55663 0
M  V30 2676 H 249.262 -4.42084 0.0377407 0
M  V30 2677 N 248.321 -0.919034 -1.28029 0
M  V30 2678 C 249.251 -0.428581 -2.29533 0
M  V30 2679 C 250.232 0.50659 -1.62381 0
M  V30 2680 O 251.417 0.413195 -1.89753 0
M  V30 2681 C 248.547 0.327388 -3.45753 0
M  V30 2682 C 247.501 -0.519137 -4.2484 0
M  V30 2683 C 246.827 0.365486 -5.33449 0
M  V30 2684 C 248.127 -1.77914 -4.91064 0
M  V30 2685 H 249.821 -1.27687 -2.70807 0
M  V30 2686 H 247.367 -0.615428 -1.30186 0
M  V30 2687 H 249.32 0.681378 -4.15855 0
M  V30 2688 H 248.044 1.20963 -3.03374 0
M  V30 2689 H 246.703 -0.855717 -3.56473 0
M  V30 2690 H 246.351 1.24642 -4.87312 0
M  V30 2691 H 246.051 -0.197356 -5.87268 0
M  V30 2692 H 247.575 0.715241 -6.06396 0
M  V30 2693 H 248.989 -1.49374 -5.53498 0
M  V30 2694 H 247.386 -2.2848 -5.54903 0
M  V30 2695 H 248.456 -2.50382 -4.15255 0
M  V30 2696 N 249.799 1.42003 -0.683588 0
M  V30 2697 C 250.709 2.34597 -0.0109075 0
M  V30 2698 C 251.725 1.55576 0.779245 0
M  V30 2699 O 252.901 1.88107 0.719555 0
M  V30 2700 C 249.966 3.34199 0.922588 0
M  V30 2701 C 249.027 4.29115 0.125984 0
M  V30 2702 C 248.26 5.23959 1.01502 0
M  V30 2703 O 248.483 5.23952 2.25456 0
M  V30 2704 O 247.417 6.00053 0.47111 0
M  V30 2705 H 251.243 2.93675 -0.773853 0
M  V30 2706 H 248.828 1.42654 -0.443861 0
M  V30 2707 H 250.71 3.95365 1.45823 0
M  V30 2708 H 249.385 2.77582 1.66523 0
M  V30 2709 H 248.292 3.71335 -0.453969 0
M  V30 2710 H 249.625 4.88798 -0.577736 0
M  V30 2711 N 251.277 0.427512 1.51691 0
M  V30 2712 C 252.225 -0.403359 2.29076 0
M  V30 2713 C 253.219 -1.02962 1.34518 0
M  V30 2714 O 254.425 -0.965715 1.51901 0
M  V30 2715 H 250.8 -0.148879 0.737115 0
M  V30 2716 H 252.771 0.270295 2.97173 0
M  V30 2717 C 251.52 -1.49763 3.13794 0
M  V30 2718 H 250.843 -1.02508 3.86435 0
M  V30 2719 H 252.283 -2.05244 3.71014 0
M  V30 2720 C 250.742 -2.47536 2.28533 0
M  V30 2721 O 251.272 -3.51848 1.93819 0
M  V30 2722 N 249.478 -2.18187 1.91945 0
M  V30 2723 H 249.025 -1.33389 2.20375 0
M  V30 2724 H 248.983 -2.83848 1.35195 0
M  V30 2725 N 252.755 -1.56801 0.158532 0
M  V30 2726 C 253.685 -2.20347 -0.772609 0
M  V30 2727 C 254.666 -1.15518 -1.24859 0
M  V30 2728 O 255.851 -1.43902 -1.30406 0
M  V30 2729 C 252.981 -2.83417 -2.00729 0
M  V30 2730 C 251.935 -3.94174 -1.66765 0
M  V30 2731 C 251.261 -4.44233 -2.97592 0
M  V30 2732 C 252.561 -5.14392 -0.905447 0
M  V30 2733 H 254.255 -2.98413 -0.242959 0
M  V30 2734 H 251.801 -1.43537 -0.115419 0
M  V30 2735 H 253.754 -3.26543 -2.6636 0
M  V30 2736 H 252.478 -2.02701 -2.56086 0
M  V30 2737 H 251.137 -3.51684 -1.03508 0
M  V30 2738 H 250.785 -3.60325 -3.50963 0
M  V30 2739 H 250.485 -5.18945 -2.75626 0
M  V30 2740 H 252.009 -4.90037 -3.64274 0
M  V30 2741 H 253.423 -5.5429 -1.46408 0
M  V30 2742 H 251.82 -5.9494 -0.7853 0
M  V30 2743 H 252.89 -4.84795 0.100668 0
M  V30 2744 N 254.233 0.115231 -1.57178 0
M  V30 2745 C 255.143 1.15994 -2.03918 0
M  V30 2746 C 256.159 1.45103 -0.960268 0
M  V30 2747 O 257.335 1.56144 -1.27204 0
M  V30 2748 C 254.4 2.46568 -2.43732 0
M  V30 2749 C 253.461 2.24822 -3.65723 0
M  V30 2750 C 252.694 3.4917 -4.03629 0
M  V30 2751 O 252.917 4.56623 -3.41835 0
M  V30 2752 O 251.851 3.39949 -4.96708 0
M  V30 2753 H 255.677 0.793019 -2.93164 0
M  V30 2754 H 253.262 0.3263 -1.45793 0
M  V30 2755 H 255.144 3.23492 -2.70057 0
M  V30 2756 H 253.819 2.82726 -1.57631 0
M  V30 2757 H 252.726 1.45744 -3.44542 0
M  V30 2758 H 254.059 1.93566 -4.52541 0
M  V30 2759 N 255.711 1.52812 0.385517 0
M  V30 2760 C 256.936 1.72207 1.15583 0
M  V30 2761 C 257.361 0.441034 1.82857 0
M  V30 2762 O 256.719 -0.603465 1.70962 0
M  V30 2763 C 256.767 2.87476 2.17692 0
M  V30 2764 O 255.871 2.54693 3.24354 0
M  V30 2765 H 255.212 0.572526 0.336319 0
M  V30 2766 H 257.742 1.99618 0.448744 0
M  V30 2767 H 257.752 3.13072 2.6163 0
M  V30 2768 H 256.427 3.80408 1.68115 0
M  V30 2769 H 255.004 2.3985 2.85529 0
M  V30 2770 N 257.189 -0.644168 1.43834 0
M  V30 2771 C 258.136 -1.75671 1.49694 0
M  V30 2772 C 259.106 -1.6246 0.345809 0
M  V30 2773 O 260.291 -1.82573 0.554234 0
M  V30 2774 C 257.431 -3.13867 1.43463 0
M  V30 2775 C 256.544 -3.38147 2.6885 0
M  V30 2776 C 255.679 -4.66241 2.54544 0
M  V30 2777 C 254.718 -4.83657 3.75157 0
M  V30 2778 N 253.855 -6.03016 3.59605 0
M  V30 2779 H 258.695 -1.69998 2.44754 0
M  V30 2780 H 256.232 -0.829458 1.21484 0
M  V30 2781 H 258.19 -3.9377 1.37843 0
M  V30 2782 H 256.82 -3.18588 0.519783 0
M  V30 2783 H 255.872 -2.52276 2.84712 0
M  V30 2784 H 257.184 -3.46899 3.58417 0
M  V30 2785 H 256.338 -5.54285 2.46683 0
M  V30 2786 H 255.077 -4.59826 1.62516 0
M  V30 2787 H 254.082 -3.94046 3.83416 0
M  V30 2788 H 255.307 -4.91896 4.68204 0
M  V30 2789 H 253.253 -5.97715 2.7032 0
M  V30 2790 H 253.17 -6.12766 4.42779 0
M  V30 2791 H 254.438 -6.93657 3.55613 0
M  V30 2792 N 258.668 -1.30515 -0.883378 0
M  V30 2793 C 260.084 -1.08881 -1.16692 0
M  V30 2794 C 260.284 0.149409 -2.00945 0
M  V30 2795 O 259.34 0.84257 -2.38027 0
M  V30 2796 C 260.653 -2.35319 -1.87204 0
M  V30 2797 C 262.201 -2.40799 -1.99962 0
M  V30 2798 C 262.676 -3.67083 -2.73887 0
M  V30 2799 N 264.167 -3.679 -2.81432 0
M  V30 2800 C 264.902 -4.62303 -3.3921 0
M  V30 2801 N 264.398 -5.67052 -3.98025 0
M  V30 2802 N 266.191 -4.49845 -3.3704 0
M  V30 2803 H 258.342 -2.09951 -0.321633 0
M  V30 2804 H 260.605 -0.92556 -0.205043 0
M  V30 2805 H 260.311 -3.25689 -1.3274 0
M  V30 2806 H 260.185 -2.44089 -2.87577 0
M  V30 2807 H 262.572 -1.50907 -2.53597 0
M  V30 2808 H 262.653 -2.36003 -0.98673 0
M  V30 2809 H 262.297 -4.57334 -2.20925 0
M  V30 2810 H 262.227 -3.69141 -3.75556 0
M  V30 2811 H 264.718 -2.92171 -2.39676 0
M  V30 2812 H 265.031 -6.35184 -4.40183 0
M  V30 2813 H 263.376 -5.70842 -3.96439 0
M  V30 2814 H 266.567 -3.67194 -2.90321 0
M  V30 2815 H 266.74 -5.23597 -3.81772 0
M  V30 2816 N 260.146 1.09593 -1.13257 0
M  V30 2817 C 261.393 1.81734 -0.893257 0
M  V30 2818 C 261.721 1.8563 0.580656 0
M  V30 2819 O 260.976 1.31906 1.44566 0
M  V30 2820 C 261.275 3.27802 -1.42411 0
M  V30 2821 C 260.941 3.44041 -2.91456 0
M  V30 2822 C 259.603 3.48181 -3.3215 0
M  V30 2823 C 261.955 3.48719 -3.87356 0
M  V30 2824 C 259.283 3.54575 -4.67433 0
M  V30 2825 C 261.635 3.56648 -5.2248 0
M  V30 2826 C 260.299 3.59055 -5.62704 0
M  V30 2827 H 259.569 0.665011 -0.326866 0
M  V30 2828 H 262.216 1.2912 -1.41422 0
M  V30 2829 H 260.521 3.83042 -0.823795 0
M  V30 2830 H 262.218 3.82149 -1.21503 0
M  V30 2831 H 258.808 3.41502 -2.58987 0
M  V30 2832 H 262.992 3.44763 -3.57004 0
M  V30 2833 H 258.248 3.54725 -4.97976 0
M  V30 2834 H 262.422 3.59212 -5.96607 0
M  V30 2835 H 260.049 3.63763 -6.67518 0
M  V30 2836 N 261.624 0.925811 1.2754 0
M  V30 2837 C 262.556 0.380753 2.26015 0
M  V30 2838 C 263.569 -0.487485 1.5533 0
M  V30 2839 O 264.758 -0.300413 1.75954 0
M  V30 2840 C 261.858 -0.473259 3.35579 0
M  V30 2841 C 261.031 0.375249 4.35787 0
M  V30 2842 C 260.09 -0.415809 5.24555 0
M  V30 2843 O 259.116 0.175834 5.68928 0
M  V30 2844 N 260.318 -1.71607 5.54555 0
M  V30 2845 H 263.083 1.22725 2.73421 0
M  V30 2846 H 260.644 0.793037 1.41147 0
M  V30 2847 H 262.636 -1.00949 3.91907 0
M  V30 2848 H 261.206 -1.2205 2.87789 0
M  V30 2849 H 260.426 1.09279 3.7875 0
M  V30 2850 H 261.714 0.955399 4.99749 0
M  V30 2851 H 261.112 -2.2191 5.20358 0
M  V30 2852 H 259.669 -2.19887 6.1359 0
M  V30 2853 N 263.102 -1.41638 0.69111 0
M  V30 2854 C 264.032 -2.3347 0.037248 0
M  V30 2855 C 265.013 -1.51575 -0.771947 0
M  V30 2856 O 266.198 -1.80126 -0.72582 0
M  V30 2857 C 263.328 -3.35354 -0.903064 0
M  V30 2858 C 262.282 -4.27526 -0.201288 0
M  V30 2859 C 261.608 -5.19747 -1.25565 0
M  V30 2860 C 262.908 -5.13959 0.929689 0
M  V30 2861 H 264.602 -2.88397 0.804227 0
M  V30 2862 H 262.148 -1.38669 0.388189 0
M  V30 2863 H 264.101 -3.98519 -1.36969 0
M  V30 2864 H 262.825 -2.78767 -1.70166 0
M  V30 2865 H 261.484 -3.65779 0.245265 0
M  V30 2866 H 261.132 -4.59479 -2.04666 0
M  V30 2867 H 260.832 -5.8225 -0.791128 0
M  V30 2868 H 262.356 -5.85789 -1.72288 0
M  V30 2869 H 263.77 -5.70718 0.543546 0
M  V30 2870 H 262.167 -5.85379 1.32103 0
M  V30 2871 H 263.237 -4.51389 1.77133 0
M  V30 2872 N 264.58 -0.43555 -1.51462 0
M  V30 2873 C 265.826 0.131709 -2.02372 0
M  V30 2874 C 266.159 1.42516 -1.3192 0
M  V30 2875 O 265.434 1.89606 -0.433573 0
M  V30 2876 C 265.717 0.352301 -3.58373 0
M  V30 2877 C 265.57 -0.959676 -4.39443 0
M  V30 2878 C 266.889 1.12286 -4.25535 0
M  V30 2879 H 264.008 0.0463936 -0.735538 0
M  V30 2880 H 266.65 -0.574197 -1.81116 0
M  V30 2881 H 264.8 0.9536 -3.76615 0
M  V30 2882 H 266.472 -1.59482 -4.32855 0
M  V30 2883 H 264.715 -1.56468 -4.04599 0
M  V30 2884 H 265.386 -0.759394 -5.46752 0
M  V30 2885 H 267.862 0.613545 -4.11552 0
M  V30 2886 H 266.738 1.24598 -5.34571 0
M  V30 2887 H 266.999 2.15048 -3.86273 0
M  V30 2888 N 266.058 1.56714 -0.166846 0
M  V30 2889 C 267.335 1.88412 0.525373 0
M  V30 2890 C 267.715 1.07602 1.81618 0
M  V30 2891 O 267.063 0.168621 2.27877 0
M  V30 2892 C 267.273 3.40363 0.771613 0
M  V30 2893 C 268.621 4.10007 1.1036 0
M  V30 2894 O 269.645 3.45655 0.860304 0
M  V30 2895 O 268.504 5.2369 1.56239 0
M  V30 2896 H 265.598 0.781587 0.270278 0
M  V30 2897 H 268.144 1.68458 -0.204946 0
M  V30 2898 H 266.916 3.91046 -0.141093 0
M  V30 2899 H 266.539 3.65914 1.55541 0
M  V30 2900 N 267.536 -0.106894 1.57237 0
M  V30 2901 C 268.761 -0.830287 1.90055 0
M  V30 2902 C 269.186 -1.72064 0.75998 0
M  V30 2903 O 268.544 -1.78982 -0.288991 0
M  V30 2904 C 268.592 -1.6295 3.21683 0
M  V30 2905 O 267.696 -2.73748 3.08441 0
M  V30 2906 H 267.037 -0.228855 0.623315 0
M  V30 2907 H 269.567 -0.085658 2.04421 0
M  V30 2908 H 269.577 -2.01621 3.54701 0
M  V30 2909 H 268.252 -0.975989 4.04286 0
M  V30 2910 H 266.829 -2.38192 2.86913 0
M  V30 2911 N 269.014 -1.53014 -0.377408 0
M  V30 2912 C 270.43 -1.42523 -0.718281 0
M  V30 2913 C 270.63 -0.55487 -1.9371 0
M  V30 2914 O 269.686 -0.0327593 -2.52479 0
M  V30 2915 C 270.999 -2.85546 -0.942539 0
M  V30 2916 C 272.547 -2.95101 -1.04329 0
M  V30 2917 C 273.022 -4.3916 -1.3001 0
M  V30 2918 N 274.513 -4.42536 -1.36806 0
M  V30 2919 C 275.248 -5.51097 -1.58364 0
M  V30 2920 N 274.744 -6.69724 -1.77317 0
M  V30 2921 N 276.537 -5.38657 -1.60638 0
M  V30 2922 H 268.688 -2.08116 0.424426 0
M  V30 2923 H 270.951 -0.939352 0.127759 0
M  V30 2924 H 270.657 -3.51499 -0.118929 0
M  V30 2925 H 270.531 -3.28493 -1.85397 0
M  V30 2926 H 272.918 -2.29309 -1.85745 0
M  V30 2927 H 272.999 -2.55566 -0.109505 0
M  V30 2928 H 272.643 -5.05521 -0.490991 0
M  V30 2929 H 272.573 -4.76258 -2.24691 0
M  V30 2930 H 275.064 -3.57039 -1.23821 0
M  V30 2931 H 275.377 -7.48233 -1.93306 0
M  V30 2932 H 273.722 -6.72732 -1.74518 0
M  V30 2933 H 276.913 -4.44948 -1.45391 0
M  V30 2934 H 277.086 -6.2333 -1.77098 0
M  V30 2935 N 270.492 0.636531 -1.44174 0
M  V30 2936 C 271.717 1.42847 -1.50364 0
M  V30 2937 C 272.142 1.87665 -0.127867 0
M  V30 2938 O 271.5 1.58408 0.88185 0
M  V30 2939 C 271.548 2.62854 -2.4686 0
M  V30 2940 O 270.652 3.62501 -1.9664 0
M  V30 2941 H 269.993 0.427642 -0.507955 0
M  V30 2942 H 272.523 0.777422 -1.89255 0
M  V30 2943 H 272.533 3.10465 -2.64718 0
M  V30 2944 H 271.208 2.29578 -3.46795 0
M  V30 2945 H 269.785 3.21735 -1.88523 0
M  V30 2946 N 271.97 1.30982 0.876444 0
M  V30 2947 C 272.902 1.13902 1.98894 0
M  V30 2948 C 273.915 0.0798815 1.62604 0
M  V30 2949 O 275.104 0.326743 1.75484 0
M  V30 2950 C 272.204 0.716699 3.31235 0
M  V30 2951 C 271.377 1.85945 3.95908 0
M  V30 2952 C 270.436 1.42426 5.06558 0
M  V30 2953 O 269.462 2.13287 5.27729 0
M  V30 2954 N 270.664 0.308025 5.79682 0
M  V30 2955 H 273.429 2.09724 2.14094 0
M  V30 2956 H 270.99 1.2323 1.05004 0
M  V30 2957 H 272.982 0.408403 4.02634 0
M  V30 2958 H 271.552 -0.149719 3.12241 0
M  V30 2959 H 270.772 2.33541 3.17573 0
M  V30 2960 H 272.06 2.62503 4.35855 0
M  V30 2961 H 271.458 -0.282241 5.64995 0
M  V30 2962 H 270.015 0.0592282 6.51773 0
M  V30 2963 N 273.449 -1.08991 1.13837 0
M  V30 2964 C 274.697 -1.80899 0.901098 0
M  V30 2965 C 275.018 -1.86356 -0.574134 0
M  V30 2966 O 274.288 -1.35235 -1.41733 0
M  V30 2967 H 272.868 -0.669966 0.330386 0
M  V30 2968 H 275.53 -1.318 1.43578 0
M  V30 2969 H 274.626 -2.83929 1.29578 0
M  V30 2970 N 274.927 -0.932562 -1.27047 0
M  V30 2971 C 276.343 -0.633544 -1.46487 0
M  V30 2972 C 276.543 0.815746 -1.84249 0
M  V30 2973 O 275.599 1.59319 -1.95892 0
M  V30 2974 C 276.912 -1.58758 -2.55375 0
M  V30 2975 C 278.46 -1.59634 -2.69232 0
M  V30 2976 C 278.935 -2.53747 -3.81283 0
M  V30 2977 N 280.426 -2.51982 -3.88664 0
M  V30 2978 C 281.161 -3.21491 -4.74796 0
M  V30 2979 N 280.657 -4.00395 -5.65381 0
M  V30 2980 N 282.45 -3.10485 -4.68568 0
M  V30 2981 H 274.601 -1.86946 -1.00821 0
M  V30 2982 H 276.864 -0.802897 -0.504044 0
M  V30 2983 H 276.57 -2.62172 -2.34432 0
M  V30 2984 H 276.444 -1.33301 -3.52861 0
M  V30 2985 H 278.831 -0.569488 -2.89553 0
M  V30 2986 H 278.912 -1.89142 -1.72218 0
M  V30 2987 H 278.556 -3.56545 -3.61715 0
M  V30 2988 H 278.486 -2.21532 -4.77735 0
M  V30 2989 H 280.977 -1.94681 -3.23895 0
M  V30 2990 H 281.29 -4.50406 -6.27976 0
M  V30 2991 H 279.635 -4.04498 -5.65161 0
M  V30 2992 H 282.826 -2.48331 -3.96799 0
M  V30 2993 H 282.999 -3.64925 -5.35475 0
M  V30 2994 N 276.405 1.4127 -0.698611 0
M  V30 2995 C 277.652 2.0118 -0.230865 0
M  V30 2996 C 277.98 1.55338 1.17049 0
M  V30 2997 O 277.235 0.756775 1.80475 0
M  V30 2998 C 277.534 3.56592 -0.240192 0
M  V30 2999 C 277.2 4.21955 -1.58948 0
M  V30 3000 C 275.862 4.39524 -1.95887 0
M  V30 3001 C 278.214 4.58576 -2.47704 0
M  V30 3002 C 275.542 4.90992 -3.2116 0
M  V30 3003 C 277.894 5.11435 -3.72313 0
M  V30 3004 C 276.558 5.27215 -4.0939 0
M  V30 3005 H 275.828 0.736169 -0.0844796 0
M  V30 3006 H 278.475 1.69124 -0.8983 0
M  V30 3007 H 276.78 3.88456 0.510797 0
M  V30 3008 H 278.477 4.00758 0.139296 0
M  V30 3009 H 275.067 4.08657 -1.29219 0
M  V30 3010 H 279.251 4.44654 -2.20445 0
M  V30 3011 H 274.507 5.01393 -3.49878 0
M  V30 3012 H 278.681 5.38752 -4.4127 0
M  V30 3013 H 276.308 5.66859 -5.06533 0
M  V30 3014 N 277.883 0.443576 1.51229 0
M  V30 3015 C 278.813 -0.355142 2.30783 0
M  V30 3016 C 279.794 -1.0154 1.36468 0
M  V30 3017 O 280.979 -1.01785 1.65389 0
M  V30 3018 C 278.109 -1.45312 3.15439 0
M  V30 3019 C 277.063 -0.916002 4.18083 0
M  V30 3020 C 276.389 -2.1102 4.91299 0
M  V30 3021 C 277.689 0.0538602 5.22272 0
M  V30 3022 H 279.383 0.308767 2.97804 0
M  V30 3023 H 276.929 0.149937 1.43217 0
M  V30 3024 H 278.882 -2.01914 3.69876 0
M  V30 3025 H 277.606 -2.14541 2.46252 0
M  V30 3026 H 276.265 -0.372145 3.64706 0
M  V30 3027 H 275.913 -2.78882 4.18609 0
M  V30 3028 H 275.613 -1.75717 5.60712 0
M  V30 3029 H 277.137 -2.68164 5.48562 0
M  V30 3030 H 278.551 -0.422069 5.71744 0
M  V30 3031 H 276.948 0.319776 5.99247 0
M  V30 3032 H 278.018 0.98858 4.74716 0
M  V30 3033 N 279.361 -1.56624 0.175154 0
M  V30 3034 C 280.609 -1.96609 -0.467885 0
M  V30 3035 C 280.93 -1.06238 -1.63519 0
M  V30 3036 O 280.2 -0.129523 -1.95471 0
M  V30 3037 H 278.78 -0.726008 -0.175845 0
M  V30 3038 H 281.442 -1.93195 0.257234 0
M  V30 3039 H 280.538 -3.00989 -0.825342 0
M  V30 3040 N 280.839 0.0985539 -1.57292 0
M  V30 3041 C 282.067 0.816318 -1.90115 0
M  V30 3042 C 282.482 1.72451 -0.768509 0
M  V30 3043 O 281.839 1.80643 0.259687 0
M  V30 3044 C 281.89 1.63259 -3.22535 0
M  V30 3045 O 281.611 0.760934 -4.31441 0
M  V30 3046 C 283.112 2.45372 -3.69199 0
M  V30 3047 H 280.332 0.233595 -0.629027 0
M  V30 3048 H 282.876 0.0768229 -2.04356 0
M  V30 3049 H 281.031 2.32463 -3.09903 0
M  V30 3050 H 281.445 1.32595 -5.07463 0
M  V30 3051 H 282.919 2.98144 -4.64558 0
M  V30 3052 H 283.396 3.23677 -2.96867 0
M  V30 3053 H 284.002 1.81373 -3.84687 0
M  V30 3054 N 282.317 1.53212 0.369288 0
M  V30 3055 C 283.227 1.82342 1.47609 0
M  V30 3056 C 284.243 0.711532 1.58787 0
M  V30 3057 O 285.419 1.0012 1.74751 0
M  V30 3058 C 282.484 2.00393 2.8292 0
M  V30 3059 C 281.545 3.24297 2.81301 0
M  V30 3060 C 280.778 3.41478 4.10157 0
M  V30 3061 O 281.001 2.63033 5.06132 0
M  V30 3062 O 279.935 4.34817 4.16194 0
M  V30 3063 H 283.761 2.76366 1.25918 0
M  V30 3064 H 281.346 1.38547 0.559034 0
M  V30 3065 H 283.228 2.13859 3.63101 0
M  V30 3066 H 281.903 1.09559 3.04596 0
M  V30 3067 H 280.81 3.16257 1.99831 0
M  V30 3068 H 282.143 4.15041 2.64578 0
M  V30 3069 N 283.795 -0.628877 1.44509 0
M  V30 3070 C 285.206 -1.21054 1.42137 0
M  V30 3071 C 285.557 -1.95715 0.137881 0
M  V30 3072 O 284.682 -2.02554 -0.761645 0
M  V30 3073 C 285.277 -2.20189 2.57493 0
M  V30 3074 C 283.836 -2.73777 2.58308 0
M  V30 3075 C 282.983 -1.48813 2.33987 0
M  V30 3076 H 285.934 -0.41942 1.53057 0
M  V30 3077 H 285.955 -3.02833 2.30375 0
M  V30 3078 H 285.467 -1.6582 3.50892 0
M  V30 3079 H 283.568 -3.32142 1.68856 0
M  V30 3080 H 283.681 -3.19662 3.56865 0
M  V30 3081 H 282.045 -1.77024 1.83124 0
M  V30 3082 H 282.828 -0.963442 3.29504 0
M  V30 3083 N 285.273 -1.31445 -0.869486 0
M  V30 3084 C 286.183 -1.21097 -2.0093 0
M  V30 3085 C 287.199 -0.127584 -1.73532 0
M  V30 3086 O 288.375 -0.345477 -1.98415 0
M  V30 3087 C 285.44 -0.919378 -3.34288 0
M  V30 3088 C 284.501 -2.08971 -3.75006 0
M  V30 3089 C 283.734 -1.81194 -5.02001 0
M  V30 3090 O 283.957 -0.747296 -5.65484 0
M  V30 3091 O 282.891 -2.66883 -5.39497 0
M  V30 3092 H 286.717 -2.16883 -2.12592 0
M  V30 3093 H 284.302 -1.11189 -0.997868 0
M  V30 3094 H 286.184 -0.772625 -4.14257 0
M  V30 3095 H 284.859 0.00844772 -3.23699 0
M  V30 3096 H 283.766 -2.29187 -2.95676 0
M  V30 3097 H 285.099 -2.9998 -3.90221 0
M  V30 3098 N 286.751 1.08385 -1.14413 0
M  V30 3099 C 288.162 1.62258 -0.923535 0
M  V30 3100 C 288.513 1.88691 0.537595 0
M  V30 3101 O 287.638 1.64454 1.40655 0
M  V30 3102 C 288.233 2.94781 -1.67002 0
M  V30 3103 C 286.792 3.45437 -1.495 0
M  V30 3104 C 285.939 2.19668 -1.69238 0
M  V30 3105 H 288.89 0.916086 -1.2959 0
M  V30 3106 H 288.911 3.63229 -1.13334 0
M  V30 3107 H 288.423 2.7551 -2.73342 0
M  V30 3108 H 286.524 3.6981 -0.455097 0
M  V30 3109 H 286.637 4.22173 -2.2651 0
M  V30 3110 H 285.001 2.28849 -1.11804 0
M  V30 3111 H 285.784 2.02905 -2.7692 0
M  V30 3112 N 288.23 0.939286 1.26551 0
M  V30 3113 C 289.507 0.5038 1.89001 0
M  V30 3114 C 289.887 -1.01854 1.84903 0
M  V30 3115 O 289.235 -1.87773 1.30206 0
M  V30 3116 C 289.445 1.063 3.32417 0
M  V30 3117 C 290.793 1.13051 4.09273 0
M  V30 3118 O 291.817 1.01345 3.41479 0
M  V30 3119 O 290.676 1.31233 5.30509 0
M  V30 3120 H 287.77 0.163897 0.810597 0
M  V30 3121 H 290.316 1.03173 1.34735 0
M  V30 3122 H 289.088 2.10665 3.29752 0
M  V30 3123 H 288.711 0.517408 3.94219 0
M  V30 3124 N 289.708 -1.40897 0.706093 0
M  V30 3125 C 290.671 -2.29131 0.0562841 0
M  V30 3126 C 291.671 -1.44901 -0.697166 0
M  V30 3127 O 292.861 -1.65926 -0.530484 0
M  V30 3128 C 289.993 -3.27957 -0.93043 0
M  V30 3129 H 291.186 -2.88091 0.833284 0
M  V30 3130 H 288.739 -1.4906 0.470192 0
M  V30 3131 H 289.474 -2.73997 -1.73482 0
M  V30 3132 H 289.259 -3.90124 -0.393166 0
M  V30 3133 H 290.749 -3.94049 -1.38256 0
M  V30 3134 N 291.186 -0.45159 -1.50991 0
M  V30 3135 C 292.432 0.110237 -2.025 0
M  V30 3136 C 292.765 1.41109 -1.33424 0
M  V30 3137 O 292.04 1.89135 -0.453659 0
M  V30 3138 C 292.323 0.314271 -3.58726 0
M  V30 3139 C 292.176 -1.00623 -4.38401 0
M  V30 3140 C 293.495 1.07767 -4.26702 0
M  V30 3141 H 290.614 0.0385897 -0.735989 0
M  V30 3142 H 293.256 -0.593374 -1.80497 0
M  V30 3143 H 291.406 0.913601 -3.77605 0
M  V30 3144 H 293.078 -1.64064 -4.31139 0
M  V30 3145 H 291.321 -1.6075 -4.02917 0
M  V30 3146 H 291.992 -0.817341 -5.45915 0
M  V30 3147 H 294.468 0.56986 -4.12179 0
M  V30 3148 H 293.344 1.18921 -5.35863 0
M  V30 3149 H 293.605 2.10939 -3.88532 0
M  V30 3150 N 292.664 1.56529 -0.183458 0
M  V30 3151 C 293.912 1.96855 0.457452 0
M  V30 3152 C 294.233 1.07104 1.62953 0
M  V30 3153 O 293.503 0.139887 1.954 0
M  V30 3154 H 292.083 0.72693 0.171992 0
M  V30 3155 H 294.745 1.93056 -0.267476 0
M  V30 3156 H 293.841 3.01423 0.809368 0
M  V30 3157 N 294.142 -0.090211 1.57342 0
M  V30 3158 C 295.072 -1.10976 2.05443 0
M  V30 3159 C 296.053 -1.41482 0.944284 0
M  V30 3160 O 297.238 -1.51428 1.21586 0
M  V30 3161 C 294.368 -2.42831 2.48295 0
M  V30 3162 C 293.322 -2.26721 3.63018 0
M  V30 3163 C 292.648 -3.63796 3.91863 0
M  V30 3164 C 293.948 -1.7037 4.93732 0
M  V30 3165 H 295.642 -0.709564 2.9087 0
M  V30 3166 H 293.188 -0.339874 1.39932 0
M  V30 3167 H 295.141 -3.14431 2.80555 0
M  V30 3168 H 293.865 -2.84795 1.59873 0
M  V30 3169 H 292.524 -1.57565 3.31012 0
M  V30 3170 H 292.172 -4.03297 3.00601 0
M  V30 3171 H 291.872 -3.53861 4.69101 0
M  V30 3172 H 293.396 -4.36855 4.26603 0
M  V30 3173 H 294.81 -2.31816 5.24342 0
M  V30 3174 H 293.207 -1.71181 5.75167 0
M  V30 3175 H 294.277 -0.663542 4.80339 0
M  V30 3176 N 295.62 -1.53406 -0.361157 0
M  V30 3177 C 296.897 -1.60411 -1.11927 0
M  V30 3178 C 297.277 -0.414385 -2.06993 0
M  V30 3179 O 296.625 0.594976 -2.20618 0
M  V30 3180 C 296.835 -2.95652 -1.85448 0
M  V30 3181 C 298.183 -3.50386 -2.39823 0
M  V30 3182 O 299.207 -2.97711 -1.95568 0
M  V30 3183 O 298.066 -4.42482 -3.20737 0
M  V30 3184 H 295.16 -0.64811 -0.513695 0
M  V30 3185 H 297.706 -1.65749 -0.364065 0
M  V30 3186 H 296.478 -3.73682 -1.16091 0
M  V30 3187 H 296.101 -2.93825 -2.67866 0
M  V30 3188 N 297.098 0.621204 -1.44841 0
M  V30 3189 C 298.323 1.41244 -1.51871 0
M  V30 3190 C 298.748 1.87519 -0.147764 0
M  V30 3191 O 298.106 1.59334 0.865 0
M  V30 3192 C 298.154 2.60221 -2.49634 0
M  V30 3193 O 297.258 3.60395 -2.00473 0
M  V30 3194 H 296.599 0.42223 -0.512463 0
M  V30 3195 H 299.129 0.757305 -1.90069 0
M  V30 3196 H 299.139 3.0764 -2.67996 0
M  V30 3197 H 297.814 2.25887 -3.4921 0
M  V30 3198 H 296.391 3.19717 -1.91925 0
M  V30 3199 N 298.576 1.31904 0.862503 0
M  V30 3200 C 299.824 1.21776 1.61292 0
M  V30 3201 C 300.145 -0.222413 1.93727 0
M  V30 3202 O 299.415 -1.1451 1.58947 0
M  V30 3203 H 297.995 0.447717 0.597962 0
M  V30 3204 H 300.657 1.65326 1.03215 0
M  V30 3205 H 299.753 1.7948 2.5533 0
M  V30 3206 N 300.054 -1.07777 1.14986 0
M  V30 3207 C 301.004 -2.13082 0.811181 0
M  V30 3208 C 301.988 -1.59619 -0.202597 0
M  V30 3209 O 303.18 -1.77 -0.00398275 0
M  V30 3210 C 300.309 -3.42009 0.297439 0
M  V30 3211 C 299.395 -4.02337 1.34112 0
M  V30 3212 N 299.786 -4.36982 2.54716 0
M  V30 3213 C 298.084 -4.29752 1.19285 0
M  V30 3214 C 298.785 -4.84729 3.21578 0
M  V30 3215 N 297.761 -4.83233 2.48972 0
M  V30 3216 H 301.563 -2.37696 1.72853 0
M  V30 3217 H 299.077 -1.25173 1.03468 0
M  V30 3218 H 301.074 -4.16884 0.0364777 0
M  V30 3219 H 299.734 -3.18841 -0.614022 0
M  V30 3220 H 300.745 -4.27807 2.91894 0
M  V30 3221 H 297.422 -4.16106 0.340926 0
M  V30 3222 H 298.812 -5.20863 4.24442 0
M  V30 3223 N 301.532 -0.945985 -1.26051 0
M  V30 3224 C 302.781 -0.591836 -1.92822 0
M  V30 3225 C 303.094 0.873956 -1.7499 0
M  V30 3226 O 304.3 1.33769 -2.36259 0
M  V30 3227 C 302.756 -1.00776 -3.45503 0
M  V30 3228 C 302.364 -2.4955 -3.7206 0
M  V30 3229 C 304.108 -0.725735 -4.1825 0
M  V30 3230 C 302.015 -2.84988 -5.18205 0
M  V30 3231 H 300.945 -0.217635 -0.721908 0
M  V30 3232 H 303.596 -1.14927 -1.43052 0
M  V30 3233 H 301.978 -0.378812 -3.94184 0
M  V30 3234 H 303.152 -3.1739 -3.34066 0
M  V30 3235 H 301.467 -2.75133 -3.12555 0
M  V30 3236 H 304.064 -0.966771 -5.25887 0
M  V30 3237 H 304.407 0.337639 -4.14929 0
M  V30 3238 H 304.94 -1.31463 -3.7545 0
M  V30 3239 H 301.679 -3.90307 -5.26631 0
M  V30 3240 H 301.199 -2.21813 -5.57278 0
M  V30 3241 H 302.878 -2.73712 -5.86252 0
M  V30 3242 N 303.011 1.40521 -0.713556 0
M  V30 3243 C 304.427 1.54839 -0.386907 0
M  V30 3244 C 304.627 1.68532 1.1045 0
M  V30 3245 O 303.683 1.67377 1.89053 0
M  V30 3246 C 304.996 2.77792 -1.15118 0
M  V30 3247 C 306.544 2.91607 -1.13729 0
M  V30 3248 C 307.019 4.1747 -1.88368 0
M  V30 3249 N 308.51 4.24466 -1.85427 0
M  V30 3250 C 309.245 5.20755 -2.40004 0
M  V30 3251 N 308.741 6.22965 -3.03129 0
M  V30 3252 N 310.534 5.1282 -2.30158 0
M  V30 3253 H 302.685 1.29879 -1.68063 0
M  V30 3254 H 304.948 0.627896 -0.710247 0
M  V30 3255 H 304.654 2.73944 -2.20561 0
M  V30 3256 H 304.528 3.6984 -0.741477 0
M  V30 3257 H 306.915 2.94959 -0.0910608 0
M  V30 3258 H 306.996 2.00682 -1.5862 0
M  V30 3259 H 306.64 4.1488 -2.9298 0
M  V30 3260 H 306.57 5.074 -1.40898 0
M  V30 3261 H 309.061 3.51241 -1.3942 0
M  V30 3262 H 309.374 6.92859 -3.42295 0
M  V30 3263 H 307.719 6.23415 -3.07212 0
M  V30 3264 H 310.91 4.31899 -1.80501 0
M  V30 3265 H 311.083 5.87689 -2.72993 0
M  V30 3266 N 304.489 0.459591 1.5075 0
M  V30 3267 C 305.737 -0.0991532 2.01857 0
M  V30 3268 C 306.058 -1.41247 1.34441 0
M  V30 3269 O 305.328 -1.89775 0.486022 0
M  V30 3270 H 303.908 -0.039633 0.745948 0
M  V30 3271 H 306.57 0.607387 1.85194 0
M  V30 3272 H 305.666 -0.258998 3.11023 0
M  V30 3273 N 305.967 -1.56429 0.191757 0
M  V30 3274 C 306.93 -2.17707 -0.716688 0
M  V30 3275 C 307.93 -1.13061 -1.14341 0
M  V30 3276 O 309.12 -1.38464 -1.05704 0
M  V30 3277 C 306.252 -2.77644 -1.97804 0
M  V30 3278 H 307.445 -2.99342 -0.1829 0
M  V30 3279 H 304.998 -1.56193 -0.0578566 0
M  V30 3280 H 305.733 -1.99799 -2.55443 0
M  V30 3281 H 305.518 -3.54246 -1.68083 0
M  V30 3282 H 307.008 -3.24708 -2.62592 0
M  V30 3283 N 307.445 0.0818655 -1.57387 0
M  V30 3284 C 308.691 0.784074 -1.8703 0
M  V30 3285 C 309.024 1.77729 -0.782689 0
M  V30 3286 O 308.299 1.93384 0.208051 0
M  V30 3287 C 308.582 1.50105 -3.27323 0
M  V30 3288 C 308.435 0.524925 -4.46727 0
M  V30 3289 C 309.754 2.44843 -3.65705 0
M  V30 3290 H 306.873 0.283582 -0.680257 0
M  V30 3291 H 309.515 0.0474352 -1.89941 0
M  V30 3292 H 307.665 2.12897 -3.24972 0
M  V30 3293 H 309.337 -0.0970111 -4.61198 0
M  V30 3294 H 307.58 -0.160606 -4.33503 0
M  V30 3295 H 308.251 1.064 -5.41648 0
M  V30 3296 H 310.727 1.92135 -3.69085 0
M  V30 3297 H 309.603 2.92018 -4.64776 0
M  V30 3298 H 309.864 3.29197 -2.95096 0
M  V30 3299 N 308.923 1.53595 0.353017 0
M  V30 3300 C 309.871 1.81605 1.45335 0
M  V30 3301 C 310.865 0.685923 1.54892 0
M  V30 3302 O 312.071 0.869095 1.57628 0
M  V30 3303 H 308.446 0.575204 0.484401 0
M  V30 3304 H 310.417 2.73679 1.18921 0
M  V30 3305 C 309.166 2.03406 2.81995 0
M  V30 3306 H 308.489 2.89814 2.75405 0
M  V30 3307 H 309.929 2.26975 3.58132 0
M  V30 3308 C 308.388 0.816794 3.26849 0
M  V30 3309 O 308.918 0.0115856 4.01698 0
M  V30 3310 N 307.124 0.636682 2.8354 0
M  V30 3311 H 306.671 1.2931 2.22793 0
M  V30 3312 H 306.629 -0.176336 3.13905 0
M  V30 3313 N 310.401 -0.613514 1.45168 0
M  V30 3314 C 311.334 -1.73809 1.47871 0
M  V30 3315 C 312.312 -1.59097 0.33568 0
M  V30 3316 O 313.496 -1.8074 0.535299 0
M  V30 3317 C 310.623 -3.11574 1.32813 0
M  V30 3318 C 309.669 -3.4489 2.50905 0
M  V30 3319 S 310.502 -3.40393 4.13392 0
M  V30 3320 C 311.658 -4.80749 4.00789 0
M  V30 3321 H 311.891 -1.71252 2.43023 0
M  V30 3322 H 309.424 -0.789658 1.32679 0
M  V30 3323 H 311.382 -3.91065 1.24812 0
M  V30 3324 H 310.043 -3.11652 0.391418 0
M  V30 3325 H 309.236 -4.45183 2.36279 0
M  V30 3326 H 308.838 -2.72901 2.55736 0
M  V30 3327 H 311.13 -5.7041 3.65567 0
M  V30 3328 H 312.073 -5.00431 5.00974 0
M  V30 3329 H 312.481 -4.56151 3.32545 0
M  V30 3330 N 311.879 -1.3236 -0.855495 0
M  V30 3331 C 313.29 -1.2056 -1.42556 0
M  V30 3332 C 313.641 0.182209 -1.95352 0
M  V30 3333 O 312.766 1.08088 -1.87472 0
M  V30 3334 C 313.361 -2.1826 -2.59129 0
M  V30 3335 C 311.92 -2.10351 -3.12137 0
M  V30 3336 C 311.067 -2.06674 -1.84882 0
M  V30 3337 H 314.018 -1.442 -0.662727 0
M  V30 3338 H 314.039 -1.78064 -3.36264 0
M  V30 3339 H 313.551 -3.19257 -2.20673 0
M  V30 3340 H 311.652 -1.12599 -3.55179 0
M  V30 3341 H 311.765 -3.00135 -3.73438 0
M  V30 3342 H 310.129 -1.51901 -2.04446 0
M  V30 3343 H 310.912 -3.09451 -1.48643 0
M  V30 3344 N 313.357 1.07166 -1.15556 0
M  V30 3345 C 314.604 1.79798 -0.931604 0
M  V30 3346 C 314.932 1.8682 0.54115 0
M  V30 3347 O 314.187 1.34942 1.41736 0
M  V30 3348 C 314.486 3.24707 -1.49332 0
M  V30 3349 C 314.152 3.37781 -2.98688 0
M  V30 3350 C 312.814 3.41057 -3.39461 0
M  V30 3351 C 315.166 3.40424 -3.94665 0
M  V30 3352 C 312.494 3.4458 -4.74849 0
M  V30 3353 C 314.846 3.45485 -5.29927 0
M  V30 3354 C 313.51 3.47039 -5.70193 0
M  V30 3355 H 312.78 0.657928 -0.340898 0
M  V30 3356 H 315.427 1.26091 -1.44129 0
M  V30 3357 H 313.732 3.81208 -0.904859 0
M  V30 3358 H 315.429 3.79486 -1.29582 0
M  V30 3359 H 312.019 3.35932 -2.66172 0
M  V30 3360 H 316.203 3.37113 -3.64237 0
M  V30 3361 H 311.459 3.44083 -5.05388 0
M  V30 3362 H 315.633 3.46476 -6.04092 0
M  V30 3363 H 313.26 3.49522 -6.75084 0
M  V30 3364 N 314.835 0.952656 1.25548 0
M  V30 3365 C 315.768 0.415525 2.24385 0
M  V30 3366 C 316.746 -0.502046 1.54655 0
M  V30 3367 O 317.93 -0.436875 1.83368 0
M  V30 3368 C 315.057 -0.401734 3.36309 0
M  V30 3369 C 314.103 0.455949 4.24056 0
M  V30 3370 S 314.936 1.88698 5.01152 0
M  V30 3371 C 316.092 1.07809 6.16545 0
M  V30 3372 H 316.325 1.25315 2.69599 0
M  V30 3373 H 313.858 0.756587 1.34592 0
M  V30 3374 H 315.816 -0.867329 4.01233 0
M  V30 3375 H 314.477 -1.21416 2.89684 0
M  V30 3376 H 313.67 -0.170776 5.03711 0
M  V30 3377 H 313.272 0.856675 3.64056 0
M  V30 3378 H 315.564 0.325816 6.76716 0
M  V30 3379 H 316.507 1.84849 6.83547 0
M  V30 3380 H 316.915 0.60909 5.61204 0
M  V30 3381 N 316.313 -1.40141 0.720998 0
M  V30 3382 C 317.59 -1.94677 0.189757 0
M  V30 3383 C 317.97 -1.65879 -1.30566 0
M  V30 3384 O 317.318 -0.979391 -2.06447 0
M  V30 3385 C 317.528 -3.45279 0.508304 0
M  V30 3386 C 318.876 -4.22209 0.449934 0
M  V30 3387 O 319.9 -3.53413 0.444677 0
M  V30 3388 O 318.759 -5.44788 0.432189 0
M  V30 3389 H 315.853 -0.826459 0.0299026 0
M  V30 3390 H 318.399 -1.49719 0.7989 0
M  V30 3391 H 317.171 -3.59619 1.54239 0
M  V30 3392 H 316.794 -3.97386 -0.130525 0
M  V30 3393 N 317.792 -0.46758 -1.50504 0
M  V30 3394 C 319.039 0.0886219 -2.02306 0
M  V30 3395 C 319.367 1.40037 -1.34981 0
M  V30 3396 O 318.622 1.90136 -0.463318 0
M  V30 3397 C 318.921 0.323995 -3.55928 0
M  V30 3398 C 318.587 -0.905618 -4.41712 0
M  V30 3399 C 317.249 -1.24275 -4.64875 0
M  V30 3400 C 319.601 -1.72448 -4.91845 0
M  V30 3401 C 316.929 -2.39888 -5.35417 0
M  V30 3402 C 319.281 -2.87185 -5.63656 0
M  V30 3403 C 317.945 -3.21317 -5.85074 0
M  V30 3404 H 317.215 0.0324291 -0.74029 0
M  V30 3405 H 319.862 -0.620945 -1.81153 0
M  V30 3406 H 318.167 1.11577 -3.75577 0
M  V30 3407 H 319.864 0.76826 -3.93572 0
M  V30 3408 H 316.454 -0.632956 -4.239 0
M  V30 3409 H 320.638 -1.4772 -4.73806 0
M  V30 3410 H 315.894 -2.66611 -5.50208 0
M  V30 3411 H 320.068 -3.50985 -6.01484 0
M  V30 3412 H 317.695 -4.1101 -6.39511 0
M  V30 3413 N 319.27 1.56325 -0.20005 0
M  V30 3414 C 320.2 2.22318 0.713916 0
M  V30 3415 C 321.181 1.18788 1.21752 0
M  V30 3416 O 322.366 1.47309 1.26545 0
M  V30 3417 C 319.496 2.88639 1.93144 0
M  V30 3418 C 318.45 3.98457 1.56255 0
M  V30 3419 C 317.776 4.51967 2.85709 0
M  V30 3420 C 319.076 5.16612 0.768747 0
M  V30 3421 H 320.77 2.98952 0.163755 0
M  V30 3422 H 318.316 1.43792 0.0773219 0
M  V30 3423 H 320.269 3.33491 2.57608 0
M  V30 3424 H 318.993 2.09419 2.50621 0
M  V30 3425 H 317.652 3.54305 0.941471 0
M  V30 3426 H 317.3 3.69503 3.41287 0
M  V30 3427 H 317 5.26071 2.6177 0
M  V30 3428 H 318.524 4.99523 3.51154 0
M  V30 3429 H 319.938 5.57977 1.3166 0
M  V30 3430 H 318.335 5.96812 0.627286 0
M  V30 3431 H 319.405 4.84358 -0.229168 0
M  V30 3432 N 320.748 -0.0735177 1.57428 0
M  V30 3433 C 321.976 -0.785969 1.9139 0
M  V30 3434 C 322.391 -1.71207 0.795847 0
M  V30 3435 O 321.748 -1.81033 -0.230915 0
M  V30 3436 C 321.799 -1.58107 3.25091 0
M  V30 3437 O 321.52 -0.6922 4.32597 0
M  V30 3438 C 323.021 -2.39467 3.73055 0
M  V30 3439 H 320.241 -0.223558 0.632663 0
M  V30 3440 H 322.785 -0.044302 2.04452 0
M  V30 3441 H 320.94 -2.27503 3.13562 0
M  V30 3442 H 321.354 -1.24504 5.09508 0
M  V30 3443 H 322.828 -2.90716 4.69242 0
M  V30 3444 H 323.305 -3.18913 3.01979 0
M  V30 3445 H 323.911 -1.7523 3.87523 0
M  V30 3446 N 322.226 -1.5378 -0.344866 0
M  V30 3447 C 323.136 -1.84667 -1.4469 0
M  V30 3448 C 324.152 -0.736704 -1.57635 0
M  V30 3449 O 325.328 -1.02888 -1.73136 0
M  V30 3450 C 322.393 -2.04869 -2.79696 0
M  V30 3451 C 321.454 -3.28731 -2.76106 0
M  V30 3452 C 320.687 -3.4796 -4.04673 0
M  V30 3453 O 320.91 -2.71052 -5.01883 0
M  V30 3454 O 319.844 -4.41383 -4.09224 0
M  V30 3455 H 323.67 -2.78334 -1.21506 0
M  V30 3456 H 321.255 -1.39418 -0.536921 0
M  V30 3457 H 323.137 -2.19609 -3.59652 0
M  V30 3458 H 321.812 -1.14391 -3.02814 0
M  V30 3459 H 320.719 -3.19396 -1.94774 0
M  V30 3460 H 322.052 -4.19198 -2.57941 0
M  V30 3461 N 323.704 0.605807 -1.45491 0
M  V30 3462 C 324.981 1.36522 -1.40075 0
M  V30 3463 C 325.361 2.10976 -0.0722744 0
M  V30 3464 O 324.709 2.08007 0.945808 0
M  V30 3465 C 324.919 2.31056 -2.61561 0
M  V30 3466 C 326.267 2.93608 -3.06724 0
M  V30 3467 O 327.291 2.41376 -2.61946 0
M  V30 3468 O 326.15 3.88421 -3.84437 0
M  V30 3469 H 323.244 0.612248 -0.555951 0
M  V30 3470 H 325.79 0.628747 -1.57623 0
M  V30 3471 H 324.562 1.75311 -3.49831 0
M  V30 3472 H 324.185 3.12081 -2.46356 0
M  V30 3473 N 325.182 1.32811 0.848464 0
M  V30 3474 C 326.43 1.23479 1.59991 0
M  V30 3475 C 326.751 -0.201853 1.93952 0
M  V30 3476 O 326.021 -1.12818 1.60153 0
M  V30 3477 H 324.601 0.454034 0.593179 0
M  V30 3478 H 327.263 1.66412 1.01455 0
M  V30 3479 H 326.359 1.82178 2.53412 0
M  V30 3480 N 326.66 -1.06551 1.16123 0
M  V30 3481 C 327.907 -1.79302 0.941126 0
M  V30 3482 C 328.235 -1.87105 -0.531235 0
M  V30 3483 O 327.49 -1.35692 -1.41018 0
M  V30 3484 C 327.789 -3.23911 1.51052 0
M  V30 3485 C 327.455 -3.36193 3.00475 0
M  V30 3486 C 326.117 -3.39252 3.41265 0
M  V30 3487 C 328.469 -3.38326 3.96465 0
M  V30 3488 C 325.797 -3.42057 4.76669 0
M  V30 3489 C 328.149 -3.4267 5.31752 0
M  V30 3490 C 326.813 -3.4401 5.72026 0
M  V30 3491 H 326.083 -0.656111 0.344382 0
M  V30 3492 H 328.73 -1.25325 1.44796 0
M  V30 3493 H 327.035 -3.80723 0.925063 0
M  V30 3494 H 328.732 -3.78793 1.31593 0
M  V30 3495 H 325.322 -3.34516 2.6795 0
M  V30 3496 H 329.506 -3.35176 3.6602 0
M  V30 3497 H 324.762 -3.41398 5.07206 0
M  V30 3498 H 328.936 -3.43268 6.05921 0
M  V30 3499 H 326.563 -3.45937 6.76928 0
M  V30 3500 N 328.138 -0.959301 -1.25041 0
M  V30 3501 C 329.048 -0.489994 -2.29426 0
M  V30 3502 C 330.064 0.444944 -1.68215 0
M  V30 3503 O 331.24 0.320046 -1.98841 0
M  V30 3504 C 328.305 0.220309 -3.45999 0
M  V30 3505 C 327.366 -0.753418 -4.22637 0
M  V30 3506 C 326.599 -0.076918 -5.33645 0
M  V30 3507 O 326.822 1.13649 -5.58963 0
M  V30 3508 O 325.756 -0.764824 -5.97021 0
M  V30 3509 H 329.582 -1.35755 -2.71669 0
M  V30 3510 H 327.167 -0.725961 -1.30576 0
M  V30 3511 H 329.049 0.619677 -4.16819 0
M  V30 3512 H 327.724 1.06296 -3.0575 0
M  V30 3513 H 326.631 -1.20308 -3.54227 0
M  V30 3514 H 327.964 -1.56423 -4.66683 0
M  V30 3515 N 329.616 1.39756 -0.72842 0
M  V30 3516 C 330.563 2.30647 -0.0841519 0
M  V30 3517 C 331.533 1.48869 0.7367 0
M  V30 3518 O 332.718 1.77574 0.698015 0
M  V30 3519 C 329.858 3.35165 0.822091 0
M  V30 3520 C 328.971 4.31999 -0.0106663 0
M  V30 3521 C 328.106 5.23585 0.896241 0
M  V30 3522 C 327.145 6.12072 0.0583381 0
M  V30 3523 N 326.282 6.96035 0.920818 0
M  V30 3524 H 331.122 2.85173 -0.864891 0
M  V30 3525 H 328.659 1.40422 -0.438179 0
M  V30 3526 H 330.617 3.94345 1.36189 0
M  V30 3527 H 329.247 2.8211 1.56888 0
M  V30 3528 H 328.299 3.74492 -0.66781 0
M  V30 3529 H 329.611 4.9443 -0.658825 0
M  V30 3530 H 328.765 5.87759 1.50412 0
M  V30 3531 H 327.504 4.61459 1.57819 0
M  V30 3532 H 326.509 5.46916 -0.562389 0
M  V30 3533 H 327.734 6.76261 -0.6203 0
M  V30 3534 H 325.68 6.36485 1.58818 0
M  V30 3535 H 325.597 7.55284 0.32899 0
M  V30 3536 H 326.865 7.64646 1.51447 0
M  V30 3537 N 331.094 0.475555 1.50254 0
M  V30 3538 C 332.342 -0.077738 2.0195 0
M  V30 3539 C 332.663 -1.39813 1.35931 0
M  V30 3540 O 331.933 -1.89249 0.506123 0
M  V30 3541 H 330.513 -0.031719 0.746326 0
M  V30 3542 H 333.175 0.626995 1.84539 0
M  V30 3543 H 332.271 -0.225995 3.11281 0
M  V30 3544 N 332.573 -1.56217 0.208337 0
M  V30 3545 C 333.984 -1.84243 -0.301904 0
M  V30 3546 C 334.335 -1.12939 -1.60434 0
M  V30 3547 O 333.46 -0.39461 -2.12772 0
M  V30 3548 C 334.055 -3.34231 -0.554543 0
M  V30 3549 C 332.614 -3.62621 -1.00912 0
M  V30 3550 C 331.761 -2.77224 -0.064933 0
M  V30 3551 H 334.712 -1.52712 0.431833 0
M  V30 3552 H 334.733 -3.5372 -1.40223 0
M  V30 3553 H 334.245 -3.86099 0.393561 0
M  V30 3554 H 332.346 -3.16197 -1.97104 0
M  V30 3555 H 332.459 -4.7071 -0.892674 0
M  V30 3556 H 330.823 -2.48256 -0.56929 0
M  V30 3557 H 331.606 -3.31887 0.877851 0
M  V30 3558 N 334.051 0.0651679 -1.57465 0
M  V30 3559 C 334.961 1.09448 -2.07505 0
M  V30 3560 C 335.977 1.41974 -1.00595 0
M  V30 3561 O 337.153 1.52018 -1.32107 0
M  V30 3562 C 334.218 2.38689 -2.51453 0
M  V30 3563 C 333.279 2.13073 -3.72691 0
M  V30 3564 C 332.512 3.36152 -4.14533 0
M  V30 3565 O 332.735 4.45517 -3.56189 0
M  V30 3566 O 331.669 3.23974 -5.07272 0
M  V30 3567 H 335.495 0.69935 -2.95538 0
M  V30 3568 H 333.08 0.279752 -1.46757 0
M  V30 3569 H 334.962 3.14736 -2.80212 0
M  V30 3570 H 333.637 2.77568 -1.66546 0
M  V30 3571 H 332.544 1.34709 -3.49005 0
M  V30 3572 H 333.877 1.79071 -4.5847 0
M  V30 3573 N 335.529 1.53961 0.336706 0
M  V30 3574 C 336.439 1.85432 1.43708 0
M  V30 3575 C 337.455 0.745053 1.57242 0
M  V30 3576 O 338.631 1.03804 1.72588 0
M  V30 3577 C 335.696 2.06349 2.78605 0
M  V30 3578 C 334.757 3.30191 2.74358 0
M  V30 3579 C 333.99 3.50101 4.02822 0
M  V30 3580 O 334.213 2.7371 5.00439 0
M  V30 3581 O 333.147 4.43547 4.06878 0
M  V30 3582 H 336.973 2.78975 1.20028 0
M  V30 3583 H 334.558 1.39701 0.52952 0
M  V30 3584 H 336.44 2.21513 3.58483 0
M  V30 3585 H 335.115 1.15995 3.02203 0
M  V30 3586 H 334.022 3.20425 1.93078 0
M  V30 3587 H 335.355 4.2056 2.55715 0
M  V30 3588 N 337.007 -0.598083 1.45811 0
M  V30 3589 C 337.937 -1.71873 1.58057 0
M  V30 3590 C 338.918 -1.64533 0.431615 0
M  V30 3591 O 340.103 -1.82787 0.65595 0
M  V30 3592 C 337.233 -3.10495 1.55597 0
M  V30 3593 C 336.187 -3.32654 2.69305 0
M  V30 3594 C 335.513 -4.71646 2.51902 0
M  V30 3595 C 336.813 -3.21981 4.11248 0
M  V30 3596 H 338.507 -1.61881 2.51863 0
M  V30 3597 H 336.053 -0.777372 1.21214 0
M  V30 3598 H 338.006 -3.88699 1.6276 0
M  V30 3599 H 336.73 -3.2135 0.583255 0
M  V30 3600 H 335.389 -2.56843 2.61586 0
M  V30 3601 H 335.037 -4.79246 1.52748 0
M  V30 3602 H 334.737 -4.87426 3.2816 0
M  V30 3603 H 336.261 -5.52038 2.60933 0
M  V30 3604 H 337.675 -3.90049 4.20161 0
M  V30 3605 H 336.072 -3.49289 4.87972 0
M  V30 3606 H 337.142 -2.1928 4.32486 0
M  V30 3607 N 338.485 -1.33259 -0.841409 0
M  V30 3608 C 339.901 -1.12538 -1.13169 0
M  V30 3609 C 340.101 0.0854037 -2.01319 0
M  V30 3610 O 339.157 0.766417 -2.40587 0
M  V30 3611 C 340.47 -2.41156 -1.79623 0
M  V30 3612 C 342.018 -2.47038 -1.922 0
M  V30 3613 C 342.493 -3.7561 -2.6207 0
M  V30 3614 N 343.984 -3.76667 -2.69585 0
M  V30 3615 C 344.719 -4.72861 -3.2433 0
M  V30 3616 N 344.215 -5.79428 -3.79783 0
M  V30 3617 N 346.008 -4.6034 -3.22558 0
M  V30 3618 H 338.159 -2.10868 -0.254676 0
M  V30 3619 H 340.422 -0.931615 -0.175493 0
M  V30 3620 H 340.128 -3.29747 -1.22311 0
M  V30 3621 H 340.002 -2.53114 -2.79666 0
M  V30 3622 H 342.389 -1.58898 -2.48667 0
M  V30 3623 H 342.47 -2.39022 -0.911148 0
M  V30 3624 H 342.114 -4.64131 -2.06263 0
M  V30 3625 H 342.044 -3.80902 -3.63622 0
M  V30 3626 H 344.535 -2.99648 -2.30259 0
M  V30 3627 H 344.848 -6.48867 -4.19752 0
M  V30 3628 H 343.193 -5.83166 -3.78078 0
M  V30 3629 H 346.384 -3.76244 -2.78492 0
M  V30 3630 H 346.557 -5.35478 -3.64921 0
M  V30 3631 N 339.963 1.05934 -1.16686 0
M  V30 3632 C 340.926 2.11669 -0.879144 0
M  V30 3633 C 341.926 1.60294 0.127445 0
M  V30 3634 O 343.116 1.7389 -0.103865 0
M  V30 3635 C 340.248 3.39438 -0.315425 0
M  V30 3636 H 341.441 2.38626 -1.81653 0
M  V30 3637 H 338.994 1.22058 -0.976299 0
M  V30 3638 H 339.729 3.18132 0.629468 0
M  V30 3639 H 339.514 3.78034 -1.04079 0
M  V30 3640 H 341.004 4.17391 -0.132189 0
M  V30 3641 N 341.441 0.965919 1.2453 0
M  V30 3642 C 342.371 0.513476 2.27784 0
M  V30 3643 C 343.352 -0.445974 1.6415 0
M  V30 3644 O 344.537 -0.342485 1.91156 0
M  V30 3645 C 341.667 -0.198839 3.4673 0
M  V30 3646 C 340.621 0.676456 4.2262 0
M  V30 3647 C 339.947 -0.167248 5.34438 0
M  V30 3648 C 341.247 1.96017 4.84123 0
M  V30 3649 H 342.941 1.3765 2.65881 0
M  V30 3650 H 340.487 0.663321 1.27813 0
M  V30 3651 H 342.44 -0.526567 4.18097 0
M  V30 3652 H 341.164 -1.0962 3.07654 0
M  V30 3653 H 339.823 0.98743 3.53052 0
M  V30 3654 H 339.471 -1.0647 4.91603 0
M  V30 3655 H 339.171 0.415181 5.86131 0
M  V30 3656 H 340.695 -0.489688 6.08633 0
M  V30 3657 H 342.109 1.69814 5.47573 0
M  V30 3658 H 340.506 2.48918 5.4604 0
M  V30 3659 H 341.576 2.65622 4.05676 0
M  V30 3660 N 342.919 -1.39368 0.735821 0
M  V30 3661 C 344.166 -2.00497 0.284123 0
M  V30 3662 C 344.494 -1.58387 -1.12889 0
M  V30 3663 O 343.749 -0.804359 -1.78406 0
M  V30 3664 C 344.048 -3.5583 0.334651 0
M  V30 3665 C 343.714 -4.17593 1.7008 0
M  V30 3666 C 342.376 -4.34176 2.07472 0
M  V30 3667 C 344.728 -4.51848 2.59775 0
M  V30 3668 C 342.056 -4.82304 3.34065 0
M  V30 3669 C 344.408 -5.01384 3.85741 0
M  V30 3670 C 343.072 -5.16175 4.23225 0
M  V30 3671 H 342.342 -0.73367 0.103968 0
M  V30 3672 H 344.989 -1.66683 0.942825 0
M  V30 3673 H 343.294 -3.89674 -0.407625 0
M  V30 3674 H 344.991 -4.00986 -0.0329927 0
M  V30 3675 H 341.581 -4.05087 1.40008 0
M  V30 3676 H 345.765 -4.38653 2.32157 0
M  V30 3677 H 341.021 -4.91941 3.63049 0
M  V30 3678 H 345.195 -5.26863 4.55399 0
M  V30 3679 H 342.822 -5.5323 5.21384 0
M  V30 3680 N 344.397 -0.483516 -1.5 0
M  V30 3681 C 345.329 0.340634 -2.26655 0
M  V30 3682 C 346.342 0.946152 -1.32483 0
M  V30 3683 O 347.531 0.832453 -1.579 0
M  V30 3684 C 344.631 1.4929 -3.04246 0
M  V30 3685 C 343.804 0.997903 -4.25865 0
M  V30 3686 C 342.863 2.02569 -4.85646 0
M  V30 3687 O 341.889 1.60128 -5.46212 0
M  V30 3688 N 343.091 3.3548 -4.73744 0
M  V30 3689 H 345.856 -0.316577 -2.98023 0
M  V30 3690 H 343.417 -0.315024 -1.58806 0
M  V30 3691 H 345.409 2.17766 -3.41116 0
M  V30 3692 H 343.979 2.05458 -2.35597 0
M  V30 3693 H 343.199 0.138617 -3.93956 0
M  V30 3694 H 344.487 0.645305 -5.04691 0
M  V30 3695 H 343.885 3.72661 -4.25605 0
M  V30 3696 H 342.442 3.99718 -5.14848 0
M  V30 3697 N 345.875 1.56104 -0.216619 0
M  V30 3698 C 347.103 2.02563 0.421413 0
M  V30 3699 C 347.518 1.0965 1.53695 0
M  V30 3700 O 346.875 0.10521 1.82196 0
M  V30 3701 C 346.926 3.48584 0.957665 0
M  V30 3702 O 346.647 4.37953 -0.113389 0
M  V30 3703 C 348.148 4.10664 1.66943 0
M  V30 3704 H 345.368 0.662944 0.103665 0
M  V30 3705 H 347.912 2.01793 -0.331629 0
M  V30 3706 H 346.067 3.49985 1.661 0
M  V30 3707 H 346.481 5.23704 0.288932 0
M  V30 3708 H 347.955 5.14622 1.99671 0
M  V30 3709 H 348.432 3.55373 2.58083 0
M  V30 3710 H 349.038 4.13098 1.01142 0
M  V30 3711 N 347.353 -0.0568162 1.57498 0
M  V30 3712 C 348.3 -1.06591 2.04712 0
M  V30 3713 C 349.27 -1.3758 0.930644 0
M  V30 3714 O 350.455 -1.48392 1.19935 0
M  V30 3715 C 347.595 -2.3701 2.50839 0
M  V30 3716 C 346.708 -2.12421 3.76167 0
M  V30 3717 C 345.843 -3.36511 4.11015 0
M  V30 3718 C 344.882 -3.07353 5.2934 0
M  V30 3719 N 344.019 -4.23816 5.59754 0
M  V30 3720 H 348.859 -0.65631 2.90683 0
M  V30 3721 H 346.396 -0.312481 1.43743 0
M  V30 3722 H 348.354 -3.13175 2.7564 0
M  V30 3723 H 346.984 -2.75744 1.67825 0
M  V30 3724 H 346.036 -1.2688 3.58616 0
M  V30 3725 H 347.348 -1.86894 4.62463 0
M  V30 3726 H 346.502 -4.21062 4.36797 0
M  V30 3727 H 345.241 -3.65128 3.23315 0
M  V30 3728 H 344.246 -2.212 5.03339 0
M  V30 3729 H 345.471 -2.80043 6.1867 0
M  V30 3730 H 343.417 -4.52436 4.75014 0
M  V30 3731 H 343.334 -4.01614 6.40501 0
M  V30 3732 H 344.602 -5.0932 5.90096 0
M  V30 3733 N 348.832 -1.54138 -0.328536 0
M  V30 3734 C 349.779 -1.83176 -1.40411 0
M  V30 3735 C 350.749 -0.678494 -1.5161 0
M  V30 3736 O 351.934 -0.92443 -1.6691 0
M  V30 3737 C 349.074 -2.06035 -2.76846 0
M  V30 3738 C 348.187 -3.33727 -2.74318 0
M  V30 3739 C 347.322 -3.46574 -4.02567 0
M  V30 3740 C 346.361 -4.68159 -3.94327 0
M  V30 3741 N 345.498 -4.77959 -5.14296 0
M  V30 3742 H 350.338 -2.74938 -1.14948 0
M  V30 3743 H 347.875 -1.36166 -0.556538 0
M  V30 3744 H 349.833 -2.1728 -3.56153 0
M  V30 3745 H 348.463 -1.1757 -3.00628 0
M  V30 3746 H 347.515 -3.31246 -1.8703 0
M  V30 3747 H 348.827 -4.23139 -2.64111 0
M  V30 3748 H 347.981 -3.57333 -4.90304 0
M  V30 3749 H 346.72 -2.55245 -4.15574 0
M  V30 3750 H 345.725 -4.57461 -3.04974 0
M  V30 3751 H 346.95 -5.60868 -3.82889 0
M  V30 3752 H 344.896 -3.89544 -5.27818 0
M  V30 3753 H 344.813 -5.6133 -5.06404 0
M  V30 3754 H 346.081 -4.93044 -6.03761 0
M  V30 3755 N 350.31 0.590341 -1.46126 0
M  V30 3756 C 351.556 1.35082 -1.51264 0
M  V30 3757 C 351.889 1.93534 -0.160711 0
M  V30 3758 O 351.164 1.76045 0.826956 0
M  V30 3759 C 351.447 2.48588 -2.6053 0
M  V30 3760 C 351.3 1.95221 -4.05227 0
M  V30 3761 C 352.619 3.50662 -2.6594 0
M  V30 3762 H 349.738 0.489803 -0.550692 0
M  V30 3763 H 352.38 0.663887 -1.78024 0
M  V30 3764 H 350.53 3.07186 -2.37843 0
M  V30 3765 H 352.202 1.41139 -4.39178 0
M  V30 3766 H 350.445 1.26101 -4.15068 0
M  V30 3767 H 351.116 2.77121 -4.77397 0
M  V30 3768 H 353.592 3.01934 -2.86313 0
M  V30 3769 H 352.468 4.27551 -3.44226 0
M  V30 3770 H 352.729 4.07399 -1.71694 0
M  V30 3771 N 351.788 1.33704 0.83433 0
M  V30 3772 C 353.065 1.16011 1.57483 0
M  V30 3773 C 353.445 -0.27176 2.09343 0
M  V30 3774 O 352.793 -1.27146 1.89858 0
M  V30 3775 C 353.003 2.20507 2.70514 0
M  V30 3776 C 354.351 2.54898 3.39577 0
M  V30 3777 O 355.375 2.19209 2.80759 0
M  V30 3778 O 354.234 3.16158 4.45765 0
M  V30 3779 H 351.328 0.448992 0.694503 0
M  V30 3780 H 353.874 1.453 0.876691 0
M  V30 3781 H 352.646 3.16667 2.29865 0
M  V30 3782 H 352.269 1.92329 3.47987 0
M  V30 3783 N 353.266 -1.05314 1.17247 0
M  V30 3784 C 354.196 -2.1498 0.911362 0
M  V30 3785 C 355.177 -1.69471 -0.146169 0
M  V30 3786 O 356.362 -1.942 0.003812 0
M  V30 3787 C 353.492 -3.4472 0.422528 0
M  V30 3788 C 352.446 -4.03789 1.4191 0
M  V30 3789 C 351.772 -5.28858 0.788274 0
M  V30 3790 C 353.072 -4.41418 2.7919 0
M  V30 3791 H 354.766 -2.3708 1.82848 0
M  V30 3792 H 352.312 -1.13938 0.880569 0
M  V30 3793 H 354.265 -4.20787 0.227289 0
M  V30 3794 H 352.989 -3.22269 -0.530123 0
M  V30 3795 H 351.648 -3.2979 1.60106 0
M  V30 3796 H 351.296 -5.02709 -0.171173 0
M  V30 3797 H 350.996 -5.69338 1.45353 0
M  V30 3798 H 352.52 -6.07612 0.603282 0
M  V30 3799 H 353.934 -5.08524 2.64719 0
M  V30 3800 H 352.331 -4.92913 3.42282 0
M  V30 3801 H 353.401 -3.51819 3.33693 0
M  V30 3802 N 354.744 -0.972509 -1.24016 0
M  V30 3803 C 355.969 -0.654417 -1.96805 0
M  V30 3804 C 356.394 0.770398 -1.716 0
M  V30 3805 O 355.752 1.52361 -0.982647 0
M  V30 3806 C 355.8 -0.941031 -3.48105 0
M  V30 3807 O 354.904 -0.0289472 -4.1239 0
M  V30 3808 H 354.245 -0.24692 -0.616382 0
M  V30 3809 H 356.775 -1.30396 -1.57664 0
M  V30 3810 H 356.785 -0.87452 -3.98517 0
M  V30 3811 H 355.46 -1.97939 -3.65777 0
M  V30 3812 H 354.037 -0.149192 -3.72601 0
M  V30 3813 N 356.222 1.38976 -0.743202 0
M  V30 3814 C 357.154 2.29096 -0.0689228 0
M  V30 3815 C 358.167 1.47229 0.694791 0
M  V30 3816 O 359.356 1.70212 0.537597 0
M  V30 3817 C 356.456 3.25988 0.926548 0
M  V30 3818 C 355.629 4.36833 0.222647 0
M  V30 3819 C 354.688 5.13981 1.12739 0
M  V30 3820 O 353.714 5.6601 0.601795 0
M  V30 3821 N 354.916 5.25966 2.45641 0
M  V30 3822 H 357.681 2.87604 -0.842846 0
M  V30 3823 H 355.242 1.50645 -0.593109 0
M  V30 3824 H 357.234 3.74476 1.5346 0
M  V30 3825 H 355.804 2.68453 1.60162 0
M  V30 3826 H 355.024 3.90116 -0.565983 0
M  V30 3827 H 356.312 5.0811 -0.264841 0
M  V30 3828 H 355.71 4.85228 2.9081 0
M  V30 3829 H 354.267 5.77865 3.01522 0
M  V30 3830 N 357.7 0.491464 1.49741 0
M  V30 3831 C 359.111 0.0413169 1.86654 0
M  V30 3832 C 359.462 -1.36985 1.40462 0
M  V30 3833 O 358.587 -2.01917 0.778354 0
M  V30 3834 C 359.182 0.0682023 3.38731 0
M  V30 3835 C 357.741 -0.32656 3.74981 0
M  V30 3836 C 356.888 0.444888 2.73708 0
M  V30 3837 H 359.839 0.704733 1.42194 0
M  V30 3838 H 359.86 -0.729322 3.73445 0
M  V30 3839 H 359.372 1.09539 3.72321 0
M  V30 3840 H 357.473 -1.35734 3.46997 0
M  V30 3841 H 357.586 -0.013741 4.79098 0
M  V30 3842 H 355.95 -0.104062 2.54487 0
M  V30 3843 H 356.733 1.47197 3.10142 0
M  V30 3844 N 359.178 -1.55987 0.224894 0
M  V30 3845 C 360.108 -2.23426 -0.678457 0
M  V30 3846 C 361.089 -1.20709 -1.19847 0
M  V30 3847 O 362.274 -1.49304 -1.24186 0
M  V30 3848 C 359.404 -2.91676 -1.88527 0
M  V30 3849 C 358.358 -4.00893 -1.49896 0
M  V30 3850 C 357.684 -4.56455 -2.78483 0
M  V30 3851 C 358.984 -5.17769 -0.686461 0
M  V30 3852 H 360.678 -2.99175 -0.116173 0
M  V30 3853 H 358.224 -1.43897 -0.054436 0
M  V30 3854 H 360.177 -3.37547 -2.5227 0
M  V30 3855 H 358.901 -2.1338 -2.47258 0
M  V30 3856 H 357.56 -3.55758 -0.884985 0
M  V30 3857 H 357.208 -3.74886 -3.35365 0
M  V30 3858 H 356.908 -5.30169 -2.53368 0
M  V30 3859 H 358.432 -5.05047 -3.43162 0
M  V30 3860 H 359.846 -5.60001 -1.22767 0
M  V30 3861 H 358.243 -5.97735 -0.532259 0
M  V30 3862 H 359.313 -4.83932 0.306196 0
M  V30 3863 N 360.656 0.0484629 -1.57525 0
M  V30 3864 C 361.905 0.742065 -1.87553 0
M  V30 3865 C 362.218 1.77545 -0.820802 0
M  V30 3866 O 363.424 2.52027 -1.00967 0
M  V30 3867 C 361.88 1.37081 -3.32771 0
M  V30 3868 C 361.488 0.374786 -4.4643 0
M  V30 3869 C 363.232 2.04542 -3.71972 0
M  V30 3870 C 361.139 1.01077 -5.82698 0
M  V30 3871 H 360.069 0.280903 -0.699721 0
M  V30 3872 H 362.72 -0.00411877 -1.835 0
M  V30 3873 H 361.102 2.16605 -3.31509 0
M  V30 3874 H 362.276 -0.392331 -4.59127 0
M  V30 3875 H 360.591 -0.196653 -4.15935 0
M  V30 3876 H 363.188 2.52943 -4.71088 0
M  V30 3877 H 363.531 2.85515 -3.02964 0
M  V30 3878 H 364.064 1.31819 -3.75325 0
M  V30 3879 H 360.803 0.240878 -6.55057 0
M  V30 3880 H 360.323 1.74819 -5.73758 0
M  V30 3881 H 362.002 1.52383 -6.28799 0
M  V30 3882 N 362.134 1.5431 0.320358 0
M  V30 3883 C 363.097 1.83195 1.3774 0
M  V30 3884 C 364.097 0.703906 1.44575 0
M  V30 3885 O 365.287 0.972214 1.44546 0
M  V30 3886 C 362.419 1.99487 2.76438 0
M  V30 3887 H 363.612 2.77642 1.1338 0
M  V30 3888 H 361.165 1.46076 0.556012 0
M  V30 3889 H 361.9 1.07262 3.06048 0
M  V30 3890 H 361.685 2.81575 2.7287 0
M  V30 3891 H 363.175 2.23271 3.52902 0
M  V30 3892 N 363.613 -0.582584 1.46437 0
M  V30 3893 C 364.841 -1.36682 1.55324 0
M  V30 3894 C 365.256 -1.87796 0.194409 0
M  V30 3895 O 364.613 -1.63623 -0.808318 0
M  V30 3896 C 364.664 -2.55426 2.55812 0
M  V30 3897 O 364.385 -2.0643 3.86417 0
M  V30 3898 C 365.886 -3.47976 2.74641 0
M  V30 3899 H 363.106 -0.417545 0.525259 0
M  V30 3900 H 365.65 -0.708219 1.91845 0
M  V30 3901 H 363.805 -3.17275 2.22295 0
M  V30 3902 H 364.219 -2.83762 4.41111 0
M  V30 3903 H 365.693 -4.27775 3.48874 0
M  V30 3904 H 366.17 -3.99919 1.81553 0
M  V30 3905 H 366.776 -2.91962 3.09255 0
M  V30 3906 N 365.091 -1.34144 -0.827227 0
M  V30 3907 C 366.331 -1.27603 -1.59677 0
M  V30 3908 C 366.695 0.153035 -1.91389 0
M  V30 3909 O 367.896 0.342566 -2.66608 0
M  V30 3910 C 366.167 -2.13784 -2.86411 0
M  V30 3911 S 367.726 -2.24552 -3.76991 0
M  V30 3912 H 364.544 -0.453789 -0.547354 0
M  V30 3913 H 367.146 -1.69309 -0.977479 0
M  V30 3914 H 365.85 -3.16627 -2.61104 0
M  V30 3915 H 365.381 -1.72959 -3.5334 0
M  V30 3916 H 367.396 -1.41514 -4.75593 0
M  V30 3917 N 366.569 1.04691 -1.17803 0
M  V30 3918 C 367.985 1.29963 -0.926379 0
M  V30 3919 C 368.185 1.97251 0.411635 0
M  V30 3920 O 367.241 2.24922 1.14744 0
M  V30 3921 C 368.554 2.16447 -2.08737 0
M  V30 3922 C 370.102 2.29814 -2.12496 0
M  V30 3923 C 370.577 3.19661 -3.27995 0
M  V30 3924 N 372.068 3.27247 -3.27816 0
M  V30 3925 C 372.803 3.96906 -4.13827 0
M  V30 3926 N 372.299 4.6895 -5.09959 0
M  V30 3927 N 374.092 3.93122 -4.01761 0
M  V30 3928 H 366.243 0.594182 -2.0392 0
M  V30 3929 H 368.506 0.324649 -0.890678 0
M  V30 3930 H 368.212 1.74304 -3.05469 0
M  V30 3931 H 368.086 3.17103 -2.04268 0
M  V30 3932 H 370.473 2.71196 -1.16347 0
M  V30 3933 H 370.554 1.2877 -2.21025 0
M  V30 3934 H 370.198 2.78991 -4.24413 0
M  V30 3935 H 370.128 4.20722 -3.16703 0
M  V30 3936 H 372.619 2.75921 -2.58217 0
M  V30 3937 H 372.932 5.19679 -5.71974 0
M  V30 3938 H 371.277 4.67875 -5.13924 0
M  V30 3939 H 374.468 3.35967 -3.2595 0
M  V30 3940 H 374.641 4.47139 -4.6901 0
M  V30 3941 N 368.047 0.979072 1.23499 0
M  V30 3942 C 368.994 0.517904 2.24914 0
M  V30 3943 C 369.964 -0.442525 1.60097 0
M  V30 3944 O 371.149 -0.350365 1.87556 0
M  V30 3945 C 368.289 -0.174813 3.44657 0
M  V30 3946 C 367.402 0.825721 4.24035 0
M  V30 3947 C 366.537 0.107946 5.3109 0
M  V30 3948 C 365.576 1.09778 6.02175 0
M  V30 3949 N 364.713 0.40925 7.00906 0
M  V30 3950 H 369.553 1.38751 2.63727 0
M  V30 3951 H 367.09 0.695303 1.2963 0
M  V30 3952 H 369.048 -0.593233 4.12961 0
M  V30 3953 H 367.678 -1.0083 3.06648 0
M  V30 3954 H 366.73 1.36253 3.55161 0
M  V30 3955 H 368.042 1.58005 4.73113 0
M  V30 3956 H 367.196 -0.367904 6.05583 0
M  V30 3957 H 365.935 -0.678994 4.8295 0
M  V30 3958 H 364.94 1.5844 5.26476 0
M  V30 3959 H 366.165 1.88536 6.52404 0
M  V30 3960 H 364.111 -0.358506 6.5502 0
M  V30 3961 H 364.028 1.10226 7.47921 0
M  V30 3962 H 365.296 -0.0442557 7.79487 0
M  V30 3963 N 369.525 -1.3858 0.750561 0
M  V30 3964 C 370.773 -1.99789 0.30477 0
M  V30 3965 C 371.094 -1.59874 -1.11649 0
M  V30 3966 O 370.364 -0.85417 -1.76297 0
M  V30 3967 H 368.944 -0.738902 0.109694 0
M  V30 3968 H 371.606 -1.69391 0.963983 0
M  V30 3969 H 370.702 -3.09952 0.365499 0
M  V30 3970 N 371.003 -0.499398 -1.49478 0
M  V30 3971 C 372.249 0.0457576 -2.02748 0
M  V30 3972 C 372.582 1.36793 -1.37846 0
M  V30 3973 O 371.857 1.87596 -0.513601 0
M  V30 3974 C 372.14 0.199986 -3.59544 0
M  V30 3975 C 371.993 -1.1452 -4.34977 0
M  V30 3976 C 373.312 0.94137 -4.29914 0
M  V30 3977 H 370.431 0.0151552 -0.736844 0
M  V30 3978 H 373.073 -0.650498 -1.78518 0
M  V30 3979 H 371.223 0.793007 -3.8032 0
M  V30 3980 H 372.895 -1.77697 -4.25701 0
M  V30 3981 H 371.138 -1.73488 -3.97598 0
M  V30 3982 H 371.809 -0.990607 -5.43039 0
M  V30 3983 H 374.285 0.43844 -4.13784 0
M  V30 3984 H 373.161 1.01812 -5.39375 0
M  V30 3985 H 373.422 1.98471 -3.95046 0
M  V30 3986 N 372.481 1.55866 -0.233164 0
M  V30 3987 C 373.709 2.02998 0.399905 0
M  V30 3988 C 374.124 1.11274 1.52524 0
M  V30 3989 O 373.481 0.124528 1.82075 0
M  V30 3990 C 373.532 3.4958 0.920639 0
M  V30 3991 O 373.253 4.37808 -0.159834 0
M  V30 3992 C 374.754 4.12411 1.62578 0
M  V30 3993 H 371.974 0.664006 0.0966281 0
M  V30 3994 H 374.518 2.0143 -0.353013 0
M  V30 3995 H 372.673 3.51727 1.62379 0
M  V30 3996 H 373.087 5.23981 0.23337 0
M  V30 3997 H 374.561 5.16711 1.94201 0
M  V30 3998 H 375.038 3.5809 2.54299 0
M  V30 3999 H 375.644 4.14148 0.967553 0
M  V30 4000 N 373.959 -0.0401083 1.57549 0
M  V30 4001 C 374.922 -1.02871 2.04817 0
M  V30 4002 C 375.922 -1.29708 0.950388 0
M  V30 4003 O 377.112 -1.24897 1.21435 0
M  V30 4004 C 374.244 -2.36443 2.45576 0
M  V30 4005 H 375.437 -0.620631 2.93408 0
M  V30 4006 H 372.99 -0.286667 1.53649 0
M  V30 4007 H 373.725 -2.82021 1.60108 0
M  V30 4008 H 373.51 -2.18296 3.25713 0
M  V30 4009 H 375 -3.07441 2.82612 0
M  V30 4010 N 375.437 -1.54477 -0.31217 0
M  V30 4011 C 376.677 -1.74958 -1.05684 0
M  V30 4012 C 377.041 -0.518414 -1.84869 0
M  V30 4013 O 378.242 -0.600759 -2.62001 0
M  V30 4014 C 376.513 -2.99656 -1.94785 0
M  V30 4015 S 378.072 -3.4109 -2.76049 0
M  V30 4016 H 374.89 -0.615104 -0.356606 0
M  V30 4017 H 377.492 -1.92669 -0.331514 0
M  V30 4018 H 376.196 -3.87397 -1.35468 0
M  V30 4019 H 375.727 -2.845 -2.71704 0
M  V30 4020 H 377.742 -2.97283 -3.97287 0
M  V30 4021 N 376.915 0.57481 -1.46744 0
M  V30 4022 C 377.865 1.67838 -1.54319 0
M  V30 4023 C 378.849 1.55759 -0.40346 0
M  V30 4024 O 380.041 1.6454 -0.652347 0
M  V30 4025 C 377.17 3.06624 -1.5439 0
M  V30 4026 C 376.256 3.23971 -2.73685 0
M  V30 4027 N 376.647 3.11447 -3.9854 0
M  V30 4028 C 374.945 3.5493 -2.70075 0
M  V30 4029 C 375.646 3.31011 -4.78337 0
M  V30 4030 N 374.622 3.56533 -4.10348 0
M  V30 4031 H 378.424 1.56698 -2.48642 0
M  V30 4032 H 375.938 0.779071 -1.42493 0
M  V30 4033 H 377.935 3.85839 -1.57905 0
M  V30 4034 H 376.595 3.1889 -0.611493 0
M  V30 4035 H 377.606 2.89145 -4.29669 0
M  V30 4036 H 374.283 3.73832 -1.85893 0
M  V30 4037 H 375.673 3.26445 -5.87268 0
M  V30 4038 N 378.394 1.34581 0.820102 0
M  V30 4039 C 379.64 1.27285 1.57881 0
M  V30 4040 C 379.973 -0.156137 1.93571 0
M  V30 4041 O 379.248 -1.10222 1.60254 0
M  V30 4042 C 379.531 2.16639 2.87645 0
M  V30 4043 C 379.384 3.68088 2.58517 0
M  V30 4044 C 380.703 2.05378 3.8924 0
M  V30 4045 H 377.822 0.463714 0.572833 0
M  V30 4046 H 380.464 1.64859 0.944539 0
M  V30 4047 H 378.614 1.84725 3.41773 0
M  V30 4048 H 380.286 4.10382 2.10676 0
M  V30 4049 H 378.529 3.89038 1.91917 0
M  V30 4050 H 379.2 4.2598 3.51063 0
M  V30 4051 H 381.676 2.33404 3.44473 0
M  V30 4052 H 380.552 2.7012 4.77835 0
M  V30 4053 H 380.813 1.0316 4.29896 0
M  V30 4054 N 379.872 -1.04064 1.18357 0
M  V30 4055 C 380.835 -2.10243 0.912707 0
M  V30 4056 C 381.835 -1.60477 -0.101928 0
M  V30 4057 O 383.025 -1.73703 0.131517 0
M  V30 4058 C 380.157 -3.38893 0.369387 0
M  V30 4059 H 381.35 -2.35706 1.85426 0
M  V30 4060 H 378.903 -1.20489 0.995594 0
M  V30 4061 H 379.638 -3.19094 -0.578776 0
M  V30 4062 H 379.423 -3.76331 1.1008 0
M  V30 4063 H 380.913 -4.17128 0.198575 0
M  V30 4064 N 381.35 -0.985608 -1.22978 0
M  V30 4065 C 382.28 -0.549649 -2.26939 0
M  V30 4066 C 383.261 0.419803 -1.64838 0
M  V30 4067 O 384.446 0.31203 -1.91677 0
M  V30 4068 C 381.576 0.143652 -3.47003 0
M  V30 4069 C 380.53 -0.743606 -4.21491 0
M  V30 4070 C 379.856 0.0822027 -5.34637 0
M  V30 4071 C 381.156 -2.03694 -4.80943 0
M  V30 4072 H 382.85 -1.41862 -2.63658 0
M  V30 4073 H 380.396 -0.683571 -1.26741 0
M  V30 4074 H 382.349 0.459985 -4.18882 0
M  V30 4075 H 381.073 1.04711 -3.09359 0
M  V30 4076 H 379.732 -1.04347 -3.51436 0
M  V30 4077 H 379.38 0.986359 -4.93234 0
M  V30 4078 H 379.08 -0.508377 -5.85397 0
M  V30 4079 H 380.604 0.392797 -6.09335 0
M  V30 4080 H 382.018 -1.78504 -5.44802 0
M  V30 4081 H 380.415 -2.57573 -5.42011 0
M  V30 4082 H 381.485 -2.72042 -4.01399 0
M  V30 4083 N 382.828 1.3818 -0.7579 0
M  V30 4084 C 383.791 2.28764 -0.141286 0
M  V30 4085 C 384.791 1.47388 0.642907 0
M  V30 4086 O 385.981 1.67781 0.468536 0
M  V30 4087 C 383.113 3.31184 0.808069 0
M  V30 4088 H 384.306 2.848 -0.939633 0
M  V30 4089 H 381.859 1.47212 -0.525191 0
M  V30 4090 H 382.594 2.80247 1.63193 0
M  V30 4091 H 382.379 3.91314 0.248104 0
M  V30 4092 H 383.869 3.98909 1.23536 0
M  V30 4093 N 384.306 0.507319 1.49211 0
M  V30 4094 C 385.269 -0.256763 2.27757 0
M  V30 4095 C 386.269 -0.888287 1.34038 0
M  V30 4096 O 387.459 -0.751841 1.5714 0
M  V30 4097 C 384.591 -1.36905 3.12202 0
M  V30 4098 H 385.784 0.432557 2.96764 0
M  V30 4099 H 383.337 0.262488 1.5408 0
M  V30 4100 H 384.072 -2.09233 2.47775 0
M  V30 4101 H 383.857 -0.921599 3.81115 0
M  V30 4102 H 385.347 -1.9071 3.7151 0
M  V30 4103 N 385.784 -1.5574 0.241426 0
M  V30 4104 C 387.014 -2.02913 -0.38857 0
M  V30 4105 C 387.422 -1.12014 -1.52478 0
M  V30 4106 O 386.765 -0.125903 -1.83268 0
M  V30 4107 C 386.827 -3.4636 -0.963075 0
M  V30 4108 C 386.491 -4.56982 0.0401916 0
M  V30 4109 C 387.488 -5.12941 0.847766 0
M  V30 4110 C 385.173 -5.0203 0.164699 0
M  V30 4111 C 387.167 -6.12437 1.76636 0
M  V30 4112 C 384.854 -6.01358 1.0868 0
M  V30 4113 C 385.852 -6.5644 1.88616 0
M  V30 4114 O 385.54 -7.53831 2.79273 0
M  V30 4115 H 385.272 -0.668983 -0.0971452 0
M  V30 4116 H 387.826 -2.02198 0.361248 0
M  V30 4117 H 386.056 -3.44206 -1.76235 0
M  V30 4118 H 387.745 -3.77065 -1.50257 0
M  V30 4119 H 388.511 -4.78974 0.762133 0
M  V30 4120 H 384.39 -4.58824 -0.447411 0
M  V30 4121 H 387.934 -6.55355 2.39071 0
M  V30 4122 H 383.831 -6.34746 1.17338 0
M  V30 4123 H 384.599 -7.71428 2.73572 0
M  V30 4124 N 387.262 0.0317525 -1.57568 0
M  V30 4125 C 388.192 1.03274 -2.0942 0
M  V30 4126 C 389.173 1.3788 -0.996143 0
M  V30 4127 O 390.358 1.46811 -1.27122 0
M  V30 4128 C 387.488 2.33448 -2.57137 0
M  V30 4129 C 386.442 2.13091 -3.71182 0
M  V30 4130 C 385.768 3.49001 -4.05095 0
M  V30 4131 C 387.068 1.51928 -4.99715 0
M  V30 4132 H 388.762 0.60112 -2.93303 0
M  V30 4133 H 386.308 0.287705 -1.41097 0
M  V30 4134 H 388.261 3.03802 -2.92032 0
M  V30 4135 H 386.985 2.78665 -1.70333 0
M  V30 4136 H 385.644 1.45171 -3.36632 0
M  V30 4137 H 385.292 3.91862 -3.15362 0
M  V30 4138 H 384.992 3.36207 -4.81911 0
M  V30 4139 H 386.516 4.20721 -4.42522 0
M  V30 4140 H 387.93 2.12196 -5.32584 0
M  V30 4141 H 386.327 1.49716 -5.81124 0
M  V30 4142 H 387.397 0.484811 -4.8247 0
M  V30 4143 N 388.74 1.54641 0.303973 0
M  V30 4144 C 389.98 1.75516 1.04755 0
M  V30 4145 C 390.344 0.528211 1.84591 0
M  V30 4146 O 391.545 0.614645 2.61678 0
M  V30 4147 C 389.816 3.00685 1.93193 0
M  V30 4148 S 391.375 3.42549 2.74237 0
M  V30 4149 H 388.193 0.616987 0.353339 0
M  V30 4150 H 390.795 1.92842 0.321292 0
M  V30 4151 H 389.499 3.8811 1.33411 0
M  V30 4152 H 389.03 2.85937 2.70191 0
M  V30 4153 H 391.045 2.99386 3.95705 0
M  V30 4154 N 390.218 -0.567019 1.47046 0
M  V30 4155 C 391.466 -1.322 1.52864 0
M  V30 4156 C 391.787 -1.94088 0.188388 0
M  V30 4157 O 391.057 -1.7941 -0.786693 0
M  V30 4158 H 389.637 -0.490894 0.563056 0
M  V30 4159 H 392.299 -0.662879 1.83281 0
M  V30 4160 H 391.395 -2.12062 2.2899 0
M  V30 4161 N 391.696 -1.35014 -0.812953 0
M  V30 4162 C 392.643 -1.27412 -1.92444 0
M  V30 4163 C 393.613 -0.14733 -1.65445 0
M  V30 4164 O 394.798 -0.329974 -1.87925 0
M  V30 4165 C 391.938 -1.04558 -3.28879 0
M  V30 4166 C 391.051 -2.26101 -3.68106 0
M  V30 4167 C 390.186 -1.96449 -4.9354 0
M  V30 4168 C 389.225 -3.14081 -5.25376 0
M  V30 4169 N 388.362 -2.84246 -6.41988 0
M  V30 4170 H 393.202 -2.22463 -1.98278 0
M  V30 4171 H 390.739 -1.10593 -0.969933 0
M  V30 4172 H 392.697 -0.893413 -4.07522 0
M  V30 4173 H 391.327 -0.131719 -3.22531 0
M  V30 4174 H 390.379 -2.52204 -2.84775 0
M  V30 4175 H 391.691 -3.13959 -3.87597 0
M  V30 4176 H 390.845 -1.78026 -5.79993 0
M  V30 4177 H 389.584 -1.05867 -4.76071 0
M  V30 4178 H 388.589 -3.33089 -4.37415 0
M  V30 4179 H 389.814 -4.05455 -5.44778 0
M  V30 4180 H 387.76 -1.96252 -6.25956 0
M  V30 4181 H 387.677 -3.65637 -6.61699 0
M  V30 4182 H 388.945 -2.6935 -7.31485 0
M  V30 4183 N 393.175 1.03435 -1.18907 0
M  V30 4184 C 394.586 1.58195 -0.991523 0
M  V30 4185 C 394.937 1.90801 0.457081 0
M  V30 4186 O 394.062 1.70272 1.33553 0
M  V30 4187 C 394.657 2.87432 -1.79355 0
M  V30 4188 C 393.216 3.38785 -1.64017 0
M  V30 4189 C 392.363 2.12292 -1.78402 0
M  V30 4190 H 395.314 0.860299 -1.33359 0
M  V30 4191 H 395.335 3.58096 -1.28638 0
M  V30 4192 H 394.847 2.63669 -2.84781 0
M  V30 4193 H 392.948 3.67547 -0.611536 0
M  V30 4194 H 393.061 4.12186 -2.44212 0
M  V30 4195 H 391.425 2.23901 -1.2141 0
M  V30 4196 H 392.208 1.90977 -2.85277 0
M  V30 4197 N 394.653 0.992116 1.22453 0
M  V30 4198 C 395.93 0.583508 1.86694 0
M  V30 4199 C 396.31 -0.9392 1.89056 0
M  V30 4200 O 395.658 -1.82081 1.38053 0
M  V30 4201 C 395.868 1.20304 3.2761 0
M  V30 4202 C 397.216 1.30308 4.0411 0
M  V30 4203 O 398.24 1.15737 3.36873 0
M  V30 4204 O 397.099 1.53615 5.24466 0
M  V30 4205 H 394.193 0.198129 0.802916 0
M  V30 4206 H 396.739 1.08794 1.30238 0
M  V30 4207 H 395.511 2.24461 3.2052 0
M  V30 4208 H 395.134 0.684144 3.9167 0
M  V30 4209 N 396.131 -1.37776 0.765217 0
M  V30 4210 C 397.377 -2.00145 0.327072 0
M  V30 4211 C 397.71 -1.60607 -1.09175 0
M  V30 4212 O 396.985 -0.849127 -1.74986 0
M  V30 4213 C 397.268 -3.57109 0.46319 0
M  V30 4214 C 397.121 -4.06576 1.92395 0
M  V30 4215 C 398.44 -4.39888 -0.136473 0
M  V30 4216 H 395.559 -0.727113 0.120316 0
M  V30 4217 H 398.201 -1.63549 0.967039 0
M  V30 4218 H 396.351 -3.88414 -0.0816358 0
M  V30 4219 H 398.023 -3.85864 2.52798 0
M  V30 4220 H 396.266 -3.59011 2.43503 0
M  V30 4221 H 396.937 -5.15639 1.97028 0
M  V30 4222 H 399.413 -4.14803 0.328317 0
M  V30 4223 H 398.289 -5.48899 -0.0110582 0
M  V30 4224 H 398.55 -4.24758 -1.22608 0
M  V30 4225 N 397.609 -0.515225 -1.4894 0
M  V30 4226 C 398.572 0.244681 -2.2789 0
M  V30 4227 C 399.572 0.881166 -1.34507 0
M  V30 4228 O 400.762 0.743497 -1.57537 0
M  V30 4229 C 397.894 1.35247 -3.12923 0
M  V30 4230 H 399.087 -0.448289 -2.96531 0
M  V30 4231 H 396.64 -0.270656 -1.53939 0
M  V30 4232 H 397.375 2.07916 -2.48881 0
M  V30 4233 H 397.16 0.901374 -3.81599 0
M  V30 4234 H 398.65 1.88737 -3.72516 0
M  V30 4235 N 399.087 1.5561 -0.249682 0
M  V30 4236 C 400.333 1.99306 0.374841 0
M  V30 4237 C 400.666 1.13767 1.57387 0
M  V30 4238 O 399.941 0.201711 1.93451 0
M  V30 4239 C 400.224 3.51507 0.781986 0
M  V30 4240 C 400.077 4.4781 -0.422629 0
M  V30 4241 C 401.396 4.08884 1.62793 0
M  V30 4242 H 398.515 0.724572 0.134773 0
M  V30 4243 H 401.157 1.86719 -0.351549 0
M  V30 4244 H 399.307 3.62363 1.4009 0
M  V30 4245 H 400.979 4.48931 -1.06108 0
M  V30 4246 H 399.222 4.20518 -1.06524 0
M  V30 4247 H 399.893 5.51919 -0.0943766 0
M  V30 4248 H 402.369 4.01147 1.10547 0
M  V30 4249 H 401.245 5.1564 1.88166 0
M  V30 4250 H 401.506 3.57515 2.60068 0
M  V30 4251 N 400.565 -0.0233959 1.57583 0
M  V30 4252 C 401.795 -0.723631 1.93513 0
M  V30 4253 C 402.203 -1.69115 0.848333 0
M  V30 4254 O 401.546 -1.82781 -0.183484 0
M  V30 4255 C 401.608 -1.53075 3.25282 0
M  V30 4256 C 401.272 -0.727388 4.51174 0
M  V30 4257 C 402.269 -0.0251924 5.19894 0
M  V30 4258 C 399.954 -0.680256 4.97672 0
M  V30 4259 C 401.948 0.713374 6.33395 0
M  V30 4260 C 399.635 0.0620523 6.11068 0
M  V30 4261 C 400.633 0.757622 6.78785 0
M  V30 4262 O 400.321 1.48787 7.90011 0
M  V30 4263 H 400.053 -0.208051 0.643188 0
M  V30 4264 H 402.607 0.0167489 2.05393 0
M  V30 4265 H 400.837 -2.31508 3.09744 0
M  V30 4266 H 402.526 -2.11413 3.46496 0
M  V30 4267 H 403.292 -0.0526003 4.84971 0
M  V30 4268 H 399.171 -1.21116 4.44805 0
M  V30 4269 H 402.715 1.25683 6.86185 0
M  V30 4270 H 398.612 0.0913634 6.45435 0
M  V30 4271 H 399.38 1.40213 8.06401 0
M  V30 4272 N 402.043 -1.548 -0.295768 0
M  V30 4273 C 403.32 -1.65014 -1.05023 0
M  V30 4274 C 403.7 -0.501805 -2.05049 0
M  V30 4275 O 403.048 0.500869 -2.22943 0
M  V30 4276 C 403.258 -3.03252 -1.72741 0
M  V30 4277 C 404.606 -3.60242 -2.24746 0
M  V30 4278 O 405.63 -3.05737 -1.82765 0
M  V30 4279 O 404.489 -4.55687 -3.01681 0
M  V30 4280 H 401.583 -0.669314 -0.485744 0
M  V30 4281 H 404.129 -1.67144 -0.293438 0
M  V30 4282 H 402.901 -3.7827 -1.00138 0
M  V30 4283 H 402.524 -3.04922 -2.55163 0
M  V30 4284 N 403.521 0.559213 -1.47345 0
M  V30 4285 C 404.769 1.31388 -1.53563 0
M  V30 4286 C 405.09 1.93985 -0.198678 0
M  V30 4287 O 404.36 1.79825 0.777167 0
M  V30 4288 H 402.94 0.487901 -0.565652 0
M  V30 4289 H 405.602 0.65315 -1.8363 0
M  V30 4290 H 404.698 2.10844 -2.30111 0
M  V30 4291 N 404.999 1.35443 0.805782 0
M  V30 4292 C 406.224 1.32037 1.59941 0
M  V30 4293 C 406.649 -0.0994215 1.87837 0
M  V30 4294 O 406.007 -1.06648 1.46615 0
M  V30 4295 C 406.055 2.13354 2.90711 0
M  V30 4296 O 405.159 1.5148 3.83572 0
M  V30 4297 H 404.5 0.452666 0.485787 0
M  V30 4298 H 407.03 1.78496 1.00002 0
M  V30 4299 H 407.04 2.25338 3.40128 0
M  V30 4300 H 405.715 3.16572 2.69732 0
M  V30 4301 H 404.292 1.4834 3.42125 0
M  V30 4302 N 406.477 -1.02803 1.19454 0
M  V30 4303 C 407.723 -1.76598 1.0092 0
M  V30 4304 C 408.078 -1.86939 -0.455142 0
M  V30 4305 O 407.371 -1.37575 -1.33355 0
M  V30 4306 C 407.565 -3.18941 1.6128 0
M  V30 4307 C 407.394 -3.22476 3.13431 0
M  V30 4308 C 406.164 -3.30375 3.82336 0
M  V30 4309 C 408.362 -3.09451 4.10785 0
M  V30 4310 N 406.344 -3.23292 5.21877 0
M  V30 4311 C 407.715 -3.10012 5.36929 0
M  V30 4312 C 409.77 -2.93585 4.02135 0
M  V30 4313 C 408.473 -2.96334 6.55423 0
M  V30 4314 C 410.499 -2.81256 5.20239 0
M  V30 4315 C 409.861 -2.82472 6.45282 0
M  V30 4316 H 405.96 -0.657447 0.423424 0
M  V30 4317 H 408.544 -1.22369 1.5144 0
M  V30 4318 H 406.715 -3.71489 1.1336 0
M  V30 4319 H 408.447 -3.81102 1.36173 0
M  V30 4320 H 405.202 -3.3663 3.33132 0
M  V30 4321 H 405.626 -3.23156 5.94894 0
M  V30 4322 H 410.268 -2.91466 3.0628 0
M  V30 4323 H 407.986 -2.97203 7.51463 0
M  V30 4324 H 411.572 -2.70014 5.15348 0
M  V30 4325 H 410.452 -2.73036 7.35133 0
M  V30 4326 N 407.956 -0.998596 -1.21925 0
M  V30 4327 C 409.181 -0.696015 -1.95372 0
M  V30 4328 C 409.606 0.733826 -1.73195 0
M  V30 4329 O 408.964 1.50242 -1.01474 0
M  V30 4330 C 409.012 -1.01466 -3.4603 0
M  V30 4331 O 408.116 -0.116415 -4.12236 0
M  V30 4332 H 407.457 -0.259938 -0.611006 0
M  V30 4333 H 409.987 -1.33711 -1.54863 0
M  V30 4334 H 409.997 -0.958855 -3.96573 0
M  V30 4335 H 408.672 -2.05653 -3.61497 0
M  V30 4336 H 407.249 -0.228193 -3.72201 0
M  V30 4337 N 409.434 1.37368 -0.772513 0
M  V30 4338 C 410.344 2.34053 -0.160081 0
M  V30 4339 C 411.36 1.60216 0.678728 0
M  V30 4340 O 412.536 1.92303 0.59847 0
M  V30 4341 C 409.601 3.3939 0.708182 0
M  V30 4342 C 408.662 4.29048 -0.147172 0
M  V30 4343 C 407.895 5.29354 0.679744 0
M  V30 4344 O 408.118 5.3723 1.91678 0
M  V30 4345 O 407.052 6.01835 0.0885444 0
M  V30 4346 H 410.878 2.88159 -0.959053 0
M  V30 4347 H 408.463 1.39543 -0.533685 0
M  V30 4348 H 410.345 4.03839 1.20384 0
M  V30 4349 H 409.02 2.8761 1.48533 0
M  V30 4350 H 407.927 3.67697 -0.689205 0
M  V30 4351 H 409.26 4.84134 -0.887423 0
M  V30 4352 N 410.912 0.523116 1.48665 0
M  V30 4353 C 412.158 -0.00540031 2.03399 0
M  V30 4354 C 412.513 -1.3264 1.39372 0
M  V30 4355 O 411.806 -1.84184 0.527916 0
M  V30 4356 C 412 -0.191671 3.56886 0
M  V30 4357 C 411.829 1.10972 4.35793 0
M  V30 4358 C 410.599 1.66769 4.76987 0
M  V30 4359 C 412.797 2.01861 4.73029 0
M  V30 4360 N 410.779 2.91268 5.40404 0
M  V30 4361 C 412.15 3.10937 5.36394 0
M  V30 4362 C 414.205 2.02271 4.54962 0
M  V30 4363 C 412.908 4.20478 5.83601 0
M  V30 4364 C 414.934 3.10802 5.03146 0
M  V30 4365 C 414.296 4.18597 5.6653 0
M  V30 4366 H 410.395 0.0393531 0.781009 0
M  V30 4367 H 412.979 0.702876 1.8157 0
M  V30 4368 H 411.15 -0.869025 3.78553 0
M  V30 4369 H 412.882 -0.719177 3.98259 0
M  V30 4370 H 409.637 1.20996 4.57883 0
M  V30 4371 H 410.061 3.54635 5.76683 0
M  V30 4372 H 414.703 1.2023 4.05345 0
M  V30 4373 H 412.421 5.03303 6.32228 0
M  V30 4374 H 416.007 3.12166 4.90962 0
M  V30 4375 H 414.887 5.01193 6.03138 0
M  V30 4376 N 412.39 -1.55475 0.257931 0
M  V30 4377 C 413.637 -1.99207 -0.363728 0
M  V30 4378 C 413.965 -1.1462 -1.57139 0
M  V30 4379 O 413.22 -0.199653 -1.94679 0
M  V30 4380 C 413.519 -3.48183 -0.806433 0
M  V30 4381 C 413.185 -4.49936 0.294684 0
M  V30 4382 C 411.847 -4.77481 0.597076 0
M  V30 4383 C 414.199 -5.10769 1.03751 0
M  V30 4384 C 411.527 -5.63132 1.64618 0
M  V30 4385 C 413.879 -5.97558 2.07622 0
M  V30 4386 C 412.543 -6.23432 2.38514 0
M  V30 4387 H 411.813 -0.728949 -0.133097 0
M  V30 4388 H 414.46 -1.8793 0.368059 0
M  V30 4389 H 412.765 -3.56848 -1.61761 0
M  V30 4390 H 414.462 -3.79415 -1.29789 0
M  V30 4391 H 411.052 -4.28572 0.0488649 0
M  V30 4392 H 415.236 -4.89527 0.817149 0
M  V30 4393 H 410.492 -5.8143 1.89074 0
M  V30 4394 H 414.666 -6.43735 2.65666 0
M  V30 4395 H 412.293 -6.89594 3.19943 0
M  V30 4396 N 413.868 0.0150385 -1.57593 0
M  V30 4397 C 415.284 0.370907 -1.5523 0
M  V30 4398 C 415.484 1.75735 -0.985882 0
M  V30 4399 O 414.54 2.44944 -0.613077 0
M  V30 4400 C 415.853 0.259908 -2.99575 0
M  V30 4401 C 417.401 0.335959 -3.11192 0
M  V30 4402 C 417.876 0.254253 -4.57294 0
M  V30 4403 N 419.367 0.312618 -4.62144 0
M  V30 4404 C 420.102 0.272505 -5.72752 0
M  V30 4405 N 419.598 0.183864 -6.92556 0
M  V30 4406 N 421.391 0.323267 -5.6117 0
M  V30 4407 H 413.542 -0.892104 -1.92757 0
M  V30 4408 H 415.805 -0.340563 -0.884715 0
M  V30 4409 H 415.511 -0.693403 -3.44797 0
M  V30 4410 H 415.385 1.048 -3.62349 0
M  V30 4411 H 417.772 1.27971 -2.65909 0
M  V30 4412 H 417.853 -0.481739 -2.51223 0
M  V30 4413 H 417.497 -0.685887 -5.03247 0
M  V30 4414 H 417.427 1.09024 -5.15191 0
M  V30 4415 H 419.918 0.38307 -3.75953 0
M  V30 4416 H 420.231 0.15874 -7.72637 0
M  V30 4417 H 418.576 0.149708 -6.94839 0
M  V30 4418 H 421.767 0.390607 -4.66467 0
M  V30 4419 H 421.94 0.288539 -6.47357 0
M  V30 4420 N 415.346 1.54954 0.287554 0
M  V30 4421 C 416.762 1.46469 0.633964 0
M  V30 4422 C 416.962 0.666865 1.90145 0
M  V30 4423 O 416.018 0.179906 2.51858 0
M  V30 4424 C 417.331 2.90556 0.774454 0
M  V30 4425 C 418.879 3.00681 0.869462 0
M  V30 4426 C 419.354 4.45993 1.04184 0
M  V30 4427 N 420.845 4.4976 1.10772 0
M  V30 4428 C 421.58 5.59393 1.25964 0
M  V30 4429 N 421.076 6.78923 1.37968 0
M  V30 4430 N 422.869 5.47107 1.28959 0
M  V30 4431 H 415.02 2.05288 -0.545041 0
M  V30 4432 H 417.283 0.930305 -0.182308 0
M  V30 4433 H 416.989 3.51594 -0.086207 0
M  V30 4434 H 416.863 3.38743 1.6593 0
M  V30 4435 H 419.25 2.39749 1.7206 0
M  V30 4436 H 419.331 2.55769 -0.0396831 0
M  V30 4437 H 418.975 5.07524 0.195422 0
M  V30 4438 H 418.905 4.88548 1.96542 0
M  V30 4439 H 421.396 3.63651 1.02794 0
M  V30 4440 H 421.709 7.58231 1.49353 0
M  V30 4441 H 420.054 6.81763 1.34999 0
M  V30 4442 H 423.245 4.52668 1.19202 0
M  V30 4443 H 423.418 6.32595 1.40455 0
M  V30 4444 N 416.824 -0.551391 1.4764 0
M  V30 4445 C 417.787 -1.64007 1.60107 0
M  V30 4446 C 418.787 -1.53601 0.47576 0
M  V30 4447 O 419.977 -1.57655 0.740988 0
M  V30 4448 C 417.109 -3.03569 1.55108 0
M  V30 4449 H 418.302 -1.543 2.57161 0
M  V30 4450 H 415.855 -0.771776 1.35917 0
M  V30 4451 H 416.59 -3.18804 0.594519 0
M  V30 4452 H 416.375 -3.12532 2.36783 0
M  V30 4453 H 417.865 -3.82762 1.66982 0
M  V30 4454 N 418.302 -1.35869 -0.798587 0
M  V30 4455 C 419.713 -1.26498 -1.37314 0
M  V30 4456 C 420.064 0.0991899 -1.95949 0
M  V30 4457 O 419.189 1.0004 -1.91888 0
M  V30 4458 C 419.784 -2.29054 -2.49639 0
M  V30 4459 C 418.343 -2.234 -3.02935 0
M  V30 4460 C 417.49 -2.14329 -1.75949 0
M  V30 4461 H 420.441 -1.46881 -0.600971 0
M  V30 4462 H 420.462 -1.92166 -3.28409 0
M  V30 4463 H 419.974 -3.2833 -2.06933 0
M  V30 4464 H 418.075 -1.27562 -3.50084 0
M  V30 4465 H 418.188 -3.15703 -3.60372 0
M  V30 4466 H 416.552 -1.60435 -1.9782 0
M  V30 4467 H 417.335 -3.15477 -1.35384 0
M  V30 4468 N 419.78 1.02168 -1.19998 0
M  V30 4469 C 421.191 1.57135 -1.00825 0
M  V30 4470 C 421.542 1.91276 0.436818 0
M  V30 4471 O 420.667 1.71679 1.3174 0
M  V30 4472 C 421.262 2.85514 -1.82393 0
M  V30 4473 C 419.821 3.37027 -1.67601 0
M  V30 4474 C 418.968 2.10388 -1.80644 0
M  V30 4475 H 421.919 0.846106 -1.34264 0
M  V30 4476 H 421.94 3.56711 -1.32429 0
M  V30 4477 H 421.452 2.60634 -2.87561 0
M  V30 4478 H 419.553 3.66878 -0.650485 0
M  V30 4479 H 419.666 4.09572 -2.4857 0
M  V30 4480 H 418.03 2.22601 -1.23778 0
M  V30 4481 H 418.813 1.8794 -2.87286 0
M  V30 4482 N 421.258 1.00505 1.21394 0
M  V30 4483 C 422.168 0.574806 2.27449 0
M  V30 4484 C 423.184 -0.382206 1.6975 0
M  V30 4485 O 424.36 -0.246027 1.99892 0
M  V30 4486 C 421.425 -0.0917414 3.46579 0
M  V30 4487 C 420.486 0.909758 4.1955 0
M  V30 4488 C 419.719 0.274924 5.32991 0
M  V30 4489 O 419.942 -0.928254 5.62796 0
M  V30 4490 O 418.876 0.985877 5.93771 0
M  V30 4491 H 422.702 1.45744 2.66444 0
M  V30 4492 H 420.287 0.773923 1.27792 0
M  V30 4493 H 422.169 -0.464551 4.18832 0
M  V30 4494 H 420.844 -0.948755 3.09484 0
M  V30 4495 H 419.751 1.33372 3.49518 0
M  V30 4496 H 421.084 1.73636 4.60555 0
M  V30 4497 N 422.737 -1.36956 0.779787 0
M  V30 4498 C 423.962 -2.04283 0.358224 0
M  V30 4499 C 424.387 -1.58422 -1.01411 0
M  V30 4500 O 423.745 -0.748179 -1.65142 0
M  V30 4501 C 423.793 -3.58152 0.419479 0
M  V30 4502 O 422.897 -4.08342 -0.577142 0
M  V30 4503 H 422.238 -0.645967 0.153698 0
M  V30 4504 H 424.768 -1.75108 1.05822 0
M  V30 4505 H 424.778 -4.07041 0.279636 0
M  V30 4506 H 423.453 -3.90886 1.42061 0
M  V30 4507 H 422.03 -3.70751 -0.399755 0
M  V30 4508 N 424.215 -0.530993 -1.48385 0
M  V30 4509 C 425.631 -0.188919 -1.58478 0
M  V30 4510 C 425.831 1.30786 -1.53288 0
M  V30 4511 O 424.887 2.08619 -1.42248 0
M  V30 4512 C 426.2 -0.792343 -2.90073 0
M  V30 4513 C 427.748 -0.76117 -3.03604 0
M  V30 4514 C 428.223 -1.34319 -4.37861 0
M  V30 4515 N 429.714 -1.3052 -4.44431 0
M  V30 4516 C 430.449 -1.72543 -5.46824 0
M  V30 4517 N 429.945 -2.22299 -6.56167 0
M  V30 4518 N 431.738 -1.63773 -5.37712 0
M  V30 4519 H 423.889 -1.50377 -1.50002 0
M  V30 4520 H 426.152 -0.625559 -0.712306 0
M  V30 4521 H 425.858 -1.84323 -2.99529 0
M  V30 4522 H 425.732 -0.270026 -3.76232 0
M  V30 4523 H 428.119 0.280957 -2.93759 0
M  V30 4524 H 428.2 -1.32097 -2.19053 0
M  V30 4525 H 427.844 -2.38425 -4.4846 0
M  V30 4526 H 427.774 -0.759064 -5.21101 0
M  V30 4527 H 430.265 -0.940973 -3.65997 0
M  V30 4528 H 430.578 -2.52356 -7.30436 0
M  V30 4529 H 428.923 -2.26293 -6.57127 0
M  V30 4530 H 432.114 -1.24698 -4.51185 0
M  V30 4531 H 432.287 -1.96844 -6.17379 0
M  V30 4532 N 425.693 1.55336 -0.266172 0
M  V30 4533 C 426.939 1.99692 0.353681 0
M  V30 4534 C 427.272 1.1543 1.56172 0
M  V30 4535 O 426.547 0.222218 1.93226 0
M  V30 4536 C 426.83 3.52316 0.74466 0
M  V30 4537 C 426.683 4.47337 -0.470101 0
M  V30 4538 C 428.002 4.10588 1.58447 0
M  V30 4539 H 425.121 0.725961 0.12708 0
M  V30 4540 H 427.763 1.86336 -0.371333 0
M  V30 4541 H 425.913 3.63829 1.36239 0
M  V30 4542 H 427.585 4.4778 -1.10864 0
M  V30 4543 H 425.828 4.19364 -1.10978 0
M  V30 4544 H 426.499 5.51788 -0.15291 0
M  V30 4545 H 428.975 4.02297 1.06286 0
M  V30 4546 H 427.851 5.17607 1.82686 0
M  V30 4547 H 428.112 3.60253 2.56262 0
M  V30 4548 N 427.171 -0.0066808 1.57599 0
M  V30 4549 C 428.396 -0.707738 1.94951 0
M  V30 4550 C 428.821 -1.66882 0.867868 0
M  V30 4551 O 428.179 -1.80457 -0.17458 0
M  V30 4552 C 428.227 -1.42162 3.31394 0
M  V30 4553 O 427.331 -2.53578 3.25226 0
M  V30 4554 H 426.672 -0.188752 0.636607 0
M  V30 4555 H 429.202 0.0445193 2.04552 0
M  V30 4556 H 429.212 -1.78655 3.66806 0
M  V30 4557 H 427.887 -0.716903 4.09675 0
M  V30 4558 H 426.464 -2.19463 3.01481 0
M  V30 4559 N 428.649 -1.55105 -0.279332 0
M  V30 4560 C 429.581 -1.83952 -1.36727 0
M  V30 4561 C 430.594 -0.723642 -1.45833 0
M  V30 4562 O 431.783 -1.00141 -1.47763 0
M  V30 4563 C 428.883 -1.98183 -2.74912 0
M  V30 4564 C 428.056 -3.28787 -2.88475 0
M  V30 4565 C 427.115 -3.33162 -4.07295 0
M  V30 4566 O 426.141 -4.06576 -3.98353 0
M  V30 4567 N 427.343 -2.60109 -5.18964 0
M  V30 4568 H 430.108 -2.77853 -1.12328 0
M  V30 4569 H 427.669 -1.54945 -0.469442 0
M  V30 4570 H 429.661 -1.98488 -3.52682 0
M  V30 4571 H 428.231 -1.11177 -2.92162 0
M  V30 4572 H 427.451 -3.41075 -1.97641 0
M  V30 4573 H 428.739 -4.14933 -2.94463 0
M  V30 4574 H 428.137 -2.00136 -5.29115 0
M  V30 4575 H 426.694 -2.66143 -5.94988 0
M  V30 4576 N 430.127 0.543554 -1.4793 0
M  V30 4577 C 431.375 1.29752 -1.54948 0
M  V30 4578 C 431.696 1.93764 -0.219242 0
M  V30 4579 O 430.966 1.80639 0.75805 0
M  V30 4580 H 429.546 0.481874 -0.570795 0
M  V30 4581 H 432.208 0.633636 -1.84312 0
M  V30 4582 H 431.304 2.08392 -2.32334 0
M  V30 4583 N 431.605 1.3629 0.791371 0
M  V30 4584 C 432.552 1.30458 1.90393 0
M  V30 4585 C 433.522 0.173632 1.6519 0
M  V30 4586 O 434.707 0.35983 1.87376 0
M  V30 4587 C 431.847 1.09777 3.27174 0
M  V30 4588 C 430.96 2.31929 3.64462 0
M  V30 4589 C 430.095 2.04276 4.90352 0
M  V30 4590 C 429.134 3.224 5.20312 0
M  V30 4591 N 428.271 2.94424 6.37385 0
M  V30 4592 H 433.111 2.25589 1.94714 0
M  V30 4593 H 430.648 1.12122 0.952216 0
M  V30 4594 H 432.606 0.958133 4.06049 0
M  V30 4595 H 431.236 0.183014 3.22281 0
M  V30 4596 H 430.288 2.56703 2.80727 0
M  V30 4597 H 431.6 3.20085 3.82553 0
M  V30 4598 H 430.754 1.87231 5.77087 0
M  V30 4599 H 429.493 1.13428 4.74326 0
M  V30 4600 H 428.498 3.40005 4.32061 0
M  V30 4601 H 429.723 4.14071 5.38258 0
M  V30 4602 H 427.669 2.06185 6.22755 0
M  V30 4603 H 427.586 3.76118 6.55798 0
M  V30 4604 H 428.854 2.80953 7.27108 0
M  V30 4605 N 433.083 -1.0153 1.20538 0
M  V30 4606 C 434.308 -1.79283 1.04271 0
M  V30 4607 C 434.733 -1.8372 -0.403544 0
M  V30 4608 O 434.091 -1.27321 -1.2907 0
M  V30 4609 C 434.139 -3.21535 1.63241 0
M  V30 4610 O 433.243 -4.03099 0.870908 0
M  V30 4611 H 432.584 -0.55293 0.367647 0
M  V30 4612 H 435.114 -1.27696 1.59859 0
M  V30 4613 H 435.124 -3.72243 1.6703 0
M  V30 4614 H 433.799 -3.1762 2.68497 0
M  V30 4615 H 432.376 -3.61693 0.907323 0
M  V30 4616 N 434.561 -1.01147 -1.20859 0
M  V30 4617 C 435.471 -0.58686 -2.27141 0
M  V30 4618 C 436.487 0.373198 -1.69951 0
M  V30 4619 O 437.663 0.235423 -2.00019 0
M  V30 4620 C 434.728 0.0733602 -3.46622 0
M  V30 4621 C 433.789 -0.931995 -4.19061 0
M  V30 4622 C 433.022 -0.303186 -5.32838 0
M  V30 4623 O 433.245 0.898395 -5.63281 0
M  V30 4624 O 432.179 -1.01735 -5.9324 0
M  V30 4625 H 436.005 -1.47155 -2.65667 0
M  V30 4626 H 433.59 -0.780689 -1.2738 0
M  V30 4627 H 435.472 0.442333 -4.19072 0
M  V30 4628 H 434.147 0.932329 -3.09983 0
M  V30 4629 H 433.054 -1.35224 -3.48805 0
M  V30 4630 H 434.387 -1.76076 -4.59628 0
M  V30 4631 N 436.039 1.36541 -0.78704 0
M  V30 4632 C 436.986 2.30082 -0.181901 0
M  V30 4633 C 437.956 1.5186 0.672896 0
M  V30 4634 O 439.141 1.80374 0.622072 0
M  V30 4635 C 436.281 3.3835 0.679197 0
M  V30 4636 C 435.394 4.31565 -0.193882 0
M  V30 4637 C 434.529 5.26915 0.673364 0
M  V30 4638 C 433.568 6.11769 -0.201315 0
M  V30 4639 N 432.705 6.99315 0.624777 0
M  V30 4640 H 437.545 2.81248 -0.985064 0
M  V30 4641 H 435.082 1.38437 -0.497342 0
M  V30 4642 H 437.04 3.99767 1.19341 0
M  V30 4643 H 435.67 2.8851 1.44781 0
M  V30 4644 H 434.722 3.71323 -0.826044 0
M  V30 4645 H 436.034 4.91191 -0.867937 0
M  V30 4646 H 435.188 5.9361 1.25348 0
M  V30 4647 H 433.927 4.67737 1.38105 0
M  V30 4648 H 432.932 5.44039 -0.793849 0
M  V30 4649 H 434.157 6.73022 -0.906568 0
M  V30 4650 H 432.103 6.42648 1.3168 0
M  V30 4651 H 432.02 7.56 0.00835237 0
M  V30 4652 H 433.288 7.70382 1.18879 0
M  V30 4653 N 437.518 0.538854 1.48102 0
M  V30 4654 C 438.481 -0.208395 2.28251 0
M  V30 4655 C 439.481 -0.859656 1.35892 0
M  V30 4656 O 440.671 -0.71834 1.58699 0
M  V30 4657 C 437.803 -1.30252 3.15035 0
M  V30 4658 H 438.996 0.495407 2.9578 0
M  V30 4659 H 436.549 0.295112 1.53489 0
M  V30 4660 H 437.284 -2.0393 2.52157 0
M  V30 4661 H 437.069 -0.840551 3.82985 0
M  V30 4662 H 438.559 -1.82787 3.75471 0
M  V30 4663 O 439.035 -1.56041 0.416352 0
M  V30 4664 H 439.726 -1.93313 -0.122438 0
M  V30 END ATOM
M  V30 BEGIN BOND
M  V30 END BOND
M  V30 END CTAB
M  END
$$$$
